drugbank_target|P37698 Endoglucanase F (DB01642; DB02252; DB02379; DB03584; DB03857)
 OpenBabel12092119523D

  0  0  0     0  0            999 V3000
M  V30 BEGIN CTAB
M  V30 COUNTS 11053 11221 0 0 0
M  V30 BEGIN ATOM
M  V30 1 H -0.908 1.98254 -0.117106 0
M  V30 2 N 0 1.576 0 0
M  V30 3 C 0.933 2.03868 1.02534 0
M  V30 4 C 1.911 0.928543 1.3348 0
M  V30 5 O 3.095 1.19667 1.45644 0
M  V30 6 C 0.222 2.43627 2.35294 0
M  V30 7 C -0.732 3.65373 2.2001 0
M  V30 8 S 0.101 5.13292 1.52614 0
M  V30 9 C 1.257 5.56322 2.86805 0
M  V30 10 H 1.49 2.90518 0.631377 0
M  V30 11 H -0.977 1.52953 0.210867 0
M  V30 12 H 0.981 2.67203 3.11629 0
M  V30 13 H -0.358 1.57376 2.7183 0
M  V30 14 H -1.165 3.90944 3.18086 0
M  V30 15 H -1.563 3.418 1.51819 0
M  V30 16 H 0.729 5.58782 3.83104 0
M  V30 17 H 1.672 6.56266 2.65933 0
M  V30 18 H 2.08 4.83886 2.90714 0
M  V30 19 N 1.4781 -0.272755 1.55222 0
M  V30 20 C 2.7031 -1.02683 1.80197 0
M  V30 21 C 3.1281 -1.79142 0.573551 0
M  V30 22 O 2.4861 -1.74917 -0.476849 0
M  V30 23 C 2.5341 -1.9609 3.02624 0
M  V30 24 O 1.6381 -3.04863 2.77727 0
M  V30 25 H 0.9791 -0.293557 0.595584 0
M  V30 26 H 3.5091 -0.30159 2.02365 0
M  V30 27 H 3.5191 -2.38039 3.31363 0
M  V30 28 H 2.1941 -1.39851 3.91682 0
M  V30 29 H 0.7711 -2.67228 2.60084 0
M  V30 30 N 2.9562 -1.48159 -0.537278 0
M  V30 31 C 3.9032 -1.62138 -1.64256 0
M  V30 32 C 4.8732 -0.463668 -1.59497 0
M  V30 33 O 6.0582 -0.686241 -1.78032 0
M  V30 34 C 3.1982 -1.66028 -3.02537 0
M  V30 35 C 2.3112 -2.92855 -3.17585 0
M  V30 36 C 1.4462 -2.87952 -4.46382 0
M  V30 37 C 0.4852 -4.09516 -4.54932 0
M  V30 38 N -0.3778 -4.02733 -5.75109 0
M  V30 39 H 4.4622 -2.56529 -1.51647 0
M  V30 40 H 1.9992 -1.27224 -0.738414 0
M  V30 41 H 3.9572 -1.66265 -3.82638 0
M  V30 42 H 2.5872 -0.751331 -3.13934 0
M  V30 43 H 1.6392 -3.02395 -2.30784 0
M  V30 44 H 2.9512 -3.82822 -3.19764 0
M  V30 45 H 2.1052 -2.8655 -5.34765 0
M  V30 46 H 0.8442 -1.95702 -4.46712 0
M  V30 47 H -0.1508 -4.11201 -3.64957 0
M  V30 48 H 1.0742 -5.02917 -4.56346 0
M  V30 49 H -0.9798 -3.13299 -5.76351 0
M  V30 50 H -1.0628 -4.86397 -5.78752 0
M  V30 51 H 0.2052 -4.05379 -6.65799 0
M  V30 52 N 4.4343 0.785586 -1.36625 0
M  V30 53 C 5.3823 1.91978 -1.31329 0
M  V30 54 C 6.3763 1.68162 -0.204416 0
M  V30 55 O 7.5823 1.76122 -0.371645 0
M  V30 56 H 3.9573 0.631087 -0.408942 0
M  V30 57 H 5.9283 1.93562 -2.27104 0
M  V30 58 C 4.6773 3.29055 -1.12329 0
M  V30 59 H 4.0003 3.4795 -1.96903 0
M  V30 60 H 5.4403 4.08756 -1.12671 0
M  V30 61 C 3.8993 3.36461 0.171861 0
M  V30 62 O 4.4293 3.84576 1.16035 0
M  V30 63 N 2.6353 2.89782 0.217846 0
M  V30 64 H 2.1823 2.50819 -0.587183 0
M  V30 65 H 2.1403 2.95119 1.08408 0
M  V30 66 N 5.9124 1.20967 1.01018 0
M  V30 67 C 7.1594 1.02374 1.74716 0
M  V30 68 C 7.4874 -0.443375 1.89379 0
M  V30 69 O 6.7424 -1.34535 1.42123 0
M  V30 70 C 7.0414 1.65997 3.16512 0
M  V30 71 C 6.7074 3.15831 3.2181 0
M  V30 72 C 5.3694 3.56719 3.22963 0
M  V30 73 C 7.7214 4.11816 3.19464 0
M  V30 74 C 5.0494 4.92107 3.19449 0
M  V30 75 C 7.4014 5.47158 3.17491 0
M  V30 76 C 6.0654 5.87451 3.16951 0
M  V30 77 H 5.3354 0.374614 0.639332 0
M  V30 78 H 7.9824 1.50485 1.18434 0
M  V30 79 H 6.2874 1.10166 3.75993 0
M  V30 80 H 7.9844 1.49119 3.72242 0
M  V30 81 H 4.5744 2.83263 3.21652 0
M  V30 82 H 8.7584 3.81257 3.17737 0
M  V30 83 H 4.0144 5.22579 3.17366 0
M  V30 84 H 8.1884 6.21274 3.14629 0
M  V30 85 H 5.8154 6.92329 3.13983 0
M  V30 86 N 7.3905 -1.2043 1.01659 0
M  V30 87 C 8.3375 -2.23215 0.586822 0
M  V30 88 C 9.3075 -1.61382 -0.393085 0
M  V30 89 O 10.4925 -1.88544 -0.292525 0
M  V30 90 C 7.6325 -3.45032 -0.0687464 0
M  V30 91 C 6.7455 -4.21296 0.955724 0
M  V30 92 C 5.8805 -5.30507 0.271208 0
M  V30 93 C 4.9195 -5.98515 1.28244 0
M  V30 94 N 4.0565 -6.99316 0.62459 0
M  V30 95 H 8.8965 -2.59336 1.46796 0
M  V30 96 H 6.4335 -1.27431 0.734836 0
M  V30 97 H 8.3915 -4.1459 -0.465965 0
M  V30 98 H 7.0215 -3.09604 -0.913529 0
M  V30 99 H 6.0735 -3.50803 1.4711 0
M  V30 100 H 7.3855 -4.6803 1.72479 0
M  V30 101 H 6.5395 -6.06428 -0.18151 0
M  V30 102 H 5.2785 -4.8481 -0.530163 0
M  V30 103 H 4.2835 -5.21355 1.74554 0
M  V30 104 H 5.5085 -6.46298 2.08509 0
M  V30 105 H 3.4545 -6.55812 -0.156914 0
M  V30 106 H 3.3715 -7.44178 1.33172 0
M  V30 107 H 4.6395 -7.79255 0.195462 0
M  V30 108 N 8.8686 -0.792821 -1.36206 0
M  V30 109 C 10.2846 -0.474903 -1.52371 0
M  V30 110 C 10.4846 1.00622 -1.74578 0
M  V30 111 O 9.5406 1.79162 -1.77924 0
M  V30 112 C 10.8536 -1.3083 -2.70747 0
M  V30 113 C 12.4016 -1.30234 -2.84619 0
M  V30 114 C 12.8766 -2.11956 -4.06004 0
M  V30 115 N 14.3676 -2.09419 -4.13156 0
M  V30 116 C 15.1026 -2.69419 -5.06163 0
M  V30 117 N 14.5986 -3.3829 -6.04592 0
M  V30 118 N 16.3916 -2.59134 -4.98804 0
M  V30 119 H 8.5426 -1.75222 -1.20046 0
M  V30 120 H 10.8056 -0.745024 -0.586211 0
M  V30 121 H 10.5116 -2.35881 -2.6087 0
M  V30 122 H 10.3856 -0.95196 -3.6499 0
M  V30 123 H 12.7726 -0.259748 -2.93955 0
M  V30 124 H 12.8536 -1.69847 -1.91274 0
M  V30 125 H 12.4976 -3.16248 -3.97429 0
M  V30 126 H 12.4276 -1.69711 -4.98503 0
M  V30 127 H 14.9186 -1.59297 -3.42685 0
M  V30 128 H 15.2316 -3.81394 -6.7213 0
M  V30 129 H 13.5766 -3.42393 -6.04807 0
M  V30 130 H 16.7676 -2.04927 -4.20859 0
M  V30 131 H 16.9406 -3.06185 -5.711 0
M  V30 132 N 10.3467 1.47872 -0.545128 0
M  V30 133 C 11.5927 2.02793 -0.0166104 0
M  V30 134 C 11.9257 1.41987 1.32489 0
M  V30 135 O 11.2007 0.571045 1.85928 0
M  V30 136 C 11.4837 3.59989 0.0893294 0
M  V30 137 C 11.3367 4.3125 -1.27841 0
M  V30 138 C 12.6557 4.32606 0.808724 0
M  V30 139 H 9.7747 0.736962 -0.00751035 0
M  V30 140 H 12.4167 1.76433 -0.705085 0
M  V30 141 H 10.5667 3.82579 0.675681 0
M  V30 142 H 12.2387 4.20035 -1.90704 0
M  V30 143 H 10.4817 3.92076 -1.85632 0
M  V30 144 H 11.1527 5.39736 -1.15713 0
M  V30 145 H 13.6287 4.14936 0.310992 0
M  V30 146 H 12.5047 5.42251 0.851782 0
M  V30 147 H 12.7657 4.00963 1.86229 0
M  V30 148 N 11.8248 0.280983 1.55075 0
M  V30 149 C 13.0728 -0.333455 1.9933 0
M  V30 150 C 13.3938 -1.55937 1.17085 0
M  V30 151 O 12.6638 -1.94143 0.261805 0
M  V30 152 H 11.2438 -0.126197 0.736263 0
M  V30 153 H 13.9058 0.387678 1.91005 0
M  V30 154 H 13.0018 -0.619292 3.05894 0
M  V30 155 N 13.3029 -1.57598 0.00835791 0
M  V30 156 C 14.2659 -2.07884 -0.965242 0
M  V30 157 C 15.2659 -0.989825 -1.26725 0
M  V30 158 O 16.4559 -1.25218 -1.21104 0
M  V30 159 C 13.5879 -2.52731 -2.28779 0
M  V30 160 H 14.7809 -2.95178 -0.530112 0
M  V30 161 H 12.3339 -1.54458 -0.239283 0
M  V30 162 H 13.0689 -1.68705 -2.76964 0
M  V30 163 H 12.8539 -3.32272 -2.08177 0
M  V30 164 H 14.3439 -2.91933 -2.98605 0
M  V30 165 N 14.781 0.264519 -1.55364 0
M  V30 166 C 16.027 0.99646 -1.76631 0
M  V30 167 C 16.36 1.85632 -0.570478 0
M  V30 168 O 15.635 1.89647 0.43175 0
M  V30 169 C 15.918 1.87187 -3.07625 0
M  V30 170 C 15.771 1.04138 -4.37579 0
M  V30 171 C 17.09 2.85749 -3.34717 0
M  V30 172 H 14.209 0.360841 -0.642622 0
M  V30 173 H 16.851 0.268218 -1.88097 0
M  V30 174 H 15.001 2.49279 -2.9798 0
M  V30 175 H 16.673 0.440517 -4.59192 0
M  V30 176 H 14.916 0.345115 -4.32425 0
M  V30 177 H 15.587 1.68729 -5.2558 0
M  V30 178 H 18.063 2.33793 -3.4421 0
M  V30 179 H 16.939 3.44136 -4.27623 0
M  V30 180 H 17.2 3.61311 -2.54768 0
M  V30 181 N 16.2591 1.48442 0.529413 0
M  V30 182 C 17.2221 1.62524 1.61612 0
M  V30 183 C 18.2221 0.498509 1.52877 0
M  V30 184 O 19.4121 0.76431 1.56537 0
M  V30 185 C 16.5441 1.59597 3.01233 0
M  V30 186 H 17.7371 2.59423 1.50465 0
M  V30 187 H 15.2901 1.37047 0.751514 0
M  V30 188 H 16.0251 0.641781 3.17886 0
M  V30 189 H 15.8101 2.41397 3.08982 0
M  V30 190 H 17.3001 1.72646 3.80241 0
M  V30 191 N 17.7372 -0.778329 1.37039 0
M  V30 192 C 18.9832 -1.53892 1.32079 0
M  V30 193 C 19.3162 -1.9396 -0.0965386 0
M  V30 194 O 18.5912 -1.63568 -1.05242 0
M  V30 195 C 18.8742 -2.80847 2.25382 0
M  V30 196 C 18.7272 -2.47076 3.75864 0
M  V30 197 C 20.0462 -3.82741 2.1725 0
M  V30 198 H 17.1652 -0.558303 0.48111 0
M  V30 199 H 19.8072 -0.893397 1.67685 0
M  V30 200 H 17.9572 -3.35931 1.95148 0
M  V30 201 H 19.6292 -1.97957 4.16666 0
M  V30 202 H 17.8722 -1.79863 3.94755 0
M  V30 203 H 18.5432 -3.37798 4.36574 0
M  V30 204 H 21.0192 -3.37133 2.43887 0
M  V30 205 H 19.8952 -4.69303 2.84686 0
M  V30 206 H 20.1562 -4.2652 1.16331 0
M  V30 207 N 19.2153 -1.21501 -1.00376 0
M  V30 208 C 20.1783 -0.976927 -2.07337 0
M  V30 209 C 21.1783 0.0525322 -1.60714 0
M  V30 210 O 22.3683 -0.184869 -1.73216 0
M  V30 211 C 19.5003 -0.473423 -3.37597 0
M  V30 212 H 20.6933 -1.92587 -2.29892 0
M  V30 213 H 18.2463 -1.03217 -1.17371 0
M  V30 214 H 18.9813 0.480379 -3.20722 0
M  V30 215 H 18.7663 -1.216 -3.72768 0
M  V30 216 H 20.2563 -0.32675 -4.1632 0
M  V30 217 N 20.6934 1.19889 -1.02296 0
M  V30 218 C 21.6564 2.21116 -0.603351 0
M  V30 219 C 22.6564 1.5738 0.329884 0
M  V30 220 O 23.8464 1.73802 0.117702 0
M  V30 221 C 20.9784 3.40696 0.117992 0
M  V30 222 H 22.1714 2.59754 -1.49893 0
M  V30 223 H 19.7244 1.33463 -0.813468 0
M  V30 224 H 20.4594 3.07569 1.0282 0
M  V30 225 H 20.2444 3.88188 -0.552511 0
M  V30 226 H 21.7344 4.15692 0.398696 0
M  V30 227 N 22.1715 0.800033 1.35784 0
M  V30 228 C 23.1345 0.211565 2.28221 0
M  V30 229 C 24.1345 -0.59728 1.49296 0
M  V30 230 O 25.3245 -0.416721 1.69142 0
M  V30 231 C 22.4565 -0.705846 3.33513 0
M  V30 232 H 23.6495 1.02677 2.81776 0
M  V30 233 H 21.2025 0.570211 1.45528 0
M  V30 234 H 21.9375 -1.54498 2.85133 0
M  V30 235 H 21.7225 -0.127655 3.91892 0
M  V30 236 H 23.2125 -1.11211 4.02519 0
M  V30 237 N 23.6496 -1.47581 0.552962 0
M  V30 238 C 24.5826 -2.26883 -0.244857 0
M  V30 239 C 25.5606 -1.33784 -0.924147 0
M  V30 240 O 26.7446 -1.6316 -0.943981 0
M  V30 241 C 23.8716 -3.10695 -1.34856 0
M  V30 242 C 22.9176 -4.19339 -0.778268 0
M  V30 243 S 23.7506 -5.34207 0.37184 0
M  V30 244 C 24.9066 -6.21584 -0.733779 0
M  V30 245 H 25.1396 -2.94202 0.428087 0
M  V30 246 H 22.6726 -1.50628 0.339197 0
M  V30 247 H 24.6306 -3.59555 -1.98066 0
M  V30 248 H 23.2916 -2.42746 -1.99332 0
M  V30 249 H 22.4846 -4.77695 -1.60696 0
M  V30 250 H 22.0866 -3.73338 -0.222422 0
M  V30 251 H 24.3786 -6.57676 -1.62692 0
M  V30 252 H 25.3216 -7.07851 -0.187668 0
M  V30 253 H 25.7296 -5.55125 -1.02454 0
M  V30 254 N 25.1277 -0.289203 -1.54924 0
M  V30 255 C 26.3527 0.329299 -2.04769 0
M  V30 256 C 26.7777 1.4763 -1.16564 0
M  V30 257 O 26.1357 1.80527 -0.167186 0
M  V30 258 C 26.1837 0.774438 -3.52186 0
M  V30 259 O 25.2877 1.88038 -3.67036 0
M  V30 260 H 24.6287 0.0659259 -0.660719 0
M  V30 261 H 27.1587 -0.42761 -2.00082 0
M  V30 262 H 27.1687 1.06642 -3.93816 0
M  V30 263 H 25.8437 -0.0646707 -4.1585 0
M  V30 264 H 24.4207 1.58985 -3.3731 0
M  V30 265 N 26.6058 1.57591 -0.0167156 0
M  V30 266 C 27.5358 2.12496 0.967858 0
M  V30 267 C 28.5168 1.03807 1.34752 0
M  V30 268 O 29.7018 1.31577 1.42833 0
M  V30 269 C 26.8318 2.64194 2.25431 0
M  V30 270 C 25.7858 3.77559 2.01576 0
M  V30 271 C 25.1118 4.15636 3.36379 0
M  V30 272 C 26.4118 5.04151 1.36489 0
M  V30 273 H 28.1058 2.95013 0.510643 0
M  V30 274 H 25.6518 1.41915 0.244181 0
M  V30 275 H 27.6048 3.01236 2.94678 0
M  V30 276 H 26.3288 1.78821 2.73296 0
M  V30 277 H 24.9878 3.40937 1.34751 0
M  V30 278 H 24.6358 3.27263 3.81979 0
M  V30 279 H 24.3358 4.92022 3.21229 0
M  V30 280 H 25.8598 4.5525 4.06915 0
M  V30 281 H 27.2738 5.38857 1.95718 0
M  V30 282 H 25.6708 5.85453 1.31776 0
M  V30 283 H 26.7408 4.83733 0.336219 0
M  V30 284 N 28.0839 -0.256276 1.55502 0
M  V30 285 C 29.3089 -1.00766 1.81276 0
M  V30 286 C 29.7339 -1.78524 0.59252 0
M  V30 287 O 29.0919 -1.75413 -0.45827 0
M  V30 288 C 29.1399 -1.92869 3.04687 0
M  V30 289 O 28.2439 -3.019 2.80945 0
M  V30 290 H 27.5849 -0.287224 0.598664 0
M  V30 291 H 30.1149 -0.280109 2.02674 0
M  V30 292 H 30.1249 -2.34511 3.33869 0
M  V30 293 H 28.7999 -1.35689 3.93143 0
M  V30 294 H 27.3769 -2.64454 2.62904 0
M  V30 295 N 29.562 -1.4872 -0.521534 0
M  V30 296 C 30.811 -1.56419 -1.27341 0
M  V30 297 C 31.124 -0.246805 -1.94037 0
M  V30 298 O 32.33 -0.202122 -2.70747 0
M  V30 299 C 30.786 -2.75896 -2.31105 0
M  V30 300 C 30.394 -4.14311 -1.70441 0
M  V30 301 C 32.138 -2.92913 -3.07249 0
M  V30 302 C 30.045 -5.25038 -2.72194 0
M  V30 303 H 28.975 -0.582344 -0.478949 0
M  V30 304 H 31.626 -1.75071 -0.549779 0
M  V30 305 H 30.008 -2.50697 -3.06541 0
M  V30 306 H 31.182 -4.49564 -1.01136 0
M  V30 307 H 29.497 -4.02482 -1.06759 0
M  V30 308 H 32.094 -3.72805 -3.83302 0
M  V30 309 H 32.437 -2.02689 -3.63625 0
M  V30 310 H 32.97 -3.18054 -2.38928 0
M  V30 311 H 29.709 -6.17255 -2.20627 0
M  V30 312 H 29.229 -4.94263 -3.39801 0
M  V30 313 H 30.908 -5.53508 -3.35019 0
M  V30 314 N 31.0401 0.771051 -1.3745 0
M  V30 315 C 31.9731 1.89166 -1.27638 0
M  V30 316 C 32.9511 1.61842 -0.156782 0
M  V30 317 O 34.1351 1.85569 -0.331111 0
M  V30 318 C 31.2621 3.24405 -0.973621 0
M  V30 319 C 30.3081 3.70638 -2.1102 0
M  V30 320 S 31.1411 3.84228 -3.73 0
M  V30 321 C 32.2971 5.22313 -3.44876 0
M  V30 322 H 32.5301 1.972 -2.22485 0
M  V30 323 H 30.0631 0.932224 -1.23081 0
M  V30 324 H 32.0211 4.02514 -0.805766 0
M  V30 325 H 30.6821 3.14071 -0.0426279 0
M  V30 326 H 29.8751 4.68685 -1.85338 0
M  V30 327 H 29.4771 2.99632 -2.23822 0
M  V30 328 H 31.7691 6.07505 -2.99908 0
M  V30 329 H 32.7121 5.53008 -4.42253 0
M  V30 330 H 33.1201 4.90284 -2.79789 0
M  V30 331 N 32.5182 1.22032 0.997298 0
M  V30 332 C 33.4812 0.987909 2.06816 0
M  V30 333 C 34.4812 -0.0440084 1.6074 0
M  V30 334 O 35.6712 0.194053 1.73116 0
M  V30 335 C 32.8032 0.49132 3.37341 0
M  V30 336 H 33.9962 1.93803 2.28868 0
M  V30 337 H 31.5492 1.03838 1.16822 0
M  V30 338 H 32.2842 -0.463364 3.20973 0
M  V30 339 H 32.0692 1.23575 3.72118 0
M  V30 340 H 33.5592 0.348824 4.16141 0
M  V30 341 N 33.9963 -1.19345 1.0293 0
M  V30 342 C 35.2243 -1.92997 0.745644 0
M  V30 343 C 35.6393 -1.75519 -0.695589 0
M  V30 344 O 34.9963 -1.07737 -1.47306 0
M  V30 345 C 35.0473 -3.44741 1.08792 0
M  V30 346 O 34.7683 -3.61658 2.47256 0
M  V30 347 C 36.2693 -4.35515 0.827129 0
M  V30 348 H 33.4893 -0.613042 0.272801 0
M  V30 349 H 36.0333 -1.51473 1.3739 0
M  V30 350 H 34.1883 -3.84097 0.504832 0
M  V30 351 H 34.6023 -4.55514 2.60015 0
M  V30 352 H 36.0763 -5.40589 1.11658 0
M  V30 353 H 36.5533 -4.38552 -0.238436 0
M  V30 354 H 37.1593 -4.01841 1.39297 0
M  V30 355 N 35.4744 -0.807222 -1.35358 0
M  V30 356 C 36.7024 -0.400377 -2.02989 0
M  V30 357 C 37.1174 0.988859 -1.60832 0
M  V30 358 O 36.4744 1.63729 -0.806175 0
M  V30 359 C 36.5254 -0.474867 -3.58368 0
M  V30 360 O 36.2464 -1.80933 -3.98992 0
M  V30 361 C 37.7474 -0.0609112 -4.43258 0
M  V30 362 H 34.9674 -0.162587 -0.651004 0
M  V30 363 H 37.5114 -1.09102 -1.72965 0
M  V30 364 H 35.6664 0.167534 -3.87038 0
M  V30 365 H 36.0804 -1.77256 -4.9364 0
M  V30 366 H 37.5544 -0.164145 -5.51756 0
M  V30 367 H 38.0314 0.993831 -4.27808 0
M  V30 368 H 38.6374 -0.676492 -4.19885 0
M  V30 369 N 36.9525 1.47285 -0.560781 0
M  V30 370 C 38.1775 2.07359 -0.0410566 0
M  V30 371 C 38.6025 1.41017 1.24483 0
M  V30 372 O 37.9605 0.486368 1.74654 0
M  V30 373 C 38.0085 3.6035 0.134123 0
M  V30 374 O 37.1125 3.94681 1.19587 0
M  V30 375 H 36.4535 0.661887 -0.0529291 0
M  V30 376 H 38.9835 1.89252 -0.777482 0
M  V30 377 H 38.9935 4.0652 0.347207 0
M  V30 378 H 37.6685 4.08034 -0.805047 0
M  V30 379 H 36.2455 3.60251 0.962987 0
M  V30 380 N 38.4306 0.297415 1.54768 0
M  V30 381 C 39.6796 -0.313669 1.99246 0
M  V30 382 C 39.9926 -1.55281 1.18942 0
M  V30 383 O 41.1986 -2.23825 1.5367 0
M  V30 384 C 39.6546 -0.609407 3.54703 0
M  V30 385 C 39.2626 0.611192 4.43811 0
M  V30 386 C 41.0066 -1.18188 4.07715 0
M  V30 387 C 38.9136 0.288805 5.90694 0
M  V30 388 H 37.8436 -0.120979 0.744231 0
M  V30 389 H 40.4946 0.40556 1.78962 0
M  V30 390 H 38.8766 -1.38813 3.70873 0
M  V30 391 H 40.0506 1.3875 4.39414 0
M  V30 392 H 38.3656 1.10205 4.01552 0
M  V30 393 H 40.9626 -1.43727 5.15021 0
M  V30 394 H 41.3056 -2.12299 3.58099 0
M  V30 395 H 41.8386 -0.464944 3.95074 0
M  V30 396 H 38.5776 1.19838 6.44453 0
M  V30 397 H 38.0976 -0.450305 5.98107 0
M  V30 398 H 39.7766 -0.110933 6.46905 0
M  V30 399 N 39.9087 -1.5758 0.0250728 0
M  V30 400 C 40.8567 -2.11125 -0.97617 0
M  V30 401 C 41.8507 -1.03689 -1.33959 0
M  V30 402 O 43.0567 -1.22128 -1.3223 0
M  V30 403 H 39.4317 -0.674468 -0.332561 0
M  V30 404 H 41.4027 -2.94194 -0.499223 0
M  V30 405 C 40.1517 -2.65017 -2.2508 0
M  V30 406 H 39.4747 -3.47333 -1.9799 0
M  V30 407 H 40.9147 -3.06133 -2.93357 0
M  V30 408 C 39.3737 -1.57574 -2.97779 0
M  V30 409 O 39.9037 -0.973203 -3.89733 0
M  V30 410 N 38.1097 -1.29716 -2.60043 0
M  V30 411 H 37.6567 -1.789 -1.85345 0
M  V30 412 H 37.6147 -0.58051 -3.08994 0
M  V30 413 N 41.3868 0.248026 -1.55636 0
M  V30 414 C 42.3498 1.29044 -1.89421 0
M  V30 415 C 43.3498 1.41134 -0.770581 0
M  V30 416 O 44.5398 1.39854 -1.03858 0
M  V30 417 C 41.6718 2.66831 -2.12165 0
M  V30 418 H 42.8648 1.00305 -2.82629 0
M  V30 419 H 40.4178 0.487265 -1.48511 0
M  V30 420 H 41.1528 3.00711 -1.21422 0
M  V30 421 H 40.9378 2.59438 -2.93997 0
M  V30 422 H 42.4278 3.42103 -2.3949 0
M  V30 423 N 42.8649 1.48995 0.513639 0
M  V30 424 C 43.8279 1.64229 1.59879 0
M  V30 425 C 44.8279 0.514696 1.5234 0
M  V30 426 O 46.0179 0.78087 1.55718 0
M  V30 427 C 43.1499 1.62783 2.99524 0
M  V30 428 H 44.3429 2.61004 1.47705 0
M  V30 429 H 41.8959 1.37837 0.736936 0
M  V30 430 H 42.6309 0.675461 3.17188 0
M  V30 431 H 42.4159 2.4466 3.06404 0
M  V30 432 H 43.9059 1.76669 3.78388 0
M  V30 433 N 44.343 -0.763751 1.37857 0
M  V30 434 C 45.568 -1.55805 1.36893 0
M  V30 435 C 45.993 -1.88054 -0.0416135 0
M  V30 436 O 45.351 -1.49825 -1.02089 0
M  V30 437 C 45.399 -2.84012 2.22192 0
M  V30 438 O 44.503 -3.78732 1.63204 0
M  V30 439 H 43.844 -0.471638 0.46739 0
M  V30 440 H 46.374 -0.944657 1.81487 0
M  V30 441 H 46.384 -3.33037 2.35691 0
M  V30 442 H 45.059 -2.59869 3.24716 0
M  V30 443 H 43.636 -3.37402 1.58791 0
M  V30 444 N 45.8211 -1.22559 -0.990812 0
M  V30 445 C 47.0461 -1.07862 -1.77145 0
M  V30 446 C 47.4711 0.366447 -1.84496 0
M  V30 447 O 46.8291 1.26478 -1.29896 0
M  V30 448 C 46.8771 -1.69686 -3.18181 0
M  V30 449 O 45.9811 -0.951946 -4.01263 0
M  V30 450 H 45.3221 -0.378712 -0.545411 0
M  V30 451 H 47.8521 -1.62399 -1.2445 0
M  V30 452 H 47.8621 -1.74496 -3.68802 0
M  V30 453 H 46.5371 -2.74841 -3.12146 0
M  V30 454 H 45.1141 -0.980011 -3.59792 0
M  V30 455 N 47.2992 1.18797 -1.03562 0
M  V30 456 C 48.7102 1.70322 -0.764676 0
M  V30 457 C 49.0612 1.82708 0.714996 0
M  V30 458 O 48.1862 1.50299 1.55689 0
M  V30 459 C 48.7812 3.09356 -1.38145 0
M  V30 460 C 47.3402 3.58114 -1.15895 0
M  V30 461 C 46.4872 2.34798 -1.4753 0
M  V30 462 H 49.4382 1.03543 -1.20268 0
M  V30 463 H 49.4592 3.72378 -0.781977 0
M  V30 464 H 48.9712 3.00309 -2.45837 0
M  V30 465 H 47.0722 3.72464 -0.100544 0
M  V30 466 H 47.1852 4.4184 -1.8524 0
M  V30 467 H 45.5492 2.38464 -0.894829 0
M  V30 468 H 46.3322 2.28375 -2.56319 0
M  V30 469 N 48.7773 0.814389 1.34928 0
M  V30 470 C 49.7403 0.235759 2.27984 0
M  V30 471 C 50.7403 -0.581412 1.49921 0
M  V30 472 O 51.9303 -0.398758 1.69575 0
M  V30 473 C 49.0623 -0.670433 3.34242 0
M  V30 474 H 50.2553 1.05659 2.80671 0
M  V30 475 H 47.8083 0.585614 1.44915 0
M  V30 476 H 48.5433 -1.51466 2.86755 0
M  V30 477 H 48.3283 -0.0860822 3.92005 0
M  V30 478 H 49.8183 -1.06935 4.03676 0
M  V30 479 N 50.2554 -1.46986 0.568584 0
M  V30 480 C 51.2034 -2.31858 -0.185649 0
M  V30 481 C 52.1974 -1.43624 -0.898249 0
M  V30 482 O 53.4034 -1.60327 -0.818242 0
M  V30 483 H 49.7784 -0.747866 -0.0787399 0
M  V30 484 H 51.7494 -2.93303 0.549191 0
M  V30 485 C 50.4984 -3.26513 -1.19519 0
M  V30 486 H 49.8214 -3.94377 -0.656285 0
M  V30 487 H 51.2614 -3.88707 -1.6936 0
M  V30 488 C 49.7204 -2.50847 -2.24894 0
M  V30 489 O 50.2504 -2.26119 -3.32014 0
M  V30 490 N 48.4564 -2.11656 -1.99124 0
M  V30 491 H 48.0034 -2.31966 -1.12024 0
M  V30 492 H 47.9614 -1.61347 -2.69842 0
M  V30 493 N 51.7335 -0.305618 -1.54608 0
M  V30 494 C 52.6805 0.568421 -2.23691 0
M  V30 495 C 53.6505 1.12592 -1.22116 0
M  V30 496 O 54.8355 1.16959 -1.50749 0
M  V30 497 C 51.9755 1.7322 -2.98477 0
M  V30 498 C 51.0885 1.20566 -4.14835 0
M  V30 499 C 50.2235 2.33368 -4.77193 0
M  V30 500 C 49.2625 1.7787 -5.85686 0
M  V30 501 N 48.3995 2.84263 -6.4198 0
M  V30 502 H 53.2395 -0.0272867 -2.97988 0
M  V30 503 H 50.7765 -0.0252363 -1.47078 0
M  V30 504 H 52.7345 2.41675 -3.40072 0
M  V30 505 H 51.3645 2.29947 -2.26548 0
M  V30 506 H 50.4165 0.413223 -3.78149 0
M  V30 507 H 51.7285 0.759417 -4.92985 0
M  V30 508 H 50.8825 3.09761 -5.21664 0
M  V30 509 H 49.6215 2.8132 -3.98385 0
M  V30 510 H 48.6265 0.99968 -5.40635 0
M  V30 511 H 49.8515 1.30816 -6.66381 0
M  V30 512 H 47.7975 3.31541 -5.66053 0
M  V30 513 H 47.7145 2.44149 -7.15491 0
M  V30 514 H 48.9825 3.6054 -6.91109 0
M  V30 515 N 53.2116 1.57565 -0.0334293 0
M  V30 516 C 54.4576 1.92262 0.645226 0
M  V30 517 C 54.7906 0.910543 1.71531 0
M  V30 518 O 54.0656 -0.066099 1.94388 0
M  V30 519 C 54.3486 3.37422 1.2577 0
M  V30 520 C 54.2016 4.49369 0.196891 0
M  V30 521 C 55.5206 3.82628 2.17449 0
M  V30 522 H 52.6396 0.699171 0.233085 0
M  V30 523 H 55.2816 1.89779 -0.0915694 0
M  V30 524 H 53.4316 3.39669 1.88566 0
M  V30 525 H 55.1036 4.59254 -0.433962 0
M  V30 526 H 53.3466 4.31168 -0.477137 0
M  V30 527 H 54.0176 5.47978 0.665124 0
M  V30 528 H 56.4936 3.82145 1.64634 0
M  V30 529 H 55.3696 4.84883 2.57254 0
M  V30 530 H 55.6306 3.18376 3.0674 0
M  V30 531 N 54.6897 -0.239769 1.55765 0
M  V30 532 C 55.9197 -0.982743 1.8173 0
M  V30 533 C 56.3277 -1.7917 0.607835 0
M  V30 534 O 55.6707 -1.78525 -0.432973 0
M  V30 535 C 55.7327 -1.96332 3.01155 0
M  V30 536 C 55.3967 -1.34062 4.36894 0
M  V30 537 C 56.3937 -0.739539 5.14613 0
M  V30 538 C 54.0787 -1.35784 4.83599 0
M  V30 539 C 56.0727 -0.163989 6.37189 0
M  V30 540 C 53.7597 -0.778441 6.06122 0
M  V30 541 C 54.7577 -0.182548 6.82756 0
M  V30 542 O 54.4457 0.387887 8.02964 0
M  V30 543 H 54.1777 -0.294481 0.608487 0
M  V30 544 H 56.7317 -0.26572 2.03674 0
M  V30 545 H 54.9617 -2.71884 2.74984 0
M  V30 546 H 56.6507 -2.57032 3.14149 0
M  V30 547 H 57.4167 -0.718687 4.79646 0
M  V30 548 H 53.2957 -1.81105 4.23936 0
M  V30 549 H 56.8397 0.301753 6.96947 0
M  V30 550 H 52.7367 -0.796645 6.40565 0
M  V30 551 H 53.5047 0.28044 8.18019 0
M  V30 552 N 56.1678 -1.49265 -0.50573 0
M  V30 553 C 57.0998 -1.617 -1.62437 0
M  V30 554 C 58.1128 -0.499924 -1.54934 0
M  V30 555 O 59.3018 -0.771785 -1.60953 0
M  V30 556 C 56.4018 -1.5533 -3.01207 0
M  V30 557 C 55.5748 -2.8249 -3.33943 0
M  V30 558 C 54.6338 -2.69238 -4.52103 0
M  V30 559 O 53.6598 -3.43167 -4.5412 0
M  V30 560 N 54.8618 -1.80468 -5.51735 0
M  V30 561 H 57.6268 -2.58177 -1.52199 0
M  V30 562 H 55.1878 -1.46294 -0.693511 0
M  V30 563 H 57.1798 -1.44125 -3.78167 0
M  V30 564 H 55.7498 -0.667297 -3.05395 0
M  V30 565 H 54.9698 -3.08081 -2.45926 0
M  V30 566 H 56.2578 -3.66802 -3.5261 0
M  V30 567 H 55.6558 -1.19653 -5.52901 0
M  V30 568 H 54.2128 -1.75188 -6.27816 0
M  V30 569 N 57.6459 0.756429 -1.3826 0
M  V30 570 C 58.9229 1.50584 -1.24835 0
M  V30 571 C 59.3029 2.10556 0.151485 0
M  V30 572 O 58.6509 1.96825 1.1607 0
M  V30 573 C 58.8609 2.57448 -2.3563 0
M  V30 574 C 60.2089 3.24429 -2.73917 0
M  V30 575 O 61.2329 2.67751 -2.34921 0
M  V30 576 O 60.0919 4.26937 -3.41156 0
M  V30 577 H 57.1859 0.667664 -0.48801 0
M  V30 578 H 59.7319 0.792083 -1.5008 0
M  V30 579 H 58.5039 2.11362 -3.29305 0
M  V30 580 H 58.1269 3.36408 -2.11933 0
M  V30 581 N 59.124 1.23083 0.984299 0
M  V30 582 C 60.54 0.992637 1.24975 0
M  V30 583 C 60.74 -0.308618 1.99123 0
M  V30 584 O 59.796 -1.02905 2.30579 0
M  V30 585 C 61.109 2.19698 2.05312 0
M  V30 586 C 62.657 2.24147 2.18465 0
M  V30 587 C 63.132 3.44157 3.02192 0
M  V30 588 N 64.623 3.44372 3.09777 0
M  V30 589 C 65.358 4.33886 3.74874 0
M  V30 590 N 64.854 5.3363 4.41827 0
M  V30 591 N 66.647 4.21639 3.71721 0
M  V30 592 H 58.798 2.06731 0.487453 0
M  V30 593 H 61.061 0.906339 0.277944 0
M  V30 594 H 60.767 3.1411 1.58201 0
M  V30 595 H 60.641 2.20465 3.06064 0
M  V30 596 H 63.028 1.30277 2.64786 0
M  V30 597 H 63.109 2.27415 1.17115 0
M  V30 598 H 62.753 4.38332 2.56568 0
M  V30 599 H 62.683 3.3813 4.03702 0
M  V30 600 H 65.174 2.72201 2.62135 0
M  V30 601 H 65.487 5.98196 4.89266 0
M  V30 602 H 63.832 5.37534 4.40548 0
M  V30 603 H 67.023 3.42962 3.18582 0
M  V30 604 H 67.196 4.91604 4.22173 0
M  V30 605 N 60.6021 -1.18246 1.0419 0
M  V30 606 C 61.8491 -1.88257 0.746017 0
M  V30 607 C 62.1771 -1.80429 -0.726331 0
M  V30 608 O 61.4321 -1.2 -1.54591 0
M  V30 609 C 61.7311 -3.38082 1.15911 0
M  V30 610 C 61.3971 -3.66114 2.63195 0
M  V30 611 C 60.0591 -3.73474 3.03432 0
M  V30 612 C 62.4111 -3.78398 3.5842 0
M  V30 613 C 59.7391 -3.90599 4.37778 0
M  V30 614 C 62.0911 -3.97039 4.92487 0
M  V30 615 C 60.7551 -4.02635 5.32392 0
M  V30 616 H 60.0251 -0.688883 0.272987 0
M  V30 617 H 62.6721 -1.3995 1.30715 0
M  V30 618 H 60.9771 -3.88377 0.516806 0
M  V30 619 H 62.6741 -3.90596 0.907516 0
M  V30 620 H 59.2641 -3.61003 2.3103 0
M  V30 621 H 63.4481 -3.72042 3.28479 0
M  V30 622 H 58.7041 -3.93175 4.68213 0
M  V30 623 H 62.8781 -4.05486 5.66175 0
M  V30 624 H 60.5051 -4.15657 6.36501 0
M  V30 625 N 62.0802 -0.821533 -1.34494 0
M  V30 626 C 62.9902 -0.244355 -2.33324 0
M  V30 627 C 64.0062 0.620527 -1.62559 0
M  V30 628 O 65.1822 0.528754 -1.94335 0
M  V30 629 C 62.2472 0.585368 -3.41723 0
M  V30 630 C 61.3082 -0.301752 -4.28238 0
M  V30 631 C 60.5412 0.488466 -5.3146 0
M  V30 632 O 60.7642 1.72186 -5.4379 0
M  V30 633 O 59.6982 -0.12848 -6.01763 0
M  V30 634 H 63.5242 -1.06231 -2.84515 0
M  V30 635 H 61.1092 -0.583645 -1.37528 0
M  V30 636 H 62.9912 1.05747 -4.07916 0
M  V30 637 H 61.6662 1.38068 -2.92778 0
M  V30 638 H 60.5732 -0.821315 -3.64973 0
M  V30 639 H 61.9062 -1.06138 -4.8062 0
M  V30 640 N 63.5583 1.46682 -0.576371 0
M  V30 641 C 64.7833 2.07304 -0.0630475 0
M  V30 642 C 65.2083 1.42329 1.2298 0
M  V30 643 O 64.5663 0.504865 1.74129 0
M  V30 644 C 64.6143 3.60472 0.095895 0
M  V30 645 O 63.7183 3.95927 1.15394 0
M  V30 646 H 63.0593 0.661288 -0.0599463 0
M  V30 647 H 65.5893 1.88417 -0.797511 0
M  V30 648 H 65.5993 4.06865 0.304071 0
M  V30 649 H 64.2743 4.07157 -0.84828 0
M  V30 650 H 62.8513 3.61252 0.924724 0
M  V30 651 N 65.0364 0.313813 1.54444 0
M  V30 652 C 65.9694 -0.598866 2.20202 0
M  V30 653 C 66.9474 -1.12318 1.17573 0
M  V30 654 O 68.1314 -1.18899 1.46271 0
M  V30 655 C 65.2584 -1.82071 2.85601 0
M  V30 656 C 64.3044 -1.42851 4.01865 0
M  V30 657 S 65.1374 -0.473512 5.33402 0
M  V30 658 C 66.2934 -1.70286 6.0229 0
M  V30 659 H 66.5264 -0.0402532 2.97273 0
M  V30 660 H 64.0594 0.0979165 1.54089 0
M  V30 661 H 66.0174 -2.52184 3.23904 0
M  V30 662 H 64.6784 -2.3505 2.08351 0
M  V30 663 H 63.8714 -2.33871 4.46453 0
M  V30 664 H 63.4734 -0.807198 3.65185 0
M  V30 665 H 65.7654 -2.64168 6.23876 0
M  V30 666 H 66.7084 -1.29932 6.96077 0
M  V30 667 H 67.1164 -1.88541 5.32083 0
M  V30 668 N 66.5145 -1.57545 0.0417849 0
M  V30 669 C 67.7445 -1.96339 -0.642995 0
M  V30 670 C 68.1525 -0.917536 -1.65463 0
M  V30 671 O 67.4955 0.107747 -1.83384 0
M  V30 672 C 67.5575 -3.31333 -1.39494 0
M  V30 673 C 67.2215 -4.53796 -0.540204 0
M  V30 674 C 68.2185 -5.19553 0.189806 0
M  V30 675 C 65.9035 -5.0006 -0.473886 0
M  V30 676 C 67.8975 -6.29904 0.974674 0
M  V30 677 C 65.5845 -6.10289 0.314677 0
M  V30 678 C 66.5825 -6.75072 1.03765 0
M  V30 679 O 66.2705 -7.83183 1.81327 0
M  V30 680 H 66.0025 -0.651241 -0.181277 0
M  V30 681 H 68.5565 -2.05148 0.101665 0
M  V30 682 H 66.7865 -3.19052 -2.18502 0
M  V30 683 H 68.4755 -3.54942 -1.96904 0
M  V30 684 H 69.2415 -4.84774 0.147981 0
M  V30 685 H 65.1205 -4.49433 -1.0262 0
M  V30 686 H 68.6645 -6.80401 1.5395 0
M  V30 687 H 64.5615 -6.44506 0.358174 0
M  V30 688 H 65.3295 -7.99913 1.73438 0
M  V30 689 N 67.9926 0.231505 -1.5589 0
M  V30 690 C 69.2176 0.978689 -1.82856 0
M  V30 691 C 69.6426 1.77559 -0.620846 0
M  V30 692 O 69.0006 1.76119 0.430305 0
M  V30 693 C 69.0486 1.87997 -3.07716 0
M  V30 694 O 68.1526 2.97393 -2.85712 0
M  V30 695 H 67.4936 0.277663 -0.603158 0
M  V30 696 H 70.0236 0.24783 -2.03093 0
M  V30 697 H 70.0336 2.2917 -3.37558 0
M  V30 698 H 68.7086 1.29417 -3.95252 0
M  V30 699 H 67.2856 2.60238 -2.67078 0
M  V30 700 N 69.4707 1.49531 0.497807 0
M  V30 701 C 70.4177 1.66436 1.59899 0
M  V30 702 C 71.3877 0.505793 1.58212 0
M  V30 703 O 72.5727 0.733202 1.7615 0
M  V30 704 C 69.7127 1.7399 2.98029 0
M  V30 705 C 68.8257 3.01172 3.09708 0
M  V30 706 C 67.9607 2.99686 4.38591 0
M  V30 707 C 66.9997 4.21434 4.43914 0
M  V30 708 N 66.1367 4.1784 5.64229 0
M  V30 709 H 70.9767 2.60459 1.44793 0
M  V30 710 H 68.5137 1.29137 0.704423 0
M  V30 711 H 70.4717 1.76352 3.78095 0
M  V30 712 H 69.1017 0.834301 3.11832 0
M  V30 713 H 68.1537 3.08408 2.22685 0
M  V30 714 H 69.4657 3.91165 3.09502 0
M  V30 715 H 68.6197 3.00628 5.2698 0
M  V30 716 H 67.3587 2.07477 4.41367 0
M  V30 717 H 66.3637 4.20733 3.53926 0
M  V30 718 H 67.5887 5.14839 4.42851 0
M  V30 719 H 65.5347 3.28469 5.67841 0
M  V30 720 H 65.4517 5.01571 5.65652 0
M  V30 721 H 66.7197 4.22889 6.54817 0
M  V30 722 N 70.9488 -0.749086 1.3866 0
M  V30 723 C 72.1978 -1.50371 1.3443 0
M  V30 724 C 72.5108 -1.95503 -0.0616397 0
M  V30 725 O 73.7168 -2.70554 -0.226489 0
M  V30 726 C 72.1728 -2.71644 2.36088 0
M  V30 727 C 71.7808 -2.3352 3.82325 0
M  V30 728 C 73.5248 -3.49518 2.40909 0
M  V30 729 C 71.4318 -3.51431 4.75658 0
M  V30 730 H 70.3618 -0.564628 0.499712 0
M  V30 731 H 73.0128 -0.818449 1.64237 0
M  V30 732 H 71.3948 -3.42175 1.9933 0
M  V30 733 H 72.5688 -1.70627 4.28046 0
M  V30 734 H 70.8838 -1.6877 3.80665 0
M  V30 735 H 73.4808 -4.37197 3.07836 0
M  V30 736 H 73.8238 -3.90992 1.42937 0
M  V30 737 H 74.3568 -2.86005 2.76489 0
M  V30 738 H 71.0958 -3.15019 5.74842 0
M  V30 739 H 70.6158 -4.13352 4.34627 0
M  V30 740 H 72.2948 -4.17953 4.93887 0
M  V30 741 N 72.4269 -1.23603 -0.977757 0
M  V30 742 C 73.3739 -1.01954 -2.07061 0
M  V30 743 C 74.3439 0.0638697 -1.65977 0
M  V30 744 O 75.5289 -0.0887624 -1.90593 0
M  V30 745 C 72.6689 -0.619658 -3.39491 0
M  V30 746 C 71.7819 -1.77547 -3.93829 0
M  V30 747 C 70.9169 -1.32212 -5.14484 0
M  V30 748 C 69.9559 -2.44852 -5.60994 0
M  V30 749 N 69.0929 -2.00456 -6.72876 0
M  V30 750 H 73.9329 -1.95495 -2.24913 0
M  V30 751 H 71.4699 -0.973861 -1.10247 0
M  V30 752 H 73.4279 -0.368898 -4.15566 0
M  V30 753 H 72.0579 0.278752 -3.21594 0
M  V30 754 H 71.1099 -2.14016 -3.14486 0
M  V30 755 H 72.4219 -2.62219 -4.24314 0
M  V30 756 H 71.5759 -1.02965 -5.97899 0
M  V30 757 H 70.3149 -0.445808 -4.85658 0
M  V30 758 H 69.3199 -2.74871 -4.76157 0
M  V30 759 H 70.5449 -3.33024 -5.91837 0
M  V30 760 H 68.4909 -1.15208 -6.45804 0
M  V30 761 H 68.4079 -2.78687 -7.02759 0
M  V30 762 H 69.6759 -1.7432 -7.59758 0
M  V30 763 N 73.905 1.17692 -1.04816 0
M  V30 764 C 75.182 1.83768 -0.669963 0
M  V30 765 C 75.562 1.93232 0.849986 0
M  V30 766 O 74.91 1.46397 1.75443 0
M  V30 767 C 75.12 3.21641 -1.35455 0
M  V30 768 C 76.468 3.97592 -1.49017 0
M  V30 769 O 77.492 3.31107 -1.31326 0
M  V30 770 O 76.351 5.16729 -1.77914 0
M  V30 771 H 73.445 0.792799 -0.235368 0
M  V30 772 H 75.991 1.25021 -1.14751 0
M  V30 773 H 74.763 3.097 -2.39168 0
M  V30 774 H 74.386 3.88052 -0.866107 0
M  V30 775 N 75.3831 0.828654 1.34056 0
M  V30 776 C 76.7941 0.477534 1.8049 0
M  V30 777 C 77.1451 -1.00258 1.6865 0
M  V30 778 O 76.2701 -1.78057 1.22982 0
M  V30 779 C 76.8651 0.860018 3.27703 0
M  V30 780 C 75.4241 0.561185 3.72193 0
M  V30 781 C 74.5711 1.07385 2.55663 0
M  V30 782 H 77.5221 1.0183 1.21722 0
M  V30 783 H 77.5431 0.166038 3.80138 0
M  V30 784 H 77.0551 1.93731 3.36288 0
M  V30 785 H 75.1561 -0.506465 3.69142 0
M  V30 786 H 75.2691 1.10926 4.66082 0
M  V30 787 H 73.6331 0.495149 2.49841 0
M  V30 788 H 74.4161 2.15771 2.67016 0
M  V30 789 N 76.8612 -1.46375 0.584142 0
M  V30 790 C 77.8242 -2.28784 -0.138108 0
M  V30 791 C 78.8242 -1.38471 -0.817462 0
M  V30 792 O 80.0142 -1.60833 -0.669199 0
M  V30 793 C 77.1462 -3.18892 -1.20503 0
M  V30 794 H 78.3392 -2.94117 0.586127 0
M  V30 795 H 75.8922 -1.52509 0.342171 0
M  V30 796 H 76.6272 -2.58309 -1.96079 0
M  V30 797 H 76.4122 -3.85388 -0.722384 0
M  V30 798 H 77.9022 -3.80914 -1.71155 0
M  V30 799 N 78.3393 -0.321999 -1.54275 0
M  V30 800 C 79.2873 0.560206 -2.25753 0
M  V30 801 C 80.2813 1.11984 -1.27106 0
M  V30 802 O 81.4873 1.06806 -1.44888 0
M  V30 803 H 77.8623 0.199304 -0.725108 0
M  V30 804 H 79.8333 -0.0649365 -2.98329 0
M  V30 805 C 78.5823 1.71023 -3.02731 0
M  V30 806 H 77.9053 1.28885 -3.78456 0
M  V30 807 H 79.3453 2.30314 -3.55993 0
M  V30 808 C 77.8043 2.62692 -2.10938 0
M  V30 809 O 78.3343 3.64364 -1.6912 0
M  V30 810 N 76.5403 2.30891 -1.76459 0
M  V30 811 H 76.0873 1.48253 -2.10663 0
M  V30 812 H 76.0453 2.92487 -1.1532 0
M  V30 813 N 79.8174 1.5752 -0.0501392 0
M  V30 814 C 81.0654 1.9227 0.622642 0
M  V30 815 C 81.3864 0.929083 1.71444 0
M  V30 816 O 80.6564 -0.0262186 1.95882 0
M  V30 817 H 79.2364 0.709739 0.232981 0
M  V30 818 H 81.8984 1.94628 -0.102898 0
M  V30 819 H 80.9944 2.93479 1.06191 0
M  V30 820 N 81.2955 -0.223234 1.56011 0
M  V30 821 C 82.5255 -0.963413 1.82762 0
M  V30 822 C 82.9335 -1.78516 0.626804 0
M  V30 823 O 82.2765 -1.78974 -0.414014 0
M  V30 824 C 82.3385 -1.93126 3.0322 0
M  V30 825 C 82.0025 -1.2942 4.38291 0
M  V30 826 C 82.9995 -0.684916 5.15369 0
M  V30 827 C 80.6845 -1.30647 4.85012 0
M  V30 828 C 82.6785 -0.0963971 6.37327 0
M  V30 829 C 80.3655 -0.71411 6.06913 0
M  V30 830 C 81.3635 -0.110123 6.82911 0
M  V30 831 O 81.0515 0.47303 8.02507 0
M  V30 832 H 80.7835 -0.288011 0.611576 0
M  V30 833 H 83.3375 -0.244103 2.03944 0
M  V30 834 H 81.5675 -2.68952 2.77852 0
M  V30 835 H 83.2565 -2.53685 3.16857 0
M  V30 836 H 84.0225 -0.667774 4.80381 0
M  V30 837 H 79.9015 -1.76598 4.25833 0
M  V30 838 H 83.4455 0.375657 6.96588 0
M  V30 839 H 79.3425 -0.728659 6.41374 0
M  V30 840 H 80.1105 0.367186 8.17676 0
M  V30 841 N 82.7736 -1.49793 -0.48987 0
M  V30 842 C 84.0206 -1.59841 -1.24327 0
M  V30 843 C 84.3486 -0.290135 -1.92324 0
M  V30 844 O 83.6036 0.722749 -1.81865 0
M  V30 845 C 83.9026 -2.71488 -2.32441 0
M  V30 846 C 83.5686 -4.12614 -1.81826 0
M  V30 847 C 82.2306 -4.51017 -1.67742 0
M  V30 848 C 84.5826 -5.00892 -1.4407 0
M  V30 849 C 81.9106 -5.75459 -1.14297 0
M  V30 850 C 84.2626 -6.25863 -0.920742 0
M  V30 851 C 82.9266 -6.63086 -0.766383 0
M  V30 852 H 82.1966 -0.584899 -0.454944 0
M  V30 853 H 84.8436 -1.83663 -0.542215 0
M  V30 854 H 83.1486 -2.4168 -3.0838 0
M  V30 855 H 84.8456 -2.76469 -2.90458 0
M  V30 856 H 81.4356 -3.82307 -1.93751 0
M  V30 857 H 85.6196 -4.7187 -1.53794 0
M  V30 858 H 80.8756 -6.02989 -1.01068 0
M  V30 859 H 85.0496 -6.9364 -0.619448 0
M  V30 860 H 82.6766 -7.59393 -0.350083 0
M  V30 861 N 84.2517 0.741722 -1.39055 0
M  V30 862 C 85.4767 1.53607 -1.39354 0
M  V30 863 C 85.9017 1.88096 0.0116905 0
M  V30 864 O 85.2597 1.5143 0.996924 0
M  V30 865 C 85.3077 2.80441 -2.26682 0
M  V30 866 O 84.4117 3.76088 -1.69208 0
M  V30 867 H 83.7527 0.464142 -0.474835 0
M  V30 868 H 86.2827 0.915665 -1.82967 0
M  V30 869 H 86.2927 3.29246 -2.40959 0
M  V30 870 H 84.9677 2.5467 -3.2881 0
M  V30 871 H 83.5447 3.34833 -1.64138 0
M  V30 872 N 85.7298 1.2412 0.971189 0
M  V30 873 C 86.6398 1.04747 2.09917 0
M  V30 874 C 87.6558 -0.0107162 1.73997 0
M  V30 875 O 88.8318 0.186714 2.00533 0
M  V30 876 C 85.8968 0.650828 3.40537 0
M  V30 877 C 84.9578 1.7851 3.90426 0
M  V30 878 C 84.1908 1.40729 5.14812 0
M  V30 879 O 84.4138 0.29557 5.69634 0
M  V30 880 O 83.3478 2.23168 5.58999 0
M  V30 881 H 87.1738 1.99304 2.29154 0
M  V30 882 H 84.7588 1.02908 1.08307 0
M  V30 883 H 86.6408 0.440992 4.19086 0
M  V30 884 H 85.3158 -0.265649 3.22608 0
M  V30 885 H 84.2228 2.04966 3.12953 0
M  V30 886 H 85.5558 2.68023 4.12825 0
M  V30 887 N 87.2079 -1.17134 1.05439 0
M  V30 888 C 88.1399 -2.2078 0.615539 0
M  V30 889 C 89.1529 -1.59584 -0.322001 0
M  V30 890 O 90.3419 -1.78133 -0.114344 0
M  V30 891 C 87.4419 -3.38691 -0.118938 0
M  V30 892 C 86.6149 -4.29454 0.829924 0
M  V30 893 C 85.6739 -5.26024 0.136258 0
M  V30 894 O 84.6999 -5.63952 0.77115 0
M  V30 895 N 85.9019 -5.69487 -1.1254 0
M  V30 896 H 88.6669 -2.59052 1.50705 0
M  V30 897 H 86.2279 -1.32058 0.936603 0
M  V30 898 H 88.2199 -4.00329 -0.593179 0
M  V30 899 H 86.7899 -2.98996 -0.91215 0
M  V30 900 H 86.0099 -3.65211 1.48373 0
M  V30 901 H 87.2979 -4.86984 1.47392 0
M  V30 902 H 86.6959 -5.4075 -1.6615 0
M  V30 903 H 85.2529 -6.33257 -1.54366 0
M  V30 904 N 88.686 -0.835752 -1.33615 0
M  V30 905 C 89.934 -0.429109 -1.97492 0
M  V30 906 C 90.255 1.01433 -1.66543 0
M  V30 907 O 89.525 1.70611 -0.962744 0
M  V30 908 H 88.105 -0.155686 -0.730596 0
M  V30 909 H 90.767 -1.06802 -1.63031 0
M  V30 910 H 89.863 -0.55861 -3.0706 0
M  V30 911 N 90.1641 1.46063 -0.591896 0
M  V30 912 C 91.4131 2.01547 -0.0786637 0
M  V30 913 C 91.7261 1.46796 1.29268 0
M  V30 914 O 92.9321 1.94157 1.89777 0
M  V30 915 C 91.3881 3.59787 -0.0900024 0
M  V30 916 C 90.9961 4.23534 -1.46023 0
M  V30 917 C 92.7401 4.22895 0.368806 0
M  V30 918 C 90.6471 5.73881 -1.4288 0
M  V30 919 H 89.5771 0.753564 -0.0256388 0
M  V30 920 H 92.2281 1.677 -0.744905 0
M  V30 921 H 90.6101 3.90752 0.642586 0
M  V30 922 H 91.7841 4.04167 -2.21328 0
M  V30 923 H 90.0991 3.72558 -1.85982 0
M  V30 924 H 92.6961 5.33116 0.411258 0
M  V30 925 H 93.0391 3.9247 1.38827 0
M  V30 926 H 93.5721 3.9659 -0.31001 0
M  V30 927 H 90.3111 6.0898 -2.42536 0
M  V30 928 H 89.8311 5.95486 -0.718095 0
M  V30 929 H 91.5101 6.36776 -1.14565 0
M  V30 930 N 91.6422 0.330177 1.54103 0
M  V30 931 C 93.0532 -0.15652 1.86043 0
M  V30 932 C 93.4042 -1.51086 1.2517 0
M  V30 933 O 92.5292 -2.09023 0.560217 0
M  V30 934 C 93.1242 -0.290784 3.3755 0
M  V30 935 C 91.6832 -0.721705 3.69416 0
M  V30 936 C 90.8302 0.152622 2.7688 0
M  V30 937 H 93.7812 0.550237 1.48856 0
M  V30 938 H 93.8022 -1.12058 3.63625 0
M  V30 939 H 93.3142 0.695068 3.81825 0
M  V30 940 H 91.4152 -1.71706 3.30678 0
M  V30 941 H 91.5282 -0.520869 4.7626 0
M  V30 942 H 89.8922 -0.372894 2.51956 0
M  V30 943 H 90.6752 1.13536 3.23982 0
M  V30 944 N 93.1203 -1.57491 0.0584922 0
M  V30 945 C 94.3503 -1.9701 -0.622134 0
M  V30 946 C 94.7583 -0.935034 -1.6448 0
M  V30 947 O 94.1013 0.0882904 -1.83488 0
M  V30 948 C 94.1633 -3.32794 -1.35972 0
M  V30 949 C 93.8273 -4.54343 -0.492043 0
M  V30 950 C 94.8243 -5.19323 0.244901 0
M  V30 951 C 92.5093 -5.00534 -0.420821 0
M  V30 952 C 94.5033 -6.28835 1.04143 0
M  V30 953 C 92.1903 -6.09921 0.379389 0
M  V30 954 C 93.1883 -6.73933 1.10919 0
M  V30 955 O 92.8763 -7.81216 1.89623 0
M  V30 956 H 92.6083 -0.653127 -0.174359 0
M  V30 957 H 95.1623 -2.05029 0.123418 0
M  V30 958 H 93.3923 -3.21351 -2.15105 0
M  V30 959 H 95.0813 -3.5701 -1.93129 0
M  V30 960 H 95.8473 -4.8459 0.19939 0
M  V30 961 H 91.7263 -4.50496 -0.978474 0
M  V30 962 H 95.2703 -6.7873 1.61157 0
M  V30 963 H 91.1673 -6.44089 0.426512 0
M  V30 964 H 91.9353 -7.98029 1.81913 0
M  V30 965 N 94.5984 0.214957 -1.56127 0
M  V30 966 C 95.5484 1.27006 -1.8935 0
M  V30 967 C 96.5324 1.41969 -0.757202 0
M  V30 968 O 97.7244 1.44673 -1.01973 0
M  V30 969 C 94.8534 2.61911 -2.2194 0
M  V30 970 C 93.9394 2.50822 -3.41978 0
M  V30 971 N 94.3304 2.09391 -4.60423 0
M  V30 972 C 92.6284 2.81765 -3.45723 0
M  V30 973 C 93.3294 2.09712 -5.42582 0
M  V30 974 N 92.3054 2.50454 -4.82466 0
M  V30 975 H 96.1074 0.940734 -2.78437 0
M  V30 976 H 93.6214 0.423492 -1.56781 0
M  V30 977 H 95.6184 3.38096 -2.43919 0
M  V30 978 H 94.2784 2.95684 -1.34169 0
M  V30 979 H 95.2894 1.80416 -4.85459 0
M  V30 980 H 91.9664 3.19865 -2.68314 0
M  V30 981 H 93.3564 1.79748 -6.4741 0
M  V30 982 N 96.0765 1.50051 0.48192 0
M  V30 983 C 97.3015 1.64508 1.26301 0
M  V30 984 C 97.7265 0.323851 1.85291 0
M  V30 985 O 97.0845 -0.710969 1.66778 0
M  V30 986 C 97.1325 2.7305 2.35533 0
M  V30 987 O 96.2365 2.3355 3.39895 0
M  V30 988 H 95.5775 0.549978 0.372048 0
M  V30 989 H 98.1075 1.9636 0.574786 0
M  V30 990 H 98.1175 2.95799 2.8101 0
M  V30 991 H 96.7925 3.68946 1.91967 0
M  V30 992 H 95.3695 2.21205 3.00204 0
M  V30 993 N 97.5546 -0.734337 1.39446 0
M  V30 994 C 98.8036 -1.48937 1.36017 0
M  V30 995 C 99.1166 -1.95557 -0.0409005 0
M  V30 996 O 100.323 -2.70779 -0.19778 0
M  V30 997 C 98.7786 -2.69125 2.38955 0
M  V30 998 C 98.3866 -2.29452 3.8478 0
M  V30 999 C 100.131 -3.46944 2.44603 0
M  V30 1000 C 98.0376 -3.46366 4.79358 0
M  V30 1001 H 96.9676 -0.559296 0.505672 0
M  V30 1002 H 99.6186 -0.800983 1.65095 0
M  V30 1003 H 98.0006 -3.40041 2.02948 0
M  V30 1004 H 99.1746 -1.66077 4.29831 0
M  V30 1005 H 97.4896 -1.64723 3.82433 0
M  V30 1006 H 100.087 -4.33907 3.12456 0
M  V30 1007 H 100.43 -3.89454 1.47076 0
M  V30 1008 H 100.963 -2.83056 2.79507 0
M  V30 1009 H 97.7016 -3.08905 5.78151 0
M  V30 1010 H 97.2216 -4.08719 4.38986 0
M  V30 1011 H 98.9006 -4.12691 4.98292 0
M  V30 1012 N 99.0327 -1.24633 -0.964593 0
M  V30 1013 C 99.9427 -1.05859 -2.09359 0
M  V30 1014 C 100.959 0.00148855 -1.74 0
M  V30 1015 O 102.135 -0.197346 -2.00431 0
M  V30 1016 C 99.1997 -0.668879 -3.40187 0
M  V30 1017 C 98.2607 -1.80578 -3.89474 0
M  V30 1018 C 97.4937 -1.43457 -5.14058 0
M  V30 1019 O 97.7167 -0.325775 -5.69469 0
M  V30 1020 O 96.6507 -2.2613 -5.57807 0
M  V30 1021 H 100.477 -2.00516 -2.28094 0
M  V30 1022 H 98.0617 -1.03481 -1.0776 0
M  V30 1023 H 99.9437 -0.463211 -4.18846 0
M  V30 1024 H 98.6187 0.248536 -3.22744 0
M  V30 1025 H 97.5257 -2.06623 -3.11862 0
M  V30 1026 H 98.8587 -2.70208 -4.11398 0
M  V30 1027 N 100.511 1.16574 -1.06058 0
M  V30 1028 C 101.739 1.90952 -0.796552 0
M  V30 1029 C 102.154 1.77302 0.648808 0
M  V30 1030 O 101.511 1.11605 1.44397 0
M  V30 1031 C 101.562 3.41736 -1.17894 0
M  V30 1032 O 101.283 3.54975 -2.56758 0
M  V30 1033 C 102.784 4.33169 -0.942308 0
M  V30 1034 H 100.004 0.605594 -0.288959 0
M  V30 1035 H 102.548 1.47777 -1.41358 0
M  V30 1036 H 100.703 3.82623 -0.606491 0
M  V30 1037 H 101.117 4.4846 -2.72 0
M  V30 1038 H 102.591 5.37439 -1.25952 0
M  V30 1039 H 103.068 4.3903 0.122078 0
M  V30 1040 H 103.674 3.98007 -1.49902 0
M  V30 1041 N 101.989 0.842826 1.3317 0
M  V30 1042 C 102.919 0.294028 2.31641 0
M  V30 1043 C 103.9 -0.600401 1.59151 0
M  V30 1044 O 105.085 -0.523124 1.87022 0
M  V30 1045 C 102.215 -0.528416 3.43257 0
M  V30 1046 C 101.169 0.27056 4.27144 0
M  V30 1047 C 100.495 -0.675881 5.30411 0
M  V30 1048 C 101.795 1.48981 5.00602 0
M  V30 1049 H 103.489 1.11681 2.77791 0
M  V30 1050 H 101.035 0.538478 1.33553 0
M  V30 1051 H 102.988 -0.922674 4.11175 0
M  V30 1052 H 101.712 -1.38445 2.95805 0
M  V30 1053 H 100.371 0.646427 3.60856 0
M  V30 1054 H 100.019 -1.52842 4.79216 0
M  V30 1055 H 99.7189 -0.145374 5.8742 0
M  V30 1056 H 101.243 -1.06757 6.01195 0
M  V30 1057 H 102.657 1.16849 5.61266 0
M  V30 1058 H 101.054 1.95739 5.6728 0
M  V30 1059 H 102.124 2.25746 4.29147 0
M  V30 1060 N 103.467 -1.45747 0.599634 0
M  V30 1061 C 104.4 -2.27547 -0.172552 0
M  V30 1062 C 105.378 -1.36657 -0.881116 0
M  V30 1063 O 106.562 -1.66081 -0.891595 0
M  V30 1064 C 103.689 -3.14829 -1.24903 0
M  V30 1065 C 102.735 -4.21603 -0.644465 0
M  V30 1066 S 103.568 -5.32754 0.541606 0
M  V30 1067 C 104.724 -6.23604 -0.535656 0
M  V30 1068 H 104.957 -2.92691 0.521468 0
M  V30 1069 H 102.49 -1.49473 0.386947 0
M  V30 1070 H 104.448 -3.65675 -1.86527 0
M  V30 1071 H 103.109 -2.48965 -1.91508 0
M  V30 1072 H 102.302 -4.82566 -1.45417 0
M  V30 1073 H 101.904 -3.73857 -0.103534 0
M  V30 1074 H 104.196 -6.62519 -1.41686 0
M  V30 1075 H 105.139 -7.0809 0.0376246 0
M  V30 1076 H 105.547 -5.58103 -0.84741 0
M  V30 1077 N 104.945 -0.338344 -1.53925 0
M  V30 1078 C 106.191 0.260143 -2.01125 0
M  V30 1079 C 106.524 1.50617 -1.22589 0
M  V30 1080 O 105.799 1.91979 -0.312113 0
M  V30 1081 C 106.082 0.579499 -3.55407 0
M  V30 1082 C 105.935 -0.678264 -4.44657 0
M  V30 1083 C 107.254 1.39122 -4.17532 0
M  V30 1084 H 104.373 0.0930772 -0.731099 0
M  V30 1085 H 107.015 -0.457852 -1.84401 0
M  V30 1086 H 105.165 1.19118 -3.69788 0
M  V30 1087 H 106.837 -1.31631 -4.42121 0
M  V30 1088 H 105.08 -1.3042 -4.13731 0
M  V30 1089 H 105.751 -0.410143 -5.50474 0
M  V30 1090 H 108.227 0.874035 -4.06817 0
M  V30 1091 H 107.103 1.58342 -5.25565 0
M  V30 1092 H 107.364 2.39178 -3.71815 0
M  V30 1093 N 106.423 1.57458 -0.0668435 0
M  V30 1094 C 107.333 2.15937 0.916975 0
M  V30 1095 C 108.349 1.12123 1.33058 0
M  V30 1096 O 109.525 1.44366 1.40429 0
M  V30 1097 C 106.59 2.70547 2.16807 0
M  V30 1098 C 105.651 3.89215 1.81135 0
M  V30 1099 C 104.884 4.41211 3.0028 0
M  V30 1100 O 105.107 3.92225 4.14144 0
M  V30 1101 O 104.041 5.32605 2.80384 0
M  V30 1102 H 107.867 3.00354 0.449561 0
M  V30 1103 H 105.452 1.48584 0.155949 0
M  V30 1104 H 107.334 3.0557 2.90181 0
M  V30 1105 H 106.009 1.89192 2.62656 0
M  V30 1106 H 104.916 3.59054 1.05028 0
M  V30 1107 H 106.249 4.71848 1.40073 0
M  V30 1108 N 107.901 -0.206675 1.56239 0
M  V30 1109 C 108.864 -1.23976 1.92776 0
M  V30 1110 C 109.864 -1.39041 0.807729 0
M  V30 1111 O 111.054 -1.37051 1.0753 0
M  V30 1112 C 108.186 -2.61112 2.19165 0
M  V30 1113 H 109.379 -0.927764 2.85189 0
M  V30 1114 H 106.932 -0.447718 1.4975 0
M  V30 1115 H 107.667 -2.97386 1.29352 0
M  V30 1116 H 107.452 -2.51552 3.00772 0
M  V30 1117 H 108.942 -3.35633 2.48476 0
M  V30 1118 N 109.379 -1.50304 -0.473955 0
M  V30 1119 C 110.79 -1.54042 -1.0549 0
M  V30 1120 C 111.141 -0.342248 -1.93192 0
M  V30 1121 O 110.266 0.545157 -2.09421 0
M  V30 1122 C 110.861 -2.79152 -1.91989 0
M  V30 1123 C 109.42 -2.8558 -2.45196 0
M  V30 1124 C 108.567 -2.48295 -1.2347 0
M  V30 1125 H 111.518 -1.5661 -0.256693 0
M  V30 1126 H 111.539 -2.60845 -2.7702 0
M  V30 1127 H 111.051 -3.66339 -1.28131 0
M  V30 1128 H 109.152 -2.02738 -3.12615 0
M  V30 1129 H 109.265 -3.88403 -2.80499 0
M  V30 1130 H 107.629 -2.00669 -1.56856 0
M  V30 1131 H 108.412 -3.37787 -0.612789 0
M  V30 1132 N 110.857 0.726932 -1.39834 0
M  V30 1133 C 112.134 1.47902 -1.28001 0
M  V30 1134 C 112.514 2.1083 0.106789 0
M  V30 1135 O 111.862 1.99242 1.11869 0
M  V30 1136 C 112.072 2.52392 -2.41038 0
M  V30 1137 C 113.42 3.18546 -2.80737 0
M  V30 1138 O 114.444 2.62708 -2.40547 0
M  V30 1139 O 113.303 4.19604 -3.50135 0
M  V30 1140 H 110.397 0.657163 -0.502062 0
M  V30 1141 H 112.943 0.760071 -1.51727 0
M  V30 1142 H 111.715 2.04329 -3.33715 0
M  V30 1143 H 111.338 3.31837 -2.19021 0
M  V30 1144 N 112.336 1.25143 0.95797 0
M  V30 1145 C 113.566 1.12261 1.73439 0
M  V30 1146 C 113.974 -0.326715 1.86358 0
M  V30 1147 O 113.317 -1.2367 1.35836 0
M  V30 1148 C 113.379 1.69966 3.16784 0
M  V30 1149 C 113.043 3.18936 3.27305 0
M  V30 1150 C 114.04 4.15968 3.11877 0
M  V30 1151 C 111.725 3.59083 3.51234 0
M  V30 1152 C 113.719 5.51126 3.20217 0
M  V30 1153 C 111.406 4.9438 3.5921 0
M  V30 1154 C 112.404 5.90211 3.43716 0
M  V30 1155 O 112.092 7.23046 3.51368 0
M  V30 1156 H 111.824 0.392476 0.550399 0
M  V30 1157 H 114.378 1.65927 1.21068 0
M  V30 1158 H 112.608 1.10744 3.70503 0
M  V30 1159 H 114.297 1.52232 3.76272 0
M  V30 1160 H 115.063 3.86292 2.93264 0
M  V30 1161 H 110.942 2.84989 3.62356 0
M  V30 1162 H 114.486 6.25905 3.0804 0
M  V30 1163 H 110.383 5.23723 3.77339 0
M  V30 1164 H 111.151 7.31097 3.6802 0
M  V30 1165 N 113.814 -1.1601 1.06675 0
M  V30 1166 C 115.062 -1.86264 0.784229 0
M  V30 1167 C 115.383 -1.82328 -0.691488 0
M  V30 1168 O 114.653 -1.25947 -1.50047 0
M  V30 1169 H 113.233 -0.689621 0.28711 0
M  V30 1170 H 115.895 -1.40664 1.34906 0
M  V30 1171 H 114.991 -2.91595 1.11259 0
M  V30 1172 N 115.292 -0.849877 -1.32721 0
M  V30 1173 C 116.242 -0.262892 -2.26479 0
M  V30 1174 C 117.226 0.588493 -1.49752 0
M  V30 1175 O 118.418 0.438659 -1.71478 0
M  V30 1176 C 115.547 0.551818 -3.38836 0
M  V30 1177 C 114.633 -0.311689 -4.22953 0
M  V30 1178 N 115.024 -1.39567 -4.86163 0
M  V30 1179 C 113.322 -0.100611 -4.45887 0
M  V30 1180 C 114.023 -1.92651 -5.48872 0
M  V30 1181 N 112.999 -1.22637 -5.29586 0
M  V30 1182 H 116.801 -1.09166 -2.72873 0
M  V30 1183 H 114.315 -0.695486 -1.46754 0
M  V30 1184 H 116.312 0.988713 -4.05006 0
M  V30 1185 H 114.972 1.37844 -2.93988 0
M  V30 1186 H 115.983 -1.77859 -4.86402 0
M  V30 1187 H 112.66 0.691681 -4.11731 0
M  V30 1188 H 114.05 -2.83487 -6.09167 0
M  V30 1189 N 116.77 1.45427 -0.607355 0
M  V30 1190 C 118.016 2.0254 -0.102607 0
M  V30 1191 C 118.349 1.47478 1.26348 0
M  V30 1192 O 117.624 0.64939 1.83339 0
M  V30 1193 C 117.907 3.60044 -0.0634347 0
M  V30 1194 C 117.76 4.2544 -1.46017 0
M  V30 1195 C 119.079 4.35646 0.624514 0
M  V30 1196 H 116.198 0.73598 -0.0387607 0
M  V30 1197 H 118.84 1.73284 -0.779282 0
M  V30 1198 H 116.99 3.85101 0.512808 0
M  V30 1199 H 118.662 4.11569 -2.08347 0
M  V30 1200 H 116.905 3.83849 -2.02094 0
M  V30 1201 H 117.576 5.34342 -1.385 0
M  V30 1202 H 120.052 4.15882 0.134723 0
M  V30 1203 H 118.928 5.45376 0.621028 0
M  V30 1204 H 119.189 4.08501 1.69055 0
M  V30 1205 N 118.248 0.346503 1.53744 0
M  V30 1206 C 119.476 -0.25041 2.05379 0
M  V30 1207 C 119.891 -1.43979 1.22129 0
M  V30 1208 O 119.248 -1.80677 0.257321 0
M  V30 1209 C 119.299 -0.662575 3.55376 0
M  V30 1210 O 119.02 0.479515 4.35468 0
M  V30 1211 C 120.521 -1.31989 4.23195 0
M  V30 1212 H 117.741 -0.0478198 0.669294 0
M  V30 1213 H 120.285 0.499346 1.9831 0
M  V30 1214 H 118.44 -1.36227 3.62658 0
M  V30 1215 H 118.854 0.15037 5.24284 0
M  V30 1216 H 120.328 -1.55902 5.29527 0
M  V30 1217 H 120.805 -2.27436 3.75725 0
M  V30 1218 H 121.411 -0.662154 4.20114 0
M  V30 1219 N 119.726 -1.57421 0.075193 0
M  V30 1220 C 120.954 -1.97946 -0.602076 0
M  V30 1221 C 121.369 -0.953674 -1.62943 0
M  V30 1222 O 120.726 0.0592551 -1.82404 0
M  V30 1223 C 120.777 -3.38546 -1.26762 0
M  V30 1224 O 120.498 -4.37195 -0.281376 0
M  V30 1225 C 121.999 -3.93966 -2.03239 0
M  V30 1226 H 119.219 -0.650918 -0.162931 0
M  V30 1227 H 121.763 -2.03959 0.148601 0
M  V30 1228 H 119.918 -3.33609 -1.96936 0
M  V30 1229 H 120.332 -5.18975 -0.759267 0
M  V30 1230 H 121.806 -4.94555 -2.45193 0
M  V30 1231 H 122.283 -3.30693 -2.8903 0
M  V30 1232 H 122.889 -4.02315 -1.37924 0
M  V30 1233 N 121.204 0.198386 -1.56346 0
M  V30 1234 C 122.429 0.939682 -1.84891 0
M  V30 1235 C 122.854 1.76202 -0.658369 0
M  V30 1236 O 122.212 1.76993 0.392851 0
M  V30 1237 C 122.26 1.81428 -3.11635 0
M  V30 1238 O 121.364 2.91265 -2.91956 0
M  V30 1239 H 120.705 0.264807 -0.608912 0
M  V30 1240 H 123.235 0.204695 -2.03573 0
M  V30 1241 H 123.245 2.21958 -3.42343 0
M  V30 1242 H 121.92 1.21004 -3.97908 0
M  V30 1243 H 120.497 2.54514 -2.72538 0
M  V30 1244 N 122.682 1.50554 0.465978 0
M  V30 1245 C 123.592 1.72585 1.58907 0
M  V30 1246 C 124.608 0.60911 1.6299 0
M  V30 1247 O 125.784 0.88804 1.80765 0
M  V30 1248 C 122.849 1.81995 2.95091 0
M  V30 1249 C 121.91 3.05751 3.01355 0
M  V30 1250 C 121.143 3.14702 4.31043 0
M  V30 1251 O 121.366 2.30313 5.21835 0
M  V30 1252 O 120.3 4.07468 4.43005 0
M  V30 1253 H 124.126 2.67799 1.43239 0
M  V30 1254 H 121.711 1.34711 0.646013 0
M  V30 1255 H 123.593 1.90335 3.75966 0
M  V30 1256 H 122.268 0.899659 3.10947 0
M  V30 1257 H 121.175 3.02908 2.19539 0
M  V30 1258 H 122.508 3.97375 2.90437 0
M  V30 1259 N 124.16 -0.719506 1.40217 0
M  V30 1260 C 125.123 -1.8153 1.39927 0
M  V30 1261 C 126.123 -1.58095 0.293723 0
M  V30 1262 O 127.313 -1.65209 0.552429 0
M  V30 1263 C 124.445 -3.19561 1.18716 0
M  V30 1264 H 125.638 -1.83186 2.37451 0
M  V30 1265 H 123.191 -0.924746 1.26008 0
M  V30 1266 H 123.926 -3.23557 0.219366 0
M  V30 1267 H 123.711 -3.3797 1.98793 0
M  V30 1268 H 125.201 -3.99598 1.21291 0
M  V30 1269 N 125.638 -1.25649 -0.95132 0
M  V30 1270 C 126.571 -1.00644 -2.04807 0
M  V30 1271 C 127.549 0.0654271 -1.62468 0
M  V30 1272 O 128.733 -0.074911 -1.88351 0
M  V30 1273 C 125.86 -0.522052 -3.34653 0
M  V30 1274 C 124.906 -1.58495 -3.95957 0
M  V30 1275 S 125.739 -3.17108 -4.31512 0
M  V30 1276 C 126.895 -2.70412 -5.64471 0
M  V30 1277 H 127.128 -1.93508 -2.25703 0
M  V30 1278 H 124.661 -1.09216 -1.09139 0
M  V30 1279 H 126.619 -0.24923 -4.09743 0
M  V30 1280 H 125.28 0.386146 -3.11717 0
M  V30 1281 H 124.473 -1.1968 -4.89584 0
M  V30 1282 H 124.075 -1.80862 -3.2736 0
M  V30 1283 H 126.367 -2.14245 -6.42733 0
M  V30 1284 H 127.31 -3.62693 -6.08161 0
M  V30 1285 H 127.718 -2.10302 -5.23864 0
M  V30 1286 N 127.117 1.15442 -1.07289 0
M  V30 1287 C 128.342 1.90638 -0.816828 0
M  V30 1288 C 128.767 1.77445 0.624083 0
M  V30 1289 O 128.125 1.10671 1.43602 0
M  V30 1290 C 128.173 3.39008 -1.22906 0
M  V30 1291 O 127.277 4.10701 -0.373975 0
M  V30 1292 H 126.618 0.593555 -0.297638 0
M  V30 1293 H 129.148 1.46198 -1.43134 0
M  V30 1294 H 129.158 3.89801 -1.20497 0
M  V30 1295 H 127.833 3.47929 -2.27856 0
M  V30 1296 H 126.41 3.70046 -0.460499 0
M  V30 1297 N 128.595 0.856903 1.32268 0
M  V30 1298 C 129.825 0.47475 2.01071 0
M  V30 1299 C 130.233 -0.933746 1.64553 0
M  V30 1300 O 129.576 -1.62114 0.863989 0
M  V30 1301 C 129.638 0.536746 3.55471 0
M  V30 1302 C 129.302 1.90453 4.15423 0
M  V30 1303 C 130.299 2.87029 4.33486 0
M  V30 1304 C 127.984 2.20229 4.51447 0
M  V30 1305 C 129.978 4.11532 4.86744 0
M  V30 1306 C 127.665 3.44984 5.0441 0
M  V30 1307 C 128.663 4.40452 5.22007 0
M  V30 1308 O 128.351 5.62998 5.73837 0
M  V30 1309 H 128.083 0.184778 0.650256 0
M  V30 1310 H 130.637 1.15615 1.69771 0
M  V30 1311 H 128.867 -0.20152 3.86175 0
M  V30 1312 H 130.556 0.169875 4.05544 0
M  V30 1313 H 131.322 2.6533 4.05986 0
M  V30 1314 H 127.201 1.46705 4.37034 0
M  V30 1315 H 130.745 4.86056 5.00395 0
M  V30 1316 H 126.642 3.66532 5.31342 0
M  V30 1317 H 127.41 5.64987 5.92226 0
M  V30 1318 N 130.073 -1.45103 0.615059 0
M  V30 1319 C 131.303 -2.06254 0.119596 0
M  V30 1320 C 131.711 -1.4591 -1.20445 0
M  V30 1321 O 131.054 -0.570384 -1.7462 0
M  V30 1322 C 131.116 -3.59396 -0.0865591 0
M  V30 1323 C 130.78 -4.42116 1.15683 0
M  V30 1324 C 131.777 -4.7662 2.07676 0
M  V30 1325 C 129.462 -4.82749 1.38775 0
M  V30 1326 C 131.456 -5.50622 3.21082 0
M  V30 1327 C 129.143 -5.56504 2.52481 0
M  V30 1328 C 130.141 -5.90358 3.43463 0
M  V30 1329 O 129.829 -6.62615 4.55189 0
M  V30 1330 H 129.561 -0.672423 0.0694512 0
M  V30 1331 H 132.115 -1.87219 0.844885 0
M  V30 1332 H 130.345 -3.76859 -0.866823 0
M  V30 1333 H 132.034 -4.02365 -0.534555 0
M  V30 1334 H 132.8 -4.4578 1.91063 0
M  V30 1335 H 128.679 -4.55829 0.688545 0
M  V30 1336 H 132.223 -5.76965 3.92119 0
M  V30 1337 H 128.12 -5.86759 2.69043 0
M  V30 1338 H 128.888 -6.81071 4.53966 0
M  V30 1339 N 131.551 -0.354651 -1.53558 0
M  V30 1340 C 132.484 0.540273 -2.21712 0
M  V30 1341 C 133.462 1.09161 -1.2051 0
M  V30 1342 O 134.646 1.14979 -1.49372 0
M  V30 1343 C 131.773 1.74435 -2.90328 0
M  V30 1344 C 130.819 1.32146 -4.05512 0
M  V30 1345 S 131.652 0.331924 -5.3447 0
M  V30 1346 C 132.808 1.54258 -6.06593 0
M  V30 1347 H 133.041 -0.0385776 -2.97275 0
M  V30 1348 H 130.574 -0.138736 -1.53775 0
M  V30 1349 H 132.532 2.43507 -3.30476 0
M  V30 1350 H 131.193 2.29444 -2.1451 0
M  V30 1351 H 130.386 2.21952 -4.52497 0
M  V30 1352 H 129.988 0.710091 -3.67197 0
M  V30 1353 H 132.28 2.47534 -6.30661 0
M  V30 1354 H 133.223 1.11431 -6.99277 0
M  V30 1355 H 133.631 1.74367 -5.36895 0
M  V30 1356 N 133.029 1.57378 -0.0835403 0
M  V30 1357 C 134.275 1.95025 0.577664 0
M  V30 1358 C 134.63 0.964049 1.66505 0
M  V30 1359 O 133.923 -0.0118235 1.91596 0
M  V30 1360 C 134.117 3.37063 1.1884 0
M  V30 1361 C 133.946 4.49409 0.16171 0
M  V30 1362 C 132.716 5.04642 -0.257756 0
M  V30 1363 C 134.914 5.10722 -0.605634 0
M  V30 1364 N 132.896 6.00537 -1.27393 0
M  V30 1365 C 134.267 6.02225 -1.47395 0
M  V30 1366 C 136.322 4.93501 -0.660418 0
M  V30 1367 C 135.025 6.78355 -2.39221 0
M  V30 1368 C 137.051 5.70283 -1.56623 0
M  V30 1369 C 136.413 6.61444 -2.4222 0
M  V30 1370 H 132.512 0.760512 0.182058 0
M  V30 1371 H 135.096 1.94013 -0.163419 0
M  V30 1372 H 133.267 3.3879 1.89936 0
M  V30 1373 H 134.999 3.61917 1.81103 0
M  V30 1374 H 131.754 4.73428 0.127702 0
M  V30 1375 H 132.178 6.53184 -1.77987 0
M  V30 1376 H 136.82 4.22798 -0.0128221 0
M  V30 1377 H 134.538 7.48327 -3.05011 0
M  V30 1378 H 138.124 5.58976 -1.61361 0
M  V30 1379 H 137.004 7.1982 -3.11174 0
M  V30 1380 N 134.507 -0.190092 1.56449 0
M  V30 1381 C 135.437 -1.23816 1.97969 0
M  V30 1382 C 136.418 -1.47201 0.852395 0
M  V30 1383 O 137.603 -1.58854 1.1171 0
M  V30 1384 C 134.733 -2.5813 2.3235 0
M  V30 1385 C 133.687 -2.49348 3.47864 0
M  V30 1386 C 133.013 -3.8798 3.67934 0
M  V30 1387 C 134.313 -2.01424 4.81898 0
M  V30 1388 H 136.007 -0.89311 2.85769 0
M  V30 1389 H 133.553 -0.428177 1.37487 0
M  V30 1390 H 135.506 -3.31637 2.59991 0
M  V30 1391 H 134.23 -2.94386 1.41438 0
M  V30 1392 H 132.889 -1.78297 3.20321 0
M  V30 1393 H 132.537 -4.21597 2.74344 0
M  V30 1394 H 132.237 -3.82978 4.45648 0
M  V30 1395 H 133.761 -4.63101 3.97957 0
M  V30 1396 H 135.175 -2.64693 5.08538 0
M  V30 1397 H 133.572 -2.07413 5.63116 0
M  V30 1398 H 134.642 -0.967677 4.75146 0
M  V30 1399 N 135.985 -1.50799 -0.457987 0
M  V30 1400 C 136.895 -1.73426 -1.57989 0
M  V30 1401 C 137.911 -0.617745 -1.62665 0
M  V30 1402 O 139.087 -0.897614 -1.80291 0
M  V30 1403 C 136.152 -1.83557 -2.94122 0
M  V30 1404 C 135.213 -3.07345 -2.99729 0
M  V30 1405 C 134.446 -3.16983 -4.29368 0
M  V30 1406 O 134.669 -2.33077 -5.20607 0
M  V30 1407 O 133.603 -4.09812 -4.40837 0
M  V30 1408 H 137.429 -2.68555 -1.41817 0
M  V30 1409 H 135.014 -1.35052 -0.638859 0
M  V30 1410 H 136.896 -1.92326 -3.74952 0
M  V30 1411 H 135.571 -0.916137 -3.10465 0
M  V30 1412 H 134.478 -3.04068 -2.1793 0
M  V30 1413 H 135.811 -3.9891 -2.88326 0
M  V30 1414 N 137.463 0.71206 -1.40597 0
M  V30 1415 C 138.426 1.80785 -1.40888 0
M  V30 1416 C 139.426 1.57937 -0.302103 0
M  V30 1417 O 140.616 1.64913 -0.561182 0
M  V30 1418 C 137.748 3.18927 -1.20409 0
M  V30 1419 H 138.941 1.81924 -2.38419 0
M  V30 1420 H 136.494 0.91805 -1.26497 0
M  V30 1421 H 137.229 3.23436 -0.236522 0
M  V30 1422 H 137.014 3.36911 -2.00582 0
M  V30 1423 H 138.504 3.98949 -1.23408 0
M  V30 1424 N 138.941 1.26152 0.944643 0
M  V30 1425 C 139.874 1.01729 2.04271 0
M  V30 1426 C 140.852 -0.0568101 1.62501 0
M  V30 1427 O 142.036 0.0848987 1.88309 0
M  V30 1428 C 139.163 0.539792 3.34371 0
M  V30 1429 C 138.209 1.60593 3.9511 0
M  V30 1430 S 139.042 3.19392 4.29825 0
M  V30 1431 C 140.198 2.73402 5.63029 0
M  V30 1432 H 140.431 1.94703 2.24673 0
M  V30 1433 H 137.964 1.09793 1.08558 0
M  V30 1434 H 139.922 0.270956 4.09605 0
M  V30 1435 H 138.583 -0.369609 3.11918 0
M  V30 1436 H 137.776 1.22275 4.88943 0
M  V30 1437 H 137.378 1.82596 3.26397 0
M  V30 1438 H 139.67 2.1765 6.41588 0
M  V30 1439 H 140.613 3.65913 6.06229 0
M  V30 1440 H 141.021 2.13077 5.22741 0
M  V30 1441 N 140.419 -1.14872 1.07899 0
M  V30 1442 C 141.369 -2.17809 0.674027 0
M  V30 1443 C 142.353 -1.58008 -0.303699 0
M  V30 1444 O 143.545 -1.76616 -0.11654 0
M  V30 1445 C 140.674 -3.43208 0.0793318 0
M  V30 1446 C 139.76 -4.10051 1.08253 0
M  V30 1447 N 140.151 -4.52296 2.2641 0
M  V30 1448 C 138.449 -4.36469 0.917124 0
M  V30 1449 C 139.15 -5.04199 2.901 0
M  V30 1450 N 138.126 -4.98088 2.17736 0
M  V30 1451 H 141.928 -2.48207 1.57386 0
M  V30 1452 H 139.442 -1.315 0.952976 0
M  V30 1453 H 141.439 -4.16272 -0.228719 0
M  V30 1454 H 140.099 -3.14291 -0.815551 0
M  V30 1455 H 141.11 -4.45504 2.64096 0
M  V30 1456 H 137.787 -4.17432 0.0756078 0
M  V30 1457 H 139.177 -5.46802 3.90458 0
M  V30 1458 N 141.898 -0.863906 -1.31812 0
M  V30 1459 C 143.146 -0.470904 -1.96537 0
M  V30 1460 C 143.467 0.978771 -1.68657 0
M  V30 1461 O 142.737 1.6853 -0.998717 0
M  V30 1462 H 141.317 -0.171148 -0.72713 0
M  V30 1463 H 143.979 -1.10236 -1.60729 0
M  V30 1464 H 143.075 -0.623616 -3.05806 0
M  V30 1465 N 143.376 1.44774 -0.622745 0
M  V30 1466 C 144.792 1.56986 -0.287652 0
M  V30 1467 C 144.992 1.61167 1.20944 0
M  V30 1468 O 144.048 1.55015 1.99315 0
M  V30 1469 C 145.361 2.84551 -0.972188 0
M  V30 1470 C 146.909 2.9825 -0.949536 0
M  V30 1471 C 147.384 4.28605 -1.61437 0
M  V30 1472 N 148.875 4.35399 -1.58057 0
M  V30 1473 C 149.61 5.34964 -2.064 0
M  V30 1474 N 149.106 6.40981 -2.62897 0
M  V30 1475 N 150.899 5.26419 -1.97078 0
M  V30 1476 H 143.05 1.40304 -1.59463 0
M  V30 1477 H 145.313 0.671794 -0.668878 0
M  V30 1478 H 145.019 2.87417 -2.02693 0
M  V30 1479 H 144.893 3.73807 -0.504771 0
M  V30 1480 H 147.28 2.94941 0.0967067 0
M  V30 1481 H 147.361 2.10364 -1.45536 0
M  V30 1482 H 147.005 4.32672 -2.66002 0
M  V30 1483 H 146.935 5.15334 -1.08344 0
M  V30 1484 H 149.426 3.59397 -1.16801 0
M  V30 1485 H 149.739 7.13225 -2.97539 0
M  V30 1486 H 148.084 6.4169 -2.66943 0
M  V30 1487 H 151.275 4.42504 -1.52669 0
M  V30 1488 H 151.448 6.03861 -2.35066 0
M  V30 1489 N 144.854 0.36279 1.53368 0
M  V30 1490 C 146.101 -0.227776 2.01215 0
M  V30 1491 C 146.429 -1.49003 1.25014 0
M  V30 1492 O 145.684 -1.92876 0.331236 0
M  V30 1493 C 145.983 -0.568417 3.52851 0
M  V30 1494 C 145.649 0.59918 4.46901 0
M  V30 1495 C 144.311 0.919559 4.72332 0
M  V30 1496 C 146.663 1.38156 5.02556 0
M  V30 1497 C 143.991 2.02434 5.5067 0
M  V30 1498 C 146.343 2.47674 5.821 0
M  V30 1499 C 145.007 2.8025 6.05819 0
M  V30 1500 H 144.277 -0.083349 0.736297 0
M  V30 1501 H 146.924 0.494677 1.85001 0
M  V30 1502 H 145.229 -1.37185 3.66998 0
M  V30 1503 H 146.926 -1.03756 3.87344 0
M  V30 1504 H 143.516 0.339437 4.27254 0
M  V30 1505 H 147.7 1.14729 4.82857 0
M  V30 1506 H 142.956 2.28075 5.67267 0
M  V30 1507 H 147.13 3.08716 6.24234 0
M  V30 1508 H 144.757 3.65979 6.66306 0
M  V30 1509 N 146.332 -1.57332 0.0918853 0
M  V30 1510 C 147.557 -1.98995 -0.584442 0
M  V30 1511 C 147.982 -0.970528 -1.61128 0
M  V30 1512 O 147.34 0.0613904 -1.81196 0
M  V30 1513 C 147.388 -3.39636 -1.21161 0
M  V30 1514 O 146.492 -3.40447 -2.32744 0
M  V30 1515 H 145.833 -0.647165 -0.148572 0
M  V30 1516 H 148.363 -2.03873 0.172347 0
M  V30 1517 H 148.373 -3.7726 -1.55367 0
M  V30 1518 H 147.048 -4.13356 -0.459313 0
M  V30 1519 H 145.625 -3.14614 -2.0018 0
M  V30 1520 N 147.81 0.181792 -1.56548 0
M  V30 1521 C 149.058 0.89832 -1.81038 0
M  V30 1522 C 149.379 1.83232 -0.667164 0
M  V30 1523 O 148.649 1.93372 0.313673 0
M  V30 1524 H 147.229 0.33471 -0.667816 0
M  V30 1525 H 149.891 0.184116 -1.94028 0
M  V30 1526 H 148.987 1.4815 -2.74696 0
M  V30 1527 N 149.288 1.51039 0.449983 0
M  V30 1528 C 150.565 1.53612 1.21089 0
M  V30 1529 C 150.945 0.292997 2.09057 0
M  V30 1530 O 150.293 -0.72259 2.16774 0
M  V30 1531 C 150.503 2.84337 2.0237 0
M  V30 1532 C 151.851 3.35807 2.59843 0
M  V30 1533 O 152.875 2.85802 2.12593 0
M  V30 1534 O 151.734 4.23029 3.45989 0
M  V30 1535 H 148.828 0.617057 0.550608 0
M  V30 1536 H 151.374 1.63344 0.460082 0
M  V30 1537 H 150.146 3.66278 1.37681 0
M  V30 1538 H 149.769 2.77708 2.84542 0
M  V30 1539 N 150.766 -0.704594 1.40972 0
M  V30 1540 C 152.013 -1.46458 1.39844 0
M  V30 1541 C 152.341 -1.94499 0.00447594 0
M  V30 1542 O 151.596 -1.69275 -0.982057 0
M  V30 1543 C 151.895 -2.698 2.34399 0
M  V30 1544 C 151.561 -2.40464 3.81429 0
M  V30 1545 C 150.223 -2.32174 4.21484 0
M  V30 1546 C 152.575 -2.16086 4.74296 0
M  V30 1547 C 149.903 -1.97589 5.52427 0
M  V30 1548 C 152.255 -1.83011 6.05549 0
M  V30 1549 C 150.919 -1.7321 6.44635 0
M  V30 1550 H 150.189 -0.535927 0.511725 0
M  V30 1551 H 152.836 -0.806124 1.73706 0
M  V30 1552 H 151.141 -3.40536 1.93759 0
M  V30 1553 H 152.838 -3.27919 2.30804 0
M  V30 1554 H 149.428 -2.47808 3.49699 0
M  V30 1555 H 153.612 -2.2144 4.4416 0
M  V30 1556 H 148.868 -1.88547 5.81601 0
M  V30 1557 H 153.042 -1.63164 6.77016 0
M  V30 1558 H 150.669 -1.46179 7.46013 0
M  V30 1559 N 152.244 -1.26651 -0.937939 0
M  V30 1560 C 153.472 -1.15173 -1.7188 0
M  V30 1561 C 153.887 0.292668 -1.86518 0
M  V30 1562 O 153.244 1.20014 -1.37488 0
M  V30 1563 C 153.295 -1.81925 -3.12387 0
M  V30 1564 O 153.016 -3.2072 -2.98446 0
M  V30 1565 C 154.517 -1.76442 -4.06673 0
M  V30 1566 H 151.737 -0.400911 -0.538063 0
M  V30 1567 H 154.281 -1.67332 -1.1756 0
M  V30 1568 H 152.436 -1.33696 -3.63599 0
M  V30 1569 H 152.85 -3.53802 -3.872 0
M  V30 1570 H 154.324 -2.27781 -5.02812 0
M  V30 1571 H 154.801 -0.731608 -4.33064 0
M  V30 1572 H 155.407 -2.24238 -3.61382 0
M  V30 1573 N 153.722 1.14298 -1.08507 0
M  V30 1574 C 154.97 1.84993 -0.813763 0
M  V30 1575 C 155.291 1.83405 0.662393 0
M  V30 1576 O 154.561 1.28319 1.48024 0
M  V30 1577 H 153.141 0.684966 -0.298045 0
M  V30 1578 H 155.803 1.385 -1.37126 0
M  V30 1579 H 154.899 2.89788 -1.15884 0
M  V30 1580 N 155.201 0.870884 1.31352 0
M  V30 1581 C 156.448 0.482273 1.96673 0
M  V30 1582 C 156.776 -0.965638 1.68836 0
M  V30 1583 O 156.031 -1.69514 0.977937 0
M  V30 1584 C 156.33 0.687157 3.50732 0
M  V30 1585 C 155.996 2.108 3.9859 0
M  V30 1586 C 154.658 2.49656 4.1137 0
M  V30 1587 C 157.01 3.03459 4.23748 0
M  V30 1588 C 154.338 3.80412 4.46659 0
M  V30 1589 C 156.69 4.3373 4.60501 0
M  V30 1590 C 155.354 4.725 4.71487 0
M  V30 1591 H 154.624 0.176476 0.719679 0
M  V30 1592 H 157.271 1.10405 1.56471 0
M  V30 1593 H 155.576 -0.0177476 3.91796 0
M  V30 1594 H 157.273 0.366284 3.99324 0
M  V30 1595 H 153.863 1.79633 3.8914 0
M  V30 1596 H 158.047 2.74665 4.13368 0
M  V30 1597 H 153.303 4.1021 4.53362 0
M  V30 1598 H 157.477 5.05578 4.78919 0
M  V30 1599 H 155.104 5.73859 4.98588 0
M  V30 1600 N 156.679 -1.44442 0.630414 0
M  V30 1601 C 157.956 -1.9549 0.0655657 0
M  V30 1602 C 158.336 -1.5724 -1.40851 0
M  V30 1603 O 157.684 -0.846116 -2.12257 0
M  V30 1604 C 157.894 -3.47812 0.287691 0
M  V30 1605 C 159.242 -4.24216 0.180513 0
M  V30 1606 O 160.266 -3.55526 0.219019 0
M  V30 1607 O 159.125 -5.46434 0.0848493 0
M  V30 1608 H 156.219 -0.826688 -0.0227177 0
M  V30 1609 H 158.765 -1.54496 0.702068 0
M  V30 1610 H 157.537 -3.687 1.31056 0
M  V30 1611 H 157.16 -3.95751 -0.382984 0
M  V30 1612 N 158.157 -0.370918 -1.53173 0
M  V30 1613 C 159.104 0.473035 -2.259 0
M  V30 1614 C 160.074 1.07311 -1.26781 0
M  V30 1615 O 161.259 1.1046 -1.55574 0
M  V30 1616 C 158.399 1.60405 -3.05556 0
M  V30 1617 C 157.512 1.02863 -4.19575 0
M  V30 1618 C 156.647 2.12918 -4.86661 0
M  V30 1619 C 155.686 1.52869 -5.92704 0
M  V30 1620 N 154.823 2.56779 -6.53459 0
M  V30 1621 H 159.663 -0.153649 -2.97604 0
M  V30 1622 H 157.2 -0.0875946 -1.46839 0
M  V30 1623 H 159.158 2.27034 -3.50016 0
M  V30 1624 H 157.788 2.20131 -2.36097 0
M  V30 1625 H 156.84 0.252465 -3.79561 0
M  V30 1626 H 158.152 0.549642 -4.95762 0
M  V30 1627 H 157.306 2.87356 -5.34333 0
M  V30 1628 H 156.045 2.6417 -4.09958 0
M  V30 1629 H 155.05 0.769479 -5.44389 0
M  V30 1630 H 156.275 1.02435 -6.7133 0
M  V30 1631 H 154.221 3.07235 -5.79606 0
M  V30 1632 H 154.138 2.13583 -7.25202 0
M  V30 1633 H 155.406 3.30903 -7.05779 0
M  V30 1634 N 159.635 1.57281 -0.100228 0
M  V30 1635 C 160.86 1.99302 0.573881 0
M  V30 1636 C 161.285 0.979059 1.60611 0
M  V30 1637 O 160.643 -0.0517803 1.81226 0
M  V30 1638 C 160.691 3.40274 1.19358 0
M  V30 1639 O 159.795 3.41676 2.30935 0
M  V30 1640 H 159.136 0.647944 0.145138 0
M  V30 1641 H 161.666 2.03779 -0.183156 0
M  V30 1642 H 161.676 3.78078 1.53365 0
M  V30 1643 H 160.351 4.13594 0.437385 0
M  V30 1644 H 158.928 3.15672 1.98509 0
M  V30 1645 N 161.113 -0.173488 1.56642 0
M  V30 1646 C 162.359 -0.887108 1.83035 0
M  V30 1647 C 162.714 -1.79965 0.680461 0
M  V30 1648 O 162.007 -1.88854 -0.323225 0
M  V30 1649 C 162.201 -1.72069 3.13252 0
M  V30 1650 C 162.03 -0.89035 4.40798 0
M  V30 1651 C 160.8 -0.566282 5.02117 0
M  V30 1652 C 162.998 -0.232921 5.13772 0
M  V30 1653 N 160.98 0.280427 6.13259 0
M  V30 1654 C 162.351 0.475046 6.18177 0
M  V30 1655 C 164.406 -0.150863 4.97671 0
M  V30 1656 C 163.109 1.25729 7.08227 0
M  V30 1657 C 165.135 0.618039 5.88162 0
M  V30 1658 C 164.497 1.31438 6.92029 0
M  V30 1659 H 160.596 -0.303303 0.720785 0
M  V30 1660 H 163.18 -0.154244 1.94088 0
M  V30 1661 H 161.351 -2.42499 3.03395 0
M  V30 1662 H 163.083 -2.37545 3.2765 0
M  V30 1663 H 159.838 -0.895852 4.6505 0
M  V30 1664 H 160.262 0.694027 6.73433 0
M  V30 1665 H 164.904 -0.674868 4.17379 0
M  V30 1666 H 162.622 1.79265 7.87966 0
M  V30 1667 H 166.208 0.683173 5.77775 0
M  V30 1668 H 165.088 1.89981 7.6084 0
M  V30 1669 N 162.591 -1.51276 -0.441967 0
M  V30 1670 C 163.816 -1.67799 -1.21895 0
M  V30 1671 C 164.241 -0.372864 -1.84367 0
M  V30 1672 O 163.599 0.666501 -1.68604 0
M  V30 1673 C 163.647 -2.79199 -2.28211 0
M  V30 1674 O 162.751 -2.42479 -3.33583 0
M  V30 1675 H 162.092 -0.559649 -0.357336 0
M  V30 1676 H 164.622 -1.97815 -0.522522 0
M  V30 1677 H 164.632 -3.03146 -2.73069 0
M  V30 1678 H 163.307 -3.73906 -1.82118 0
M  V30 1679 H 161.884 -2.29087 -2.94234 0
M  V30 1680 N 164.069 0.697108 -1.41344 0
M  V30 1681 C 165.315 1.4593 -1.40827 0
M  V30 1682 C 165.648 1.94193 -0.0167098 0
M  V30 1683 O 164.923 1.69425 0.955263 0
M  V30 1684 C 165.206 2.67229 -2.41373 0
M  V30 1685 C 165.059 2.24741 -3.8963 0
M  V30 1686 C 166.378 3.69423 -2.39196 0
M  V30 1687 H 163.497 0.529303 -0.512842 0
M  V30 1688 H 166.139 0.794112 -1.72609 0
M  V30 1689 H 164.289 3.23982 -2.14401 0
M  V30 1690 H 165.961 1.73327 -4.27499 0
M  V30 1691 H 164.204 1.56542 -4.0457 0
M  V30 1692 H 164.875 3.1177 -4.55525 0
M  V30 1693 H 167.351 3.2234 -2.63128 0
M  V30 1694 H 166.227 4.51907 -3.11563 0
M  V30 1695 H 166.488 4.19012 -1.41001 0
M  V30 1696 N 165.547 1.27147 0.931209 0
M  V30 1697 C 166.775 1.16082 1.71267 0
M  V30 1698 C 167.19 -0.282772 1.8667 0
M  V30 1699 O 166.547 -1.19283 1.38122 0
M  V30 1700 C 166.598 1.8358 3.11417 0
M  V30 1701 O 166.319 3.22299 2.96741 0
M  V30 1702 C 167.82 1.78597 4.05732 0
M  V30 1703 H 165.04 0.403758 0.535929 0
M  V30 1704 H 167.584 1.67953 1.16671 0
M  V30 1705 H 165.739 1.35623 3.62885 0
M  V30 1706 H 166.153 3.55851 3.85319 0
M  V30 1707 H 167.627 2.30444 5.01597 0
M  V30 1708 H 168.104 0.754564 4.3267 0
M  V30 1709 H 168.71 2.26152 3.60188 0
M  V30 1710 N 167.025 -1.13721 1.09112 0
M  V30 1711 C 167.935 -2.22638 0.73957 0
M  V30 1712 C 168.951 -1.72091 -0.257068 0
M  V30 1713 O 170.127 -2.01155 -0.0992154 0
M  V30 1714 C 167.192 -3.46322 0.16191 0
M  V30 1715 C 166.253 -4.11775 1.21408 0
M  V30 1716 C 165.486 -5.29555 0.663891 0
M  V30 1717 O 165.709 -5.68077 -0.514274 0
M  V30 1718 O 164.643 -5.84973 1.41738 0
M  V30 1719 H 168.469 -2.55074 1.64836 0
M  V30 1720 H 166.054 -1.21791 0.865289 0
M  V30 1721 H 167.936 -4.21107 -0.157073 0
M  V30 1722 H 166.611 -3.15593 -0.719932 0
M  V30 1723 H 165.518 -3.3883 1.58571 0
M  V30 1724 H 166.851 -4.46627 2.06845 0
M  V30 1725 N 168.503 -0.877838 -1.30888 0
M  V30 1726 C 169.435 -0.296607 -2.27273 0
M  V30 1727 C 170.448 0.544799 -1.53414 0
M  V30 1728 O 171.637 0.365511 -1.74718 0
M  V30 1729 C 168.737 0.597481 -3.33592 0
M  V30 1730 C 167.91 -0.213251 -4.3688 0
M  V30 1731 C 166.969 0.610208 -5.2265 0
M  V30 1732 O 165.995 0.035441 -5.69189 0
M  V30 1733 N 167.197 1.92071 -5.47804 0
M  V30 1734 H 169.962 -1.12492 -2.77787 0
M  V30 1735 H 167.523 -0.740105 -1.43993 0
M  V30 1736 H 169.515 1.15425 -3.87891 0
M  V30 1737 H 168.085 1.32647 -2.83061 0
M  V30 1738 H 167.305 -0.951466 -3.82545 0
M  V30 1739 H 168.593 -0.769262 -5.02951 0
M  V30 1740 H 167.991 2.4107 -5.11763 0
M  V30 1741 H 166.548 2.42508 -6.05007 0
M  V30 1742 N 169.982 1.44106 -0.638065 0
M  V30 1743 C 171.212 2.06037 -0.152394 0
M  V30 1744 C 171.62 1.47808 1.18108 0
M  V30 1745 O 170.963 0.598092 1.73691 0
M  V30 1746 C 171.025 3.59488 0.0293714 0
M  V30 1747 C 170.689 4.4022 -1.22702 0
M  V30 1748 C 171.686 4.73256 -2.15232 0
M  V30 1749 C 169.371 4.8048 -1.46437 0
M  V30 1750 C 171.365 5.45444 -3.29802 0
M  V30 1751 C 169.052 5.52417 -2.61303 0
M  V30 1752 C 170.05 5.84819 -3.52811 0
M  V30 1753 O 169.738 6.55289 -4.65673 0
M  V30 1754 H 169.47 0.671233 -0.0801401 0
M  V30 1755 H 172.024 1.85851 -0.874563 0
M  V30 1756 H 170.254 3.78191 0.806758 0
M  V30 1757 H 171.943 4.03164 0.470475 0
M  V30 1758 H 172.709 4.42684 -1.98131 0
M  V30 1759 H 168.588 4.54676 -0.760977 0
M  V30 1760 H 172.132 5.70653 -4.01249 0
M  V30 1761 H 168.029 5.82404 -2.78344 0
M  V30 1762 H 168.797 6.73762 -4.64744 0
M  V30 1763 N 171.46 0.379036 1.52974 0
M  V30 1764 C 172.39 -0.452706 2.29069 0
M  V30 1765 C 173.371 -1.07237 1.32039 0
M  V30 1766 O 174.556 -1.08708 1.60923 0
M  V30 1767 C 171.686 -1.5856 3.08992 0
M  V30 1768 C 170.64 -1.0925 4.13822 0
M  V30 1769 C 169.966 -2.31668 4.81907 0
M  V30 1770 C 171.266 -0.167702 5.22031 0
M  V30 1771 H 172.96 0.182181 2.98845 0
M  V30 1772 H 170.506 0.0890592 1.43724 0
M  V30 1773 H 172.459 -2.1742 3.6098 0
M  V30 1774 H 171.183 -2.24792 2.36931 0
M  V30 1775 H 169.842 -0.526494 3.628 0
M  V30 1776 H 169.49 -2.96386 4.06404 0
M  V30 1777 H 169.19 -1.9934 5.52754 0
M  V30 1778 H 170.714 -2.91189 5.36695 0
M  V30 1779 H 172.128 -0.664186 5.6944 0
M  V30 1780 H 170.525 0.0653265 6.00064 0
M  V30 1781 H 171.595 0.786347 4.78482 0
M  V30 1782 N 172.938 -1.57226 0.108567 0
M  V30 1783 C 174.187 -1.94008 -0.551703 0
M  V30 1784 C 174.5 -0.993442 -1.68494 0
M  V30 1785 O 175.706 -1.25551 -2.40726 0
M  V30 1786 C 174.162 -3.44763 -1.03279 0
M  V30 1787 C 173.77 -4.47943 0.0714193 0
M  V30 1788 C 175.514 -3.90483 -1.66503 0
M  V30 1789 C 173.421 -5.89865 -0.425779 0
M  V30 1790 H 172.351 -0.724206 -0.209863 0
M  V30 1791 H 175.002 -1.82547 0.186741 0
M  V30 1792 H 173.384 -3.51422 -1.82533 0
M  V30 1793 H 174.558 -4.52942 0.847365 0
M  V30 1794 H 172.873 -4.11913 0.609669 0
M  V30 1795 H 175.47 -4.93925 -2.04798 0
M  V30 1796 H 175.813 -3.29877 -2.53942 0
M  V30 1797 H 176.346 -3.86581 -0.938074 0
M  V30 1798 H 173.085 -6.54202 0.412316 0
M  V30 1799 H 172.605 -5.88309 -1.16843 0
M  V30 1800 H 174.284 -6.40844 -0.890397 0
M  V30 1801 N 174.416 0.165178 -1.56732 0
M  V30 1802 C 175.827 0.727046 -1.71962 0
M  V30 1803 C 176.178 1.82508 -0.720078 0
M  V30 1804 O 175.303 2.16082 0.117242 0
M  V30 1805 C 175.898 1.32559 -3.11791 0
M  V30 1806 C 174.457 1.83422 -3.28684 0
M  V30 1807 C 173.604 0.715567 -2.67908 0
M  V30 1808 H 176.555 -0.0602896 -1.58585 0
M  V30 1809 H 176.576 2.19533 -3.10782 0
M  V30 1810 H 176.088 0.526195 -3.84516 0
M  V30 1811 H 174.189 2.65986 -2.60926 0
M  V30 1812 H 174.302 1.97543 -4.36478 0
M  V30 1813 H 172.666 1.13758 -2.27884 0
M  V30 1814 H 173.449 -0.0720836 -3.43224 0
M  V30 1815 N 175.894 1.51508 0.433938 0
M  V30 1816 C 177.122 1.68157 1.20543 0
M  V30 1817 C 177.537 0.380362 1.84929 0
M  V30 1818 O 176.894 -0.641446 1.70856 0
M  V30 1819 C 176.945 2.79965 2.28696 0
M  V30 1820 O 176.666 4.05045 1.66943 0
M  V30 1821 C 178.167 3.07912 3.18912 0
M  V30 1822 H 175.387 0.56421 0.363191 0
M  V30 1823 H 177.931 1.97941 0.513754 0
M  V30 1824 H 176.086 2.5277 2.93574 0
M  V30 1825 H 176.5 4.67165 2.38448 0
M  V30 1826 H 177.974 3.89719 3.90926 0
M  V30 1827 H 178.451 2.20456 3.79863 0
M  V30 1828 H 179.057 3.36779 2.59731 0
M  V30 1829 N 177.372 -0.689602 1.41712 0
M  V30 1830 C 178.282 -1.83314 1.46401 0
M  V30 1831 C 179.298 -1.7036 0.35405 0
M  V30 1832 O 180.474 -1.92171 0.602692 0
M  V30 1833 C 177.539 -3.19344 1.34982 0
M  V30 1834 C 176.6 -3.44363 2.56344 0
M  V30 1835 C 175.833 -4.73904 2.45461 0
M  V30 1836 O 176.056 -5.508 1.48241 0
M  V30 1837 O 174.99 -4.99839 3.35328 0
M  V30 1838 H 178.816 -1.82314 2.42889 0
M  V30 1839 H 176.401 -0.843438 1.23315 0
M  V30 1840 H 178.283 -4.00547 1.3092 0
M  V30 1841 H 176.958 -3.21014 0.41612 0
M  V30 1842 H 175.865 -2.63067 2.65982 0
M  V30 1843 H 177.198 -3.47512 3.48563 0
M  V30 1844 N 178.85 -1.27639 -0.924453 0
M  V30 1845 C 179.797 -1.10644 -2.0255 0
M  V30 1846 C 180.767 -0.00658438 -1.66099 0
M  V30 1847 O 181.952 -0.16952 -1.90045 0
M  V30 1848 C 179.092 -0.76309 -3.36557 0
M  V30 1849 C 178.205 -1.94091 -3.85944 0
M  V30 1850 C 177.34 -1.53914 -5.08413 0
M  V30 1851 C 176.379 -2.68425 -5.50104 0
M  V30 1852 N 175.516 -2.28815 -6.63768 0
M  V30 1853 H 180.356 -2.04858 -2.16419 0
M  V30 1854 H 177.893 -1.01974 -1.06017 0
M  V30 1855 H 179.851 -0.544822 -4.13627 0
M  V30 1856 H 178.481 0.142102 -3.22487 0
M  V30 1857 H 177.533 -2.27162 -3.05125 0
M  V30 1858 H 178.845 -2.7998 -4.12811 0
M  V30 1859 H 177.999 -1.28231 -5.92994 0
M  V30 1860 H 176.738 -0.651391 -4.8333 0
M  V30 1861 H 175.743 -2.94819 -4.64071 0
M  V30 1862 H 176.968 -3.57826 -5.7718 0
M  V30 1863 H 174.914 -1.42495 -6.40337 0
M  V30 1864 H 174.831 -3.08242 -6.90306 0
M  V30 1865 H 176.099 -2.06387 -7.51681 0
M  V30 1866 N 180.328 1.1314 -1.09713 0
M  V30 1867 C 181.605 1.80762 -0.747302 0
M  V30 1868 C 181.985 1.96663 0.767265 0
M  V30 1869 O 181.333 1.53706 1.69076 0
M  V30 1870 C 181.543 3.15606 -1.48975 0
M  V30 1871 C 182.891 3.90914 -1.65746 0
M  V30 1872 O 183.915 3.25239 -1.45251 0
M  V30 1873 O 182.774 5.08718 -1.9967 0
M  V30 1874 H 179.868 0.782103 -0.268782 0
M  V30 1875 H 182.414 1.20041 -1.19951 0
M  V30 1876 H 181.186 2.99278 -2.52088 0
M  V30 1877 H 180.809 3.84029 -1.02991 0
M  V30 1878 N 181.806 0.884767 1.30421 0
M  V30 1879 C 182.738 0.308655 2.27112 0
M  V30 1880 C 183.751 -0.536655 1.53701 0
M  V30 1881 O 184.94 -0.35624 1.74909 0
M  V30 1882 C 182.04 -0.579782 3.33904 0
M  V30 1883 C 181.213 0.236417 4.36761 0
M  V30 1884 C 180.272 -0.582482 5.22966 0
M  V30 1885 O 179.298 -0.00525502 5.692 0
M  V30 1886 N 180.5 -1.89163 5.48815 0
M  V30 1887 H 183.265 1.13964 2.77186 0
M  V30 1888 H 180.826 0.747731 1.43599 0
M  V30 1889 H 182.818 -1.13366 3.88497 0
M  V30 1890 H 181.388 -1.31144 2.83761 0
M  V30 1891 H 180.608 0.97174 3.82035 0
M  V30 1892 H 181.896 0.795924 5.02536 0
M  V30 1893 H 181.294 -2.38352 5.13035 0
M  V30 1894 H 179.851 -2.39296 6.06284 0
M  V30 1895 N 183.284 -1.43765 0.645699 0
M  V30 1896 C 184.695 -1.85193 0.236719 0
M  V30 1897 C 185.046 -1.54045 -1.21509 0
M  V30 1898 O 184.171 -0.985694 -1.92647 0
M  V30 1899 C 184.766 -3.36151 0.422845 0
M  V30 1900 C 183.325 -3.76338 0.0682492 0
M  V30 1901 C 182.472 -2.67538 0.729306 0
M  V30 1902 H 185.423 -1.34025 0.849883 0
M  V30 1903 H 185.444 -3.79032 -0.333904 0
M  V30 1904 H 184.956 -3.5879 1.47958 0
M  V30 1905 H 183.057 -3.59312 -0.986179 0
M  V30 1906 H 183.17 -4.76603 0.488469 0
M  V30 1907 H 181.534 -2.54176 0.163235 0
M  V30 1908 H 182.317 -2.93006 1.78892 0
M  V30 1909 N 184.763 -0.387143 -1.52771 0
M  V30 1910 C 185.711 0.463953 -2.27926 0
M  V30 1911 C 186.705 1.06493 -1.31741 0
M  V30 1912 O 187.911 1.00565 -1.49287 0
M  V30 1913 H 184.286 0.16837 -0.732909 0
M  V30 1914 H 186.257 -0.19141 -2.97785 0
M  V30 1915 C 185.006 1.5803 -3.09713 0
M  V30 1916 H 184.329 1.12718 -3.83581 0
M  V30 1917 H 185.769 2.15008 -3.65442 0
M  V30 1918 C 184.228 2.53509 -2.2189 0
M  V30 1919 O 184.758 3.56863 -1.84422 0
M  V30 1920 N 182.964 2.23199 -1.86093 0
M  V30 1921 H 182.511 1.39185 -2.16761 0
M  V30 1922 H 182.469 2.87333 -1.27621 0
M  V30 1923 N 186.241 1.57166 -0.116904 0
M  V30 1924 C 187.469 1.99473 0.549383 0
M  V30 1925 C 187.884 0.996541 1.60357 0
M  V30 1926 O 187.241 -0.0108731 1.82497 0
M  V30 1927 C 187.292 3.41788 1.17741 0
M  V30 1928 O 187.013 4.37788 0.165362 0
M  V30 1929 C 188.514 3.99216 1.92722 0
M  V30 1930 H 185.734 0.655009 0.145616 0
M  V30 1931 H 188.278 2.03494 -0.202625 0
M  V30 1932 H 186.433 3.38713 1.88021 0
M  V30 1933 H 186.847 5.20806 0.621403 0
M  V30 1934 H 188.321 5.00882 2.31995 0
M  V30 1935 H 188.798 3.3824 2.80161 0
M  V30 1936 H 189.404 4.0583 1.27209 0
M  V30 1937 N 187.719 -0.156864 1.56817 0
M  V30 1938 C 188.944 -0.890331 1.87318 0
M  V30 1939 C 189.369 -1.74394 0.704855 0
M  V30 1940 O 188.727 -1.77972 -0.345786 0
M  V30 1941 C 188.775 -1.73102 3.16336 0
M  V30 1942 O 187.879 -2.83422 2.99576 0
M  V30 1943 H 187.22 -0.24857 0.615718 0
M  V30 1944 H 189.75 -0.150649 2.04045 0
M  V30 1945 H 189.76 -2.12803 3.48107 0
M  V30 1946 H 188.435 -1.10412 4.00976 0
M  V30 1947 H 187.012 -2.47199 2.7919 0
M  V30 1948 N 189.197 -1.51736 -0.425897 0
M  V30 1949 C 190.13 -1.68574 -1.53812 0
M  V30 1950 C 191.108 -0.53328 -1.53606 0
M  V30 1951 O 192.292 -0.758555 -1.72564 0
M  V30 1952 C 189.419 -1.70977 -2.92377 0
M  V30 1953 C 188.465 -2.92324 -3.10563 0
M  V30 1954 S 189.298 -4.52952 -2.85648 0
M  V30 1955 C 190.454 -4.58117 -4.26474 0
M  V30 1956 H 190.687 -2.62647 -1.39298 0
M  V30 1957 H 188.22 -1.41564 -0.616361 0
M  V30 1958 H 190.178 -1.73047 -3.72243 0
M  V30 1959 H 188.839 -0.78061 -3.04245 0
M  V30 1960 H 188.032 -2.90439 -4.11899 0
M  V30 1961 H 187.634 -2.88055 -2.38538 0
M  V30 1962 H 189.926 -4.34462 -5.19855 0
M  V30 1963 H 190.869 -5.59983 -4.33388 0
M  V30 1964 H 191.277 -3.8732 -4.10662 0
M  V30 1965 N 190.675 0.682077 -1.42076 0
M  V30 1966 C 191.9 1.47558 -1.45744 0
M  V30 1967 C 192.325 1.87977 -0.0680981 0
M  V30 1968 O 191.683 1.55522 0.9318 0
M  V30 1969 C 191.731 2.70575 -2.38373 0
M  V30 1970 O 190.835 3.68573 -1.85007 0
M  V30 1971 H 190.176 0.443585 -0.494093 0
M  V30 1972 H 192.706 0.837238 -1.86686 0
M  V30 1973 H 192.716 3.18729 -2.54707 0
M  V30 1974 H 191.391 2.40495 -3.39315 0
M  V30 1975 H 189.968 3.2757 -1.78192 0
M  V30 1976 N 192.153 1.28127 0.917671 0
M  V30 1977 C 193.569 1.05749 1.19538 0
M  V30 1978 C 193.769 -0.202633 2.00479 0
M  V30 1979 O 192.825 -0.905382 2.3571 0
M  V30 1980 C 194.138 2.30273 1.93378 0
M  V30 1981 C 195.686 2.35412 2.06277 0
M  V30 1982 C 196.161 3.59692 2.83524 0
M  V30 1983 N 197.652 3.60309 2.91087 0
M  V30 1984 C 198.387 4.53147 3.51348 0
M  V30 1985 N 197.883 5.563 4.12919 0
M  V30 1986 N 199.676 4.40751 3.48849 0
M  V30 1987 H 191.827 2.09024 0.377184 0
M  V30 1988 H 194.09 0.919798 0.22951 0
M  V30 1989 H 193.796 3.22055 1.41328 0
M  V30 1990 H 193.67 2.36378 2.93947 0
M  V30 1991 H 196.057 1.4413 2.57508 0
M  V30 1992 H 196.138 2.33304 1.04895 0
M  V30 1993 H 195.782 4.51316 2.32973 0
M  V30 1994 H 195.712 3.59054 3.85211 0
M  V30 1995 H 198.203 2.85714 2.47338 0
M  V30 1996 H 198.516 6.2329 4.56869 0
M  V30 1997 H 196.861 5.60131 4.11435 0
M  V30 1998 H 200.052 3.59367 2.99955 0
M  V30 1999 H 200.225 5.13291 3.9552 0
M  V30 2000 N 193.631 -1.12557 1.10312 0
M  V30 2001 C 194.861 -1.87592 0.865617 0
M  V30 2002 C 195.269 -1.79851 -0.587389 0
M  V30 2003 O 194.612 -1.16949 -1.41664 0
M  V30 2004 C 194.674 -3.37665 1.23381 0
M  V30 2005 C 194.338 -3.69181 2.69359 0
M  V30 2006 C 195.335 -3.67652 3.67597 0
M  V30 2007 C 193.02 -3.98555 3.05711 0
M  V30 2008 C 195.014 -3.95053 5.00212 0
M  V30 2009 C 192.701 -4.25616 4.38514 0
M  V30 2010 C 193.699 -4.23851 5.35574 0
M  V30 2011 O 193.387 -4.50242 6.65986 0
M  V30 2012 H 193.119 -0.600442 0.310557 0
M  V30 2013 H 195.673 -1.4335 1.47105 0
M  V30 2014 H 193.903 -3.82454 0.571467 0
M  V30 2015 H 195.592 -3.94041 0.973994 0
M  V30 2016 H 196.358 -3.45024 3.40857 0
M  V30 2017 H 192.237 -3.99071 2.30789 0
M  V30 2018 H 195.781 -3.93591 5.75962 0
M  V30 2019 H 191.678 -4.47718 4.64994 0
M  V30 2020 H 192.446 -4.67867 6.71597 0
M  V30 2021 N 195.109 -0.891671 -1.2995 0
M  V30 2022 C 196.386 -0.433307 -1.9074 0
M  V30 2023 C 196.766 1.08646 -1.80995 0
M  V30 2024 O 196.114 1.92476 -1.23147 0
M  V30 2025 C 196.324 -0.938895 -3.36134 0
M  V30 2026 C 197.672 -0.977829 -4.13187 0
M  V30 2027 O 198.696 -0.886015 -3.45005 0
M  V30 2028 O 197.555 -1.11453 -5.35015 0
M  V30 2029 H 194.649 -0.133699 -0.816121 0
M  V30 2030 H 197.195 -0.981011 -1.38471 0
M  V30 2031 H 195.967 -1.98281 -3.37343 0
M  V30 2032 H 195.59 -0.37074 -3.95868 0
M  V30 2033 N 196.587 1.43421 -0.653314 0
M  V30 2034 C 197.55 2.29182 0.0287951 0
M  V30 2035 C 198.55 1.42213 0.750465 0
M  V30 2036 O 199.74 1.63843 0.591701 0
M  V30 2037 C 196.872 3.24278 1.05151 0
M  V30 2038 H 198.065 2.90985 -0.725786 0
M  V30 2039 H 195.618 1.50702 -0.414545 0
M  V30 2040 H 196.353 2.6737 1.83532 0
M  V30 2041 H 196.138 3.88396 0.537687 0
M  V30 2042 H 197.628 3.88647 1.52786 0
M  V30 2043 N 198.065 0.39524 1.52563 0
M  V30 2044 C 199.013 -0.451859 2.28169 0
M  V30 2045 C 200.007 -1.05792 1.32304 0
M  V30 2046 O 201.213 -0.997718 1.49818 0
M  V30 2047 H 197.588 -0.164481 0.733792 0
M  V30 2048 H 199.559 0.207199 2.9768 0
M  V30 2049 C 198.308 -1.56385 3.10546 0
M  V30 2050 H 197.631 -1.10682 3.84174 0
M  V30 2051 H 199.071 -2.13067 3.66577 0
M  V30 2052 C 197.53 -2.52328 2.23231 0
M  V30 2053 O 198.06 -3.5588 1.86312 0
M  V30 2054 N 196.266 -2.22209 1.87274 0
M  V30 2055 H 195.813 -1.38033 2.17496 0
M  V30 2056 H 195.771 -2.86652 1.29143 0
M  V30 2057 N 199.544 -1.57102 0.125237 0
M  V30 2058 C 200.491 -2.15641 -0.822655 0
M  V30 2059 C 201.461 -1.08313 -1.25927 0
M  V30 2060 O 202.646 -1.36251 -1.33567 0
M  V30 2061 C 199.786 -2.76504 -2.06494 0
M  V30 2062 C 198.899 -3.98158 -1.67612 0
M  V30 2063 C 198.034 -4.47088 -2.86854 0
M  V30 2064 C 197.073 -5.6126 -2.44242 0
M  V30 2065 N 196.21 -6.04905 -3.56419 0
M  V30 2066 H 201.05 -2.96313 -0.316625 0
M  V30 2067 H 198.587 -1.46388 -0.144588 0
M  V30 2068 H 200.545 -3.09925 -2.79289 0
M  V30 2069 H 199.175 -1.98512 -2.54545 0
M  V30 2070 H 198.227 -3.70858 -0.846661 0
M  V30 2071 H 199.539 -4.80934 -1.32301 0
M  V30 2072 H 198.693 -4.82451 -3.67867 0
M  V30 2073 H 197.432 -3.63275 -3.25396 0
M  V30 2074 H 196.437 -5.25495 -1.61663 0
M  V30 2075 H 197.662 -6.46843 -2.0681 0
M  V30 2076 H 195.608 -5.24032 -3.94623 0
M  V30 2077 H 195.525 -6.82552 -3.25051 0
M  V30 2078 H 196.793 -6.44907 -4.37853 0
M  V30 2079 N 201.022 0.148545 -1.56898 0
M  V30 2080 C 202.433 0.708766 -1.72723 0
M  V30 2081 C 202.784 1.81734 -0.739395 0
M  V30 2082 O 201.909 2.16194 0.0943169 0
M  V30 2083 C 202.504 1.29245 -3.13179 0
M  V30 2084 C 201.063 1.79925 -3.30611 0
M  V30 2085 C 200.21 0.687111 -2.68652 0
M  V30 2086 H 203.161 -0.0771063 -1.58513 0
M  V30 2087 H 203.182 2.16224 -3.13093 0
M  V30 2088 H 202.694 0.485382 -3.85053 0
M  V30 2089 H 200.795 2.63203 -2.63732 0
M  V30 2090 H 200.908 1.92903 -4.38549 0
M  V30 2091 H 199.272 1.11335 -2.29078 0
M  V30 2092 H 200.055 -0.108483 -3.43129 0
M  V30 2093 N 202.5 1.5196 0.417844 0
M  V30 2094 C 203.463 1.74065 1.49111 0
M  V30 2095 C 204.463 0.610537 1.48758 0
M  V30 2096 O 205.653 0.87832 1.50437 0
M  V30 2097 C 202.785 1.81502 2.88565 0
M  V30 2098 H 203.978 2.69869 1.30807 0
M  V30 2099 H 201.531 1.42244 0.647785 0
M  V30 2100 H 202.266 0.875813 3.1225 0
M  V30 2101 H 202.051 2.63651 2.90225 0
M  V30 2102 H 203.541 2.00376 3.66387 0
M  V30 2103 N 203.978 -0.674533 1.42435 0
M  V30 2104 C 205.206 -1.46283 1.46317 0
M  V30 2105 C 205.621 -1.88653 0.0745836 0
M  V30 2106 O 204.978 -1.58151 -0.91074 0
M  V30 2107 C 205.029 -2.71178 2.3905 0
M  V30 2108 O 204.75 -2.30586 3.72507 0
M  V30 2109 C 206.251 -3.64738 2.51955 0
M  V30 2110 H 203.471 -0.450104 0.497642 0
M  V30 2111 H 206.015 -0.828792 1.86953 0
M  V30 2112 H 204.17 -3.3077 2.01667 0
M  V30 2113 H 204.584 -3.11241 4.22172 0
M  V30 2114 H 206.058 -4.49096 3.20962 0
M  V30 2115 H 206.535 -4.10656 1.55752 0
M  V30 2116 H 207.141 -3.11038 2.90061 0
M  V30 2117 N 205.456 -1.28612 -0.910864 0
M  V30 2118 C 206.686 -1.1862 -1.69153 0
M  V30 2119 C 207.094 0.257324 -1.87442 0
M  V30 2120 O 206.437 1.18543 -1.40332 0
M  V30 2121 C 206.499 -1.81606 -3.10257 0
M  V30 2122 C 206.163 -3.30864 -3.15243 0
M  V30 2123 C 207.16 -4.27256 -2.96223 0
M  V30 2124 C 204.845 -3.71871 -3.37664 0
M  V30 2125 C 206.839 -5.62631 -2.99541 0
M  V30 2126 C 204.526 -5.07371 -3.40614 0
M  V30 2127 C 205.524 -6.02561 -3.21573 0
M  V30 2128 O 205.212 -7.35589 -3.2429 0
M  V30 2129 H 204.944 -0.412633 -0.535453 0
M  V30 2130 H 207.498 -1.70306 -1.14827 0
M  V30 2131 H 205.728 -1.24418 -3.66138 0
M  V30 2132 H 207.417 -1.66092 -3.70362 0
M  V30 2133 H 208.183 -3.9691 -2.78725 0
M  V30 2134 H 204.062 -2.98241 -3.5153 0
M  V30 2135 H 207.606 -6.36907 -2.84597 0
M  V30 2136 H 203.503 -5.37366 -3.57642 0
M  V30 2137 H 204.271 -7.44252 -3.40633 0
M  V30 2138 N 206.934 1.1197 -1.10907 0
M  V30 2139 C 207.897 2.16031 -0.765707 0
M  V30 2140 C 208.897 1.59393 0.212235 0
M  V30 2141 O 210.087 1.74196 -0.0115441 0
M  V30 2142 C 207.219 3.40632 -0.135053 0
M  V30 2143 H 208.412 2.47919 -1.68748 0
M  V30 2144 H 205.965 1.27061 -0.910226 0
M  V30 2145 H 206.7 3.14348 0.797218 0
M  V30 2146 H 206.485 3.8302 -0.838937 0
M  V30 2147 H 207.975 4.17505 0.0892469 0
M  V30 2148 N 208.412 0.89855 1.29475 0
M  V30 2149 C 209.823 0.572537 1.77705 0
M  V30 2150 C 210.174 -0.911778 1.73727 0
M  V30 2151 O 209.299 -1.71288 1.32247 0
M  V30 2152 C 209.894 1.03252 3.22683 0
M  V30 2153 C 208.453 0.757687 3.68695 0
M  V30 2154 C 207.6 1.20787 2.49612 0
M  V30 2155 H 210.551 1.08139 1.16153 0
M  V30 2156 H 210.572 0.367307 3.78723 0
M  V30 2157 H 210.084 2.11285 3.25546 0
M  V30 2158 H 208.185 -0.310079 3.71308 0
M  V30 2159 H 208.298 1.35476 4.59547 0
M  V30 2160 H 206.662 0.626888 2.46865 0
M  V30 2161 H 207.445 2.29622 2.55203 0
M  V30 2162 N 209.89 -1.43072 0.660911 0
M  V30 2163 C 210.8 -2.34585 -0.0264163 0
M  V30 2164 C 211.816 -1.54316 -0.803898 0
M  V30 2165 O 212.992 -1.86939 -0.749391 0
M  V30 2166 C 210.057 -3.32689 -0.975639 0
M  V30 2167 C 209.118 -4.2886 -0.194236 0
M  V30 2168 C 208.351 -5.22278 -1.09825 0
M  V30 2169 O 208.574 -5.20299 -2.33763 0
M  V30 2170 O 207.508 -5.99228 -0.566513 0
M  V30 2171 H 211.334 -2.94869 0.727034 0
M  V30 2172 H 208.919 -1.43342 0.42111 0
M  V30 2173 H 210.801 -3.92995 -1.52094 0
M  V30 2174 H 209.476 -2.74898 -1.70918 0
M  V30 2175 H 208.383 -3.72011 0.394835 0
M  V30 2176 H 209.716 -4.89655 0.499899 0
M  V30 2177 N 211.368 -0.403325 -1.52352 0
M  V30 2178 C 212.615 0.174347 -2.01748 0
M  V30 2179 C 212.943 1.45636 -1.2892 0
M  V30 2180 O 212.198 1.9193 -0.382258 0
M  V30 2181 C 212.497 0.474665 -3.54234 0
M  V30 2182 C 212.163 -0.717458 -4.45155 0
M  V30 2183 C 210.825 -1.04447 -4.69728 0
M  V30 2184 C 213.177 -1.51432 -4.98716 0
M  V30 2185 C 210.505 -2.16963 -5.45109 0
M  V30 2186 C 212.857 -2.6302 -5.75329 0
M  V30 2187 C 211.521 -2.96213 -5.98175 0
M  V30 2188 H 210.791 0.0637981 -0.738248 0
M  V30 2189 H 213.438 -0.543553 -1.83624 0
M  V30 2190 H 211.743 1.27406 -3.70506 0
M  V30 2191 H 213.44 0.934496 -3.89959 0
M  V30 2192 H 210.03 -0.452596 -4.26204 0
M  V30 2193 H 214.214 -1.27491 -4.79645 0
M  V30 2194 H 209.47 -2.43034 -5.61021 0
M  V30 2195 H 213.644 -3.25158 -6.15829 0
M  V30 2196 H 211.271 -3.83516 -6.56368 0
M  V30 2197 N 212.846 1.57033 -0.133567 0
M  V30 2198 C 213.778 2.13176 0.841944 0
M  V30 2199 C 214.791 1.07794 1.22001 0
M  V30 2200 O 215.98 1.35117 1.16643 0
M  V30 2201 C 213.08 2.62847 2.13926 0
M  V30 2202 C 212.253 3.92486 1.93064 0
M  V30 2203 C 211.312 4.27605 3.0666 0
M  V30 2204 O 210.338 4.96168 2.78937 0
M  V30 2205 N 211.54 3.861 4.33483 0
M  V30 2206 H 214.305 2.97503 0.362192 0
M  V30 2207 H 211.866 1.61821 0.05042 0
M  V30 2208 H 213.858 2.83363 2.88942 0
M  V30 2209 H 212.428 1.83319 2.53205 0
M  V30 2210 H 211.648 3.80732 1.02159 0
M  V30 2211 H 212.936 4.77225 1.76447 0
M  V30 2212 H 212.334 3.30828 4.58878 0
M  V30 2213 H 210.891 4.11694 5.05323 0
M  V30 2214 N 214.325 -0.140222 1.56975 0
M  V30 2215 C 215.602 -0.880769 1.74648 0
M  V30 2216 C 215.982 -1.99036 0.703404 0
M  V30 2217 O 215.33 -2.26821 -0.27648 0
M  V30 2218 C 215.54 -1.417 3.18939 0
M  V30 2219 C 216.888 -1.87774 3.80823 0
M  V30 2220 O 217.912 -1.51427 3.2241 0
M  V30 2221 O 216.771 -2.54827 4.83452 0
M  V30 2222 H 213.865 -0.416713 0.714338 0
M  V30 2223 H 216.411 -0.125618 1.69234 0
M  V30 2224 H 215.183 -0.619902 3.86359 0
M  V30 2225 H 214.806 -2.23546 3.28805 0
M  V30 2226 N 215.803 -1.52179 -0.40978 0
M  V30 2227 C 217.214 -1.58377 -0.988615 0
M  V30 2228 C 217.565 -0.423879 -1.91566 0
M  V30 2229 O 216.69 0.455844 -2.11544 0
M  V30 2230 C 217.285 -2.87044 -1.79976 0
M  V30 2231 C 215.844 -2.95722 -2.32863 0
M  V30 2232 C 214.991 -2.53309 -1.12828 0
M  V30 2233 H 217.942 -1.57558 -0.190039 0
M  V30 2234 H 217.963 -2.7236 -2.65707 0
M  V30 2235 H 217.475 -3.71444 -1.12478 0
M  V30 2236 H 215.576 -2.15814 -3.03735 0
M  V30 2237 H 215.689 -3.99951 -2.63773 0
M  V30 2238 H 214.053 -2.07142 -1.48204 0
M  V30 2239 H 214.836 -3.40082 -0.46897 0
M  V30 2240 N 217.281 0.66697 -1.42791 0
M  V30 2241 C 218.506 1.46004 -1.47301 0
M  V30 2242 C 218.931 1.87894 -0.0880317 0
M  V30 2243 O 218.289 1.56502 0.915253 0
M  V30 2244 C 218.337 2.68031 -2.41229 0
M  V30 2245 O 217.441 3.6659 -1.88906 0
M  V30 2246 H 216.782 0.43832 -0.49877 0
M  V30 2247 H 219.312 0.817391 -1.87563 0
M  V30 2248 H 219.322 3.1601 -2.58073 0
M  V30 2249 H 217.997 2.36883 -3.41847 0
M  V30 2250 H 216.574 3.25661 -1.81656 0
M  V30 2251 N 218.759 1.29093 0.90403 0
M  V30 2252 C 219.706 1.13853 2.00764 0
M  V30 2253 C 220.676 0.0330084 1.66067 0
M  V30 2254 O 221.861 0.199733 1.89752 0
M  V30 2255 C 219.001 0.816537 3.35301 0
M  V30 2256 C 218.114 2.00206 3.82807 0
M  V30 2257 C 217.249 1.61983 5.059 0
M  V30 2258 C 216.288 2.77143 5.45764 0
M  V30 2259 N 215.425 2.39346 6.60044 0
M  V30 2260 H 220.265 2.08276 2.13132 0
M  V30 2261 H 217.802 1.03648 1.04381 0
M  V30 2262 H 219.76 0.610557 4.12708 0
M  V30 2263 H 218.39 -0.090779 3.22672 0
M  V30 2264 H 217.442 2.31988 3.01473 0
M  V30 2265 H 218.754 2.86512 4.08304 0
M  V30 2266 H 217.908 1.37649 5.90879 0
M  V30 2267 H 216.647 0.728202 4.82233 0
M  V30 2268 H 215.652 3.02165 4.59322 0
M  V30 2269 H 216.877 3.66964 5.71414 0
M  V30 2270 H 214.823 1.52665 6.37989 0
M  V30 2271 H 214.74 3.19185 6.85315 0
M  V30 2272 H 216.008 2.1832 7.48303 0
M  V30 2273 N 220.237 -1.11381 1.11499 0
M  V30 2274 C 221.467 -1.86663 0.885464 0
M  V30 2275 C 221.875 -1.80464 -0.568281 0
M  V30 2276 O 221.218 -1.18445 -1.40415 0
M  V30 2277 C 221.28 -3.36337 1.26956 0
M  V30 2278 C 220.944 -3.66304 2.73259 0
M  V30 2279 C 221.941 -3.63733 3.71476 0
M  V30 2280 C 219.626 -3.9529 3.09921 0
M  V30 2281 C 221.62 -3.89725 5.04374 0
M  V30 2282 C 219.307 -4.20941 4.43004 0
M  V30 2283 C 220.305 -4.18147 5.40039 0
M  V30 2284 O 219.993 -4.43153 6.70724 0
M  V30 2285 H 219.725 -0.597114 0.316908 0
M  V30 2286 H 222.279 -1.41782 1.48617 0
M  V30 2287 H 220.509 -3.81826 0.611999 0
M  V30 2288 H 222.198 -3.92986 1.01573 0
M  V30 2289 H 222.964 -3.41389 3.44498 0
M  V30 2290 H 218.843 -3.966 2.35009 0
M  V30 2291 H 222.387 -3.8746 5.80104 0
M  V30 2292 H 218.284 -4.42761 4.69716 0
M  V30 2293 H 219.052 -4.60717 6.76522 0
M  V30 2294 N 221.715 -0.905404 -1.28997 0
M  V30 2295 C 223.126 -0.581953 -1.77398 0
M  V30 2296 C 223.477 0.902552 -1.74208 0
M  V30 2297 O 222.602 1.70584 -1.33154 0
M  V30 2298 C 223.197 -1.04961 -3.22131 0
M  V30 2299 C 221.756 -0.777229 -3.68288 0
M  V30 2300 C 220.903 -1.22109 -2.48967 0
M  V30 2301 H 223.854 -1.08754 -1.15578 0
M  V30 2302 H 223.875 -0.387387 -3.78523 0
M  V30 2303 H 223.387 -2.13008 -3.24421 0
M  V30 2304 H 221.488 0.290383 -3.71467 0
M  V30 2305 H 221.601 -1.37911 -4.58822 0
M  V30 2306 H 219.965 -0.639971 -2.46529 0
M  V30 2307 H 220.748 -2.30972 -2.53982 0
M  V30 2308 N 223.193 1.4272 -0.668489 0
M  V30 2309 C 224.418 2.06484 -0.194758 0
M  V30 2310 C 224.843 1.49862 1.13679 0
M  V30 2311 O 224.201 0.614582 1.70565 0
M  V30 2312 C 224.249 3.60353 -0.133546 0
M  V30 2313 O 223.353 4.02464 0.899806 0
M  V30 2314 H 222.694 0.656137 -0.10188 0
M  V30 2315 H 225.224 1.82964 -0.915722 0
M  V30 2316 H 225.234 4.07976 0.0447041 0
M  V30 2317 H 223.909 4.00938 -1.1055 0
M  V30 2318 H 222.486 3.66402 0.693109 0
M  V30 2319 N 224.671 0.411399 1.52136 0
M  V30 2320 C 226.082 -0.0576826 1.86611 0
M  V30 2321 C 226.433 -1.44238 1.33003 0
M  V30 2322 O 225.558 -2.05759 0.670228 0
M  V30 2323 C 226.153 -0.111448 3.38617 0
M  V30 2324 C 224.712 -0.52487 3.72723 0
M  V30 2325 C 223.859 0.299176 2.75681 0
M  V30 2326 H 226.81 0.628368 1.4573 0
M  V30 2327 H 226.831 -0.926252 3.69054 0
M  V30 2328 H 226.343 0.896488 3.77604 0
M  V30 2329 H 224.444 -1.53936 3.39315 0
M  V30 2330 H 224.557 -0.267681 4.78352 0
M  V30 2331 H 222.921 -0.238814 2.53578 0
M  V30 2332 H 223.704 1.3055 3.17508 0
M  V30 2333 N 226.149 -1.5696 0.141893 0
M  V30 2334 C 227.079 -2.19516 -0.795936 0
M  V30 2335 C 228.06 -1.14187 -1.26077 0
M  V30 2336 O 229.245 -1.42511 -1.31925 0
M  V30 2337 C 226.375 -2.81272 -2.03723 0
M  V30 2338 C 225.329 -3.92384 -1.70936 0
M  V30 2339 C 224.655 -4.41052 -3.02287 0
M  V30 2340 C 225.955 -5.13403 -0.959954 0
M  V30 2341 H 227.649 -2.98138 -0.274596 0
M  V30 2342 H 225.195 -1.43406 -0.130636 0
M  V30 2343 H 227.148 -3.237 -2.69808 0
M  V30 2344 H 225.872 -1.99973 -2.58221 0
M  V30 2345 H 224.531 -3.50566 -1.07232 0
M  V30 2346 H 224.179 -3.56582 -3.54765 0
M  V30 2347 H 223.879 -5.15993 -2.81114 0
M  V30 2348 H 225.403 -4.86146 -3.69451 0
M  V30 2349 H 226.817 -5.52706 -1.52279 0
M  V30 2350 H 225.214 -5.94073 -0.848357 0
M  V30 2351 H 226.284 -4.84875 0.0492434 0
M  V30 2352 N 227.627 0.131896 -1.57047 0
M  V30 2353 C 228.904 0.871495 -1.75112 0
M  V30 2354 C 229.284 1.9866 -0.713949 0
M  V30 2355 O 228.632 2.26965 0.264447 0
M  V30 2356 C 228.842 1.40007 -3.19686 0
M  V30 2357 C 230.19 1.85752 -3.81813 0
M  V30 2358 O 231.214 1.49715 -3.23209 0
M  V30 2359 O 230.073 2.5226 -4.84796 0
M  V30 2360 H 227.167 0.412919 -0.716538 0
M  V30 2361 H 229.713 0.116641 -1.69299 0
M  V30 2362 H 228.485 0.599404 -3.86682 0
M  V30 2363 H 228.108 2.218 -3.29986 0
M  V30 2364 N 229.106 1.52395 0.401703 0
M  V30 2365 C 230.334 1.70676 1.16949 0
M  V30 2366 C 230.749 0.419503 1.8408 0
M  V30 2367 O 230.106 -0.605061 1.72178 0
M  V30 2368 C 230.157 2.84753 2.22706 0
M  V30 2369 O 229.878 4.08495 1.58314 0
M  V30 2370 C 231.379 3.14608 3.12309 0
M  V30 2371 H 228.599 0.571787 0.351142 0
M  V30 2372 H 231.143 1.98987 0.471652 0
M  V30 2373 H 229.298 2.58941 2.88147 0
M  V30 2374 H 229.712 4.72117 2.28485 0
M  V30 2375 H 231.186 3.97923 3.82572 0
M  V30 2376 H 231.663 2.28464 3.75101 0
M  V30 2377 H 232.269 3.42212 2.52529 0
M  V30 2378 N 230.584 -0.659388 1.43143 0
M  V30 2379 C 231.809 -1.45221 1.48073 0
M  V30 2380 C 232.234 -1.87845 0.097995 0
M  V30 2381 O 231.592 -1.56985 -0.90694 0
M  V30 2382 C 231.64 -2.66748 2.42647 0
M  V30 2383 O 230.744 -3.65583 1.90848 0
M  V30 2384 H 230.085 -0.435669 0.501088 0
M  V30 2385 H 232.615 -0.807432 1.87994 0
M  V30 2386 H 232.625 -3.14637 2.59745 0
M  V30 2387 H 231.3 -2.35067 3.43098 0
M  V30 2388 H 229.877 -3.24693 1.83381 0
M  V30 2389 N 232.062 -1.29571 -0.897171 0
M  V30 2390 C 232.994 -1.10724 -2.00681 0
M  V30 2391 C 234.007 -0.0540026 -1.6271 0
M  V30 2392 O 235.196 -0.298783 -1.75982 0
M  V30 2393 C 232.296 -0.663912 -3.32333 0
M  V30 2394 C 231.469 -1.79622 -3.98816 0
M  V30 2395 C 230.528 -1.34349 -5.0876 0
M  V30 2396 O 229.554 -2.04864 -5.31055 0
M  V30 2397 N 230.756 -0.215764 -5.80099 0
M  V30 2398 H 233.521 -2.06291 -2.17403 0
M  V30 2399 H 231.082 -1.21544 -1.06951 0
M  V30 2400 H 233.074 -0.344295 -4.03233 0
M  V30 2401 H 231.644 0.199375 -3.11964 0
M  V30 2402 H 230.864 -2.28459 -3.21248 0
M  V30 2403 H 232.152 -2.55535 -4.39976 0
M  V30 2404 H 231.55 0.372091 -5.64475 0
M  V30 2405 H 230.107 0.0444707 -6.51785 0
M  V30 2406 N 233.54 1.10788 -1.12088 0
M  V30 2407 C 234.951 1.64181 -0.88891 0
M  V30 2408 C 235.302 1.87508 0.577498 0
M  V30 2409 O 234.427 1.61434 1.44112 0
M  V30 2410 C 235.022 2.98257 -1.60712 0
M  V30 2411 C 233.581 3.4853 -1.42139 0
M  V30 2412 C 232.728 2.23208 -1.6454 0
M  V30 2413 H 235.679 0.943368 -1.27618 0
M  V30 2414 H 235.7 3.65552 -1.05604 0
M  V30 2415 H 235.212 2.81246 -2.67436 0
M  V30 2416 H 233.313 3.70692 -0.376552 0
M  V30 2417 H 233.426 4.26882 -2.17505 0
M  V30 2418 H 231.79 2.31169 -1.06925 0
M  V30 2419 H 232.573 2.08733 -2.72554 0
M  V30 2420 N 235.018 0.912232 1.28515 0
M  V30 2421 C 236.264 0.545405 1.95328 0
M  V30 2422 C 236.597 -0.908313 1.71649 0
M  V30 2423 O 235.872 -1.64575 1.03659 0
M  V30 2424 C 236.155 0.853483 3.4984 0
M  V30 2425 C 236.008 2.35982 3.82926 0
M  V30 2426 C 237.327 0.348589 4.38717 0
M  V30 2427 H 234.446 0.199626 0.709449 0
M  V30 2428 H 237.088 1.1412 1.5191 0
M  V30 2429 H 235.238 0.34643 3.86952 0
M  V30 2430 H 236.91 2.93738 3.55691 0
M  V30 2431 H 235.153 2.81543 3.30024 0
M  V30 2432 H 235.824 2.52593 4.90816 0
M  V30 2433 H 238.3 0.78294 4.08668 0
M  V30 2434 H 237.176 0.593242 5.45685 0
M  V30 2435 H 237.437 -0.751049 4.35674 0
M  V30 2436 N 236.496 -1.42363 0.676048 0
M  V30 2437 C 237.744 -2.01123 0.198437 0
M  V30 2438 C 238.065 -1.53731 -1.19966 0
M  V30 2439 O 237.335 -0.759518 -1.80577 0
M  V30 2440 H 235.915 -0.743678 0.0703721 0
M  V30 2441 H 238.577 -1.74263 0.872837 0
M  V30 2442 H 237.673 -3.11454 0.200686 0
M  V30 2443 N 237.974 -0.419461 -1.51915 0
M  V30 2444 C 239.39 -0.0708431 -1.59443 0
M  V30 2445 C 239.59 1.41796 -1.43164 0
M  V30 2446 O 238.646 2.18596 -1.26381 0
M  V30 2447 C 239.959 -0.574991 -2.95151 0
M  V30 2448 C 241.507 -0.533867 -3.08413 0
M  V30 2449 C 241.982 -1.01469 -4.46618 0
M  V30 2450 N 243.473 -0.971939 -4.52888 0
M  V30 2451 C 244.208 -1.31505 -5.58116 0
M  V30 2452 N 243.704 -1.73014 -6.70849 0
M  V30 2453 N 245.497 -1.23436 -5.48379 0
M  V30 2454 H 237.648 -1.38836 -1.60743 0
M  V30 2455 H 239.911 -0.570998 -0.756747 0
M  V30 2456 H 239.617 -1.61597 -3.12377 0
M  V30 2457 H 239.491 0.00979777 -3.77199 0
M  V30 2458 H 241.878 0.498086 -2.90866 0
M  V30 2459 H 241.959 -1.15484 -2.28248 0
M  V30 2460 H 241.603 -2.04502 -4.6491 0
M  V30 2461 H 241.533 -0.370433 -5.25295 0
M  V30 2462 H 244.024 -0.666893 -3.71969 0
M  V30 2463 H 244.337 -1.97479 -7.47143 0
M  V30 2464 H 242.682 -1.76926 -6.72103 0
M  V30 2465 H 245.873 -0.908869 -4.59192 0
M  V30 2466 H 246.046 -1.50506 -6.30279 0
M  V30 2467 N 239.452 1.56882 -0.150215 0
M  V30 2468 C 240.729 1.87844 0.545327 0
M  V30 2469 C 241.109 1.0567 1.82749 0
M  V30 2470 O 240.457 0.144442 2.28043 0
M  V30 2471 C 240.667 3.39526 0.80767 0
M  V30 2472 C 242.015 4.08814 1.14703 0
M  V30 2473 O 243.039 3.44723 0.896917 0
M  V30 2474 O 241.898 5.22004 1.61784 0
M  V30 2475 H 238.992 0.778677 0.278553 0
M  V30 2476 H 241.538 1.68666 -0.187068 0
M  V30 2477 H 240.31 3.91173 -0.0996096 0
M  V30 2478 H 239.933 3.64243 1.59413 0
M  V30 2479 N 240.93 -0.123565 1.57115 0
M  V30 2480 C 242.341 -0.681198 1.73829 0
M  V30 2481 C 242.692 -1.80535 0.768214 0
M  V30 2482 O 241.817 -2.16317 -0.0599103 0
M  V30 2483 C 242.412 -1.24246 3.15196 0
M  V30 2484 C 240.971 -1.74643 3.33432 0
M  V30 2485 C 240.118 -0.644284 2.69711 0
M  V30 2486 H 243.069 0.102315 1.5837 0
M  V30 2487 H 243.09 -2.11216 3.16493 0
M  V30 2488 H 242.602 -0.424062 3.85776 0
M  V30 2489 H 240.703 -2.58974 2.67886 0
M  V30 2490 H 240.816 -1.85902 4.41562 0
M  V30 2491 H 239.18 -1.07676 2.3082 0
M  V30 2492 H 239.963 0.163058 3.42913 0
M  V30 2493 N 242.408 -1.52605 -0.393616 0
M  V30 2494 C 243.657 -1.66649 -1.13627 0
M  V30 2495 C 243.97 -0.410364 -1.91247 0
M  V30 2496 O 245.176 -0.430854 -2.68059 0
M  V30 2497 C 243.632 -2.9449 -2.06891 0
M  V30 2498 C 243.24 -4.27266 -1.34714 0
M  V30 2499 C 244.984 -3.17899 -2.81319 0
M  V30 2500 C 242.891 -5.46217 -2.26717 0
M  V30 2501 H 241.821 -0.62084 -0.427871 0
M  V30 2502 H 244.472 -1.791 -0.399428 0
M  V30 2503 H 242.854 -2.75774 -2.84191 0
M  V30 2504 H 244.028 -4.56518 -0.626714 0
M  V30 2505 H 242.343 -4.10081 -0.722643 0
M  V30 2506 H 244.94 -4.03949 -3.50328 0
M  V30 2507 H 245.283 -2.32777 -3.45139 0
M  V30 2508 H 245.816 -3.37159 -2.11113 0
M  V30 2509 H 242.555 -6.33733 -1.67521 0
M  V30 2510 H 242.075 -5.21283 -2.96689 0
M  V30 2511 H 243.754 -5.7991 -2.86903 0
M  V30 2512 N 243.887 0.651787 -1.4349 0
M  V30 2513 C 244.835 1.78586 -1.49029 0
M  V30 2514 C 245.829 1.65448 -0.363767 0
M  V30 2515 O 247.035 1.71777 -0.537821 0
M  V30 2516 H 243.41 0.589236 -0.467231 0
M  V30 2517 H 245.381 1.71035 -2.44519 0
M  V30 2518 C 244.13 3.16851 -1.43181 0
M  V30 2519 H 243.453 3.27598 -2.29171 0
M  V30 2520 H 244.893 3.96156 -1.51118 0
M  V30 2521 C 243.352 3.36568 -0.149616 0
M  V30 2522 O 243.882 3.93885 0.788509 0
M  V30 2523 N 242.088 2.90539 -0.0593484 0
M  V30 2524 H 241.635 2.4408 -0.823575 0
M  V30 2525 H 241.593 3.04108 0.797853 0
M  V30 2526 N 245.365 1.30045 0.890287 0
M  V30 2527 C 246.59 1.21598 1.68014 0
M  V30 2528 C 247.015 -0.218678 1.86825 0
M  V30 2529 O 246.373 -1.15756 1.39536 0
M  V30 2530 C 246.421 1.94434 3.03691 0
M  V30 2531 O 245.525 1.2678 3.92429 0
M  V30 2532 H 244.866 0.420856 0.513592 0
M  V30 2533 H 247.396 1.71775 1.11151 0
M  V30 2534 H 247.406 2.03251 3.5377 0
M  V30 2535 H 246.081 2.98777 2.89318 0
M  V30 2536 H 244.658 1.26282 3.50866 0
M  V30 2537 N 246.843 -1.10192 1.12674 0
M  V30 2538 C 247.775 -2.16418 0.754701 0
M  V30 2539 C 248.788 -1.61309 -0.21986 0
M  V30 2540 O 249.977 -1.785 -0.000826841 0
M  V30 2541 C 247.077 -3.38762 0.096698 0
M  V30 2542 C 246.25 -4.23307 1.10136 0
M  V30 2543 C 245.309 -5.24092 0.470513 0
M  V30 2544 O 244.335 -5.57906 1.12824 0
M  V30 2545 N 245.537 -5.75491 -0.760948 0
M  V30 2546 H 248.302 -2.48943 1.66875 0
M  V30 2547 H 245.863 -1.25834 1.01869 0
M  V30 2548 H 247.855 -4.03291 -0.337384 0
M  V30 2549 H 246.425 -3.04192 -0.720153 0
M  V30 2550 H 245.645 -3.55036 1.71299 0
M  V30 2551 H 246.933 -4.76624 1.78064 0
M  V30 2552 H 246.331 -5.50222 -1.31424 0
M  V30 2553 H 244.888 -6.41792 -1.13781 0
M  V30 2554 N 248.321 -0.919034 -1.28029 0
M  V30 2555 C 249.251 -0.428581 -2.29533 0
M  V30 2556 C 250.232 0.50659 -1.62381 0
M  V30 2557 O 251.417 0.413195 -1.89753 0
M  V30 2558 C 248.547 0.327388 -3.45753 0
M  V30 2559 C 247.501 -0.519137 -4.2484 0
M  V30 2560 C 246.827 0.365486 -5.33449 0
M  V30 2561 C 248.127 -1.77914 -4.91064 0
M  V30 2562 H 249.821 -1.27687 -2.70807 0
M  V30 2563 H 247.367 -0.615428 -1.30186 0
M  V30 2564 H 249.32 0.681378 -4.15855 0
M  V30 2565 H 248.044 1.20963 -3.03374 0
M  V30 2566 H 246.703 -0.855717 -3.56473 0
M  V30 2567 H 246.351 1.24642 -4.87312 0
M  V30 2568 H 246.051 -0.197356 -5.87268 0
M  V30 2569 H 247.575 0.715241 -6.06396 0
M  V30 2570 H 248.989 -1.49374 -5.53498 0
M  V30 2571 H 247.386 -2.2848 -5.54903 0
M  V30 2572 H 248.456 -2.50382 -4.15255 0
M  V30 2573 N 249.799 1.42003 -0.683588 0
M  V30 2574 C 251.027 2.05746 -0.218182 0
M  V30 2575 C 251.442 1.51396 1.12804 0
M  V30 2576 O 250.799 0.657303 1.70252 0
M  V30 2577 C 250.85 3.61171 -0.154131 0
M  V30 2578 O 250.571 4.13508 -1.44716 0
M  V30 2579 C 252.072 4.42042 0.333713 0
M  V30 2580 H 249.292 0.662888 -0.10402 0
M  V30 2581 H 251.836 1.81987 -0.9328 0
M  V30 2582 H 249.991 3.84012 0.511231 0
M  V30 2583 H 250.405 5.07453 -1.32632 0
M  V30 2584 H 251.879 5.51028 0.327423 0
M  V30 2585 H 252.356 4.17269 1.37053 0
M  V30 2586 H 252.962 4.24239 -0.300222 0
M  V30 2587 N 251.277 0.427512 1.51691 0
M  V30 2588 C 252.502 -0.143601 2.06902 0
M  V30 2589 C 252.927 -1.36536 1.29382 0
M  V30 2590 O 252.285 -1.78289 0.329043 0
M  V30 2591 C 252.333 -0.454207 3.57728 0
M  V30 2592 O 251.437 -1.54228 3.82475 0
M  V30 2593 H 250.778 -0.00617128 0.663971 0
M  V30 2594 H 253.308 0.606014 1.95419 0
M  V30 2595 H 253.318 -0.707525 4.01818 0
M  V30 2596 H 251.993 0.438812 4.13579 0
M  V30 2597 H 250.57 -1.2797 3.50254 0
M  V30 2598 N 252.755 -1.56801 0.158532 0
M  V30 2599 C 253.718 -2.16138 -0.762705 0
M  V30 2600 C 254.718 -1.1061 -1.16713 0
M  V30 2601 O 255.908 -1.36191 -1.08617 0
M  V30 2602 C 253.04 -2.73386 -2.03649 0
M  V30 2603 H 254.233 -2.98886 -0.246354 0
M  V30 2604 H 251.786 -1.56035 -0.0909744 0
M  V30 2605 H 252.521 -1.94335 -2.59623 0
M  V30 2606 H 252.306 -3.50601 -1.75559 0
M  V30 2607 H 253.796 -3.19065 -2.6942 0
M  V30 2608 N 254.233 0.115231 -1.57178 0
M  V30 2609 C 255.463 0.835224 -1.88964 0
M  V30 2610 C 255.871 1.73774 -0.74829 0
M  V30 2611 O 255.214 1.81401 0.289739 0
M  V30 2612 C 255.276 1.7178 -3.15804 0
M  V30 2613 C 254.94 0.989198 -4.46166 0
M  V30 2614 C 255.937 0.328263 -5.18863 0
M  V30 2615 C 253.622 0.969256 -4.9286 0
M  V30 2616 C 255.616 -0.342873 -6.36477 0
M  V30 2617 C 253.303 0.294324 -6.10391 0
M  V30 2618 C 254.301 -0.360582 -6.82048 0
M  V30 2619 O 253.989 -1.02474 -7.97342 0
M  V30 2620 H 253.721 0.245197 -0.629964 0
M  V30 2621 H 256.275 0.10303 -2.05141 0
M  V30 2622 H 254.505 2.49173 -2.95719 0
M  V30 2623 H 256.194 2.31255 -3.33581 0
M  V30 2624 H 256.96 0.335263 -4.8384 0
M  V30 2625 H 252.839 1.46844 -4.36987 0
M  V30 2626 H 256.383 -0.854629 -6.92345 0
M  V30 2627 H 252.28 0.285099 -6.4487 0
M  V30 2628 H 253.048 -0.929594 -8.13204 0
M  V30 2629 N 255.711 1.52812 0.385517 0
M  V30 2630 C 256.959 1.67694 1.12797 0
M  V30 2631 C 257.28 0.421115 1.90399 0
M  V30 2632 O 256.55 -0.564551 1.87589 0
M  V30 2633 H 255.13 0.618155 0.419396 0
M  V30 2634 H 257.792 1.89938 0.436972 0
M  V30 2635 H 256.888 2.52896 1.82894 0
M  V30 2636 N 257.189 -0.644168 1.43834 0
M  V30 2637 C 258.417 -1.43147 1.49387 0
M  V30 2638 C 258.832 -1.88452 0.114583 0
M  V30 2639 O 258.189 -1.60047 -0.876989 0
M  V30 2640 C 258.24 -2.66046 2.44748 0
M  V30 2641 O 257.961 -2.22633 3.77314 0
M  V30 2642 C 259.462 -3.59311 2.59635 0
M  V30 2643 H 256.682 -0.439447 0.507077 0
M  V30 2644 H 259.226 -0.78895 1.88669 0
M  V30 2645 H 257.381 -3.26418 2.08638 0
M  V30 2646 H 257.795 -3.02216 4.28679 0
M  V30 2647 H 259.269 -4.42187 3.30416 0
M  V30 2648 H 259.746 -4.07259 1.64427 0
M  V30 2649 H 260.352 -3.04816 2.96593 0
M  V30 2650 N 258.668 -1.30515 -0.883378 0
M  V30 2651 C 259.893 -1.22487 -1.67367 0
M  V30 2652 C 260.318 0.208767 -1.86938 0
M  V30 2653 O 259.676 1.15015 -1.40148 0
M  V30 2654 C 259.724 -1.96041 -3.02655 0
M  V30 2655 O 258.828 -1.28859 -3.91751 0
M  V30 2656 H 258.169 -0.423573 -0.511353 0
M  V30 2657 H 260.699 -1.72362 -1.10239 0
M  V30 2658 H 260.709 -2.05124 -3.52687 0
M  V30 2659 H 259.384 -3.00307 -2.8773 0
M  V30 2660 H 257.961 -1.28141 -3.50192 0
M  V30 2661 N 260.146 1.09593 -1.13257 0
M  V30 2662 C 261.079 2.15451 -0.752061 0
M  V30 2663 C 262.057 1.60493 0.260913 0
M  V30 2664 O 263.241 1.8788 0.152819 0
M  V30 2665 C 260.368 3.38506 -0.114594 0
M  V30 2666 C 259.414 4.12183 -1.09579 0
M  V30 2667 S 260.247 4.6661 -2.62745 0
M  V30 2668 C 261.403 5.92966 -2.00354 0
M  V30 2669 H 261.636 2.47395 -1.64872 0
M  V30 2670 H 259.169 1.21515 -0.952545 0
M  V30 2671 H 261.127 4.09757 0.246808 0
M  V30 2672 H 259.788 3.04784 0.759309 0
M  V30 2673 H 258.981 5.00445 -0.597545 0
M  V30 2674 H 258.583 3.46785 -1.40057 0
M  V30 2675 H 260.875 6.63882 -1.35156 0
M  V30 2676 H 261.818 6.47467 -2.86691 0
M  V30 2677 H 262.226 5.45405 -1.4558 0
M  V30 2678 N 261.624 0.925811 1.2754 0
M  V30 2679 C 262.554 0.440748 2.29303 0
M  V30 2680 C 263.535 -0.497971 1.62648 0
M  V30 2681 O 264.72 -0.403126 1.8997 0
M  V30 2682 C 261.85 -0.309048 3.45922 0
M  V30 2683 C 260.804 0.54166 4.24559 0
M  V30 2684 C 260.13 -0.337191 5.33636 0
M  V30 2685 C 261.43 1.80516 4.90114 0
M  V30 2686 H 263.124 1.29121 2.70126 0
M  V30 2687 H 260.67 0.622323 1.29858 0
M  V30 2688 H 262.623 -0.659315 4.1621 0
M  V30 2689 H 261.347 -1.19352 3.04011 0
M  V30 2690 H 260.006 0.874609 3.56014 0
M  V30 2691 H 259.654 -1.22056 4.87966 0
M  V30 2692 H 259.354 0.228497 5.87156 0
M  V30 2693 H 260.878 -0.683072 6.06767 0
M  V30 2694 H 262.292 1.52307 5.52698 0
M  V30 2695 H 260.689 2.3142 5.53683 0
M  V30 2696 H 261.759 2.52581 4.13921 0
M  V30 2697 N 263.102 -1.41638 0.69111 0
M  V30 2698 C 264.332 -2.0533 0.228758 0
M  V30 2699 C 264.74 -1.52089 -1.12541 0
M  V30 2700 O 264.083 -0.662145 -1.71351 0
M  V30 2701 C 264.145 -3.59349 0.10407 0
M  V30 2702 C 263.809 -4.35362 1.38956 0
M  V30 2703 C 264.806 -4.64942 2.32648 0
M  V30 2704 C 262.491 -4.74714 1.64169 0
M  V30 2705 C 264.485 -5.32828 3.49818 0
M  V30 2706 C 262.172 -5.42338 2.81625 0
M  V30 2707 C 263.17 -5.71322 3.74273 0
M  V30 2708 O 262.858 -6.37554 4.89673 0
M  V30 2709 H 262.59 -0.667796 0.104997 0
M  V30 2710 H 265.144 -1.82477 0.942938 0
M  V30 2711 H 263.374 -3.80924 -0.665839 0
M  V30 2712 H 265.063 -4.04633 -0.320519 0
M  V30 2713 H 265.829 -4.35025 2.14425 0
M  V30 2714 H 261.708 -4.51538 0.929202 0
M  V30 2715 H 265.252 -5.55368 4.22152 0
M  V30 2716 H 261.149 -5.71673 2.99768 0
M  V30 2717 H 261.917 -6.56049 4.8943 0
M  V30 2718 N 264.58 -0.43555 -1.51462 0
M  V30 2719 C 265.828 0.131254 -2.01673 0
M  V30 2720 C 266.149 1.43368 -1.32177 0
M  V30 2721 O 265.419 1.90524 -0.455769 0
M  V30 2722 H 263.999 0.0514954 -0.745223 0
M  V30 2723 H 266.661 -0.577847 -1.86137 0
M  V30 2724 H 265.757 0.308446 -3.10572 0
M  V30 2725 N 266.058 1.56714 -0.166846 0
M  V30 2726 C 266.991 2.13577 0.80375 0
M  V30 2727 C 267.969 1.06464 1.22899 0
M  V30 2728 O 269.153 1.34413 1.32157 0
M  V30 2729 C 266.28 2.67168 2.0818 0
M  V30 2730 C 265.326 3.86612 1.80093 0
M  V30 2731 S 266.159 5.26565 0.97416 0
M  V30 2732 C 267.315 5.83558 2.26297 0
M  V30 2733 H 267.548 2.9557 0.320267 0
M  V30 2734 H 265.081 1.54326 0.0477555 0
M  V30 2735 H 267.039 2.98692 2.8159 0
M  V30 2736 H 265.7 1.85269 2.53642 0
M  V30 2737 H 264.893 4.22422 2.7491 0
M  V30 2738 H 264.495 3.55951 1.14781 0
M  V30 2739 H 266.787 5.962 3.21795 0
M  V30 2740 H 267.73 6.80731 1.94962 0
M  V30 2741 H 268.138 5.11944 2.37853 0
M  V30 2742 N 267.536 -0.106894 1.57237 0
M  V30 2743 C 268.486 -1.1366 1.9765 0
M  V30 2744 C 269.47 -1.36416 0.853203 0
M  V30 2745 O 270.662 -1.37305 1.11697 0
M  V30 2746 C 267.791 -2.46 2.39455 0
M  V30 2747 C 266.877 -2.26668 3.58445 0
M  V30 2748 N 267.268 -1.77176 4.73754 0
M  V30 2749 C 265.566 -2.57279 3.64312 0
M  V30 2750 C 266.267 -1.71836 5.5574 0
M  V30 2751 N 265.243 -2.16623 4.98573 0
M  V30 2752 H 269.045 -0.74669 2.84256 0
M  V30 2753 H 266.559 -0.314483 1.59326 0
M  V30 2754 H 268.556 -3.2049 2.6663 0
M  V30 2755 H 267.216 -2.85738 1.54219 0
M  V30 2756 H 268.227 -1.46545 4.96734 0
M  V30 2757 H 264.904 -3.00622 2.89711 0
M  V30 2758 H 266.294 -1.34723 6.58255 0
M  V30 2759 N 269.014 -1.53014 -0.377408 0
M  V30 2760 C 270.26 -1.69821 -1.11948 0
M  V30 2761 C 270.615 -0.438581 -1.87335 0
M  V30 2762 O 269.908 0.568094 -1.82984 0
M  V30 2763 C 270.102 -2.87982 -2.11663 0
M  V30 2764 C 269.931 -4.25315 -1.46072 0
M  V30 2765 C 268.701 -4.90354 -1.21986 0
M  V30 2766 C 270.899 -5.06281 -0.904664 0
M  V30 2767 N 268.881 -6.11641 -0.526215 0
M  V30 2768 C 270.252 -6.19069 -0.339726 0
M  V30 2769 C 272.307 -4.91395 -0.8022 0
M  V30 2770 C 271.01 -7.18598 0.317669 0
M  V30 2771 C 273.036 -5.91187 -0.158606 0
M  V30 2772 C 272.398 -7.03289 0.39551 0
M  V30 2773 H 268.497 -0.674785 -0.395207 0
M  V30 2774 H 271.081 -1.90389 -0.407437 0
M  V30 2775 H 269.252 -2.68974 -2.80192 0
M  V30 2776 H 270.984 -2.93669 -2.78461 0
M  V30 2777 H 267.739 -4.49286 -1.49798 0
M  V30 2778 H 268.163 -6.76719 -0.195098 0
M  V30 2779 H 272.805 -4.04925 -1.21639 0
M  V30 2780 H 270.523 -8.04669 0.743836 0
M  V30 2781 H 274.109 -5.81744 -0.0804138 0
M  V30 2782 H 272.989 -7.79183 0.885648 0
M  V30 2783 N 270.492 0.636531 -1.44174 0
M  V30 2784 C 271.741 1.39213 -1.45954 0
M  V30 2785 C 272.054 1.95374 -0.0939119 0
M  V30 2786 O 273.26 2.71498 0.0107767 0
M  V30 2787 C 271.716 2.52025 -2.56927 0
M  V30 2788 C 271.324 2.024 -3.99673 0
M  V30 2789 C 273.068 3.29269 -2.67922 0
M  V30 2790 C 270.975 3.12521 -5.0208 0
M  V30 2791 H 269.905 0.523132 -0.542999 0
M  V30 2792 H 272.556 0.685349 -1.70221 0
M  V30 2793 H 270.938 3.25253 -2.25891 0
M  V30 2794 H 272.112 1.36073 -4.40251 0
M  V30 2795 H 270.427 1.37987 -3.92872 0
M  V30 2796 H 273.024 4.11352 -3.41605 0
M  V30 2797 H 273.367 3.78397 -1.73555 0
M  V30 2798 H 273.9 2.63129 -2.98342 0
M  V30 2799 H 270.639 2.68343 -5.98057 0
M  V30 2800 H 270.159 3.77507 -4.66099 0
M  V30 2801 H 271.838 3.77385 -5.25538 0
M  V30 2802 N 271.97 1.30982 0.876444 0
M  V30 2803 C 272.9 1.20668 1.99903 0
M  V30 2804 C 273.881 0.095354 1.69833 0
M  V30 2805 O 275.066 0.27885 1.92188 0
M  V30 2806 C 272.196 0.90655 3.3526 0
M  V30 2807 C 271.15 1.97675 3.79617 0
M  V30 2808 C 270.476 1.52943 5.1236 0
M  V30 2809 C 271.776 3.389 3.97422 0
M  V30 2810 H 273.47 2.14586 2.0879 0
M  V30 2811 H 271.016 1.03308 1.00317 0
M  V30 2812 H 272.969 0.821025 4.13324 0
M  V30 2813 H 271.693 -0.0682969 3.26529 0
M  V30 2814 H 270.352 2.05205 3.03787 0
M  V30 2815 H 270 0.54262 5.00065 0
M  V30 2816 H 269.7 2.24532 5.43009 0
M  V30 2817 H 271.224 1.45786 5.92941 0
M  V30 2818 H 272.638 3.34081 4.659 0
M  V30 2819 H 271.035 4.0865 4.3946 0
M  V30 2820 H 272.105 3.80163 3.01006 0
M  V30 2821 N 273.449 -1.08991 1.13837 0
M  V30 2822 C 274.726 -1.77863 0.813876 0
M  V30 2823 C 275.106 -1.99375 -0.693746 0
M  V30 2824 O 274.454 -1.59875 -1.63255 0
M  V30 2825 C 274.664 -3.0986 1.60586 0
M  V30 2826 C 276.012 -3.84493 1.8014 0
M  V30 2827 O 277.036 -3.19624 1.57222 0
M  V30 2828 O 275.895 -5.00957 2.18413 0
M  V30 2829 H 272.989 -0.771589 0.297624 0
M  V30 2830 H 275.535 -1.15507 1.24323 0
M  V30 2831 H 274.307 -2.89715 2.63022 0
M  V30 2832 H 273.93 -3.79942 1.17173 0
M  V30 2833 N 274.927 -0.932562 -1.27047 0
M  V30 2834 C 276.173 -0.576412 -1.94436 0
M  V30 2835 C 276.506 0.880891 -1.73072 0
M  V30 2836 O 275.781 1.62905 -1.06264 0
M  V30 2837 C 276.064 -0.909031 -3.48437 0
M  V30 2838 C 275.917 -2.42044 -3.79123 0
M  V30 2839 C 277.236 -0.418341 -4.38107 0
M  V30 2840 H 274.355 -0.210888 -0.706184 0
M  V30 2841 H 276.997 -1.16522 -1.50075 0
M  V30 2842 H 275.147 -0.407947 -3.86352 0
M  V30 2843 H 276.819 -2.99359 -3.50973 0
M  V30 2844 H 275.062 -2.86758 -3.25503 0
M  V30 2845 H 275.733 -2.6037 -4.86736 0
M  V30 2846 H 278.209 -0.847856 -4.0737 0
M  V30 2847 H 277.085 -0.679981 -5.44672 0
M  V30 2848 H 277.346 0.681642 -4.36814 0
M  V30 2849 N 276.405 1.4127 -0.698611 0
M  V30 2850 C 277.682 1.94955 -0.158762 0
M  V30 2851 C 278.062 1.63781 1.33188 0
M  V30 2852 O 277.41 0.946423 2.07979 0
M  V30 2853 C 277.62 3.46044 -0.453309 0
M  V30 2854 C 278.968 4.22872 -0.382707 0
M  V30 2855 O 279.992 3.54076 -0.388396 0
M  V30 2856 O 278.851 5.45407 -0.345463 0
M  V30 2857 H 275.945 0.82683 -0.0167505 0
M  V30 2858 H 278.491 1.50971 -0.77498 0
M  V30 2859 H 277.263 3.62028 -1.48498 0
M  V30 2860 H 276.886 3.97128 0.19373 0
M  V30 2861 N 277.883 0.443576 1.51229 0
M  V30 2862 C 278.831 -0.37904 2.29491 0
M  V30 2863 C 279.825 -1.0153 1.35603 0
M  V30 2864 O 281.031 -0.94955 1.52917 0
M  V30 2865 H 277.406 -0.141053 0.738653 0
M  V30 2866 H 279.377 0.301799 2.9687 0
M  V30 2867 C 278.126 -1.46426 3.15364 0
M  V30 2868 H 277.449 -0.984037 3.87501 0
M  V30 2869 H 278.889 -2.01297 3.7317 0
M  V30 2870 C 277.348 -2.45099 2.31146 0
M  V30 2871 O 277.878 -3.49773 1.9754 0
M  V30 2872 N 276.084 -2.16139 1.94249 0
M  V30 2873 H 275.631 -1.31044 2.21777 0
M  V30 2874 H 275.589 -2.82398 1.38198 0
M  V30 2875 N 279.361 -1.56624 0.175154 0
M  V30 2876 C 280.607 -1.98061 -0.462976 0
M  V30 2877 C 280.962 -1.05949 -1.60601 0
M  V30 2878 O 280.255 -0.0999027 -1.91339 0
M  V30 2879 C 280.449 -3.43419 -0.989864 0
M  V30 2880 C 280.278 -4.49587 0.100583 0
M  V30 2881 C 279.048 -5.02281 0.551539 0
M  V30 2882 C 281.246 -5.06322 0.902369 0
M  V30 2883 N 279.228 -5.92088 1.62189 0
M  V30 2884 C 280.599 -5.92607 1.82256 0
M  V30 2885 C 282.654 -4.88811 0.947019 0
M  V30 2886 C 281.357 -6.63254 2.78364 0
M  V30 2887 C 283.383 -5.60182 1.89606 0
M  V30 2888 C 282.745 -6.46197 2.80372 0
M  V30 2889 H 278.844 -0.769833 -0.137409 0
M  V30 2890 H 281.428 -1.9273 0.276256 0
M  V30 2891 H 279.599 -3.49288 -1.6986 0
M  V30 2892 H 281.331 -3.7186 -1.59694 0
M  V30 2893 H 278.086 -4.73367 0.148537 0
M  V30 2894 H 278.51 -6.41696 2.15767 0
M  V30 2895 H 283.152 -4.22004 0.259304 0
M  V30 2896 H 280.87 -7.29271 3.48122 0
M  V30 2897 H 284.456 -5.48617 1.93676 0
M  V30 2898 H 283.336 -7.00453 3.52612 0
M  V30 2899 N 280.839 0.0985539 -1.57292 0
M  V30 2900 C 282.069 0.815135 -1.8984 0
M  V30 2901 C 282.477 1.7297 -0.766679 0
M  V30 2902 O 281.82 1.81698 0.270483 0
M  V30 2903 C 281.882 1.6842 -3.17608 0
M  V30 2904 C 281.546 0.94182 -4.4719 0
M  V30 2905 C 282.543 0.273212 -5.19182 0
M  V30 2906 C 280.228 0.916927 -4.9386 0
M  V30 2907 C 282.222 -0.410361 -6.36078 0
M  V30 2908 C 279.909 0.229567 -6.10669 0
M  V30 2909 C 280.907 -0.432902 -6.81627 0
M  V30 2910 O 280.595 -1.10925 -7.9621 0
M  V30 2911 H 280.327 0.238501 -0.632529 0
M  V30 2912 H 282.881 0.0812659 -2.05239 0
M  V30 2913 H 281.111 2.46022 -2.98345 0
M  V30 2914 H 282.8 2.27704 -3.36015 0
M  V30 2915 H 283.566 0.283927 -4.84168 0
M  V30 2916 H 279.445 1.42201 -4.3852 0
M  V30 2917 H 282.989 -0.928013 -6.914 0
M  V30 2918 H 278.886 0.216686 -6.45136 0
M  V30 2919 H 279.654 -1.01579 -8.12172 0
M  V30 2920 N 282.317 1.53212 0.369288 0
M  V30 2921 C 283.565 1.68881 1.11012 0
M  V30 2922 C 283.886 0.441285 1.89941 0
M  V30 2923 O 283.156 -0.544623 1.88177 0
M  V30 2924 H 281.736 0.622569 0.412816 0
M  V30 2925 H 284.398 1.90391 0.416802 0
M  V30 2926 H 283.494 2.54822 1.80201 0
M  V30 2927 N 283.795 -0.628877 1.44509 0
M  V30 2928 C 285.042 -1.38839 1.47411 0
M  V30 2929 C 285.37 -1.94202 0.10757 0
M  V30 2930 O 284.625 -1.74243 -0.890947 0
M  V30 2931 C 284.924 -2.56995 2.48371 0
M  V30 2932 C 284.59 -2.19908 3.93639 0
M  V30 2933 C 283.252 -2.09506 4.33198 0
M  V30 2934 C 285.604 -1.9064 4.85083 0
M  V30 2935 C 282.932 -1.68028 5.62124 0
M  V30 2936 C 285.284 -1.50655 6.14399 0
M  V30 2937 C 283.948 -1.38796 6.5291 0
M  V30 2938 H 283.218 -0.508048 0.539414 0
M  V30 2939 H 285.865 -0.712913 1.77735 0
M  V30 2940 H 284.17 -3.29786 2.11538 0
M  V30 2941 H 285.867 -3.15223 2.47861 0
M  V30 2942 H 282.457 -2.28922 3.62343 0
M  V30 2943 H 286.641 -1.97585 4.55273 0
M  V30 2944 H 281.897 -1.57452 5.90778 0
M  V30 2945 H 286.071 -1.27048 6.84713 0
M  V30 2946 H 283.698 -1.06429 7.52713 0
M  V30 2947 N 285.273 -1.31445 -0.869486 0
M  V30 2948 C 286.521 -1.20918 -1.61936 0
M  V30 2949 C 286.842 0.232683 -1.93607 0
M  V30 2950 O 286.112 1.15352 -1.58338 0
M  V30 2951 H 284.692 -0.44454 -0.600328 0
M  V30 2952 H 287.354 -1.64776 -1.0409 0
M  V30 2953 H 286.45 -1.78124 -2.56278 0
M  V30 2954 N 286.751 1.08385 -1.14413 0
M  V30 2955 C 287.714 2.13486 -0.834048 0
M  V30 2956 C 288.714 1.59988 0.161418 0
M  V30 2957 O 289.904 1.74071 -0.0669575 0
M  V30 2958 C 287.036 3.4003 -0.243354 0
M  V30 2959 H 288.229 2.42425 -1.7655 0
M  V30 2960 H 285.782 1.24101 -0.950189 0
M  V30 2961 H 286.517 3.16726 0.696807 0
M  V30 2962 H 286.302 3.80157 -0.960367 0
M  V30 2963 H 287.792 4.17577 -0.0436242 0
M  V30 2964 N 288.23 0.939286 1.26551 0
M  V30 2965 C 289.646 0.641304 1.46149 0
M  V30 2966 C 289.846 -0.805964 1.84679 0
M  V30 2967 O 288.902 -1.58278 1.96734 0
M  V30 2968 C 290.215 1.6011 2.54529 0
M  V30 2969 C 291.763 1.6106 2.68382 0
M  V30 2970 C 292.238 2.55765 3.79932 0
M  V30 2971 N 293.729 2.5404 3.87322 0
M  V30 2972 C 294.464 3.24004 4.73085 0
M  V30 2973 N 293.96 4.03388 5.63249 0
M  V30 2974 N 295.753 3.12965 4.66914 0
M  V30 2975 H 287.904 1.87478 0.998285 0
M  V30 2976 H 290.167 0.805559 0.499779 0
M  V30 2977 H 289.873 2.63412 2.33039 0
M  V30 2978 H 289.747 1.35171 3.52149 0
M  V30 2979 H 292.134 0.584835 2.89247 0
M  V30 2980 H 292.215 1.90053 1.71212 0
M  V30 2981 H 291.859 3.58458 3.5982 0
M  V30 2982 H 291.789 2.24063 4.76554 0
M  V30 2983 H 294.28 1.96396 3.22858 0
M  V30 2984 H 294.593 4.5373 6.25579 0
M  V30 2985 H 292.938 4.07489 5.63008 0
M  V30 2986 H 296.129 2.50432 3.95476 0
M  V30 2987 H 296.302 3.67759 5.33533 0
M  V30 2988 N 289.708 -1.40897 0.706093 0
M  V30 2989 C 290.671 -2.29131 0.0562841 0
M  V30 2990 C 291.671 -1.44901 -0.697166 0
M  V30 2991 O 292.861 -1.65926 -0.530484 0
M  V30 2992 C 289.993 -3.27957 -0.93043 0
M  V30 2993 H 291.186 -2.88091 0.833284 0
M  V30 2994 H 288.739 -1.4906 0.470192 0
M  V30 2995 H 289.474 -2.73997 -1.73482 0
M  V30 2996 H 289.259 -3.90124 -0.393166 0
M  V30 2997 H 290.749 -3.94049 -1.38256 0
M  V30 2998 N 291.186 -0.45159 -1.50991 0
M  V30 2999 C 292.463 0.170707 -1.94854 0
M  V30 3000 C 292.843 1.58788 -1.39103 0
M  V30 3001 O 292.191 2.20913 -0.583921 0
M  V30 3002 C 292.401 0.133929 -3.48743 0
M  V30 3003 C 293.749 0.33248 -4.23296 0
M  V30 3004 O 294.773 0.211403 -3.55572 0
M  V30 3005 O 293.632 0.57486 -5.43468 0
M  V30 3006 H 290.726 0.122264 -0.817912 0
M  V30 3007 H 293.272 -0.510594 -1.61836 0
M  V30 3008 H 292.044 -0.856283 -3.81816 0
M  V30 3009 H 291.667 0.857529 -3.88242 0
M  V30 3010 N 292.664 1.56529 -0.183458 0
M  V30 3011 C 293.912 1.96855 0.457452 0
M  V30 3012 C 294.233 1.07104 1.62953 0
M  V30 3013 O 293.503 0.139887 1.954 0
M  V30 3014 H 292.083 0.72693 0.171992 0
M  V30 3015 H 294.745 1.93056 -0.267476 0
M  V30 3016 H 293.841 3.01423 0.809368 0
M  V30 3017 N 294.142 -0.090211 1.57342 0
M  V30 3018 C 295.37 -0.806224 1.90546 0
M  V30 3019 C 295.785 -1.72041 0.777644 0
M  V30 3020 O 295.142 -1.80778 -0.250103 0
M  V30 3021 C 295.193 -1.61546 3.23396 0
M  V30 3022 O 294.914 -0.738043 4.31839 0
M  V30 3023 C 296.415 -2.4341 3.70495 0
M  V30 3024 H 293.635 -0.230256 0.630257 0
M  V30 3025 H 296.179 -0.0659843 2.04394 0
M  V30 3026 H 294.334 -2.30816 3.11131 0
M  V30 3027 H 294.748 -1.29901 5.08159 0
M  V30 3028 H 296.222 -2.95676 4.66133 0
M  V30 3029 H 296.699 -3.22098 2.98579 0
M  V30 3030 H 297.305 -1.79331 3.85643 0
M  V30 3031 N 295.62 -1.53406 -0.361157 0
M  V30 3032 C 296.845 -1.74024 -1.12829 0
M  V30 3033 C 297.27 -0.470069 -1.82132 0
M  V30 3034 O 296.628 0.57619 -1.719 0
M  V30 3035 C 296.676 -2.90903 -2.13091 0
M  V30 3036 O 295.78 -2.59821 -3.20261 0
M  V30 3037 H 295.121 -0.577804 -0.327168 0
M  V30 3038 H 297.651 -2.00307 -0.41693 0
M  V30 3039 H 297.661 -3.17194 -2.56616 0
M  V30 3040 H 296.336 -3.83034 -1.62042 0
M  V30 3041 H 294.913 -2.44362 -2.81677 0
M  V30 3042 N 297.098 0.621204 -1.44841 0
M  V30 3043 C 298.045 1.73267 -1.5247 0
M  V30 3044 C 299.015 1.6189 -0.371611 0
M  V30 3045 O 300.2 1.81668 -0.58321 0
M  V30 3046 C 297.34 3.11545 -1.48438 0
M  V30 3047 C 296.453 3.33827 -2.74196 0
M  V30 3048 C 295.588 4.62133 -2.61929 0
M  V30 3049 C 294.627 4.77627 -3.82804 0
M  V30 3050 N 293.764 5.97219 -3.69153 0
M  V30 3051 H 298.604 1.66082 -2.47428 0
M  V30 3052 H 296.141 0.810026 -1.22788 0
M  V30 3053 H 298.099 3.91528 -1.4409 0
M  V30 3054 H 296.729 3.1772 -0.570402 0
M  V30 3055 H 295.781 2.47715 -2.88689 0
M  V30 3056 H 297.093 3.41153 -3.6389 0
M  V30 3057 H 296.247 5.50291 -2.5547 0
M  V30 3058 H 294.986 4.57182 -1.69811 0
M  V30 3059 H 293.991 3.87896 -3.89637 0
M  V30 3060 H 295.216 4.84385 -4.75971 0
M  V30 3061 H 293.162 5.93339 -2.79794 0
M  V30 3062 H 293.079 6.05644 -4.52472 0
M  V30 3063 H 294.347 6.87912 -3.66603 0
M  V30 3064 N 298.576 1.31904 0.862503 0
M  V30 3065 C 299.987 1.19803 1.43193 0
M  V30 3066 C 300.338 -0.192567 1.95253 0
M  V30 3067 O 299.463 -1.09081 1.86896 0
M  V30 3068 C 300.058 2.16883 2.60283 0
M  V30 3069 C 298.617 2.08692 3.13248 0
M  V30 3070 C 297.764 2.05691 1.85975 0
M  V30 3071 H 300.715 1.43846 0.670365 0
M  V30 3072 H 300.736 1.76278 3.37204 0
M  V30 3073 H 300.248 3.18083 2.22363 0
M  V30 3074 H 298.349 1.10713 3.55771 0
M  V30 3075 H 298.462 2.9815 3.75025 0
M  V30 3076 H 296.826 1.50814 2.05249 0
M  V30 3077 H 297.609 3.08659 1.50282 0
M  V30 3078 N 300.054 -1.07777 1.14986 0
M  V30 3079 C 301.279 -1.84558 0.946213 0
M  V30 3080 C 301.704 -1.81323 -0.500362 0
M  V30 3081 O 301.062 -1.20301 -1.35637 0
M  V30 3082 C 301.11 -3.29736 1.45968 0
M  V30 3083 O 300.214 -4.07149 0.65601 0
M  V30 3084 H 299.555 -0.571641 0.33782 0
M  V30 3085 H 302.085 -1.35991 1.52865 0
M  V30 3086 H 302.095 -3.80574 1.47063 0
M  V30 3087 H 300.77 -3.31406 2.51283 0
M  V30 3088 H 299.347 -3.65994 0.714322 0
M  V30 3089 N 301.532 -0.945985 -1.26051 0
M  V30 3090 C 302.762 -0.612136 -1.97323 0
M  V30 3091 C 303.17 0.818171 -1.70595 0
M  V30 3092 O 302.513 1.55777 -0.973613 0
M  V30 3093 C 302.575 -0.780347 -3.50929 0
M  V30 3094 C 302.239 -2.18619 -4.01317 0
M  V30 3095 C 303.236 -3.16209 -4.12683 0
M  V30 3096 C 300.921 -2.50805 -4.35203 0
M  V30 3097 C 302.915 -4.44085 -4.57238 0
M  V30 3098 C 300.602 -3.78912 -4.79446 0
M  V30 3099 C 301.6 -4.75365 -4.90425 0
M  V30 3100 O 301.288 -6.01191 -5.3369 0
M  V30 3101 H 301.02 -0.229134 -0.635982 0
M  V30 3102 H 303.574 -1.27036 -1.61404 0
M  V30 3103 H 301.804 -0.0649864 -3.86645 0
M  V30 3104 H 303.493 -0.448842 -4.03411 0
M  V30 3105 H 304.259 -2.92668 -3.86744 0
M  V30 3106 H 300.138 -1.76463 -4.2589 0
M  V30 3107 H 303.682 -5.19373 -4.65723 0
M  V30 3108 H 299.579 -4.02265 -5.0483 0
M  V30 3109 H 300.347 -6.04442 -5.51899 0
M  V30 3110 N 303.011 1.40521 -0.713556 0
M  V30 3111 C 304.26 2.00155 -0.249192 0
M  V30 3112 C 304.573 1.57224 1.16362 0
M  V30 3113 O 305.779 2.09542 1.72639 0
M  V30 3114 C 304.235 3.5773 -0.3946 0
M  V30 3115 C 303.843 4.09635 -1.81392 0
M  V30 3116 C 305.587 4.24499 0.00907364 0
M  V30 3117 C 303.494 5.59707 -1.91003 0
M  V30 3118 H 302.424 0.74868 -0.0894114 0
M  V30 3119 H 305.075 1.60784 -0.884352 0
M  V30 3120 H 303.457 3.94792 0.30911 0
M  V30 3121 H 304.631 3.83955 -2.54785 0
M  V30 3122 H 302.946 3.55456 -2.16888 0
M  V30 3123 H 305.543 5.34683 -0.0420404 0
M  V30 3124 H 305.886 4.02824 1.05065 0
M  V30 3125 H 306.419 3.92536 -0.645007 0
M  V30 3126 H 303.158 5.86234 -2.93275 0
M  V30 3127 H 302.678 5.87258 -1.22019 0
M  V30 3128 H 304.357 6.24776 -1.6812 0
M  V30 3129 N 304.489 0.459591 1.5075 0
M  V30 3130 C 305.437 -0.354678 2.2988 0
M  V30 3131 C 306.431 -1.00086 1.36672 0
M  V30 3132 O 307.637 -0.933277 1.53915 0
M  V30 3133 H 304.012 -0.13321 0.740107 0
M  V30 3134 H 305.983 0.333269 2.96533 0
M  V30 3135 C 304.732 -1.43073 3.169 0
M  V30 3136 H 304.055 -0.942882 3.88523 0
M  V30 3137 H 305.495 -1.97328 3.75284 0
M  V30 3138 C 303.954 -2.42633 2.33732 0
M  V30 3139 O 304.484 -3.47658 2.01238 0
M  V30 3140 N 302.69 -2.14066 1.9653 0
M  V30 3141 H 302.237 -1.28685 2.23155 0
M  V30 3142 H 302.195 -2.80917 1.41185 0
M  V30 3143 N 305.967 -1.56429 0.191757 0
M  V30 3144 C 307.195 -2.01867 -0.453586 0
M  V30 3145 C 307.61 -1.07191 -1.5542 0
M  V30 3146 O 306.967 -0.0762108 -1.82341 0
M  V30 3147 C 307.018 -3.47017 -1.013 0
M  V30 3148 O 306.739 -4.38078 0.0437005 0
M  V30 3149 C 308.24 -4.07956 -1.73456 0
M  V30 3150 H 305.46 -0.661211 -0.114199 0
M  V30 3151 H 308.004 -2.02295 0.299483 0
M  V30 3152 H 306.159 -3.47298 -1.71647 0
M  V30 3153 H 306.573 -5.23178 -0.372212 0
M  V30 3154 H 308.047 -5.1138 -2.07833 0
M  V30 3155 H 308.524 -3.51222 -2.63704 0
M  V30 3156 H 309.13 -4.11437 -1.07702 0
M  V30 3157 N 307.445 0.0818655 -1.57387 0
M  V30 3158 C 308.692 0.782914 -1.86753 0
M  V30 3159 C 309.02 1.78082 -0.782118 0
M  V30 3160 O 308.275 1.94426 0.22295 0
M  V30 3161 C 308.574 1.53513 -3.22752 0
M  V30 3162 C 308.24 0.678134 -4.45771 0
M  V30 3163 C 306.902 0.441929 -4.79166 0
M  V30 3164 C 309.254 0.0832243 -5.21134 0
M  V30 3165 C 306.582 -0.398833 -5.85343 0
M  V30 3166 C 308.934 -0.744935 -6.28199 0
M  V30 3167 C 307.598 -0.991107 -6.60101 0
M  V30 3168 H 306.868 0.286489 -0.683378 0
M  V30 3169 H 309.515 0.0439808 -1.91449 0
M  V30 3170 H 307.82 2.34599 -3.138 0
M  V30 3171 H 309.517 2.08218 -3.42705 0
M  V30 3172 H 306.107 0.872357 -4.19628 0
M  V30 3173 H 310.291 0.252847 -4.95655 0
M  V30 3174 H 305.547 -0.598405 -6.08465 0
M  V30 3175 H 309.721 -1.21271 -6.8576 0
M  V30 3176 H 307.348 -1.64437 -7.42202 0
M  V30 3177 N 308.923 1.53595 0.353017 0
M  V30 3178 C 309.855 1.77219 1.45348 0
M  V30 3179 C 310.868 0.65324 1.49119 0
M  V30 3180 O 312.057 0.929775 1.52373 0
M  V30 3181 C 309.157 1.84841 2.84055 0
M  V30 3182 C 308.33 3.14649 3.03833 0
M  V30 3183 C 307.389 3.13351 4.22727 0
M  V30 3184 O 306.415 3.87107 4.17297 0
M  V30 3185 N 307.617 2.35052 5.30783 0
M  V30 3186 H 310.382 2.72178 1.25457 0
M  V30 3187 H 307.943 1.52528 0.542833 0
M  V30 3188 H 309.935 1.81435 3.61751 0
M  V30 3189 H 308.505 0.971114 2.97133 0
M  V30 3190 H 307.725 3.31256 2.13689 0
M  V30 3191 H 309.013 4.00411 3.13925 0
M  V30 3192 H 308.411 1.74663 5.38061 0
M  V30 3193 H 306.968 2.37453 6.07009 0
M  V30 3194 N 310.401 -0.613514 1.45168 0
M  V30 3195 C 311.817 -0.933629 1.29443 0
M  V30 3196 C 312.017 -2.00028 0.243101 0
M  V30 3197 O 311.073 -2.49848 -0.364992 0
M  V30 3198 C 312.386 -1.38018 2.67155 0
M  V30 3199 C 313.934 -1.49471 2.75004 0
M  V30 3200 C 314.409 -1.97503 4.13227 0
M  V30 3201 N 315.9 -2.04746 4.15491 0
M  V30 3202 C 316.635 -2.43121 5.19307 0
M  V30 3203 N 316.131 -2.80506 6.33473 0
M  V30 3204 N 317.924 -2.43408 5.06664 0
M  V30 3205 H 310.075 0.0916097 2.12202 0
M  V30 3206 H 312.338 -0.0216655 0.947752 0
M  V30 3207 H 312.044 -0.670625 3.45247 0
M  V30 3208 H 311.918 -2.34784 2.95222 0
M  V30 3209 H 314.305 -2.19519 1.9722 0
M  V30 3210 H 314.386 -0.510342 2.50657 0
M  V30 3211 H 314.03 -1.28045 4.91495 0
M  V30 3212 H 313.96 -2.96843 4.34962 0
M  V30 3213 H 316.451 -1.78468 3.33103 0
M  V30 3214 H 316.764 -3.08652 7.08487 0
M  V30 3215 H 315.109 -2.78216 6.36884 0
M  V30 3216 H 318.3 -2.13604 4.16523 0
M  V30 3217 H 318.473 -2.72989 5.87691 0
M  V30 3218 N 311.879 -1.3236 -0.855495 0
M  V30 3219 C 313.127 -1.22629 -1.60644 0
M  V30 3220 C 313.448 0.212136 -1.93843 0
M  V30 3221 O 312.718 1.13666 -1.59552 0
M  V30 3222 H 311.298 -0.450882 -0.595579 0
M  V30 3223 H 313.96 -1.65871 -1.02337 0
M  V30 3224 H 313.056 -1.80832 -2.54374 0
M  V30 3225 N 313.357 1.07166 -1.15556 0
M  V30 3226 C 314.267 2.17947 -0.868116 0
M  V30 3227 C 315.283 1.73297 0.156297 0
M  V30 3228 O 316.459 2.01392 -0.0182327 0
M  V30 3229 C 313.524 3.44789 -0.36355 0
M  V30 3230 C 312.585 4.03996 -1.45209 0
M  V30 3231 C 311.818 5.24783 -0.971508 0
M  V30 3232 O 312.041 5.70109 0.182194 0
M  V30 3233 O 310.975 5.75715 -1.75603 0
M  V30 3234 H 314.801 2.4503 -1.79427 0
M  V30 3235 H 312.386 1.16539 -0.934824 0
M  V30 3236 H 314.268 4.21307 -0.0887113 0
M  V30 3237 H 312.943 3.19253 0.534708 0
M  V30 3238 H 311.85 3.29009 -1.78056 0
M  V30 3239 H 313.183 4.33808 -2.32533 0
M  V30 3240 N 314.835 0.952656 1.25548 0
M  V30 3241 C 315.767 0.428609 2.25157 0
M  V30 3242 C 316.78 -0.454428 1.56329 0
M  V30 3243 O 317.969 -0.263023 1.76552 0
M  V30 3244 C 315.069 -0.401972 3.36508 0
M  V30 3245 C 314.242 0.467601 4.34893 0
M  V30 3246 C 313.301 -0.30445 5.25319 0
M  V30 3247 O 312.327 0.296473 5.68427 0
M  V30 3248 N 313.529 -1.59805 5.5807 0
M  V30 3249 H 316.294 1.28497 2.70756 0
M  V30 3250 H 313.855 0.822798 1.39433 0
M  V30 3251 H 315.847 -0.926134 3.9396 0
M  V30 3252 H 314.417 -1.15918 2.90313 0
M  V30 3253 H 313.637 1.17288 3.76347 0
M  V30 3254 H 314.925 1.06119 4.97611 0
M  V30 3255 H 314.323 -2.10823 5.24948 0
M  V30 3256 H 312.88 -2.06822 6.18116 0
M  V30 3257 N 316.313 -1.40141 0.720998 0
M  V30 3258 C 317.223 -2.34486 0.0731031 0
M  V30 3259 C 318.239 -1.57587 -0.737723 0
M  V30 3260 O 319.415 -1.89949 -0.669429 0
M  V30 3261 C 316.48 -3.36528 -0.833656 0
M  V30 3262 C 315.541 -4.29298 -0.0121673 0
M  V30 3263 C 314.774 -5.26466 -0.875742 0
M  V30 3264 O 314.997 -5.29745 -2.11485 0
M  V30 3265 O 313.931 -6.01092 -0.31185 0
M  V30 3266 H 317.757 -2.9152 0.851444 0
M  V30 3267 H 315.342 -1.41427 0.481527 0
M  V30 3268 H 317.224 -3.99093 -1.35289 0
M  V30 3269 H 315.899 -2.81899 -1.59105 0
M  V30 3270 H 314.806 -3.70001 0.552262 0
M  V30 3271 H 316.139 -4.87094 0.707129 0
M  V30 3272 N 317.792 -0.46758 -1.50504 0
M  V30 3273 C 319.017 0.0886943 -2.0721 0
M  V30 3274 C 319.442 1.33057 -1.32956 0
M  V30 3275 O 318.8 1.77354 -0.376197 0
M  V30 3276 C 318.848 0.359202 -3.58806 0
M  V30 3277 O 317.952 1.44034 -3.8643 0
M  V30 3278 H 317.293 -0.0114349 -0.663902 0
M  V30 3279 H 319.823 -0.657613 -1.93744 0
M  V30 3280 H 319.833 0.600742 -4.03553 0
M  V30 3281 H 318.508 -0.548311 -4.1227 0
M  V30 3282 H 317.085 1.18638 -3.53524 0
M  V30 3283 N 319.27 1.56325 -0.20005 0
M  V30 3284 C 320.498 2.02105 0.442874 0
M  V30 3285 C 320.913 1.08014 1.5485 0
M  V30 3286 O 320.27 0.0858797 1.82298 0
M  V30 3287 C 320.321 3.47549 0.994583 0
M  V30 3288 O 320.042 4.38049 -0.0669322 0
M  V30 3289 C 321.543 4.0887 1.7129 0
M  V30 3290 H 318.763 0.661807 0.110691 0
M  V30 3291 H 321.307 2.02134 -0.310207 0
M  V30 3292 H 319.462 3.48204 1.69803 0
M  V30 3293 H 319.876 5.23368 0.344462 0
M  V30 3294 H 321.35 5.12475 2.05118 0
M  V30 3295 H 321.827 3.52615 2.61838 0
M  V30 3296 H 322.433 4.12002 1.05518 0
M  V30 3297 N 320.748 -0.0735177 1.57428 0
M  V30 3298 C 321.994 -0.768909 1.88307 0
M  V30 3299 C 322.349 -1.75273 0.793535 0
M  V30 3300 O 321.642 -1.90527 -0.202466 0
M  V30 3301 C 321.836 -1.51799 3.23561 0
M  V30 3302 C 321.665 -0.608217 4.45568 0
M  V30 3303 C 320.435 -0.245808 5.04702 0
M  V30 3304 C 322.633 0.0942904 5.14214 0
M  V30 3305 N 320.615 0.66987 6.10234 0
M  V30 3306 C 321.986 0.867222 6.13905 0
M  V30 3307 C 324.041 0.165943 4.97623 0
M  V30 3308 C 322.744 1.70515 6.98797 0
M  V30 3309 C 324.77 0.990837 5.83041 0
M  V30 3310 C 324.132 1.75182 6.82269 0
M  V30 3311 H 320.231 -0.25685 0.738615 0
M  V30 3312 H 322.815 -0.030499 1.94676 0
M  V30 3313 H 320.986 -2.22713 3.18203 0
M  V30 3314 H 322.718 -2.16226 3.42094 0
M  V30 3315 H 319.473 -0.598284 4.69806 0
M  V30 3316 H 319.897 1.1209 6.67656 0
M  V30 3317 H 324.539 -0.408064 4.20826 0
M  V30 3318 H 322.257 2.29013 7.7497 0
M  V30 3319 H 325.843 1.04923 5.72261 0
M  V30 3320 H 324.723 2.37983 7.47217 0
M  V30 3321 N 322.226 -1.5378 -0.344866 0
M  V30 3322 C 323.136 -1.84667 -1.4469 0
M  V30 3323 C 324.152 -0.736704 -1.57635 0
M  V30 3324 O 325.328 -1.02888 -1.73136 0
M  V30 3325 C 322.393 -2.04869 -2.79696 0
M  V30 3326 C 321.454 -3.28731 -2.76106 0
M  V30 3327 C 320.687 -3.4796 -4.04673 0
M  V30 3328 O 320.91 -2.71052 -5.01883 0
M  V30 3329 O 319.844 -4.41383 -4.09224 0
M  V30 3330 H 323.67 -2.78334 -1.21506 0
M  V30 3331 H 321.255 -1.39418 -0.536921 0
M  V30 3332 H 323.137 -2.19609 -3.59652 0
M  V30 3333 H 321.812 -1.14391 -3.02814 0
M  V30 3334 H 320.719 -3.19396 -1.94774 0
M  V30 3335 H 322.052 -4.19198 -2.57941 0
M  V30 3336 N 323.704 0.605807 -1.45491 0
M  V30 3337 C 324.932 1.39136 -1.5313 0
M  V30 3338 C 325.347 1.88082 -0.164507 0
M  V30 3339 O 324.704 1.62316 0.834247 0
M  V30 3340 C 324.755 2.59463 -2.51716 0
M  V30 3341 O 324.476 2.12551 -3.83084 0
M  V30 3342 C 325.977 3.52301 -2.6907 0
M  V30 3343 H 323.197 0.425849 -0.51855 0
M  V30 3344 H 325.741 0.73865 -1.90694 0
M  V30 3345 H 323.896 3.20772 -2.17219 0
M  V30 3346 H 324.31 2.90744 -4.36541 0
M  V30 3347 H 325.784 4.33271 -3.42024 0
M  V30 3348 H 326.261 4.02757 -1.75167 0
M  V30 3349 H 326.867 2.96845 -3.04571 0
M  V30 3350 N 325.182 1.32811 0.848464 0
M  V30 3351 C 326.431 1.23075 1.59798 0
M  V30 3352 C 326.744 -0.204419 1.94529 0
M  V30 3353 O 327.95 -0.423701 2.68173 0
M  V30 3354 C 326.406 2.15594 2.88179 0
M  V30 3355 C 326.014 3.64228 2.60849 0
M  V30 3356 C 327.758 2.14709 3.66197 0
M  V30 3357 C 325.665 4.48689 3.85269 0
M  V30 3358 H 324.595 0.457091 0.599653 0
M  V30 3359 H 327.246 1.57813 0.936342 0
M  V30 3360 H 325.628 1.73778 3.55833 0
M  V30 3361 H 326.802 4.14424 2.01467 0
M  V30 3362 H 325.117 3.67306 1.96151 0
M  V30 3363 H 327.714 2.75046 4.58534 0
M  V30 3364 H 328.057 1.13966 4.00397 0
M  V30 3365 H 328.59 2.54837 3.05455 0
M  V30 3366 H 325.329 5.5027 3.56207 0
M  V30 3367 H 324.849 4.03241 4.44024 0
M  V30 3368 H 326.528 4.62006 4.52946 0
M  V30 3369 N 326.66 -1.06551 1.16123 0
M  V30 3370 C 328.071 -1.60768 0.949232 0
M  V30 3371 C 328.422 -1.89523 -0.507508 0
M  V30 3372 O 327.547 -1.66671 -1.38021 0
M  V30 3373 C 328.142 -2.92086 1.71671 0
M  V30 3374 C 326.701 -3.43015 1.54977 0
M  V30 3375 C 325.848 -2.16947 1.72711 0
M  V30 3376 H 328.799 -0.895354 1.31031 0
M  V30 3377 H 328.82 -3.6138 1.19099 0
M  V30 3378 H 328.332 -2.71127 2.7769 0
M  V30 3379 H 326.433 -3.69039 0.513873 0
M  V30 3380 H 326.546 -4.18516 2.33198 0
M  V30 3381 H 324.91 -2.27041 1.15431 0
M  V30 3382 H 325.693 -1.98473 2.80113 0
M  V30 3383 N 328.138 -0.959301 -1.25041 0
M  V30 3384 C 329.07 -0.440543 -2.24926 0
M  V30 3385 C 330.083 0.446131 -1.56568 0
M  V30 3386 O 331.272 0.253657 -1.76689 0
M  V30 3387 C 328.372 0.38412 -3.36716 0
M  V30 3388 C 327.545 -0.490658 -4.34639 0
M  V30 3389 C 326.604 0.276587 -5.25473 0
M  V30 3390 O 325.63 -0.326614 -5.68262 0
M  V30 3391 N 326.832 1.56844 -5.5891 0
M  V30 3392 H 329.597 -1.29931 -2.70071 0
M  V30 3393 H 327.158 -0.830181 -1.38995 0
M  V30 3394 H 329.15 0.905228 -3.94446 0
M  V30 3395 H 327.72 1.14377 -2.90924 0
M  V30 3396 H 326.94 -1.19282 -3.7572 0
M  V30 3397 H 328.228 -1.08756 -4.97041 0
M  V30 3398 H 327.626 2.08036 -5.26059 0
M  V30 3399 H 326.183 2.03541 -6.19205 0
M  V30 3400 N 329.616 1.39756 -0.72842 0
M  V30 3401 C 331.027 1.83498 -0.344289 0
M  V30 3402 C 331.378 1.60868 1.12321 0
M  V30 3403 O 330.503 1.09634 1.86573 0
M  V30 3404 C 331.098 3.33114 -0.618112 0
M  V30 3405 C 329.657 3.753 -0.287549 0
M  V30 3406 C 328.804 2.62831 -0.884048 0
M  V30 3407 H 331.755 1.28842 -0.926578 0
M  V30 3408 H 331.776 3.80334 0.112349 0
M  V30 3409 H 331.288 3.49553 -1.68625 0
M  V30 3410 H 329.389 3.64451 0.775012 0
M  V30 3411 H 329.502 4.72945 -0.765512 0
M  V30 3412 H 327.866 2.52792 -0.311149 0
M  V30 3413 H 328.649 2.82078 -1.95671 0
M  V30 3414 N 331.094 0.475555 1.50254 0
M  V30 3415 C 332.334 -0.0765802 2.04256 0
M  V30 3416 C 332.698 -1.36587 1.34937 0
M  V30 3417 O 333.899 -2.00066 1.79519 0
M  V30 3418 C 332.17 -0.251668 3.56513 0
M  V30 3419 S 333.729 -0.761716 4.32138 0
M  V30 3420 H 330.547 -0.0138456 0.710865 0
M  V30 3421 H 333.149 0.643714 1.84598 0
M  V30 3422 H 331.853 0.692404 4.04517 0
M  V30 3423 H 331.384 -0.997946 3.80532 0
M  V30 3424 H 333.399 -2.03451 4.52573 0
M  V30 3425 N 332.573 -1.56217 0.208337 0
M  V30 3426 C 333.819 -1.98998 -0.42086 0
M  V30 3427 C 334.174 -1.09331 -1.58317 0
M  V30 3428 O 333.467 -0.140466 -1.91084 0
M  V30 3429 C 333.661 -3.45441 -0.916797 0
M  V30 3430 C 333.49 -4.49273 0.195925 0
M  V30 3431 C 332.26 -5.00998 0.657956 0
M  V30 3432 C 334.458 -5.04294 1.00956 0
M  V30 3433 N 332.44 -5.88514 1.74712 0
M  V30 3434 C 333.811 -5.88607 1.94785 0
M  V30 3435 C 335.866 -4.86692 1.05049 0
M  V30 3436 C 334.569 -6.572 2.9237 0
M  V30 3437 C 336.595 -5.56034 2.01446 0
M  V30 3438 C 335.957 -6.40105 2.94016 0
M  V30 3439 H 332.056 -0.772574 -0.121048 0
M  V30 3440 H 334.64 -1.92101 0.317075 0
M  V30 3441 H 332.811 -3.52812 -1.62413 0
M  V30 3442 H 334.543 -3.75164 -1.51771 0
M  V30 3443 H 331.298 -4.72945 0.248912 0
M  V30 3444 H 331.722 -6.36975 2.2933 0
M  V30 3445 H 336.364 -4.21359 0.348759 0
M  V30 3446 H 334.082 -7.21723 3.63512 0
M  V30 3447 H 337.668 -5.44385 2.0527 0
M  V30 3448 H 336.548 -6.92816 3.6739 0
M  V30 3449 N 334.051 0.0651679 -1.57465 0
M  V30 3450 C 335.328 0.79644 -1.78651 0
M  V30 3451 C 335.708 1.95454 -0.797566 0
M  V30 3452 O 335.056 2.27882 0.167946 0
M  V30 3453 C 335.266 1.26322 -3.25337 0
M  V30 3454 C 336.614 1.6939 -3.89348 0
M  V30 3455 O 337.638 1.35872 -3.29268 0
M  V30 3456 O 336.497 2.31471 -4.95059 0
M  V30 3457 H 333.591 0.382157 -0.733407 0
M  V30 3458 H 336.137 0.0447311 -1.69641 0
M  V30 3459 H 334.909 0.434859 -3.88876 0
M  V30 3460 H 334.532 2.07604 -3.39096 0
M  V30 3461 N 335.529 1.53961 0.336706 0
M  V30 3462 C 336.439 1.85432 1.43708 0
M  V30 3463 C 337.455 0.745053 1.57242 0
M  V30 3464 O 338.631 1.03804 1.72588 0
M  V30 3465 C 335.696 2.06349 2.78605 0
M  V30 3466 C 334.757 3.30191 2.74358 0
M  V30 3467 C 333.99 3.50101 4.02822 0
M  V30 3468 O 334.213 2.7371 5.00439 0
M  V30 3469 O 333.147 4.43547 4.06878 0
M  V30 3470 H 336.973 2.78975 1.20028 0
M  V30 3471 H 334.558 1.39701 0.52952 0
M  V30 3472 H 336.44 2.21513 3.58483 0
M  V30 3473 H 335.115 1.15995 3.02203 0
M  V30 3474 H 334.022 3.20425 1.93078 0
M  V30 3475 H 335.355 4.2056 2.55715 0
M  V30 3476 N 337.007 -0.598083 1.45811 0
M  V30 3477 C 337.957 -1.70272 1.51629 0
M  V30 3478 C 338.941 -1.56382 0.378629 0
M  V30 3479 O 340.133 -1.65557 0.626087 0
M  V30 3480 C 337.262 -3.09042 1.49493 0
M  V30 3481 C 336.348 -3.28284 2.68496 0
M  V30 3482 N 336.739 -3.17748 3.93535 0
M  V30 3483 C 335.037 -3.59182 2.64394 0
M  V30 3484 C 335.738 -3.38579 4.7301 0
M  V30 3485 N 334.714 -3.63016 4.04624 0
M  V30 3486 H 338.516 -1.60634 2.46118 0
M  V30 3487 H 336.03 -0.801642 1.41235 0
M  V30 3488 H 338.027 -3.88302 1.51747 0
M  V30 3489 H 336.687 -3.19823 0.560683 0
M  V30 3490 H 337.698 -2.95944 4.25014 0
M  V30 3491 H 334.375 -3.76742 1.79922 0
M  V30 3492 H 335.765 -3.35747 5.82 0
M  V30 3493 N 338.485 -1.33259 -0.841409 0
M  V30 3494 C 339.432 -1.23302 -1.95103 0
M  V30 3495 C 340.402 -0.112204 -1.65721 0
M  V30 3496 O 341.587 -0.290038 -1.88583 0
M  V30 3497 C 338.727 -0.975583 -3.31023 0
M  V30 3498 C 337.84 -2.18243 -3.72819 0
M  V30 3499 C 336.975 -1.85936 -4.97595 0
M  V30 3500 C 336.014 -3.02866 -5.3192 0
M  V30 3501 N 335.151 -2.70565 -6.47873 0
M  V30 3502 H 339.991 -2.18207 -2.02952 0
M  V30 3503 H 337.528 -1.0851 -0.993173 0
M  V30 3504 H 339.486 -0.80677 -4.09325 0
M  V30 3505 H 338.116 -0.0632755 -3.22738 0
M  V30 3506 H 337.168 -2.46107 -2.90061 0
M  V30 3507 H 338.48 -3.05666 -3.94169 0
M  V30 3508 H 337.634 -1.65684 -5.83638 0
M  V30 3509 H 336.373 -0.957452 -4.78209 0
M  V30 3510 H 335.378 -3.23736 -4.44382 0
M  V30 3511 H 336.603 -3.93809 -5.53255 0
M  V30 3512 H 334.549 -1.8293 -6.29978 0
M  V30 3513 H 334.466 -3.51519 -6.69306 0
M  V30 3514 H 335.734 -2.53774 -7.37034 0
M  V30 3515 N 339.963 1.05934 -1.16686 0
M  V30 3516 C 341.21 1.788 -0.950622 0
M  V30 3517 C 341.538 1.87384 0.521305 0
M  V30 3518 O 340.793 1.36438 1.40297 0
M  V30 3519 C 341.092 3.23105 -1.52767 0
M  V30 3520 C 340.758 3.34594 -3.02254 0
M  V30 3521 C 339.42 3.37437 -3.43059 0
M  V30 3522 C 341.772 3.36219 -3.98254 0
M  V30 3523 C 339.1 3.39525 -4.78477 0
M  V30 3524 C 341.452 3.39845 -5.33562 0
M  V30 3525 C 340.116 3.40971 -5.73842 0
M  V30 3526 H 339.386 0.654275 -0.347857 0
M  V30 3527 H 342.033 1.24555 -1.45459 0
M  V30 3528 H 340.338 3.80227 -0.94524 0
M  V30 3529 H 342.035 3.7809 -1.336 0
M  V30 3530 H 338.625 3.3309 -2.6972 0
M  V30 3531 H 342.809 3.33231 -3.67792 0
M  V30 3532 H 338.065 3.38703 -5.09009 0
M  V30 3533 H 342.239 3.4005 -6.07733 0
M  V30 3534 H 339.866 3.42342 -6.78753 0
M  V30 3535 N 341.441 0.965919 1.2453 0
M  V30 3536 C 342.689 0.625593 1.92174 0
M  V30 3537 C 343.01 -0.841652 1.75901 0
M  V30 3538 O 342.28 -1.60061 1.12948 0
M  V30 3539 H 340.86 0.228388 0.71123 0
M  V30 3540 H 343.522 1.2266 1.51461 0
M  V30 3541 H 342.618 0.864653 2.99884 0
M  V30 3542 N 342.919 -1.39368 0.735821 0
M  V30 3543 C 344.167 -2.00101 0.283562 0
M  V30 3544 C 344.488 -1.5868 -1.13338 0
M  V30 3545 O 343.758 -0.835423 -1.77193 0
M  V30 3546 H 342.338 -0.740024 0.101851 0
M  V30 3547 H 345 -1.70404 0.945962 0
M  V30 3548 H 344.096 -3.10323 0.332604 0
M  V30 3549 N 344.397 -0.483516 -1.5 0
M  V30 3550 C 345.329 0.340634 -2.26655 0
M  V30 3551 C 346.342 0.946152 -1.32483 0
M  V30 3552 O 347.531 0.832453 -1.579 0
M  V30 3553 C 344.631 1.4929 -3.04246 0
M  V30 3554 C 343.804 0.997903 -4.25865 0
M  V30 3555 C 342.863 2.02569 -4.85646 0
M  V30 3556 O 341.889 1.60128 -5.46212 0
M  V30 3557 N 343.091 3.3548 -4.73744 0
M  V30 3558 H 345.856 -0.316577 -2.98023 0
M  V30 3559 H 343.417 -0.315024 -1.58806 0
M  V30 3560 H 345.409 2.17766 -3.41116 0
M  V30 3561 H 343.979 2.05458 -2.35597 0
M  V30 3562 H 343.199 0.138617 -3.93956 0
M  V30 3563 H 344.487 0.645305 -5.04691 0
M  V30 3564 H 343.885 3.72661 -4.25605 0
M  V30 3565 H 342.442 3.99718 -5.14848 0
M  V30 3566 N 345.875 1.56104 -0.216619 0
M  V30 3567 C 347.105 2.02269 0.420802 0
M  V30 3568 C 347.513 1.09575 1.5424 0
M  V30 3569 O 346.856 0.0967308 1.83445 0
M  V30 3570 C 346.918 3.44784 1.01806 0
M  V30 3571 C 346.582 4.56988 0.0325154 0
M  V30 3572 C 347.579 5.14225 -0.766055 0
M  V30 3573 C 345.264 5.02228 -0.0848092 0
M  V30 3574 C 347.258 6.15169 -1.6687 0
M  V30 3575 C 344.945 6.03011 -0.990994 0
M  V30 3576 C 345.943 6.59357 -1.78149 0
M  V30 3577 O 345.631 7.58179 -2.67245 0
M  V30 3578 H 345.363 0.667353 0.107776 0
M  V30 3579 H 347.917 2.02747 -0.329034 0
M  V30 3580 H 346.147 3.41359 1.81689 0
M  V30 3581 H 347.836 3.74626 1.56237 0
M  V30 3582 H 348.602 4.80126 -0.685836 0
M  V30 3583 H 344.481 4.58054 0.520349 0
M  V30 3584 H 348.025 6.59076 -2.28615 0
M  V30 3585 H 343.922 6.36532 -1.07225 0
M  V30 3586 H 344.69 7.75682 -2.61265 0
M  V30 3587 N 347.353 -0.0568162 1.57498 0
M  V30 3588 C 348.601 -0.751617 1.87604 0
M  V30 3589 C 348.922 -1.77351 0.81066 0
M  V30 3590 O 348.192 -1.95254 -0.159018 0
M  V30 3591 H 346.772 -0.280583 0.692302 0
M  V30 3592 H 349.434 -0.0293483 1.94878 0
M  V30 3593 H 348.53 -1.25852 2.856 0
M  V30 3594 N 348.832 -1.54138 -0.328536 0
M  V30 3595 C 350.079 -1.72105 -1.06706 0
M  V30 3596 C 350.407 -0.492111 -1.88171 0
M  V30 3597 O 349.662 0.526153 -1.88494 0
M  V30 3598 C 349.961 -2.9457 -2.02393 0
M  V30 3599 C 349.627 -4.29544 -1.37122 0
M  V30 3600 C 348.289 -4.6624 -1.19052 0
M  V30 3601 C 350.641 -5.1333 -0.902331 0
M  V30 3602 C 347.969 -5.84325 -0.527331 0
M  V30 3603 C 350.321 -6.32094 -0.252988 0
M  V30 3604 C 348.985 -6.67473 -0.0600901 0
M  V30 3605 H 348.255 -0.629775 -0.390466 0
M  V30 3606 H 350.902 -1.88372 -0.34473 0
M  V30 3607 H 349.207 -2.72969 -2.81061 0
M  V30 3608 H 350.904 -3.05665 -2.59557 0
M  V30 3609 H 347.494 -4.0067 -1.52188 0
M  V30 3610 H 351.678 -4.855 -1.02974 0
M  V30 3611 H 346.934 -6.103 -0.366634 0
M  V30 3612 H 351.108 -6.96299 0.118366 0
M  V30 3613 H 348.735 -7.58832 0.455828 0
M  V30 3614 N 350.31 0.590341 -1.46126 0
M  V30 3615 C 351.24 1.71032 -1.58966 0
M  V30 3616 C 352.221 1.64302 -0.440335 0
M  V30 3617 O 353.406 1.82436 -0.665634 0
M  V30 3618 C 350.536 3.09665 -1.57241 0
M  V30 3619 C 349.49 3.31221 -2.71066 0
M  V30 3620 C 348.816 4.70303 -2.54399 0
M  V30 3621 C 350.116 3.19796 -4.1295 0
M  V30 3622 H 351.81 1.60543 -2.52718 0
M  V30 3623 H 349.356 0.770933 -1.21625 0
M  V30 3624 H 351.309 3.87831 -1.64819 0
M  V30 3625 H 350.033 3.21036 -0.600289 0
M  V30 3626 H 348.692 2.55452 -2.62944 0
M  V30 3627 H 348.34 4.78429 -1.55288 0
M  V30 3628 H 348.04 4.85679 -3.30741 0
M  V30 3629 H 349.564 5.50647 -2.63857 0
M  V30 3630 H 350.978 3.87815 -4.22223 0
M  V30 3631 H 349.375 3.46696 -4.89818 0
M  V30 3632 H 350.445 2.16983 -4.33643 0
M  V30 3633 N 351.788 1.33704 0.83433 0
M  V30 3634 C 353.065 1.16011 1.57483 0
M  V30 3635 C 353.445 -0.27176 2.09343 0
M  V30 3636 O 352.793 -1.27146 1.89858 0
M  V30 3637 C 353.003 2.20507 2.70514 0
M  V30 3638 C 354.351 2.54898 3.39577 0
M  V30 3639 O 355.375 2.19209 2.80759 0
M  V30 3640 O 354.234 3.16158 4.45765 0
M  V30 3641 H 351.328 0.448992 0.694503 0
M  V30 3642 H 353.874 1.453 0.876691 0
M  V30 3643 H 352.646 3.16667 2.29865 0
M  V30 3644 H 352.269 1.92329 3.47987 0
M  V30 3645 N 353.266 -1.05314 1.17247 0
M  V30 3646 C 354.196 -2.1498 0.911362 0
M  V30 3647 C 355.177 -1.69471 -0.146169 0
M  V30 3648 O 356.362 -1.942 0.003812 0
M  V30 3649 C 353.492 -3.4472 0.422528 0
M  V30 3650 C 352.446 -4.03789 1.4191 0
M  V30 3651 C 351.772 -5.28858 0.788274 0
M  V30 3652 C 353.072 -4.41418 2.7919 0
M  V30 3653 H 354.766 -2.3708 1.82848 0
M  V30 3654 H 352.312 -1.13938 0.880569 0
M  V30 3655 H 354.265 -4.20787 0.227289 0
M  V30 3656 H 352.989 -3.22269 -0.530123 0
M  V30 3657 H 351.648 -3.2979 1.60106 0
M  V30 3658 H 351.296 -5.02709 -0.171173 0
M  V30 3659 H 350.996 -5.69338 1.45353 0
M  V30 3660 H 352.52 -6.07612 0.603282 0
M  V30 3661 H 353.934 -5.08524 2.64719 0
M  V30 3662 H 352.331 -4.92913 3.42282 0
M  V30 3663 H 353.401 -3.51819 3.33693 0
M  V30 3664 N 354.744 -0.972509 -1.24016 0
M  V30 3665 C 355.991 -0.637034 -1.92219 0
M  V30 3666 C 356.319 0.828418 -1.75976 0
M  V30 3667 O 355.574 1.61206 -1.10955 0
M  V30 3668 C 355.873 -0.963694 -3.44162 0
M  V30 3669 C 355.539 -2.41807 -3.80579 0
M  V30 3670 C 354.201 -2.81556 -3.9023 0
M  V30 3671 C 356.553 -3.36172 -3.98293 0
M  V30 3672 C 353.881 -4.14702 -4.15017 0
M  V30 3673 C 356.233 -4.68952 -4.24578 0
M  V30 3674 C 354.897 -5.08472 -4.32449 0
M  V30 3675 H 354.167 -0.233107 -0.703379 0
M  V30 3676 H 356.814 -1.2249 -1.47202 0
M  V30 3677 H 355.119 -0.29365 -3.90698 0
M  V30 3678 H 356.816 -0.682449 -3.9515 0
M  V30 3679 H 353.406 -2.09988 -3.73635 0
M  V30 3680 H 357.59 -3.06644 -3.90234 0
M  V30 3681 H 352.846 -4.4494 -4.19331 0
M  V30 3682 H 357.02 -5.42037 -4.37229 0
M  V30 3683 H 354.647 -6.11665 -4.51409 0
M  V30 3684 N 356.222 1.38976 -0.743202 0
M  V30 3685 C 357.45 2.04636 -0.30525 0
M  V30 3686 C 357.865 1.56044 1.06281 0
M  V30 3687 O 357.222 0.728921 1.67311 0
M  V30 3688 C 357.273 3.60193 -0.307177 0
M  V30 3689 O 356.994 4.06998 -1.62124 0
M  V30 3690 C 358.495 4.4306 0.145928 0
M  V30 3691 H 355.715 0.65788 -0.132041 0
M  V30 3692 H 358.259 1.77866 -1.00915 0
M  V30 3693 H 356.414 3.85835 0.347898 0
M  V30 3694 H 356.828 5.01371 -1.54036 0
M  V30 3695 H 358.302 5.51921 0.0934183 0
M  V30 3696 H 358.779 4.22706 1.19231 0
M  V30 3697 H 359.385 4.22584 -0.479886 0
M  V30 3698 N 357.7 0.491464 1.49741 0
M  V30 3699 C 358.647 -0.292027 2.28945 0
M  V30 3700 C 359.617 -0.968973 1.34908 0
M  V30 3701 O 360.802 -0.97748 1.6386 0
M  V30 3702 C 357.942 -1.35617 3.17336 0
M  V30 3703 C 357.055 -0.691957 4.26422 0
M  V30 3704 C 356.19 -1.73572 5.02042 0
M  V30 3705 C 355.229 -1.05286 6.02977 0
M  V30 3706 N 354.366 -2.0404 6.71798 0
M  V30 3707 H 359.206 0.389654 2.95442 0
M  V30 3708 H 356.743 0.204003 1.45679 0
M  V30 3709 H 358.701 -1.98502 3.66951 0
M  V30 3710 H 357.331 -2.00674 2.52844 0
M  V30 3711 H 356.383 0.0499523 3.80367 0
M  V30 3712 H 357.695 -0.153946 4.98562 0
M  V30 3713 H 356.849 -2.43987 5.55478 0
M  V30 3714 H 355.588 -2.30757 4.29654 0
M  V30 3715 H 354.593 -0.334446 5.48782 0
M  V30 3716 H 355.818 -0.487636 6.77347 0
M  V30 3717 H 353.764 -2.60205 6.02187 0
M  V30 3718 H 353.681 -1.55279 7.39881 0
M  V30 3719 H 354.949 -2.73772 7.29842 0
M  V30 3720 N 359.178 -1.55987 0.224894 0
M  V30 3721 C 360.455 -1.90232 -0.455083 0
M  V30 3722 C 360.835 -1.14269 -1.77499 0
M  V30 3723 O 360.183 -0.253079 -2.27094 0
M  V30 3724 C 360.393 -3.42993 -0.644758 0
M  V30 3725 C 361.741 -4.13821 -0.950669 0
M  V30 3726 O 362.765 -3.4861 -0.731423 0
M  V30 3727 O 361.624 -5.29128 -1.36695 0
M  V30 3728 H 358.718 -0.79108 -0.241084 0
M  V30 3729 H 361.264 -1.67581 0.267327 0
M  V30 3730 H 360.036 -3.90252 0.28613 0
M  V30 3731 H 359.659 -3.71434 -1.41853 0
M  V30 3732 N 360.656 0.0484629 -1.57525 0
M  V30 3733 C 361.884 0.755421 -1.92616 0
M  V30 3734 C 362.299 1.69919 -0.822984 0
M  V30 3735 O 361.656 1.81378 0.202085 0
M  V30 3736 C 361.707 1.52915 -3.27566 0
M  V30 3737 O 361.428 0.62329 -4.33644 0
M  V30 3738 C 362.929 2.33502 -3.76818 0
M  V30 3739 H 360.149 0.213465 -0.63614 0
M  V30 3740 H 362.693 0.0117698 -2.04497 0
M  V30 3741 H 360.848 2.22486 -3.17142 0
M  V30 3742 H 361.262 1.16383 -5.11425 0
M  V30 3743 H 362.736 2.83214 -4.73808 0
M  V30 3744 H 363.213 3.14068 -3.07014 0
M  V30 3745 H 363.819 1.69043 -3.90262 0
M  V30 3746 N 362.134 1.5431 0.320358 0
M  V30 3747 C 363.382 1.72327 1.05583 0
M  V30 3748 C 363.703 0.50149 1.88441 0
M  V30 3749 O 362.973 -0.48448 1.89815 0
M  V30 3750 H 361.553 0.635387 0.3928 0
M  V30 3751 H 364.215 1.91621 0.356019 0
M  V30 3752 H 363.311 2.60426 1.72003 0
M  V30 3753 N 363.613 -0.582584 1.46437 0
M  V30 3754 C 364.841 -1.36682 1.55324 0
M  V30 3755 C 365.256 -1.87796 0.194409 0
M  V30 3756 O 364.613 -1.63623 -0.808318 0
M  V30 3757 C 364.664 -2.55426 2.55812 0
M  V30 3758 O 364.385 -2.0643 3.86417 0
M  V30 3759 C 365.886 -3.47976 2.74641 0
M  V30 3760 H 363.106 -0.417545 0.525259 0
M  V30 3761 H 365.65 -0.708219 1.91845 0
M  V30 3762 H 363.805 -3.17275 2.22295 0
M  V30 3763 H 364.219 -2.83762 4.41111 0
M  V30 3764 H 365.693 -4.27775 3.48874 0
M  V30 3765 H 366.17 -3.99919 1.81553 0
M  V30 3766 H 366.776 -2.91962 3.09255 0
M  V30 3767 N 365.091 -1.34144 -0.827227 0
M  V30 3768 C 366.502 -1.23557 -1.39966 0
M  V30 3769 C 366.853 0.140731 -1.95695 0
M  V30 3770 O 365.978 1.04087 -1.89723 0
M  V30 3771 C 366.573 -2.23708 -2.54441 0
M  V30 3772 C 365.132 -2.16924 -3.07605 0
M  V30 3773 C 364.279 -2.10549 -1.80456 0
M  V30 3774 H 367.23 -1.45573 -0.631991 0
M  V30 3775 H 367.251 -1.85157 -3.32411 0
M  V30 3776 H 366.763 -3.23866 -2.13851 0
M  V30 3777 H 364.864 -1.20107 -3.52711 0
M  V30 3778 H 364.977 -3.07988 -3.66988 0
M  V30 3779 H 363.341 -1.56203 -2.01178 0
M  V30 3780 H 364.124 -3.12535 -1.42046 0
M  V30 3781 N 366.569 1.04691 -1.17803 0
M  V30 3782 C 367.532 2.10724 -0.901545 0
M  V30 3783 C 368.532 1.6042 0.110437 0
M  V30 3784 O 369.722 1.7377 -0.122303 0
M  V30 3785 C 366.854 3.39084 -0.351409 0
M  V30 3786 H 368.047 2.36686 -1.84174 0
M  V30 3787 H 365.6 1.21015 -0.98919 0
M  V30 3788 H 366.335 3.18782 0.59569 0
M  V30 3789 H 366.12 3.76909 -1.08083 0
M  V30 3790 H 367.61 4.17227 -0.176451 0
M  V30 3791 N 368.047 0.979072 1.23499 0
M  V30 3792 C 368.994 0.517904 2.24914 0
M  V30 3793 C 369.964 -0.442525 1.60097 0
M  V30 3794 O 371.149 -0.350365 1.87556 0
M  V30 3795 C 368.289 -0.174813 3.44657 0
M  V30 3796 C 367.402 0.825721 4.24035 0
M  V30 3797 C 366.537 0.107946 5.3109 0
M  V30 3798 C 365.576 1.09778 6.02175 0
M  V30 3799 N 364.713 0.40925 7.00906 0
M  V30 3800 H 369.553 1.38751 2.63727 0
M  V30 3801 H 367.09 0.695303 1.2963 0
M  V30 3802 H 369.048 -0.593233 4.12961 0
M  V30 3803 H 367.678 -1.0083 3.06648 0
M  V30 3804 H 366.73 1.36253 3.55161 0
M  V30 3805 H 368.042 1.58005 4.73113 0
M  V30 3806 H 367.196 -0.367904 6.05583 0
M  V30 3807 H 365.935 -0.678994 4.8295 0
M  V30 3808 H 364.94 1.5844 5.26476 0
M  V30 3809 H 366.165 1.88536 6.52404 0
M  V30 3810 H 364.111 -0.358506 6.5502 0
M  V30 3811 H 364.028 1.10226 7.47921 0
M  V30 3812 H 365.296 -0.0442557 7.79487 0
M  V30 3813 N 369.525 -1.3858 0.750561 0
M  V30 3814 C 370.457 -2.29057 0.0810714 0
M  V30 3815 C 371.47 -1.47596 -0.686973 0
M  V30 3816 O 372.659 -1.70495 -0.528563 0
M  V30 3817 C 369.759 -3.26475 -0.909247 0
M  V30 3818 C 368.932 -4.36945 -0.199478 0
M  V30 3819 C 367.991 -5.14572 -1.10011 0
M  V30 3820 O 367.017 -5.66321 -0.57177 0
M  V30 3821 N 368.219 -5.27262 -2.42849 0
M  V30 3822 H 370.984 -2.87153 0.858087 0
M  V30 3823 H 368.545 -1.50328 0.60109 0
M  V30 3824 H 370.537 -3.75285 -1.51471 0
M  V30 3825 H 369.107 -2.69298 -1.58736 0
M  V30 3826 H 368.327 -3.8981 0.586664 0
M  V30 3827 H 369.615 -5.07963 0.291783 0
M  V30 3828 H 369.013 -4.86763 -2.88233 0
M  V30 3829 H 367.57 -5.79456 -2.98453 0
M  V30 3830 N 371.003 -0.499398 -1.49478 0
M  V30 3831 C 372.25 0.0456899 -2.02448 0
M  V30 3832 C 372.578 1.37142 -1.37921 0
M  V30 3833 O 371.833 1.89111 -0.503544 0
M  V30 3834 C 372.132 0.248424 -3.56536 0
M  V30 3835 C 371.798 -0.999107 -4.39692 0
M  V30 3836 C 370.46 -1.34108 -4.62135 0
M  V30 3837 C 372.812 -1.82842 -4.88076 0
M  V30 3838 C 370.14 -2.51191 -5.30208 0
M  V30 3839 C 372.492 -2.99076 -5.57437 0
M  V30 3840 C 371.156 -3.33655 -5.78127 0
M  V30 3841 H 370.426 0.0167191 -0.740811 0
M  V30 3842 H 373.073 -0.65923 -1.79795 0
M  V30 3843 H 371.378 1.03586 -3.77859 0
M  V30 3844 H 373.075 0.684605 -3.95113 0
M  V30 3845 H 369.665 -0.722729 -4.22463 0
M  V30 3846 H 373.849 -1.57737 -4.70566 0
M  V30 3847 H 369.105 -2.78221 -5.44429 0
M  V30 3848 H 373.279 -3.63664 -5.93904 0
M  V30 3849 H 370.906 -4.24483 -6.30649 0
M  V30 3850 N 372.481 1.55866 -0.233164 0
M  V30 3851 C 373.428 2.20796 0.67215 0
M  V30 3852 C 374.398 1.16731 1.18166 0
M  V30 3853 O 375.583 1.45129 1.23864 0
M  V30 3854 C 372.723 2.90072 1.86955 0
M  V30 3855 C 371.836 4.08759 1.39786 0
M  V30 3856 C 370.971 4.65787 2.55374 0
M  V30 3857 C 370.01 5.76752 2.04998 0
M  V30 3858 N 369.147 6.28021 3.13901 0
M  V30 3859 H 373.987 2.9779 0.111749 0
M  V30 3860 H 371.524 1.47036 0.0434007 0
M  V30 3861 H 373.482 3.28428 2.57276 0
M  V30 3862 H 372.112 2.15575 2.40265 0
M  V30 3863 H 371.164 3.7581 0.589173 0
M  V30 3864 H 372.476 4.88906 0.98856 0
M  V30 3865 H 371.63 5.06646 3.33758 0
M  V30 3866 H 370.369 3.84828 2.99598 0
M  V30 3867 H 369.374 5.35383 1.25079 0
M  V30 3868 H 370.599 6.59553 1.61759 0
M  V30 3869 H 368.545 5.49971 3.57586 0
M  V30 3870 H 368.462 7.03323 2.7726 0
M  V30 3871 H 369.73 6.73538 3.92386 0
M  V30 3872 N 373.959 -0.0401083 1.57549 0
M  V30 3873 C 375.189 -0.744115 1.92734 0
M  V30 3874 C 375.597 -1.70005 0.830348 0
M  V30 3875 O 374.94 -1.82576 -0.20286 0
M  V30 3876 C 375.002 -1.56516 3.2364 0
M  V30 3877 C 374.666 -0.7752 4.50377 0
M  V30 3878 C 375.663 -0.0803326 5.19838 0
M  V30 3879 C 373.348 -0.733002 4.96923 0
M  V30 3880 C 375.342 0.646154 6.34116 0
M  V30 3881 C 373.029 -0.00276321 6.111 0
M  V30 3882 C 374.027 0.685585 6.7955 0
M  V30 3883 O 373.715 1.40399 7.91545 0
M  V30 3884 H 373.447 -0.214861 0.640945 0
M  V30 3885 H 376.001 -0.00503675 2.05399 0
M  V30 3886 H 374.231 -2.3478 3.07271 0
M  V30 3887 H 375.92 -2.15076 3.44234 0
M  V30 3888 H 376.686 -0.104035 4.84888 0
M  V30 3889 H 372.565 -1.25827 4.43496 0
M  V30 3890 H 376.109 1.18398 6.87479 0
M  V30 3891 H 372.006 0.0229012 6.45496 0
M  V30 3892 H 372.774 1.31653 8.07843 0
M  V30 3893 N 375.437 -1.54477 -0.31217 0
M  V30 3894 C 376.665 -1.77205 -1.068 0
M  V30 3895 C 377.08 -0.526114 -1.81321 0
M  V30 3896 O 376.437 0.503647 -1.75413 0
M  V30 3897 C 376.488 -2.97253 -2.05725 0
M  V30 3898 O 376.209 -4.1703 -1.34228 0
M  V30 3899 C 377.71 -3.32281 -2.93435 0
M  V30 3900 H 374.93 -0.591287 -0.317208 0
M  V30 3901 H 377.474 -2.01398 -0.354834 0
M  V30 3902 H 375.629 -2.753 -2.72559 0
M  V30 3903 H 376.043 -4.84636 -2.00571 0
M  V30 3904 H 377.517 -4.19551 -3.58721 0
M  V30 3905 H 377.994 -2.49945 -3.61143 0
M  V30 3906 H 378.6 -3.56353 -2.32147 0
M  V30 3907 N 376.915 0.57481 -1.46744 0
M  V30 3908 C 377.863 1.70435 -1.58286 0
M  V30 3909 C 378.857 1.63287 -0.450956 0
M  V30 3910 O 380.063 1.68685 -0.628121 0
M  V30 3911 H 376.438 0.56364 -0.497809 0
M  V30 3912 H 378.409 1.57833 -2.53242 0
M  V30 3913 C 377.158 3.08815 -1.59776 0
M  V30 3914 H 376.481 3.1499 -2.46214 0
M  V30 3915 H 377.921 3.87588 -1.71905 0
M  V30 3916 C 376.38 3.35301 -0.327812 0
M  V30 3917 O 376.91 3.97511 0.57861 0
M  V30 3918 N 375.116 2.89816 -0.213274 0
M  V30 3919 H 374.663 2.39371 -0.951798 0
M  V30 3920 H 374.621 3.0791 0.63553 0
M  V30 3921 N 378.394 1.34581 0.820102 0
M  V30 3922 C 379.357 1.2628 1.91275 0
M  V30 3923 C 380.357 0.177344 1.59819 0
M  V30 3924 O 381.547 0.430156 1.68806 0
M  V30 3925 C 378.679 0.950327 3.27386 0
M  V30 3926 H 379.872 2.23421 2.00057 0
M  V30 3927 H 377.425 1.1891 1.0144 0
M  V30 3928 H 378.16 -0.0177938 3.24295 0
M  V30 3929 H 377.945 1.73549 3.51601 0
M  V30 3930 H 379.435 0.917492 4.07396 0
M  V30 3931 N 379.872 -1.04064 1.18357 0
M  V30 3932 C 381.283 -1.58719 0.98312 0
M  V30 3933 C 381.634 -1.90556 -0.467193 0
M  V30 3934 O 380.759 -1.69561 -1.34454 0
M  V30 3935 C 381.354 -2.88379 1.77828 0
M  V30 3936 C 379.913 -3.3965 1.62218 0
M  V30 3937 C 379.06 -2.13235 1.77274 0
M  V30 3938 H 382.011 -0.867359 1.32901 0
M  V30 3939 H 382.032 -3.58773 1.26737 0
M  V30 3940 H 381.544 -2.65176 2.83379 0
M  V30 3941 H 379.645 -3.67866 0.592036 0
M  V30 3942 H 379.758 -4.13475 2.42023 0
M  V30 3943 H 378.122 -2.24542 1.20221 0
M  V30 3944 H 378.905 -1.92487 2.8426 0
M  V30 3945 N 381.35 -0.985608 -1.22978 0
M  V30 3946 C 382.627 -0.573599 -1.87001 0
M  V30 3947 C 383.007 0.949213 -1.88555 0
M  V30 3948 O 382.355 1.82811 -1.37086 0
M  V30 3949 C 382.565 -1.18564 -3.28243 0
M  V30 3950 C 383.913 -1.28163 -4.04796 0
M  V30 3951 O 384.937 -1.13949 -3.37482 0
M  V30 3952 O 383.796 -1.50832 -5.25273 0
M  V30 3953 H 380.89 -0.193868 -0.803955 0
M  V30 3954 H 383.436 -1.08102 -1.30813 0
M  V30 3955 H 382.208 -2.22758 -3.21706 0
M  V30 3956 H 381.831 -0.663363 -3.92027 0
M  V30 3957 N 382.828 1.3818 -0.7579 0
M  V30 3958 C 383.791 2.28764 -0.141286 0
M  V30 3959 C 384.791 1.47388 0.642907 0
M  V30 3960 O 385.981 1.67781 0.468536 0
M  V30 3961 C 383.113 3.31184 0.808069 0
M  V30 3962 H 384.306 2.848 -0.939633 0
M  V30 3963 H 381.859 1.47212 -0.525191 0
M  V30 3964 H 382.594 2.80247 1.63193 0
M  V30 3965 H 382.379 3.91314 0.248104 0
M  V30 3966 H 383.869 3.98909 1.23536 0
M  V30 3967 N 384.306 0.507319 1.49211 0
M  V30 3968 C 385.583 -0.0982702 1.95353 0
M  V30 3969 C 385.963 -1.53516 1.449 0
M  V30 3970 O 385.311 -2.18594 0.66551 0
M  V30 3971 C 385.521 -0.00440283 3.49 0
M  V30 3972 C 386.869 -0.175147 4.24239 0
M  V30 3973 O 387.893 -0.0792891 3.56112 0
M  V30 3974 O 386.752 -0.37276 5.45227 0
M  V30 3975 H 383.846 -0.0918236 0.821887 0
M  V30 3976 H 386.392 0.570307 1.5983 0
M  V30 3977 H 385.164 0.997402 3.78375 0
M  V30 3978 H 384.787 -0.712845 3.91158 0
M  V30 3979 N 385.784 -1.5574 0.241426 0
M  V30 3980 C 386.747 -2.19877 -0.647063 0
M  V30 3981 C 387.747 -1.16642 -1.10686 0
M  V30 3982 O 388.937 -1.41757 -1.01245 0
M  V30 3983 C 386.069 -2.83797 -1.88871 0
M  V30 3984 H 387.262 -2.99772 -0.087574 0
M  V30 3985 H 384.815 -1.56298 -0.00813574 0
M  V30 3986 H 385.55 -2.07824 -2.48957 0
M  V30 3987 H 385.335 -3.59414 -1.56728 0
M  V30 3988 H 386.825 -3.32898 -2.52129 0
M  V30 3989 N 387.262 0.0317525 -1.57568 0
M  V30 3990 C 388.678 0.38735 -1.54828 0
M  V30 3991 C 388.878 1.7677 -0.967187 0
M  V30 3992 O 387.934 2.45581 -0.587063 0
M  V30 3993 C 389.247 0.291667 -2.99282 0
M  V30 3994 C 390.795 0.368946 -3.10818 0
M  V30 3995 C 391.27 0.302741 -4.56998 0
M  V30 3996 N 392.761 0.361617 -4.61786 0
M  V30 3997 C 393.496 0.333238 -5.72431 0
M  V30 3998 N 392.992 0.257308 -6.92322 0
M  V30 3999 N 394.785 0.382769 -5.60795 0
M  V30 4000 H 386.936 -0.871609 -1.93692 0
M  V30 4001 H 389.199 -0.331161 -0.888277 0
M  V30 4002 H 388.905 -0.656794 -3.45513 0
M  V30 4003 H 388.779 1.08638 -3.61217 0
M  V30 4004 H 391.166 1.30784 -2.64536 0
M  V30 4005 H 391.247 -0.455066 -2.5172 0
M  V30 4006 H 390.891 -0.632473 -5.03947 0
M  V30 4007 H 390.821 1.14482 -5.14005 0
M  V30 4008 H 393.312 0.422923 -3.75526 0
M  V30 4009 H 393.625 0.24068 -7.72425 0
M  V30 4010 H 391.97 0.223396 -6.94641 0
M  V30 4011 H 395.161 0.44006 -4.66027 0
M  V30 4012 H 395.334 0.357184 -6.47015 0
M  V30 4013 N 388.74 1.54641 0.303973 0
M  V30 4014 C 389.703 1.84646 1.35789 0
M  V30 4015 C 390.703 0.7192 1.4382 0
M  V30 4016 O 391.893 0.987491 1.43507 0
M  V30 4017 C 389.025 2.02407 2.74307 0
M  V30 4018 H 390.218 2.78829 1.10429 0
M  V30 4019 H 387.771 1.46658 0.540487 0
M  V30 4020 H 388.506 1.10502 3.04893 0
M  V30 4021 H 388.291 2.84453 2.69868 0
M  V30 4022 H 389.781 2.27002 3.50514 0
M  V30 4023 N 390.218 -0.567019 1.47046 0
M  V30 4024 C 391.464 -1.32658 1.53394 0
M  V30 4025 C 391.797 -1.93254 0.19148 0
M  V30 4026 O 391.072 -1.77338 -0.798844 0
M  V30 4027 C 391.355 -2.44412 2.64452 0
M  V30 4028 C 391.208 -1.88749 4.08282 0
M  V30 4029 C 392.527 -3.46387 2.71485 0
M  V30 4030 H 389.646 -0.48098 0.558415 0
M  V30 4031 H 392.288 -0.635481 1.79058 0
M  V30 4032 H 390.438 -3.03363 2.427 0
M  V30 4033 H 392.11 -1.34134 4.41368 0
M  V30 4034 H 390.353 -1.19481 4.17021 0
M  V30 4035 H 391.024 -2.69491 4.81745 0
M  V30 4036 H 393.5 -2.9734 2.91081 0
M  V30 4037 H 392.376 -4.2202 3.50985 0
M  V30 4038 H 392.637 -4.04616 1.78153 0
M  V30 4039 N 391.696 -1.35014 -0.812953 0
M  V30 4040 C 392.628 -1.23262 -1.93233 0
M  V30 4041 C 393.641 -0.157371 -1.62038 0
M  V30 4042 O 394.83 -0.410096 -1.73725 0
M  V30 4043 C 391.93 -0.87392 -3.27438 0
M  V30 4044 C 391.103 -2.04622 -3.86586 0
M  V30 4045 C 390.162 -1.66432 -4.99186 0
M  V30 4046 O 389.188 -2.38222 -5.16951 0
M  V30 4047 N 390.39 -0.584248 -5.77552 0
M  V30 4048 H 393.155 -2.19699 -2.03844 0
M  V30 4049 H 390.716 -1.281 -0.99005 0
M  V30 4050 H 392.708 -0.600039 -4.00227 0
M  V30 4051 H 391.278 0.00057392 -3.126 0
M  V30 4052 H 390.498 -2.48427 -3.06068 0
M  V30 4053 H 391.786 -2.82999 -4.22835 0
M  V30 4054 H 391.184 0.0123526 -5.65699 0
M  V30 4055 H 389.741 -0.37013 -6.50748 0
M  V30 4056 N 393.175 1.03435 -1.18907 0
M  V30 4057 C 394.138 2.09756 -0.923844 0
M  V30 4058 C 395.138 1.60528 0.093416 0
M  V30 4059 O 396.328 1.73631 -0.140727 0
M  V30 4060 C 393.46 3.38692 -0.387354 0
M  V30 4061 H 394.653 2.34719 -1.86674 0
M  V30 4062 H 392.206 1.19959 -1.00197 0
M  V30 4063 H 392.941 3.19396 0.561845 0
M  V30 4064 H 392.726 3.75742 -1.12074 0
M  V30 4065 H 394.216 4.17016 -0.220694 0
M  V30 4066 N 394.653 0.992116 1.22453 0
M  V30 4067 C 395.881 0.685944 1.95198 0
M  V30 4068 C 396.296 -0.749233 1.73297 0
M  V30 4069 O 395.653 -1.50549 1.03156 0
M  V30 4070 C 395.704 0.981395 3.47924 0
M  V30 4071 O 395.425 2.36018 3.6909 0
M  V30 4072 C 396.926 0.692815 4.37853 0
M  V30 4073 H 394.146 0.253821 0.621141 0
M  V30 4074 H 396.69 1.32668 1.55626 0
M  V30 4075 H 394.845 0.386481 3.85467 0
M  V30 4076 H 395.259 2.45884 4.63294 0
M  V30 4077 H 396.733 0.949818 5.43767 0
M  V30 4078 H 397.21 -0.373181 4.37612 0
M  V30 4079 H 397.816 1.26874 4.05935 0
M  V30 4080 N 396.131 -1.37776 0.765217 0
M  V30 4081 C 397.361 -2.03828 0.337277 0
M  V30 4082 C 397.769 -1.57841 -1.04321 0
M  V30 4083 O 397.112 -0.752043 -1.67601 0
M  V30 4084 C 397.174 -3.58292 0.294407 0
M  V30 4085 C 396.838 -4.27384 1.61838 0
M  V30 4086 C 397.835 -4.51956 2.56967 0
M  V30 4087 C 395.52 -4.65345 1.89102 0
M  V30 4088 C 397.514 -5.13536 3.77571 0
M  V30 4089 C 395.201 -5.26647 3.09978 0
M  V30 4090 C 396.199 -5.50679 4.04032 0
M  V30 4091 O 395.887 -6.10702 5.2278 0
M  V30 4092 H 395.619 -0.661292 0.140248 0
M  V30 4093 H 398.173 -1.77222 1.03834 0
M  V30 4094 H 396.403 -3.83918 -0.462983 0
M  V30 4095 H 398.092 -4.05763 -0.105581 0
M  V30 4096 H 398.858 -4.23048 2.37183 0
M  V30 4097 H 394.737 -4.45978 1.16725 0
M  V30 4098 H 398.281 -5.3221 4.50997 0
M  V30 4099 H 394.178 -5.54979 3.29649 0
M  V30 4100 H 394.946 -6.29183 5.23517 0
M  V30 4101 N 397.609 -0.515225 -1.4894 0
M  V30 4102 C 398.855 0.016187 -2.03394 0
M  V30 4103 C 399.21 1.33377 -1.38666 0
M  V30 4104 O 398.503 1.84461 -0.518141 0
M  V30 4105 C 398.697 0.210595 -3.56779 0
M  V30 4106 C 398.526 -1.08659 -4.36375 0
M  V30 4107 C 397.296 -1.64237 -4.77864 0
M  V30 4108 C 399.494 -1.9935 -4.74093 0
M  V30 4109 N 397.476 -2.88398 -5.41941 0
M  V30 4110 C 398.847 -3.08088 -5.38035 0
M  V30 4111 C 400.902 -1.99856 -4.56029 0
M  V30 4112 C 399.605 -4.17377 -5.85823 0
M  V30 4113 C 401.631 -3.08129 -5.04787 0
M  V30 4114 C 400.993 -4.15586 -5.68742 0
M  V30 4115 H 397.092 -0.0352107 -0.781207 0
M  V30 4116 H 399.676 -0.693237 -1.8194 0
M  V30 4117 H 397.847 0.889088 -3.78087 0
M  V30 4118 H 399.579 0.740287 -3.97872 0
M  V30 4119 H 396.334 -1.18566 -4.58518 0
M  V30 4120 H 396.758 -3.51572 -5.78555 0
M  V30 4121 H 401.4 -1.18079 -4.05977 0
M  V30 4122 H 399.118 -4.99943 -6.34888 0
M  V30 4123 H 402.704 -3.09557 -4.92611 0
M  V30 4124 H 401.584 -4.97987 -6.05787 0
M  V30 4125 N 399.087 1.5561 -0.249682 0
M  V30 4126 C 400.05 2.20217 0.635394 0
M  V30 4127 C 401.05 1.17227 1.10066 0
M  V30 4128 O 402.24 1.42292 1.00492 0
M  V30 4129 C 399.372 2.84794 1.87363 0
M  V30 4130 H 400.565 2.99814 0.0716752 0
M  V30 4131 H 398.118 1.563 -0.000153234 0
M  V30 4132 H 398.853 2.09142 2.47851 0
M  V30 4133 H 398.638 3.60241 1.5482 0
M  V30 4134 H 400.128 3.3423 2.5036 0
M  V30 4135 N 400.565 -0.0233959 1.57583 0
M  V30 4136 C 401.842 -0.748794 1.807 0
M  V30 4137 C 402.222 -1.9327 0.849106 0
M  V30 4138 O 401.57 -2.28247 -0.107468 0
M  V30 4139 C 401.78 -1.17651 3.28571 0
M  V30 4140 C 403.128 -1.59008 3.93702 0
M  V30 4141 O 404.152 -1.27094 3.32755 0
M  V30 4142 O 403.011 -2.18264 5.01022 0
M  V30 4143 H 400.105 -0.362578 0.743281 0
M  V30 4144 H 402.651 0.000261958 1.697 0
M  V30 4145 H 401.423 -0.331603 3.89892 0
M  V30 4146 H 401.046 -1.98541 3.44481 0
M  V30 4147 N 402.043 -1.548 -0.295768 0
M  V30 4148 C 402.975 -1.82492 -1.3867 0
M  V30 4149 C 403.988 -0.708134 -1.46592 0
M  V30 4150 O 405.177 -0.985686 -1.48817 0
M  V30 4151 C 402.277 -1.95256 -2.76999 0
M  V30 4152 C 401.45 -3.25709 -2.91946 0
M  V30 4153 C 400.509 -3.28824 -4.10806 0
M  V30 4154 O 399.535 -4.02328 -4.02643 0
M  V30 4155 N 400.737 -2.5459 -5.21694 0
M  V30 4156 H 403.502 -2.76646 -1.15269 0
M  V30 4157 H 401.063 -1.54438 -0.485849 0
M  V30 4158 H 403.055 -1.94736 -3.54768 0
M  V30 4159 H 401.625 -1.08072 -2.93324 0
M  V30 4160 H 400.845 -3.38959 -2.01247 0
M  V30 4161 H 402.133 -4.11786 -2.98847 0
M  V30 4162 H 401.531 -1.94512 -5.31208 0
M  V30 4163 H 400.088 -2.59818 -5.97778 0
M  V30 4164 N 403.521 0.559213 -1.47345 0
M  V30 4165 C 404.767 1.31614 -1.55079 0
M  V30 4166 C 405.122 1.91257 -0.209422 0
M  V30 4167 O 404.415 1.74796 0.784656 0
M  V30 4168 C 404.609 2.44853 -2.6035 0
M  V30 4169 C 404.438 1.96305 -4.04591 0
M  V30 4170 C 403.208 1.8024 -4.72061 0
M  V30 4171 C 405.406 1.50872 -4.91673 0
M  V30 4172 N 403.388 1.26011 -6.00828 0
M  V30 4173 C 404.759 1.08395 -6.10451 0
M  V30 4174 C 406.814 1.38905 -4.78132 0
M  V30 4175 C 405.517 0.551399 -7.17183 0
M  V30 4176 C 407.543 0.870518 -5.84958 0
M  V30 4177 C 406.905 0.455661 -7.02925 0
M  V30 4178 H 403.004 0.473712 -0.62219 0
M  V30 4179 H 405.588 0.634103 -1.84085 0
M  V30 4180 H 403.759 3.10589 -2.33215 0
M  V30 4181 H 405.491 3.11849 -2.57938 0
M  V30 4182 H 402.246 2.02895 -4.27937 0
M  V30 4183 H 402.67 1.00991 -6.69425 0
M  V30 4184 H 407.312 1.69591 -3.87297 0
M  V30 4185 H 405.03 0.232159 -8.07766 0
M  V30 4186 H 408.616 0.781507 -5.76527 0
M  V30 4187 H 407.496 0.0606414 -7.84177 0
M  V30 4188 N 404.999 1.35443 0.805782 0
M  V30 4189 C 405.962 1.28301 1.89925 0
M  V30 4190 C 406.962 0.194285 1.59622 0
M  V30 4191 O 408.152 0.448036 1.6834 0
M  V30 4192 C 405.284 0.984997 3.2636 0
M  V30 4193 H 406.477 2.2553 1.97677 0
M  V30 4194 H 404.03 1.19979 1.00173 0
M  V30 4195 H 404.765 0.016603 3.24296 0
M  V30 4196 H 404.55 1.77269 3.4974 0
M  V30 4197 H 406.04 0.960651 4.064 0
M  V30 4198 N 406.477 -1.02803 1.19454 0
M  V30 4199 C 407.424 -2.11099 0.933046 0
M  V30 4200 C 408.394 -1.65571 -0.132447 0
M  V30 4201 O 409.579 -1.90797 0.00987576 0
M  V30 4202 C 406.719 -3.41763 0.478747 0
M  V30 4203 C 405.832 -4.00833 1.6111 0
M  V30 4204 C 404.967 -5.19511 1.10825 0
M  V30 4205 C 404.006 -5.70639 2.21445 0
M  V30 4206 N 403.143 -6.80589 1.72461 0
M  V30 4207 H 407.983 -2.32804 1.86028 0
M  V30 4208 H 405.52 -1.14179 0.927441 0
M  V30 4209 H 407.478 -4.16736 0.196745 0
M  V30 4210 H 406.108 -3.20166 -0.411493 0
M  V30 4211 H 405.16 -3.23066 2.00829 0
M  V30 4212 H 406.472 -4.34794 2.4445 0
M  V30 4213 H 405.626 -6.01645 0.781533 0
M  V30 4214 H 404.365 -4.87086 0.244606 0
M  V30 4215 H 403.37 -4.87116 2.54947 0
M  V30 4216 H 404.595 -6.05102 3.08267 0
M  V30 4217 H 402.541 -6.50016 0.884056 0
M  V30 4218 H 402.458 -7.13681 2.49389 0
M  V30 4219 H 403.726 -7.66317 1.42755 0
M  V30 4220 N 407.956 -0.998596 -1.21925 0
M  V30 4221 C 408.866 -0.562736 -2.27751 0
M  V30 4222 C 409.882 0.391203 -1.69545 0
M  V30 4223 O 411.058 0.256625 -1.99758 0
M  V30 4224 C 408.123 0.11012 -3.46525 0
M  V30 4225 C 407.184 -0.887495 -4.20026 0
M  V30 4226 C 406.417 -0.246654 -5.3313 0
M  V30 4227 O 406.64 0.958088 -5.62296 0
M  V30 4228 O 405.574 -0.954374 -5.94286 0
M  V30 4229 H 409.4 -1.44329 -2.67213 0
M  V30 4230 H 406.985 -0.767135 -1.28201 0
M  V30 4231 H 408.867 0.486756 -4.18579 0
M  V30 4232 H 407.542 0.965154 -3.08976 0
M  V30 4233 H 406.449 -1.31517 -3.5022 0
M  V30 4234 H 407.782 -1.71191 -4.6147 0
M  V30 4235 N 409.434 1.37368 -0.772513 0
M  V30 4236 C 410.366 2.28899 -0.117502 0
M  V30 4237 C 411.379 1.4867 0.663405 0
M  V30 4238 O 412.568 1.71314 0.501372 0
M  V30 4239 C 409.668 3.2788 0.857192 0
M  V30 4240 C 408.841 4.37207 0.129938 0
M  V30 4241 C 407.9 5.16257 1.01811 0
M  V30 4242 O 406.926 5.67159 0.481601 0
M  V30 4243 N 408.128 5.31058 2.3443 0
M  V30 4244 H 410.893 2.85752 -0.903662 0
M  V30 4245 H 408.454 1.49353 -0.62493 0
M  V30 4246 H 410.446 3.77647 1.45482 0
M  V30 4247 H 409.016 2.7179 1.54432 0
M  V30 4248 H 408.236 3.88827 -0.648605 0
M  V30 4249 H 409.524 5.07434 -0.372559 0
M  V30 4250 H 408.922 4.91287 2.80452 0
M  V30 4251 H 407.479 5.84131 2.89197 0
M  V30 4252 N 410.912 0.523116 1.48665 0
M  V30 4253 C 412.16 -0.0134497 2.02096 0
M  V30 4254 C 412.481 -1.35418 1.40311 0
M  V30 4255 O 411.751 -1.87543 0.566074 0
M  V30 4256 H 410.331 -0.00795915 0.746958 0
M  V30 4257 H 412.993 0.685388 1.82451 0
M  V30 4258 H 412.089 -0.126849 3.11842 0
M  V30 4259 N 412.39 -1.55475 0.257931 0
M  V30 4260 C 413.337 -2.21837 -0.636939 0
M  V30 4261 C 414.307 -1.18596 -1.16294 0
M  V30 4262 O 415.492 -1.47081 -1.21539 0
M  V30 4263 C 412.632 -2.9301 -1.82317 0
M  V30 4264 C 411.745 -4.10931 -1.33265 0
M  V30 4265 C 410.88 -4.69791 -2.47931 0
M  V30 4266 C 409.919 -5.7994 -1.95796 0
M  V30 4267 N 409.056 -6.32935 -3.0387 0
M  V30 4268 H 413.896 -2.9793 -0.0643591 0
M  V30 4269 H 411.433 -1.47086 -0.0200031 0
M  V30 4270 H 413.391 -3.3248 -2.52018 0
M  V30 4271 H 412.021 -2.1937 -2.36805 0
M  V30 4272 H 411.073 -3.76699 -0.52931 0
M  V30 4273 H 412.385 -4.90417 -0.910654 0
M  V30 4274 H 411.539 -5.11892 -3.25656 0
M  V30 4275 H 410.278 -3.89545 -2.93438 0
M  V30 4276 H 409.283 -5.37305 -1.16546 0
M  V30 4277 H 410.508 -6.62043 -1.51246 0
M  V30 4278 H 408.454 -5.55591 -3.48791 0
M  V30 4279 H 408.371 -7.07645 -2.66035 0
M  V30 4280 H 409.639 -6.79695 -3.81621 0
M  V30 4281 N 413.868 0.0150385 -1.57593 0
M  V30 4282 C 415.093 0.718067 -1.94573 0
M  V30 4283 C 415.518 1.6734 -0.859005 0
M  V30 4284 O 414.876 1.80362 0.184147 0
M  V30 4285 C 414.924 1.43918 -3.30636 0
M  V30 4286 O 414.028 2.55299 -3.23876 0
M  V30 4287 H 413.369 0.192125 -0.635597 0
M  V30 4288 H 415.899 -0.0336708 -2.04572 0
M  V30 4289 H 415.909 1.80598 -3.65853 0
M  V30 4290 H 414.584 0.738619 -4.09289 0
M  V30 4291 H 413.161 2.21058 -3.00312 0
M  V30 4292 N 415.346 1.54954 0.287554 0
M  V30 4293 C 416.592 1.75132 1.02257 0
M  V30 4294 C 416.925 0.542858 1.86458 0
M  V30 4295 O 416.2 -0.459856 1.88986 0
M  V30 4296 C 416.483 3.04812 1.91733 0
M  V30 4297 C 416.336 4.35985 1.10622 0
M  V30 4298 C 417.655 3.30438 2.90687 0
M  V30 4299 H 414.774 0.637194 0.370341 0
M  V30 4300 H 417.416 1.87678 0.296111 0
M  V30 4301 H 415.566 2.94247 2.53675 0
M  V30 4302 H 417.238 4.58487 0.508636 0
M  V30 4303 H 415.481 4.31865 0.409271 0
M  V30 4304 H 416.152 5.23017 1.76513 0
M  V30 4305 H 418.628 3.40701 2.38877 0
M  V30 4306 H 417.504 4.22467 3.50447 0
M  V30 4307 H 417.765 2.49377 3.65053 0
M  V30 4308 N 416.824 -0.551391 1.4764 0
M  V30 4309 C 418.049 -1.33837 1.58437 0
M  V30 4310 C 418.474 -1.866 0.237063 0
M  V30 4311 O 417.832 -1.6328 -0.787994 0
M  V30 4312 C 417.88 -2.48014 2.61766 0
M  V30 4313 O 416.984 -3.50419 2.1744 0
M  V30 4314 H 416.325 -0.397299 0.532024 0
M  V30 4315 H 418.855 -0.665759 1.93465 0
M  V30 4316 H 418.865 -2.94503 2.82369 0
M  V30 4317 H 417.54 -2.08969 3.5959 0
M  V30 4318 H 416.117 -3.10196 2.06961 0
M  V30 4319 N 418.302 -1.35869 -0.798587 0
M  V30 4320 C 419.53 -1.32722 -1.58722 0
M  V30 4321 C 419.945 0.0935631 -1.88568 0
M  V30 4322 O 419.302 1.04784 -1.49421 0
M  V30 4323 C 419.353 -2.13974 -2.91371 0
M  V30 4324 O 419.074 -3.50514 -2.62815 0
M  V30 4325 C 420.575 -2.18504 -3.85708 0
M  V30 4326 H 417.795 -0.45562 -0.492596 0
M  V30 4327 H 420.339 -1.78837 -0.991843 0
M  V30 4328 H 418.494 -1.71438 -3.47402 0
M  V30 4329 H 418.908 -3.92806 -3.47568 0
M  V30 4330 H 420.382 -2.79732 -4.75872 0
M  V30 4331 H 420.859 -1.18597 -4.22885 0
M  V30 4332 H 421.465 -2.61236 -3.35612 0
M  V30 4333 N 419.78 1.02168 -1.19998 0
M  V30 4334 C 421.005 1.79833 -1.03319 0
M  V30 4335 C 421.43 1.83504 0.413281 0
M  V30 4336 O 420.788 1.26635 1.29743 0
M  V30 4337 C 420.836 3.22396 -1.61533 0
M  V30 4338 O 419.94 4.03555 -0.849519 0
M  V30 4339 H 419.281 0.554872 -0.364709 0
M  V30 4340 H 421.811 1.28542 -1.59179 0
M  V30 4341 H 421.821 3.73124 -1.65054 0
M  V30 4342 H 420.496 3.19039 -2.66809 0
M  V30 4343 H 419.073 3.62169 -0.888129 0
M  V30 4344 N 421.258 1.00505 1.21394 0
M  V30 4345 C 422.504 0.688793 1.90745 0
M  V30 4346 C 422.837 -0.778486 1.77914 0
M  V30 4347 O 422.112 -1.56433 1.15581 0
M  V30 4348 C 422.395 1.11063 3.42545 0
M  V30 4349 C 422.248 2.63737 3.64367 0
M  V30 4350 C 423.567 0.673059 4.34923 0
M  V30 4351 H 420.686 0.251702 0.692687 0
M  V30 4352 H 423.328 1.25074 1.43026 0
M  V30 4353 H 421.478 0.632508 3.83317 0
M  V30 4354 H 423.15 3.19313 3.32922 0
M  V30 4355 H 421.393 3.05248 3.08231 0
M  V30 4356 H 422.064 2.88305 4.70727 0
M  V30 4357 H 424.54 1.08392 4.01734 0
M  V30 4358 H 423.416 0.996383 5.39781 0
M  V30 4359 H 423.677 -0.425808 4.40045 0
M  V30 4360 N 422.737 -1.36956 0.779787 0
M  V30 4361 C 423.985 -1.99097 0.347079 0
M  V30 4362 C 424.306 -1.62206 -1.08232 0
M  V30 4363 O 423.576 -0.891373 -1.74446 0
M  V30 4364 H 422.156 -0.736409 0.125342 0
M  V30 4365 H 424.818 -1.67308 0.999696 0
M  V30 4366 H 423.914 -3.09107 0.431162 0
M  V30 4367 N 424.215 -0.530993 -1.48385 0
M  V30 4368 C 425.162 0.231223 -2.29639 0
M  V30 4369 C 426.132 0.932864 -1.37429 0
M  V30 4370 O 427.317 0.933692 -1.66394 0
M  V30 4371 C 424.457 1.27155 -3.2082 0
M  V30 4372 C 423.57 0.578655 -4.28107 0
M  V30 4373 C 422.705 1.602 -5.06467 0
M  V30 4374 C 421.744 0.892625 -6.05556 0
M  V30 4375 N 420.881 1.86157 -6.76971 0
M  V30 4376 H 425.721 -0.467848 -2.94305 0
M  V30 4377 H 423.258 -0.242556 -1.45086 0
M  V30 4378 H 425.216 1.88703 -3.72085 0
M  V30 4379 H 423.846 1.939 -2.58075 0
M  V30 4380 H 422.898 -0.150782 -3.80101 0
M  V30 4381 H 424.21 0.0217065 -4.98795 0
M  V30 4382 H 423.364 2.29173 -5.61751 0
M  V30 4383 H 422.103 2.19285 -4.35621 0
M  V30 4384 H 421.108 0.188829 -5.49476 0
M  V30 4385 H 422.333 0.307878 -6.78402 0
M  V30 4386 H 420.279 2.44147 -6.08875 0
M  V30 4387 H 420.196 1.35608 -7.43738 0
M  V30 4388 H 421.464 2.54325 -7.36844 0
M  V30 4389 N 425.693 1.55336 -0.266172 0
M  V30 4390 C 426.656 2.20878 0.612001 0
M  V30 4391 C 427.656 1.18388 1.08816 0
M  V30 4392 O 428.846 1.4335 0.989774 0
M  V30 4393 C 425.978 2.86765 1.84332 0
M  V30 4394 H 427.171 2.99873 0.0398718 0
M  V30 4395 H 424.724 1.56291 -0.0167309 0
M  V30 4396 H 425.459 2.11759 2.45619 0
M  V30 4397 H 425.244 3.61862 1.5099 0
M  V30 4398 H 426.734 3.36867 2.46801 0
M  V30 4399 N 427.171 -0.0066808 1.57599 0
M  V30 4400 C 428.399 -0.704087 1.94551 0
M  V30 4401 C 428.814 -1.67677 0.867746 0
M  V30 4402 O 428.171 -1.8185 -0.153925 0
M  V30 4403 C 428.222 -1.44177 3.31505 0
M  V30 4404 O 427.943 -0.508097 4.35144 0
M  V30 4405 C 429.444 -2.23429 3.82876 0
M  V30 4406 H 426.664 -0.196523 0.641576 0
M  V30 4407 H 429.208 0.042453 2.04456 0
M  V30 4408 H 427.363 -2.13999 3.22929 0
M  V30 4409 H 427.777 -1.02782 5.14331 0
M  V30 4410 H 429.251 -2.70552 4.8115 0
M  V30 4411 H 429.728 -3.05818 3.15233 0
M  V30 4412 H 430.334 -1.58636 3.94607 0
M  V30 4413 N 428.649 -1.55105 -0.279332 0
M  V30 4414 C 429.596 -1.8755 -1.34513 0
M  V30 4415 C 430.566 -0.726384 -1.49375 0
M  V30 4416 O 431.751 -0.977063 -1.63884 0
M  V30 4417 C 428.891 -2.14738 -2.70151 0
M  V30 4418 C 428.004 -3.42285 -2.63562 0
M  V30 4419 C 427.139 -3.59206 -3.91337 0
M  V30 4420 C 426.178 -4.80467 -3.79233 0
M  V30 4421 N 425.315 -4.94079 -4.98829 0
M  V30 4422 H 430.155 -2.78456 -1.06143 0
M  V30 4423 H 427.692 -1.37867 -0.512936 0
M  V30 4424 H 429.65 -2.28501 -3.49061 0
M  V30 4425 H 428.28 -1.27075 -2.96735 0
M  V30 4426 H 427.332 -3.37029 -1.76397 0
M  V30 4427 H 428.644 -4.31328 -2.50515 0
M  V30 4428 H 427.798 -3.72751 -4.78687 0
M  V30 4429 H 426.537 -2.68337 -4.07243 0
M  V30 4430 H 425.542 -4.66932 -2.90266 0
M  V30 4431 H 426.767 -5.72765 -3.64852 0
M  V30 4432 H 424.713 -4.06139 -5.15158 0
M  V30 4433 H 424.63 -5.77156 -4.8829 0
M  V30 4434 H 425.898 -5.12003 -5.8777 0
M  V30 4435 N 430.127 0.543554 -1.4793 0
M  V30 4436 C 431.06 1.66556 -1.55995 0
M  V30 4437 C 432.038 1.57315 -0.411205 0
M  V30 4438 O 433.222 1.7798 -0.620922 0
M  V30 4439 C 430.349 3.04883 -1.47527 0
M  V30 4440 C 429.395 3.32526 -2.67074 0
M  V30 4441 S 430.228 3.20282 -4.29162 0
M  V30 4442 C 431.384 4.61079 -4.23269 0
M  V30 4443 H 431.617 1.59462 -2.50917 0
M  V30 4444 H 429.15 0.725456 -1.36296 0
M  V30 4445 H 431.108 3.84665 -1.43328 0
M  V30 4446 H 429.769 3.09429 -0.539665 0
M  V30 4447 H 428.962 4.33403 -2.5725 0
M  V30 4448 H 428.564 2.60389 -2.68466 0
M  V30 4449 H 430.856 5.52318 -3.92365 0
M  V30 4450 H 431.799 4.75959 -5.24279 0
M  V30 4451 H 432.207 4.39766 -3.5393 0
M  V30 4452 N 431.605 1.3629 0.791371 0
M  V30 4453 C 432.853 1.30154 1.5461 0
M  V30 4454 C 433.174 -0.119409 1.94634 0
M  V30 4455 O 432.444 -1.05924 1.64794 0
M  V30 4456 H 431.024 0.478784 0.573389 0
M  V30 4457 H 433.686 1.70565 0.94306 0
M  V30 4458 H 432.782 1.92762 2.45457 0
M  V30 4459 N 433.083 -1.0153 1.20538 0
M  V30 4460 C 434.36 -1.72327 0.925343 0
M  V30 4461 C 434.74 -2.03383 -0.565547 0
M  V30 4462 O 434.088 -1.69934 -1.52757 0
M  V30 4463 C 434.298 -2.9902 1.79967 0
M  V30 4464 C 435.646 -3.72258 2.04228 0
M  V30 4465 O 436.67 -3.08979 1.77231 0
M  V30 4466 O 435.529 -4.86053 2.4983 0
M  V30 4467 H 432.623 -0.751099 0.346092 0
M  V30 4468 H 435.169 -1.07366 1.31417 0
M  V30 4469 H 433.941 -2.72402 2.80915 0
M  V30 4470 H 433.564 -3.71721 1.41099 0
M  V30 4471 N 434.561 -1.01147 -1.20859 0
M  V30 4472 C 435.791 -0.715872 -1.93801 0
M  V30 4473 C 436.199 0.726592 -1.74692 0
M  V30 4474 O 435.542 1.50397 -1.05482 0
M  V30 4475 C 435.604 -0.965269 -3.46299 0
M  V30 4476 C 435.268 -2.39584 -3.89164 0
M  V30 4477 C 436.265 -3.3764 -3.95342 0
M  V30 4478 C 433.95 -2.73522 -4.21297 0
M  V30 4479 C 435.944 -4.67698 -4.33056 0
M  V30 4480 C 433.631 -4.03794 -4.58687 0
M  V30 4481 C 434.629 -5.00693 -4.64538 0
M  V30 4482 O 434.317 -6.28635 -5.01072 0
M  V30 4483 H 434.049 -0.262524 -0.622942 0
M  V30 4484 H 436.603 -1.35413 -1.54443 0
M  V30 4485 H 434.833 -0.269847 -3.85757 0
M  V30 4486 H 436.522 -0.662051 -4.00464 0
M  V30 4487 H 437.288 -3.12757 -3.70686 0
M  V30 4488 H 433.167 -1.9879 -4.15937 0
M  V30 4489 H 436.711 -5.4333 -4.37537 0
M  V30 4490 H 432.608 -4.28459 -4.82797 0
M  V30 4491 H 433.376 -6.32847 -5.19083 0
M  V30 4492 N 436.039 1.36541 -0.78704 0
M  V30 4493 C 436.969 2.32659 -0.197992 0
M  V30 4494 C 437.95 1.56533 0.665697 0
M  V30 4495 O 439.135 1.84698 0.60001 0
M  V30 4496 C 436.265 3.40778 0.669901 0
M  V30 4497 C 435.219 4.27897 -0.0937039 0
M  V30 4498 C 434.545 5.27163 0.894629 0
M  V30 4499 C 435.845 5.06334 -1.28154 0
M  V30 4500 H 437.539 2.82171 -1.00099 0
M  V30 4501 H 435.085 1.35665 -0.482793 0
M  V30 4502 H 437.038 4.07008 1.09191 0
M  V30 4503 H 435.762 2.89827 1.50558 0
M  V30 4504 H 434.421 3.6322 -0.49666 0
M  V30 4505 H 434.069 4.72486 1.72527 0
M  V30 4506 H 433.769 5.86317 0.388149 0
M  V30 4507 H 435.293 5.96266 1.31525 0
M  V30 4508 H 436.707 5.65617 -0.93541 0
M  V30 4509 H 435.104 5.74888 -1.72115 0
M  V30 4510 H 436.174 4.38114 -2.07807 0
M  V30 4511 N 437.518 0.538854 1.48102 0
M  V30 4512 C 438.934 0.19732 1.58376 0
M  V30 4513 C 439.134 -1.29971 1.5398 0
M  V30 4514 O 438.19 -2.07861 1.43352 0
M  V30 4515 C 439.503 0.807716 2.89649 0
M  V30 4516 C 441.051 0.77726 3.03196 0
M  V30 4517 C 441.526 1.36639 4.37143 0
M  V30 4518 N 443.017 1.32875 4.43732 0
M  V30 4519 C 443.752 1.7544 5.45901 0
M  V30 4520 N 443.248 2.25776 6.54979 0
M  V30 4521 N 445.041 1.66623 5.36836 0
M  V30 4522 H 437.192 1.5117 1.49202 0
M  V30 4523 H 439.455 0.629327 0.708979 0
M  V30 4524 H 439.161 1.85909 2.98548 0
M  V30 4525 H 439.035 0.289975 3.76084 0
M  V30 4526 H 441.422 -0.265374 2.93904 0
M  V30 4527 H 441.503 1.33256 2.18349 0
M  V30 4528 H 441.147 2.408 4.47189 0
M  V30 4529 H 441.077 0.786689 5.20691 0
M  V30 4530 H 443.568 0.96037 3.65493 0
M  V30 4531 H 443.881 2.56226 7.29087 0
M  V30 4532 H 442.226 2.29775 6.55918 0
M  V30 4533 H 445.417 1.27089 4.50517 0
M  V30 4534 H 445.59 2.00115 6.16326 0
M  V30 4535 N 438.996 -1.55193 0.274407 0
M  V30 4536 C 440.226 -2.03692 -0.345442 0
M  V30 4537 C 440.634 -1.15224 -1.50067 0
M  V30 4538 O 439.977 -0.164749 -1.8296 0
M  V30 4539 C 440.039 -3.48325 -0.88939 0
M  V30 4540 C 439.703 -4.56794 0.137115 0
M  V30 4541 C 440.7 -5.11028 0.956378 0
M  V30 4542 C 438.385 -5.01568 0.27115 0
M  V30 4543 C 440.379 -6.08552 1.89587 0
M  V30 4544 C 438.066 -5.98918 1.21412 0
M  V30 4545 C 439.064 -6.52291 2.02498 0
M  V30 4546 O 438.752 -7.47738 2.952 0
M  V30 4547 H 438.484 -0.670893 -0.0829332 0
M  V30 4548 H 441.038 -2.01387 0.404056 0
M  V30 4549 H 439.268 -3.47867 -1.68895 0
M  V30 4550 H 440.957 -3.80167 -1.42225 0
M  V30 4551 H 441.723 -4.7725 0.863559 0
M  V30 4552 H 437.602 -4.5967 -0.349987 0
M  V30 4553 H 441.146 -6.50137 2.52918 0
M  V30 4554 H 437.043 -6.32114 1.30776 0
M  V30 4555 H 437.811 -7.65451 2.89874 0
M  V30 4556 N 440.474 -0.00167713 -1.576 0
M  V30 4557 C 441.699 0.69739 -1.95323 0
M  V30 4558 C 442.124 1.6642 -0.876706 0
M  V30 4559 O 441.482 1.80548 0.165007 0
M  V30 4560 C 441.53 1.40403 -3.32144 0
M  V30 4561 O 440.634 2.5185 -3.26566 0
M  V30 4562 H 439.975 0.185373 -0.637599 0
M  V30 4563 H 442.505 -0.0553665 -2.04525 0
M  V30 4564 H 442.515 1.76707 -3.67748 0
M  V30 4565 H 441.19 0.695167 -4.10049 0
M  V30 4566 H 439.767 2.17861 -3.0264 0
M  V30 4567 N 441.952 1.55251 0.271103 0
M  V30 4568 C 443.199 1.75946 1.00245 0
M  V30 4569 C 443.527 0.561611 1.86215 0
M  V30 4570 O 442.782 -0.455832 1.90317 0
M  V30 4571 C 443.081 3.01879 1.91321 0
M  V30 4572 C 442.747 4.34337 1.21086 0
M  V30 4573 C 441.409 4.70338 1.01666 0
M  V30 4574 C 443.761 5.16325 0.71119 0
M  V30 4575 C 441.089 5.8588 0.310099 0
M  V30 4576 C 443.441 6.32597 0.0182157 0
M  V30 4577 C 442.105 6.67236 -0.18768 0
M  V30 4578 H 441.375 0.643833 0.366824 0
M  V30 4579 H 444.022 1.89521 0.27458 0
M  V30 4580 H 442.327 2.83212 2.70736 0
M  V30 4581 H 444.024 3.15088 2.48033 0
M  V30 4582 H 440.614 4.06043 1.37213 0
M  V30 4583 H 444.798 4.88987 0.848844 0
M  V30 4584 H 440.054 6.1124 0.139873 0
M  V30 4585 H 444.228 6.9538 -0.376711 0
M  V30 4586 H 441.855 7.56618 -0.73715 0
M  V30 4587 N 443.43 -0.535701 1.48216 0
M  V30 4588 C 444.677 -1.29183 1.55942 0
M  V30 4589 C 445.005 -1.93125 0.230857 0
M  V30 4590 O 444.26 -1.79556 -0.778331 0
M  V30 4591 C 444.559 -2.4068 2.64212 0
M  V30 4592 C 444.225 -1.94428 4.06827 0
M  V30 4593 C 442.887 -1.81532 4.45645 0
M  V30 4594 C 445.239 -1.59405 4.96225 0
M  V30 4595 C 442.567 -1.31939 5.71672 0
M  V30 4596 C 444.919 -1.11276 6.22736 0
M  V30 4597 C 443.583 -0.969924 6.60416 0
M  V30 4598 H 442.853 -0.472715 0.570632 0
M  V30 4599 H 445.5 -0.598437 1.81909 0
M  V30 4600 H 443.805 -3.15666 2.32083 0
M  V30 4601 H 445.502 -2.98822 2.67407 0
M  V30 4602 H 442.092 -2.05415 3.76168 0
M  V30 4603 H 446.276 -1.68231 4.66917 0
M  V30 4604 H 441.532 -1.19562 5.99596 0
M  V30 4605 H 445.706 -0.832453 6.91407 0
M  V30 4606 H 443.333 -0.583436 7.57958 0
M  V30 4607 N 444.908 -1.36708 -0.784132 0
M  V30 4608 C 446.185 -1.21776 -1.53069 0
M  V30 4609 C 446.565 0.193876 -2.10208 0
M  V30 4610 O 445.913 1.20012 -1.94446 0
M  V30 4611 C 446.123 -2.30395 -2.62143 0
M  V30 4612 C 447.471 -2.67325 -3.29882 0
M  V30 4613 O 448.495 -2.29478 -2.7243 0
M  V30 4614 O 447.354 -3.32485 -4.33724 0
M  V30 4615 H 444.448 -0.474459 -0.677361 0
M  V30 4616 H 446.994 -1.48454 -0.82216 0
M  V30 4617 H 445.766 -3.2498 -2.17953 0
M  V30 4618 H 445.389 -2.05112 -3.40609 0
M  V30 4619 N 446.386 1.0089 -1.21074 0
M  V30 4620 C 447.333 2.09588 -0.966512 0
M  V30 4621 C 448.303 1.65761 0.106089 0
M  V30 4622 O 449.488 1.90758 -0.0402287 0
M  V30 4623 C 446.628 3.40958 -0.533058 0
M  V30 4624 C 445.741 3.9822 -1.67467 0
M  V30 4625 C 444.876 5.17682 -1.19076 0
M  V30 4626 C 443.915 5.67043 -2.30496 0
M  V30 4627 N 443.052 6.77759 -1.83267 0
M  V30 4628 H 447.892 2.29815 -1.89708 0
M  V30 4629 H 445.429 1.12689 -0.945489 0
M  V30 4630 H 447.387 4.1637 -0.263019 0
M  V30 4631 H 446.017 3.20781 0.360505 0
M  V30 4632 H 445.069 3.1983 -2.05944 0
M  V30 4633 H 446.381 4.3085 -2.51336 0
M  V30 4634 H 445.535 6.00326 -0.877151 0
M  V30 4635 H 444.274 4.86635 -0.322066 0
M  V30 4636 H 443.279 4.82999 -2.62664 0
M  V30 4637 H 444.504 6.00121 -3.17855 0
M  V30 4638 H 442.45 6.48527 -0.987356 0
M  V30 4639 H 442.367 7.09624 -2.60711 0
M  V30 4640 H 443.635 7.63949 -1.54928 0
M  V30 4641 N 447.864 1.01787 1.20321 0
M  V30 4642 C 449.094 0.72614 1.93419 0
M  V30 4643 C 449.502 -0.717317 1.75075 0
M  V30 4644 O 448.845 -1.49836 1.06278 0
M  V30 4645 C 448.907 0.983621 3.45782 0
M  V30 4646 C 448.571 2.41645 3.87888 0
M  V30 4647 C 449.568 3.39732 3.93545 0
M  V30 4648 C 447.253 2.75752 4.19841 0
M  V30 4649 C 449.247 4.69988 4.30569 0
M  V30 4650 C 446.934 4.06221 4.56539 0
M  V30 4651 C 447.932 5.0315 4.61876 0
M  V30 4652 O 447.62 6.31284 4.97731 0
M  V30 4653 H 447.352 0.265824 0.621541 0
M  V30 4654 H 449.906 1.3623 1.53722 0
M  V30 4655 H 448.136 0.290301 3.85609 0
M  V30 4656 H 449.825 0.683279 4.00108 0
M  V30 4657 H 450.591 3.14718 3.69022 0
M  V30 4658 H 446.47 2.00993 4.14877 0
M  V30 4659 H 450.014 5.45642 4.3465 0
M  V30 4660 H 445.911 4.31013 4.80518 0
M  V30 4661 H 446.679 6.35591 5.15719 0
M  V30 4662 N 449.342 -1.36122 0.79427 0
M  V30 4663 C 450.589 -1.99111 0.368905 0
M  V30 4664 C 450.917 -1.63032 -1.0607 0
M  V30 4665 O 450.172 -0.879303 -1.74833 0
M  V30 4666 C 450.471 -3.5409 0.48527 0
M  V30 4667 C 450.137 -4.10003 1.87638 0
M  V30 4668 C 448.799 -4.24986 2.257 0
M  V30 4669 C 451.151 -4.40423 2.78706 0
M  V30 4670 C 448.479 -4.67701 3.54221 0
M  V30 4671 C 450.831 -4.84573 4.0666 0
M  V30 4672 C 449.495 -4.97761 4.44737 0
M  V30 4673 H 448.765 -0.7286 0.134992 0
M  V30 4674 H 451.412 -1.62534 1.01267 0
M  V30 4675 H 449.717 -3.91052 -0.241984 0
M  V30 4676 H 451.414 -4.00766 0.137109 0
M  V30 4677 H 448.004 -3.98784 1.57064 0
M  V30 4678 H 452.188 -4.28412 2.50553 0
M  V30 4679 H 447.444 -4.761 3.83587 0
M  V30 4680 H 451.618 -5.07074 4.77336 0
M  V30 4681 H 449.245 -5.30618 5.44379 0
M  V30 4682 N 450.82 -0.546701 -1.47814 0
M  V30 4683 C 452.236 -0.205717 -1.58269 0
M  V30 4684 C 452.436 1.29153 -1.54667 0
M  V30 4685 O 451.492 2.07098 -1.44453 0
M  V30 4686 C 452.805 -0.823065 -2.89216 0
M  V30 4687 C 454.353 -0.793328 -3.02779 0
M  V30 4688 C 454.828 -1.38955 -4.36412 0
M  V30 4689 N 456.319 -1.35227 -4.43021 0
M  V30 4690 C 457.054 -1.78333 -5.44963 0
M  V30 4691 N 456.55 -2.29246 -6.53772 0
M  V30 4692 N 458.343 -1.69467 -5.35945 0
M  V30 4693 H 450.494 -1.5196 -1.48398 0
M  V30 4694 H 452.757 -0.633078 -0.705632 0
M  V30 4695 H 452.463 -1.8749 -2.97558 0
M  V30 4696 H 452.337 -0.309915 -3.75925 0
M  V30 4697 H 454.724 0.249784 -2.94041 0
M  V30 4698 H 454.805 -1.34412 -2.17639 0
M  V30 4699 H 454.449 -2.43168 -4.45906 0
M  V30 4700 H 454.379 -0.814291 -5.20266 0
M  V30 4701 H 456.87 -0.979739 -3.64979 0
M  V30 4702 H 457.183 -2.60089 -7.27718 0
M  V30 4703 H 455.528 -2.3325 -6.5469 0
M  V30 4704 H 458.719 -1.29477 -4.49837 0
M  V30 4705 H 458.892 -2.03381 -6.15256 0
M  V30 4706 N 452.299 1.55045 -0.282633 0
M  V30 4707 C 453.246 2.22822 0.601566 0
M  V30 4708 C 454.216 1.20431 1.14392 0
M  V30 4709 O 455.401 1.48996 1.19184 0
M  V30 4710 C 452.541 2.95873 1.77632 0
M  V30 4711 C 451.654 4.12999 1.26711 0
M  V30 4712 C 450.789 4.73676 2.40426 0
M  V30 4713 C 449.828 5.82981 1.86545 0
M  V30 4714 N 448.965 6.3769 2.93762 0
M  V30 4715 H 453.805 2.97995 0.0169528 0
M  V30 4716 H 451.342 1.471 -0.00339964 0
M  V30 4717 H 453.3 3.36447 2.46697 0
M  V30 4718 H 451.93 2.2311 2.33285 0
M  V30 4719 H 450.982 3.77494 0.469314 0
M  V30 4720 H 452.294 4.91803 0.832518 0
M  V30 4721 H 451.448 5.17008 3.17471 0
M  V30 4722 H 450.187 3.94164 2.87203 0
M  V30 4723 H 449.192 5.39092 1.07983 0
M  V30 4724 H 450.417 6.64366 1.40694 0
M  V30 4725 H 448.363 5.61069 3.39908 0
M  V30 4726 H 448.28 7.11788 2.54744 0
M  V30 4727 H 449.548 6.8568 3.7076 0
M  V30 4728 N 453.777 0.010035 1.57597 0
M  V30 4729 C 455.026 -0.671945 1.90178 0
M  V30 4730 C 455.339 -1.74376 0.886131 0
M  V30 4731 O 456.545 -2.48107 1.10252 0
M  V30 4732 C 455.001 -1.24636 3.3763 0
M  V30 4733 C 454.609 -0.208838 4.47513 0
M  V30 4734 C 456.353 -1.90595 3.79307 0
M  V30 4735 C 454.26 -0.793814 5.86048 0
M  V30 4736 H 453.19 -0.25474 0.709665 0
M  V30 4737 H 455.841 0.0722206 1.83358 0
M  V30 4738 H 454.223 -2.04152 3.3932 0
M  V30 4739 H 455.397 0.562463 4.57354 0
M  V30 4740 H 453.712 0.350889 4.14919 0
M  V30 4741 H 456.309 -2.35284 4.80151 0
M  V30 4742 H 456.652 -2.74074 3.13352 0
M  V30 4743 H 457.185 -1.17798 3.79958 0
M  V30 4744 H 453.924 0.00240855 6.555 0
M  V30 4745 H 453.444 -1.53404 5.79851 0
M  V30 4746 H 455.123 -1.2894 6.34022 0
M  V30 4747 N 455.255 -1.55392 -0.262866 0
M  V30 4748 C 456.503 -1.76127 -0.991147 0
M  V30 4749 C 456.824 -0.571083 -1.8645 0
M  V30 4750 O 456.094 0.413698 -1.91482 0
M  V30 4751 H 454.674 -0.649528 -0.368948 0
M  V30 4752 H 457.336 -1.9281 -0.284655 0
M  V30 4753 H 456.432 -2.6663 -1.62219 0
M  V30 4754 N 456.733 0.527833 -1.48498 0
M  V30 4755 C 457.665 1.6482 -1.5927 0
M  V30 4756 C 458.678 1.55659 -0.476869 0
M  V30 4757 O 459.867 1.62081 -0.747806 0
M  V30 4758 C 456.967 3.0348 -1.50842 0
M  V30 4759 C 456.14 3.381 -2.77502 0
M  V30 4760 C 455.199 4.5605 -2.62497 0
M  V30 4761 O 454.225 4.59165 -3.36387 0
M  V30 4762 N 455.427 5.54353 -1.72257 0
M  V30 4763 H 458.192 1.56015 -2.55889 0
M  V30 4764 H 455.753 0.715152 -1.45249 0
M  V30 4765 H 457.745 3.80264 -1.38496 0
M  V30 4766 H 456.315 3.06352 -0.621887 0
M  V30 4767 H 455.535 2.50473 -3.04396 0
M  V30 4768 H 456.823 3.58017 -3.61527 0
M  V30 4769 H 456.221 5.54617 -1.11431 0
M  V30 4770 H 454.778 6.30347 -1.65849 0
M  V30 4771 N 458.211 1.37122 0.776871 0
M  V30 4772 C 459.622 1.28667 1.35284 0
M  V30 4773 C 459.973 -0.0680035 1.96082 0
M  V30 4774 O 459.098 -0.969743 1.93455 0
M  V30 4775 C 459.693 2.32997 2.45963 0
M  V30 4776 C 458.252 2.28191 2.99342 0
M  V30 4777 C 457.399 2.17101 1.72517 0
M  V30 4778 H 460.35 1.47819 0.577527 0
M  V30 4779 H 460.371 1.97366 3.2531 0
M  V30 4780 H 459.883 3.3158 2.01684 0
M  V30 4781 H 457.984 1.33115 3.4801 0
M  V30 4782 H 458.097 3.21397 3.55304 0
M  V30 4783 H 456.461 1.63562 1.95242 0
M  V30 4784 H 457.244 3.17591 1.30348 0
M  V30 4785 N 459.689 -1.00246 1.21608 0
M  V30 4786 C 460.914 -1.78167 1.06167 0
M  V30 4787 C 461.339 -1.84138 -0.384035 0
M  V30 4788 O 460.697 -1.28683 -1.27712 0
M  V30 4789 C 460.745 -3.19786 1.66642 0
M  V30 4790 O 459.849 -4.02153 0.913613 0
M  V30 4791 H 459.19 -0.549 0.37349 0
M  V30 4792 H 461.72 -1.25994 1.61204 0
M  V30 4793 H 461.73 -3.70451 1.70969 0
M  V30 4794 H 460.405 -3.14754 2.7185 0
M  V30 4795 H 458.982 -3.60711 0.945635 0
M  V30 4796 N 461.167 -1.02423 -1.1978 0
M  V30 4797 C 462.099 -0.559152 -2.22275 0
M  V30 4798 C 463.112 0.36251 -1.58713 0
M  V30 4799 O 464.301 0.159641 -1.77785 0
M  V30 4800 C 461.401 0.205094 -3.38279 0
M  V30 4801 C 460.574 -0.720361 -4.31427 0
M  V30 4802 C 459.633 -0.00234368 -5.262 0
M  V30 4803 O 458.659 -0.627378 -5.65732 0
M  V30 4804 N 459.861 1.26996 -5.66438 0
M  V30 4805 H 462.626 -1.44064 -2.62804 0
M  V30 4806 H 460.187 -0.902692 -1.34399 0
M  V30 4807 H 462.179 0.694868 -3.9869 0
M  V30 4808 H 460.749 0.987947 -2.96578 0
M  V30 4809 H 459.969 -1.39031 -3.68869 0
M  V30 4810 H 461.257 -1.3495 -4.90577 0
M  V30 4811 H 460.655 1.79858 -5.36347 0
M  V30 4812 H 459.212 1.70432 -6.29123 0
M  V30 4813 N 462.645 1.35699 -0.801477 0
M  V30 4814 C 463.608 2.28199 -0.213994 0
M  V30 4815 C 464.608 1.49359 0.595691 0
M  V30 4816 O 465.798 1.69186 0.414921 0
M  V30 4817 C 462.93 3.33587 0.702297 0
M  V30 4818 H 464.123 2.81666 -1.02976 0
M  V30 4819 H 461.676 1.45467 -0.571759 0
M  V30 4820 H 462.411 2.85297 1.54195 0
M  V30 4821 H 462.196 3.91906 0.123484 0
M  V30 4822 H 463.686 4.02638 1.10783 0
M  V30 4823 N 464.123 0.554532 1.47522 0
M  V30 4824 C 465.371 0.0294208 2.02079 0
M  V30 4825 C 465.692 -1.32411 1.43151 0
M  V30 4826 O 464.962 -1.863 0.605728 0
M  V30 4827 H 463.542 0.00788672 0.746958 0
M  V30 4828 H 466.204 0.723934 1.80956 0
M  V30 4829 H 465.3 -0.0606745 3.12041 0
M  V30 4830 N 465.601 -1.54893 0.290851 0
M  V30 4831 C 466.829 -2.04343 -0.324288 0
M  V30 4832 C 467.244 -1.16859 -1.48289 0
M  V30 4833 O 466.601 -0.192018 -1.81487 0
M  V30 4834 C 466.652 -3.52756 -0.79026 0
M  V30 4835 O 466.373 -4.36913 0.322213 0
M  V30 4836 C 467.874 -4.18161 -1.4716 0
M  V30 4837 H 465.094 -0.667135 -0.0719173 0
M  V30 4838 H 467.638 -1.99981 0.427529 0
M  V30 4839 H 465.793 -3.57511 -1.49213 0
M  V30 4840 H 466.207 -5.24486 -0.0387372 0
M  V30 4841 H 467.681 -5.23562 -1.7489 0
M  V30 4842 H 468.158 -3.67282 -2.40834 0
M  V30 4843 H 468.764 -4.17454 -0.813178 0
M  V30 4844 N 467.08 -0.0183926 -1.57589 0
M  V30 4845 C 468.328 0.661253 -1.90976 0
M  V30 4846 C 468.649 1.73281 -0.894353 0
M  V30 4847 O 467.919 1.9579 0.0656788 0
M  V30 4848 H 466.499 0.247233 -0.704901 0
M  V30 4849 H 469.161 -0.0636639 -1.94796 0
M  V30 4850 H 468.257 1.12083 -2.9128 0
M  V30 4851 N 468.558 1.5553 0.254621 0
M  V30 4852 C 469.788 1.80784 1.00004 0
M  V30 4853 C 470.196 0.59071 1.79742 0
M  V30 4854 O 469.539 -0.449988 1.78103 0
M  V30 4855 C 469.601 2.99268 1.99196 0
M  V30 4856 C 469.265 4.35595 1.38224 0
M  V30 4857 C 470.262 5.13884 0.788611 0
M  V30 4858 C 467.947 4.82281 1.40393 0
M  V30 4859 C 469.941 6.37004 0.224783 0
M  V30 4860 C 467.628 6.05351 0.836243 0
M  V30 4861 C 468.626 6.82551 0.24769 0
M  V30 4862 O 468.314 8.03297 -0.311249 0
M  V30 4863 H 468.046 0.60565 0.300274 0
M  V30 4864 H 470.6 2.03411 0.285143 0
M  V30 4865 H 468.83 2.72377 2.74496 0
M  V30 4866 H 470.519 3.11682 2.60018 0
M  V30 4867 H 471.285 4.78938 0.764423 0
M  V30 4868 H 467.164 4.22189 1.85142 0
M  V30 4869 H 470.708 6.97203 -0.235235 0
M  V30 4870 H 466.605 6.39776 0.857733 0
M  V30 4871 H 467.373 8.1825 -0.20237 0
M  V30 4872 N 470.036 -0.519951 1.48776 0
M  V30 4873 C 471.313 -1.28123 1.47797 0
M  V30 4874 C 471.693 -2.10196 0.195157 0
M  V30 4875 O 471.041 -2.13167 -0.822925 0
M  V30 4876 C 471.251 -2.15413 2.74587 0
M  V30 4877 C 472.599 -2.75225 3.23321 0
M  V30 4878 O 473.623 -2.25694 2.75574 0
M  V30 4879 O 472.482 -3.65346 4.06429 0
M  V30 4880 H 469.576 -0.578793 0.590701 0
M  V30 4881 H 472.122 -0.535779 1.6102 0
M  V30 4882 H 470.894 -1.54617 3.59457 0
M  V30 4883 H 470.517 -2.97186 2.64132 0
M  V30 4884 N 471.514 -1.37532 -0.769588 0
M  V30 4885 C 472.477 -1.33292 -1.86456 0
M  V30 4886 C 473.477 -0.236537 -1.59051 0
M  V30 4887 O 474.667 -0.492511 -1.67093 0
M  V30 4888 C 471.799 -1.07118 -3.23633 0
M  V30 4889 H 472.992 -2.30692 -1.91628 0
M  V30 4890 H 470.545 -1.22593 -0.969572 0
M  V30 4891 H 471.28 -0.102578 -3.24138 0
M  V30 4892 H 471.065 -1.86479 -3.44917 0
M  V30 4893 H 472.555 -1.06806 -4.03711 0
M  V30 4894 N 472.992 0.995999 -1.22138 0
M  V30 4895 C 473.955 2.06711 -0.990109 0
M  V30 4896 C 474.955 1.60744 0.0422978 0
M  V30 4897 O 476.145 1.73095 -0.195895 0
M  V30 4898 C 473.277 3.37288 -0.49491 0
M  V30 4899 H 474.47 2.28661 -1.94047 0
M  V30 4900 H 472.023 1.16711 -1.03963 0
M  V30 4901 H 472.758 3.21022 0.459948 0
M  V30 4902 H 472.543 3.71986 -1.23971 0
M  V30 4903 H 474.033 4.16103 -0.353253 0
M  V30 4904 N 474.47 1.03057 1.19235 0
M  V30 4905 C 475.42 0.583386 2.2041 0
M  V30 4906 C 476.404 -0.368776 1.56617 0
M  V30 4907 O 477.596 -0.189471 1.75983 0
M  V30 4908 C 474.725 -0.0626534 3.43243 0
M  V30 4909 C 473.811 0.91205 4.14177 0
M  V30 4910 N 474.202 2.07514 4.61272 0
M  V30 4911 C 472.5 0.735859 4.39888 0
M  V30 4912 C 473.201 2.69003 5.15764 0
M  V30 4913 N 472.177 1.96954 5.06666 0
M  V30 4914 H 475.979 1.46988 2.54503 0
M  V30 4915 H 473.493 0.897785 1.35328 0
M  V30 4916 H 475.49 -0.400653 4.1497 0
M  V30 4917 H 474.15 -0.944813 3.1065 0
M  V30 4918 H 475.161 2.45448 4.56043 0
M  V30 4919 H 471.838 -0.0970656 4.17387 0
M  V30 4920 H 473.228 3.67514 5.6248 0
M  V30 4921 N 475.948 -1.35272 0.808662 0
M  V30 4922 C 477.178 -2.02652 0.401953 0
M  V30 4923 C 477.586 -1.6108 -0.992462 0
M  V30 4924 O 476.929 -0.804984 -1.65123 0
M  V30 4925 C 476.991 -3.57174 0.408246 0
M  V30 4926 C 476.655 -4.22019 1.75353 0
M  V30 4927 C 477.652 -4.43552 2.71215 0
M  V30 4928 C 475.337 -4.59093 2.03811 0
M  V30 4929 C 477.331 -5.01264 3.93717 0
M  V30 4930 C 475.018 -5.16519 3.26576 0
M  V30 4931 C 476.016 -5.37546 4.21347 0
M  V30 4932 O 475.704 -5.93761 5.41944 0
M  V30 4933 H 475.436 -0.656495 0.161216 0
M  V30 4934 H 477.99 -1.73829 1.0942 0
M  V30 4935 H 476.22 -3.85197 -0.340608 0
M  V30 4936 H 477.909 -4.05893 0.0235623 0
M  V30 4937 H 478.675 -4.15288 2.50522 0
M  V30 4938 H 474.554 -4.42039 1.30854 0
M  V30 4939 H 478.098 -5.17592 4.67701 0
M  V30 4940 H 473.995 -5.4421 3.47139 0
M  V30 4941 H 474.763 -6.1221 5.43269 0
M  V30 4942 N 477.426 -0.562348 -1.47226 0
M  V30 4943 C 478.356 0.170627 -2.32876 0
M  V30 4944 C 479.337 0.903748 -1.44106 0
M  V30 4945 O 480.522 0.883206 -1.72954 0
M  V30 4946 C 477.652 1.19786 -3.25989 0
M  V30 4947 C 476.606 0.580875 -4.2404 0
M  V30 4948 C 475.932 1.71311 -5.06514 0
M  V30 4949 C 477.232 -0.468714 -5.20193 0
M  V30 4950 H 478.926 -0.544441 -2.94408 0
M  V30 4951 H 476.472 -0.263271 -1.41573 0
M  V30 4952 H 478.425 1.71884 -3.84752 0
M  V30 4953 H 477.149 1.94294 -2.62521 0
M  V30 4954 H 475.808 0.0811538 -3.6651 0
M  V30 4955 H 475.456 2.44736 -4.39447 0
M  V30 4956 H 475.156 1.30604 -5.72902 0
M  V30 4957 H 476.68 2.23725 -5.68137 0
M  V30 4958 H 478.094 -0.0336028 -5.7329 0
M  V30 4959 H 476.491 -0.794957 -5.94811 0
M  V30 4960 H 477.561 -1.36269 -4.65359 0
M  V30 4961 N 478.904 1.54736 -0.299062 0
M  V30 4962 C 479.834 2.26409 0.571085 0
M  V30 4963 C 480.815 1.2629 1.13951 0
M  V30 4964 O 482 1.55059 1.16921 0
M  V30 4965 C 479.13 3.00338 1.74396 0
M  V30 4966 C 478.084 4.07588 1.30599 0
M  V30 4967 C 477.41 4.69222 2.56387 0
M  V30 4968 C 478.71 5.20455 0.438645 0
M  V30 4969 H 480.404 2.99388 -0.0266991 0
M  V30 4970 H 477.95 1.43993 -0.0142812 0
M  V30 4971 H 479.903 3.49198 2.35878 0
M  V30 4972 H 478.627 2.24934 2.36796 0
M  V30 4973 H 477.286 3.59575 0.71424 0
M  V30 4974 H 476.934 3.9046 3.17097 0
M  V30 4975 H 476.634 5.41653 2.27784 0
M  V30 4976 H 478.158 5.20844 3.18675 0
M  V30 4977 H 479.572 5.65221 0.959085 0
M  V30 4978 H 477.969 5.99594 0.246466 0
M  V30 4979 H 479.039 4.8192 -0.536738 0
M  V30 4980 N 480.382 0.0267497 1.57577 0
M  V30 4981 C 481.607 -0.666227 1.96408 0
M  V30 4982 C 482.032 -1.65004 0.903071 0
M  V30 4983 O 481.39 -1.80787 -0.136263 0
M  V30 4984 C 481.438 -1.35101 3.34335 0
M  V30 4985 O 480.542 -2.46623 3.30531 0
M  V30 4986 H 479.883 -0.175206 0.640468 0
M  V30 4987 H 482.413 0.0878977 2.04411 0
M  V30 4988 H 482.423 -1.70834 3.70513 0
M  V30 4989 H 481.098 -0.629844 4.11103 0
M  V30 4990 H 479.675 -2.13019 3.06068 0
M  V30 4991 N 481.861 -1.55662 -0.24637 0
M  V30 4992 C 483.107 -1.78698 -0.971525 0
M  V30 4993 C 483.462 -0.59577 -1.82944 0
M  V30 4994 O 482.755 0.41097 -1.87141 0
M  V30 4995 C 482.949 -3.04885 -1.86494 0
M  V30 4996 C 482.778 -4.36165 -1.09501 0
M  V30 4997 C 481.548 -4.98929 -0.799895 0
M  V30 4998 C 483.746 -5.12126 -0.472334 0
M  V30 4999 N 481.728 -6.139 -0.00595299 0
M  V30 5000 C 483.099 -6.1972 0.18616 0
M  V30 5001 C 485.154 -4.96426 -0.382854 0
M  V30 5002 C 483.857 -7.13321 0.925542 0
M  V30 5003 C 485.883 -5.90405 0.342999 0
M  V30 5004 C 485.245 -6.97407 0.990128 0
M  V30 5005 H 481.344 -0.705852 -0.336597 0
M  V30 5006 H 483.928 -1.93157 -0.244615 0
M  V30 5007 H 482.099 -2.91753 -2.56388 0
M  V30 5008 H 483.831 -3.16212 -2.5257 0
M  V30 5009 H 480.586 -4.60365 -1.11181 0
M  V30 5010 H 481.01 -6.75938 0.379127 0
M  V30 5011 H 485.652 -4.13777 -0.868834 0
M  V30 5012 H 483.37 -7.9547 1.42312 0
M  V30 5013 H 486.956 -5.80333 0.412907 0
M  V30 5014 H 485.836 -7.68874 1.54282 0
M  V30 5015 N 483.339 0.512053 -1.4905 0
M  V30 5016 C 484.569 1.28928 -1.61434 0
M  V30 5017 C 484.977 1.87107 -0.280647 0
M  V30 5018 O 484.32 1.68024 0.742537 0
M  V30 5019 C 484.382 2.466 -2.61588 0
M  V30 5020 C 484.046 2.09375 -4.06216 0
M  V30 5021 C 485.043 1.63994 -4.93358 0
M  V30 5022 C 482.728 2.19348 -4.51876 0
M  V30 5023 C 484.722 1.29076 -6.24194 0
M  V30 5024 C 482.409 1.84041 -5.82728 0
M  V30 5025 C 483.407 1.38978 -6.68711 0
M  V30 5026 O 483.095 1.04144 -7.97126 0
M  V30 5027 H 482.827 0.397668 -0.546659 0
M  V30 5028 H 485.381 0.622507 -1.9574 0
M  V30 5029 H 483.611 3.16318 -2.22441 0
M  V30 5030 H 485.3 3.08642 -2.63619 0
M  V30 5031 H 486.066 1.55744 -4.59313 0
M  V30 5032 H 481.945 2.53376 -3.85125 0
M  V30 5033 H 485.489 0.938303 -6.91261 0
M  V30 5034 H 481.386 1.91938 -6.16304 0
M  V30 5035 H 482.154 1.17387 -8.10039 0
M  V30 5036 N 484.817 1.37938 0.762283 0
M  V30 5037 C 486.047 1.36685 1.54922 0
M  V30 5038 C 486.455 -0.0474099 1.89141 0
M  V30 5039 O 485.798 -1.02213 1.52638 0
M  V30 5040 C 485.86 2.14963 2.88152 0
M  V30 5041 C 485.524 3.6385 2.76518 0
M  V30 5042 C 486.521 4.57531 2.46904 0
M  V30 5043 C 484.206 4.07095 2.94243 0
M  V30 5044 C 486.2 5.92436 2.35156 0
M  V30 5045 C 483.887 5.42083 2.82116 0
M  V30 5046 C 484.885 6.34567 2.52614 0
M  V30 5047 O 484.573 7.67073 2.40529 0
M  V30 5048 H 484.305 0.469586 0.486276 0
M  V30 5049 H 486.859 1.82012 0.951876 0
M  V30 5050 H 485.089 1.6434 3.50042 0
M  V30 5051 H 486.778 2.06224 3.49609 0
M  V30 5052 H 487.544 4.25428 2.32886 0
M  V30 5053 H 483.423 3.35462 3.16206 0
M  V30 5054 H 486.967 6.64591 2.12049 0
M  V30 5055 H 482.864 5.73785 2.95704 0
M  V30 5056 H 483.632 7.77499 2.55807 0
M  V30 5057 N 486.295 -0.989507 1.22664 0
M  V30 5058 C 487.258 -2.06183 1.00106 0
M  V30 5059 C 488.258 -1.60765 -0.0337726 0
M  V30 5060 O 489.448 -1.72989 0.205072 0
M  V30 5061 C 486.58 -3.37021 0.51279 0
M  V30 5062 H 487.773 -2.27629 1.95256 0
M  V30 5063 H 485.326 -1.16158 1.0458 0
M  V30 5064 H 486.061 -3.21261 -0.442917 0
M  V30 5065 H 485.846 -3.71323 1.25942 0
M  V30 5066 H 487.336 -4.1591 0.375315 0
M  V30 5067 N 487.773 -1.03688 -1.18687 0
M  V30 5068 C 489.019 -0.74888 -1.89112 0
M  V30 5069 C 489.374 0.715345 -1.78607 0
M  V30 5070 O 488.667 1.51498 -1.17299 0
M  V30 5071 C 488.861 -1.14477 -3.3857 0
M  V30 5072 C 488.69 -2.64594 -3.63621 0
M  V30 5073 C 487.46 -3.31685 -3.812 0
M  V30 5074 C 489.658 -3.62811 -3.64517 0
M  V30 5075 N 487.64 -4.70822 -3.93955 0
M  V30 5076 C 489.011 -4.87603 -3.8294 0
M  V30 5077 C 491.066 -3.56495 -3.47585 0
M  V30 5078 C 489.769 -6.0684 -3.86184 0
M  V30 5079 C 491.795 -4.75155 -3.52111 0
M  V30 5080 C 491.157 -5.98765 -3.71026 0
M  V30 5081 H 487.256 -0.32603 -0.710794 0
M  V30 5082 H 489.84 -1.3258 -1.42586 0
M  V30 5083 H 488.011 -0.595974 -3.838 0
M  V30 5084 H 489.743 -0.808187 -3.96548 0
M  V30 5085 H 486.498 -2.82091 -3.80423 0
M  V30 5086 H 486.922 -5.43122 -4.04163 0
M  V30 5087 H 491.564 -2.61907 -3.31911 0
M  V30 5088 H 489.282 -7.01788 -4.00648 0
M  V30 5089 H 492.868 -4.71905 -3.40289 0
M  V30 5090 H 491.748 -6.89047 -3.74412 0
M  V30 5091 N 489.251 1.34841 -0.815825 0
M  V30 5092 C 490.499 1.98107 -0.399744 0
M  V30 5093 C 490.82 1.65019 1.03894 0
M  V30 5094 O 490.09 0.937311 1.72021 0
M  V30 5095 H 488.67 0.732827 -0.144823 0
M  V30 5096 H 491.332 1.64599 -1.0437 0
M  V30 5097 H 490.428 3.07856 -0.512965 0
M  V30 5098 N 490.729 0.570148 1.46925 0
M  V30 5099 C 491.977 0.0508523 2.02036 0
M  V30 5100 C 492.298 -1.30885 1.44548 0
M  V30 5101 O 491.568 -1.85647 0.625453 0
M  V30 5102 H 490.148 0.0158088 0.746833 0
M  V30 5103 H 492.81 0.743086 1.80178 0
M  V30 5104 H 491.906 -0.027575 3.12088 0
M  V30 5105 N 492.207 -1.54576 0.307264 0
M  V30 5106 C 493.455 -1.99867 -0.299574 0
M  V30 5107 C 493.776 -1.19714 -1.53927 0
M  V30 5108 O 493.046 -0.29472 -1.9367 0
M  V30 5109 H 491.626 -0.738299 -0.113683 0
M  V30 5110 H 494.288 -1.9032 0.420042 0
M  V30 5111 H 493.384 -3.06901 -0.567283 0
M  V30 5112 N 493.685 -0.035106 -1.57561 0
M  V30 5113 C 494.934 0.641604 -1.91223 0
M  V30 5114 C 495.247 1.72944 -0.913761 0
M  V30 5115 O 496.453 2.46321 -1.14185 0
M  V30 5116 C 494.909 1.19249 -3.3957 0
M  V30 5117 C 494.517 0.137616 -4.47789 0
M  V30 5118 C 496.261 1.84537 -3.82291 0
M  V30 5119 C 494.168 0.700478 -5.87237 0
M  V30 5120 H 493.098 0.243417 -0.713627 0
M  V30 5121 H 495.749 -0.101382 -1.8322 0
M  V30 5122 H 494.131 1.98728 -3.42525 0
M  V30 5123 H 495.305 -0.635153 -4.56402 0
M  V30 5124 H 493.62 -0.416855 -4.14308 0
M  V30 5125 H 496.217 2.27616 -4.83834 0
M  V30 5126 H 496.56 2.69054 -3.17672 0
M  V30 5127 H 497.093 1.11739 -3.81784 0
M  V30 5128 H 493.832 -0.106693 -6.55413 0
M  V30 5129 H 493.352 1.4416 -5.82218 0
M  V30 5130 H 495.031 1.18837 -6.35993 0
M  V30 5131 N 495.163 1.55791 0.238111 0
M  V30 5132 C 496.44 1.68798 0.98826 0
M  V30 5133 C 496.82 0.577562 2.03045 0
M  V30 5134 O 496.168 -0.41778 2.24648 0
M  V30 5135 C 496.378 3.09454 1.61367 0
M  V30 5136 C 497.726 3.68335 2.11221 0
M  V30 5137 O 498.75 3.1231 1.71292 0
M  V30 5138 O 497.609 4.6657 2.84561 0
M  V30 5139 H 494.703 0.686881 0.460568 0
M  V30 5140 H 497.249 1.68118 0.231202 0
M  V30 5141 H 496.021 3.81726 0.860295 0
M  V30 5142 H 495.644 3.14182 2.4367 0
M  V30 5143 N 496.642 -0.504142 1.49319 0
M  V30 5144 C 497.867 -1.28729 1.62615 0
M  V30 5145 C 498.292 -1.85752 0.296309 0
M  V30 5146 O 497.65 -1.65704 -0.735649 0
M  V30 5147 C 497.698 -2.39561 2.69524 0
M  V30 5148 O 496.802 -3.43324 2.28478 0
M  V30 5149 H 496.143 -0.380172 0.544395 0
M  V30 5150 H 498.673 -0.603872 1.95485 0
M  V30 5151 H 498.683 -2.8537 2.91595 0
M  V30 5152 H 497.358 -1.97423 3.66056 0
M  V30 5153 H 495.935 -3.03455 2.16725 0
M  V30 5154 N 498.12 -1.38341 -0.754957 0
M  V30 5155 C 499.348 -1.37704 -1.54419 0
M  V30 5156 C 499.763 0.0335243 -1.8877 0
M  V30 5157 O 499.12 0.999773 -1.52679 0
M  V30 5158 C 499.171 -2.23136 -2.84416 0
M  V30 5159 O 498.892 -3.58697 -2.51531 0
M  V30 5160 C 500.393 -2.30664 -3.78562 0
M  V30 5161 H 497.613 -0.471061 -0.477852 0
M  V30 5162 H 500.157 -1.81902 -0.934446 0
M  V30 5163 H 498.312 -1.82403 -3.41772 0
M  V30 5164 H 498.726 -4.03665 -3.34896 0
M  V30 5165 H 500.2 -2.9473 -4.66732 0
M  V30 5166 H 500.677 -1.3199 -4.18898 0
M  V30 5167 H 501.283 -2.71781 -3.27131 0
M  V30 5168 N 499.598 0.982988 -1.23187 0
M  V30 5169 C 500.844 1.7273 -1.07405 0
M  V30 5170 C 501.199 1.885 0.385447 0
M  V30 5171 O 500.492 1.4243 1.28157 0
M  V30 5172 C 500.686 3.12736 -1.73006 0
M  V30 5173 C 500.515 3.10621 -3.25184 0
M  V30 5174 C 499.285 3.15957 -3.94334 0
M  V30 5175 C 501.483 2.93992 -4.21987 0
M  V30 5176 N 499.465 3.03701 -5.33516 0
M  V30 5177 C 500.836 2.8987 -5.48065 0
M  V30 5178 C 502.891 2.78457 -4.12754 0
M  V30 5179 C 501.594 2.71804 -6.65969 0
M  V30 5180 C 503.62 2.61754 -5.30319 0
M  V30 5181 C 502.982 2.58328 -6.55321 0
M  V30 5182 H 499.081 0.641279 -0.447533 0
M  V30 5183 H 501.665 1.16664 -1.55877 0
M  V30 5184 H 499.836 3.67026 -1.2707 0
M  V30 5185 H 501.568 3.75786 -1.50224 0
M  V30 5186 H 498.323 3.24034 -3.45397 0
M  V30 5187 H 498.747 3.00855 -6.06478 0
M  V30 5188 H 503.389 2.79898 -3.16886 0
M  V30 5189 H 501.107 2.69108 -7.61975 0
M  V30 5190 H 504.693 2.50702 -5.25014 0
M  V30 5191 H 503.573 2.45564 -7.4476 0
M  V30 5192 N 501.076 1.04316 1.18135 0
M  V30 5193 C 502.301 0.768047 1.92655 0
M  V30 5194 C 502.726 -0.66904 1.758 0
M  V30 5195 O 502.084 -1.46372 1.06981 0
M  V30 5196 C 502.132 1.14239 3.42026 0
M  V30 5197 O 501.236 0.269333 4.1152 0
M  V30 5198 H 500.577 0.282436 0.600937 0
M  V30 5199 H 503.107 1.39367 1.49793 0
M  V30 5200 H 503.117 1.10538 3.92741 0
M  V30 5201 H 501.792 2.18928 3.53615 0
M  V30 5202 H 500.369 0.366175 3.71098 0
M  V30 5203 N 502.554 -1.34406 0.822964 0
M  V30 5204 C 503.8 -1.98999 0.420847 0
M  V30 5205 C 504.155 -1.64067 -1.00498 0
M  V30 5206 O 503.448 -0.902071 -1.69036 0
M  V30 5207 C 503.642 -3.52981 0.560268 0
M  V30 5208 C 503.471 -4.02873 1.99809 0
M  V30 5209 C 502.241 -4.31463 2.62998 0
M  V30 5210 C 504.439 -4.20241 2.96483 0
M  V30 5211 N 502.421 -4.6739 3.9802 0
M  V30 5212 C 503.792 -4.59348 4.16413 0
M  V30 5213 C 505.847 -4.02489 2.93098 0
M  V30 5214 C 504.55 -4.82559 5.33413 0
M  V30 5215 C 506.576 -4.26866 4.09315 0
M  V30 5216 C 505.938 -4.6626 5.27997 0
M  V30 5217 H 502.037 -0.755432 0.202104 0
M  V30 5218 H 504.621 -1.62815 1.06767 0
M  V30 5219 H 502.792 -3.88359 -0.0566596 0
M  V30 5220 H 504.524 -4.04487 0.131146 0
M  V30 5221 H 501.279 -4.22373 2.14238 0
M  V30 5222 H 501.703 -4.89588 4.67582 0
M  V30 5223 H 506.345 -3.71161 2.02483 0
M  V30 5224 H 504.063 -5.12754 6.24587 0
M  V30 5225 H 507.649 -4.14667 4.08096 0
M  V30 5226 H 506.529 -4.84752 6.16429 0
M  V30 5227 N 504.032 -0.577932 -1.46621 0
M  V30 5228 C 505.281 -0.0594281 -2.01612 0
M  V30 5229 C 505.594 1.30663 -1.45556 0
M  V30 5230 O 506.8 1.91621 -1.92337 0
M  V30 5231 C 505.256 -0.0556666 -3.59857 0
M  V30 5232 C 504.864 -1.41975 -4.24908 0
M  V30 5233 C 506.608 0.409143 -4.22524 0
M  V30 5234 C 504.515 -1.37397 -5.75218 0
M  V30 5235 H 503.445 -0.0184469 -0.753774 0
M  V30 5236 H 506.096 -0.728869 -1.68404 0
M  V30 5237 H 504.478 0.679843 -3.90121 0
M  V30 5238 H 505.652 -2.17461 -4.0626 0
M  V30 5239 H 503.967 -1.82419 -3.74316 0
M  V30 5240 H 506.564 0.46211 -5.32699 0
M  V30 5241 H 506.907 1.42565 -3.91128 0
M  V30 5242 H 507.44 -0.272152 -3.96868 0
M  V30 5243 H 504.179 -2.36714 -6.11267 0
M  V30 5244 H 503.699 -0.661239 -5.96144 0
M  V30 5245 H 505.378 -1.08484 -6.3784 0
M  V30 5246 N 505.51 1.54411 -0.315457 0
M  V30 5247 C 506.759 1.99599 0.290395 0
M  V30 5248 C 507.072 1.20746 1.53882 0
M  V30 5249 O 508.278 1.56272 2.22017 0
M  V30 5250 C 506.734 3.5539 0.56797 0
M  V30 5251 C 506.342 4.43068 -0.662945 0
M  V30 5252 C 508.086 4.09067 1.13422 0
M  V30 5253 C 505.993 5.90317 -0.357722 0
M  V30 5254 H 504.923 0.745592 0.112286 0
M  V30 5255 H 507.574 1.78477 -0.426418 0
M  V30 5256 H 505.956 3.72468 1.34476 0
M  V30 5257 H 507.13 4.37765 -1.43869 0
M  V30 5258 H 505.445 4.00238 -1.14884 0
M  V30 5259 H 508.042 5.16663 1.37707 0
M  V30 5260 H 508.385 3.60552 2.08106 0
M  V30 5261 H 508.918 3.95589 0.418805 0
M  V30 5262 H 505.657 6.4301 -1.27351 0
M  V30 5263 H 505.177 5.98592 0.380472 0
M  V30 5264 H 506.856 6.4699 0.0354284 0
M  V30 5265 N 506.988 0.0434614 1.5754 0
M  V30 5266 C 508.236 -0.630786 1.92004 0
M  V30 5267 C 508.557 -1.71836 0.921807 0
M  V30 5268 O 507.827 -1.9587 -0.034522 0
M  V30 5269 H 506.407 -0.235988 0.708745 0
M  V30 5270 H 509.069 0.0946462 1.9467 0
M  V30 5271 H 508.165 -1.07434 2.93026 0
M  V30 5272 N 508.466 -1.55915 -0.229846 0
M  V30 5273 C 509.691 -1.8296 -0.976743 0
M  V30 5274 C 510.116 -0.622735 -1.77493 0
M  V30 5275 O 509.474 0.428431 -1.76165 0
M  V30 5276 C 509.522 -3.07916 -1.8767 0
M  V30 5277 O 508.626 -2.86028 -2.97088 0
M  V30 5278 H 507.967 -0.603453 -0.277021 0
M  V30 5279 H 510.497 -2.0312 -0.245669 0
M  V30 5280 H 510.507 -3.37802 -2.2881 0
M  V30 5281 H 509.182 -3.95389 -1.28996 0
M  V30 5282 H 507.759 -2.67355 -2.59954 0
M  V30 5283 N 509.944 0.496216 -1.49584 0
M  V30 5284 C 511.169 1.27865 -1.63295 0
M  V30 5285 C 511.594 1.85592 -0.306156 0
M  V30 5286 O 510.952 1.66092 0.726851 0
M  V30 5287 C 511 2.38128 -2.7079 0
M  V30 5288 O 510.104 3.42108 -2.30296 0
M  V30 5289 H 509.445 0.377279 -0.546403 0
M  V30 5290 H 511.975 0.593497 -1.95803 0
M  V30 5291 H 511.985 2.8382 -2.93104 0
M  V30 5292 H 510.66 1.95479 -3.67098 0
M  V30 5293 H 509.237 3.02301 -2.18331 0
M  V30 5294 N 511.423 1.38739 0.74761 0
M  V30 5295 C 512.373 1.32948 1.85226 0
M  V30 5296 C 513.357 0.212642 1.59489 0
M  V30 5297 O 514.549 0.449121 1.71207 0
M  V30 5298 C 511.678 1.16279 3.23008 0
M  V30 5299 C 510.764 2.32611 3.54617 0
M  V30 5300 N 511.155 3.58065 3.57244 0
M  V30 5301 C 509.453 2.25293 3.84914 0
M  V30 5302 C 510.154 4.34919 3.8629 0
M  V30 5303 N 509.13 3.64348 4.03425 0
M  V30 5304 H 512.932 2.27927 1.85544 0
M  V30 5305 H 510.446 1.32056 0.945253 0
M  V30 5306 H 512.443 1.10214 4.02068 0
M  V30 5307 H 511.103 0.222394 3.23937 0
M  V30 5308 H 512.114 3.91656 3.3886 0
M  V30 5309 H 508.791 1.39446 3.93524 0
M  V30 5310 H 510.181 5.43605 3.94896 0
M  V30 5311 N 512.901 -0.976442 1.23707 0
M  V30 5312 C 513.849 -2.09078 1.01927 0
M  V30 5313 C 514.843 -1.69345 -0.0430193 0
M  V30 5314 O 516.049 -1.79659 0.110814 0
M  V30 5315 H 512.424 -0.68398 0.312531 0
M  V30 5316 H 514.395 -2.24614 1.96447 0
M  V30 5317 C 513.144 -3.41919 0.631385 0
M  V30 5318 H 512.467 -3.72946 1.44053 0
M  V30 5319 H 513.907 -4.20817 0.518532 0
M  V30 5320 C 512.366 -3.30357 -0.660723 0
M  V30 5321 O 512.896 -3.63542 -1.70881 0
M  V30 5322 N 511.102 -2.83507 -0.638139 0
M  V30 5323 H 510.649 -2.567 0.215108 0
M  V30 5324 H 510.607 -2.76153 -1.50289 0
M  V30 5325 N 514.379 -1.04941 -1.1758 0
M  V30 5326 C 515.329 -0.618378 -2.19454 0
M  V30 5327 C 516.313 0.343813 -1.57184 0
M  V30 5328 O 517.505 0.16145 -1.76262 0
M  V30 5329 C 514.634 0.00803847 -3.43299 0
M  V30 5330 C 513.72 -0.977827 -4.12673 0
M  V30 5331 N 514.111 -2.14826 -4.57912 0
M  V30 5332 C 512.409 -0.805748 -4.38661 0
M  V30 5333 C 513.11 -2.77174 -5.11419 0
M  V30 5334 N 512.086 -2.04989 -5.03468 0
M  V30 5335 H 515.888 -1.51018 -2.52132 0
M  V30 5336 H 513.402 -0.919201 -1.33882 0
M  V30 5337 H 515.399 0.334584 -4.15555 0
M  V30 5338 H 514.059 0.895272 -3.12114 0
M  V30 5339 H 515.07 -2.52673 -4.52081 0
M  V30 5340 H 511.747 0.0306506 -4.17489 0
M  V30 5341 H 513.137 -3.76416 -5.56562 0
M  V30 5342 N 515.857 1.33968 -0.830081 0
M  V30 5343 C 517.104 1.98063 -0.421566 0
M  V30 5344 C 517.432 1.65787 1.0171 0
M  V30 5345 O 516.687 0.925348 1.72441 0
M  V30 5346 C 516.986 3.52679 -0.57898 0
M  V30 5347 C 516.652 4.04884 -1.98443 0
M  V30 5348 C 515.314 4.18852 -2.36888 0
M  V30 5349 C 517.666 4.32879 -2.90285 0
M  V30 5350 C 514.994 4.58145 -3.66497 0
M  V30 5351 C 517.346 4.7362 -4.19364 0
M  V30 5352 C 516.01 4.85794 -4.57778 0
M  V30 5353 H 515.28 0.724765 -0.154262 0
M  V30 5354 H 517.927 1.59792 -1.05541 0
M  V30 5355 H 516.232 3.91556 0.138219 0
M  V30 5356 H 517.929 4.00261 -0.243317 0
M  V30 5357 H 514.519 3.9448 -1.67581 0
M  V30 5358 H 518.703 4.21619 -2.61823 0
M  V30 5359 H 513.959 4.65762 -3.96075 0
M  V30 5360 H 518.133 4.9424 -4.90612 0
M  V30 5361 H 515.76 5.15998 -5.58256 0
M  V30 5362 N 517.335 0.585699 1.46312 0
M  V30 5363 C 518.583 0.072278 2.01971 0
M  V30 5364 C 518.904 -1.29345 1.45928 0
M  V30 5365 O 518.174 -1.84973 0.645109 0
M  V30 5366 H 516.754 0.023729 0.746623 0
M  V30 5367 H 519.416 0.762155 1.7938 0
M  V30 5368 H 518.512 0.00552767 3.121 0
M  V30 5369 N 518.813 -1.54241 0.323641 0
M  V30 5370 C 520.043 -2.04687 -0.280464 0
M  V30 5371 C 520.451 -1.19939 -1.46326 0
M  V30 5372 O 519.794 -0.222872 -1.82343 0
M  V30 5373 C 519.856 -3.50978 -0.778123 0
M  V30 5374 C 519.52 -4.56127 0.282371 0
M  V30 5375 C 520.517 -5.07726 1.11847 0
M  V30 5376 C 518.202 -5.00451 0.430582 0
M  V30 5377 C 520.196 -6.02212 2.08851 0
M  V30 5378 C 517.883 -5.94752 1.40404 0
M  V30 5379 C 518.881 -6.45519 2.23147 0
M  V30 5380 O 518.569 -7.37968 3.1884 0
M  V30 5381 H 518.301 -0.673192 -0.0615473 0
M  V30 5382 H 520.855 -1.99999 0.467921 0
M  V30 5383 H 519.085 -3.53064 -1.57742 0
M  V30 5384 H 520.774 -3.84499 -1.30058 0
M  V30 5385 H 521.54 -4.74261 1.01496 0
M  V30 5386 H 517.419 -4.6055 -0.203569 0
M  V30 5387 H 520.963 -6.41761 2.73474 0
M  V30 5388 H 516.86 -6.27633 1.5082 0
M  V30 5389 H 517.628 -7.55841 3.14079 0
M  V30 5390 N 520.291 -0.0518155 -1.57515 0
M  V30 5391 C 521.223 0.951542 -2.08515 0
M  V30 5392 C 522.236 1.27436 -1.01311 0
M  V30 5393 O 523.425 1.23504 -1.28876 0
M  V30 5394 C 520.525 2.27291 -2.5138 0
M  V30 5395 C 519.698 2.13191 -3.81927 0
M  V30 5396 C 518.757 3.28458 -4.11098 0
M  V30 5397 O 517.783 3.04334 -4.81009 0
M  V30 5398 N 518.985 4.52954 -3.63061 0
M  V30 5399 H 521.75 0.516242 -2.9522 0
M  V30 5400 H 519.311 0.13441 -1.61341 0
M  V30 5401 H 521.303 3.03272 -2.67971 0
M  V30 5402 H 519.873 2.62386 -1.69919 0
M  V30 5403 H 519.093 1.21798 -3.74912 0
M  V30 5404 H 520.381 2.00999 -4.67415 0
M  V30 5405 H 519.779 4.75444 -3.06545 0
M  V30 5406 H 518.336 5.26026 -3.84889 0
M  V30 5407 N 521.769 1.56035 0.221574 0
M  V30 5408 C 522.717 1.93269 1.29421 0
M  V30 5409 C 523.711 0.814727 1.48521 0
M  V30 5410 O 524.917 0.999559 1.49696 0
M  V30 5411 H 521.292 0.614188 0.43391 0
M  V30 5412 H 523.263 2.82773 0.952987 0
M  V30 5413 C 522.012 2.26573 2.63742 0
M  V30 5414 H 521.335 3.12112 2.49853 0
M  V30 5415 H 522.775 2.5651 3.37607 0
M  V30 5416 C 521.234 1.09086 3.1875 0
M  V30 5417 O 521.764 0.351985 4.00155 0
M  V30 5418 N 519.97 0.874693 2.77124 0
M  V30 5419 H 519.517 1.47726 2.11033 0
M  V30 5420 H 519.475 0.0903349 3.1427 0
M  V30 5421 N 523.247 -0.488276 1.49845 0
M  V30 5422 C 524.658 -1.06955 1.53028 0
M  V30 5423 C 525.009 -1.9351 0.323797 0
M  V30 5424 O 524.134 -2.08891 -0.565116 0
M  V30 5425 C 524.729 -1.94643 2.77307 0
M  V30 5426 C 523.288 -2.4791 2.83227 0
M  V30 5427 C 522.435 -1.25833 2.47106 0
M  V30 5428 H 525.386 -0.271626 1.56358 0
M  V30 5429 H 525.407 -2.79496 2.5819 0
M  V30 5430 H 524.919 -1.31621 3.65099 0
M  V30 5431 H 523.02 -3.14535 1.99745 0
M  V30 5432 H 523.133 -2.84193 3.85709 0
M  V30 5433 H 521.497 -1.58764 1.99163 0
M  V30 5434 H 522.28 -0.644993 3.37186 0
M  V30 5435 N 524.725 -1.39134 -0.740242 0
M  V30 5436 C 525.972 -1.36071 -1.49969 0
M  V30 5437 C 526.3 0.0450245 -1.94448 0
M  V30 5438 O 525.555 1.02482 -1.66721 0
M  V30 5439 C 525.854 -2.27457 -2.75678 0
M  V30 5440 C 525.52 -3.75185 -2.50094 0
M  V30 5441 C 524.182 -4.15439 -2.42825 0
M  V30 5442 C 526.534 -4.68643 -2.28086 0
M  V30 5443 C 523.862 -5.4722 -2.11584 0
M  V30 5444 C 526.214 -6.00695 -1.98363 0
M  V30 5445 C 524.878 -6.40018 -1.8956 0
M  V30 5446 H 524.148 -0.497921 -0.548777 0
M  V30 5447 H 526.795 -1.71599 -0.85007 0
M  V30 5448 H 525.1 -1.8503 -3.45356 0
M  V30 5449 H 526.797 -2.22384 -3.33686 0
M  V30 5450 H 523.387 -3.43279 -2.56627 0
M  V30 5451 H 527.571 -4.3838 -2.32672 0
M  V30 5452 H 522.827 -5.76615 -2.03287 0
M  V30 5453 H 527.001 -6.72644 -1.80341 0
M  V30 5454 H 524.628 -7.42051 -1.65117 0
M  V30 5455 N 526.204 0.969867 -1.24223 0
M  V30 5456 C 527.167 2.04564 -1.03373 0
M  V30 5457 C 528.167 1.60798 0.00819206 0
M  V30 5458 O 529.357 1.72641 -0.232567 0
M  V30 5459 C 526.489 3.36163 -0.566343 0
M  V30 5460 H 527.682 2.24494 -1.98853 0
M  V30 5461 H 525.235 1.1448 -1.06415 0
M  V30 5462 H 525.97 3.21925 0.391751 0
M  V30 5463 H 525.755 3.69273 -1.31834 0
M  V30 5464 H 527.245 4.1526 -0.441435 0
M  V30 5465 N 527.682 1.05563 1.17022 0
M  V30 5466 C 528.645 0.664098 2.19368 0
M  V30 5467 C 529.645 -0.286358 1.5823 0
M  V30 5468 O 530.835 -0.069728 1.7406 0
M  V30 5469 C 527.967 -0.0239932 3.40892 0
M  V30 5470 H 529.16 1.57 2.55521 0
M  V30 5471 H 526.713 0.849964 1.31169 0
M  V30 5472 H 527.448 -0.942988 3.10287 0
M  V30 5473 H 527.233 0.659351 3.86516 0
M  V30 5474 H 528.723 -0.283909 4.16634 0
M  V30 5475 N 529.16 -1.33526 0.837174 0
M  V30 5476 C 530.406 -1.98541 0.44193 0
M  V30 5477 C 530.761 -1.65124 -0.987517 0
M  V30 5478 O 530.054 -0.919948 -1.6807 0
M  V30 5479 C 530.248 -3.52367 0.597675 0
M  V30 5480 C 530.077 -4.00731 2.04071 0
M  V30 5481 C 528.847 -4.28649 2.67559 0
M  V30 5482 C 531.045 -4.17073 3.00923 0
M  V30 5483 N 529.027 -4.63142 4.02955 0
M  V30 5484 C 530.398 -4.54905 4.21261 0
M  V30 5485 C 532.453 -3.99358 2.97351 0
M  V30 5486 C 531.156 -4.76874 5.38501 0
M  V30 5487 C 533.182 -4.22501 4.1382 0
M  V30 5488 C 532.544 -4.60634 5.32912 0
M  V30 5489 H 528.643 -0.753246 0.210105 0
M  V30 5490 H 531.227 -1.61674 1.08488 0
M  V30 5491 H 529.398 -3.88397 -0.0154658 0
M  V30 5492 H 531.13 -4.04326 0.17404 0
M  V30 5493 H 527.885 -4.20077 2.18706 0
M  V30 5494 H 528.309 -4.84601 4.72748 0
M  V30 5495 H 532.951 -3.68993 2.06408 0
M  V30 5496 H 530.669 -5.06101 6.2999 0
M  V30 5497 H 534.255 -4.10316 4.12471 0
M  V30 5498 H 533.135 -4.78187 6.21536 0
M  V30 5499 N 530.638 -0.59345 -1.46 0
M  V30 5500 C 531.884 -0.0832754 -2.02629 0
M  V30 5501 C 532.217 1.27749 -1.46266 0
M  V30 5502 O 531.492 1.8395 -0.631866 0
M  V30 5503 C 531.775 -0.0290756 -3.60088 0
M  V30 5504 C 531.628 -1.41951 -4.26814 0
M  V30 5505 C 532.947 0.666055 -4.35031 0
M  V30 5506 H 530.066 -0.031736 -0.736316 0
M  V30 5507 H 532.708 -0.762711 -1.74019 0
M  V30 5508 H 530.858 0.549532 -3.84594 0
M  V30 5509 H 532.53 -2.04411 -4.13538 0
M  V30 5510 H 530.773 -1.98422 -3.8576 0
M  V30 5511 H 531.444 -1.33395 -5.3564 0
M  V30 5512 H 533.92 0.174401 -4.15734 0
M  V30 5513 H 532.796 0.673041 -5.44758 0
M  V30 5514 H 533.057 1.72946 -4.06869 0
M  V30 5515 N 532.116 1.54067 -0.331816 0
M  V30 5516 C 533.046 2.27569 0.522932 0
M  V30 5517 C 534.027 1.28679 1.11247 0
M  V30 5518 O 535.212 1.57504 1.13605 0
M  V30 5519 C 532.342 3.0397 1.67987 0
M  V30 5520 C 531.296 4.10267 1.21924 0
M  V30 5521 C 530.622 4.74555 2.46377 0
M  V30 5522 C 531.922 5.21268 0.32815 0
M  V30 5523 H 533.616 2.99264 -0.0901977 0
M  V30 5524 H 531.162 1.4393 -0.044821 0
M  V30 5525 H 533.115 3.54123 2.28418 0
M  V30 5526 H 531.839 2.29906 2.31971 0
M  V30 5527 H 530.498 3.61009 0.637809 0
M  V30 5528 H 530.146 3.97098 3.08743 0
M  V30 5529 H 529.846 5.46363 2.16243 0
M  V30 5530 H 531.37 5.27487 3.07555 0
M  V30 5531 H 532.784 5.67128 0.838978 0
M  V30 5532 H 531.181 5.99982 0.119228 0
M  V30 5533 H 532.251 4.80673 -0.638839 0
M  V30 5534 N 533.594 0.0601682 1.57485 0
M  V30 5535 C 534.819 -0.624416 1.97777 0
M  V30 5536 C 535.244 -1.63051 0.937867 0
M  V30 5537 O 534.602 -1.81036 -0.0978845 0
M  V30 5538 C 534.65 -1.27979 3.37126 0
M  V30 5539 O 533.754 -2.39556 3.35688 0
M  V30 5540 H 533.095 -0.161581 0.64404 0
M  V30 5541 H 535.625 0.131237 2.04179 0
M  V30 5542 H 535.635 -1.62937 3.74053 0
M  V30 5543 H 534.31 -0.542501 4.12347 0
M  V30 5544 H 532.887 -2.06478 3.10517 0
M  V30 5545 N 535.072 -1.5615 -0.213296 0
M  V30 5546 C 536.3 -1.83638 -0.953139 0
M  V30 5547 C 536.715 -0.640362 -1.77609 0
M  V30 5548 O 536.072 0.391071 -1.78261 0
M  V30 5549 C 536.123 -3.09735 -1.86405 0
M  V30 5550 O 535.844 -4.24723 -1.07435 0
M  V30 5551 C 537.345 -3.5027 -2.71709 0
M  V30 5552 H 534.565 -0.610263 -0.278962 0
M  V30 5553 H 537.109 -2.03247 -0.226035 0
M  V30 5554 H 535.264 -2.92077 -2.545 0
M  V30 5555 H 535.678 -4.9641 -1.69343 0
M  V30 5556 H 537.152 -4.41515 -3.31313 0
M  V30 5557 H 537.629 -2.72406 -3.44516 0
M  V30 5558 H 538.235 -3.70396 -2.09015 0
M  V30 5559 N 536.55 0.480323 -1.50102 0
M  V30 5560 C 537.827 1.24159 -1.51142 0
M  V30 5561 C 538.207 2.09605 -0.250818 0
M  V30 5562 O 537.555 2.15274 0.766118 0
M  V30 5563 C 537.765 2.08057 -2.80202 0
M  V30 5564 C 539.113 2.66556 -3.30504 0
M  V30 5565 O 540.137 2.18308 -2.81461 0
M  V30 5566 O 538.996 3.54442 -4.15973 0
M  V30 5567 H 536.09 0.562928 -0.605839 0
M  V30 5568 H 538.636 0.492899 -1.62384 0
M  V30 5569 H 537.408 1.45032 -3.6343 0
M  V30 5570 H 537.031 2.90079 -2.71919 0
M  V30 5571 N 538.028 1.39524 0.732853 0
M  V30 5572 C 538.991 1.38189 1.82857 0
M  V30 5573 C 539.991 0.278624 1.58368 0
M  V30 5574 O 541.181 0.536639 1.65728 0
M  V30 5575 C 538.313 1.15661 3.2068 0
M  V30 5576 H 539.506 2.35692 1.85444 0
M  V30 5577 H 537.059 1.2512 0.936728 0
M  V30 5578 H 537.794 0.188482 3.23752 0
M  V30 5579 H 537.579 1.95559 3.39852 0
M  V30 5580 H 539.069 1.17472 4.00737 0
M  V30 5581 N 539.506 -0.963266 1.24736 0
M  V30 5582 C 540.454 -2.07985 1.04139 0
M  V30 5583 C 541.448 -1.69381 -0.0250556 0
M  V30 5584 O 542.654 -1.79531 0.129863 0
M  V30 5585 H 539.029 -0.680627 0.319768 0
M  V30 5586 H 541 -2.22517 1.98818 0
M  V30 5587 C 539.749 -3.4123 0.667615 0
M  V30 5588 H 539.072 -3.71397 1.48 0
M  V30 5589 H 540.512 -4.20244 0.563136 0
M  V30 5590 C 538.971 -3.3104 -0.625647 0
M  V30 5591 O 539.501 -3.65334 -1.67016 0
M  V30 5592 N 537.707 -2.84168 -0.608033 0
M  V30 5593 H 537.254 -2.56458 0.242323 0
M  V30 5594 H 537.212 -2.77732 -1.47352 0
M  V30 5595 N 540.985 -1.06182 -1.16461 0
M  V30 5596 C 542.232 -0.777863 -1.86964 0
M  V30 5597 C 542.56 0.695602 -1.81636 0
M  V30 5598 O 541.815 1.52532 -1.22607 0
M  V30 5599 C 542.114 -1.21633 -3.36066 0
M  V30 5600 C 541.78 -2.69371 -3.61594 0
M  V30 5601 C 540.442 -3.09727 -3.6827 0
M  V30 5602 C 542.794 -3.64791 -3.7226 0
M  V30 5603 C 540.122 -4.44345 -3.83112 0
M  V30 5604 C 542.474 -4.99155 -3.88623 0
M  V30 5605 C 541.138 -5.39149 -3.93541 0
M  V30 5606 H 540.408 -0.28464 -0.68415 0
M  V30 5607 H 543.055 -1.33071 -1.37711 0
M  V30 5608 H 541.36 -0.582651 -3.87443 0
M  V30 5609 H 543.057 -0.973682 -3.88999 0
M  V30 5610 H 539.647 -2.37124 -3.57029 0
M  V30 5611 H 543.831 -3.34746 -3.66413 0
M  V30 5612 H 539.087 -4.74819 -3.85172 0
M  V30 5613 H 543.261 -5.72976 -3.95817 0
M  V30 5614 H 540.888 -6.43464 -4.04794 0
M  V30 5615 N 542.463 1.3308 -0.844243 0
M  V30 5616 C 543.41 2.29104 -0.279323 0
M  V30 5617 C 544.38 1.54577 0.607882 0
M  V30 5618 O 545.565 1.8285 0.545009 0
M  V30 5619 C 542.705 3.40927 0.53508 0
M  V30 5620 C 541.818 4.30354 -0.376749 0
M  V30 5621 C 540.953 5.29297 0.449276 0
M  V30 5622 C 539.992 6.10365 -0.460606 0
M  V30 5623 N 539.129 7.01335 0.327612 0
M  V30 5624 H 543.969 2.76817 -1.10346 0
M  V30 5625 H 541.506 1.36203 -0.555611 0
M  V30 5626 H 543.464 4.04469 1.02278 0
M  V30 5627 H 542.094 2.94391 1.32414 0
M  V30 5628 H 541.146 3.67485 -0.982791 0
M  V30 5629 H 542.458 4.87067 -1.07549 0
M  V30 5630 H 541.612 5.98392 1.00058 0
M  V30 5631 H 540.351 4.73174 1.18143 0
M  V30 5632 H 539.356 5.40182 -1.02388 0
M  V30 5633 H 540.581 6.68571 -1.1912 0
M  V30 5634 H 538.527 6.47655 1.04305 0
M  V30 5635 H 538.444 7.55355 -0.3123 0
M  V30 5636 H 539.712 7.74731 0.86098 0
M  V30 5637 N 543.941 0.601185 1.45683 0
M  V30 5638 C 545.352 0.179659 1.85834 0
M  V30 5639 C 545.703 -1.26189 1.50236 0
M  V30 5640 O 544.828 -1.95587 0.925987 0
M  V30 5641 C 545.423 0.319277 3.37292 0
M  V30 5642 C 543.982 -0.0475092 3.7637 0
M  V30 5643 C 543.129 0.646692 2.69654 0
M  V30 5644 H 546.08 0.808268 1.36575 0
M  V30 5645 H 546.101 -0.4503 3.77826 0
M  V30 5646 H 545.613 1.36855 3.6317 0
M  V30 5647 H 543.714 -1.0962 3.5611 0
M  V30 5648 H 543.827 0.34168 4.7788 0
M  V30 5649 H 542.191 0.0849971 2.54558 0
M  V30 5650 H 542.974 1.69797 2.98369 0
M  V30 5651 N 545.419 -1.53889 0.339982 0
M  V30 5652 C 546.366 -2.24902 -0.518452 0
M  V30 5653 C 547.336 -1.24593 -1.09844 0
M  V30 5654 O 548.521 -1.53317 -1.13572 0
M  V30 5655 C 545.661 -3.02262 -1.66529 0
M  V30 5656 C 544.774 -4.17418 -1.11295 0
M  V30 5657 C 543.909 -4.82273 -2.2268 0
M  V30 5658 C 542.948 -5.89503 -1.6478 0
M  V30 5659 N 542.085 -6.48153 -2.69893 0
M  V30 5660 H 546.925 -2.97853 0.0936579 0
M  V30 5661 H 544.462 -1.46986 0.0579924 0
M  V30 5662 H 546.42 -3.45371 -2.3404 0
M  V30 5663 H 545.05 -2.31614 -2.24844 0
M  V30 5664 H 544.102 -3.78976 -0.328886 0
M  V30 5665 H 545.414 -4.94554 -0.649414 0
M  V30 5666 H 544.568 -5.28435 -2.98063 0
M  V30 5667 H 543.307 -4.04552 -2.72376 0
M  V30 5668 H 542.312 -5.42728 -0.879004 0
M  V30 5669 H 543.537 -6.6913 -1.1594 0
M  V30 5670 H 541.483 -5.73298 -3.1885 0
M  V30 5671 H 541.4 -7.20752 -2.28151 0
M  V30 5672 H 542.668 -6.98968 -3.45056 0
M  V30 5673 N 546.897 -0.0685191 -1.57451 0
M  V30 5674 C 548.122 0.613919 -1.98106 0
M  V30 5675 C 548.547 1.62551 -0.946501 0
M  V30 5676 O 547.905 1.81085 0.0882824 0
M  V30 5677 C 547.953 1.26189 -3.378 0
M  V30 5678 O 547.057 2.37773 -3.36954 0
M  V30 5679 H 546.398 0.158163 -0.644888 0
M  V30 5680 H 548.928 -0.142063 -2.04106 0
M  V30 5681 H 548.938 1.60951 -3.74912 0
M  V30 5682 H 547.613 0.520625 -4.12629 0
M  V30 5683 H 546.19 2.04829 -3.11608 0
M  V30 5684 N 548.375 1.56261 0.205012 0
M  V30 5685 C 549.6 1.84491 0.947512 0
M  V30 5686 C 550.025 0.650894 1.76479 0
M  V30 5687 O 549.383 -0.40035 1.76824 0
M  V30 5688 C 549.431 3.10863 1.82747 0
M  V30 5689 O 548.535 2.90719 2.925 0
M  V30 5690 H 547.876 0.607783 0.267386 0
M  V30 5691 H 550.406 2.03485 0.213323 0
M  V30 5692 H 550.416 3.41399 2.23407 0
M  V30 5693 H 549.091 3.97392 1.2269 0
M  V30 5694 H 547.668 2.71457 2.55667 0
M  V30 5695 N 549.853 -0.472356 1.50355 0
M  V30 5696 C 550.801 -1.59126 1.69651 0
M  V30 5697 C 551.795 -1.59793 0.56237 0
M  V30 5698 O 553.001 -1.63957 0.742832 0
M  V30 5699 H 549.376 -0.528008 0.535454 0
M  V30 5700 H 551.347 -1.40013 2.63513 0
M  V30 5701 C 550.096 -2.97075 1.8067 0
M  V30 5702 H 549.419 -2.9728 2.67329 0
M  V30 5703 H 550.859 -3.74825 1.98197 0
M  V30 5704 C 549.318 -3.32247 0.558016 0
M  V30 5705 O 549.848 -4.00553 -0.303399 0
M  V30 5706 N 548.054 -2.87659 0.412415 0
M  V30 5707 H 547.601 -2.32246 1.11443 0
M  V30 5708 H 547.559 -3.11556 -0.421908 0
M  V30 5709 N 551.331 -1.39911 -0.725443 0
M  V30 5710 C 552.579 -1.37382 -1.48224 0
M  V30 5711 C 552.9 0.0264107 -1.94982 0
M  V30 5712 O 552.17 0.979408 -1.6966 0
M  V30 5713 H 550.75 -0.505596 -0.549892 0
M  V30 5714 H 553.412 -1.7487 -0.860608 0
M  V30 5715 H 552.508 -2.04254 -2.3598 0
M  V30 5716 N 552.809 0.956637 -1.25245 0
M  V30 5717 C 553.772 2.03457 -1.05537 0
M  V30 5718 C 554.772 1.60798 -0.00886317 0
M  V30 5719 O 555.962 1.72384 -0.250865 0
M  V30 5720 C 553.094 3.35543 -0.601965 0
M  V30 5721 H 554.287 2.22372 -2.01223 0
M  V30 5722 H 551.84 1.13344 -1.07623 0
M  V30 5723 H 552.575 3.22323 0.357584 0
M  V30 5724 H 552.36 3.67854 -1.35743 0
M  V30 5725 H 553.85 4.14769 -0.485454 0
M  V30 5726 N 554.287 1.06798 1.15896 0
M  V30 5727 C 555.512 0.808739 1.90982 0
M  V30 5728 C 555.937 -0.6316 1.77179 0
M  V30 5729 O 555.295 -1.4407 1.10061 0
M  V30 5730 C 555.343 1.21468 3.39526 0
M  V30 5731 O 554.447 0.356562 4.10856 0
M  V30 5732 H 553.788 0.29512 0.594811 0
M  V30 5733 H 556.318 1.42513 1.46804 0
M  V30 5734 H 556.328 1.18844 3.90308 0
M  V30 5735 H 555.003 2.26379 3.48891 0
M  V30 5736 H 553.58 0.444808 3.70238 0
M  V30 5737 N 555.766 -1.3263 0.851289 0
M  V30 5738 C 557.043 -1.91982 0.374448 0
M  V30 5739 C 557.423 -1.77568 -1.14161 0
M  V30 5740 O 556.771 -1.1717 -1.96172 0
M  V30 5741 C 556.981 -3.38862 0.835088 0
M  V30 5742 C 558.329 -4.15999 0.850309 0
M  V30 5743 O 559.353 -3.47566 0.779505 0
M  V30 5744 O 558.212 -5.38189 0.949481 0
M  V30 5745 H 555.306 -0.819846 0.10854 0
M  V30 5746 H 557.852 -1.41422 0.937966 0
M  V30 5747 H 556.624 -3.43281 1.87814 0
M  V30 5748 H 556.247 -3.96821 0.248833 0
M  V30 5749 N 557.244 -0.608902 -1.45362 0
M  V30 5750 C 558.49 -0.113196 -2.03085 0
M  V30 5751 C 558.845 1.24288 -1.46868 0
M  V30 5752 O 558.138 1.80792 -0.634402 0
M  V30 5753 C 558.332 -0.0167296 -3.57396 0
M  V30 5754 C 558.161 -1.36191 -4.28581 0
M  V30 5755 C 556.931 -1.94295 -4.66452 0
M  V30 5756 C 559.129 -2.29097 -4.60455 0
M  V30 5757 N 557.111 -3.2228 -5.22503 0
M  V30 5758 C 558.482 -3.41681 -5.17353 0
M  V30 5759 C 560.537 -2.28453 -4.42395 0
M  V30 5760 C 559.24 -4.53789 -5.58093 0
M  V30 5761 C 561.266 -3.39608 -4.8417 0
M  V30 5762 C 560.628 -4.50915 -5.41161 0
M  V30 5763 H 556.727 -0.0848213 -0.777386 0
M  V30 5764 H 559.311 -0.807541 -1.77163 0
M  V30 5765 H 557.482 0.646839 -3.82976 0
M  V30 5766 H 559.214 0.485757 -4.01774 0
M  V30 5767 H 555.969 -1.47486 -4.5005 0
M  V30 5768 H 556.393 -3.87654 -5.55025 0
M  V30 5769 H 561.035 -1.43658 -3.97646 0
M  V30 5770 H 558.753 -5.39307 -6.01808 0
M  V30 5771 H 562.339 -3.40259 -4.71927 0
M  V30 5772 H 561.219 -5.35505 -5.72891 0
M  V30 5773 N 558.722 1.53707 -0.348139 0
M  V30 5774 C 559.685 2.23812 0.494058 0
M  V30 5775 C 560.685 1.23989 1.02388 0
M  V30 5776 O 561.875 1.48395 0.912396 0
M  V30 5777 C 559.007 2.96133 1.68872 0
M  V30 5778 H 560.2 2.99663 -0.119141 0
M  V30 5779 H 557.753 1.55983 -0.0995539 0
M  V30 5780 H 558.488 2.24481 2.34049 0
M  V30 5781 H 558.273 3.69357 1.31596 0
M  V30 5782 H 559.763 3.49475 2.28597 0
M  V30 5783 N 560.2 0.0768682 1.57412 0
M  V30 5784 C 561.147 -0.888577 2.13009 0
M  V30 5785 C 562.117 -1.29198 1.0439 0
M  V30 5786 O 563.302 -1.37694 1.3208 0
M  V30 5787 C 560.442 -2.14899 2.70023 0
M  V30 5788 C 559.555 -1.79777 3.92816 0
M  V30 5789 C 558.69 -3.00467 4.38056 0
M  V30 5790 C 557.729 -2.61385 5.53484 0
M  V30 5791 N 556.866 -3.74851 5.93659 0
M  V30 5792 H 561.706 -0.407593 2.95199 0
M  V30 5793 H 559.243 -0.189534 1.45874 0
M  V30 5794 H 561.201 -2.88688 3.0119 0
M  V30 5795 H 559.831 -2.60529 1.9059 0
M  V30 5796 H 558.883 -0.960301 3.68079 0
M  V30 5797 H 560.195 -1.47027 4.76639 0
M  V30 5798 H 559.349 -3.82529 4.7091 0
M  V30 5799 H 558.088 -3.36413 3.53097 0
M  V30 5800 H 557.093 -1.77746 5.20275 0
M  V30 5801 H 558.318 -2.26603 6.40178 0
M  V30 5802 H 556.264 -4.1055 5.11649 0
M  V30 5803 H 556.181 -3.45887 6.72234 0
M  V30 5804 H 557.449 -4.57477 6.31138 0
M  V30 5805 N 561.678 -1.56367 -0.196722 0
M  V30 5806 C 562.903 -1.84991 -0.937714 0
M  V30 5807 C 563.328 -0.660244 -1.76132 0
M  V30 5808 O 562.686 0.390967 -1.77034 0
M  V30 5809 C 562.734 -3.11828 -1.81096 0
M  V30 5810 O 561.838 -2.92266 -2.90955 0
M  V30 5811 H 561.179 -0.609193 -0.264159 0
M  V30 5812 H 563.709 -2.03595 -0.202529 0
M  V30 5813 H 563.719 -3.42579 -2.21594 0
M  V30 5814 H 562.394 -3.98037 -1.2058 0
M  V30 5815 H 560.971 -2.72809 -2.54224 0
M  V30 5816 N 563.156 0.464375 -1.50603 0
M  V30 5817 C 564.086 1.56944 -1.72889 0
M  V30 5818 C 565.067 1.59979 -0.577997 0
M  V30 5819 O 566.252 1.76138 -0.817855 0
M  V30 5820 C 563.382 2.95225 -1.8292 0
M  V30 5821 C 562.336 3.07056 -2.98162 0
M  V30 5822 C 561.662 4.47051 -2.93343 0
M  V30 5823 C 562.962 2.83648 -4.38567 0
M  V30 5824 H 564.656 1.38547 -2.65415 0
M  V30 5825 H 562.202 0.665082 -1.27721 0
M  V30 5826 H 564.155 3.72467 -1.97095 0
M  V30 5827 H 562.879 3.14793 -0.870209 0
M  V30 5828 H 561.538 2.32248 -2.83648 0
M  V30 5829 H 561.186 4.63547 -1.95276 0
M  V30 5830 H 560.886 4.55902 -3.70712 0
M  V30 5831 H 562.41 5.26304 -3.09575 0
M  V30 5832 H 563.824 3.50636 -4.53572 0
M  V30 5833 H 562.221 3.03937 -5.17438 0
M  V30 5834 H 563.291 1.79451 -4.50472 0
M  V30 5835 N 564.634 1.40294 0.718013 0
M  V30 5836 C 565.911 1.2894 1.47084 0
M  V30 5837 C 566.291 -0.0933625 2.10893 0
M  V30 5838 O 565.639 -1.10598 1.99951 0
M  V30 5839 C 565.849 2.4264 2.50852 0
M  V30 5840 C 567.197 2.8276 3.16752 0
M  V30 5841 O 568.221 2.42215 2.61171 0
M  V30 5842 O 567.08 3.528 4.17366 0
M  V30 5843 H 564.174 0.506236 0.653952 0
M  V30 5844 H 566.72 1.52208 0.750394 0
M  V30 5845 H 565.492 3.35009 2.022 0
M  V30 5846 H 565.115 2.21129 3.30435 0
M  V30 5847 N 566.112 -0.949982 1.2575 0
M  V30 5848 C 567.528 -1.22191 1.02672 0
M  V30 5849 C 567.728 -1.99898 -0.253588 0
M  V30 5850 O 566.784 -2.33329 -0.965076 0
M  V30 5851 C 568.097 -1.99175 2.25277 0
M  V30 5852 C 569.645 -2.12201 2.30087 0
M  V30 5853 C 570.12 -2.92586 3.5236 0
M  V30 5854 N 571.611 -3.00163 3.52784 0
M  V30 5855 C 572.346 -3.62766 4.44059 0
M  V30 5856 N 571.842 -4.26943 5.45611 0
M  V30 5857 N 573.635 -3.59953 4.3173 0
M  V30 5858 H 565.786 -0.430258 2.07996 0
M  V30 5859 H 568.049 -0.252844 0.91366 0
M  V30 5860 H 567.755 -1.49479 3.18354 0
M  V30 5861 H 567.629 -2.99868 2.28821 0
M  V30 5862 H 570.016 -2.61093 1.3753 0
M  V30 5863 H 570.097 -1.10799 2.30559 0
M  V30 5864 H 569.741 -2.44383 4.45241 0
M  V30 5865 H 569.671 -3.94224 3.49134 0
M  V30 5866 H 572.162 -2.54529 2.79327 0
M  V30 5867 H 572.475 -4.72583 6.11461 0
M  V30 5868 H 570.82 -4.25557 5.49478 0
M  V30 5869 H 574.011 -3.09003 3.51617 0
M  V30 5870 H 574.184 -4.08455 5.03059 0
M  V30 5871 N 567.59 -1.07411 -1.15328 0
M  V30 5872 C 568.522 -0.652924 -2.19703 0
M  V30 5873 C 569.535 0.294869 -1.60107 0
M  V30 5874 O 570.724 0.0840932 -1.78302 0
M  V30 5875 C 567.824 0.061434 -3.38844 0
M  V30 5876 C 566.997 -0.902696 -4.27984 0
M  V30 5877 C 566.056 -0.225521 -5.25717 0
M  V30 5878 O 565.082 -0.86676 -5.62562 0
M  V30 5879 N 566.284 1.02858 -5.71315 0
M  V30 5880 H 569.049 -1.55081 -2.56457 0
M  V30 5881 H 566.61 -0.958883 -1.30449 0
M  V30 5882 H 568.602 0.525145 -4.01278 0
M  V30 5883 H 567.172 0.861269 -3.00501 0
M  V30 5884 H 566.392 -1.54551 -3.6264 0
M  V30 5885 H 567.68 -1.55636 -4.84412 0
M  V30 5886 H 567.078 1.56948 -5.43492 0
M  V30 5887 H 565.635 1.43596 -6.35786 0
M  V30 5888 N 569.068 1.32177 -0.85831 0
M  V30 5889 C 569.998 2.31282 -0.321041 0
M  V30 5890 C 570.979 1.59841 0.581786 0
M  V30 5891 O 572.164 1.87619 0.501262 0
M  V30 5892 C 569.294 3.4385 0.48832 0
M  V30 5893 C 568.248 4.26799 -0.320391 0
M  V30 5894 C 567.574 5.31164 0.613934 0
M  V30 5895 C 568.874 4.98829 -1.54813 0
M  V30 5896 H 570.568 2.76469 -1.14915 0
M  V30 5897 H 568.114 1.32916 -0.554028 0
M  V30 5898 H 570.067 4.12224 0.874626 0
M  V30 5899 H 568.791 2.97401 1.34983 0
M  V30 5900 H 567.45 3.60077 -0.688497 0
M  V30 5901 H 567.098 4.80967 1.47239 0
M  V30 5902 H 566.798 5.8755 0.0768097 0
M  V30 5903 H 568.322 6.024 0.997336 0
M  V30 5904 H 569.736 5.59864 -1.23392 0
M  V30 5905 H 568.133 5.64957 -2.02346 0
M  V30 5906 H 569.203 4.26483 -2.30739 0
M  V30 5907 N 570.547 0.616602 1.45037 0
M  V30 5908 C 571.457 -0.0985401 2.34393 0
M  V30 5909 C 572.473 -0.850971 1.51771 0
M  V30 5910 O 573.649 -0.806521 1.84546 0
M  V30 5911 C 570.714 -1.07748 3.29532 0
M  V30 5912 C 569.775 -0.326022 4.2806 0
M  V30 5913 C 569.008 -1.25833 5.18654 0
M  V30 5914 O 569.231 -2.49652 5.12864 0
M  V30 5915 O 568.165 -0.750512 5.97203 0
M  V30 5916 H 571.991 0.636016 2.96966 0
M  V30 5917 H 569.576 0.376832 1.44569 0
M  V30 5918 H 571.458 -1.64107 3.88133 0
M  V30 5919 H 570.133 -1.79291 2.69512 0
M  V30 5920 H 569.04 0.280253 3.73049 0
M  V30 5921 H 570.373 0.349091 4.9096 0
M  V30 5922 N 572.025 -1.5352 0.356285 0
M  V30 5923 C 573.272 -2.01117 -0.236303 0
M  V30 5924 C 573.6 -1.24381 -1.49531 0
M  V30 5925 O 572.855 -0.323057 -1.93015 0
M  V30 5926 C 573.154 -3.52607 -0.583369 0
M  V30 5927 C 572.82 -4.47151 0.58023 0
M  V30 5928 C 571.482 -4.72718 0.899528 0
M  V30 5929 C 573.834 -5.03137 1.36024 0
M  V30 5930 C 571.162 -5.51523 2.00098 0
M  V30 5931 C 573.514 -5.83145 2.45204 0
M  V30 5932 C 572.178 -6.07001 2.77679 0
M  V30 5933 H 571.448 -0.735938 -0.0864695 0
M  V30 5934 H 574.095 -1.85209 0.48683 0
M  V30 5935 H 572.4 -3.66413 -1.38739 0
M  V30 5936 H 574.097 -3.86901 -1.05397 0
M  V30 5937 H 570.687 -4.27394 0.321322 0
M  V30 5938 H 574.871 -4.83339 1.12682 0
M  V30 5939 H 570.127 -5.68229 2.25668 0
M  V30 5940 H 574.301 -6.25537 3.06067 0
M  V30 5941 H 571.928 -6.67851 3.63151 0
M  V30 5942 N 573.503 -0.0852151 -1.57369 0
M  V30 5943 C 574.733 0.588605 -1.98038 0
M  V30 5944 C 575.141 1.62869 -0.962817 0
M  V30 5945 O 574.484 1.83611 0.057134 0
M  V30 5946 C 574.546 1.30303 -3.35054 0
M  V30 5947 C 574.21 0.414855 -4.55113 0
M  V30 5948 C 575.207 -0.333011 -5.18832 0
M  V30 5949 C 572.892 0.335804 -5.01176 0
M  V30 5950 C 574.886 -1.14801 -6.26976 0
M  V30 5951 C 572.573 -0.482857 -6.09189 0
M  V30 5952 C 573.571 -1.22342 -6.71953 0
M  V30 5953 O 573.259 -2.02855 -7.77885 0
M  V30 5954 H 572.991 0.163249 -0.655992 0
M  V30 5955 H 575.545 -0.1582 -2.0479 0
M  V30 5956 H 573.775 2.0962 -3.24956 0
M  V30 5957 H 575.464 1.87041 -3.60237 0
M  V30 5958 H 576.23 -0.281611 -4.84182 0
M  V30 5959 H 572.109 0.901869 -4.52092 0
M  V30 5960 H 575.653 -1.72654 -6.75897 0
M  V30 5961 H 571.55 -0.535773 -6.43273 0
M  V30 5962 H 572.318 -1.95432 -7.94826 0
M  V30 5963 N 574.981 1.5647 0.188427 0
M  V30 5964 C 575.913 1.91611 1.25769 0
M  V30 5965 C 576.926 0.807436 1.41366 0
M  V30 5966 O 578.115 1.08586 1.41673 0
M  V30 5967 C 575.215 2.13874 2.6289 0
M  V30 5968 C 574.388 3.45047 2.68815 0
M  V30 5969 C 573.447 3.56342 3.87178 0
M  V30 5970 O 572.473 4.29109 3.73971 0
M  V30 5971 N 573.675 2.89924 5.02916 0
M  V30 5972 H 576.44 2.8393 0.959373 0
M  V30 5973 H 574.001 1.57418 0.378306 0
M  V30 5974 H 575.993 2.18713 3.4051 0
M  V30 5975 H 574.563 1.28022 2.85183 0
M  V30 5976 H 573.783 3.52017 1.77419 0
M  V30 5977 H 575.071 4.31395 2.6977 0
M  V30 5978 H 574.469 2.30644 5.16546 0
M  V30 5979 H 573.026 3.0038 5.78459 0
M  V30 5980 N 576.459 -0.456382 1.50847 0
M  V30 5981 C 577.705 -1.20618 1.63777 0
M  V30 5982 C 578.06 -1.8936 0.340677 0
M  V30 5983 O 577.353 -1.79786 -0.662378 0
M  V30 5984 C 577.547 -2.26336 2.76599 0
M  V30 5985 C 577.376 -1.67968 4.17153 0
M  V30 5986 C 576.146 -1.47293 4.83356 0
M  V30 5987 C 578.344 -1.16643 5.00898 0
M  V30 5988 N 576.326 -0.843222 6.08081 0
M  V30 5989 C 577.697 -0.660843 6.16468 0
M  V30 5990 C 579.752 -1.05637 4.86565 0
M  V30 5991 C 578.455 -0.0560365 7.19278 0
M  V30 5992 C 580.481 -0.465485 5.89565 0
M  V30 5993 C 579.843 0.0296516 7.04394 0
M  V30 5994 H 575.942 -0.429725 0.653345 0
M  V30 5995 H 578.526 -0.505784 1.88016 0
M  V30 5996 H 576.697 -2.93785 2.54056 0
M  V30 5997 H 578.429 -2.9334 2.78808 0
M  V30 5998 H 575.184 -1.72934 4.40898 0
M  V30 5999 H 575.608 -0.546357 6.74792 0
M  V30 6000 H 580.25 -1.42508 3.98059 0
M  V30 6001 H 577.968 0.324845 8.07447 0
M  V30 6002 H 581.554 -0.382493 5.80541 0
M  V30 6003 H 580.434 0.479705 7.82731 0
M  V30 6004 N 577.937 -1.40673 -0.710563 0
M  V30 6005 C 578.867 -1.44095 -1.83736 0
M  V30 6006 C 579.848 -0.301286 -1.67411 0
M  V30 6007 O 581.033 -0.510618 -1.87367 0
M  V30 6008 C 578.163 -1.30773 -3.21738 0
M  V30 6009 C 577.117 -2.42395 -3.52745 0
M  V30 6010 C 576.443 -2.14147 -4.89944 0
M  V30 6011 C 577.743 -3.84738 -3.53234 0
M  V30 6012 H 579.437 -2.38396 -1.81129 0
M  V30 6013 H 576.983 -1.14746 -0.870017 0
M  V30 6014 H 578.936 -1.31783 -4.00264 0
M  V30 6015 H 577.66 -0.329507 -3.24934 0
M  V30 6016 H 576.319 -2.40643 -2.76562 0
M  V30 6017 H 575.967 -1.14703 -4.89747 0
M  V30 6018 H 575.667 -2.88934 -5.11655 0
M  V30 6019 H 577.191 -2.16848 -5.70797 0
M  V30 6020 H 578.605 -3.88286 -4.2179 0
M  V30 6021 H 577.002 -4.59085 -3.86473 0
M  V30 6022 H 578.072 -4.13962 -2.52514 0
M  V30 6023 N 579.415 0.9433 -1.26252 0
M  V30 6024 C 580.347 2.04542 -1.03417 0
M  V30 6025 C 581.36 1.62799 0.0046911 0
M  V30 6026 O 582.549 1.76944 -0.235146 0
M  V30 6027 C 579.649 3.34511 -0.543671 0
M  V30 6028 C 578.822 4.05033 -1.65128 0
M  V30 6029 C 577.881 5.13273 -1.1592 0
M  V30 6030 O 576.907 5.38095 -1.85586 0
M  V30 6031 N 578.109 5.805 -0.00649279 0
M  V30 6032 H 580.874 2.24699 -1.98319 0
M  V30 6033 H 578.435 1.11264 -1.1761 0
M  V30 6034 H 580.427 4.04212 -0.198703 0
M  V30 6035 H 578.997 3.11042 0.311711 0
M  V30 6036 H 578.217 3.29275 -2.16729 0
M  V30 6037 H 579.505 4.48903 -2.39508 0
M  V30 6038 H 578.903 5.62767 0.575347 0
M  V30 6039 H 577.46 6.51201 0.279416 0
M  V30 6040 N 580.893 1.08022 1.14757 0
M  V30 6041 C 582.118 0.82895 1.90114 0
M  V30 6042 C 582.543 -0.612772 1.77839 0
M  V30 6043 O 581.901 -1.42895 1.11583 0
M  V30 6044 C 581.949 1.25062 3.38219 0
M  V30 6045 O 581.053 0.400119 4.10454 0
M  V30 6046 H 580.394 0.301412 0.591648 0
M  V30 6047 H 582.924 1.44062 1.45284 0
M  V30 6048 H 582.934 1.22977 3.89025 0
M  V30 6049 H 581.609 2.30067 3.46471 0
M  V30 6050 H 580.186 0.484052 3.69745 0
M  V30 6051 N 582.371 -1.3172 0.865308 0
M  V30 6052 C 583.334 -2.26918 0.322627 0
M  V30 6053 C 584.334 -1.52031 -0.523751 0
M  V30 6054 O 585.524 -1.70973 -0.333727 0
M  V30 6055 C 582.656 -3.36558 -0.542338 0
M  V30 6056 H 583.849 -2.76432 1.16298 0
M  V30 6057 H 581.402 -1.42573 0.640512 0
M  V30 6058 H 582.137 -2.92329 -1.40407 0
M  V30 6059 H 581.922 -3.92048 0.0636395 0
M  V30 6060 H 583.412 -4.07465 -0.91446 0
M  V30 6061 N 583.85 -0.624285 -1.44708 0
M  V30 6062 C 584.76 0.0861083 -2.34442 0
M  V30 6063 C 585.776 0.84291 -1.5222 0
M  V30 6064 O 586.952 0.796723 -1.84971 0
M  V30 6065 C 584.017 1.05999 -3.30099 0
M  V30 6066 C 583.077 0.303316 -4.28227 0
M  V30 6067 C 582.311 1.23081 -5.19314 0
M  V30 6068 O 582.534 2.46929 -5.14181 0
M  V30 6069 O 581.468 0.71883 -5.97592 0
M  V30 6070 H 585.293 -0.651756 -2.96624 0
M  V30 6071 H 582.879 -0.384493 -1.44368 0
M  V30 6072 H 584.76 1.62046 -3.88997 0
M  V30 6073 H 583.436 1.77859 -2.70459 0
M  V30 6074 H 582.343 -0.300033 -3.72895 0
M  V30 6075 H 583.676 -0.375123 -4.90768 0
M  V30 6076 N 585.328 1.53329 -0.364422 0
M  V30 6077 C 586.576 2.00842 0.225189 0
M  V30 6078 C 586.897 1.25345 1.49378 0
M  V30 6079 O 586.167 0.366396 1.92443 0
M  V30 6080 H 584.747 0.742009 0.0862027 0
M  V30 6081 H 587.409 1.8863 -0.490389 0
M  V30 6082 H 586.505 3.08795 0.452987 0
M  V30 6083 N 586.806 0.0935595 1.57322 0
M  V30 6084 C 587.769 -0.851426 2.12799 0
M  V30 6085 C 588.769 -1.21187 1.0569 0
M  V30 6086 O 589.959 -1.14156 1.31583 0
M  V30 6087 C 587.091 -2.14779 2.64731 0
M  V30 6088 H 588.284 -0.369733 2.97612 0
M  V30 6089 H 585.837 -0.155417 1.55525 0
M  V30 6090 H 586.572 -2.67437 1.83434 0
M  V30 6091 H 586.357 -1.89907 3.43042 0
M  V30 6092 H 587.847 -2.82383 3.07651 0
M  V30 6093 N 588.284 -1.56567 -0.180126 0
M  V30 6094 C 589.533 -1.80685 -0.896426 0
M  V30 6095 C 589.846 -0.669335 -1.83791 0
M  V30 6096 O 591.052 -0.795209 -2.59593 0
M  V30 6097 C 589.508 -3.20132 -1.6445 0
M  V30 6098 C 589.116 -4.41727 -0.747088 0
M  V30 6099 C 590.86 -3.53549 -2.34955 0
M  V30 6100 C 588.767 -5.72195 -1.49489 0
M  V30 6101 H 587.697 -0.673758 -0.338477 0
M  V30 6102 H 590.348 -1.8289 -0.149467 0
M  V30 6103 H 588.73 -3.12218 -2.43589 0
M  V30 6104 H 589.904 -4.608 0.00671129 0
M  V30 6105 H 588.219 -4.16122 -0.152134 0
M  V30 6106 H 590.816 -4.48267 -2.91481 0
M  V30 6107 H 591.159 -2.78006 -3.09868 0
M  V30 6108 H 591.692 -3.62976 -1.62768 0
M  V30 6109 H 588.431 -6.50743 -0.788251 0
M  V30 6110 H 587.951 -5.57115 -2.22224 0
M  V30 6111 H 589.63 -6.1384 -2.04472 0
M  V30 6112 N 589.762 0.448376 -1.51087 0
M  V30 6113 C 590.725 1.52588 -1.71025 0
M  V30 6114 C 591.725 1.49958 -0.580442 0
M  V30 6115 O 592.915 1.52176 -0.847833 0
M  V30 6116 C 590.047 2.92163 -1.75652 0
M  V30 6117 H 591.24 1.36218 -2.67179 0
M  V30 6118 H 588.793 0.676313 -1.4091 0
M  V30 6119 H 589.528 3.13951 -0.812724 0
M  V30 6120 H 589.313 2.95478 -2.57751 0
M  V30 6121 H 590.803 3.70349 -1.92953 0
M  V30 6122 N 591.24 1.41047 0.703093 0
M  V30 6123 C 592.488 1.39723 1.4602 0
M  V30 6124 C 592.809 0.00461257 1.94999 0
M  V30 6125 O 592.079 -0.952292 1.71196 0
M  V30 6126 H 590.659 0.514281 0.541779 0
M  V30 6127 H 593.321 1.76217 0.832678 0
M  V30 6128 H 592.417 2.07982 2.32701 0
M  V30 6129 N 592.718 -0.936591 1.26751 0
M  V30 6130 C 593.966 -1.67998 1.12343 0
M  V30 6131 C 594.287 -1.92137 -0.332938 0
M  V30 6132 O 593.557 -1.52132 -1.23421 0
M  V30 6133 H 592.137 -0.622609 0.412756 0
M  V30 6134 H 594.799 -1.12509 1.59147 0
M  V30 6135 H 593.895 -2.65185 1.64571 0
M  V30 6136 N 594.196 -1.08629 -1.14182 0
M  V30 6137 C 595.159 -0.722027 -2.1753 0
M  V30 6138 C 596.159 0.244305 -1.58933 0
M  V30 6139 O 597.349 0.0235545 -1.74184 0
M  V30 6140 C 594.481 -0.0663966 -3.40835 0
M  V30 6141 H 595.674 -1.63719 -2.51269 0
M  V30 6142 H 593.227 -0.884442 -1.28869 0
M  V30 6143 H 593.962 0.860389 -3.12678 0
M  V30 6144 H 593.747 -0.761598 -3.84632 0
M  V30 6145 H 595.237 0.173346 -4.1724 0
M  V30 6146 N 595.674 1.31259 -0.872281 0
M  V30 6147 C 596.902 2.00795 -0.498907 0
M  V30 6148 C 597.317 1.65464 0.909238 0
M  V30 6149 O 596.674 0.885073 1.59602 0
M  V30 6150 C 596.725 3.55625 -0.649092 0
M  V30 6151 O 596.446 3.89692 -2.00179 0
M  V30 6152 C 597.947 4.42434 -0.277034 0
M  V30 6153 H 595.167 0.642299 -0.194145 0
M  V30 6154 H 597.711 1.67438 -1.17408 0
M  V30 6155 H 595.866 3.87394 -0.0214402 0
M  V30 6156 H 596.28 4.84407 -2.01122 0
M  V30 6157 H 597.754 5.50299 -0.433064 0
M  V30 6158 H 598.231 4.32146 0.783989 0
M  V30 6159 H 598.837 4.16086 -0.880483 0
M  V30 6160 N 597.152 0.631951 1.44375 0
M  V30 6161 C 598.1 -0.0846693 2.32446 0
M  V30 6162 C 599.094 -0.834957 1.47393 0
M  V30 6163 O 600.3 -0.747764 1.63733 0
M  V30 6164 H 596.675 -0.0461508 0.750583 0
M  V30 6165 H 598.646 0.67619 2.90638 0
M  V30 6166 C 597.395 -1.05211 3.314 0
M  V30 6167 H 596.718 -0.484203 3.96857 0
M  V30 6168 H 598.158 -1.523 3.95703 0
M  V30 6169 C 596.617 -2.13776 2.60387 0
M  V30 6170 O 597.147 -3.21869 2.4034 0
M  V30 6171 N 595.353 -1.89733 2.20113 0
M  V30 6172 H 594.9 -1.01833 2.36618 0
M  V30 6173 H 594.858 -2.62572 1.72926 0
M  V30 6174 N 598.631 -1.53133 0.372548 0
M  V30 6175 C 599.856 -2.0625 -0.218098 0
M  V30 6176 C 600.281 -1.24375 -1.41111 0
M  V30 6177 O 599.639 -0.264554 -1.79359 0
M  V30 6178 C 599.687 -3.55858 -0.582876 0
M  V30 6179 O 598.791 -3.76667 -1.67917 0
M  V30 6180 H 598.132 -0.663317 -0.030104 0
M  V30 6181 H 600.662 -1.97477 0.535169 0
M  V30 6182 H 600.672 -3.99007 -0.851925 0
M  V30 6183 H 599.347 -4.14892 0.289428 0
M  V30 6184 H 597.924 -3.45413 -1.40513 0
M  V30 6185 N 600.109 -0.101901 -1.5727 0
M  V30 6186 C 601.355 0.554864 -1.95686 0
M  V30 6187 C 601.71 1.65368 -0.983415 0
M  V30 6188 O 601.003 1.91597 -0.0105374 0
M  V30 6189 C 601.197 1.14898 -3.38427 0
M  V30 6190 C 601.026 0.109251 -4.49567 0
M  V30 6191 C 599.796 -0.316633 -5.04307 0
M  V30 6192 C 601.994 -0.665196 -5.0998 0
M  V30 6193 N 599.976 -1.34393 -5.99009 0
M  V30 6194 C 601.347 -1.54413 -6.00464 0
M  V30 6195 C 603.402 -0.717966 -4.92696 0
M  V30 6196 C 602.105 -2.47122 -6.75517 0
M  V30 6197 C 604.131 -1.63268 -5.68417 0
M  V30 6198 C 603.493 -2.49923 -6.58572 0
M  V30 6199 H 599.592 0.17317 -0.762585 0
M  V30 6200 H 602.176 -0.18605 -1.93809 0
M  V30 6201 H 600.347 1.85969 -3.40984 0
M  V30 6202 H 602.079 1.76867 -3.64006 0
M  V30 6203 H 598.834 0.0724419 -4.73545 0
M  V30 6204 H 599.258 -1.85598 -6.51062 0
M  V30 6205 H 603.9 -0.0621637 -4.22754 0
M  V30 6206 H 601.618 -3.13724 -7.44717 0
M  V30 6207 H 605.204 -1.67874 -5.57054 0
M  V30 6208 H 604.084 -3.19553 -7.16139 0
M  V30 6209 N 601.587 1.56661 0.17182 0
M  V30 6210 C 602.535 1.97289 1.23207 0
M  V30 6211 C 603.529 0.861566 1.45854 0
M  V30 6212 O 604.735 1.04668 1.4644 0
M  V30 6213 H 601.11 0.627681 0.41415 0
M  V30 6214 H 603.081 2.85662 0.862542 0
M  V30 6215 C 601.83 2.34849 2.564 0
M  V30 6216 H 601.153 3.19903 2.39797 0
M  V30 6217 H 602.593 2.67121 3.29276 0
M  V30 6218 C 601.052 1.19172 3.15119 0
M  V30 6219 O 601.582 0.479113 3.98833 0
M  V30 6220 N 599.788 0.962415 2.74201 0
M  V30 6221 H 599.335 1.54365 2.06226 0
M  V30 6222 H 599.293 0.190272 3.13824 0
M  V30 6223 N 603.065 -0.440357 1.51323 0
M  V30 6224 C 604.313 -1.18769 1.63518 0
M  V30 6225 C 604.634 -1.91793 0.352201 0
M  V30 6226 O 603.904 -1.85432 -0.631811 0
M  V30 6227 H 602.484 -0.441408 0.602634 0
M  V30 6228 H 605.146 -0.505162 1.8824 0
M  V30 6229 H 604.242 -1.91892 2.46138 0
M  V30 6230 N 604.543 -1.41418 -0.695603 0
M  V30 6231 C 605.959 -1.23887 -1.00619 0
M  V30 6232 C 606.159 -0.128206 -2.01092 0
M  V30 6233 O 605.215 0.507408 -2.47349 0
M  V30 6234 C 606.528 -2.58816 -1.53083 0
M  V30 6235 C 608.076 -2.65998 -1.64967 0
M  V30 6236 C 608.551 -4.01244 -2.20833 0
M  V30 6237 N 610.042 -4.0309 -2.28194 0
M  V30 6238 C 610.777 -5.04539 -2.72448 0
M  V30 6239 N 610.273 -6.16378 -3.16306 0
M  V30 6240 N 612.066 -4.91901 -2.72011 0
M  V30 6241 H 604.217 -2.12379 -0.0300061 0
M  V30 6242 H 606.48 -0.944958 -0.0758797 0
M  V30 6243 H 606.186 -3.40842 -0.867147 0
M  V30 6244 H 606.06 -2.81299 -2.51298 0
M  V30 6245 H 608.447 -1.84331 -2.30448 0
M  V30 6246 H 608.528 -2.47325 -0.652982 0
M  V30 6247 H 608.172 -4.83359 -1.55968 0
M  V30 6248 H 608.102 -4.17257 -3.21254 0
M  V30 6249 H 610.593 -3.22341 -1.97242 0
M  V30 6250 H 610.906 -6.89658 -3.487 0
M  V30 6251 H 609.251 -6.19914 -3.14215 0
M  V30 6252 H 612.442 -4.03613 -2.37095 0
M  V30 6253 H 612.615 -5.71102 -3.06181 0
M  V30 6254 N 606.021 0.929856 -1.27246 0
M  V30 6255 C 607.251 1.70895 -1.16096 0
M  V30 6256 C 607.659 1.87039 0.285122 0
M  V30 6257 O 607.002 1.38557 1.20614 0
M  V30 6258 C 607.064 3.12919 -1.7698 0
M  V30 6259 C 606.728 3.2012 -3.26148 0
M  V30 6260 C 607.725 3.02533 -4.22812 0
M  V30 6261 C 605.41 3.43148 -3.66817 0
M  V30 6262 C 607.404 3.07861 -5.58122 0
M  V30 6263 C 605.091 3.48109 -5.02258 0
M  V30 6264 C 606.089 3.30483 -5.97721 0
M  V30 6265 O 605.777 3.35175 -7.30694 0
M  V30 6266 H 605.509 0.54152 -0.404639 0
M  V30 6267 H 608.063 1.17342 -1.68582 0
M  V30 6268 H 606.293 3.67945 -1.18969 0
M  V30 6269 H 607.982 3.72787 -1.60576 0
M  V30 6270 H 608.748 2.84586 -3.92728 0
M  V30 6271 H 604.627 3.55918 -2.9299 0
M  V30 6272 H 608.171 2.94021 -6.32612 0
M  V30 6273 H 604.068 3.65579 -5.31998 0
M  V30 6274 H 604.836 3.51644 -7.39114 0
M  V30 6275 N 607.499 1.09233 1.13605 0
M  V30 6276 C 608.409 0.741939 2.22559 0
M  V30 6277 C 609.425 -0.255236 1.72118 0
M  V30 6278 O 610.601 -0.0970747 2.01166 0
M  V30 6279 C 607.666 0.165595 3.46304 0
M  V30 6280 C 606.727 1.21846 4.11645 0
M  V30 6281 C 605.96 0.669526 5.29484 0
M  V30 6282 O 606.183 -0.508228 5.68131 0
M  V30 6283 O 605.117 1.42361 5.84822 0
M  V30 6284 H 608.943 1.65107 2.54899 0
M  V30 6285 H 606.528 0.866584 1.21699 0
M  V30 6286 H 608.41 -0.152592 4.21124 0
M  V30 6287 H 607.085 -0.716573 3.15669 0
M  V30 6288 H 605.992 1.58931 3.38662 0
M  V30 6289 H 607.325 2.07321 4.46407 0
M  V30 6290 N 608.977 -1.30795 0.87923 0
M  V30 6291 C 609.94 -2.26563 0.346676 0
M  V30 6292 C 610.94 -1.52578 -0.507597 0
M  V30 6293 O 612.13 -1.71318 -0.315575 0
M  V30 6294 C 609.262 -3.37115 -0.506611 0
M  V30 6295 H 610.455 -2.75183 1.19223 0
M  V30 6296 H 608.008 -1.41886 0.655598 0
M  V30 6297 H 608.743 -2.93802 -1.37299 0
M  V30 6298 H 608.528 -3.91959 0.105218 0
M  V30 6299 H 610.018 -4.08412 -0.871192 0
M  V30 6300 N 610.455 -0.639598 -1.44038 0
M  V30 6301 C 611.701 -0.147698 -2.02261 0
M  V30 6302 C 612.034 1.23031 -1.50256 0
M  V30 6303 O 611.309 1.81847 -0.690068 0
M  V30 6304 C 611.592 -0.14362 -3.59813 0
M  V30 6305 C 611.445 -1.55458 -4.22082 0
M  V30 6306 C 612.764 0.527317 -4.36929 0
M  V30 6307 H 609.883 -0.0551453 -0.734934 0
M  V30 6308 H 612.525 -0.817688 -1.71505 0
M  V30 6309 H 610.675 0.426898 -3.86147 0
M  V30 6310 H 612.347 -2.17464 -4.06826 0
M  V30 6311 H 610.59 -2.10594 -3.79253 0
M  V30 6312 H 611.261 -1.50369 -5.31124 0
M  V30 6313 H 613.737 0.0420504 -4.16079 0
M  V30 6314 H 612.613 0.499389 -5.46624 0
M  V30 6315 H 612.874 1.59914 -4.12165 0
M  V30 6316 N 611.933 1.52934 -0.380664 0
M  V30 6317 C 613.344 1.86457 0.0952684 0
M  V30 6318 C 613.695 1.3007 1.46889 0
M  V30 6319 O 612.82 0.628636 2.07068 0
M  V30 6320 C 613.415 3.38323 0.179648 0
M  V30 6321 C 611.974 3.71589 0.599858 0
M  V30 6322 C 611.121 2.76228 -0.243572 0
M  V30 6323 H 614.072 1.46966 -0.59888 0
M  V30 6324 H 614.093 3.67113 1.00042 0
M  V30 6325 H 613.605 3.79333 -0.820228 0
M  V30 6326 H 611.706 3.36144 1.60742 0
M  V30 6327 H 611.819 4.77715 0.364003 0
M  V30 6328 H 610.183 2.53045 0.289855 0
M  V30 6329 H 610.966 3.20074 -1.24127 0
M  V30 6330 N 613.412 0.11024 1.57214 0
M  V30 6331 C 614.637 -0.561179 1.99664 0
M  V30 6332 C 615.062 -1.59985 0.989266 0
M  V30 6333 O 614.42 -1.81255 -0.0402399 0
M  V30 6334 C 614.468 -1.17189 3.41027 0
M  V30 6335 O 613.572 -2.28755 3.4314 0
M  V30 6336 H 612.913 -0.14101 0.648855 0
M  V30 6337 H 615.443 0.196128 2.03658 0
M  V30 6338 H 615.453 -1.50954 3.79047 0
M  V30 6339 H 614.128 -0.411041 4.13864 0
M  V30 6340 H 612.705 -1.96495 3.16929 0
M  V30 6341 N 614.89 -1.56749 -0.16351 0
M  V30 6342 C 616.138 -1.82074 -0.87713 0
M  V30 6343 C 616.459 -0.688503 -1.82441 0
M  V30 6344 O 615.729 0.291085 -1.93725 0
M  V30 6345 H 614.309 -0.671677 -0.326893 0
M  V30 6346 H 616.971 -1.9423 -0.161459 0
M  V30 6347 H 616.067 -2.76407 -1.44934 0
M  V30 6348 N 616.368 0.432326 -1.51554 0
M  V30 6349 C 617.596 1.20364 -1.68286 0
M  V30 6350 C 618.011 1.84888 -0.38233 0
M  V30 6351 O 617.368 1.70924 0.639627 0
M  V30 6352 C 617.419 2.28398 -2.80208 0
M  V30 6353 O 617.14 1.66512 -4.05223 0
M  V30 6354 C 618.641 3.18584 -3.08251 0
M  V30 6355 H 615.861 0.36259 -0.564596 0
M  V30 6356 H 618.405 0.511647 -1.97996 0
M  V30 6357 H 616.56 2.93305 -2.53083 0
M  V30 6358 H 616.974 2.37951 -4.67418 0
M  V30 6359 H 618.448 3.90511 -3.90135 0
M  V30 6360 H 618.925 3.79628 -2.2086 0
M  V30 6361 H 619.531 2.59372 -3.37055 0
M  V30 6362 N 617.846 1.41785 0.688094 0
M  V30 6363 C 619.071 1.45117 1.48175 0
M  V30 6364 C 619.496 0.060129 1.88004 0
M  V30 6365 O 618.854 -0.938385 1.55126 0
M  V30 6366 C 618.902 2.37224 2.71583 0
M  V30 6367 O 618.006 1.83443 3.69354 0
M  V30 6368 H 617.347 0.492208 0.445676 0
M  V30 6369 H 619.877 1.86329 0.845145 0
M  V30 6370 H 619.887 2.53353 3.19806 0
M  V30 6371 H 618.562 3.38293 2.41931 0
M  V30 6372 H 617.139 1.76802 3.28322 0
M  V30 6373 N 619.324 -0.923095 1.27737 0
M  V30 6374 C 620.552 -1.70525 1.17171 0
M  V30 6375 C 620.967 -1.86847 -0.270881 0
M  V30 6376 O 620.324 -1.38879 -1.18401 0
M  V30 6377 C 620.375 -3.10242 1.85559 0
M  V30 6378 O 620.096 -2.94683 3.24182 0
M  V30 6379 C 621.597 -4.04586 1.81176 0
M  V30 6380 H 618.817 -0.533347 0.407163 0
M  V30 6381 H 621.361 -1.15599 1.68692 0
M  V30 6382 H 619.516 -3.62014 1.3793 0
M  V30 6383 H 619.93 -3.83045 3.58297 0
M  V30 6384 H 621.404 -5.00119 2.33633 0
M  V30 6385 H 621.881 -4.3218 0.782099 0
M  V30 6386 H 622.487 -3.58741 2.2844 0
M  V30 6387 N 620.802 -1.09834 -1.13024 0
M  V30 6388 C 622.049 -0.83695 -1.84395 0
M  V30 6389 C 622.377 0.637463 -1.83757 0
M  V30 6390 O 621.632 1.48554 -1.27398 0
M  V30 6391 C 621.931 -1.32263 -3.32026 0
M  V30 6392 C 621.597 -2.80739 -3.52841 0
M  V30 6393 C 620.259 -3.21286 -3.5823 0
M  V30 6394 C 622.611 -3.76449 -3.60466 0
M  V30 6395 C 619.939 -4.56308 -3.68781 0
M  V30 6396 C 622.291 -5.11266 -3.72546 0
M  V30 6397 C 620.955 -5.51397 -3.76189 0
M  V30 6398 H 620.225 -0.306262 -0.674748 0
M  V30 6399 H 622.872 -1.37385 -1.33408 0
M  V30 6400 H 621.177 -0.705618 -3.85394 0
M  V30 6401 H 622.874 -1.09695 -3.85705 0
M  V30 6402 H 619.464 -2.48363 -3.49305 0
M  V30 6403 H 623.648 -3.46234 -3.55578 0
M  V30 6404 H 618.904 -4.86832 -3.69871 0
M  V30 6405 H 623.078 -5.85279 -3.77388 0
M  V30 6406 H 620.705 -6.56017 -3.84117 0
M  V30 6407 N 622.28 1.30327 -0.886154 0
M  V30 6408 C 623.51 1.99964 -0.519421 0
M  V30 6409 C 623.918 1.66593 0.89686 0
M  V30 6410 O 623.261 0.899886 1.60149 0
M  V30 6411 C 623.323 3.54187 -0.615795 0
M  V30 6412 C 622.987 4.11078 -1.9966 0
M  V30 6413 C 623.984 4.26985 -2.96614 0
M  V30 6414 C 621.669 4.46429 -2.30231 0
M  V30 6415 C 623.663 4.77456 -4.22273 0
M  V30 6416 C 621.35 4.966 -3.56135 0
M  V30 6417 C 622.348 5.12066 -4.5197 0
M  V30 6418 O 622.036 5.61154 -5.7564 0
M  V30 6419 H 621.768 0.645979 -0.199217 0
M  V30 6420 H 624.322 1.67154 -1.19368 0
M  V30 6421 H 622.552 3.86528 0.115448 0
M  V30 6422 H 624.241 4.05065 -0.26017 0
M  V30 6423 H 625.007 3.99975 -2.74308 0
M  V30 6424 H 620.886 4.33658 -1.56404 0
M  V30 6425 H 624.43 4.89444 -4.97082 0
M  V30 6426 H 620.327 5.23045 -3.78277 0
M  V30 6427 H 621.095 5.79494 -5.78039 0
M  V30 6428 N 623.758 0.647228 1.43697 0
M  V30 6429 C 625.006 0.157876 2.01482 0
M  V30 6430 C 625.327 -1.23039 1.51282 0
M  V30 6431 O 624.597 -1.82071 0.722982 0
M  V30 6432 H 623.177 0.0553745 0.744945 0
M  V30 6433 H 625.839 0.83755 1.75986 0
M  V30 6434 H 624.935 0.137895 3.11795 0
M  V30 6435 N 625.236 -1.5273 0.388769 0
M  V30 6436 C 626.169 -2.22861 -0.490752 0
M  V30 6437 C 627.147 -1.22912 -1.06449 0
M  V30 6438 O 628.331 -1.51896 -1.11624 0
M  V30 6439 C 625.458 -2.94141 -1.67925 0
M  V30 6440 C 624.504 -4.08355 -1.23081 0
M  V30 6441 S 625.337 -5.35077 -0.212786 0
M  V30 6442 C 626.493 -6.09879 -1.40708 0
M  V30 6443 H 626.726 -2.97115 0.104787 0
M  V30 6444 H 624.259 -1.53428 0.172956 0
M  V30 6445 H 626.217 -3.35818 -2.36085 0
M  V30 6446 H 624.878 -2.19568 -2.24608 0
M  V30 6447 H 624.071 -4.57328 -2.11818 0
M  V30 6448 H 623.673 -3.68688 -0.628121 0
M  V30 6449 H 625.965 -6.36018 -2.33424 0
M  V30 6450 H 626.908 -7.01586 -0.958271 0
M  V30 6451 H 627.316 -5.40646 -1.62364 0
M  V30 6452 N 626.714 -0.118576 -1.57153 0
M  V30 6453 C 627.962 0.538461 -1.94795 0
M  V30 6454 C 628.283 1.67243 -1.00274 0
M  V30 6455 O 627.553 1.95811 -0.0589692 0
M  V30 6456 H 626.133 0.201904 -0.719197 0
M  V30 6457 H 628.795 -0.187418 -1.93997 0
M  V30 6458 H 627.891 0.933315 -2.97818 0
M  V30 6459 N 628.193 1.56834 0.155195 0
M  V30 6460 C 629.423 1.86778 0.883044 0
M  V30 6461 C 629.831 0.703824 1.75622 0
M  V30 6462 O 629.174 -0.33581 1.80605 0
M  V30 6463 C 629.236 3.1133 1.79761 0
M  V30 6464 C 628.9 4.43504 1.10242 0
M  V30 6465 C 629.897 5.17859 0.460204 0
M  V30 6466 C 627.582 4.90233 1.09437 0
M  V30 6467 C 629.576 6.37144 -0.180782 0
M  V30 6468 C 627.263 6.09444 0.449569 0
M  V30 6469 C 628.261 6.82744 -0.186888 0
M  V30 6470 O 627.949 7.99692 -0.821486 0
M  V30 6471 H 627.681 0.62352 0.261149 0
M  V30 6472 H 630.235 2.04813 0.155204 0
M  V30 6473 H 628.465 2.89282 2.56618 0
M  V30 6474 H 630.154 3.27587 2.39669 0
M  V30 6475 H 630.92 4.8283 0.458289 0
M  V30 6476 H 626.799 4.33109 1.57917 0
M  V30 6477 H 630.343 6.94296 -0.678154 0
M  V30 6478 H 626.24 6.43936 0.449123 0
M  V30 6479 H 627.008 8.15306 -0.722337 0
M  V30 6480 N 629.671 -0.424282 1.51781 0
M  V30 6481 C 630.917 -1.17434 1.6534 0
M  V30 6482 C 631.25 -1.90549 0.374806 0
M  V30 6483 O 630.525 -1.84145 -0.626179 0
M  V30 6484 C 630.808 -2.18093 2.86544 0
M  V30 6485 C 630.661 -1.48975 4.24413 0
M  V30 6486 C 631.98 -3.18934 3.03264 0
M  V30 6487 H 629.099 -0.425566 0.601716 0
M  V30 6488 H 631.741 -0.461921 1.84299 0
M  V30 6489 H 629.891 -2.78849 2.7051 0
M  V30 6490 H 631.563 -0.914551 4.52143 0
M  V30 6491 H 629.806 -0.791893 4.26511 0
M  V30 6492 H 630.477 -2.22347 5.05238 0
M  V30 6493 H 632.953 -2.68243 3.18096 0
M  V30 6494 H 631.829 -3.86645 3.89611 0
M  V30 6495 H 632.09 -3.85793 2.15908 0
M  V30 6496 N 631.149 -1.42148 -0.680565 0
M  V30 6497 C 632.059 -1.47565 -1.82378 0
M  V30 6498 C 633.075 -0.36489 -1.70131 0
M  V30 6499 O 634.251 -0.614916 -1.91783 0
M  V30 6500 C 631.316 -1.37013 -3.18478 0
M  V30 6501 C 630.377 -2.58532 -3.42724 0
M  V30 6502 C 629.61 -2.48473 -4.72331 0
M  V30 6503 O 629.833 -1.51745 -5.49845 0
M  V30 6504 O 628.767 -3.38503 -4.97694 0
M  V30 6505 H 632.593 -2.44045 -1.80764 0
M  V30 6506 H 630.178 -1.23849 -0.835569 0
M  V30 6507 H 632.06 -1.33468 -3.99705 0
M  V30 6508 H 630.735 -0.436552 -3.20743 0
M  V30 6509 H 629.642 -2.67652 -2.61368 0
M  V30 6510 H 630.975 -3.50769 -3.45286 0
M  V30 6511 N 632.627 0.916307 -1.28225 0
M  V30 6512 C 633.575 2.03977 -1.11786 0
M  V30 6513 C 634.569 1.69358 -0.0378265 0
M  V30 6514 O 635.775 1.78925 -0.196405 0
M  V30 6515 H 632.15 0.66829 -0.344809 0
M  V30 6516 H 634.121 2.14985 -2.06939 0
M  V30 6517 C 632.87 3.38518 -0.7938 0
M  V30 6518 H 632.193 3.65649 -1.61682 0
M  V30 6519 H 633.633 4.17864 -0.718719 0
M  V30 6520 C 632.092 3.33134 0.502353 0
M  V30 6521 O 632.622 3.71281 1.53341 0
M  V30 6522 N 630.828 2.86229 0.502147 0
M  V30 6523 H 630.375 2.55382 -0.337338 0
M  V30 6524 H 630.333 2.83009 1.36942 0
M  V30 6525 N 634.105 1.10431 1.1244 0
M  V30 6526 C 635.516 0.864439 1.65482 0
M  V30 6527 C 635.867 -0.60527 1.8663 0
M  V30 6528 O 634.992 -1.46492 1.59276 0
M  V30 6529 C 635.587 1.56267 3.0061 0
M  V30 6530 C 634.146 1.3695 3.50602 0
M  V30 6531 C 633.293 1.61209 2.25626 0
M  V30 6532 H 636.244 1.26203 0.962209 0
M  V30 6533 H 636.265 1.00166 3.67079 0
M  V30 6534 H 635.777 2.63231 2.85186 0
M  V30 6535 H 633.878 0.321481 3.71211 0
M  V30 6536 H 633.991 2.11143 4.30064 0
M  V30 6537 H 632.355 1.03482 2.32731 0
M  V30 6538 H 633.138 2.69425 2.12756 0
M  V30 6539 N 635.583 -1.29855 0.893053 0
M  V30 6540 C 636.829 -1.96116 0.516349 0
M  V30 6541 C 637.162 -1.70281 -0.933695 0
M  V30 6542 O 636.437 -1.01205 -1.66096 0
M  V30 6543 C 636.72 -3.51068 0.801455 0
M  V30 6544 C 636.573 -3.86387 2.30272 0
M  V30 6545 C 637.892 -4.39186 0.283423 0
M  V30 6546 H 635.011 -0.712335 0.189072 0
M  V30 6547 H 637.653 -1.53587 1.11852 0
M  V30 6548 H 635.803 -3.87424 0.288949 0
M  V30 6549 H 637.475 -3.60012 2.88425 0
M  V30 6550 H 635.718 -3.34167 2.76613 0
M  V30 6551 H 636.389 -4.94512 2.45279 0
M  V30 6552 H 638.865 -4.09785 0.722187 0
M  V30 6553 H 637.741 -5.46505 0.512169 0
M  V30 6554 H 638.002 -4.34511 -0.815643 0
M  V30 6555 N 637.061 -0.65484 -1.43351 0
M  V30 6556 C 638.291 -0.176429 -2.05845 0
M  V30 6557 C 638.699 1.16375 -1.49176 0
M  V30 6558 O 638.042 1.72981 -0.618322 0
M  V30 6559 C 638.104 -0.0125844 -3.59498 0
M  V30 6560 C 637.768 -1.27831 -4.38758 0
M  V30 6561 C 638.765 -2.2074 -4.70712 0
M  V30 6562 C 636.45 -1.52035 -4.78739 0
M  V30 6563 C 638.444 -3.36145 -5.41558 0
M  V30 6564 C 636.131 -2.67732 -5.49329 0
M  V30 6565 C 637.129 -3.59612 -5.80662 0
M  V30 6566 O 636.817 -4.73289 -6.4981 0
M  V30 6567 H 636.549 -0.0879682 -0.670252 0
M  V30 6568 H 639.103 -0.896193 -1.84818 0
M  V30 6569 H 637.333 0.762567 -3.79107 0
M  V30 6570 H 639.022 0.423392 -4.03686 0
M  V30 6571 H 639.788 -2.03284 -4.40341 0
M  V30 6572 H 635.667 -0.813987 -4.53757 0
M  V30 6573 H 639.211 -4.07881 -5.65932 0
M  V30 6574 H 635.108 -2.85122 -5.79116 0
M  V30 6575 H 635.876 -4.72575 -6.68293 0
M  V30 6576 N 638.539 1.52521 -0.396863 0
M  V30 6577 C 639.502 2.2527 0.422604 0
M  V30 6578 C 640.502 1.27184 0.983913 0
M  V30 6579 O 641.692 1.51222 0.864723 0
M  V30 6580 C 638.824 3.01356 1.59365 0
M  V30 6581 H 640.017 2.99133 -0.214416 0
M  V30 6582 H 637.57 1.55587 -0.149128 0
M  V30 6583 H 638.305 2.31813 2.26789 0
M  V30 6584 H 638.09 3.73357 1.19779 0
M  V30 6585 H 639.58 3.56571 2.17363 0
M  V30 6586 N 640.017 0.126909 1.57088 0
M  V30 6587 C 641.294 -0.573152 1.87014 0
M  V30 6588 C 641.674 -1.84297 1.02945 0
M  V30 6589 O 641.022 -2.28232 0.110573 0
M  V30 6590 C 641.232 -0.857984 3.38289 0
M  V30 6591 C 642.58 -1.20759 4.07066 0
M  V30 6592 O 643.604 -0.947992 3.43353 0
M  V30 6593 O 642.463 -1.69516 5.19545 0
M  V30 6594 H 639.557 -0.290082 0.774456 0
M  V30 6595 H 642.103 0.162008 1.68925 0
M  V30 6596 H 640.875 0.0415286 3.91278 0
M  V30 6597 H 640.498 -1.64803 3.61837 0
M  V30 6598 N 641.495 -1.56914 -0.146875 0
M  V30 6599 C 642.906 -1.72799 -0.706928 0
M  V30 6600 C 643.257 -0.741329 -1.81656 0
M  V30 6601 O 642.382 0.0920162 -2.16204 0
M  V30 6602 C 642.977 -3.13317 -1.28911 0
M  V30 6603 C 641.536 -3.30803 -1.79573 0
M  V30 6604 C 640.683 -2.68725 -0.684252 0
M  V30 6605 H 643.634 -1.58504 0.0787931 0
M  V30 6606 H 643.655 -3.13323 -2.15891 0
M  V30 6607 H 643.167 -3.85104 -0.481284 0
M  V30 6608 H 641.268 -2.64012 -2.62923 0
M  V30 6609 H 641.381 -4.38754 -1.92436 0
M  V30 6610 H 639.745 -2.29196 -1.11091 0
M  V30 6611 H 640.528 -3.43117 0.112134 0
M  V30 6612 N 642.974 0.416227 -1.52004 0
M  V30 6613 C 644.222 1.16153 -1.65387 0
M  V30 6614 C 644.543 1.91208 -0.382669 0
M  V30 6615 O 643.813 1.86413 0.602231 0
M  V30 6616 H 642.393 0.431765 -0.60958 0
M  V30 6617 H 645.055 0.475151 -1.89019 0
M  V30 6618 H 644.151 1.87952 -2.4916 0
M  V30 6619 N 644.452 1.42507 0.673017 0
M  V30 6620 C 645.677 1.4668 1.46627 0
M  V30 6621 C 646.102 0.080066 1.8793 0
M  V30 6622 O 645.46 -0.921879 1.56112 0
M  V30 6623 C 645.508 2.40091 2.69051 0
M  V30 6624 O 644.612 1.8735 3.67387 0
M  V30 6625 H 643.953 0.496908 0.44043 0
M  V30 6626 H 646.483 1.87215 0.825334 0
M  V30 6627 H 646.493 2.56731 3.17101 0
M  V30 6628 H 645.168 3.4084 2.3833 0
M  V30 6629 H 643.745 1.80274 3.26429 0
M  V30 6630 N 645.93 -0.909495 1.28709 0
M  V30 6631 C 646.878 -2.03381 1.12866 0
M  V30 6632 C 647.872 -1.69335 0.0468074 0
M  V30 6633 O 649.078 -1.78819 0.205891 0
M  V30 6634 H 645.453 -0.666452 0.348348 0
M  V30 6635 H 647.424 -2.13885 2.08077 0
M  V30 6636 C 646.173 -3.38092 0.811742 0
M  V30 6637 H 645.496 -3.64786 1.63619 0
M  V30 6638 H 646.936 -4.17477 0.740869 0
M  V30 6639 C 645.395 -3.33395 -0.484679 0
M  V30 6640 O 645.925 -3.72089 -1.5137 0
M  V30 6641 N 644.131 -2.86491 -0.486961 0
M  V30 6642 H 643.678 -2.55199 0.350877 0
M  V30 6643 H 643.636 -2.83731 -1.3544 0
M  V30 6644 N 647.408 -1.11026 -1.11852 0
M  V30 6645 C 648.636 -0.878818 -1.87308 0
M  V30 6646 C 649.051 0.57111 -1.79955 0
M  V30 6647 O 648.408 1.39409 -1.17777 0
M  V30 6648 C 648.459 -1.3264 -3.36287 0
M  V30 6649 O 648.18 -2.71948 -3.43476 0
M  V30 6650 C 649.681 -1.12974 -4.28663 0
M  V30 6651 H 646.901 -0.315015 -0.592458 0
M  V30 6652 H 649.445 -1.47649 -1.41492 0
M  V30 6653 H 647.6 -0.772269 -3.79625 0
M  V30 6654 H 648.014 -2.91241 -4.3621 0
M  V30 6655 H 649.488 -1.49198 -5.31454 0
M  V30 6656 H 649.965 -0.0689127 -4.39146 0
M  V30 6657 H 650.571 -1.67064 -3.91113 0
M  V30 6658 N 648.886 1.2938 -0.899927 0
M  V30 6659 C 650.132 1.96206 -0.536153 0
M  V30 6660 C 650.487 1.69647 0.90761 0
M  V30 6661 O 649.78 0.999089 1.63489 0
M  V30 6662 C 649.974 3.49114 -0.765113 0
M  V30 6663 C 649.803 3.90538 -2.22958 0
M  V30 6664 C 648.573 4.15395 -2.87706 0
M  V30 6665 C 650.771 4.0224 -3.20479 0
M  V30 6666 N 648.753 4.43389 -4.24593 0
M  V30 6667 C 650.124 4.34288 -4.42486 0
M  V30 6668 C 652.179 3.84716 -3.16066 0
M  V30 6669 C 650.882 4.50638 -5.6064 0
M  V30 6670 C 652.908 4.02276 -4.33507 0
M  V30 6671 C 652.27 4.34684 -5.54283 0
M  V30 6672 H 648.369 0.742364 -0.245804 0
M  V30 6673 H 650.953 1.56314 -1.16078 0
M  V30 6674 H 649.124 3.88028 -0.169861 0
M  V30 6675 H 650.856 4.03035 -0.366751 0
M  V30 6676 H 647.611 4.09164 -2.385 0
M  V30 6677 H 648.035 4.61494 -4.95331 0
M  V30 6678 H 652.677 3.58724 -2.23778 0
M  V30 6679 H 650.395 4.75467 -6.5342 0
M  V30 6680 H 653.981 3.90169 -4.31578 0
M  V30 6681 H 652.861 4.47988 -6.43643 0
M  V30 6682 N 650.364 0.662433 1.43002 0
M  V30 6683 C 651.611 0.179591 2.01702 0
M  V30 6684 C 651.939 -1.20964 1.52309 0
M  V30 6685 O 651.194 -1.82343 0.7106 0
M  V30 6686 C 651.493 0.149363 3.57088 0
M  V30 6687 C 651.159 1.48158 4.25864 0
M  V30 6688 C 649.821 1.84638 4.44367 0
M  V30 6689 C 652.173 2.35953 4.64732 0
M  V30 6690 C 649.501 3.08561 4.99006 0
M  V30 6691 C 651.853 3.59176 5.20745 0
M  V30 6692 C 650.517 3.95841 5.37463 0
M  V30 6693 H 649.787 0.0657172 0.73808 0
M  V30 6694 H 652.434 0.854968 1.71355 0
M  V30 6695 H 650.739 -0.609491 3.8703 0
M  V30 6696 H 652.436 -0.241241 4.00274 0
M  V30 6697 H 649.026 1.18777 4.11813 0
M  V30 6698 H 653.21 2.09058 4.50121 0
M  V30 6699 H 648.466 3.37005 5.10135 0
M  V30 6700 H 652.64 4.27417 5.49807 0
M  V30 6701 H 650.267 4.91942 5.79566 0
M  V30 6702 N 651.842 -1.52309 0.404946 0
M  V30 6703 C 653.09 -2.01368 -0.17186 0
M  V30 6704 C 653.411 -1.29261 -1.46002 0
M  V30 6705 O 652.681 -0.41729 -1.91404 0
M  V30 6706 H 651.261 -0.744034 -0.0664993 0
M  V30 6707 H 653.923 -1.87263 0.540228 0
M  V30 6708 H 653.019 -3.09888 -0.370957 0
M  V30 6709 N 653.32 -0.135238 -1.57019 0
M  V30 6710 C 654.253 0.846618 -2.11914 0
M  V30 6711 C 655.231 1.25019 -1.03966 0
M  V30 6712 O 656.415 1.34838 -1.31723 0
M  V30 6713 C 653.542 2.1352 -2.6292 0
M  V30 6714 C 652.588 1.87846 -3.82905 0
M  V30 6715 S 653.421 1.08005 -5.24495 0
M  V30 6716 C 654.577 2.38008 -5.78881 0
M  V30 6717 H 654.81 0.379752 -2.94865 0
M  V30 6718 H 652.343 0.0788387 -1.54199 0
M  V30 6719 H 654.301 2.87551 -2.92958 0
M  V30 6720 H 652.962 2.57323 -1.80121 0
M  V30 6721 H 652.155 2.83365 -4.16797 0
M  V30 6722 H 651.757 1.21929 -3.53567 0
M  V30 6723 H 654.049 3.33742 -5.89595 0
M  V30 6724 H 654.992 2.08638 -6.76665 0
M  V30 6725 H 655.4 2.48119 -5.07048 0
M  V30 6726 N 654.798 1.5699 0.138552 0
M  V30 6727 C 655.73 1.95515 1.1961 0
M  V30 6728 C 656.743 0.852002 1.38726 0
M  V30 6729 O 657.932 1.13038 1.38147 0
M  V30 6730 C 655.032 2.2213 2.55952 0
M  V30 6731 C 654.205 3.53424 2.57702 0
M  V30 6732 C 653.264 3.6848 3.75645 0
M  V30 6733 O 652.29 4.4079 3.60129 0
M  V30 6734 N 653.492 3.05777 4.93438 0
M  V30 6735 H 656.257 2.86838 0.868557 0
M  V30 6736 H 653.818 1.58542 0.328033 0
M  V30 6737 H 655.81 2.29435 3.33379 0
M  V30 6738 H 654.38 1.3703 2.80965 0
M  V30 6739 H 653.6 3.57484 1.6613 0
M  V30 6740 H 654.888 4.39759 2.55909 0
M  V30 6741 H 654.286 2.46961 5.08947 0
M  V30 6742 H 652.843 3.18631 5.6861 0
M  V30 6743 N 656.276 -0.40816 1.52223 0
M  V30 6744 C 657.522 -1.15673 1.66576 0
M  V30 6745 C 657.855 -1.90141 0.394996 0
M  V30 6746 O 657.13 -1.84798 -0.606613 0
M  V30 6747 C 657.413 -2.15042 2.88841 0
M  V30 6748 C 657.266 -1.44465 4.25969 0
M  V30 6749 C 658.585 -3.15699 3.0663 0
M  V30 6750 H 655.704 -0.41916 0.606196 0
M  V30 6751 H 658.346 -0.442348 1.84779 0
M  V30 6752 H 656.496 -2.75964 2.73452 0
M  V30 6753 H 658.168 -0.866544 4.53088 0
M  V30 6754 H 656.411 -0.746612 4.27327 0
M  V30 6755 H 657.082 -2.16976 5.07568 0
M  V30 6756 H 659.558 -2.64854 3.20923 0
M  V30 6757 H 658.434 -3.82491 3.9369 0
M  V30 6758 H 658.695 -3.83481 2.19987 0
M  V30 6759 N 657.755 -1.42862 -0.66545 0
M  V30 6760 C 659.001 -1.4504 -1.426 0
M  V30 6761 C 659.356 -0.0690217 -1.92276 0
M  V30 6762 O 658.649 0.91036 -1.68591 0
M  V30 6763 C 658.843 -2.4175 -2.63233 0
M  V30 6764 C 658.672 -3.89155 -2.25362 0
M  V30 6765 C 657.442 -4.57619 -2.14273 0
M  V30 6766 C 659.64 -4.79326 -1.86417 0
M  V30 6767 N 657.622 -5.90006 -1.69604 0
M  V30 6768 C 658.993 -6.00892 -1.52738 0
M  V30 6769 C 661.048 -4.66696 -1.73492 0
M  V30 6770 C 659.751 -7.11232 -1.0743 0
M  V30 6771 C 661.777 -5.77027 -1.29589 0
M  V30 6772 C 661.139 -6.97712 -0.968393 0
M  V30 6773 H 657.238 -0.585889 -0.517936 0
M  V30 6774 H 659.822 -1.78956 -0.767002 0
M  V30 6775 H 657.993 -2.09881 -3.26809 0
M  V30 6776 H 659.725 -2.34447 -3.29874 0
M  V30 6777 H 656.48 -4.11957 -2.33641 0
M  V30 6778 H 656.904 -6.60249 -1.49666 0
M  V30 6779 H 661.546 -3.7386 -1.97455 0
M  V30 6780 H 659.264 -8.03907 -0.822147 0
M  V30 6781 H 662.85 -5.6927 -1.20095 0
M  V30 6782 H 661.73 -7.81634 -0.63384 0
M  V30 6783 N 659.233 0.902656 -1.29189 0
M  V30 6784 C 660.458 1.69167 -1.19989 0
M  V30 6785 C 660.883 1.86607 0.236495 0
M  V30 6786 O 660.241 1.38425 1.17082 0
M  V30 6787 C 660.289 3.05532 -1.91527 0
M  V30 6788 O 659.393 3.93621 -1.2303 0
M  V30 6789 H 658.734 0.517584 -0.415936 0
M  V30 6790 H 661.264 1.12785 -1.70706 0
M  V30 6791 H 661.274 3.55693 -1.99866 0
M  V30 6792 H 659.949 2.92156 -2.96003 0
M  V30 6793 H 658.526 3.52055 -1.22928 0
M  V30 6794 N 660.711 1.11618 1.11262 0
M  V30 6795 C 661.644 0.719995 2.16544 0
M  V30 6796 C 662.622 -0.28471 1.60088 0
M  V30 6797 O 663.806 -0.180693 1.87632 0
M  V30 6798 C 660.933 0.0643302 3.38639 0
M  V30 6799 C 659.979 1.03448 4.13764 0
M  V30 6800 S 660.812 2.55789 4.70459 0
M  V30 6801 C 661.968 1.91529 5.95875 0
M  V30 6802 H 662.201 1.61181 2.49816 0
M  V30 6803 H 659.734 0.934401 1.22916 0
M  V30 6804 H 661.692 -0.307609 4.09346 0
M  V30 6805 H 660.353 -0.804471 3.03623 0
M  V30 6806 H 659.546 0.523188 5.01277 0
M  V30 6807 H 659.148 1.34893 3.48826 0
M  V30 6808 H 661.44 1.25286 6.65815 0
M  V30 6809 H 662.383 2.77047 6.51652 0
M  V30 6810 H 662.791 1.37468 5.47506 0
M  V30 6811 N 662.189 -1.289 0.906776 0
M  V30 6812 C 663.121 -2.26556 0.347159 0
M  V30 6813 C 664.134 -1.54589 -0.51049 0
M  V30 6814 O 665.323 -1.75489 -0.326501 0
M  V30 6815 C 662.423 -3.3484 -0.523024 0
M  V30 6816 C 661.596 -4.36296 0.310515 0
M  V30 6817 C 660.655 -5.23879 -0.493634 0
M  V30 6818 O 659.681 -5.69127 0.0913569 0
M  V30 6819 N 660.883 -5.51946 -1.7982 0
M  V30 6820 H 663.648 -2.75212 1.18652 0
M  V30 6821 H 661.209 -1.42309 0.771996 0
M  V30 6822 H 663.201 -3.90366 -1.06756 0
M  V30 6823 H 661.771 -2.85946 -1.26309 0
M  V30 6824 H 660.991 -3.80331 1.03644 0
M  V30 6825 H 662.279 -5.01113 0.881106 0
M  V30 6826 H 661.677 -5.17006 -2.2961 0
M  V30 6827 H 660.234 -6.10258 -2.28971 0
M  V30 6828 N 663.667 -0.670007 -1.42649 0
M  V30 6829 C 665.083 -0.33911 -1.55956 0
M  V30 6830 C 665.283 1.1558 -1.65056 0
M  V30 6831 O 664.339 1.94111 -1.61485 0
M  V30 6832 C 665.652 -1.06522 -2.812 0
M  V30 6833 C 667.2 -1.04708 -2.94966 0
M  V30 6834 C 667.675 -1.75442 -4.23065 0
M  V30 6835 N 669.166 -1.72286 -4.29967 0
M  V30 6836 C 669.901 -2.23877 -5.27889 0
M  V30 6837 N 669.397 -2.83829 -6.31991 0
M  V30 6838 N 671.19 -2.14279 -5.19654 0
M  V30 6839 H 663.341 -1.6399 -1.34986 0
M  V30 6840 H 665.604 -0.690603 -0.649439 0
M  V30 6841 H 665.31 -2.12033 -2.80597 0
M  V30 6842 H 665.184 -0.627398 -3.71946 0
M  V30 6843 H 667.571 -0.000315966 -2.951 0
M  V30 6844 H 667.652 -1.52374 -2.05465 0
M  V30 6845 H 667.296 -2.80084 -4.23693 0
M  V30 6846 H 667.226 -1.25229 -5.11493 0
M  V30 6847 H 669.717 -1.28554 -3.55362 0
M  V30 6848 H 670.03 -3.20827 -7.03057 0
M  V30 6849 H 668.375 -2.87896 -6.32567 0
M  V30 6850 H 671.566 -1.67135 -4.37245 0
M  V30 6851 H 671.739 -2.54792 -5.95806 0
M  V30 6852 N 665.145 1.52092 -0.413018 0
M  V30 6853 C 666.391 2.02154 0.161737 0
M  V30 6854 C 666.724 1.29789 1.44459 0
M  V30 6855 O 665.999 0.405378 1.90229 0
M  V30 6856 C 666.282 3.5781 0.405463 0
M  V30 6857 C 666.135 4.40819 -0.894335 0
M  V30 6858 C 667.454 4.23821 1.18591 0
M  V30 6859 H 664.573 0.734769 0.0573077 0
M  V30 6860 H 667.215 1.81948 -0.547247 0
M  V30 6861 H 665.365 3.75158 1.0094 0
M  V30 6862 H 667.037 4.35175 -1.53039 0
M  V30 6863 H 665.28 4.06877 -1.50444 0
M  V30 6864 H 665.951 5.47819 -0.678144 0
M  V30 6865 H 668.427 4.10596 0.674573 0
M  V30 6866 H 667.303 5.32663 1.3252 0
M  V30 6867 H 667.564 3.83038 2.20758 0
M  V30 6868 N 666.623 0.143563 1.56945 0
M  V30 6869 C 667.586 -0.783295 2.154 0
M  V30 6870 C 668.586 -1.17763 1.09492 0
M  V30 6871 O 669.776 -1.09912 1.35148 0
M  V30 6872 C 666.908 -2.06248 2.7143 0
M  V30 6873 H 668.101 -0.274863 2.98638 0
M  V30 6874 H 665.654 -0.105859 1.55941 0
M  V30 6875 H 666.389 -2.61466 1.91849 0
M  V30 6876 H 666.174 -1.78897 3.4891 0
M  V30 6877 H 667.664 -2.72453 3.16479 0
M  V30 6878 N 668.101 -1.57061 -0.130224 0
M  V30 6879 C 669.011 -2.02802 -1.17934 0
M  V30 6880 C 670.027 -0.946378 -1.46013 0
M  V30 6881 O 671.203 -1.25708 -1.57351 0
M  V30 6882 C 668.268 -2.41368 -2.48882 0
M  V30 6883 C 667.329 -3.63561 -2.28301 0
M  V30 6884 C 666.562 -4.00279 -3.53005 0
M  V30 6885 O 666.785 -3.37463 -4.59864 0
M  V30 6886 O 665.719 -4.93441 -3.44673 0
M  V30 6887 H 669.545 -2.92394 -0.820958 0
M  V30 6888 H 667.13 -1.45475 -0.340197 0
M  V30 6889 H 669.012 -2.66958 -3.26054 0
M  V30 6890 H 667.687 -1.54926 -2.84217 0
M  V30 6891 H 666.594 -3.43136 -1.49025 0
M  V30 6892 H 667.927 -4.50673 -1.97875 0
M  V30 6893 N 669.579 0.400081 -1.52437 0
M  V30 6894 C 670.509 1.4947 -1.7939 0
M  V30 6895 C 671.49 1.57383 -0.645329 0
M  V30 6896 O 672.675 1.72511 -0.891826 0
M  V30 6897 C 669.805 2.87201 -1.95276 0
M  V30 6898 C 668.759 2.94134 -3.10917 0
M  V30 6899 C 668.085 4.34207 -3.1204 0
M  V30 6900 C 669.385 2.64791 -4.50203 0
M  V30 6901 H 671.079 1.27165 -2.71052 0
M  V30 6902 H 668.625 0.610312 -1.30427 0
M  V30 6903 H 670.578 3.63772 -2.12715 0
M  V30 6904 H 669.302 3.10819 -1.00294 0
M  V30 6905 H 667.961 2.20009 -2.93243 0
M  V30 6906 H 667.609 4.54848 -2.14761 0
M  V30 6907 H 667.309 4.39768 -3.89715 0
M  V30 6908 H 668.833 5.127 -3.31619 0
M  V30 6909 H 670.247 3.31083 -4.68035 0
M  V30 6910 H 668.644 2.81717 -5.29864 0
M  V30 6911 H 669.714 1.60184 -4.57678 0
M  V30 6912 N 671.057 1.43213 0.657864 0
M  V30 6913 C 672.287 1.478 1.44356 0
M  V30 6914 C 672.695 0.0930206 1.88971 0
M  V30 6915 O 672.038 -0.906089 1.59799 0
M  V30 6916 C 672.1 2.35745 2.71412 0
M  V30 6917 C 671.764 3.83359 2.48767 0
M  V30 6918 C 672.761 4.74585 2.12285 0
M  V30 6919 C 670.446 4.27799 2.63235 0
M  V30 6920 C 672.44 6.08247 1.90562 0
M  V30 6921 C 670.127 5.61516 2.41128 0
M  V30 6922 C 671.125 6.51557 2.04847 0
M  V30 6923 O 670.813 7.82802 1.82967 0
M  V30 6924 H 670.545 0.504363 0.450104 0
M  V30 6925 H 673.099 1.88572 0.814241 0
M  V30 6926 H 671.329 1.89852 3.36887 0
M  V30 6927 H 673.018 2.31589 3.33348 0
M  V30 6928 H 673.784 4.41531 2.00687 0
M  V30 6929 H 669.663 3.57993 2.90451 0
M  V30 6930 H 673.207 6.78489 1.62168 0
M  V30 6931 H 669.104 5.94139 2.52327 0
M  V30 6932 H 669.872 7.94332 1.97429 0
M  V30 6933 N 672.536 -0.895792 1.29666 0
M  V30 6934 C 673.766 -1.67757 1.20586 0
M  V30 6935 C 674.174 -1.87729 -0.235432 0
M  V30 6936 O 673.517 -1.41706 -1.16898 0
M  V30 6937 C 673.579 -3.08117 1.85215 0
M  V30 6938 C 673.243 -3.1136 3.3452 0
M  V30 6939 C 674.24 -2.91217 4.30684 0
M  V30 6940 C 671.925 -3.33302 3.75786 0
M  V30 6941 C 673.919 -2.92955 5.66089 0
M  V30 6942 C 671.606 -3.3467 5.11311 0
M  V30 6943 C 672.604 -3.14519 6.06273 0
M  V30 6944 O 672.292 -3.15684 7.39323 0
M  V30 6945 H 672.024 -0.530601 0.418854 0
M  V30 6946 H 674.578 -1.12831 1.71634 0
M  V30 6947 H 672.808 -3.64661 1.28683 0
M  V30 6948 H 674.497 -3.68399 1.70403 0
M  V30 6949 H 675.263 -2.74074 4.00136 0
M  V30 6950 H 671.142 -3.48025 3.02324 0
M  V30 6951 H 674.686 -2.77145 6.40185 0
M  V30 6952 H 670.583 -3.51346 5.41504 0
M  V30 6953 H 671.351 -3.31924 7.48177 0
M  V30 6954 N 674.014 -1.12206 -1.10668 0
M  V30 6955 C 674.961 -0.787716 -2.16942 0
M  V30 6956 C 675.931 0.244442 -1.64291 0
M  V30 6957 O 677.116 0.119558 -1.90425 0
M  V30 6958 C 674.256 -0.24584 -3.44223 0
M  V30 6959 C 673.369 -1.33552 -4.10838 0
M  V30 6960 C 672.504 -0.753337 -5.25831 0
M  V30 6961 C 671.543 -1.82231 -5.84344 0
M  V30 6962 N 670.68 -1.25902 -6.90719 0
M  V30 6963 H 675.52 -1.69809 -2.44885 0
M  V30 6964 H 673.057 -0.847862 -1.20207 0
M  V30 6965 H 675.015 0.0863639 -4.17111 0
M  V30 6966 H 673.645 0.627702 -3.16638 0
M  V30 6967 H 672.697 -1.78454 -3.35944 0
M  V30 6968 H 674.009 -2.14396 -4.50373 0
M  V30 6969 H 673.163 -0.37166 -6.05561 0
M  V30 6970 H 671.902 0.0863297 -4.87624 0
M  V30 6971 H 670.907 -2.2132 -5.03287 0
M  V30 6972 H 672.132 -2.66515 -6.24617 0
M  V30 6973 H 670.078 -0.44114 -6.54515 0
M  V30 6974 H 669.995 -2.00408 -7.28953 0
M  V30 6975 H 671.263 -0.904498 -7.74235 0
M  V30 6976 N 675.492 1.28418 -0.913599 0
M  V30 6977 C 676.72 1.99106 -0.562536 0
M  V30 6978 C 677.135 1.68273 0.856137 0
M  V30 6979 O 676.492 0.935401 1.56705 0
M  V30 6980 C 676.543 3.5338 -0.761903 0
M  V30 6981 O 676.264 3.83127 -2.12475 0
M  V30 6982 C 677.765 4.41328 -0.417651 0
M  V30 6983 H 674.985 0.635798 -0.214481 0
M  V30 6984 H 677.529 1.63618 -1.22676 0
M  V30 6985 H 675.684 3.8713 -0.144676 0
M  V30 6986 H 676.098 4.77763 -2.16431 0
M  V30 6987 H 677.572 5.48642 -0.607919 0
M  V30 6988 H 678.049 4.34422 0.646108 0
M  V30 6989 H 678.655 4.13074 -1.01241 0
M  V30 6990 N 676.97 0.677563 1.42291 0
M  V30 6991 C 678.218 0.200578 2.01102 0
M  V30 6992 C 678.539 -1.19803 1.53858 0
M  V30 6993 O 677.809 -1.80496 0.761439 0
M  V30 6994 H 676.389 0.0711634 0.743603 0
M  V30 6995 H 679.051 0.874691 1.7417 0
M  V30 6996 H 678.147 0.204 3.11433 0
M  V30 6997 N 678.448 -1.51871 0.421078 0
M  V30 6998 C 679.725 -1.9447 -0.20993 0
M  V30 6999 C 680.105 -1.35875 -1.61558 0
M  V30 7000 O 679.453 -0.539294 -2.22045 0
M  V30 7001 C 679.663 -3.48402 -0.204165 0
M  V30 7002 C 681.011 -4.2254 -0.417696 0
M  V30 7003 O 682.035 -3.55074 -0.282999 0
M  V30 7004 O 680.894 -5.422 -0.684239 0
M  V30 7005 H 677.988 -0.815283 -0.138718 0
M  V30 7006 H 680.534 -1.62832 0.477884 0
M  V30 7007 H 679.306 -3.83464 0.779183 0
M  V30 7008 H 678.929 -3.86436 -0.935576 0
M  V30 7009 N 679.926 -0.151884 -1.56866 0
M  V30 7010 C 680.889 0.771861 -2.15812 0
M  V30 7011 C 681.889 1.17181 -1.10115 0
M  V30 7012 O 683.079 1.09194 -1.35729 0
M  V30 7013 C 680.211 2.04806 -2.7252 0
M  V30 7014 H 681.404 0.259021 -2.98779 0
M  V30 7015 H 678.957 0.097588 -1.55995 0
M  V30 7016 H 679.692 2.60445 -1.93233 0
M  V30 7017 H 679.477 1.77044 -3.49854 0
M  V30 7018 H 680.967 2.70771 -3.1792 0
M  V30 7019 N 681.404 1.57128 0.121893 0
M  V30 7020 C 682.82 1.52357 0.47534 0
M  V30 7021 C 683.02 0.864417 1.82017 0
M  V30 7022 O 682.076 0.445529 2.48538 0
M  V30 7023 C 683.389 2.97122 0.4625 0
M  V30 7024 C 684.937 3.08196 0.546255 0
M  V30 7025 C 685.412 4.54516 0.563833 0
M  V30 7026 N 686.903 4.58959 0.625353 0
M  V30 7027 C 687.638 5.69585 0.660354 0
M  V30 7028 N 687.134 6.89714 0.653175 0
M  V30 7029 N 688.927 5.57685 0.703143 0
M  V30 7030 H 681.078 1.98364 -0.75931 0
M  V30 7031 H 683.341 0.905777 -0.279772 0
M  V30 7032 H 683.047 3.48706 -0.457943 0
M  V30 7033 H 682.921 3.54406 1.29136 0
M  V30 7034 H 685.308 2.56617 1.45712 0
M  V30 7035 H 685.389 2.53912 -0.310234 0
M  V30 7036 H 685.033 5.06741 -0.342974 0
M  V30 7037 H 684.963 5.06609 1.43716 0
M  V30 7038 H 687.454 3.72489 0.637182 0
M  V30 7039 H 687.767 7.69781 0.682425 0
M  V30 7040 H 686.112 6.92223 0.620646 0
M  V30 7041 H 689.303 4.62744 0.706095 0
M  V30 7042 H 689.476 6.43909 0.726952 0
M  V30 7043 N 682.882 -0.391992 1.52647 0
M  V30 7044 C 683.845 -1.46135 1.7657 0
M  V30 7045 C 684.845 -1.47701 0.635698 0
M  V30 7046 O 686.035 -1.48924 0.903728 0
M  V30 7047 C 683.167 -2.85443 1.86374 0
M  V30 7048 H 684.36 -1.26208 2.72051 0
M  V30 7049 H 681.913 -0.623549 1.43323 0
M  V30 7050 H 682.648 -3.10718 0.928685 0
M  V30 7051 H 682.433 -2.85708 2.68539 0
M  V30 7052 H 683.923 -3.62933 2.06566 0
M  V30 7053 N 684.36 -1.4356 -0.65026 0
M  V30 7054 C 685.307 -1.48948 -1.76304 0
M  V30 7055 C 686.277 -0.338919 -1.62605 0
M  V30 7056 O 687.462 -0.54649 -1.82806 0
M  V30 7057 C 684.602 -1.42131 -3.14472 0
M  V30 7058 C 683.715 -2.67415 -3.39284 0
M  V30 7059 C 682.85 -2.52565 -4.67316 0
M  V30 7060 C 681.889 -3.73103 -4.85243 0
M  V30 7061 N 681.026 -3.57046 -6.04535 0
M  V30 7062 H 685.866 -2.44032 -1.71034 0
M  V30 7063 H 683.403 -1.21131 -0.834601 0
M  V30 7064 H 685.361 -1.36172 -3.94351 0
M  V30 7065 H 683.991 -0.506273 -3.18805 0
M  V30 7066 H 683.043 -2.8364 -2.53481 0
M  V30 7067 H 684.355 -3.56943 -3.48415 0
M  V30 7068 H 683.509 -2.44331 -5.55326 0
M  V30 7069 H 682.248 -1.60566 -4.60511 0
M  V30 7070 H 681.253 -3.81743 -3.95667 0
M  V30 7071 H 682.478 -4.66115 -4.93876 0
M  V30 7072 H 680.424 -2.67783 -5.98856 0
M  V30 7073 H 680.341 -4.40178 -6.14638 0
M  V30 7074 H 681.609 -3.52669 -6.95158 0
M  V30 7075 N 685.838 0.888903 -1.30139 0
M  V30 7076 C 686.785 1.99422 -1.16188 0
M  V30 7077 C 687.755 1.66017 -0.0523869 0
M  V30 7078 O 688.94 1.89506 -0.221864 0
M  V30 7079 C 686.08 3.34325 -0.855612 0
M  V30 7080 C 685.193 3.80445 -2.0466 0
M  V30 7081 C 684.328 5.03975 -1.67876 0
M  V30 7082 C 683.367 5.42492 -2.83493 0
M  V30 7083 N 682.504 6.57206 -2.47032 0
M  V30 7084 H 687.344 2.10687 -2.10749 0
M  V30 7085 H 684.881 1.03165 -1.04859 0
M  V30 7086 H 686.839 4.11968 -0.658681 0
M  V30 7087 H 685.469 3.22756 0.0531155 0
M  V30 7088 H 684.521 2.98745 -2.3549 0
M  V30 7089 H 685.833 4.04933 -2.91257 0
M  V30 7090 H 684.987 5.89232 -1.44535 0
M  V30 7091 H 683.726 4.8135 -0.784431 0
M  V30 7092 H 682.731 4.55764 -3.07505 0
M  V30 7093 H 683.956 5.67093 -3.73607 0
M  V30 7094 H 681.902 6.36164 -1.601 0
M  V30 7095 H 681.819 6.81543 -3.27161 0
M  V30 7096 H 683.087 7.45704 -2.27038 0
M  V30 7097 N 687.317 1.12792 1.10072 0
M  V30 7098 C 688.247 0.821688 2.18565 0
M  V30 7099 C 689.228 -0.21612 1.68721 0
M  V30 7100 O 690.413 -0.0764932 1.94049 0
M  V30 7101 C 687.543 0.279624 3.46172 0
M  V30 7102 C 686.497 1.25092 4.09312 0
M  V30 7103 C 685.823 0.568916 5.31665 0
M  V30 7104 C 687.123 2.60699 4.52585 0
M  V30 7105 H 688.817 1.72888 2.44438 0
M  V30 7106 H 686.363 0.832702 1.17482 0
M  V30 7107 H 688.316 0.053099 4.21367 0
M  V30 7108 H 687.04 -0.662929 3.19801 0
M  V30 7109 H 685.699 1.46332 3.36129 0
M  V30 7110 H 685.347 -0.378898 5.01571 0
M  V30 7111 H 685.047 1.21687 5.74862 0
M  V30 7112 H 686.571 0.351517 6.09587 0
M  V30 7113 H 687.985 2.43465 5.19035 0
M  V30 7114 H 686.382 3.21608 5.06644 0
M  V30 7115 H 687.452 3.1886 3.65317 0
M  V30 7116 N 688.795 -1.27931 0.920396 0
M  V30 7117 C 689.725 -2.29487 0.431024 0
M  V30 7118 C 690.706 -1.62435 -0.504861 0
M  V30 7119 O 691.891 -1.89797 -0.411176 0
M  V30 7120 C 689.021 -3.45788 -0.323709 0
M  V30 7121 C 687.975 -4.24784 0.523658 0
M  V30 7122 C 687.301 -5.33488 -0.359809 0
M  V30 7123 C 688.601 -4.90874 1.78437 0
M  V30 7124 H 690.295 -2.70671 1.27975 0
M  V30 7125 H 687.841 -1.30121 0.616813 0
M  V30 7126 H 689.794 -4.15927 -0.676952 0
M  V30 7127 H 688.518 -3.03502 -1.2064 0
M  V30 7128 H 687.177 -3.56382 0.85951 0
M  V30 7129 H 686.825 -4.87445 -1.24124 0
M  V30 7130 H 686.525 -5.87247 0.203605 0
M  V30 7131 H 688.049 -6.06472 -0.708787 0
M  V30 7132 H 689.463 -5.53339 1.49963 0
M  V30 7133 H 687.86 -5.54659 2.29071 0
M  V30 7134 H 688.93 -4.14988 2.50824 0
M  V30 7135 N 690.273 -0.685099 -1.4193 0
M  V30 7136 C 691.55 -0.140152 -1.95097 0
M  V30 7137 C 691.93 1.34745 -1.62502 0
M  V30 7138 O 691.278 2.08872 -0.926534 0
M  V30 7139 C 691.488 -0.420268 -3.4646 0
M  V30 7140 C 692.836 -0.342338 -4.23218 0
M  V30 7141 O 693.86 -0.354592 -3.54431 0
M  V30 7142 O 692.719 -0.293404 -5.45712 0
M  V30 7143 H 689.813 -0.00885998 -0.826953 0
M  V30 7144 H 692.359 -0.760539 -1.51703 0
M  V30 7145 H 691.131 -1.45037 -3.63428 0
M  V30 7146 H 690.754 0.231616 -3.96925 0
M  V30 7147 N 691.751 1.51645 -0.429126 0
M  V30 7148 C 692.698 2.27542 0.386446 0
M  V30 7149 C 693.668 1.30786 1.02393 0
M  V30 7150 O 694.853 1.59678 1.0444 0
M  V30 7151 C 691.993 3.11457 1.48623 0
M  V30 7152 C 691.106 4.23196 0.867691 0
M  V30 7153 C 690.241 4.94435 1.94183 0
M  V30 7154 C 689.28 5.98108 1.30129 0
M  V30 7155 N 688.417 6.62786 2.31644 0
M  V30 7156 H 693.257 2.968 -0.267155 0
M  V30 7157 H 690.794 1.46397 -0.143591 0
M  V30 7158 H 692.752 3.58429 2.13506 0
M  V30 7159 H 691.382 2.44329 2.10957 0
M  V30 7160 H 690.434 3.80248 0.107373 0
M  V30 7161 H 691.746 4.97499 0.35997 0
M  V30 7162 H 690.9 5.44914 2.66747 0
M  V30 7163 H 689.639 4.19744 2.48326 0
M  V30 7164 H 688.644 5.4693 0.561082 0
M  V30 7165 H 689.869 6.74751 0.767303 0
M  V30 7166 H 687.815 5.90913 2.84883 0
M  V30 7167 H 687.732 7.32828 1.85741 0
M  V30 7168 H 689 7.17897 3.03717 0
M  V30 7169 N 693.229 0.160201 1.56784 0
M  V30 7170 C 694.475 -0.481855 1.9761 0
M  V30 7171 C 694.83 -1.61605 1.04411 0
M  V30 7172 O 694.123 -1.91426 0.0816402 0
M  V30 7173 C 694.317 -1.02259 3.42459 0
M  V30 7174 C 694.146 0.0576781 4.49663 0
M  V30 7175 C 692.916 0.503585 5.02784 0
M  V30 7176 C 695.114 0.854013 5.0716 0
M  V30 7177 N 693.096 1.56532 5.93608 0
M  V30 7178 C 694.467 1.76593 5.94319 0
M  V30 7179 C 696.522 0.900333 4.89692 0
M  V30 7180 C 695.225 2.72023 6.6588 0
M  V30 7181 C 697.251 1.84252 5.61965 0
M  V30 7182 C 696.613 2.74194 6.48843 0
M  V30 7183 H 692.712 -0.144748 0.768487 0
M  V30 7184 H 695.296 0.257853 1.92985 0
M  V30 7185 H 693.467 -1.73186 3.47651 0
M  V30 7186 H 695.199 -1.63235 3.70319 0
M  V30 7187 H 691.954 0.103361 4.73487 0
M  V30 7188 H 692.378 2.09634 6.43726 0
M  V30 7189 H 697.02 0.219023 4.22232 0
M  V30 7190 H 694.738 3.41147 7.3256 0
M  V30 7191 H 698.324 1.88433 5.5044 0
M  V30 7192 H 697.204 3.45912 7.03786 0
M  V30 7193 N 694.707 -1.5719 -0.113559 0
M  V30 7194 C 695.67 -1.99796 -1.12314 0
M  V30 7195 C 696.67 -0.888847 -1.34001 0
M  V30 7196 O 697.86 -1.15476 -1.30426 0
M  V30 7197 C 694.992 -2.34279 -2.47641 0
M  V30 7198 H 696.185 -2.90193 -0.756825 0
M  V30 7199 H 693.738 -1.52144 -0.358029 0
M  V30 7200 H 694.473 -1.46778 -2.89183 0
M  V30 7201 H 694.258 -3.15175 -2.33253 0
M  V30 7202 H 695.748 -2.67963 -3.2029 0
M  V30 7203 N 696.185 0.383891 -1.52853 0
M  V30 7204 C 697.132 1.46924 -1.77995 0
M  V30 7205 C 698.102 1.53958 -0.623396 0
M  V30 7206 O 699.287 1.70134 -0.863657 0
M  V30 7207 C 696.427 2.84093 -1.95921 0
M  V30 7208 C 695.54 2.86171 -3.23621 0
M  V30 7209 C 694.675 4.14799 -3.31836 0
M  V30 7210 C 693.714 4.10948 -4.53639 0
M  V30 7211 N 692.851 5.31192 -4.59107 0
M  V30 7212 H 697.691 1.24786 -2.70615 0
M  V30 7213 H 695.228 0.605265 -1.34071 0
M  V30 7214 H 697.186 3.63755 -2.04299 0
M  V30 7215 H 695.816 3.04671 -1.06656 0
M  V30 7216 H 694.868 1.9885 -3.24288 0
M  V30 7217 H 696.18 2.79194 -4.13343 0
M  V30 7218 H 695.334 5.02867 -3.39425 0
M  V30 7219 H 694.073 4.24505 -2.40097 0
M  V30 7220 H 693.078 3.21268 -4.46169 0
M  V30 7221 H 694.303 4.0286 -5.467 0
M  V30 7222 H 692.249 5.41518 -3.70262 0
M  V30 7223 H 692.166 5.26311 -5.42708 0
M  V30 7224 H 693.434 6.21143 -4.70958 0
M  V30 7225 N 697.663 1.43903 0.642637 0
M  V30 7226 C 698.909 1.47291 1.40275 0
M  V30 7227 C 699.264 0.0996024 1.92142 0
M  V30 7228 O 698.557 -0.883423 1.70018 0
M  V30 7229 C 698.751 2.45907 2.59354 0
M  V30 7230 C 698.58 3.92691 2.19143 0
M  V30 7231 C 697.35 4.6097 2.06966 0
M  V30 7232 C 699.548 4.82231 1.78768 0
M  V30 7233 N 697.53 5.9263 1.60196 0
M  V30 7234 C 698.901 6.03246 1.43159 0
M  V30 7235 C 700.956 4.69397 1.66045 0
M  V30 7236 C 699.659 7.12851 0.961014 0
M  V30 7237 C 701.685 5.79016 1.20392 0
M  V30 7238 C 701.047 6.99164 0.857271 0
M  V30 7239 H 697.146 0.594055 0.50855 0
M  V30 7240 H 699.73 1.80153 0.738434 0
M  V30 7241 H 697.901 2.15054 3.23429 0
M  V30 7242 H 699.633 2.39665 3.26102 0
M  V30 7243 H 696.388 4.15622 2.27058 0
M  V30 7244 H 696.812 6.62547 1.39143 0
M  V30 7245 H 701.454 3.76954 1.91482 0
M  V30 7246 H 699.172 8.05113 0.694148 0
M  V30 7247 H 702.758 5.71109 1.11023 0
M  V30 7248 H 701.638 7.82544 0.509408 0
M  V30 7249 N 699.141 -0.881989 1.30609 0
M  V30 7250 C 700.39 -1.62878 1.18969 0
M  V30 7251 C 700.703 -1.93946 -0.253859 0
M  V30 7252 O 701.909 -2.67008 -0.491813 0
M  V30 7253 C 700.365 -2.93573 2.0819 0
M  V30 7254 C 699.973 -2.70034 3.57471 0
M  V30 7255 C 701.717 -3.71543 2.0532 0
M  V30 7256 C 699.624 -3.96563 4.38739 0
M  V30 7257 H 698.554 -0.611092 0.441682 0
M  V30 7258 H 701.205 -0.976201 1.55379 0
M  V30 7259 H 699.587 -3.6014 1.64666 0
M  V30 7260 H 700.761 -2.11949 4.09163 0
M  V30 7261 H 699.076 -2.05435 3.62195 0
M  V30 7262 H 701.673 -4.65386 2.63288 0
M  V30 7263 H 702.016 -4.03167 1.03739 0
M  V30 7264 H 702.549 -3.11842 2.46981 0
M  V30 7265 H 699.288 -3.70095 5.41027 0
M  V30 7266 H 698.808 -4.54142 3.9181 0
M  V30 7267 H 700.487 -4.64557 4.50329 0
M  V30 7268 N 700.619 -1.13374 -1.09472 0
M  V30 7269 C 701.567 -0.806105 -2.18185 0
M  V30 7270 C 702.561 0.21136 -1.68076 0
M  V30 7271 O 703.767 0.0685558 -1.79869 0
M  V30 7272 H 700.142 -0.242901 -0.71169 0
M  V30 7273 H 702.113 -1.73115 -2.43051 0
M  V30 7274 C 700.862 -0.287928 -3.46506 0
M  V30 7275 H 700.185 -1.06217 -3.85432 0
M  V30 7276 H 701.625 -0.0971054 -4.23889 0
M  V30 7277 C 700.084 0.986256 -3.22141 0
M  V30 7278 O 700.614 2.06217 -3.44728 0
M  V30 7279 N 698.82 0.917153 -2.75747 0
M  V30 7280 H 698.367 0.0414609 -2.57567 0
M  V30 7281 H 698.325 1.77029 -2.59823 0
M  V30 7282 N 702.098 1.27442 -0.927168 0
M  V30 7283 C 703.346 1.94007 -0.566203 0
M  V30 7284 C 703.667 1.7323 0.895345 0
M  V30 7285 O 702.937 1.07973 1.63459 0
M  V30 7286 H 701.517 0.717917 -0.206409 0
M  V30 7287 H 704.179 1.55161 -1.17945 0
M  V30 7288 H 703.275 3.02401 -0.772028 0
M  V30 7289 N 703.576 0.692616 1.41565 0
M  V30 7290 C 704.486 0.0258451 2.34586 0
M  V30 7291 C 705.502 -0.769324 1.56069 0
M  V30 7292 O 706.678 -0.707563 1.88562 0
M  V30 7293 C 703.743 -0.901289 3.3478 0
M  V30 7294 C 702.804 -0.0986579 4.29187 0
M  V30 7295 C 702.037 -0.981634 5.24595 0
M  V30 7296 O 702.26 -2.22115 5.25377 0
M  V30 7297 O 701.194 -0.432892 6.00341 0
M  V30 7298 H 705.02 0.792537 2.93177 0
M  V30 7299 H 702.605 0.452935 1.42369 0
M  V30 7300 H 704.487 -1.43302 3.96286 0
M  V30 7301 H 703.162 -1.64752 2.78637 0
M  V30 7302 H 702.069 0.477604 3.71039 0
M  V30 7303 H 703.402 0.608848 4.8842 0
M  V30 7304 N 705.054 -1.51416 0.437162 0
M  V30 7305 C 706.303 -2.01275 -0.130865 0
M  V30 7306 C 706.616 -1.32593 -1.438 0
M  V30 7307 O 707.822 -1.7342 -2.08897 0
M  V30 7308 C 706.278 -3.5878 -0.283763 0
M  V30 7309 C 705.886 -4.36399 1.01293 0
M  V30 7310 C 707.63 -4.16786 -0.805569 0
M  V30 7311 C 705.537 -5.85608 0.825687 0
M  V30 7312 H 704.467 -0.752157 -0.0526818 0
M  V30 7313 H 707.118 -1.74524 0.566896 0
M  V30 7314 H 705.5 -3.81976 -1.04452 0
M  V30 7315 H 706.674 -4.24948 1.78201 0
M  V30 7316 H 704.989 -3.89843 1.46326 0
M  V30 7317 H 707.586 -5.25972 -0.962146 0
M  V30 7318 H 707.929 -3.75949 -1.78796 0
M  V30 7319 H 708.462 -3.97666 -0.103125 0
M  V30 7320 H 705.201 -6.30857 1.78045 0
M  V30 7321 H 704.721 -5.99723 0.0964029 0
M  V30 7322 H 706.4 -6.45226 0.478815 0
M  V30 7323 N 706.532 -0.168513 -1.56696 0
M  V30 7324 C 707.479 0.762875 -2.17828 0
M  V30 7325 C 708.449 1.22892 -1.11745 0
M  V30 7326 O 709.634 1.29759 -1.39883 0
M  V30 7327 C 706.774 1.9879 -2.82093 0
M  V30 7328 C 705.887 1.56568 -4.02629 0
M  V30 7329 C 705.022 2.74416 -4.54829 0
M  V30 7330 C 704.061 2.28671 -5.67782 0
M  V30 7331 N 703.198 3.39602 -6.14504 0
M  V30 7332 H 708.038 0.23479 -2.97074 0
M  V30 7333 H 705.575 0.104163 -1.46731 0
M  V30 7334 H 707.533 2.70636 -3.17509 0
M  V30 7335 H 706.163 2.48973 -2.05456 0
M  V30 7336 H 705.215 0.744067 -3.73052 0
M  V30 7337 H 706.527 1.18988 -4.844 0
M  V30 7338 H 705.681 3.54423 -4.92412 0
M  V30 7339 H 704.42 3.15254 -3.7211 0
M  V30 7340 H 703.425 1.4711 -5.29753 0
M  V30 7341 H 704.65 1.88894 -6.52301 0
M  V30 7342 H 702.596 3.80021 -5.34715 0
M  V30 7343 H 702.513 3.06105 -6.91257 0
M  V30 7344 H 703.781 4.19902 -6.56737 0
M  V30 7345 N 708.01 1.57248 0.105221 0
M  V30 7346 C 709.257 1.8557 0.810552 0
M  V30 7347 C 709.585 0.755595 1.79223 0
M  V30 7348 O 708.84 -0.251788 1.94073 0
M  V30 7349 C 709.139 3.20437 1.58287 0
M  V30 7350 C 708.805 4.44716 0.744235 0
M  V30 7351 C 707.467 4.78458 0.513013 0
M  V30 7352 C 709.819 5.20953 0.160578 0
M  V30 7353 C 707.147 5.8587 -0.311894 0
M  V30 7354 C 709.499 6.29235 -0.651596 0
M  V30 7355 C 708.163 6.615 -0.893005 0
M  V30 7356 H 707.433 0.67905 0.296602 0
M  V30 7357 H 710.08 1.91363 0.0723968 0
M  V30 7358 H 708.385 3.10283 2.39232 0
M  V30 7359 H 710.082 3.39576 2.13282 0
M  V30 7360 H 706.672 4.18287 0.934555 0
M  V30 7361 H 710.856 4.95226 0.3264 0
M  V30 7362 H 706.112 6.09286 -0.508012 0
M  V30 7363 H 710.286 6.87484 -1.11077 0
M  V30 7364 H 707.913 7.44562 -1.53401 0
M  V30 7365 N 709.488 -0.375779 1.53054 0
M  V30 7366 C 710.436 -1.48015 1.79428 0
M  V30 7367 C 711.43 -1.55893 0.662854 0
M  V30 7368 O 712.636 -1.58901 0.845599 0
M  V30 7369 H 709.011 -0.492887 0.56795 0
M  V30 7370 H 710.982 -1.22971 2.71884 0
M  V30 7371 C 709.731 -2.84984 1.99197 0
M  V30 7372 H 709.054 -2.79677 2.85693 0
M  V30 7373 H 710.494 -3.61462 2.21633 0
M  V30 7374 C 708.953 -3.28025 0.768183 0
M  V30 7375 O 709.483 -4.01671 -0.0480482 0
M  V30 7376 N 707.689 -2.84454 0.594521 0
M  V30 7377 H 707.236 -2.24688 1.25988 0
M  V30 7378 H 707.194 -3.13609 -0.222916 0
M  V30 7379 N 710.966 -1.44241 -0.634997 0
M  V30 7380 C 711.929 -1.50457 -1.72903 0
M  V30 7381 C 712.929 -0.387058 -1.56072 0
M  V30 7382 O 714.119 -0.649531 -1.61638 0
M  V30 7383 C 711.251 -1.37477 -3.1195 0
M  V30 7384 H 712.444 -2.47907 -1.68767 0
M  V30 7385 H 709.997 -1.31276 -0.84831 0
M  V30 7386 H 710.732 -0.41106 -3.21684 0
M  V30 7387 H 710.517 -2.18506 -3.25573 0
M  V30 7388 H 712.007 -1.44799 -3.91692 0
M  V30 7389 N 712.444 0.87505 -1.31075 0
M  V30 7390 C 713.721 1.60976 -1.11113 0
M  V30 7391 C 714.101 2.08409 0.336006 0
M  V30 7392 O 713.449 1.85858 1.32924 0
M  V30 7393 C 713.659 2.77166 -2.12085 0
M  V30 7394 C 715.007 3.47254 -2.44335 0
M  V30 7395 O 716.031 2.87367 -2.10472 0
M  V30 7396 O 714.89 4.55276 -3.02301 0
M  V30 7397 H 711.984 0.707982 -0.427424 0
M  V30 7398 H 714.53 0.920957 -1.42536 0
M  V30 7399 H 713.302 2.39494 -3.09449 0
M  V30 7400 H 712.925 3.53737 -1.81538 0
M  V30 7401 N 713.922 1.13953 1.08869 0
M  V30 7402 C 715.17 0.903023 1.80803 0
M  V30 7403 C 715.491 -0.572151 1.86417 0
M  V30 7404 O 714.761 -1.41589 1.35386 0
M  V30 7405 H 713.341 0.331099 0.669614 0
M  V30 7406 H 716.003 1.43719 1.31647 0
M  V30 7407 H 715.099 1.29881 2.83791 0
M  V30 7408 N 715.4 -1.26948 0.933913 0
M  V30 7409 C 716.628 -1.98186 0.59414 0
M  V30 7410 C 717.043 -1.69614 -0.829257 0
M  V30 7411 O 716.4 -0.960213 -1.55197 0
M  V30 7412 C 716.451 -3.52123 0.818026 0
M  V30 7413 O 716.172 -3.79698 2.18543 0
M  V30 7414 C 717.673 -4.40608 0.48781 0
M  V30 7415 H 714.893 -0.632305 0.224569 0
M  V30 7416 H 717.437 -1.61646 1.25263 0
M  V30 7417 H 715.592 -3.86851 0.206246 0
M  V30 7418 H 716.006 -4.7426 2.24005 0
M  V30 7419 H 717.48 -5.47606 0.695126 0
M  V30 7420 H 717.957 -4.35394 -0.576913 0
M  V30 7421 H 718.563 -4.11411 1.078 0
M  V30 7422 N 716.879 -0.700114 -1.41195 0
M  V30 7423 C 718.126 -0.233006 -2.01155 0
M  V30 7424 C 718.454 1.16883 -1.55462 0
M  V30 7425 O 717.709 1.80395 -0.758695 0
M  V30 7426 C 718.008 -0.243986 -3.56566 0
M  V30 7427 C 717.674 -1.59397 -4.21786 0
M  V30 7428 C 716.336 -1.96355 -4.39316 0
M  V30 7429 C 718.688 -2.48192 -4.58312 0
M  V30 7430 C 716.016 -3.21683 -4.9065 0
M  V30 7431 C 718.368 -3.72857 -5.11039 0
M  V30 7432 C 717.032 -4.09951 -5.26779 0
M  V30 7433 H 716.302 -0.085263 -0.736078 0
M  V30 7434 H 718.949 -0.9001 -1.69028 0
M  V30 7435 H 717.254 0.506663 -3.8851 0
M  V30 7436 H 718.951 0.135031 -4.00773 0
M  V30 7437 H 715.541 -1.29654 -4.08519 0
M  V30 7438 H 719.725 -2.20918 -4.4442 0
M  V30 7439 H 714.981 -3.50412 -5.01021 0
M  V30 7440 H 719.155 -4.41844 -5.38282 0
M  V30 7441 H 716.782 -5.07136 -5.66319 0
M  V30 7442 N 718.357 1.51182 -0.445186 0
M  V30 7443 C 719.289 2.25714 0.398206 0
M  V30 7444 C 720.302 1.30032 0.979562 0
M  V30 7445 O 721.491 1.55731 0.872368 0
M  V30 7446 C 718.591 3.00348 1.56985 0
M  V30 7447 C 717.764 4.23187 1.10596 0
M  V30 7448 C 716.823 4.80334 2.14863 0
M  V30 7449 O 715.849 5.4196 1.73977 0
M  V30 7450 N 717.051 4.65053 3.47427 0
M  V30 7451 H 719.816 2.98732 -0.240629 0
M  V30 7452 H 717.377 1.59556 -0.274507 0
M  V30 7453 H 719.369 3.35464 2.26376 0
M  V30 7454 H 717.939 2.30291 2.11387 0
M  V30 7455 H 717.159 3.93476 0.238832 0
M  V30 7456 H 718.447 5.02886 0.773537 0
M  V30 7457 H 717.845 4.15984 3.83372 0
M  V30 7458 H 716.402 5.04509 4.12691 0
M  V30 7459 N 719.835 0.176821 1.56605 0
M  V30 7460 C 721.084 -0.466833 1.96223 0
M  V30 7461 C 721.397 -1.64015 1.06576 0
M  V30 7462 O 722.603 -2.3504 1.35898 0
M  V30 7463 C 721.059 -0.881921 3.48927 0
M  V30 7464 C 720.667 0.266102 4.47209 0
M  V30 7465 C 722.411 -1.49368 3.97353 0
M  V30 7466 C 720.318 -0.168923 5.91159 0
M  V30 7467 H 719.248 -0.178178 0.732645 0
M  V30 7468 H 721.899 0.265929 1.81563 0
M  V30 7469 H 720.281 -1.67082 3.59026 0
M  V30 7470 H 721.455 1.04349 4.4883 0
M  V30 7471 H 719.77 0.788178 4.08872 0
M  V30 7472 H 722.367 -1.8313 5.02362 0
M  V30 7473 H 722.71 -2.3936 3.40606 0
M  V30 7474 H 723.243 -0.769114 3.90294 0
M  V30 7475 H 719.982 0.696351 6.51791 0
M  V30 7476 H 719.502 -0.911552 5.92833 0
M  V30 7477 H 721.181 -0.610938 6.44109 0
M  V30 7478 N 721.313 -1.57302 -0.09688 0
M  V30 7479 C 722.724 -1.7496 -0.651595 0
M  V30 7480 C 723.075 -0.798746 -1.79205 0
M  V30 7481 O 722.2 0.0231858 -2.16388 0
M  V30 7482 C 722.795 -3.17259 -1.18878 0
M  V30 7483 C 721.354 -3.36348 -1.68958 0
M  V30 7484 C 720.501 -2.70766 -0.598413 0
M  V30 7485 H 723.452 -1.58173 0.12918 0
M  V30 7486 H 723.473 -3.20033 -2.05814 0
M  V30 7487 H 722.985 -3.8644 -0.358523 0
M  V30 7488 H 721.086 -2.72243 -2.5439 0
M  V30 7489 H 721.199 -4.44654 -1.7838 0
M  V30 7490 H 719.563 -2.32615 -1.03743 0
M  V30 7491 H 720.346 -3.42586 0.221238 0
M  V30 7492 N 722.791 0.367657 -1.53252 0
M  V30 7493 C 724.016 1.13566 -1.73544 0
M  V30 7494 C 724.441 1.82329 -0.462344 0
M  V30 7495 O 723.799 1.71655 0.583472 0
M  V30 7496 C 723.847 2.14322 -2.89997 0
M  V30 7497 O 722.951 3.21359 -2.58461 0
M  V30 7498 H 722.292 0.329614 -0.576412 0
M  V30 7499 H 724.822 0.425417 -2.00128 0
M  V30 7500 H 724.832 2.57958 -3.16104 0
M  V30 7501 H 723.507 1.63664 -3.82344 0
M  V30 7502 H 722.084 2.8271 -2.43165 0
M  V30 7503 N 724.269 1.44576 0.627338 0
M  V30 7504 C 725.497 1.51048 1.41394 0
M  V30 7505 C 725.912 0.136568 1.88305 0
M  V30 7506 O 725.269 -0.858251 1.6106 0
M  V30 7507 C 725.32 2.47837 2.63172 0
M  V30 7508 O 725.041 3.79887 2.18215 0
M  V30 7509 C 726.542 2.63811 3.56257 0
M  V30 7510 H 723.762 0.512171 0.4335 0
M  V30 7511 H 726.306 1.89576 0.766878 0
M  V30 7512 H 724.461 2.12433 3.23961 0
M  V30 7513 H 724.875 4.32177 2.97192 0
M  V30 7514 H 726.349 3.35554 4.38301 0
M  V30 7515 H 726.826 1.69169 4.05313 0
M  V30 7516 H 727.432 3.0013 3.01333 0
M  V30 7517 N 725.747 -0.868086 1.31537 0
M  V30 7518 C 726.996 -1.61607 1.20689 0
M  V30 7519 C 727.309 -1.94204 -0.233275 0
M  V30 7520 O 728.515 -2.67515 -0.463465 0
M  V30 7521 C 726.971 -2.91348 2.11292 0
M  V30 7522 C 726.579 -2.66227 3.60315 0
M  V30 7523 C 728.323 -3.69344 2.09249 0
M  V30 7524 C 726.23 -3.91887 4.42921 0
M  V30 7525 H 725.16 -0.606373 0.448138 0
M  V30 7526 H 727.811 -0.959666 1.56405 0
M  V30 7527 H 726.193 -3.58374 1.68477 0
M  V30 7528 H 727.367 -2.07597 4.11388 0
M  V30 7529 H 725.682 -2.01582 3.64354 0
M  V30 7530 H 728.279 -4.62567 2.68209 0
M  V30 7531 H 728.622 -4.02044 1.0801 0
M  V30 7532 H 729.155 -3.09205 2.50274 0
M  V30 7533 H 725.894 -3.64336 5.44922 0
M  V30 7534 H 725.414 -4.49961 3.96605 0
M  V30 7535 H 727.093 -4.59754 4.55231 0
M  V30 7536 N 727.225 -1.14528 -1.08264 0
M  V30 7537 C 728.502 -0.825185 -1.77342 0
M  V30 7538 C 728.882 0.681037 -1.99813 0
M  V30 7539 O 728.23 1.62234 -1.60912 0
M  V30 7540 C 728.44 -1.62556 -3.08831 0
M  V30 7541 C 729.788 -1.82585 -3.83338 0
M  V30 7542 O 730.812 -1.59254 -3.18617 0
M  V30 7543 O 729.671 -2.21598 -4.99556 0
M  V30 7544 H 726.765 -0.302531 -0.769678 0
M  V30 7545 H 729.311 -1.25056 -1.14713 0
M  V30 7546 H 728.083 -2.64862 -2.88035 0
M  V30 7547 H 727.706 -1.1959 -3.79189 0
M  V30 7548 N 728.703 1.26451 -0.940633 0
M  V30 7549 C 729.949 1.94401 -0.598303 0
M  V30 7550 C 730.304 1.72449 0.853178 0
M  V30 7551 O 729.597 1.0506 1.60228 0
M  V30 7552 C 729.791 3.46503 -0.875794 0
M  V30 7553 C 729.62 3.83247 -2.3527 0
M  V30 7554 C 728.39 4.06032 -3.00776 0
M  V30 7555 C 730.588 3.91841 -3.33114 0
M  V30 7556 N 728.57 4.29656 -4.38485 0
M  V30 7557 C 729.941 4.19991 -4.56078 0
M  V30 7558 C 731.996 3.74466 -3.28146 0
M  V30 7559 C 730.699 4.32574 -5.74693 0
M  V30 7560 C 732.725 3.88281 -4.46085 0
M  V30 7561 C 732.087 4.16829 -5.67831 0
M  V30 7562 H 728.186 0.734168 -0.269297 0
M  V30 7563 H 730.77 1.52541 -1.20992 0
M  V30 7564 H 728.941 3.87292 -0.293223 0
M  V30 7565 H 730.673 4.01664 -0.494788 0
M  V30 7566 H 727.428 4.01369 -2.51396 0
M  V30 7567 H 727.852 4.45501 -5.09762 0
M  V30 7568 H 732.494 3.51424 -2.35077 0
M  V30 7569 H 730.212 4.54438 -6.68215 0
M  V30 7570 H 733.798 3.76241 -4.43773 0
M  V30 7571 H 732.678 4.27284 -6.5757 0
M  V30 7572 N 730.181 0.707592 1.40822 0
M  V30 7573 C 731.091 0.0507246 2.34545 0
M  V30 7574 C 732.107 -0.752727 1.56876 0
M  V30 7575 O 733.283 -0.687524 1.89302 0
M  V30 7576 C 730.348 -0.865731 3.35717 0
M  V30 7577 C 729.409 -0.0531313 4.29267 0
M  V30 7578 C 728.642 -0.925939 5.25606 0
M  V30 7579 O 728.865 -2.16531 5.27703 0
M  V30 7580 O 727.799 -0.369194 6.00767 0
M  V30 7581 H 731.625 0.823587 2.9232 0
M  V30 7582 H 729.21 0.46801 1.4188 0
M  V30 7583 H 731.092 -1.39091 3.97783 0
M  V30 7584 H 729.767 -1.61788 2.80368 0
M  V30 7585 H 728.674 0.516931 3.70511 0
M  V30 7586 H 730.007 0.660617 4.87747 0
M  V30 7587 N 731.66 -1.50943 0.453197 0
M  V30 7588 C 732.908 -2.01813 -0.107709 0
M  V30 7589 C 733.229 -1.33841 -1.41816 0
M  V30 7590 O 732.499 -0.477973 -1.8998 0
M  V30 7591 H 731.079 -0.745773 -0.0427948 0
M  V30 7592 H 733.741 -1.8545 0.599531 0
M  V30 7593 H 732.837 -3.10911 -0.27218 0
M  V30 7594 N 733.138 -0.185124 -1.56509 0
M  V30 7595 C 734.07 0.771401 -2.15829 0
M  V30 7596 C 735.083 1.18392 -1.11747 0
M  V30 7597 O 736.272 1.12137 -1.38879 0
M  V30 7598 C 733.372 2.05169 -2.69739 0
M  V30 7599 C 732.545 1.80056 -3.98621 0
M  V30 7600 C 731.604 2.92435 -4.37456 0
M  V30 7601 O 730.63 2.62473 -5.05071 0
M  V30 7602 N 731.832 4.20554 -4.00143 0
M  V30 7603 H 734.597 0.264184 -2.98533 0
M  V30 7604 H 732.158 -0.00281069 -1.619 0
M  V30 7605 H 734.15 2.7947 -2.92709 0
M  V30 7606 H 732.72 2.47041 -1.91545 0
M  V30 7607 H 731.94 0.895862 -3.83885 0
M  V30 7608 H 733.228 1.60662 -4.82768 0
M  V30 7609 H 732.626 4.47753 -3.45736 0
M  V30 7610 H 731.183 4.91514 -4.28085 0
M  V30 7611 N 734.616 1.57351 0.0885366 0
M  V30 7612 C 736.027 1.75303 0.642308 0
M  V30 7613 C 736.378 0.808238 1.78779 0
M  V30 7614 O 735.503 -0.01171 2.16397 0
M  V30 7615 C 736.098 3.17885 1.17194 0
M  V30 7616 C 734.657 3.37239 1.67172 0
M  V30 7617 C 733.804 2.7108 0.584045 0
M  V30 7618 H 736.755 1.58103 -0.137567 0
M  V30 7619 H 736.776 3.2112 2.04114 0
M  V30 7620 H 736.288 3.86625 0.338024 0
M  V30 7621 H 734.389 2.73588 2.52943 0
M  V30 7622 H 734.502 4.45594 1.76019 0
M  V30 7623 H 732.866 2.33161 1.02508 0
M  V30 7624 H 733.649 3.42464 -0.239403 0
M  V30 7625 N 736.094 -0.359525 1.53444 0
M  V30 7626 C 737.371 -1.11756 1.6053 0
M  V30 7627 C 737.751 -2.06949 0.416587 0
M  V30 7628 O 737.099 -2.20681 -0.592628 0
M  V30 7629 C 737.309 -1.85133 2.95849 0
M  V30 7630 C 738.657 -2.3945 3.50641 0
M  V30 7631 O 739.681 -1.95251 2.97918 0
M  V30 7632 O 738.54 -3.20266 4.42823 0
M  V30 7633 H 735.634 -0.513005 0.648656 0
M  V30 7634 H 738.18 -0.362301 1.65787 0
M  V30 7635 H 736.952 -1.15694 3.73806 0
M  V30 7636 H 736.575 -2.67554 2.9411 0
M  V30 7637 N 737.572 -1.44907 -0.619662 0
M  V30 7638 C 738.8 -1.51795 -1.40591 0
M  V30 7639 C 739.215 -0.146553 -1.8823 0
M  V30 7640 O 738.572 0.849698 -1.61513 0
M  V30 7641 C 738.623 -2.49229 -2.61853 0
M  V30 7642 O 738.344 -3.81039 -2.16197 0
M  V30 7643 C 739.845 -2.65696 -3.54853 0
M  V30 7644 H 737.065 -0.514463 -0.430777 0
M  V30 7645 H 739.609 -1.8998 -0.756813 0
M  V30 7646 H 737.764 -2.14149 -3.2283 0
M  V30 7647 H 738.178 -4.33747 -2.94896 0
M  V30 7648 H 739.652 -3.37874 -4.36515 0
M  V30 7649 H 740.129 -1.71316 -4.0441 0
M  V30 7650 H 740.735 -3.01724 -2.99737 0
M  V30 7651 N 739.05 0.861098 -1.31996 0
M  V30 7652 C 740.296 1.61707 -1.23379 0
M  V30 7653 C 740.651 1.91315 0.204026 0
M  V30 7654 O 739.944 1.53997 1.13998 0
M  V30 7655 C 740.138 2.94822 -2.02027 0
M  V30 7656 C 739.967 2.78212 -3.5331 0
M  V30 7657 C 738.737 2.76933 -4.22654 0
M  V30 7658 C 740.935 2.52432 -4.48088 0
M  V30 7659 N 738.917 2.51466 -5.60034 0
M  V30 7660 C 740.288 2.36312 -5.73198 0
M  V30 7661 C 742.343 2.37848 -4.37416 0
M  V30 7662 C 741.046 2.0709 -6.88844 0
M  V30 7663 C 743.072 2.10016 -5.52854 0
M  V30 7664 C 742.434 1.94691 -6.7696 0
M  V30 7665 H 738.533 0.595703 -0.506618 0
M  V30 7666 H 741.117 1.01275 -1.66287 0
M  V30 7667 H 739.288 3.53243 -1.61474 0
M  V30 7668 H 741.02 3.59756 -1.85358 0
M  V30 7669 H 737.775 2.89638 -3.74709 0
M  V30 7670 H 738.199 2.41679 -6.32392 0
M  V30 7671 H 742.841 2.4842 -3.42122 0
M  V30 7672 H 740.559 1.95256 -7.84156 0
M  V30 7673 H 744.145 1.99519 -5.46519 0
M  V30 7674 H 743.025 1.7346 -7.64775 0
M  V30 7675 N 740.528 1.15101 1.07655 0
M  V30 7676 C 741.476 0.840714 2.16875 0
M  V30 7677 C 742.47 -0.184594 1.68391 0
M  V30 7678 O 743.676 -0.0399315 1.79956 0
M  V30 7679 H 740.051 0.254192 0.707736 0
M  V30 7680 H 742.022 1.76959 2.40266 0
M  V30 7681 C 740.771 0.343018 3.46004 0
M  V30 7682 H 740.094 1.12335 3.83694 0
M  V30 7683 H 741.534 0.16453 4.23681 0
M  V30 7684 C 739.993 -0.934881 3.23669 0
M  V30 7685 O 740.523 -2.00706 3.47965 0
M  V30 7686 N 738.729 -0.873167 2.77172 0
M  V30 7687 H 738.276 -0.000479072 2.576 0
M  V30 7688 H 738.234 -1.72873 2.62607 0
M  V30 7689 N 742.006 -1.2595 0.947325 0
M  V30 7690 C 743.417 -1.75389 0.639963 0
M  V30 7691 C 743.768 -1.77081 -0.844788 0
M  V30 7692 O 742.893 -1.3869 -1.66114 0
M  V30 7693 C 743.488 -3.18506 1.15496 0
M  V30 7694 C 742.047 -3.65534 0.897894 0
M  V30 7695 C 741.194 -2.44818 1.30228 0
M  V30 7696 H 744.145 -1.1194 1.12495 0
M  V30 7697 H 744.166 -3.77045 0.511627 0
M  V30 7698 H 743.678 -3.17243 2.23559 0
M  V30 7699 H 741.779 -3.72221 -0.168096 0
M  V30 7700 H 741.892 -4.54039 1.52922 0
M  V30 7701 H 740.256 -2.44291 0.720678 0
M  V30 7702 H 741.039 -2.46251 2.39198 0
M  V30 7703 N 743.484 -0.715051 -1.40445 0
M  V30 7704 C 744.712 -0.263959 -2.05209 0
M  V30 7705 C 745.127 1.09403 -1.53871 0
M  V30 7706 O 744.484 1.68746 -0.695064 0
M  V30 7707 C 744.535 -0.234545 -3.60738 0
M  V30 7708 O 744.256 -1.53891 -4.10182 0
M  V30 7709 C 745.757 0.235164 -4.42676 0
M  V30 7710 H 742.977 -0.11876 -0.660407 0
M  V30 7711 H 745.521 -0.973107 -1.79864 0
M  V30 7712 H 743.676 0.425563 -3.85055 0
M  V30 7713 H 744.09 -1.43903 -5.04373 0
M  V30 7714 H 745.564 0.204598 -5.51621 0
M  V30 7715 H 746.041 1.27724 -4.20218 0
M  V30 7716 H 746.647 -0.394649 -4.23465 0
M  V30 7717 N 744.962 1.50701 -0.461195 0
M  V30 7718 C 745.894 2.26124 0.374244 0
M  V30 7719 C 746.907 1.31064 0.965715 0
M  V30 7720 O 748.096 1.56647 0.855801 0
M  V30 7721 C 745.196 3.01996 1.5379 0
M  V30 7722 C 744.369 4.24336 1.06101 0
M  V30 7723 C 743.428 4.82585 2.09756 0
M  V30 7724 O 742.454 5.43775 1.68219 0
M  V30 7725 N 743.656 4.68712 3.42475 0
M  V30 7726 H 746.421 2.9846 -0.2723 0
M  V30 7727 H 743.982 1.59256 -0.291415 0
M  V30 7728 H 745.974 3.37846 2.22806 0
M  V30 7729 H 744.544 2.32521 2.08933 0
M  V30 7730 H 743.764 3.93707 0.197085 0
M  V30 7731 H 745.052 5.03678 0.720156 0
M  V30 7732 H 744.45 4.20026 3.78938 0
M  V30 7733 H 743.007 5.08858 4.07317 0
M  V30 7734 N 746.441 0.193421 1.56409 0
M  V30 7735 C 747.689 -0.444908 1.97142 0
M  V30 7736 C 748.01 -1.62268 1.08139 0
M  V30 7737 O 747.28 -1.95307 0.152326 0
M  V30 7738 H 745.86 -0.16736 0.728011 0
M  V30 7739 H 748.522 0.279763 1.92882 0
M  V30 7740 H 747.618 -0.790159 3.01932 0
M  V30 7741 N 747.919 -1.57396 -0.0801906 0
M  V30 7742 C 749.149 -1.90778 -0.792924 0
M  V30 7743 C 749.557 -0.786814 -1.72064 0
M  V30 7744 O 748.9 0.249259 -1.82001 0
M  V30 7745 C 748.962 -3.19552 -1.64702 0
M  V30 7746 C 748.626 -4.48259 -0.889567 0
M  V30 7747 C 749.623 -5.19465 -0.212602 0
M  V30 7748 C 747.308 -4.94896 -0.859229 0
M  V30 7749 C 749.302 -6.35555 0.484566 0
M  V30 7750 C 746.989 -6.10895 -0.158284 0
M  V30 7751 C 747.987 -6.81075 0.512421 0
M  V30 7752 O 747.675 -7.94862 1.20209 0
M  V30 7753 H 747.407 -0.63527 -0.231103 0
M  V30 7754 H 749.961 -2.0532 -0.0573081 0
M  V30 7755 H 748.191 -3.01196 -2.42524 0
M  V30 7756 H 749.88 -3.38649 -2.23767 0
M  V30 7757 H 750.646 -4.84467 -0.227403 0
M  V30 7758 H 746.525 -4.4015 -1.37073 0
M  V30 7759 H 750.069 -6.9027 1.00864 0
M  V30 7760 H 745.966 -6.45345 -0.141381 0
M  V30 7761 H 746.734 -8.10932 1.11051 0
M  V30 7762 N 749.397 0.351382 -1.53633 0
M  V30 7763 C 750.625 1.11275 -1.74429 0
M  V30 7764 C 751.04 1.82602 -0.479798 0
M  V30 7765 O 750.397 1.74074 0.548125 0
M  V30 7766 C 750.448 2.13223 -2.91921 0
M  V30 7767 O 750.169 1.44798 -4.13479 0
M  V30 7768 C 751.67 3.01797 -3.24706 0
M  V30 7769 H 748.89 0.332153 -0.583023 0
M  V30 7770 H 751.434 0.405974 -2.0043 0
M  V30 7771 H 749.589 2.79477 -2.68274 0
M  V30 7772 H 750.003 2.12839 -4.79374 0
M  V30 7773 H 751.477 3.69282 -4.10286 0
M  V30 7774 H 751.954 3.67387 -2.40673 0
M  V30 7775 H 752.56 2.41141 -3.5033 0
M  V30 7776 N 750.875 1.45233 0.611969 0
M  V30 7777 C 752.123 1.48727 1.36838 0
M  V30 7778 C 752.444 0.128616 1.94575 0
M  V30 7779 O 751.714 -0.84149 1.76906 0
M  V30 7780 H 750.294 0.547695 0.507976 0
M  V30 7781 H 752.956 1.81156 0.718925 0
M  V30 7782 H 752.052 2.2236 2.19003 0
M  V30 7783 N 752.353 -0.854086 1.3245 0
M  V30 7784 C 753.301 -1.98411 1.21391 0
M  V30 7785 C 754.295 -1.68984 0.118586 0
M  V30 7786 O 755.501 -1.77784 0.281549 0
M  V30 7787 H 751.876 -0.651077 0.376301 0
M  V30 7788 H 753.847 -2.04867 2.16961 0
M  V30 7789 C 752.596 -3.34345 0.954407 0
M  V30 7790 H 751.919 -3.57518 1.78944 0
M  V30 7791 H 753.359 -4.13959 0.917269 0
M  V30 7792 C 751.818 -3.35151 -0.342838 0
M  V30 7793 O 752.348 -3.78174 -1.35452 0
M  V30 7794 N 750.554 -2.88298 -0.365012 0
M  V30 7795 H 750.101 -2.53481 0.4588 0
M  V30 7796 H 750.059 -2.8922 -1.23284 0
M  V30 7797 N 753.831 -1.1567 -1.07043 0
M  V30 7798 C 754.794 -0.858906 -2.12498 0
M  V30 7799 C 755.794 0.142735 -1.60165 0
M  V30 7800 O 756.984 -0.0872678 -1.73981 0
M  V30 7801 C 754.116 -0.283021 -3.39723 0
M  V30 7802 H 755.309 -1.79368 -2.40348 0
M  V30 7803 H 752.862 -0.964608 -1.22984 0
M  V30 7804 H 753.597 0.659796 -3.17517 0
M  V30 7805 H 753.382 -1.00467 -3.7901 0
M  V30 7806 H 754.872 -0.0923543 -4.17498 0
M  V30 7807 N 755.309 1.25446 -0.953992 0
M  V30 7808 C 756.257 2.27909 -0.46478 0
M  V30 7809 C 757.251 1.62904 0.464607 0
M  V30 7810 O 758.457 1.76733 0.341407 0
M  V30 7811 H 754.832 0.74036 -0.131798 0
M  V30 7812 H 756.803 2.66559 -1.34122 0
M  V30 7813 C 755.552 3.46853 0.242589 0
M  V30 7814 H 754.875 3.97105 -0.463418 0
M  V30 7815 H 756.315 4.20432 0.548919 0
M  V30 7816 C 754.774 3.03386 1.46487 0
M  V30 7817 O 755.304 3.09342 2.56262 0
M  V30 7818 N 753.51 2.58584 1.32599 0
M  V30 7819 H 753.057 2.53938 0.432834 0
M  V30 7820 H 753.015 2.29866 2.14497 0
M  V30 7821 N 756.787 0.722489 1.40064 0
M  V30 7822 C 757.717 0.0892452 2.33329 0
M  V30 7823 C 758.698 -0.737992 1.53257 0
M  V30 7824 O 759.883 -0.685516 1.81698 0
M  V30 7825 C 757.013 -0.828139 3.37282 0
M  V30 7826 C 755.967 -0.106005 4.27869 0
M  V30 7827 C 755.293 -1.13957 5.22415 0
M  V30 7828 C 756.593 1.04395 5.11761 0
M  V30 7829 H 758.287 0.868269 2.86534 0
M  V30 7830 H 755.833 0.418982 1.3777 0
M  V30 7831 H 757.786 -1.28058 4.01471 0
M  V30 7832 H 756.51 -1.63914 2.82489 0
M  V30 7833 H 755.169 0.326683 3.65142 0
M  V30 7834 H 754.817 -1.9438 4.63924 0
M  V30 7835 H 754.517 -0.661233 5.83868 0
M  V30 7836 H 756.041 -1.59197 5.89482 0
M  V30 7837 H 757.455 0.670541 5.69365 0
M  V30 7838 H 755.852 1.4511 5.82291 0
M  V30 7839 H 756.922 1.87144 4.47331 0
M  V30 7840 N 758.265 -1.50454 0.469181 0
M  V30 7841 C 759.215 -2.25381 -0.344582 0
M  V30 7842 C 760.199 -1.28892 -0.963098 0
M  V30 7843 O 761.391 -1.53805 -0.875964 0
M  V30 7844 C 758.52 -3.12232 -1.4271 0
M  V30 7845 C 757.606 -4.16168 -0.816411 0
M  V30 7846 N 757.997 -5.05762 0.0621424 0
M  V30 7847 C 756.295 -4.32712 -1.08056 0
M  V30 7848 C 756.996 -5.80264 0.408519 0
M  V30 7849 N 755.972 -5.43171 -0.215827 0
M  V30 7850 H 759.774 -2.92016 0.332237 0
M  V30 7851 H 757.288 -1.59911 0.283209 0
M  V30 7852 H 759.285 -3.64514 -2.02324 0
M  V30 7853 H 757.945 -2.47145 -2.10593 0
M  V30 7854 H 758.956 -5.16105 0.430841 0
M  V30 7855 H 755.633 -3.78844 -1.75452 0
M  V30 7856 H 757.023 -6.62408 1.12539 0
M  V30 7857 N 759.743 -0.201713 -1.56304 0
M  V30 7858 C 760.989 0.435952 -1.98059 0
M  V30 7859 C 761.322 1.60811 -1.08873 0
M  V30 7860 O 760.597 1.9398 -0.142128 0
M  V30 7861 C 760.88 0.889706 -3.48936 0
M  V30 7862 C 760.733 -0.284725 -4.48898 0
M  V30 7863 C 762.052 1.7529 -4.03685 0
M  V30 7864 H 759.171 0.15699 -0.720085 0
M  V30 7865 H 761.813 -0.293965 -1.87712 0
M  V30 7866 H 759.963 1.51166 -3.57884 0
M  V30 7867 H 761.635 -0.922531 -4.51981 0
M  V30 7868 H 759.878 -0.935427 -4.23594 0
M  V30 7869 H 760.549 0.0753865 -5.51949 0
M  V30 7870 H 763.025 1.2283 -3.97558 0
M  V30 7871 H 761.901 2.03933 -5.0961 0
M  V30 7872 H 762.162 2.70939 -3.49348 0
M  V30 7873 N 761.222 1.57436 0.0718424 0
M  V30 7874 C 762.169 2.03686 1.08539 0
M  V30 7875 C 763.139 0.917474 1.38462 0
M  V30 7876 O 764.324 1.18513 1.4953 0
M  V30 7877 C 761.464 2.48566 2.39393 0
M  V30 7878 C 760.577 3.74122 2.16001 0
M  V30 7879 C 759.712 4.07786 3.40418 0
M  V30 7880 C 758.751 5.26383 3.1239 0
M  V30 7881 N 757.888 5.55685 4.29138 0
M  V30 7882 H 762.728 2.90043 0.684018 0
M  V30 7883 H 760.265 1.43438 0.326183 0
M  V30 7884 H 762.223 2.72639 3.15791 0
M  V30 7885 H 760.853 1.65186 2.77333 0
M  V30 7886 H 759.905 3.57389 1.30296 0
M  V30 7887 H 761.217 4.60659 1.91298 0
M  V30 7888 H 760.371 4.32759 4.25211 0
M  V30 7889 H 759.11 3.19817 3.68197 0
M  V30 7890 H 758.115 5.01206 2.25993 0
M  V30 7891 H 759.34 6.1597 2.85934 0
M  V30 7892 H 757.286 4.70675 4.56948 0
M  V30 7893 H 757.203 6.3664 4.07708 0
M  V30 7894 H 758.471 5.85209 5.14928 0
M  V30 7895 N 762.7 -0.34323 1.53817 0
M  V30 7896 C 763.946 -1.08504 1.71332 0
M  V30 7897 C 764.279 -1.88294 0.475285 0
M  V30 7898 O 763.554 -1.87205 -0.527688 0
M  V30 7899 C 763.837 -2.02597 2.97702 0
M  V30 7900 C 763.69 -1.26268 4.31713 0
M  V30 7901 C 765.009 -3.0241 3.19744 0
M  V30 7902 H 762.128 -0.393072 0.623429 0
M  V30 7903 H 764.77 -0.363579 1.86489 0
M  V30 7904 H 762.92 -2.64118 2.8491 0
M  V30 7905 H 764.592 -0.673594 4.56356 0
M  V30 7906 H 762.835 -0.564696 4.30109 0
M  V30 7907 H 763.506 -1.95253 5.16314 0
M  V30 7908 H 765.982 -2.51004 3.31868 0
M  V30 7909 H 764.858 -3.65449 4.09558 0
M  V30 7910 H 765.119 -3.73806 2.36054 0
M  V30 7911 N 764.178 -1.45556 -0.604258 0
M  V30 7912 C 765.424 -1.49968 -1.36519 0
M  V30 7913 C 765.757 -0.142236 -1.93678 0
M  V30 7914 O 765.032 0.843717 -1.75247 0
M  V30 7915 C 765.315 -2.58146 -2.51063 0
M  V30 7916 C 765.168 -4.03346 -1.99078 0
M  V30 7917 C 766.487 -2.62581 -3.53184 0
M  V30 7918 H 763.606 -0.545993 -0.495036 0
M  V30 7919 H 766.248 -1.77382 -0.680845 0
M  V30 7920 H 764.398 -2.34901 -3.09441 0
M  V30 7921 H 766.07 -4.37811 -1.45323 0
M  V30 7922 H 764.313 -4.13845 -1.30055 0
M  V30 7923 H 764.984 -4.74731 -2.81664 0
M  V30 7924 H 767.46 -2.83419 -3.04652 0
M  V30 7925 H 766.336 -3.40131 -4.30816 0
M  V30 7926 H 766.597 -1.67798 -4.09019 0
M  V30 7927 N 765.656 0.84705 -1.32902 0
M  V30 7928 C 766.604 1.97765 -1.22441 0
M  V30 7929 C 767.598 1.68919 -0.127546 0
M  V30 7930 O 768.804 1.77633 -0.290973 0
M  V30 7931 H 765.179 0.649072 -0.379748 0
M  V30 7932 H 767.15 2.03713 -2.18044 0
M  V30 7933 C 765.899 3.33834 -0.972125 0
M  V30 7934 H 765.222 3.56564 -1.80837 0
M  V30 7935 H 766.662 4.13467 -0.939209 0
M  V30 7936 C 765.121 3.35328 0.325059 0
M  V30 7937 O 765.651 3.78887 1.33445 0
M  V30 7938 N 763.857 2.88488 0.349718 0
M  V30 7939 H 763.404 2.53234 -0.472236 0
M  V30 7940 H 763.362 2.8987 1.21748 0
M  V30 7941 N 767.134 1.16236 1.06428 0
M  V30 7942 C 768.364 0.965782 1.82637 0
M  V30 7943 C 768.772 -0.489284 1.82764 0
M  V30 7944 O 768.115 -1.35133 1.24438 0
M  V30 7945 C 768.177 1.41458 3.30499 0
M  V30 7946 C 767.841 2.88926 3.54077 0
M  V30 7947 C 768.838 3.86939 3.47238 0
M  V30 7948 C 766.523 3.26814 3.81442 0
M  V30 7949 C 768.517 5.20841 3.67428 0
M  V30 7950 C 766.204 4.60886 4.01282 0
M  V30 7951 C 767.202 5.57708 3.94272 0
M  V30 7952 O 766.89 6.89357 4.13573 0
M  V30 7953 H 766.622 0.342569 0.582772 0
M  V30 7954 H 769.176 1.54641 1.35187 0
M  V30 7955 H 767.406 0.777426 3.78805 0
M  V30 7956 H 769.095 1.18563 3.88198 0
M  V30 7957 H 769.861 3.59014 3.26089 0
M  V30 7958 H 765.74 2.5203 3.86008 0
M  V30 7959 H 769.284 5.96401 3.61873 0
M  V30 7960 H 765.181 4.88522 4.21921 0
M  V30 7961 H 765.949 6.95913 4.30869 0
M  V30 7962 N 768.612 -1.24939 0.960631 0
M  V30 7963 C 769.86 -1.92437 0.617441 0
M  V30 7964 C 770.181 -1.75543 -0.849101 0
M  V30 7965 O 769.451 -1.12269 -1.60538 0
M  V30 7966 H 768.031 -0.712192 0.225371 0
M  V30 7967 H 770.693 -1.5198 1.22017 0
M  V30 7968 H 769.789 -3.00247 0.851933 0
M  V30 7969 N 770.09 -0.729906 -1.39679 0
M  V30 7970 C 771.318 -0.285709 -2.04918 0
M  V30 7971 C 771.733 1.07765 -1.55023 0
M  V30 7972 O 771.09 1.67999 -0.712923 0
M  V30 7973 C 771.141 -0.272793 -3.60469 0
M  V30 7974 O 770.862 -1.58233 -4.08527 0
M  V30 7975 C 772.363 0.188199 -4.429 0
M  V30 7976 H 769.583 -0.125758 -0.65911 0
M  V30 7977 H 772.127 -0.992129 -1.78821 0
M  V30 7978 H 770.282 0.384699 -3.85485 0
M  V30 7979 H 770.696 -1.49245 -5.02818 0
M  V30 7980 H 772.17 0.14608 -5.51807 0
M  V30 7981 H 772.647 1.2326 -4.21549 0
M  V30 7982 H 773.253 -0.439541 -4.23023 0
M  V30 7983 N 771.568 1.50203 -0.477153 0
M  V30 7984 C 772.845 1.95115 0.137609 0
M  V30 7985 C 773.225 1.41778 1.56404 0
M  V30 7986 O 772.573 0.621333 2.1989 0
M  V30 7987 C 772.783 3.4892 0.0747168 0
M  V30 7988 C 774.131 4.238 0.260585 0
M  V30 7989 O 775.155 3.5588 0.151021 0
M  V30 7990 O 774.014 5.44366 0.482534 0
M  V30 7991 H 771.108 0.81987 0.108364 0
M  V30 7992 H 773.654 1.60946 -0.537989 0
M  V30 7993 H 772.426 3.80308 -0.920966 0
M  V30 7994 H 772.049 3.89642 0.791509 0
M  V30 7995 N 773.046 0.209999 1.56195 0
M  V30 7996 C 773.976 -0.699746 2.22769 0
M  V30 7997 C 774.957 -1.20993 1.1956 0
M  V30 7998 O 776.142 -1.25605 1.48112 0
M  V30 7999 C 773.272 -1.91302 2.89863 0
M  V30 8000 C 772.226 -1.53715 3.99444 0
M  V30 8001 C 771.552 -2.82826 4.53777 0
M  V30 8002 C 772.852 -0.735836 5.17091 0
M  V30 8003 H 774.546 -0.144716 2.9905 0
M  V30 8004 H 772.092 -0.0681645 1.43839 0
M  V30 8005 H 774.045 -2.5548 3.35124 0
M  V30 8006 H 772.769 -2.49283 2.11011 0
M  V30 8007 H 771.428 -0.918892 3.54897 0
M  V30 8008 H 771.076 -3.38927 3.71669 0
M  V30 8009 H 770.776 -2.58415 5.27727 0
M  V30 8010 H 772.3 -3.47966 5.01749 0
M  V30 8011 H 773.714 -1.28105 5.58804 0
M  V30 8012 H 772.111 -0.589272 5.972 0
M  V30 8013 H 773.181 0.260004 4.84202 0
M  V30 8014 N 774.524 -1.57472 -0.0634922 0
M  V30 8015 C 775.772 -1.87283 -0.759563 0
M  V30 8016 C 776.093 -0.803135 -1.77693 0
M  V30 8017 O 775.363 0.167293 -1.95184 0
M  V30 8018 H 773.943 -0.691106 -0.283516 0
M  V30 8019 H 776.605 -1.94864 -0.0376091 0
M  V30 8020 H 775.701 -2.85064 -1.27062 0
M  V30 8021 N 776.003 0.335068 -1.53997 0
M  V30 8022 C 777.243 1.0827 -1.7337 0
M  V30 8023 C 777.607 1.85618 -0.490913 0
M  V30 8024 O 778.808 2.62864 -0.561799 0
M  V30 8025 C 777.079 1.99212 -2.96731 0
M  V30 8026 S 778.638 2.81083 -3.36954 0
M  V30 8027 H 775.456 0.365698 -0.609743 0
M  V30 8028 H 778.058 0.360079 -1.92155 0
M  V30 8029 H 776.762 1.41204 -3.85344 0
M  V30 8030 H 776.293 2.75898 -2.80436 0
M  V30 8031 H 778.308 4.01657 -2.91352 0
M  V30 8032 N 777.481 1.45874 0.596531 0
M  V30 8033 C 778.444 1.54988 1.68853 0
M  V30 8034 C 779.444 0.428302 1.54991 0
M  V30 8035 O 780.634 0.692158 1.59859 0
M  V30 8036 C 777.766 1.457 3.08195 0
M  V30 8037 H 778.959 2.52294 1.62135 0
M  V30 8038 H 776.512 1.33479 0.813206 0
M  V30 8039 H 777.247 0.496204 3.20481 0
M  V30 8040 H 777.032 2.27061 3.19665 0
M  V30 8041 H 778.522 1.55133 3.87716 0
M  V30 8042 N 778.959 -0.83999 1.33349 0
M  V30 8043 C 780.184 -1.63249 1.27924 0
M  V30 8044 C 780.609 -1.87523 -0.147193 0
M  V30 8045 O 779.967 -1.43853 -1.10345 0
M  V30 8046 C 780.015 -2.96046 2.05886 0
M  V30 8047 O 779.119 -3.87303 1.4167 0
M  V30 8048 H 778.46 -0.49715 0.440157 0
M  V30 8049 H 780.99 -1.04512 1.75893 0
M  V30 8050 H 781 -3.45752 2.16609 0
M  V30 8051 H 779.675 -2.77701 3.09605 0
M  V30 8052 H 778.252 -3.45789 1.39585 0
M  V30 8053 N 780.437 -1.16799 -1.0581 0
M  V30 8054 C 781.662 -0.977402 -1.82925 0
M  V30 8055 C 782.087 0.469514 -1.82146 0
M  V30 8056 O 781.445 1.33576 -1.22585 0
M  V30 8057 C 781.493 -1.51543 -3.27211 0
M  V30 8058 O 780.597 -0.725021 -4.05977 0
M  V30 8059 H 779.938 -0.347474 -0.565825 0
M  V30 8060 H 782.468 -1.55151 -1.33376 0
M  V30 8061 H 782.478 -1.53502 -3.78023 0
M  V30 8062 H 781.153 -2.56872 -3.27093 0
M  V30 8063 H 779.73 -0.77634 -3.64729 0
M  V30 8064 N 781.915 1.24427 -0.967243 0
M  V30 8065 C 782.845 2.2773 -0.515899 0
M  V30 8066 C 783.826 1.64197 0.444227 0
M  V30 8067 O 785.011 1.91193 0.340451 0
M  V30 8068 C 782.141 3.46751 0.195149 0
M  V30 8069 C 781.095 4.22548 -0.680953 0
M  V30 8070 C 780.421 5.34456 0.161561 0
M  V30 8071 C 781.721 4.83914 -1.96532 0
M  V30 8072 H 783.415 2.65735 -1.37933 0
M  V30 8073 H 780.961 1.27742 -0.664681 0
M  V30 8074 H 782.914 4.18153 0.522117 0
M  V30 8075 H 781.638 3.07771 1.09292 0
M  V30 8076 H 780.297 3.52946 -0.991186 0
M  V30 8077 H 779.945 4.91716 1.05947 0
M  V30 8078 H 779.645 5.86087 -0.421418 0
M  V30 8079 H 781.169 6.08685 0.483211 0
M  V30 8080 H 782.583 5.47392 -1.70396 0
M  V30 8081 H 780.98 5.45775 -2.49499 0
M  V30 8082 H 782.05 4.05393 -2.66053 0
M  V30 8083 N 783.393 0.737304 1.3929 0
M  V30 8084 C 784.356 0.10731 2.28949 0
M  V30 8085 C 785.356 -0.664716 1.46418 0
M  V30 8086 O 786.546 -0.493392 1.67067 0
M  V30 8087 C 783.678 -0.857145 3.29948 0
M  V30 8088 H 784.871 0.89725 2.86163 0
M  V30 8089 H 782.424 0.503279 1.47976 0
M  V30 8090 H 783.159 -1.67336 2.77794 0
M  V30 8091 H 782.944 -0.306167 3.90903 0
M  V30 8092 H 784.434 -1.29444 3.97031 0
M  V30 8093 N 784.871 -1.49948 0.485112 0
M  V30 8094 C 785.819 -2.30449 -0.315609 0
M  V30 8095 C 786.813 -1.38351 -0.977516 0
M  V30 8096 O 788.019 -1.55477 -0.907019 0
M  V30 8097 H 784.394 -0.742262 -0.120629 0
M  V30 8098 H 786.365 -2.95925 0.383552 0
M  V30 8099 C 785.114 -3.19283 -1.37673 0
M  V30 8100 H 784.437 -3.90067 -0.876801 0
M  V30 8101 H 785.877 -3.78579 -1.90929 0
M  V30 8102 C 784.336 -2.37817 -2.38631 0
M  V30 8103 O 784.866 -2.0711 -3.44192 0
M  V30 8104 N 783.072 -2.00135 -2.107 0
M  V30 8105 H 782.619 -2.25307 -1.24878 0
M  V30 8106 H 782.577 -1.45933 -2.7848 0
M  V30 8107 N 786.349 -0.21828 -1.56081 0
M  V30 8108 C 787.577 0.419258 -2.02608 0
M  V30 8109 C 787.992 1.53578 -1.09814 0
M  V30 8110 O 787.349 1.82185 -0.107149 0
M  V30 8111 C 787.4 0.953955 -3.48686 0
M  V30 8112 O 787.121 -0.11805 -4.37941 0
M  V30 8113 C 788.622 1.66506 -4.10841 0
M  V30 8114 H 785.842 0.10296 -0.663054 0
M  V30 8115 H 788.386 -0.333776 -2.01758 0
M  V30 8116 H 786.541 1.65727 -3.50162 0
M  V30 8117 H 786.955 0.283359 -5.23734 0
M  V30 8118 H 788.429 1.99123 -5.14834 0
M  V30 8119 H 788.906 2.57705 -3.55647 0
M  V30 8120 H 789.512 1.00703 -4.13206 0
M  V30 8121 N 787.827 1.57504 0.0551401 0
M  V30 8122 C 788.757 2.07864 1.06372 0
M  V30 8123 C 789.738 0.975565 1.39344 0
M  V30 8124 O 790.923 1.24929 1.48682 0
M  V30 8125 C 788.053 2.53643 2.3724 0
M  V30 8126 C 787.007 3.67978 2.18578 0
M  V30 8127 C 786.333 3.9987 3.54976 0
M  V30 8128 C 787.633 4.97405 1.59329 0
M  V30 8129 H 789.327 2.92379 0.644595 0
M  V30 8130 H 786.873 1.40654 0.308619 0
M  V30 8131 H 788.826 2.8749 3.08103 0
M  V30 8132 H 787.55 1.66177 2.81163 0
M  V30 8133 H 786.209 3.3444 1.50152 0
M  V30 8134 H 785.857 3.0951 3.965 0
M  V30 8135 H 785.557 4.76867 3.43324 0
M  V30 8136 H 787.081 4.36228 4.27244 0
M  V30 8137 H 788.495 5.29375 2.20078 0
M  V30 8138 H 786.892 5.78837 1.58327 0
M  V30 8139 H 787.962 4.81697 0.55638 0
M  V30 8140 N 789.305 -0.326896 1.54172 0
M  V30 8141 C 790.533 -1.08486 1.76177 0
M  V30 8142 C 790.948 -1.81815 0.508788 0
M  V30 8143 O 790.305 -1.74924 -0.520362 0
M  V30 8144 C 790.356 -2.08552 2.95276 0
M  V30 8145 O 790.077 -1.38202 4.15731 0
M  V30 8146 C 791.578 -2.96593 3.29466 0
M  V30 8147 H 788.798 -0.322835 0.588233 0
M  V30 8148 H 791.342 -0.374036 2.0105 0
M  V30 8149 H 789.497 -2.75174 2.72687 0
M  V30 8150 H 789.911 -2.05186 4.827 0
M  V30 8151 H 791.385 -3.62708 4.16109 0
M  V30 8152 H 791.862 -3.63511 2.46487 0
M  V30 8153 H 792.468 -2.35537 3.54122 0
M  V30 8154 N 790.784 -1.46188 -0.588786 0
M  V30 8155 C 792.014 -1.54519 -1.3714 0
M  V30 8156 C 792.422 -0.183075 -1.88312 0
M  V30 8157 O 791.765 0.828815 -1.6394 0
M  V30 8158 C 791.827 -2.48426 -2.59856 0
M  V30 8159 C 791.491 -3.94791 -2.30193 0
M  V30 8160 C 792.488 -4.84173 -1.894 0
M  V30 8161 C 790.173 -4.39872 -2.42525 0
M  V30 8162 C 792.167 -6.16647 -1.61325 0
M  V30 8163 C 789.854 -5.72381 -2.14063 0
M  V30 8164 C 790.852 -6.60589 -1.73527 0
M  V30 8165 O 790.54 -7.9064 -1.4541 0
M  V30 8166 H 790.272 -0.525264 -0.425527 0
M  V30 8167 H 792.826 -1.92242 -0.723344 0
M  V30 8168 H 791.056 -2.05709 -3.27446 0
M  V30 8169 H 792.745 -2.4723 -3.21919 0
M  V30 8170 H 793.511 -4.50603 -1.79393 0
M  V30 8171 H 789.39 -3.71444 -2.7304 0
M  V30 8172 H 792.934 -6.85454 -1.29611 0
M  V30 8173 H 788.831 -6.05501 -2.23693 0
M  V30 8174 H 789.599 -8.02847 -1.59306 0
M  V30 8175 N 792.262 0.832906 -1.33792 0
M  V30 8176 C 793.492 1.61813 -1.28453 0
M  V30 8177 C 793.9 1.88639 0.145595 0
M  V30 8178 O 793.243 1.47122 1.10004 0
M  V30 8179 C 793.305 2.98929 -1.99704 0
M  V30 8180 C 792.969 2.95045 -3.48995 0
M  V30 8181 C 793.966 2.70337 -4.44088 0
M  V30 8182 C 791.651 3.14993 -3.91261 0
M  V30 8183 C 793.645 2.65612 -5.79421 0
M  V30 8184 C 791.332 3.09893 -5.26697 0
M  V30 8185 C 792.33 2.85235 -6.20588 0
M  V30 8186 O 792.018 2.8005 -7.53543 0
M  V30 8187 H 791.75 0.510013 -0.443693 0
M  V30 8188 H 794.304 1.04514 -1.76822 0
M  V30 8189 H 792.534 3.58106 -1.45935 0
M  V30 8190 H 794.223 3.59849 -1.87786 0
M  V30 8191 H 794.989 2.54671 -4.12756 0
M  V30 8192 H 790.868 3.33204 -3.18584 0
M  V30 8193 H 794.412 2.46285 -6.52679 0
M  V30 8194 H 790.309 3.2511 -5.5765 0
M  V30 8195 H 791.077 2.95849 -7.63162 0
M  V30 8196 N 793.74 1.17359 1.05189 0
M  V30 8197 C 794.703 0.892604 2.11105 0
M  V30 8198 C 795.703 -0.117236 1.60372 0
M  V30 8199 O 796.893 0.114936 1.7382 0
M  V30 8200 C 794.025 0.337032 3.3923 0
M  V30 8201 H 795.218 1.83169 2.37464 0
M  V30 8202 H 792.771 0.984051 1.21434 0
M  V30 8203 H 793.506 -0.609198 3.18527 0
M  V30 8204 H 793.291 1.06484 3.77364 0
M  V30 8205 H 794.781 0.158763 4.17298 0
M  V30 8206 N 795.218 -1.23913 0.973828 0
M  V30 8207 C 796.181 -2.23367 0.51378 0
M  V30 8208 C 797.181 -1.55923 -0.39302 0
M  V30 8209 O 798.371 -1.73187 -0.187626 0
M  V30 8210 C 795.503 -3.39944 -0.255152 0
M  V30 8211 H 796.696 -2.65581 1.39307 0
M  V30 8212 H 794.249 -1.36632 0.759039 0
M  V30 8213 H 794.984 -3.03177 -1.15127 0
M  V30 8214 H 794.769 -3.90098 0.395673 0
M  V30 8215 H 796.259 -4.13749 -0.565842 0
M  V30 8216 N 796.696 -0.74468 -1.38897 0
M  V30 8217 C 797.643 -0.111064 -2.30533 0
M  V30 8218 C 798.613 0.719276 -1.49719 0
M  V30 8219 O 799.798 0.677244 -1.78376 0
M  V30 8220 C 796.938 0.78292 -3.36102 0
M  V30 8221 C 796.051 -0.0610817 -4.31957 0
M  V30 8222 C 795.186 0.835075 -5.24595 0
M  V30 8223 C 794.225 -0.0130974 -6.12099 0
M  V30 8224 N 793.362 0.839525 -6.97063 0
M  V30 8225 H 798.202 -0.898113 -2.84144 0
M  V30 8226 H 795.739 -0.454537 -1.39901 0
M  V30 8227 H 797.697 1.31578 -3.95908 0
M  V30 8228 H 796.327 1.53585 -2.83922 0
M  V30 8229 H 795.379 -0.711469 -3.73687 0
M  V30 8230 H 796.691 -0.716482 -4.93627 0
M  V30 8231 H 795.845 1.43542 -5.89475 0
M  V30 8232 H 794.584 1.52423 -4.63269 0
M  V30 8233 H 793.589 -0.626179 -5.46223 0
M  V30 8234 H 794.814 -0.699181 -6.75491 0
M  V30 8235 H 792.76 1.5138 -6.38295 0
M  V30 8236 H 792.677 0.240823 -7.55616 0
M  V30 8237 H 793.945 1.42513 -7.66362 0
M  V30 8238 N 798.174 1.49689 -0.493057 0
M  V30 8239 C 799.399 2.07331 0.0535114 0
M  V30 8240 C 799.824 1.35196 1.30781 0
M  V30 8241 O 799.182 0.406246 1.7669 0
M  V30 8242 C 799.23 3.59364 0.29825 0
M  V30 8243 O 798.334 3.88819 1.37454 0
M  V30 8244 H 797.675 0.663612 -0.0227018 0
M  V30 8245 H 800.205 1.926 -0.690402 0
M  V30 8246 H 800.215 4.04515 0.532159 0
M  V30 8247 H 798.89 4.1128 -0.618207 0
M  V30 8248 H 797.467 3.55487 1.12621 0
M  V30 8249 N 799.652 0.226554 1.55963 0
M  V30 8250 C 800.9 -0.402991 1.98041 0
M  V30 8251 C 801.221 -1.59938 1.11557 0
M  V30 8252 O 800.491 -1.9494 0.193719 0
M  V30 8253 H 799.071 -0.15188 0.731397 0
M  V30 8254 H 801.733 0.320613 1.92245 0
M  V30 8255 H 800.829 -0.725937 3.0354 0
M  V30 8256 N 801.13 -1.57531 -0.0467866 0
M  V30 8257 C 802.407 -1.79568 -0.775536 0
M  V30 8258 C 802.787 -0.820322 -1.94509 0
M  V30 8259 O 802.135 0.14134 -2.28062 0
M  V30 8260 C 802.345 -3.26789 -1.22516 0
M  V30 8261 C 803.693 -3.91299 -1.64835 0
M  V30 8262 O 804.717 -3.30831 -1.3202 0
M  V30 8263 O 803.576 -4.97727 -2.25677 0
M  V30 8264 H 800.67 -0.737817 -0.373572 0
M  V30 8265 H 803.216 -1.69682 -0.0249302 0
M  V30 8266 H 801.988 -3.89357 -0.389446 0
M  V30 8267 H 801.611 -3.41496 -2.03633 0
M  V30 8268 N 802.608 0.318715 -1.54344 0
M  V30 8269 C 803.518 1.41535 -1.87097 0
M  V30 8270 C 804.534 1.56361 -0.763353 0
M  V30 8271 O 805.71 1.71365 -1.05811 0
M  V30 8272 C 802.775 2.76178 -2.09587 0
M  V30 8273 C 801.836 2.70486 -3.3337 0
M  V30 8274 C 801.069 3.98708 -3.54778 0
M  V30 8275 O 801.292 4.9721 -2.79532 0
M  V30 8276 O 800.226 4.01674 -4.48266 0
M  V30 8277 H 804.052 1.16764 -2.80357 0
M  V30 8278 H 801.637 0.51318 -1.4031 0
M  V30 8279 H 803.519 3.55873 -2.25682 0
M  V30 8280 H 802.194 3.00829 -1.19514 0
M  V30 8281 H 801.101 1.89325 -3.22656 0
M  V30 8282 H 802.434 2.50789 -4.23516 0
M  V30 8283 N 804.086 1.46499 0.581025 0
M  V30 8284 C 805.314 1.5547 1.36517 0
M  V30 8285 C 805.729 0.196407 1.87776 0
M  V30 8286 O 805.086 -0.806577 1.63709 0
M  V30 8287 C 805.137 2.56084 2.55154 0
M  V30 8288 O 804.858 3.86637 2.06018 0
M  V30 8289 C 806.359 2.75011 3.47683 0
M  V30 8290 H 803.579 0.525703 0.416986 0
M  V30 8291 H 806.123 1.9192 0.706177 0
M  V30 8292 H 804.278 2.22633 3.17039 0
M  V30 8293 H 804.692 4.41413 2.83292 0
M  V30 8294 H 806.166 3.49329 4.27403 0
M  V30 8295 H 806.643 1.81978 3.99726 0
M  V30 8296 H 807.249 3.09565 2.91632 0
M  V30 8297 N 805.565 -0.825799 1.34232 0
M  V30 8298 C 806.79 -1.61883 1.29648 0
M  V30 8299 C 807.215 -1.87669 -0.127295 0
M  V30 8300 O 806.573 -1.45016 -1.08813 0
M  V30 8301 C 806.621 -2.93846 2.09014 0
M  V30 8302 O 805.725 -3.85778 1.4577 0
M  V30 8303 H 805.066 -0.492454 0.445405 0
M  V30 8304 H 807.596 -1.02641 1.76992 0
M  V30 8305 H 807.606 -3.43435 2.20264 0
M  V30 8306 H 806.281 -2.74401 3.12533 0
M  V30 8307 H 804.858 -3.4429 1.43245 0
M  V30 8308 N 807.043 -1.17915 -1.04565 0
M  V30 8309 C 808.459 -0.927761 -1.29864 0
M  V30 8310 C 808.659 0.409536 -1.97294 0
M  V30 8311 O 807.715 1.14505 -2.25044 0
M  V30 8312 C 809.028 -2.08967 -2.16225 0
M  V30 8313 C 810.576 -2.12741 -2.29587 0
M  V30 8314 C 811.051 -3.28335 -3.19312 0
M  V30 8315 N 812.542 -3.28164 -3.26898 0
M  V30 8316 C 813.277 -4.14249 -3.96466 0
M  V30 8317 N 812.773 -5.10457 -4.68407 0
M  V30 8318 N 814.566 -4.02179 -3.92694 0
M  V30 8319 H 806.717 -2.03983 -0.592011 0
M  V30 8320 H 808.98 -0.891023 -0.323701 0
M  V30 8321 H 808.686 -3.05654 -1.73979 0
M  V30 8322 H 808.56 -2.04606 -3.16885 0
M  V30 8323 H 810.947 -1.16636 -2.71072 0
M  V30 8324 H 811.028 -2.21162 -1.28535 0
M  V30 8325 H 810.672 -4.2471 -2.78539 0
M  V30 8326 H 810.602 -3.17151 -4.20384 0
M  V30 8327 H 813.093 -2.58511 -2.75646 0
M  V30 8328 H 813.406 -5.72526 -5.1907 0
M  V30 8329 H 811.751 -5.14422 -4.67328 0
M  V30 8330 H 814.942 -3.26308 -3.3562 0
M  V30 8331 H 815.115 -4.69486 -4.4664 0
M  V30 8332 N 808.521 1.23394 -0.980386 0
M  V30 8333 C 809.453 2.24146 -0.478657 0
M  V30 8334 C 810.466 1.57303 0.419492 0
M  V30 8335 O 811.655 1.77094 0.223631 0
M  V30 8336 C 808.755 3.3732 0.326913 0
M  V30 8337 C 807.928 4.33744 -0.56436 0
M  V30 8338 C 806.987 5.25866 0.187358 0
M  V30 8339 O 806.013 5.67626 -0.423019 0
M  V30 8340 N 807.215 5.61492 1.47335 0
M  V30 8341 H 809.98 2.67826 -1.34496 0
M  V30 8342 H 807.541 1.37566 -0.853653 0
M  V30 8343 H 809.533 3.95926 0.838148 0
M  V30 8344 H 808.103 2.92823 1.09422 0
M  V30 8345 H 807.323 3.73641 -1.25642 0
M  V30 8346 H 808.611 4.95123 -1.17177 0
M  V30 8347 H 808.009 5.29514 1.99077 0
M  V30 8348 H 806.566 6.2257 1.93002 0
M  V30 8349 N 809.999 0.752036 1.385 0
M  V30 8350 C 810.947 0.112634 2.32327 0
M  V30 8351 C 811.941 -0.707037 1.53939 0
M  V30 8352 O 813.147 -0.606309 1.69481 0
M  V30 8353 H 809.522 0.0176275 0.751793 0
M  V30 8354 H 811.493 0.920074 2.83861 0
M  V30 8355 C 810.242 -0.767458 3.39124 0
M  V30 8356 H 809.565 -0.146122 3.99533 0
M  V30 8357 H 811.005 -1.18216 4.07187 0
M  V30 8358 C 809.464 -1.90938 2.77568 0
M  V30 8359 O 809.994 -3.00342 2.66754 0
M  V30 8360 N 808.2 -1.70396 2.35401 0
M  V30 8361 H 807.747 -0.81413 2.44397 0
M  V30 8362 H 807.705 -2.46972 1.94557 0
M  V30 8363 N 811.477 -1.49425 0.500989 0
M  V30 8364 C 812.44 -2.27646 -0.266416 0
M  V30 8365 C 813.44 -1.3366 -0.893961 0
M  V30 8366 O 814.63 -1.5682 -0.758495 0
M  V30 8367 C 811.762 -3.11618 -1.38227 0
M  V30 8368 H 812.955 -2.96945 0.419973 0
M  V30 8369 H 810.508 -1.5419 0.255954 0
M  V30 8370 H 811.243 -2.46885 -2.10281 0
M  V30 8371 H 811.028 -3.80721 -0.937746 0
M  V30 8372 H 812.518 -3.70698 -1.92283 0
M  V30 8373 N 812.955 -0.234822 -1.55841 0
M  V30 8374 C 813.887 0.702346 -2.18174 0
M  V30 8375 C 814.9 1.14776 -1.15457 0
M  V30 8376 O 816.089 1.07662 -1.42377 0
M  V30 8377 C 813.189 1.96483 -2.76129 0
M  V30 8378 C 812.362 1.67283 -4.04148 0
M  V30 8379 C 811.421 2.7837 -4.46539 0
M  V30 8380 O 810.447 2.46272 -5.13166 0
M  V30 8381 N 811.649 4.07611 -4.1332 0
M  V30 8382 H 814.414 0.169074 -2.99223 0
M  V30 8383 H 811.975 -0.0543164 -1.61809 0
M  V30 8384 H 813.967 2.70016 -3.01452 0
M  V30 8385 H 812.537 2.40822 -1.99307 0
M  V30 8386 H 811.757 0.773278 -3.86541 0
M  V30 8387 H 813.045 1.45222 -4.87635 0
M  V30 8388 H 812.443 4.36527 -3.59806 0
M  V30 8389 H 811 4.77646 -4.43506 0
M  V30 8390 N 814.433 1.57553 0.0384317 0
M  V30 8391 C 815.38 2.05942 1.04194 0
M  V30 8392 C 816.35 0.946637 1.36484 0
M  V30 8393 O 817.535 1.21658 1.46983 0
M  V30 8394 C 814.675 2.53588 2.34066 0
M  V30 8395 C 813.788 3.7862 2.08017 0
M  V30 8396 C 812.923 4.14915 3.31692 0
M  V30 8397 C 811.962 5.32891 3.01155 0
M  V30 8398 N 811.099 5.64662 4.17254 0
M  V30 8399 H 815.939 2.91429 0.622341 0
M  V30 8400 H 813.476 1.44098 0.295684 0
M  V30 8401 H 815.434 2.79276 3.09937 0
M  V30 8402 H 814.064 1.71031 2.73767 0
M  V30 8403 H 813.116 3.60073 1.22686 0
M  V30 8404 H 814.428 4.64613 1.81484 0
M  V30 8405 H 813.582 4.41681 4.15936 0
M  V30 8406 H 812.321 3.27555 3.6133 0
M  V30 8407 H 811.326 5.05887 2.15311 0
M  V30 8408 H 812.551 6.21896 2.72804 0
M  V30 8409 H 810.497 4.80261 4.46861 0
M  V30 8410 H 810.414 6.45145 3.94112 0
M  V30 8411 H 811.682 5.96 5.02399 0
M  V30 8412 N 815.911 -0.310526 1.54511 0
M  V30 8413 C 816.841 -1.38757 1.878 0
M  V30 8414 C 817.822 -1.53353 0.735991 0
M  V30 8415 O 819.007 -1.67018 0.990887 0
M  V30 8416 C 816.137 -2.75327 2.11689 0
M  V30 8417 C 815.091 -2.75506 3.27537 0
M  V30 8418 C 814.417 -4.15275 3.36824 0
M  V30 8419 C 815.717 -2.38093 4.64875 0
M  V30 8420 H 817.411 -1.11146 2.78005 0
M  V30 8421 H 814.957 -0.533232 1.33763 0
M  V30 8422 H 816.91 -3.50752 2.33562 0
M  V30 8423 H 815.634 -3.04443 1.18245 0
M  V30 8424 H 814.293 -2.02538 3.05572 0
M  V30 8425 H 813.941 -4.41553 2.40915 0
M  V30 8426 H 813.641 -4.16299 4.14692 0
M  V30 8427 H 815.165 -4.92493 3.60947 0
M  V30 8428 H 816.579 -3.03232 4.86542 0
M  V30 8429 H 814.976 -2.50345 5.45387 0
M  V30 8430 H 816.046 -1.33227 4.66239 0
M  V30 8431 N 817.389 -1.46805 -0.573248 0
M  V30 8432 C 818.319 -1.60951 -1.69165 0
M  V30 8433 C 819.3 -0.45948 -1.63777 0
M  V30 8434 O 820.485 -0.68688 -1.81647 0
M  V30 8435 C 817.615 -1.60844 -3.07809 0
M  V30 8436 C 816.569 -2.74913 -3.28035 0
M  V30 8437 C 815.895 -2.59871 -4.67302 0
M  V30 8438 C 817.195 -4.16654 -3.14955 0
M  V30 8439 H 818.889 -2.54574 -1.57582 0
M  V30 8440 H 816.435 -1.22516 -0.756686 0
M  V30 8441 H 818.388 -1.69334 -3.85881 0
M  V30 8442 H 817.112 -0.637714 -3.20314 0
M  V30 8443 H 815.771 -2.65908 -2.52366 0
M  V30 8444 H 815.419 -1.60861 -4.76585 0
M  V30 8445 H 815.119 -3.36386 -4.81786 0
M  V30 8446 H 816.643 -2.70265 -5.4753 0
M  V30 8447 H 818.057 -4.26721 -3.82861 0
M  V30 8448 H 816.454 -4.93831 -3.40956 0
M  V30 8449 H 817.524 -4.36146 -2.11908 0
M  V30 8450 N 818.867 0.818669 -1.34668 0
M  V30 8451 C 820.144 1.56118 -1.17841 0
M  V30 8452 C 820.524 2.09646 0.24731 0
M  V30 8453 O 819.872 1.91329 1.24922 0
M  V30 8454 C 820.082 2.67922 -2.23649 0
M  V30 8455 C 821.43 3.36579 -2.58843 0
M  V30 8456 O 822.454 2.78182 -2.22471 0
M  V30 8457 O 821.313 4.42045 -3.21339 0
M  V30 8458 H 818.407 0.689216 -0.457067 0
M  V30 8459 H 820.953 0.859674 -1.46314 0
M  V30 8460 H 819.725 2.26153 -3.19328 0
M  V30 8461 H 819.348 3.45719 -1.96377 0
M  V30 8462 N 820.346 1.18468 1.03938 0
M  V30 8463 C 821.309 0.914944 2.10146 0
M  V30 8464 C 822.309 -0.10022 1.60487 0
M  V30 8465 O 823.499 0.133365 1.73689 0
M  V30 8466 C 820.631 0.372993 3.38853 0
M  V30 8467 H 821.824 1.85677 2.35508 0
M  V30 8468 H 819.377 0.996876 1.20383 0
M  V30 8469 H 820.112 -0.57538 3.19155 0
M  V30 8470 H 819.897 1.1048 3.76213 0
M  V30 8471 H 821.387 0.203014 4.17106 0
M  V30 8472 N 821.824 -1.22873 0.986916 0
M  V30 8473 C 822.757 -2.23154 0.477245 0
M  V30 8474 C 823.735 -1.55981 -0.459206 0
M  V30 8475 O 824.919 -1.84503 -0.386141 0
M  V30 8476 C 822.046 -3.37289 -0.308838 0
M  V30 8477 C 821.092 -4.22637 0.572717 0
M  V30 8478 S 821.925 -4.95758 2.02446 0
M  V30 8479 C 823.081 -6.13338 1.2477 0
M  V30 8480 H 823.314 -2.6604 1.32702 0
M  V30 8481 H 820.847 -1.32455 0.793415 0
M  V30 8482 H 822.805 -4.03472 -0.756351 0
M  V30 8483 H 821.466 -2.92922 -1.13381 0
M  V30 8484 H 820.659 -5.0399 -0.0318024 0
M  V30 8485 H 820.261 -3.61555 0.956746 0
M  V30 8486 H 822.553 -6.7556 0.51231 0
M  V30 8487 H 823.496 -6.78189 2.03629 0
M  V30 8488 H 823.904 -5.59311 0.763622 0
M  V30 8489 N 823.302 -0.75937 -1.38099 0
M  V30 8490 C 824.548 -0.327559 -2.00745 0
M  V30 8491 C 824.903 1.08042 -1.592 0
M  V30 8492 O 824.196 1.7306 -0.822236 0
M  V30 8493 C 824.39 -0.394999 -3.55211 0
M  V30 8494 C 824.219 -1.80798 -4.11755 0
M  V30 8495 C 822.989 -2.42585 -4.43262 0
M  V30 8496 C 825.187 -2.76556 -4.33614 0
M  V30 8497 N 823.169 -3.75784 -4.85448 0
M  V30 8498 C 824.54 -3.94532 -4.78273 0
M  V30 8499 C 826.595 -2.74004 -4.15724 0
M  V30 8500 C 825.298 -5.10322 -5.06916 0
M  V30 8501 C 827.324 -3.88957 -4.45496 0
M  V30 8502 C 826.686 -5.05672 -4.90383 0
M  V30 8503 H 822.785 -0.166644 -0.764038 0
M  V30 8504 H 825.369 -0.99056 -1.67619 0
M  V30 8505 H 823.54 0.237761 -3.87672 0
M  V30 8506 H 825.272 0.0576828 -4.04659 0
M  V30 8507 H 822.027 -1.94302 -4.31907 0
M  V30 8508 H 822.451 -4.44234 -5.10867 0
M  V30 8509 H 827.093 -1.84948 -3.80203 0
M  V30 8510 H 824.811 -5.99988 -5.41332 0
M  V30 8511 H 828.397 -3.88308 -4.33253 0
M  V30 8512 H 827.277 -5.93146 -5.1298 0
M  V30 8513 N 824.78 1.49157 -0.508906 0
M  V30 8514 C 825.728 2.30922 0.278906 0
M  V30 8515 C 826.722 1.39889 0.955382 0
M  V30 8516 O 827.928 1.56901 0.882169 0
M  V30 8517 H 824.303 0.744087 0.108805 0
M  V30 8518 H 826.274 2.95277 -0.430583 0
M  V30 8519 C 825.023 3.21432 1.32576 0
M  V30 8520 H 824.346 3.91413 0.814634 0
M  V30 8521 H 825.786 3.81568 1.84882 0
M  V30 8522 C 824.245 2.41583 2.34817 0
M  V30 8523 O 824.775 2.1256 3.40854 0
M  V30 8524 N 822.981 2.03462 2.07489 0
M  V30 8525 H 822.528 2.27265 1.21278 0
M  V30 8526 H 822.486 1.50345 2.76123 0
M  V30 8527 N 826.258 0.243083 1.55714 0
M  V30 8528 C 827.206 -0.674349 2.2261 0
M  V30 8529 C 828.2 -1.18307 1.21243 0
M  V30 8530 O 829.406 -1.1404 1.39265 0
M  V30 8531 H 825.781 -0.235941 0.714028 0
M  V30 8532 H 827.752 -0.0869446 2.98273 0
M  V30 8533 C 826.501 -1.86206 2.93637 0
M  V30 8534 H 825.824 -1.47975 3.71407 0
M  V30 8535 H 827.264 -2.4813 3.43813 0
M  V30 8536 C 825.723 -2.73084 1.97298 0
M  V30 8537 O 826.253 -3.72497 1.50361 0
M  V30 8538 N 824.459 -2.39571 1.64482 0
M  V30 8539 H 824.006 -1.5878 2.02846 0
M  V30 8540 H 823.964 -2.97976 1.00288 0
M  V30 8541 N 827.736 -1.57571 -0.0300757 0
M  V30 8542 C 828.966 -1.93204 -0.731828 0
M  V30 8543 C 829.374 -0.841156 -1.69473 0
M  V30 8544 O 828.717 0.191231 -1.82702 0
M  V30 8545 C 828.779 -3.2463 -1.54453 0
M  V30 8546 C 828.443 -4.50862 -0.746507 0
M  V30 8547 C 829.44 -5.19879 -0.0472309 0
M  V30 8548 C 827.125 -4.9738 -0.701347 0
M  V30 8549 C 829.119 -6.33692 0.686518 0
M  V30 8550 C 826.806 -6.11089 0.036148 0
M  V30 8551 C 827.804 -6.791 0.728841 0
M  V30 8552 O 827.492 -7.90635 1.45436 0
M  V30 8553 H 827.224 -0.6423 -0.210775 0
M  V30 8554 H 829.778 -2.05398 0.00804194 0
M  V30 8555 H 828.008 -3.0876 -2.32818 0
M  V30 8556 H 829.697 -3.45597 -2.1288 0
M  V30 8557 H 830.463 -4.84945 -0.0731582 0
M  V30 8558 H 826.342 -4.44288 -1.23001 0
M  V30 8559 H 829.886 -6.86711 1.22773 0
M  V30 8560 H 825.783 -6.45468 0.064002 0
M  V30 8561 H 826.551 -8.06988 1.36794 0
M  V30 8562 N 829.214 0.302327 -1.54673 0
M  V30 8563 C 830.439 1.06103 -1.78205 0
M  V30 8564 C 830.864 1.80204 -0.53926 0
M  V30 8565 O 830.222 1.73975 0.510142 0
M  V30 8566 C 830.27 2.01829 -2.98827 0
M  V30 8567 O 829.374 3.10108 -2.71858 0
M  V30 8568 H 828.715 0.30487 -0.589873 0
M  V30 8569 H 831.245 0.340153 -2.01753 0
M  V30 8570 H 831.255 2.44319 -3.2676 0
M  V30 8571 H 829.93 1.473 -3.88942 0
M  V30 8572 H 828.507 2.72142 -2.54937 0
M  V30 8573 N 830.692 1.47107 0.565454 0
M  V30 8574 C 831.969 1.43787 1.32607 0
M  V30 8575 C 832.349 0.130428 2.10697 0
M  V30 8576 O 831.697 -0.888086 2.10536 0
M  V30 8577 C 831.907 2.67833 2.23755 0
M  V30 8578 C 833.255 3.14704 2.85037 0
M  V30 8579 O 834.279 2.68503 2.34061 0
M  V30 8580 O 833.138 3.95002 3.77671 0
M  V30 8581 H 830.232 0.572623 0.596684 0
M  V30 8582 H 832.778 1.59296 0.58504 0
M  V30 8583 H 831.55 3.54532 1.65597 0
M  V30 8584 H 831.173 2.54869 3.05168 0
M  V30 8585 N 832.17 -0.811516 1.35101 0
M  V30 8586 C 833.395 -1.60499 1.31358 0
M  V30 8587 C 833.82 -1.87793 -0.107383 0
M  V30 8588 O 833.178 -1.46161 -1.07268 0
M  V30 8589 C 833.226 -2.91612 2.12119 0
M  V30 8590 O 832.33 -3.84211 1.49853 0
M  V30 8591 H 831.671 -0.487702 0.450603 0
M  V30 8592 H 834.201 -1.00758 1.7807 0
M  V30 8593 H 834.211 -3.4108 2.23894 0
M  V30 8594 H 832.886 -2.71071 3.15426 0
M  V30 8595 H 831.463 -3.42751 1.46889 0
M  V30 8596 N 833.648 -1.19017 -1.03309 0
M  V30 8597 C 834.595 -0.924088 -2.11493 0
M  V30 8598 C 835.565 0.139464 -1.65513 0
M  V30 8599 O 836.75 -0.00178761 -1.908 0
M  V30 8600 C 833.89 -0.464255 -3.41963 0
M  V30 8601 C 833.003 -1.5941 -4.01513 0
M  V30 8602 C 832.138 -1.08622 -5.19976 0
M  V30 8603 C 831.177 -2.19024 -5.71572 0
M  V30 8604 N 830.314 -1.69575 -6.81314 0
M  V30 8605 H 835.154 -1.85039 -2.33591 0
M  V30 8606 H 832.691 -0.922593 -1.14572 0
M  V30 8607 H 834.649 -0.179078 -4.16815 0
M  V30 8608 H 833.279 0.425062 -3.19989 0
M  V30 8609 H 832.331 -1.99458 -3.23915 0
M  V30 8610 H 833.643 -2.42604 -4.35826 0
M  V30 8611 H 832.797 -0.756022 -6.01971 0
M  V30 8612 H 831.536 -0.223955 -4.87186 0
M  V30 8613 H 830.541 -2.5288 -4.88193 0
M  V30 8614 H 831.766 -3.05699 -6.06403 0
M  V30 8615 H 829.712 -0.856494 -6.50385 0
M  V30 8616 H 829.629 -2.46361 -7.14732 0
M  V30 8617 H 830.897 -1.39505 -7.66915 0
M  V30 8618 N 835.127 1.22348 -0.993418 0
M  V30 8619 C 836.375 1.90733 -0.668246 0
M  V30 8620 C 836.696 1.77732 0.802261 0
M  V30 8621 O 835.966 1.16486 1.57505 0
M  V30 8622 H 834.546 0.705966 -0.244174 0
M  V30 8623 H 837.208 1.48691 -1.26004 0
M  V30 8624 H 836.304 2.97883 -0.931239 0
M  V30 8625 N 836.605 0.766683 1.37694 0
M  V30 8626 C 837.854 0.325425 1.99057 0
M  V30 8627 C 838.167 -1.10275 1.61551 0
M  V30 8628 O 839.373 -1.64513 2.1598 0
M  V30 8629 C 837.829 0.530886 3.55963 0
M  V30 8630 C 837.437 1.96899 4.02411 0
M  V30 8631 C 839.181 0.152997 4.24224 0
M  V30 8632 C 837.088 2.12232 5.52007 0
M  V30 8633 H 836.018 0.117929 0.744721 0
M  V30 8634 H 838.669 0.945091 1.5729 0
M  V30 8635 H 837.051 -0.158162 3.95684 0
M  V30 8636 H 838.225 2.69258 3.73948 0
M  V30 8637 H 836.54 2.303 3.46916 0
M  V30 8638 H 839.137 0.24614 5.34133 0
M  V30 8639 H 839.48 -0.896096 4.06541 0
M  V30 8640 H 840.013 0.794398 3.89787 0
M  V30 8641 H 836.752 3.15442 5.7461 0
M  V30 8642 H 836.272 1.4435 5.82171 0
M  V30 8643 H 837.951 1.9185 6.17902 0
M  V30 8644 N 838.083 -1.48885 0.516809 0
M  V30 8645 C 839.308 -2.0739 -0.0205201 0
M  V30 8646 C 839.733 -1.37259 -1.28614 0
M  V30 8647 O 839.091 -0.434304 -1.76021 0
M  V30 8648 C 839.139 -3.59793 -0.24104 0
M  V30 8649 O 838.243 -3.90957 -1.31251 0
M  V30 8650 H 837.584 -0.663167 0.0332564 0
M  V30 8651 H 840.114 -1.91477 0.720956 0
M  V30 8652 H 840.124 -4.0531 -0.467737 0
M  V30 8653 H 838.799 -4.10244 0.68356 0
M  V30 8654 H 837.376 -3.57234 -1.06951 0
M  V30 8655 N 839.561 -0.251338 -1.55583 0
M  V30 8656 C 840.789 0.376187 -2.03451 0
M  V30 8657 C 841.204 1.51215 -1.13047 0
M  V30 8658 O 840.561 1.81917 -0.145769 0
M  V30 8659 C 840.612 0.879779 -3.50631 0
M  V30 8660 O 840.333 -0.210917 -4.37592 0
M  V30 8661 C 841.834 1.57754 -4.14281 0
M  V30 8662 H 839.054 0.0888722 -0.665089 0
M  V30 8663 H 841.598 -0.376497 -2.01004 0
M  V30 8664 H 839.753 1.58263 -3.53598 0
M  V30 8665 H 840.167 0.172203 -5.24217 0
M  V30 8666 H 841.641 1.88158 -5.18942 0
M  V30 8667 H 842.118 2.50103 -3.61034 0
M  V30 8668 H 842.724 0.919154 -4.15249 0
M  V30 8669 N 841.039 1.57585 0.0217189 0
M  V30 8670 C 842.285 1.89887 0.712099 0
M  V30 8671 C 842.618 0.849971 1.74611 0
M  V30 8672 O 841.893 -0.13407 1.94037 0
M  V30 8673 C 842.176 3.32815 1.37499 0
M  V30 8674 C 842.029 4.48405 0.353993 0
M  V30 8675 C 843.348 3.74786 2.30703 0
M  V30 8676 H 840.467 0.690588 0.257405 0
M  V30 8677 H 843.109 1.89983 -0.0251145 0
M  V30 8678 H 841.259 3.32863 2.00335 0
M  V30 8679 H 842.931 4.60491 -0.273015 0
M  V30 8680 H 841.174 4.32573 -0.32599 0
M  V30 8681 H 841.845 5.45316 0.85644 0
M  V30 8682 H 844.321 3.76151 1.77904 0
M  V30 8683 H 843.197 4.75585 2.74061 0
M  V30 8684 H 843.458 3.07449 3.17691 0
M  V30 8685 N 842.517 -0.29412 1.54831 0
M  V30 8686 C 843.427 -1.3854 1.89325 0
M  V30 8687 C 844.443 -1.55127 0.788133 0
M  V30 8688 O 845.619 -1.6966 1.08524 0
M  V30 8689 C 842.684 -2.72809 2.13954 0
M  V30 8690 C 841.745 -2.65148 3.37631 0
M  V30 8691 C 840.978 -3.93014 3.61076 0
M  V30 8692 O 841.201 -4.927 2.87406 0
M  V30 8693 O 840.135 -3.94491 4.54599 0
M  V30 8694 H 843.961 -1.12289 2.82179 0
M  V30 8695 H 841.546 -0.490793 1.41108 0
M  V30 8696 H 843.428 -3.52238 2.31315 0
M  V30 8697 H 842.103 -2.9889 1.24285 0
M  V30 8698 H 841.01 -1.84168 3.25627 0
M  V30 8699 H 842.343 -2.4402 4.27452 0
M  V30 8700 N 843.995 -1.47404 -0.557645 0
M  V30 8701 C 844.927 -1.55917 -1.67995 0
M  V30 8702 C 845.94 -0.445411 -1.56588 0
M  V30 8703 O 847.129 -0.714999 -1.63554 0
M  V30 8704 C 844.229 -1.44697 -3.06457 0
M  V30 8705 C 843.402 -2.70633 -3.43622 0
M  V30 8706 C 842.461 -2.53256 -4.61246 0
M  V30 8707 O 841.487 -3.27068 -4.65849 0
M  V30 8708 N 842.689 -1.61053 -5.57711 0
M  V30 8709 H 845.454 -2.52694 -1.61139 0
M  V30 8710 H 843.015 -1.43778 -0.744271 0
M  V30 8711 H 845.007 -1.30806 -3.82978 0
M  V30 8712 H 843.577 -0.560039 -3.07542 0
M  V30 8713 H 842.797 -2.99288 -2.56555 0
M  V30 8714 H 844.085 -3.5424 -3.65228 0
M  V30 8715 H 843.483 -1.00235 -5.56749 0
M  V30 8716 H 842.04 -1.53115 -6.33561 0
M  V30 8717 N 845.473 0.80434 -1.35529 0
M  V30 8718 C 846.889 1.10023 -1.15616 0
M  V30 8719 C 847.089 2.01478 0.0298535 0
M  V30 8720 O 846.145 2.42609 0.699778 0
M  V30 8721 C 847.458 1.72905 -2.46017 0
M  V30 8722 C 849.006 1.85315 -2.52245 0
M  V30 8723 C 849.481 2.51612 -3.82695 0
M  V30 8724 N 850.972 2.59095 -3.83958 0
M  V30 8725 C 851.707 3.11167 -4.81625 0
M  V30 8726 N 851.203 3.63659 -5.89681 0
M  V30 8727 N 852.996 3.09741 -4.6906 0
M  V30 8728 H 845.147 0.196428 -2.1149 0
M  V30 8729 H 847.41 0.149735 -0.9361 0
M  V30 8730 H 847.116 1.13171 -3.32994 0
M  V30 8731 H 846.99 2.72579 -2.6073 0
M  V30 8732 H 849.377 2.44191 -1.65695 0
M  V30 8733 H 849.458 0.844886 -2.41444 0
M  V30 8734 H 849.102 1.93385 -4.69643 0
M  V30 8735 H 849.032 3.5298 -3.90785 0
M  V30 8736 H 851.523 2.21908 -3.05884 0
M  V30 8737 H 851.836 4.01699 -6.60195 0
M  V30 8738 H 850.181 3.61852 -5.9337 0
M  V30 8739 H 853.372 2.68011 -3.83781 0
M  V30 8740 H 853.545 3.50016 -5.45338 0
M  V30 8741 N 846.951 1.19563 1.02676 0
M  V30 8742 C 848.199 0.997593 1.75763 0
M  V30 8743 C 848.52 -0.47253 1.89188 0
M  V30 8744 O 847.79 -1.34214 1.42701 0
M  V30 8745 H 846.37 0.366128 0.651122 0
M  V30 8746 H 849.032 1.50495 1.23844 0
M  V30 8747 H 848.128 1.44741 2.76508 0
M  V30 8748 N 848.429 -1.21819 0.999893 0
M  V30 8749 C 849.706 -1.86318 0.595384 0
M  V30 8750 C 850.086 -1.8965 -0.927143 0
M  V30 8751 O 849.434 -1.3921 -1.81199 0
M  V30 8752 C 849.644 -3.26837 1.22387 0
M  V30 8753 C 850.992 -4.03272 1.32878 0
M  V30 8754 O 852.016 -3.36129 1.1788 0
M  V30 8755 O 850.875 -5.23477 1.56952 0
M  V30 8756 H 847.969 -0.801638 0.203238 0
M  V30 8757 H 850.515 -1.29542 1.09622 0
M  V30 8758 H 849.287 -3.19084 2.26497 0
M  V30 8759 H 848.91 -3.91226 0.709069 0
M  V30 8760 N 849.908 -0.773975 -1.37286 0
M  V30 8761 C 851.138 -0.350249 -2.03609 0
M  V30 8762 C 851.546 1.03313 -1.58502 0
M  V30 8763 O 850.889 1.67118 -0.7627 0
M  V30 8764 C 850.951 -0.317215 -3.58098 0
M  V30 8765 C 850.615 -1.64556 -4.26345 0
M  V30 8766 C 851.612 -2.59839 -4.50311 0
M  V30 8767 C 849.297 -1.92061 -4.64131 0
M  V30 8768 C 851.291 -3.80833 -5.11122 0
M  V30 8769 C 848.978 -3.13325 -5.24663 0
M  V30 8770 C 849.976 -4.0753 -5.48095 0
M  V30 8771 O 849.664 -5.26658 -6.0736 0
M  V30 8772 H 849.396 -0.144456 -0.660385 0
M  V30 8773 H 851.95 -1.0496 -1.76557 0
M  V30 8774 H 850.18 0.438528 -3.84205 0
M  V30 8775 H 851.869 0.0797428 -4.05822 0
M  V30 8776 H 852.635 -2.39872 -4.21529 0
M  V30 8777 H 848.514 -1.19562 -4.45226 0
M  V30 8778 H 852.058 -4.54377 -5.29327 0
M  V30 8779 H 847.955 -3.33177 -5.52869 0
M  V30 8780 H 848.723 -5.27513 -6.25837 0
M  V30 8781 N 851.386 1.48609 -0.524698 0
M  V30 8782 C 852.336 2.26505 0.260696 0
M  V30 8783 C 853.32 1.32378 0.914597 0
M  V30 8784 O 854.512 1.5695 0.818277 0
M  V30 8785 C 851.641 3.17313 1.31024 0
M  V30 8786 C 850.727 4.18911 0.661391 0
M  V30 8787 N 851.118 5.05183 -0.24981 0
M  V30 8788 C 849.416 4.36425 0.91922 0
M  V30 8789 C 850.117 5.78348 -0.623598 0
M  V30 8790 N 849.093 5.43598 0.0140839 0
M  V30 8791 H 852.895 2.90582 -0.440388 0
M  V30 8792 H 850.409 1.5875 -0.342364 0
M  V30 8793 H 852.406 3.71772 1.88656 0
M  V30 8794 H 851.066 2.54791 2.01275 0
M  V30 8795 H 852.077 5.1415 -0.622093 0
M  V30 8796 H 848.754 3.85095 1.6127 0
M  V30 8797 H 850.144 6.57775 -1.37046 0
M  V30 8798 N 852.864 0.259585 1.55447 0
M  V30 8799 C 854.28 -0.094961 1.59317 0
M  V30 8800 C 854.48 -1.55884 1.2768 0
M  V30 8801 O 853.536 -2.30528 1.0302 0
M  V30 8802 C 854.849 0.265669 2.99524 0
M  V30 8803 C 856.397 0.211007 3.12288 0
M  V30 8804 C 856.872 0.545851 4.54736 0
M  V30 8805 N 858.363 0.496823 4.60528 0
M  V30 8806 C 859.098 0.728909 5.68748 0
M  V30 8807 N 858.594 1.02479 6.85179 0
M  V30 8808 N 860.387 0.658756 5.58226 0
M  V30 8809 H 852.538 1.2141 1.7428 0
M  V30 8810 H 854.801 0.489404 0.811904 0
M  V30 8811 H 854.507 1.28316 3.27457 0
M  V30 8812 H 854.381 -0.401089 3.75061 0
M  V30 8813 H 856.768 -0.797172 2.84129 0
M  V30 8814 H 856.849 0.911799 2.38998 0
M  V30 8815 H 856.493 1.55164 4.83618 0
M  V30 8816 H 856.423 -0.17656 5.26304 0
M  V30 8817 H 858.914 0.277376 3.76881 0
M  V30 8818 H 859.227 1.18897 7.63599 0
M  V30 8819 H 857.572 1.0624 6.86832 0
M  V30 8820 H 860.763 0.427553 4.66143 0
M  V30 8821 H 860.936 0.84302 6.42493 0
M  V30 8822 N 854.342 -1.57594 -0.0133615 0
M  V30 8823 C 855.589 -1.8998 -0.70098 0
M  V30 8824 C 855.917 -0.858802 -1.74513 0
M  V30 8825 O 855.172 0.138209 -1.95211 0
M  V30 8826 C 855.471 -3.29121 -1.39336 0
M  V30 8827 C 855.137 -4.48298 -0.483687 0
M  V30 8828 C 853.799 -4.80635 -0.233186 0
M  V30 8829 C 856.151 -5.21003 0.143426 0
M  V30 8830 C 853.479 -5.83055 0.652943 0
M  V30 8831 C 855.831 -6.24366 1.01735 0
M  V30 8832 C 854.495 -6.55168 1.27716 0
M  V30 8833 H 853.765 -0.695187 -0.256507 0
M  V30 8834 H 856.412 -1.9146 0.0392965 0
M  V30 8835 H 854.717 -3.23703 -2.20735 0
M  V30 8836 H 856.414 -3.51433 -1.93121 0
M  V30 8837 H 853.004 -4.23024 -0.689092 0
M  V30 8838 H 857.188 -4.96286 -0.0371139 0
M  V30 8839 H 852.444 -6.05288 0.862379 0
M  V30 8840 H 856.618 -6.79839 1.5097 0
M  V30 8841 H 854.245 -7.34351 1.9655 0
M  V30 8842 N 855.82 0.285905 -1.54985 0
M  V30 8843 C 856.75 1.35752 -1.89983 0
M  V30 8844 C 857.731 1.52163 -0.760295 0
M  V30 8845 O 858.916 1.65421 -1.01733 0
M  V30 8846 C 856.046 2.71925 -2.16042 0
M  V30 8847 C 855 2.70261 -3.31878 0
M  V30 8848 C 854.326 4.09864 -3.43388 0
M  V30 8849 C 855.626 2.30667 -4.68604 0
M  V30 8850 H 857.32 1.06709 -2.79738 0
M  V30 8851 H 854.866 0.511884 -1.34595 0
M  V30 8852 H 856.819 3.46992 -2.39113 0
M  V30 8853 H 855.543 3.02523 -1.23074 0
M  V30 8854 H 854.202 1.97651 -3.08755 0
M  V30 8855 H 853.85 4.37664 -2.47909 0
M  V30 8856 H 853.55 4.09648 -4.21262 0
M  V30 8857 H 855.074 4.86689 -3.68736 0
M  V30 8858 H 856.488 2.95453 -4.91305 0
M  V30 8859 H 854.885 2.41637 -5.49301 0
M  V30 8860 H 855.955 1.25793 -4.68299 0
M  V30 8861 N 857.298 1.47698 0.54982 0
M  V30 8862 C 858.575 1.45185 1.31075 0
M  V30 8863 C 858.955 0.152768 2.10547 0
M  V30 8864 O 858.303 -0.865706 2.11466 0
M  V30 8865 C 858.513 2.70192 2.20902 0
M  V30 8866 C 859.861 3.1771 2.81683 0
M  V30 8867 O 860.885 2.70971 2.312 0
M  V30 8868 O 859.744 3.98986 3.7346 0
M  V30 8869 H 856.838 0.57892 0.590577 0
M  V30 8870 H 859.384 1.59908 0.568112 0
M  V30 8871 H 858.156 3.56269 1.61828 0
M  V30 8872 H 857.779 2.58091 3.02448 0
M  V30 8873 N 858.776 -0.797141 1.35954 0
M  V30 8874 C 859.708 -1.91782 1.25509 0
M  V30 8875 C 860.721 -1.61843 0.176271 0
M  V30 8876 O 861.91 -1.73235 0.430343 0
M  V30 8877 C 859.01 -3.26396 0.912073 0
M  V30 8878 C 858.183 -3.84171 2.0912 0
M  V30 8879 C 857.242 -4.9721 1.72246 0
M  V30 8880 O 856.268 -5.14136 2.44239 0
M  V30 8881 N 857.47 -5.76831 0.651611 0
M  V30 8882 H 860.235 -2.01266 2.22063 0
M  V30 8883 H 857.796 -0.975033 1.29247 0
M  V30 8884 H 859.788 -3.99499 0.646707 0
M  V30 8885 H 858.358 -3.12579 0.0359079 0
M  V30 8886 H 857.578 -3.03148 2.51982 0
M  V30 8887 H 858.866 -4.19503 2.87914 0
M  V30 8888 H 858.264 -5.65675 0.0536678 0
M  V30 8889 H 856.821 -6.50272 0.44605 0
M  V30 8890 N 860.254 -1.20106 -1.0204 0
M  V30 8891 C 861.164 -0.962051 -2.13967 0
M  V30 8892 C 862.18 0.0808053 -1.73812 0
M  V30 8893 O 863.356 -0.105774 -2.01122 0
M  V30 8894 C 860.421 -0.513108 -3.42882 0
M  V30 8895 C 859.482 -1.62636 -3.97301 0
M  V30 8896 C 858.715 -1.19875 -5.20063 0
M  V30 8897 O 858.938 -0.0658423 -5.70362 0
M  V30 8898 O 857.872 -2.00467 -5.67536 0
M  V30 8899 H 861.698 -1.8991 -2.36998 0
M  V30 8900 H 859.283 -0.984608 -1.12365 0
M  V30 8901 H 861.165 -0.271797 -4.20523 0
M  V30 8902 H 859.84 0.395402 -3.21276 0
M  V30 8903 H 858.747 -1.92192 -3.20957 0
M  V30 8904 H 860.08 -2.51174 -4.23288 0
M  V30 8905 N 861.732 1.21287 -1.00634 0
M  V30 8906 C 862.978 1.90671 -0.690822 0
M  V30 8907 C 863.311 1.77996 0.776592 0
M  V30 8908 O 862.586 1.15748 1.5631 0
M  V30 8909 C 862.869 3.42426 -1.11428 0
M  V30 8910 C 862.722 3.64086 -2.64124 0
M  V30 8911 C 864.041 4.34851 -0.677686 0
M  V30 8912 H 861.16 0.692419 -0.252439 0
M  V30 8913 H 863.802 1.42893 -1.25226 0
M  V30 8914 H 861.952 3.83249 -0.636586 0
M  V30 8915 H 863.624 3.32582 -3.19667 0
M  V30 8916 H 861.867 3.07906 -3.05576 0
M  V30 8917 H 862.538 4.7042 -2.88806 0
M  V30 8918 H 865.014 4.01619 -1.0882 0
M  V30 8919 H 863.89 5.39675 -1.00213 0
M  V30 8920 H 864.151 4.4009 0.421125 0
M  V30 8921 N 863.21 0.781244 1.36873 0
M  V30 8922 C 864.457 0.349889 1.99454 0
M  V30 8923 C 864.785 -1.07621 1.62013 0
M  V30 8924 O 864.04 -1.75665 0.86258 0
M  V30 8925 C 864.339 0.45146 3.54537 0
M  V30 8926 C 864.005 1.83718 4.11775 0
M  V30 8927 C 862.667 2.21634 4.2712 0
M  V30 8928 C 865.019 2.7449 4.43063 0
M  V30 8929 C 862.347 3.49742 4.7106 0
M  V30 8930 C 864.699 4.02017 4.88431 0
M  V30 8931 C 863.363 4.39967 5.01982 0
M  V30 8932 H 862.633 0.128033 0.729855 0
M  V30 8933 H 865.28 0.997117 1.63493 0
M  V30 8934 H 863.585 -0.279288 3.90803 0
M  V30 8935 H 865.282 0.0988609 4.00878 0
M  V30 8936 H 861.872 1.53251 4.00265 0
M  V30 8937 H 866.056 2.46453 4.30783 0
M  V30 8938 H 861.312 3.79026 4.79738 0
M  V30 8939 H 865.486 4.72475 5.11605 0
M  V30 8940 H 863.113 5.39291 5.35788 0
M  V30 8941 N 864.689 -1.48329 0.532571 0
M  V30 8942 C 865.935 -2.028 -0.000583219 0
M  V30 8943 C 866.268 -1.40858 -1.33688 0
M  V30 8944 O 865.543 -0.555261 -1.86406 0
M  V30 8945 C 865.826 -3.59901 -0.119846 0
M  V30 8946 C 865.679 -4.32318 1.2418 0
M  V30 8947 C 866.998 -4.31904 -0.845372 0
M  V30 8948 H 864.117 -0.736999 0.00126205 0
M  V30 8949 H 866.759 -1.77024 0.690102 0
M  V30 8950 H 864.909 -3.81993 -0.708092 0
M  V30 8951 H 866.581 -4.21637 1.87136 0
M  V30 8952 H 864.824 -3.93635 1.82301 0
M  V30 8953 H 865.495 -5.40697 1.11132 0
M  V30 8954 H 867.971 -4.14658 -0.346159 0
M  V30 8955 H 866.847 -5.41509 -0.897723 0
M  V30 8956 H 867.108 -3.99369 -1.89622 0
M  V30 8957 N 866.167 -0.267825 -1.55308 0
M  V30 8958 C 867.578 0.231344 -1.85261 0
M  V30 8959 C 867.929 1.56006 -1.18982 0
M  V30 8960 O 867.054 2.1111 -0.475554 0
M  V30 8961 C 867.649 0.426537 -3.36104 0
M  V30 8962 C 866.208 0.869945 -3.66209 0
M  V30 8963 C 865.355 -0.0409522 -2.7727 0
M  V30 8964 H 868.306 -0.489821 -1.50952 0
M  V30 8965 H 868.327 1.26616 -3.58816 0
M  V30 8966 H 867.839 -0.540678 -3.84315 0
M  V30 8967 H 865.94 1.84889 -3.23492 0
M  V30 8968 H 866.053 0.712316 -4.73775 0
M  V30 8969 H 864.417 0.474097 -2.50249 0
M  V30 8970 H 865.2 -1.00392 -3.28293 0
M  V30 8971 N 867.645 1.57599 0.00500368 0
M  V30 8972 C 868.608 2.07058 0.982832 0
M  V30 8973 C 869.608 0.979045 1.27559 0
M  V30 8974 O 870.798 1.24187 1.22161 0
M  V30 8975 C 867.93 2.50782 2.30914 0
M  V30 8976 H 869.123 2.94718 0.555119 0
M  V30 8977 H 866.676 1.54249 0.25237 0
M  V30 8978 H 867.411 1.66351 2.78385 0
M  V30 8979 H 867.196 3.30495 2.10987 0
M  V30 8980 H 868.686 2.89391 3.0107 0
M  V30 8981 N 869.123 -0.277682 1.55134 0
M  V30 8982 C 870.371 -1.00791 1.75173 0
M  V30 8983 C 870.692 -1.86987 0.553266 0
M  V30 8984 O 869.962 -1.91079 -0.43195 0
M  V30 8985 H 868.542 -0.375129 0.645978 0
M  V30 8986 H 871.204 -0.303041 1.9253 0
M  V30 8987 H 870.3 -1.64756 2.6507 0
M  V30 8988 N 870.601 -1.47988 -0.541979 0
M  V30 8989 C 871.847 -1.56604 -1.29795 0
M  V30 8990 C 872.202 -0.231728 -1.90999 0
M  V30 8991 O 871.495 0.764203 -1.757 0
M  V30 8992 C 871.689 -2.63189 -2.41798 0
M  V30 8993 C 871.518 -4.06855 -1.9157 0
M  V30 8994 C 870.288 -4.74132 -1.74719 0
M  V30 8995 C 872.486 -4.934 -1.45123 0
M  V30 8996 N 870.468 -6.02258 -1.18991 0
M  V30 8997 C 871.839 -6.11675 -1.01263 0
M  V30 8998 C 873.894 -4.7972 -1.33315 0
M  V30 8999 C 872.597 -7.17778 -0.467663 0
M  V30 9000 C 874.623 -5.85934 -0.802192 0
M  V30 9001 C 873.985 -7.03409 -0.373595 0
M  V30 9002 H 870.084 -0.627677 -0.466418 0
M  V30 9003 H 872.668 -1.84812 -0.612576 0
M  V30 9004 H 870.839 -2.36823 -3.07846 0
M  V30 9005 H 872.571 -2.6156 -3.08818 0
M  V30 9006 H 869.326 -4.30276 -1.97887 0
M  V30 9007 H 869.75 -6.70558 -0.931715 0
M  V30 9008 H 874.392 -3.89249 -1.6506 0
M  V30 9009 H 872.11 -8.07982 -0.137874 0
M  V30 9010 H 875.696 -5.774 -0.714171 0
M  V30 9011 H 874.576 -7.84194 0.0308796 0
M  V30 9012 N 872.079 0.78992 -1.36375 0
M  V30 9013 C 873.307 1.57873 -1.3373 0
M  V30 9014 C 873.722 1.88624 0.0815544 0
M  V30 9015 O 873.079 1.50085 1.03831 0
M  V30 9016 C 873.13 2.90003 -2.15825 0
M  V30 9017 O 872.851 2.60578 -3.5218 0
M  V30 9018 C 874.352 3.84309 -2.20955 0
M  V30 9019 H 871.572 0.489685 -0.458748 0
M  V30 9020 H 874.116 0.980436 -1.79465 0
M  V30 9021 H 872.271 3.46303 -1.73646 0
M  V30 9022 H 872.685 3.4506 -3.95011 0
M  V30 9023 H 874.159 4.74081 -2.82756 0
M  V30 9024 H 874.636 4.22121 -1.21287 0
M  V30 9025 H 875.242 3.33942 -2.63368 0
M  V30 9026 N 873.557 1.20646 1.01402 0
M  V30 9027 C 874.805 1.01618 1.74695 0
M  V30 9028 C 875.126 -0.452438 1.89679 0
M  V30 9029 O 874.396 -1.32693 1.44116 0
M  V30 9030 H 872.976 0.373013 0.647202 0
M  V30 9031 H 875.638 1.518 1.22241 0
M  V30 9032 H 874.734 1.47666 2.74957 0
M  V30 9033 N 875.035 -1.20752 1.01276 0
M  V30 9034 C 875.982 -2.234 0.579732 0
M  V30 9035 C 876.952 -1.61256 -0.398206 0
M  V30 9036 O 878.137 -1.8845 -0.29851 0
M  V30 9037 C 875.277 -3.45008 -0.0797006 0
M  V30 9038 C 874.39 -4.21597 0.942343 0
M  V30 9039 C 873.525 -5.30591 0.254364 0
M  V30 9040 C 872.564 -5.98919 1.26343 0
M  V30 9041 N 871.701 -6.99511 0.602384 0
M  V30 9042 H 876.541 -2.59801 1.45971 0
M  V30 9043 H 874.078 -1.27663 0.730787 0
M  V30 9044 H 876.036 -4.1444 -0.479125 0
M  V30 9045 H 874.666 -3.09312 -0.923354 0
M  V30 9046 H 873.718 -3.51268 1.45996 0
M  V30 9047 H 875.03 -4.68576 1.70992 0
M  V30 9048 H 874.184 -6.06368 -0.200763 0
M  V30 9049 H 872.923 -4.84639 -0.545553 0
M  V30 9050 H 871.928 -5.21906 1.72898 0
M  V30 9051 H 873.153 -6.46957 2.06456 0
M  V30 9052 H 871.099 -6.55759 -0.177734 0
M  V30 9053 H 871.016 -7.44597 1.30809 0
M  V30 9054 H 872.284 -7.79313 0.17072 0
M  V30 9055 N 876.513 -0.788492 -1.36457 0
M  V30 9056 C 877.446 -0.132189 -2.27817 0
M  V30 9057 C 878.424 0.691166 -1.47179 0
M  V30 9058 O 879.608 0.662344 -1.7648 0
M  V30 9059 C 876.735 0.818386 -3.28664 0
M  V30 9060 C 875.781 0.0769392 -4.26431 0
M  V30 9061 S 876.614 -1.24666 -5.20786 0
M  V30 9062 C 877.77 -0.300063 -6.2518 0
M  V30 9063 H 878.003 -0.906824 -2.83132 0
M  V30 9064 H 875.536 -0.582666 -1.42984 0
M  V30 9065 H 877.494 1.36138 -3.87268 0
M  V30 9066 H 876.155 1.56626 -2.72263 0
M  V30 9067 H 875.348 0.79819 -4.97639 0
M  V30 9068 H 874.95 -0.395547 -3.71902 0
M  V30 9069 H 877.242 0.521434 -6.7549 0
M  V30 9070 H 878.185 -0.980808 -7.01274 0
M  V30 9071 H 878.593 0.0961898 -5.64418 0
M  V30 9072 N 877.991 1.48044 -0.54043 0
M  V30 9073 C 879.402 1.86418 -0.102662 0
M  V30 9074 C 879.753 1.4489 1.32293 0
M  V30 9075 O 878.878 0.844319 1.99249 0
M  V30 9076 C 879.473 3.38324 -0.179533 0
M  V30 9077 C 878.032 3.75852 0.203098 0
M  V30 9078 C 877.179 2.72097 -0.534637 0
M  V30 9079 H 880.13 1.398 -0.751103 0
M  V30 9080 H 880.151 3.75641 0.606147 0
M  V30 9081 H 879.663 3.68518 -1.21721 0
M  V30 9082 H 877.764 3.51272 1.24252 0
M  V30 9083 H 877.877 4.78884 -0.143784 0
M  V30 9084 H 876.241 2.54692 0.0203358 0
M  V30 9085 H 877.024 3.05135 -1.57314 0
M  V30 9086 N 879.47 0.276058 1.55163 0
M  V30 9087 C 880.418 -0.626978 2.2399 0
M  V30 9088 C 881.412 -1.15708 1.23725 0
M  V30 9089 O 882.618 -1.1106 1.41653 0
M  V30 9090 H 878.993 -0.220742 0.718872 0
M  V30 9091 H 880.964 -0.0236569 2.98391 0
M  V30 9092 C 879.713 -1.79935 2.97521 0
M  V30 9093 H 879.036 -1.40064 3.74463 0
M  V30 9094 H 880.476 -2.40781 3.48999 0
M  V30 9095 C 878.935 -2.68838 2.03046 0
M  V30 9096 O 879.465 -3.69224 1.58229 0
M  V30 9097 N 877.671 -2.36028 1.69527 0
M  V30 9098 H 877.218 -1.54442 2.06169 0
M  V30 9099 H 877.176 -2.95782 1.06586 0
M  V30 9100 N 880.948 -1.576 0.00335426 0
M  V30 9101 C 882.196 -1.90336 -0.679446 0
M  V30 9102 C 882.517 -0.877777 -1.74127 0
M  V30 9103 O 881.787 0.0843585 -1.95718 0
M  V30 9104 H 880.367 -0.702509 -0.253948 0
M  V30 9105 H 883.029 -1.94848 0.0450731 0
M  V30 9106 H 882.125 -2.90197 -1.14857 0
M  V30 9107 N 882.426 0.269451 -1.5528 0
M  V30 9108 C 883.703 1.02207 -1.66773 0
M  V30 9109 C 884.083 2.04168 -0.536536 0
M  V30 9110 O 883.431 2.23761 0.462956 0
M  V30 9111 C 883.641 1.67569 -3.0614 0
M  V30 9112 C 884.989 2.18599 -3.64005 0
M  V30 9113 O 886.013 1.7755 -3.08795 0
M  V30 9114 O 884.872 2.93903 -4.60742 0
M  V30 9115 H 881.966 0.474314 -0.677462 0
M  V30 9116 H 884.512 0.265026 -1.67618 0
M  V30 9117 H 883.284 0.937029 -3.79915 0
M  V30 9118 H 882.907 2.49951 -3.09209 0
M  V30 9119 N 883.904 1.48273 0.534124 0
M  V30 9120 C 885.15 1.56311 1.29208 0
M  V30 9121 C 885.483 0.234481 1.92779 0
M  V30 9122 O 884.758 -0.759143 1.79073 0
M  V30 9123 C 885.041 2.69831 2.3846 0
M  V30 9124 C 884.894 4.12385 1.79608 0
M  V30 9125 C 886.213 2.79133 3.40254 0
M  V30 9126 H 883.332 0.56899 0.468422 0
M  V30 9127 H 885.974 1.80429 0.595438 0
M  V30 9128 H 884.124 2.49397 2.97881 0
M  V30 9129 H 885.796 4.44246 1.24269 0
M  V30 9130 H 884.039 4.19579 1.10162 0
M  V30 9131 H 884.71 4.87629 2.58693 0
M  V30 9132 H 887.186 2.97632 2.90783 0
M  V30 9133 H 886.062 3.60298 4.14097 0
M  V30 9134 H 886.323 1.87122 4.00547 0
M  V30 9135 N 885.382 -0.782676 1.36792 0
M  V30 9136 C 886.631 -1.53605 1.30723 0
M  V30 9137 C 886.944 -1.95294 -0.109296 0
M  V30 9138 O 888.15 -2.69921 -0.292398 0
M  V30 9139 C 886.606 -2.77321 2.29393 0
M  V30 9140 C 886.214 -2.42774 3.76517 0
M  V30 9141 C 887.958 -3.55289 2.32314 0
M  V30 9142 C 885.865 -3.62926 4.66947 0
M  V30 9143 H 884.795 -0.576646 0.485794 0
M  V30 9144 H 887.446 -0.858255 1.62192 0
M  V30 9145 H 885.828 -3.46934 1.90927 0
M  V30 9146 H 887.002 -1.81014 4.23758 0
M  V30 9147 H 885.317 -1.78002 3.76436 0
M  V30 9148 H 887.914 -4.44573 2.97083 0
M  V30 9149 H 888.257 -3.94361 1.3336 0
M  V30 9150 H 888.79 -2.92662 2.69432 0
M  V30 9151 H 885.529 -3.28944 5.66989 0
M  V30 9152 H 885.049 -4.23828 4.24418 0
M  V30 9153 H 886.728 -4.29873 4.83548 0
M  V30 9154 N 886.86 -1.21182 -1.00761 0
M  V30 9155 C 887.807 -0.968741 -2.09485 0
M  V30 9156 C 888.777 0.104325 -1.65772 0
M  V30 9157 O 889.962 -0.0422587 -1.90753 0
M  V30 9158 C 887.102 -0.536686 -3.40901 0
M  V30 9159 C 886.215 -1.6789 -3.98041 0
M  V30 9160 C 885.35 -1.19627 -5.17555 0
M  V30 9161 C 884.389 -2.31099 -5.66798 0
M  V30 9162 N 883.526 -1.83988 -6.77564 0
M  V30 9163 H 888.366 -1.89952 -2.29613 0
M  V30 9164 H 885.903 -0.946688 -1.12589 0
M  V30 9165 H 887.861 -0.26745 -4.16342 0
M  V30 9166 H 886.491 0.357092 -3.20819 0
M  V30 9167 H 885.543 -2.06284 -3.19611 0
M  V30 9168 H 886.855 -2.51794 -4.30582 0
M  V30 9169 H 886.009 -0.883539 -6.00232 0
M  V30 9170 H 884.748 -0.327244 -4.86601 0
M  V30 9171 H 883.753 -2.63178 -4.82719 0
M  V30 9172 H 884.978 -3.18493 -5.99782 0
M  V30 9173 H 882.924 -0.994257 -6.48422 0
M  V30 9174 H 882.841 -2.61466 -7.09346 0
M  V30 9175 H 884.109 -1.55741 -7.63783 0
M  V30 9176 N 888.338 1.20213 -1.01915 0
M  V30 9177 C 889.563 1.94163 -0.729076 0
M  V30 9178 C 889.988 1.74416 0.704323 0
M  V30 9179 O 889.346 1.0401 1.48498 0
M  V30 9180 C 889.394 3.44258 -1.07324 0
M  V30 9181 O 888.498 4.11979 -0.186367 0
M  V30 9182 H 887.839 0.606506 -0.270272 0
M  V30 9183 H 890.369 1.52571 -1.3632 0
M  V30 9184 H 890.379 3.94888 -1.02603 0
M  V30 9185 H 889.054 3.57954 -2.11759 0
M  V30 9186 H 887.631 3.7176 -0.291334 0
M  V30 9187 N 889.816 0.795718 1.36037 0
M  V30 9188 C 891.064 0.370291 1.98679 0
M  V30 9189 C 891.385 -1.06332 1.63458 0
M  V30 9190 O 890.655 -1.73394 0.911671 0
M  V30 9191 H 889.235 0.133928 0.734896 0
M  V30 9192 H 891.897 1.01915 1.6613 0
M  V30 9193 H 890.993 0.467207 3.08583 0
M  V30 9194 N 891.294 -1.47756 0.548274 0
M  V30 9195 C 892.54 -2.02789 0.0209265 0
M  V30 9196 C 892.873 -1.42268 -1.32187 0
M  V30 9197 O 892.148 -0.575001 -1.85806 0
M  V30 9198 C 892.431 -3.60007 -0.0816674 0
M  V30 9199 C 892.284 -4.30977 1.28759 0
M  V30 9200 C 893.603 -4.32777 -0.799515 0
M  V30 9201 H 890.722 -0.736944 0.00907884 0
M  V30 9202 H 893.364 -1.76282 0.708839 0
M  V30 9203 H 891.514 -3.82722 -0.667537 0
M  V30 9204 H 893.186 -4.19629 1.91597 0
M  V30 9205 H 891.429 -3.9168 1.86466 0
M  V30 9206 H 892.1 -5.39488 1.16861 0
M  V30 9207 H 894.576 -4.15001 -0.30216 0
M  V30 9208 H 893.452 -5.42431 -0.840239 0
M  V30 9209 H 893.713 -4.01358 -1.85375 0
M  V30 9210 N 892.772 -0.284283 -1.55015 0
M  V30 9211 C 893.719 0.599194 -2.22886 0
M  V30 9212 C 894.689 1.14264 -1.20553 0
M  V30 9213 O 895.874 1.19025 -1.49123 0
M  V30 9214 C 893.014 1.77317 -2.96062 0
M  V30 9215 C 892.127 1.26271 -4.13134 0
M  V30 9216 C 891.262 2.39922 -4.73931 0
M  V30 9217 C 890.301 1.85925 -5.8318 0
M  V30 9218 N 889.438 2.93084 -6.38002 0
M  V30 9219 H 894.278 0.0137816 -2.97997 0
M  V30 9220 H 891.815 -0.00496503 -1.47099 0
M  V30 9221 H 893.773 2.46339 -3.36709 0
M  V30 9222 H 892.403 2.33047 -2.23358 0
M  V30 9223 H 891.455 0.465296 -3.77544 0
M  V30 9224 H 892.767 0.827284 -4.91892 0
M  V30 9225 H 891.921 3.1692 -5.17346 0
M  V30 9226 H 890.66 2.86784 -3.9447 0
M  V30 9227 H 889.665 1.07409 -5.39206 0
M  V30 9228 H 890.89 1.39987 -6.64515 0
M  V30 9229 H 888.836 3.3931 -5.61431 0
M  V30 9230 H 888.753 2.53986 -7.12058 0
M  V30 9231 H 890.021 3.7003 -6.86075 0
M  V30 9232 N 894.251 1.57596 -0.0117121 0
M  V30 9233 C 895.498 1.91071 0.670667 0
M  V30 9234 C 895.826 0.886457 1.73125 0
M  V30 9235 O 895.081 -0.107135 1.95407 0
M  V30 9236 C 895.38 3.31296 1.34082 0
M  V30 9237 C 895.046 4.49011 0.412305 0
M  V30 9238 C 893.708 4.80945 0.156691 0
M  V30 9239 C 896.06 5.20709 -0.226294 0
M  V30 9240 C 893.388 5.81943 -0.745619 0
M  V30 9241 C 895.74 6.22668 -1.11655 0
M  V30 9242 C 894.404 6.53053 -1.38123 0
M  V30 9243 H 893.674 0.69918 0.245415 0
M  V30 9244 H 896.321 1.91373 -0.0697511 0
M  V30 9245 H 894.626 3.27174 2.15557 0
M  V30 9246 H 896.323 3.54461 1.87506 0
M  V30 9247 H 892.913 4.24067 0.621705 0
M  V30 9248 H 897.097 4.96282 -0.0418456 0
M  V30 9249 H 892.353 6.03839 -0.958566 0
M  V30 9250 H 896.527 6.77351 -1.61767 0
M  V30 9251 H 894.154 7.31132 -2.08208 0
M  V30 9252 N 895.729 -0.261212 1.5542 0
M  V30 9253 C 896.978 -0.989072 1.75785 0
M  V30 9254 C 897.291 -1.8702 0.572961 0
M  V30 9255 O 898.497 -2.63374 0.659289 0
M  V30 9256 C 896.953 -1.80857 3.11157 0
M  V30 9257 C 896.561 -0.975535 4.3725 0
M  V30 9258 C 898.305 -2.53003 3.40866 0
M  V30 9259 C 896.212 -1.7901 5.63657 0
M  V30 9260 H 895.142 -0.373019 0.655266 0
M  V30 9261 H 897.793 -0.244267 1.81867 0
M  V30 9262 H 896.175 -2.59479 2.99144 0
M  V30 9263 H 897.349 -0.232661 4.60212 0
M  V30 9264 H 895.664 -0.368083 4.1477 0
M  V30 9265 H 898.261 -3.14372 4.32521 0
M  V30 9266 H 898.604 -3.23891 2.61535 0
M  V30 9267 H 899.137 -1.81403 3.54031 0
M  V30 9268 H 895.876 -1.12522 6.4577 0
M  V30 9269 H 895.396 -2.50863 5.44819 0
M  V30 9270 H 897.075 -2.36082 6.0239 0
M  V30 9271 N 897.207 -1.48554 -0.526253 0
M  V30 9272 C 898.484 -1.47252 -1.28748 0
M  V30 9273 C 898.864 -0.186245 -2.10277 0
M  V30 9274 O 898.212 0.831954 -2.12816 0
M  V30 9275 C 898.422 -2.73672 -2.16575 0
M  V30 9276 C 899.77 -3.22151 -2.76593 0
M  V30 9277 O 900.794 -2.74614 -2.2686 0
M  V30 9278 O 899.653 -4.04877 -3.67066 0
M  V30 9279 H 896.747 -0.588242 -0.581292 0
M  V30 9280 H 899.293 -1.60792 -0.5426 0
M  V30 9281 H 898.065 -3.58798 -1.56139 0
M  V30 9282 H 897.688 -2.6287 -2.98304 0
M  V30 9283 N 898.685 0.775411 -1.37205 0
M  V30 9284 C 899.934 1.52909 -1.31536 0
M  V30 9285 C 900.247 1.9535 0.0989374 0
M  V30 9286 O 901.453 2.70072 0.278079 0
M  V30 9287 C 899.909 2.761 -2.30861 0
M  V30 9288 C 899.517 2.40773 -3.77799 0
M  V30 9289 C 901.261 3.54052 -2.34195 0
M  V30 9290 C 899.168 3.60444 -4.68865 0
M  V30 9291 H 898.098 0.574061 -0.488845 0
M  V30 9292 H 900.749 0.849642 -1.62645 0
M  V30 9293 H 899.131 3.45916 -1.92764 0
M  V30 9294 H 900.305 1.78764 -4.24712 0
M  V30 9295 H 898.62 1.76004 -3.77375 0
M  V30 9296 H 901.217 4.42992 -2.99437 0
M  V30 9297 H 901.56 3.93649 -1.35449 0
M  V30 9298 H 902.093 2.91229 -2.7098 0
M  V30 9299 H 898.832 3.25932 -5.68725 0
M  V30 9300 H 898.352 4.21571 -4.26659 0
M  V30 9301 H 900.031 4.27302 -4.85821 0
M  V30 9302 N 900.163 1.21714 1.00117 0
M  V30 9303 C 901.579 0.97532 1.26332 0
M  V30 9304 C 901.779 -0.336029 1.98678 0
M  V30 9305 O 900.835 -1.06073 2.29139 0
M  V30 9306 C 902.148 2.16848 2.0832 0
M  V30 9307 C 903.696 2.21115 2.21533 0
M  V30 9308 C 904.171 3.3996 3.06906 0
M  V30 9309 N 905.662 3.40071 3.14494 0
M  V30 9310 C 906.397 4.28678 3.80818 0
M  V30 9311 N 905.893 5.2749 4.49139 0
M  V30 9312 N 907.686 4.16476 3.77497 0
M  V30 9313 H 899.837 2.06039 0.515897 0
M  V30 9314 H 902.1 0.902423 0.290408 0
M  V30 9315 H 901.806 3.119 1.62515 0
M  V30 9316 H 901.68 2.16226 3.09073 0
M  V30 9317 H 904.067 1.26616 2.66557 0
M  V30 9318 H 904.148 2.2578 1.20238 0
M  V30 9319 H 903.792 4.34755 2.62585 0
M  V30 9320 H 903.722 3.32534 4.08324 0
M  V30 9321 H 906.213 2.68563 2.65861 0
M  V30 9322 H 906.526 5.91397 4.97463 0
M  V30 9323 H 904.871 5.31412 4.47914 0
M  V30 9324 H 908.062 3.38539 3.23278 0
M  V30 9325 H 908.235 4.85739 4.28908 0
M  V30 9326 N 901.641 -1.19671 1.02551 0
M  V30 9327 C 902.866 -1.93774 0.739363 0
M  V30 9328 C 903.291 -1.74787 -0.695064 0
M  V30 9329 O 902.649 -1.04796 -1.47944 0
M  V30 9330 C 902.697 -3.43684 1.09149 0
M  V30 9331 O 901.801 -4.11874 0.208213 0
M  V30 9332 H 901.142 -0.605064 0.273484 0
M  V30 9333 H 903.672 -1.51846 1.37128 0
M  V30 9334 H 903.682 -3.94339 1.04695 0
M  V30 9335 H 902.357 -3.56826 2.13654 0
M  V30 9336 H 900.934 -3.716 0.311045 0
M  V30 9337 N 903.119 -0.802921 -1.35613 0
M  V30 9338 C 904.066 -0.20874 -2.29854 0
M  V30 9339 C 905.036 0.655128 -1.52634 0
M  V30 9340 O 906.221 0.600979 -1.81088 0
M  V30 9341 C 903.361 0.639663 -3.3912 0
M  V30 9342 C 902.474 -0.244234 -4.31309 0
M  V30 9343 C 901.609 0.611825 -5.27665 0
M  V30 9344 C 900.648 -0.272698 -6.11492 0
M  V30 9345 N 899.785 0.543122 -6.99996 0
M  V30 9346 H 904.625 -1.01782 -2.80079 0
M  V30 9347 H 902.162 -0.513465 -1.37848 0
M  V30 9348 H 904.12 1.14668 -4.01132 0
M  V30 9349 H 902.75 1.41404 -2.9018 0
M  V30 9350 H 901.802 -0.869322 -3.70334 0
M  V30 9351 H 903.114 -0.925202 -4.90144 0
M  V30 9352 H 902.268 1.18412 -5.95032 0
M  V30 9353 H 901.007 1.32637 -4.69317 0
M  V30 9354 H 900.012 -0.857287 -5.43075 0
M  V30 9355 H 901.237 -0.985051 -6.71918 0
M  V30 9356 H 899.183 1.24171 -6.44141 0
M  V30 9357 H 899.1 -0.0798767 -7.55958 0
M  V30 9358 H 900.368 1.09881 -7.71717 0
M  V30 9359 N 904.597 1.47463 -0.556102 0
M  V30 9360 C 905.827 2.06568 -0.0364056 0
M  V30 9361 C 906.235 1.40939 1.26225 0
M  V30 9362 O 905.578 0.499572 1.76777 0
M  V30 9363 C 905.64 3.58755 0.231278 0
M  V30 9364 C 905.304 4.46417 -0.977776 0
M  V30 9365 C 906.301 4.846 -1.88305 0
M  V30 9366 C 903.986 4.87948 -1.19214 0
M  V30 9367 C 905.98 5.63111 -2.98639 0
M  V30 9368 C 903.667 5.66224 -2.29857 0
M  V30 9369 C 904.665 6.03716 -3.194 0
M  V30 9370 O 904.353 6.80415 -4.28125 0
M  V30 9371 H 904.085 0.674675 -0.042305 0
M  V30 9372 H 906.639 1.9047 -0.768775 0
M  V30 9373 H 904.869 3.73061 1.01794 0
M  V30 9374 H 906.558 3.99884 0.696221 0
M  V30 9375 H 907.324 4.53115 -1.72949 0
M  V30 9376 H 903.203 4.58233 -0.504347 0
M  V30 9377 H 906.747 5.92293 -3.68557 0
M  V30 9378 H 902.644 5.97121 -2.45186 0
M  V30 9379 H 903.412 6.98807 -4.26159 0
M  V30 9380 N 906.075 0.2925 1.54862 0
M  V30 9381 C 907.022 -0.587365 2.23201 0
M  V30 9382 C 907.992 -1.13623 1.21157 0
M  V30 9383 O 909.177 -1.18233 1.49752 0
M  V30 9384 C 906.317 -1.75745 2.96998 0
M  V30 9385 C 905.43 -1.24078 4.13798 0
M  V30 9386 C 904.565 -2.37405 4.75197 0
M  V30 9387 C 903.604 -1.82829 5.84157 0
M  V30 9388 N 902.741 -2.89696 6.39547 0
M  V30 9389 H 907.581 0.00202207 2.98 0
M  V30 9390 H 905.118 0.012766 1.47094 0
M  V30 9391 H 907.076 -2.44549 3.38011 0
M  V30 9392 H 905.706 -2.3186 2.24591 0
M  V30 9393 H 904.758 -0.445268 3.77785 0
M  V30 9394 H 906.07 -0.801186 4.92324 0
M  V30 9395 H 905.224 -3.14172 5.19019 0
M  V30 9396 H 903.963 -2.84688 3.95985 0
M  V30 9397 H 902.968 -1.04548 5.39768 0
M  V30 9398 H 904.193 -1.36461 6.65248 0
M  V30 9399 H 902.139 -3.36328 5.63222 0
M  V30 9400 H 902.056 -2.50206 7.13395 0
M  V30 9401 H 903.324 -3.66386 6.88027 0
M  V30 9402 N 907.553 -1.57587 0.0200696 0
M  V30 9403 C 908.485 -2.06555 -0.993359 0
M  V30 9404 C 909.498 -0.987227 -1.29451 0
M  V30 9405 O 910.687 -1.26361 -1.26075 0
M  V30 9406 C 907.787 -2.4675 -2.3231 0
M  V30 9407 C 906.96 -3.77554 -2.20843 0
M  V30 9408 C 906.019 -4.04397 -3.36674 0
M  V30 9409 O 905.045 -4.7478 -3.13963 0
M  V30 9410 N 906.247 -3.53861 -4.60176 0
M  V30 9411 H 909.012 -2.9412 -0.575617 0
M  V30 9412 H 906.573 -1.61038 -0.166889 0
M  V30 9413 H 908.565 -2.61806 -3.08609 0
M  V30 9414 H 907.135 -1.64598 -2.65756 0
M  V30 9415 H 906.355 -3.72382 -1.29327 0
M  V30 9416 H 907.643 -4.63271 -2.10375 0
M  V30 9417 H 907.041 -2.96904 -4.81523 0
M  V30 9418 H 905.598 -3.74213 -5.33674 0
M  V30 9419 N 909.032 0.252966 -1.55557 0
M  V30 9420 C 910.309 1.00432 -1.67847 0
M  V30 9421 C 910.689 2.03587 -0.55816 0
M  V30 9422 O 910.037 2.24239 0.439197 0
M  V30 9423 C 910.247 1.64313 -3.079 0
M  V30 9424 C 911.595 2.14726 -3.66303 0
M  V30 9425 O 912.619 1.74264 -3.10661 0
M  V30 9426 O 911.478 2.89 -4.63833 0
M  V30 9427 H 908.572 0.467102 -0.682455 0
M  V30 9428 H 911.118 0.247233 -1.67889 0
M  V30 9429 H 909.89 0.896681 -3.80888 0
M  V30 9430 H 909.513 2.46657 -3.11843 0
M  V30 9431 N 910.51 1.48831 0.518367 0
M  V30 9432 C 911.921 1.50842 1.10016 0
M  V30 9433 C 912.272 0.284744 1.94123 0
M  V30 9434 O 911.397 -0.607088 2.0771 0
M  V30 9435 C 911.992 2.73329 2.00191 0
M  V30 9436 C 910.551 2.78175 2.53566 0
M  V30 9437 C 909.698 2.4452 1.30786 0
M  V30 9438 H 912.649 1.55779 0.303073 0
M  V30 9439 H 912.67 2.52506 2.84642 0
M  V30 9440 H 912.182 3.62374 1.3895 0
M  V30 9441 H 910.283 1.93368 3.18496 0
M  V30 9442 H 910.396 3.79905 2.91906 0
M  V30 9443 H 908.76 1.95924 1.62744 0
M  V30 9444 H 909.543 3.35819 0.712797 0
M  V30 9445 N 911.988 -0.768124 1.37614 0
M  V30 9446 C 912.898 -1.91249 1.35871 0
M  V30 9447 C 913.914 -1.7208 0.257786 0
M  V30 9448 O 915.09 -1.95253 0.493782 0
M  V30 9449 C 912.155 -3.26423 1.16829 0
M  V30 9450 C 911.216 -3.5822 2.36594 0
M  V30 9451 C 910.449 -4.86945 2.1845 0
M  V30 9452 O 910.672 -5.58258 1.17064 0
M  V30 9453 O 909.606 -5.17888 3.06718 0
M  V30 9454 H 913.432 -1.95671 2.32264 0
M  V30 9455 H 911.017 -0.911382 1.18382 0
M  V30 9456 H 912.899 -4.07269 1.08212 0
M  V30 9457 H 911.574 -3.22845 0.235123 0
M  V30 9458 H 910.481 -2.77594 2.50783 0
M  V30 9459 H 911.814 -3.66545 3.2849 0
M  V30 9460 N 913.466 -1.22244 -0.994698 0
M  V30 9461 C 914.712 -1.05752 -1.73747 0
M  V30 9462 C 915.067 0.403416 -1.88123 0
M  V30 9463 O 914.36 1.29511 -1.412 0
M  V30 9464 C 914.554 -1.70014 -3.14372 0
M  V30 9465 C 914.383 -3.22205 -3.1371 0
M  V30 9466 C 913.153 -3.91301 -3.19705 0
M  V30 9467 C 915.351 -4.19163 -2.98005 0
M  V30 9468 N 913.333 -5.30594 -3.08778 0
M  V30 9469 C 914.704 -5.45274 -2.95087 0
M  V30 9470 C 916.759 -4.10078 -2.82383 0
M  V30 9471 C 915.462 -6.63345 -2.78146 0
M  V30 9472 C 917.488 -5.27797 -2.66803 0
M  V30 9473 C 916.85 -6.52826 -2.6457 0
M  V30 9474 H 912.949 -0.441393 -0.64552 0
M  V30 9475 H 915.533 -1.54757 -1.18146 0
M  V30 9476 H 913.704 -1.23562 -3.68221 0
M  V30 9477 H 915.436 -1.46631 -3.77202 0
M  V30 9478 H 912.191 -3.42289 -3.27315 0
M  V30 9479 H 912.615 -6.0358 -3.06628 0
M  V30 9480 H 917.257 -3.14201 -2.82909 0
M  V30 9481 H 914.975 -7.59373 -2.76367 0
M  V30 9482 H 918.561 -5.22598 -2.557 0
M  V30 9483 H 917.441 -7.42383 -2.5266 0
M  V30 9484 N 914.944 1.19125 -1.03184 0
M  V30 9485 C 915.876 2.21914 -0.573294 0
M  V30 9486 C 916.889 1.5894 0.352397 0
M  V30 9487 O 918.078 1.77883 0.148318 0
M  V30 9488 C 915.178 3.38403 0.18355 0
M  V30 9489 C 914.351 4.3096 -0.747817 0
M  V30 9490 C 913.41 5.26188 -0.0358489 0
M  V30 9491 O 912.436 5.65321 -0.663388 0
M  V30 9492 N 913.638 5.67235 1.23387 0
M  V30 9493 H 916.403 2.61881 -1.45734 0
M  V30 9494 H 913.964 1.33821 -0.911231 0
M  V30 9495 H 915.956 3.99124 0.669468 0
M  V30 9496 H 914.526 2.97201 0.969043 0
M  V30 9497 H 913.746 3.67976 -1.41377 0
M  V30 9498 H 915.034 4.89708 -1.38071 0
M  V30 9499 H 914.432 5.37481 1.76439 0
M  V30 9500 H 912.989 6.30196 1.66423 0
M  V30 9501 N 916.422 0.810101 1.35185 0
M  V30 9502 C 917.65 0.404696 2.02903 0
M  V30 9503 C 918.065 -0.985434 1.61042 0
M  V30 9504 O 917.422 -1.63557 0.809658 0
M  V30 9505 C 917.473 0.482493 3.58266 0
M  V30 9506 O 917.194 1.81782 3.98606 0
M  V30 9507 C 918.695 0.070345 4.43244 0
M  V30 9508 H 915.915 0.163972 0.650657 0
M  V30 9509 H 918.459 1.0947 1.72733 0
M  V30 9510 H 916.614 -0.159296 3.87072 0
M  V30 9511 H 917.028 1.78306 4.93262 0
M  V30 9512 H 918.502 0.175888 5.5172 0
M  V30 9513 H 918.979 -0.984724 4.28018 0
M  V30 9514 H 919.585 0.685427 4.1974 0
M  V30 9515 N 917.9 -1.47166 0.563914 0
M  V30 9516 C 918.833 -2.27058 -0.227989 0
M  V30 9517 C 919.811 -1.34468 -0.914179 0
M  V30 9518 O 920.995 -1.63857 -0.931829 0
M  V30 9519 C 918.122 -3.11689 -1.32543 0
M  V30 9520 C 917.168 -4.19906 -0.747084 0
M  V30 9521 S 918.001 -5.33916 0.41153 0
M  V30 9522 C 919.157 -6.22112 -0.687566 0
M  V30 9523 H 919.39 -2.93876 0.449939 0
M  V30 9524 H 916.923 -1.50372 0.350382 0
M  V30 9525 H 918.881 -3.61017 -1.95389 0
M  V30 9526 H 917.542 -2.44221 -1.97522 0
M  V30 9527 H 916.735 -4.78876 -1.57141 0
M  V30 9528 H 916.337 -3.73493 -0.194671 0
M  V30 9529 H 918.629 -6.58867 -1.578 0
M  V30 9530 H 919.572 -7.07971 -0.135058 0
M  V30 9531 H 919.98 -5.55871 -0.983255 0
M  V30 9532 N 919.378 -0.300708 -1.54705 0
M  V30 9533 C 920.624 0.309111 -2.0043 0
M  V30 9534 C 920.957 1.53562 -1.1888 0
M  V30 9535 O 920.232 1.92683 -0.265205 0
M  V30 9536 C 920.515 0.665995 -3.53888 0
M  V30 9537 C 920.368 -0.56963 -4.46178 0
M  V30 9538 C 921.687 1.49262 -4.14016 0
M  V30 9539 H 918.806 0.110878 -0.728612 0
M  V30 9540 H 921.448 -0.412748 -1.85463 0
M  V30 9541 H 919.598 1.281 -3.66773 0
M  V30 9542 H 921.27 -1.20811 -4.45199 0
M  V30 9543 H 919.513 -1.20292 -4.16788 0
M  V30 9544 H 920.184 -0.275785 -5.51311 0
M  V30 9545 H 922.66 0.972979 -4.04564 0
M  V30 9546 H 921.536 1.71111 -5.21548 0
M  V30 9547 H 921.797 2.48174 -3.65872 0
M  V30 9548 N 920.856 1.57574 -0.0284266 0
M  V30 9549 C 921.819 2.09096 0.938691 0
M  V30 9550 C 922.819 1.00588 1.25454 0
M  V30 9551 O 924.009 1.2675 1.19499 0
M  V30 9552 C 921.141 2.55624 2.25542 0
M  V30 9553 H 922.334 2.95829 0.49248 0
M  V30 9554 H 919.887 1.5475 0.219594 0
M  V30 9555 H 920.622 1.72218 2.74793 0
M  V30 9556 H 920.407 3.34896 2.03929 0
M  V30 9557 H 921.897 2.95712 2.94863 0
M  V30 9558 N 922.334 -0.244713 1.55689 0
M  V30 9559 C 923.297 -1.2864 1.89695 0
M  V30 9560 C 924.297 -1.40969 0.773583 0
M  V30 9561 O 925.487 -1.39632 1.04156 0
M  V30 9562 C 922.619 -2.66379 2.12732 0
M  V30 9563 H 923.812 -0.997033 2.82841 0
M  V30 9564 H 921.365 -0.484103 1.48614 0
M  V30 9565 H 922.1 -3.00452 1.22062 0
M  V30 9566 H 921.885 -2.58812 2.94549 0
M  V30 9567 H 923.375 -3.41592 2.40218 0
M  V30 9568 N 923.813 -1.49104 -0.510467 0
M  V30 9569 C 924.743 -1.67981 -1.62187 0
M  V30 9570 C 925.724 -0.528529 -1.6168 0
M  V30 9571 O 926.909 -0.763305 -1.7857 0
M  V30 9572 C 924.039 -1.73755 -3.0071 0
M  V30 9573 C 922.993 -2.88579 -3.1608 0
M  V30 9574 C 922.319 -2.79457 -4.5586 0
M  V30 9575 C 923.619 -4.29638 -2.97 0
M  V30 9576 H 925.313 -2.61029 -1.46643 0
M  V30 9577 H 922.859 -1.25615 -0.704042 0
M  V30 9578 H 924.812 -1.85548 -3.78352 0
M  V30 9579 H 923.536 -0.772996 -3.17321 0
M  V30 9580 H 922.195 -2.76372 -2.40861 0
M  V30 9581 H 921.843 -1.80929 -4.69333 0
M  V30 9582 H 921.543 -3.56518 -4.67086 0
M  V30 9583 H 923.067 -2.93245 -5.35574 0
M  V30 9584 H 924.481 -4.42575 -3.64418 0
M  V30 9585 H 922.878 -5.07847 -3.19704 0
M  V30 9586 H 923.948 -4.44741 -1.93219 0
M  V30 9587 N 925.291 0.760815 -1.38019 0
M  V30 9588 C 926.223 1.88387 -1.30549 0
M  V30 9589 C 927.236 1.61319 -0.219119 0
M  V30 9590 O 928.425 1.72033 -0.476122 0
M  V30 9591 C 925.525 3.23863 -0.998291 0
M  V30 9592 C 924.698 3.78492 -2.19232 0
M  V30 9593 C 923.757 4.92468 -1.85368 0
M  V30 9594 O 922.783 5.0748 -2.57785 0
M  V30 9595 N 923.985 5.74901 -0.804319 0
M  V30 9596 H 926.75 1.95308 -2.27322 0
M  V30 9597 H 924.311 0.940423 -1.31786 0
M  V30 9598 H 926.303 3.97644 -0.7524 0
M  V30 9599 H 924.873 3.12374 -0.11877 0
M  V30 9600 H 924.093 2.96361 -2.5993 0
M  V30 9601 H 925.381 4.11722 -2.98935 0
M  V30 9602 H 924.779 5.65333 -0.203628 0
M  V30 9603 H 923.336 6.48861 -0.618301 0
M  V30 9604 N 926.769 1.22769 0.988202 0
M  V30 9605 C 927.732 1.00325 2.06076 0
M  V30 9606 C 928.732 -0.0320618 1.60768 0
M  V30 9607 O 929.922 0.206912 1.72967 0
M  V30 9608 C 927.054 0.516376 3.36966 0
M  V30 9609 H 928.247 1.95499 2.27421 0
M  V30 9610 H 925.8 1.04704 1.16047 0
M  V30 9611 H 926.535 -0.439498 3.21308 0
M  V30 9612 H 926.32 1.26337 3.71189 0
M  V30 9613 H 927.81 0.37974 4.1587 0
M  V30 9614 N 928.247 -1.18576 1.03814 0
M  V30 9615 C 929.495 -1.88121 0.738574 0
M  V30 9616 C 929.816 -1.80587 -0.735744 0
M  V30 9617 O 929.086 -1.22251 -1.53074 0
M  V30 9618 H 927.666 -0.696417 0.270208 0
M  V30 9619 H 930.328 -1.43912 1.31435 0
M  V30 9620 H 929.424 -2.94222 1.04115 0
M  V30 9621 N 929.725 -0.817259 -1.34754 0
M  V30 9622 C 930.657 -0.192695 -2.28389 0
M  V30 9623 C 931.67 0.614167 -1.50771 0
M  V30 9624 O 932.859 0.444776 -1.7287 0
M  V30 9625 C 929.959 0.748929 -3.30521 0
M  V30 9626 C 929.132 -0.0138762 -4.37398 0
M  V30 9627 C 928.191 0.847825 -5.19325 0
M  V30 9628 O 927.217 0.29487 -5.68436 0
M  V30 9629 N 928.419 2.16843 -5.38479 0
M  V30 9630 H 931.184 -0.997122 -2.82626 0
M  V30 9631 H 928.745 -0.673696 -1.47217 0
M  V30 9632 H 930.737 1.32987 -3.82226 0
M  V30 9633 H 929.307 1.45412 -2.7672 0
M  V30 9634 H 928.527 -0.776093 -3.86485 0
M  V30 9635 H 929.815 -0.539191 -5.05935 0
M  V30 9636 H 929.213 2.64148 -5.00242 0
M  V30 9637 H 927.77 2.69835 -5.93323 0
M  V30 9638 N 931.203 1.46865 -0.571711 0
M  V30 9639 C 932.449 2.0273 -0.0531858 0
M  V30 9640 C 932.782 1.44353 1.29907 0
M  V30 9641 O 932.057 0.604488 1.84868 0
M  V30 9642 C 932.34 3.60092 0.0243831 0
M  V30 9643 C 932.193 4.28874 -1.35599 0
M  V30 9644 C 933.512 4.33994 0.730563 0
M  V30 9645 H 930.631 0.736706 -0.0208018 0
M  V30 9646 H 933.273 1.75132 -0.736794 0
M  V30 9647 H 931.423 3.83736 0.606565 0
M  V30 9648 H 933.095 4.16527 -1.98249 0
M  V30 9649 H 931.338 3.88664 -1.92674 0
M  V30 9650 H 932.009 5.37561 -1.25429 0
M  V30 9651 H 934.485 4.1543 0.236098 0
M  V30 9652 H 933.361 5.43699 0.753836 0
M  V30 9653 H 933.622 4.04257 1.78967 0
M  V30 9654 N 932.681 0.308908 1.54543 0
M  V30 9655 C 934.092 -0.182144 1.85809 0
M  V30 9656 C 934.443 -1.52796 1.23076 0
M  V30 9657 O 933.568 -2.09775 0.531358 0
M  V30 9658 C 934.163 -0.337275 3.37117 0
M  V30 9659 C 932.722 -0.772545 3.68387 0
M  V30 9660 C 931.869 0.114451 2.77064 0
M  V30 9661 H 934.82 0.529671 1.496 0
M  V30 9662 H 934.841 -1.17058 3.62046 0
M  V30 9663 H 934.353 0.642382 3.82747 0
M  V30 9664 H 932.454 -1.76247 3.2828 0
M  V30 9665 H 932.567 -0.586453 4.75497 0
M  V30 9666 H 930.931 -0.407581 2.51418 0
M  V30 9667 H 931.714 1.09061 3.25516 0
M  V30 9668 N 934.159 -1.57557 0.0367827 0
M  V30 9669 C 935.387 -1.96419 -0.650168 0
M  V30 9670 C 935.802 -0.913656 -1.6522 0
M  V30 9671 O 935.159 0.103718 -1.82205 0
M  V30 9672 C 935.21 -3.35355 -1.3498 0
M  V30 9673 O 934.931 -4.36379 -0.387905 0
M  V30 9674 C 936.432 -3.88892 -2.12786 0
M  V30 9675 H 933.652 -0.646751 -0.178756 0
M  V30 9676 H 936.196 -2.04261 0.0988197 0
M  V30 9677 H 934.351 -3.28708 -2.05012 0
M  V30 9678 H 934.765 -5.16969 -0.885596 0
M  V30 9679 H 936.239 -4.88428 -2.5718 0
M  V30 9680 H 936.716 -3.23547 -2.97008 0
M  V30 9681 H 937.322 -3.98831 -1.47694 0
M  V30 9682 N 935.637 0.236453 -1.55816 0
M  V30 9683 C 936.569 1.31602 -1.87653 0
M  V30 9684 C 937.582 1.43782 -0.763584 0
M  V30 9685 O 938.771 1.44945 -1.04178 0
M  V30 9686 C 935.871 2.69342 -2.05689 0
M  V30 9687 C 935.044 2.79298 -3.36617 0
M  V30 9688 C 934.103 3.97952 -3.44268 0
M  V30 9689 O 933.129 3.86989 -4.17406 0
M  V30 9690 N 934.331 5.11594 -2.74321 0
M  V30 9691 H 937.096 1.04623 -2.80845 0
M  V30 9692 H 934.657 0.426534 -1.5618 0
M  V30 9693 H 936.649 3.47074 -2.08138 0
M  V30 9694 H 935.219 2.88984 -1.19192 0
M  V30 9695 H 934.439 1.8816 -3.46395 0
M  V30 9696 H 935.727 2.82908 -4.22895 0
M  V30 9697 H 935.125 5.23394 -2.14651 0
M  V30 9698 H 933.682 5.87422 -2.8245 0
M  V30 9699 N 937.115 1.49373 0.502552 0
M  V30 9700 C 938.531 1.36101 0.833591 0
M  V30 9701 C 938.731 0.392911 1.97632 0
M  V30 9702 O 937.787 -0.175975 2.51886 0
M  V30 9703 C 939.1 2.76782 1.17526 0
M  V30 9704 C 940.648 2.85471 1.28356 0
M  V30 9705 C 941.123 4.26915 1.65853 0
M  V30 9706 N 942.614 4.29719 1.72905 0
M  V30 9707 C 943.349 5.36127 2.0336 0
M  V30 9708 N 942.845 6.52782 2.32049 0
M  V30 9709 N 944.638 5.23542 2.04598 0
M  V30 9710 H 936.789 2.10912 -0.251008 0
M  V30 9711 H 939.052 0.946696 -0.0497037 0
M  V30 9712 H 938.758 3.49314 0.408965 0
M  V30 9713 H 938.632 3.1205 2.11907 0
M  V30 9714 H 941.019 2.13177 2.04058 0
M  V30 9715 H 941.1 2.53787 0.320304 0
M  V30 9716 H 940.744 4.99735 0.907022 0
M  V30 9717 H 940.674 4.56063 2.63276 0
M  V30 9718 H 943.165 3.45586 1.529 0
M  V30 9719 H 943.478 7.29701 2.54471 0
M  V30 9720 H 941.823 6.56011 2.29509 0
M  V30 9721 H 945.014 4.31413 1.8166 0
M  V30 9722 H 945.187 6.06565 2.27998 0
M  V30 9723 N 938.594 -0.753485 1.38421 0
M  V30 9724 C 939.524 -1.8808 1.38377 0
M  V30 9725 C 940.505 -1.68258 0.249664 0
M  V30 9726 O 941.69 -1.88848 0.45276 0
M  V30 9727 C 938.82 -3.25608 1.20818 0
M  V30 9728 C 937.774 -3.60032 2.31433 0
M  V30 9729 C 937.1 -4.96297 1.9898 0
M  V30 9730 C 938.4 -3.64898 3.73694 0
M  V30 9731 H 940.094 -1.88375 2.32713 0
M  V30 9732 H 937.64 -0.90489 1.12017 0
M  V30 9733 H 939.593 -4.04127 1.19412 0
M  V30 9734 H 938.317 -3.25793 0.229433 0
M  V30 9735 H 936.976 -2.83831 2.32025 0
M  V30 9736 H 936.624 -4.93043 0.995889 0
M  V30 9737 H 936.324 -5.20298 2.73063 0
M  V30 9738 H 937.848 -5.77196 1.99193 0
M  V30 9739 H 939.262 -4.33531 3.75132 0
M  V30 9740 H 937.659 -4.00407 4.46983 0
M  V30 9741 H 938.729 -2.65124 4.06002 0
M  V30 9742 N 940.072 -1.23292 -0.981677 0
M  V30 9743 C 941.022 -0.980133 -2.05858 0
M  V30 9744 C 942.006 0.0734044 -1.60732 0
M  V30 9745 O 943.198 -0.138561 -1.76457 0
M  V30 9746 C 940.327 -0.571879 -3.38503 0
M  V30 9747 C 939.413 -1.66075 -3.90231 0
M  V30 9748 N 939.804 -2.89077 -4.15052 0
M  V30 9749 C 938.102 -1.53503 -4.18751 0
M  V30 9750 C 938.803 -3.59567 -4.5726 0
M  V30 9751 N 937.779 -2.87076 -4.61615 0
M  V30 9752 H 941.581 -1.91432 -2.23005 0
M  V30 9753 H 939.095 -1.13211 -1.16434 0
M  V30 9754 H 941.092 -0.372059 -4.15236 0
M  V30 9755 H 939.752 0.355278 -3.2275 0
M  V30 9756 H 940.763 -3.25395 -4.02912 0
M  V30 9757 H 937.44 -0.674891 -4.12009 0
M  V30 9758 H 938.83 -4.65007 -4.84993 0
M  V30 9759 N 941.55 1.18024 -1.04442 0
M  V30 9760 C 942.966 1.40107 -0.76435 0
M  V30 9761 C 943.166 1.90914 0.644516 0
M  V30 9762 O 942.222 2.0959 1.40813 0
M  V30 9763 C 943.535 2.39851 -1.81361 0
M  V30 9764 C 945.083 2.53571 -1.83496 0
M  V30 9765 C 945.558 3.56583 -2.87424 0
M  V30 9766 N 947.049 3.64094 -2.86339 0
M  V30 9767 C 947.784 4.43537 -3.63405 0
M  V30 9768 N 947.28 5.26557 -4.50233 0
M  V30 9769 N 949.073 4.38336 -3.51877 0
M  V30 9770 H 941.224 0.833726 -1.95353 0
M  V30 9771 H 943.487 0.42881 -0.845474 0
M  V30 9772 H 943.193 2.09576 -2.82438 0
M  V30 9773 H 943.067 3.39251 -1.6489 0
M  V30 9774 H 945.454 2.83161 -0.830883 0
M  V30 9775 H 945.535 1.54272 -2.04044 0
M  V30 9776 H 945.179 3.27733 -3.88012 0
M  V30 9777 H 945.109 4.55569 -2.6413 0
M  V30 9778 H 947.6 3.04814 -2.23376 0
M  V30 9779 H 947.913 5.84336 -5.05738 0
M  V30 9780 H 946.258 5.25964 -4.54298 0
M  V30 9781 H 949.449 3.72528 -2.83444 0
M  V30 9782 H 949.622 5.00007 -4.12186 0
M  V30 9783 N 943.028 0.824394 1.34319 0
M  V30 9784 C 944.275 0.413167 1.9824 0
M  V30 9785 C 944.603 -1.02412 1.65354 0
M  V30 9786 O 943.858 -1.72831 0.91803 0
M  V30 9787 C 944.157 0.564024 3.52921 0
M  V30 9788 C 943.823 1.96725 4.05722 0
M  V30 9789 C 942.485 2.35111 4.19853 0
M  V30 9790 C 944.837 2.88447 4.34106 0
M  V30 9791 C 942.165 3.64551 4.59695 0
M  V30 9792 C 944.517 4.17353 4.75394 0
M  V30 9793 C 943.181 4.55714 4.8773 0
M  V30 9794 H 942.451 0.151188 0.725412 0
M  V30 9795 H 945.098 1.04863 1.60238 0
M  V30 9796 H 943.403 -0.154816 3.91494 0
M  V30 9797 H 945.1 0.226347 4.00361 0
M  V30 9798 H 941.69 1.65908 3.95187 0
M  V30 9799 H 945.874 2.60034 4.22725 0
M  V30 9800 H 941.13 3.94097 4.67437 0
M  V30 9801 H 945.304 4.88512 4.96315 0
M  V30 9802 H 942.931 5.56064 5.1836 0
M  V30 9803 N 944.506 -1.46559 0.579492 0
M  V30 9804 C 945.752 -2.03272 0.0722569 0
M  V30 9805 C 946.107 -1.44334 -1.27222 0
M  V30 9806 O 945.4 -0.597848 -1.82034 0
M  V30 9807 C 945.594 -3.57357 -0.0552803 0
M  V30 9808 C 945.423 -4.31238 1.27529 0
M  V30 9809 C 944.193 -4.70272 1.84857 0
M  V30 9810 C 946.391 -4.64978 2.19773 0
M  V30 9811 N 944.373 -5.2889 3.11687 0
M  V30 9812 C 945.744 -5.24132 3.31189 0
M  V30 9813 C 947.799 -4.46908 2.19493 0
M  V30 9814 C 946.502 -5.67123 4.42452 0
M  V30 9815 C 948.528 -4.90914 3.29784 0
M  V30 9816 C 947.89 -5.50136 4.3992 0
M  V30 9817 H 943.989 -0.778937 0.0691416 0
M  V30 9818 H 946.573 -1.78754 0.771683 0
M  V30 9819 H 944.744 -3.81595 -0.723868 0
M  V30 9820 H 946.476 -4.00714 -0.566606 0
M  V30 9821 H 943.231 -4.5293 1.38388 0
M  V30 9822 H 943.655 -5.62723 3.76393 0
M  V30 9823 H 948.297 -4.00459 1.35617 0
M  V30 9824 H 946.015 -6.12552 5.27073 0
M  V30 9825 H 949.601 -4.78687 3.30682 0
M  V30 9826 H 948.481 -5.83564 5.23854 0
M  V30 9827 N 945.984 -0.3171 -1.54377 0
M  V30 9828 C 946.947 0.53905 -2.22771 0
M  V30 9829 C 947.947 1.04865 -1.21901 0
M  V30 9830 O 949.137 0.942108 -1.46526 0
M  V30 9831 C 946.269 1.74804 -2.92671 0
M  V30 9832 H 947.462 -0.0587417 -2.99842 0
M  V30 9833 H 945.015 -0.068107 -1.56152 0
M  V30 9834 H 945.75 2.38524 -2.1972 0
M  V30 9835 H 945.535 1.39011 -3.66631 0
M  V30 9836 H 947.025 2.35592 -3.44799 0
M  V30 9837 N 947.462 1.57535 -0.0451378 0
M  V30 9838 C 948.394 2.08109 0.960372 0
M  V30 9839 C 949.407 1.0077 1.27864 0
M  V30 9840 O 950.596 1.28351 1.24049 0
M  V30 9841 C 947.696 2.50414 2.28355 0
M  V30 9842 C 946.869 3.8102 2.14808 0
M  V30 9843 C 945.928 4.09702 3.30198 0
M  V30 9844 O 944.954 4.79715 3.0637 0
M  V30 9845 N 946.156 3.61138 4.54489 0
M  V30 9846 H 948.921 2.94999 0.528752 0
M  V30 9847 H 946.482 1.61283 0.141248 0
M  V30 9848 H 948.474 2.66683 3.04405 0
M  V30 9849 H 947.044 1.68805 2.63104 0
M  V30 9850 H 946.264 3.74392 1.23387 0
M  V30 9851 H 947.552 4.66559 2.02978 0
M  V30 9852 H 946.95 3.04527 4.76739 0
M  V30 9853 H 945.507 3.82656 5.27653 0
M  V30 9854 N 948.94 -0.228186 1.55939 0
M  V30 9855 C 950.165 -0.974795 1.83064 0
M  V30 9856 C 950.59 -1.77426 0.624624 0
M  V30 9857 O 949.948 -1.76211 -0.426556 0
M  V30 9858 C 949.996 -1.87342 3.08116 0
M  V30 9859 O 949.1 -2.96784 2.86344 0
M  V30 9860 H 948.441 -0.276379 0.603747 0
M  V30 9861 H 950.971 -0.243507 2.03146 0
M  V30 9862 H 950.981 -2.28451 3.38045 0
M  V30 9863 H 949.656 -1.28575 3.95526 0
M  V30 9864 H 948.233 -2.59669 2.67631 0
M  V30 9865 N 950.418 -1.49637 -0.494624 0
M  V30 9866 C 951.328 -1.69522 -1.62172 0
M  V30 9867 C 952.344 -0.577894 -1.64123 0
M  V30 9868 O 953.52 -0.853382 -1.82426 0
M  V30 9869 C 950.585 -1.7633 -2.9851 0
M  V30 9870 C 949.646 -2.99944 -3.07135 0
M  V30 9871 C 948.879 -3.06419 -4.36971 0
M  V30 9872 O 949.102 -2.20312 -5.26136 0
M  V30 9873 O 948.036 -3.9894 -4.507 0
M  V30 9874 H 951.862 -2.65017 -1.48324 0
M  V30 9875 H 949.447 -1.33454 -0.671603 0
M  V30 9876 H 951.329 -1.83125 -3.7953 0
M  V30 9877 H 950.004 -0.840155 -3.12607 0
M  V30 9878 H 948.911 -2.98664 -2.2528 0
M  V30 9879 H 950.244 -3.9176 -2.97968 0
M  V30 9880 N 951.896 0.746133 -1.38819 0
M  V30 9881 C 953.143 1.50545 -1.35434 0
M  V30 9882 C 953.471 1.94427 0.0532669 0
M  V30 9883 O 952.726 1.66285 1.03188 0
M  V30 9884 C 953.025 2.76639 -2.26286 0
M  V30 9885 C 952.691 2.51682 -3.74122 0
M  V30 9886 C 951.353 2.44584 -4.14406 0
M  V30 9887 C 953.705 2.30071 -4.67672 0
M  V30 9888 C 951.033 2.13902 -5.46318 0
M  V30 9889 C 953.385 2.00907 -5.99849 0
M  V30 9890 C 952.049 1.92271 -6.39209 0
M  V30 9891 H 951.319 0.550883 -0.49559 0
M  V30 9892 H 953.966 0.857337 -1.71237 0
M  V30 9893 H 952.271 3.46138 -1.83564 0
M  V30 9894 H 953.968 3.34626 -2.20967 0
M  V30 9895 H 950.558 2.5808 -3.42188 0
M  V30 9896 H 954.742 2.34528 -4.3739 0
M  V30 9897 H 949.998 2.0573 -5.75748 0
M  V30 9898 H 954.172 1.83191 -6.71874 0
M  V30 9899 H 951.799 1.68261 -7.41345 0
M  V30 9900 N 953.375 1.23811 0.975125 0
M  V30 9901 C 954.338 1.02505 2.05001 0
M  V30 9902 C 955.338 -0.0150084 1.60793 0
M  V30 9903 O 956.528 0.225246 1.72738 0
M  V30 9904 C 953.66 0.552087 3.364 0
M  V30 9905 H 954.853 1.979 2.25335 0
M  V30 9906 H 952.406 1.05929 1.1493 0
M  V30 9907 H 953.141 -0.405394 3.21756 0
M  V30 9908 H 952.926 1.30267 3.69828 0
M  V30 9909 H 954.416 0.423828 4.15444 0
M  V30 9910 N 954.853 -1.17469 1.05066 0
M  V30 9911 C 956.099 -1.87976 0.761113 0
M  V30 9912 C 956.432 -1.80756 -0.709995 0
M  V30 9913 O 955.707 -1.21469 -1.51906 0
M  V30 9914 C 955.99 -3.38055 1.2406 0
M  V30 9915 C 955.843 -3.54032 2.77455 0
M  V30 9916 C 957.162 -4.32036 0.838612 0
M  V30 9917 H 954.281 -0.682573 0.277963 0
M  V30 9918 H 956.923 -1.38147 1.30443 0
M  V30 9919 H 955.073 -3.80622 0.778388 0
M  V30 9920 H 956.745 -3.20489 3.3179 0
M  V30 9921 H 954.988 -2.96352 3.16793 0
M  V30 9922 H 955.659 -4.59377 3.06066 0
M  V30 9923 H 958.135 -3.97303 1.23651 0
M  V30 9924 H 957.011 -5.35583 1.20173 0
M  V30 9925 H 957.272 -4.41349 -0.257498 0
M  V30 9926 N 956.331 -0.831506 -1.3388 0
M  V30 9927 C 957.294 -0.264773 -2.27666 0
M  V30 9928 C 958.294 0.562273 -1.50649 0
M  V30 9929 O 959.484 0.377131 -1.70069 0
M  V30 9930 C 956.616 0.627814 -3.35069 0
M  V30 9931 H 957.809 -1.09225 -2.79303 0
M  V30 9932 H 955.362 -0.604021 -1.44157 0
M  V30 9933 H 956.097 1.47802 -2.88661 0
M  V30 9934 H 955.882 0.0361552 -3.92083 0
M  V30 9935 H 957.372 1.01786 -4.05005 0
M  V30 9936 N 957.809 1.4625 -0.587256 0
M  V30 9937 C 958.757 2.32076 0.156108 0
M  V30 9938 C 959.751 1.44756 0.879887 0
M  V30 9939 O 960.957 1.61356 0.797759 0
M  V30 9940 H 957.332 0.748808 0.0692098 0
M  V30 9941 H 959.303 2.9258 -0.586497 0
M  V30 9942 C 958.052 3.28008 1.15352 0
M  V30 9943 H 957.375 3.9518 0.60601 0
M  V30 9944 H 958.815 3.90832 1.64396 0
M  V30 9945 C 957.274 2.53691 2.21681 0
M  V30 9946 O 957.804 2.30329 3.29107 0
M  V30 9947 N 956.01 2.14174 1.96412 0
M  V30 9948 H 955.557 2.33374 1.09061 0
M  V30 9949 H 955.515 1.6477 2.67765 0
M  V30 9950 N 959.287 0.325282 1.54207 0
M  V30 9951 C 960.535 -0.276229 2.00203 0
M  V30 9952 C 960.856 -1.52519 1.21503 0
M  V30 9953 O 960.126 -1.93313 0.317302 0
M  V30 9954 H 958.706 -0.105059 0.739575 0
M  V30 9955 H 961.368 0.442225 1.89817 0
M  V30 9956 H 960.464 -0.531427 3.07542 0
M  V30 9957 N 960.765 -1.57509 0.0534917 0
M  V30 9958 C 962.011 -1.93068 -0.62069 0
M  V30 9959 C 962.344 -0.932313 -1.70357 0
M  V30 9960 O 961.619 0.0413393 -1.94456 0
M  V30 9961 C 961.902 -3.38997 -1.21463 0
M  V30 9962 C 961.755 -4.49583 -0.13965 0
M  V30 9963 C 963.074 -3.85366 -2.12558 0
M  V30 9964 H 960.193 -0.702083 -0.224163 0
M  V30 9965 H 962.835 -1.89647 0.115729 0
M  V30 9966 H 960.985 -3.42043 -1.84226 0
M  V30 9967 H 962.657 -4.58664 0.492411 0
M  V30 9968 H 960.9 -4.30525 0.532006 0
M  V30 9969 H 961.571 -5.48781 -0.595287 0
M  V30 9970 H 964.047 -3.8421 -1.59755 0
M  V30 9971 H 962.923 -4.8812 -2.51058 0
M  V30 9972 H 963.184 -3.22256 -3.02661 0
M  V30 9973 N 962.243 0.219913 -1.56058 0
M  V30 9974 C 963.473 0.959521 -1.82967 0
M  V30 9975 C 963.881 1.78382 -0.630602 0
M  V30 9976 O 963.224 1.79062 0.410203 0
M  V30 9977 C 963.286 1.92481 -3.0363 0
M  V30 9978 C 962.95 1.28487 -4.38566 0
M  V30 9979 C 963.947 0.673946 -5.15513 0
M  V30 9980 C 961.632 1.29615 -4.85289 0
M  V30 9981 C 963.626 0.0828324 -6.37346 0
M  V30 9982 C 961.313 0.701191 -6.07064 0
M  V30 9983 C 962.311 0.0955877 -6.82933 0
M  V30 9984 O 961.999 -0.490109 -8.02405 0
M  V30 9985 H 961.731 0.286709 -0.612188 0
M  V30 9986 H 964.285 0.239761 -2.03996 0
M  V30 9987 H 962.515 2.6836 -2.78424 0
M  V30 9988 H 964.204 2.5301 -3.17397 0
M  V30 9989 H 964.97 0.657548 -4.80522 0
M  V30 9990 H 960.849 1.75691 -4.26208 0
M  V30 9991 H 964.393 -0.390482 -6.96506 0
M  V30 9992 H 960.29 0.715007 -6.41528 0
M  V30 9993 H 961.058 -0.384588 -8.17596 0
M  V30 9994 N 963.721 1.49897 0.486681 0
M  V30 9995 C 964.684 1.67086 1.56891 0
M  V30 9996 C 965.684 0.54209 1.51387 0
M  V30 9997 O 966.874 0.80883 1.54284 0
M  V30 9998 C 964.006 1.68159 2.96539 0
M  V30 9999 H 965.199 2.63626 1.42974 0
M  V30 10000 H 962.752 1.39143 0.711954 0
M  V30 10001 H 963.487 0.732562 3.15918 0
M  V30 10002 H 963.272 2.50147 3.01942 0
M  V30 10003 H 964.762 1.83466 3.7514 0
M  V30 10004 N 965.199 -0.738761 1.39212 0
M  V30 10005 C 966.448 -1.49368 1.35543 0
M  V30 10006 C 966.761 -1.95543 -0.0471091 0
M  V30 10007 O 967.967 -2.70714 -0.206376 0
M  V30 10008 C 966.423 -2.69882 2.381 0
M  V30 10009 C 966.031 -2.30672 3.8405 0
M  V30 10010 C 967.775 -3.47718 2.435 0
M  V30 10011 C 965.682 -3.47886 4.78256 0
M  V30 10012 H 964.612 -0.560898 0.503894 0
M  V30 10013 H 967.263 -0.806221 1.6484 0
M  V30 10014 H 965.645 -3.40684 2.01867 0
M  V30 10015 H 966.819 -1.67441 4.29302 0
M  V30 10016 H 965.134 -1.65936 3.81909 0
M  V30 10017 H 967.731 -4.34897 3.11077 0
M  V30 10018 H 968.074 -3.89919 1.45838 0
M  V30 10019 H 968.607 -2.83942 2.78606 0
M  V30 10020 H 965.346 -3.10739 5.77167 0
M  V30 10021 H 964.866 -4.10111 4.37686 0
M  V30 10022 H 966.545 -4.14271 4.96979 0
M  V30 10023 N 966.677 -1.24326 -0.968545 0
M  V30 10024 C 967.607 -1.05951 -2.08079 0
M  V30 10025 C 968.588 0.0272666 -1.70078 0
M  V30 10026 O 969.773 -0.139644 -1.93697 0
M  V30 10027 C 966.903 -0.662623 -3.4092 0
M  V30 10028 C 965.857 -1.69807 -3.92873 0
M  V30 10029 C 965.183 -1.15628 -5.22048 0
M  V30 10030 C 966.483 -3.09383 -4.20808 0
M  V30 10031 H 968.177 -1.98984 -2.23709 0
M  V30 10032 H 965.723 -0.958112 -1.075 0
M  V30 10033 H 967.676 -0.521071 -4.18166 0
M  V30 10034 H 966.4 0.303399 -3.25188 0
M  V30 10035 H 965.059 -1.82783 -3.17783 0
M  V30 10036 H 964.707 -0.180888 -5.02675 0
M  V30 10037 H 964.407 -1.84822 -5.57776 0
M  V30 10038 H 965.931 -1.02683 -6.01904 0
M  V30 10039 H 967.345 -2.99642 -4.88761 0
M  V30 10040 H 965.742 -3.75923 -4.67763 0
M  V30 10041 H 966.812 -3.57486 -3.27616 0
M  V30 10042 N 968.156 1.1691 -1.05688 0
M  V30 10043 C 969.403 1.87292 -0.76993 0
M  V30 10044 C 969.731 1.81339 0.703295 0
M  V30 10045 O 968.986 1.21959 1.5305 0
M  V30 10046 C 969.285 3.36578 -1.20207 0
M  V30 10047 C 968.951 3.62732 -2.67836 0
M  V30 10048 C 967.613 3.69579 -3.08163 0
M  V30 10049 C 969.965 3.73803 -3.63209 0
M  V30 10050 C 967.293 3.84992 -4.42717 0
M  V30 10051 C 969.645 3.90735 -4.97503 0
M  V30 10052 C 968.309 3.95823 -5.37476 0
M  V30 10053 H 967.579 0.68535 -0.281737 0
M  V30 10054 H 970.226 1.38274 -1.32486 0
M  V30 10055 H 968.531 3.87687 -0.566222 0
M  V30 10056 H 970.228 3.89409 -0.957183 0
M  V30 10057 H 966.818 3.58031 -2.35609 0
M  V30 10058 H 971.002 3.67829 -3.3319 0
M  V30 10059 H 966.258 3.87181 -4.73182 0
M  V30 10060 H 970.432 3.98243 -5.71293 0
M  V30 10061 H 968.059 4.07518 -6.41742 0
M  V30 10062 N 969.634 0.838594 1.33437 0
M  V30 10063 C 971.045 0.490934 1.8013 0
M  V30 10064 C 971.396 -0.990024 1.6939 0
M  V30 10065 O 970.521 -1.77139 1.24302 0
M  V30 10066 C 971.116 0.884347 3.27055 0
M  V30 10067 C 969.675 0.588829 3.71766 0
M  V30 10068 C 968.822 1.09282 2.54858 0
M  V30 10069 H 971.773 1.02732 1.20962 0
M  V30 10070 H 971.794 0.194283 3.80004 0
M  V30 10071 H 971.306 1.96225 3.34839 0
M  V30 10072 H 969.407 -0.479018 3.69508 0
M  V30 10073 H 969.52 1.14387 4.65245 0
M  V30 10074 H 967.884 0.513702 2.49466 0
M  V30 10075 H 968.667 2.1775 2.65405 0
M  V30 10076 N 971.112 -1.45937 0.595003 0
M  V30 10077 C 972.389 -1.95592 0.0178748 0
M  V30 10078 C 972.769 -1.53758 -1.44643 0
M  V30 10079 O 972.117 -0.794104 -2.14257 0
M  V30 10080 C 972.327 -3.4841 0.202789 0
M  V30 10081 C 973.675 -4.2453 0.0770121 0
M  V30 10082 O 974.699 -3.55954 0.132257 0
M  V30 10083 O 973.558 -5.46479 -0.0484271 0
M  V30 10084 H 970.652 -0.825888 -0.0428702 0
M  V30 10085 H 973.198 -1.56162 0.664184 0
M  V30 10086 H 971.97 -3.71787 1.22027 0
M  V30 10087 H 971.593 -3.947 -0.479376 0
M  V30 10088 N 972.59 -0.333456 -1.54032 0
M  V30 10089 C 973.522 0.562174 -2.22199 0
M  V30 10090 C 974.535 1.07202 -1.22522 0
M  V30 10091 O 975.724 0.983897 -1.48935 0
M  V30 10092 C 972.824 1.78525 -2.88066 0
M  V30 10093 C 971.997 1.41242 -4.13968 0
M  V30 10094 C 971.056 2.49408 -4.63338 0
M  V30 10095 O 970.082 2.13138 -5.27789 0
M  V30 10096 N 971.284 3.805 -4.38406 0
M  V30 10097 H 974.049 -0.0215629 -2.99692 0
M  V30 10098 H 971.61 -0.157111 -1.61136 0
M  V30 10099 H 973.602 2.50298 -3.18014 0
M  V30 10100 H 972.172 2.2766 -2.14219 0
M  V30 10101 H 971.392 0.525887 -3.90676 0
M  V30 10102 H 972.68 1.13916 -4.95884 0
M  V30 10103 H 972.078 4.12761 -3.86839 0
M  V30 10104 H 970.635 4.48474 -4.72984 0
M  V30 10105 N 974.068 1.57479 -0.061844 0
M  V30 10106 C 975.316 1.92727 0.608336 0
M  V30 10107 C 975.637 0.941799 1.70749 0
M  V30 10108 O 974.907 -0.0116608 1.95897 0
M  V30 10109 H 973.487 0.71145 0.2277 0
M  V30 10110 H 976.149 1.94546 -0.117359 0
M  V30 10111 H 975.245 2.9426 1.04007 0
M  V30 10112 N 975.546 -0.211634 1.56173 0
M  V30 10113 C 976.957 -0.777776 1.69728 0
M  V30 10114 C 977.308 -1.84566 0.66558 0
M  V30 10115 O 976.433 -2.15639 -0.181338 0
M  V30 10116 C 977.028 -1.41757 3.07718 0
M  V30 10117 C 975.587 -1.93098 3.23094 0
M  V30 10118 C 974.734 -0.794785 2.65666 0
M  V30 10119 H 977.685 0.0131839 1.58695 0
M  V30 10120 H 977.706 -2.28662 3.04128 0
M  V30 10121 H 977.218 -0.640114 3.82785 0
M  V30 10122 H 975.319 -2.73615 2.52914 0
M  V30 10123 H 975.432 -2.10414 4.30422 0
M  V30 10124 H 973.796 -1.20473 2.24407 0
M  V30 10125 H 974.579 -0.0298408 3.43287 0
M  V30 10126 N 977.024 -1.50153 -0.478725 0
M  V30 10127 C 977.934 -1.71232 -1.60364 0
M  V30 10128 C 978.95 -0.595269 -1.63501 0
M  V30 10129 O 980.126 -0.872683 -1.81511 0
M  V30 10130 C 977.191 -1.79487 -2.96623 0
M  V30 10131 C 976.252 -3.03185 -3.03937 0
M  V30 10132 C 975.485 -3.11036 -4.33696 0
M  V30 10133 O 975.708 -2.2588 -5.23769 0
M  V30 10134 O 974.642 -4.03698 -4.46443 0
M  V30 10135 H 978.468 -2.66575 -1.45505 0
M  V30 10136 H 976.053 -1.34158 -0.65741 0
M  V30 10137 H 977.935 -1.8714 -3.77567 0
M  V30 10138 H 976.61 -0.873264 -3.11698 0
M  V30 10139 H 975.517 -3.01036 -2.22099 0
M  V30 10140 H 976.85 -3.94898 -2.93796 0
M  V30 10141 N 978.502 0.731368 -1.39602 0
M  V30 10142 C 979.449 1.84541 -1.38612 0
M  V30 10143 C 980.419 1.64279 -0.245287 0
M  V30 10144 O 981.604 1.85635 -0.440954 0
M  V30 10145 C 978.744 3.22092 -1.23897 0
M  V30 10146 C 977.857 3.54034 -2.47555 0
M  V30 10147 C 976.992 4.81007 -2.25402 0
M  V30 10148 C 976.031 5.05804 -3.44716 0
M  V30 10149 N 975.168 6.23981 -3.21857 0
M  V30 10150 H 980.008 1.84722 -2.33841 0
M  V30 10151 H 977.545 0.902569 -1.16156 0
M  V30 10152 H 979.503 4.01499 -1.13376 0
M  V30 10153 H 978.133 3.2118 -0.322958 0
M  V30 10154 H 977.185 2.69301 -2.68665 0
M  V30 10155 H 978.497 3.68275 -3.36415 0
M  V30 10156 H 977.651 5.68401 -2.12143 0
M  V30 10157 H 976.39 4.68946 -1.33943 0
M  V30 10158 H 975.395 4.1687 -3.58468 0
M  V30 10159 H 976.62 5.19747 -4.37081 0
M  V30 10160 H 974.566 6.13202 -2.33065 0
M  V30 10161 H 974.483 6.38826 -4.04274 0
M  V30 10162 H 975.751 7.14205 -3.123 0
M  V30 10163 N 979.98 1.24838 0.961938 0
M  V30 10164 C 980.91 1.07053 2.07514 0
M  V30 10165 C 981.891 -0.0182465 1.7009 0
M  V30 10166 O 983.076 0.149915 1.9362 0
M  V30 10167 C 980.206 0.680693 3.40564 0
M  V30 10168 C 979.16 1.71889 3.91967 0
M  V30 10169 C 978.486 1.18395 5.21428 0
M  V30 10170 C 979.786 3.1161 4.19161 0
M  V30 10171 H 981.48 2.00167 2.22651 0
M  V30 10172 H 979.026 0.963799 1.0699 0
M  V30 10173 H 980.979 0.54324 4.17884 0
M  V30 10174 H 979.703 -0.28615 3.25344 0
M  V30 10175 H 978.362 1.84465 3.16809 0
M  V30 10176 H 978.01 0.207543 5.02572 0
M  V30 10177 H 977.71 1.87778 5.56788 0
M  V30 10178 H 979.234 1.05873 6.01351 0
M  V30 10179 H 980.648 3.0223 4.87165 0
M  V30 10180 H 979.045 3.78398 4.65763 0
M  V30 10181 H 980.115 3.59218 3.25715 0
M  V30 10182 N 981.458 -1.16348 1.06306 0
M  V30 10183 C 982.388 -2.2291 0.695234 0
M  V30 10184 C 983.369 -1.67208 -0.312343 0
M  V30 10185 O 984.554 -1.93293 -0.187442 0
M  V30 10186 C 981.684 -3.47205 0.0810149 0
M  V30 10187 C 980.638 -4.15801 1.01458 0
M  V30 10188 C 979.964 -5.3405 0.263656 0
M  V30 10189 C 981.264 -4.66766 2.34365 0
M  V30 10190 H 982.958 -2.53934 1.58613 0
M  V30 10191 H 980.504 -1.22056 0.76409 0
M  V30 10192 H 982.457 -4.2098 -0.18818 0
M  V30 10193 H 981.181 -3.15482 -0.844897 0
M  V30 10194 H 979.84 -3.43954 1.26852 0
M  V30 10195 H 979.488 -4.9858 -0.665378 0
M  V30 10196 H 979.188 -5.80885 0.88582 0
M  V30 10197 H 980.712 -6.106 0.00200994 0
M  V30 10198 H 982.126 -5.3212 2.13356 0
M  V30 10199 H 980.523 -5.24223 2.9208 0
M  V30 10200 H 981.593 -3.82969 2.97426 0
M  V30 10201 N 982.937 -0.845659 -1.3299 0
M  V30 10202 C 984.185 -0.443774 -1.97168 0
M  V30 10203 C 984.506 1.00192 -1.67292 0
M  V30 10204 O 983.776 1.69891 -0.975397 0
M  V30 10205 H 982.356 -0.161111 -0.729419 0
M  V30 10206 H 985.018 -1.08011 -1.62233 0
M  V30 10207 H 984.114 -0.581414 -3.06637 0
M  V30 10208 N 984.415 1.45619 -0.602734 0
M  V30 10209 C 985.692 1.9558 -0.0282472 0
M  V30 10210 C 986.072 1.54523 1.43826 0
M  V30 10211 O 985.42 0.805456 2.13833 0
M  V30 10212 C 985.63 3.48298 -0.221263 0
M  V30 10213 C 986.978 4.24483 -0.0995249 0
M  V30 10214 O 988.002 3.55879 -0.151132 0
M  V30 10215 O 986.861 5.46497 0.0194454 0
M  V30 10216 H 983.955 0.826104 0.0384897 0
M  V30 10217 H 986.501 1.55808 -0.672456 0
M  V30 10218 H 985.273 3.71134 -1.23997 0
M  V30 10219 H 984.896 3.94948 0.458437 0
M  V30 10220 N 985.893 0.34162 1.53853 0
M  V30 10221 C 987.139 -0.255862 2.01179 0
M  V30 10222 C 987.472 -1.50356 1.22909 0
M  V30 10223 O 986.747 -1.91913 0.316198 0
M  V30 10224 C 987.03 -0.571934 3.55529 0
M  V30 10225 C 986.883 0.687727 4.44511 0
M  V30 10226 C 988.202 -1.38233 4.17827 0
M  V30 10227 H 985.321 -0.091521 0.731295 0
M  V30 10228 H 987.963 0.461775 1.84303 0
M  V30 10229 H 986.113 -1.18331 3.70041 0
M  V30 10230 H 987.785 1.32572 4.4184 0
M  V30 10231 H 986.028 1.313 4.13452 0
M  V30 10232 H 986.699 0.421858 5.50386 0
M  V30 10233 H 989.175 -0.865374 4.07002 0
M  V30 10234 H 988.051 -1.57223 5.25901 0
M  V30 10235 H 988.312 -2.38386 3.72323 0
M  V30 10236 N 987.371 -1.57444 0.0701946 0
M  V30 10237 C 988.319 -2.13834 -0.915302 0
M  V30 10238 C 989.313 -1.07483 -1.30934 0
M  V30 10239 O 990.519 -1.25865 -1.28678 0
M  V30 10240 H 986.894 -0.683716 -0.313108 0
M  V30 10241 H 988.865 -2.95503 -0.414758 0
M  V30 10242 C 987.614 -2.71355 -2.17398 0
M  V30 10243 H 986.937 -3.52861 -1.87961 0
M  V30 10244 H 988.377 -3.1441 -2.84469 0
M  V30 10245 C 986.836 -1.66038 -2.93143 0
M  V30 10246 O 987.366 -1.08443 -3.86786 0
M  V30 10247 N 985.572 -1.3711 -2.56221 0
M  V30 10248 H 985.119 -1.84135 -1.80145 0
M  V30 10249 H 985.077 -0.66877 -3.07205 0
M  V30 10250 N 988.849 0.203349 -1.56283 0
M  V30 10251 C 990.097 0.923183 -1.79782 0
M  V30 10252 C 990.418 1.84134 -0.64185 0
M  V30 10253 O 989.688 1.92922 0.340292 0
M  V30 10254 H 988.268 0.343881 -0.66314 0
M  V30 10255 H 990.93 0.210837 -1.93756 0
M  V30 10256 H 990.026 1.51921 -2.72629 0
M  V30 10257 N 990.327 1.50405 0.470755 0
M  V30 10258 C 991.604 1.51929 1.23195 0
M  V30 10259 C 991.984 0.264159 2.09441 0
M  V30 10260 O 991.332 -0.752395 2.15757 0
M  V30 10261 C 991.542 2.81521 2.06269 0
M  V30 10262 C 992.89 3.32195 2.64446 0
M  V30 10263 O 993.914 2.82845 2.16511 0
M  V30 10264 O 992.773 4.18221 3.51786 0
M  V30 10265 H 989.867 0.609411 0.559059 0
M  V30 10266 H 992.413 1.62695 0.482549 0
M  V30 10267 H 991.185 3.64346 1.42715 0
M  V30 10268 H 990.808 2.7376 2.88342 0
M  V30 10269 N 991.805 -0.723954 1.39988 0
M  V30 10270 C 992.715 -1.86829 1.41887 0
M  V30 10271 C 993.731 -1.71173 0.312401 0
M  V30 10272 O 994.907 -1.93583 0.555651 0
M  V30 10273 C 991.972 -3.22541 1.27154 0
M  V30 10274 C 991.033 -3.50512 2.47871 0
M  V30 10275 C 990.266 -4.79749 2.33831 0
M  V30 10276 O 990.489 -5.54251 1.34765 0
M  V30 10277 O 989.423 -5.07868 3.23039 0
M  V30 10278 H 993.249 -1.88183 2.38371 0
M  V30 10279 H 990.834 -0.873259 1.21221 0
M  V30 10280 H 992.716 -4.0362 1.21114 0
M  V30 10281 H 991.391 -3.21933 0.337715 0
M  V30 10282 H 990.298 -2.69475 2.59488 0
M  V30 10283 H 991.631 -3.55909 3.39985 0
M  V30 10284 N 993.283 -1.25346 -0.955304 0
M  V30 10285 C 994.511 -1.12793 -1.73451 0
M  V30 10286 C 994.926 0.318344 -1.86097 0
M  V30 10287 O 994.283 1.21897 -1.35821 0
M  V30 10288 C 994.334 -1.77603 -3.14864 0
M  V30 10289 O 994.055 -3.16577 -3.02837 0
M  V30 10290 C 995.556 -1.70821 -4.09066 0
M  V30 10291 H 992.776 -0.393457 -0.543537 0
M  V30 10292 H 995.32 -1.65696 -1.19855 0
M  V30 10293 H 993.475 -1.28673 -3.65407 0
M  V30 10294 H 993.889 -3.48433 -3.92039 0
M  V30 10295 H 995.363 -2.2083 -5.05903 0
M  V30 10296 H 995.84 -0.671858 -4.34031 0
M  V30 10297 H 996.446 -2.19237 -3.64438 0
M  V30 10298 N 994.761 1.15782 -1.06922 0
M  V30 10299 C 996.007 1.86741 -0.790922 0
M  V30 10300 C 996.34 1.81863 0.681149 0
M  V30 10301 O 995.615 1.23871 1.49954 0
M  V30 10302 C 995.898 3.36038 -1.29422 0
M  V30 10303 C 995.751 3.49573 -2.83052 0
M  V30 10304 C 997.07 4.30647 -0.907239 0
M  V30 10305 H 994.189 0.678064 -0.288787 0
M  V30 10306 H 996.831 1.36054 -1.32624 0
M  V30 10307 H 994.981 3.79336 -0.838843 0
M  V30 10308 H 996.653 3.1517 -3.36847 0
M  V30 10309 H 994.896 2.91275 -3.21467 0
M  V30 10310 H 995.567 4.5445 -3.13335 0
M  V30 10311 H 998.043 3.95286 -1.29956 0
M  V30 10312 H 996.919 5.33604 -1.28679 0
M  V30 10313 H 997.18 4.41703 0.187251 0
M  V30 10314 N 996.239 0.8527 1.3254 0
M  V30 10315 C 997.516 0.376491 1.91942 0
M  V30 10316 C 997.896 -1.13972 1.7769 0
M  V30 10317 O 997.244 -1.96047 1.17379 0
M  V30 10318 C 997.454 0.838694 3.38773 0
M  V30 10319 C 998.802 0.854736 4.15908 0
M  V30 10320 O 999.826 0.783203 3.47483 0
M  V30 10321 O 998.685 0.955207 5.38087 0
M  V30 10322 H 995.779 0.109412 0.81973 0
M  V30 10323 H 998.325 0.93947 1.41322 0
M  V30 10324 H 997.097 1.88179 3.43081 0
M  V30 10325 H 996.72 0.253055 3.96794 0
M  V30 10326 N 997.718 -1.45297 0.610449 0
M  V30 10327 C 998.681 -2.28995 -0.0968194 0
M  V30 10328 C 999.681 -1.39923 -0.792353 0
M  V30 10329 O 1000.87 -1.62014 -0.64008 0
M  V30 10330 C 998.003 -3.21013 -1.14731 0
M  V30 10331 H 999.196 -2.93012 0.639082 0
M  V30 10332 H 996.749 -1.51867 0.369624 0
M  V30 10333 H 997.484 -2.61803 -1.91388 0
M  V30 10334 H 997.269 -3.86628 -0.652753 0
M  V30 10335 H 998.759 -3.8394 -1.64256 0
M  V30 10336 N 999.196 -0.349774 -1.5367 0
M  V30 10337 C 1000.44 0.245862 -2.00196 0
M  V30 10338 C 1000.76 1.51154 -1.24144 0
M  V30 10339 O 1001.96 2.18481 -1.61178 0
M  V30 10340 C 1000.42 0.488665 -3.56567 0
M  V30 10341 C 1000.03 -0.761475 -4.41481 0
M  V30 10342 C 1001.77 1.04282 -4.11492 0
M  V30 10343 C 999.679 -0.489128 -5.89374 0
M  V30 10344 H 998.609 0.0956493 -0.747909 0
M  V30 10345 H 1001.26 -0.466068 -1.77483 0
M  V30 10346 H 999.642 1.26145 -3.75371 0
M  V30 10347 H 1000.82 -1.53585 -4.34452 0
M  V30 10348 H 999.131 -1.23771 -3.9758 0
M  V30 10349 H 1001.73 1.26164 -5.19603 0
M  V30 10350 H 1002.07 2.00023 -3.65098 0
M  V30 10351 H 1002.6 0.330582 -3.96424 0
M  V30 10352 H 999.343 -1.41643 -6.40014 0
M  V30 10353 H 998.863 0.247039 -5.99291 0
M  V30 10354 H 1000.54 -0.1087 -6.46909 0
M  V30 10355 N 1000.67 1.57404 -0.0785433 0
M  V30 10356 C 1001.95 1.85163 0.630389 0
M  V30 10357 C 1002.33 0.972295 1.87376 0
M  V30 10358 O 1001.68 0.0403375 2.28464 0
M  V30 10359 C 1001.89 3.35491 0.961604 0
M  V30 10360 C 1003.24 4.0316 1.33219 0
M  V30 10361 O 1004.26 3.40276 1.05313 0
M  V30 10362 O 1003.12 5.14086 1.85412 0
M  V30 10363 H 1000.21 0.765169 0.31376 0
M  V30 10364 H 1002.76 1.69343 -0.109986 0
M  V30 10365 H 1001.53 3.91221 0.0788113 0
M  V30 10366 H 1001.15 3.56598 1.75852 0
M  V30 10367 N 1002.15 -0.195058 1.56388 0
M  V30 10368 C 1003.08 -1.24444 1.97575 0
M  V30 10369 C 1004.06 -1.47471 0.847717 0
M  V30 10370 O 1005.25 -1.59208 1.11205 0
M  V30 10371 C 1002.38 -2.58866 2.31529 0
M  V30 10372 C 1001.33 -2.50451 3.47071 0
M  V30 10373 C 1000.66 -3.89146 3.667 0
M  V30 10374 C 1001.96 -2.02953 4.81256 0
M  V30 10375 H 1003.65 -0.902178 2.85484 0
M  V30 10376 H 1001.2 -0.43254 1.3735 0
M  V30 10377 H 1003.15 -3.3246 2.58936 0
M  V30 10378 H 1001.87 -2.94833 1.40502 0
M  V30 10379 H 1000.53 -1.79313 3.19754 0
M  V30 10380 H 1000.18 -4.22466 2.73004 0
M  V30 10381 H 999.882 -3.84391 4.44429 0
M  V30 10382 H 1001.41 -4.64363 3.96484 0
M  V30 10383 H 1002.82 -2.66306 5.07695 0
M  V30 10384 H 1001.22 -2.092 5.62455 0
M  V30 10385 H 1002.29 -0.982757 4.74837 0
M  V30 10386 N 1003.63 -1.50653 -0.462772 0
M  V30 10387 C 1004.59 -1.69561 -1.54213 0
M  V30 10388 C 1005.59 -0.566106 -1.50505 0
M  V30 10389 O 1006.78 -0.833273 -1.52978 0
M  V30 10390 C 1003.91 -1.72856 -2.93826 0
M  V30 10391 H 1005.11 -2.65867 -1.38761 0
M  V30 10392 H 1002.66 -1.40259 -0.689728 0
M  V30 10393 H 1003.4 -0.78273 -3.14712 0
M  V30 10394 H 1003.18 -2.54919 -2.97924 0
M  V30 10395 H 1004.67 -1.89411 -3.72174 0
M  V30 10396 N 1005.11 0.71652 -1.4037 0
M  V30 10397 C 1006.36 1.47193 -1.37903 0
M  V30 10398 C 1006.67 1.95593 0.0159939 0
M  V30 10399 O 1007.88 2.71009 0.163282 0
M  V30 10400 C 1006.33 2.6606 -2.42363 0
M  V30 10401 C 1005.94 2.24533 -3.87671 0
M  V30 10402 C 1007.68 3.438 -2.49001 0
M  V30 10403 C 1005.59 3.40234 -4.8373 0
M  V30 10404 H 1004.52 0.552811 -0.512753 0
M  V30 10405 H 1007.17 0.779894 -1.66102 0
M  V30 10406 H 1005.55 3.37429 -2.07262 0
M  V30 10407 H 1006.73 1.6059 -4.31911 0
M  V30 10408 H 1005.04 1.59839 -3.845 0
M  V30 10409 H 1007.64 4.29893 -3.17956 0
M  V30 10410 H 1007.98 3.8755 -1.52023 0
M  V30 10411 H 1008.52 2.79474 -2.83088 0
M  V30 10412 H 1005.26 3.01517 -5.82037 0
M  V30 10413 H 1004.78 4.03095 -4.44156 0
M  V30 10414 H 1006.45 4.06312 -5.03507 0
M  V30 10415 N 1006.59 1.25851 0.948643 0
M  V30 10416 C 1007.52 1.09248 2.06367 0
M  V30 10417 C 1008.5 -0.000205168 1.701 0
M  V30 10418 O 1009.68 0.170442 1.93451 0
M  V30 10419 C 1006.81 0.716777 3.39823 0
M  V30 10420 C 1005.77 1.76036 3.90122 0
M  V30 10421 C 1005.09 1.23918 5.20143 0
M  V30 10422 C 1006.39 3.16039 4.15833 0
M  V30 10423 H 1008.09 2.02518 2.20515 0
M  V30 10424 H 1005.63 0.975093 1.05962 0
M  V30 10425 H 1007.59 0.587531 4.17284 0
M  V30 10426 H 1006.31 -0.251626 3.25629 0
M  V30 10427 H 1004.97 1.87815 3.14835 0
M  V30 10428 H 1004.62 0.260836 5.02323 0
M  V30 10429 H 1004.32 1.93673 5.54765 0
M  V30 10430 H 1005.84 1.12245 6.00194 0
M  V30 10431 H 1007.25 3.0738 4.83933 0
M  V30 10432 H 1005.65 3.83317 4.61723 0
M  V30 10433 H 1006.72 3.62652 3.21887 0
M  V30 10434 N 1008.06 -1.15214 1.07534 0
M  V30 10435 C 1009.01 -2.20013 0.697337 0
M  V30 10436 C 1009.98 -1.6314 -0.312168 0
M  V30 10437 O 1011.17 -1.89768 -0.198196 0
M  V30 10438 C 1008.31 -3.44945 0.103293 0
M  V30 10439 C 1007.42 -4.16009 1.1645 0
M  V30 10440 C 1006.55 -5.28496 0.535261 0
M  V30 10441 C 1005.59 -5.9138 1.57912 0
M  V30 10442 N 1004.73 -6.95335 0.972332 0
M  V30 10443 H 1009.57 -2.51698 1.59538 0
M  V30 10444 H 1007.11 -1.2361 0.797431 0
M  V30 10445 H 1009.07 -4.16397 -0.258766 0
M  V30 10446 H 1007.7 -3.13772 -0.758096 0
M  V30 10447 H 1006.75 -3.43035 1.64411 0
M  V30 10448 H 1008.06 -4.58853 1.9559 0
M  V30 10449 H 1007.21 -6.06579 0.120942 0
M  V30 10450 H 1005.95 -4.8685 -0.287889 0
M  V30 10451 H 1004.96 -5.12008 2.0032 0
M  V30 10452 H 1006.18 -6.35103 2.40459 0
M  V30 10453 H 1004.13 -6.55779 0.170119 0
M  V30 10454 H 1004.05 -7.36616 1.70095 0
M  V30 10455 H 1005.31 -7.77312 0.583577 0
M  V30 10456 N 1009.54 -0.859717 -1.32086 0
M  V30 10457 C 1010.49 -0.306042 -2.28762 0
M  V30 10458 C 1011.46 0.589801 -1.55276 0
M  V30 10459 O 1012.64 0.523633 -1.83474 0
M  V30 10460 C 1009.78 0.495256 -3.41528 0
M  V30 10461 C 1008.9 -0.426947 -4.29885 0
M  V30 10462 C 1008.03 0.387474 -5.29785 0
M  V30 10463 C 1007.07 -0.531807 -6.09785 0
M  V30 10464 N 1006.21 0.245741 -7.0167 0
M  V30 10465 H 1011.05 -1.1357 -2.7551 0
M  V30 10466 H 1008.59 -0.571468 -1.35546 0
M  V30 10467 H 1010.54 0.97551 -4.05635 0
M  V30 10468 H 1009.17 1.28969 -2.95917 0
M  V30 10469 H 1008.23 -1.02561 -3.66313 0
M  V30 10470 H 1009.54 -1.13226 -4.85779 0
M  V30 10471 H 1008.69 0.930677 -5.99519 0
M  V30 10472 H 1007.43 1.12612 -4.74521 0
M  V30 10473 H 1006.44 -1.08685 -5.3895 0
M  V30 10474 H 1007.66 -1.26915 -6.67135 0
M  V30 10475 H 1005.61 0.967391 -6.48828 0
M  V30 10476 H 1005.52 -0.400432 -7.54939 0
M  V30 10477 H 1006.79 0.770507 -7.75683 0
M  V30 10478 N 1011.02 1.44971 -0.618145 0
M  V30 10479 C 1012.25 2.06228 -0.123985 0
M  V30 10480 C 1012.66 1.46166 1.20134 0
M  V30 10481 O 1012 0.574099 1.74499 0
M  V30 10482 C 1012.06 3.59413 0.0789098 0
M  V30 10483 C 1011.73 4.41869 -1.16624 0
M  V30 10484 C 1012.72 4.76177 -2.0869 0
M  V30 10485 C 1010.41 4.82453 -1.39802 0
M  V30 10486 C 1012.4 5.49938 -3.22254 0
M  V30 10487 C 1010.09 5.55965 -2.53665 0
M  V30 10488 C 1011.09 5.89626 -3.44718 0
M  V30 10489 O 1010.78 6.61644 -4.56598 0
M  V30 10490 H 1010.51 0.672274 -0.0708822 0
M  V30 10491 H 1013.06 1.87038 -0.848868 0
M  V30 10492 H 1011.29 3.77043 0.8588 0
M  V30 10493 H 1012.98 4.02478 0.52599 0
M  V30 10494 H 1013.75 4.45372 -1.92012 0
M  V30 10495 H 1009.63 4.55681 -0.698245 0
M  V30 10496 H 1013.17 5.76129 -3.93347 0
M  V30 10497 H 1009.07 5.86185 -2.70291 0
M  V30 10498 H 1009.84 6.80103 -4.55414 0
M  V30 10499 N 1012.5 0.357919 1.53482 0
M  V30 10500 C 1013.43 -0.484231 2.28424 0
M  V30 10501 C 1014.41 -1.09046 1.30548 0
M  V30 10502 O 1015.59 -1.10916 1.59409 0
M  V30 10503 C 1012.72 -1.62803 3.06778 0
M  V30 10504 C 1011.68 -1.14943 4.12277 0
M  V30 10505 C 1011 -2.38287 4.78669 0
M  V30 10506 C 1012.3 -0.239627 5.2175 0
M  V30 10507 H 1014 0.140979 2.99068 0
M  V30 10508 H 1011.54 0.069244 1.43833 0
M  V30 10509 H 1013.5 -2.22374 3.57949 0
M  V30 10510 H 1012.22 -2.28036 2.3381 0
M  V30 10511 H 1010.88 -0.576442 3.6204 0
M  V30 10512 H 1010.53 -3.01959 4.02281 0
M  V30 10513 H 1010.23 -2.06939 5.49955 0
M  V30 10514 H 1011.75 -2.98558 5.32631 0
M  V30 10515 H 1013.17 -0.742597 5.6847 0
M  V30 10516 H 1011.56 -0.0173747 6.00097 0
M  V30 10517 H 1012.63 0.720333 4.7952 0
M  V30 10518 N 1013.98 -1.5736 0.0868897 0
M  V30 10519 C 1014.91 -2.16596 -0.872252 0
M  V30 10520 C 1015.89 -1.09706 -1.29995 0
M  V30 10521 O 1017.07 -1.37808 -1.36831 0
M  V30 10522 C 1014.2 -2.73972 -2.1344 0
M  V30 10523 C 1013.16 -3.86163 -1.8456 0
M  V30 10524 C 1012.48 -4.30206 -3.17533 0
M  V30 10525 C 1013.78 -5.0973 -1.13899 0
M  V30 10526 H 1015.48 -2.96995 -0.378738 0
M  V30 10527 H 1013.02 -1.42861 -0.18073 0
M  V30 10528 H 1014.98 -3.14062 -2.80968 0
M  V30 10529 H 1013.7 -1.90817 -2.6506 0
M  V30 10530 H 1012.36 -3.466 -1.19432 0
M  V30 10531 H 1012.01 -3.43951 -3.67024 0
M  V30 10532 H 1011.71 -5.05841 -2.98996 0
M  V30 10533 H 1013.23 -4.72922 -3.86234 0
M  V30 10534 H 1014.64 -5.4704 -1.71523 0
M  V30 10535 H 1013.04 -5.90741 -1.05569 0
M  V30 10536 H 1014.11 -4.8475 -0.120432 0
M  V30 10537 N 1015.45 0.186762 -1.56489 0
M  V30 10538 C 1016.4 1.25084 -1.96104 0
M  V30 10539 C 1017.4 1.4667 -0.847609 0
M  V30 10540 O 1018.6 1.47432 -1.03266 0
M  V30 10541 H 1014.98 0.420121 -0.623701 0
M  V30 10542 H 1016.95 0.889761 -2.84826 0
M  V30 10543 C 1015.7 2.5863 -2.32392 0
M  V30 10544 H 1015.02 2.42838 -3.176 0
M  V30 10545 H 1016.46 3.3181 -2.63967 0
M  V30 10546 C 1014.92 3.16241 -1.16159 0
M  V30 10547 O 1015.45 3.99272 -0.441034 0
M  V30 10548 N 1013.66 2.75106 -0.936206 0
M  V30 10549 H 1013.2 2.0769 -1.5239 0
M  V30 10550 H 1013.16 3.13991 -0.160317 0
M  V30 10551 N 1016.93 1.50896 0.454776 0
M  V30 10552 C 1018.16 1.66759 1.23313 0
M  V30 10553 C 1018.58 0.35722 1.84677 0
M  V30 10554 O 1017.94 -0.680771 1.68033 0
M  V30 10555 C 1017.99 2.77254 2.3057 0
M  V30 10556 O 1017.09 2.39642 3.35627 0
M  V30 10557 H 1016.43 0.556599 0.362068 0
M  V30 10558 H 1018.96 1.97365 0.539274 0
M  V30 10559 H 1018.97 3.0082 2.75629 0
M  V30 10560 H 1017.65 3.72349 1.85281 0
M  V30 10561 H 1016.23 2.26584 2.96165 0
M  V30 10562 N 1018.41 -0.709066 1.40748 0
M  V30 10563 C 1019.64 -1.50313 1.42901 0
M  V30 10564 C 1020.06 -1.88072 0.032213 0
M  V30 10565 O 1019.42 -1.53716 -0.96131 0
M  V30 10566 C 1019.47 -2.75074 2.33166 0
M  V30 10567 O 1018.57 -3.72036 1.7794 0
M  V30 10568 H 1017.91 -0.452934 0.485538 0
M  V30 10569 H 1020.44 -0.872712 1.85054 0
M  V30 10570 H 1020.45 -3.23532 2.48578 0
M  V30 10571 H 1019.13 -2.46927 3.34664 0
M  V30 10572 H 1017.7 -3.30911 1.71908 0
M  V30 10573 N 1019.89 -1.26353 -0.941956 0
M  V30 10574 C 1021.12 -1.14626 -1.72245 0
M  V30 10575 C 1021.53 0.298588 -1.86424 0
M  V30 10576 O 1020.89 1.2045 -1.37106 0
M  V30 10577 C 1020.94 -1.80933 -3.12963 0
M  V30 10578 O 1020.66 -3.19771 -2.99463 0
M  V30 10579 C 1022.16 -1.7515 -4.07231 0
M  V30 10580 H 1019.38 -0.3992 -0.539333 0
M  V30 10581 H 1021.93 -1.66958 -1.1809 0
M  V30 10582 H 1020.08 -1.32541 -3.64021 0
M  V30 10583 H 1020.5 -3.52571 -3.88322 0
M  V30 10584 H 1021.97 -2.26183 -5.03533 0
M  V30 10585 H 1022.45 -0.717855 -4.33294 0
M  V30 10586 H 1023.05 -2.2309 -3.62093 0
M  V30 10587 N 1021.37 1.14642 -1.08144 0
M  V30 10588 C 1022.6 1.89484 -0.830864 0
M  V30 10589 C 1023.01 1.78443 0.616722 0
M  V30 10590 O 1022.37 1.14191 1.42361 0
M  V30 10591 C 1022.42 3.39554 -1.24039 0
M  V30 10592 O 1022.14 3.50286 -2.63119 0
M  V30 10593 C 1023.64 4.31399 -1.02029 0
M  V30 10594 H 1020.86 0.600283 -0.299835 0
M  V30 10595 H 1023.4 1.45204 -1.44001 0
M  V30 10596 H 1021.56 3.81467 -0.675407 0
M  V30 10597 H 1021.97 4.43481 -2.80045 0
M  V30 10598 H 1023.45 5.35079 -1.35625 0
M  V30 10599 H 1023.92 4.39179 0.0428697 0
M  V30 10600 H 1024.53 3.95238 -1.57057 0
M  V30 10601 N 1022.85 0.866709 1.31628 0
M  V30 10602 C 1024.09 0.472185 1.96095 0
M  V30 10603 C 1024.41 -0.979873 1.69286 0
M  V30 10604 O 1025.61 -1.48039 2.27589 0
M  V30 10605 C 1024.07 0.793468 3.51044 0
M  V30 10606 C 1023.68 2.26206 3.86697 0
M  V30 10607 C 1025.42 0.467255 4.21921 0
M  V30 10608 C 1023.33 2.52593 5.34743 0
M  V30 10609 H 1022.26 0.172846 0.733921 0
M  V30 10610 H 1024.91 1.05916 1.49847 0
M  V30 10611 H 1023.29 0.135783 3.95767 0
M  V30 10612 H 1024.47 2.96254 3.52945 0
M  V30 10613 H 1022.78 2.55399 3.28877 0
M  V30 10614 H 1025.38 0.641669 5.30836 0
M  V30 10615 H 1025.72 -0.592065 4.12068 0
M  V30 10616 H 1026.25 1.08134 3.82821 0
M  V30 10617 H 1022.99 3.57196 5.49628 0
M  V30 10618 H 1022.51 1.87136 5.6986 0
M  V30 10619 H 1024.19 2.37156 6.01968 0
M  V30 10620 N 1024.32 -1.44642 0.625825 0
M  V30 10621 C 1025.27 -2.32408 -0.0945221 0
M  V30 10622 C 1026.27 -1.47038 -0.841198 0
M  V30 10623 O 1027.47 -1.63415 -0.754698 0
M  V30 10624 H 1023.85 -0.75038 -0.0493321 0
M  V30 10625 H 1025.82 -2.90922 0.663863 0
M  V30 10626 C 1024.57 -3.30951 -1.06615 0
M  V30 10627 H 1023.89 -3.96648 -0.501021 0
M  V30 10628 H 1025.33 -3.95054 -1.53976 0
M  V30 10629 C 1023.79 -2.59479 -2.14877 0
M  V30 10630 O 1024.32 -2.38974 -3.22885 0
M  V30 10631 N 1022.52 -2.19307 -1.90665 0
M  V30 10632 H 1022.07 -2.36184 -1.02835 0
M  V30 10633 H 1022.03 -1.71811 -2.63303 0
M  V30 10634 N 1025.8 -0.366053 -1.5329 0
M  V30 10635 C 1027.03 0.224236 -2.05681 0
M  V30 10636 C 1027.44 1.42412 -1.23952 0
M  V30 10637 O 1026.8 1.80334 -0.280309 0
M  V30 10638 C 1026.85 0.617266 -3.56191 0
M  V30 10639 O 1026.57 -0.534931 -4.34822 0
M  V30 10640 C 1028.07 1.26589 -4.24841 0
M  V30 10641 H 1025.29 0.0392928 -0.669849 0
M  V30 10642 H 1027.84 -0.52456 -1.97658 0
M  V30 10643 H 1025.99 1.31598 -3.64364 0
M  V30 10644 H 1026.41 -0.217123 -5.2405 0
M  V30 10645 H 1027.88 1.49146 -5.31469 0
M  V30 10646 H 1028.36 2.22633 -3.78591 0
M  V30 10647 H 1028.96 0.6086 -4.20923 0
M  V30 10648 N 1027.28 1.57312 -0.0952337 0
M  V30 10649 C 1028.24 2.12889 0.849161 0
M  V30 10650 C 1029.24 1.05819 1.21075 0
M  V30 10651 O 1030.43 1.31704 1.14016 0
M  V30 10652 C 1027.56 2.6496 2.14498 0
M  V30 10653 H 1028.76 2.97651 0.366566 0
M  V30 10654 H 1026.31 1.55542 0.153762 0
M  V30 10655 H 1027.05 1.83718 2.67242 0
M  V30 10656 H 1026.83 3.43244 1.89542 0
M  V30 10657 H 1028.32 3.07952 2.82056 0
M  V30 10658 N 1028.76 -0.17846 1.56586 0
M  V30 10659 C 1029.71 -1.24042 1.96765 0
M  V30 10660 C 1030.7 -1.46218 0.855375 0
M  V30 10661 O 1031.91 -1.46882 1.04046 0
M  V30 10662 H 1028.28 -0.416807 0.62592 0
M  V30 10663 H 1030.25 -0.874644 2.85294 0
M  V30 10664 C 1029 -2.57394 2.3376 0
M  V30 10665 H 1028.32 -2.41151 3.18883 0
M  V30 10666 H 1029.76 -3.30405 2.65723 0
M  V30 10667 C 1028.22 -3.15621 1.17835 0
M  V30 10668 O 1028.75 -3.99032 0.462202 0
M  V30 10669 N 1026.96 -2.74606 0.950783 0
M  V30 10670 H 1026.51 -2.06878 1.5349 0
M  V30 10671 H 1026.46 -3.13902 0.176967 0
M  V30 10672 N 1030.24 -1.51135 -0.446768 0
M  V30 10673 C 1031.2 -1.71187 -1.52406 0
M  V30 10674 C 1032.2 -0.582037 -1.49897 0
M  V30 10675 O 1033.39 -0.849452 -1.52085 0
M  V30 10676 C 1030.52 -1.75962 -2.91976 0
M  V30 10677 H 1031.71 -2.67324 -1.35934 0
M  V30 10678 H 1029.27 -1.40982 -0.674813 0
M  V30 10679 H 1030 -0.816065 -3.13864 0
M  V30 10680 H 1029.79 -2.58065 -2.95203 0
M  V30 10681 H 1031.28 -1.93347 -3.70144 0
M  V30 10682 N 1031.71 0.701592 -1.41122 0
M  V30 10683 C 1032.99 1.45569 -1.30648 0
M  V30 10684 C 1033.37 2.10988 0.068744 0
M  V30 10685 O 1032.72 2.01228 1.08257 0
M  V30 10686 C 1032.93 2.48003 -2.45551 0
M  V30 10687 C 1034.28 3.13431 -2.86437 0
M  V30 10688 O 1035.3 2.58327 -2.45247 0
M  V30 10689 O 1034.16 4.13221 -3.57646 0
M  V30 10690 H 1031.25 0.648 -0.513834 0
M  V30 10691 H 1033.8 0.73258 -1.53073 0
M  V30 10692 H 1032.57 1.98276 -3.37346 0
M  V30 10693 H 1032.19 3.27832 -2.24971 0
M  V30 10694 N 1033.19 1.2685 0.935242 0
M  V30 10695 C 1034.12 1.03244 2.03509 0
M  V30 10696 C 1035.1 -0.0447323 1.62538 0
M  V30 10697 O 1036.29 0.0988905 1.8824 0
M  V30 10698 C 1033.41 0.564626 3.33961 0
M  V30 10699 C 1032.46 1.63524 3.93906 0
M  V30 10700 S 1033.29 3.22577 4.27439 0
M  V30 10701 C 1034.45 2.77579 5.60982 0
M  V30 10702 H 1034.68 1.96367 2.2322 0
M  V30 10703 H 1032.21 1.10597 1.07739 0
M  V30 10704 H 1034.17 0.301388 4.09392 0
M  V30 10705 H 1032.83 -0.346419 3.12184 0
M  V30 10706 H 1032.03 1.25905 4.8802 0
M  V30 10707 H 1031.63 1.85017 3.25031 0
M  V30 10708 H 1033.92 2.22412 6.39952 0
M  V30 10709 H 1034.86 3.70408 6.03493 0
M  V30 10710 H 1035.27 2.16956 5.21143 0
M  V30 10711 N 1034.67 -1.14067 1.0875 0
M  V30 10712 C 1035.62 -2.21332 0.715195 0
M  V30 10713 C 1036.61 -1.67059 -0.280679 0
M  V30 10714 O 1037.82 -1.79432 -0.142874 0
M  V30 10715 H 1034.19 -0.721126 0.213264 0
M  V30 10716 H 1036.16 -2.50002 1.62916 0
M  V30 10717 C 1034.91 -3.474 0.144401 0
M  V30 10718 H 1034.24 -3.89495 0.901884 0
M  V30 10719 H 1035.68 -4.23928 -0.0782564 0
M  V30 10720 C 1034.14 -3.17787 -1.11862 0
M  V30 10721 O 1034.67 -3.35906 -2.20295 0
M  V30 10722 N 1032.87 -2.71719 -1.03039 0
M  V30 10723 H 1032.42 -2.57175 -0.14793 0
M  V30 10724 H 1032.38 -2.52281 -1.87621 0
M  V30 10725 N 1036.15 -0.873678 -1.31166 0
M  V30 10726 C 1037.37 -0.500242 -2.01277 0
M  V30 10727 C 1037.8 0.900811 -1.65127 0
M  V30 10728 O 1037.16 1.59504 -0.861862 0
M  V30 10729 C 1037.2 -0.668976 -3.5434 0
M  V30 10730 O 1036.31 0.290096 -4.11378 0
M  V30 10731 H 1035.65 -0.198507 -0.633633 0
M  V30 10732 H 1038.18 -1.17811 -1.67277 0
M  V30 10733 H 1038.19 -0.563673 -4.04088 0
M  V30 10734 H 1036.86 -1.69055 -3.79991 0
M  V30 10735 H 1035.44 0.139437 -3.72639 0
M  V30 10736 N 1037.63 1.44308 -0.633487 0
M  V30 10737 C 1038.9 1.95476 -0.0697262 0
M  V30 10738 C 1039.28 1.57539 1.40516 0
M  V30 10739 O 1038.63 0.850632 2.12077 0
M  V30 10740 C 1038.84 3.4775 -0.295093 0
M  V30 10741 C 1040.19 4.24177 -0.189542 0
M  V30 10742 O 1041.21 3.55479 -0.226586 0
M  V30 10743 O 1040.07 5.46415 -0.096479 0
M  V30 10744 H 1037.17 0.826734 0.0209582 0
M  V30 10745 H 1039.71 1.54347 -0.705354 0
M  V30 10746 H 1038.48 3.6842 -1.31841 0
M  V30 10747 H 1038.11 3.95832 0.37456 0
M  V30 10748 N 1039.1 0.374177 1.53094 0
M  V30 10749 C 1040.05 -0.48326 2.27524 0
M  V30 10750 C 1041.05 -1.07606 1.30833 0
M  V30 10751 O 1042.25 -1.01827 1.48429 0
M  V30 10752 H 1038.63 -0.174578 0.731455 0
M  V30 10753 H 1040.6 0.166156 2.97937 0
M  V30 10754 C 1039.35 -1.6065 3.08362 0
M  V30 10755 H 1038.67 -1.15966 3.82612 0
M  V30 10756 H 1040.11 -2.18099 3.63606 0
M  V30 10757 C 1038.57 -2.55381 2.19732 0
M  V30 10758 O 1039.1 -3.58414 1.8139 0
M  V30 10759 N 1037.31 -2.24769 1.84194 0
M  V30 10760 H 1036.85 -1.41018 2.15573 0
M  V30 10761 H 1036.81 -2.88404 1.25181 0
M  V30 10762 N 1040.58 -1.57259 0.103575 0
M  V30 10763 C 1041.55 -2.13337 -0.837859 0
M  V30 10764 C 1042.55 -1.06459 -1.20512 0
M  V30 10765 O 1043.74 -1.32307 -1.13316 0
M  V30 10766 C 1040.87 -2.66093 -2.13089 0
M  V30 10767 H 1042.06 -2.97842 -0.350775 0
M  V30 10768 H 1039.61 -1.55621 -0.145511 0
M  V30 10769 H 1040.35 -1.85133 -2.66264 0
M  V30 10770 H 1040.13 -3.44244 -1.87719 0
M  V30 10771 H 1041.62 -3.09443 -2.80419 0
M  V30 10772 N 1042.06 0.170153 -1.56679 0
M  V30 10773 C 1043.31 0.884902 -1.81252 0
M  V30 10774 C 1043.62 1.83361 -0.681024 0
M  V30 10775 O 1044.83 2.59082 -0.811722 0
M  V30 10776 C 1043.28 1.62408 -3.21172 0
M  V30 10777 C 1042.89 0.718947 -4.42194 0
M  V30 10778 C 1044.64 2.32699 -3.55037 0
M  V30 10779 C 1042.54 1.45843 -5.73135 0
M  V30 10780 H 1041.47 0.33418 -0.675899 0
M  V30 10781 H 1044.12 0.137818 -1.82982 0
M  V30 10782 H 1042.51 2.41596 -3.13763 0
M  V30 10783 H 1043.68 -0.0360521 -4.60786 0
M  V30 10784 H 1042 0.125634 -4.1621 0
M  V30 10785 H 1044.59 2.88621 -4.50114 0
M  V30 10786 H 1044.94 3.08092 -2.79974 0
M  V30 10787 H 1045.47 1.60453 -3.64005 0
M  V30 10788 H 1042.21 0.746799 -6.51232 0
M  V30 10789 H 1041.73 2.18672 -5.58518 0
M  V30 10790 H 1043.41 2.0056 -6.1513 0
M  V30 10791 N 1043.54 1.5137 0.438746 0
M  V30 10792 C 1044.82 1.54508 1.19944 0
M  V30 10793 C 1045.2 0.308525 2.08833 0
M  V30 10794 O 1044.54 -0.706461 2.17305 0
M  V30 10795 C 1044.75 2.85833 2.00251 0
M  V30 10796 C 1046.1 3.37729 2.5734 0
M  V30 10797 O 1047.13 2.87374 2.10463 0
M  V30 10798 O 1045.98 4.25589 3.42836 0
M  V30 10799 H 1043.08 0.621132 0.546007 0
M  V30 10800 H 1045.62 1.63682 0.447931 0
M  V30 10801 H 1044.4 3.67291 1.34955 0
M  V30 10802 H 1044.02 2.79815 2.8247 0
M  V30 10803 N 1045.02 -0.694098 1.41492 0
M  V30 10804 C 1045.98 -1.78976 1.43179 0
M  V30 10805 C 1046.98 -1.57539 0.322191 0
M  V30 10806 O 1048.17 -1.64185 0.582138 0
M  V30 10807 C 1045.3 -3.17368 1.2446 0
M  V30 10808 H 1046.49 -1.78874 2.40716 0
M  V30 10809 H 1044.05 -0.901867 1.27656 0
M  V30 10810 H 1044.78 -3.23109 0.277691 0
M  V30 10811 H 1044.57 -3.3433 2.04856 0
M  V30 10812 H 1046.06 -3.97345 1.28479 0
M  V30 10813 N 1046.49 -1.27344 -0.928501 0
M  V30 10814 C 1047.74 -1.13019 -1.67061 0
M  V30 10815 C 1048.06 0.323614 -1.92904 0
M  V30 10816 O 1049.26 0.587752 -2.65062 0
M  V30 10817 C 1047.72 -1.97471 -3.00887 0
M  V30 10818 C 1047.33 -3.47504 -2.82746 0
M  V30 10819 C 1049.07 -1.91792 -3.78703 0
M  V30 10820 C 1046.98 -4.24158 -4.12122 0
M  V30 10821 H 1045.91 -0.419364 -0.626618 0
M  V30 10822 H 1048.56 -1.51759 -1.03158 0
M  V30 10823 H 1046.94 -1.51576 -3.65843 0
M  V30 10824 H 1048.11 -4.01256 -2.26562 0
M  V30 10825 H 1046.43 -3.54554 -2.18359 0
M  V30 10826 H 1049.03 -2.46339 -4.74575 0
M  V30 10827 H 1049.37 -0.891375 -4.06645 0
M  V30 10828 H 1049.9 -2.35578 -3.20543 0
M  V30 10829 H 1046.64 -5.27333 -3.89359 0
M  V30 10830 H 1046.16 -3.75183 -4.67972 0
M  V30 10831 H 1047.84 -4.33288 -4.80489 0
M  V30 10832 N 1047.97 1.13488 -1.09353 0
M  V30 10833 C 1049.25 1.80998 -0.741559 0
M  V30 10834 C 1049.63 1.96418 0.773505 0
M  V30 10835 O 1048.98 1.53168 1.69563 0
M  V30 10836 C 1049.19 3.16078 -1.47972 0
M  V30 10837 C 1050.54 3.91438 -1.64504 0
M  V30 10838 O 1051.56 3.25699 -1.44218 0
M  V30 10839 O 1050.42 5.0935 -1.98054 0
M  V30 10840 H 1047.51 0.782953 -0.266297 0
M  V30 10841 H 1050.06 1.20422 -1.19569 0
M  V30 10842 H 1048.83 3.00076 -2.51137 0
M  V30 10843 H 1048.45 3.84354 -1.01772 0
M  V30 10844 N 1049.45 0.880621 1.30701 0
M  V30 10845 C 1050.68 0.51094 2.00182 0
M  V30 10846 C 1051.09 -0.903914 1.66211 0
M  V30 10847 O 1050.43 -1.60529 0.893089 0
M  V30 10848 C 1050.49 0.600775 3.54445 0
M  V30 10849 C 1050.16 1.97915 4.1192 0
M  V30 10850 C 1051.16 2.94802 4.28238 0
M  V30 10851 C 1048.84 2.28336 4.47401 0
M  V30 10852 C 1050.83 4.20245 4.79242 0
M  V30 10853 C 1048.52 3.54026 4.98105 0
M  V30 10854 C 1049.52 4.49796 5.13978 0
M  V30 10855 O 1049.21 5.73256 5.63589 0
M  V30 10856 H 1048.94 0.196477 0.646818 0
M  V30 10857 H 1051.49 1.18659 1.67658 0
M  V30 10858 H 1049.72 -0.131832 3.86475 0
M  V30 10859 H 1051.41 0.242996 4.05172 0
M  V30 10860 H 1052.18 2.7261 4.01134 0
M  V30 10861 H 1048.06 1.54564 4.34317 0
M  V30 10862 H 1051.6 4.95003 4.91546 0
M  V30 10863 H 1047.5 3.76057 5.24644 0
M  V30 10864 H 1048.27 5.75577 5.81939 0
M  V30 10865 N 1050.93 -1.4397 0.641131 0
M  V30 10866 C 1051.89 -2.29149 -0.0482243 0
M  V30 10867 C 1052.89 -1.41572 -0.762495 0
M  V30 10868 O 1054.08 -1.63335 -0.605571 0
M  V30 10869 C 1051.21 -3.23375 -1.07896 0
M  V30 10870 H 1052.41 -2.9159 0.70109 0
M  V30 10871 H 1049.96 -1.51048 0.401754 0
M  V30 10872 H 1050.7 -2.65804 -1.85792 0
M  V30 10873 H 1050.48 -3.87926 -0.570597 0
M  V30 10874 H 1051.97 -3.87337 -1.56075 0
M  V30 10875 N 1052.41 -0.382291 -1.52893 0
M  V30 10876 C 1053.34 0.447829 -2.29165 0
M  V30 10877 C 1054.32 1.06956 -1.32267 0
M  V30 10878 O 1055.5 1.08365 -1.61154 0
M  V30 10879 C 1052.63 1.57902 -3.09329 0
M  V30 10880 C 1051.59 1.08369 -4.14053 0
M  V30 10881 C 1050.91 2.30641 -4.82399 0
M  V30 10882 C 1052.21 0.156591 -5.22065 0
M  V30 10883 H 1053.91 -0.188541 -2.98806 0
M  V30 10884 H 1051.45 -0.0921179 -1.43705 0
M  V30 10885 H 1053.41 2.16652 -3.61442 0
M  V30 10886 H 1052.13 2.24287 -2.37409 0
M  V30 10887 H 1050.79 0.518772 -3.62911 0
M  V30 10888 H 1050.44 2.9552 -4.07034 0
M  V30 10889 H 1050.14 1.98163 -5.53177 0
M  V30 10890 H 1051.66 2.90047 -5.37313 0
M  V30 10891 H 1053.08 0.652065 -5.6958 0
M  V30 10892 H 1051.47 -0.0780978 -6.00049 0
M  V30 10893 H 1052.54 -0.796529 -4.78313 0
M  V30 10894 N 1053.89 1.57202 -0.111913 0
M  V30 10895 C 1054.82 2.17957 0.837683 0
M  V30 10896 C 1055.8 1.1176 1.28233 0
M  V30 10897 O 1056.98 1.39967 1.34621 0
M  V30 10898 C 1054.11 2.77333 2.09054 0
M  V30 10899 C 1053.07 3.8905 1.78393 0
M  V30 10900 C 1052.39 4.35203 3.10649 0
M  V30 10901 C 1053.69 5.11477 1.05775 0
M  V30 10902 H 1055.39 2.9756 0.331441 0
M  V30 10903 H 1052.93 1.43131 0.157979 0
M  V30 10904 H 1054.88 3.18492 2.75936 0
M  V30 10905 H 1053.61 1.95009 2.6199 0
M  V30 10906 H 1052.27 3.48456 1.13903 0
M  V30 10907 H 1051.92 3.49747 3.61506 0
M  V30 10908 H 1051.62 5.10534 2.9091 0
M  V30 10909 H 1053.14 4.79007 3.78661 0
M  V30 10910 H 1054.55 5.497 1.62798 0
M  V30 10911 H 1052.95 5.92346 0.961573 0
M  V30 10912 H 1054.02 4.84881 0.043297 0
M  V30 10913 N 1055.36 -0.161842 1.56767 0
M  V30 10914 C 1056.31 -1.2002 1.97139 0
M  V30 10915 C 1057.28 -1.43486 0.836713 0
M  V30 10916 O 1058.47 -1.56069 1.0976 0
M  V30 10917 C 1055.61 -2.53228 2.34456 0
M  V30 10918 C 1054.72 -2.37062 3.61145 0
M  V30 10919 C 1053.85 -3.63202 3.87631 0
M  V30 10920 C 1052.89 -3.42008 5.07638 0
M  V30 10921 N 1052.03 -4.60242 5.30209 0
M  V30 10922 H 1056.87 -0.848918 2.85653 0
M  V30 10923 H 1054.41 -0.407753 1.41336 0
M  V30 10924 H 1056.36 -3.30879 2.54116 0
M  V30 10925 H 1054.99 -2.86333 1.4904 0
M  V30 10926 H 1054.05 -1.50539 3.49345 0
M  V30 10927 H 1055.36 -2.17353 4.48953 0
M  V30 10928 H 1054.51 -4.49285 4.0771 0
M  V30 10929 H 1053.25 -3.85899 2.98216 0
M  V30 10930 H 1052.26 -2.54312 4.87448 0
M  V30 10931 H 1053.48 -3.20724 5.98593 0
M  V30 10932 H 1051.43 -4.8314 4.43747 0
M  V30 10933 H 1051.34 -4.43481 6.12259 0
M  V30 10934 H 1052.61 -5.47581 5.54775 0
M  V30 10935 N 1056.84 -1.516 -0.430713 0
M  V30 10936 C 1057.79 -1.73392 -1.52328 0
M  V30 10937 C 1058.76 -0.575758 -1.55802 0
M  V30 10938 O 1059.94 -0.810931 -1.72709 0
M  V30 10939 C 1057.08 -1.87092 -2.89984 0
M  V30 10940 C 1056.2 -3.14668 -2.95987 0
M  V30 10941 C 1055.33 -3.18923 -4.24807 0
M  V30 10942 C 1054.37 -4.40787 -4.24703 0
M  V30 10943 N 1053.51 -4.42556 -5.45059 0
M  V30 10944 H 1058.35 -2.6665 -1.33048 0
M  V30 10945 H 1055.88 -1.32146 -0.646207 0
M  V30 10946 H 1057.84 -1.93017 -3.69865 0
M  V30 10947 H 1056.47 -0.972363 -3.07807 0
M  V30 10948 H 1055.52 -3.1802 -2.08728 0
M  V30 10949 H 1056.84 -4.04562 -2.91772 0
M  V30 10950 H 1055.99 -3.23801 -5.13067 0
M  V30 10951 H 1054.73 -2.2693 -4.31688 0
M  V30 10952 H 1053.73 -4.36079 -3.34836 0
M  V30 10953 H 1054.96 -5.34053 -4.19481 0
M  V30 10954 H 1052.91 -3.53435 -5.52648 0
M  V30 10955 H 1052.82 -5.26267 -5.42751 0
M  V30 10956 H 1054.09 -4.51634 -6.35332 0
M  V30 10957 N 1058.32 0.686584 -1.41858 0
M  V30 10958 C 1059.28 1.78214 -1.44126 0
M  V30 10959 C 1060.28 1.57366 -0.330541 0
M  V30 10960 O 1061.47 1.63874 -0.590837 0
M  V30 10961 C 1058.6 3.16704 -1.26142 0
M  V30 10962 H 1059.8 1.77594 -2.41661 0
M  V30 10963 H 1057.35 0.895085 -1.28132 0
M  V30 10964 H 1058.09 3.22957 -0.294823 0
M  V30 10965 H 1057.87 3.33238 -2.06627 0
M  V30 10966 H 1059.36 3.96658 -1.30584 0
M  V30 10967 N 1059.8 1.27835 0.921735 0
M  V30 10968 C 1060.73 1.136 2.04003 0
M  V30 10969 C 1061.71 0.0358756 1.70062 0
M  V30 10970 O 1062.89 0.211438 1.93046 0
M  V30 10971 C 1060.02 0.788697 3.38226 0
M  V30 10972 C 1058.98 1.84272 3.863 0
M  V30 10973 C 1058.3 1.34923 5.17397 0
M  V30 10974 C 1059.6 3.24788 4.09035 0
M  V30 10975 H 1061.3 2.07149 2.1617 0
M  V30 10976 H 1058.84 0.997349 1.0387 0
M  V30 10977 H 1060.8 0.675911 4.15944 0
M  V30 10978 H 1059.52 -0.182499 3.2609 0
M  V30 10979 H 1058.18 1.94451 3.1078 0
M  V30 10980 H 1057.83 0.367328 5.01657 0
M  V30 10981 H 1057.53 2.05397 5.50532 0
M  V30 10982 H 1059.05 1.24951 5.97678 0
M  V30 10983 H 1060.47 3.17575 4.77304 0
M  V30 10984 H 1058.86 3.93025 4.53488 0
M  V30 10985 H 1059.93 3.69398 3.14122 0
M  V30 10986 N 1061.28 -1.12907 1.09954 0
M  V30 10987 C 1062.21 -2.20585 0.765799 0
M  V30 10988 C 1063.19 -1.68117 -0.258989 0
M  V30 10989 O 1064.37 -1.93792 -0.125853 0
M  V30 10990 C 1061.5 -3.46772 0.191435 0
M  V30 10991 C 1060.46 -4.12363 1.14635 0
M  V30 10992 C 1059.78 -5.3294 0.433426 0
M  V30 10993 C 1061.08 -4.59073 2.49096 0
M  V30 10994 H 1062.78 -2.48759 1.66612 0
M  V30 10995 H 1060.32 -1.19563 0.802534 0
M  V30 10996 H 1062.27 -4.21365 -0.0541535 0
M  V30 10997 H 1061 -3.18011 -0.744101 0
M  V30 10998 H 1059.66 -3.39744 1.37731 0
M  V30 10999 H 1059.31 -5.00444 -0.506422 0
M  V30 11000 H 1059.01 -5.77772 1.07018 0
M  V30 11001 H 1060.53 -6.10284 0.196267 0
M  V30 11002 H 1061.94 -5.25063 2.30177 0
M  V30 11003 H 1060.34 -5.14665 3.0861 0
M  V30 11004 H 1061.41 -3.73313 3.0946 0
M  V30 11005 N 1062.75 -0.88754 -1.30232 0
M  V30 11006 C 1063.98 -0.521562 -2.00735 0
M  V30 11007 C 1064.4 0.883247 -1.66073 0
M  V30 11008 O 1063.76 1.58581 -0.878731 0
M  V30 11009 C 1063.81 -0.706521 -3.53611 0
M  V30 11010 O 1062.91 0.246447 -4.11663 0
M  V30 11011 H 1062.25 -0.205216 -0.631492 0
M  V30 11012 H 1064.78 -1.19579 -1.66018 0
M  V30 11013 H 1064.79 -0.606501 -4.03467 0
M  V30 11014 H 1063.47 -1.73076 -3.78177 0
M  V30 11015 H 1062.05 0.0999062 -3.72766 0
M  V30 11016 N 1064.23 1.43628 -0.648757 0
M  V30 11017 C 1065.48 2.01083 -0.157692 0
M  V30 11018 C 1065.79 1.51756 1.23408 0
M  V30 11019 O 1067 2.01455 1.82012 0
M  V30 11020 C 1065.46 3.59157 -0.231118 0
M  V30 11021 C 1065.06 4.17478 -1.6253 0
M  V30 11022 C 1066.81 4.24016 0.202573 0
M  V30 11023 C 1064.72 5.67832 -1.6529 0
M  V30 11024 H 1063.65 0.751977 -0.0551897 0
M  V30 11025 H 1066.3 1.64648 -0.810139 0
M  V30 11026 H 1064.68 3.92972 0.488755 0
M  V30 11027 H 1065.85 3.9517 -2.37017 0
M  V30 11028 H 1064.17 3.64973 -2.00459 0
M  V30 11029 H 1066.76 5.34319 0.20174 0
M  V30 11030 H 1067.11 3.97616 1.23319 0
M  V30 11031 H 1067.64 3.95068 -0.465398 0
M  V30 11032 H 1064.38 5.98994 -2.66246 0
M  V30 11033 H 1063.9 5.92209 -0.951217 0
M  V30 11034 H 1065.58 6.3179 -1.39465 0
M  V30 11035 N 1065.71 0.390394 1.52688 0
M  V30 11036 C 1066.64 -0.479319 2.24132 0
M  V30 11037 C 1067.66 -1.0258 1.26416 0
M  V30 11038 O 1068.84 -0.927943 1.52484 0
M  V30 11039 C 1065.94 -1.67711 2.94493 0
M  V30 11040 C 1065.12 -1.2578 4.18925 0
M  V30 11041 C 1064.18 -2.3204 4.72275 0
M  V30 11042 O 1063.2 -1.93402 5.35336 0
M  V30 11043 N 1064.4 -3.63967 4.52226 0
M  V30 11044 H 1067.17 0.132777 2.99406 0
M  V30 11045 H 1064.73 0.216807 1.60442 0
M  V30 11046 H 1066.72 -2.38323 3.27084 0
M  V30 11047 H 1065.29 -2.19552 2.22521 0
M  V30 11048 H 1064.51 -0.380528 3.92359 0
M  V30 11049 H 1065.8 -0.954329 4.9977 0
M  V30 11050 H 1065.2 -3.98119 4.01892 0
M  V30 11051 H 1063.76 -4.30611 4.89303 0
M  V30 11052 O 1067.23 -1.59382 0.260669 0
M  V30 11053 H 1067.92 -1.91167 -0.312205 0
M  V30 END ATOM
M  V30 BEGIN BOND
M  V30 END BOND
M  V30 END CTAB
M  END
$$$$
