drugbank_target|P49773 Histidine triad nucleotide-binding protein 1 (DB00131; DB01972; DB02162; DB02183; DB03349)
 OpenBabel12092119543D

  0  0  0     0  0            999 V3000
M  V30 BEGIN CTAB
M  V30 COUNTS 1942 1964 0 0 0
M  V30 BEGIN ATOM
M  V30 1 H -0.908 1.98254 -0.117106 0
M  V30 2 N 0 1.576 0 0
M  V30 3 C 0.933 2.03868 1.02534 0
M  V30 4 C 1.911 0.928543 1.3348 0
M  V30 5 O 3.095 1.19667 1.45644 0
M  V30 6 C 0.222 2.43627 2.35294 0
M  V30 7 C -0.732 3.65373 2.2001 0
M  V30 8 S 0.101 5.13292 1.52614 0
M  V30 9 C 1.257 5.56322 2.86805 0
M  V30 10 H 1.49 2.90518 0.631377 0
M  V30 11 H -0.977 1.52953 0.210867 0
M  V30 12 H 0.981 2.67203 3.11629 0
M  V30 13 H -0.358 1.57376 2.7183 0
M  V30 14 H -1.165 3.90944 3.18086 0
M  V30 15 H -1.563 3.418 1.51819 0
M  V30 16 H 0.729 5.58782 3.83104 0
M  V30 17 H 1.672 6.56266 2.65933 0
M  V30 18 H 2.08 4.83886 2.90714 0
M  V30 19 N 1.4781 -0.272755 1.55222 0
M  V30 20 C 2.4411 -1.32041 1.87344 0
M  V30 21 C 3.4411 -1.42342 0.74803 0
M  V30 22 O 4.6311 -1.41488 1.0162 0
M  V30 23 C 1.7631 -2.70173 2.07893 0
M  V30 24 H 2.9561 -1.04789 2.80997 0
M  V30 25 H 0.5091 -0.51083 1.47717 0
M  V30 26 H 1.2441 -3.02605 1.16622 0
M  V30 27 H 1.0291 -2.64082 2.89833 0
M  V30 28 H 2.5191 -3.45869 2.34017 0
M  V30 29 N 2.9562 -1.48159 -0.537278 0
M  V30 30 C 4.2332 -1.46291 -1.29839 0
M  V30 31 C 4.6132 -0.170613 -2.10409 0
M  V30 32 O 3.9612 0.847746 -2.12192 0
M  V30 33 C 4.1712 -2.72055 -2.18603 0
M  V30 34 C 5.5192 -3.20087 -2.7898 0
M  V30 35 O 6.5432 -2.72921 -2.28894 0
M  V30 36 O 5.4022 -4.02138 -3.70064 0
M  V30 37 H 2.4962 -0.583906 -0.585647 0
M  V30 38 H 5.0422 -1.60384 -0.554534 0
M  V30 39 H 3.8142 -3.57628 -1.58801 0
M  V30 40 H 3.4372 -2.60646 -3.00249 0
M  V30 41 N 4.4343 0.785586 -1.36625 0
M  V30 42 C 5.3443 1.92964 -1.33425 0
M  V30 43 C 6.3603 1.72394 -0.235851 0
M  V30 44 O 7.5363 1.95866 -0.468878 0
M  V30 45 C 4.6013 3.27884 -1.12662 0
M  V30 46 C 3.6623 3.61204 -2.32013 0
M  V30 47 C 2.8953 4.89687 -2.12231 0
M  V30 48 O 3.1183 5.59704 -1.09945 0
M  V30 49 O 2.0523 5.21752 -3.00098 0
M  V30 50 H 5.8783 1.98613 -2.29753 0
M  V30 51 H 3.4633 0.926384 -1.17211 0
M  V30 52 H 5.3453 4.08614 -1.03016 0
M  V30 53 H 4.0203 3.23118 -0.193991 0
M  V30 54 H 2.9273 2.80765 -2.47228 0
M  V30 55 H 4.2603 3.70698 -3.23796 0
M  V30 56 N 5.9124 1.20967 1.01018 0
M  V30 57 C 7.1614 1.01796 1.74128 0
M  V30 58 C 7.4744 -0.449691 1.90361 0
M  V30 59 O 8.6804 -0.76068 2.60626 0
M  V30 60 C 7.1364 1.7727 3.13215 0
M  V30 61 C 6.7444 3.28171 3.04972 0
M  V30 62 C 8.4884 1.66489 3.90489 0
M  V30 63 C 6.3954 3.96156 4.39107 0
M  V30 64 H 5.3254 0.377276 0.652824 0
M  V30 65 H 7.9764 1.44651 1.12909 0
M  V30 66 H 6.3584 1.27205 3.75013 0
M  V30 67 H 7.5324 3.85499 2.52443 0
M  V30 68 H 5.8474 3.39437 2.41188 0
M  V30 69 H 8.4444 2.14617 4.89738 0
M  V30 70 H 8.7874 0.6222 4.11624 0
M  V30 71 H 9.3204 2.14003 3.35332 0
M  V30 72 H 6.0594 5.00604 4.23174 0
M  V30 73 H 5.5794 3.43617 4.91617 0
M  V30 74 H 7.2584 4.00774 5.07926 0
M  V30 75 N 7.3905 -1.2043 1.01659 0
M  V30 76 C 8.3535 -2.21433 0.591616 0
M  V30 77 C 9.3535 -1.57203 -0.338226 0
M  V30 78 O 10.5435 -1.73737 -0.126918 0
M  V30 79 C 7.6755 -3.40628 -0.136058 0
M  V30 80 H 8.8685 -2.60545 1.48514 0
M  V30 81 H 6.4215 -1.33893 0.806379 0
M  V30 82 H 7.1565 -3.07019 -1.04449 0
M  V30 83 H 6.9415 -3.88475 0.531917 0
M  V30 84 H 8.4315 -4.15475 -0.420735 0
M  V30 85 N 8.8686 -0.792821 -1.36206 0
M  V30 86 C 9.8156 -0.191653 -2.30003 0
M  V30 87 C 10.7856 0.666453 -1.52143 0
M  V30 88 O 11.9706 0.61442 -1.80636 0
M  V30 89 C 9.1106 0.664848 -3.38635 0
M  V30 90 C 8.2236 -0.212175 -4.31479 0
M  V30 91 C 7.3586 0.651022 -5.27196 0
M  V30 92 C 6.3976 -0.227247 -6.11678 0
M  V30 93 N 5.5346 0.595127 -6.99573 0
M  V30 94 H 10.3746 -0.996978 -2.80828 0
M  V30 95 H 7.9116 -0.503206 -1.38225 0
M  V30 96 H 9.8696 1.17645 -4.00269 0
M  V30 97 H 8.4996 1.43557 -2.89122 0
M  V30 98 H 7.5516 -0.841777 -3.70969 0
M  V30 99 H 8.8636 -0.888751 -4.90818 0
M  V30 100 H 8.0176 1.2283 -5.94136 0
M  V30 101 H 6.7566 1.36121 -4.68319 0
M  V30 102 H 5.7616 -0.816904 -5.43697 0
M  V30 103 H 6.9866 -0.93509 -6.72631 0
M  V30 104 H 4.9326 1.28955 -6.432 0
M  V30 105 H 4.8496 -0.0236952 -7.55996 0
M  V30 106 H 6.1176 1.15613 -7.70879 0
M  V30 107 N 10.3467 1.47872 -0.545128 0
M  V30 108 C 11.3097 2.28337 0.198717 0
M  V30 109 C 12.3097 1.36255 0.853888 0
M  V30 110 O 13.4997 1.59003 0.711606 0
M  V30 111 C 10.6317 3.15585 1.28915 0
M  V30 112 H 11.8247 2.95567 -0.507941 0
M  V30 113 H 9.3777 1.53362 -0.301616 0
M  V30 114 H 10.1127 2.53019 2.02859 0
M  V30 115 H 9.8977 3.83337 0.824309 0
M  V30 116 H 11.3877 3.76243 1.81194 0
M  V30 117 N 11.8248 0.280983 1.55075 0
M  V30 118 C 12.7568 -0.637268 2.20163 0
M  V30 119 C 13.7698 -1.11298 1.18813 0
M  V30 120 O 14.9588 -1.03388 1.4551 0
M  V30 121 C 12.0588 -1.88199 2.81841 0
M  V30 122 C 11.2318 -1.55211 4.08936 0
M  V30 123 C 10.2908 -2.64991 4.54606 0
M  V30 124 O 9.3168 -2.30929 5.2025 0
M  V30 125 N 10.5188 -3.95161 4.25238 0
M  V30 126 H 13.2838 -0.0801694 2.99593 0
M  V30 127 H 10.8448 0.102329 1.61576 0
M  V30 128 H 12.8368 -2.60948 3.09335 0
M  V30 129 H 11.4068 -2.34799 2.06369 0
M  V30 130 H 10.6268 -0.658185 3.88666 0
M  V30 131 H 11.9148 -1.30681 4.91732 0
M  V30 132 H 11.3128 -4.25653 3.72607 0
M  V30 133 H 9.8698 -4.6427 4.5749 0
M  V30 134 N 13.3029 -1.57598 0.00835791 0
M  V30 135 C 14.5489 -1.91211 -0.675732 0
M  V30 136 C 14.8819 -0.883139 -1.72958 0
M  V30 137 O 14.1569 0.097016 -1.94258 0
M  V30 138 C 14.4399 -3.35379 -1.31123 0
M  V30 139 C 14.2929 -4.48999 -0.268356 0
M  V30 140 C 15.6119 -3.7912 -2.23508 0
M  V30 141 H 12.7309 -0.695374 -0.244179 0
M  V30 142 H 15.3729 -1.89901 0.0613655 0
M  V30 143 H 13.5229 -3.36626 -1.93946 0
M  V30 144 H 15.1949 -4.59887 0.360844 0
M  V30 145 H 13.4379 -4.31873 0.408482 0
M  V30 146 H 14.1089 -5.46851 -0.752218 0
M  V30 147 H 16.5849 -3.79477 -1.70693 0
M  V30 148 H 15.4609 -4.80729 -2.64936 0
M  V30 149 H 15.7219 -3.13455 -3.11766 0
M  V30 150 N 14.781 0.264519 -1.55364 0
M  V30 151 C 15.744 1.31046 -1.88042 0
M  V30 152 C 16.744 1.41943 -0.755569 0
M  V30 153 O 17.934 1.40947 -1.02369 0
M  V30 154 C 15.066 2.69067 -2.09323 0
M  V30 155 H 16.259 1.03297 -2.81549 0
M  V30 156 H 13.812 0.502989 -1.47986 0
M  V30 157 H 14.547 3.01982 -1.18226 0
M  V30 158 H 14.332 2.62542 -2.91229 0
M  V30 159 H 15.822 3.44623 -2.35848 0
M  V30 160 N 16.2591 1.48442 0.529413 0
M  V30 161 C 17.6751 1.34575 0.858004 0
M  V30 162 C 17.8751 0.3572 1.98309 0
M  V30 163 O 16.9311 -0.221379 2.51528 0
M  V30 164 C 18.2441 2.74617 1.22499 0
M  V30 165 C 19.7921 2.83109 1.33484 0
M  V30 166 C 20.2671 4.23854 1.73526 0
M  V30 167 N 21.7581 4.2653 1.80628 0
M  V30 168 C 22.4931 5.32372 2.12997 0
M  V30 169 N 21.9891 6.48491 2.43786 0
M  V30 170 N 23.7821 5.19766 2.14008 0
M  V30 171 H 15.9331 2.1133 -0.212925 0
M  V30 172 H 18.1961 0.947439 -0.0326199 0
M  V30 173 H 17.9021 3.4852 0.471905 0
M  V30 174 H 17.7761 3.08177 2.17501 0
M  V30 175 H 20.1631 2.09462 2.0787 0
M  V30 176 H 20.2441 2.53168 0.366027 0
M  V30 177 H 19.8881 4.98018 0.997013 0
M  V30 178 H 19.8181 4.5124 2.71459 0
M  V30 179 H 22.3091 3.42772 1.59108 0
M  V30 180 H 22.6221 7.24993 2.67592 0
M  V30 181 H 20.9671 6.51765 2.41304 0
M  V30 182 H 24.1581 4.28066 1.89412 0
M  V30 183 H 24.3311 6.02354 2.38902 0
M  V30 184 N 17.7372 -0.778329 1.37039 0
M  V30 185 C 19.1482 -1.35421 1.28523 0
M  V30 186 C 19.4992 -1.96075 -0.0700901 0
M  V30 187 O 18.6242 -1.93352 -0.971801 0
M  V30 188 C 19.2192 -2.46211 2.32735 0
M  V30 189 C 17.7782 -2.99585 2.27873 0
M  V30 190 C 16.9252 -1.72748 2.16918 0
M  V30 191 H 19.8762 -0.5791 1.47757 0
M  V30 192 H 19.8972 -3.2552 1.9702 0
M  V30 193 H 19.4092 -2.02036 3.31365 0
M  V30 194 H 17.5102 -3.48152 1.32745 0
M  V30 195 H 17.6232 -3.55646 3.21018 0
M  V30 196 H 15.9872 -1.95416 1.63354 0
M  V30 197 H 16.7702 -1.30686 3.17452 0
M  V30 198 N 19.2153 -1.21501 -1.00376 0
M  V30 199 C 20.4633 -1.03095 -1.73827 0
M  V30 200 C 20.7843 0.436341 -1.90055 0
M  V30 201 O 20.0543 1.31466 -1.45236 0
M  V30 202 H 18.6343 -0.378487 -0.644016 0
M  V30 203 H 21.2963 -1.52831 -1.20949 0
M  V30 204 H 20.3923 -1.49991 -2.73695 0
M  V30 205 N 20.6934 1.19889 -1.02296 0
M  V30 206 C 21.9414 1.89046 -0.714558 0
M  V30 207 C 22.2624 1.79636 0.758681 0
M  V30 208 O 21.5324 1.20292 1.54618 0
M  V30 209 H 20.1124 0.699802 -0.261317 0
M  V30 210 H 22.7744 1.45574 -1.29592 0
M  V30 211 H 21.8704 2.95524 -1.0036 0
M  V30 212 N 22.1715 0.800033 1.35784 0
M  V30 213 C 23.4485 0.30088 1.93272 0
M  V30 214 C 23.8285 -1.20857 1.73081 0
M  V30 215 O 23.1765 -2.00502 1.09596 0
M  V30 216 C 23.3865 0.70511 3.41803 0
M  V30 217 C 24.7345 0.690871 4.18942 0
M  V30 218 O 25.7585 0.646244 3.50289 0
M  V30 219 O 24.6175 0.74332 5.41421 0
M  V30 220 H 21.7115 0.0771605 0.823393 0
M  V30 221 H 24.2575 0.88329 1.449 0
M  V30 222 H 23.0295 1.74571 3.50201 0
M  V30 223 H 22.6525 0.0971541 3.97481 0
M  V30 224 N 23.6496 -1.47581 0.552962 0
M  V30 225 C 24.8776 -2.06875 0.0320556 0
M  V30 226 C 25.2926 -1.40625 -1.25976 0
M  V30 227 O 24.6496 -0.501349 -1.75479 0
M  V30 228 C 24.7006 -3.61092 -0.17167 0
M  V30 229 O 24.4216 -4.24858 1.06899 0
M  V30 230 C 25.9226 -4.37242 -0.730344 0
M  V30 231 H 23.1426 -0.669561 0.043915 0
M  V30 232 H 25.6866 -1.89646 0.765163 0
M  V30 233 H 23.8416 -3.7785 -0.854894 0
M  V30 234 H 24.2556 -5.17334 0.864059 0
M  V30 235 H 25.7296 -5.45842 -0.822203 0
M  V30 236 H 26.2066 -4.03235 -1.74064 0
M  V30 237 H 26.8126 -4.25219 -0.0829543 0
M  V30 238 N 25.1277 -0.289203 -1.54924 0
M  V30 239 C 26.3767 0.324231 -1.99077 0
M  V30 240 C 26.6897 1.5591 -1.18117 0
M  V30 241 O 27.8957 2.24637 -1.52481 0
M  V30 242 C 26.3517 0.628209 -3.54375 0
M  V30 243 C 25.9597 -0.587647 -4.44129 0
M  V30 244 C 27.7037 1.20349 -4.07083 0
M  V30 245 C 25.6107 -0.257475 -5.90839 0
M  V30 246 H 24.5407 0.124924 -0.743579 0
M  V30 247 H 27.1917 -0.396063 -1.79175 0
M  V30 248 H 25.5737 1.40778 -3.70132 0
M  V30 249 H 26.7477 -1.36418 -4.40144 0
M  V30 250 H 25.0627 -1.08074 -4.0213 0
M  V30 251 H 27.6597 1.46456 -5.14252 0
M  V30 252 H 28.0027 2.14195 -3.56968 0
M  V30 253 H 28.5357 0.485889 -3.94821 0
M  V30 254 H 25.2747 -1.16419 -6.45079 0
M  V30 255 H 24.7947 0.482018 -5.9786 0
M  V30 256 H 26.4737 0.145238 -6.46837 0
M  V30 257 N 26.6058 1.57591 -0.0167156 0
M  V30 258 C 27.8528 1.91283 0.664597 0
M  V30 259 C 28.1808 0.891949 1.72842 0
M  V30 260 O 27.4358 -0.100931 1.9544 0
M  V30 261 C 27.7348 3.3172 1.33029 0
M  V30 262 C 27.4008 4.4914 0.398047 0
M  V30 263 C 26.0628 4.80992 0.141421 0
M  V30 264 C 28.4148 5.20634 -0.242825 0
M  V30 265 C 25.7428 5.81703 -0.764092 0
M  V30 266 C 28.0948 6.22311 -1.13632 0
M  V30 267 C 26.7588 6.52611 -1.40196 0
M  V30 268 H 26.0288 0.699956 0.243193 0
M  V30 269 H 28.6758 1.9135 -0.0758267 0
M  V30 270 H 26.9808 3.27856 2.14517 0
M  V30 271 H 28.6778 3.55055 1.86379 0
M  V30 272 H 25.2678 4.24262 0.608238 0
M  V30 273 H 29.4518 4.96267 -0.0576019 0
M  V30 274 H 24.7078 6.03532 -0.977732 0
M  V30 275 H 28.8818 6.76834 -1.63917 0
M  V30 276 H 26.5088 7.30467 -2.10529 0
M  V30 277 N 28.0839 -0.256276 1.55502 0
M  V30 278 C 29.3319 -0.983672 1.76545 0
M  V30 279 C 29.6529 -1.86206 0.578982 0
M  V30 280 O 28.9229 -1.91656 -0.405577 0
M  V30 281 H 27.5029 -0.366191 0.651086 0
M  V30 282 H 30.1649 -0.276479 1.92929 0
M  V30 283 H 29.2609 -1.61087 2.67315 0
M  V30 284 N 29.562 -1.4872 -0.521534 0
M  V30 285 C 30.509 -1.63871 -1.62527 0
M  V30 286 C 31.479 -0.480559 -1.58996 0
M  V30 287 O 32.664 -0.705085 -1.77294 0
M  V30 288 C 29.804 -1.69227 -3.00759 0
M  V30 289 C 28.917 -2.96207 -3.14461 0
M  V30 290 C 28.052 -2.92671 -4.43303 0
M  V30 291 C 27.091 -4.14318 -4.50563 0
M  V30 292 N 26.228 -4.0881 -5.70805 0
M  V30 293 H 31.068 -2.58123 -1.48918 0
M  V30 294 H 28.605 -1.28 -0.724878 0
M  V30 295 H 30.563 -1.70314 -3.80853 0
M  V30 296 H 29.193 -0.784586 -3.1312 0
M  V30 297 H 28.245 -3.04826 -2.27564 0
M  V30 298 H 29.557 -3.86192 -3.15686 0
M  V30 299 H 28.711 -2.92206 -5.31696 0
M  V30 300 H 27.45 -2.00429 -4.44612 0
M  V30 301 H 26.455 -4.15049 -3.60575 0
M  V30 302 H 27.68 -5.07729 -4.50986 0
M  V30 303 H 25.626 -3.19394 -5.72995 0
M  V30 304 H 25.543 -4.92509 -5.7356 0
M  V30 305 H 26.811 -4.12418 -6.61462 0
M  V30 306 N 31.0401 0.771051 -1.3745 0
M  V30 307 C 32.2891 1.52491 -1.3202 0
M  V30 308 C 32.6021 1.9538 0.0927347 0
M  V30 309 O 33.8081 2.70159 0.269503 0
M  V30 310 C 32.2641 2.75366 -2.31736 0
M  V30 311 C 31.8721 2.39573 -3.78562 0
M  V30 312 C 33.6161 3.53307 -2.35318 0
M  V30 313 C 31.5231 3.58954 -4.70007 0
M  V30 314 H 30.4531 0.572506 -0.490666 0
M  V30 315 H 33.1041 0.844474 -1.62914 0
M  V30 316 H 31.4861 3.45303 -1.93861 0
M  V30 317 H 32.6601 1.77415 -4.25277 0
M  V30 318 H 30.9751 1.74805 -3.77932 0
M  V30 319 H 33.5721 4.42039 -3.00842 0
M  V30 320 H 33.9151 3.93217 -1.36698 0
M  V30 321 H 34.4481 2.90367 -2.71904 0
M  V30 322 H 31.1871 3.24125 -5.69757 0
M  V30 323 H 30.7071 4.20214 -4.27996 0
M  V30 324 H 32.3861 4.25758 -4.87175 0
M  V30 325 N 32.5182 1.22032 0.997298 0
M  V30 326 C 33.7672 1.03637 1.73038 0
M  V30 327 C 34.0802 -0.429475 1.90827 0
M  V30 328 O 35.2862 -0.732995 2.61418 0
M  V30 329 C 33.7422 1.80582 3.11317 0
M  V30 330 C 33.3502 3.31387 3.01474 0
M  V30 331 C 35.0942 1.70621 3.88701 0
M  V30 332 C 33.0012 4.00791 4.3488 0
M  V30 333 H 31.9312 0.384179 0.648785 0
M  V30 334 H 34.5822 1.4584 1.11368 0
M  V30 335 H 32.9642 1.31175 3.73643 0
M  V30 336 H 34.1382 3.88155 2.4834 0
M  V30 337 H 32.4532 3.41976 2.37575 0
M  V30 338 H 35.0502 2.19799 4.87434 0
M  V30 339 H 35.3932 0.665823 4.10941 0
M  V30 340 H 35.9262 2.17547 3.33044 0
M  V30 341 H 32.6652 5.05064 4.1784 0
M  V30 342 H 32.1852 3.48811 4.87945 0
M  V30 343 H 33.8642 4.06139 5.03647 0
M  V30 344 N 33.9963 -1.19345 1.0293 0
M  V30 345 C 35.4123 -1.41069 0.746446 0
M  V30 346 C 35.6123 -1.90078 -0.668776 0
M  V30 347 O 34.6683 -2.0778 -1.4347 0
M  V30 348 C 35.9813 -2.42141 1.78292 0
M  V30 349 C 37.5293 -2.55887 1.80252 0
M  V30 350 C 38.0043 -3.60214 2.8286 0
M  V30 351 N 39.4953 -3.67711 2.81679 0
M  V30 352 C 40.2303 -4.48128 3.57727 0
M  V30 353 N 39.7263 -5.32248 4.43491 0
M  V30 354 N 41.5193 -4.42782 3.46267 0
M  V30 355 H 33.6703 -0.858536 1.94275 0
M  V30 356 H 35.9333 -0.439541 0.839945 0
M  V30 357 H 35.6393 -2.13155 2.79746 0
M  V30 358 H 35.5133 -3.41323 1.60557 0
M  V30 359 H 37.9003 -2.84196 0.794757 0
M  V30 360 H 37.9813 -1.56858 2.02062 0
M  V30 361 H 37.6253 -3.32647 3.83807 0
M  V30 362 H 37.5553 -4.58895 2.58307 0
M  V30 363 H 40.0463 -3.07634 2.19476 0
M  V30 364 H 40.3593 -5.90729 4.98256 0
M  V30 365 H 38.7043 -5.31707 4.47564 0
M  V30 366 H 41.8953 -3.76107 2.78677 0
M  V30 367 H 42.0683 -5.05215 4.05785 0
M  V30 368 N 35.4744 -0.807222 -1.35358 0
M  V30 369 C 36.4214 -0.216037 -2.29787 0
M  V30 370 C 37.3914 0.650278 -1.52842 0
M  V30 371 O 38.5764 0.595227 -1.81278 0
M  V30 372 C 35.7164 0.628893 -3.39321 0
M  V30 373 C 34.8294 -0.257927 -4.31229 0
M  V30 374 C 33.9644 0.595069 -5.27856 0
M  V30 375 C 33.0034 -0.292111 -6.11403 0
M  V30 376 N 32.1404 0.520895 -7.00165 0
M  V30 377 H 36.9804 -1.02671 -2.79755 0
M  V30 378 H 34.5174 -0.517839 -1.37684 0
M  V30 379 H 36.4754 1.13393 -4.01494 0
M  V30 380 H 35.1054 1.40482 -2.90628 0
M  V30 381 H 34.1574 -0.881076 -3.70056 0
M  V30 382 H 35.4694 -0.940759 -4.89848 0
M  V30 383 H 34.6234 1.16522 -5.95405 0
M  V30 384 H 33.3624 1.31146 -4.69736 0
M  V30 385 H 32.3674 -0.874525 -5.428 0
M  V30 386 H 33.5924 -1.00638 -6.71602 0
M  V30 387 H 31.5384 1.22125 -6.44532 0
M  V30 388 H 31.4554 -0.103877 -7.55929 0
M  V30 389 H 32.7234 1.0743 -7.72062 0
M  V30 390 N 36.9525 1.47285 -0.560781 0
M  V30 391 C 37.8625 2.33846 0.187954 0
M  V30 392 C 38.8785 1.48412 0.908293 0
M  V30 393 O 40.0545 1.81332 0.876388 0
M  V30 394 C 37.1195 3.25178 1.2025 0
M  V30 395 C 36.1805 4.26504 0.489208 0
M  V30 396 C 35.4135 5.13472 1.45542 0
M  V30 397 O 35.6365 5.02959 2.6905 0
M  V30 398 O 34.5705 5.93902 0.977963 0
M  V30 399 H 38.3965 2.99177 -0.522177 0
M  V30 400 H 35.9815 1.45903 -0.321364 0
M  V30 401 H 37.8635 3.81584 1.78805 0
M  V30 402 H 36.5385 2.6247 1.89449 0
M  V30 403 H 35.4455 3.73847 -0.137627 0
M  V30 404 H 36.7785 4.91935 -0.161399 0
M  V30 405 N 38.4306 0.297415 1.54768 0
M  V30 406 C 39.6796 -0.313669 1.99246 0
M  V30 407 C 39.9926 -1.55281 1.18942 0
M  V30 408 O 41.1986 -2.23825 1.5367 0
M  V30 409 C 39.6546 -0.609407 3.54703 0
M  V30 410 C 39.2626 0.611192 4.43811 0
M  V30 411 C 41.0066 -1.18188 4.07715 0
M  V30 412 C 38.9136 0.288805 5.90694 0
M  V30 413 H 37.8436 -0.120979 0.744231 0
M  V30 414 H 40.4946 0.40556 1.78962 0
M  V30 415 H 38.8766 -1.38813 3.70873 0
M  V30 416 H 40.0506 1.3875 4.39414 0
M  V30 417 H 38.3656 1.10205 4.01552 0
M  V30 418 H 40.9626 -1.43727 5.15021 0
M  V30 419 H 41.3056 -2.12299 3.58099 0
M  V30 420 H 41.8386 -0.464944 3.95074 0
M  V30 421 H 38.5776 1.19838 6.44453 0
M  V30 422 H 38.0976 -0.450305 5.98107 0
M  V30 423 H 39.7766 -0.110933 6.46905 0
M  V30 424 N 39.9087 -1.5758 0.0250728 0
M  V30 425 C 41.3197 -1.79476 -0.514323 0
M  V30 426 C 41.6707 -0.934956 -1.72491 0
M  V30 427 O 40.7957 -0.144245 -2.15919 0
M  V30 428 C 41.3907 -3.25503 -0.939842 0
M  V30 429 C 39.9497 -3.48408 -1.42438 0
M  V30 430 C 39.0967 -2.74583 -0.387201 0
M  V30 431 H 42.0477 -1.567 0.25113 0
M  V30 432 H 42.0687 -3.34992 -1.80445 0
M  V30 433 H 41.5807 -3.88056 -0.0585628 0
M  V30 434 H 39.6817 -2.91103 -2.32572 0
M  V30 435 H 39.7947 -4.57119 -1.43455 0
M  V30 436 H 38.1587 -2.39942 -0.854409 0
M  V30 437 H 38.9417 -3.39849 0.485543 0
M  V30 438 N 41.3868 0.248026 -1.55636 0
M  V30 439 C 42.3498 1.29044 -1.89421 0
M  V30 440 C 43.3498 1.41134 -0.770581 0
M  V30 441 O 44.5398 1.39854 -1.03858 0
M  V30 442 C 41.6718 2.66831 -2.12165 0
M  V30 443 H 42.8648 1.00305 -2.82629 0
M  V30 444 H 40.4178 0.487265 -1.48511 0
M  V30 445 H 41.1528 3.00711 -1.21422 0
M  V30 446 H 40.9378 2.59438 -2.93997 0
M  V30 447 H 42.4278 3.42103 -2.3949 0
M  V30 448 N 42.8649 1.48995 0.513639 0
M  V30 449 C 43.8119 1.6473 1.61656 0
M  V30 450 C 44.7819 0.488984 1.58739 0
M  V30 451 O 45.9669 0.714478 1.76918 0
M  V30 452 C 43.1069 1.7082 2.99858 0
M  V30 453 C 42.2199 2.9787 3.12885 0
M  V30 454 C 41.3549 2.95017 4.41744 0
M  V30 455 C 40.3939 4.16702 4.48359 0
M  V30 456 N 39.5309 4.11832 5.68629 0
M  V30 457 H 44.3709 2.58909 1.47547 0
M  V30 458 H 41.9079 1.28382 0.71808 0
M  V30 459 H 43.8659 1.72331 3.79944 0
M  V30 460 H 42.4959 0.801181 3.12699 0
M  V30 461 H 41.5479 3.06029 2.25944 0
M  V30 462 H 42.8599 3.8786 3.13633 0
M  V30 463 H 42.0139 2.95021 5.30139 0
M  V30 464 H 40.7529 2.02784 4.43542 0
M  V30 465 H 39.7579 4.16955 3.58369 0
M  V30 466 H 40.9829 5.10113 4.48287 0
M  V30 467 H 38.9289 3.22428 5.71293 0
M  V30 468 H 38.8459 4.95543 5.7094 0
M  V30 469 H 40.1139 4.1592 6.59266 0
M  V30 470 N 44.343 -0.763751 1.37857 0
M  V30 471 C 45.592 -1.51789 1.32827 0
M  V30 472 C 45.905 -1.95426 -0.0823719 0
M  V30 473 O 47.111 -2.70298 -0.255172 0
M  V30 474 C 45.567 -2.74133 2.33193 0
M  V30 475 C 45.175 -2.37562 3.79827 0
M  V30 476 C 46.919 -3.52054 2.37188 0
M  V30 477 C 44.826 -3.56456 4.71904 0
M  V30 478 H 43.756 -0.569896 0.493695 0
M  V30 479 H 46.407 -0.835822 1.63359 0
M  V30 480 H 44.789 -3.4427 1.9569 0
M  V30 481 H 45.963 -1.75157 4.26212 0
M  V30 482 H 44.278 -1.72798 3.78853 0
M  V30 483 H 46.875 -4.40437 3.03182 0
M  V30 484 H 47.218 -3.92486 1.38782 0
M  V30 485 H 47.751 -2.88921 2.7344 0
M  V30 486 H 44.49 -3.21099 5.71468 0
M  V30 487 H 44.01 -4.17938 4.30218 0
M  V30 488 H 45.689 -4.23168 4.89426 0
M  V30 489 N 45.8211 -1.22559 -0.990812 0
M  V30 490 C 47.0701 -1.04553 -1.72486 0
M  V30 491 C 47.3831 0.419349 -1.91052 0
M  V30 492 O 48.5891 0.719121 -2.61803 0
M  V30 493 C 47.0451 -1.82231 -3.10355 0
M  V30 494 C 46.6531 -3.32981 -2.99713 0
M  V30 495 C 48.3971 -1.7268 -3.87791 0
M  V30 496 C 46.3041 -4.03091 -4.32748 0
M  V30 497 H 45.2341 -0.387614 -0.646739 0
M  V30 498 H 47.8851 -1.46429 -1.10593 0
M  V30 499 H 46.2671 -1.33155 -3.72942 0
M  V30 500 H 47.4411 -3.89466 -2.46278 0
M  V30 501 H 45.7561 -3.43231 -2.35758 0
M  V30 502 H 48.3531 -2.22381 -4.86262 0
M  V30 503 H 48.6961 -0.687607 -4.10582 0
M  V30 504 H 49.2291 -2.1931 -3.31885 0
M  V30 505 H 45.9681 -5.07273 -4.15156 0
M  V30 506 H 45.4881 -3.51394 -4.86089 0
M  V30 507 H 47.1671 -4.08804 -5.01486 0
M  V30 508 N 47.2992 1.18797 -1.03562 0
M  V30 509 C 48.5462 1.8865 -0.736023 0
M  V30 510 C 48.8742 1.80041 0.735889 0
M  V30 511 O 48.1292 1.19179 1.55225 0
M  V30 512 C 48.4282 3.38692 -1.14117 0
M  V30 513 C 48.0942 3.67504 -2.6125 0
M  V30 514 C 46.7562 3.75078 -3.01447 0
M  V30 515 C 49.1082 3.80293 -3.56408 0
M  V30 516 C 46.4362 3.92915 -4.35701 0
M  V30 517 C 48.7882 3.99645 -4.90374 0
M  V30 518 C 47.4522 4.05453 -5.30249 0
M  V30 519 H 46.7222 0.690321 -0.26933 0
M  V30 520 H 49.3692 1.40641 -1.29971 0
M  V30 521 H 47.6742 3.88645 -0.496202 0
M  V30 522 H 49.3712 3.91072 -0.886789 0
M  V30 523 H 45.9612 3.62223 -2.29113 0
M  V30 524 H 50.1452 3.73779 -3.26501 0
M  V30 525 H 45.4012 3.95653 -4.66121 0
M  V30 526 H 49.5752 4.08482 -5.64017 0
M  V30 527 H 47.2022 4.19027 -6.34288 0
M  V30 528 N 48.7773 0.814389 1.34928 0
M  V30 529 C 49.6873 0.231978 2.3345 0
M  V30 530 C 50.7033 -0.629139 1.62228 0
M  V30 531 O 51.8793 -0.539052 1.94052 0
M  V30 532 C 48.9443 -0.603482 3.41407 0
M  V30 533 C 48.0053 0.279037 4.28392 0
M  V30 534 C 47.2383 -0.516643 5.31193 0
M  V30 535 O 47.4613 -1.75068 5.4287 0
M  V30 536 O 46.3953 0.0965652 6.01823 0
M  V30 537 H 50.2213 1.04721 2.85074 0
M  V30 538 H 47.8063 0.576343 1.37836 0
M  V30 539 H 49.6883 -1.07908 4.0735 0
M  V30 540 H 48.3633 -1.39618 2.92042 0
M  V30 541 H 47.2703 0.801948 3.65403 0
M  V30 542 H 48.6033 1.03588 4.81176 0
M  V30 543 N 50.2554 -1.46986 0.568584 0
M  V30 544 C 51.5324 -1.95592 -0.0174074 0
M  V30 545 C 51.9124 -1.51124 -1.47393 0
M  V30 546 O 51.2604 -0.755329 -2.15655 0
M  V30 547 C 51.4704 -3.48719 0.139913 0
M  V30 548 C 52.8184 -4.246 0.000426376 0
M  V30 549 O 53.8424 -3.56135 0.0680316 0
M  V30 550 O 52.7014 -5.46302 -0.146988 0
M  V30 551 H 49.7954 -0.82498 -0.0577599 0
M  V30 552 H 52.3414 -1.57335 0.635909 0
M  V30 553 H 51.1134 -3.73927 1.15301 0
M  V30 554 H 50.7364 -3.93771 -0.550491 0
M  V30 555 N 51.7335 -0.305618 -1.54608 0
M  V30 556 C 53.0105 0.355652 -1.92339 0
M  V30 557 C 53.3905 1.71324 -1.23335 0
M  V30 558 O 52.7385 2.25473 -0.370702 0
M  V30 559 C 52.9485 0.46572 -3.45879 0
M  V30 560 C 54.2965 0.734426 -4.182 0
M  V30 561 O 55.3205 0.54935 -3.51938 0
M  V30 562 O 54.1795 1.09024 -5.35515 0
M  V30 563 H 51.2735 0.199666 -0.802535 0
M  V30 564 H 53.8195 -0.354017 -1.65966 0
M  V30 565 H 52.5915 -0.488461 -3.88239 0
M  V30 566 H 52.2145 1.22367 -3.78301 0
M  V30 567 N 53.2116 1.57565 -0.0334293 0
M  V30 568 C 54.6276 1.56297 0.322997 0
M  V30 569 C 54.8276 1.03945 1.7262 0
M  V30 570 O 53.8836 0.688109 2.42943 0
M  V30 571 C 55.1966 3.00232 0.167664 0
M  V30 572 C 56.7446 3.12078 0.240107 0
M  V30 573 C 57.2196 4.57859 0.113513 0
M  V30 574 N 58.7106 4.62887 0.170359 0
M  V30 575 C 59.4456 5.73319 0.0962517 0
M  V30 576 N 58.9416 6.92794 -0.0291881 0
M  V30 577 N 60.7346 5.61898 0.150551 0
M  V30 578 H 52.8856 1.89923 -0.950956 0
M  V30 579 H 55.1486 0.873824 -0.367608 0
M  V30 580 H 54.8546 3.42501 -0.799102 0
M  V30 581 H 54.7286 3.654 0.936083 0
M  V30 582 H 57.1156 2.69718 1.19733 0
M  V30 583 H 57.1966 2.49623 -0.558763 0
M  V30 584 H 56.8406 5.009 -0.840314 0
M  V30 585 H 56.7706 5.18299 0.931302 0
M  V30 586 H 59.2616 3.76954 0.26728 0
M  V30 587 H 59.5746 7.7276 -0.0789252 0
M  V30 588 H 57.9196 6.94971 -0.0640299 0
M  V30 589 H 61.1106 4.67448 0.246981 0
M  V30 590 H 61.2836 6.47938 0.0893365 0
M  V30 591 N 54.6897 -0.239769 1.55765 0
M  V30 592 C 55.9297 -0.974076 1.79697 0
M  V30 593 C 56.2937 -1.82249 0.604088 0
M  V30 594 O 57.4947 -2.58913 0.722324 0
M  V30 595 C 55.7657 -1.80595 3.08416 0
M  V30 596 S 57.3247 -2.59838 3.53596 0
M  V30 597 H 54.1427 -0.327524 0.63107 0
M  V30 598 H 56.7447 -0.241277 1.94005 0
M  V30 599 H 55.4487 -1.17249 3.93295 0
M  V30 600 H 54.9797 -2.58137 2.96865 0
M  V30 601 H 56.9947 -3.82987 3.15492 0
M  V30 602 N 56.1678 -1.49265 -0.50573 0
M  V30 603 C 57.0978 -1.68495 -1.61653 0
M  V30 604 C 58.0788 -0.53366 -1.61512 0
M  V30 605 O 59.2638 -0.76897 -1.78327 0
M  V30 606 C 56.3938 -1.74709 -3.00157 0
M  V30 607 C 55.3478 -2.89581 -3.15162 0
M  V30 608 C 54.6738 -2.80903 -4.5497 0
M  V30 609 C 55.9738 -4.30578 -2.95634 0
M  V30 610 H 57.6678 -2.61493 -1.45814 0
M  V30 611 H 55.2138 -1.25838 -0.70005 0
M  V30 612 H 57.1668 -1.86748 -3.77761 0
M  V30 613 H 55.8908 -0.783067 -3.17074 0
M  V30 614 H 54.5498 -2.77136 -2.39982 0
M  V30 615 H 54.1978 -1.82419 -4.68756 0
M  V30 616 H 53.8978 -3.57999 -4.65951 0
M  V30 617 H 55.4218 -2.94944 -5.34641 0
M  V30 618 H 56.8358 -4.4373 -3.63011 0
M  V30 619 H 55.2328 -5.0886 -3.18091 0
M  V30 620 H 56.3028 -4.45352 -1.91806 0
M  V30 621 N 57.6459 0.756429 -1.3826 0
M  V30 622 C 58.6089 1.85176 -1.35065 0
M  V30 623 C 59.6089 1.58818 -0.251703 0
M  V30 624 O 60.7989 1.66615 -0.508433 0
M  V30 625 C 57.9309 3.22596 -1.10201 0
M  V30 626 H 59.1239 1.89417 -2.3251 0
M  V30 627 H 56.6769 0.95783 -1.23512 0
M  V30 628 H 57.4119 3.24025 -0.133504 0
M  V30 629 H 57.1969 3.43122 -1.89762 0
M  V30 630 H 58.6869 4.02673 -1.10654 0
M  V30 631 N 59.124 1.23083 0.984299 0
M  V30 632 C 60.371 1.06057 1.72505 0
M  V30 633 C 60.699 -0.403105 1.90277 0
M  V30 634 O 59.954 -1.3149 1.44944 0
M  V30 635 C 60.253 1.72673 3.1292 0
M  V30 636 C 59.919 3.22586 3.15038 0
M  V30 637 C 58.581 3.63489 3.15324 0
M  V30 638 C 60.933 4.185 3.10657 0
M  V30 639 C 58.261 4.98772 3.08939 0
M  V30 640 C 60.613 5.53769 3.05814 0
M  V30 641 C 59.277 5.94041 3.04419 0
M  V30 642 H 58.547 0.388091 0.631242 0
M  V30 643 H 61.194 1.52963 1.15215 0
M  V30 644 H 59.499 1.18116 3.73572 0
M  V30 645 H 61.196 1.56982 3.68996 0
M  V30 646 H 57.786 2.90022 3.15571 0
M  V30 647 H 61.97 3.87911 3.09579 0
M  V30 648 H 57.226 5.29193 3.0621 0
M  V30 649 H 61.4 6.27808 3.0138 0
M  V30 650 H 59.027 6.98833 2.99227 0
M  V30 651 N 60.6021 -1.18246 1.0419 0
M  V30 652 C 61.5521 -2.19843 0.604392 0
M  V30 653 C 62.5361 -1.56962 -0.353814 0
M  V30 654 O 63.7281 -1.76156 -0.17267 0
M  V30 655 C 60.8571 -3.43287 -0.0298975 0
M  V30 656 C 59.9431 -4.13288 0.951531 0
M  V30 657 N 60.3341 -4.59271 2.11906 0
M  V30 658 C 58.6321 -4.39165 0.7778 0
M  V30 659 C 59.3331 -5.13173 2.73912 0
M  V30 660 N 58.3091 -5.04763 2.01779 0
M  V30 661 H 62.1111 -2.53089 1.4941 0
M  V30 662 H 59.6251 -1.34465 0.910658 0
M  V30 663 H 61.6221 -4.15334 -0.361037 0
M  V30 664 H 60.2821 -3.11537 -0.915127 0
M  V30 665 H 61.2931 -4.5368 2.49789 0
M  V30 666 H 57.9701 -4.17461 -0.0572331 0
M  V30 667 H 59.3601 -5.58947 3.72864 0
M  V30 668 N 62.0802 -0.821533 -1.34494 0
M  V30 669 C 63.3572 -0.33159 -1.92769 0
M  V30 670 C 63.7372 1.18088 -1.74981 0
M  V30 671 O 63.0852 1.98733 -1.12772 0
M  V30 672 C 63.2952 -0.759398 -3.40638 0
M  V30 673 C 64.6432 -0.757433 -4.1779 0
M  V30 674 O 65.6672 -0.70189 -3.49216 0
M  V30 675 O 64.5262 -0.829361 -5.4017 0
M  V30 676 H 61.6202 -0.0902502 -0.822061 0
M  V30 677 H 64.1662 -0.906231 -1.43477 0
M  V30 678 H 62.9382 -1.8012 -3.47379 0
M  V30 679 H 62.5612 -0.160378 -3.97276 0
M  V30 680 N 63.5583 1.46682 -0.576371 0
M  V30 681 C 64.8073 2.01619 -0.0572825 0
M  V30 682 C 65.1203 1.45417 1.30818 0
M  V30 683 O 66.3263 1.92133 1.91825 0
M  V30 684 C 64.7823 3.59863 -0.0518371 0
M  V30 685 C 64.3903 4.25059 -1.41523 0
M  V30 686 C 66.1343 4.2248 0.413639 0
M  V30 687 C 64.0413 5.75364 -1.36785 0
M  V30 688 H 62.9713 0.753794 -0.0176448 0
M  V30 689 H 65.6223 1.68481 -0.727076 0
M  V30 690 H 64.0043 3.90048 0.683994 0
M  V30 691 H 65.1783 4.06491 -2.17029 0
M  V30 692 H 63.4933 3.7451 -1.8202 0
M  V30 693 H 66.0903 5.3265 0.467779 0
M  V30 694 H 66.4333 3.90976 1.42982 0
M  V30 695 H 66.9663 3.96897 -0.267929 0
M  V30 696 H 63.7053 6.11518 -2.36063 0
M  V30 697 H 63.2253 5.96214 -0.654895 0
M  V30 698 H 64.9043 6.37955 -1.07805 0
M  V30 699 N 65.0364 0.313813 1.54444 0
M  V30 700 C 66.2614 -0.296681 2.05267 0
M  V30 701 C 66.6864 -1.45757 1.18897 0
M  V30 702 O 66.0444 -1.80239 0.195886 0
M  V30 703 C 66.0924 -0.71831 3.53373 0
M  V30 704 O 65.1964 -1.82175 3.69981 0
M  V30 705 H 64.5374 -0.0554061 0.661684 0
M  V30 706 H 67.0674 0.459387 1.99376 0
M  V30 707 H 67.0774 -1.00364 3.95463 0
M  V30 708 H 65.7524 0.130821 4.15694 0
M  V30 709 H 64.3294 -1.53598 3.39797 0
M  V30 710 N 66.5145 -1.57545 0.0417849 0
M  V30 711 C 67.9255 -1.80011 -0.495259 0
M  V30 712 C 68.2765 -0.953199 -1.71489 0
M  V30 713 O 67.4015 -0.167138 -2.15754 0
M  V30 714 C 67.9965 -3.26482 -0.905265 0
M  V30 715 C 66.5555 -3.499 -1.38734 0
M  V30 716 C 65.7025 -2.74979 -0.358056 0
M  V30 717 H 68.6535 -1.56425 0.267736 0
M  V30 718 H 68.6745 -3.36887 -1.76882 0
M  V30 719 H 68.1865 -3.88096 -0.017401 0
M  V30 720 H 66.2875 -2.93553 -2.29471 0
M  V30 721 H 66.4005 -4.58615 -1.38598 0
M  V30 722 H 64.7645 -2.40834 -0.828912 0
M  V30 723 H 65.5475 -3.39315 0.521561 0
M  V30 724 N 67.9926 0.231505 -1.5589 0
M  V30 725 C 68.9246 1.31006 -1.8807 0
M  V30 726 C 69.9376 1.43539 -0.768145 0
M  V30 727 O 71.1266 1.44614 -1.04638 0
M  V30 728 C 68.2266 2.68688 -2.06543 0
M  V30 729 C 67.3996 2.78228 -3.37502 0
M  V30 730 C 66.4586 3.96857 -3.4553 0
M  V30 731 O 65.4846 3.85662 -4.18633 0
M  V30 732 N 66.6866 5.1072 -2.75944 0
M  V30 733 H 69.4516 1.03731 -2.81176 0
M  V30 734 H 67.0126 0.421573 -1.56315 0
M  V30 735 H 69.0046 3.46412 -2.09239 0
M  V30 736 H 67.5746 2.88605 -1.20109 0
M  V30 737 H 66.7946 1.87059 -3.46991 0
M  V30 738 H 68.0826 2.81564 -4.23791 0
M  V30 739 H 67.4806 5.2271 -2.16311 0
M  V30 740 H 66.0376 5.86523 -2.84314 0
M  V30 741 N 69.4707 1.49531 0.497807 0
M  V30 742 C 70.4337 1.65916 1.58128 0
M  V30 743 C 71.4337 0.530825 1.51786 0
M  V30 744 O 72.6237 0.797342 1.54881 0
M  V30 745 C 69.7557 1.65951 2.9778 0
M  V30 746 H 70.9487 2.62556 1.44929 0
M  V30 747 H 68.5017 1.38611 0.722275 0
M  V30 748 H 69.2367 0.709065 3.16453 0
M  V30 749 H 69.0217 2.47897 3.03792 0
M  V30 750 H 70.5117 1.80673 3.76493 0
M  V30 751 N 70.9488 -0.749086 1.3866 0
M  V30 752 C 72.3598 -1.32664 1.31366 0
M  V30 753 C 72.7108 -1.96179 -0.028484 0
M  V30 754 O 71.8358 -1.9537 -0.93057 0
M  V30 755 C 72.4308 -2.41219 2.37905 0
M  V30 756 C 70.9898 -2.94684 2.34176 0
M  V30 757 C 70.1368 -1.68108 2.20533 0
M  V30 758 H 73.0878 -0.547628 1.48952 0
M  V30 759 H 73.1088 -3.21268 2.0388 0
M  V30 760 H 72.6208 -1.94962 3.35576 0
M  V30 761 H 70.7218 -3.45258 1.401 0
M  V30 762 H 70.8348 -3.48757 3.2849 0
M  V30 763 H 69.1988 -1.91907 1.67463 0
M  V30 764 H 69.9818 -1.23923 3.20153 0
M  V30 765 N 72.4269 -1.23603 -0.977757 0
M  V30 766 C 73.6549 -1.09646 -1.75458 0
M  V30 767 C 74.0699 0.351859 -1.85492 0
M  V30 768 O 73.4269 1.24327 -1.336 0
M  V30 769 C 73.4779 -1.71895 -3.18016 0
M  V30 770 O 73.1989 -3.11063 -3.08498 0
M  V30 771 C 74.6999 -1.63415 -4.12081 0
M  V30 772 H 71.9199 -0.38359 -0.550545 0
M  V30 773 H 74.4639 -1.63507 -1.22824 0
M  V30 774 H 72.6189 -1.22061 -3.67668 0
M  V30 775 H 73.0329 -3.41305 -3.9826 0
M  V30 776 H 74.5069 -2.11669 -5.09804 0
M  V30 777 H 74.9839 -0.593462 -4.35172 0
M  V30 778 H 75.5899 -2.12628 -3.68334 0
M  V30 779 N 73.905 1.17692 -1.04816 0
M  V30 780 C 74.855 2.1952 -0.616042 0
M  V30 781 C 75.839 1.57147 0.345485 0
M  V30 782 O 77.031 1.76245 0.163325 0
M  V30 783 C 74.16 3.43298 0.0116917 0
M  V30 784 C 73.246 4.12777 -0.973435 0
M  V30 785 N 73.637 4.5814 -2.14339 0
M  V30 786 C 71.935 4.38747 -0.80108 0
M  V30 787 C 72.636 5.11713 -2.7663 0
M  V30 788 N 71.612 5.03686 -2.04453 0
M  V30 789 H 75.414 2.52293 -1.5075 0
M  V30 790 H 72.928 1.3398 -0.917776 0
M  V30 791 H 74.925 4.15519 0.339006 0
M  V30 792 H 73.585 3.12018 0.898593 0
M  V30 793 H 74.596 4.52349 -2.52191 0
M  V30 794 H 71.273 4.17485 0.0350934 0
M  V30 795 H 72.663 5.56962 -3.75823 0
M  V30 796 N 75.3831 0.828654 1.34056 0
M  V30 797 C 76.6301 0.419458 1.98108 0
M  V30 798 C 76.9581 -1.01886 1.65679 0
M  V30 799 O 76.2131 -1.72539 0.923512 0
M  V30 800 C 76.5121 0.575226 3.52741 0
M  V30 801 C 76.1781 1.98012 4.05095 0
M  V30 802 C 74.8401 2.36442 4.19104 0
M  V30 803 C 77.1921 2.89824 4.33188 0
M  V30 804 C 74.5201 3.66009 4.58535 0
M  V30 805 C 76.8721 4.1886 4.74066 0
M  V30 806 C 75.5361 4.5726 4.86281 0
M  V30 807 H 74.8061 0.153491 0.724929 0
M  V30 808 H 77.4531 1.05371 1.59904 0
M  V30 809 H 75.7581 -0.142385 3.91541 0
M  V30 810 H 77.4551 0.239057 4.00287 0
M  V30 811 H 74.0451 1.67162 3.94658 0
M  V30 812 H 78.2291 2.61375 4.21897 0
M  V30 813 H 73.4851 3.95579 4.66184 0
M  V30 814 H 77.6591 4.90086 4.94761 0
M  V30 815 H 75.2861 5.57707 5.16592 0
M  V30 816 N 76.8612 -1.46375 0.584142 0
M  V30 817 C 77.7912 -2.33103 -0.136037 0
M  V30 818 C 78.7722 -1.45431 -0.882255 0
M  V30 819 O 79.9572 -1.74246 -0.857434 0
M  V30 820 C 77.0872 -3.27731 -1.14933 0
M  V30 821 C 76.0412 -4.24855 -0.517862 0
M  V30 822 C 75.3672 -5.09001 -1.63773 0
M  V30 823 C 76.6672 -5.19439 0.545886 0
M  V30 824 H 78.3612 -2.93568 0.588086 0
M  V30 825 H 75.9072 -1.41166 0.284259 0
M  V30 826 H 77.8602 -3.87261 -1.66153 0
M  V30 827 H 76.5842 -2.65377 -1.90375 0
M  V30 828 H 75.2432 -3.6659 -0.0267361 0
M  V30 829 H 74.8912 -4.43031 -2.38185 0
M  V30 830 H 74.5912 -5.74777 -1.22085 0
M  V30 831 H 76.1152 -5.71396 -2.15266 0
M  V30 832 H 77.5292 -5.73177 0.118704 0
M  V30 833 H 75.9262 -5.93566 0.88317 0
M  V30 834 H 76.9962 -4.63285 1.43162 0
M  V30 835 N 78.3393 -0.321999 -1.54275 0
M  V30 836 C 79.5853 0.281461 -2.00837 0
M  V30 837 C 79.9183 1.51909 -1.20985 0
M  V30 838 O 79.1933 1.923 -0.291733 0
M  V30 839 C 79.4763 0.617162 -3.54772 0
M  V30 840 C 79.3293 -0.631064 -4.45351 0
M  V30 841 C 80.6483 1.43542 -4.16033 0
M  V30 842 H 77.7673 0.100826 -0.730071 0
M  V30 843 H 80.4093 -0.438268 -1.84876 0
M  V30 844 H 78.5593 1.23034 -3.68504 0
M  V30 845 H 80.2313 -1.26934 -4.43492 0
M  V30 846 H 78.4743 -1.26025 -4.15091 0
M  V30 847 H 79.1453 -0.351735 -5.50878 0
M  V30 848 H 81.6213 0.917134 -4.05867 0
M  V30 849 H 80.4973 1.63907 -5.23856 0
M  V30 850 H 80.7583 2.43108 -3.69257 0
M  V30 851 N 79.8174 1.5752 -0.0501392 0
M  V30 852 C 81.0664 1.91827 0.623328 0
M  V30 853 C 81.3794 0.930222 1.72065 0
M  V30 854 O 82.5854 1.1653 2.4522 0
M  V30 855 C 81.0414 3.40692 1.16003 0
M  V30 856 C 80.6494 4.479 0.0948811 0
M  V30 857 C 82.3934 3.84034 1.80881 0
M  V30 858 C 80.3004 5.87879 0.644411 0
M  V30 859 H 79.2304 0.715918 0.236596 0
M  V30 860 H 81.8814 1.83115 -0.118861 0
M  V30 861 H 80.2634 3.44405 1.9545 0
M  V30 862 H 81.4374 4.55775 -0.678675 0
M  V30 863 H 79.7524 4.13892 -0.45637 0
M  V30 864 H 82.3494 4.85984 2.22988 0
M  V30 865 H 82.6924 3.20225 2.6601 0
M  V30 866 H 83.2254 3.82833 1.0809 0
M  V30 867 H 79.9644 6.55282 -0.169229 0
M  V30 868 H 79.4844 5.83567 1.38598 0
M  V30 869 H 81.1634 6.37098 1.12763 0
M  V30 870 N 81.2955 -0.223234 1.56011 0
M  V30 871 C 82.7065 -0.790368 1.69145 0
M  V30 872 C 83.0575 -1.85055 0.651845 0
M  V30 873 O 82.1825 -2.15498 -0.197359 0
M  V30 874 C 82.7775 -1.4404 3.06656 0
M  V30 875 C 81.3365 -1.95494 3.2165 0
M  V30 876 C 80.4835 -0.814506 2.65068 0
M  V30 877 H 83.4345 0.00139011 1.587 0
M  V30 878 H 83.4555 -2.30916 3.0242 0
M  V30 879 H 82.9675 -0.668543 3.82298 0
M  V30 880 H 81.0685 -2.75487 2.50874 0
M  V30 881 H 81.1815 -2.13607 4.28846 0
M  V30 882 H 79.5455 -1.22137 2.23505 0
M  V30 883 H 80.3285 -0.0553515 3.43255 0
M  V30 884 N 82.7736 -1.49793 -0.48987 0
M  V30 885 C 83.7206 -1.67281 -1.59014 0
M  V30 886 C 84.6906 -0.514177 -1.57941 0
M  V30 887 O 85.8756 -0.742533 -1.75759 0
M  V30 888 C 83.0156 -1.75569 -2.97102 0
M  V30 889 C 82.1286 -3.0281 -3.08107 0
M  V30 890 C 81.2636 -3.02008 -4.36995 0
M  V30 891 C 80.3026 -4.23782 -4.41673 0
M  V30 892 N 79.4396 -4.20826 -5.62005 0
M  V30 893 H 84.2796 -2.61224 -1.43409 0
M  V30 894 H 81.8166 -1.29508 -0.697565 0
M  V30 895 H 83.7746 -1.78354 -3.77155 0
M  V30 896 H 82.4046 -0.850827 -3.11385 0
M  V30 897 H 81.4566 -3.09584 -2.21047 0
M  V30 898 H 82.7686 -3.92801 -3.07423 0
M  V30 899 H 81.9226 -3.03418 -5.25378 0
M  V30 900 H 80.6616 -2.09815 -4.4026 0
M  V30 901 H 79.6666 -4.22604 -3.5169 0
M  V30 902 H 80.8916 -5.17181 -4.40115 0
M  V30 903 H 78.8376 -3.31476 -5.66091 0
M  V30 904 H 78.7546 -5.04564 -5.62984 0
M  V30 905 H 80.0226 -4.26355 -6.52565 0
M  V30 906 N 84.2517 0.741722 -1.39055 0
M  V30 907 C 85.1987 1.85566 -1.37237 0
M  V30 908 C 86.1687 1.64457 -0.233072 0
M  V30 909 O 87.3537 1.85957 -0.427147 0
M  V30 910 C 84.4937 3.23004 -1.215 0
M  V30 911 C 83.6067 3.55864 -2.44918 0
M  V30 912 C 82.7417 4.82669 -2.21821 0
M  V30 913 C 81.7807 5.08351 -3.40948 0
M  V30 914 N 80.9177 6.26356 -3.17211 0
M  V30 915 H 85.7577 1.86455 -2.32462 0
M  V30 916 H 83.2947 0.911176 -1.15482 0
M  V30 917 H 85.2527 4.02331 -1.10389 0
M  V30 918 H 83.8827 3.21411 -0.29908 0
M  V30 919 H 82.9347 2.7129 -2.66657 0
M  V30 920 H 84.2467 3.70765 -3.33668 0
M  V30 921 H 83.4007 5.69962 -2.07914 0
M  V30 922 H 82.1397 4.69929 -1.30454 0
M  V30 923 H 81.1447 4.19522 -3.55361 0
M  V30 924 H 82.3697 5.22981 -4.33207 0
M  V30 925 H 80.3157 6.14917 -2.28502 0
M  V30 926 H 80.2327 6.41813 -3.99515 0
M  V30 927 H 81.5007 7.16506 -3.06984 0
M  V30 928 N 85.7298 1.2412 0.971189 0
M  V30 929 C 86.6798 0.997551 2.05019 0
M  V30 930 C 87.6638 -0.0597747 1.60789 0
M  V30 931 O 88.8558 0.153516 1.76333 0
M  V30 932 C 85.9848 0.600557 3.38006 0
M  V30 933 C 85.0708 1.69377 3.88809 0
M  V30 934 N 85.4618 2.92586 4.12586 0
M  V30 935 C 83.7598 1.57048 4.17435 0
M  V30 936 C 84.4608 3.63431 4.54195 0
M  V30 937 N 83.4368 2.90979 4.59165 0
M  V30 938 H 87.2388 1.93316 2.21374 0
M  V30 939 H 84.7528 1.14194 1.1547 0
M  V30 940 H 86.7498 0.40725 4.14906 0
M  V30 941 H 85.4098 -0.327903 3.2304 0
M  V30 942 H 86.4208 3.288 4.00139 0
M  V30 943 H 83.0978 0.709798 4.11422 0
M  V30 944 H 84.4878 4.69102 4.81033 0
M  V30 945 N 87.2079 -1.17134 1.05439 0
M  V30 946 C 88.4569 -1.86791 0.761049 0
M  V30 947 C 88.7699 -1.82072 -0.714795 0
M  V30 948 O 89.9759 -2.47223 -1.12218 0
M  V30 949 C 88.4319 -3.35166 1.31117 0
M  V30 950 C 88.0399 -3.48381 2.81664 0
M  V30 951 C 89.7839 -4.10134 1.09499 0
M  V30 952 C 87.6909 -4.90793 3.29964 0
M  V30 953 H 86.6209 -0.699681 0.281002 0
M  V30 954 H 89.2719 -1.3226 1.27199 0
M  V30 955 H 87.6539 -3.8925 0.72803 0
M  V30 956 H 88.8279 -3.04502 3.45855 0
M  V30 957 H 87.1429 -2.86836 3.01851 0
M  V30 958 H 89.7399 -5.152 1.43084 0
M  V30 959 H 90.0829 -4.16287 0.0328772 0
M  V30 960 H 90.6159 -3.62264 1.64346 0
M  V30 961 H 87.3549 -4.89816 4.35616 0
M  V30 962 H 86.8749 -5.35333 2.70516 0
M  V30 963 H 88.5539 -5.59573 3.24787 0
M  V30 964 N 88.686 -0.835752 -1.33615 0
M  V30 965 C 89.911 -0.442389 -2.02627 0
M  V30 966 C 90.336 0.947735 -1.62479 0
M  V30 967 O 89.694 1.61907 -0.815826 0
M  V30 968 C 89.742 -0.567216 -3.56111 0
M  V30 969 O 88.846 0.407799 -4.10379 0
M  V30 970 H 88.187 -0.180278 -0.639059 0
M  V30 971 H 90.717 -1.12972 -1.70583 0
M  V30 972 H 90.727 -0.447708 -4.05536 0
M  V30 973 H 89.402 -1.58103 -3.84677 0
M  V30 974 H 87.979 0.246107 -3.72087 0
M  V30 975 N 90.1641 1.46063 -0.591896 0
M  V30 976 C 91.0961 2.28539 0.174001 0
M  V30 977 C 92.1091 1.39047 0.846753 0
M  V30 978 O 93.2981 1.63564 0.714774 0
M  V30 979 C 90.3981 3.14347 1.26645 0
M  V30 980 C 89.5711 4.32021 0.683856 0
M  V30 981 C 88.6301 4.99157 1.66518 0
M  V30 982 O 87.6561 5.56458 1.19763 0
M  V30 983 N 88.8581 4.97005 2.99943 0
M  V30 984 H 91.6231 2.94911 -0.533633 0
M  V30 985 H 89.1841 1.56077 -0.430294 0
M  V30 986 H 91.1761 3.56125 1.92242 0
M  V30 987 H 89.7461 2.49988 1.87682 0
M  V30 988 H 88.9661 3.93915 -0.1498 0
M  V30 989 H 90.2541 5.08059 0.274567 0
M  V30 990 H 89.6521 4.51714 3.40545 0
M  V30 991 H 88.2091 5.42696 3.61004 0
M  V30 992 N 91.6422 0.330177 1.54103 0
M  V30 993 C 92.8912 -0.271336 1.99867 0
M  V30 994 C 93.2042 -1.52723 1.22209 0
M  V30 995 O 94.4102 -2.20515 1.58383 0
M  V30 996 C 92.8662 -0.534032 3.55916 0
M  V30 997 C 92.4742 0.705193 4.42415 0
M  V30 998 C 94.2182 -1.09514 4.1013 0
M  V30 999 C 92.1252 0.414035 5.89949 0
M  V30 1000 H 91.0552 -0.105166 0.74663 0
M  V30 1001 H 93.7062 0.443429 1.78062 0
M  V30 1002 H 92.0882 -1.30915 3.73734 0
M  V30 1003 H 93.2622 1.4804 4.36372 0
M  V30 1004 H 91.5772 1.18698 3.99124 0
M  V30 1005 H 94.1742 -1.3277 5.17954 0
M  V30 1006 H 94.5172 -2.04656 3.62521 0
M  V30 1007 H 95.0502 -0.381038 3.95971 0
M  V30 1008 H 91.7892 1.33481 6.41766 0
M  V30 1009 H 91.3092 -0.323336 5.98928 0
M  V30 1010 H 92.9882 0.0263105 6.46995 0
M  V30 1011 N 93.1203 -1.57491 0.0584922 0
M  V30 1012 C 94.3453 -1.97711 -0.62652 0
M  V30 1013 C 94.7703 -0.936132 -1.63151 0
M  V30 1014 O 94.1283 0.099811 -1.81025 0
M  V30 1015 C 94.1763 -3.36989 -1.28338 0
M  V30 1016 O 93.2803 -3.35433 -2.39913 0
M  V30 1017 H 92.6213 -0.643868 -0.162266 0
M  V30 1018 H 95.1513 -2.04193 0.129064 0
M  V30 1019 H 95.1613 -3.73879 -1.63335 0
M  V30 1020 H 93.8363 -4.12289 -0.546889 0
M  V30 1021 H 92.4133 -3.10298 -2.06809 0
M  V30 1022 N 94.5984 0.214957 -1.56127 0
M  V30 1023 C 95.8444 0.939762 -1.79712 0
M  V30 1024 C 96.1774 1.83723 -0.629247 0
M  V30 1025 O 95.4524 1.90925 0.371197 0
M  V30 1026 C 95.7354 1.77306 -3.13424 0
M  V30 1027 C 95.5884 0.90164 -4.40671 0
M  V30 1028 C 96.9074 2.74956 -3.43638 0
M  V30 1029 H 94.0264 0.340214 -0.653776 0
M  V30 1030 H 96.6684 0.20824 -1.88855 0
M  V30 1031 H 94.8184 2.39673 -3.0576 0
M  V30 1032 H 96.4904 0.294206 -4.60361 0
M  V30 1033 H 94.7334 0.207368 -4.33304 0
M  V30 1034 H 95.4044 1.51923 -5.30682 0
M  V30 1035 H 97.8804 2.22724 -3.51473 0
M  V30 1036 H 96.7564 3.30358 -4.38355 0
M  V30 1037 H 97.0174 3.53023 -2.66134 0
M  V30 1038 N 96.0765 1.50051 0.48192 0
M  V30 1039 C 97.0395 1.67584 1.5636 0
M  V30 1040 C 98.0395 0.546894 1.51214 0
M  V30 1041 O 99.2295 0.813725 1.54026 0
M  V30 1042 C 96.3615 1.691 2.96003 0
M  V30 1043 H 97.5545 2.64078 1.42136 0
M  V30 1044 H 95.1075 1.39369 0.707533 0
M  V30 1045 H 95.8425 0.742589 3.15684 0
M  V30 1046 H 95.6275 2.51105 3.01146 0
M  V30 1047 H 97.1175 1.84656 3.74556 0
M  V30 1048 N 97.5546 -0.734337 1.39446 0
M  V30 1049 C 98.4646 -1.87879 1.40495 0
M  V30 1050 C 99.4806 -1.714 0.299672 0
M  V30 1051 O 100.657 -1.93991 0.541249 0
M  V30 1052 C 97.7216 -3.23477 1.24754 0
M  V30 1053 C 96.7826 -3.52344 2.45259 0
M  V30 1054 C 96.0156 -4.81473 2.30259 0
M  V30 1055 O 96.2386 -5.55237 1.30643 0
M  V30 1056 O 95.1726 -5.10254 3.19256 0
M  V30 1057 H 98.9986 -1.89949 2.36966 0
M  V30 1058 H 96.5836 -0.882243 1.20569 0
M  V30 1059 H 98.4656 -4.04509 1.18111 0
M  V30 1060 H 97.1406 -3.22176 0.313781 0
M  V30 1061 H 96.0476 -2.71396 2.57478 0
M  V30 1062 H 97.3806 -3.58426 3.37331 0
M  V30 1063 N 99.0327 -1.24633 -0.964593 0
M  V30 1064 C 100.31 -0.995809 -1.68354 0
M  V30 1065 C 100.69 0.480964 -2.05548 0
M  V30 1066 O 100.038 1.45599 -1.76105 0
M  V30 1067 C 100.248 -1.92177 -2.91323 0
M  V30 1068 C 101.596 -2.19446 -3.63495 0
M  V30 1069 O 102.62 -1.89855 -3.01386 0
M  V30 1070 O 101.479 -2.69714 -4.75307 0
M  V30 1071 H 98.5727 -0.376854 -0.736146 0
M  V30 1072 H 101.119 -1.35745 -1.0184 0
M  V30 1073 H 99.8907 -2.91938 -2.60553 0
M  V30 1074 H 99.5137 -1.56349 -3.65569 0
M  V30 1075 N 100.511 1.16574 -1.06058 0
M  V30 1076 C 101.788 1.83048 -0.689416 0
M  V30 1077 C 102.168 1.94122 0.829443 0
M  V30 1078 O 101.516 1.48249 1.7388 0
M  V30 1079 C 101.726 3.20186 -1.38859 0
M  V30 1080 C 103.074 3.95989 -1.53226 0
M  V30 1081 O 104.098 3.29696 -1.3483 0
M  V30 1082 O 102.957 5.14813 -1.83384 0
M  V30 1083 H 100.051 0.790258 -0.243764 0
M  V30 1084 H 102.597 1.23797 -1.16071 0
M  V30 1085 H 101.369 3.07146 -2.4244 0
M  V30 1086 H 100.992 3.87112 -0.907216 0
M  V30 1087 N 101.989 0.842826 1.3317 0
M  V30 1088 C 103.266 0.362216 1.92217 0
M  V30 1089 C 103.646 -1.15289 1.76838 0
M  V30 1090 O 102.994 -1.96914 1.15919 0
M  V30 1091 C 103.204 0.813495 3.39387 0
M  V30 1092 C 104.552 0.823804 4.16532 0
M  V30 1093 O 105.576 0.757358 3.48055 0
M  V30 1094 O 104.435 0.915193 5.38782 0
M  V30 1095 H 101.529 0.103317 0.820521 0
M  V30 1096 H 104.075 0.928942 1.42017 0
M  V30 1097 H 102.847 1.85624 3.4447 0
M  V30 1098 H 102.47 0.223561 3.96971 0
M  V30 1099 N 103.467 -1.45747 0.599634 0
M  V30 1100 C 104.377 -2.34262 -0.125888 0
M  V30 1101 C 105.393 -1.50768 -0.868625 0
M  V30 1102 O 106.569 -1.83592 -0.828003 0
M  V30 1103 C 103.634 -3.28252 -1.11587 0
M  V30 1104 C 102.695 -4.27651 -0.375956 0
M  V30 1105 C 101.928 -5.1715 -1.31877 0
M  V30 1106 O 102.151 -5.09916 -2.55621 0
M  V30 1107 O 101.085 -5.96286 -0.820157 0
M  V30 1108 H 104.911 -2.97688 0.601315 0
M  V30 1109 H 102.496 -1.44999 0.359934 0
M  V30 1110 H 104.378 -3.86191 -1.68626 0
M  V30 1111 H 103.053 -2.67401 -1.82424 0
M  V30 1112 H 101.96 -3.7335 0.236698 0
M  V30 1113 H 103.293 -4.91334 0.29177 0
M  V30 1114 N 104.945 -0.338344 -1.53925 0
M  V30 1115 C 106.17 0.263987 -2.05713 0
M  V30 1116 C 106.595 1.43847 -1.21201 0
M  V30 1117 O 105.953 1.79904 -0.224535 0
M  V30 1118 C 106.001 0.662 -3.54471 0
M  V30 1119 O 105.105 1.76265 -3.72833 0
M  V30 1120 H 104.446 0.0448722 -0.662482 0
M  V30 1121 H 106.976 -0.491048 -1.9862 0
M  V30 1122 H 106.986 0.940594 -3.9701 0
M  V30 1123 H 105.661 -0.196937 -4.15433 0
M  V30 1124 H 104.238 1.48173 -3.42198 0
M  V30 1125 N 106.423 1.57458 -0.0668435 0
M  V30 1126 C 107.353 2.15468 0.899764 0
M  V30 1127 C 108.334 1.08042 1.31381 0
M  V30 1128 O 109.519 1.36054 1.38574 0
M  V30 1129 C 106.649 2.71232 2.16911 0
M  V30 1130 C 105.603 3.83781 1.89463 0
M  V30 1131 C 104.929 4.26127 3.22986 0
M  V30 1132 C 106.229 5.08238 1.20381 0
M  V30 1133 H 107.923 2.96488 0.416529 0
M  V30 1134 H 105.469 1.4262 0.198908 0
M  V30 1135 H 107.422 3.10458 2.84945 0
M  V30 1136 H 106.146 1.87426 2.67468 0
M  V30 1137 H 104.805 3.45051 1.23836 0
M  V30 1138 H 104.453 3.39249 3.71374 0
M  V30 1139 H 104.153 5.01993 3.05413 0
M  V30 1140 H 105.677 4.67966 3.92225 0
M  V30 1141 H 107.091 5.44811 1.78475 0
M  V30 1142 H 105.488 5.89349 1.13083 0
M  V30 1143 H 106.558 4.84558 0.182153 0
M  V30 1144 N 107.901 -0.206675 1.56239 0
M  V30 1145 C 108.831 -1.25909 1.96645 0
M  V30 1146 C 109.812 -1.48097 0.836734 0
M  V30 1147 O 110.997 -1.6003 1.10019 0
M  V30 1148 C 108.127 -2.6058 2.29599 0
M  V30 1149 C 107.081 -2.53024 3.452 0
M  V30 1150 C 106.407 -3.91861 3.63798 0
M  V30 1151 C 107.707 -2.06524 4.79734 0
M  V30 1152 H 109.401 -0.923369 2.84806 0
M  V30 1153 H 106.947 -0.442735 1.37025 0
M  V30 1154 H 108.9 -3.34375 2.56459 0
M  V30 1155 H 107.624 -2.95869 1.38307 0
M  V30 1156 H 106.283 -1.81684 3.18412 0
M  V30 1157 H 105.931 -4.24483 2.69857 0
M  V30 1158 H 105.631 -3.87683 4.4156 0
M  V30 1159 H 107.155 -4.67296 3.93022 0
M  V30 1160 H 108.569 -2.70072 5.05702 0
M  V30 1161 H 106.966 -2.13374 5.60885 0
M  V30 1162 H 108.036 -1.01802 4.74093 0
M  V30 1163 N 109.379 -1.50304 -0.473955 0
M  V30 1164 C 110.627 -1.60832 -1.22382 0
M  V30 1165 C 110.948 -0.30939 -1.9253 0
M  V30 1166 O 110.218 0.67296 -1.83978 0
M  V30 1167 H 108.798 -0.592652 -0.454723 0
M  V30 1168 H 111.46 -1.87068 -0.546968 0
M  V30 1169 H 110.556 -2.41803 -1.97327 0
M  V30 1170 N 110.857 0.726932 -1.39834 0
M  V30 1171 C 111.807 1.83232 -1.35683 0
M  V30 1172 C 112.791 1.59155 -0.236295 0
M  V30 1173 O 113.983 1.70522 -0.474488 0
M  V30 1174 C 111.112 3.21246 -1.21062 0
M  V30 1175 C 110.198 3.51125 -2.37849 0
M  V30 1176 N 110.589 3.51889 -3.63329 0
M  V30 1177 C 108.887 3.81527 -2.30982 0
M  V30 1178 C 109.588 3.79791 -4.40606 0
M  V30 1179 N 108.564 3.97971 -3.70297 0
M  V30 1180 H 112.366 1.8214 -2.30656 0
M  V30 1181 H 109.88 0.925545 -1.33444 0
M  V30 1182 H 111.877 4.00387 -1.16171 0
M  V30 1183 H 110.537 3.23572 -0.270458 0
M  V30 1184 H 111.548 3.33008 -3.96643 0
M  V30 1185 H 108.225 3.91411 -1.45272 0
M  V30 1186 H 109.615 3.86783 -5.49408 0
M  V30 1187 N 112.336 1.25143 0.95797 0
M  V30 1188 C 113.266 1.07711 2.07173 0
M  V30 1189 C 114.247 -0.0128462 1.70095 0
M  V30 1190 O 115.432 0.156061 1.93572 0
M  V30 1191 C 112.562 0.691503 3.40346 0
M  V30 1192 C 111.516 1.73132 3.9142 0
M  V30 1193 C 110.842 1.20049 5.21049 0
M  V30 1194 C 112.142 3.1294 4.1817 0
M  V30 1195 H 113.836 2.00873 2.22014 0
M  V30 1196 H 111.382 0.967191 1.06684 0
M  V30 1197 H 113.335 0.556505 4.17709 0
M  V30 1198 H 112.059 -0.275819 3.25433 0
M  V30 1199 H 110.718 1.8547 3.16222 0
M  V30 1200 H 110.366 0.223499 5.02503 0
M  V30 1201 H 110.066 1.89545 5.56189 0
M  V30 1202 H 111.59 1.07782 6.01012 0
M  V30 1203 H 113.004 3.03775 4.86203 0
M  V30 1204 H 111.401 3.79875 4.64559 0
M  V30 1205 H 112.471 3.6025 3.24573 0
M  V30 1206 N 113.814 -1.1601 1.06675 0
M  V30 1207 C 114.747 -2.1947 0.625168 0
M  V30 1208 C 115.725 -1.58699 -0.354041 0
M  V30 1209 O 116.909 -1.86669 -0.262098 0
M  V30 1210 C 114.036 -3.38598 -0.0829593 0
M  V30 1211 C 113.082 -4.1787 0.853611 0
M  V30 1212 S 113.915 -4.81135 2.35094 0
M  V30 1213 C 115.071 -6.03639 1.65441 0
M  V30 1214 H 115.304 -2.56587 1.50168 0
M  V30 1215 H 112.837 -1.26862 0.880078 0
M  V30 1216 H 114.795 -4.07621 -0.485288 0
M  V30 1217 H 113.456 -2.99839 -0.935716 0
M  V30 1218 H 112.649 -5.03078 0.304755 0
M  V30 1219 H 112.251 -3.54361 1.196 0
M  V30 1220 H 114.543 -6.70632 0.962201 0
M  V30 1221 H 115.486 -6.63081 2.48454 0
M  V30 1222 H 115.894 -5.52965 1.13534 0
M  V30 1223 N 115.292 -0.849877 -1.32721 0
M  V30 1224 C 116.541 -0.447175 -1.96681 0
M  V30 1225 C 116.854 1.00135 -1.68025 0
M  V30 1226 O 118.06 1.50926 -2.25685 0
M  V30 1227 C 116.516 -0.7487 -3.52026 0
M  V30 1228 C 116.124 -2.21264 -3.89546 0
M  V30 1229 C 117.868 -0.413487 -4.22481 0
M  V30 1230 C 115.775 -2.45763 -5.37917 0
M  V30 1231 H 114.705 -0.163486 -0.736063 0
M  V30 1232 H 117.356 -1.03999 -1.51183 0
M  V30 1233 H 115.738 -0.0853727 -3.95908 0
M  V30 1234 H 116.912 -2.91736 -3.56689 0
M  V30 1235 H 115.227 -2.5119 -3.32103 0
M  V30 1236 H 117.824 -0.574017 -5.3161 0
M  V30 1237 H 118.167 0.644492 -4.11281 0
M  V30 1238 H 118.7 -1.03251 -3.84167 0
M  V30 1239 H 115.439 -3.50168 -5.54132 0
M  V30 1240 H 114.959 -1.79864 -5.72197 0
M  V30 1241 H 116.638 -2.29471 -6.0494 0
M  V30 1242 N 116.77 1.45427 -0.607355 0
M  V30 1243 C 118.016 2.0254 -0.102607 0
M  V30 1244 C 118.349 1.47478 1.26348 0
M  V30 1245 O 117.624 0.64939 1.83339 0
M  V30 1246 C 117.907 3.60044 -0.0634347 0
M  V30 1247 C 117.76 4.2544 -1.46017 0
M  V30 1248 C 119.079 4.35646 0.624514 0
M  V30 1249 H 116.198 0.73598 -0.0387607 0
M  V30 1250 H 118.84 1.73284 -0.779282 0
M  V30 1251 H 116.99 3.85101 0.512808 0
M  V30 1252 H 118.662 4.11569 -2.08347 0
M  V30 1253 H 116.905 3.83849 -2.02094 0
M  V30 1254 H 117.576 5.34342 -1.385 0
M  V30 1255 H 120.052 4.15882 0.134723 0
M  V30 1256 H 118.928 5.45376 0.621028 0
M  V30 1257 H 119.189 4.08501 1.69055 0
M  V30 1258 N 118.248 0.346503 1.53744 0
M  V30 1259 C 119.496 -0.248612 2.00565 0
M  V30 1260 C 119.817 -1.5083 1.23593 0
M  V30 1261 O 119.087 -1.92858 0.343912 0
M  V30 1262 H 117.667 -0.0948564 0.740953 0
M  V30 1263 H 120.329 0.468341 1.89189 0
M  V30 1264 H 119.425 -0.488994 3.08245 0
M  V30 1265 N 119.726 -1.57421 0.075193 0
M  V30 1266 C 120.673 -2.12915 -0.890843 0
M  V30 1267 C 121.643 -1.04252 -1.29309 0
M  V30 1268 O 122.828 -1.31933 -1.37834 0
M  V30 1269 C 119.968 -2.69795 -2.15186 0
M  V30 1270 C 119.081 -3.92624 -1.80194 0
M  V30 1271 C 118.216 -4.37736 -3.00933 0
M  V30 1272 C 117.255 -5.53205 -2.61974 0
M  V30 1273 N 116.392 -5.9326 -3.75483 0
M  V30 1274 H 121.232 -2.95156 -0.410735 0
M  V30 1275 H 118.769 -1.45854 -0.191086 0
M  V30 1276 H 120.727 -3.00883 -2.89008 0
M  V30 1277 H 119.357 -1.90313 -2.60731 0
M  V30 1278 H 118.409 -3.67977 -0.964218 0
M  V30 1279 H 119.721 -4.76482 -1.47534 0
M  V30 1280 H 118.875 -4.70503 -3.8303 0
M  V30 1281 H 117.614 -3.52739 -3.36789 0
M  V30 1282 H 116.619 -5.20086 -1.783 0
M  V30 1283 H 117.844 -6.39936 -2.27284 0
M  V30 1284 H 115.79 -5.11212 -4.11094 0
M  V30 1285 H 115.707 -6.71865 -3.46602 0
M  V30 1286 H 116.975 -6.30651 -4.58148 0
M  V30 1287 N 121.204 0.198386 -1.56346 0
M  V30 1288 C 122.151 1.24589 -1.94284 0
M  V30 1289 C 123.121 1.454 -0.802997 0
M  V30 1290 O 124.306 1.58588 -1.06087 0
M  V30 1291 C 121.446 2.58631 -2.28482 0
M  V30 1292 C 120.559 2.45426 -3.55514 0
M  V30 1293 C 119.694 3.7215 -3.79049 0
M  V30 1294 C 118.733 3.53763 -4.99518 0
M  V30 1295 N 117.87 4.72491 -5.19323 0
M  V30 1296 H 122.71 0.915356 -2.83593 0
M  V30 1297 H 120.247 0.440629 -1.40346 0
M  V30 1298 H 122.205 3.3672 -2.46324 0
M  V30 1299 H 120.835 2.89734 -1.42317 0
M  V30 1300 H 119.887 1.58652 -3.45737 0
M  V30 1301 H 121.199 2.27772 -4.43758 0
M  V30 1302 H 120.353 4.58679 -3.97113 0
M  V30 1303 H 119.092 3.92754 -2.89129 0
M  V30 1304 H 118.097 2.65619 -4.8138 0
M  V30 1305 H 119.322 3.34607 -5.90944 0
M  V30 1306 H 117.268 4.93365 -4.3235 0
M  V30 1307 H 117.185 4.5765 -6.01741 0
M  V30 1308 H 118.453 5.6038 -5.41843 0
M  V30 1309 N 122.682 1.50554 0.465978 0
M  V30 1310 C 123.922 1.63439 1.22747 0
M  V30 1311 C 124.286 0.329822 1.89146 0
M  V30 1312 O 125.487 0.334161 2.66715 0
M  V30 1313 C 123.758 2.78542 2.2394 0
M  V30 1314 S 125.317 3.11591 3.0896 0
M  V30 1315 H 122.135 0.576113 0.416672 0
M  V30 1316 H 124.737 1.88357 0.523641 0
M  V30 1317 H 123.441 3.71805 1.7375 0
M  V30 1318 H 122.972 2.55726 2.98944 0
M  V30 1319 H 124.987 2.55811 4.25176 0
M  V30 1320 N 124.16 -0.719506 1.40217 0
M  V30 1321 C 125.123 -1.8153 1.39927 0
M  V30 1322 C 126.123 -1.58095 0.293723 0
M  V30 1323 O 127.313 -1.65209 0.552429 0
M  V30 1324 C 124.445 -3.19561 1.18716 0
M  V30 1325 H 125.638 -1.83186 2.37451 0
M  V30 1326 H 123.191 -0.924746 1.26008 0
M  V30 1327 H 123.926 -3.23557 0.219366 0
M  V30 1328 H 123.711 -3.3797 1.98793 0
M  V30 1329 H 125.201 -3.99598 1.21291 0
M  V30 1330 N 125.638 -1.25649 -0.95132 0
M  V30 1331 C 126.601 -1.06399 -2.03007 0
M  V30 1332 C 127.601 -0.0156794 -1.60792 0
M  V30 1333 O 128.791 -0.25817 -1.72276 0
M  V30 1334 C 125.923 -0.616184 -3.35285 0
M  V30 1335 H 127.116 -2.02164 -2.21517 0
M  V30 1336 H 124.669 -1.08103 -1.12887 0
M  V30 1337 H 125.404 0.343917 -3.22471 0
M  V30 1338 H 125.189 -1.37301 -3.67275 0
M  V30 1339 H 126.679 -0.503032 -4.14559 0
M  V30 1340 N 127.117 1.15442 -1.07289 0
M  V30 1341 C 128.394 1.82306 -0.708792 0
M  V30 1342 C 128.774 1.94991 0.808807 0
M  V30 1343 O 128.122 1.50085 1.72298 0
M  V30 1344 C 128.332 3.18695 -1.42247 0
M  V30 1345 C 129.68 3.94341 -1.57417 0
M  V30 1346 O 130.704 3.28247 -1.38319 0
M  V30 1347 O 129.563 5.12839 -1.88834 0
M  V30 1348 H 126.657 0.787628 -0.252132 0
M  V30 1349 H 129.203 1.22559 -1.17377 0
M  V30 1350 H 127.975 3.04557 -2.45684 0
M  V30 1351 H 127.598 3.86128 -0.948223 0
M  V30 1352 N 128.595 0.856903 1.32268 0
M  V30 1353 C 129.525 0.31858 2.31316 0
M  V30 1354 C 130.506 -0.583487 1.59779 0
M  V30 1355 O 131.691 -0.503259 1.87566 0
M  V30 1356 C 128.821 -0.491979 3.43798 0
M  V30 1357 C 127.775 0.315849 4.26833 0
M  V30 1358 C 127.101 -0.619586 5.31098 0
M  V30 1359 C 128.401 1.54282 4.98993 0
M  V30 1360 H 130.095 1.14621 2.76591 0
M  V30 1361 H 127.641 0.552613 1.32974 0
M  V30 1362 H 129.594 -0.879012 4.1213 0
M  V30 1363 H 128.318 -1.35299 2.97257 0
M  V30 1364 H 126.977 0.684664 3.6015 0
M  V30 1365 H 126.625 -1.47751 4.8081 0
M  V30 1366 H 126.325 -0.0830621 5.87541 0
M  V30 1367 H 127.849 -1.00375 6.02293 0
M  V30 1368 H 129.263 1.22796 5.59995 0
M  V30 1369 H 127.66 2.01745 5.65172 0
M  V30 1370 H 128.73 2.30285 4.26728 0
M  V30 1371 N 130.073 -1.45103 0.615059 0
M  V30 1372 C 131.321 -2.01784 0.112955 0
M  V30 1373 C 131.642 -1.48504 -1.26378 0
M  V30 1374 O 130.912 -0.682245 -1.83636 0
M  V30 1375 H 129.492 -0.745993 0.0387668 0
M  V30 1376 H 132.154 -1.77808 0.798141 0
M  V30 1377 H 131.25 -3.12025 0.0684069 0
M  V30 1378 N 131.551 -0.354651 -1.53558 0
M  V30 1379 C 132.481 0.489091 -2.2832 0
M  V30 1380 C 133.462 1.09324 -1.30316 0
M  V30 1381 O 134.647 1.11255 -1.59173 0
M  V30 1382 C 131.777 1.63456 -3.0643 0
M  V30 1383 C 130.731 1.1582 -4.12031 0
M  V30 1384 C 130.057 2.39305 -4.7816 0
M  V30 1385 C 131.357 0.250731 -5.21698 0
M  V30 1386 H 133.051 -0.134614 -2.99097 0
M  V30 1387 H 130.597 -0.0661826 -1.43848 0
M  V30 1388 H 132.55 2.23136 -3.57475 0
M  V30 1389 H 131.274 2.28533 -2.33325 0
M  V30 1390 H 129.933 0.584146 -3.61916 0
M  V30 1391 H 129.581 3.02814 -4.01637 0
M  V30 1392 H 129.281 2.08109 -5.49513 0
M  V30 1393 H 130.805 2.99691 -5.31994 0
M  V30 1394 H 132.219 0.754695 -5.68311 0
M  V30 1395 H 130.616 0.0301468 -6.00092 0
M  V30 1396 H 131.686 -0.710125 -4.79672 0
M  V30 1397 N 133.029 1.57378 -0.0835403 0
M  V30 1398 C 133.977 2.14602 0.89714 0
M  V30 1399 C 134.971 1.08589 1.30018 0
M  V30 1400 O 136.177 1.26952 1.27606 0
M  V30 1401 H 132.552 0.686346 0.3073 0
M  V30 1402 H 134.523 2.95845 0.38969 0
M  V30 1403 C 133.272 2.73188 2.15089 0
M  V30 1404 H 132.595 3.54442 1.84962 0
M  V30 1405 H 134.035 3.1681 2.81793 0
M  V30 1406 C 132.494 1.68517 2.91725 0
M  V30 1407 O 133.024 1.11718 3.85852 0
M  V30 1408 N 131.23 1.39277 2.55049 0
M  V30 1409 H 130.777 1.85655 1.78577 0
M  V30 1410 H 130.735 0.694791 3.06627 0
M  V30 1411 N 134.507 -0.190092 1.56449 0
M  V30 1412 C 135.454 -1.23557 1.94942 0
M  V30 1413 C 136.424 -1.44972 0.810696 0
M  V30 1414 O 137.609 -1.58023 1.06927 0
M  V30 1415 C 134.749 -2.57416 2.2985 0
M  V30 1416 C 133.862 -2.43537 3.5681 0
M  V30 1417 C 132.997 -3.70134 3.81017 0
M  V30 1418 C 132.036 -3.51109 5.01387 0
M  V30 1419 N 131.173 -4.6973 5.21822 0
M  V30 1420 H 136.013 -0.900304 2.84075 0
M  V30 1421 H 133.55 -0.43318 1.40577 0
M  V30 1422 H 135.508 -3.35409 2.48106 0
M  V30 1423 H 134.138 -2.88975 1.43852 0
M  V30 1424 H 133.19 -1.56816 3.46573 0
M  V30 1425 H 134.502 -2.25415 4.4496 0
M  V30 1426 H 133.656 -4.56566 3.9954 0
M  V30 1427 H 132.395 -3.91215 2.91207 0
M  V30 1428 H 131.4 -2.63063 4.82782 0
M  V30 1429 H 132.625 -3.31468 5.9271 0
M  V30 1430 H 130.571 -4.91065 4.34961 0
M  V30 1431 H 130.488 -4.54452 6.0416 0
M  V30 1432 H 131.756 -5.57499 5.44808 0
M  V30 1433 N 135.985 -1.50799 -0.457987 0
M  V30 1434 C 137.233 -1.62121 -1.2067 0
M  V30 1435 C 137.554 -0.329793 -1.92191 0
M  V30 1436 O 136.824 0.653409 -1.84682 0
M  V30 1437 H 135.404 -0.597441 -0.448411 0
M  V30 1438 H 138.066 -1.87637 -0.527096 0
M  V30 1439 H 137.162 -2.43882 -1.94751 0
M  V30 1440 N 137.463 0.71206 -1.40597 0
M  V30 1441 C 138.693 1.49894 -1.42181 0
M  V30 1442 C 139.101 1.89189 -0.0208078 0
M  V30 1443 O 138.444 1.56223 0.966436 0
M  V30 1444 C 138.506 2.80215 -2.25211 0
M  V30 1445 C 138.17 2.63221 -3.73582 0
M  V30 1446 C 139.167 2.30249 -4.66135 0
M  V30 1447 C 136.852 2.79376 -4.17438 0
M  V30 1448 C 138.846 2.13645 -6.00529 0
M  V30 1449 C 136.533 2.6239 -5.51901 0
M  V30 1450 C 137.531 2.29573 -6.43262 0
M  V30 1451 O 137.219 2.12719 -7.75246 0
M  V30 1452 H 136.951 0.469031 -0.486812 0
M  V30 1453 H 139.505 0.88564 -1.85326 0
M  V30 1454 H 137.735 3.4389 -1.76852 0
M  V30 1455 H 139.424 3.41947 -2.18694 0
M  V30 1456 H 140.19 2.17398 -4.33547 0
M  V30 1457 H 136.069 3.03906 -3.46644 0
M  V30 1458 H 139.613 1.87953 -6.71803 0
M  V30 1459 H 135.51 2.74826 -5.84073 0
M  V30 1460 H 136.278 2.27611 -7.86216 0
M  V30 1461 N 138.941 1.26152 0.944643 0
M  V30 1462 C 140.357 1.03189 1.21754 0
M  V30 1463 C 140.557 -0.245112 2.00004 0
M  V30 1464 O 139.613 -0.955176 2.33736 0
M  V30 1465 C 140.926 2.26119 1.98219 0
M  V30 1466 C 142.474 2.30984 2.11224 0
M  V30 1467 C 142.949 3.53597 2.91089 0
M  V30 1468 N 144.44 3.54053 2.98664 0
M  V30 1469 C 145.175 4.45593 3.60881 0
M  V30 1470 N 144.671 5.47416 4.24626 0
M  V30 1471 N 146.464 4.33252 3.58119 0
M  V30 1472 H 138.615 2.08177 0.421437 0
M  V30 1473 H 140.878 0.914723 0.248969 0
M  V30 1474 H 140.584 3.18984 1.48128 0
M  V30 1475 H 140.458 2.3009 2.98895 0
M  V30 1476 H 142.845 1.38635 2.60508 0
M  V30 1477 H 142.926 2.31026 1.09821 0
M  V30 1478 H 142.57 4.46273 2.42493 0
M  V30 1479 H 142.5 3.50802 3.92741 0
M  V30 1480 H 144.991 2.80403 2.53343 0
M  V30 1481 H 145.304 6.13459 4.69987 0
M  V30 1482 H 143.649 5.51278 4.23223 0
M  V30 1483 H 146.84 3.52924 3.0751 0
M  V30 1484 H 147.013 5.04786 4.06319 0
M  V30 1485 N 140.419 -1.14872 1.07899 0
M  V30 1486 C 141.352 -2.18794 0.64841 0
M  V30 1487 C 142.33 -1.59065 -0.337189 0
M  V30 1488 O 143.514 -1.86936 -0.242284 0
M  V30 1489 C 140.641 -3.38667 -0.0470417 0
M  V30 1490 C 139.687 -4.16942 0.897884 0
M  V30 1491 S 140.52 -4.78615 2.40183 0
M  V30 1492 C 141.676 -6.0185 1.71834 0
M  V30 1493 H 141.909 -2.5498 1.52881 0
M  V30 1494 H 139.442 -1.25922 0.893484 0
M  V30 1495 H 141.4 -4.08113 -0.442027 0
M  V30 1496 H 140.061 -3.00814 -0.903861 0
M  V30 1497 H 139.254 -5.02726 0.358096 0
M  V30 1498 H 138.856 -3.53073 1.23352 0
M  V30 1499 H 141.148 -6.69574 1.03328 0
M  V30 1500 H 142.091 -6.60408 2.55473 0
M  V30 1501 H 142.499 -5.5173 1.19392 0
M  V30 1502 N 141.898 -0.863906 -1.31812 0
M  V30 1503 C 143.144 -0.472535 -1.97218 0
M  V30 1504 C 143.477 0.971394 -1.68159 0
M  V30 1505 O 142.752 1.68309 -0.974798 0
M  V30 1506 C 143.035 -0.723054 -3.52766 0
M  V30 1507 C 142.888 -2.21608 -3.91421 0
M  V30 1508 C 144.207 -0.185522 -4.39709 0
M  V30 1509 H 141.326 -0.173158 -0.71637 0
M  V30 1510 H 143.968 -1.08403 -1.56041 0
M  V30 1511 H 142.118 -0.202577 -3.87971 0
M  V30 1512 H 143.79 -2.80334 -3.66347 0
M  V30 1513 H 142.033 -2.691 -3.40246 0
M  V30 1514 H 142.704 -2.34203 -4.99853 0
M  V30 1515 H 145.18 -0.630726 -4.11292 0
M  V30 1516 H 144.056 -0.390306 -5.47511 0
M  V30 1517 H 144.317 0.912229 -4.32586 0
M  V30 1518 N 143.376 1.44774 -0.622745 0
M  V30 1519 C 144.622 2.0242 -0.124083 0
M  V30 1520 C 144.955 1.4881 1.24777 0
M  V30 1521 O 144.23 0.668799 1.8264 0
M  V30 1522 C 144.513 3.59957 -0.101619 0
M  V30 1523 C 144.366 4.23867 -1.50521 0
M  V30 1524 C 145.685 4.36284 0.578272 0
M  V30 1525 H 142.804 0.735528 -0.0465645 0
M  V30 1526 H 145.446 1.72447 -0.797617 0
M  V30 1527 H 143.596 3.85623 0.471934 0
M  V30 1528 H 145.268 4.09336 -2.12701 0
M  V30 1529 H 143.511 3.81684 -2.06154 0
M  V30 1530 H 144.182 5.32843 -1.4416 0
M  V30 1531 H 146.658 4.16001 0.0906057 0
M  V30 1532 H 145.534 5.46004 0.563149 0
M  V30 1533 H 145.795 4.10271 1.64713 0
M  V30 1534 N 144.854 0.36279 1.53368 0
M  V30 1535 C 145.802 -0.500155 2.27159 0
M  V30 1536 C 146.796 -1.08575 1.3003 0
M  V30 1537 O 148.002 -1.02927 1.47668 0
M  V30 1538 H 144.377 -0.180009 0.730138 0
M  V30 1539 H 146.348 0.14401 2.98052 0
M  V30 1540 C 145.097 -1.62937 3.07159 0
M  V30 1541 H 144.42 -1.18806 3.8174 0
M  V30 1542 H 145.86 -2.20795 3.61975 0
M  V30 1543 C 144.319 -2.57007 2.17829 0
M  V30 1544 O 144.849 -3.59752 1.78721 0
M  V30 1545 N 143.055 -2.26131 1.82518 0
M  V30 1546 H 142.602 -1.42616 2.14519 0
M  V30 1547 H 142.56 -2.89327 1.23034 0
M  V30 1548 N 146.332 -1.57332 0.0918853 0
M  V30 1549 C 147.242 -2.17368 -0.882505 0
M  V30 1550 C 148.258 -1.14226 -1.31257 0
M  V30 1551 O 149.434 -1.46582 -1.38115 0
M  V30 1552 C 146.499 -2.73962 -2.12476 0
M  V30 1553 C 145.56 -3.92048 -1.7492 0
M  V30 1554 C 144.793 -4.45933 -2.93223 0
M  V30 1555 O 145.016 -3.98764 -4.07852 0
M  V30 1556 O 143.95 -5.36999 -2.71875 0
M  V30 1557 H 147.776 -3.01031 -0.40172 0
M  V30 1558 H 145.361 -1.48813 -0.132291 0
M  V30 1559 H 147.243 -3.10147 -2.85283 0
M  V30 1560 H 145.918 -1.93347 -2.59613 0
M  V30 1561 H 144.825 -3.6068 -0.993025 0
M  V30 1562 H 146.158 -4.74017 -1.32548 0
M  V30 1563 N 147.81 0.181792 -1.56548 0
M  V30 1564 C 149.058 0.89832 -1.81038 0
M  V30 1565 C 149.379 1.83232 -0.667164 0
M  V30 1566 O 148.649 1.93372 0.313673 0
M  V30 1567 H 147.229 0.33471 -0.667816 0
M  V30 1568 H 149.891 0.184116 -1.94028 0
M  V30 1569 H 148.987 1.4815 -2.74696 0
M  V30 1570 N 149.288 1.51039 0.449983 0
M  V30 1571 C 150.513 1.6715 1.22783 0
M  V30 1572 C 150.938 0.363081 1.84563 0
M  V30 1573 O 150.296 -0.675433 1.68249 0
M  V30 1574 C 150.344 2.77985 2.29689 0
M  V30 1575 O 149.448 2.40707 3.34864 0
M  V30 1576 H 148.789 0.557746 0.360299 0
M  V30 1577 H 151.319 1.97535 0.533005 0
M  V30 1578 H 151.329 3.01693 2.74673 0
M  V30 1579 H 150.004 3.72935 1.84098 0
M  V30 1580 H 148.581 2.27523 2.95445 0
M  V30 1581 N 150.766 -0.704594 1.40972 0
M  V30 1582 C 152.043 -1.45847 1.30338 0
M  V30 1583 C 152.423 -2.10973 -0.0732344 0
M  V30 1584 O 151.771 -2.00997 -1.08685 0
M  V30 1585 C 151.981 -2.48525 2.45023 0
M  V30 1586 C 153.329 -3.1404 2.8577 0
M  V30 1587 O 154.353 -2.58848 2.44696 0
M  V30 1588 O 153.212 -4.13981 3.56766 0
M  V30 1589 H 150.306 -0.649092 0.512454 0
M  V30 1590 H 152.852 -0.735836 1.52917 0
M  V30 1591 H 151.624 -1.98994 3.36923 0
M  V30 1592 H 151.247 -3.2831 2.24272 0
M  V30 1593 N 152.244 -1.26651 -0.937939 0
M  V30 1594 C 153.492 -1.12165 -1.68118 0
M  V30 1595 C 153.813 0.334983 -1.92101 0
M  V30 1596 O 153.083 1.23583 -1.52 0
M  V30 1597 H 151.663 -0.412093 -0.623048 0
M  V30 1598 H 154.325 -1.59027 -1.12678 0
M  V30 1599 H 153.421 -1.64289 -2.6536 0
M  V30 1600 N 153.722 1.14298 -1.08507 0
M  V30 1601 C 154.97 1.84993 -0.813763 0
M  V30 1602 C 155.291 1.83405 0.662393 0
M  V30 1603 O 154.561 1.28319 1.48024 0
M  V30 1604 H 153.141 0.684966 -0.298045 0
M  V30 1605 H 155.803 1.385 -1.37126 0
M  V30 1606 H 154.899 2.89788 -1.15884 0
M  V30 1607 N 155.201 0.870884 1.31352 0
M  V30 1608 C 156.133 0.28455 2.27427 0
M  V30 1609 C 157.146 -0.552927 1.53123 0
M  V30 1610 O 158.335 -0.374771 1.74521 0
M  V30 1611 C 155.435 -0.615164 3.3327 0
M  V30 1612 C 154.608 0.190079 4.36987 0
M  V30 1613 C 153.667 -0.637917 5.22319 0
M  V30 1614 O 152.693 -0.065626 5.69162 0
M  V30 1615 N 153.895 -1.94973 5.46778 0
M  V30 1616 H 156.66 1.11017 2.7838 0
M  V30 1617 H 154.221 0.732458 1.44384 0
M  V30 1618 H 156.213 -1.1748 3.87273 0
M  V30 1619 H 154.783 -1.34146 2.82354 0
M  V30 1620 H 154.003 0.931165 3.83044 0
M  V30 1621 H 155.291 0.742579 5.03352 0
M  V30 1622 H 154.689 -2.4378 5.10478 0
M  V30 1623 H 153.246 -2.45713 6.03712 0
M  V30 1624 N 156.679 -1.44442 0.630414 0
M  V30 1625 C 157.904 -2.06927 0.139944 0
M  V30 1626 C 158.329 -1.46795 -1.17613 0
M  V30 1627 O 157.687 -0.569144 -1.72135 0
M  V30 1628 C 157.735 -3.6058 0.0379581 0
M  V30 1629 O 156.839 -3.99937 -1.0062 0
M  V30 1630 H 156.18 -0.658608 0.0844483 0
M  V30 1631 H 158.71 -1.85327 0.866891 0
M  V30 1632 H 158.72 -4.07714 -0.152856 0
M  V30 1633 H 157.395 -4.03728 0.998809 0
M  V30 1634 H 155.972 -3.64436 -0.79001 0
M  V30 1635 N 158.157 -0.370918 -1.53173 0
M  V30 1636 C 159.403 0.217423 -2.01631 0
M  V30 1637 C 159.736 1.47983 -1.25756 0
M  V30 1638 O 159.011 1.91274 -0.352764 0
M  V30 1639 C 159.294 0.503982 -3.56556 0
M  V30 1640 C 159.147 -0.77243 -4.43118 0
M  V30 1641 C 160.466 1.30234 -4.20389 0
M  V30 1642 H 157.585 0.0775486 -0.732909 0
M  V30 1643 H 160.227 -0.496863 -1.83388 0
M  V30 1644 H 158.377 1.11248 -3.72231 0
M  V30 1645 H 160.049 -1.4098 -4.39229 0
M  V30 1646 H 158.292 -1.39167 -4.10871 0
M  V30 1647 H 158.963 -0.526815 -5.4948 0
M  V30 1648 H 161.439 0.787546 -4.08579 0
M  V30 1649 H 160.315 1.47158 -5.28806 0
M  V30 1650 H 160.576 2.31237 -3.76805 0
M  V30 1651 N 159.635 1.57281 -0.100228 0
M  V30 1652 C 160.865 1.98591 0.569681 0
M  V30 1653 C 161.273 0.978315 1.61943 0
M  V30 1654 O 160.616 -0.0396108 1.83657 0
M  V30 1655 C 160.678 3.36282 1.271 0
M  V30 1656 C 160.342 4.55488 0.371409 0
M  V30 1657 C 161.339 5.18491 -0.382504 0
M  V30 1658 C 159.024 5.01474 0.287965 0
M  V30 1659 C 161.018 6.25852 -1.20779 0
M  V30 1660 C 158.705 6.08701 -0.540965 0
M  V30 1661 C 159.703 6.70755 -1.28749 0
M  V30 1662 O 159.391 7.75914 -2.10269 0
M  V30 1663 H 159.123 0.65752 0.156982 0
M  V30 1664 H 161.677 2.0463 -0.177734 0
M  V30 1665 H 159.907 3.26941 2.0651 0
M  V30 1666 H 161.596 3.62005 1.83595 0
M  V30 1667 H 162.362 4.83891 -0.3278 0
M  V30 1668 H 158.241 4.52932 0.858689 0
M  V30 1669 H 161.785 6.74218 -1.79096 0
M  V30 1670 H 157.682 6.42732 -0.597131 0
M  V30 1671 H 158.45 7.92925 -2.03007 0
M  V30 1672 N 161.113 -0.173488 1.56642 0
M  V30 1673 C 162.063 -1.21941 1.92651 0
M  V30 1674 C 163.047 -1.39912 0.794577 0
M  V30 1675 O 164.239 -1.41919 1.05773 0
M  V30 1676 C 161.368 -2.55935 2.28806 0
M  V30 1677 C 160.454 -2.41667 3.48508 0
M  V30 1678 N 160.845 -1.9711 4.65813 0
M  V30 1679 C 159.143 -2.72499 3.53072 0
M  V30 1680 C 159.844 -1.95253 5.47952 0
M  V30 1681 N 158.82 -2.37575 4.88937 0
M  V30 1682 H 162.622 -0.866581 2.80834 0
M  V30 1683 H 160.136 -0.381776 1.57849 0
M  V30 1684 H 162.133 -3.31511 2.52797 0
M  V30 1685 H 160.793 -2.92022 1.41961 0
M  V30 1686 H 161.804 -1.67481 4.90072 0
M  V30 1687 H 158.481 -3.12639 2.767 0
M  V30 1688 H 159.871 -1.6252 6.51948 0
M  V30 1689 N 162.591 -1.51276 -0.441967 0
M  V30 1690 C 163.837 -1.63958 -1.19355 0
M  V30 1691 C 164.17 -0.352543 -1.90973 0
M  V30 1692 O 163.445 0.647627 -1.83401 0
M  V30 1693 C 163.728 -2.83979 -2.21422 0
M  V30 1694 C 163.581 -4.22646 -1.53918 0
M  V30 1695 C 164.9 -2.99521 -3.22451 0
M  V30 1696 H 162.019 -0.596709 -0.432559 0
M  V30 1697 H 164.661 -1.83748 -0.483398 0
M  V30 1698 H 162.811 -2.67237 -2.81987 0
M  V30 1699 H 164.483 -4.51045 -0.967256 0
M  V30 1700 H 162.726 -4.25558 -0.841615 0
M  V30 1701 H 163.397 -5.02609 -2.28229 0
M  V30 1702 H 165.873 -3.14944 -2.71937 0
M  V30 1703 H 164.749 -3.85072 -3.91166 0
M  V30 1704 H 165.01 -2.11391 -3.88287 0
M  V30 1705 N 164.069 0.697108 -1.41344 0
M  V30 1706 C 165.019 1.80313 -1.39539 0
M  V30 1707 C 166.003 1.58618 -0.270001 0
M  V30 1708 O 167.195 1.69477 -0.510551 0
M  V30 1709 C 164.324 3.18606 -1.27848 0
M  V30 1710 C 163.41 3.46001 -2.45244 0
M  V30 1711 N 163.801 3.44103 -3.70711 0
M  V30 1712 C 162.099 3.76542 -2.39023 0
M  V30 1713 C 162.8 3.7036 -4.48563 0
M  V30 1714 N 161.776 3.90027 -3.78655 0
M  V30 1715 H 165.578 1.77207 -2.34468 0
M  V30 1716 H 163.092 0.897031 -1.35378 0
M  V30 1717 H 165.089 3.97833 -1.24637 0
M  V30 1718 H 163.749 3.22925 -0.339032 0
M  V30 1719 H 164.76 3.2452 -4.03618 0
M  V30 1720 H 161.437 3.88241 -1.53542 0
M  V30 1721 H 162.827 3.75042 -5.57488 0
M  V30 1722 N 165.547 1.27147 0.931209 0
M  V30 1723 C 166.477 1.12081 2.04842 0
M  V30 1724 C 167.458 0.0232364 1.70084 0
M  V30 1725 O 168.643 0.197085 1.93197 0
M  V30 1726 C 165.773 0.76354 3.38803 0
M  V30 1727 C 164.727 1.81396 3.87659 0
M  V30 1728 C 164.053 1.31075 5.18385 0
M  V30 1729 C 165.353 3.21739 4.11438 0
M  V30 1730 H 167.047 2.05537 2.17703 0
M  V30 1731 H 164.593 0.989603 1.04608 0
M  V30 1732 H 166.546 0.644982 4.16435 0
M  V30 1733 H 165.27 -0.206727 3.25945 0
M  V30 1734 H 163.929 1.92136 3.12217 0
M  V30 1735 H 163.577 0.330037 5.01916 0
M  V30 1736 H 163.277 2.013 5.52044 0
M  V30 1737 H 164.801 1.20506 5.98591 0
M  V30 1738 H 166.215 3.14019 4.79651 0
M  V30 1739 H 164.612 3.89644 4.56397 0
M  V30 1740 H 165.682 3.67054 3.16859 0
M  V30 1741 N 167.025 -1.13721 1.09112 0
M  V30 1742 C 167.975 -2.17082 0.697091 0
M  V30 1743 C 168.959 -1.58321 -0.286923 0
M  V30 1744 O 170.151 -1.7673 -0.0978008 0
M  V30 1745 C 167.28 -3.43105 0.115729 0
M  V30 1746 C 166.366 -4.0888 1.12596 0
M  V30 1747 N 166.757 -4.4987 2.31195 0
M  V30 1748 C 165.055 -4.35471 0.963366 0
M  V30 1749 C 165.756 -5.01094 2.95431 0
M  V30 1750 N 164.732 -4.95751 2.23006 0
M  V30 1751 H 168.534 -2.46524 1.6001 0
M  V30 1752 H 166.048 -1.30481 0.966869 0
M  V30 1753 H 168.045 -4.16491 -0.184555 0
M  V30 1754 H 166.705 -3.15138 -0.78217 0
M  V30 1755 H 167.716 -4.42678 2.68806 0
M  V30 1756 H 164.393 -4.17328 0.119878 0
M  V30 1757 H 165.783 -5.4263 3.96236 0
M  V30 1758 N 168.503 -0.877838 -1.30888 0
M  V30 1759 C 169.749 -0.493426 -1.96706 0
M  V30 1760 C 170.082 0.953504 -1.6918 0
M  V30 1761 O 169.357 1.67266 -0.992594 0
M  V30 1762 C 169.64 -0.760429 -3.51979 0
M  V30 1763 C 169.493 -2.25747 -3.89048 0
M  V30 1764 C 170.812 -0.232148 -4.39487 0
M  V30 1765 H 167.931 -0.180746 -0.714493 0
M  V30 1766 H 170.573 -1.10052 -1.54882 0
M  V30 1767 H 168.723 -0.243715 -3.87735 0
M  V30 1768 H 170.395 -2.84204 -3.63354 0
M  V30 1769 H 168.638 -2.72694 -3.37373 0
M  V30 1770 H 169.309 -2.39491 -4.97341 0
M  V30 1771 H 171.785 -0.674314 -4.106 0
M  V30 1772 H 170.661 -0.448355 -5.47066 0
M  V30 1773 H 170.922 0.866297 -4.33529 0
M  V30 1774 N 169.982 1.44106 -0.638065 0
M  V30 1775 C 170.912 2.33448 0.0494287 0
M  V30 1776 C 171.893 1.48606 0.827672 0
M  V30 1777 O 173.078 1.77308 0.792173 0
M  V30 1778 C 170.208 3.31771 1.02691 0
M  V30 1779 C 169.162 4.26485 0.359823 0
M  V30 1780 C 168.488 5.14729 1.44769 0
M  V30 1781 C 169.788 5.17056 -0.738296 0
M  V30 1782 H 171.482 2.91183 -0.696636 0
M  V30 1783 H 169.028 1.40014 -0.336456 0
M  V30 1784 H 170.981 3.93161 1.51666 0
M  V30 1785 H 169.705 2.7226 1.80395 0
M  V30 1786 H 168.364 3.66437 -0.10934 0
M  V30 1787 H 168.012 4.51566 2.21578 0
M  V30 1788 H 167.712 5.78913 1.00668 0
M  V30 1789 H 169.236 5.78991 1.93911 0
M  V30 1790 H 170.65 5.72342 -0.331354 0
M  V30 1791 H 169.047 5.89879 -1.10286 0
M  V30 1792 H 170.117 4.57652 -1.60258 0
M  V30 1793 N 171.46 0.379036 1.52974 0
M  V30 1794 C 172.708 -0.206014 2.01047 0
M  V30 1795 C 173.029 -1.48175 1.26765 0
M  V30 1796 O 172.299 -1.92085 0.384743 0
M  V30 1797 H 170.879 -0.0791184 0.742798 0
M  V30 1798 H 173.541 0.508366 1.88153 0
M  V30 1799 H 172.637 -0.423501 3.09213 0
M  V30 1800 N 172.938 -1.57226 0.108567 0
M  V30 1801 C 174.186 -1.94448 -0.550853 0
M  V30 1802 C 174.507 -0.992074 -1.67878 0
M  V30 1803 O 173.777 -0.0465 -1.95845 0
M  V30 1804 H 172.357 -0.717897 -0.206479 0
M  V30 1805 H 175.019 -1.94112 0.175062 0
M  V30 1806 H 174.115 -2.97218 -0.952259 0
M  V30 1807 N 174.416 0.165178 -1.56732 0
M  V30 1808 C 175.832 0.517174 -1.50988 0
M  V30 1809 C 176.032 1.84331 -0.813894 0
M  V30 1810 O 175.088 2.49672 -0.37682 0
M  V30 1811 C 176.401 0.544261 -2.95733 0
M  V30 1812 C 177.949 0.631039 -3.06573 0
M  V30 1813 C 178.424 0.68896 -4.52788 0
M  V30 1814 N 179.915 0.751683 -4.5706 0
M  V30 1815 C 180.65 0.817177 -5.67547 0
M  V30 1816 N 180.146 0.843129 -6.8765 0
M  V30 1817 N 181.939 0.856668 -5.55534 0
M  V30 1818 H 174.09 -0.704318 -2.00382 0
M  V30 1819 H 176.353 -0.254687 -0.913148 0
M  V30 1820 H 176.059 -0.361607 -3.49836 0
M  V30 1821 H 175.933 1.3886 -3.5071 0
M  V30 1822 H 178.32 1.52733 -2.52501 0
M  V30 1823 H 178.401 -0.240095 -2.54671 0
M  V30 1824 H 178.045 -0.2031 -5.07494 0
M  V30 1825 H 177.975 1.57633 -5.02454 0
M  V30 1826 H 180.466 0.739661 -3.70591 0
M  V30 1827 H 180.779 0.894448 -7.67606 0
M  V30 1828 H 179.124 0.811304 -6.90248 0
M  V30 1829 H 182.315 0.833437 -4.60621 0
M  V30 1830 H 182.488 0.904247 -6.4166 0
M  V30 1831 N 175.894 1.51508 0.433938 0
M  V30 1832 C 176.826 1.69266 1.54537 0
M  V30 1833 C 177.839 0.573276 1.52373 0
M  V30 1834 O 179.028 0.847698 1.57087 0
M  V30 1835 C 176.128 1.69524 2.93453 0
M  V30 1836 C 175.301 2.98101 3.20085 0
M  V30 1837 C 174.36 2.90502 4.38742 0
M  V30 1838 O 173.386 3.64442 4.3723 0
M  V30 1839 N 174.588 2.06586 5.42496 0
M  V30 1840 H 177.353 2.65145 1.39708 0
M  V30 1841 H 174.914 1.49437 0.622922 0
M  V30 1842 H 176.906 1.62004 3.70859 0
M  V30 1843 H 175.476 0.812245 3.01863 0
M  V30 1844 H 174.696 3.19464 2.30947 0
M  V30 1845 H 175.984 3.83207 3.34708 0
M  V30 1846 H 175.382 1.45896 5.46563 0
M  V30 1847 H 173.939 2.04943 6.18742 0
M  V30 1848 N 177.372 -0.689602 1.41712 0
M  V30 1849 C 178.305 -1.81403 1.3845 0
M  V30 1850 C 179.283 -1.60653 0.250874 0
M  V30 1851 O 180.467 -1.83323 0.43874 0
M  V30 1852 C 177.594 -3.18176 1.1611 0
M  V30 1853 C 176.64 -3.57705 2.3227 0
M  V30 1854 S 177.473 -3.61827 3.94767 0
M  V30 1855 C 178.629 -5.01318 3.74742 0
M  V30 1856 H 178.862 -1.83893 2.33603 0
M  V30 1857 H 176.395 -0.858878 1.28307 0
M  V30 1858 H 178.353 -3.97132 1.03907 0
M  V30 1859 H 177.014 -3.13288 0.225668 0
M  V30 1860 H 176.207 -4.57082 2.12349 0
M  V30 1861 H 175.809 -2.86073 2.40911 0
M  V30 1862 H 178.101 -5.88986 3.34817 0
M  V30 1863 H 179.044 -5.26283 4.73743 0
M  V30 1864 H 179.452 -4.73138 3.07898 0
M  V30 1865 N 178.85 -1.27639 -0.924453 0
M  V30 1866 C 179.8 -1.07295 -2.01176 0
M  V30 1867 C 180.784 5.77352e-05 -1.609 0
M  V30 1868 O 181.976 -0.218855 -1.75642 0
M  V30 1869 C 179.105 -0.725592 -3.35544 0
M  V30 1870 C 178.191 -1.83691 -3.82254 0
M  V30 1871 N 178.582 -3.07697 -4.01443 0
M  V30 1872 C 176.88 -1.72433 -4.11319 0
M  V30 1873 C 177.581 -3.80037 -4.40394 0
M  V30 1874 N 176.557 -3.0782 -4.48049 0
M  V30 1875 H 180.359 -2.01399 -2.14046 0
M  V30 1876 H 177.873 -1.18401 -1.11153 0
M  V30 1877 H 179.87 -0.560959 -4.13109 0
M  V30 1878 H 178.53 0.207782 -3.24034 0
M  V30 1879 H 179.541 -3.43424 -3.8766 0
M  V30 1880 H 176.218 -0.862005 -4.08504 0
M  V30 1881 H 177.608 -4.86632 -4.63291 0
M  V30 1882 N 180.328 1.1314 -1.09713 0
M  V30 1883 C 181.574 1.84967 -0.846104 0
M  V30 1884 C 181.929 1.82082 0.621601 0
M  V30 1885 O 181.222 1.2501 1.452 0
M  V30 1886 C 181.416 3.32167 -1.3191 0
M  V30 1887 C 181.245 3.49386 -2.83125 0
M  V30 1888 C 180.015 3.63456 -3.51038 0
M  V30 1889 C 182.213 3.45179 -3.81256 0
M  V30 1890 N 180.195 3.68966 -4.9065 0
M  V30 1891 C 181.566 3.57094 -5.06837 0
M  V30 1892 C 183.621 3.28598 -3.74069 0
M  V30 1893 C 182.324 3.5414 -6.26081 0
M  V30 1894 C 184.35 3.26953 -4.92804 0
M  V30 1895 C 183.712 3.39422 -6.17229 0
M  V30 1896 H 179.811 0.692899 -0.362512 0
M  V30 1897 H 182.395 1.35506 -1.39808 0
M  V30 1898 H 180.566 3.80186 -0.794535 0
M  V30 1899 H 182.298 3.91815 -1.01308 0
M  V30 1900 H 179.053 3.65256 -3.01471 0
M  V30 1901 H 179.477 3.75404 -5.63383 0
M  V30 1902 H 184.119 3.17858 -2.78794 0
M  V30 1903 H 181.837 3.63653 -7.21653 0
M  V30 1904 H 185.423 3.15316 -4.88945 0
M  V30 1905 H 184.303 3.38114 -7.07565 0
M  V30 1906 N 181.806 0.884767 1.30421 0
M  V30 1907 C 183.217 0.553656 1.78302 0
M  V30 1908 C 183.568 -0.930153 1.7275 0
M  V30 1909 O 182.693 -1.72681 1.30423 0
M  V30 1910 C 183.288 0.998234 3.2376 0
M  V30 1911 C 181.847 0.71854 3.69478 0
M  V30 1912 C 180.994 1.18132 2.50879 0
M  V30 1913 H 183.945 1.06901 1.17294 0
M  V30 1914 H 183.966 0.327118 3.79091 0
M  V30 1915 H 183.478 2.0782 3.27769 0
M  V30 1916 H 181.579 -0.349444 3.70958 0
M  V30 1917 H 181.692 1.30595 4.60958 0
M  V30 1918 H 180.056 0.600669 2.47516 0
M  V30 1919 H 180.839 2.26902 2.57624 0
M  V30 1920 N 183.284 -1.43765 0.645699 0
M  V30 1921 C 184.695 -1.85193 0.236719 0
M  V30 1922 C 185.046 -1.54045 -1.21509 0
M  V30 1923 O 184.171 -0.985694 -1.92647 0
M  V30 1924 C 184.766 -3.36151 0.422845 0
M  V30 1925 C 183.325 -3.76338 0.0682492 0
M  V30 1926 C 182.472 -2.67538 0.729306 0
M  V30 1927 H 185.423 -1.34025 0.849883 0
M  V30 1928 H 185.444 -3.79032 -0.333904 0
M  V30 1929 H 184.956 -3.5879 1.47958 0
M  V30 1930 H 183.057 -3.59312 -0.986179 0
M  V30 1931 H 183.17 -4.76603 0.488469 0
M  V30 1932 H 181.534 -2.54176 0.163235 0
M  V30 1933 H 182.317 -2.93006 1.78892 0
M  V30 1934 N 184.763 -0.387143 -1.52771 0
M  V30 1935 C 186.011 0.195349 -2.01154 0
M  V30 1936 C 186.332 1.475 -1.27549 0
M  V30 1937 O 185.602 1.91878 -0.394924 0
M  V30 1938 H 184.182 0.075178 -0.743207 0
M  V30 1939 H 186.844 -0.518337 -1.87881 0
M  V30 1940 H 185.94 0.407096 -3.09434 0
M  V30 1941 O 186.28 1.59438 -0.257276 0
M  V30 1942 H 186.971 1.91101 0.316273 0
M  V30 END ATOM
M  V30 BEGIN BOND
M  V30 END BOND
M  V30 END CTAB
M  END
$$$$
