drugbank_target|P15770 Shikimate dehydrogenase (NADP(+)) (DB03461; DB04447)
 OpenBabel12092120023D

  0  0  0     0  0            999 V3000
M  V30 BEGIN CTAB
M  V30 COUNTS 4140 4183 0 0 0
M  V30 BEGIN ATOM
M  V30 1 H -0.908 1.98254 -0.117106 0
M  V30 2 N 0 1.576 0 0
M  V30 3 C 0.933 2.03868 1.02534 0
M  V30 4 C 1.911 0.928543 1.3348 0
M  V30 5 O 3.095 1.19667 1.45644 0
M  V30 6 C 0.222 2.43627 2.35294 0
M  V30 7 C -0.732 3.65373 2.2001 0
M  V30 8 S 0.101 5.13292 1.52614 0
M  V30 9 C 1.257 5.56322 2.86805 0
M  V30 10 H 1.49 2.90518 0.631377 0
M  V30 11 H -0.977 1.52953 0.210867 0
M  V30 12 H 0.981 2.67203 3.11629 0
M  V30 13 H -0.358 1.57376 2.7183 0
M  V30 14 H -1.165 3.90944 3.18086 0
M  V30 15 H -1.563 3.418 1.51819 0
M  V30 16 H 0.729 5.58782 3.83104 0
M  V30 17 H 1.672 6.56266 2.65933 0
M  V30 18 H 2.08 4.83886 2.90714 0
M  V30 19 N 1.4781 -0.272755 1.55222 0
M  V30 20 C 2.3881 -1.35918 1.91216 0
M  V30 21 C 3.4041 -1.54026 0.809436 0
M  V30 22 O 4.5801 -1.68148 1.10852 0
M  V30 23 C 1.6451 -2.69834 2.17693 0
M  V30 24 C 0.7061 -2.6047 3.41253 0
M  V30 25 C -0.0609 -3.88 3.66458 0
M  V30 26 O 0.1621 -4.88693 2.94169 0
M  V30 27 O -0.9039 -3.88189 4.59992 0
M  V30 28 H 2.9221 -1.0839 2.83699 0
M  V30 29 H 0.5071 -0.471301 1.41771 0
M  V30 30 H 2.3891 -3.49017 2.36147 0
M  V30 31 H 1.0641 -2.97148 1.28392 0
M  V30 32 H -0.0289 -1.79663 3.28134 0
M  V30 33 H 1.3041 -2.38106 4.30774 0
M  V30 34 N 2.9562 -1.48159 -0.537278 0
M  V30 35 C 4.1842 -1.59454 -1.31841 0
M  V30 36 C 4.5992 -0.252065 -1.8711 0
M  V30 37 O 3.9562 0.757621 -1.66031 0
M  V30 38 C 4.0072 -2.63546 -2.47439 0
M  V30 39 O 3.7282 -3.92583 -1.94449 0
M  V30 40 C 5.2292 -2.85212 -3.39366 0
M  V30 41 H 2.4492 -0.53785 -0.401196 0
M  V30 42 H 4.9932 -1.93932 -0.648891 0
M  V30 43 H 3.1482 -2.31946 -3.1029 0
M  V30 44 H 3.5622 -4.49629 -2.70063 0
M  V30 45 H 5.0362 -3.61863 -4.16844 0
M  V30 46 H 5.5132 -1.93765 -3.94147 0
M  V30 47 H 6.1192 -3.18086 -2.82314 0
M  V30 48 N 4.4343 0.785586 -1.36625 0
M  V30 49 C 5.6643 1.5722 -1.34036 0
M  V30 50 C 6.0723 1.89033 0.0795062 0
M  V30 51 O 5.4153 1.50881 1.04789 0
M  V30 52 C 5.4773 2.91759 -2.10041 0
M  V30 53 C 5.1413 2.82654 -3.59104 0
M  V30 54 C 6.1383 2.54634 -4.53274 0
M  V30 55 C 3.8233 3.01111 -4.02042 0
M  V30 56 C 5.8173 2.45177 -5.88359 0
M  V30 57 C 3.5043 2.91276 -5.37216 0
M  V30 58 C 4.5023 2.63348 -6.30188 0
M  V30 59 O 4.1903 2.53514 -7.6288 0
M  V30 60 H 3.9223 0.494177 -0.461265 0
M  V30 61 H 6.4763 0.982632 -1.8037 0
M  V30 62 H 4.7063 3.52781 -1.58375 0
M  V30 63 H 6.3953 3.53059 -2.00261 0
M  V30 64 H 7.1613 2.40073 -4.21414 0
M  V30 65 H 3.0403 3.21854 -3.30047 0
M  V30 66 H 6.5843 2.23299 -6.60896 0
M  V30 67 H 2.4813 3.054 -5.68684 0
M  V30 68 H 3.2493 2.68967 -7.73045 0
M  V30 69 N 5.9124 1.20967 1.01018 0
M  V30 70 C 6.8754 0.965918 2.07853 0
M  V30 71 C 7.8754 -0.0610545 1.60684 0
M  V30 72 O 9.0654 0.175681 1.73312 0
M  V30 73 C 6.1974 0.455513 3.37843 0
M  V30 74 H 7.3904 1.91365 2.3091 0
M  V30 75 H 4.9434 1.02594 1.17916 0
M  V30 76 H 5.6784 -0.497381 3.20463 0
M  V30 77 H 5.4634 1.19622 3.73407 0
M  V30 78 H 6.9534 0.304667 4.16487 0
M  V30 79 N 7.3905 -1.2043 1.01659 0
M  V30 80 C 8.6365 -1.90079 0.706963 0
M  V30 81 C 8.9695 -1.78648 -0.761474 0
M  V30 82 O 8.2445 -1.17069 -1.55323 0
M  V30 83 C 8.5275 -3.41469 1.14327 0
M  V30 84 C 8.3805 -3.61833 2.67201 0
M  V30 85 C 9.6995 -4.34261 0.714529 0
M  V30 86 H 6.8185 -0.690254 0.2583 0
M  V30 87 H 9.4605 -1.41826 1.26433 0
M  V30 88 H 7.6105 -3.82696 0.669056 0
M  V30 89 H 9.2825 -3.2986 3.22475 0
M  V30 90 H 7.5255 -3.05304 3.08175 0
M  V30 91 H 8.1965 -4.67955 2.92783 0
M  V30 92 H 10.6725 -4.00682 1.12221 0
M  V30 93 H 9.5485 -5.38806 1.04784 0
M  V30 94 H 9.8095 -4.40431 -0.383799 0
M  V30 95 N 8.8686 -0.792821 -1.36206 0
M  V30 96 C 10.1156 -0.366786 -1.99151 0
M  V30 97 C 10.4436 1.06243 -1.62919 0
M  V30 98 O 9.6986 1.74927 -0.877442 0
M  V30 99 C 9.9976 -0.481501 -3.54142 0
M  V30 100 C 9.6636 -1.87202 -4.10203 0
M  V30 101 C 8.3256 -2.25248 -4.25226 0
M  V30 102 C 10.6776 -2.78237 -4.40719 0
M  V30 103 C 8.0056 -3.53723 -4.68078 0
M  V30 104 C 10.3576 -4.06144 -4.85005 0
M  V30 105 C 9.0216 -4.44207 -4.98234 0
M  V30 106 H 8.2916 -0.134217 -0.728743 0
M  V30 107 H 10.9386 -1.01094 -1.62641 0
M  V30 108 H 9.2436 0.246146 -3.91026 0
M  V30 109 H 10.9406 -0.132844 -4.0078 0
M  V30 110 H 7.5306 -1.56639 -3.98951 0
M  V30 111 H 11.7146 -2.50097 -4.28679 0
M  V30 112 H 6.9706 -3.8308 -4.76508 0
M  V30 113 H 11.1446 -4.76796 -5.07581 0
M  V30 114 H 8.7716 -5.43814 -5.31197 0
M  V30 115 N 10.3467 1.47872 -0.545128 0
M  V30 116 C 11.5947 2.02093 -0.016553 0
M  V30 117 C 11.9157 1.42305 1.3332 0
M  V30 118 O 11.1857 0.593853 1.86682 0
M  V30 119 H 9.7657 0.746993 -0.00313038 0
M  V30 120 H 12.4277 1.81414 -0.712397 0
M  V30 121 H 11.5237 3.11996 0.0805422 0
M  V30 122 N 11.8248 0.280983 1.55075 0
M  V30 123 C 12.7728 -0.619864 2.24188 0
M  V30 124 C 13.7668 -1.15315 1.24092 0
M  V30 125 O 14.9728 -1.1061 1.42005 0
M  V30 126 H 11.3478 -0.218459 0.719569 0
M  V30 127 H 13.3188 -0.0141831 2.98397 0
M  V30 128 C 12.0678 -1.7899 2.98091 0
M  V30 129 H 11.3908 -1.38874 3.74905 0
M  V30 130 H 12.8308 -2.39672 3.49762 0
M  V30 131 C 11.2898 -2.68192 2.03899 0
M  V30 132 O 11.8198 -3.6872 1.594 0
M  V30 133 N 10.0258 -2.35488 1.70275 0
M  V30 134 H 9.5728 -1.53787 2.06658 0
M  V30 135 H 9.5308 -2.95442 1.07524 0
M  V30 136 N 13.3029 -1.57598 0.00835791 0
M  V30 137 C 14.7139 -1.7892 -0.53333 0
M  V30 138 C 15.0649 -0.916609 -1.73473 0
M  V30 139 O 14.1899 -0.121336 -2.1606 0
M  V30 140 C 14.7849 -3.24488 -0.974313 0
M  V30 141 C 13.3439 -3.46878 -1.46125 0
M  V30 142 C 12.4909 -2.74157 -0.416302 0
M  V30 143 H 15.4419 -1.56958 0.234495 0
M  V30 144 H 15.4629 -3.3306 -1.83988 0
M  V30 145 H 14.9749 -3.87972 -0.099718 0
M  V30 146 H 13.0759 -2.8862 -2.35646 0
M  V30 147 H 13.1889 -4.55572 -1.48295 0
M  V30 148 H 11.5529 -2.39022 -0.87981 0
M  V30 149 H 12.3359 -3.40345 0.44947 0
M  V30 150 N 14.781 0.264519 -1.55364 0
M  V30 151 C 16.03 0.992812 -1.75574 0
M  V30 152 C 16.343 1.87142 -0.568979 0
M  V30 153 O 17.549 2.63513 -0.653682 0
M  V30 154 C 16.005 1.81519 -3.10771 0
M  V30 155 C 15.613 0.984839 -4.37041 0
M  V30 156 C 17.357 2.53727 -3.40327 0
M  V30 157 C 15.264 1.80209 -5.63275 0
M  V30 158 H 14.194 0.374412 -0.65447 0
M  V30 159 H 16.845 0.248138 -1.81815 0
M  V30 160 H 15.227 2.60115 -2.98591 0
M  V30 161 H 16.401 0.242455 -4.60162 0
M  V30 162 H 14.716 0.37691 -4.14691 0
M  V30 163 H 17.313 3.15292 -4.3185 0
M  V30 164 H 17.656 3.24447 -2.60845 0
M  V30 165 H 18.189 1.82156 -3.53644 0
M  V30 166 H 14.928 1.13896 -6.45529 0
M  V30 167 H 14.448 2.52022 -5.44284 0
M  V30 168 H 16.127 2.37364 -6.01887 0
M  V30 169 N 16.2591 1.48442 0.529413 0
M  V30 170 C 17.2221 1.62524 1.61612 0
M  V30 171 C 18.2221 0.498509 1.52877 0
M  V30 172 O 19.4121 0.76431 1.56537 0
M  V30 173 C 16.5441 1.59597 3.01233 0
M  V30 174 H 17.7371 2.59423 1.50465 0
M  V30 175 H 15.2901 1.37047 0.751514 0
M  V30 176 H 16.0251 0.641781 3.17886 0
M  V30 177 H 15.8101 2.41397 3.08982 0
M  V30 178 H 17.3001 1.72646 3.80241 0
M  V30 179 N 17.7372 -0.778329 1.37039 0
M  V30 180 C 18.6872 -1.88142 1.28789 0
M  V30 181 C 19.6712 -1.59923 0.177063 0
M  V30 182 O 20.8632 -1.72165 0.410873 0
M  V30 183 C 17.9922 -3.25518 1.09055 0
M  V30 184 C 17.0782 -3.5971 2.24654 0
M  V30 185 N 17.4692 -3.65131 3.50018 0
M  V30 186 C 15.7672 -3.89837 2.16663 0
M  V30 187 C 16.4682 -3.95882 4.26207 0
M  V30 188 N 15.4442 -4.11441 3.55271 0
M  V30 189 H 19.2462 -1.90575 2.23737 0
M  V30 190 H 16.7602 -0.974435 1.29917 0
M  V30 191 H 18.7572 -4.04423 1.0123 0
M  V30 192 H 17.4172 -3.24353 0.15018 0
M  V30 193 H 18.4282 -3.475 3.84011 0
M  V30 194 H 15.1052 -3.96533 1.30645 0
M  V30 195 H 16.4952 -4.06907 5.34674 0
M  V30 196 N 19.2153 -1.21501 -1.00376 0
M  V30 197 C 20.4403 -1.05977 -1.78279 0
M  V30 198 C 20.8653 0.385994 -1.84097 0
M  V30 199 O 20.2233 1.27849 -1.28547 0
M  V30 200 C 20.2713 -1.66302 -3.19963 0
M  V30 201 O 19.3753 -0.909333 -4.0225 0
M  V30 202 H 18.7163 -0.372906 -0.549397 0
M  V30 203 H 21.2463 -1.6107 -1.26165 0
M  V30 204 H 21.2563 -1.70574 -3.70632 0
M  V30 205 H 19.9313 -2.71515 -3.15043 0
M  V30 206 H 18.5083 -0.941795 -3.60811 0
M  V30 207 N 20.6934 1.19889 -1.02296 0
M  V30 208 C 21.6404 2.22901 -0.598651 0
M  V30 209 C 22.6104 1.61588 0.384521 0
M  V30 210 O 23.7954 1.88697 0.282522 0
M  V30 211 C 20.9354 3.45063 0.0504476 0
M  V30 212 C 20.0484 4.20783 -0.978053 0
M  V30 213 C 19.1834 5.30356 -0.299338 0
M  V30 214 C 18.2224 5.97826 -1.31416 0
M  V30 215 N 17.3594 6.98975 -0.661667 0
M  V30 216 H 22.1994 2.58554 -1.48169 0
M  V30 217 H 19.7364 1.27039 -0.741584 0
M  V30 218 H 21.6944 4.14831 0.443971 0
M  V30 219 H 20.3244 3.10084 0.897097 0
M  V30 220 H 19.3764 3.50018 -1.48969 0
M  V30 221 H 20.6884 4.67109 -1.74958 0
M  V30 222 H 19.8424 6.06516 0.149347 0
M  V30 223 H 18.5814 4.85084 0.504445 0
M  V30 224 H 17.5864 5.20422 -1.77317 0
M  V30 225 H 18.8114 6.45183 -2.11933 0
M  V30 226 H 16.7574 6.55886 0.122132 0
M  V30 227 H 16.6744 7.43461 -1.37117 0
M  V30 228 H 17.9424 7.7914 -0.236785 0
M  V30 229 N 22.1715 0.800033 1.35784 0
M  V30 230 C 23.3965 0.388511 2.03729 0
M  V30 231 C 23.8215 -0.990481 1.5991 0
M  V30 232 O 23.1795 -1.64013 0.772612 0
M  V30 233 C 23.2275 0.4726 3.5749 0
M  V30 234 O 22.3315 -0.51646 4.09153 0
M  V30 235 H 21.6725 0.163271 0.643614 0
M  V30 236 H 24.2025 1.0841 1.73518 0
M  V30 237 H 24.2125 0.34003 4.06581 0
M  V30 238 H 22.8875 1.47848 3.88734 0
M  V30 239 H 21.4645 -0.344673 3.71304 0
M  V30 240 N 23.6496 -1.47581 0.552962 0
M  V30 241 C 25.0606 -1.86324 0.118463 0
M  V30 242 C 25.4116 -1.46006 -1.3106 0
M  V30 243 O 24.5366 -0.861182 -1.98526 0
M  V30 244 C 25.1316 -3.3816 0.20821 0
M  V30 245 C 23.6906 -3.7601 -0.171226 0
M  V30 246 C 22.8376 -2.71634 0.557686 0
M  V30 247 H 25.7886 -1.39159 0.762928 0
M  V30 248 H 25.8096 -3.76141 -0.574278 0
M  V30 249 H 25.3216 -3.67473 1.24841 0
M  V30 250 H 23.4226 -3.52313 -1.21269 0
M  V30 251 H 23.5356 -4.78745 0.184379 0
M  V30 252 H 21.8996 -2.547 0.00125792 0
M  V30 253 H 22.6826 -3.0379 1.59896 0
M  V30 254 N 25.1277 -0.289203 -1.54924 0
M  V30 255 C 26.3747 0.323519 -1.99899 0
M  V30 256 C 26.7027 1.54797 -1.17762 0
M  V30 257 O 25.9577 1.94237 -0.238835 0
M  V30 258 C 26.2567 0.736119 -3.49737 0
M  V30 259 C 25.9227 -0.385276 -4.49251 0
M  V30 260 C 24.5847 -0.693156 -4.76181 0
M  V30 261 C 26.9367 -1.14021 -5.08575 0
M  V30 262 C 24.2647 -1.7593 -5.59701 0
M  V30 263 C 26.6167 -2.19619 -5.93254 0
M  V30 264 C 25.2807 -2.51026 -6.185 0
M  V30 265 H 24.5507 0.118384 -0.731482 0
M  V30 266 H 27.1977 -0.405847 -1.8715 0
M  V30 267 H 25.5027 1.54539 -3.60035 0
M  V30 268 H 27.1997 1.22118 -3.81953 0
M  V30 269 H 23.7897 -0.135202 -4.28387 0
M  V30 270 H 27.9737 -0.915611 -4.87781 0
M  V30 271 H 23.2297 -2.0075 -5.77503 0
M  V30 272 H 27.4037 -2.78581 -6.38252 0
M  V30 273 H 25.0307 -3.33772 -6.83008 0
M  V30 274 N 26.6058 1.57591 -0.0167156 0
M  V30 275 C 27.8548 1.90461 0.663877 0
M  V30 276 C 28.1678 0.893515 1.73999 0
M  V30 277 O 29.3738 1.11302 2.47637 0
M  V30 278 C 27.8298 3.38155 1.23204 0
M  V30 279 C 27.4378 4.47597 0.189866 0
M  V30 280 C 29.1818 3.80111 1.88986 0
M  V30 281 C 27.0888 5.86379 0.768964 0
M  V30 282 H 26.0188 0.710738 0.251729 0
M  V30 283 H 28.6698 1.83326 -0.0799926 0
M  V30 284 H 27.0518 3.40182 2.02712 0
M  V30 285 H 28.2258 4.57112 -0.581846 0
M  V30 286 H 26.5408 4.14766 -0.368475 0
M  V30 287 H 29.1378 4.81145 2.33247 0
M  V30 288 H 29.4808 3.14511 2.72743 0
M  V30 289 H 30.0138 3.80454 1.16187 0
M  V30 290 H 26.7528 6.55493 -0.0301957 0
M  V30 291 H 26.2728 5.80496 1.50945 0
M  V30 292 H 27.9518 6.34563 1.26251 0
M  V30 293 N 28.0839 -0.256276 1.55502 0
M  V30 294 C 29.0339 -1.31981 1.85916 0
M  V30 295 C 30.0179 -1.43927 0.719296 0
M  V30 296 O 31.2099 -1.47326 0.981019 0
M  V30 297 C 28.3389 -2.67703 2.14918 0
M  V30 298 C 27.4249 -2.59801 3.35208 0
M  V30 299 N 27.8159 -2.21524 4.54709 0
M  V30 300 C 26.1139 -2.90832 3.38131 0
M  V30 301 C 26.8149 -2.24024 5.36832 0
M  V30 302 N 25.7909 -2.63158 4.75656 0
M  V30 303 H 29.5929 -1.01423 2.75845 0
M  V30 304 H 27.1069 -0.464911 1.55603 0
M  V30 305 H 29.1039 -3.44445 2.34869 0
M  V30 306 H 27.7639 -2.99137 1.26282 0
M  V30 307 H 28.7749 -1.93223 4.80505 0
M  V30 308 H 25.4519 -3.26867 2.59739 0
M  V30 309 H 26.8419 -1.9685 6.42417 0
M  V30 310 N 29.562 -1.4872 -0.521534 0
M  V30 311 C 30.494 -1.59968 -1.64143 0
M  V30 312 C 31.507 -0.483463 -1.55456 0
M  V30 313 O 32.696 -0.75467 -1.61762 0
M  V30 314 C 29.796 -1.52127 -3.02838 0
M  V30 315 C 28.969 -2.78932 -3.36921 0
M  V30 316 C 28.028 -2.64428 -4.54933 0
M  V30 317 O 27.054 -3.38331 -4.57735 0
M  V30 318 N 28.256 -1.74606 -5.53618 0
M  V30 319 H 31.021 -2.56548 -1.54929 0
M  V30 320 H 28.582 -1.45551 -0.708988 0
M  V30 321 H 30.574 -1.40106 -3.79674 0
M  V30 322 H 29.144 -0.634868 -3.06085 0
M  V30 323 H 28.364 -3.05455 -2.4918 0
M  V30 324 H 29.652 -3.63041 -3.56481 0
M  V30 325 H 29.05 -1.13782 -5.54139 0
M  V30 326 H 27.607 -1.6852 -6.29638 0
M  V30 327 N 31.0401 0.771051 -1.3745 0
M  V30 328 C 31.9721 1.89352 -1.29146 0
M  V30 329 C 32.9851 1.61477 -0.207124 0
M  V30 330 O 34.1741 1.72382 -0.463324 0
M  V30 331 C 31.2741 3.24596 -0.974195 0
M  V30 332 C 30.4471 3.80111 -2.16413 0
M  V30 333 C 29.5061 4.93832 -1.81703 0
M  V30 334 O 28.5321 5.09382 -2.54006 0
M  V30 335 N 29.7341 5.75483 -0.761573 0
M  V30 336 H 32.4991 1.96991 -2.25864 0
M  V30 337 H 30.0601 0.950191 -1.31084 0
M  V30 338 H 32.0521 3.98193 -0.722828 0
M  V30 339 H 30.6221 3.12454 -0.0955527 0
M  V30 340 H 29.8421 2.98284 -2.57721 0
M  V30 341 H 31.1301 4.13932 -2.95867 0
M  V30 342 H 30.5281 5.65469 -0.161609 0
M  V30 343 H 29.0851 6.49302 -0.570064 0
M  V30 344 N 32.5182 1.22032 0.997298 0
M  V30 345 C 33.7652 1.04222 1.73621 0
M  V30 346 C 34.0932 -0.423264 1.89839 0
M  V30 347 O 33.3482 -1.3302 1.43542 0
M  V30 348 C 33.6472 1.69345 3.14733 0
M  V30 349 C 33.3132 3.19226 3.18442 0
M  V30 350 C 31.9752 3.60124 3.19161 0
M  V30 351 C 34.3272 4.15181 3.15078 0
M  V30 352 C 31.6552 4.95467 3.14212 0
M  V30 353 C 34.0072 5.50495 3.1167 0
M  V30 354 C 32.6712 5.90779 3.10703 0
M  V30 355 H 31.9412 0.381374 0.635323 0
M  V30 356 H 34.5882 1.51732 1.16831 0
M  V30 357 H 32.8932 1.14147 3.74803 0
M  V30 358 H 34.5902 1.53059 3.7064 0
M  V30 359 H 31.1802 2.86659 3.18629 0
M  V30 360 H 35.3642 3.84605 3.13676 0
M  V30 361 H 30.6202 5.25916 3.11805 0
M  V30 362 H 34.7942 6.24576 3.08022 0
M  V30 363 H 32.4212 6.9562 3.06622 0
M  V30 364 N 33.9963 -1.19345 1.0293 0
M  V30 365 C 34.9593 -2.20793 0.615069 0
M  V30 366 C 35.9593 -1.57553 -0.321533 0
M  V30 367 O 37.1493 -1.73862 -0.108483 0
M  V30 368 C 34.2813 -3.40754 -0.0999222 0
M  V30 369 H 35.4743 -2.58955 1.51269 0
M  V30 370 H 33.0273 -1.3303 0.820534 0
M  V30 371 H 33.7623 -3.0811 -1.01187 0
M  V30 372 H 33.5473 -3.87889 0.57309 0
M  V30 373 H 35.0373 -4.15898 -0.376645 0
M  V30 374 N 35.4744 -0.807222 -1.35358 0
M  V30 375 C 36.4064 -0.175717 -2.28525 0
M  V30 376 C 37.4194 0.625354 -1.5031 0
M  V30 377 O 38.6084 0.457611 -1.72535 0
M  V30 378 C 35.7084 0.773471 -3.29956 0
M  V30 379 C 34.8814 0.0186296 -4.37396 0
M  V30 380 C 33.9404 0.886395 -5.18681 0
M  V30 381 O 32.9664 0.337106 -5.68201 0
M  V30 382 N 34.1684 2.20839 -5.36852 0
M  V30 383 H 36.9334 -0.976091 -2.83359 0
M  V30 384 H 34.4944 -0.662737 -1.47714 0
M  V30 385 H 36.4864 1.35824 -3.81227 0
M  V30 386 H 35.0564 1.47465 -2.75632 0
M  V30 387 H 34.2764 -0.747349 -3.87051 0
M  V30 388 H 35.5644 -0.501577 -5.06322 0
M  V30 389 H 34.9624 2.67858 -4.98265 0
M  V30 390 H 33.5194 2.74237 -5.91301 0
M  V30 391 N 36.9525 1.47285 -0.560781 0
M  V30 392 C 37.8845 2.28118 0.222438 0
M  V30 393 C 38.8975 1.37219 0.876056 0
M  V30 394 O 40.0865 1.62011 0.749307 0
M  V30 395 C 37.1865 3.1159 1.33285 0
M  V30 396 C 36.3595 4.30473 0.77534 0
M  V30 397 C 35.4185 4.95513 1.77069 0
M  V30 398 O 34.4445 5.53792 1.31539 0
M  V30 399 N 35.6465 4.90531 3.10418 0
M  V30 400 H 38.4115 2.95976 -0.470958 0
M  V30 401 H 35.9725 1.56955 -0.39709 0
M  V30 402 H 37.9645 3.51967 1.99752 0
M  V30 403 H 36.5345 2.45951 1.92943 0
M  V30 404 H 35.7545 3.94144 -0.0662113 0
M  V30 405 H 37.0425 5.07362 0.382272 0
M  V30 406 H 36.4405 4.44389 3.5005 0
M  V30 407 H 34.9975 5.34917 3.72434 0
M  V30 408 N 38.4306 0.297415 1.54768 0
M  V30 409 C 39.3606 -0.573494 2.26348 0
M  V30 410 C 40.3416 -1.14085 1.26169 0
M  V30 411 O 41.5266 -1.17086 1.54934 0
M  V30 412 C 38.6566 -1.74716 3.00153 0
M  V30 413 C 37.6106 -1.31032 4.07449 0
M  V30 414 C 36.9366 -2.56887 4.68949 0
M  V30 415 C 38.2366 -0.444183 5.20408 0
M  V30 416 H 39.9306 0.0235131 2.99391 0
M  V30 417 H 37.4766 0.0127488 1.43994 0
M  V30 418 H 39.4296 -2.3625 3.48947 0
M  V30 419 H 38.1536 -2.37035 2.24682 0
M  V30 420 H 36.8126 -0.718066 3.59499 0
M  V30 421 H 36.4606 -3.17512 3.90122 0
M  V30 422 H 36.1606 -2.2836 5.41411 0
M  V30 423 H 37.6846 -3.19229 5.20505 0
M  V30 424 H 39.0986 -0.9651 5.65118 0
M  V30 425 H 37.4956 -0.252846 5.99567 0
M  V30 426 H 38.5656 0.531609 4.81977 0
M  V30 427 N 39.9087 -1.5758 0.0250728 0
M  V30 428 C 40.8567 -2.11125 -0.97617 0
M  V30 429 C 41.8507 -1.03689 -1.33959 0
M  V30 430 O 43.0567 -1.22128 -1.3223 0
M  V30 431 H 39.4317 -0.674468 -0.332561 0
M  V30 432 H 41.4027 -2.94194 -0.499223 0
M  V30 433 C 40.1517 -2.65017 -2.2508 0
M  V30 434 H 39.4747 -3.47333 -1.9799 0
M  V30 435 H 40.9147 -3.06133 -2.93357 0
M  V30 436 C 39.3737 -1.57574 -2.97779 0
M  V30 437 O 39.9037 -0.973203 -3.89733 0
M  V30 438 N 38.1097 -1.29716 -2.60043 0
M  V30 439 H 37.6567 -1.789 -1.85345 0
M  V30 440 H 37.6147 -0.58051 -3.08994 0
M  V30 441 N 41.3868 0.248026 -1.55636 0
M  V30 442 C 42.6358 0.974134 -1.76617 0
M  V30 443 C 42.9488 1.86528 -0.588796 0
M  V30 444 O 44.1548 2.62805 -0.681594 0
M  V30 445 C 42.6108 1.78213 -3.12679 0
M  V30 446 C 42.2188 0.93843 -4.38061 0
M  V30 447 C 43.9628 2.50104 -3.42999 0
M  V30 448 C 41.8698 1.74225 -5.65155 0
M  V30 449 H 40.7998 0.36745 -0.658405 0
M  V30 450 H 43.4508 0.22884 -1.82067 0
M  V30 451 H 41.8328 2.56933 -3.01333 0
M  V30 452 H 43.0068 0.193635 -4.60393 0
M  V30 453 H 41.3218 0.332905 -4.15067 0
M  V30 454 H 43.9188 3.10694 -4.3517 0
M  V30 455 H 44.2618 3.21662 -2.64271 0
M  V30 456 H 44.7948 1.78395 -3.55556 0
M  V30 457 H 41.5338 1.07043 -6.46701 0
M  V30 458 H 41.0538 2.46235 -5.46926 0
M  V30 459 H 42.7328 2.30967 -6.0437 0
M  V30 460 N 42.8649 1.48995 0.513639 0
M  V30 461 C 43.7749 1.67443 1.64317 0
M  V30 462 C 44.7909 0.556947 1.64846 0
M  V30 463 O 45.9669 0.830082 1.83498 0
M  V30 464 C 43.0319 1.72515 3.00732 0
M  V30 465 C 42.0929 2.96009 3.1093 0
M  V30 466 C 41.3259 3.00829 4.40837 0
M  V30 467 O 41.5489 2.13594 5.28898 0
M  V30 468 O 40.4829 3.93168 4.55744 0
M  V30 469 H 44.3089 2.63106 1.51687 0
M  V30 470 H 41.8939 1.32588 0.688543 0
M  V30 471 H 43.7759 1.78277 3.81831 0
M  V30 472 H 42.4509 0.800278 3.13651 0
M  V30 473 H 41.3579 2.9577 2.29065 0
M  V30 474 H 42.6909 3.87934 3.02933 0
M  V30 475 N 44.343 -0.763751 1.37857 0
M  V30 476 C 45.293 -1.86765 1.30777 0
M  V30 477 C 46.277 -1.59726 0.194015 0
M  V30 478 O 47.469 -1.7172 0.42911 0
M  V30 479 C 44.598 -3.24343 1.12502 0
M  V30 480 C 43.684 -3.57307 2.28456 0
M  V30 481 N 44.075 -3.61398 3.53871 0
M  V30 482 C 42.373 -3.87517 2.20786 0
M  V30 483 C 43.074 -3.91339 4.30382 0
M  V30 484 N 42.05 -4.07649 3.59615 0
M  V30 485 H 45.852 -1.88191 2.25746 0
M  V30 486 H 43.366 -0.9606 1.30944 0
M  V30 487 H 45.363 -4.03327 1.05514 0
M  V30 488 H 44.023 -3.24175 0.184574 0
M  V30 489 H 45.034 -3.43407 3.87675 0
M  V30 490 H 41.711 -3.95125 1.34844 0
M  V30 491 H 43.101 -4.01213 5.3896 0
M  V30 492 N 45.8211 -1.22559 -0.990812 0
M  V30 493 C 47.2321 -1.04791 -1.54518 0
M  V30 494 C 47.5831 0.387998 -1.92325 0
M  V30 495 O 46.7081 1.27328 -1.74976 0
M  V30 496 C 47.3031 -1.896 -2.80779 0
M  V30 497 C 45.8621 -1.76124 -3.32652 0
M  V30 498 C 45.0091 -1.8594 -2.05722 0
M  V30 499 H 47.9601 -1.36374 -0.811662 0
M  V30 500 H 47.9811 -1.41464 -3.53225 0
M  V30 501 H 47.4931 -2.94101 -2.53231 0
M  V30 502 H 45.5941 -0.743643 -3.65104 0
M  V30 503 H 45.7071 -2.58913 -4.03114 0
M  V30 504 H 44.0711 -1.29403 -2.19379 0
M  V30 505 H 44.8541 -2.91976 -1.80568 0
M  V30 506 N 47.2992 1.18797 -1.03562 0
M  V30 507 C 48.5292 1.92319 -0.754773 0
M  V30 508 C 48.9372 1.7612 0.691248 0
M  V30 509 O 48.2802 1.08491 1.48241 0
M  V30 510 C 48.3422 3.44284 -1.03484 0
M  V30 511 C 48.0062 3.84258 -2.47376 0
M  V30 512 C 49.0032 3.88459 -3.45537 0
M  V30 513 C 46.6882 4.15701 -2.81954 0
M  V30 514 C 48.6822 4.23545 -4.76328 0
M  V30 515 C 46.3692 4.50458 -4.12954 0
M  V30 516 C 47.3672 4.54356 -5.09951 0
M  V30 517 O 47.0552 4.88305 -6.38603 0
M  V30 518 H 46.7872 0.617527 -0.275021 0
M  V30 519 H 49.3412 1.51683 -1.38497 0
M  V30 520 H 47.5712 3.85135 -0.347513 0
M  V30 521 H 49.2602 3.99049 -0.7426 0
M  V30 522 H 50.0262 3.6431 -3.20162 0
M  V30 523 H 45.9052 4.11847 -2.0713 0
M  V30 524 H 49.4492 4.26502 -5.52035 0
M  V30 525 H 45.3462 4.74067 -4.38099 0
M  V30 526 H 46.1142 5.06227 -6.43177 0
M  V30 527 N 48.7773 0.814389 1.34928 0
M  V30 528 C 50.0253 0.397636 1.9815 0
M  V30 529 C 50.3463 -1.04069 1.64908 0
M  V30 530 O 49.6163 -1.72121 0.93548 0
M  V30 531 H 48.1963 0.144043 0.732981 0
M  V30 532 H 50.8583 1.04195 1.6471 0
M  V30 533 H 49.9543 0.509688 3.0791 0
M  V30 534 N 50.2554 -1.46986 0.568584 0
M  V30 535 C 51.6714 -1.57946 0.229189 0
M  V30 536 C 51.8714 -1.56567 -1.26843 0
M  V30 537 O 50.9274 -1.47511 -2.04931 0
M  V30 538 C 52.2404 -2.87963 0.865909 0
M  V30 539 C 53.7884 -3.01568 0.838188 0
M  V30 540 C 54.2634 -4.34301 1.45419 0
M  V30 541 N 55.7544 -4.40965 1.41788 0
M  V30 542 C 56.4894 -5.42256 1.86403 0
M  V30 543 N 55.9854 -6.50297 2.38926 0
M  V30 544 N 57.7784 -5.3337 1.77405 0
M  V30 545 H 49.9294 -1.46126 1.54146 0
M  V30 546 H 52.1924 -0.696156 0.643484 0
M  V30 547 H 51.8984 -2.94742 1.91886 0
M  V30 548 H 51.7724 -3.75423 0.365687 0
M  V30 549 H 54.1594 -2.94379 -0.206106 0
M  V30 550 H 54.2404 -2.1562 1.37629 0
M  V30 551 H 53.8844 -4.42247 2.49761 0
M  V30 552 H 53.8144 -5.19 0.891435 0
M  V30 553 H 56.3054 -3.63484 1.03381 0
M  V30 554 H 56.6184 -7.23777 2.70863 0
M  V30 555 H 54.9634 -6.51155 2.42944 0
M  V30 556 H 58.1544 -4.47865 1.3614 0
M  V30 557 H 58.3274 -6.12169 2.12492 0
M  V30 558 N 51.7335 -0.305618 -1.54608 0
M  V30 559 C 52.9795 0.302746 -2.00528 0
M  V30 560 C 53.3125 1.53184 -1.19367 0
M  V30 561 O 52.5875 1.92598 -0.271321 0
M  V30 562 C 52.8705 0.654756 -3.54097 0
M  V30 563 C 52.7235 -0.583793 -4.45995 0
M  V30 564 C 54.0425 1.47947 -4.14487 0
M  V30 565 H 51.1615 0.108564 -0.72896 0
M  V30 566 H 53.8035 -0.418634 -1.85331 0
M  V30 567 H 51.9535 1.26935 -3.67178 0
M  V30 568 H 53.6255 -1.22224 -4.44814 0
M  V30 569 H 51.8685 -1.21615 -4.16404 0
M  V30 570 H 52.5395 -0.293287 -5.5122 0
M  V30 571 H 55.0155 0.96013 -4.04871 0
M  V30 572 H 53.8915 1.69454 -5.22088 0
M  V30 573 H 54.1525 2.47011 -3.66658 0
M  V30 574 N 53.2116 1.57565 -0.0334293 0
M  V30 575 C 54.1416 2.13511 0.945265 0
M  V30 576 C 55.1226 1.05231 1.33643 0
M  V30 577 O 56.3076 1.33084 1.41429 0
M  V30 578 C 53.4376 2.6657 2.22616 0
M  V30 579 C 52.3916 3.79676 1.97561 0
M  V30 580 C 51.7176 4.1918 3.31952 0
M  V30 581 C 53.0176 5.0557 1.31135 0
M  V30 582 H 54.7116 2.95538 0.479325 0
M  V30 583 H 52.2576 1.42166 0.229115 0
M  V30 584 H 54.2106 3.04344 2.91466 0
M  V30 585 H 52.9346 1.8171 2.71384 0
M  V30 586 H 51.5936 3.42347 1.31127 0
M  V30 587 H 51.2416 3.31296 3.78487 0
M  V30 588 H 50.9416 4.95402 3.15992 0
M  V30 589 H 52.4656 4.59541 4.02063 0
M  V30 590 H 53.8796 5.40903 1.89992 0
M  V30 591 H 52.2766 5.86818 1.25559 0
M  V30 592 H 53.3466 4.84062 0.284894 0
M  V30 593 N 54.6897 -0.239769 1.55765 0
M  V30 594 C 55.6527 -1.28038 1.90103 0
M  V30 595 C 56.6527 -1.40723 0.778055 0
M  V30 596 O 57.8427 -1.39301 1.04599 0
M  V30 597 C 54.9747 -2.65702 2.13577 0
M  V30 598 H 56.1677 -0.988048 2.83157 0
M  V30 599 H 53.7207 -0.479382 1.48767 0
M  V30 600 H 54.4557 -3.00063 1.23015 0
M  V30 601 H 54.2407 -2.57875 2.95369 0
M  V30 602 H 55.7307 -3.40828 2.41301 0
M  V30 603 N 56.1678 -1.49265 -0.50573 0
M  V30 604 C 57.5788 -1.51769 -1.08734 0
M  V30 605 C 57.9298 -0.301192 -1.93874 0
M  V30 606 O 57.0548 0.589456 -2.08217 0
M  V30 607 C 57.6498 -2.75017 -1.97867 0
M  V30 608 C 56.2088 -2.80314 -2.51199 0
M  V30 609 C 55.3558 -2.4562 -1.28709 0
M  V30 610 H 58.3068 -1.56031 -0.289855 0
M  V30 611 H 58.3278 -2.5491 -2.82491 0
M  V30 612 H 57.8398 -3.63539 -1.35873 0
M  V30 613 H 55.9408 -1.96061 -3.16845 0
M  V30 614 H 56.0538 -3.82366 -2.88675 0
M  V30 615 H 54.4178 -1.97297 -1.61078 0
M  V30 616 H 55.2008 -3.36411 -0.6843 0
M  V30 617 N 57.6459 0.756429 -1.3826 0
M  V30 618 C 58.8949 1.51082 -1.3363 0
M  V30 619 C 59.2079 1.95467 0.0720068 0
M  V30 620 O 60.4139 2.7043 0.240834 0
M  V30 621 C 58.8699 2.72893 -2.34644 0
M  V30 622 C 58.4779 2.35544 -3.81081 0
M  V30 623 C 60.2219 3.50791 -2.39052 0
M  V30 624 C 58.1289 3.53948 -4.73787 0
M  V30 625 H 57.0589 0.56727 -0.49671 0
M  V30 626 H 59.7099 0.827147 -1.638 0
M  V30 627 H 58.0919 3.43227 -1.97513 0
M  V30 628 H 59.2659 1.72894 -4.27135 0
M  V30 629 H 57.5809 1.70786 -3.79764 0
M  V30 630 H 60.1779 4.38823 -3.05513 0
M  V30 631 H 60.5209 3.91745 -1.40861 0
M  V30 632 H 61.0539 2.87467 -2.74968 0
M  V30 633 H 57.7929 3.18064 -5.73163 0
M  V30 634 H 57.3129 4.15651 -4.32428 0
M  V30 635 H 58.9919 4.20566 -4.91663 0
M  V30 636 N 59.124 1.23083 0.984299 0
M  V30 637 C 60.072 1.00593 2.09723 0
M  V30 638 C 61.066 -0.0538014 1.69315 0
M  V30 639 O 62.272 0.0993719 1.79725 0
M  V30 640 H 58.647 0.30817 0.685956 0
M  V30 641 H 60.618 1.95012 2.2586 0
M  V30 642 C 59.367 0.609601 3.42314 0
M  V30 643 H 58.69 1.41675 3.73856 0
M  V30 644 H 60.13 0.491726 4.21139 0
M  V30 645 C 58.589 -0.681745 3.2993 0
M  V30 646 O 59.119 -1.73192 3.62446 0
M  V30 647 N 57.325 -0.656178 2.83095 0
M  V30 648 H 56.872 0.198759 2.56832 0
M  V30 649 H 56.83 -1.52044 2.75191 0
M  V30 650 N 60.6021 -1.18246 1.0419 0
M  V30 651 C 61.8791 -1.84121 0.660208 0
M  V30 652 C 62.2591 -1.92778 -0.860221 0
M  V30 653 O 61.6071 -1.45464 -1.76217 0
M  V30 654 C 61.8171 -3.22355 1.33747 0
M  V30 655 C 63.1651 -3.98376 1.46906 0
M  V30 656 O 64.1891 -3.31799 1.29568 0
M  V30 657 O 63.0481 -5.17665 1.75171 0
M  V30 658 H 60.1421 -0.794036 0.231161 0
M  V30 659 H 62.6881 -1.25628 1.14087 0
M  V30 660 H 61.4601 -3.10964 2.37522 0
M  V30 661 H 61.0831 -3.88506 0.845515 0
M  V30 662 N 62.0802 -0.821533 -1.34494 0
M  V30 663 C 63.3272 -0.408946 -1.98328 0
M  V30 664 C 63.6552 1.02764 -1.65136 0
M  V30 665 O 62.9102 1.73026 -0.914349 0
M  V30 666 C 63.2092 -0.556512 -3.53041 0
M  V30 667 C 62.8752 -1.95861 -4.0614 0
M  V30 668 C 61.5372 -2.34217 -4.20352 0
M  V30 669 C 63.8892 -2.87523 -4.34718 0
M  V30 670 C 61.2172 -3.63572 -4.6047 0
M  V30 671 C 63.5692 -4.1634 -4.76281 0
M  V30 672 C 62.2332 -4.54675 -4.88699 0
M  V30 673 H 61.5032 -0.149644 -0.725732 0
M  V30 674 H 64.1502 -1.04521 -1.6046 0
M  V30 675 H 62.4552 0.163148 -3.9146 0
M  V30 676 H 64.1522 -0.217826 -4.00408 0
M  V30 677 H 60.7422 -1.65066 -3.95539 0
M  V30 678 H 64.9262 -2.59133 -4.23277 0
M  V30 679 H 60.1822 -3.93101 -4.68275 0
M  V30 680 H 64.3562 -4.87455 -4.97354 0
M  V30 681 H 61.9832 -5.54959 -5.19542 0
M  V30 682 N 63.5583 1.46682 -0.576371 0
M  V30 683 C 64.8073 2.01619 -0.0572825 0
M  V30 684 C 65.1203 1.45417 1.30818 0
M  V30 685 O 66.3263 1.92133 1.91825 0
M  V30 686 C 64.7823 3.59863 -0.0518371 0
M  V30 687 C 64.3903 4.25059 -1.41523 0
M  V30 688 C 66.1343 4.2248 0.413639 0
M  V30 689 C 64.0413 5.75364 -1.36785 0
M  V30 690 H 62.9713 0.753794 -0.0176448 0
M  V30 691 H 65.6223 1.68481 -0.727076 0
M  V30 692 H 64.0043 3.90048 0.683994 0
M  V30 693 H 65.1783 4.06491 -2.17029 0
M  V30 694 H 63.4933 3.7451 -1.8202 0
M  V30 695 H 66.0903 5.3265 0.467779 0
M  V30 696 H 66.4333 3.90976 1.42982 0
M  V30 697 H 66.9663 3.96897 -0.267929 0
M  V30 698 H 63.7053 6.11518 -2.36063 0
M  V30 699 H 63.2253 5.96214 -0.654895 0
M  V30 700 H 64.9043 6.37955 -1.07805 0
M  V30 701 N 65.0364 0.313813 1.54444 0
M  V30 702 C 65.9844 -0.572171 2.25453 0
M  V30 703 C 66.9784 -1.12657 1.2651 0
M  V30 704 O 68.1844 -1.07573 1.44319 0
M  V30 705 H 64.5594 -0.203146 0.724041 0
M  V30 706 H 66.5304 0.0491145 2.9836 0
M  V30 707 C 65.2794 -1.72626 3.0182 0
M  V30 708 H 64.6024 -1.30891 3.77767 0
M  V30 709 H 66.0424 -2.32199 3.54767 0
M  V30 710 C 64.5014 -2.63806 2.09542 0
M  V30 711 O 65.0314 -3.65256 1.67185 0
M  V30 712 N 63.2374 -2.31824 1.75232 0
M  V30 713 H 62.7844 -1.49368 2.09873 0
M  V30 714 H 62.7424 -2.93095 1.13767 0
M  V30 715 N 66.5145 -1.57545 0.0417849 0
M  V30 716 C 67.7425 -1.96624 -0.643928 0
M  V30 717 C 68.1575 -0.918897 -1.64929 0
M  V30 718 O 67.5145 0.0979323 -1.82237 0
M  V30 719 C 67.5655 -3.35781 -1.33914 0
M  V30 720 O 67.2865 -4.365 -0.374048 0
M  V30 721 C 68.7875 -3.89566 -2.1155 0
M  V30 722 H 66.0075 -0.647316 -0.176702 0
M  V30 723 H 68.5515 -2.04229 0.105304 0
M  V30 724 H 66.7065 -3.29357 -2.03968 0
M  V30 725 H 67.1205 -5.17248 -0.869179 0
M  V30 726 H 68.5945 -4.89242 -2.55628 0
M  V30 727 H 69.0715 -3.24488 -2.9598 0
M  V30 728 H 69.6775 -3.99298 -1.46427 0
M  V30 729 N 67.9926 0.231505 -1.5589 0
M  V30 730 C 68.9226 1.29022 -1.94617 0
M  V30 731 C 69.9036 1.4941 -0.813067 0
M  V30 732 O 71.0886 1.6176 -1.07459 0
M  V30 733 C 68.2186 2.64199 -2.25424 0
M  V30 734 C 67.1726 2.58484 -3.41131 0
M  V30 735 C 66.4986 3.97599 -3.57518 0
M  V30 736 C 67.7986 2.1413 -4.76388 0
M  V30 737 H 69.4926 0.968563 -2.83301 0
M  V30 738 H 67.0386 0.464479 -1.36303 0
M  V30 739 H 68.9916 3.38413 -2.51107 0
M  V30 740 H 67.7156 2.98032 -1.33583 0
M  V30 741 H 66.3746 1.86727 -3.15481 0
M  V30 742 H 66.0226 4.28723 -2.6307 0
M  V30 743 H 65.7226 3.94659 -4.35337 0
M  V30 744 H 67.2466 4.7349 -3.85538 0
M  V30 745 H 68.6606 2.78083 -5.01341 0
M  V30 746 H 67.0576 2.2227 -5.57419 0
M  V30 747 H 68.1276 1.09331 -4.72414 0
M  V30 748 N 69.4707 1.49531 0.497807 0
M  V30 749 C 70.4187 1.66926 1.61983 0
M  V30 750 C 71.4127 0.535167 1.60724 0
M  V30 751 O 72.6187 0.714896 1.65195 0
M  V30 752 H 68.9937 0.526415 0.537021 0
M  V30 753 H 70.9647 2.61098 1.44465 0
M  V30 754 C 69.7137 1.75602 3.00099 0
M  V30 755 H 69.0367 2.62244 3.01775 0
M  V30 756 H 70.4767 1.91807 3.78135 0
M  V30 757 C 68.9357 0.501543 3.33146 0
M  V30 758 O 69.4657 -0.371342 3.9998 0
M  V30 759 N 67.6717 0.363531 2.88317 0
M  V30 760 H 67.2187 1.07485 2.34104 0
M  V30 761 H 67.1767 -0.474728 3.10795 0
M  V30 762 N 70.9488 -0.749086 1.3866 0
M  V30 763 C 71.9118 -1.84457 1.36045 0
M  V30 764 C 72.9118 -1.58682 0.260122 0
M  V30 765 O 74.1018 -1.66343 0.517261 0
M  V30 766 C 71.2338 -3.22008 1.11911 0
M  V30 767 H 72.4268 -1.88182 2.33512 0
M  V30 768 H 69.9798 -0.951266 1.24019 0
M  V30 769 H 70.7148 -3.2395 0.150686 0
M  V30 770 H 70.4998 -3.42111 1.91579 0
M  V30 771 H 71.9898 -4.0208 1.12788 0
M  V30 772 N 72.4269 -1.23603 -0.977757 0
M  V30 773 C 73.6739 -1.06971 -1.71941 0
M  V30 774 C 74.0019 0.393009 -1.90488 0
M  V30 775 O 73.2569 1.30719 -1.4564 0
M  V30 776 C 73.5559 -1.7433 -3.11999 0
M  V30 777 C 73.2219 -3.24252 -3.13323 0
M  V30 778 C 71.8839 -3.65156 -3.13392 0
M  V30 779 C 74.2359 -4.20141 -3.08433 0
M  V30 780 C 71.5639 -5.00403 -3.0629 0
M  V30 781 C 73.9159 -5.55384 -3.02873 0
M  V30 782 C 72.5799 -5.95647 -3.01265 0
M  V30 783 H 71.8499 -0.391433 -0.629175 0
M  V30 784 H 74.4969 -1.53572 -1.14403 0
M  V30 785 H 72.8019 -1.20096 -3.7294 0
M  V30 786 H 74.4989 -1.58936 -3.68158 0
M  V30 787 H 71.0889 -2.91692 -3.14029 0
M  V30 788 H 75.2729 -3.89547 -3.07517 0
M  V30 789 H 70.5289 -5.3081 -3.03399 0
M  V30 790 H 74.7029 -6.29398 -2.98046 0
M  V30 791 H 72.3299 -7.0041 -2.95516 0
M  V30 792 N 73.905 1.17692 -1.04816 0
M  V30 793 C 75.152 1.87859 -0.75599 0
M  V30 794 C 75.48 1.80812 0.716752 0
M  V30 795 O 74.735 1.20819 1.53952 0
M  V30 796 C 75.034 3.37462 -1.17703 0
M  V30 797 C 74.7 3.64713 -2.65133 0
M  V30 798 C 73.362 3.71859 -3.05408 0
M  V30 799 C 75.714 3.76492 -3.60421 0
M  V30 800 C 73.042 3.88271 -4.39843 0
M  V30 801 C 75.394 3.94421 -4.94585 0
M  V30 802 C 74.058 3.99806 -5.3452 0
M  V30 803 H 73.328 0.687425 -0.276636 0
M  V30 804 H 75.975 1.39255 -1.31455 0
M  V30 805 H 74.28 3.88097 -0.537395 0
M  V30 806 H 75.977 3.90109 -0.928218 0
M  V30 807 H 72.567 3.59772 -2.32942 0
M  V30 808 H 76.751 3.70295 -3.30447 0
M  V30 809 H 72.007 3.90687 -4.70291 0
M  V30 810 H 76.181 4.02477 -5.68318 0
M  V30 811 H 73.808 4.12276 -6.38696 0
M  V30 812 N 75.3831 0.828654 1.34056 0
M  V30 813 C 76.6081 0.431637 2.02859 0
M  V30 814 C 77.0331 -0.956339 1.61975 0
M  V30 815 O 76.3911 -1.62338 0.807228 0
M  V30 816 C 76.4391 0.548323 3.56407 0
M  V30 817 O 75.5431 -0.429556 4.10157 0
M  V30 818 H 74.8841 0.176886 0.640006 0
M  V30 819 H 77.4141 1.12066 1.71179 0
M  V30 820 H 77.4241 0.426196 4.05768 0
M  V30 821 H 76.0991 1.5606 3.8551 0
M  V30 822 H 74.6761 -0.265836 3.71951 0
M  V30 823 N 76.8612 -1.46375 0.584142 0
M  V30 824 C 77.8242 -2.28784 -0.138108 0
M  V30 825 C 78.8242 -1.38471 -0.817462 0
M  V30 826 O 80.0142 -1.60833 -0.669199 0
M  V30 827 C 77.1462 -3.18892 -1.20503 0
M  V30 828 H 78.3392 -2.94117 0.586127 0
M  V30 829 H 75.8922 -1.52509 0.342171 0
M  V30 830 H 76.6272 -2.58309 -1.96079 0
M  V30 831 H 76.4122 -3.85388 -0.722384 0
M  V30 832 H 77.9022 -3.80914 -1.71155 0
M  V30 833 N 78.3393 -0.321999 -1.54275 0
M  V30 834 C 79.5873 0.280489 -2.00144 0
M  V30 835 C 79.9083 1.52777 -1.21178 0
M  V30 836 O 79.1783 1.9338 -0.313187 0
M  V30 837 H 77.7583 0.106632 -0.73935 0
M  V30 838 H 80.4203 -0.438184 -1.8991 0
M  V30 839 H 79.5163 0.537972 -3.07428 0
M  V30 840 N 79.8174 1.5752 -0.0501392 0
M  V30 841 C 81.0654 1.9227 0.622642 0
M  V30 842 C 81.3864 0.929083 1.71444 0
M  V30 843 O 80.6564 -0.0262186 1.95882 0
M  V30 844 H 79.2364 0.709739 0.232981 0
M  V30 845 H 81.8984 1.94628 -0.102898 0
M  V30 846 H 80.9944 2.93479 1.06191 0
M  V30 847 N 81.2955 -0.223234 1.56011 0
M  V30 848 C 82.2425 -1.27664 1.92277 0
M  V30 849 C 83.2125 -1.46659 0.779763 0
M  V30 850 O 84.3975 -1.60256 1.03551 0
M  V30 851 C 81.5375 -2.62234 2.24338 0
M  V30 852 C 80.6505 -2.51051 3.51564 0
M  V30 853 C 79.7855 -3.78133 3.7308 0
M  V30 854 C 78.8245 -3.61665 4.93827 0
M  V30 855 N 77.9615 -4.80693 5.11741 0
M  V30 856 H 82.8015 -0.960358 2.82101 0
M  V30 857 H 80.3385 -0.462901 1.39627 0
M  V30 858 H 82.2965 -3.40596 2.40936 0
M  V30 859 H 80.9265 -2.91961 1.3769 0
M  V30 860 H 79.9785 -1.64132 3.43169 0
M  V30 861 H 81.2905 -2.34803 4.40079 0
M  V30 862 H 80.4445 -4.64938 3.89766 0
M  V30 863 H 79.1835 -3.97304 2.82844 0
M  V30 864 H 78.1885 -2.73244 4.77093 0
M  V30 865 H 79.4135 -3.43966 5.85546 0
M  V30 866 H 77.3595 -5.00181 4.24446 0
M  V30 867 H 77.2765 -4.67165 5.94384 0
M  V30 868 H 78.5445 -5.6893 5.3286 0
M  V30 869 N 82.7736 -1.49793 -0.48987 0
M  V30 870 C 84.0216 -1.59525 -1.24081 0
M  V30 871 C 84.3426 -0.288953 -1.92847 0
M  V30 872 O 83.6126 0.692436 -1.83254 0
M  V30 873 H 82.1926 -0.587796 -0.460983 0
M  V30 874 H 84.8546 -1.86477 -0.566778 0
M  V30 875 H 83.9506 -2.39696 -1.99881 0
M  V30 876 N 84.2517 0.741722 -1.39055 0
M  V30 877 C 85.2147 1.83733 -1.37021 0
M  V30 878 C 86.2147 1.58542 -0.268534 0
M  V30 879 O 87.4047 1.66067 -0.526076 0
M  V30 880 C 84.5367 3.2141 -1.13617 0
M  V30 881 H 85.7297 1.86941 -2.34506 0
M  V30 882 H 83.2827 0.944676 -1.24521 0
M  V30 883 H 84.0177 3.23865 -0.167863 0
M  V30 884 H 83.8027 3.4109 -1.93391 0
M  V30 885 H 85.2927 4.01477 -1.14918 0
M  V30 886 N 85.7298 1.2412 0.971189 0
M  V30 887 C 86.6778 1.02812 2.08644 0
M  V30 888 C 87.6718 -0.0358403 1.69362 0
M  V30 889 O 88.8778 0.118429 1.7961 0
M  V30 890 H 85.2528 0.315428 0.682649 0
M  V30 891 H 87.2238 1.97397 2.23779 0
M  V30 892 C 85.9728 0.645874 3.41649 0
M  V30 893 H 85.2958 1.45632 3.72332 0
M  V30 894 H 86.7358 0.536366 4.20594 0
M  V30 895 C 85.1948 -0.646713 3.30635 0
M  V30 896 O 85.7248 -1.69338 3.64263 0
M  V30 897 N 83.9308 -0.626115 2.83775 0
M  V30 898 H 83.4778 0.225988 2.56607 0
M  V30 899 H 83.4358 -1.49117 2.76788 0
M  V30 900 N 87.2079 -1.17134 1.05439 0
M  V30 901 C 88.4539 -1.87733 0.767077 0
M  V30 902 C 88.7869 -1.8098 -0.704253 0
M  V30 903 O 88.0619 -1.21951 -1.5152 0
M  V30 904 C 88.3449 -3.37659 1.25133 0
M  V30 905 C 88.1979 -3.53149 2.78578 0
M  V30 906 C 89.5169 -4.31768 0.852324 0
M  V30 907 H 86.6359 -0.681687 0.280129 0
M  V30 908 H 89.2779 -1.37732 1.30881 0
M  V30 909 H 87.4279 -3.80373 0.790469 0
M  V30 910 H 89.0999 -3.19434 3.32806 0
M  V30 911 H 87.3429 -2.95345 3.17732 0
M  V30 912 H 88.0139 -4.58403 3.07523 0
M  V30 913 H 90.4899 -3.96909 1.24911 0
M  V30 914 H 89.3659 -5.35199 1.21873 0
M  V30 915 H 89.6269 -4.41429 -0.243485 0
M  V30 916 N 88.686 -0.835752 -1.33615 0
M  V30 917 C 89.914 -0.443344 -2.02094 0
M  V30 918 C 90.329 0.954522 -1.62894 0
M  V30 919 O 89.686 1.61982 -0.840723 0
M  V30 920 C 89.737 -0.550775 -3.5728 0
M  V30 921 O 89.458 -1.89356 -3.95065 0
M  V30 922 C 90.959 -0.154919 -4.43029 0
M  V30 923 H 88.179 -0.176359 -0.647409 0
M  V30 924 H 90.723 -1.12746 -1.70612 0
M  V30 925 H 88.878 0.0853997 -3.87306 0
M  V30 926 H 89.292 -1.87687 -4.89769 0
M  V30 927 H 90.766 -0.281144 -5.51284 0
M  V30 928 H 91.243 0.902863 -4.2982 0
M  V30 929 H 91.849 -0.765404 -4.18356 0
M  V30 930 N 90.1641 1.46063 -0.591896 0
M  V30 931 C 91.4101 2.02638 -0.0811191 0
M  V30 932 C 91.7431 1.4613 1.27905 0
M  V30 933 O 91.0181 0.629908 1.84017 0
M  V30 934 C 91.3011 3.60091 -0.0252436 0
M  V30 935 C 91.1541 4.26965 -1.41496 0
M  V30 936 C 92.4731 4.3496 0.670685 0
M  V30 937 H 89.5921 0.73635 -0.0309524 0
M  V30 938 H 92.2341 1.741 -0.760859 0
M  V30 939 H 90.3841 3.84535 0.553624 0
M  V30 940 H 92.0561 4.13756 -2.0397 0
M  V30 941 H 90.2991 3.85971 -1.98011 0
M  V30 942 H 90.9701 5.35781 -1.32825 0
M  V30 943 H 93.4461 4.15716 0.178825 0
M  V30 944 H 92.3221 5.44686 0.678837 0
M  V30 945 H 92.5831 4.06685 1.73379 0
M  V30 946 N 91.6422 0.330177 1.54103 0
M  V30 947 C 93.0532 -0.15652 1.86043 0
M  V30 948 C 93.4042 -1.51086 1.2517 0
M  V30 949 O 92.5292 -2.09023 0.560217 0
M  V30 950 C 93.1242 -0.290784 3.3755 0
M  V30 951 C 91.6832 -0.721705 3.69416 0
M  V30 952 C 90.8302 0.152622 2.7688 0
M  V30 953 H 93.7812 0.550237 1.48856 0
M  V30 954 H 93.8022 -1.12058 3.63625 0
M  V30 955 H 93.3142 0.695068 3.81825 0
M  V30 956 H 91.4152 -1.71706 3.30678 0
M  V30 957 H 91.5282 -0.520869 4.7626 0
M  V30 958 H 89.8922 -0.372894 2.51956 0
M  V30 959 H 90.6752 1.13536 3.23982 0
M  V30 960 N 93.1203 -1.57491 0.0584922 0
M  V30 961 C 94.3673 -1.92978 -0.613648 0
M  V30 962 C 94.6953 -0.937461 -1.70417 0
M  V30 963 O 93.9503 0.049078 -1.95638 0
M  V30 964 C 94.2493 -3.3513 -1.24188 0
M  V30 965 C 93.9153 -4.50037 -0.278826 0
M  V30 966 C 92.5773 -4.81198 -0.0138447 0
M  V30 967 C 94.9293 -5.19807 0.380777 0
M  V30 968 C 92.2573 -5.79473 0.918052 0
M  V30 969 C 94.6093 -6.19079 1.30091 0
M  V30 970 C 93.2733 -6.48665 1.57449 0
M  V30 971 H 92.5433 -0.706157 -0.22455 0
M  V30 972 H 95.1903 -1.91082 0.126533 0
M  V30 973 H 93.4953 -3.33429 -2.05749 0
M  V30 974 H 95.1923 -3.59871 -1.769 0
M  V30 975 H 91.7823 -4.25726 -0.495539 0
M  V30 976 H 95.9663 -4.95939 0.189158 0
M  V30 977 H 91.2223 -6.00727 1.1374 0
M  V30 978 H 95.3963 -6.7225 1.81804 0
M  V30 979 H 93.0233 -7.24628 2.29822 0
M  V30 980 N 94.5984 0.214957 -1.56127 0
M  V30 981 C 95.5454 1.26642 -1.92952 0
M  V30 982 C 96.5154 1.46244 -0.78753 0
M  V30 983 O 97.7004 1.59704 -1.04399 0
M  V30 984 C 94.8404 2.6104 -2.25726 0
M  V30 985 C 93.9534 2.49183 -3.52891 0
M  V30 986 C 93.0884 3.76149 -3.7508 0
M  V30 987 C 92.1274 3.59041 -4.95738 0
M  V30 988 N 91.2644 4.77972 -5.14283 0
M  V30 989 H 96.1044 0.945384 -2.82607 0
M  V30 990 H 93.6414 0.455489 -1.3987 0
M  V30 991 H 95.5994 3.39313 -2.42739 0
M  V30 992 H 94.2294 2.91227 -1.39236 0
M  V30 993 H 93.2814 1.6231 -3.44034 0
M  V30 994 H 94.5934 2.32466 -4.41318 0
M  V30 995 H 93.7474 4.62865 -3.92226 0
M  V30 996 H 92.4864 3.95799 -2.84947 0
M  V30 997 H 91.4914 2.7071 -4.78535 0
M  V30 998 H 92.7164 3.40856 -5.87362 0
M  V30 999 H 90.6624 4.97923 -4.27093 0
M  V30 1000 H 90.5794 4.64006 -5.96853 0
M  V30 1001 H 91.8474 5.66096 -5.35869 0
M  V30 1002 N 96.0765 1.50051 0.48192 0
M  V30 1003 C 96.9865 1.7089 1.60728 0
M  V30 1004 C 98.0025 0.591788 1.63627 0
M  V30 1005 O 99.1785 0.868817 1.81696 0
M  V30 1006 C 96.2435 1.78855 2.97005 0
M  V30 1007 C 95.3045 3.02537 3.04581 0
M  V30 1008 C 94.5375 3.10112 4.34357 0
M  V30 1009 O 94.7605 2.24765 5.24249 0
M  V30 1010 O 93.6945 4.02747 4.47301 0
M  V30 1011 H 97.5205 2.66264 1.46072 0
M  V30 1012 H 95.1055 1.34018 0.660264 0
M  V30 1013 H 96.9875 1.86336 3.77964 0
M  V30 1014 H 95.6625 0.866628 3.11883 0
M  V30 1015 H 94.5695 3.00563 2.22739 0
M  V30 1016 H 95.9025 3.94272 2.94636 0
M  V30 1017 N 97.5546 -0.734337 1.39446 0
M  V30 1018 C 98.4646 -1.87879 1.40495 0
M  V30 1019 C 99.4806 -1.714 0.299672 0
M  V30 1020 O 100.657 -1.93991 0.541249 0
M  V30 1021 C 97.7216 -3.23477 1.24754 0
M  V30 1022 C 96.7826 -3.52344 2.45259 0
M  V30 1023 C 96.0156 -4.81473 2.30259 0
M  V30 1024 O 96.2386 -5.55237 1.30643 0
M  V30 1025 O 95.1726 -5.10254 3.19256 0
M  V30 1026 H 98.9986 -1.89949 2.36966 0
M  V30 1027 H 96.5836 -0.882243 1.20569 0
M  V30 1028 H 98.4656 -4.04509 1.18111 0
M  V30 1029 H 97.1406 -3.22176 0.313781 0
M  V30 1030 H 96.0476 -2.71396 2.57478 0
M  V30 1031 H 97.3806 -3.58426 3.37331 0
M  V30 1032 N 99.0327 -1.24633 -0.964593 0
M  V30 1033 C 99.9957 -1.0424 -2.04124 0
M  V30 1034 C 100.996 0.00137563 -1.608 0
M  V30 1035 O 102.186 -0.239883 -1.7254 0
M  V30 1036 C 99.3177 -0.580588 -3.3592 0
M  V30 1037 H 100.511 -1.99803 -2.23649 0
M  V30 1038 H 98.0637 -1.06899 -1.14027 0
M  V30 1039 H 98.7987 0.3781 -3.22088 0
M  V30 1040 H 98.5837 -1.33398 -3.6871 0
M  V30 1041 H 100.074 -0.459034 -4.15069 0
M  V30 1042 N 100.511 1.16574 -1.06058 0
M  V30 1043 C 101.758 1.87047 -0.775873 0
M  V30 1044 C 102.086 1.81562 0.697534 0
M  V30 1045 O 101.341 1.22445 1.52662 0
M  V30 1046 C 101.64 3.36195 -1.21275 0
M  V30 1047 C 101.306 3.6188 -2.68986 0
M  V30 1048 C 99.9678 3.68599 -3.09335 0
M  V30 1049 C 102.32 3.72648 -3.64394 0
M  V30 1050 C 99.6478 3.83584 -4.43937 0
M  V30 1051 C 102 3.89154 -4.98741 0
M  V30 1052 C 100.664 3.94114 -5.3873 0
M  V30 1053 H 99.9338 0.684452 -0.283912 0
M  V30 1054 H 102.581 1.37853 -1.32925 0
M  V30 1055 H 100.886 3.87505 -0.578528 0
M  V30 1056 H 102.583 3.89103 -0.969542 0
M  V30 1057 H 99.1728 3.57281 -2.36744 0
M  V30 1058 H 103.357 3.66769 -3.34356 0
M  V30 1059 H 98.6128 3.85677 -4.74409 0
M  V30 1060 H 102.787 3.96427 -5.72554 0
M  V30 1061 H 100.414 4.05478 -6.43033 0
M  V30 1062 N 101.989 0.842826 1.3317 0
M  V30 1063 C 102.952 0.284065 2.27433 0
M  V30 1064 C 103.952 -0.54948 1.5112 0
M  V30 1065 O 105.142 -0.362699 1.70382 0
M  V30 1066 C 102.274 -0.599384 3.35589 0
M  V30 1067 H 103.467 1.11589 2.78366 0
M  V30 1068 H 101.02 0.616221 1.4364 0
M  V30 1069 H 101.755 -1.45349 2.89904 0
M  V30 1070 H 101.54 -0.00291266 3.921 0
M  V30 1071 H 103.03 -0.983488 4.05854 0
M  V30 1072 N 103.467 -1.45747 0.599634 0
M  V30 1073 C 104.883 -1.57424 0.26264 0
M  V30 1074 C 105.083 -1.59222 -1.23493 0
M  V30 1075 O 104.139 -1.51825 -2.01756 0
M  V30 1076 C 105.452 -2.86061 0.926795 0
M  V30 1077 C 107 -2.99722 0.901967 0
M  V30 1078 C 107.475 -4.31119 1.54598 0
M  V30 1079 N 108.966 -4.37858 1.5111 0
M  V30 1080 C 109.701 -5.3818 1.97863 0
M  V30 1081 N 109.197 -6.45083 2.52666 0
M  V30 1082 N 110.99 -5.29487 1.88679 0
M  V30 1083 H 103.141 -1.42823 1.57211 0
M  V30 1084 H 105.404 -0.68235 0.658105 0
M  V30 1085 H 105.11 -2.90605 1.98095 0
M  V30 1086 H 104.984 -3.74563 0.445238 0
M  V30 1087 H 107.371 -2.9475 -0.143617 0
M  V30 1088 H 107.452 -2.12652 1.42171 0
M  V30 1089 H 107.096 -4.36849 2.59085 0
M  V30 1090 H 107.026 -5.16992 1.00132 0
M  V30 1091 H 109.517 -3.61209 1.11068 0
M  V30 1092 H 109.83 -7.17869 2.86155 0
M  V30 1093 H 108.175 -6.45856 2.56701 0
M  V30 1094 H 111.366 -4.44877 1.4561 0
M  V30 1095 H 111.539 -6.07524 2.25429 0
M  V30 1096 N 104.945 -0.338344 -1.53925 0
M  V30 1097 C 105.908 0.508299 -2.23493 0
M  V30 1098 C 106.908 1.03175 -1.23335 0
M  V30 1099 O 108.098 0.921826 -1.47811 0
M  V30 1100 C 105.23 1.70754 -2.95052 0
M  V30 1101 H 106.423 -0.100058 -2.99733 0
M  V30 1102 H 103.976 -0.0896198 -1.56043 0
M  V30 1103 H 104.711 2.35474 -2.22986 0
M  V30 1104 H 104.496 1.33946 -3.68512 0
M  V30 1105 H 105.986 2.30818 -3.48013 0
M  V30 1106 N 106.423 1.57458 -0.0668435 0
M  V30 1107 C 107.7 1.8469 0.644132 0
M  V30 1108 C 108.08 0.958343 1.88093 0
M  V30 1109 O 107.428 0.0233579 2.28488 0
M  V30 1110 C 107.638 3.34767 0.986509 0
M  V30 1111 C 108.986 4.02159 1.36212 0
M  V30 1112 O 110.01 3.39484 1.07839 0
M  V30 1113 O 108.869 5.12694 1.89227 0
M  V30 1114 H 105.963 0.762816 0.319437 0
M  V30 1115 H 108.509 1.6942 -0.0973986 0
M  V30 1116 H 107.281 3.91151 0.107883 0
M  V30 1117 H 106.904 3.55281 1.78497 0
M  V30 1118 N 107.901 -0.206675 1.56239 0
M  V30 1119 C 108.811 -1.27686 1.96808 0
M  V30 1120 C 109.827 -1.50455 0.874035 0
M  V30 1121 O 111.003 -1.63295 1.17884 0
M  V30 1122 C 108.068 -2.60358 2.28942 0
M  V30 1123 C 107.129 -2.45762 3.51994 0
M  V30 1124 C 106.362 -3.72108 3.82585 0
M  V30 1125 O 106.585 -4.75776 3.14631 0
M  V30 1126 O 105.519 -3.6833 4.76043 0
M  V30 1127 H 109.345 -0.962593 2.88041 0
M  V30 1128 H 106.93 -0.410746 1.43643 0
M  V30 1129 H 108.812 -3.38687 2.50737 0
M  V30 1130 H 107.487 -2.91435 1.4088 0
M  V30 1131 H 106.394 -1.65584 3.35459 0
M  V30 1132 H 107.727 -2.19621 4.40486 0
M  V30 1133 N 109.379 -1.50304 -0.473955 0
M  V30 1134 C 110.309 -1.71886 -1.58042 0
M  V30 1135 C 111.29 -0.567799 -1.60344 0
M  V30 1136 O 112.475 -0.806623 -1.76656 0
M  V30 1137 C 109.605 -1.81036 -2.96384 0
M  V30 1138 C 108.559 -2.962 -3.08949 0
M  V30 1139 C 107.885 -2.9049 -4.48909 0
M  V30 1140 C 109.185 -4.36752 -2.86434 0
M  V30 1141 H 110.879 -2.64527 -1.40234 0
M  V30 1142 H 108.425 -1.27295 -0.673201 0
M  V30 1143 H 110.378 -1.94719 -3.73714 0
M  V30 1144 H 109.102 -0.850147 -3.15341 0
M  V30 1145 H 107.761 -2.82164 -2.3405 0
M  V30 1146 H 107.409 -1.92321 -4.64781 0
M  V30 1147 H 107.109 -3.67802 -4.58253 0
M  V30 1148 H 108.633 -3.06218 -5.28264 0
M  V30 1149 H 110.047 -4.5133 -3.53517 0
M  V30 1150 H 108.444 -5.15493 -3.07225 0
M  V30 1151 H 109.514 -4.49321 -1.82316 0
M  V30 1152 N 110.857 0.726932 -1.39834 0
M  V30 1153 C 112.085 1.51613 -1.40787 0
M  V30 1154 C 112.5 1.88799 -0.00451505 0
M  V30 1155 O 111.857 1.54662 0.968809 0
M  V30 1156 C 111.908 2.79863 -2.28821 0
M  V30 1157 O 111.629 2.44253 -3.63692 0
M  V30 1158 C 113.13 3.73837 -2.38245 0
M  V30 1159 H 110.35 0.468264 -0.480593 0
M  V30 1160 H 112.894 0.897607 -1.83748 0
M  V30 1161 H 111.049 3.38027 -1.89252 0
M  V30 1162 H 111.463 3.26695 -4.1033 0
M  V30 1163 H 112.937 4.60699 -3.04073 0
M  V30 1164 H 113.414 4.16153 -1.40403 0
M  V30 1165 H 114.02 3.21589 -2.78317 0
M  V30 1166 N 112.336 1.25143 0.95797 0
M  V30 1167 C 113.246 1.06968 2.08794 0
M  V30 1168 C 114.262 0.00773911 1.73998 0
M  V30 1169 O 115.438 0.207972 2.00323 0
M  V30 1170 C 112.503 0.68691 3.39827 0
M  V30 1171 C 111.564 1.82641 3.88511 0
M  V30 1172 C 110.797 1.46181 5.1329 0
M  V30 1173 O 111.02 0.355971 5.69288 0
M  V30 1174 O 109.954 2.29085 5.566 0
M  V30 1175 H 113.78 2.01723 2.27027 0
M  V30 1176 H 111.365 1.04051 1.07209 0
M  V30 1177 H 113.247 0.485417 4.18595 0
M  V30 1178 H 111.922 -0.231417 3.22872 0
M  V30 1179 H 110.829 2.08274 3.10762 0
M  V30 1180 H 112.162 2.72386 4.09959 0
M  V30 1181 N 113.814 -1.1601 1.06675 0
M  V30 1182 C 115.23 -1.38622 0.790948 0
M  V30 1183 C 115.43 -1.92109 -0.607965 0
M  V30 1184 O 114.486 -2.12239 -1.36787 0
M  V30 1185 C 115.799 -2.36347 1.85905 0
M  V30 1186 C 117.347 -2.50023 1.88301 0
M  V30 1187 C 117.822 -3.51033 2.94176 0
M  V30 1188 N 119.313 -3.58563 2.93235 0
M  V30 1189 C 120.048 -4.36521 3.71803 0
M  V30 1190 N 119.544 -5.17869 4.602 0
M  V30 1191 N 121.337 -4.31541 3.60178 0
M  V30 1192 H 113.488 -0.796294 1.96908 0
M  V30 1193 H 115.751 -0.412597 0.853503 0
M  V30 1194 H 115.457 -2.04147 2.86386 0
M  V30 1195 H 115.331 -3.36042 1.71334 0
M  V30 1196 H 117.718 -2.81524 0.884769 0
M  V30 1197 H 117.799 -1.5035 2.06951 0
M  V30 1198 H 117.443 -3.20268 3.94196 0
M  V30 1199 H 117.373 -4.50445 2.72776 0
M  V30 1200 H 119.864 -3.00496 2.29152 0
M  V30 1201 H 120.177 -5.74578 5.16797 0
M  V30 1202 H 118.522 -5.17199 4.64253 0
M  V30 1203 H 121.713 -3.67051 2.90502 0
M  V30 1204 H 121.886 -4.9205 4.21653 0
M  V30 1205 N 115.292 -0.849877 -1.32721 0
M  V30 1206 C 116.255 -0.296122 -2.27279 0
M  V30 1207 C 117.255 0.541458 -1.5141 0
M  V30 1208 O 118.445 0.353658 -1.70572 0
M  V30 1209 C 115.577 0.581579 -3.35902 0
M  V30 1210 H 116.77 -1.13064 -2.77771 0
M  V30 1211 H 114.323 -0.62383 -1.43311 0
M  V30 1212 H 115.058 1.43809 -2.9067 0
M  V30 1213 H 114.843 -0.0178814 -3.92096 0
M  V30 1214 H 116.333 0.961951 -4.0637 0
M  V30 1215 N 116.77 1.45427 -0.607355 0
M  V30 1216 C 117.733 2.28974 0.101693 0
M  V30 1217 C 118.733 1.39754 0.795329 0
M  V30 1218 O 119.923 1.61878 0.643527 0
M  V30 1219 C 117.055 3.20768 1.15414 0
M  V30 1220 H 118.248 2.93147 -0.632844 0
M  V30 1221 H 115.801 1.51945 -0.366391 0
M  V30 1222 H 116.536 2.61395 1.91945 0
M  V30 1223 H 116.321 3.86489 0.66098 0
M  V30 1224 H 117.811 3.83589 1.65073 0
M  V30 1225 N 118.248 0.346503 1.53744 0
M  V30 1226 C 119.178 -0.501193 2.28058 0
M  V30 1227 C 120.159 -1.10014 1.29734 0
M  V30 1228 O 121.344 -1.12097 1.58581 0
M  V30 1229 C 118.474 -1.65078 3.05559 0
M  V30 1230 C 117.428 -1.18003 4.11411 0
M  V30 1231 C 116.754 -2.41837 4.76884 0
M  V30 1232 C 118.054 -0.278394 5.21558 0
M  V30 1233 H 119.748 0.11875 2.99164 0
M  V30 1234 H 117.294 0.0585531 1.43881 0
M  V30 1235 H 119.247 -2.25028 3.56287 0
M  V30 1236 H 117.971 -2.29767 2.32109 0
M  V30 1237 H 116.63 -0.603331 3.61601 0
M  V30 1238 H 116.278 -3.0494 4.00026 0
M  V30 1239 H 115.978 -2.1102 5.48402 0
M  V30 1240 H 117.502 -3.02508 5.30397 0
M  V30 1241 H 118.916 -0.784823 5.67903 0
M  V30 1242 H 117.313 -0.0619707 6.00068 0
M  V30 1243 H 118.383 0.684677 4.80042 0
M  V30 1244 N 119.726 -1.57421 0.075193 0
M  V30 1245 C 120.689 -2.11791 -0.876203 0
M  V30 1246 C 121.689 -1.04268 -1.22412 0
M  V30 1247 O 122.879 -1.30242 -1.15684 0
M  V30 1248 C 120.011 -2.62207 -2.17854 0
M  V30 1249 H 121.204 -2.9716 -0.40444 0
M  V30 1250 H 118.757 -1.55333 -0.173557 0
M  V30 1251 H 119.492 -1.803 -2.6956 0
M  V30 1252 H 119.277 -3.40802 -1.93897 0
M  V30 1253 H 120.767 -3.04335 -2.85955 0
M  V30 1254 N 121.204 0.198386 -1.56346 0
M  V30 1255 C 122.452 0.91747 -1.80075 0
M  V30 1256 C 122.773 1.83929 -0.647692 0
M  V30 1257 O 122.043 1.93029 0.334166 0
M  V30 1258 H 120.623 0.341774 -0.664228 0
M  V30 1259 H 123.285 0.204684 -1.93822 0
M  V30 1260 H 122.381 1.51055 -2.7311 0
M  V30 1261 N 122.682 1.50554 0.465978 0
M  V30 1262 C 123.645 1.69233 1.54574 0
M  V30 1263 C 124.645 0.562901 1.50626 0
M  V30 1264 O 125.835 0.830016 1.53155 0
M  V30 1265 C 122.967 1.7223 2.94193 0
M  V30 1266 H 124.16 2.65571 1.39327 0
M  V30 1267 H 121.713 1.40111 0.692711 0
M  V30 1268 H 122.448 0.77603 3.14878 0
M  V30 1269 H 122.233 2.54285 2.98466 0
M  V30 1270 H 123.723 1.88618 3.72576 0
M  V30 1271 N 124.16 -0.719506 1.40217 0
M  V30 1272 C 125.406 -1.48152 1.38488 0
M  V30 1273 C 125.739 -1.94195 -0.0141867 0
M  V30 1274 O 125.014 -1.67884 -0.982096 0
M  V30 1275 C 125.297 -2.71035 2.37091 0
M  V30 1276 C 125.15 -2.30912 3.86005 0
M  V30 1277 C 126.469 -3.73182 2.33288 0
M  V30 1278 H 123.588 -0.537395 0.504357 0
M  V30 1279 H 126.23 -0.821472 1.71324 0
M  V30 1280 H 124.38 -3.27352 2.0922 0
M  V30 1281 H 126.052 -1.80107 4.24687 0
M  V30 1282 H 124.295 -1.62958 4.02029 0
M  V30 1283 H 124.966 -3.18978 4.50508 0
M  V30 1284 H 127.442 -3.26485 2.57966 0
M  V30 1285 H 126.318 -4.56806 3.04334 0
M  V30 1286 H 126.579 -4.21202 1.34317 0
M  V30 1287 N 125.638 -1.25649 -0.95132 0
M  V30 1288 C 126.586 -1.06118 -2.06982 0
M  V30 1289 C 127.58 0.00889169 -1.69398 0
M  V30 1290 O 128.786 -0.146988 -1.79399 0
M  V30 1291 H 125.161 -0.326248 -0.677544 0
M  V30 1292 H 127.132 -2.00932 -2.2061 0
M  V30 1293 C 125.881 -0.700145 -3.40578 0
M  V30 1294 H 125.204 -1.51537 -3.69968 0
M  V30 1295 H 126.644 -0.603211 -4.19687 0
M  V30 1296 C 125.103 0.59403 -3.31622 0
M  V30 1297 O 125.633 1.63522 -3.66911 0
M  V30 1298 N 123.839 0.58089 -2.84735 0
M  V30 1299 H 123.386 -0.266783 -2.56215 0
M  V30 1300 H 123.344 1.44695 -2.79125 0
M  V30 1301 N 127.117 1.15442 -1.07289 0
M  V30 1302 C 128.345 1.90096 -0.81676 0
M  V30 1303 C 128.76 1.7798 0.629966 0
M  V30 1304 O 128.117 1.1313 1.43206 0
M  V30 1305 C 128.168 3.40466 -1.21512 0
M  V30 1306 O 127.889 3.52232 -2.60508 0
M  V30 1307 C 129.39 4.32145 -0.988198 0
M  V30 1308 H 126.61 0.602495 -0.295366 0
M  V30 1309 H 129.154 1.4627 -1.42918 0
M  V30 1310 H 127.309 3.81958 -0.647039 0
M  V30 1311 H 127.723 4.45549 -2.76742 0
M  V30 1312 H 129.197 5.36072 -1.31645 0
M  V30 1313 H 129.674 4.39135 0.0755063 0
M  V30 1314 H 130.28 3.96395 -1.54115 0
M  V30 1315 N 128.595 0.856903 1.32268 0
M  V30 1316 C 129.525 0.31858 2.31316 0
M  V30 1317 C 130.506 -0.583487 1.59779 0
M  V30 1318 O 131.691 -0.503259 1.87566 0
M  V30 1319 C 128.821 -0.491979 3.43798 0
M  V30 1320 C 127.775 0.315849 4.26833 0
M  V30 1321 C 127.101 -0.619586 5.31098 0
M  V30 1322 C 128.401 1.54282 4.98993 0
M  V30 1323 H 130.095 1.14621 2.76591 0
M  V30 1324 H 127.641 0.552613 1.32974 0
M  V30 1325 H 129.594 -0.879012 4.1213 0
M  V30 1326 H 128.318 -1.35299 2.97257 0
M  V30 1327 H 126.977 0.684664 3.6015 0
M  V30 1328 H 126.625 -1.47751 4.8081 0
M  V30 1329 H 126.325 -0.0830621 5.87541 0
M  V30 1330 H 127.849 -1.00375 6.02293 0
M  V30 1331 H 129.263 1.22796 5.59995 0
M  V30 1332 H 127.66 2.01745 5.65172 0
M  V30 1333 H 128.73 2.30285 4.26728 0
M  V30 1334 N 130.073 -1.45103 0.615059 0
M  V30 1335 C 131.006 -2.27717 -0.148408 0
M  V30 1336 C 131.984 -1.37584 -0.866572 0
M  V30 1337 O 133.168 -1.67017 -0.87393 0
M  V30 1338 C 130.295 -3.16136 -1.21557 0
M  V30 1339 C 129.341 -4.22263 -0.599712 0
M  V30 1340 S 130.174 -5.3215 0.598081 0
M  V30 1341 C 131.33 -6.24137 -0.469484 0
M  V30 1342 H 131.563 -2.92121 0.552483 0
M  V30 1343 H 129.096 -1.49054 0.402778 0
M  V30 1344 H 131.054 -3.67633 -1.82638 0
M  V30 1345 H 129.715 -2.50982 -1.88857 0
M  V30 1346 H 128.908 -4.84081 -1.4029 0
M  V30 1347 H 128.51 -3.73945 -0.063876 0
M  V30 1348 H 130.802 -6.63984 -1.34652 0
M  V30 1349 H 131.745 -7.0801 0.112725 0
M  V30 1350 H 132.153 -5.58971 -0.788168 0
M  V30 1351 N 131.551 -0.354651 -1.53558 0
M  V30 1352 C 132.967 -0.00315426 -1.596 0
M  V30 1353 C 133.167 1.47741 -1.37021 0
M  V30 1354 O 132.223 2.23759 -1.16996 0
M  V30 1355 C 133.536 -0.44929 -2.97325 0
M  V30 1356 C 135.084 -0.402578 -3.104 0
M  V30 1357 C 135.559 -0.824355 -4.5052 0
M  V30 1358 N 137.05 -0.778979 -4.56603 0
M  V30 1359 C 137.785 -1.07715 -5.63192 0
M  V30 1360 N 137.281 -1.44405 -6.77583 0
M  V30 1361 N 139.074 -1.00066 -5.53121 0
M  V30 1362 H 131.225 -1.31893 -1.66487 0
M  V30 1363 H 133.488 -0.538388 -0.780284 0
M  V30 1364 H 133.194 -1.48202 -3.1895 0
M  V30 1365 H 133.068 0.169772 -3.76818 0
M  V30 1366 H 135.455 0.621004 -2.88492 0
M  V30 1367 H 135.536 -1.05699 -2.32941 0
M  V30 1368 H 135.18 -1.846 -4.73165 0
M  V30 1369 H 135.11 -0.147304 -5.26394 0
M  V30 1370 H 137.601 -0.508528 -3.74463 0
M  V30 1371 H 137.914 -1.65612 -7.54846 0
M  V30 1372 H 136.259 -1.4826 -6.79002 0
M  V30 1373 H 139.45 -0.713293 -4.62633 0
M  V30 1374 H 139.623 -1.23638 -6.36096 0
M  V30 1375 N 133.029 1.57378 -0.0835403 0
M  V30 1376 C 133.959 2.1641 0.87686 0
M  V30 1377 C 134.94 1.09429 1.30228 0
M  V30 1378 O 136.125 1.37516 1.37124 0
M  V30 1379 C 133.255 2.73517 2.14022 0
M  V30 1380 C 132.209 3.85769 1.85381 0
M  V30 1381 C 131.535 4.29529 3.18448 0
M  V30 1382 C 132.835 5.09486 1.14984 0
M  V30 1383 H 134.529 2.96914 0.385059 0
M  V30 1384 H 132.075 1.42823 0.18377 0
M  V30 1385 H 134.028 3.13463 2.81636 0
M  V30 1386 H 132.752 1.90252 2.65465 0
M  V30 1387 H 131.411 3.46345 1.20169 0
M  V30 1388 H 131.059 3.43169 3.67755 0
M  V30 1389 H 130.759 5.05204 3.00071 0
M  V30 1390 H 132.283 4.72099 3.8724 0
M  V30 1391 H 133.697 5.46674 1.72687 0
M  V30 1392 H 132.094 5.90515 1.06826 0
M  V30 1393 H 133.164 4.84724 0.130749 0
M  V30 1394 N 134.507 -0.190092 1.56449 0
M  V30 1395 C 135.417 -1.25591 1.98152 0
M  V30 1396 C 136.433 -1.49519 0.889944 0
M  V30 1397 O 137.609 -1.62036 1.19609 0
M  V30 1398 C 134.674 -2.57916 2.3169 0
M  V30 1399 C 133.735 -2.42015 3.5458 0
M  V30 1400 C 132.968 -3.6803 3.8651 0
M  V30 1401 O 133.191 -4.72413 3.1966 0
M  V30 1402 O 132.125 -3.6326 4.79923 0
M  V30 1403 H 135.951 -0.931988 2.89046 0
M  V30 1404 H 133.536 -0.395488 1.4407 0
M  V30 1405 H 135.418 -3.36008 2.54316 0
M  V30 1406 H 134.093 -2.89925 1.43963 0
M  V30 1407 H 133 -1.62017 3.37196 0
M  V30 1408 H 134.333 -2.14937 4.4279 0
M  V30 1409 N 135.985 -1.50799 -0.457987 0
M  V30 1410 C 137.262 -1.52968 -1.21902 0
M  V30 1411 C 137.642 -0.281906 -2.09209 0
M  V30 1412 O 136.99 0.734076 -2.16388 0
M  V30 1413 C 137.2 -2.8326 -2.03875 0
M  V30 1414 C 138.548 -3.34425 -2.6162 0
M  V30 1415 O 139.572 -2.8467 -2.14106 0
M  V30 1416 O 138.431 -4.21188 -3.48228 0
M  V30 1417 H 135.525 -0.614129 -0.553873 0
M  V30 1418 H 138.071 -1.63098 -0.468739 0
M  V30 1419 H 136.843 -3.65543 -1.39621 0
M  V30 1420 H 136.466 -2.76195 -2.8601 0
M  V30 1421 N 137.463 0.71206 -1.40597 0
M  V30 1422 C 138.711 1.46907 -1.38791 0
M  V30 1423 C 139.032 1.94998 0.00780391 0
M  V30 1424 O 138.302 1.70587 0.963174 0
M  V30 1425 H 136.882 0.545043 -0.51082 0
M  V30 1426 H 139.544 0.843882 -1.75683 0
M  V30 1427 H 138.64 2.34021 -2.06496 0
M  V30 1428 N 138.941 1.26152 0.944643 0
M  V30 1429 C 140.357 1.03189 1.21754 0
M  V30 1430 C 140.557 -0.245112 2.00004 0
M  V30 1431 O 139.613 -0.955176 2.33736 0
M  V30 1432 C 140.926 2.26119 1.98219 0
M  V30 1433 C 142.474 2.30984 2.11224 0
M  V30 1434 C 142.949 3.53597 2.91089 0
M  V30 1435 N 144.44 3.54053 2.98664 0
M  V30 1436 C 145.175 4.45593 3.60881 0
M  V30 1437 N 144.671 5.47416 4.24626 0
M  V30 1438 N 146.464 4.33252 3.58119 0
M  V30 1439 H 138.615 2.08177 0.421437 0
M  V30 1440 H 140.878 0.914723 0.248969 0
M  V30 1441 H 140.584 3.18984 1.48128 0
M  V30 1442 H 140.458 2.3009 2.98895 0
M  V30 1443 H 142.845 1.38635 2.60508 0
M  V30 1444 H 142.926 2.31026 1.09821 0
M  V30 1445 H 142.57 4.46273 2.42493 0
M  V30 1446 H 142.5 3.50802 3.92741 0
M  V30 1447 H 144.991 2.80403 2.53343 0
M  V30 1448 H 145.304 6.13459 4.69987 0
M  V30 1449 H 143.649 5.51278 4.23223 0
M  V30 1450 H 146.84 3.52924 3.0751 0
M  V30 1451 H 147.013 5.04786 4.06319 0
M  V30 1452 N 140.419 -1.14872 1.07899 0
M  V30 1453 C 141.349 -2.2193 0.725887 0
M  V30 1454 C 142.33 -1.67622 -0.28927 0
M  V30 1455 O 143.515 -1.93533 -0.160787 0
M  V30 1456 C 140.645 -3.47061 0.128856 0
M  V30 1457 C 139.599 -4.14363 1.07178 0
M  V30 1458 C 138.925 -5.33636 0.337229 0
M  V30 1459 C 140.225 -4.63492 2.40775 0
M  V30 1460 H 141.919 -2.51724 1.62097 0
M  V30 1461 H 139.465 -1.20991 0.780838 0
M  V30 1462 H 141.418 -4.21199 -0.130147 0
M  V30 1463 H 140.142 -3.16617 -0.80134 0
M  V30 1464 H 138.801 -3.42173 1.3158 0
M  V30 1465 H 138.449 -4.99449 -0.596606 0
M  V30 1466 H 138.149 -5.79609 0.965788 0
M  V30 1467 H 139.673 -6.10539 0.0861567 0
M  V30 1468 H 141.087 -5.2913 2.20669 0
M  V30 1469 H 139.484 -5.20148 2.99276 0
M  V30 1470 H 140.554 -3.78834 3.02676 0
M  V30 1471 N 141.898 -0.863906 -1.31812 0
M  V30 1472 C 142.828 -0.330843 -2.31144 0
M  V30 1473 C 143.809 0.575005 -1.60087 0
M  V30 1474 O 144.994 0.493304 -1.8783 0
M  V30 1475 C 142.124 0.47374 -3.44054 0
M  V30 1476 C 141.078 -0.338481 -4.26659 0
M  V30 1477 C 140.404 0.591412 -5.31419 0
M  V30 1478 C 141.704 -1.56926 -4.98168 0
M  V30 1479 H 143.398 -1.16086 -2.75979 0
M  V30 1480 H 140.944 -0.559657 -1.32679 0
M  V30 1481 H 142.897 0.857143 -4.12591 0
M  V30 1482 H 141.621 1.33721 -2.9797 0
M  V30 1483 H 140.28 -0.703754 -3.59782 0
M  V30 1484 H 139.928 1.45199 -4.81587 0
M  V30 1485 H 139.628 0.0519022 -5.87577 0
M  V30 1486 H 141.152 0.97179 -6.02817 0
M  V30 1487 H 142.566 -1.25764 -5.59336 0
M  V30 1488 H 140.963 -2.04739 -5.64094 0
M  V30 1489 H 142.033 -2.32544 -4.25501 0
M  V30 1490 N 143.376 1.44774 -0.622745 0
M  V30 1491 C 144.624 2.01721 -0.123655 0
M  V30 1492 C 144.945 1.49172 1.25589 0
M  V30 1493 O 144.215 0.691974 1.83272 0
M  V30 1494 H 142.795 0.745777 -0.0427225 0
M  V30 1495 H 145.457 1.77382 -0.807559 0
M  V30 1496 H 144.553 3.11984 -0.0849534 0
M  V30 1497 N 144.854 0.36279 1.53368 0
M  V30 1498 C 146.131 -0.284021 1.93527 0
M  V30 1499 C 146.511 -1.66628 1.29608 0
M  V30 1500 O 145.859 -2.23942 0.45413 0
M  V30 1501 C 146.069 -0.337028 3.47369 0
M  V30 1502 C 147.417 -0.578708 4.20638 0
M  V30 1503 O 148.441 -0.418352 3.53735 0
M  V30 1504 O 147.3 -0.89074 5.39192 0
M  V30 1505 H 144.394 -0.169743 0.809393 0
M  V30 1506 H 146.94 0.41537 1.64538 0
M  V30 1507 H 145.712 0.632217 3.86159 0
M  V30 1508 H 145.335 -1.08243 3.82582 0
M  V30 1509 N 146.332 -1.57332 0.0918853 0
M  V30 1510 C 147.28 -2.15075 -0.885747 0
M  V30 1511 C 148.274 -1.09277 -1.29441 0
M  V30 1512 O 149.48 -1.27627 -1.26931 0
M  V30 1513 H 145.855 -0.687966 -0.303656 0
M  V30 1514 H 147.826 -2.96047 -0.373995 0
M  V30 1515 C 146.575 -2.74325 -2.13638 0
M  V30 1516 H 145.898 -3.55418 -1.8308 0
M  V30 1517 H 147.338 -3.183 -2.80109 0
M  V30 1518 C 145.797 -1.70062 -2.90827 0
M  V30 1519 O 146.327 -1.13763 -3.85254 0
M  V30 1520 N 144.533 -1.40628 -2.54307 0
M  V30 1521 H 144.08 -1.866 -1.7759 0
M  V30 1522 H 144.038 -0.711043 -3.06254 0
M  V30 1523 N 147.81 0.181792 -1.56548 0
M  V30 1524 C 149.038 0.915947 -1.85521 0
M  V30 1525 C 149.453 1.76282 -0.676016 0
M  V30 1526 O 148.81 1.79012 0.355077 0
M  V30 1527 C 148.861 1.80126 -3.13427 0
M  V30 1528 O 148.582 0.988562 -4.26801 0
M  V30 1529 C 150.083 2.64597 -3.55673 0
M  V30 1530 H 147.303 0.26661 -0.61576 0
M  V30 1531 H 149.847 0.185039 -2.03661 0
M  V30 1532 H 148.002 2.48563 -2.97145 0
M  V30 1533 H 148.416 1.59308 -4.99721 0
M  V30 1534 H 149.89 3.2235 -4.48101 0
M  V30 1535 H 150.367 3.38958 -2.79292 0
M  V30 1536 H 150.973 2.0151 -3.74532 0
M  V30 1537 N 149.288 1.51039 0.449983 0
M  V30 1538 C 150.565 1.53612 1.21089 0
M  V30 1539 C 150.945 0.292997 2.09057 0
M  V30 1540 O 150.293 -0.72259 2.16774 0
M  V30 1541 C 150.503 2.84337 2.0237 0
M  V30 1542 C 151.851 3.35807 2.59843 0
M  V30 1543 O 152.875 2.85802 2.12593 0
M  V30 1544 O 151.734 4.23029 3.45989 0
M  V30 1545 H 148.828 0.617057 0.550608 0
M  V30 1546 H 151.374 1.63344 0.460082 0
M  V30 1547 H 150.146 3.66278 1.37681 0
M  V30 1548 H 149.769 2.77708 2.84542 0
M  V30 1549 N 150.766 -0.704594 1.40972 0
M  V30 1550 C 152.014 -1.46169 1.39568 0
M  V30 1551 C 152.335 -1.95 0.00253745 0
M  V30 1552 O 151.605 -1.71095 -0.954114 0
M  V30 1553 H 150.185 -0.542326 0.513704 0
M  V30 1554 H 152.847 -0.834553 1.76128 0
M  V30 1555 H 151.943 -2.32922 2.07735 0
M  V30 1556 N 152.244 -1.26651 -0.937939 0
M  V30 1557 C 153.49 -1.12553 -1.687 0
M  V30 1558 C 153.823 0.329782 -1.91379 0
M  V30 1559 O 153.098 1.24202 -1.4968 0
M  V30 1560 C 153.381 -1.89862 -3.05981 0
M  V30 1561 C 153.234 -3.43318 -2.90607 0
M  V30 1562 C 154.553 -1.69499 -4.0615 0
M  V30 1563 H 151.672 -0.410257 -0.612257 0
M  V30 1564 H 154.314 -1.55685 -1.08913 0
M  V30 1565 H 152.464 -1.53204 -3.57017 0
M  V30 1566 H 154.136 -3.89747 -2.46769 0
M  V30 1567 H 152.379 -3.70179 -2.26164 0
M  V30 1568 H 153.05 -3.92642 -3.8799 0
M  V30 1569 H 155.526 -2.01442 -3.64088 0
M  V30 1570 H 154.402 -2.26002 -5.00214 0
M  V30 1571 H 154.663 -0.640365 -4.37438 0
M  V30 1572 N 153.722 1.14298 -1.08507 0
M  V30 1573 C 154.97 1.84993 -0.813763 0
M  V30 1574 C 155.291 1.83405 0.662393 0
M  V30 1575 O 154.561 1.28319 1.48024 0
M  V30 1576 H 153.141 0.684966 -0.298045 0
M  V30 1577 H 155.803 1.385 -1.37126 0
M  V30 1578 H 154.899 2.89788 -1.15884 0
M  V30 1579 N 155.201 0.870884 1.31352 0
M  V30 1580 C 156.131 0.343096 2.30966 0
M  V30 1581 C 157.112 -0.566507 1.60389 0
M  V30 1582 O 158.297 -0.483336 1.88089 0
M  V30 1583 C 155.427 -0.455487 3.443 0
M  V30 1584 C 154.381 0.361103 4.26474 0
M  V30 1585 C 153.707 -0.563221 5.31725 0
M  V30 1586 C 155.007 1.59566 4.97329 0
M  V30 1587 H 156.701 1.17548 2.75359 0
M  V30 1588 H 154.247 0.566686 1.32381 0
M  V30 1589 H 156.2 -0.83525 4.13039 0
M  V30 1590 H 154.924 -1.32139 2.98675 0
M  V30 1591 H 153.583 0.722825 3.59403 0
M  V30 1592 H 153.231 -1.42643 4.82351 0
M  V30 1593 H 152.931 -0.0207409 5.87596 0
M  V30 1594 H 154.455 -0.939808 6.03324 0
M  V30 1595 H 155.869 1.28728 5.58661 0
M  V30 1596 H 154.266 2.07728 5.63 0
M  V30 1597 H 155.336 2.34798 4.24262 0
M  V30 1598 N 156.679 -1.44442 0.630414 0
M  V30 1599 C 157.609 -2.33418 -0.0618083 0
M  V30 1600 C 158.59 -1.48165 -0.835541 0
M  V30 1601 O 159.775 -1.76886 -0.801564 0
M  V30 1602 C 156.905 -3.31222 -1.04449 0
M  V30 1603 C 155.859 -4.26288 -0.382436 0
M  V30 1604 C 155.185 -5.13954 -1.47497 0
M  V30 1605 C 156.485 -5.1744 0.710865 0
M  V30 1606 H 158.179 -2.91548 0.681184 0
M  V30 1607 H 155.725 -1.40191 0.329026 0
M  V30 1608 H 157.678 -3.92351 -1.53748 0
M  V30 1609 H 156.402 -2.71299 -1.81836 0
M  V30 1610 H 155.061 -3.6649 0.0899054 0
M  V30 1611 H 154.709 -4.50385 -2.2397 0
M  V30 1612 H 154.409 -5.7837 -1.03737 0
M  V30 1613 H 155.933 -5.77955 -1.96979 0
M  V30 1614 H 157.347 -5.72509 0.300996 0
M  V30 1615 H 155.744 -5.90455 1.07156 0
M  V30 1616 H 156.814 -4.58496 1.57829 0
M  V30 1617 N 158.157 -0.370918 -1.53173 0
M  V30 1618 C 159.382 0.220293 -2.06227 0
M  V30 1619 C 159.807 1.41243 -1.24225 0
M  V30 1620 O 159.165 1.79387 -0.262645 0
M  V30 1621 C 159.213 0.586663 -3.55796 0
M  V30 1622 O 158.317 1.68317 -3.76488 0
M  V30 1623 H 157.658 0.0308099 -0.663285 0
M  V30 1624 H 160.188 -0.533068 -1.97534 0
M  V30 1625 H 160.198 0.85617 -3.98916 0
M  V30 1626 H 158.873 -0.285013 -4.14922 0
M  V30 1627 H 157.45 1.40881 -3.45264 0
M  V30 1628 N 159.635 1.57281 -0.100228 0
M  V30 1629 C 160.912 1.86014 0.604812 0
M  V30 1630 C 161.292 0.998025 1.86018 0
M  V30 1631 O 160.64 0.0718184 2.28387 0
M  V30 1632 C 160.85 3.36784 0.915278 0
M  V30 1633 C 162.198 4.04957 1.27651 0
M  V30 1634 O 163.222 3.41695 1.00613 0
M  V30 1635 O 162.081 5.16593 1.7831 0
M  V30 1636 H 159.175 0.76942 0.303185 0
M  V30 1637 H 161.721 1.69176 -0.133313 0
M  V30 1638 H 160.493 3.91292 0.0248896 0
M  V30 1639 H 160.116 3.58987 1.70921 0
M  V30 1640 N 161.113 -0.173488 1.56642 0
M  V30 1641 C 162.043 -1.2171 1.99271 0
M  V30 1642 C 163.024 -1.46289 0.867959 0
M  V30 1643 O 164.209 -1.5766 1.13388 0
M  V30 1644 C 161.339 -2.55651 2.35074 0
M  V30 1645 C 160.293 -2.45645 3.50489 0
M  V30 1646 C 159.619 -3.84056 3.72028 0
M  V30 1647 C 160.919 -1.96302 4.84007 0
M  V30 1648 H 162.613 -0.86275 2.867 0
M  V30 1649 H 160.159 -0.413571 1.37933 0
M  V30 1650 H 162.112 -3.2886 2.63494 0
M  V30 1651 H 160.836 -2.92869 1.44552 0
M  V30 1652 H 159.495 -1.7489 3.22194 0
M  V30 1653 H 159.143 -4.18664 2.788 0
M  V30 1654 H 158.843 -3.7823 4.49684 0
M  V30 1655 H 160.367 -4.58854 4.02846 0
M  V30 1656 H 161.781 -2.59284 5.11317 0
M  V30 1657 H 160.178 -2.01429 5.65284 0
M  V30 1658 H 161.248 -0.917226 4.76146 0
M  V30 1659 N 162.591 -1.51276 -0.441967 0
M  V30 1660 C 163.501 -1.75092 -1.56141 0
M  V30 1661 C 164.517 -0.634963 -1.62001 0
M  V30 1662 O 165.693 -0.916686 -1.79329 0
M  V30 1663 C 162.758 -1.86666 -2.92158 0
M  V30 1664 C 161.819 -3.10506 -2.96453 0
M  V30 1665 C 161.052 -3.21519 -4.25982 0
M  V30 1666 O 161.275 -2.38586 -5.18105 0
M  V30 1667 O 160.209 -4.14465 -4.36466 0
M  V30 1668 H 164.035 -2.70044 -1.38961 0
M  V30 1669 H 161.62 -1.35722 -0.624499 0
M  V30 1670 H 163.502 -1.96292 -3.72891 0
M  V30 1671 H 162.177 -0.949014 -3.09476 0
M  V30 1672 H 161.084 -3.06363 -2.14692 0
M  V30 1673 H 162.417 -4.01945 -2.84079 0
M  V30 1674 N 164.069 0.697108 -1.41344 0
M  V30 1675 C 165.485 1.00751 -1.2378 0
M  V30 1676 C 165.685 2.01105 -0.126066 0
M  V30 1677 O 164.741 2.47295 0.51004 0
M  V30 1678 C 166.054 1.53359 -2.58653 0
M  V30 1679 C 167.602 1.6525 -2.65822 0
M  V30 1680 C 168.077 2.2126 -4.01009 0
M  V30 1681 N 169.568 2.28622 -4.02847 0
M  V30 1682 C 170.303 2.72984 -5.04249 0
M  V30 1683 N 169.799 3.16962 -6.16041 0
M  V30 1684 N 171.592 2.72534 -4.91611 0
M  V30 1685 H 163.743 0.0322662 -2.12375 0
M  V30 1686 H 166.006 0.0768853 -0.944877 0
M  V30 1687 H 165.712 0.870773 -3.4075 0
M  V30 1688 H 165.586 2.51597 -2.81032 0
M  V30 1689 H 167.973 2.30644 -1.84086 0
M  V30 1690 H 168.054 0.655614 -2.47256 0
M  V30 1691 H 167.698 1.56482 -4.83193 0
M  V30 1692 H 167.628 3.21698 -4.16915 0
M  V30 1693 H 170.119 1.97585 -3.22131 0
M  V30 1694 H 170.432 3.49434 -6.89287 0
M  V30 1695 H 168.777 3.14875 -6.1958 0
M  V30 1696 H 171.968 2.37525 -4.0336 0
M  V30 1697 H 172.141 3.06789 -5.70775 0
M  V30 1698 N 165.547 1.27147 0.931209 0
M  V30 1699 C 166.477 1.12081 2.04842 0
M  V30 1700 C 167.458 0.0232364 1.70084 0
M  V30 1701 O 168.643 0.197085 1.93197 0
M  V30 1702 C 165.773 0.76354 3.38803 0
M  V30 1703 C 164.727 1.81396 3.87659 0
M  V30 1704 C 164.053 1.31075 5.18385 0
M  V30 1705 C 165.353 3.21739 4.11438 0
M  V30 1706 H 167.047 2.05537 2.17703 0
M  V30 1707 H 164.593 0.989603 1.04608 0
M  V30 1708 H 166.546 0.644982 4.16435 0
M  V30 1709 H 165.27 -0.206727 3.25945 0
M  V30 1710 H 163.929 1.92136 3.12217 0
M  V30 1711 H 163.577 0.330037 5.01916 0
M  V30 1712 H 163.277 2.013 5.52044 0
M  V30 1713 H 164.801 1.20506 5.98591 0
M  V30 1714 H 166.215 3.14019 4.79651 0
M  V30 1715 H 164.612 3.89644 4.56397 0
M  V30 1716 H 165.682 3.67054 3.16859 0
M  V30 1717 N 167.025 -1.13721 1.09112 0
M  V30 1718 C 168.25 -1.89314 0.847053 0
M  V30 1719 C 168.675 -1.78416 -0.595774 0
M  V30 1720 O 168.033 -1.12942 -1.41823 0
M  V30 1721 C 168.081 -3.3701 1.28284 0
M  V30 1722 O 167.185 -4.10054 0.439267 0
M  V30 1723 H 166.526 -0.588745 0.307044 0
M  V30 1724 H 169.056 -1.43902 1.45442 0
M  V30 1725 H 169.066 -3.87834 1.26683 0
M  V30 1726 H 167.741 -3.4426 2.33363 0
M  V30 1727 H 166.318 -3.69266 0.519312 0
M  V30 1728 N 168.503 -0.877838 -1.30888 0
M  V30 1729 C 169.75 -0.492696 -1.96415 0
M  V30 1730 C 170.078 0.956671 -1.69346 0
M  V30 1731 O 169.333 1.68993 -0.986913 0
M  V30 1732 C 169.632 -0.705748 -3.50363 0
M  V30 1733 C 169.298 -2.1291 -3.97467 0
M  V30 1734 C 167.96 -2.51834 -4.1004 0
M  V30 1735 C 170.312 -3.05702 -4.22132 0
M  V30 1736 C 167.64 -3.82775 -4.44635 0
M  V30 1737 C 169.992 -4.36166 -4.58194 0
M  V30 1738 C 168.656 -4.74993 -4.68975 0
M  V30 1739 H 167.926 -0.18029 -0.718733 0
M  V30 1740 H 170.573 -1.11233 -1.55883 0
M  V30 1741 H 168.878 -0.00303058 -3.918 0
M  V30 1742 H 170.575 -0.387456 -3.99124 0
M  V30 1743 H 167.165 -1.81694 -3.88182 0
M  V30 1744 H 171.349 -2.76853 -4.11906 0
M  V30 1745 H 166.605 -4.12609 -4.51181 0
M  V30 1746 H 170.779 -5.08111 -4.76231 0
M  V30 1747 H 168.406 -5.76495 -4.95537 0
M  V30 1748 N 169.982 1.44106 -0.638065 0
M  V30 1749 C 171.231 2.01194 -0.142744 0
M  V30 1750 C 171.544 1.50835 1.24532 0
M  V30 1751 O 172.75 2.00096 1.83504 0
M  V30 1752 C 171.206 3.59319 -0.20442 0
M  V30 1753 C 170.814 4.18674 -1.59423 0
M  V30 1754 C 172.558 4.23854 0.234079 0
M  V30 1755 C 170.465 5.69045 -1.61065 0
M  V30 1756 H 169.395 0.752367 -0.0495998 0
M  V30 1757 H 172.046 1.65246 -0.797881 0
M  V30 1758 H 170.428 3.92598 0.517946 0
M  V30 1759 H 171.602 3.96921 -2.34074 0
M  V30 1760 H 169.917 3.66453 -1.97741 0
M  V30 1761 H 172.514 5.34155 0.241443 0
M  V30 1762 H 172.857 3.96688 1.2627 0
M  V30 1763 H 173.39 3.95403 -0.436025 0
M  V30 1764 H 170.129 6.00956 -2.61787 0
M  V30 1765 H 169.649 5.929 -0.90718 0
M  V30 1766 H 171.328 6.32809 -1.34766 0
M  V30 1767 N 171.46 0.379036 1.52974 0
M  V30 1768 C 172.876 0.0285448 1.59574 0
M  V30 1769 C 173.076 -1.45542 1.39355 0
M  V30 1770 O 172.132 -2.2187 1.20541 0
M  V30 1771 C 173.445 0.496535 2.96572 0
M  V30 1772 C 174.993 0.451909 3.0972 0
M  V30 1773 C 175.468 0.895924 4.49152 0
M  V30 1774 N 176.959 0.851522 4.55306 0
M  V30 1775 C 177.694 1.16661 5.61407 0
M  V30 1776 N 177.19 1.55166 6.752 0
M  V30 1777 N 178.983 1.08853 5.51459 0
M  V30 1778 H 171.134 1.34525 1.64367 0
M  V30 1779 H 173.397 0.550733 0.771619 0
M  V30 1780 H 173.103 1.53258 3.16552 0
M  V30 1781 H 172.977 -0.109802 3.7704 0
M  V30 1782 H 175.364 -0.575029 2.89443 0
M  V30 1783 H 175.445 1.09392 2.3123 0
M  V30 1784 H 175.089 1.92104 4.70168 0
M  V30 1785 H 175.019 0.23103 5.26093 0
M  V30 1786 H 177.51 0.568038 3.73606 0
M  V30 1787 H 177.823 1.776 7.52116 0
M  V30 1788 H 176.168 1.59044 6.76557 0
M  V30 1789 H 179.359 0.786803 4.6144 0
M  V30 1790 H 179.532 1.33742 6.34048 0
M  V30 1791 N 172.938 -1.57226 0.108567 0
M  V30 1792 C 174.349 -1.8195 -0.418464 0
M  V30 1793 C 174.7 -1.02508 -1.67292 0
M  V30 1794 O 173.825 -0.258496 -2.14851 0
M  V30 1795 C 174.42 -3.30028 -0.765979 0
M  V30 1796 C 172.979 -3.55469 -1.23769 0
M  V30 1797 C 172.126 -2.7625 -0.241106 0
M  V30 1798 H 175.077 -1.55149 0.33384 0
M  V30 1799 H 175.098 -3.44086 -1.62434 0
M  V30 1800 H 174.61 -3.87821 0.147219 0
M  V30 1801 H 172.711 -3.03022 -2.16814 0
M  V30 1802 H 172.824 -4.6408 -1.19022 0
M  V30 1803 H 171.188 -2.44133 -0.72602 0
M  V30 1804 H 171.971 -3.36797 0.665007 0
M  V30 1805 N 174.416 0.165178 -1.56732 0
M  V30 1806 C 175.664 0.879068 -1.8198 0
M  V30 1807 C 175.985 1.82514 -0.686561 0
M  V30 1808 O 175.255 1.93694 0.293146 0
M  V30 1809 H 173.835 0.327608 -0.671329 0
M  V30 1810 H 176.497 0.163526 -1.94213 0
M  V30 1811 H 175.593 1.45228 -2.76252 0
M  V30 1812 N 175.894 1.51508 0.433938 0
M  V30 1813 C 176.824 1.76016 1.53429 0
M  V30 1814 C 177.805 0.610112 1.58782 0
M  V30 1815 O 178.99 0.853177 1.74455 0
M  V30 1816 C 176.12 1.88831 2.9148 0
M  V30 1817 C 175.074 3.04288 3.00987 0
M  V30 1818 C 174.4 3.0229 4.4105 0
M  V30 1819 C 175.7 4.44193 2.74754 0
M  V30 1820 H 177.394 2.68152 1.33171 0
M  V30 1821 H 174.94 1.29035 0.639214 0
M  V30 1822 H 176.893 2.04559 3.6842 0
M  V30 1823 H 175.617 0.933455 3.12976 0
M  V30 1824 H 174.276 2.8827 2.26486 0
M  V30 1825 H 173.924 2.04576 4.59519 0
M  V30 1826 H 173.624 3.79822 4.4834 0
M  V30 1827 H 175.148 3.20116 5.1996 0
M  V30 1828 H 176.562 4.60544 3.41426 0
M  V30 1829 H 174.959 5.23457 2.9345 0
M  V30 1830 H 176.029 4.53996 1.70339 0
M  V30 1831 N 177.372 -0.689602 1.41712 0
M  V30 1832 C 178.788 -1.00093 1.24312 0
M  V30 1833 C 178.988 -2.01036 0.136729 0
M  V30 1834 O 178.044 -2.47562 -0.496918 0
M  V30 1835 C 179.357 -1.51985 2.59463 0
M  V30 1836 C 180.905 -1.63838 2.66695 0
M  V30 1837 C 181.38 -2.1913 4.02177 0
M  V30 1838 N 182.871 -2.26483 4.04054 0
M  V30 1839 C 183.606 -2.70306 5.0569 0
M  V30 1840 N 183.102 -3.13691 6.17713 0
M  V30 1841 N 184.895 -2.69923 4.9305 0
M  V30 1842 H 177.046 -0.0210029 2.1239 0
M  V30 1843 H 179.309 -0.0718733 0.945272 0
M  V30 1844 H 179.015 -0.85269 3.41207 0
M  V30 1845 H 178.889 -2.50103 2.82362 0
M  V30 1846 H 181.276 -2.29664 1.85306 0
M  V30 1847 H 181.357 -0.642492 2.476 0
M  V30 1848 H 181.001 -1.53918 4.84016 0
M  V30 1849 H 180.931 -3.19482 4.18615 0
M  V30 1850 H 183.422 -1.95874 3.23174 0
M  V30 1851 H 183.735 -3.45773 6.9113 0
M  V30 1852 H 182.08 -3.11585 6.21241 0
M  V30 1853 H 185.271 -2.35382 4.04614 0
M  V30 1854 H 185.444 -3.03758 5.72394 0
M  V30 1855 N 178.85 -1.27639 -0.924453 0
M  V30 1856 C 180.099 -1.13549 -1.66702 0
M  V30 1857 C 180.412 0.317487 -1.93006 0
M  V30 1858 O 181.618 0.579333 -2.65247 0
M  V30 1859 C 180.074 -1.98426 -3.00259 0
M  V30 1860 C 179.682 -3.484 -2.81641 0
M  V30 1861 C 181.426 -1.92993 -3.78092 0
M  V30 1862 C 179.333 -4.25464 -4.10773 0
M  V30 1863 H 178.263 -0.421351 -0.625283 0
M  V30 1864 H 180.914 -1.52085 -1.02676 0
M  V30 1865 H 179.296 -1.52736 -3.6536 0
M  V30 1866 H 180.47 -4.01973 -2.25287 0
M  V30 1867 H 178.785 -3.55245 -2.17232 0
M  V30 1868 H 181.382 -2.47844 -4.7379 0
M  V30 1869 H 181.725 -0.904281 -4.0636 0
M  V30 1870 H 182.258 -2.36595 -3.19793 0
M  V30 1871 H 178.997 -5.28566 -3.87683 0
M  V30 1872 H 178.517 -3.76667 -4.66779 0
M  V30 1873 H 180.196 -4.34812 -4.79111 0
M  V30 1874 N 180.328 1.1314 -1.09713 0
M  V30 1875 C 181.258 2.20748 -0.761102 0
M  V30 1876 C 182.239 1.68061 0.262566 0
M  V30 1877 O 183.424 1.93765 0.129977 0
M  V30 1878 C 180.554 3.46812 -0.184054 0
M  V30 1879 C 179.508 4.12606 -1.13757 0
M  V30 1880 C 178.834 5.33031 -0.422083 0
M  V30 1881 C 180.134 4.59603 -2.48118 0
M  V30 1882 H 181.828 2.49113 -1.66082 0
M  V30 1883 H 179.374 1.19734 -0.799987 0
M  V30 1884 H 181.327 4.21353 0.0631215 0
M  V30 1885 H 180.051 3.17851 0.750868 0
M  V30 1886 H 178.71 3.40036 -1.37007 0
M  V30 1887 H 178.358 5.00335 0.517072 0
M  V30 1888 H 178.058 5.77999 -1.05788 0
M  V30 1889 H 179.582 6.10325 -0.183277 0
M  V30 1890 H 180.996 5.25552 -2.29059 0
M  V30 1891 H 179.393 5.15321 -3.07514 0
M  V30 1892 H 180.463 3.73971 -3.08665 0
M  V30 1893 N 181.806 0.884767 1.30421 0
M  V30 1894 C 182.736 0.367574 2.30589 0
M  V30 1895 C 183.717 -0.549464 1.60981 0
M  V30 1896 O 184.902 -0.46336 1.88591 0
M  V30 1897 C 182.032 -0.418944 3.44764 0
M  V30 1898 C 180.986 0.406316 4.26067 0
M  V30 1899 C 180.312 -0.506793 5.32293 0
M  V30 1900 C 181.612 1.64832 4.95608 0
M  V30 1901 H 183.306 1.20462 2.74097 0
M  V30 1902 H 180.852 0.580695 1.31772 0
M  V30 1903 H 182.805 -0.791395 4.13902 0
M  V30 1904 H 181.529 -1.28964 3.0006 0
M  V30 1905 H 180.188 0.760903 3.58617 0
M  V30 1906 H 179.836 -1.37519 4.83836 0
M  V30 1907 H 179.536 0.0415828 5.87585 0
M  V30 1908 H 181.06 -0.875764 6.04287 0
M  V30 1909 H 182.474 1.34646 5.57264 0
M  V30 1910 H 180.871 2.13688 5.60765 0
M  V30 1911 H 181.941 2.39284 4.21748 0
M  V30 1912 N 183.284 -1.43765 0.645699 0
M  V30 1913 C 184.533 -2.01116 0.153412 0
M  V30 1914 C 184.846 -1.51493 -1.23731 0
M  V30 1915 O 186.052 -2.01067 -1.8244 0
M  V30 1916 C 184.508 -3.59206 0.223473 0
M  V30 1917 C 184.116 -4.17823 1.61642 0
M  V30 1918 C 185.86 -4.23972 -0.211597 0
M  V30 1919 C 183.767 -5.68183 1.64081 0
M  V30 1920 H 182.697 -0.752093 0.0535891 0
M  V30 1921 H 185.348 -1.6482 0.806633 0
M  V30 1922 H 183.73 -3.92867 -0.497118 0
M  V30 1923 H 184.904 -3.95674 2.36176 0
M  V30 1924 H 183.219 -3.65399 1.99681 0
M  V30 1925 H 185.816 -5.34275 -0.213112 0
M  V30 1926 H 186.159 -3.97352 -1.24165 0
M  V30 1927 H 186.692 -3.95166 0.456988 0
M  V30 1928 H 183.431 -5.99559 2.64971 0
M  V30 1929 H 182.951 -5.9241 0.938611 0
M  V30 1930 H 184.63 -6.32085 1.3812 0
M  V30 1931 N 184.763 -0.387143 -1.52771 0
M  V30 1932 C 186.011 0.195349 -2.01154 0
M  V30 1933 C 186.332 1.475 -1.27549 0
M  V30 1934 O 185.602 1.91878 -0.394924 0
M  V30 1935 H 184.182 0.075178 -0.743207 0
M  V30 1936 H 186.844 -0.518337 -1.87881 0
M  V30 1937 H 185.94 0.407096 -3.09434 0
M  V30 1938 N 186.241 1.57166 -0.116904 0
M  V30 1939 C 187.204 2.14039 0.819742 0
M  V30 1940 C 188.204 1.07477 1.19605 0
M  V30 1941 O 189.394 1.33263 1.1219 0
M  V30 1942 C 186.526 2.67891 2.10826 0
M  V30 1943 H 187.719 2.98128 0.325511 0
M  V30 1944 H 185.272 1.55739 0.132312 0
M  V30 1945 H 186.007 1.87384 2.64685 0
M  V30 1946 H 185.792 3.45823 1.84793 0
M  V30 1947 H 187.282 3.11809 2.77785 0
M  V30 1948 N 187.719 -0.156864 1.56817 0
M  V30 1949 C 188.967 -0.869404 1.82444 0
M  V30 1950 C 189.288 -1.82147 0.69623 0
M  V30 1951 O 188.558 -1.93847 -0.28287 0
M  V30 1952 H 187.138 -0.324043 0.673056 0
M  V30 1953 H 189.8 -0.153224 1.94297 0
M  V30 1954 H 188.896 -1.43761 2.77019 0
M  V30 1955 N 189.197 -1.51736 -0.425897 0
M  V30 1956 C 190.445 -1.64644 -1.17204 0
M  V30 1957 C 190.766 -0.370486 -1.91448 0
M  V30 1958 O 190.036 0.614088 -1.86026 0
M  V30 1959 H 188.616 -0.606819 -0.435638 0
M  V30 1960 H 191.278 -1.88713 -0.487177 0
M  V30 1961 H 190.374 -2.47958 -1.89534 0
M  V30 1962 N 190.675 0.682077 -1.42076 0
M  V30 1963 C 191.638 1.77756 -1.44691 0
M  V30 1964 C 192.638 1.5726 -0.335535 0
M  V30 1965 O 193.828 1.63686 -0.596037 0
M  V30 1966 C 190.96 3.16301 -1.27146 0
M  V30 1967 H 192.153 1.76826 -2.42224 0
M  V30 1968 H 189.706 0.891012 -1.28416 0
M  V30 1969 H 190.441 3.22862 -0.305075 0
M  V30 1970 H 190.226 3.32581 -2.07683 0
M  V30 1971 H 191.716 3.96241 -1.31843 0
M  V30 1972 N 192.153 1.28127 0.917671 0
M  V30 1973 C 193.378 1.18007 1.70555 0
M  V30 1974 C 193.803 -0.258257 1.86319 0
M  V30 1975 O 193.161 -1.1869 1.37049 0
M  V30 1976 C 193.209 1.87948 3.07746 0
M  V30 1977 O 192.313 1.18427 3.9503 0
M  V30 1978 H 191.654 0.409867 0.522403 0
M  V30 1979 H 194.184 1.69379 1.1477 0
M  V30 1980 H 194.194 1.95701 3.58001 0
M  V30 1981 H 192.869 2.92573 2.95591 0
M  V30 1982 H 191.446 1.18811 3.53466 0
M  V30 1983 N 193.631 -1.12557 1.10312 0
M  V30 1984 C 195.047 -1.36036 0.834649 0
M  V30 1985 C 195.247 -1.93946 -0.546539 0
M  V30 1986 O 194.303 -2.16484 -1.29966 0
M  V30 1987 C 195.616 -2.30312 1.9333 0
M  V30 1988 C 197.164 -2.43906 1.9616 0
M  V30 1989 C 197.639 -3.41496 3.05195 0
M  V30 1990 N 199.13 -3.49053 3.04494 0
M  V30 1991 C 199.865 -4.24471 3.85502 0
M  V30 1992 N 199.361 -5.02966 4.76442 0
M  V30 1993 N 201.154 -4.19864 3.73725 0
M  V30 1994 H 193.305 -0.733246 1.99342 0
M  V30 1995 H 195.568 -0.385234 0.866198 0
M  V30 1996 H 195.274 -1.94933 2.92735 0
M  V30 1997 H 195.148 -3.30421 1.81939 0
M  V30 1998 H 197.535 -2.78567 0.973886 0
M  V30 1999 H 197.616 -1.4369 2.11629 0
M  V30 2000 H 197.26 -3.07565 4.04186 0
M  V30 2001 H 197.19 -4.41539 2.86968 0
M  V30 2002 H 199.681 -2.93053 2.38596 0
M  V30 2003 H 199.994 -5.57846 5.34815 0
M  V30 2004 H 198.339 -5.02167 4.80472 0
M  V30 2005 H 201.53 -3.57623 3.02032 0
M  V30 2006 H 201.703 -4.78386 4.37093 0
M  V30 2007 N 195.109 -0.891671 -1.2995 0
M  V30 2008 C 196.357 -0.512486 -1.95494 0
M  V30 2009 C 196.678 0.942776 -1.70695 0
M  V30 2010 O 195.948 1.66374 -1.03424 0
M  V30 2011 H 194.528 -0.186533 -0.723336 0
M  V30 2012 H 197.19 -1.13621 -1.58355 0
M  V30 2013 H 196.286 -0.688342 -3.04415 0
M  V30 2014 N 196.587 1.43421 -0.653314 0
M  V30 2015 C 197.833 2.02111 -0.166992 0
M  V30 2016 C 198.166 1.51423 1.21592 0
M  V30 2017 O 197.441 0.707389 1.8118 0
M  V30 2018 C 197.724 3.5966 -0.177948 0
M  V30 2019 C 197.577 4.20579 -1.59478 0
M  V30 2020 C 198.896 4.37413 0.4856 0
M  V30 2021 H 196.015 0.734374 -0.0621557 0
M  V30 2022 H 198.657 1.70717 -0.834016 0
M  V30 2023 H 196.807 3.86537 0.390032 0
M  V30 2024 H 198.479 4.04732 -2.21336 0
M  V30 2025 H 196.722 3.77226 -2.14204 0
M  V30 2026 H 197.393 5.29665 -1.5543 0
M  V30 2027 H 199.869 4.161 0.00234528 0
M  V30 2028 H 198.745 5.47075 0.447207 0
M  V30 2029 H 199.006 4.13672 1.55974 0
M  V30 2030 N 198.065 0.39524 1.52563 0
M  V30 2031 C 198.995 -0.428384 2.29537 0
M  V30 2032 C 199.976 -1.05831 1.33169 0
M  V30 2033 O 201.161 -1.06995 1.62067 0
M  V30 2034 C 198.291 -1.55274 3.10656 0
M  V30 2035 C 197.245 -1.04855 4.14957 0
M  V30 2036 C 196.571 -2.26543 4.84337 0
M  V30 2037 C 197.871 -0.112324 5.22179 0
M  V30 2038 H 199.565 0.213867 2.98635 0
M  V30 2039 H 197.111 0.104298 1.43622 0
M  V30 2040 H 199.064 -2.1358 3.63265 0
M  V30 2041 H 197.788 -2.22266 2.39302 0
M  V30 2042 H 196.447 -0.487985 3.63338 0
M  V30 2043 H 196.095 -2.92059 4.09525 0
M  V30 2044 H 195.795 -1.93466 5.54837 0
M  V30 2045 H 197.319 -2.85481 5.39753 0
M  V30 2046 H 198.733 -0.603752 5.70112 0
M  V30 2047 H 197.13 0.128968 5.99961 0
M  V30 2048 H 198.2 0.837052 4.77621 0
M  V30 2049 N 199.544 -1.57102 0.125237 0
M  V30 2050 C 200.474 -2.18659 -0.819174 0
M  V30 2051 C 201.455 -1.12843 -1.27281 0
M  V30 2052 O 202.64 -1.41104 -1.33429 0
M  V30 2053 C 199.77 -2.79096 -2.06695 0
M  V30 2054 C 198.724 -3.90548 -1.75088 0
M  V30 2055 C 198.05 -4.37821 -3.06948 0
M  V30 2056 C 199.35 -5.12356 -1.01435 0
M  V30 2057 H 201.044 -2.9783 -0.306202 0
M  V30 2058 H 198.59 -1.4326 -0.145839 0
M  V30 2059 H 200.543 -3.2082 -2.73226 0
M  V30 2060 H 199.267 -1.97223 -2.60328 0
M  V30 2061 H 197.926 -3.49409 -1.10944 0
M  V30 2062 H 197.574 -3.52799 -3.58527 0
M  V30 2063 H 197.274 -5.12982 -2.86571 0
M  V30 2064 H 198.798 -4.822 -3.74587 0
M  V30 2065 H 200.212 -5.5106 -1.58132 0
M  V30 2066 H 198.609 -5.9314 -0.911319 0
M  V30 2067 H 199.679 -4.849 -0.00218681 0
M  V30 2068 N 201.022 0.148545 -1.56898 0
M  V30 2069 C 202.433 0.708766 -1.72723 0
M  V30 2070 C 202.784 1.81734 -0.739395 0
M  V30 2071 O 201.909 2.16194 0.0943169 0
M  V30 2072 C 202.504 1.29245 -3.13179 0
M  V30 2073 C 201.063 1.79925 -3.30611 0
M  V30 2074 C 200.21 0.687111 -2.68652 0
M  V30 2075 H 203.161 -0.0771063 -1.58513 0
M  V30 2076 H 203.182 2.16224 -3.13093 0
M  V30 2077 H 202.694 0.485382 -3.85053 0
M  V30 2078 H 200.795 2.63203 -2.63732 0
M  V30 2079 H 200.908 1.92903 -4.38549 0
M  V30 2080 H 199.272 1.11335 -2.29078 0
M  V30 2081 H 200.055 -0.108483 -3.43129 0
M  V30 2082 N 202.5 1.5196 0.417844 0
M  V30 2083 C 203.43 1.77634 1.51554 0
M  V30 2084 C 204.411 0.626918 1.58126 0
M  V30 2085 O 205.596 0.871632 1.7354 0
M  V30 2086 C 202.726 1.91911 2.8946 0
M  V30 2087 C 201.68 3.07463 2.97743 0
M  V30 2088 C 201.006 3.06951 4.37819 0
M  V30 2089 C 202.306 4.47082 2.70027 0
M  V30 2090 H 204 2.6955 1.3032 0
M  V30 2091 H 201.546 1.29706 0.625492 0
M  V30 2092 H 203.499 2.08455 3.6623 0
M  V30 2093 H 202.223 0.966598 3.11969 0
M  V30 2094 H 200.882 2.90656 2.23416 0
M  V30 2095 H 200.53 2.09438 4.57323 0
M  V30 2096 H 200.23 3.84556 4.44286 0
M  V30 2097 H 201.754 3.25613 5.16535 0
M  V30 2098 H 203.168 4.6414 3.36522 0
M  V30 2099 H 201.565 5.2654 2.87881 0
M  V30 2100 H 202.635 4.55777 1.65514 0
M  V30 2101 N 203.978 -0.674533 1.42435 0
M  V30 2102 C 204.908 -1.80009 1.48724 0
M  V30 2103 C 205.889 -1.6659 0.343793 0
M  V30 2104 O 207.074 -1.86007 0.558137 0
M  V30 2105 C 204.204 -3.18306 1.38919 0
M  V30 2106 C 203.158 -3.46461 2.51294 0
M  V30 2107 C 202.484 -4.84335 2.26547 0
M  V30 2108 C 203.784 -3.43328 3.93603 0
M  V30 2109 H 205.478 -1.75004 2.42928 0
M  V30 2110 H 203.024 -0.840533 1.16923 0
M  V30 2111 H 204.977 -3.9678 1.41927 0
M  V30 2112 H 203.701 -3.2399 0.412094 0
M  V30 2113 H 202.36 -2.70348 2.47604 0
M  V30 2114 H 202.008 -4.86669 1.2713 0
M  V30 2115 H 201.708 -5.04136 3.01861 0
M  V30 2116 H 203.232 -5.65094 2.31304 0
M  V30 2117 H 204.646 -4.11772 3.98894 0
M  V30 2118 H 203.043 -3.74664 4.68771 0
M  V30 2119 H 204.113 -2.41897 4.20255 0
M  V30 2120 N 205.456 -1.28612 -0.910864 0
M  V30 2121 C 206.681 -1.1891 -1.69927 0
M  V30 2122 C 207.106 0.248372 -1.86453 0
M  V30 2123 O 206.464 1.17961 -1.37676 0
M  V30 2124 C 206.512 -1.89578 -3.06745 0
M  V30 2125 O 205.616 -1.20521 -3.94396 0
M  V30 2126 H 204.957 -0.412632 -0.520222 0
M  V30 2127 H 207.487 -1.69985 -1.1387 0
M  V30 2128 H 207.497 -1.97597 -3.56958 0
M  V30 2129 H 206.172 -2.94136 -2.94035 0
M  V30 2130 H 204.749 -1.20684 -3.52831 0
M  V30 2131 N 206.934 1.1197 -1.10907 0
M  V30 2132 C 207.864 2.19928 -0.784473 0
M  V30 2133 C 208.845 1.6833 0.244726 0
M  V30 2134 O 210.03 1.93892 0.109418 0
M  V30 2135 C 207.16 3.46597 -0.220827 0
M  V30 2136 C 206.114 4.11376 -1.18127 0
M  V30 2137 C 205.44 5.32554 -0.478594 0
M  V30 2138 C 206.74 4.56945 -2.52979 0
M  V30 2139 H 208.434 2.47337 -1.68715 0
M  V30 2140 H 205.98 1.18879 -0.812642 0
M  V30 2141 H 207.933 4.21396 0.0184278 0
M  V30 2142 H 206.657 3.1863 0.717113 0
M  V30 2143 H 205.316 3.38564 -1.40606 0
M  V30 2144 H 204.964 5.00856 0.463976 0
M  V30 2145 H 204.664 5.76844 -1.11912 0
M  V30 2146 H 206.188 6.10096 -0.248 0
M  V30 2147 H 207.602 5.23093 -2.3462 0
M  V30 2148 H 205.999 5.1203 -3.12962 0
M  V30 2149 H 207.069 3.70676 -3.12614 0
M  V30 2150 N 208.412 0.89855 1.29475 0
M  V30 2151 C 209.689 0.443416 1.90508 0
M  V30 2152 C 210.069 -1.07685 1.81569 0
M  V30 2153 O 209.417 -1.9182 1.24166 0
M  V30 2154 C 209.627 0.956708 3.35631 0
M  V30 2155 C 210.975 0.999728 4.12663 0
M  V30 2156 O 211.999 0.904299 3.4453 0
M  V30 2157 O 210.858 1.14289 5.34416 0
M  V30 2158 H 207.952 0.138025 0.815401 0
M  V30 2159 H 210.498 0.98834 1.37949 0
M  V30 2160 H 209.27 2.00067 3.36287 0
M  V30 2161 H 208.893 0.391728 3.95666 0
M  V30 2162 N 209.89 -1.43072 0.660911 0
M  V30 2163 C 211.13 -2.03596 0.181146 0
M  V30 2164 C 211.494 -1.51057 -1.18515 0
M  V30 2165 O 212.695 -2.03275 -1.75877 0
M  V30 2166 C 210.966 -3.56845 0.19911 0
M  V30 2167 S 212.525 -4.38289 -0.211684 0
M  V30 2168 H 209.343 -0.706954 0.0757479 0
M  V30 2169 H 211.945 -1.75027 0.870965 0
M  V30 2170 H 210.649 -3.92583 1.1961 0
M  V30 2171 H 210.18 -3.90067 -0.510996 0
M  V30 2172 H 212.195 -4.74583 -1.44863 0
M  V30 2173 N 211.368 -0.403325 -1.52352 0
M  V30 2174 C 212.331 0.413051 -2.25447 0
M  V30 2175 C 213.331 0.978513 -1.276 0
M  V30 2176 O 214.521 0.858305 -1.51587 0
M  V30 2177 C 211.653 1.58087 -3.02029 0
M  V30 2178 H 212.846 -0.227094 -2.99039 0
M  V30 2179 H 210.399 -0.155722 -1.55522 0
M  V30 2180 H 211.134 2.25804 -2.32772 0
M  V30 2181 H 210.919 1.18195 -3.73861 0
M  V30 2182 H 212.409 2.1585 -3.57489 0
M  V30 2183 N 212.846 1.57033 -0.133567 0
M  V30 2184 C 214.092 1.95976 0.521649 0
M  V30 2185 C 214.425 1.01779 1.65393 0
M  V30 2186 O 213.7 0.0576581 1.94415 0
M  V30 2187 C 213.983 3.44738 1.04057 0
M  V30 2188 C 213.836 4.49711 -0.0892897 0
M  V30 2189 C 215.155 3.95682 1.92675 0
M  V30 2190 H 212.274 0.712579 0.188149 0
M  V30 2191 H 214.916 1.88813 -0.212076 0
M  V30 2192 H 213.066 3.50973 1.66583 0
M  V30 2193 H 214.738 4.55565 -0.725152 0
M  V30 2194 H 212.981 4.27261 -0.750378 0
M  V30 2195 H 213.652 5.51099 0.315284 0
M  V30 2196 H 216.128 3.91841 1.39998 0
M  V30 2197 H 215.004 5.00262 2.25897 0
M  V30 2198 H 215.265 3.37239 2.85872 0
M  V30 2199 N 214.325 -0.140222 1.56975 0
M  V30 2200 C 215.553 -0.866437 1.87884 0
M  V30 2201 C 215.968 -1.74428 0.722517 0
M  V30 2202 O 215.325 -1.79891 -0.30749 0
M  V30 2203 C 215.376 -1.71753 3.18093 0
M  V30 2204 O 215.097 -0.875056 4.29272 0
M  V30 2205 C 216.598 -2.55074 3.62563 0
M  V30 2206 H 213.818 -0.25019 0.622612 0
M  V30 2207 H 216.362 -0.130977 2.0408 0
M  V30 2208 H 214.517 -2.40598 3.03631 0
M  V30 2209 H 214.931 -1.46002 5.03769 0
M  V30 2210 H 216.405 -3.10356 4.5649 0
M  V30 2211 H 216.882 -3.31434 2.88181 0
M  V30 2212 H 217.488 -1.91509 3.79743 0
M  V30 2213 N 215.803 -1.52179 -0.40978 0
M  V30 2214 C 217.052 -1.65434 -1.15388 0
M  V30 2215 C 217.365 -0.390056 -1.91671 0
M  V30 2216 O 218.571 -0.402399 -2.68501 0
M  V30 2217 C 217.027 -2.92279 -2.10003 0
M  V30 2218 C 216.635 -4.25813 -1.39239 0
M  V30 2219 C 218.379 -3.14897 -2.84675 0
M  V30 2220 C 216.286 -5.43782 -2.32498 0
M  V30 2221 H 215.216 -0.616267 -0.434432 0
M  V30 2222 H 217.867 -1.78666 -0.418401 0
M  V30 2223 H 216.249 -2.72744 -2.871 0
M  V30 2224 H 217.423 -4.55828 -0.675099 0
M  V30 2225 H 215.738 -4.09292 -0.766097 0
M  V30 2226 H 218.335 -4.0021 -3.54593 0
M  V30 2227 H 218.678 -2.29103 -3.47588 0
M  V30 2228 H 219.211 -3.34901 -2.14677 0
M  V30 2229 H 215.95 -6.3192 -1.74233 0
M  V30 2230 H 215.47 -5.18106 -3.02201 0
M  V30 2231 H 217.149 -5.76834 -2.93038 0
M  V30 2232 N 217.281 0.66697 -1.42791 0
M  V30 2233 C 218.509 1.45505 -1.47091 0
M  V30 2234 C 218.924 1.8861 -0.0845873 0
M  V30 2235 O 218.281 1.58632 0.90234 0
M  V30 2236 C 218.332 2.69906 -2.40485 0
M  V30 2237 O 218.053 2.28608 -3.73725 0
M  V30 2238 C 219.554 3.63396 -2.53886 0
M  V30 2239 H 216.774 0.447459 -0.500022 0
M  V30 2240 H 219.318 0.818866 -1.8739 0
M  V30 2241 H 217.473 3.29696 -2.03419 0
M  V30 2242 H 217.887 3.08997 -4.23817 0
M  V30 2243 H 219.361 4.47387 -3.2334 0
M  V30 2244 H 219.838 4.09824 -1.57927 0
M  V30 2245 H 220.444 3.09495 -2.91706 0
M  V30 2246 N 218.759 1.29093 0.90403 0
M  V30 2247 C 219.707 1.13727 2.02901 0
M  V30 2248 C 220.701 0.0539853 1.69314 0
M  V30 2249 O 221.907 0.213469 1.7873 0
M  V30 2250 H 218.282 0.35117 0.664969 0
M  V30 2251 H 220.253 2.08982 2.13001 0
M  V30 2252 C 219.002 0.826066 3.37745 0
M  V30 2253 H 218.325 1.65164 3.64089 0
M  V30 2254 H 219.765 0.758559 4.17159 0
M  V30 2255 C 218.224 -0.470541 3.33598 0
M  V30 2256 O 218.754 -1.49792 3.72727 0
M  V30 2257 N 216.96 -0.474812 2.86695 0
M  V30 2258 H 216.507 0.361692 2.55048 0
M  V30 2259 H 216.465 -1.34236 2.84303 0
M  V30 2260 N 220.237 -1.11381 1.11499 0
M  V30 2261 C 221.653 -1.35143 0.849031 0
M  V30 2262 C 221.853 -1.94515 -0.525938 0
M  V30 2263 O 220.909 -2.1785 -1.27662 0
M  V30 2264 C 222.222 -2.28249 1.95762 0
M  V30 2265 C 223.77 -2.41812 1.98736 0
M  V30 2266 C 224.245 -3.3824 3.088 0
M  V30 2267 N 225.736 -3.45803 3.08179 0
M  V30 2268 C 226.471 -4.20358 3.89982 0
M  V30 2269 N 225.967 -4.97884 4.8175 0
M  V30 2270 N 227.76 -4.15877 3.78157 0
M  V30 2271 H 219.911 -0.712062 2.00109 0
M  V30 2272 H 222.174 -0.376025 0.870235 0
M  V30 2273 H 221.88 -1.91817 2.94787 0
M  V30 2274 H 221.754 -3.28473 1.85433 0
M  V30 2275 H 224.141 -2.77518 1.00338 0
M  V30 2276 H 224.222 -1.41437 2.13141 0
M  V30 2277 H 223.866 -3.03261 4.07425 0
M  V30 2278 H 223.796 -4.38471 2.91635 0
M  V30 2279 H 226.287 -2.90506 2.41691 0
M  V30 2280 H 226.6 -5.52142 5.40702 0
M  V30 2281 H 224.945 -4.97043 4.85771 0
M  V30 2282 H 228.136 -3.544 3.05808 0
M  V30 2283 H 228.309 -4.73723 4.42143 0
M  V30 2284 N 221.715 -0.905404 -1.28997 0
M  V30 2285 C 222.943 -0.549846 -1.9946 0
M  V30 2286 C 223.358 0.866834 -1.67724 0
M  V30 2287 O 222.715 1.57298 -0.925404 0
M  V30 2288 C 222.766 -0.739387 -3.53858 0
M  V30 2289 O 222.487 -2.10031 -3.84472 0
M  V30 2290 C 223.988 -0.389541 -4.41585 0
M  V30 2291 H 221.208 -0.210429 -0.637151 0
M  V30 2292 H 223.752 -1.21632 -1.64396 0
M  V30 2293 H 221.907 -0.120023 -3.87214 0
M  V30 2294 H 222.321 -2.13385 -4.79132 0
M  V30 2295 H 223.795 -0.572972 -5.49018 0
M  V30 2296 H 224.272 0.673756 -4.34001 0
M  V30 2297 H 224.878 -0.986089 -4.1371 0
M  V30 2298 N 223.193 1.4272 -0.668489 0
M  V30 2299 C 224.439 2.01923 -0.188419 0
M  V30 2300 C 224.772 1.52704 1.19979 0
M  V30 2301 O 224.047 0.726566 1.8042 0
M  V30 2302 C 224.33 3.59451 -0.216085 0
M  V30 2303 C 224.183 4.18864 -1.6393 0
M  V30 2304 C 225.502 4.37903 0.439179 0
M  V30 2305 H 222.621 0.733674 -0.0699412 0
M  V30 2306 H 225.263 1.69822 -0.852076 0
M  V30 2307 H 223.413 3.86929 0.349012 0
M  V30 2308 H 225.085 4.02362 -2.25616 0
M  V30 2309 H 223.328 3.74933 -2.18193 0
M  V30 2310 H 223.999 5.27987 -1.61039 0
M  V30 2311 H 226.475 4.16079 -0.0417878 0
M  V30 2312 H 225.351 5.47519 0.389157 0
M  V30 2313 H 225.612 4.15303 1.51577 0
M  V30 2314 N 224.671 0.411399 1.52136 0
M  V30 2315 C 225.896 -0.165538 2.06738 0
M  V30 2316 C 226.321 -1.379 1.27926 0
M  V30 2317 O 225.679 -1.78628 0.310114 0
M  V30 2318 C 225.727 -0.492124 3.57226 0
M  V30 2319 O 224.831 -1.58276 3.80818 0
M  V30 2320 H 224.172 -0.0132132 0.663869 0
M  V30 2321 H 226.702 0.585253 1.96051 0
M  V30 2322 H 226.712 -0.750104 4.01045 0
M  V30 2323 H 225.387 0.394922 4.14021 0
M  V30 2324 H 223.964 -1.31677 3.48877 0
M  V30 2325 N 226.149 -1.5696 0.141893 0
M  V30 2326 C 227.565 -1.58151 -0.21456 0
M  V30 2327 C 227.765 -1.1559 -1.65049 0
M  V30 2328 O 226.821 -0.853832 -2.37626 0
M  V30 2329 C 228.134 -3.00674 0.0395576 0
M  V30 2330 C 229.682 -3.1299 -0.0245529 0
M  V30 2331 C 230.157 -4.57554 0.202167 0
M  V30 2332 N 231.648 -4.62961 0.148919 0
M  V30 2333 C 232.383 -5.7262 0.298924 0
M  V30 2334 N 231.879 -6.90947 0.50637 0
M  V30 2335 N 233.672 -5.61601 0.236886 0
M  V30 2336 H 225.823 -1.8292 1.07953 0
M  V30 2337 H 228.086 -0.846425 0.42693 0
M  V30 2338 H 227.792 -3.36183 1.03315 0
M  V30 2339 H 227.666 -3.70981 -0.682143 0
M  V30 2340 H 230.053 -2.77326 -1.00869 0
M  V30 2341 H 230.134 -2.4518 0.729396 0
M  V30 2342 H 229.778 -4.93922 1.18338 0
M  V30 2343 H 229.708 -5.23484 -0.572044 0
M  V30 2344 H 232.199 -3.77899 -0.00697015 0
M  V30 2345 H 232.512 -7.7038 0.611076 0
M  V30 2346 H 230.857 -6.92878 0.542628 0
M  V30 2347 H 234.048 -4.68039 0.0756209 0
M  V30 2348 H 234.221 -6.47015 0.357227 0
M  V30 2349 N 227.627 0.131896 -1.57047 0
M  V30 2350 C 228.59 1.14638 -1.98471 0
M  V30 2351 C 229.59 1.35029 -0.873148 0
M  V30 2352 O 230.78 1.31764 -1.13946 0
M  V30 2353 C 227.912 2.50358 -2.31373 0
M  V30 2354 H 229.105 0.79064 -2.8929 0
M  V30 2355 H 226.658 0.375761 -1.51716 0
M  V30 2356 H 227.393 2.90876 -1.43393 0
M  V30 2357 H 227.178 2.36915 -3.12432 0
M  V30 2358 H 228.668 3.23395 -2.64207 0
M  V30 2359 N 229.106 1.52395 0.401703 0
M  V30 2360 C 230.016 1.7917 1.51444 0
M  V30 2361 C 231.032 0.677691 1.6026 0
M  V30 2362 O 232.208 0.963909 1.76835 0
M  V30 2363 C 229.273 1.94347 2.87107 0
M  V30 2364 C 228.334 3.18257 2.88116 0
M  V30 2365 C 227.567 3.32701 4.17308 0
M  V30 2366 O 227.79 2.52238 5.11598 0
M  V30 2367 O 226.724 4.25891 4.25324 0
M  V30 2368 H 230.55 2.73633 1.31752 0
M  V30 2369 H 228.135 1.3733 0.588296 0
M  V30 2370 H 230.017 2.06109 3.67555 0
M  V30 2371 H 228.692 1.03073 3.06851 0
M  V30 2372 H 227.599 3.11947 2.06494 0
M  V30 2373 H 228.932 4.09336 2.73322 0
M  V30 2374 N 230.584 -0.659388 1.43143 0
M  V30 2375 C 231.494 -1.80167 1.50256 0
M  V30 2376 C 232.51 -1.69571 0.390106 0
M  V30 2377 O 233.686 -1.90849 0.643319 0
M  V30 2378 C 230.751 -3.16409 1.41725 0
M  V30 2379 C 229.812 -3.38848 2.63591 0
M  V30 2380 C 229.045 -4.68591 2.55458 0
M  V30 2381 O 229.268 -5.47532 1.59891 0
M  V30 2382 O 228.202 -4.92614 3.45854 0
M  V30 2383 H 232.028 -1.77121 2.46702 0
M  V30 2384 H 229.613 -0.817092 1.25076 0
M  V30 2385 H 231.495 -3.9768 1.39387 0
M  V30 2386 H 230.17 -3.20059 0.484118 0
M  V30 2387 H 229.077 -2.57366 2.71502 0
M  V30 2388 H 230.41 -3.4004 3.55856 0
M  V30 2389 N 232.062 -1.29571 -0.897171 0
M  V30 2390 C 232.992 -1.17473 -2.01798 0
M  V30 2391 C 233.973 -0.068323 -1.69963 0
M  V30 2392 O 235.158 -0.248239 -1.92607 0
M  V30 2393 C 232.288 -0.853099 -3.36659 0
M  V30 2394 C 231.242 -1.9161 -3.82713 0
M  V30 2395 C 230.568 -1.44773 -5.14728 0
M  V30 2396 C 231.868 -3.32535 -4.02763 0
M  V30 2397 H 233.562 -2.11237 -2.12177 0
M  V30 2398 H 231.108 -1.01699 -1.01948 0
M  V30 2399 H 233.061 -0.755165 -4.14578 0
M  V30 2400 H 231.785 0.120236 -3.26379 0
M  V30 2401 H 230.444 -2.00346 -3.07013 0
M  V30 2402 H 230.092 -0.462995 -5.00865 0
M  V30 2403 H 229.792 -2.15865 -5.46513 0
M  V30 2404 H 231.316 -1.36334 -5.95185 0
M  V30 2405 H 232.73 -3.26626 -4.71156 0
M  V30 2406 H 231.127 -4.01607 -4.45905 0
M  V30 2407 H 232.197 -3.75326 -3.07016 0
M  V30 2408 N 233.54 1.10788 -1.12088 0
M  V30 2409 C 234.503 2.15207 -0.788577 0
M  V30 2410 C 235.503 1.59609 0.195317 0
M  V30 2411 O 236.693 1.74174 -0.0300193 0
M  V30 2412 C 233.825 3.4047 -0.171174 0
M  V30 2413 H 235.018 2.46116 -1.71368 0
M  V30 2414 H 232.571 1.26089 -0.923652 0
M  V30 2415 H 233.306 3.15176 0.763832 0
M  V30 2416 H 233.091 3.82109 -0.879514 0
M  V30 2417 H 234.581 4.17576 0.04496 0
M  V30 2418 N 235.018 0.912232 1.28515 0
M  V30 2419 C 235.965 0.397954 2.27343 0
M  V30 2420 C 236.935 -0.526766 1.57526 0
M  V30 2421 O 238.12 -0.449292 1.85435 0
M  V30 2422 C 235.26 -0.357263 3.43246 0
M  V30 2423 C 234.373 0.599788 4.27816 0
M  V30 2424 C 233.508 -0.173725 5.30916 0
M  V30 2425 C 232.547 0.777039 6.07148 0
M  V30 2426 N 231.684 0.0371398 7.0209 0
M  V30 2427 H 236.524 1.24577 2.70711 0
M  V30 2428 H 234.061 0.625612 1.33133 0
M  V30 2429 H 236.019 -0.8113 4.09236 0
M  V30 2430 H 234.649 -1.16943 3.00872 0
M  V30 2431 H 233.701 1.17235 3.61884 0
M  V30 2432 H 235.013 1.32704 4.80823 0
M  V30 2433 H 234.167 -0.688394 6.02782 0
M  V30 2434 H 232.906 -0.934041 4.78672 0
M  V30 2435 H 231.911 1.3031 5.34134 0
M  V30 2436 H 233.136 1.53689 6.61481 0
M  V30 2437 H 231.082 -0.705213 6.52198 0
M  V30 2438 H 230.999 0.704249 7.52713 0
M  V30 2439 H 232.267 -0.457383 7.78157 0
M  V30 2440 N 236.496 -1.42363 0.676048 0
M  V30 2441 C 237.426 -2.33497 0.0124832 0
M  V30 2442 C 238.407 -1.50748 -0.787981 0
M  V30 2443 O 239.592 -1.79346 -0.744884 0
M  V30 2444 C 236.722 -3.34377 -0.938582 0
M  V30 2445 C 235.676 -4.27289 -0.246622 0
M  V30 2446 C 235.002 -5.18386 -1.31071 0
M  V30 2447 C 236.302 -5.14916 0.875125 0
M  V30 2448 H 237.996 -2.89233 0.773593 0
M  V30 2449 H 235.542 -1.39073 0.37346 0
M  V30 2450 H 237.495 -3.97044 -1.41188 0
M  V30 2451 H 236.219 -2.76947 -1.73113 0
M  V30 2452 H 234.878 -3.66018 0.206456 0
M  V30 2453 H 234.526 -4.57282 -2.09528 0
M  V30 2454 H 234.226 -5.81378 -0.852839 0
M  V30 2455 H 235.75 -5.83929 -1.78492 0
M  V30 2456 H 237.164 -5.71262 0.482983 0
M  V30 2457 H 235.561 -5.86747 1.25887 0
M  V30 2458 H 236.631 -4.53242 1.72335 0
M  V30 2459 N 237.974 -0.419461 -1.51915 0
M  V30 2460 C 239.221 0.152939 -2.01922 0
M  V30 2461 C 239.549 1.4426 -1.30458 0
M  V30 2462 O 238.804 1.91514 -0.402593 0
M  V30 2463 C 239.103 0.437067 -3.54717 0
M  V30 2464 C 238.769 -0.764632 -4.44369 0
M  V30 2465 C 237.431 -1.09423 -4.68594 0
M  V30 2466 C 239.783 -1.56713 -4.97082 0
M  V30 2467 C 237.111 -2.22732 -5.42777 0
M  V30 2468 C 239.463 -2.69107 -5.72507 0
M  V30 2469 C 238.127 -3.02541 -5.95 0
M  V30 2470 H 237.397 0.0559644 -0.738884 0
M  V30 2471 H 240.044 -0.562998 -1.83037 0
M  V30 2472 H 238.349 1.23469 -3.71837 0
M  V30 2473 H 240.046 0.893083 -3.90928 0
M  V30 2474 H 236.636 -0.497775 -4.257 0
M  V30 2475 H 240.82 -1.32571 -4.78266 0
M  V30 2476 H 236.076 -2.48971 -5.58411 0
M  V30 2477 H 240.25 -3.31671 -6.12346 0
M  V30 2478 H 237.877 -3.90457 -6.52264 0
M  V30 2479 N 239.452 1.56882 -0.150215 0
M  V30 2480 C 240.415 2.1573 0.774157 0
M  V30 2481 C 241.415 1.0999 1.17298 0
M  V30 2482 O 242.605 1.35613 1.09338 0
M  V30 2483 C 239.737 2.72302 2.05096 0
M  V30 2484 H 240.93 2.98752 0.262201 0
M  V30 2485 H 238.483 1.55985 0.099248 0
M  V30 2486 H 239.218 1.92956 2.6065 0
M  V30 2487 H 239.003 3.49665 1.77416 0
M  V30 2488 H 240.493 3.17632 2.71109 0
M  V30 2489 N 240.93 -0.123565 1.57115 0
M  V30 2490 C 241.88 -1.1575 1.96433 0
M  V30 2491 C 242.864 -1.37313 0.838686 0
M  V30 2492 O 244.056 -1.38482 1.10235 0
M  V30 2493 C 241.185 -2.48526 2.36833 0
M  V30 2494 C 240.271 -2.30457 3.5602 0
M  V30 2495 N 240.662 -1.8219 4.71848 0
M  V30 2496 C 238.96 -2.61129 3.61563 0
M  V30 2497 C 239.661 -1.77721 5.53886 0
M  V30 2498 N 238.637 -2.21899 4.96248 0
M  V30 2499 H 242.439 -0.776797 2.83449 0
M  V30 2500 H 239.953 -0.331364 1.58983 0
M  V30 2501 H 241.95 -3.233 2.63216 0
M  V30 2502 H 240.61 -2.87358 1.5118 0
M  V30 2503 H 241.621 -1.51805 4.95152 0
M  V30 2504 H 238.298 -3.03678 2.86507 0
M  V30 2505 H 239.688 -1.41697 6.56789 0
M  V30 2506 N 242.408 -1.52605 -0.393616 0
M  V30 2507 C 243.636 -1.71294 -1.16043 0
M  V30 2508 C 244.051 -0.429259 -1.83855 0
M  V30 2509 O 243.408 0.595921 -1.72496 0
M  V30 2510 C 243.459 -2.8593 -2.21193 0
M  V30 2511 O 243.18 -4.09329 -1.56146 0
M  V30 2512 C 244.681 -3.16259 -3.10636 0
M  V30 2513 H 241.901 -0.573641 -0.348104 0
M  V30 2514 H 244.445 -1.99234 -0.461092 0
M  V30 2515 H 242.6 -2.60465 -2.86769 0
M  V30 2516 H 243.014 -4.73323 -2.25978 0
M  V30 2517 H 244.488 -3.99946 -3.80456 0
M  V30 2518 H 244.965 -2.3045 -3.73884 0
M  V30 2519 H 245.571 -3.43547 -2.50711 0
M  V30 2520 N 243.887 0.651787 -1.4349 0
M  V30 2521 C 245.135 1.40888 -1.44897 0
M  V30 2522 C 245.456 1.94856 -0.0749086 0
M  V30 2523 O 244.726 1.74518 0.889956 0
M  V30 2524 H 243.306 0.522887 -0.533478 0
M  V30 2525 H 245.968 0.768609 -1.79104 0
M  V30 2526 H 245.064 2.25052 -2.16236 0
M  V30 2527 N 245.365 1.30045 0.890287 0
M  V30 2528 C 246.59 1.21598 1.68014 0
M  V30 2529 C 247.015 -0.218678 1.86825 0
M  V30 2530 O 246.373 -1.15756 1.39536 0
M  V30 2531 C 246.421 1.94434 3.03691 0
M  V30 2532 O 245.525 1.2678 3.92429 0
M  V30 2533 H 244.866 0.420856 0.513592 0
M  V30 2534 H 247.396 1.71775 1.11151 0
M  V30 2535 H 247.406 2.03251 3.5377 0
M  V30 2536 H 246.081 2.98777 2.89318 0
M  V30 2537 H 244.658 1.26282 3.50866 0
M  V30 2538 N 246.843 -1.10192 1.12674 0
M  V30 2539 C 248.092 -1.81573 0.8783 0
M  V30 2540 C 248.405 -1.86249 -0.597557 0
M  V30 2541 O 249.611 -2.5386 -0.962681 0
M  V30 2542 C 248.067 -3.26149 1.52167 0
M  V30 2543 C 247.675 -3.29763 3.03249 0
M  V30 2544 C 249.419 -4.0234 1.3536 0
M  V30 2545 C 247.326 -4.68815 3.60508 0
M  V30 2546 H 246.256 -0.680394 0.324931 0
M  V30 2547 H 248.907 -1.23902 1.35353 0
M  V30 2548 H 247.289 -3.83832 0.974104 0
M  V30 2549 H 248.463 -2.8189 3.6452 0
M  V30 2550 H 246.778 -2.67059 3.19481 0
M  V30 2551 H 249.375 -5.05058 1.75559 0
M  V30 2552 H 249.718 -4.15235 0.297554 0
M  V30 2553 H 250.251 -3.51079 1.87052 0
M  V30 2554 H 246.99 -4.61121 4.65884 0
M  V30 2555 H 246.51 -5.17045 3.04014 0
M  V30 2556 H 248.189 -5.37785 3.59717 0
M  V30 2557 N 248.321 -0.919034 -1.28029 0
M  V30 2558 C 249.253 -0.368762 -2.26214 0
M  V30 2559 C 250.266 0.495716 -1.55069 0
M  V30 2560 O 251.455 0.30974 -1.75792 0
M  V30 2561 C 248.555 0.491049 -3.35324 0
M  V30 2562 C 247.728 -0.352133 -4.3598 0
M  V30 2563 C 246.787 0.443622 -5.24327 0
M  V30 2564 O 245.813 -0.14566 -5.69014 0
M  V30 2565 N 247.015 1.74545 -5.53637 0
M  V30 2566 H 249.78 -1.21273 -2.74068 0
M  V30 2567 H 247.341 -0.785541 -1.41566 0
M  V30 2568 H 249.333 1.03026 -3.91366 0
M  V30 2569 H 247.903 1.23574 -2.87138 0
M  V30 2570 H 247.123 -1.07269 -3.79324 0
M  V30 2571 H 248.411 -0.928883 -5.00249 0
M  V30 2572 H 247.809 2.24666 -5.19174 0
M  V30 2573 H 246.366 2.23138 -6.12416 0
M  V30 2574 N 249.799 1.42003 -0.683588 0
M  V30 2575 C 250.762 2.29191 -0.0198243 0
M  V30 2576 C 251.762 1.43773 0.72013 0
M  V30 2577 O 252.952 1.65061 0.556815 0
M  V30 2578 C 250.084 3.26435 0.982487 0
M  V30 2579 H 251.277 2.8938 -0.787345 0
M  V30 2580 H 248.83 1.49789 -0.446418 0
M  V30 2581 H 249.565 2.71203 1.77819 0
M  V30 2582 H 249.35 3.89449 0.455182 0
M  V30 2583 H 250.84 3.918 1.44508 0
M  V30 2584 N 251.277 0.427512 1.51691 0
M  V30 2585 C 252.207 -0.3796 2.30394 0
M  V30 2586 C 253.188 -1.02982 1.35384 0
M  V30 2587 O 254.373 -1.03534 1.643 0
M  V30 2588 C 251.503 -1.48649 3.1388 0
M  V30 2589 C 250.457 -0.960294 4.17088 0
M  V30 2590 C 249.783 -2.16219 4.89033 0
M  V30 2591 C 251.083 -0.00153679 5.223 0
M  V30 2592 H 252.777 0.277164 2.98114 0
M  V30 2593 H 250.323 0.134739 1.43368 0
M  V30 2594 H 252.276 -2.05826 3.67714 0
M  V30 2595 H 251 -2.1714 2.43962 0
M  V30 2596 H 249.659 -0.410806 3.64291 0
M  V30 2597 H 249.307 -2.83307 4.15628 0
M  V30 2598 H 249.007 -1.81654 5.58816 0
M  V30 2599 H 250.531 -2.73968 5.45687 0
M  V30 2600 H 251.945 -0.482687 5.71264 0
M  V30 2601 H 250.342 0.256199 5.99553 0
M  V30 2602 H 251.412 0.938174 4.75738 0
M  V30 2603 N 252.755 -1.56801 0.158532 0
M  V30 2604 C 253.98 -2.01295 -0.499516 0
M  V30 2605 C 254.405 -1.03799 -1.56867 0
M  V30 2606 O 253.763 -0.0155162 -1.81293 0
M  V30 2607 C 253.811 -3.44469 -1.06647 0
M  V30 2608 O 252.915 -3.50012 -2.18095 0
M  V30 2609 H 252.256 -0.652884 -0.12099 0
M  V30 2610 H 254.786 -2.02958 0.258661 0
M  V30 2611 H 254.796 -3.8351 -1.39227 0
M  V30 2612 H 253.471 -4.14932 -0.283581 0
M  V30 2613 H 252.048 -3.22822 -1.86656 0
M  V30 2614 N 254.233 0.115231 -1.57178 0
M  V30 2615 C 255.166 1.17166 -1.95825 0
M  V30 2616 C 256.144 1.39912 -0.828463 0
M  V30 2617 O 257.328 1.54004 -1.08697 0
M  V30 2618 C 254.455 2.52478 -2.25771 0
M  V30 2619 C 253.501 2.46136 -3.48309 0
M  V30 2620 S 254.334 1.89736 -5.0076 0
M  V30 2621 C 255.49 3.26713 -5.33863 0
M  V30 2622 H 255.723 0.842103 -2.85124 0
M  V30 2623 H 253.256 0.322136 -1.51002 0
M  V30 2624 H 255.214 3.30332 -2.43702 0
M  V30 2625 H 253.875 2.82609 -1.37079 0
M  V30 2626 H 253.068 3.45819 -3.66641 0
M  V30 2627 H 252.67 1.76404 -3.29784 0
M  V30 2628 H 254.962 4.22935 -5.29275 0
M  V30 2629 H 255.905 3.13205 -6.35065 0
M  V30 2630 H 256.313 3.25316 -4.61335 0
M  V30 2631 N 255.711 1.52812 0.385517 0
M  V30 2632 C 256.988 1.5861 1.14465 0
M  V30 2633 C 257.368 0.381402 2.07626 0
M  V30 2634 O 256.716 -0.629999 2.19643 0
M  V30 2635 C 256.926 2.92664 1.90128 0
M  V30 2636 C 258.274 3.46526 2.45367 0
M  V30 2637 O 259.298 2.94562 2.0028 0
M  V30 2638 O 258.157 4.37323 3.27736 0
M  V30 2639 H 255.251 0.639855 0.523941 0
M  V30 2640 H 257.797 1.65149 0.390389 0
M  V30 2641 H 256.569 3.71788 1.22022 0
M  V30 2642 H 256.192 2.89527 2.72507 0
M  V30 2643 N 257.189 -0.644168 1.43834 0
M  V30 2644 C 258.099 -1.78563 1.52159 0
M  V30 2645 C 259.115 -1.69147 0.408069 0
M  V30 2646 O 260.291 -1.90156 0.663524 0
M  V30 2647 C 257.356 -3.14888 1.45073 0
M  V30 2648 C 256.417 -3.36034 2.6717 0
M  V30 2649 C 255.65 -4.65855 2.60413 0
M  V30 2650 O 255.873 -5.45805 1.65689 0
M  V30 2651 O 254.807 -4.88918 3.5106 0
M  V30 2652 H 258.633 -1.74494 2.48567 0
M  V30 2653 H 256.218 -0.80378 1.25935 0
M  V30 2654 H 258.1 -3.96179 1.43597 0
M  V30 2655 H 256.775 -3.19528 0.518037 0
M  V30 2656 H 255.682 -2.54472 2.74217 0
M  V30 2657 H 257.015 -3.36247 3.59442 0
M  V30 2658 N 258.668 -1.30515 -0.883378 0
M  V30 2659 C 259.598 -1.19607 -2.00541 0
M  V30 2660 C 260.579 -0.086346 -1.69881 0
M  V30 2661 O 261.764 -0.268654 -1.92333 0
M  V30 2662 C 258.894 -0.888758 -3.35736 0
M  V30 2663 C 257.848 -1.95659 -3.8066 0
M  V30 2664 C 257.174 -1.50224 -5.13164 0
M  V30 2665 C 258.474 -3.36788 -3.99213 0
M  V30 2666 H 260.168 -2.13476 -2.09925 0
M  V30 2667 H 257.714 -1.02775 -1.00863 0
M  V30 2668 H 259.667 -0.799094 -4.13754 0
M  V30 2669 H 258.391 0.0856125 -3.26488 0
M  V30 2670 H 257.05 -2.03591 -3.04871 0
M  V30 2671 H 256.698 -0.516092 -5.00345 0
M  V30 2672 H 256.398 -2.2165 -5.44192 0
M  V30 2673 H 257.922 -1.42639 -5.93706 0
M  V30 2674 H 259.336 -3.31605 -4.67665 0
M  V30 2675 H 257.733 -4.06314 -4.41621 0
M  V30 2676 H 258.803 -3.78561 -3.03017 0
M  V30 2677 N 260.146 1.09593 -1.13257 0
M  V30 2678 C 261.056 2.19739 -0.821691 0
M  V30 2679 C 262.072 1.72926 0.19302 0
M  V30 2680 O 263.248 2.01385 0.0244895 0
M  V30 2681 C 260.313 3.45482 -0.290333 0
M  V30 2682 C 259.374 4.06985 -1.36607 0
M  V30 2683 C 258.607 5.26726 -0.859975 0
M  V30 2684 O 258.83 5.69594 0.303082 0
M  V30 2685 O 257.764 5.7931 -1.63351 0
M  V30 2686 H 261.59 2.48781 -1.74189 0
M  V30 2687 H 259.175 1.18496 -0.909894 0
M  V30 2688 H 261.057 4.214 0.000674022 0
M  V30 2689 H 259.732 3.18047 0.602306 0
M  V30 2690 H 258.639 3.32712 -1.71037 0
M  V30 2691 H 259.972 4.38643 -2.23279 0
M  V30 2692 N 261.624 0.925811 1.2754 0
M  V30 2693 C 262.872 0.564138 1.94067 0
M  V30 2694 C 263.193 -0.897188 1.73134 0
M  V30 2695 O 262.463 -1.63573 1.07799 0
M  V30 2696 H 261.043 0.205645 0.718136 0
M  V30 2697 H 263.705 1.1778 1.55287 0
M  V30 2698 H 262.801 0.76881 3.02483 0
M  V30 2699 N 263.102 -1.41638 0.69111 0
M  V30 2700 C 264.052 -2.28 -0.000107832 0
M  V30 2701 C 265.036 -1.41964 -0.757304 0
M  V30 2702 O 266.228 -1.65274 -0.633532 0
M  V30 2703 C 263.357 -3.30209 -0.938983 0
M  V30 2704 C 262.443 -4.23725 -0.17827 0
M  V30 2705 N 262.834 -4.99017 0.825563 0
M  V30 2706 C 261.132 -4.44071 -0.414392 0
M  V30 2707 C 261.833 -5.67431 1.28052 0
M  V30 2708 N 260.809 -5.40197 0.607304 0
M  V30 2709 H 264.611 -2.83644 0.769617 0
M  V30 2710 H 262.125 -1.53797 0.521562 0
M  V30 2711 H 264.122 -3.90898 -1.44929 0
M  V30 2712 H 262.782 -2.76126 -1.70836 0
M  V30 2713 H 263.793 -5.03671 1.20566 0
M  V30 2714 H 260.47 -4.01004 -1.162 0
M  V30 2715 H 261.86 -6.37801 2.11327 0
M  V30 2716 N 264.58 -0.43555 -1.51462 0
M  V30 2717 C 265.49 0.383001 -2.31453 0
M  V30 2718 C 266.506 1.02931 -1.4029 0
M  V30 2719 O 267.682 1.02507 -1.73362 0
M  V30 2720 C 264.747 1.47043 -3.13973 0
M  V30 2721 C 263.808 0.844433 -4.20913 0
M  V30 2722 C 263.041 1.88004 -4.9949 0
M  V30 2723 O 263.264 3.10199 -4.78678 0
M  V30 2724 O 262.198 1.47157 -5.83634 0
M  V30 2725 H 266.024 -0.269964 -3.02498 0
M  V30 2726 H 263.609 -0.19813 -1.4808 0
M  V30 2727 H 265.491 2.10113 -3.65281 0
M  V30 2728 H 264.166 2.10751 -2.45695 0
M  V30 2729 H 263.073 0.175729 -3.73687 0
M  V30 2730 H 264.406 0.250869 -4.9156 0
M  V30 2731 N 266.058 1.56714 -0.166846 0
M  V30 2732 C 267.305 1.96747 0.479252 0
M  V30 2733 C 267.633 1.05263 1.63554 0
M  V30 2734 O 266.888 0.0858098 1.95512 0
M  V30 2735 C 267.187 3.42889 1.00806 0
M  V30 2736 C 266.853 4.50889 -0.0318574 0
M  V30 2737 C 265.515 4.8015 -0.317675 0
M  V30 2738 C 267.867 5.15949 -0.737956 0
M  V30 2739 C 265.195 5.71772 -1.31506 0
M  V30 2740 C 267.547 6.08647 -1.72429 0
M  V30 2741 C 266.211 6.36277 -2.0176 0
M  V30 2742 H 265.481 0.719949 0.175371 0
M  V30 2743 H 268.128 1.89756 -0.257864 0
M  V30 2744 H 266.433 3.4681 1.82291 0
M  V30 2745 H 268.13 3.71203 1.51689 0
M  V30 2746 H 264.72 4.28128 0.201088 0
M  V30 2747 H 268.904 4.93458 -0.530351 0
M  V30 2748 H 264.16 5.91465 -1.54853 0
M  V30 2749 H 268.334 6.58129 -2.27682 0
M  V30 2750 H 265.961 7.07075 -2.79194 0
M  V30 2751 N 267.536 -0.106894 1.57237 0
M  V30 2752 C 268.813 -0.843526 1.76477 0
M  V30 2753 C 269.193 -1.97499 0.745464 0
M  V30 2754 O 268.541 -2.27357 -0.228306 0
M  V30 2755 C 268.751 -1.34903 3.21873 0
M  V30 2756 C 270.099 -1.79654 3.8472 0
M  V30 2757 O 271.123 -1.44554 3.2555 0
M  V30 2758 O 269.982 -2.44515 4.88748 0
M  V30 2759 H 267.076 -0.401468 0.723016 0
M  V30 2760 H 269.622 -0.0896927 1.69463 0
M  V30 2761 H 268.394 -0.53781 3.87586 0
M  V30 2762 H 268.017 -2.16522 3.33473 0
M  V30 2763 N 269.014 -1.53014 -0.377408 0
M  V30 2764 C 269.944 -1.81589 -1.46791 0
M  V30 2765 C 270.925 -0.668622 -1.56408 0
M  V30 2766 O 272.11 -0.917337 -1.71168 0
M  V30 2767 C 269.24 -1.99519 -2.8427 0
M  V30 2768 C 268.194 -3.15249 -2.89486 0
M  V30 2769 C 267.52 -3.18451 -4.29527 0
M  V30 2770 C 268.82 -4.54084 -2.58079 0
M  V30 2771 H 270.514 -2.7291 -1.23127 0
M  V30 2772 H 268.06 -1.31319 -0.590883 0
M  V30 2773 H 270.013 -2.18092 -3.60575 0
M  V30 2774 H 268.737 -1.04897 -3.09296 0
M  V30 2775 H 267.396 -2.96477 -2.15631 0
M  V30 2776 H 267.044 -2.2149 -4.5161 0
M  V30 2777 H 266.744 -3.962 -4.33934 0
M  V30 2778 H 268.268 -3.39193 -5.07721 0
M  V30 2779 H 269.682 -4.72899 -3.24098 0
M  V30 2780 H 268.079 -5.33987 -2.7382 0
M  V30 2781 H 269.149 -4.60006 -1.53372 0
M  V30 2782 N 270.492 0.636531 -1.44174 0
M  V30 2783 C 271.741 1.39213 -1.45954 0
M  V30 2784 C 272.054 1.95374 -0.0939119 0
M  V30 2785 O 273.26 2.71498 0.0107767 0
M  V30 2786 C 271.716 2.52025 -2.56927 0
M  V30 2787 C 271.324 2.024 -3.99673 0
M  V30 2788 C 273.068 3.29269 -2.67922 0
M  V30 2789 C 270.975 3.12521 -5.0208 0
M  V30 2790 H 269.905 0.523132 -0.542999 0
M  V30 2791 H 272.556 0.685349 -1.70221 0
M  V30 2792 H 270.938 3.25253 -2.25891 0
M  V30 2793 H 272.112 1.36073 -4.40251 0
M  V30 2794 H 270.427 1.37987 -3.92872 0
M  V30 2795 H 273.024 4.11352 -3.41605 0
M  V30 2796 H 273.367 3.78397 -1.73555 0
M  V30 2797 H 273.9 2.63129 -2.98342 0
M  V30 2798 H 270.639 2.68343 -5.98057 0
M  V30 2799 H 270.159 3.77507 -4.66099 0
M  V30 2800 H 271.838 3.77385 -5.25538 0
M  V30 2801 N 271.97 1.30982 0.876444 0
M  V30 2802 C 273.219 1.19658 1.62373 0
M  V30 2803 C 273.532 -0.245636 1.94052 0
M  V30 2804 O 274.738 -0.48049 2.67214 0
M  V30 2805 C 273.194 2.09433 2.92687 0
M  V30 2806 C 272.802 3.58613 2.68516 0
M  V30 2807 C 274.546 2.06893 3.70669 0
M  V30 2808 C 272.453 4.40416 3.94699 0
M  V30 2809 H 271.383 0.444268 0.609214 0
M  V30 2810 H 274.034 1.55791 0.969605 0
M  V30 2811 H 272.416 1.66191 3.59439 0
M  V30 2812 H 273.59 4.10058 2.10212 0
M  V30 2813 H 271.905 3.63063 2.03898 0
M  V30 2814 H 274.502 2.65258 4.64265 0
M  V30 2815 H 274.845 1.05448 4.02724 0
M  V30 2816 H 275.378 2.48301 3.10792 0
M  V30 2817 H 272.117 5.42591 3.67798 0
M  V30 2818 H 271.637 3.93731 4.52477 0
M  V30 2819 H 273.316 4.52294 4.62644 0
M  V30 2820 N 273.449 -1.08991 1.13837 0
M  V30 2821 C 274.397 -2.17841 0.815347 0
M  V30 2822 C 275.391 -1.68164 -0.204233 0
M  V30 2823 O 276.597 -1.79897 -0.0609304 0
M  V30 2824 H 272.972 -0.710654 0.245915 0
M  V30 2825 H 274.943 -2.42315 1.74143 0
M  V30 2826 C 273.692 -3.46381 0.302614 0
M  V30 2827 H 273.015 -3.84979 1.0785 0
M  V30 2828 H 274.455 -4.23844 0.115074 0
M  V30 2829 C 272.914 -3.22556 -0.972591 0
M  V30 2830 O 273.444 -3.45599 -2.04754 0
M  V30 2831 N 271.65 -2.76134 -0.905455 0
M  V30 2832 H 271.197 -2.57582 -0.0305421 0
M  V30 2833 H 271.155 -2.60571 -1.75926 0
M  V30 2834 N 274.927 -0.932562 -1.27047 0
M  V30 2835 C 275.89 -0.440064 -2.24936 0
M  V30 2836 C 276.89 0.444071 -1.54547 0
M  V30 2837 O 278.08 0.244465 -1.72476 0
M  V30 2838 C 275.212 0.36678 -3.38921 0
M  V30 2839 H 276.405 -1.305 -2.70018 0
M  V30 2840 H 273.958 -0.713707 -1.39054 0
M  V30 2841 H 274.693 1.25033 -2.99228 0
M  V30 2842 H 274.478 -0.267204 -3.91188 0
M  V30 2843 H 275.968 0.701567 -4.11665 0
M  V30 2844 N 276.405 1.4127 -0.698611 0
M  V30 2845 C 277.633 2.05503 -0.239992 0
M  V30 2846 C 278.048 1.52584 1.11191 0
M  V30 2847 O 277.405 0.675323 1.69545 0
M  V30 2848 C 277.456 3.60987 -0.192429 0
M  V30 2849 O 277.177 4.1195 -1.49094 0
M  V30 2850 C 278.678 4.42371 0.28681 0
M  V30 2851 H 275.898 0.661748 -0.111045 0
M  V30 2852 H 278.442 1.80987 -0.95205 0
M  V30 2853 H 276.597 3.84533 0.470472 0
M  V30 2854 H 277.011 5.06018 -1.38007 0
M  V30 2855 H 278.485 5.51344 0.26896 0
M  V30 2856 H 278.962 4.18699 1.32619 0
M  V30 2857 H 279.568 4.23897 -0.345201 0
M  V30 2858 N 277.883 0.443576 1.51229 0
M  V30 2859 C 279.108 -0.121648 2.07043 0
M  V30 2860 C 279.533 -1.35156 1.30823 0
M  V30 2861 O 278.891 -1.7793 0.347934 0
M  V30 2862 C 278.939 -0.41624 3.5819 0
M  V30 2863 O 278.043 -1.50163 3.8409 0
M  V30 2864 H 277.384 0.000871367 0.663999 0
M  V30 2865 H 279.914 0.626706 1.94765 0
M  V30 2866 H 279.924 -0.664867 4.02546 0
M  V30 2867 H 278.599 0.482653 4.1309 0
M  V30 2868 H 277.176 -1.24248 3.51592 0
M  V30 2869 N 279.361 -1.56624 0.175154 0
M  V30 2870 C 280.586 -2.01813 -0.478137 0
M  V30 2871 C 281.011 -1.05457 -1.55757 0
M  V30 2872 O 280.369 -0.0347439 -1.81267 0
M  V30 2873 C 280.417 -3.45581 -1.02987 0
M  V30 2874 O 279.521 -3.52305 -2.14371 0
M  V30 2875 H 278.862 -0.65413 -0.114059 0
M  V30 2876 H 281.392 -2.02673 0.280173 0
M  V30 2877 H 281.402 -3.84965 -1.35151 0
M  V30 2878 H 280.077 -4.1521 -0.239556 0
M  V30 2879 H 278.654 -3.24783 -1.83222 0
M  V30 2880 N 280.839 0.0985539 -1.57292 0
M  V30 2881 C 282.087 0.801092 -1.85545 0
M  V30 2882 C 282.408 1.79438 -0.763353 0
M  V30 2883 O 281.678 1.94763 0.21073 0
M  V30 2884 H 280.258 0.29884 -0.684619 0
M  V30 2885 H 282.92 0.0810064 -1.94732 0
M  V30 2886 H 282.016 1.3338 -2.82163 0
M  V30 2887 N 282.317 1.53212 0.369288 0
M  V30 2888 C 283.566 1.68436 1.10961 0
M  V30 2889 C 283.879 0.440738 1.9057 0
M  V30 2890 O 285.085 0.473446 2.6734 0
M  V30 2891 C 283.541 2.97744 2.0218 0
M  V30 2892 C 283.149 4.29355 1.279 0
M  V30 2893 C 284.893 3.22334 2.76226 0
M  V30 2894 C 282.8 5.49755 2.17999 0
M  V30 2895 H 281.73 0.627568 0.41794 0
M  V30 2896 H 284.381 1.79713 0.370884 0
M  V30 2897 H 282.763 2.8026 2.79768 0
M  V30 2898 H 283.937 4.57458 0.554007 0
M  V30 2899 H 282.252 4.11179 0.657311 0
M  V30 2900 H 284.849 4.09471 3.43857 0
M  V30 2901 H 285.192 2.38238 3.41392 0
M  V30 2902 H 285.725 3.40475 2.05723 0
M  V30 2903 H 282.464 6.36318 1.57417 0
M  V30 2904 H 281.984 5.25937 2.88359 0
M  V30 2905 H 283.663 5.84401 2.77641 0
M  V30 2906 N 283.795 -0.628877 1.44509 0
M  V30 2907 C 285.02 -1.42048 1.5112 0
M  V30 2908 C 285.445 -1.87594 0.137818 0
M  V30 2909 O 284.803 -1.58873 -0.873437 0
M  V30 2910 C 284.851 -2.61541 2.48251 0
M  V30 2911 O 283.955 -3.61453 1.98559 0
M  V30 2912 H 283.296 -0.424942 0.510216 0
M  V30 2913 H 285.826 -0.767374 1.89664 0
M  V30 2914 H 285.836 -3.09057 2.66361 0
M  V30 2915 H 284.511 -2.27736 3.48007 0
M  V30 2916 H 283.088 -3.20731 1.90227 0
M  V30 2917 N 285.273 -1.31445 -0.869486 0
M  V30 2918 C 286.521 -1.20918 -1.61936 0
M  V30 2919 C 286.842 0.232683 -1.93607 0
M  V30 2920 O 286.112 1.15352 -1.58338 0
M  V30 2921 H 284.692 -0.44454 -0.600328 0
M  V30 2922 H 287.354 -1.64776 -1.0409 0
M  V30 2923 H 286.45 -1.78124 -2.56278 0
M  V30 2924 N 286.751 1.08385 -1.14413 0
M  V30 2925 C 288.028 1.77429 -0.823297 0
M  V30 2926 C 288.408 1.9974 0.683163 0
M  V30 2927 O 287.756 1.60739 1.62405 0
M  V30 2928 C 287.966 3.09004 -1.62227 0
M  V30 2929 C 289.314 3.83532 -1.82177 0
M  V30 2930 O 290.338 3.18786 -1.58915 0
M  V30 2931 O 289.197 4.99792 -2.21067 0
M  V30 2932 H 286.291 0.769999 -0.301712 0
M  V30 2933 H 288.837 1.14846 -1.24934 0
M  V30 2934 H 287.609 2.88316 -2.64555 0
M  V30 2935 H 287.232 3.79316 -1.19187 0
M  V30 2936 N 288.23 0.939286 1.26551 0
M  V30 2937 C 289.479 0.581601 1.93133 0
M  V30 2938 C 289.792 -0.883224 1.74524 0
M  V30 2939 O 290.998 -1.3502 2.35546 0
M  V30 2940 C 289.454 0.989425 3.46032 0
M  V30 2941 C 289.062 2.47573 3.73379 0
M  V30 2942 C 290.806 0.703544 4.18629 0
M  V30 2943 C 288.713 2.82235 5.19709 0
M  V30 2944 H 287.643 0.213803 0.723052 0
M  V30 2945 H 290.294 1.14167 1.4366 0
M  V30 2946 H 288.676 0.357902 3.94379 0
M  V30 2947 H 289.85 3.15614 3.35744 0
M  V30 2948 H 288.165 2.73471 3.1401 0
M  V30 2949 H 290.762 0.938869 5.26393 0
M  V30 2950 H 291.105 -0.359639 4.14744 0
M  V30 2951 H 291.638 1.2947 3.76141 0
M  V30 2952 H 288.377 3.87509 5.28694 0
M  V30 2953 H 287.897 2.18854 5.58447 0
M  V30 2954 H 289.576 2.70599 5.87695 0
M  V30 2955 N 289.708 -1.40897 0.706093 0
M  V30 2956 C 291.119 -1.84023 0.315052 0
M  V30 2957 C 291.47 -1.5906 -1.14866 0
M  V30 2958 O 290.595 -1.06651 -1.88293 0
M  V30 2959 C 291.19 -3.34055 0.565038 0
M  V30 2960 C 289.749 -3.7571 0.227806 0
M  V30 2961 C 288.896 -2.64204 0.842122 0
M  V30 2962 H 291.847 -1.303 0.905963 0
M  V30 2963 H 291.868 -3.80107 -0.172843 0
M  V30 2964 H 291.38 -3.52192 1.63042 0
M  V30 2965 H 289.481 -3.63172 -0.832895 0
M  V30 2966 H 289.594 -4.74103 0.690174 0
M  V30 2967 H 287.958 -2.53255 0.270893 0
M  V30 2968 H 288.741 -2.85155 1.91158 0
M  V30 2969 N 291.186 -0.45159 -1.50991 0
M  V30 2970 C 292.149 0.341117 -2.26647 0
M  V30 2971 C 293.149 0.937422 -1.30649 0
M  V30 2972 O 294.339 0.809644 -1.54241 0
M  V30 2973 C 291.471 1.48398 -3.06905 0
M  V30 2974 H 292.664 -0.322117 -2.98165 0
M  V30 2975 H 290.217 -0.205122 -1.54948 0
M  V30 2976 H 290.952 2.18284 -2.39838 0
M  V30 2977 H 290.737 1.06241 -3.77432 0
M  V30 2978 H 292.227 2.04367 -3.64176 0
M  V30 2979 N 292.664 1.56529 -0.183458 0
M  V30 2980 C 293.913 1.96419 0.458511 0
M  V30 2981 C 294.226 1.0727 1.63562 0
M  V30 2982 O 295.432 1.36893 2.34462 0
M  V30 2983 C 293.888 3.49298 0.867122 0
M  V30 2984 C 293.496 4.47092 -0.285057 0
M  V30 2985 C 295.24 3.97983 1.47683 0
M  V30 2986 C 293.147 5.91225 0.143862 0
M  V30 2987 H 292.077 0.733394 0.175071 0
M  V30 2988 H 294.728 1.81448 -0.273624 0
M  V30 2989 H 293.11 3.59731 1.65559 0
M  V30 2990 H 294.284 4.48383 -1.0625 0
M  V30 2991 H 292.599 4.08535 -0.805503 0
M  V30 2992 H 295.196 5.03134 1.80999 0
M  V30 2993 H 295.539 3.41618 2.37914 0
M  V30 2994 H 296.072 3.90617 0.752562 0
M  V30 2995 H 292.811 6.5149 -0.723974 0
M  V30 2996 H 292.331 5.93214 0.886413 0
M  V30 2997 H 294.01 6.44362 0.583628 0
M  V30 2998 N 294.142 -0.090211 1.57342 0
M  V30 2999 C 295.553 -0.644173 1.75235 0
M  V30 3000 C 295.904 -1.78865 0.806335 0
M  V30 3001 O 295.029 -2.16395 -0.0140128 0
M  V30 3002 C 295.624 -1.17532 3.1776 0
M  V30 3003 C 294.183 -1.67531 3.37061 0
M  V30 3004 C 293.33 -0.58693 2.71017 0
M  V30 3005 H 296.281 0.135884 1.58117 0
M  V30 3006 H 296.302 -2.04455 3.20902 0
M  V30 3007 H 295.814 -0.342138 3.86589 0
M  V30 3008 H 293.915 -2.53234 2.73319 0
M  V30 3009 H 294.028 -1.76493 4.45406 0
M  V30 3010 H 292.392 -1.02756 2.33052 0
M  V30 3011 H 293.175 0.235758 3.4249 0
M  V30 3012 N 295.62 -1.53406 -0.361157 0
M  V30 3013 C 296.845 -1.74024 -1.12829 0
M  V30 3014 C 297.27 -0.470069 -1.82132 0
M  V30 3015 O 296.628 0.57619 -1.719 0
M  V30 3016 C 296.676 -2.90903 -2.13091 0
M  V30 3017 O 295.78 -2.59821 -3.20261 0
M  V30 3018 H 295.121 -0.577804 -0.327168 0
M  V30 3019 H 297.651 -2.00307 -0.41693 0
M  V30 3020 H 297.661 -3.17194 -2.56616 0
M  V30 3021 H 296.336 -3.83034 -1.62042 0
M  V30 3022 H 294.913 -2.44362 -2.81677 0
M  V30 3023 N 297.098 0.621204 -1.44841 0
M  V30 3024 C 298.323 1.41244 -1.51871 0
M  V30 3025 C 298.748 1.87519 -0.147764 0
M  V30 3026 O 298.106 1.59334 0.865 0
M  V30 3027 C 298.154 2.60221 -2.49634 0
M  V30 3028 O 297.258 3.60395 -2.00473 0
M  V30 3029 H 296.599 0.42223 -0.512463 0
M  V30 3030 H 299.129 0.757305 -1.90069 0
M  V30 3031 H 299.139 3.0764 -2.67996 0
M  V30 3032 H 297.814 2.25887 -3.4921 0
M  V30 3033 H 296.391 3.19717 -1.91925 0
M  V30 3034 N 298.576 1.31904 0.862503 0
M  V30 3035 C 299.506 1.22782 1.98612 0
M  V30 3036 C 300.487 0.113362 1.69722 0
M  V30 3037 O 301.672 0.299218 1.91881 0
M  V30 3038 C 298.802 0.942058 3.34279 0
M  V30 3039 C 297.756 2.0169 3.77499 0
M  V30 3040 C 297.082 1.58369 5.10709 0
M  V30 3041 C 298.382 3.43096 3.93805 0
M  V30 3042 H 300.076 2.16788 2.06502 0
M  V30 3043 H 297.622 1.04366 0.992154 0
M  V30 3044 H 299.575 0.864818 4.1243 0
M  V30 3045 H 298.299 -0.0336603 3.26583 0
M  V30 3046 H 296.958 2.08416 3.01593 0
M  V30 3047 H 296.606 0.595628 4.99461 0
M  V30 3048 H 296.306 2.30279 5.40597 0
M  V30 3049 H 297.83 1.52067 5.91361 0
M  V30 3050 H 299.244 3.39003 4.62331 0
M  V30 3051 H 297.641 4.13288 4.35101 0
M  V30 3052 H 298.711 3.83334 2.96957 0
M  V30 3053 N 300.054 -1.07777 1.14986 0
M  V30 3054 C 301.303 -1.79669 0.916617 0
M  V30 3055 C 301.616 -1.87474 -0.557917 0
M  V30 3056 O 302.822 -2.55845 -0.908617 0
M  V30 3057 C 301.278 -3.22848 1.59051 0
M  V30 3058 C 300.886 -3.23257 3.10176 0
M  V30 3059 C 302.63 -3.99379 1.43864 0
M  V30 3060 C 300.537 -4.61063 3.70372 0
M  V30 3061 H 299.467 -0.673349 0.33929 0
M  V30 3062 H 302.118 -1.21003 1.37951 0
M  V30 3063 H 300.5 -3.8168 1.0553 0
M  V30 3064 H 301.674 -2.74095 3.70417 0
M  V30 3065 H 299.989 -2.60222 3.25074 0
M  V30 3066 H 302.586 -5.0122 1.86232 0
M  V30 3067 H 302.929 -4.14511 0.385564 0
M  V30 3068 H 303.462 -3.47032 1.94457 0
M  V30 3069 H 300.201 -4.51135 4.7556 0
M  V30 3070 H 299.721 -5.1048 3.14913 0
M  V30 3071 H 301.4 -5.30034 3.71043 0
M  V30 3072 N 301.532 -0.945985 -1.26051 0
M  V30 3073 C 302.482 -0.430164 -2.23905 0
M  V30 3074 C 303.466 0.47579 -1.53704 0
M  V30 3075 O 304.658 0.310252 -1.7426 0
M  V30 3076 C 301.787 0.298957 -3.41996 0
M  V30 3077 C 300.873 -0.624566 -4.19476 0
M  V30 3078 N 301.264 -1.75245 -4.74471 0
M  V30 3079 C 299.562 -0.431082 -4.43912 0
M  V30 3080 C 300.263 -2.32834 -5.3307 0
M  V30 3081 N 299.239 -1.61583 -5.1903 0
M  V30 3082 H 303.041 -1.29107 -2.64024 0
M  V30 3083 H 300.555 -0.802428 -1.41191 0
M  V30 3084 H 302.552 0.685565 -4.11225 0
M  V30 3085 H 301.212 1.15657 -3.03403 0
M  V30 3086 H 302.223 -2.13449 -4.71868 0
M  V30 3087 H 298.9 0.384364 -4.15727 0
M  V30 3088 H 300.29 -3.27893 -5.86461 0
M  V30 3089 N 303.011 1.40521 -0.713556 0
M  V30 3090 C 304.422 1.83853 -0.324807 0
M  V30 3091 C 304.773 1.59667 1.14021 0
M  V30 3092 O 303.898 1.07649 1.87725 0
M  V30 3093 C 304.493 3.33751 -0.582746 0
M  V30 3094 C 303.052 3.75584 -0.247727 0
M  V30 3095 C 302.199 2.63753 -0.856121 0
M  V30 3096 H 305.15 1.29817 -0.91286 0
M  V30 3097 H 305.171 3.80194 0.152682 0
M  V30 3098 H 304.683 3.51322 -1.64908 0
M  V30 3099 H 302.784 3.63608 0.813624 0
M  V30 3100 H 302.897 4.7373 -0.715307 0
M  V30 3101 H 301.261 2.53108 -0.28432 0
M  V30 3102 H 302.044 2.84137 -1.92668 0
M  V30 3103 N 304.489 0.459591 1.5075 0
M  V30 3104 C 305.737 -0.0991532 2.01857 0
M  V30 3105 C 306.058 -1.41247 1.34441 0
M  V30 3106 O 305.328 -1.89775 0.486022 0
M  V30 3107 H 303.908 -0.039633 0.745948 0
M  V30 3108 H 306.57 0.607387 1.85194 0
M  V30 3109 H 305.666 -0.258998 3.11023 0
M  V30 3110 N 305.967 -1.56429 0.191757 0
M  V30 3111 C 307.216 -1.9666 -0.448088 0
M  V30 3112 C 307.529 -1.08136 -1.62991 0
M  V30 3113 O 308.735 -1.38135 -2.33733 0
M  V30 3114 C 307.191 -3.49753 -0.848585 0
M  V30 3115 C 306.799 -4.46935 0.308764 0
M  V30 3116 C 308.543 -3.9876 -1.4557 0
M  V30 3117 C 306.45 -5.91293 -0.112506 0
M  V30 3118 H 305.38 -0.734312 -0.171179 0
M  V30 3119 H 308.031 -1.81301 0.283242 0
M  V30 3120 H 306.413 -3.60604 -1.63649 0
M  V30 3121 H 307.587 -4.47813 1.08627 0
M  V30 3122 H 305.902 -4.08102 0.827158 0
M  V30 3123 H 308.499 -5.04086 -1.78328 0
M  V30 3124 H 308.842 -3.42875 -2.36099 0
M  V30 3125 H 309.375 -3.9101 -0.731836 0
M  V30 3126 H 306.114 -6.51097 0.758514 0
M  V30 3127 H 305.634 -5.93676 -0.854941 0
M  V30 3128 H 307.313 -6.44663 -0.549448 0
M  V30 3129 N 307.445 0.0818655 -1.57387 0
M  V30 3130 C 308.675 0.794954 -1.90694 0
M  V30 3131 C 309.083 1.72147 -0.784982 0
M  V30 3132 O 308.426 1.81974 0.251196 0
M  V30 3133 C 308.488 1.65042 -3.19376 0
M  V30 3134 C 308.152 0.894337 -4.48164 0
M  V30 3135 C 309.149 0.21813 -5.19442 0
M  V30 3136 C 306.834 0.864495 -4.94805 0
M  V30 3137 C 308.828 -0.477802 -6.35607 0
M  V30 3138 C 306.515 0.164785 -6.10878 0
M  V30 3139 C 307.513 -0.505173 -6.81129 0
M  V30 3140 O 307.201 -1.19363 -7.94989 0
M  V30 3141 H 306.933 0.231779 -0.635023 0
M  V30 3142 H 309.487 0.059493 -2.05314 0
M  V30 3143 H 307.717 2.42844 -3.00938 0
M  V30 3144 H 309.406 2.24127 -3.38411 0
M  V30 3145 H 310.172 0.232558 -4.84442 0
M  V30 3146 H 306.051 1.37542 -4.40004 0
M  V30 3147 H 309.595 -1.00129 -6.90377 0
M  V30 3148 H 305.492 0.148249 -6.4533 0
M  V30 3149 H 306.26 -1.10188 -8.11049 0
M  V30 3150 N 308.923 1.53595 0.353017 0
M  V30 3151 C 310.163 1.72094 1.10286 0
M  V30 3152 C 310.527 0.469217 1.86178 0
M  V30 3153 O 311.728 0.531083 2.63501 0
M  V30 3154 C 309.999 2.94386 2.02661 0
M  V30 3155 S 311.558 3.33651 2.84996 0
M  V30 3156 H 308.376 0.605433 0.372789 0
M  V30 3157 H 310.978 1.91722 0.38248 0
M  V30 3158 H 309.682 3.83669 1.45691 0
M  V30 3159 H 309.213 2.77197 2.79152 0
M  V30 3160 H 311.228 2.86645 4.0503 0
M  V30 3161 N 310.401 -0.613514 1.45168 0
M  V30 3162 C 311.631 -1.39743 1.52169 0
M  V30 3163 C 312.039 -1.88596 0.151086 0
M  V30 3164 O 311.382 -1.6251 -0.856521 0
M  V30 3165 C 311.444 -2.64035 2.43979 0
M  V30 3166 C 311.108 -2.36861 3.90827 0
M  V30 3167 C 312.105 -1.97591 4.80889 0
M  V30 3168 C 309.79 -2.49956 4.35692 0
M  V30 3169 C 311.784 -1.71768 6.1382 0
M  V30 3170 C 309.471 -2.23747 5.68665 0
M  V30 3171 C 310.469 -1.84714 6.57548 0
M  V30 3172 O 310.157 -1.58809 7.88058 0
M  V30 3173 H 309.889 -0.434382 0.517966 0
M  V30 3174 H 312.443 -0.75587 1.90986 0
M  V30 3175 H 310.673 -3.3089 2.00122 0
M  V30 3176 H 312.362 -3.26069 2.41731 0
M  V30 3177 H 313.128 -1.87015 4.47493 0
M  V30 3178 H 309.007 -2.79305 3.66756 0
M  V30 3179 H 312.551 -1.41227 6.83155 0
M  V30 3180 H 308.448 -2.33938 6.01617 0
M  V30 3181 H 309.216 -1.7291 8.00028 0
M  V30 3182 N 311.879 -1.3236 -0.855495 0
M  V30 3183 C 313.156 -1.13491 -1.59309 0
M  V30 3184 C 313.536 0.30503 -2.08885 0
M  V30 3185 O 312.884 1.30151 -1.87811 0
M  V30 3186 C 313.094 -2.16176 -2.73987 0
M  V30 3187 C 314.442 -2.49463 -3.43589 0
M  V30 3188 O 315.466 -2.14715 -2.84211 0
M  V30 3189 O 314.325 -3.09027 -4.50738 0
M  V30 3190 H 311.419 -0.437887 -0.701559 0
M  V30 3191 H 313.965 -1.43887 -0.899696 0
M  V30 3192 H 312.737 -3.1297 -2.34873 0
M  V30 3193 H 312.36 -1.86769 -3.51003 0
M  V30 3194 N 313.357 1.07166 -1.15556 0
M  V30 3195 C 314.29 2.13808 -0.797593 0
M  V30 3196 C 315.268 1.6101 0.226812 0
M  V30 3197 O 316.452 1.88161 0.112932 0
M  V30 3198 C 313.579 3.38187 -0.186371 0
M  V30 3199 C 312.625 4.09766 -1.18297 0
M  V30 3200 S 313.458 4.60932 -2.72584 0
M  V30 3201 C 314.614 5.88583 -2.12886 0
M  V30 3202 H 314.847 2.43843 -1.70083 0
M  V30 3203 H 312.38 1.19467 -0.978106 0
M  V30 3204 H 314.338 4.10189 0.159837 0
M  V30 3205 H 312.999 3.06326 0.694489 0
M  V30 3206 H 312.192 4.99065 -0.703562 0
M  V30 3207 H 311.794 3.43736 -1.47381 0
M  V30 3208 H 314.086 6.60866 -1.49208 0
M  V30 3209 H 315.029 6.41241 -3.0036 0
M  V30 3210 H 315.437 5.42194 -1.57116 0
M  V30 3211 N 314.835 0.952656 1.25548 0
M  V30 3212 C 316.082 0.606373 1.93208 0
M  V30 3213 C 316.41 -0.85631 1.74636 0
M  V30 3214 O 315.665 -1.62951 1.08376 0
M  V30 3215 C 315.964 0.908818 3.45652 0
M  V30 3216 C 315.63 2.35722 3.84378 0
M  V30 3217 C 314.292 2.75312 3.9466 0
M  V30 3218 C 316.644 3.29793 4.03591 0
M  V30 3219 C 313.972 4.08047 4.21562 0
M  V30 3220 C 316.324 4.62138 4.31985 0
M  V30 3221 C 314.988 5.01528 4.40484 0
M  V30 3222 H 314.258 0.221888 0.706998 0
M  V30 3223 H 316.905 1.20132 1.49133 0
M  V30 3224 H 315.21 0.231456 3.91116 0
M  V30 3225 H 316.907 0.619498 3.96186 0
M  V30 3226 H 313.497 2.04017 3.76928 0
M  V30 3227 H 317.681 3.00397 3.95064 0
M  V30 3228 H 312.937 4.38212 4.26357 0
M  V30 3229 H 317.111 5.35012 4.45797 0
M  V30 3230 H 314.738 6.04406 4.61083 0
M  V30 3231 N 316.313 -1.40141 0.720998 0
M  V30 3232 C 317.543 -2.04798 0.27226 0
M  V30 3233 C 317.951 -1.54442 -1.09289 0
M  V30 3234 O 317.294 -0.698342 -1.69908 0
M  V30 3235 C 317.356 -3.59048 0.18027 0
M  V30 3236 C 317.02 -4.32317 1.48159 0
M  V30 3237 C 318.017 -4.59902 2.42458 0
M  V30 3238 C 315.702 -4.71125 1.74202 0
M  V30 3239 C 317.696 -5.25288 3.61042 0
M  V30 3240 C 315.383 -5.36242 2.93066 0
M  V30 3241 C 316.381 -5.63254 3.86308 0
M  V30 3242 O 316.069 -6.27024 5.03086 0
M  V30 3243 H 315.801 -0.665419 0.119139 0
M  V30 3244 H 318.355 -1.80436 0.981432 0
M  V30 3245 H 316.585 -3.82251 -0.58489 0
M  V30 3246 H 318.274 -4.05221 -0.234618 0
M  V30 3247 H 319.04 -4.30379 2.23604 0
M  V30 3248 H 314.919 -4.49466 1.02477 0
M  V30 3249 H 318.463 -5.46289 4.33837 0
M  V30 3250 H 314.36 -5.65185 3.11826 0
M  V30 3251 H 315.128 -6.4552 5.03235 0
M  V30 3252 N 317.792 -0.46758 -1.50504 0
M  V30 3253 C 318.724 0.364655 -2.26281 0
M  V30 3254 C 319.737 0.960151 -1.31472 0
M  V30 3255 O 320.926 0.849153 -1.57008 0
M  V30 3256 C 318.026 1.52509 -3.02645 0
M  V30 3257 C 317.199 1.04302 -4.24782 0
M  V30 3258 C 316.258 2.07709 -4.8347 0
M  V30 3259 O 315.284 1.65913 -5.44483 0
M  V30 3260 N 316.486 3.40485 -4.70159 0
M  V30 3261 H 319.251 -0.28495 -2.98342 0
M  V30 3262 H 316.812 -0.298163 -1.59131 0
M  V30 3263 H 318.804 2.21371 -3.38787 0
M  V30 3264 H 317.374 2.07945 -2.33404 0
M  V30 3265 H 316.594 0.180393 -3.93787 0
M  V30 3266 H 317.882 0.698798 -5.03978 0
M  V30 3267 H 317.28 3.77155 -4.21629 0
M  V30 3268 H 315.837 4.05156 -5.1058 0
M  V30 3269 N 319.27 1.56325 -0.20005 0
M  V30 3270 C 320.217 2.1932 0.718833 0
M  V30 3271 C 321.187 1.14198 1.20615 0
M  V30 3272 O 322.372 1.42469 1.26914 0
M  V30 3273 C 319.512 2.86041 1.93066 0
M  V30 3274 C 318.625 4.05702 1.48425 0
M  V30 3275 C 317.76 4.60266 2.65196 0
M  V30 3276 C 316.799 5.72273 2.17185 0
M  V30 3277 N 315.936 6.21221 3.27152 0
M  V30 3278 H 320.776 2.97486 0.17489 0
M  V30 3279 H 318.313 1.46911 0.0745794 0
M  V30 3280 H 320.271 3.22897 2.64184 0
M  V30 3281 H 318.901 2.1043 2.44783 0
M  V30 3282 H 317.953 3.74475 0.668755 0
M  V30 3283 H 319.265 4.86699 1.09204 0
M  V30 3284 H 318.419 4.99453 3.4443 0
M  V30 3285 H 317.158 3.78386 3.07693 0
M  V30 3286 H 316.163 5.3261 1.36407 0
M  V30 3287 H 317.388 6.55974 1.75713 0
M  V30 3288 H 315.334 5.42263 3.69171 0
M  V30 3289 H 315.251 6.97284 2.92116 0
M  V30 3290 H 316.519 6.65063 4.06585 0
M  V30 3291 N 320.748 -0.0735177 1.57428 0
M  V30 3292 C 321.996 -0.771472 1.86796 0
M  V30 3293 C 322.317 -1.78201 0.791804 0
M  V30 3294 O 321.587 -1.95074 -0.179718 0
M  V30 3295 H 320.167 -0.28791 0.689287 0
M  V30 3296 H 322.829 -0.0500161 1.94836 0
M  V30 3297 H 321.925 -1.28874 2.8425 0
M  V30 3298 N 322.226 -1.5378 -0.344866 0
M  V30 3299 C 323.173 -1.81676 -1.42346 0
M  V30 3300 C 324.143 -0.662376 -1.52321 0
M  V30 3301 O 325.328 -0.906675 -1.67881 0
M  V30 3302 C 322.468 -2.03087 -2.79015 0
M  V30 3303 C 321.581 -3.30799 -2.77842 0
M  V30 3304 C 320.716 -3.42285 -4.0622 0
M  V30 3305 C 319.755 -4.6395 -3.9927 0
M  V30 3306 N 318.892 -4.72477 -5.19336 0
M  V30 3307 H 323.732 -2.73703 -1.17858 0
M  V30 3308 H 321.269 -1.35568 -0.570949 0
M  V30 3309 H 323.227 -2.1349 -3.58438 0
M  V30 3310 H 321.857 -1.14375 -3.01858 0
M  V30 3311 H 320.909 -3.29244 -1.90533 0
M  V30 3312 H 322.221 -4.20314 -2.68584 0
M  V30 3313 H 321.375 -3.52113 -4.94066 0
M  V30 3314 H 320.114 -2.50823 -4.18258 0
M  V30 3315 H 319.119 -4.54201 -3.09809 0
M  V30 3316 H 320.344 -5.56775 -3.88817 0
M  V30 3317 H 318.29 -3.83924 -5.3192 0
M  V30 3318 H 318.207 -5.55927 -5.12329 0
M  V30 3319 H 319.475 -4.86613 -6.08957 0
M  V30 3320 N 323.704 0.605807 -1.45491 0
M  V30 3321 C 324.932 1.39136 -1.5313 0
M  V30 3322 C 325.347 1.88082 -0.164507 0
M  V30 3323 O 324.704 1.62316 0.834247 0
M  V30 3324 C 324.755 2.59463 -2.51716 0
M  V30 3325 O 324.476 2.12551 -3.83084 0
M  V30 3326 C 325.977 3.52301 -2.6907 0
M  V30 3327 H 323.197 0.425849 -0.51855 0
M  V30 3328 H 325.741 0.73865 -1.90694 0
M  V30 3329 H 323.896 3.20772 -2.17219 0
M  V30 3330 H 324.31 2.90744 -4.36541 0
M  V30 3331 H 325.784 4.33271 -3.42024 0
M  V30 3332 H 326.261 4.02757 -1.75167 0
M  V30 3333 H 326.867 2.96845 -3.04571 0
M  V30 3334 N 325.182 1.32811 0.848464 0
M  V30 3335 C 326.593 1.21315 1.41914 0
M  V30 3336 C 326.944 -0.171847 1.95446 0
M  V30 3337 O 326.069 -1.07093 1.88043 0
M  V30 3338 C 326.664 2.19631 2.57968 0
M  V30 3339 C 325.223 2.12003 3.11017 0
M  V30 3340 C 324.37 2.07651 1.83783 0
M  V30 3341 H 327.321 1.44549 0.655071 0
M  V30 3342 H 327.342 1.79845 3.35315 0
M  V30 3343 H 326.854 3.20423 2.18976 0
M  V30 3344 H 324.955 1.14481 3.54577 0
M  V30 3345 H 325.068 3.02111 3.71841 0
M  V30 3346 H 323.432 1.52983 2.03638 0
M  V30 3347 H 324.215 3.10235 1.47 0
M  V30 3348 N 326.66 -1.06551 1.16123 0
M  V30 3349 C 327.907 -1.79302 0.941126 0
M  V30 3350 C 328.235 -1.87105 -0.531235 0
M  V30 3351 O 327.49 -1.35692 -1.41018 0
M  V30 3352 C 327.789 -3.23911 1.51052 0
M  V30 3353 C 327.455 -3.36193 3.00475 0
M  V30 3354 C 326.117 -3.39252 3.41265 0
M  V30 3355 C 328.469 -3.38326 3.96465 0
M  V30 3356 C 325.797 -3.42057 4.76669 0
M  V30 3357 C 328.149 -3.4267 5.31752 0
M  V30 3358 C 326.813 -3.4401 5.72026 0
M  V30 3359 H 326.083 -0.656111 0.344382 0
M  V30 3360 H 328.73 -1.25325 1.44796 0
M  V30 3361 H 327.035 -3.80723 0.925063 0
M  V30 3362 H 328.732 -3.78793 1.31593 0
M  V30 3363 H 325.322 -3.34516 2.6795 0
M  V30 3364 H 329.506 -3.35176 3.6602 0
M  V30 3365 H 324.762 -3.41398 5.07206 0
M  V30 3366 H 328.936 -3.43268 6.05921 0
M  V30 3367 H 326.563 -3.45937 6.76928 0
M  V30 3368 N 328.138 -0.959301 -1.25041 0
M  V30 3369 C 329.068 -0.501388 -2.28053 0
M  V30 3370 C 330.049 0.454673 -1.63911 0
M  V30 3371 O 331.234 0.352618 -1.90972 0
M  V30 3372 C 328.364 0.217224 -3.4662 0
M  V30 3373 C 327.318 -0.654034 -4.22973 0
M  V30 3374 C 326.644 0.195589 -5.34342 0
M  V30 3375 C 327.944 -1.93447 -4.85155 0
M  V30 3376 H 329.638 -1.36238 -2.66608 0
M  V30 3377 H 327.184 -0.656534 -1.28163 0
M  V30 3378 H 329.137 0.548732 -4.17812 0
M  V30 3379 H 327.861 1.1125 -3.07068 0
M  V30 3380 H 326.52 -0.968693 -3.5357 0
M  V30 3381 H 326.168 1.09076 -4.91031 0
M  V30 3382 H 325.868 -0.384091 -5.86343 0
M  V30 3383 H 327.392 0.521958 -6.08365 0
M  V30 3384 H 328.806 -1.66908 -5.48466 0
M  V30 3385 H 327.203 -2.46018 -5.47353 0
M  V30 3386 H 328.273 -2.63466 -4.07079 0
M  V30 3387 N 329.616 1.39756 -0.72842 0
M  V30 3388 C 330.579 2.29012 -0.0927297 0
M  V30 3389 C 331.579 1.45992 0.674025 0
M  V30 3390 O 332.769 1.66749 0.50402 0
M  V30 3391 C 329.901 3.29396 0.878137 0
M  V30 3392 H 331.094 2.86729 -0.879011 0
M  V30 3393 H 328.647 1.48293 -0.493847 0
M  V30 3394 H 329.382 2.76722 1.69101 0
M  V30 3395 H 329.167 3.907 0.331051 0
M  V30 3396 H 330.657 3.96199 1.3197 0
M  V30 3397 N 331.094 0.475555 1.50254 0
M  V30 3398 C 332.34 -0.0701075 2.03279 0
M  V30 3399 C 332.695 -1.37007 1.35081 0
M  V30 3400 O 331.988 -1.8577 0.469052 0
M  V30 3401 C 332.182 -0.305114 3.56095 0
M  V30 3402 C 332.011 0.970515 4.39103 0
M  V30 3403 C 330.781 1.51509 4.82051 0
M  V30 3404 C 332.979 1.8671 4.79212 0
M  V30 3405 N 330.961 2.73928 5.49397 0
M  V30 3406 C 332.332 2.93715 5.46014 0
M  V30 3407 C 334.387 1.87695 4.61167 0
M  V30 3408 C 333.09 4.01699 5.96683 0
M  V30 3409 C 335.116 2.94637 5.12779 0
M  V30 3410 C 334.478 4.00361 5.79561 0
M  V30 3411 H 330.577 0.014486 0.781866 0
M  V30 3412 H 333.161 0.644755 1.83714 0
M  V30 3413 H 331.332 -0.989019 3.75597 0
M  V30 3414 H 333.064 -0.845516 3.95769 0
M  V30 3415 H 329.819 1.06367 4.61501 0
M  V30 3416 H 330.243 3.36109 5.87673 0
M  V30 3417 H 334.885 1.07273 4.08965 0
M  V30 3418 H 332.603 4.82934 6.4792 0
M  V30 3419 H 336.189 2.96388 5.00645 0
M  V30 3420 H 335.069 4.81751 6.18778 0
M  V30 3421 N 332.573 -1.56217 0.208337 0
M  V30 3422 C 333.813 -1.99849 -0.428927 0
M  V30 3423 C 334.177 -1.09262 -1.57879 0
M  V30 3424 O 335.378 -1.42185 -2.28116 0
M  V30 3425 C 333.649 -3.46777 -0.864879 0
M  V30 3426 S 335.208 -4.12434 -1.49811 0
M  V30 3427 H 332.026 -0.697742 -0.136665 0
M  V30 3428 H 334.628 -1.92953 0.314519 0
M  V30 3429 H 333.332 -4.10396 -0.0181326 0
M  V30 3430 H 332.863 -3.57518 -1.64147 0
M  V30 3431 H 334.878 -4.10532 -2.78707 0
M  V30 3432 N 334.051 0.0651679 -1.57465 0
M  V30 3433 C 334.961 1.09448 -2.07505 0
M  V30 3434 C 335.977 1.41974 -1.00595 0
M  V30 3435 O 337.153 1.52018 -1.32107 0
M  V30 3436 C 334.218 2.38689 -2.51453 0
M  V30 3437 C 333.279 2.13073 -3.72691 0
M  V30 3438 C 332.512 3.36152 -4.14533 0
M  V30 3439 O 332.735 4.45517 -3.56189 0
M  V30 3440 O 331.669 3.23974 -5.07272 0
M  V30 3441 H 335.495 0.69935 -2.95538 0
M  V30 3442 H 333.08 0.279752 -1.46757 0
M  V30 3443 H 334.962 3.14736 -2.80212 0
M  V30 3444 H 333.637 2.77568 -1.66546 0
M  V30 3445 H 332.544 1.34709 -3.49005 0
M  V30 3446 H 333.877 1.79071 -4.5847 0
M  V30 3447 N 335.529 1.53961 0.336706 0
M  V30 3448 C 336.461 1.78751 1.4346 0
M  V30 3449 C 337.474 0.669019 1.48418 0
M  V30 3450 O 338.663 0.945884 1.51378 0
M  V30 3451 C 335.763 1.87844 2.82078 0
M  V30 3452 C 334.936 3.17854 3.00479 0
M  V30 3453 C 333.995 3.17816 4.19379 0
M  V30 3454 O 333.021 3.91511 4.13168 0
M  V30 3455 N 334.223 2.40669 5.2826 0
M  V30 3456 H 336.988 2.73493 1.22563 0
M  V30 3457 H 334.549 1.53096 0.526625 0
M  V30 3458 H 336.541 1.85261 3.59806 0
M  V30 3459 H 335.111 1.00257 2.96086 0
M  V30 3460 H 334.331 3.33504 2.10163 0
M  V30 3461 H 335.619 4.03718 3.0966 0
M  V30 3462 H 335.017 1.8036 5.36178 0
M  V30 3463 H 333.574 2.43877 6.04456 0
M  V30 3464 N 337.007 -0.598083 1.45811 0
M  V30 3465 C 338.423 -0.919847 1.30426 0
M  V30 3466 C 338.623 -1.99759 0.264303 0
M  V30 3467 O 337.679 -2.50221 -0.338472 0
M  V30 3468 C 338.992 -1.35176 2.68603 0
M  V30 3469 C 340.54 -1.46546 2.76574 0
M  V30 3470 C 341.015 -1.9311 4.15298 0
M  V30 3471 N 342.506 -2.00328 4.1764 0
M  V30 3472 C 343.241 -2.37599 5.21856 0
M  V30 3473 N 342.737 -2.73771 6.36413 0
M  V30 3474 N 344.53 -2.38021 5.09218 0
M  V30 3475 H 336.681 0.114111 2.12093 0
M  V30 3476 H 338.944 -0.0116121 0.947929 0
M  V30 3477 H 338.65 -0.633969 3.45939 0
M  V30 3478 H 338.524 -2.3164 2.97696 0
M  V30 3479 H 340.911 -2.17415 1.99537 0
M  V30 3480 H 340.992 -0.483727 2.51185 0
M  V30 3481 H 340.636 -1.22824 4.92825 0
M  V30 3482 H 340.566 -2.92213 4.38086 0
M  V30 3483 H 343.057 -1.74925 3.34977 0
M  V30 3484 H 343.37 -3.0112 7.11721 0
M  V30 3485 H 341.715 -2.71445 6.39799 0
M  V30 3486 H 344.906 -2.09174 4.18765 0
M  V30 3487 H 345.079 -2.66741 5.90554 0
M  V30 3488 N 338.485 -1.33259 -0.841409 0
M  V30 3489 C 339.733 -1.24326 -1.59334 0
M  V30 3490 C 340.054 0.191564 -1.94057 0
M  V30 3491 O 339.324 1.11967 -1.60749 0
M  V30 3492 H 337.904 -0.457174 -0.590763 0
M  V30 3493 H 340.566 -1.66947 -1.00571 0
M  V30 3494 H 339.662 -1.8352 -2.52442 0
M  V30 3495 N 339.963 1.05934 -1.16686 0
M  V30 3496 C 341.188 1.83029 -0.975455 0
M  V30 3497 C 341.613 1.82096 0.471452 0
M  V30 3498 O 340.971 1.22443 1.33706 0
M  V30 3499 C 341.019 3.27372 -1.51195 0
M  V30 3500 O 340.123 4.06054 -0.720701 0
M  V30 3501 H 339.464 0.566194 -0.346872 0
M  V30 3502 H 341.994 1.33541 -1.55009 0
M  V30 3503 H 342.004 3.78186 -1.53099 0
M  V30 3504 H 340.679 3.27366 -2.56523 0
M  V30 3505 H 339.256 3.64812 -0.772458 0
M  V30 3506 N 341.441 0.965919 1.2453 0
M  V30 3507 C 342.388 0.49402 2.25451 0
M  V30 3508 C 343.358 -0.45948 1.59618 0
M  V30 3509 O 344.543 -0.370238 1.87173 0
M  V30 3510 C 341.683 -0.211359 3.44452 0
M  V30 3511 C 340.796 0.7807 4.24887 0
M  V30 3512 C 339.931 0.0516105 5.31175 0
M  V30 3513 C 338.97 1.03385 6.03306 0
M  V30 3514 N 338.107 0.334887 7.01301 0
M  V30 3515 H 342.947 1.35946 2.65184 0
M  V30 3516 H 340.484 0.681515 1.3036 0
M  V30 3517 H 342.442 -0.637 4.12308 0
M  V30 3518 H 341.072 -1.04077 3.05562 0
M  V30 3519 H 340.124 1.32479 3.56586 0
M  V30 3520 H 341.436 1.52978 4.74762 0
M  V30 3521 H 340.59 -0.432114 6.05159 0
M  V30 3522 H 339.329 -0.730179 4.82203 0
M  V30 3523 H 338.334 1.52847 5.28127 0
M  V30 3524 H 339.559 1.81606 6.54367 0
M  V30 3525 H 337.505 -0.427959 6.54603 0
M  V30 3526 H 337.422 1.02287 7.49048 0
M  V30 3527 H 338.69 -0.126928 7.79397 0
M  V30 3528 N 342.919 -1.39368 0.735821 0
M  V30 3529 C 344.335 -1.54204 0.411492 0
M  V30 3530 C 344.535 -1.70268 -1.07755 0
M  V30 3531 O 343.591 -1.70364 -1.86366 0
M  V30 3532 C 344.904 -2.75925 1.19523 0
M  V30 3533 C 346.452 -2.89761 1.18354 0
M  V30 3534 C 346.927 -4.14421 1.94986 0
M  V30 3535 N 348.418 -4.21462 1.92156 0
M  V30 3536 C 349.153 -5.16871 2.48258 0
M  V30 3537 N 348.649 -6.18063 3.13001 0
M  V30 3538 N 350.442 -5.09093 2.38287 0
M  V30 3539 H 342.593 -1.27189 1.70108 0
M  V30 3540 H 344.856 -0.616517 0.720147 0
M  V30 3541 H 344.562 -2.70401 2.24892 0
M  V30 3542 H 344.436 -3.68614 0.800222 0
M  V30 3543 H 346.823 -2.94777 0.137975 0
M  V30 3544 H 346.904 -1.98133 1.61793 0
M  V30 3545 H 346.548 -4.10166 2.99543 0
M  V30 3546 H 346.478 -5.05095 1.48953 0
M  V30 3547 H 348.969 -3.48979 1.44991 0
M  V30 3548 H 349.282 -6.87326 3.53275 0
M  V30 3549 H 347.627 -6.18448 3.17091 0
M  V30 3550 H 350.818 -4.28973 1.8735 0
M  V30 3551 H 350.991 -5.83272 2.82308 0
M  V30 3552 N 344.397 -0.483516 -1.5 0
M  V30 3553 C 345.345 0.318061 -2.30415 0
M  V30 3554 C 346.339 0.978988 -1.38247 0
M  V30 3555 O 347.545 0.908673 -1.55381 0
M  V30 3556 H 343.92 0.121419 -0.742133 0
M  V30 3557 H 345.891 -0.380403 -2.95965 0
M  V30 3558 C 344.64 1.38013 -3.19136 0
M  V30 3559 H 343.963 0.880952 -3.89973 0
M  V30 3560 H 345.403 1.91332 -3.78375 0
M  V30 3561 C 343.862 2.38884 -2.37563 0
M  V30 3562 O 344.392 3.44412 -2.06744 0
M  V30 3563 N 342.598 2.10912 -1.99911 0
M  V30 3564 H 342.145 1.25118 -2.25174 0
M  V30 3565 H 342.103 2.78635 -1.45636 0
M  V30 3566 N 345.875 1.56104 -0.216619 0
M  V30 3567 C 346.838 2.18819 0.681962 0
M  V30 3568 C 347.838 1.14866 1.12528 0
M  V30 3569 O 349.028 1.40128 1.03488 0
M  V30 3570 C 346.16 2.80756 1.93362 0
M  V30 3571 H 347.353 2.99595 0.135254 0
M  V30 3572 H 344.906 1.56265 0.0330003 0
M  V30 3573 H 345.641 2.03837 2.52232 0
M  V30 3574 H 345.426 3.56876 1.62426 0
M  V30 3575 H 346.916 3.28844 2.57393 0
M  V30 3576 N 347.353 -0.0568162 1.57498 0
M  V30 3577 C 348.63 -0.786954 1.79071 0
M  V30 3578 C 349.01 -1.95028 0.80792 0
M  V30 3579 O 348.358 -2.27968 -0.155858 0
M  V30 3580 C 348.568 -1.24594 3.26002 0
M  V30 3581 C 349.916 -1.67323 3.90241 0
M  V30 3582 O 350.94 -1.34124 3.29984 0
M  V30 3583 O 349.799 -2.28842 4.9628 0
M  V30 3584 H 346.893 -0.378262 0.735423 0
M  V30 3585 H 349.439 -0.035734 1.69662 0
M  V30 3586 H 348.211 -0.41423 3.89101 0
M  V30 3587 H 347.834 -2.05803 3.40192 0
M  V30 3588 N 348.832 -1.54138 -0.328536 0
M  V30 3589 C 350.08 -1.71765 -1.06496 0
M  V30 3590 C 350.401 -0.49149 -1.88704 0
M  V30 3591 O 349.671 0.494539 -1.89555 0
M  V30 3592 H 348.251 -0.633295 -0.396164 0
M  V30 3593 H 350.913 -1.91429 -0.366176 0
M  V30 3594 H 350.009 -2.5951 -1.73381 0
M  V30 3595 N 350.31 0.590341 -1.46126 0
M  V30 3596 C 351.24 1.71032 -1.58966 0
M  V30 3597 C 352.221 1.64302 -0.440335 0
M  V30 3598 O 353.406 1.82436 -0.665634 0
M  V30 3599 C 350.536 3.09665 -1.57241 0
M  V30 3600 C 349.49 3.31221 -2.71066 0
M  V30 3601 C 348.816 4.70303 -2.54399 0
M  V30 3602 C 350.116 3.19796 -4.1295 0
M  V30 3603 H 351.81 1.60543 -2.52718 0
M  V30 3604 H 349.356 0.770933 -1.21625 0
M  V30 3605 H 351.309 3.87831 -1.64819 0
M  V30 3606 H 350.033 3.21036 -0.600289 0
M  V30 3607 H 348.692 2.55452 -2.62944 0
M  V30 3608 H 348.34 4.78429 -1.55288 0
M  V30 3609 H 348.04 4.85679 -3.30741 0
M  V30 3610 H 349.564 5.50647 -2.63857 0
M  V30 3611 H 350.978 3.87815 -4.22223 0
M  V30 3612 H 349.375 3.46696 -4.89818 0
M  V30 3613 H 350.445 2.16983 -4.33643 0
M  V30 3614 N 351.788 1.33704 0.83433 0
M  V30 3615 C 353.036 1.25169 1.58673 0
M  V30 3616 C 353.357 -0.18127 1.94156 0
M  V30 3617 O 352.627 -1.11113 1.6134 0
M  V30 3618 H 351.207 0.4603 0.58833 0
M  V30 3619 H 353.869 1.67478 0.996847 0
M  V30 3620 H 352.965 1.84856 2.51465 0
M  V30 3621 N 353.266 -1.05314 1.17247 0
M  V30 3622 C 354.199 -2.12512 0.831507 0
M  V30 3623 C 355.177 -1.61351 -0.201168 0
M  V30 3624 O 356.361 -1.88317 -0.0829831 0
M  V30 3625 C 353.488 -3.37848 0.24015 0
M  V30 3626 C 352.534 -4.07832 1.24801 0
M  V30 3627 S 353.367 -4.56537 2.79882 0
M  V30 3628 C 354.523 -5.85122 2.22223 0
M  V30 3629 H 354.756 -2.41106 1.7394 0
M  V30 3630 H 352.289 -1.17896 0.996988 0
M  V30 3631 H 354.247 -4.10391 -0.0945588 0
M  V30 3632 H 352.908 -3.07392 -0.645668 0
M  V30 3633 H 352.101 -4.97883 0.78287 0
M  V30 3634 H 351.703 -3.41348 1.52831 0
M  V30 3635 H 353.995 -6.58408 1.59703 0
M  V30 3636 H 354.938 -6.36381 3.10523 0
M  V30 3637 H 355.346 -5.39626 1.65722 0
M  V30 3638 N 354.744 -0.972509 -1.24016 0
M  V30 3639 C 355.674 -0.525548 -2.27509 0
M  V30 3640 C 356.655 0.437262 -1.64384 0
M  V30 3641 O 357.84 0.332343 -1.91335 0
M  V30 3642 C 354.97 0.180448 -3.46831 0
M  V30 3643 C 353.924 -0.698859 -4.22256 0
M  V30 3644 C 353.25 0.138903 -5.3452 0
M  V30 3645 C 354.55 -1.98582 -4.83076 0
M  V30 3646 H 356.244 -1.39058 -2.65148 0
M  V30 3647 H 353.79 -0.67009 -1.27459 0
M  V30 3648 H 355.743 0.504387 -4.18371 0
M  V30 3649 H 354.467 1.07987 -3.08231 0
M  V30 3650 H 353.126 -1.00614 -3.52523 0
M  V30 3651 H 352.774 1.03862 -4.9216 0
M  V30 3652 H 352.474 -0.446259 -5.85903 0
M  V30 3653 H 353.998 0.457404 -6.08884 0
M  V30 3654 H 355.412 -1.72715 -5.46665 0
M  V30 3655 H 353.809 -2.5181 -5.44713 0
M  V30 3656 H 354.879 -2.67769 -4.04262 0
M  V30 3657 N 356.222 1.38976 -0.743202 0
M  V30 3658 C 357.468 2.0064 -0.295189 0
M  V30 3659 C 357.801 1.5885 1.11716 0
M  V30 3660 O 357.076 0.821181 1.76315 0
M  V30 3661 C 357.359 3.578 -0.406318 0
M  V30 3662 C 357.212 4.09586 -1.85903 0
M  V30 3663 C 358.531 4.39616 0.206439 0
M  V30 3664 H 355.65 0.728935 -0.108733 0
M  V30 3665 H 358.292 1.65067 -0.940897 0
M  V30 3666 H 356.442 3.88235 0.143419 0
M  V30 3667 H 358.114 3.89837 -2.46627 0
M  V30 3668 H 356.357 3.6284 -2.3776 0
M  V30 3669 H 357.028 5.18708 -1.888 0
M  V30 3670 H 359.504 4.15273 -0.262283 0
M  V30 3671 H 358.38 5.48812 0.0983819 0
M  V30 3672 H 358.641 4.22754 1.2935 0
M  V30 3673 N 357.7 0.491464 1.49741 0
M  V30 3674 C 358.663 -0.280906 2.27472 0
M  V30 3675 C 359.663 -0.902454 1.33088 0
M  V30 3676 O 360.853 -0.768465 1.56334 0
M  V30 3677 C 357.985 -1.40209 3.10732 0
M  V30 3678 H 359.178 0.401056 2.97206 0
M  V30 3679 H 356.731 0.246131 1.5435 0
M  V30 3680 H 357.466 -2.11849 2.45541 0
M  V30 3681 H 357.251 -0.961969 3.80117 0
M  V30 3682 H 358.741 -1.9464 3.69466 0
M  V30 3683 N 359.178 -1.55987 0.224894 0
M  V30 3684 C 360.11 -2.17722 -0.716224 0
M  V30 3685 C 361.123 -1.14723 -1.15509 0
M  V30 3686 O 362.312 -1.41688 -1.08567 0
M  V30 3687 C 359.412 -2.74873 -1.98238 0
M  V30 3688 C 358.585 -4.03074 -1.69853 0
M  V30 3689 C 357.644 -4.44757 -2.81208 0
M  V30 3690 O 356.67 -5.11587 -2.49534 0
M  V30 3691 N 357.872 -4.10716 -4.10235 0
M  V30 3692 H 360.637 -2.99109 -0.188123 0
M  V30 3693 H 358.198 -1.6184 0.0440123 0
M  V30 3694 H 360.19 -2.99727 -2.7193 0
M  V30 3695 H 358.76 -1.9777 -2.42086 0
M  V30 3696 H 357.98 -3.86041 -0.797875 0
M  V30 3697 H 359.268 -4.86701 -1.48324 0
M  V30 3698 H 358.666 -3.57019 -4.38809 0
M  V30 3699 H 357.223 -4.40455 -4.80461 0
M  V30 3700 N 360.656 0.0484629 -1.57525 0
M  V30 3701 C 361.619 1.03956 -2.04269 0
M  V30 3702 C 362.619 1.30211 -0.943496 0
M  V30 3703 O 363.809 1.25539 -1.20771 0
M  V30 3704 C 360.941 2.37742 -2.44319 0
M  V30 3705 H 362.134 0.636182 -2.93075 0
M  V30 3706 H 359.687 0.294811 -1.53494 0
M  V30 3707 H 360.422 2.82866 -1.5861 0
M  V30 3708 H 360.207 2.20021 -3.24551 0
M  V30 3709 H 361.697 3.08936 -2.80978 0
M  V30 3710 N 362.134 1.5431 0.320358 0
M  V30 3711 C 363.097 1.83195 1.3774 0
M  V30 3712 C 364.097 0.703906 1.44575 0
M  V30 3713 O 365.287 0.972214 1.44546 0
M  V30 3714 C 362.419 1.99487 2.76438 0
M  V30 3715 H 363.612 2.77642 1.1338 0
M  V30 3716 H 361.165 1.46076 0.556012 0
M  V30 3717 H 361.9 1.07262 3.06048 0
M  V30 3718 H 361.685 2.81575 2.7287 0
M  V30 3719 H 363.175 2.23271 3.52902 0
M  V30 3720 N 363.613 -0.582584 1.46437 0
M  V30 3721 C 364.563 -1.68654 1.53426 0
M  V30 3722 C 365.547 -1.55971 0.395194 0
M  V30 3723 O 366.739 -1.64884 0.643612 0
M  V30 3724 C 363.868 -3.07439 1.52762 0
M  V30 3725 C 362.954 -3.25418 2.71963 0
M  V30 3726 N 363.345 -3.13556 3.96883 0
M  V30 3727 C 361.643 -3.56357 2.68189 0
M  V30 3728 C 362.344 -3.33543 4.76575 0
M  V30 3729 N 361.32 -3.58704 4.08451 0
M  V30 3730 H 365.122 -1.58014 2.47808 0
M  V30 3731 H 362.636 -0.786617 1.42078 0
M  V30 3732 H 364.633 -3.86671 1.55857 0
M  V30 3733 H 363.293 -3.1921 0.594573 0
M  V30 3734 H 364.304 -2.9142 4.28129 0
M  V30 3735 H 360.981 -3.74812 1.83908 0
M  V30 3736 H 362.371 -3.29555 5.85528 0
M  V30 3737 N 365.091 -1.34144 -0.827227 0
M  V30 3738 C 366.054 -1.25264 -1.91942 0
M  V30 3739 C 367.054 -0.168866 -1.59911 0
M  V30 3740 O 368.244 -0.421198 -1.69031 0
M  V30 3741 C 365.376 -0.932952 -3.27885 0
M  V30 3742 H 366.569 -2.22357 -2.0124 0
M  V30 3743 H 364.122 -1.1837 -1.0207 0
M  V30 3744 H 364.857 0.0349917 -3.24281 0
M  V30 3745 H 364.642 -1.71682 -3.52516 0
M  V30 3746 H 366.132 -0.895874 -4.07877 0
M  V30 3747 N 366.569 1.04691 -1.17803 0
M  V30 3748 C 367.816 1.77782 -0.969532 0
M  V30 3749 C 368.144 1.87926 0.501401 0
M  V30 3750 O 367.399 1.37918 1.38842 0
M  V30 3751 C 367.698 3.21467 -1.56186 0
M  V30 3752 C 367.364 3.3137 -3.05786 0
M  V30 3753 C 366.026 3.3378 -3.46619 0
M  V30 3754 C 368.378 3.31976 -4.01797 0
M  V30 3755 C 365.706 3.34431 -4.82051 0
M  V30 3756 C 368.058 3.34167 -5.37136 0
M  V30 3757 C 366.722 3.34866 -5.77426 0
M  V30 3758 H 365.992 0.650549 -0.354777 0
M  V30 3759 H 368.639 1.23006 -1.46772 0
M  V30 3760 H 366.944 3.79203 -0.985515 0
M  V30 3761 H 368.641 3.76652 -1.37602 0
M  V30 3762 H 365.231 3.3021 -2.73238 0
M  V30 3763 H 369.415 3.29311 -3.71306 0
M  V30 3764 H 364.671 3.33285 -5.12573 0
M  V30 3765 H 368.845 3.33585 -6.11305 0
M  V30 3766 H 366.472 3.35124 -6.82346 0
M  V30 3767 N 368.047 0.979072 1.23499 0
M  V30 3768 C 368.977 0.537606 2.27227 0
M  V30 3769 C 369.958 -0.428539 1.64613 0
M  V30 3770 O 371.143 -0.322191 1.91509 0
M  V30 3771 C 368.273 -0.162052 3.46922 0
M  V30 3772 C 367.227 0.721242 4.21879 0
M  V30 3773 C 366.553 -0.110555 5.34586 0
M  V30 3774 C 367.853 2.01141 4.82016 0
M  V30 3775 H 369.547 1.40462 2.64406 0
M  V30 3776 H 367.093 0.67684 1.27102 0
M  V30 3777 H 369.046 -0.482192 4.18632 0
M  V30 3778 H 367.77 -1.06351 3.08799 0
M  V30 3779 H 366.429 1.02482 3.51984 0
M  V30 3780 H 366.077 -1.0125 4.92704 0
M  V30 3781 H 365.777 0.477325 5.85658 0
M  V30 3782 H 367.301 -0.425107 6.09118 0
M  V30 3783 H 368.715 1.75612 5.45741 0
M  V30 3784 H 367.112 2.54695 5.43369 0
M  V30 3785 H 368.182 2.69909 4.02836 0
M  V30 3786 N 369.525 -1.3858 0.750561 0
M  V30 3787 C 370.455 -2.33102 0.136237 0
M  V30 3788 C 371.436 -1.54713 -0.706965 0
M  V30 3789 O 372.621 -1.83043 -0.648769 0
M  V30 3790 C 369.751 -3.38882 -0.760017 0
M  V30 3791 C 368.705 -4.27995 -0.0197785 0
M  V30 3792 C 368.031 -5.24605 -1.03408 0
M  V30 3793 C 369.331 -5.09554 1.14684 0
M  V30 3794 H 371.025 -2.84726 0.925822 0
M  V30 3795 H 368.571 -1.36898 0.446654 0
M  V30 3796 H 370.524 -4.0397 -1.19943 0
M  V30 3797 H 369.248 -2.85734 -1.58189 0
M  V30 3798 H 367.907 -3.64409 0.400184 0
M  V30 3799 H 367.555 -4.67746 -1.84994 0
M  V30 3800 H 367.255 -5.85081 -0.543464 0
M  V30 3801 H 368.779 -5.9257 -1.47288 0
M  V30 3802 H 370.193 -5.67899 0.785118 0
M  V30 3803 H 368.59 -5.7925 1.56812 0
M  V30 3804 H 369.66 -4.4347 1.96118 0
M  V30 3805 N 371.003 -0.499398 -1.49478 0
M  V30 3806 C 372.249 0.0377587 -2.03365 0
M  V30 3807 C 372.604 1.3484 -1.37244 0
M  V30 3808 O 371.897 1.85 -0.498547 0
M  V30 3809 C 372.091 0.248424 -3.56536 0
M  V30 3810 C 371.92 -1.04025 -4.37503 0
M  V30 3811 C 370.69 -1.59159 -4.79579 0
M  V30 3812 C 372.888 -1.9431 -4.76181 0
M  V30 3813 N 370.87 -2.82634 -5.44969 0
M  V30 3814 C 372.241 -3.02364 -5.41272 0
M  V30 3815 C 374.296 -1.95008 -4.58123 0
M  V30 3816 C 372.999 -4.1114 -5.90217 0
M  V30 3817 C 375.025 -3.02758 -5.08027 0
M  V30 3818 C 374.387 -4.09531 -5.73118 0
M  V30 3819 H 370.486 -0.026923 -0.781536 0
M  V30 3820 H 373.07 -0.673901 -1.82665 0
M  V30 3821 H 371.241 0.929139 -3.77123 0
M  V30 3822 H 372.973 0.782445 -3.97064 0
M  V30 3823 H 369.728 -1.13696 -4.5975 0
M  V30 3824 H 370.152 -3.45416 -5.82252 0
M  V30 3825 H 374.794 -1.13766 -4.07207 0
M  V30 3826 H 372.512 -4.93181 -6.40155 0
M  V30 3827 H 376.098 -3.04315 -4.95866 0
M  V30 3828 H 374.978 -4.91534 -6.11035 0
M  V30 3829 N 372.481 1.55866 -0.233164 0
M  V30 3830 C 373.431 2.17442 0.685774 0
M  V30 3831 C 374.415 1.12617 1.14918 0
M  V30 3832 O 375.607 1.3857 1.10124 0
M  V30 3833 C 372.736 2.86685 1.88856 0
M  V30 3834 C 371.822 3.98749 1.4443 0
M  V30 3835 N 372.213 5.00744 0.713364 0
M  V30 3836 C 370.511 4.11052 1.73068 0
M  V30 3837 C 371.212 5.79673 0.485205 0
M  V30 3838 N 370.188 5.33454 1.04536 0
M  V30 3839 H 373.99 2.93659 0.119022 0
M  V30 3840 H 371.504 1.62362 -0.0348995 0
M  V30 3841 H 373.501 3.29218 2.55776 0
M  V30 3842 H 372.161 2.11967 2.45967 0
M  V30 3843 H 373.172 5.16613 0.364861 0
M  V30 3844 H 369.849 3.47495 2.31416 0
M  V30 3845 H 371.239 6.71829 -0.097365 0
M  V30 3846 N 373.959 -0.0401083 1.57549 0
M  V30 3847 C 375.207 -0.731677 1.8839 0
M  V30 3848 C 375.528 -1.76481 0.829425 0
M  V30 3849 O 374.798 -1.95411 -0.1383 0
M  V30 3850 H 373.378 -0.273225 0.695239 0
M  V30 3851 H 376.04 -0.00867725 1.94898 0
M  V30 3852 H 375.136 -1.22816 2.86919 0
M  V30 3853 N 375.437 -1.54477 -0.31217 0
M  V30 3854 C 376.683 -1.73483 -1.0503 0
M  V30 3855 C 377.016 -0.513125 -1.87298 0
M  V30 3856 O 376.291 0.489864 -1.8823 0
M  V30 3857 C 376.574 -3.01723 -1.96558 0
M  V30 3858 C 376.427 -4.3417 -1.17545 0
M  V30 3859 C 377.746 -3.25772 -2.95907 0
M  V30 3860 H 374.865 -0.631222 -0.380432 0
M  V30 3861 H 377.507 -1.87184 -0.325932 0
M  V30 3862 H 375.657 -2.90174 -2.58324 0
M  V30 3863 H 377.329 -4.5762 -0.581513 0
M  V30 3864 H 375.572 -4.31159 -0.477925 0
M  V30 3865 H 376.243 -5.20143 -1.84811 0
M  V30 3866 H 378.719 -3.36857 -2.44267 0
M  V30 3867 H 377.595 -4.16838 -3.57123 0
M  V30 3868 H 377.856 -2.43537 -3.68974 0
M  V30 3869 N 376.915 0.57481 -1.46744 0
M  V30 3870 C 377.845 1.69337 -1.60771 0
M  V30 3871 C 378.826 1.63825 -0.457736 0
M  V30 3872 O 380.011 1.8172 -0.684947 0
M  V30 3873 C 377.141 3.0798 -1.60517 0
M  V30 3874 C 376.095 3.28327 -2.74564 0
M  V30 3875 C 375.421 4.67578 -2.59373 0
M  V30 3876 C 376.721 3.15398 -4.16319 0
M  V30 3877 H 378.415 1.57853 -2.54407 0
M  V30 3878 H 375.961 0.75799 -1.22436 0
M  V30 3879 H 377.914 3.86061 -1.68923 0
M  V30 3880 H 376.638 3.20381 -0.634305 0
M  V30 3881 H 375.297 2.52649 -2.65639 0
M  V30 3882 H 374.945 4.76755 -1.60353 0
M  V30 3883 H 374.645 4.82144 -3.35873 0
M  V30 3884 H 376.169 5.47817 -2.69682 0
M  V30 3885 H 377.583 3.83315 -4.26313 0
M  V30 3886 H 375.98 3.41482 -4.93468 0
M  V30 3887 H 377.05 2.12372 -4.3592 0
M  V30 3888 N 378.394 1.34581 0.820102 0
M  V30 3889 C 379.805 1.24298 1.39309 0
M  V30 3890 C 380.156 -0.130351 1.95767 0
M  V30 3891 O 379.281 -1.0308 1.90272 0
M  V30 3892 C 379.876 2.25054 2.53251 0
M  V30 3893 C 378.435 2.18552 3.0645 0
M  V30 3894 C 377.582 2.11503 1.79337 0
M  V30 3895 H 380.533 1.45906 0.624262 0
M  V30 3896 H 380.554 1.86917 3.31425 0
M  V30 3897 H 380.066 3.24996 2.1213 0
M  V30 3898 H 378.167 1.21976 3.52069 0
M  V30 3899 H 378.28 3.0993 3.65349 0
M  V30 3900 H 376.644 1.57268 2.00347 0
M  V30 3901 H 377.427 3.13284 1.40386 0
M  V30 3902 N 379.872 -1.04064 1.18357 0
M  V30 3903 C 381.149 -1.74252 0.888581 0
M  V30 3904 C 381.529 -2.02138 -0.60856 0
M  V30 3905 O 380.877 -1.66656 -1.56327 0
M  V30 3906 C 381.087 -3.0277 1.73584 0
M  V30 3907 C 382.435 -3.76506 1.96286 0
M  V30 3908 O 383.459 -3.12668 1.70637 0
M  V30 3909 O 382.318 -4.91243 2.39464 0
M  V30 3910 H 379.412 -0.758271 0.330082 0
M  V30 3911 H 381.958 -1.1013 1.2911 0
M  V30 3912 H 380.73 -2.78299 2.75073 0
M  V30 3913 H 380.353 -3.74631 1.33183 0
M  V30 3914 N 381.35 -0.985608 -1.22978 0
M  V30 3915 C 382.596 -0.65836 -1.91816 0
M  V30 3916 C 382.929 0.806692 -1.76653 0
M  V30 3917 O 382.204 1.58252 -1.13078 0
M  V30 3918 C 382.487 -1.056 -3.44268 0
M  V30 3919 C 382.34 -2.57906 -3.68516 0
M  V30 3920 C 383.659 -0.603781 -4.35939 0
M  V30 3921 H 380.778 -0.24065 -0.696604 0
M  V30 3922 H 383.42 -1.22783 -1.44998 0
M  V30 3923 H 381.57 -0.571445 -3.84274 0
M  V30 3924 H 383.242 -3.13976 -3.3796 0
M  V30 3925 H 381.485 -3.00305 -3.13048 0
M  V30 3926 H 382.156 -2.80779 -4.75255 0
M  V30 3927 H 384.632 -1.01987 -4.03408 0
M  V30 3928 H 383.508 -0.910383 -5.41298 0
M  V30 3929 H 383.769 0.495761 -4.39312 0
M  V30 3930 N 382.828 1.3818 -0.7579 0
M  V30 3931 C 383.738 2.3421 -0.135247 0
M  V30 3932 C 384.754 1.59487 0.695683 0
M  V30 3933 O 385.93 1.91657 0.618832 0
M  V30 3934 C 382.995 3.3862 0.744139 0
M  V30 3935 C 382.056 4.2918 -0.101658 0
M  V30 3936 C 381.289 5.28603 0.735851 0
M  V30 3937 O 381.512 5.35166 1.97366 0
M  V30 3938 O 380.446 6.01707 0.152372 0
M  V30 3939 H 384.272 2.8916 -0.928436 0
M  V30 3940 H 381.857 1.40101 -0.518855 0
M  V30 3941 H 383.739 4.02539 1.2466 0
M  V30 3942 H 382.414 2.86019 1.51575 0
M  V30 3943 H 381.321 3.68407 -0.650167 0
M  V30 3944 H 382.654 4.85048 -0.836024 0
M  V30 3945 N 384.306 0.507319 1.49211 0
M  V30 3946 C 385.717 0.0611118 1.866 0
M  V30 3947 C 386.068 -1.35488 1.41907 0
M  V30 3948 O 385.193 -2.0108 0.799726 0
M  V30 3949 C 385.788 0.104125 3.3864 0
M  V30 3950 C 384.347 -0.28677 3.75306 0
M  V30 3951 C 383.494 0.473893 2.73221 0
M  V30 3952 H 386.445 0.719775 1.41439 0
M  V30 3953 H 386.466 -0.689672 3.74198 0
M  V30 3954 H 385.978 1.13482 3.71138 0
M  V30 3955 H 384.079 -1.32046 3.48417 0
M  V30 3956 H 384.192 0.0370745 4.79086 0
M  V30 3957 H 382.556 -0.0770644 2.54583 0
M  V30 3958 H 383.339 1.50478 3.08563 0
M  V30 3959 N 385.784 -1.5574 0.241426 0
M  V30 3960 C 387.03 -1.99104 -0.385406 0
M  V30 3961 C 387.363 -1.1293 -1.57988 0
M  V30 3962 O 386.638 -0.191449 -1.93555 0
M  V30 3963 C 386.921 -3.51087 -0.800616 0
M  V30 3964 C 386.774 -4.48028 0.398874 0
M  V30 3965 C 388.093 -4.08015 -1.64959 0
M  V30 3966 H 385.212 -0.723848 -0.138614 0
M  V30 3967 H 387.854 -1.86903 0.341642 0
M  V30 3968 H 386.004 -3.61615 -1.4201 0
M  V30 3969 H 387.676 -4.49487 1.03726 0
M  V30 3970 H 385.919 -4.21077 1.04293 0
M  V30 3971 H 386.59 -5.51962 0.0651056 0
M  V30 3972 H 389.066 -4.00555 -1.12672 0
M  V30 3973 H 387.942 -5.14635 -1.90898 0
M  V30 3974 H 388.203 -3.56131 -2.61961 0
M  V30 3975 N 387.262 0.0317525 -1.57568 0
M  V30 3976 C 388.511 0.722131 -1.8833 0
M  V30 3977 C 388.824 1.76664 -0.839587 0
M  V30 3978 O 390.03 2.50942 -1.03635 0
M  V30 3979 C 388.486 1.33544 -3.34207 0
M  V30 3980 C 388.094 0.327415 -4.46802 0
M  V30 3981 C 389.838 2.00585 -3.7412 0
M  V30 3982 C 387.745 0.948915 -5.83738 0
M  V30 3983 H 386.675 0.273466 -0.702661 0
M  V30 3984 H 389.326 -0.0235811 -1.83485 0
M  V30 3985 H 387.708 2.13077 -3.33788 0
M  V30 3986 H 388.882 -0.441006 -4.58685 0
M  V30 3987 H 387.197 -0.240758 -4.15703 0
M  V30 3988 H 389.794 2.47932 -4.73744 0
M  V30 3989 H 390.137 2.82285 -3.05975 0
M  V30 3990 H 390.67 1.27831 -3.76702 0
M  V30 3991 H 387.409 0.171387 -6.55276 0
M  V30 3992 H 386.929 1.68724 -5.7558 0
M  V30 3993 H 388.608 1.45705 -6.3038 0
M  V30 3994 N 388.74 1.54641 0.303973 0
M  V30 3995 C 389.687 1.85386 1.37479 0
M  V30 3996 C 390.657 0.702528 1.50512 0
M  V30 3997 O 391.842 0.950867 1.65418 0
M  V30 3998 C 388.982 2.10413 2.73533 0
M  V30 3999 C 388.095 3.38049 2.68974 0
M  V30 4000 C 387.23 3.52934 3.97002 0
M  V30 4001 C 386.269 4.74373 3.86829 0
M  V30 4002 N 385.406 4.8608 5.06627 0
M  V30 4003 H 390.246 2.76732 1.1056 0
M  V30 4004 H 387.783 1.37034 0.534805 0
M  V30 4005 H 389.741 2.22919 3.52652 0
M  V30 4006 H 388.371 1.22338 2.98719 0
M  V30 4007 H 387.423 3.3418 1.81736 0
M  V30 4008 H 388.735 4.27288 2.57346 0
M  V30 4009 H 387.889 3.65088 4.84557 0
M  V30 4010 H 386.628 2.61824 4.1146 0
M  V30 4011 H 385.633 4.62255 2.97658 0
M  V30 4012 H 386.858 5.66888 3.73918 0
M  V30 4013 H 384.804 3.97891 5.21554 0
M  V30 4014 H 384.721 5.69315 4.9741 0
M  V30 4015 H 385.989 5.02587 5.95841 0
M  V30 4016 N 390.218 -0.567019 1.47046 0
M  V30 4017 C 391.15 -1.68985 1.54844 0
M  V30 4018 C 392.163 -1.56869 0.435431 0
M  V30 4019 O 393.352 -1.64006 0.70457 0
M  V30 4020 C 390.452 -3.07373 1.42742 0
M  V30 4021 C 389.625 -3.45339 2.6844 0
M  V30 4022 C 388.684 -4.62849 2.50314 0
M  V30 4023 O 387.71 -4.67922 3.24095 0
M  V30 4024 N 388.912 -5.58726 1.57499 0
M  V30 4025 H 391.677 -1.62745 2.51663 0
M  V30 4026 H 389.238 -0.753411 1.43302 0
M  V30 4027 H 391.23 -3.83803 1.28365 0
M  V30 4028 H 389.8 -3.07893 0.540445 0
M  V30 4029 H 389.02 -2.58455 2.97648 0
M  V30 4030 H 390.308 -3.67476 3.51907 0
M  V30 4031 H 389.706 -5.57376 0.966876 0
M  V30 4032 H 388.263 -6.34523 1.49078 0
M  V30 4033 N 391.696 -1.35014 -0.812953 0
M  V30 4034 C 392.626 -1.30069 -1.93919 0
M  V30 4035 C 393.607 -0.176275 -1.69184 0
M  V30 4036 O 394.792 -0.370227 -1.90638 0
M  V30 4037 C 391.922 -1.06547 -3.30552 0
M  V30 4038 C 390.876 -2.15561 -3.69753 0
M  V30 4039 C 390.202 -1.77214 -5.04479 0
M  V30 4040 C 391.502 -3.57476 -3.808 0
M  V30 4041 H 393.196 -2.24303 -1.98314 0
M  V30 4042 H 390.742 -1.07977 -0.952736 0
M  V30 4043 H 392.695 -1.01729 -4.08937 0
M  V30 4044 H 391.419 -0.0875719 -3.26483 0
M  V30 4045 H 390.078 -2.19466 -2.9365 0
M  V30 4046 H 389.726 -0.780589 -4.96906 0
M  V30 4047 H 389.426 -2.50184 -5.31678 0
M  V30 4048 H 390.95 -1.7391 -5.8531 0
M  V30 4049 H 392.364 -3.55929 -4.4943 0
M  V30 4050 H 390.761 -4.29152 -4.19462 0
M  V30 4051 H 391.831 -3.94091 -2.82525 0
M  V30 4052 N 393.175 1.03435 -1.18907 0
M  V30 4053 C 394.107 2.1165 -0.879595 0
M  V30 4054 C 395.12 1.62316 0.125439 0
M  V30 4055 O 396.309 1.78201 -0.103245 0
M  V30 4056 C 393.409 3.37622 -0.294042 0
M  V30 4057 C 392.582 4.16166 -1.34629 0
M  V30 4058 C 391.641 5.20457 -0.775274 0
M  V30 4059 O 390.667 5.50379 -1.4516 0
M  V30 4060 N 391.869 5.78949 0.424126 0
M  V30 4061 H 394.634 2.38791 -1.81105 0
M  V30 4062 H 392.195 1.19681 -1.09032 0
M  V30 4063 H 394.187 4.04572 0.101679 0
M  V30 4064 H 392.757 3.07873 0.541575 0
M  V30 4065 H 391.977 3.44444 -1.91707 0
M  V30 4066 H 393.265 4.65432 -2.05549 0
M  V30 4067 H 392.663 5.56948 0.991209 0
M  V30 4068 H 391.22 6.47334 0.761691 0
M  V30 4069 N 394.653 0.992116 1.22453 0
M  V30 4070 C 395.563 0.55065 2.28046 0
M  V30 4071 C 396.579 -0.400189 1.69335 0
M  V30 4072 O 397.755 -0.267215 1.99619 0
M  V30 4073 C 394.82 -0.128496 3.46462 0
M  V30 4074 C 393.881 0.865208 4.20491 0
M  V30 4075 C 393.114 0.218377 5.33253 0
M  V30 4076 O 393.337 -0.987894 5.6178 0
M  V30 4077 O 392.271 0.922845 5.94783 0
M  V30 4078 H 396.097 1.4291 2.67975 0
M  V30 4079 H 393.682 0.760326 1.28606 0
M  V30 4080 H 395.564 -0.508947 4.18315 0
M  V30 4081 H 394.239 -0.981526 3.0846 0
M  V30 4082 H 393.146 1.29658 3.50913 0
M  V30 4083 H 394.479 1.68741 4.62371 0
M  V30 4084 N 396.131 -1.37776 0.765217 0
M  V30 4085 C 397.041 -2.34135 0.147666 0
M  V30 4086 C 398.057 -1.59854 -0.687215 0
M  V30 4087 O 399.233 -1.91983 -0.608659 0
M  V30 4088 C 396.298 -3.3901 -0.72617 0
M  V30 4089 C 395.359 -4.2912 0.124417 0
M  V30 4090 C 394.592 -5.28986 -0.707807 0
M  V30 4091 O 394.815 -5.36205 -1.94525 0
M  V30 4092 O 393.749 -6.01779 -0.12046 0
M  V30 4093 H 397.575 -2.88664 0.943758 0
M  V30 4094 H 395.16 -1.39824 0.526277 0
M  V30 4095 H 397.042 -4.03195 -1.22524 0
M  V30 4096 H 395.717 -2.86819 -1.50056 0
M  V30 4097 H 394.624 -3.68057 0.669696 0
M  V30 4098 H 395.957 -4.84598 0.861736 0
M  V30 4099 N 397.609 -0.515225 -1.4894 0
M  V30 4100 C 398.539 0.244628 -2.32215 0
M  V30 4101 C 399.52 0.949136 -1.41157 0
M  V30 4102 O 400.705 0.937783 -1.70057 0
M  V30 4103 C 397.835 1.30096 -3.22013 0
M  V30 4104 C 396.789 0.715486 -4.21977 0
M  V30 4105 C 396.115 1.87339 -5.00808 0
M  V30 4106 C 397.415 -0.302982 -5.2142 0
M  V30 4107 H 399.109 -0.450501 -2.95991 0
M  V30 4108 H 396.655 -0.218098 -1.42339 0
M  V30 4109 H 398.608 1.84037 -3.79089 0
M  V30 4110 H 397.332 2.02547 -2.56207 0
M  V30 4111 H 395.991 0.197715 -3.66066 0
M  V30 4112 H 395.639 2.58592 -4.31438 0
M  V30 4113 H 395.339 1.48764 -5.68457 0
M  V30 4114 H 396.863 2.41686 -5.60732 0
M  V30 4115 H 398.277 0.148802 -5.73107 0
M  V30 4116 H 396.674 -0.60532 -5.97039 0
M  V30 4117 H 397.744 -1.21395 -4.69459 0
M  V30 4118 N 399.087 1.5561 -0.249682 0
M  V30 4119 C 400.312 2.03865 0.381305 0
M  V30 4120 C 400.737 1.12769 1.50548 0
M  V30 4121 O 400.095 0.121189 1.80895 0
M  V30 4122 C 400.143 3.50101 0.863816 0
M  V30 4123 O 399.247 3.62132 1.97318 0
M  V30 4124 H 398.588 0.658827 0.0827194 0
M  V30 4125 H 401.118 2.01105 -0.376552 0
M  V30 4126 H 401.128 3.90975 1.1663 0
M  V30 4127 H 399.803 4.1588 0.0411816 0
M  V30 4128 H 398.38 3.33155 1.67517 0
M  V30 4129 N 400.565 -0.0233959 1.57583 0
M  V30 4130 C 401.528 -1.00693 2.05897 0
M  V30 4131 C 402.528 -1.28693 0.964092 0
M  V30 4132 O 403.718 -1.23602 1.22753 0
M  V30 4133 C 400.85 -2.33825 2.4807 0
M  V30 4134 H 402.043 -0.589476 2.9405 0
M  V30 4135 H 399.596 -0.270354 1.53944 0
M  V30 4136 H 400.331 -2.80307 1.6309 0
M  V30 4137 H 400.116 -2.1483 3.2801 0
M  V30 4138 H 401.606 -3.04426 2.85857 0
M  V30 4139 O 402.082 -1.60643 -0.16613 0
M  V30 4140 H 402.773 -1.76304 -0.80228 0
M  V30 END ATOM
M  V30 BEGIN BOND
M  V30 END BOND
M  V30 END CTAB
M  END
$$$$
