drugbank_target|P56817 Beta-secretase 1 (DB02378; DB06073; DB06930; DB07019; DB07089; DB07110; DB07175; DB07206; DB07245; DB07281; DB07284; DB07303; DB07345; DB07346; DB07415; DB07519; DB07535; DB07573; DB07734; DB07735; DB07736; DB07737; DB07738; DB07874; DB07993; DB07994; DB08749; DB12285)
 OpenBabel12092119453D

  0  0  0     0  0            999 V3000
M  V30 BEGIN CTAB
M  V30 COUNTS 7766 7865 0 0 0
M  V30 BEGIN ATOM
M  V30 1 H -0.908 1.98254 -0.117106 0
M  V30 2 N 0 1.576 0 0
M  V30 3 C 0.933 2.03868 1.02534 0
M  V30 4 C 1.911 0.928543 1.3348 0
M  V30 5 O 3.095 1.19667 1.45644 0
M  V30 6 C 0.222 2.43627 2.35294 0
M  V30 7 C -0.732 3.65373 2.2001 0
M  V30 8 S 0.101 5.13292 1.52614 0
M  V30 9 C 1.257 5.56322 2.86805 0
M  V30 10 H 1.49 2.90518 0.631377 0
M  V30 11 H -0.977 1.52953 0.210867 0
M  V30 12 H 0.981 2.67203 3.11629 0
M  V30 13 H -0.358 1.57376 2.7183 0
M  V30 14 H -1.165 3.90944 3.18086 0
M  V30 15 H -1.563 3.418 1.51819 0
M  V30 16 H 0.729 5.58782 3.83104 0
M  V30 17 H 1.672 6.56266 2.65933 0
M  V30 18 H 2.08 4.83886 2.90714 0
M  V30 19 N 1.4781 -0.272755 1.55222 0
M  V30 20 C 2.4411 -1.32041 1.87344 0
M  V30 21 C 3.4411 -1.42342 0.74803 0
M  V30 22 O 4.6311 -1.41488 1.0162 0
M  V30 23 C 1.7631 -2.70173 2.07893 0
M  V30 24 H 2.9561 -1.04789 2.80997 0
M  V30 25 H 0.5091 -0.51083 1.47717 0
M  V30 26 H 1.2441 -3.02605 1.16622 0
M  V30 27 H 1.0291 -2.64082 2.89833 0
M  V30 28 H 2.5191 -3.45869 2.34017 0
M  V30 29 N 2.9562 -1.48159 -0.537278 0
M  V30 30 C 3.8882 -1.58218 -1.65831 0
M  V30 31 C 4.9012 -0.466948 -1.5596 0
M  V30 32 O 6.0902 -0.73747 -1.62553 0
M  V30 33 C 3.1902 -1.48906 -3.04434 0
M  V30 34 C 2.3632 -2.75343 -3.3986 0
M  V30 35 C 1.4222 -2.59588 -4.57712 0
M  V30 36 O 0.4482 -3.33457 -4.61297 0
M  V30 37 N 1.6502 -1.68724 -5.55439 0
M  V30 38 H 4.4152 -2.54891 -1.57641 0
M  V30 39 H 1.9762 -1.4479 -0.724386 0
M  V30 40 H 3.9682 -1.36072 -3.81139 0
M  V30 41 H 2.5382 -0.602368 -3.06741 0
M  V30 42 H 1.7582 -3.02795 -2.52406 0
M  V30 43 H 3.0462 -3.5924 -3.60311 0
M  V30 44 H 2.4442 -1.07898 -5.55315 0
M  V30 45 H 1.0012 -1.61832 -6.3139 0
M  V30 46 N 4.4343 0.785586 -1.36625 0
M  V30 47 C 5.3973 1.87999 -1.31107 0
M  V30 48 C 6.3973 1.59316 -0.217959 0
M  V30 49 O 7.5873 1.67656 -0.472977 0
M  V30 50 C 4.7193 3.24861 -1.03334 0
M  V30 51 H 5.9123 1.94307 -2.2844 0
M  V30 52 H 3.4653 0.983813 -1.21453 0
M  V30 53 H 4.2003 3.24235 -0.0647432 0
M  V30 54 H 3.9853 3.4707 -1.82441 0
M  V30 55 H 5.4753 4.04929 -1.02088 0
M  V30 56 N 5.9124 1.20967 1.01018 0
M  V30 57 C 6.8424 0.988272 2.11555 0
M  V30 58 C 7.8234 -0.0849778 1.69888 0
M  V30 59 O 9.0084 0.0738202 1.9406 0
M  V30 60 C 6.1384 0.546528 3.42973 0
M  V30 61 C 5.0924 1.56375 3.9841 0
M  V30 62 C 4.4184 0.97842 5.25672 0
M  V30 63 C 5.7184 2.94922 4.31066 0
M  V30 64 H 7.4124 1.91276 2.30334 0
M  V30 65 H 4.9584 0.921073 1.1069 0
M  V30 66 H 6.9114 0.378839 4.19694 0
M  V30 67 H 5.6354 -0.413598 3.23971 0
M  V30 68 H 4.2944 1.71891 3.23804 0
M  V30 69 H 3.9424 0.0101688 5.02999 0
M  V30 70 H 3.6424 1.65784 5.63728 0
M  V30 71 H 5.1664 0.821939 6.05043 0
M  V30 72 H 6.5804 2.8288 4.9865 0
M  V30 73 H 4.9774 3.5983 4.80253 0
M  V30 74 H 6.0474 3.4616 3.39561 0
M  V30 75 N 7.3905 -1.2043 1.01659 0
M  V30 76 C 8.8015 -1.71517 0.737482 0
M  V30 77 C 9.1525 -1.81547 -0.743973 0
M  V30 78 O 8.2775 -1.47803 -1.58061 0
M  V30 79 C 8.8725 -3.11515 1.33206 0
M  V30 80 C 7.4315 -3.59912 1.10183 0
M  V30 81 C 6.5785 -2.37116 1.43776 0
M  V30 82 H 9.5295 -1.05444 1.18606 0
M  V30 83 H 9.5505 -3.73575 0.722636 0
M  V30 84 H 9.0625 -3.04182 2.41028 0
M  V30 85 H 7.1635 -3.72577 0.0412756 0
M  V30 86 H 7.2765 -4.44731 1.78188 0
M  V30 87 H 5.6405 -2.39857 0.856778 0
M  V30 88 H 6.4235 -2.32424 2.52654 0
M  V30 89 N 8.8686 -0.792821 -1.36206 0
M  V30 90 C 10.1146 -0.376415 -1.99887 0
M  V30 91 C 10.4696 1.04127 -1.61788 0
M  V30 92 O 9.7626 1.71004 -0.864193 0
M  V30 93 C 9.9566 -0.481501 -3.54142 0
M  V30 94 C 9.7856 -1.90786 -4.07223 0
M  V30 95 C 8.5556 -2.53322 -4.37214 0
M  V30 96 C 10.7536 -2.87048 -4.26741 0
M  V30 97 N 8.7356 -3.8751 -4.7614 0
M  V30 98 C 10.1066 -4.06077 -4.6851 0
M  V30 99 C 12.1616 -2.8406 -4.08918 0
M  V30 100 C 10.8646 -5.22532 -4.94321 0
M  V30 101 C 12.8906 -3.99705 -4.35878 0
M  V30 102 C 12.2526 -5.1748 -4.77906 0
M  V30 103 H 8.3516 -0.185226 -0.759747 0
M  V30 104 H 10.9356 -1.03114 -1.65153 0
M  V30 105 H 9.1066 0.143154 -3.88136 0
M  V30 106 H 10.8386 -0.0410128 -4.04679 0
M  V30 107 H 7.5936 -2.04777 -4.2704 0
M  V30 108 H 8.0176 -4.5656 -4.99882 0
M  V30 109 H 12.6596 -1.94165 -3.75579 0
M  V30 110 H 10.3776 -6.1301 -5.2654 0
M  V30 111 H 13.9636 -3.98758 -4.23655 0
M  V30 112 H 12.8436 -6.05478 -4.98363 0
M  V30 113 N 10.3467 1.47872 -0.545128 0
M  V30 114 C 11.2767 2.32661 0.197793 0
M  V30 115 C 12.2577 1.43041 0.920504 0
M  V30 116 O 13.4427 1.71912 0.90333 0
M  V30 117 C 10.5727 3.24569 1.23582 0
M  V30 118 C 9.5267 4.23333 0.630323 0
M  V30 119 C 8.8527 5.0448 1.77211 0
M  V30 120 C 10.1527 5.20704 -0.407974 0
M  V30 121 H 11.8467 2.95024 -0.510045 0
M  V30 122 H 9.3927 1.4187 -0.246731 0
M  V30 123 H 11.3457 3.8272 1.76362 0
M  V30 124 H 10.0697 2.60236 1.97344 0
M  V30 125 H 8.7287 3.6639 0.123922 0
M  V30 126 H 8.3767 4.36561 2.49847 0
M  V30 127 H 8.0767 5.71339 1.37281 0
M  V30 128 H 9.6007 5.65487 2.3034 0
M  V30 129 H 11.0147 5.7329 0.033305 0
M  V30 130 H 9.4117 5.95699 -0.725486 0
M  V30 131 H 10.4817 4.66917 -1.30828 0
M  V30 132 N 11.8248 0.280983 1.55075 0
M  V30 133 C 12.7548 -0.597469 2.25727 0
M  V30 134 C 13.7358 -1.15417 1.24952 0
M  V30 135 O 14.9208 -1.18722 1.53684 0
M  V30 136 C 12.0508 -1.7789 2.98283 0
M  V30 137 C 11.0048 -1.35347 4.06036 0
M  V30 138 C 10.3308 -2.61846 4.66198 0
M  V30 139 C 11.6308 -0.499354 5.19907 0
M  V30 140 H 13.3248 -0.00824265 2.99399 0
M  V30 141 H 10.8708 -0.0025244 1.44 0
M  V30 142 H 12.8238 -2.39937 3.46422 0
M  V30 143 H 11.5478 -2.39405 2.22155 0
M  V30 144 H 10.2068 -0.756156 3.58717 0
M  V30 145 H 9.8548 -3.21632 3.86732 0
M  V30 146 H 9.5548 -2.3409 5.38958 0
M  V30 147 H 11.0788 -3.24732 5.1709 0
M  V30 148 H 12.4928 -1.02498 5.64063 0
M  V30 149 H 10.8898 -0.316424 5.99265 0
M  V30 150 H 11.9598 0.480459 4.82514 0
M  V30 151 N 13.3029 -1.57598 0.00835791 0
M  V30 152 C 14.2329 -2.1198 -0.979113 0
M  V30 153 C 15.2139 -1.03091 -1.35301 0
M  V30 154 O 16.3989 -1.30818 -1.43528 0
M  V30 155 C 13.5289 -2.62995 -2.26828 0
M  V30 156 C 12.4829 -3.76485 -2.03576 0
M  V30 157 C 11.8089 -4.13846 -3.38579 0
M  V30 158 C 13.1089 -5.0342 -1.39161 0
M  V30 159 H 14.8029 -2.94738 -0.526281 0
M  V30 160 H 12.3489 -1.41783 -0.251704 0
M  V30 161 H 14.3019 -2.99669 -2.96271 0
M  V30 162 H 13.0259 -1.7737 -2.7424 0
M  V30 163 H 11.6849 -3.40217 -1.36557 0
M  V30 164 H 11.3329 -3.25232 -3.83709 0
M  V30 165 H 11.0329 -4.90312 -3.23834 0
M  V30 166 H 12.5569 -4.53086 -4.09323 0
M  V30 167 H 13.9709 -5.37812 -1.98573 0
M  V30 168 H 12.3679 -5.84746 -1.34878 0
M  V30 169 H 13.4379 -4.83548 -0.361868 0
M  V30 170 N 14.781 0.264519 -1.55364 0
M  V30 171 C 16.027 0.992314 -1.77552 0
M  V30 172 C 16.382 1.83626 -0.574379 0
M  V30 173 O 15.675 1.86648 0.432782 0
M  V30 174 C 15.869 1.9004 -3.02687 0
M  V30 175 C 15.698 1.14583 -4.34857 0
M  V30 176 C 14.468 0.858068 -4.97961 0
M  V30 177 C 16.666 0.532069 -5.1154 0
M  V30 178 N 14.648 0.0775974 -6.13851 0
M  V30 179 C 16.019 -0.113823 -6.19896 0
M  V30 180 C 18.074 0.440763 -4.95945 0
M  V30 181 C 16.777 -0.842231 -7.14352 0
M  V30 182 C 18.803 -0.274072 -5.90765 0
M  V30 183 C 18.165 -0.90867 -6.98515 0
M  V30 184 H 14.264 0.344811 -0.701875 0
M  V30 185 H 16.848 0.267141 -1.92859 0
M  V30 186 H 15.019 2.59775 -2.88741 0
M  V30 187 H 16.751 2.56243 -3.13243 0
M  V30 188 H 13.506 1.16547 -4.59036 0
M  V30 189 H 13.93 -0.300216 -6.76334 0
M  V30 190 H 18.572 0.917064 -4.12735 0
M  V30 191 H 16.29 -1.33019 -7.97077 0
M  V30 192 H 19.876 -0.345151 -5.80775 0
M  V30 193 H 18.756 -1.45299 -7.70622 0
M  V30 194 N 16.2591 1.48442 0.529413 0
M  V30 195 C 17.1921 1.57577 1.65059 0
M  V30 196 C 18.1701 0.426198 1.56915 0
M  V30 197 O 19.3541 0.637877 1.77379 0
M  V30 198 C 16.4811 1.5043 3.03461 0
M  V30 199 C 15.5271 2.70235 3.29962 0
M  V30 200 S 16.3601 4.32198 3.16172 0
M  V30 201 C 17.5161 4.2765 4.57019 0
M  V30 202 H 17.7491 2.52427 1.5706 0
M  V30 203 H 15.2821 1.36982 0.712417 0
M  V30 204 H 17.2401 1.46992 3.8328 0
M  V30 205 H 15.9011 0.569167 3.089 0
M  V30 206 H 15.0941 2.61374 4.30929 0
M  V30 207 H 14.6961 2.70938 2.57815 0
M  V30 208 H 16.9881 3.97618 5.48549 0
M  V30 209 H 17.9311 5.28797 4.70934 0
M  V30 210 H 18.3391 3.5811 4.36368 0
M  V30 211 N 17.7372 -0.778329 1.37039 0
M  V30 212 C 18.9852 -1.53361 1.31623 0
M  V30 213 C 19.3062 -1.94739 -0.100831 0
M  V30 214 O 18.5762 -1.65797 -1.04347 0
M  V30 215 H 17.1562 -0.568794 0.484234 0
M  V30 216 H 19.8182 -0.926742 1.71457 0
M  V30 217 H 18.9142 -2.43606 1.95096 0
M  V30 218 N 19.2153 -1.21501 -1.00376 0
M  V30 219 C 20.1783 -0.976927 -2.07337 0
M  V30 220 C 21.1783 0.0525322 -1.60714 0
M  V30 221 O 22.3683 -0.184869 -1.73216 0
M  V30 222 C 19.5003 -0.473423 -3.37597 0
M  V30 223 H 20.6933 -1.92587 -2.29892 0
M  V30 224 H 18.2463 -1.03217 -1.17371 0
M  V30 225 H 18.9813 0.480379 -3.20722 0
M  V30 226 H 18.7663 -1.216 -3.72768 0
M  V30 227 H 20.2563 -0.32675 -4.1632 0
M  V30 228 N 20.6934 1.19889 -1.02296 0
M  V30 229 C 21.9414 1.89046 -0.714558 0
M  V30 230 C 22.2624 1.79636 0.758681 0
M  V30 231 O 21.5324 1.20292 1.54618 0
M  V30 232 H 20.1124 0.699802 -0.261317 0
M  V30 233 H 22.7744 1.45574 -1.29592 0
M  V30 234 H 21.8704 2.95524 -1.0036 0
M  V30 235 N 22.1715 0.800033 1.35784 0
M  V30 236 C 23.4175 0.377901 1.99248 0
M  V30 237 C 23.7505 -1.05052 1.63333 0
M  V30 238 O 23.0255 -1.72768 0.893385 0
M  V30 239 C 23.3085 0.553922 3.55814 0
M  V30 240 C 23.1615 2.0268 4.01548 0
M  V30 241 C 24.4805 -0.0244802 4.40093 0
M  V30 242 H 21.5995 0.138782 0.723815 0
M  V30 243 H 24.2415 1.00835 1.61035 0
M  V30 244 H 22.3915 0.0172398 3.88496 0
M  V30 245 H 24.0635 2.62536 3.79305 0
M  V30 246 H 22.3065 2.5256 3.52698 0
M  V30 247 H 22.9775 2.10087 5.10458 0
M  V30 248 H 25.4535 0.433775 4.13833 0
M  V30 249 H 24.3295 0.128637 5.48749 0
M  V30 250 H 24.5905 -1.11758 4.27741 0
M  V30 251 N 23.6496 -1.47581 0.552962 0
M  V30 252 C 24.5796 -2.32762 -0.185451 0
M  V30 253 C 25.5606 -1.43527 -0.912905 0
M  V30 254 O 26.7456 -1.72388 -0.894201 0
M  V30 255 C 23.8756 -3.25219 -1.21859 0
M  V30 256 C 22.8296 -4.23661 -0.607864 0
M  V30 257 C 22.1556 -5.05413 -1.74533 0
M  V30 258 C 23.4556 -5.20481 0.435582 0
M  V30 259 H 25.1496 -2.94749 0.525684 0
M  V30 260 H 22.6956 -1.41738 0.254251 0
M  V30 261 H 24.6486 -3.8365 -1.7433 0
M  V30 262 H 23.3726 -2.61279 -1.95961 0
M  V30 263 H 22.0316 -3.66451 -0.104489 0
M  V30 264 H 21.6796 -4.3788 -2.47529 0
M  V30 265 H 21.3796 -5.72059 -1.34249 0
M  V30 266 H 22.9036 -5.66701 -2.27338 0
M  V30 267 H 24.3176 -5.733 -0.00290157 0
M  V30 268 H 22.7146 -5.95305 0.757067 0
M  V30 269 H 23.7846 -4.66217 1.33303 0
M  V30 270 N 25.1277 -0.289203 -1.54924 0
M  V30 271 C 26.5387 0.205791 -1.85562 0
M  V30 272 C 26.8897 1.54351 -1.2112 0
M  V30 273 O 26.0147 2.10435 -0.504601 0
M  V30 274 C 26.6097 0.380177 -3.3666 0
M  V30 275 C 25.1687 0.819395 -3.67373 0
M  V30 276 C 24.3157 -0.079159 -2.77187 0
M  V30 277 H 27.2667 -0.510577 -1.50262 0
M  V30 278 H 27.2877 1.21659 -3.60526 0
M  V30 279 H 26.7997 -0.593589 -3.83534 0
M  V30 280 H 24.9007 1.80413 -3.26009 0
M  V30 281 H 25.0137 0.646957 -4.74712 0
M  V30 282 H 23.3777 0.439565 -2.50878 0
M  V30 283 H 24.1607 -1.04906 -3.26878 0
M  V30 284 N 26.6058 1.57591 -0.0167156 0
M  V30 285 C 27.5688 2.08393 0.954204 0
M  V30 286 C 28.5688 0.996531 1.26198 0
M  V30 287 O 29.7588 1.25858 1.20438 0
M  V30 288 C 26.8908 2.5394 2.27436 0
M  V30 289 H 28.0838 2.95455 0.514451 0
M  V30 290 H 25.6368 1.54582 0.231089 0
M  V30 291 H 26.3718 1.70171 2.76066 0
M  V30 292 H 26.1568 3.33371 2.06412 0
M  V30 293 H 27.6468 2.93512 2.97053 0
M  V30 294 N 28.0839 -0.256276 1.55502 0
M  V30 295 C 29.0339 -1.31981 1.85916 0
M  V30 296 C 30.0179 -1.43927 0.719296 0
M  V30 297 O 31.2099 -1.47326 0.981019 0
M  V30 298 C 28.3389 -2.67703 2.14918 0
M  V30 299 C 27.4249 -2.59801 3.35208 0
M  V30 300 N 27.8159 -2.21524 4.54709 0
M  V30 301 C 26.1139 -2.90832 3.38131 0
M  V30 302 C 26.8149 -2.24024 5.36832 0
M  V30 303 N 25.7909 -2.63158 4.75656 0
M  V30 304 H 29.5929 -1.01423 2.75845 0
M  V30 305 H 27.1069 -0.464911 1.55603 0
M  V30 306 H 29.1039 -3.44445 2.34869 0
M  V30 307 H 27.7639 -2.99137 1.26282 0
M  V30 308 H 28.7749 -1.93223 4.80505 0
M  V30 309 H 25.4519 -3.26867 2.59739 0
M  V30 310 H 26.8419 -1.9685 6.42417 0
M  V30 311 N 29.562 -1.4872 -0.521534 0
M  V30 312 C 30.81 -1.56857 -1.27437 0
M  V30 313 C 31.131 -0.247982 -1.93417 0
M  V30 314 O 30.401 0.731151 -1.81744 0
M  V30 315 H 28.981 -0.577885 -0.473347 0
M  V30 316 H 31.643 -1.85233 -0.606205 0
M  V30 317 H 30.739 -2.35402 -2.0492 0
M  V30 318 N 31.0401 0.771051 -1.3745 0
M  V30 319 C 32.2681 1.56015 -1.35893 0
M  V30 320 C 32.6831 1.88718 0.0555523 0
M  V30 321 O 32.0401 1.51502 1.01752 0
M  V30 322 C 32.0911 2.87001 -2.19801 0
M  V30 323 O 31.8121 2.557 -3.55738 0
M  V30 324 C 33.3131 3.81228 -2.26231 0
M  V30 325 H 30.5331 0.483317 -0.465453 0
M  V30 326 H 33.0771 0.955611 -1.80799 0
M  V30 327 H 31.2321 3.43877 -1.78402 0
M  V30 328 H 31.6461 3.39584 -3.99729 0
M  V30 329 H 33.1201 4.70139 -2.89263 0
M  V30 330 H 33.5971 4.20409 -1.27093 0
M  V30 331 H 34.2031 3.30281 -2.67945 0
M  V30 332 N 32.5182 1.22032 0.997298 0
M  V30 333 C 33.4502 0.944263 2.08845 0
M  V30 334 C 34.4632 -0.0754663 1.62625 0
M  V30 335 O 35.6522 0.157994 1.77799 0
M  V30 336 C 32.7522 0.397723 3.36558 0
M  V30 337 C 31.9252 1.47362 4.11829 0
M  V30 338 C 30.9842 0.934951 5.17827 0
M  V30 339 O 30.0102 1.62016 5.45655 0
M  V30 340 N 31.2122 -0.245895 5.79979 0
M  V30 341 H 33.9772 1.88363 2.33109 0
M  V30 342 H 31.5382 1.12661 1.16272 0
M  V30 343 H 33.5302 0.0227771 4.04694 0
M  V30 344 H 32.1002 -0.446646 3.09393 0
M  V30 345 H 31.3202 2.02208 3.38386 0
M  V30 346 H 32.6082 2.19764 4.58891 0
M  V30 347 H 32.0062 -0.819475 5.59733 0
M  V30 348 H 30.5632 -0.562272 6.4937 0
M  V30 349 N 33.9963 -1.19345 1.0293 0
M  V30 350 C 34.9463 -2.20472 0.58104 0
M  V30 351 C 35.9303 -1.56578 -0.370442 0
M  V30 352 O 37.1223 -1.75963 -0.191344 0
M  V30 353 C 34.2513 -3.43236 -0.066306 0
M  V30 354 C 33.3373 -4.14274 0.907642 0
M  V30 355 N 33.7283 -4.61492 2.07023 0
M  V30 356 C 32.0263 -4.39966 0.731177 0
M  V30 357 C 32.7273 -5.1605 2.68454 0
M  V30 358 N 31.7033 -5.06875 1.96414 0
M  V30 359 H 35.5053 -2.54659 1.46717 0
M  V30 360 H 33.0193 -1.35423 0.896345 0
M  V30 361 H 35.0163 -4.14927 -0.405068 0
M  V30 362 H 33.6763 -3.10549 -0.948118 0
M  V30 363 H 34.6873 -4.56304 2.44963 0
M  V30 364 H 31.3643 -4.17377 -0.101507 0
M  V30 365 H 32.7543 -5.6287 3.66915 0
M  V30 366 N 35.4744 -0.807222 -1.35358 0
M  V30 367 C 36.7224 -0.387122 -1.98358 0
M  V30 368 C 37.0434 1.04942 -1.64354 0
M  V30 369 O 36.3134 1.72615 -0.926339 0
M  V30 370 H 34.8934 -0.140154 -0.733734 0
M  V30 371 H 37.5554 -1.0332 -1.6526 0
M  V30 372 H 36.6514 -0.493352 -3.08176 0
M  V30 373 N 36.9525 1.47285 -0.560781 0
M  V30 374 C 38.2015 2.01668 -0.035895 0
M  V30 375 C 38.5145 1.44021 1.32353 0
M  V30 376 O 39.7205 1.90088 1.93853 0
M  V30 377 C 38.1765 3.59897 -0.0136659 0
M  V30 378 C 37.7845 4.26536 -1.37006 0
M  V30 379 C 39.5285 4.22017 0.458425 0
M  V30 380 C 37.4355 5.76782 -1.30675 0
M  V30 381 H 36.3655 0.753938 -0.00964879 0
M  V30 382 H 39.0165 1.69243 -0.709166 0
M  V30 383 H 37.3985 3.89301 0.725325 0
M  V30 384 H 38.5725 4.0877 -2.12705 0
M  V30 385 H 36.8875 3.76419 -1.78038 0
M  V30 386 H 39.4845 5.32124 0.524247 0
M  V30 387 H 39.8275 3.89437 1.4712 0
M  V30 388 H 40.3605 3.97159 -0.225818 0
M  V30 389 H 37.0995 6.13988 -2.29564 0
M  V30 390 H 36.6195 5.96875 -0.591622 0
M  V30 391 H 38.2985 6.39063 -1.01033 0
M  V30 392 N 38.4306 0.297415 1.54768 0
M  V30 393 C 39.8466 -0.0560823 1.59501 0
M  V30 394 C 40.0466 -1.52725 1.31444 0
M  V30 395 O 39.1026 -2.27947 1.08611 0
M  V30 396 C 40.4156 0.338631 2.98787 0
M  V30 397 C 41.9636 0.287097 3.11681 0
M  V30 398 C 42.4386 0.656579 4.53269 0
M  V30 399 N 43.9296 0.608977 4.59179 0
M  V30 400 C 44.6646 0.867385 5.66802 0
M  V30 401 N 44.1606 1.19157 6.82476 0
M  V30 402 N 45.9536 0.794687 5.56454 0
M  V30 403 H 38.1046 1.25624 1.71267 0
M  V30 404 H 40.3676 0.509057 0.799728 0
M  V30 405 H 40.0736 1.36263 3.2423 0
M  V30 406 H 39.9476 -0.309508 3.75928 0
M  V30 407 H 42.3346 -0.727649 2.85988 0
M  V30 408 H 42.4156 0.969809 2.36703 0
M  V30 409 H 42.0596 1.66912 4.7969 0
M  V30 410 H 41.9896 -0.0481649 5.26578 0
M  V30 411 H 44.4806 0.369198 3.76092 0
M  V30 412 H 44.7936 1.37482 7.60473 0
M  V30 413 H 43.1386 1.22958 6.84037 0
M  V30 414 H 46.3296 0.541098 4.64962 0
M  V30 415 H 46.5026 0.999445 6.40246 0
M  V30 416 N 39.9087 -1.5758 0.0250728 0
M  V30 417 C 40.8387 -2.13007 -0.956575 0
M  V30 418 C 41.8197 -1.0452 -1.342 0
M  V30 419 O 43.0047 -1.32332 -1.42133 0
M  V30 420 C 40.1347 -2.65386 -2.24026 0
M  V30 421 C 39.0887 -3.78623 -1.99571 0
M  V30 422 C 38.4147 -4.17414 -3.3417 0
M  V30 423 C 39.7147 -5.04867 -1.33814 0
M  V30 424 H 41.4087 -2.9528 -0.494991 0
M  V30 425 H 38.9547 -1.42042 -0.236651 0
M  V30 426 H 40.9077 -3.02794 -2.93076 0
M  V30 427 H 39.6317 -1.80268 -2.72343 0
M  V30 428 H 38.2907 -3.41646 -1.32941 0
M  V30 429 H 37.9387 -3.29284 -3.80238 0
M  V30 430 H 37.6387 -4.93719 -3.18615 0
M  V30 431 H 39.1627 -4.57402 -4.04495 0
M  V30 432 H 40.5767 -5.39888 -1.92857 0
M  V30 433 H 38.9737 -5.86144 -1.28669 0
M  V30 434 H 40.0437 -4.83904 -0.310561 0
M  V30 435 N 41.3868 0.248026 -1.55636 0
M  V30 436 C 42.7978 0.817177 -1.67866 0
M  V30 437 C 43.1488 1.86069 -0.622322 0
M  V30 438 O 42.2738 2.15157 0.231618 0
M  V30 439 C 42.8688 1.489 -3.04326 0
M  V30 440 C 41.4278 2.00587 -3.185 0
M  V30 441 C 40.5748 0.856573 -2.63739 0
M  V30 442 H 43.5258 0.0238579 -1.58682 0
M  V30 443 H 43.5468 2.35698 -2.98708 0
M  V30 444 H 43.0588 0.729279 -3.81186 0
M  V30 445 H 41.1598 2.79443 -2.4646 0
M  V30 446 H 41.2728 2.20402 -4.25393 0
M  V30 447 H 39.6368 1.25678 -2.21534 0
M  V30 448 H 40.4198 0.109953 -3.43124 0
M  V30 449 N 42.8649 1.48995 0.513639 0
M  V30 450 C 43.7949 1.67636 1.62544 0
M  V30 451 C 44.7759 0.525087 1.61793 0
M  V30 452 O 45.9609 0.759502 1.78732 0
M  V30 453 C 43.0909 1.73114 3.01079 0
M  V30 454 C 42.0449 2.87905 3.16693 0
M  V30 455 C 41.3709 2.78486 4.56453 0
M  V30 456 C 42.6709 4.29005 2.97913 0
M  V30 457 H 44.3649 2.60716 1.47198 0
M  V30 458 H 41.9109 1.25465 0.706714 0
M  V30 459 H 43.8639 1.84742 3.78746 0
M  V30 460 H 42.5879 0.766241 3.17484 0
M  V30 461 H 41.2469 2.75859 2.41448 0
M  V30 462 H 40.8949 1.7993 4.69717 0
M  V30 463 H 40.5949 3.55523 4.67843 0
M  V30 464 H 42.1189 2.92104 5.36197 0
M  V30 465 H 43.5329 4.41798 3.65359 0
M  V30 466 H 41.9299 5.07166 3.20785 0
M  V30 467 H 42.9999 4.44329 1.94165 0
M  V30 468 N 44.343 -0.763751 1.37857 0
M  V30 469 C 45.759 -1.06542 1.18832 0
M  V30 470 C 45.959 -2.01478 0.0299722 0
M  V30 471 O 45.015 -2.4458 -0.627447 0
M  V30 472 C 46.328 -1.65525 2.51042 0
M  V30 473 C 47.876 -1.77745 2.57635 0
M  V30 474 C 48.351 -2.4014 3.89996 0
M  V30 475 N 49.842 -2.47582 3.91481 0
M  V30 476 C 50.577 -2.96732 4.9065 0
M  V30 477 N 50.073 -3.45993 6.00217 0
M  V30 478 N 51.866 -2.95679 4.78048 0
M  V30 479 H 44.017 -0.133556 2.1198 0
M  V30 480 H 46.28 -0.121879 0.940133 0
M  V30 481 H 45.986 -1.03236 3.36207 0
M  V30 482 H 45.86 -2.64719 2.68707 0
M  V30 483 H 48.247 -2.39164 1.72872 0
M  V30 484 H 48.328 -0.772836 2.43846 0
M  V30 485 H 47.972 -1.79358 4.75177 0
M  V30 486 H 47.902 -3.41223 4.01092 0
M  V30 487 H 50.393 -2.1273 3.12337 0
M  V30 488 H 50.706 -3.81922 6.7183 0
M  V30 489 H 49.051 -3.44077 6.03851 0
M  V30 490 H 52.242 -2.56499 3.91568 0
M  V30 491 H 52.415 -3.33672 5.55488 0
M  V30 492 N 45.8211 -1.22559 -0.990812 0
M  V30 493 C 47.0461 -1.07862 -1.77145 0
M  V30 494 C 47.4711 0.366447 -1.84496 0
M  V30 495 O 46.8291 1.26478 -1.29896 0
M  V30 496 C 46.8771 -1.69686 -3.18181 0
M  V30 497 O 45.9811 -0.951946 -4.01263 0
M  V30 498 H 45.3221 -0.378712 -0.545411 0
M  V30 499 H 47.8521 -1.62399 -1.2445 0
M  V30 500 H 47.8621 -1.74496 -3.68802 0
M  V30 501 H 46.5371 -2.74841 -3.12146 0
M  V30 502 H 45.1141 -0.980011 -3.59792 0
M  V30 503 N 47.2992 1.18797 -1.03562 0
M  V30 504 C 48.5472 1.88278 -0.734569 0
M  V30 505 C 48.8682 1.8043 0.739586 0
M  V30 506 O 48.1382 1.21925 1.53333 0
M  V30 507 H 46.7182 0.696991 -0.268725 0
M  V30 508 H 49.3802 1.44192 -1.31129 0
M  V30 509 H 48.4762 2.94443 -1.03489 0
M  V30 510 N 48.7773 0.814389 1.34928 0
M  V30 511 C 49.7073 0.244827 2.32213 0
M  V30 512 C 50.6883 -0.634024 1.57842 0
M  V30 513 O 51.8733 -0.562676 1.8587 0
M  V30 514 C 49.0033 -0.601106 3.42058 0
M  V30 515 C 47.9573 0.179896 4.27622 0
M  V30 516 C 47.2833 -0.788237 5.28858 0
M  V30 517 C 48.5833 1.38329 5.03649 0
M  V30 518 H 50.2773 1.05763 2.80097 0
M  V30 519 H 47.8233 0.510029 1.34665 0
M  V30 520 H 49.7763 -1.00968 4.09125 0
M  V30 521 H 48.5003 -1.44688 2.92802 0
M  V30 522 H 47.1593 0.569739 3.62146 0
M  V30 523 H 46.8073 -1.62973 4.75866 0
M  V30 524 H 46.5073 -0.269942 5.8698 0
M  V30 525 H 48.0313 -1.19485 5.98795 0
M  V30 526 H 49.4453 1.04918 5.63618 0
M  V30 527 H 47.8423 1.83662 5.71304 0
M  V30 528 H 48.9123 2.16592 4.33839 0
M  V30 529 N 50.2554 -1.46986 0.568584 0
M  V30 530 C 51.5034 -2.02041 0.0487022 0
M  V30 531 C 51.8244 -1.44408 -1.31039 0
M  V30 532 O 51.0944 -0.623477 -1.85714 0
M  V30 533 H 49.6744 -0.746849 0.015014 0
M  V30 534 H 52.3364 -1.80257 0.741168 0
M  V30 535 H 51.4324 -3.12085 -0.0308961 0
M  V30 536 N 51.7335 -0.305618 -1.54608 0
M  V30 537 C 52.9815 0.301701 -1.99835 0
M  V30 538 C 53.3025 1.54054 -1.19551 0
M  V30 539 O 52.5725 1.93702 -0.292658 0
M  V30 540 H 51.1525 0.114468 -0.738178 0
M  V30 541 H 53.8145 -0.418016 -1.90364 0
M  V30 542 H 52.9105 0.570548 -3.06841 0
M  V30 543 N 53.2116 1.57565 -0.0334293 0
M  V30 544 C 54.1746 2.09393 0.932048 0
M  V30 545 C 55.1746 1.00986 1.25134 0
M  V30 546 O 56.3646 1.27129 1.19096 0
M  V30 547 C 53.4966 2.56338 2.2473 0
M  V30 548 H 54.6896 2.95984 0.483085 0
M  V30 549 H 52.2426 1.54819 0.21468 0
M  V30 550 H 52.9776 1.7309 2.74245 0
M  V30 551 H 52.7626 3.35542 2.02865 0
M  V30 552 H 54.2526 2.96646 2.93923 0
M  V30 553 N 54.6897 -0.239769 1.55765 0
M  V30 554 C 56.1007 -0.808263 1.68297 0
M  V30 555 C 56.4517 -1.85736 0.632181 0
M  V30 556 O 55.5767 -2.15277 -0.220204 0
M  V30 557 C 56.1717 -1.47284 3.05111 0
M  V30 558 C 54.7307 -1.98895 3.19559 0
M  V30 559 C 53.8777 -0.842575 2.64189 0
M  V30 560 H 56.8287 -0.0154422 1.58692 0
M  V30 561 H 56.8497 -2.34111 2.99954 0
M  V30 562 H 56.3617 -0.709053 3.81568 0
M  V30 563 H 54.4627 -2.78132 2.47938 0
M  V30 564 H 54.5757 -2.18143 4.26556 0
M  V30 565 H 52.9397 -1.24501 2.22197 0
M  V30 566 H 53.7227 -0.0917552 3.43177 0
M  V30 567 N 56.1678 -1.49265 -0.50573 0
M  V30 568 C 57.0978 -1.68495 -1.61653 0
M  V30 569 C 58.0788 -0.53366 -1.61512 0
M  V30 570 O 59.2638 -0.76897 -1.78327 0
M  V30 571 C 56.3938 -1.74709 -3.00157 0
M  V30 572 C 55.3478 -2.89581 -3.15162 0
M  V30 573 C 54.6738 -2.80903 -4.5497 0
M  V30 574 C 55.9738 -4.30578 -2.95634 0
M  V30 575 H 57.6678 -2.61493 -1.45814 0
M  V30 576 H 55.2138 -1.25838 -0.70005 0
M  V30 577 H 57.1668 -1.86748 -3.77761 0
M  V30 578 H 55.8908 -0.783067 -3.17074 0
M  V30 579 H 54.5498 -2.77136 -2.39982 0
M  V30 580 H 54.1978 -1.82419 -4.68756 0
M  V30 581 H 53.8978 -3.57999 -4.65951 0
M  V30 582 H 55.4218 -2.94944 -5.34641 0
M  V30 583 H 56.8358 -4.4373 -3.63011 0
M  V30 584 H 55.2328 -5.0886 -3.18091 0
M  V30 585 H 56.3028 -4.45352 -1.91806 0
M  V30 586 N 57.6459 0.756429 -1.3826 0
M  V30 587 C 58.8939 1.51248 -1.34047 0
M  V30 588 C 59.2149 1.94875 0.0698372 0
M  V30 589 O 58.4849 1.67436 1.01696 0
M  V30 590 H 57.0649 0.561018 -0.493222 0
M  V30 591 H 59.7269 0.899347 -1.7291 0
M  V30 592 H 58.8229 2.40472 -1.98947 0
M  V30 593 N 59.124 1.23083 0.984299 0
M  V30 594 C 60.054 1.03292 2.09411 0
M  V30 595 C 61.035 -0.048923 1.7003 0
M  V30 596 O 62.22 0.114967 1.93859 0
M  V30 597 C 59.35 0.619155 3.41736 0
M  V30 598 C 58.304 1.64791 3.95004 0
M  V30 599 C 57.63 1.0897 5.23478 0
M  V30 600 C 58.93 3.03999 4.24714 0
M  V30 601 H 60.624 1.96119 2.26225 0
M  V30 602 H 58.17 0.944344 1.08711 0
M  V30 603 H 60.123 0.467777 4.18796 0
M  V30 604 H 58.847 -0.344786 3.24775 0
M  V30 605 H 57.506 1.78721 3.20085 0
M  V30 606 H 57.154 0.11686 5.02864 0
M  V30 607 H 56.854 1.77704 5.60085 0
M  V30 608 H 58.378 0.950093 6.03163 0
M  V30 609 H 59.792 2.93393 4.92538 0
M  V30 610 H 58.189 3.69936 4.72512 0
M  V30 611 H 59.259 3.53285 3.32142 0
M  V30 612 N 60.6021 -1.18246 1.0419 0
M  V30 613 C 62.0181 -1.40269 0.761366 0
M  V30 614 C 62.2181 -1.90777 -0.648578 0
M  V30 615 O 61.2741 -2.0929 -1.41258 0
M  V30 616 C 62.5871 -2.40237 1.8085 0
M  V30 617 C 64.1351 -2.53961 1.82955 0
M  V30 618 C 64.6101 -3.57194 2.86664 0
M  V30 619 N 66.1011 -3.64702 2.85563 0
M  V30 620 C 66.8361 -4.44309 3.6246 0
M  V30 621 N 66.3321 -5.27514 4.49111 0
M  V30 622 N 68.1251 -4.39084 3.50944 0
M  V30 623 H 60.2761 -0.837882 1.95175 0
M  V30 624 H 62.5391 -0.430608 0.84456 0
M  V30 625 H 62.2451 -2.10176 2.81991 0
M  V30 626 H 62.1191 -3.39601 1.64168 0
M  V30 627 H 64.5061 -2.83338 0.824855 0
M  V30 628 H 64.5871 -1.54706 2.03715 0
M  V30 629 H 64.2311 -3.28558 3.87314 0
M  V30 630 H 64.1611 -4.5613 2.6316 0
M  V30 631 H 66.6521 -3.05289 2.22727 0
M  V30 632 H 66.9651 -5.85411 5.04493 0
M  V30 633 H 65.3101 -5.2693 4.53178 0
M  V30 634 H 68.5011 -3.7313 2.82651 0
M  V30 635 H 68.6741 -5.00883 4.11121 0
M  V30 636 N 62.0802 -0.821533 -1.34494 0
M  V30 637 C 63.0102 -0.257138 -2.3208 0
M  V30 638 C 63.9912 0.625645 -1.58176 0
M  V30 639 O 65.1762 0.552811 -1.86166 0
M  V30 640 C 62.3062 0.582958 -3.42372 0
M  V30 641 C 61.2602 -0.202571 -4.2752 0
M  V30 642 C 60.5862 0.760179 -5.29269 0
M  V30 643 C 61.8862 -1.40998 -5.02908 0
M  V30 644 H 63.5802 -1.07247 -2.79532 0
M  V30 645 H 61.1262 -0.517163 -1.34393 0
M  V30 646 H 63.0792 0.987972 -4.09655 0
M  V30 647 H 61.8032 1.43133 -2.93565 0
M  V30 648 H 60.4622 -0.588936 -3.61838 0
M  V30 649 H 60.1102 1.60447 -4.76724 0
M  V30 650 H 59.8102 0.238809 -5.87115 0
M  V30 651 H 61.3342 1.16308 -5.9942 0
M  V30 652 H 62.7482 -1.07905 -5.63054 0
M  V30 653 H 61.1452 -1.86689 -5.70322 0
M  V30 654 H 62.2152 -2.1889 -4.32684 0
M  V30 655 N 63.5583 1.46682 -0.576371 0
M  V30 656 C 64.9693 1.86112 -0.148091 0
M  V30 657 C 65.3203 1.48073 1.2872 0
M  V30 658 O 64.4453 0.892656 1.97131 0
M  V30 659 C 65.0403 3.37786 -0.261982 0
M  V30 660 C 63.5993 3.76235 0.111384 0
M  V30 661 C 62.7463 2.70713 -0.60083 0
M  V30 662 H 65.6973 1.37927 -0.78497 0
M  V30 663 H 65.7183 3.77007 0.514364 0
M  V30 664 H 65.2303 3.6544 -1.30671 0
M  V30 665 H 63.3313 3.54198 1.15649 0
M  V30 666 H 63.4443 4.78391 -0.26052 0
M  V30 667 H 61.8083 2.54666 -0.0417783 0
M  V30 668 H 62.5913 3.01208 -1.64708 0
M  V30 669 N 65.0364 0.313813 1.54444 0
M  V30 670 C 66.4524 -0.0391619 1.59552 0
M  V30 671 C 66.6524 -1.51322 1.33056 0
M  V30 672 O 65.7084 -2.26782 1.11022 0
M  V30 673 C 67.0214 0.370302 2.98411 0
M  V30 674 C 68.5694 0.320139 3.11358 0
M  V30 675 C 69.0444 0.704617 4.52547 0
M  V30 676 N 70.5354 0.657645 4.58508 0
M  V30 677 C 71.2704 0.927453 5.6585 0
M  V30 678 N 70.7664 1.26389 6.81174 0
M  V30 679 N 72.5594 0.853662 5.5558 0
M  V30 680 H 64.7104 1.27433 1.69925 0
M  V30 681 H 66.9734 0.517511 0.794284 0
M  V30 682 H 66.6794 1.39694 3.22767 0
M  V30 683 H 66.5534 -0.269619 3.76235 0
M  V30 684 H 68.9404 -0.697275 2.86744 0
M  V30 685 H 69.0214 0.99486 2.35661 0
M  V30 686 H 68.6654 1.7199 4.77893 0
M  V30 687 H 68.5954 0.00768843 5.26599 0
M  V30 688 H 71.0864 0.409067 3.75679 0
M  V30 689 H 71.3994 1.4554 7.58972 0
M  V30 690 H 69.7444 1.30206 6.82694 0
M  V30 691 H 72.9354 0.590383 4.64362 0
M  V30 692 H 73.1084 1.0673 6.3915 0
M  V30 693 N 66.5145 -1.57545 0.0417849 0
M  V30 694 C 67.4245 -2.14451 -0.951213 0
M  V30 695 C 68.4405 -1.09992 -1.34825 0
M  V30 696 O 69.6165 -1.42114 -1.42708 0
M  V30 697 C 66.6815 -2.67063 -2.21084 0
M  V30 698 C 65.7425 -3.86284 -1.87304 0
M  V30 699 C 64.9755 -4.36378 -3.07261 0
M  V30 700 O 65.1985 -3.85587 -4.20332 0
M  V30 701 O 64.1325 -5.28077 -2.88822 0
M  V30 702 H 67.9585 -2.99601 -0.497287 0
M  V30 703 H 65.5435 -1.48317 -0.179567 0
M  V30 704 H 67.4255 -3.00914 -2.95006 0
M  V30 705 H 66.1005 -1.84989 -2.65633 0
M  V30 706 H 65.0075 -3.57338 -1.10727 0
M  V30 707 H 66.3405 -4.6956 -1.47562 0
M  V30 708 N 67.9926 0.231505 -1.5589 0
M  V30 709 C 69.2206 0.974505 -1.82513 0
M  V30 710 C 69.6356 1.78344 -0.619591 0
M  V30 711 O 68.9926 1.77792 0.411848 0
M  V30 712 C 69.0436 1.90007 -3.07538 0
M  V30 713 O 68.7646 1.12385 -4.2344 0
M  V30 714 C 70.2656 2.75779 -3.47075 0
M  V30 715 H 67.4856 0.286065 -0.606966 0
M  V30 716 H 70.0296 0.249739 -2.02969 0
M  V30 717 H 68.1846 2.57891 -2.89086 0
M  V30 718 H 68.5986 1.75125 -4.944 0
M  V30 719 H 70.0726 3.36443 -4.37619 0
M  V30 720 H 70.5496 3.47672 -2.68367 0
M  V30 721 H 71.1556 2.13323 -3.67931 0
M  V30 722 N 69.4707 1.49531 0.497807 0
M  V30 723 C 70.7477 1.49682 1.25915 0
M  V30 724 C 71.1277 0.226339 2.09883 0
M  V30 725 O 70.4757 -0.791189 2.14365 0
M  V30 726 C 70.6857 2.77755 2.11313 0
M  V30 727 C 72.0337 3.27371 2.70395 0
M  V30 728 O 73.0577 2.78894 2.21578 0
M  V30 729 O 71.9167 4.11808 3.59272 0
M  V30 730 H 69.0107 0.599228 0.56996 0
M  V30 731 H 71.5567 1.61798 0.511816 0
M  V30 732 H 70.3287 3.61713 1.49264 0
M  V30 733 H 69.9517 2.68515 2.93233 0
M  V30 734 N 70.9488 -0.749086 1.3866 0
M  V30 735 C 71.8588 -1.89358 1.38494 0
M  V30 736 C 72.8748 -1.71708 0.281476 0
M  V30 737 O 74.0508 -1.94554 0.520643 0
M  V30 738 C 71.1158 -3.24782 1.21316 0
M  V30 739 C 70.1768 -3.54926 2.41508 0
M  V30 740 C 69.4098 -4.83888 2.2514 0
M  V30 741 O 69.6328 -5.56592 1.24746 0
M  V30 742 O 68.5668 -5.13612 3.13826 0
M  V30 743 H 72.3928 -1.92452 2.34938 0
M  V30 744 H 69.9778 -0.894981 1.19626 0
M  V30 745 H 71.8598 -4.05739 1.13814 0
M  V30 746 H 70.5348 -3.2249 0.279592 0
M  V30 747 H 69.4418 -2.74112 2.54585 0
M  V30 748 H 70.7748 -3.61983 3.3351 0
M  V30 749 N 72.4269 -1.23603 -0.977757 0
M  V30 750 C 73.3369 -1.03632 -2.1047 0
M  V30 751 C 74.3529 0.0199435 -1.73989 0
M  V30 752 O 75.5289 -0.176076 -2.00629 0
M  V30 753 C 72.5939 -0.63276 -3.40877 0
M  V30 754 C 71.6549 -1.76437 -3.91367 0
M  V30 755 C 70.8879 -1.37997 -5.15551 0
M  V30 756 O 71.1109 -0.265357 -5.69782 0
M  V30 757 O 70.0449 -2.20201 -5.60174 0
M  V30 758 H 73.8709 -1.98086 -2.30208 0
M  V30 759 H 71.4559 -1.02332 -1.08851 0
M  V30 760 H 73.3379 -0.418761 -4.19314 0
M  V30 761 H 72.0129 0.282754 -3.22463 0
M  V30 762 H 70.9199 -2.03304 -3.14036 0
M  V30 763 H 72.2529 -2.6583 -4.14241 0
M  V30 764 N 73.905 1.17692 -1.04816 0
M  V30 765 C 75.316 1.69501 -0.782698 0
M  V30 766 C 75.667 1.83456 0.695577 0
M  V30 767 O 74.792 1.51942 1.54086 0
M  V30 768 C 75.387 3.07874 -1.41419 0
M  V30 769 C 73.946 3.56864 -1.19686 0
M  V30 770 C 73.093 2.3322 -1.50012 0
M  V30 771 H 76.044 1.02262 -1.2136 0
M  V30 772 H 76.065 3.71528 -0.821428 0
M  V30 773 H 75.577 2.97685 -2.49009 0
M  V30 774 H 73.678 3.72337 -0.140043 0
M  V30 775 H 73.791 4.39851 -1.89916 0
M  V30 776 H 72.155 2.37501 -0.920071 0
M  V30 777 H 72.938 2.25644 -2.58727 0
M  V30 778 N 75.3831 0.828654 1.34056 0
M  V30 779 C 76.2931 0.256725 2.33191 0
M  V30 780 C 77.3091 -0.611898 1.62886 0
M  V30 781 O 78.4851 -0.51844 1.94613 0
M  V30 782 C 75.5501 -0.567238 3.42028 0
M  V30 783 C 74.6111 0.324458 4.28072 0
M  V30 784 C 73.8441 -0.460274 5.31712 0
M  V30 785 O 74.0671 -1.693 5.44696 0
M  V30 786 O 73.0011 0.160391 6.01686 0
M  V30 787 H 76.8271 1.07739 2.83947 0
M  V30 788 H 74.4121 0.59093 1.37217 0
M  V30 789 H 76.2941 -1.03582 4.08471 0
M  V30 790 H 74.9691 -1.36513 2.93506 0
M  V30 791 H 73.8761 0.840659 3.64532 0
M  V30 792 H 75.2091 1.08685 4.8005 0
M  V30 793 N 76.8612 -1.46375 0.584142 0
M  V30 794 C 77.7712 -2.34115 -0.150728 0
M  V30 795 C 78.7872 -1.49838 -0.884567 0
M  V30 796 O 79.9632 -1.82704 -0.847429 0
M  V30 797 C 77.0282 -3.2705 -1.15062 0
M  V30 798 C 76.0892 -4.27228 -0.421293 0
M  V30 799 C 75.3222 -5.15722 -1.37355 0
M  V30 800 O 75.5452 -5.07176 -2.61014 0
M  V30 801 O 74.4792 -5.95383 -0.883355 0
M  V30 802 H 78.3052 -2.98309 0.569708 0
M  V30 803 H 75.8902 -1.45373 0.344535 0
M  V30 804 H 77.7722 -3.84381 -1.72712 0
M  V30 805 H 76.4472 -2.65451 -1.8525 0
M  V30 806 H 75.3542 -3.7358 0.197085 0
M  V30 807 H 76.6872 -4.91616 0.239641 0
M  V30 808 N 78.3393 -0.321999 -1.54275 0
M  V30 809 C 79.7503 0.166384 -1.85957 0
M  V30 810 C 80.1013 1.51747 -1.24367 0
M  V30 811 O 79.2263 2.09317 -0.549124 0
M  V30 812 C 79.8213 0.308681 -3.37391 0
M  V30 813 C 78.3803 0.741286 -3.69028 0
M  V30 814 C 77.5273 -0.137937 -2.76957 0
M  V30 815 H 80.4783 -0.542335 -1.49146 0
M  V30 816 H 80.4993 1.13984 -3.63026 0
M  V30 817 H 80.0113 -0.674809 -3.82188 0
M  V30 818 H 78.1123 1.73458 -3.29762 0
M  V30 819 H 78.2253 0.546118 -4.75977 0
M  V30 820 H 76.5893 0.386251 -2.51754 0
M  V30 821 H 77.3723 -1.11816 -3.2458 0
M  V30 822 N 79.8174 1.5752 -0.0501392 0
M  V30 823 C 81.0654 1.9227 0.622642 0
M  V30 824 C 81.3864 0.929083 1.71444 0
M  V30 825 O 80.6564 -0.0262186 1.95882 0
M  V30 826 H 79.2364 0.709739 0.232981 0
M  V30 827 H 81.8984 1.94628 -0.102898 0
M  V30 828 H 80.9944 2.93479 1.06191 0
M  V30 829 N 81.2955 -0.223234 1.56011 0
M  V30 830 C 82.7115 -0.572856 1.48965 0
M  V30 831 C 82.9115 -1.87225 0.74492 0
M  V30 832 O 81.9675 -2.50899 0.283896 0
M  V30 833 C 83.2805 -0.653646 2.9351 0
M  V30 834 C 84.8285 -0.744386 3.0402 0
M  V30 835 C 85.3035 -0.856535 4.49919 0
M  V30 836 N 86.7945 -0.9208 4.53955 0
M  V30 837 C 87.5295 -1.02726 5.64123 0
M  V30 838 N 87.0255 -1.09777 6.84047 0
M  V30 839 N 88.8185 -1.06226 5.51971 0
M  V30 840 H 80.9695 0.629462 2.02858 0
M  V30 841 H 83.2325 0.220621 0.921971 0
M  V30 842 H 82.9385 0.231518 3.50937 0
M  V30 843 H 82.8125 -1.51781 3.45315 0
M  V30 844 H 85.1995 -1.61999 2.46658 0
M  V30 845 H 85.2805 0.14541 2.55386 0
M  V30 846 H 84.9245 0.0146069 5.07898 0
M  V30 847 H 84.8545 -1.76172 4.96257 0
M  V30 848 H 87.3455 -0.876694 3.6759 0
M  V30 849 H 87.6585 -1.17872 7.63758 0
M  V30 850 H 86.0035 -1.06693 6.86762 0
M  V30 851 H 89.1945 -1.00382 4.5721 0
M  V30 852 H 89.3675 -1.14177 6.37862 0
M  V30 853 N 82.7736 -1.49793 -0.48987 0
M  V30 854 C 84.1896 -1.36803 -0.822022 0
M  V30 855 C 84.3896 -0.409652 -1.97292 0
M  V30 856 O 83.4456 0.154614 -2.52026 0
M  V30 857 C 84.7586 -2.77768 -1.15175 0
M  V30 858 C 86.3066 -2.86549 -1.25931 0
M  V30 859 C 86.7816 -4.28306 -1.62228 0
M  V30 860 N 88.2726 -4.31169 -1.69256 0
M  V30 861 C 89.0076 -5.37832 -1.98807 0
M  V30 862 N 88.5036 -6.54726 -2.26507 0
M  V30 863 N 90.2966 -5.25258 -2.00152 0
M  V30 864 H 82.4476 -2.10691 0.268881 0
M  V30 865 H 84.7106 -0.946241 0.057728 0
M  V30 866 H 84.4166 -3.49648 -0.379335 0
M  V30 867 H 84.2906 -3.13836 -2.09253 0
M  V30 868 H 86.6776 -2.14899 -2.02243 0
M  V30 869 H 86.7586 -2.54049 -0.298776 0
M  V30 870 H 86.4026 -5.00486 -0.864622 0
M  V30 871 H 86.3326 -4.58279 -2.594 0
M  V30 872 H 88.8236 -3.4687 -1.49965 0
M  V30 873 H 89.1366 -7.31833 -2.48276 0
M  V30 874 H 87.4816 -6.57933 -2.23939 0
M  V30 875 H 90.6726 -4.32938 -1.77996 0
M  V30 876 H 90.8456 -6.08476 -2.22848 0
M  V30 877 N 84.2517 0.741722 -1.39055 0
M  V30 878 C 85.4997 1.49818 -1.35643 0
M  V30 879 C 85.8207 1.94938 0.0491642 0
M  V30 880 O 85.0907 1.68505 0.999141 0
M  V30 881 H 83.6707 0.555755 -0.499144 0
M  V30 882 H 86.3327 0.880957 -1.73854 0
M  V30 883 H 85.4287 2.38348 -2.01486 0
M  V30 884 N 85.7298 1.2412 0.971189 0
M  V30 885 C 86.9548 1.10667 1.75407 0
M  V30 886 C 87.3798 -0.337048 1.85056 0
M  V30 887 O 86.7378 -1.24396 1.31892 0
M  V30 888 C 86.7858 1.74726 3.15441 0
M  V30 889 O 85.8898 1.01566 3.99697 0
M  V30 890 H 85.2308 0.387341 0.539317 0
M  V30 891 H 87.7608 1.64358 1.2185 0
M  V30 892 H 87.7708 1.80341 3.6598 0
M  V30 893 H 86.4458 2.79773 3.07734 0
M  V30 894 H 85.0228 1.03713 3.58187 0
M  V30 895 N 87.2079 -1.17134 1.05439 0
M  V30 896 C 88.4549 -1.87456 0.765942 0
M  V30 897 C 88.7829 -1.81189 -0.707153 0
M  V30 898 O 88.0379 -1.21633 -1.5331 0
M  V30 899 C 88.3369 -3.36833 1.19491 0
M  V30 900 C 88.0029 -3.63301 2.67063 0
M  V30 901 C 86.6649 -3.70234 3.07376 0
M  V30 902 C 89.0169 -3.74575 3.62413 0
M  V30 903 C 86.3449 -3.85933 4.41896 0
M  V30 904 C 88.6969 -3.91793 4.9667 0
M  V30 905 C 87.3609 -3.96966 5.36633 0
M  V30 906 H 86.6309 -0.685948 0.280278 0
M  V30 907 H 89.2779 -1.38556 1.32192 0
M  V30 908 H 87.5829 -3.87807 0.557969 0
M  V30 909 H 89.2799 -3.89611 0.948893 0
M  V30 910 H 85.8699 -3.58532 2.34846 0
M  V30 911 H 90.0539 -3.68537 3.32406 0
M  V30 912 H 85.3099 -3.88187 4.72357 0
M  V30 913 H 89.4839 -3.99458 5.70444 0
M  V30 914 H 87.1109 -4.08883 6.40874 0
M  V30 915 N 88.686 -0.835752 -1.33615 0
M  V30 916 C 89.932 -0.430596 -1.98176 0
M  V30 917 C 90.265 1.00684 -1.66061 0
M  V30 918 O 89.54 1.70339 -0.938877 0
M  V30 919 C 89.823 -0.648065 -3.5422 0
M  V30 920 C 89.676 -2.13255 -3.96033 0
M  V30 921 C 90.995 -0.0922113 -4.40003 0
M  V30 922 H 88.114 -0.157924 -0.719881 0
M  V30 923 H 90.756 -1.05069 -1.58305 0
M  V30 924 H 88.906 -0.120237 -3.88314 0
M  V30 925 H 90.578 -2.725 -3.72211 0
M  V30 926 H 88.821 -2.61823 -3.45878 0
M  V30 927 H 89.492 -2.23547 -5.04708 0
M  V30 928 H 91.968 -0.543343 -4.12537 0
M  V30 929 H 90.844 -0.274083 -5.48215 0
M  V30 930 H 91.105 1.00378 -4.30554 0
M  V30 931 N 90.1641 1.46063 -0.591896 0
M  V30 932 C 91.0741 2.34192 0.13831 0
M  V30 933 C 92.0901 1.50305 0.876608 0
M  V30 934 O 93.2661 1.8315 0.837728 0
M  V30 935 C 90.3311 3.27656 1.13326 0
M  V30 936 C 89.3921 4.27445 0.39863 0
M  V30 937 C 88.6251 5.16443 1.34618 0
M  V30 938 O 88.8481 5.08553 2.58321 0
M  V30 939 O 87.7821 5.95843 0.851768 0
M  V30 940 H 91.6081 2.98002 -0.58552 0
M  V30 941 H 89.1931 1.45188 -0.352239 0
M  V30 942 H 91.0751 3.85291 1.70671 0
M  V30 943 H 89.7501 2.6643 1.83839 0
M  V30 944 H 88.6571 3.73471 -0.216895 0
M  V30 945 H 89.9901 4.91482 -0.265709 0
M  V30 946 N 91.6422 0.330177 1.54103 0
M  V30 947 C 92.5752 -0.575477 2.20825 0
M  V30 948 C 93.5532 -1.11064 1.18758 0
M  V30 949 O 94.7372 -1.17341 1.47524 0
M  V30 950 C 91.8642 -1.79032 2.87516 0
M  V30 951 C 90.9102 -1.38581 4.03358 0
M  V30 952 S 91.7432 -0.416911 5.33875 0
M  V30 953 C 92.8992 -1.63889 6.04062 0
M  V30 954 H 93.1322 -0.00872114 2.97299 0
M  V30 955 H 90.6652 0.114254 1.53977 0
M  V30 956 H 92.6232 -2.48734 3.2656 0
M  V30 957 H 91.2842 -2.32827 2.10832 0
M  V30 958 H 90.4772 -2.29123 4.48908 0
M  V30 959 H 90.0792 -0.768419 3.66021 0
M  V30 960 H 92.3712 -2.57536 6.26643 0
M  V30 961 H 93.3142 -1.22542 6.97416 0
M  V30 962 H 93.7222 -1.82887 5.34053 0
M  V30 963 N 93.1203 -1.57491 0.0584922 0
M  V30 964 C 94.3663 -1.93264 -0.614558 0
M  V30 965 C 94.6993 -0.937717 -1.7006 0
M  V30 966 O 93.9743 0.0351652 -1.94468 0
M  V30 967 C 94.2573 -3.3938 -1.20386 0
M  V30 968 C 94.1103 -4.49625 -0.125375 0
M  V30 969 C 95.4293 -3.86039 -2.11334 0
M  V30 970 H 92.5483 -0.702791 -0.221933 0
M  V30 971 H 95.1903 -1.8961 0.12175 0
M  V30 972 H 93.3403 -3.42626 -1.83139 0
M  V30 973 H 95.0123 -4.58506 0.506971 0
M  V30 974 H 93.2553 -4.30354 0.545672 0
M  V30 975 H 93.9263 -5.48967 -0.577861 0
M  V30 976 H 96.4023 -3.84716 -1.58534 0
M  V30 977 H 95.2783 -4.88914 -2.49507 0
M  V30 978 H 95.5393 -3.23215 -3.01636 0
M  V30 979 N 94.5984 0.214957 -1.56127 0
M  V30 980 C 95.8754 0.963093 -1.70247 0
M  V30 981 C 96.2554 2.02166 -0.60764 0
M  V30 982 O 95.6034 2.25244 0.384385 0
M  V30 983 C 95.8134 1.56756 -3.11815 0
M  V30 984 C 97.1614 2.0573 -3.7143 0
M  V30 985 O 98.1854 1.66637 -3.14818 0
M  V30 986 O 97.0444 2.77603 -4.70743 0
M  V30 987 H 94.1384 0.450321 -0.693643 0
M  V30 988 H 96.6844 0.206219 -1.68442 0
M  V30 989 H 95.4564 0.803533 -3.82961 0
M  V30 990 H 95.0794 2.3898 -3.17765 0
M  V30 991 N 96.0765 1.50051 0.48192 0
M  V30 992 C 97.0245 1.68635 1.60203 0
M  V30 993 C 98.0185 0.552184 1.60148 0
M  V30 994 O 99.2245 0.732377 1.64427 0
M  V30 995 H 95.5995 0.532081 0.531407 0
M  V30 996 H 97.5705 2.62616 1.41688 0
M  V30 997 C 96.3195 1.78775 2.9822 0
M  V30 998 H 95.6425 2.6543 2.98976 0
M  V30 999 H 97.0825 1.95806 3.7608 0
M  V30 1000 C 95.5415 0.536849 3.32595 0
M  V30 1001 O 96.0715 -0.328897 4.00351 0
M  V30 1002 N 94.2775 0.394091 2.87915 0
M  V30 1003 H 93.8245 1.09962 2.32951 0
M  V30 1004 H 93.7825 -0.441737 3.11281 0
M  V30 1005 N 97.5546 -0.734337 1.39446 0
M  V30 1006 C 98.4846 -1.86155 1.40955 0
M  V30 1007 C 99.4656 -1.67898 0.272827 0
M  V30 1008 O 100.651 -1.88207 0.478743 0
M  V30 1009 C 97.7806 -3.23912 1.25294 0
M  V30 1010 C 96.7346 -3.56808 2.36373 0
M  V30 1011 C 96.0606 -4.93508 2.058 0
M  V30 1012 C 97.3606 -3.59713 3.78687 0
M  V30 1013 H 99.0546 -1.8515 2.35287 0
M  V30 1014 H 96.6006 -0.889367 1.13253 0
M  V30 1015 H 98.5536 -4.02443 1.2497 0
M  V30 1016 H 97.2776 -3.25446 0.274308 0
M  V30 1017 H 95.9366 -2.80606 2.35914 0
M  V30 1018 H 95.5846 -4.91623 1.06374 0
M  V30 1019 H 95.2846 -5.16486 2.80208 0
M  V30 1020 H 96.8086 -5.74396 2.07128 0
M  V30 1021 H 98.2226 -4.2832 3.81071 0
M  V30 1022 H 96.6196 -3.94209 4.52459 0
M  V30 1023 H 97.6896 -2.59504 4.09617 0
M  V30 1024 N 99.0327 -1.24633 -0.964593 0
M  V30 1025 C 100.449 -1.01239 -1.2338 0
M  V30 1026 C 100.649 0.2769 -1.99588 0
M  V30 1027 O 99.7047 0.992241 -2.32187 0
M  V30 1028 C 101.018 -2.22937 -2.01791 0
M  V30 1029 C 102.566 -2.27594 -2.14872 0
M  V30 1030 C 103.041 -3.48921 -2.96678 0
M  V30 1031 N 104.532 -3.49257 -3.04259 0
M  V30 1032 C 105.267 -4.39795 -3.67924 0
M  V30 1033 N 104.763 -5.40591 -4.33281 0
M  V30 1034 N 106.556 -4.275 -3.64966 0
M  V30 1035 H 98.7067 -2.0748 -0.454502 0
M  V30 1036 H 100.97 -0.910647 -0.26349 0
M  V30 1037 H 100.676 -3.16587 -1.53184 0
M  V30 1038 H 100.55 -2.25306 -3.02518 0
M  V30 1039 H 102.937 -1.34473 -2.6268 0
M  V30 1040 H 103.018 -2.2925 -1.13482 0
M  V30 1041 H 102.662 -4.42359 -2.49562 0
M  V30 1042 H 102.592 -3.4451 -3.98272 0
M  V30 1043 H 105.083 -2.76337 -2.57771 0
M  V30 1044 H 105.396 -6.05904 -4.79687 0
M  V30 1045 H 103.741 -5.44475 -4.3194 0
M  V30 1046 H 106.932 -3.47987 -3.13086 0
M  V30 1047 H 107.105 -4.98258 -4.14298 0
M  V30 1048 N 100.511 1.16574 -1.06058 0
M  V30 1049 C 101.759 1.86677 -0.77434 0
M  V30 1050 C 102.08 1.81959 0.701147 0
M  V30 1051 O 101.35 1.2515 1.50713 0
M  V30 1052 H 99.9298 0.691134 -0.283449 0
M  V30 1053 H 102.592 1.41378 -1.34158 0
M  V30 1054 H 101.688 2.92181 -1.09711 0
M  V30 1055 N 101.989 0.842826 1.3317 0
M  V30 1056 C 102.936 0.276885 2.29133 0
M  V30 1057 C 103.906 -0.609527 1.54512 0
M  V30 1058 O 105.091 -0.546955 1.82792 0
M  V30 1059 C 102.231 -0.538707 3.40869 0
M  V30 1060 C 101.344 0.372169 4.30394 0
M  V30 1061 C 100.479 -0.454908 5.29249 0
M  V30 1062 C 99.5179 0.45411 6.10413 0
M  V30 1063 N 98.6549 -0.335075 7.013 0
M  V30 1064 H 103.495 1.10052 2.76934 0
M  V30 1065 H 101.032 0.554161 1.36262 0
M  V30 1066 H 102.99 -1.02709 4.0436 0
M  V30 1067 H 101.62 -1.32727 2.9425 0
M  V30 1068 H 100.672 0.97888 3.6759 0
M  V30 1069 H 101.984 1.0703 4.87182 0
M  V30 1070 H 101.138 -1.00695 5.98285 0
M  V30 1071 H 99.8769 -1.18646 4.73048 0
M  V30 1072 H 98.8819 1.01813 5.40291 0
M  V30 1073 H 100.107 1.18409 6.68697 0
M  V30 1074 H 98.0529 -1.04994 6.47543 0
M  V30 1075 H 97.9699 0.304262 7.55387 0
M  V30 1076 H 99.2379 -0.869224 7.74638 0
M  V30 1077 N 103.467 -1.45747 0.599634 0
M  V30 1078 C 104.692 -2.07178 0.0960198 0
M  V30 1079 C 105.117 -1.44268 -1.207 0
M  V30 1080 O 104.475 -0.532503 -1.73303 0
M  V30 1081 C 104.523 -3.60579 -0.0385348 0
M  V30 1082 O 103.627 -3.97713 -1.0908 0
M  V30 1083 H 102.968 -0.660251 0.0704593 0
M  V30 1084 H 105.498 -1.87124 0.827385 0
M  V30 1085 H 105.508 -4.07298 -0.239304 0
M  V30 1086 H 104.183 -4.05756 0.912947 0
M  V30 1087 H 102.76 -3.62678 -0.867135 0
M  V30 1088 N 104.945 -0.338344 -1.53925 0
M  V30 1089 C 106.193 0.259245 -2.0043 0
M  V30 1090 C 106.514 1.51484 -1.22791 0
M  V30 1091 O 105.784 1.93037 -0.33368 0
M  V30 1092 H 104.364 0.0987845 -0.740439 0
M  V30 1093 H 107.026 -0.458302 -1.89435 0
M  V30 1094 H 106.122 0.505334 -3.07982 0
M  V30 1095 N 106.423 1.57458 -0.0668435 0
M  V30 1096 C 107.355 2.09413 0.931601 0
M  V30 1097 C 108.368 1.02522 1.26464 0
M  V30 1098 O 109.557 1.30049 1.22269 0
M  V30 1099 C 106.657 2.53537 2.24882 0
M  V30 1100 C 105.83 3.83944 2.09537 0
M  V30 1101 C 104.889 4.14214 3.2452 0
M  V30 1102 O 103.915 4.83891 2.9973 0
M  V30 1103 N 105.117 3.67367 4.49469 0
M  V30 1104 H 107.882 2.95699 0.488048 0
M  V30 1105 H 105.443 1.61462 0.119009 0
M  V30 1106 H 107.435 2.70853 3.00701 0
M  V30 1107 H 106.005 1.72415 2.60753 0
M  V30 1108 H 105.225 3.76057 1.18215 0
M  V30 1109 H 106.513 4.69312 1.96529 0
M  V30 1110 H 105.911 3.11068 4.72497 0
M  V30 1111 H 104.468 3.89891 5.2233 0
M  V30 1112 N 107.901 -0.206675 1.56239 0
M  V30 1113 C 109.149 -0.927007 1.79586 0
M  V30 1114 C 109.47 -1.8427 0.637929 0
M  V30 1115 O 108.74 -1.92849 -0.344398 0
M  V30 1116 H 107.32 -0.345292 0.662407 0
M  V30 1117 H 109.982 -0.21496 1.93711 0
M  V30 1118 H 109.078 -1.52501 2.72305 0
M  V30 1119 N 109.379 -1.50304 -0.473955 0
M  V30 1120 C 110.609 -1.64663 -1.24778 0
M  V30 1121 C 111.017 -0.328174 -1.86332 0
M  V30 1122 O 110.36 0.699536 -1.69859 0
M  V30 1123 C 110.422 -2.6778 -2.39863 0
M  V30 1124 C 110.086 -4.11413 -1.98969 0
M  V30 1125 C 111.083 -4.97372 -1.51385 0
M  V30 1126 C 108.768 -4.57312 -2.07777 0
M  V30 1127 C 110.762 -6.27277 -1.13148 0
M  V30 1128 C 108.449 -5.87223 -1.69152 0
M  V30 1129 C 109.447 -6.72031 -1.21915 0
M  V30 1130 O 109.135 -7.99518 -0.838237 0
M  V30 1131 H 108.867 -0.556602 -0.383627 0
M  V30 1132 H 111.421 -1.9726 -0.572491 0
M  V30 1133 H 109.651 -2.30419 -3.10554 0
M  V30 1134 H 111.34 -2.71388 -3.01833 0
M  V30 1135 H 112.106 -4.63128 -1.44004 0
M  V30 1136 H 107.985 -3.91449 -2.43493 0
M  V30 1137 H 111.529 -6.93425 -0.762077 0
M  V30 1138 H 107.426 -6.20989 -1.76191 0
M  V30 1139 H 108.194 -8.12764 -0.967339 0
M  V30 1140 N 110.857 0.726932 -1.39834 0
M  V30 1141 C 112.087 1.51393 -1.40583 0
M  V30 1142 C 112.495 1.892 -0.000740625 0
M  V30 1143 O 111.838 1.55189 0.982951 0
M  V30 1144 C 111.9 2.82588 -2.22226 0
M  V30 1145 C 111.564 2.67169 -3.70769 0
M  V30 1146 C 112.561 2.3518 -4.63666 0
M  V30 1147 C 110.246 2.83788 -4.14451 0
M  V30 1148 C 112.24 2.20002 -5.98229 0
M  V30 1149 C 109.927 2.68229 -5.49087 0
M  V30 1150 C 110.925 2.36382 -6.4079 0
M  V30 1151 O 110.613 2.2093 -7.72946 0
M  V30 1152 H 110.345 0.474168 -0.48181 0
M  V30 1153 H 112.899 0.905247 -1.84376 0
M  V30 1154 H 111.129 3.45746 -1.73195 0
M  V30 1155 H 112.818 3.44247 -2.15055 0
M  V30 1156 H 113.584 2.21984 -4.31217 0
M  V30 1157 H 109.463 3.07566 -3.43401 0
M  V30 1158 H 113.007 1.95067 -6.69772 0
M  V30 1159 H 108.904 2.81006 -5.81125 0
M  V30 1160 H 109.672 2.35937 -7.83757 0
M  V30 1161 N 112.336 1.25143 0.95797 0
M  V30 1162 C 113.582 1.09855 1.70469 0
M  V30 1163 C 113.915 -0.360187 1.90831 0
M  V30 1164 O 113.19 -1.26568 1.47685 0
M  V30 1165 C 113.473 1.8497 3.08963 0
M  V30 1166 C 113.326 3.38652 2.96032 0
M  V30 1167 C 114.645 1.63016 4.08795 0
M  V30 1168 H 111.764 0.400465 0.618706 0
M  V30 1169 H 114.406 1.53933 1.11376 0
M  V30 1170 H 112.556 1.47505 3.59409 0
M  V30 1171 H 114.228 3.85772 2.52938 0
M  V30 1172 H 112.471 3.66534 2.32025 0
M  V30 1173 H 113.142 3.8642 3.94187 0
M  V30 1174 H 115.618 1.95625 3.67247 0
M  V30 1175 H 114.494 2.18015 5.03747 0
M  V30 1176 H 114.755 0.570692 4.38401 0
M  V30 1177 N 113.814 -1.1601 1.06675 0
M  V30 1178 C 114.724 -2.24156 0.692179 0
M  V30 1179 C 115.74 -1.71507 -0.293513 0
M  V30 1180 O 116.916 -2.009 -0.141861 0
M  V30 1181 C 113.981 -3.46587 0.0884131 0
M  V30 1182 C 113.042 -4.14257 1.12646 0
M  V30 1183 C 112.275 -5.30844 0.551416 0
M  V30 1184 O 112.498 -5.66858 -0.634656 0
M  V30 1185 O 111.432 -5.87848 1.29298 0
M  V30 1186 H 115.258 -2.58513 1.59388 0
M  V30 1187 H 112.843 -1.23599 0.83926 0
M  V30 1188 H 114.725 -4.20679 -0.246361 0
M  V30 1189 H 113.4 -3.13994 -0.786712 0
M  V30 1190 H 112.307 -3.42118 1.51348 0
M  V30 1191 H 113.64 -4.50914 1.97325 0
M  V30 1192 N 115.292 -0.849877 -1.32721 0
M  V30 1193 C 116.225 -0.235903 -2.26977 0
M  V30 1194 C 117.203 0.623355 -1.50177 0
M  V30 1195 O 118.387 0.581207 -1.79316 0
M  V30 1196 C 115.514 0.667712 -3.32053 0
M  V30 1197 C 114.56 -0.11753 -4.26338 0
M  V30 1198 S 115.393 -1.48277 -5.14562 0
M  V30 1199 C 116.549 -0.584741 -6.23163 0
M  V30 1200 H 116.782 -1.03495 -2.78704 0
M  V30 1201 H 114.315 -0.64724 -1.40179 0
M  V30 1202 H 116.273 1.18343 -3.93072 0
M  V30 1203 H 114.934 1.44052 -2.7912 0
M  V30 1204 H 114.127 0.57051 -5.00761 0
M  V30 1205 H 113.729 -0.564668 -3.69713 0
M  V30 1206 H 116.021 0.212968 -6.77165 0
M  V30 1207 H 116.964 -1.29947 -6.96074 0
M  V30 1208 H 117.372 -0.161202 -5.6427 0
M  V30 1209 N 116.77 1.45427 -0.607355 0
M  V30 1210 C 117.998 2.06614 -0.108814 0
M  V30 1211 C 118.413 1.45204 1.2067 0
M  V30 1212 O 117.77 0.566132 1.73497 0
M  V30 1213 C 117.821 3.61481 0.0375347 0
M  V30 1214 O 117.542 4.20598 -1.22593 0
M  V30 1215 C 119.043 4.39652 0.567561 0
M  V30 1216 H 116.263 0.66747 -0.0687351 0
M  V30 1217 H 118.807 1.86675 -0.835022 0
M  V30 1218 H 116.962 3.80762 0.714068 0
M  V30 1219 H 117.376 5.1377 -1.05547 0
M  V30 1220 H 118.85 5.48518 0.61905 0
M  V30 1221 H 119.327 4.09417 1.58978 0
M  V30 1222 H 119.933 4.25234 -0.0749202 0
M  V30 1223 N 118.248 0.346503 1.53744 0
M  V30 1224 C 119.494 -0.249473 2.0126 0
M  V30 1225 C 119.827 -1.49965 1.23386 0
M  V30 1226 O 119.102 -1.91811 0.32229 0
M  V30 1227 C 119.385 -0.560643 3.55709 0
M  V30 1228 C 119.238 0.701836 4.44291 0
M  V30 1229 C 120.557 -1.36905 4.18264 0
M  V30 1230 H 117.676 -0.0891987 0.731582 0
M  V30 1231 H 120.318 0.467624 1.84156 0
M  V30 1232 H 118.468 -1.17156 3.70414 0
M  V30 1233 H 120.14 1.33974 4.41417 0
M  V30 1234 H 118.383 1.32612 4.13033 0
M  V30 1235 H 119.054 0.43933 5.50249 0
M  V30 1236 H 121.53 -0.852448 4.07275 0
M  V30 1237 H 120.406 -1.55553 5.26398 0
M  V30 1238 H 120.667 -2.37203 3.73078 0
M  V30 1239 N 119.726 -1.57421 0.075193 0
M  V30 1240 C 120.974 -1.93236 -0.591974 0
M  V30 1241 C 121.295 -0.956241 -1.69944 0
M  V30 1242 O 120.565 -0.00494792 -1.95899 0
M  V30 1243 H 119.145 -0.713355 -0.22166 0
M  V30 1244 H 121.807 -1.9444 0.133848 0
M  V30 1245 H 120.903 -2.95131 -1.01509 0
M  V30 1246 N 121.204 0.198386 -1.56346 0
M  V30 1247 C 122.429 0.939682 -1.84891 0
M  V30 1248 C 122.854 1.76202 -0.658369 0
M  V30 1249 O 122.212 1.76993 0.392851 0
M  V30 1250 C 122.26 1.81428 -3.11635 0
M  V30 1251 O 121.364 2.91265 -2.91956 0
M  V30 1252 H 120.705 0.264807 -0.608912 0
M  V30 1253 H 123.235 0.204695 -2.03573 0
M  V30 1254 H 123.245 2.21958 -3.42343 0
M  V30 1255 H 121.92 1.21004 -3.97908 0
M  V30 1256 H 120.497 2.54514 -2.72538 0
M  V30 1257 N 122.682 1.50554 0.465978 0
M  V30 1258 C 124.093 1.54599 1.04671 0
M  V30 1259 C 124.444 0.352488 1.93008 0
M  V30 1260 O 123.569 -0.534044 2.09707 0
M  V30 1261 C 124.164 2.80166 1.90505 0
M  V30 1262 C 122.723 2.86876 2.43678 0
M  V30 1263 C 121.87 2.48947 1.22151 0
M  V30 1264 H 124.821 1.56744 0.248384 0
M  V30 1265 H 124.842 2.62311 2.75633 0
M  V30 1266 H 124.354 3.67013 1.26186 0
M  V30 1267 H 122.455 2.04393 3.11536 0
M  V30 1268 H 122.568 3.89885 2.78436 0
M  V30 1269 H 120.932 2.01498 1.5579 0
M  V30 1270 H 121.715 3.38107 0.594866 0
M  V30 1271 N 124.16 -0.719506 1.40217 0
M  V30 1272 C 125.571 -1.29848 1.34151 0
M  V30 1273 C 125.922 -1.96196 0.0131349 0
M  V30 1274 O 125.047 -1.973 -0.88892 0
M  V30 1275 C 125.642 -2.36118 2.42968 0
M  V30 1276 C 124.201 -2.8965 2.40374 0
M  V30 1277 C 123.348 -1.63393 2.24049 0
M  V30 1278 H 126.299 -0.51591 1.5008 0
M  V30 1279 H 126.32 -3.16871 2.10649 0
M  V30 1280 H 125.832 -1.878 3.39636 0
M  V30 1281 H 123.933 -3.42208 1.47392 0
M  V30 1282 H 124.046 -3.4171 3.35814 0
M  V30 1283 H 122.41 -1.88312 1.71495 0
M  V30 1284 H 123.193 -1.17104 3.2271 0
M  V30 1285 N 125.638 -1.25649 -0.95132 0
M  V30 1286 C 126.57 -1.02112 -2.05197 0
M  V30 1287 C 127.583 0.0150571 -1.62793 0
M  V30 1288 O 128.772 -0.223874 -1.77091 0
M  V30 1289 C 125.872 -0.522361 -3.3485 0
M  V30 1290 C 125.045 -1.62546 -4.06076 0
M  V30 1291 C 124.104 -1.12649 -5.14001 0
M  V30 1292 O 123.13 -1.82156 -5.39266 0
M  V30 1293 N 124.332 0.03047 -5.80492 0
M  V30 1294 H 127.097 -1.96885 -2.25957 0
M  V30 1295 H 124.658 -1.16899 -1.1201 0
M  V30 1296 H 126.65 -0.172961 -4.0433 0
M  V30 1297 H 125.22 0.33151 -3.10837 0
M  V30 1298 H 124.44 -2.14628 -3.30649 0
M  V30 1299 H 125.728 -2.36644 -4.50419 0
M  V30 1300 H 125.126 0.611169 -5.62389 0
M  V30 1301 H 123.683 0.320875 -6.5101 0
M  V30 1302 N 127.117 1.15442 -1.07289 0
M  V30 1303 C 128.345 1.90096 -0.81676 0
M  V30 1304 C 128.76 1.7798 0.629966 0
M  V30 1305 O 128.117 1.1313 1.43206 0
M  V30 1306 C 128.168 3.40466 -1.21512 0
M  V30 1307 O 127.889 3.52232 -2.60508 0
M  V30 1308 C 129.39 4.32145 -0.988198 0
M  V30 1309 H 126.61 0.602495 -0.295366 0
M  V30 1310 H 129.154 1.4627 -1.42918 0
M  V30 1311 H 127.309 3.81958 -0.647039 0
M  V30 1312 H 127.723 4.45549 -2.76742 0
M  V30 1313 H 129.197 5.36072 -1.31645 0
M  V30 1314 H 129.674 4.39135 0.0755063 0
M  V30 1315 H 130.28 3.96395 -1.54115 0
M  V30 1316 N 128.595 0.856903 1.32268 0
M  V30 1317 C 129.525 0.31858 2.31316 0
M  V30 1318 C 130.506 -0.583487 1.59779 0
M  V30 1319 O 131.691 -0.503259 1.87566 0
M  V30 1320 C 128.821 -0.491979 3.43798 0
M  V30 1321 C 127.775 0.315849 4.26833 0
M  V30 1322 C 127.101 -0.619586 5.31098 0
M  V30 1323 C 128.401 1.54282 4.98993 0
M  V30 1324 H 130.095 1.14621 2.76591 0
M  V30 1325 H 127.641 0.552613 1.32974 0
M  V30 1326 H 129.594 -0.879012 4.1213 0
M  V30 1327 H 128.318 -1.35299 2.97257 0
M  V30 1328 H 126.977 0.684664 3.6015 0
M  V30 1329 H 126.625 -1.47751 4.8081 0
M  V30 1330 H 126.325 -0.0830621 5.87541 0
M  V30 1331 H 127.849 -1.00375 6.02293 0
M  V30 1332 H 129.263 1.22796 5.59995 0
M  V30 1333 H 127.66 2.01745 5.65172 0
M  V30 1334 H 128.73 2.30285 4.26728 0
M  V30 1335 N 130.073 -1.45103 0.615059 0
M  V30 1336 C 131.021 -2.32331 -0.111791 0
M  V30 1337 C 132.015 -1.46409 -0.852102 0
M  V30 1338 O 133.221 -1.62849 -0.766821 0
M  V30 1339 H 129.596 -0.749993 -0.0549072 0
M  V30 1340 H 131.567 -2.91407 0.642225 0
M  V30 1341 C 130.316 -3.3015 -1.09071 0
M  V30 1342 H 129.639 -3.96265 -0.530485 0
M  V30 1343 H 131.079 -3.93898 -1.56908 0
M  V30 1344 C 129.538 -2.57875 -2.168 0
M  V30 1345 O 130.068 -2.36567 -3.24652 0
M  V30 1346 N 128.274 -2.17884 -1.92289 0
M  V30 1347 H 127.821 -2.35413 -1.04587 0
M  V30 1348 H 127.779 -1.6985 -2.64572 0
M  V30 1349 N 131.551 -0.354651 -1.53558 0
M  V30 1350 C 132.8 0.239504 -2.00273 0
M  V30 1351 C 133.113 1.50759 -1.24623 0
M  V30 1352 O 134.319 2.17968 -1.61871 0
M  V30 1353 C 132.775 0.477341 -3.5672 0
M  V30 1354 C 132.383 -0.775488 -4.41237 0
M  V30 1355 C 134.127 1.02975 -4.11821 0
M  V30 1356 C 132.034 -0.507838 -5.89216 0
M  V30 1357 H 130.964 0.0932743 -0.748208 0
M  V30 1358 H 133.615 -0.471701 -1.77334 0
M  V30 1359 H 131.997 1.24953 -3.7577 0
M  V30 1360 H 133.171 -1.54963 -4.33962 0
M  V30 1361 H 131.486 -1.25033 -3.97185 0
M  V30 1362 H 134.083 1.24513 -5.2 0
M  V30 1363 H 134.426 1.98862 -3.65731 0
M  V30 1364 H 134.959 0.317994 -3.96527 0
M  V30 1365 H 131.698 -1.43674 -6.39561 0
M  V30 1366 H 131.218 0.228011 -5.99366 0
M  V30 1367 H 132.897 -0.129238 -6.46871 0
M  V30 1368 N 133.029 1.57378 -0.0835403 0
M  V30 1369 C 133.959 2.1641 0.87686 0
M  V30 1370 C 134.94 1.09429 1.30228 0
M  V30 1371 O 136.125 1.37516 1.37124 0
M  V30 1372 C 133.255 2.73517 2.14022 0
M  V30 1373 C 132.209 3.85769 1.85381 0
M  V30 1374 C 131.535 4.29529 3.18448 0
M  V30 1375 C 132.835 5.09486 1.14984 0
M  V30 1376 H 134.529 2.96914 0.385059 0
M  V30 1377 H 132.075 1.42823 0.18377 0
M  V30 1378 H 134.028 3.13463 2.81636 0
M  V30 1379 H 132.752 1.90252 2.65465 0
M  V30 1380 H 131.411 3.46345 1.20169 0
M  V30 1381 H 131.059 3.43169 3.67755 0
M  V30 1382 H 130.759 5.05204 3.00071 0
M  V30 1383 H 132.283 4.72099 3.8724 0
M  V30 1384 H 133.697 5.46674 1.72687 0
M  V30 1385 H 132.094 5.90515 1.06826 0
M  V30 1386 H 133.164 4.84724 0.130749 0
M  V30 1387 N 134.507 -0.190092 1.56449 0
M  V30 1388 C 135.753 -0.911052 1.81184 0
M  V30 1389 C 136.086 -1.82699 0.658396 0
M  V30 1390 O 135.361 -1.91491 -0.340775 0
M  V30 1391 C 135.644 -1.72297 3.16205 0
M  V30 1392 C 135.497 -0.831419 4.42049 0
M  V30 1393 C 136.816 -2.69454 3.47969 0
M  V30 1394 H 133.935 -0.32977 0.659106 0
M  V30 1395 H 136.577 -0.178169 1.89163 0
M  V30 1396 H 134.727 -2.34778 3.09534 0
M  V30 1397 H 136.399 -0.220929 4.60771 0
M  V30 1398 H 134.642 -0.138406 4.33579 0
M  V30 1399 H 135.313 -1.43461 5.33032 0
M  V30 1400 H 137.789 -2.17104 3.54972 0
M  V30 1401 H 136.665 -3.23342 4.43555 0
M  V30 1402 H 136.926 -3.48744 2.71717 0
M  V30 1403 N 135.985 -1.50799 -0.457987 0
M  V30 1404 C 137.262 -1.52968 -1.21902 0
M  V30 1405 C 137.642 -0.281906 -2.09209 0
M  V30 1406 O 136.99 0.734076 -2.16388 0
M  V30 1407 C 137.2 -2.8326 -2.03875 0
M  V30 1408 C 138.548 -3.34425 -2.6162 0
M  V30 1409 O 139.572 -2.8467 -2.14106 0
M  V30 1410 O 138.431 -4.21188 -3.48228 0
M  V30 1411 H 135.525 -0.614129 -0.553873 0
M  V30 1412 H 138.071 -1.63098 -0.468739 0
M  V30 1413 H 136.843 -3.65543 -1.39621 0
M  V30 1414 H 136.466 -2.76195 -2.8601 0
M  V30 1415 N 137.463 0.71206 -1.40597 0
M  V30 1416 C 138.691 1.50111 -1.42388 0
M  V30 1417 C 139.106 1.88784 -0.0245395 0
M  V30 1418 O 138.463 1.55681 0.952351 0
M  V30 1419 C 138.514 2.7742 -2.31776 0
M  V30 1420 O 138.235 2.40382 -3.66262 0
M  V30 1421 C 139.736 3.7129 -2.42196 0
M  V30 1422 H 136.956 0.46314 -0.485533 0
M  V30 1423 H 139.5 0.878068 -1.8469 0
M  V30 1424 H 137.655 3.36001 -1.92827 0
M  V30 1425 H 138.069 3.22324 -4.13772 0
M  V30 1426 H 139.543 4.57448 -3.08943 0
M  V30 1427 H 140.02 4.14641 -1.44809 0
M  V30 1428 H 140.626 3.18619 -2.81712 0
M  V30 1429 N 138.941 1.26152 0.944643 0
M  V30 1430 C 140.189 1.11271 1.6871 0
M  V30 1431 C 140.51 -0.345166 1.91921 0
M  V30 1432 O 139.78 -1.24387 1.51343 0
M  V30 1433 H 138.36 0.408783 0.625224 0
M  V30 1434 H 141.022 1.58427 1.1352 0
M  V30 1435 H 140.118 1.62879 2.66227 0
M  V30 1436 N 140.419 -1.14872 1.07899 0
M  V30 1437 C 141.644 -1.90202 0.826926 0
M  V30 1438 C 142.069 -1.77774 -0.614664 0
M  V30 1439 O 141.427 -1.11431 -1.43013 0
M  V30 1440 C 141.475 -3.38352 1.24702 0
M  V30 1441 O 140.579 -4.10497 0.39575 0
M  V30 1442 H 139.92 -0.591968 0.300782 0
M  V30 1443 H 142.45 -1.45437 1.43907 0
M  V30 1444 H 142.46 -3.89156 1.22563 0
M  V30 1445 H 141.135 -3.46715 2.29698 0
M  V30 1446 H 139.712 -3.69796 0.480117 0
M  V30 1447 N 141.898 -0.863906 -1.31812 0
M  V30 1448 C 143.123 -0.48527 -2.01643 0
M  V30 1449 C 143.548 0.913058 -1.64453 0
M  V30 1450 O 142.906 1.6014 -0.849985 0
M  V30 1451 C 142.954 -0.642625 -3.54828 0
M  V30 1452 O 142.058 0.320659 -4.11151 0
M  V30 1453 H 141.399 -0.193793 -0.635091 0
M  V30 1454 H 143.929 -1.16565 -1.68148 0
M  V30 1455 H 143.939 -0.533628 -4.04495 0
M  V30 1456 H 142.614 -1.66227 -3.81237 0
M  V30 1457 H 141.191 0.167126 -3.72525 0
M  V30 1458 N 143.376 1.44774 -0.622745 0
M  V30 1459 C 144.324 2.32387 0.0994683 0
M  V30 1460 C 145.318 1.46859 0.844326 0
M  V30 1461 O 146.524 1.63254 0.758174 0
M  V30 1462 H 142.899 0.750273 0.0509291 0
M  V30 1463 H 144.87 2.91062 -0.65767 0
M  V30 1464 C 143.619 3.30723 1.07319 0
M  V30 1465 H 142.942 3.96541 0.509462 0
M  V30 1466 H 144.382 3.94725 1.54817 0
M  V30 1467 C 142.841 2.59021 2.15429 0
M  V30 1468 O 143.371 2.38286 3.23393 0
M  V30 1469 N 141.577 2.189 1.91131 0
M  V30 1470 H 141.124 2.35964 1.03337 0
M  V30 1471 H 141.082 1.71251 2.63668 0
M  V30 1472 N 144.854 0.36279 1.53368 0
M  V30 1473 C 146.101 -0.227776 2.01215 0
M  V30 1474 C 146.429 -1.49003 1.25014 0
M  V30 1475 O 145.684 -1.92876 0.331236 0
M  V30 1476 C 145.983 -0.568417 3.52851 0
M  V30 1477 C 145.649 0.59918 4.46901 0
M  V30 1478 C 144.311 0.919559 4.72332 0
M  V30 1479 C 146.663 1.38156 5.02556 0
M  V30 1480 C 143.991 2.02434 5.5067 0
M  V30 1481 C 146.343 2.47674 5.821 0
M  V30 1482 C 145.007 2.8025 6.05819 0
M  V30 1483 H 144.277 -0.083349 0.736297 0
M  V30 1484 H 146.924 0.494677 1.85001 0
M  V30 1485 H 145.229 -1.37185 3.66998 0
M  V30 1486 H 146.926 -1.03756 3.87344 0
M  V30 1487 H 143.516 0.339437 4.27254 0
M  V30 1488 H 147.7 1.14729 4.82857 0
M  V30 1489 H 142.956 2.28075 5.67267 0
M  V30 1490 H 147.13 3.08716 6.24234 0
M  V30 1491 H 144.757 3.65979 6.66306 0
M  V30 1492 N 146.332 -1.57332 0.0918853 0
M  V30 1493 C 147.295 -2.12708 -0.85369 0
M  V30 1494 C 148.295 -1.05561 -1.213 0
M  V30 1495 O 149.485 -1.31461 -1.14296 0
M  V30 1496 C 146.617 -2.64503 -2.15061 0
M  V30 1497 H 147.81 -2.97573 -0.3729 0
M  V30 1498 H 145.363 -1.55509 -0.157072 0
M  V30 1499 H 146.098 -1.83149 -2.67632 0
M  V30 1500 H 145.883 -3.4284 -1.90272 0
M  V30 1501 H 147.373 -3.07351 -2.82711 0
M  V30 1502 N 147.81 0.181792 -1.56548 0
M  V30 1503 C 149.056 0.901431 -1.81665 0
M  V30 1504 C 149.389 1.82347 -0.668075 0
M  V30 1505 O 148.664 1.91669 0.330615 0
M  V30 1506 C 148.947 1.70618 -3.17115 0
M  V30 1507 C 148.8 0.807964 -4.42484 0
M  V30 1508 C 150.119 2.67605 -3.49393 0
M  V30 1509 H 147.238 0.32627 -0.660846 0
M  V30 1510 H 149.88 0.168134 -1.89255 0
M  V30 1511 H 148.03 2.33133 -3.10775 0
M  V30 1512 H 149.702 0.19649 -4.60881 0
M  V30 1513 H 147.945 0.115411 -4.33646 0
M  V30 1514 H 148.616 1.40632 -5.33785 0
M  V30 1515 H 151.092 2.15218 -3.56118 0
M  V30 1516 H 149.968 3.20985 -4.45264 0
M  V30 1517 H 150.229 3.47298 -2.73563 0
M  V30 1518 N 149.288 1.51039 0.449983 0
M  V30 1519 C 150.536 1.62759 1.19808 0
M  V30 1520 C 150.857 0.339981 1.92013 0
M  V30 1521 O 150.127 -0.643606 1.85026 0
M  V30 1522 H 148.707 0.599811 0.445237 0
M  V30 1523 H 151.369 1.87914 0.517138 0
M  V30 1524 H 150.465 2.44911 1.93455 0
M  V30 1525 N 150.766 -0.704594 1.40972 0
M  V30 1526 C 151.729 -1.80035 1.41845 0
M  V30 1527 C 152.729 -1.57774 0.310474 0
M  V30 1528 O 153.919 -1.64613 0.56992 0
M  V30 1529 C 151.051 -3.18284 1.22098 0
M  V30 1530 H 152.244 -1.80658 2.3938 0
M  V30 1531 H 149.797 -0.911329 1.26982 0
M  V30 1532 H 150.532 -3.23306 0.253672 0
M  V30 1533 H 150.317 -3.35843 2.02366 0
M  V30 1534 H 151.807 -3.98289 1.25522 0
M  V30 1535 N 152.244 -1.26651 -0.937939 0
M  V30 1536 C 153.207 -1.08546 -2.01867 0
M  V30 1537 C 154.207 -0.0327327 -1.60767 0
M  V30 1538 O 155.397 -0.276427 -1.71993 0
M  V30 1539 C 152.529 -0.651711 -3.34613 0
M  V30 1540 H 153.722 -2.04502 -2.1936 0
M  V30 1541 H 151.275 -1.09294 -1.11734 0
M  V30 1542 H 152.01 0.309696 -3.22818 0
M  V30 1543 H 151.795 -1.41189 -3.65798 0
M  V30 1544 H 153.285 -0.546973 -4.14002 0
M  V30 1545 N 153.722 1.14298 -1.08507 0
M  V30 1546 C 155.133 1.66926 -0.836227 0
M  V30 1547 C 155.484 1.85576 0.63686 0
M  V30 1548 O 154.609 1.56767 1.49175 0
M  V30 1549 C 155.204 3.03219 -1.51142 0
M  V30 1550 C 153.763 3.52876 -1.30979 0
M  V30 1551 C 152.91 2.2833 -1.57356 0
M  V30 1552 H 155.861 0.983491 -1.24552 0
M  V30 1553 H 155.882 3.68726 -0.939211 0
M  V30 1554 H 155.394 2.89612 -2.58353 0
M  V30 1555 H 153.495 3.71703 -0.258429 0
M  V30 1556 H 153.608 4.33586 -2.03814 0
M  V30 1557 H 151.972 2.34454 -0.995164 0
M  V30 1558 H 152.755 2.17298 -2.65775 0
M  V30 1559 N 155.201 0.870884 1.31352 0
M  V30 1560 C 156.151 0.298889 2.26032 0
M  V30 1561 C 157.135 -0.564595 1.50669 0
M  V30 1562 O 158.327 -0.411323 1.72154 0
M  V30 1563 C 155.456 -0.497842 3.39671 0
M  V30 1564 C 154.542 0.378937 4.22404 0
M  V30 1565 N 154.933 1.47284 4.83881 0
M  V30 1566 C 153.231 0.171535 4.4567 0
M  V30 1567 C 153.932 2.01359 5.45738 0
M  V30 1568 N 152.908 1.31047 5.27568 0
M  V30 1569 H 156.71 1.13494 2.71102 0
M  V30 1570 H 154.224 0.718745 1.45629 0
M  V30 1571 H 156.221 -0.924155 4.06528 0
M  V30 1572 H 154.881 -1.33149 2.96144 0
M  V30 1573 H 155.892 1.85575 4.8351 0
M  V30 1574 H 152.569 -0.626091 4.12779 0
M  V30 1575 H 153.959 2.93143 6.0458 0
M  V30 1576 N 156.679 -1.44442 0.630414 0
M  V30 1577 C 158.09 -1.85434 0.217063 0
M  V30 1578 C 158.441 -1.52748 -1.23136 0
M  V30 1579 O 157.566 -0.965205 -1.93682 0
M  V30 1580 C 158.161 -3.36581 0.387168 0
M  V30 1581 C 156.72 -3.76389 0.0283297 0
M  V30 1582 C 155.867 -2.68296 0.700889 0
M  V30 1583 H 158.818 -1.34919 0.83562 0
M  V30 1584 H 158.839 -3.78657 -0.374086 0
M  V30 1585 H 158.351 -3.60339 1.44144 0
M  V30 1586 H 156.452 -3.58246 -1.02423 0
M  V30 1587 H 156.565 -4.77095 0.437892 0
M  V30 1588 H 154.929 -2.54335 0.136267 0
M  V30 1589 H 155.712 -2.94887 1.75774 0
M  V30 1590 N 158.157 -0.370918 -1.53173 0
M  V30 1591 C 159.404 0.217102 -2.01333 0
M  V30 1592 C 159.732 1.48338 -1.25802 0
M  V30 1593 O 158.987 1.92698 -0.34146 0
M  V30 1594 C 159.286 0.549696 -3.53147 0
M  V30 1595 C 158.952 -0.622872 -4.46577 0
M  V30 1596 C 157.614 -0.944595 -4.71838 0
M  V30 1597 C 159.966 -1.40819 -5.01816 0
M  V30 1598 C 157.294 -2.05351 -5.49589 0
M  V30 1599 C 159.646 -2.50757 -5.80778 0
M  V30 1600 C 158.31 -2.83458 -6.04324 0
M  V30 1601 H 157.58 0.0794431 -0.736729 0
M  V30 1602 H 160.227 -0.504481 -1.84736 0
M  V30 1603 H 158.532 1.35237 -3.6772 0
M  V30 1604 H 160.229 1.017 -3.87889 0
M  V30 1605 H 156.819 -0.36209 -4.27068 0
M  V30 1606 H 161.003 -1.17289 -4.82242 0
M  V30 1607 H 156.259 -2.3108 -5.6605 0
M  V30 1608 H 160.433 -3.12022 -6.22588 0
M  V30 1609 H 158.06 -3.69508 -6.64355 0
M  V30 1610 N 159.635 1.57281 -0.100228 0
M  V30 1611 C 160.565 2.17328 0.853857 0
M  V30 1612 C 161.546 1.10804 1.2906 0
M  V30 1613 O 162.731 1.38963 1.35657 0
M  V30 1614 C 159.861 2.75772 2.11109 0
M  V30 1615 C 158.815 3.87713 1.81279 0
M  V30 1616 C 158.141 4.32882 3.13874 0
M  V30 1617 C 159.441 5.10677 1.09574 0
M  V30 1618 H 161.135 2.97305 0.353545 0
M  V30 1619 H 158.681 1.43009 0.168612 0
M  V30 1620 H 160.634 3.16433 2.78296 0
M  V30 1621 H 159.358 1.93057 2.63432 0
M  V30 1622 H 158.017 3.476 1.16489 0
M  V30 1623 H 157.665 3.47051 3.64095 0
M  V30 1624 H 157.365 5.08358 2.94696 0
M  V30 1625 H 158.889 4.7618 3.82211 0
M  V30 1626 H 160.303 5.48474 1.66879 0
M  V30 1627 H 158.7 5.91615 1.00557 0
M  V30 1628 H 159.77 4.84835 0.0793299 0
M  V30 1629 N 161.113 -0.173488 1.56642 0
M  V30 1630 C 162.063 -1.21941 1.92651 0
M  V30 1631 C 163.047 -1.39912 0.794577 0
M  V30 1632 O 164.239 -1.41919 1.05773 0
M  V30 1633 C 161.368 -2.55935 2.28806 0
M  V30 1634 C 160.454 -2.41667 3.48508 0
M  V30 1635 N 160.845 -1.9711 4.65813 0
M  V30 1636 C 159.143 -2.72499 3.53072 0
M  V30 1637 C 159.844 -1.95253 5.47952 0
M  V30 1638 N 158.82 -2.37575 4.88937 0
M  V30 1639 H 162.622 -0.866581 2.80834 0
M  V30 1640 H 160.136 -0.381776 1.57849 0
M  V30 1641 H 162.133 -3.31511 2.52797 0
M  V30 1642 H 160.793 -2.92022 1.41961 0
M  V30 1643 H 161.804 -1.67481 4.90072 0
M  V30 1644 H 158.481 -3.12639 2.767 0
M  V30 1645 H 159.871 -1.6252 6.51948 0
M  V30 1646 N 162.591 -1.51276 -0.441967 0
M  V30 1647 C 164.007 -1.39349 -0.778083 0
M  V30 1648 C 164.207 -0.472212 -1.95889 0
M  V30 1649 O 163.263 0.0743551 -2.5239 0
M  V30 1650 C 164.576 -2.81292 -1.0628 0
M  V30 1651 C 166.124 -2.9041 -1.16751 0
M  V30 1652 C 166.599 -4.33251 -1.48519 0
M  V30 1653 N 168.09 -4.36336 -1.55453 0
M  V30 1654 C 168.825 -5.43885 -1.81596 0
M  V30 1655 N 168.321 -6.61601 -2.05562 0
M  V30 1656 N 170.114 -5.3136 -1.8334 0
M  V30 1657 H 162.265 -2.09729 0.335774 0
M  V30 1658 H 164.528 -0.943925 0.0878028 0
M  V30 1659 H 164.234 -3.50678 -0.267905 0
M  V30 1660 H 164.108 -3.20334 -1.99163 0
M  V30 1661 H 166.495 -2.21225 -1.95304 0
M  V30 1662 H 166.576 -2.54871 -0.217801 0
M  V30 1663 H 166.22 -5.02984 -0.704958 0
M  V30 1664 H 166.15 -4.66299 -2.44689 0
M  V30 1665 H 168.641 -3.51466 -1.38853 0
M  V30 1666 H 168.954 -7.39361 -2.24867 0
M  V30 1667 H 167.299 -6.64725 -2.02894 0
M  V30 1668 H 170.49 -4.38382 -1.64132 0
M  V30 1669 H 170.663 -6.15258 -2.03377 0
M  V30 1670 N 164.069 0.697108 -1.41344 0
M  V30 1671 C 165.299 1.48377 -1.43763 0
M  V30 1672 C 165.707 1.89156 -0.0408726 0
M  V30 1673 O 165.05 1.57239 0.949812 0
M  V30 1674 C 165.112 2.7781 -2.2817 0
M  V30 1675 C 164.776 2.59244 -3.76353 0
M  V30 1676 C 165.773 2.25292 -4.68551 0
M  V30 1677 C 163.458 2.74933 -4.20378 0
M  V30 1678 C 165.452 2.07264 -6.02761 0
M  V30 1679 C 163.139 2.56521 -5.54653 0
M  V30 1680 C 164.137 2.22737 -6.4566 0
M  V30 1681 O 163.825 2.04485 -7.77458 0
M  V30 1682 H 163.557 0.463842 -0.491759 0
M  V30 1683 H 166.111 0.865934 -1.86255 0
M  V30 1684 H 164.341 3.41995 -1.8049 0
M  V30 1685 H 166.03 3.39608 -2.22309 0
M  V30 1686 H 166.796 2.12787 -4.35829 0
M  V30 1687 H 162.675 3.00213 -3.49848 0
M  V30 1688 H 166.219 1.80817 -6.73759 0
M  V30 1689 H 162.116 2.68616 -5.86955 0
M  V30 1690 H 162.884 2.1926 -7.88586 0
M  V30 1691 N 165.547 1.27147 0.931209 0
M  V30 1692 C 166.777 1.15914 1.71019 0
M  V30 1693 C 167.185 -0.287112 1.87009 0
M  V30 1694 O 166.528 -1.20761 1.38429 0
M  V30 1695 C 166.59 1.76647 3.13107 0
M  V30 1696 C 166.254 3.25807 3.20467 0
M  V30 1697 C 167.251 4.22489 3.02983 0
M  V30 1698 C 164.936 3.66452 3.43538 0
M  V30 1699 C 166.93 5.57794 3.08454 0
M  V30 1700 C 164.617 5.01888 3.48643 0
M  V30 1701 C 165.615 5.97369 3.31119 0
M  V30 1702 O 165.303 7.30337 3.35952 0
M  V30 1703 H 165.035 0.404062 0.54195 0
M  V30 1704 H 167.589 1.68457 1.17521 0
M  V30 1705 H 165.819 1.18578 3.68071 0
M  V30 1706 H 167.508 1.60179 3.72958 0
M  V30 1707 H 168.274 3.92425 2.85004 0
M  V30 1708 H 164.153 2.92611 3.5623 0
M  V30 1709 H 167.697 6.32298 2.94694 0
M  V30 1710 H 163.594 5.31609 3.66145 0
M  V30 1711 H 164.362 7.38739 3.5243 0
M  V30 1712 N 167.025 -1.13721 1.09112 0
M  V30 1713 C 167.957 -2.1871 0.685467 0
M  V30 1714 C 168.97 -1.60527 -0.271068 0
M  V30 1715 O 170.159 -1.78407 -0.0576148 0
M  V30 1716 C 167.259 -3.38898 -0.0111255 0
M  V30 1717 C 166.432 -4.26597 0.966131 0
M  V30 1718 C 165.491 -5.25324 0.303539 0
M  V30 1719 O 164.517 -5.61213 0.950177 0
M  V30 1720 N 165.719 -5.72779 -0.943651 0
M  V30 1721 H 168.484 -2.54126 1.58871 0
M  V30 1722 H 166.045 -1.29012 0.978143 0
M  V30 1723 H 168.037 -4.02014 -0.465517 0
M  V30 1724 H 166.607 -3.01747 -0.816565 0
M  V30 1725 H 165.827 -3.60306 1.59917 0
M  V30 1726 H 167.115 -4.82048 1.6281 0
M  V30 1727 H 166.513 -5.45762 -1.48862 0
M  V30 1728 H 165.07 -6.37847 -1.34142 0
M  V30 1729 N 168.503 -0.877838 -1.30888 0
M  V30 1730 C 169.919 -0.570844 -1.49042 0
M  V30 1731 C 170.119 0.893159 -1.80624 0
M  V30 1732 O 169.175 1.67485 -1.88958 0
M  V30 1733 C 170.488 -1.47784 -2.61878 0
M  V30 1734 C 172.036 -1.48071 -2.75761 0
M  V30 1735 C 172.511 -2.37347 -3.91702 0
M  V30 1736 N 174.002 -2.35271 -3.99001 0
M  V30 1737 C 174.737 -3.01063 -4.88004 0
M  V30 1738 N 174.233 -3.76055 -5.81854 0
M  V30 1739 N 176.026 -2.90332 -4.81315 0
M  V30 1740 H 168.177 -1.82502 -1.0866 0
M  V30 1741 H 170.44 -0.780797 -0.537644 0
M  V30 1742 H 170.146 -2.51993 -2.45341 0
M  V30 1743 H 170.02 -1.18215 -3.58197 0
M  V30 1744 H 172.407 -0.446166 -2.91708 0
M  V30 1745 H 172.488 -1.81668 -1.80085 0
M  V30 1746 H 172.132 -3.40883 -3.76512 0
M  V30 1747 H 172.062 -2.01071 -4.86701 0
M  V30 1748 H 174.553 -1.80768 -3.3186 0
M  V30 1749 H 174.866 -4.23366 -6.46514 0
M  V30 1750 H 173.211 -3.80163 -5.81808 0
M  V30 1751 H 176.402 -2.31278 -4.06974 0
M  V30 1752 H 176.575 -3.41885 -5.50471 0
M  V30 1753 N 169.982 1.44106 -0.638065 0
M  V30 1754 C 170.914 2.28976 0.101205 0
M  V30 1755 C 171.927 1.4167 0.802088 0
M  V30 1756 O 173.116 1.65755 0.662375 0
M  V30 1757 C 170.216 3.18217 1.16581 0
M  V30 1758 C 169.389 4.33978 0.546066 0
M  V30 1759 C 168.448 5.04202 1.50554 0
M  V30 1760 O 167.474 5.59986 1.01999 0
M  V30 1761 N 168.676 5.06296 2.8398 0
M  V30 1762 H 171.441 2.93064 -0.627186 0
M  V30 1763 H 169.002 1.54629 -0.479731 0
M  V30 1764 H 170.994 3.62061 1.80815 0
M  V30 1765 H 169.564 2.55833 1.79634 0
M  V30 1766 H 168.784 3.93239 -0.275046 0
M  V30 1767 H 170.072 5.08675 0.112793 0
M  V30 1768 H 169.47 4.62319 3.26002 0
M  V30 1769 H 168.027 5.53907 3.43556 0
M  V30 1770 N 171.46 0.379036 1.52974 0
M  V30 1771 C 172.39 -0.452706 2.29069 0
M  V30 1772 C 173.371 -1.07237 1.32039 0
M  V30 1773 O 174.556 -1.08708 1.60923 0
M  V30 1774 C 171.686 -1.5856 3.08992 0
M  V30 1775 C 170.64 -1.0925 4.13822 0
M  V30 1776 C 169.966 -2.31668 4.81907 0
M  V30 1777 C 171.266 -0.167702 5.22031 0
M  V30 1778 H 172.96 0.182181 2.98845 0
M  V30 1779 H 170.506 0.0890592 1.43724 0
M  V30 1780 H 172.459 -2.1742 3.6098 0
M  V30 1781 H 171.183 -2.24792 2.36931 0
M  V30 1782 H 169.842 -0.526494 3.628 0
M  V30 1783 H 169.49 -2.96386 4.06404 0
M  V30 1784 H 169.19 -1.9934 5.52754 0
M  V30 1785 H 170.714 -2.91189 5.36695 0
M  V30 1786 H 172.128 -0.664186 5.6944 0
M  V30 1787 H 170.525 0.0653265 6.00064 0
M  V30 1788 H 171.595 0.786347 4.78482 0
M  V30 1789 N 172.938 -1.57226 0.108567 0
M  V30 1790 C 174.163 -1.99604 -0.563303 0
M  V30 1791 C 174.588 -0.987563 -1.6009 0
M  V30 1792 O 173.946 0.0421687 -1.81251 0
M  V30 1793 C 173.994 -3.40902 -1.17552 0
M  V30 1794 O 173.098 -3.42896 -2.2912 0
M  V30 1795 H 172.439 -0.648704 -0.1417 0
M  V30 1796 H 174.969 -2.03679 0.193961 0
M  V30 1797 H 174.979 -3.78886 -1.51357 0
M  V30 1798 H 173.654 -4.1382 -0.415445 0
M  V30 1799 H 172.231 -3.1672 -1.96832 0
M  V30 1800 N 174.416 0.165178 -1.56732 0
M  V30 1801 C 175.641 0.900253 -1.86843 0
M  V30 1802 C 176.066 1.74766 -0.695596 0
M  V30 1803 O 175.424 1.77786 0.35522 0
M  V30 1804 C 175.472 1.74777 -3.15413 0
M  V30 1805 O 174.576 2.85007 -2.98068 0
M  V30 1806 H 173.917 0.251832 -0.614391 0
M  V30 1807 H 176.447 0.161468 -2.03962 0
M  V30 1808 H 176.457 2.14646 -3.46974 0
M  V30 1809 H 175.132 1.12537 -4.00385 0
M  V30 1810 H 173.709 2.48676 -2.77875 0
M  V30 1811 N 175.894 1.51508 0.433938 0
M  V30 1812 C 177.122 1.68157 1.20543 0
M  V30 1813 C 177.537 0.380362 1.84929 0
M  V30 1814 O 176.894 -0.641446 1.70856 0
M  V30 1815 C 176.945 2.79965 2.28696 0
M  V30 1816 O 176.666 4.05045 1.66943 0
M  V30 1817 C 178.167 3.07912 3.18912 0
M  V30 1818 H 175.387 0.56421 0.363191 0
M  V30 1819 H 177.931 1.97941 0.513754 0
M  V30 1820 H 176.086 2.5277 2.93574 0
M  V30 1821 H 176.5 4.67165 2.38448 0
M  V30 1822 H 177.974 3.89719 3.90926 0
M  V30 1823 H 178.451 2.20456 3.79863 0
M  V30 1824 H 179.057 3.36779 2.59731 0
M  V30 1825 N 177.372 -0.689602 1.41712 0
M  V30 1826 C 178.602 -1.47613 1.44548 0
M  V30 1827 C 179.01 -1.89132 0.0509034 0
M  V30 1828 O 178.353 -1.57741 -0.94146 0
M  V30 1829 C 178.415 -2.76596 2.2964 0
M  V30 1830 C 178.079 -2.57245 3.77722 0
M  V30 1831 C 179.076 -2.22804 4.69739 0
M  V30 1832 C 176.761 -2.727 4.2183 0
M  V30 1833 C 178.755 -2.04064 6.03851 0
M  V30 1834 C 176.442 -2.53576 5.56006 0
M  V30 1835 C 177.44 -2.1931 6.46832 0
M  V30 1836 O 177.128 -2.00359 7.78532 0
M  V30 1837 H 176.86 -0.461227 0.494212 0
M  V30 1838 H 179.414 -0.856045 1.86711 0
M  V30 1839 H 177.644 -3.41033 1.82301 0
M  V30 1840 H 179.333 -3.38424 2.24107 0
M  V30 1841 H 180.099 -2.10473 4.36951 0
M  V30 1842 H 175.978 -2.98353 3.51435 0
M  V30 1843 H 179.522 -1.77241 6.74708 0
M  V30 1844 H 175.419 -2.65499 5.88371 0
M  V30 1845 H 176.187 -2.15075 7.89737 0
M  V30 1846 N 178.85 -1.27639 -0.924453 0
M  V30 1847 C 180.266 -1.05113 -1.20097 0
M  V30 1848 C 180.466 0.213262 -2.00368 0
M  V30 1849 O 179.522 0.91787 -2.35226 0
M  V30 1850 C 180.835 -2.29244 -1.94596 0
M  V30 1851 C 182.383 -2.34315 -2.07522 0
M  V30 1852 C 182.858 -3.58183 -2.85427 0
M  V30 1853 N 184.349 -3.5876 -2.92994 0
M  V30 1854 C 185.084 -4.51277 -3.53746 0
M  V30 1855 N 184.58 -5.54102 -4.15863 0
M  V30 1856 N 186.373 -4.38894 -3.51181 0
M  V30 1857 H 178.524 -2.08821 -0.388264 0
M  V30 1858 H 180.787 -0.918568 -0.234385 0
M  V30 1859 H 180.493 -3.21301 -1.43034 0
M  V30 1860 H 180.367 -2.34816 -2.95197 0
M  V30 1861 H 182.754 -1.42762 -2.58269 0
M  V30 1862 H 182.835 -2.32744 -1.06131 0
M  V30 1863 H 182.479 -4.50074 -2.35363 0
M  V30 1864 H 182.409 -3.57006 -3.8711 0
M  V30 1865 H 184.9 -2.84398 -2.4885 0
M  V30 1866 H 185.213 -6.20859 -4.60168 0
M  V30 1867 H 183.558 -5.57941 -4.144 0
M  V30 1868 H 186.749 -3.57772 -3.01856 0
M  V30 1869 H 186.922 -5.11186 -3.98237 0
M  V30 1870 N 180.328 1.1314 -1.09713 0
M  V30 1871 C 181.605 1.80762 -0.747302 0
M  V30 1872 C 181.985 1.96663 0.767265 0
M  V30 1873 O 181.333 1.53706 1.69076 0
M  V30 1874 C 181.543 3.15606 -1.48975 0
M  V30 1875 C 182.891 3.90914 -1.65746 0
M  V30 1876 O 183.915 3.25239 -1.45251 0
M  V30 1877 O 182.774 5.08718 -1.9967 0
M  V30 1878 H 179.868 0.782103 -0.268782 0
M  V30 1879 H 182.414 1.20041 -1.19951 0
M  V30 1880 H 181.186 2.99278 -2.52088 0
M  V30 1881 H 180.809 3.84029 -1.02991 0
M  V30 1882 N 181.806 0.884767 1.30421 0
M  V30 1883 C 182.736 0.367574 2.30589 0
M  V30 1884 C 183.717 -0.549464 1.60981 0
M  V30 1885 O 184.902 -0.46336 1.88591 0
M  V30 1886 C 182.032 -0.418944 3.44764 0
M  V30 1887 C 180.986 0.406316 4.26067 0
M  V30 1888 C 180.312 -0.506793 5.32293 0
M  V30 1889 C 181.612 1.64832 4.95608 0
M  V30 1890 H 183.306 1.20462 2.74097 0
M  V30 1891 H 180.852 0.580695 1.31772 0
M  V30 1892 H 182.805 -0.791395 4.13902 0
M  V30 1893 H 181.529 -1.28964 3.0006 0
M  V30 1894 H 180.188 0.760903 3.58617 0
M  V30 1895 H 179.836 -1.37519 4.83836 0
M  V30 1896 H 179.536 0.0415828 5.87585 0
M  V30 1897 H 181.06 -0.875764 6.04287 0
M  V30 1898 H 182.474 1.34646 5.57264 0
M  V30 1899 H 180.871 2.13688 5.60765 0
M  V30 1900 H 181.941 2.39284 4.21748 0
M  V30 1901 N 183.284 -1.43765 0.645699 0
M  V30 1902 C 184.7 -1.56509 0.312591 0
M  V30 1903 C 184.9 -1.6307 -1.18365 0
M  V30 1904 O 183.956 -1.58167 -1.96824 0
M  V30 1905 C 185.269 -2.82968 1.01733 0
M  V30 1906 C 186.817 -2.96701 0.996865 0
M  V30 1907 C 187.292 -4.25982 1.68236 0
M  V30 1908 N 188.783 -4.32829 1.64964 0
M  V30 1909 C 189.518 -5.31613 2.14885 0
M  V30 1910 N 189.014 -6.36718 2.73061 0
M  V30 1911 N 190.807 -5.23217 2.05428 0
M  V30 1912 H 182.958 -1.3775 1.61675 0
M  V30 1913 H 185.221 -0.661067 0.679481 0
M  V30 1914 H 184.927 -2.84156 2.0724 0
M  V30 1915 H 184.801 -3.72957 0.564177 0
M  V30 1916 H 187.188 -2.95058 -0.0497719 0
M  V30 1917 H 187.269 -2.08022 1.48865 0
M  V30 1918 H 186.913 -4.28386 2.72852 0
M  V30 1919 H 186.843 -5.13545 1.16529 0
M  V30 1920 H 189.334 -3.57493 1.22503 0
M  V30 1921 H 189.647 -7.08401 3.08848 0
M  V30 1922 H 187.992 -6.37362 2.77118 0
M  V30 1923 H 191.183 -4.40019 1.59689 0
M  V30 1924 H 191.356 -6.00045 2.44643 0
M  V30 1925 N 184.763 -0.387143 -1.52771 0
M  V30 1926 C 185.71 0.449048 -2.26389 0
M  V30 1927 C 186.68 1.05961 -1.27912 0
M  V30 1928 O 187.865 1.08804 -1.56737 0
M  V30 1929 C 185.005 1.57155 -3.0724 0
M  V30 1930 C 184.118 0.984066 -4.20643 0
M  V30 1931 C 183.253 2.07745 -4.88892 0
M  V30 1932 C 182.292 1.46574 -5.94292 0
M  V30 1933 N 181.429 2.49834 -6.56146 0
M  V30 1934 H 186.269 -0.185205 -2.97424 0
M  V30 1935 H 183.806 -0.103164 -1.46738 0
M  V30 1936 H 185.764 2.23309 -3.52405 0
M  V30 1937 H 184.394 2.17615 -2.38419 0
M  V30 1938 H 183.446 0.212193 -3.79808 0
M  V30 1939 H 184.758 0.497029 -4.96318 0
M  V30 1940 H 183.912 2.81673 -5.3735 0
M  V30 1941 H 182.651 2.59807 -4.12737 0
M  V30 1942 H 181.656 0.711696 -5.45174 0
M  V30 1943 H 182.881 0.953088 -6.72379 0
M  V30 1944 H 180.827 3.0107 -5.82832 0
M  V30 1945 H 180.744 2.05879 -7.27427 0
M  V30 1946 H 182.012 3.23399 -7.09249 0
M  V30 1947 N 186.241 1.57166 -0.116904 0
M  V30 1948 C 187.489 1.94737 0.540533 0
M  V30 1949 C 187.81 1.00096 1.67349 0
M  V30 1950 O 187.08 0.0568854 1.95817 0
M  V30 1951 H 185.66 0.718981 0.202669 0
M  V30 1952 H 188.322 1.94017 -0.185353 0
M  V30 1953 H 187.418 2.97719 0.936483 0
M  V30 1954 N 187.719 -0.156864 1.56817 0
M  V30 1955 C 188.965 -0.872416 1.83076 0
M  V30 1956 C 189.298 -1.81261 0.697001 0
M  V30 1957 O 188.573 -1.92171 -0.30008 0
M  V30 1958 C 188.856 -1.65551 3.19789 0
M  V30 1959 C 188.709 -0.737467 4.43713 0
M  V30 1960 C 190.028 -2.62012 3.53606 0
M  V30 1961 H 187.147 -0.315715 0.665953 0
M  V30 1962 H 189.789 -0.138004 1.89498 0
M  V30 1963 H 187.939 -2.28159 3.14445 0
M  V30 1964 H 189.611 -0.123143 4.61136 0
M  V30 1965 H 187.854 -0.0464067 4.33775 0
M  V30 1966 H 188.525 -1.32122 5.35955 0
M  V30 1967 H 191.001 -2.09525 3.59497 0
M  V30 1968 H 189.877 -3.13861 4.50314 0
M  V30 1969 H 190.138 -3.42902 2.79053 0
M  V30 1970 N 189.197 -1.51736 -0.425897 0
M  V30 1971 C 190.427 -1.68549 -1.19476 0
M  V30 1972 C 190.835 -0.387288 -1.85194 0
M  V30 1973 O 190.178 0.645142 -1.71999 0
M  V30 1974 C 190.24 -2.75275 -2.31223 0
M  V30 1975 C 189.904 -4.17534 -1.8578 0
M  V30 1976 C 190.901 -5.01936 -1.35485 0
M  V30 1977 C 188.586 -4.6369 -1.93123 0
M  V30 1978 C 190.58 -6.30559 -0.931347 0
M  V30 1979 C 188.267 -5.92307 -1.50384 0
M  V30 1980 C 189.265 -6.75569 -1.00473 0
M  V30 1981 O 188.953 -8.0178 -0.583452 0
M  V30 1982 H 188.685 -0.568525 -0.365725 0
M  V30 1983 H 191.239 -1.98982 -0.509444 0
M  V30 1984 H 189.469 -2.40182 -3.03067 0
M  V30 1985 H 191.158 -2.80853 -2.93047 0
M  V30 1986 H 191.924 -4.67475 -1.29197 0
M  V30 1987 H 187.803 -3.98997 -2.30916 0
M  V30 1988 H 191.347 -6.95498 -0.541084 0
M  V30 1989 H 187.244 -6.2628 -1.56346 0
M  V30 1990 H 188.012 -8.1543 -0.708275 0
M  V30 1991 N 190.675 0.682077 -1.42076 0
M  V30 1992 C 191.921 1.44428 -1.42367 0
M  V30 1993 C 192.254 1.94164 -0.0373056 0
M  V30 1994 O 191.529 1.70429 0.937239 0
M  V30 1995 C 191.812 2.64654 -2.44194 0
M  V30 1996 C 191.665 2.20596 -3.91991 0
M  V30 1997 C 192.984 3.66865 -2.431 0
M  V30 1998 H 190.103 0.523834 -0.518428 0
M  V30 1999 H 192.745 0.77576 -1.73442 0
M  V30 2000 H 190.895 3.2169 -2.17826 0
M  V30 2001 H 192.567 1.68783 -4.29313 0
M  V30 2002 H 190.81 1.52242 -4.06208 0
M  V30 2003 H 191.481 3.06921 -4.58807 0
M  V30 2004 H 193.957 3.19531 -2.66532 0
M  V30 2005 H 192.833 4.48577 -3.16339 0
M  V30 2006 H 193.094 4.17493 -1.45437 0
M  V30 2007 N 192.153 1.28127 0.917671 0
M  V30 2008 C 193.564 1.13622 1.48145 0
M  V30 2009 C 193.915 -0.275207 1.9426 0
M  V30 2010 O 193.04 -1.1691 1.82102 0
M  V30 2011 C 193.635 2.05648 2.69248 0
M  V30 2012 C 192.194 1.95219 3.21818 0
M  V30 2013 C 191.341 1.97618 1.94532 0
M  V30 2014 H 194.292 1.40874 0.730772 0
M  V30 2015 H 194.313 1.61818 3.44377 0
M  V30 2016 H 193.825 3.08365 2.35653 0
M  V30 2017 H 191.926 0.955244 3.60147 0
M  V30 2018 H 192.039 2.81976 3.87333 0
M  V30 2019 H 190.403 1.41973 2.11461 0
M  V30 2020 H 191.186 3.02007 1.63238 0
M  V30 2021 N 193.631 -1.12557 1.10312 0
M  V30 2022 C 194.861 -1.87592 0.865617 0
M  V30 2023 C 195.269 -1.79851 -0.587389 0
M  V30 2024 O 194.612 -1.16949 -1.41664 0
M  V30 2025 C 194.674 -3.37665 1.23381 0
M  V30 2026 C 194.338 -3.69181 2.69359 0
M  V30 2027 C 195.335 -3.67652 3.67597 0
M  V30 2028 C 193.02 -3.98555 3.05711 0
M  V30 2029 C 195.014 -3.95053 5.00212 0
M  V30 2030 C 192.701 -4.25616 4.38514 0
M  V30 2031 C 193.699 -4.23851 5.35574 0
M  V30 2032 O 193.387 -4.50242 6.65986 0
M  V30 2033 H 193.119 -0.600442 0.310557 0
M  V30 2034 H 195.673 -1.4335 1.47105 0
M  V30 2035 H 193.903 -3.82454 0.571467 0
M  V30 2036 H 195.592 -3.94041 0.973994 0
M  V30 2037 H 196.358 -3.45024 3.40857 0
M  V30 2038 H 192.237 -3.99071 2.30789 0
M  V30 2039 H 195.781 -3.93591 5.75962 0
M  V30 2040 H 191.678 -4.47718 4.64994 0
M  V30 2041 H 192.446 -4.67867 6.71597 0
M  V30 2042 N 195.109 -0.891671 -1.2995 0
M  V30 2043 C 196.337 -0.52866 -2.00032 0
M  V30 2044 C 196.752 0.884574 -1.66795 0
M  V30 2045 O 196.109 1.5827 -0.908669 0
M  V30 2046 C 196.16 -0.701814 -3.54622 0
M  V30 2047 O 195.881 -2.05942 -3.86678 0
M  V30 2048 C 197.382 -0.342683 -4.41973 0
M  V30 2049 H 194.602 -0.203659 -0.639347 0
M  V30 2050 H 197.146 -1.19881 -1.65677 0
M  V30 2051 H 195.301 -0.0789468 -3.8732 0
M  V30 2052 H 195.715 -2.08291 -4.81368 0
M  V30 2053 H 197.189 -0.514709 -5.49595 0
M  V30 2054 H 197.666 0.71975 -4.33262 0
M  V30 2055 H 198.272 -0.942154 -4.14733 0
M  V30 2056 N 196.587 1.43421 -0.653314 0
M  V30 2057 C 197.519 2.29071 0.0769134 0
M  V30 2058 C 198.532 1.42513 0.787017 0
M  V30 2059 O 199.721 1.66449 0.644757 0
M  V30 2060 C 196.821 3.19436 1.13199 0
M  V30 2061 C 195.994 4.34533 0.500006 0
M  V30 2062 C 195.053 5.05771 1.45198 0
M  V30 2063 O 194.079 5.61037 0.960538 0
M  V30 2064 N 195.281 5.0928 2.78594 0
M  V30 2065 H 198.046 2.92382 -0.658235 0
M  V30 2066 H 195.607 1.54112 -0.496104 0
M  V30 2067 H 197.599 3.63958 1.76964 0
M  V30 2068 H 196.169 2.57724 1.7691 0
M  V30 2069 H 195.389 3.92925 -0.316738 0
M  V30 2070 H 196.677 5.08766 0.0588345 0
M  V30 2071 H 196.075 4.65751 3.2108 0
M  V30 2072 H 194.632 5.57519 3.37662 0
M  V30 2073 N 198.065 0.39524 1.52563 0
M  V30 2074 C 199.313 -0.184678 2.01254 0
M  V30 2075 C 199.634 -1.46822 1.28329 0
M  V30 2076 O 198.904 -1.91666 0.405094 0
M  V30 2077 H 197.484 -0.0712355 0.743596 0
M  V30 2078 H 200.146 0.528293 1.87603 0
M  V30 2079 H 199.242 -0.390681 3.09645 0
M  V30 2080 N 199.544 -1.57102 0.125237 0
M  V30 2081 C 200.491 -2.15641 -0.822655 0
M  V30 2082 C 201.461 -1.08313 -1.25927 0
M  V30 2083 O 202.646 -1.36251 -1.33567 0
M  V30 2084 C 199.786 -2.76504 -2.06494 0
M  V30 2085 C 198.899 -3.98158 -1.67612 0
M  V30 2086 C 198.034 -4.47088 -2.86854 0
M  V30 2087 C 197.073 -5.6126 -2.44242 0
M  V30 2088 N 196.21 -6.04905 -3.56419 0
M  V30 2089 H 201.05 -2.96313 -0.316625 0
M  V30 2090 H 198.587 -1.46388 -0.144588 0
M  V30 2091 H 200.545 -3.09925 -2.79289 0
M  V30 2092 H 199.175 -1.98512 -2.54545 0
M  V30 2093 H 198.227 -3.70858 -0.846661 0
M  V30 2094 H 199.539 -4.80934 -1.32301 0
M  V30 2095 H 198.693 -4.82451 -3.67867 0
M  V30 2096 H 197.432 -3.63275 -3.25396 0
M  V30 2097 H 196.437 -5.25495 -1.61663 0
M  V30 2098 H 197.662 -6.46843 -2.0681 0
M  V30 2099 H 195.608 -5.24032 -3.94623 0
M  V30 2100 H 195.525 -6.82552 -3.25051 0
M  V30 2101 H 196.793 -6.44907 -4.37853 0
M  V30 2102 N 201.022 0.148545 -1.56898 0
M  V30 2103 C 202.268 0.857877 -1.84424 0
M  V30 2104 C 202.623 1.7886 -0.709006 0
M  V30 2105 O 201.916 1.89344 0.293139 0
M  V30 2106 C 202.11 1.67064 -3.1595 0
M  V30 2107 C 201.939 0.82011 -4.42159 0
M  V30 2108 C 200.709 0.486328 -5.02954 0
M  V30 2109 C 202.907 0.151155 -5.14078 0
M  V30 2110 N 200.889 -0.377956 -6.12735 0
M  V30 2111 C 202.26 -0.573333 -6.17343 0
M  V30 2112 C 204.315 0.0716685 -4.97848 0
M  V30 2113 C 203.018 -1.3698 -7.06137 0
M  V30 2114 C 205.044 -0.711532 -5.87104 0
M  V30 2115 C 204.406 -1.42431 -6.8985 0
M  V30 2116 H 200.505 0.291798 -0.725519 0
M  V30 2117 H 203.089 0.123347 -1.94309 0
M  V30 2118 H 201.26 2.37642 -3.07215 0
M  V30 2119 H 202.992 2.32302 -3.31388 0
M  V30 2120 H 199.747 0.821753 -4.66416 0
M  V30 2121 H 200.171 -0.801077 -6.72244 0
M  V30 2122 H 204.813 0.608381 -4.184 0
M  V30 2123 H 202.531 -1.91778 -7.85014 0
M  V30 2124 H 206.117 -0.775005 -5.76615 0
M  V30 2125 H 204.997 -2.02061 -7.57721 0
M  V30 2126 N 202.5 1.5196 0.417844 0
M  V30 2127 C 203.41 1.77554 1.53336 0
M  V30 2128 C 204.426 0.660655 1.6097 0
M  V30 2129 O 205.602 0.945099 1.77848 0
M  V30 2130 C 202.667 1.91291 2.89152 0
M  V30 2131 C 201.728 3.15183 2.91475 0
M  V30 2132 C 200.961 3.28256 4.20813 0
M  V30 2133 O 201.184 2.46798 5.14244 0
M  V30 2134 O 200.118 4.21356 4.29817 0
M  V30 2135 H 203.944 2.7222 1.34647 0
M  V30 2136 H 201.529 1.36698 0.602828 0
M  V30 2137 H 203.411 2.02199 3.69721 0
M  V30 2138 H 202.086 0.998129 3.07927 0
M  V30 2139 H 200.993 3.09739 2.09791 0
M  V30 2140 H 202.326 4.06414 2.77648 0
M  V30 2141 N 203.978 -0.674533 1.42435 0
M  V30 2142 C 205.226 -1.43175 1.42637 0
M  V30 2143 C 205.547 -1.94951 0.0438992 0
M  V30 2144 O 204.817 -1.7308 -0.917607 0
M  V30 2145 H 203.397 -0.531307 0.525092 0
M  V30 2146 H 206.059 -0.797006 1.77859 0
M  V30 2147 H 205.155 -2.28463 2.12629 0
M  V30 2148 N 205.456 -1.28612 -0.910864 0
M  V30 2149 C 206.366 -1.14643 -2.0468 0
M  V30 2150 C 207.382 -0.0723121 -1.7385 0
M  V30 2151 O 208.558 -0.282178 -1.99413 0
M  V30 2152 C 205.623 -0.812561 -3.37044 0
M  V30 2153 C 204.684 -1.96935 -3.81465 0
M  V30 2154 C 203.917 -1.65131 -5.07511 0
M  V30 2155 O 204.14 -0.567013 -5.67575 0
M  V30 2156 O 203.074 -2.49585 -5.47714 0
M  V30 2157 H 206.9 -2.1001 -2.19384 0
M  V30 2158 H 204.485 -1.07958 -1.03274 0
M  V30 2159 H 206.367 -0.640441 -4.16505 0
M  V30 2160 H 205.042 0.111426 -3.23508 0
M  V30 2161 H 203.949 -2.19664 -3.02818 0
M  V30 2162 H 205.282 -2.87414 -3.99567 0
M  V30 2163 N 206.934 1.1197 -1.10907 0
M  V30 2164 C 207.864 2.19928 -0.784473 0
M  V30 2165 C 208.845 1.6833 0.244726 0
M  V30 2166 O 210.03 1.93892 0.109418 0
M  V30 2167 C 207.16 3.46597 -0.220827 0
M  V30 2168 C 206.114 4.11376 -1.18127 0
M  V30 2169 C 205.44 5.32554 -0.478594 0
M  V30 2170 C 206.74 4.56945 -2.52979 0
M  V30 2171 H 208.434 2.47337 -1.68715 0
M  V30 2172 H 205.98 1.18879 -0.812642 0
M  V30 2173 H 207.933 4.21396 0.0184278 0
M  V30 2174 H 206.657 3.1863 0.717113 0
M  V30 2175 H 205.316 3.38564 -1.40606 0
M  V30 2176 H 204.964 5.00856 0.463976 0
M  V30 2177 H 204.664 5.76844 -1.11912 0
M  V30 2178 H 206.188 6.10096 -0.248 0
M  V30 2179 H 207.602 5.23093 -2.3462 0
M  V30 2180 H 205.999 5.1203 -3.12962 0
M  V30 2181 H 207.069 3.70676 -3.12614 0
M  V30 2182 N 208.412 0.89855 1.29475 0
M  V30 2183 C 209.66 0.522847 1.9522 0
M  V30 2184 C 209.981 -0.93371 1.71192 0
M  V30 2185 O 209.251 -1.65823 1.04305 0
M  V30 2186 H 207.831 0.190366 0.722336 0
M  V30 2187 H 210.493 1.14459 1.5775 0
M  V30 2188 H 209.589 0.704476 3.04045 0
M  V30 2189 N 209.89 -1.43072 0.660911 0
M  V30 2190 C 211.118 -2.06067 0.185422 0
M  V30 2191 C 211.533 -1.49582 -1.15198 0
M  V30 2192 O 210.89 -0.630134 -1.71276 0
M  V30 2193 C 210.941 -3.61371 0.0966523 0
M  V30 2194 O 210.662 -4.15758 1.38119 0
M  V30 2195 C 212.163 -4.41455 -0.403996 0
M  V30 2196 H 209.383 -0.664459 0.0934604 0
M  V30 2197 H 211.927 -1.83447 0.90373 0
M  V30 2198 H 210.082 -3.8315 -0.572259 0
M  V30 2199 H 210.496 -5.09499 1.24542 0
M  V30 2200 H 211.97 -5.50437 -0.415045 0
M  V30 2201 H 212.447 -4.15036 -1.43674 0
M  V30 2202 H 213.053 -4.24663 0.232691 0
M  V30 2203 N 211.368 -0.403325 -1.52352 0
M  V30 2204 C 212.645 0.232611 -1.94212 0
M  V30 2205 C 213.025 1.63133 -1.33981 0
M  V30 2206 O 212.373 2.22659 -0.513344 0
M  V30 2207 C 212.583 0.244811 -3.4814 0
M  V30 2208 C 213.931 0.46698 -4.22024 0
M  V30 2209 O 214.955 0.324419 -3.5472 0
M  V30 2210 O 213.814 0.74747 -5.41364 0
M  V30 2211 H 210.908 0.148223 -0.813609 0
M  V30 2212 H 213.454 -0.458848 -1.63379 0
M  V30 2213 H 212.226 -0.734378 -3.84347 0
M  V30 2214 H 211.849 0.980611 -3.85318 0
M  V30 2215 N 212.846 1.57033 -0.133567 0
M  V30 2216 C 213.776 2.1909 0.807567 0
M  V30 2217 C 214.757 1.13517 1.26681 0
M  V30 2218 O 215.942 1.41809 1.32679 0
M  V30 2219 C 213.072 2.80188 2.05212 0
M  V30 2220 C 212.026 3.91471 1.73015 0
M  V30 2221 C 211.352 4.39443 3.04622 0
M  V30 2222 C 212.652 5.12886 0.987168 0
M  V30 2223 H 214.346 2.97988 0.290403 0
M  V30 2224 H 211.892 1.43335 0.138239 0
M  V30 2225 H 213.845 3.22264 2.71521 0
M  V30 2226 H 212.569 1.98601 2.59278 0
M  V30 2227 H 211.228 3.49993 1.0909 0
M  V30 2228 H 210.876 3.54695 3.56651 0
M  V30 2229 H 210.576 5.14495 2.83847 0
M  V30 2230 H 212.1 4.8418 3.72024 0
M  V30 2231 H 213.514 5.51891 1.55208 0
M  V30 2232 H 211.911 5.93615 0.87985 0
M  V30 2233 H 212.981 4.84894 -0.0235286 0
M  V30 2234 N 214.325 -0.140222 1.56975 0
M  V30 2235 C 215.571 -0.852949 1.83991 0
M  V30 2236 C 215.904 -1.80512 0.716187 0
M  V30 2237 O 215.179 -1.92479 -0.279681 0
M  V30 2238 C 215.462 -1.6215 3.21527 0
M  V30 2239 C 215.315 -0.690363 4.4447 0
M  V30 2240 C 216.634 -2.58247 3.56366 0
M  V30 2241 H 213.753 -0.308634 0.669264 0
M  V30 2242 H 216.395 -0.117898 1.89634 0
M  V30 2243 H 214.545 -2.24812 3.16847 0
M  V30 2244 H 216.217 -0.0742264 4.6124 0
M  V30 2245 H 214.46 -0.000396433 4.338 0
M  V30 2246 H 215.131 -1.2643 5.37326 0
M  V30 2247 H 217.607 -2.05701 3.61699 0
M  V30 2248 H 216.483 -3.09067 4.53617 0
M  V30 2249 H 216.744 -3.39923 2.82674 0
M  V30 2250 N 215.803 -1.52179 -0.40978 0
M  V30 2251 C 217.028 -1.70347 -1.18308 0
M  V30 2252 C 217.453 -0.411887 -1.83535 0
M  V30 2253 O 216.811 0.630587 -1.6998 0
M  V30 2254 C 216.859 -2.83977 -2.22238 0
M  V30 2255 O 215.963 -2.495 -3.28365 0
M  V30 2256 H 215.304 -0.567103 -0.345384 0
M  V30 2257 H 217.834 -1.98879 -0.480445 0
M  V30 2258 H 217.844 -3.0887 -2.66577 0
M  V30 2259 H 216.519 -3.77685 -1.74146 0
M  V30 2260 H 215.096 -2.35277 -2.89308 0
M  V30 2261 N 217.281 0.66697 -1.42791 0
M  V30 2262 C 218.53 1.42278 -1.42968 0
M  V30 2263 C 218.843 1.9553 -0.0524489 0
M  V30 2264 O 220.049 2.71414 0.068363 0
M  V30 2265 C 218.505 2.57418 -2.51524 0
M  V30 2266 C 218.113 2.10832 -3.9529 0
M  V30 2267 C 219.857 3.34878 -2.60877 0
M  V30 2268 C 217.764 3.23101 -4.95338 0
M  V30 2269 H 216.694 0.534533 -0.531781 0
M  V30 2270 H 219.345 0.721302 -1.68729 0
M  V30 2271 H 217.727 3.29971 -2.18941 0
M  V30 2272 H 218.901 1.4538 -4.37266 0
M  V30 2273 H 217.216 1.46289 -3.89857 0
M  V30 2274 H 219.813 4.18505 -3.32802 0
M  V30 2275 H 220.156 3.81993 -1.6549 0
M  V30 2276 H 220.689 2.69398 -2.92693 0
M  V30 2277 H 217.428 2.80969 -5.9223 0
M  V30 2278 H 216.948 3.87309 -4.57987 0
M  V30 2279 H 218.627 3.88447 -5.17415 0
M  V30 2280 N 218.759 1.29093 0.90403 0
M  V30 2281 C 220.17 1.15186 1.46932 0
M  V30 2282 C 220.521 -0.254587 1.94541 0
M  V30 2283 O 219.646 -1.14972 1.83332 0
M  V30 2284 C 220.241 2.08492 2.67051 0
M  V30 2285 C 218.8 1.98621 3.19729 0
M  V30 2286 C 217.947 1.9967 1.92425 0
M  V30 2287 H 220.898 1.41641 0.715789 0
M  V30 2288 H 220.919 1.65461 3.42641 0
M  V30 2289 H 220.431 3.10847 2.3237 0
M  V30 2290 H 218.532 0.993389 3.59114 0
M  V30 2291 H 218.645 2.86068 3.8432 0
M  V30 2292 H 217.009 1.44208 2.09943 0
M  V30 2293 H 217.792 3.03721 1.60026 0
M  V30 2294 N 220.237 -1.11381 1.11499 0
M  V30 2295 C 221.187 -2.15555 0.74298 0
M  V30 2296 C 222.171 -1.58894 -0.253276 0
M  V30 2297 O 223.363 -1.76897 -0.0602918 0
M  V30 2298 C 220.492 -3.42782 0.188481 0
M  V30 2299 C 219.578 -4.064 1.21244 0
M  V30 2300 N 219.969 -4.44864 2.40685 0
M  V30 2301 C 218.267 -4.3333 1.05552 0
M  V30 2302 C 218.968 -4.94715 3.05994 0
M  V30 2303 N 217.944 -4.90909 2.33472 0
M  V30 2304 H 221.746 -2.43074 1.65203 0
M  V30 2305 H 219.26 -1.28401 0.994329 0
M  V30 2306 H 221.257 -4.16789 -0.0961693 0
M  V30 2307 H 219.917 -3.16727 -0.715149 0
M  V30 2308 H 220.928 -4.36876 2.78136 0
M  V30 2309 H 217.605 -4.1698 0.208372 0
M  V30 2310 H 218.995 -5.34103 4.07656 0
M  V30 2311 N 221.715 -0.905404 -1.28997 0
M  V30 2312 C 222.963 -0.533192 -1.9494 0
M  V30 2313 C 223.284 0.924618 -1.71685 0
M  V30 2314 O 222.554 1.65268 -1.05183 0
M  V30 2315 H 221.134 -0.194194 -0.721317 0
M  V30 2316 H 223.796 -1.15294 -1.57141 0
M  V30 2317 H 222.892 -0.72059 -3.03667 0
M  V30 2318 N 223.193 1.4272 -0.668489 0
M  V30 2319 C 224.604 1.84793 -0.266151 0
M  V30 2320 C 224.955 1.55959 1.19043 0
M  V30 2321 O 224.08 1.01622 1.91055 0
M  V30 2322 C 224.675 3.35436 -0.476271 0
M  V30 2323 C 223.234 3.76182 -0.128113 0
M  V30 2324 C 222.381 2.66344 -0.771777 0
M  V30 2325 H 225.332 1.32656 -0.871098 0
M  V30 2326 H 225.353 3.79515 0.273561 0
M  V30 2327 H 224.865 3.5639 -1.53647 0
M  V30 2328 H 222.966 3.60836 0.928891 0
M  V30 2329 H 223.079 4.75766 -0.564231 0
M  V30 2330 H 221.443 2.53885 -0.203652 0
M  V30 2331 H 222.226 2.90123 -1.83531 0
M  V30 2332 N 224.671 0.411399 1.52136 0
M  V30 2333 C 225.619 -0.427633 2.28635 0
M  V30 2334 C 226.613 -1.04383 1.33419 0
M  V30 2335 O 227.819 -0.981772 1.50868 0
M  V30 2336 H 224.194 -0.156689 0.735495 0
M  V30 2337 H 226.165 0.238761 2.97443 0
M  V30 2338 C 224.914 -1.53082 3.12188 0
M  V30 2339 H 224.237 -1.06601 3.85326 0
M  V30 2340 H 225.677 -2.09167 3.68816 0
M  V30 2341 C 224.136 -2.49946 2.25895 0
M  V30 2342 O 224.666 -3.53884 1.90076 0
M  V30 2343 N 222.872 -2.2021 1.8962 0
M  V30 2344 H 222.419 -1.35719 2.18948 0
M  V30 2345 H 222.377 -2.85266 1.32176 0
M  V30 2346 N 226.149 -1.5696 0.141893 0
M  V30 2347 C 227.395 -1.9625 -0.511248 0
M  V30 2348 C 227.728 -1.02654 -1.64851 0
M  V30 2349 O 227.003 -0.0679676 -1.94381 0
M  V30 2350 C 227.286 -3.45285 -1.02227 0
M  V30 2351 C 227.139 -4.49658 0.113138 0
M  V30 2352 C 228.458 -3.96698 -1.90574 0
M  V30 2353 H 225.577 -0.713567 -0.184367 0
M  V30 2354 H 228.219 -1.88698 0.222087 0
M  V30 2355 H 226.369 -3.51852 -1.64719 0
M  V30 2356 H 228.041 -4.55174 0.749302 0
M  V30 2357 H 226.284 -4.26857 0.773026 0
M  V30 2358 H 226.955 -5.51258 -0.286053 0
M  V30 2359 H 229.431 -3.92578 -1.37918 0
M  V30 2360 H 228.307 -5.01453 -2.2324 0
M  V30 2361 H 228.568 -3.3875 -2.84079 0
M  V30 2362 N 227.627 0.131896 -1.57047 0
M  V30 2363 C 228.855 0.856461 -1.88341 0
M  V30 2364 C 229.27 1.74042 -0.731757 0
M  V30 2365 O 228.627 1.80051 0.297945 0
M  V30 2366 C 228.678 1.70064 -3.18999 0
M  V30 2367 O 228.399 0.852278 -4.2973 0
M  V30 2368 C 229.9 2.53148 -3.63911 0
M  V30 2369 H 227.12 0.246885 -0.62393 0
M  V30 2370 H 229.664 0.120152 -2.04147 0
M  V30 2371 H 227.819 2.38984 -3.04902 0
M  V30 2372 H 228.233 1.43329 -5.04537 0
M  V30 2373 H 229.707 3.07931 -4.58129 0
M  V30 2374 H 230.184 3.29901 -2.89935 0
M  V30 2375 H 230.79 1.89492 -3.80753 0
M  V30 2376 N 229.106 1.52395 0.401703 0
M  V30 2377 C 230.352 1.67065 1.14966 0
M  V30 2378 C 230.685 0.403052 1.89971 0
M  V30 2379 O 229.96 -0.598774 1.85054 0
M  V30 2380 C 230.243 2.8975 2.13815 0
M  V30 2381 C 230.096 4.26578 1.42658 0
M  V30 2382 C 231.415 3.07965 3.14397 0
M  V30 2383 H 228.534 0.607968 0.416587 0
M  V30 2384 H 231.176 1.84965 0.434511 0
M  V30 2385 H 229.326 2.74619 2.74803 0
M  V30 2386 H 230.998 4.53451 0.847329 0
M  V30 2387 H 229.241 4.27639 0.72849 0
M  V30 2388 H 229.912 5.08483 2.14823 0
M  V30 2389 H 232.388 3.22043 2.63491 0
M  V30 2390 H 231.264 3.95308 3.80819 0
M  V30 2391 H 231.525 2.21611 3.82545 0
M  V30 2392 N 230.584 -0.659388 1.43143 0
M  V30 2393 C 232 -0.974337 1.26407 0
M  V30 2394 C 232.2 -2.007 0.179341 0
M  V30 2395 O 231.256 -2.4856 -0.444295 0
M  V30 2396 C 232.569 -1.46447 2.62628 0
M  V30 2397 C 234.117 -1.58144 2.7011 0
M  V30 2398 C 234.592 -2.1055 4.06734 0
M  V30 2399 N 236.083 -2.17861 4.08767 0
M  V30 2400 C 236.818 -2.59519 5.1131 0
M  V30 2401 N 236.314 -3.00518 6.24228 0
M  V30 2402 N 238.107 -2.59404 4.98664 0
M  V30 2403 H 230.258 0.0240528 2.12386 0
M  V30 2404 H 232.521 -0.0518065 0.946583 0
M  V30 2405 H 232.227 -0.780123 3.42939 0
M  V30 2406 H 232.101 -2.44058 2.87603 0
M  V30 2407 H 234.488 -2.25682 1.90136 0
M  V30 2408 H 234.569 -0.589828 2.48907 0
M  V30 2409 H 234.213 -1.43616 4.87172 0
M  V30 2410 H 234.143 -3.10531 4.25298 0
M  V30 2411 H 236.634 -1.88975 3.27257 0
M  V30 2412 H 236.947 -3.31036 6.98309 0
M  V30 2413 H 235.292 -2.98337 6.2771 0
M  V30 2414 H 238.483 -2.26747 4.09516 0
M  V30 2415 H 238.656 -2.91548 5.78709 0
M  V30 2416 N 232.062 -1.29571 -0.897171 0
M  V30 2417 C 233.025 -1.14913 -1.98312 0
M  V30 2418 C 234.025 -0.0838629 -1.60581 0
M  V30 2419 O 235.215 -0.331006 -1.71026 0
M  V30 2420 C 232.347 -0.757835 -3.3237 0
M  V30 2421 H 233.54 -2.11377 -2.12743 0
M  V30 2422 H 231.093 -1.12793 -1.08201 0
M  V30 2423 H 231.828 0.206837 -3.2364 0
M  V30 2424 H 231.613 -1.52755 -3.61121 0
M  V30 2425 H 233.103 -0.678408 -4.12053 0
M  V30 2426 N 233.54 1.10788 -1.12088 0
M  V30 2427 C 234.488 2.19111 -0.780587 0
M  V30 2428 C 235.482 1.67818 0.230961 0
M  V30 2429 O 236.688 1.79777 0.0895427 0
M  V30 2430 H 233.063 0.714477 -0.234578 0
M  V30 2431 H 235.034 2.45055 -1.70266 0
M  V30 2432 C 233.783 3.46818 -0.24747 0
M  V30 2433 H 233.106 3.86646 -1.01712 0
M  V30 2434 H 234.546 4.23973 -0.0476291 0
M  V30 2435 C 233.005 3.20968 1.02378 0
M  V30 2436 O 233.535 3.42298 2.10226 0
M  V30 2437 N 231.741 2.74658 0.949271 0
M  V30 2438 H 231.288 2.57501 0.0715173 0
M  V30 2439 H 231.246 2.57739 1.80049 0
M  V30 2440 N 235.018 0.912232 1.28515 0
M  V30 2441 C 236.267 0.540504 1.94323 0
M  V30 2442 C 236.58 -0.920044 1.72611 0
M  V30 2443 O 237.786 -1.39986 2.32629 0
M  V30 2444 C 236.242 0.915803 3.48053 0
M  V30 2445 C 235.85 2.39598 3.78546 0
M  V30 2446 C 237.594 0.614588 4.20027 0
M  V30 2447 C 235.501 2.71148 5.25578 0
M  V30 2448 H 234.431 0.198418 0.727424 0
M  V30 2449 H 237.082 1.11094 1.46049 0
M  V30 2450 H 235.464 0.274168 3.9505 0
M  V30 2451 H 236.638 3.08422 3.42364 0
M  V30 2452 H 234.953 2.66749 3.1974 0
M  V30 2453 H 237.55 0.827002 5.28266 0
M  V30 2454 H 237.893 -0.447531 4.13887 0
M  V30 2455 H 238.426 1.21462 3.78803 0
M  V30 2456 H 235.165 3.76207 5.36794 0
M  V30 2457 H 234.685 2.0696 5.62963 0
M  V30 2458 H 236.364 2.58072 5.93302 0
M  V30 2459 N 236.496 -1.42363 0.676048 0
M  V30 2460 C 237.459 -2.29199 0.00766941 0
M  V30 2461 C 238.459 -1.43389 -0.727745 0
M  V30 2462 O 239.649 -1.64764 -0.56556 0
M  V30 2463 C 236.781 -3.2591 -0.999785 0
M  V30 2464 H 237.974 -2.89794 0.771988 0
M  V30 2465 H 235.527 -1.50024 0.438468 0
M  V30 2466 H 236.262 -2.70256 -1.79255 0
M  V30 2467 H 236.047 -3.89202 -0.475829 0
M  V30 2468 H 237.537 -3.91028 -1.46583 0
M  V30 2469 N 237.974 -0.419461 -1.51915 0
M  V30 2470 C 238.937 0.389116 -2.25873 0
M  V30 2471 C 239.937 0.964924 -1.28631 0
M  V30 2472 O 241.127 0.842179 -1.52489 0
M  V30 2473 C 238.259 1.54874 -3.03689 0
M  V30 2474 H 239.452 -0.258799 -2.98781 0
M  V30 2475 H 237.005 -0.172209 -1.55348 0
M  V30 2476 H 237.74 2.23323 -2.35154 0
M  V30 2477 H 237.525 1.14223 -3.75094 0
M  V30 2478 H 239.015 2.12046 -3.59759 0
M  V30 2479 N 239.452 1.56882 -0.150215 0
M  V30 2480 C 240.701 1.95403 0.500071 0
M  V30 2481 C 241.014 1.03777 1.658 0
M  V30 2482 O 242.22 1.31889 2.37313 0
M  V30 2483 C 240.676 3.4738 0.941018 0
M  V30 2484 C 240.284 4.47596 -0.190158 0
M  V30 2485 C 242.028 3.9476 1.56091 0
M  V30 2486 C 239.935 5.90787 0.269237 0
M  V30 2487 H 238.865 0.729515 0.190588 0
M  V30 2488 H 241.516 1.81988 -0.235074 0
M  V30 2489 H 239.898 3.56138 1.73152 0
M  V30 2490 H 241.072 4.50536 -0.967157 0
M  V30 2491 H 239.387 4.10151 -0.718666 0
M  V30 2492 H 241.984 4.99181 1.9163 0
M  V30 2493 H 242.327 3.36494 2.45107 0
M  V30 2494 H 242.86 3.88932 0.835249 0
M  V30 2495 H 239.599 6.52879 -0.585621 0
M  V30 2496 H 239.119 5.912 1.01204 0
M  V30 2497 H 240.798 6.42979 0.720176 0
M  V30 2498 N 240.93 -0.123565 1.57115 0
M  V30 2499 C 242.158 -0.846461 1.88793 0
M  V30 2500 C 242.573 -1.73652 0.740976 0
M  V30 2501 O 241.93 -1.80207 -0.288393 0
M  V30 2502 C 241.981 -1.6837 3.19897 0
M  V30 2503 O 241.702 -0.829477 4.30176 0
M  V30 2504 C 243.203 -2.51214 3.65248 0
M  V30 2505 H 240.423 -0.243573 0.625231 0
M  V30 2506 H 242.967 -0.109324 2.04208 0
M  V30 2507 H 241.122 -2.37364 3.06165 0
M  V30 2508 H 241.536 -1.40651 5.0529 0
M  V30 2509 H 243.01 -3.05497 4.59756 0
M  V30 2510 H 243.487 -3.28359 2.9168 0
M  V30 2511 H 244.093 -1.8747 3.81752 0
M  V30 2512 N 242.408 -1.52605 -0.393616 0
M  V30 2513 C 243.318 -1.79971 -1.50492 0
M  V30 2514 C 244.334 -0.686181 -1.59899 0
M  V30 2515 O 245.51 -0.973274 -1.76322 0
M  V30 2516 C 242.575 -1.95867 -2.86072 0
M  V30 2517 C 241.636 -3.19781 -2.86424 0
M  V30 2518 C 240.869 -3.34909 -4.15538 0
M  V30 2519 O 241.092 -2.54948 -5.10253 0
M  V30 2520 O 240.026 -4.28141 -4.23059 0
M  V30 2521 H 243.852 -2.74328 -1.30299 0
M  V30 2522 H 241.437 -1.3764 -0.581005 0
M  V30 2523 H 243.319 -2.08056 -3.66457 0
M  V30 2524 H 241.994 -1.04699 -3.063 0
M  V30 2525 H 240.901 -3.13038 -2.04837 0
M  V30 2526 H 242.234 -4.1078 -2.71147 0
M  V30 2527 N 243.887 0.651787 -1.4349 0
M  V30 2528 C 245.112 1.44434 -1.48841 0
M  V30 2529 C 245.537 1.8779 -0.107955 0
M  V30 2530 O 244.895 1.57464 0.898602 0
M  V30 2531 C 244.943 2.65458 -2.44059 0
M  V30 2532 O 244.047 3.64566 -1.92784 0
M  V30 2533 H 243.388 0.433005 -0.503391 0
M  V30 2534 H 245.918 0.797451 -1.88419 0
M  V30 2535 H 245.928 3.13255 -2.6141 0
M  V30 2536 H 244.603 2.33244 -3.4434 0
M  V30 2537 H 243.18 3.23716 -1.851 0
M  V30 2538 N 245.365 1.30045 0.890287 0
M  V30 2539 C 246.642 1.09227 1.62262 0
M  V30 2540 C 247.022 -0.360305 2.08002 0
M  V30 2541 O 246.37 -1.35084 1.84295 0
M  V30 2542 C 246.58 2.08835 2.79623 0
M  V30 2543 C 247.928 2.40266 3.50082 0
M  V30 2544 O 248.952 2.07104 2.89804 0
M  V30 2545 O 247.811 2.96967 4.58773 0
M  V30 2546 H 244.905 0.419132 0.712922 0
M  V30 2547 H 247.451 1.41451 0.937529 0
M  V30 2548 H 246.223 3.06633 2.43089 0
M  V30 2549 H 245.846 1.77397 3.55832 0
M  V30 2550 N 246.843 -1.10192 1.12674 0
M  V30 2551 C 247.79 -2.16606 0.796906 0
M  V30 2552 C 248.76 -1.64394 -0.237476 0
M  V30 2553 O 249.945 -1.90474 -0.111484 0
M  V30 2554 C 247.085 -3.44116 0.26043 0
M  V30 2555 C 246.198 -4.10268 1.35293 0
M  V30 2556 C 245.333 -5.25507 0.775621 0
M  V30 2557 C 244.372 -5.83567 1.84706 0
M  V30 2558 N 243.509 -6.90179 1.28829 0
M  V30 2559 H 248.349 -2.44163 1.70846 0
M  V30 2560 H 245.886 -1.19846 0.85295 0
M  V30 2561 H 247.844 -4.17143 -0.0686814 0
M  V30 2562 H 246.474 -3.16901 -0.614274 0
M  V30 2563 H 245.526 -3.35184 1.79877 0
M  V30 2564 H 246.838 -4.4946 2.16303 0
M  V30 2565 H 245.992 -6.05398 0.397327 0
M  V30 2566 H 244.731 -4.87656 -0.0656581 0
M  V30 2567 H 243.736 -5.02344 2.23452 0
M  V30 2568 H 244.961 -6.23482 2.69161 0
M  V30 2569 H 242.907 -6.54322 0.468881 0
M  V30 2570 H 242.824 -7.28097 2.03497 0
M  V30 2571 H 244.092 -7.73844 0.937311 0
M  V30 2572 N 248.321 -0.919034 -1.28029 0
M  V30 2573 C 249.568 -0.554934 -1.94748 0
M  V30 2574 C 249.896 0.90231 -1.72304 0
M  V30 2575 O 249.151 1.65767 -1.04018 0
M  V30 2576 C 249.45 -0.816855 -3.4794 0
M  V30 2577 C 249.116 -2.25448 -3.90492 0
M  V30 2578 C 247.778 -2.64752 -4.01821 0
M  V30 2579 C 250.13 -3.18977 -4.12193 0
M  V30 2580 C 247.458 -3.96727 -4.32232 0
M  V30 2581 C 249.81 -4.50523 -4.44086 0
M  V30 2582 C 248.474 -4.89673 -4.53626 0
M  V30 2583 H 247.744 -0.203065 -0.712633 0
M  V30 2584 H 250.391 -1.16136 -1.52265 0
M  V30 2585 H 248.696 -0.127677 -3.91592 0
M  V30 2586 H 250.393 -0.514238 -3.97689 0
M  V30 2587 H 246.983 -1.93952 -3.82205 0
M  V30 2588 H 251.167 -2.89817 -4.02889 0
M  V30 2589 H 246.423 -4.26754 -4.37825 0
M  V30 2590 H 250.597 -5.23005 -4.59825 0
M  V30 2591 H 248.224 -5.91969 -4.76946 0
M  V30 2592 N 249.799 1.42003 -0.683588 0
M  V30 2593 C 251.046 2.01413 -0.209514 0
M  V30 2594 C 251.374 1.54088 1.1869 0
M  V30 2595 O 250.629 0.737591 1.81268 0
M  V30 2596 C 250.928 3.56827 -0.202357 0
M  V30 2597 C 250.594 4.23617 -1.54464 0
M  V30 2598 C 249.256 4.41577 -1.91215 0
M  V30 2599 C 251.608 4.61178 -2.42826 0
M  V30 2600 C 248.936 4.9437 -3.15935 0
M  V30 2601 C 251.288 5.15355 -3.66867 0
M  V30 2602 C 249.952 5.31528 -4.03776 0
M  V30 2603 H 249.222 0.737023 -0.0766668 0
M  V30 2604 H 251.869 1.70067 -0.880312 0
M  V30 2605 H 250.174 3.87892 0.551969 0
M  V30 2606 H 251.871 4.00588 0.181793 0
M  V30 2607 H 248.461 4.10004 -1.24877 0
M  V30 2608 H 252.645 4.46968 -2.15717 0
M  V30 2609 H 247.901 5.05076 -3.44541 0
M  V30 2610 H 252.075 5.43402 -4.35531 0
M  V30 2611 H 249.702 5.72199 -5.00492 0
M  V30 2612 N 251.277 0.427512 1.51691 0
M  V30 2613 C 252.526 -0.143679 2.01188 0
M  V30 2614 C 252.839 -1.44642 1.31674 0
M  V30 2615 O 254.045 -2.09997 1.72086 0
M  V30 2616 C 252.501 -0.306602 3.58592 0
M  V30 2617 C 252.109 0.985125 4.37035 0
M  V30 2618 C 253.853 -0.832091 4.16265 0
M  V30 2619 C 251.76 0.788382 5.86122 0
M  V30 2620 H 250.69 -0.0574701 0.751807 0
M  V30 2621 H 253.341 0.555772 1.74881 0
M  V30 2622 H 251.723 -1.06882 3.81303 0
M  V30 2623 H 252.897 1.75492 4.26074 0
M  V30 2624 H 251.212 1.4384 3.90767 0
M  V30 2625 H 253.809 -0.995617 5.25349 0
M  V30 2626 H 254.152 -1.81186 3.74803 0
M  V30 2627 H 254.685 -0.128444 3.97593 0
M  V30 2628 H 251.424 1.74025 6.31978 0
M  V30 2629 H 250.944 0.0582143 5.99772 0
M  V30 2630 H 252.623 0.437722 6.45518 0
M  V30 2631 N 252.755 -1.56801 0.158532 0
M  V30 2632 C 253.703 -2.18638 -0.793729 0
M  V30 2633 C 254.697 -1.14669 -1.24689 0
M  V30 2634 O 255.903 -1.32895 -1.21403 0
M  V30 2635 H 252.278 -0.700226 -0.274204 0
M  V30 2636 H 254.249 -2.97367 -0.248095 0
M  V30 2637 C 252.998 -2.83139 -2.0181 0
M  V30 2638 H 252.321 -3.62863 -1.67841 0
M  V30 2639 H 253.761 -3.29894 -2.66357 0
M  V30 2640 C 252.22 -1.82244 -2.83353 0
M  V30 2641 O 252.75 -1.3 -3.80083 0
M  V30 2642 N 250.956 -1.51288 -2.48114 0
M  V30 2643 H 250.503 -1.93964 -1.69516 0
M  V30 2644 H 250.461 -0.840296 -3.02963 0
M  V30 2645 N 254.233 0.115231 -1.57178 0
M  V30 2646 C 255.481 0.820727 -1.84685 0
M  V30 2647 C 255.802 1.80237 -0.744279 0
M  V30 2648 O 255.072 1.94529 0.231375 0
M  V30 2649 H 253.652 0.306084 -0.681411 0
M  V30 2650 H 256.314 0.101656 -1.94635 0
M  V30 2651 H 255.41 1.36366 -2.80733 0
M  V30 2652 N 255.711 1.52812 0.385517 0
M  V30 2653 C 256.936 1.72207 1.15583 0
M  V30 2654 C 257.361 0.441034 1.82857 0
M  V30 2655 O 256.719 -0.603465 1.70962 0
M  V30 2656 C 256.767 2.87476 2.17692 0
M  V30 2657 O 255.871 2.54693 3.24354 0
M  V30 2658 H 255.212 0.572526 0.336319 0
M  V30 2659 H 257.742 1.99618 0.448744 0
M  V30 2660 H 257.752 3.13072 2.6163 0
M  V30 2661 H 256.427 3.80408 1.68115 0
M  V30 2662 H 255.004 2.3985 2.85529 0
M  V30 2663 N 257.189 -0.644168 1.43834 0
M  V30 2664 C 258.137 -1.77793 1.49974 0
M  V30 2665 C 259.131 -1.65253 0.372536 0
M  V30 2666 O 260.337 -1.7149 0.546924 0
M  V30 2667 H 256.712 -0.58675 0.47035 0
M  V30 2668 H 258.683 -1.69736 2.45423 0
M  V30 2669 C 257.432 -3.16087 1.4486 0
M  V30 2670 H 256.755 -3.26378 2.30905 0
M  V30 2671 H 258.195 -3.95349 1.53217 0
M  V30 2672 C 256.654 -3.36484 0.167463 0
M  V30 2673 O 257.184 -3.94298 -0.767609 0
M  V30 2674 N 255.39 -2.90504 0.0747556 0
M  V30 2675 H 254.937 -2.4364 0.836507 0
M  V30 2676 H 254.895 -3.04527 -0.781714 0
M  V30 2677 N 258.668 -1.30515 -0.883378 0
M  V30 2678 C 259.914 -1.20617 -1.63778 0
M  V30 2679 C 260.269 0.236469 -1.90941 0
M  V30 2680 O 259.562 1.16596 -1.52039 0
M  V30 2681 C 259.756 -1.96994 -2.98209 0
M  V30 2682 C 259.585 -3.48537 -2.84169 0
M  V30 2683 C 258.355 -4.17893 -2.84067 0
M  V30 2684 C 260.553 -4.43738 -2.60001 0
M  V30 2685 N 258.535 -5.55685 -2.60936 0
M  V30 2686 C 259.906 -5.69105 -2.46007 0
M  V30 2687 C 261.961 -4.33316 -2.45239 0
M  V30 2688 C 260.664 -6.8523 -2.18752 0
M  V30 2689 C 262.69 -5.4921 -2.19369 0
M  V30 2690 C 262.052 -6.73558 -2.06153 0
M  V30 2691 H 258.151 -0.496434 -0.604216 0
M  V30 2692 H 260.735 -1.64544 -1.04083 0
M  V30 2693 H 258.906 -1.55455 -3.55933 0
M  V30 2694 H 260.638 -1.79225 -3.62851 0
M  V30 2695 H 257.393 -3.69739 -2.95956 0
M  V30 2696 H 257.817 -6.28199 -2.52378 0
M  V30 2697 H 262.459 -3.37856 -2.54191 0
M  V30 2698 H 260.177 -7.80729 -2.08537 0
M  V30 2699 H 263.763 -5.43054 -2.08766 0
M  V30 2700 H 262.643 -7.61721 -1.86416 0
M  V30 2701 N 260.146 1.09593 -1.13257 0
M  V30 2702 C 261.056 2.19739 -0.821691 0
M  V30 2703 C 262.072 1.72926 0.19302 0
M  V30 2704 O 263.248 2.01385 0.0244895 0
M  V30 2705 C 260.313 3.45482 -0.290333 0
M  V30 2706 C 259.374 4.06985 -1.36607 0
M  V30 2707 C 258.607 5.26726 -0.859975 0
M  V30 2708 O 258.83 5.69594 0.303082 0
M  V30 2709 O 257.764 5.7931 -1.63351 0
M  V30 2710 H 261.59 2.48781 -1.74189 0
M  V30 2711 H 259.175 1.18496 -0.909894 0
M  V30 2712 H 261.057 4.214 0.000674022 0
M  V30 2713 H 259.732 3.18047 0.602306 0
M  V30 2714 H 258.639 3.32712 -1.71037 0
M  V30 2715 H 259.972 4.38643 -2.23279 0
M  V30 2716 N 261.624 0.925811 1.2754 0
M  V30 2717 C 262.872 0.564138 1.94067 0
M  V30 2718 C 263.193 -0.897188 1.73134 0
M  V30 2719 O 262.463 -1.63573 1.07799 0
M  V30 2720 H 261.043 0.205645 0.718136 0
M  V30 2721 H 263.705 1.1778 1.55287 0
M  V30 2722 H 262.801 0.76881 3.02483 0
M  V30 2723 N 263.102 -1.41638 0.69111 0
M  V30 2724 C 264.351 -2.00526 0.217318 0
M  V30 2725 C 264.664 -1.55353 -1.18848 0
M  V30 2726 O 265.87 -2.06769 -1.75951 0
M  V30 2727 C 264.326 -3.58313 0.337639 0
M  V30 2728 C 263.934 -4.12469 1.74852 0
M  V30 2729 C 265.678 -4.24431 -0.0766066 0
M  V30 2730 C 263.585 -5.62675 1.82074 0
M  V30 2731 H 262.515 -0.750008 0.0774893 0
M  V30 2732 H 265.166 -1.6217 0.858661 0
M  V30 2733 H 263.548 -3.9425 -0.371879 0
M  V30 2734 H 264.722 -3.8796 2.48644 0
M  V30 2735 H 263.037 -3.58861 2.11205 0
M  V30 2736 H 265.634 -5.34683 -0.0430284 0
M  V30 2737 H 265.977 -4.01101 -1.1146 0
M  V30 2738 H 266.51 -3.93512 0.582476 0
M  V30 2739 H 263.249 -5.90826 2.83911 0
M  V30 2740 H 262.769 -5.89124 1.12661 0
M  V30 2741 H 264.448 -6.27371 1.58159 0
M  V30 2742 N 264.58 -0.43555 -1.51462 0
M  V30 2743 C 265.51 0.367376 -2.30592 0
M  V30 2744 C 266.491 1.02263 -1.35928 0
M  V30 2745 O 267.676 1.02661 -1.64847 0
M  V30 2746 C 264.806 1.46983 -3.14664 0
M  V30 2747 C 263.76 0.938161 -4.17591 0
M  V30 2748 C 263.086 2.13622 -4.90173 0
M  V30 2749 C 264.386 -0.0261621 -5.22293 0
M  V30 2750 H 266.08 -0.292969 -2.97963 0
M  V30 2751 H 263.626 -0.14234 -1.43295 0
M  V30 2752 H 265.579 2.03873 -3.688 0
M  V30 2753 H 264.303 2.15843 -2.4511 0
M  V30 2754 H 262.962 0.391481 -3.64504 0
M  V30 2755 H 262.61 2.81098 -4.17124 0
M  V30 2756 H 262.31 1.78688 -5.59772 0
M  V30 2757 H 263.834 2.7107 -5.47132 0
M  V30 2758 H 265.248 0.452384 -5.71512 0
M  V30 2759 H 263.645 -0.287992 -5.99409 0
M  V30 2760 H 264.715 -0.963391 -4.75233 0
M  V30 2761 N 266.058 1.56714 -0.166846 0
M  V30 2762 C 267.306 1.96358 0.478305 0
M  V30 2763 C 267.627 1.0537 1.6408 0
M  V30 2764 O 266.897 0.119154 1.95537 0
M  V30 2765 H 265.477 0.725065 0.179692 0
M  V30 2766 H 268.139 1.93329 -0.246985 0
M  V30 2767 H 267.235 3.00547 0.841292 0
M  V30 2768 N 267.536 -0.106894 1.57237 0
M  V30 2769 C 268.466 -1.13148 2.04254 0
M  V30 2770 C 269.447 -1.42476 0.929224 0
M  V30 2771 O 270.632 -1.52709 1.19973 0
M  V30 2772 C 267.762 -2.4545 2.45706 0
M  V30 2773 C 266.716 -2.30558 3.60592 0
M  V30 2774 C 266.042 -3.67931 3.87983 0
M  V30 2775 C 267.342 -1.75597 4.91897 0
M  V30 2776 H 269.036 -0.740374 2.90101 0
M  V30 2777 H 266.582 -0.354696 1.39563 0
M  V30 2778 H 268.535 -3.17389 2.77205 0
M  V30 2779 H 267.259 -2.86475 1.56843 0
M  V30 2780 H 265.918 -1.61067 3.29322 0
M  V30 2781 H 265.566 -4.06462 2.96306 0
M  V30 2782 H 265.266 -3.58817 4.65322 0
M  V30 2783 H 266.79 -4.41356 4.21945 0
M  V30 2784 H 268.204 -2.37364 5.21854 0
M  V30 2785 H 266.601 -1.77272 5.73319 0
M  V30 2786 H 267.671 -0.714451 4.79608 0
M  V30 2787 N 269.014 -1.53014 -0.377408 0
M  V30 2788 C 269.977 -1.77957 -1.44444 0
M  V30 2789 C 270.977 -0.649763 -1.47087 0
M  V30 2790 O 272.167 -0.917897 -1.48055 0
M  V30 2791 C 269.299 -1.89089 -2.83651 0
M  V30 2792 H 270.492 -2.73243 -1.23606 0
M  V30 2793 H 268.045 -1.43912 -0.609844 0
M  V30 2794 H 268.78 -0.958293 -3.09818 0
M  V30 2795 H 268.565 -2.71254 -2.83132 0
M  V30 2796 H 270.055 -2.1002 -3.60945 0
M  V30 2797 N 270.492 0.636531 -1.44174 0
M  V30 2798 C 271.722 1.42146 -1.49927 0
M  V30 2799 C 272.13 1.88812 -0.121063 0
M  V30 2800 O 271.473 1.61126 0.882267 0
M  V30 2801 C 271.535 2.67883 -2.39748 0
M  V30 2802 C 271.199 2.43048 -3.8701 0
M  V30 2803 C 272.196 2.05216 -4.77684 0
M  V30 2804 C 269.881 2.56856 -4.3166 0
M  V30 2805 C 271.875 1.81512 -6.11009 0
M  V30 2806 C 269.562 2.32766 -5.65034 0
M  V30 2807 C 270.56 1.95152 -6.54526 0
M  V30 2808 O 270.248 1.71326 -7.85431 0
M  V30 2809 H 269.98 0.442567 -0.51099 0
M  V30 2810 H 272.534 0.786158 -1.8976 0
M  V30 2811 H 270.764 3.34032 -1.94832 0
M  V30 2812 H 272.453 3.29874 -2.36513 0
M  V30 2813 H 273.219 1.94111 -4.44462 0
M  V30 2814 H 269.098 2.85104 -3.62266 0
M  V30 2815 H 272.642 1.52077 -6.80822 0
M  V30 2816 H 268.539 2.43479 -5.97819 0
M  V30 2817 H 269.307 1.85616 -7.97176 0
M  V30 2818 N 271.97 1.30982 0.876444 0
M  V30 2819 C 272.933 1.18054 1.96459 0
M  V30 2820 C 273.933 0.109399 1.60427 0
M  V30 2821 O 275.123 0.358173 1.70478 0
M  V30 2822 C 272.255 0.810616 3.31122 0
M  V30 2823 H 273.448 2.14735 2.09354 0
M  V30 2824 H 271.001 1.145 1.06392 0
M  V30 2825 H 271.736 -0.155322 3.23928 0
M  V30 2826 H 271.521 1.58481 3.58645 0
M  V30 2827 H 273.011 0.743876 4.10921 0
M  V30 2828 N 273.449 -1.08991 1.13837 0
M  V30 2829 C 274.359 -2.19301 0.833333 0
M  V30 2830 C 275.375 -1.73026 -0.183847 0
M  V30 2831 O 276.551 -2.01395 -0.0138092 0
M  V30 2832 C 273.616 -3.45323 0.308651 0
M  V30 2833 C 272.677 -4.06255 1.38764 0
M  V30 2834 C 271.91 -5.26262 0.887896 0
M  V30 2835 O 272.133 -5.69747 -0.27287 0
M  V30 2836 O 271.067 -5.78435 1.66421 0
M  V30 2837 H 274.893 -2.47854 1.75506 0
M  V30 2838 H 272.478 -1.18012 0.916166 0
M  V30 2839 H 274.36 -4.21394 0.0216739 0
M  V30 2840 H 273.035 -3.18362 -0.585431 0
M  V30 2841 H 271.942 -3.318 1.72799 0
M  V30 2842 H 273.275 -4.37452 2.25602 0
M  V30 2843 N 274.927 -0.932562 -1.27047 0
M  V30 2844 C 276.176 -0.571351 -1.93439 0
M  V30 2845 C 276.489 0.892467 -1.74053 0
M  V30 2846 O 277.695 1.36267 -2.34826 0
M  V30 2847 C 276.151 -0.97106 -3.46552 0
M  V30 2848 C 275.759 -2.4559 -3.74686 0
M  V30 2849 C 277.503 -0.681333 -4.18997 0
M  V30 2850 C 275.41 -2.79475 -5.21198 0
M  V30 2851 H 274.34 -0.209966 -0.724176 0
M  V30 2852 H 276.991 -1.13403 -1.44263 0
M  V30 2853 H 275.373 -0.336983 -3.94564 0
M  V30 2854 H 276.547 -3.13829 -3.37414 0
M  V30 2855 H 274.862 -2.71802 -3.15456 0
M  V30 2856 H 277.459 -0.910939 -5.26883 0
M  V30 2857 H 277.802 0.381628 -4.14547 0
M  V30 2858 H 278.335 -1.27473 -3.76823 0
M  V30 2859 H 275.074 -3.847 -5.30741 0
M  V30 2860 H 274.594 -2.1589 -5.596 0
M  V30 2861 H 276.273 -2.67478 -5.89122 0
M  V30 2862 N 276.405 1.4127 -0.698611 0
M  V30 2863 C 277.368 2.29158 -0.044132 0
M  V30 2864 C 278.368 1.44529 0.704841 0
M  V30 2865 O 279.558 1.65643 0.539276 0
M  V30 2866 C 276.69 3.27459 0.947809 0
M  V30 2867 H 277.883 2.88529 -0.817994 0
M  V30 2868 H 275.436 1.49307 -0.46228 0
M  V30 2869 H 276.171 2.73073 1.74933 0
M  V30 2870 H 275.956 3.8991 0.41385 0
M  V30 2871 H 277.446 3.93311 1.40344 0
M  V30 2872 N 277.883 0.443576 1.51229 0
M  V30 2873 C 279.299 0.0962001 1.5931 0
M  V30 2874 C 279.499 -1.39501 1.45402 0
M  V30 2875 O 278.555 -2.16557 1.29843 0
M  V30 2876 C 279.868 0.621875 2.94199 0
M  V30 2877 C 281.416 0.582865 3.07525 0
M  V30 2878 C 281.891 1.08562 4.44948 0
M  V30 2879 N 283.382 1.04387 4.51284 0
M  V30 2880 C 284.117 1.40368 5.55954 0
M  V30 2881 N 283.613 1.83664 6.68011 0
M  V30 2882 N 285.406 1.32145 5.46346 0
M  V30 2883 H 277.557 1.41376 1.58514 0
M  V30 2884 H 279.82 0.582965 0.747567 0
M  V30 2885 H 279.526 1.66546 3.09767 0
M  V30 2886 H 279.4 0.0502125 3.77167 0
M  V30 2887 H 281.787 -0.451749 2.91622 0
M  V30 2888 H 281.868 1.191 2.26382 0
M  V30 2889 H 281.512 2.11873 4.61598 0
M  V30 2890 H 281.442 0.453956 5.2464 0
M  V30 2891 H 283.933 0.725986 3.70861 0
M  V30 2892 H 284.246 2.0934 7.43906 0
M  V30 2893 H 282.591 1.87596 6.69203 0
M  V30 2894 H 285.782 0.981808 4.57688 0
M  V30 2895 H 285.955 1.60514 6.27805 0
M  V30 2896 N 279.361 -1.56624 0.175154 0
M  V30 2897 C 280.772 -1.83561 -0.340916 0
M  V30 2898 C 281.123 -1.09511 -1.62794 0
M  V30 2899 O 280.248 -0.349389 -2.13561 0
M  V30 2900 C 280.843 -3.32979 -0.625313 0
M  V30 2901 C 279.402 -3.60399 -1.08581 0
M  V30 2902 C 278.549 -2.77024 -0.123722 0
M  V30 2903 H 281.5 -1.53593 0.399344 0
M  V30 2904 H 281.521 -3.50666 -1.47694 0
M  V30 2905 H 281.033 -3.86847 0.311575 0
M  V30 2906 H 279.134 -3.11945 -2.03767 0
M  V30 2907 H 279.247 -4.68711 -0.992317 0
M  V30 2908 H 277.611 -2.46993 -0.621821 0
M  V30 2909 H 278.394 -3.33674 0.807256 0
M  V30 2910 N 280.839 0.0985539 -1.57292 0
M  V30 2911 C 282.116 0.834155 -1.76921 0
M  V30 2912 C 282.496 1.97101 -0.755928 0
M  V30 2913 O 281.844 2.27474 0.216245 0
M  V30 2914 C 282.054 1.33194 -3.22584 0
M  V30 2915 C 283.402 1.77611 -3.85668 0
M  V30 2916 O 284.426 1.42825 -3.26312 0
M  V30 2917 O 283.285 2.4192 -4.90038 0
M  V30 2918 H 280.379 0.397628 -0.725135 0
M  V30 2919 H 282.925 0.0807044 -1.69508 0
M  V30 2920 H 281.697 0.517248 -3.87866 0
M  V30 2921 H 281.32 2.1475 -3.34616 0
M  V30 2922 N 282.317 1.53212 0.369288 0
M  V30 2923 C 283.594 1.59815 1.12776 0
M  V30 2924 C 283.974 0.403402 2.0721 0
M  V30 2925 O 283.322 -0.606667 2.20299 0
M  V30 2926 C 283.532 2.94664 1.87013 0
M  V30 2927 C 284.88 3.49109 2.41677 0
M  V30 2928 O 285.904 2.96669 1.97144 0
M  V30 2929 O 284.763 4.40775 3.23079 0
M  V30 2930 H 281.857 0.645376 0.517125 0
M  V30 2931 H 284.403 1.65553 0.37285 0
M  V30 2932 H 283.175 3.73061 1.18071 0
M  V30 2933 H 282.798 2.92401 2.69421 0
M  V30 2934 N 283.795 -0.628877 1.44509 0
M  V30 2935 C 285.02 -1.42048 1.5112 0
M  V30 2936 C 285.445 -1.87594 0.137818 0
M  V30 2937 O 284.803 -1.58873 -0.873437 0
M  V30 2938 C 284.851 -2.61541 2.48251 0
M  V30 2939 O 283.955 -3.61453 1.98559 0
M  V30 2940 H 283.296 -0.424942 0.510216 0
M  V30 2941 H 285.826 -0.767374 1.89664 0
M  V30 2942 H 285.836 -3.09057 2.66361 0
M  V30 2943 H 284.511 -2.27736 3.48007 0
M  V30 2944 H 283.088 -3.20731 1.90227 0
M  V30 2945 N 285.273 -1.31445 -0.869486 0
M  V30 2946 C 286.203 -1.21727 -1.99261 0
M  V30 2947 C 287.184 -0.104359 -1.6978 0
M  V30 2948 O 288.369 -0.289038 -1.92037 0
M  V30 2949 C 285.499 -0.924317 -3.34774 0
M  V30 2950 C 284.453 -1.99685 -3.78563 0
M  V30 2951 C 283.779 -1.55658 -5.11541 0
M  V30 2952 C 285.079 -3.41003 -3.95619 0
M  V30 2953 H 286.773 -2.1569 -2.07649 0
M  V30 2954 H 284.319 -1.03839 -0.997675 0
M  V30 2955 H 286.272 -0.842934 -4.12883 0
M  V30 2956 H 284.996 0.0509793 -3.2656 0
M  V30 2957 H 283.655 -2.06813 -3.02694 0
M  V30 2958 H 283.303 -0.569132 -4.9977 0
M  V30 2959 H 283.003 -2.27409 -5.41811 0
M  V30 2960 H 284.527 -1.48928 -5.92159 0
M  V30 2961 H 285.941 -3.36547 -4.64122 0
M  V30 2962 H 284.338 -4.10975 -4.37286 0
M  V30 2963 H 285.408 -3.81754 -2.98985 0
M  V30 2964 N 286.751 1.08385 -1.14413 0
M  V30 2965 C 287.661 2.18856 -0.844951 0
M  V30 2966 C 288.677 1.73121 0.174668 0
M  V30 2967 O 289.853 2.014 0.00312857 0
M  V30 2968 C 286.918 3.45155 -0.32696 0
M  V30 2969 C 285.979 4.05513 -1.40916 0
M  V30 2970 C 285.212 5.25784 -0.915793 0
M  V30 2971 O 285.435 5.69884 0.242651 0
M  V30 2972 O 284.369 5.77545 -1.69487 0
M  V30 2973 H 288.195 2.46919 -1.76818 0
M  V30 2974 H 285.78 1.17524 -0.922411 0
M  V30 2975 H 287.662 4.21377 -0.0440211 0
M  V30 2976 H 286.337 3.18668 0.568539 0
M  V30 2977 H 285.244 3.30879 -1.74556 0
M  V30 2978 H 286.577 4.3625 -2.27919 0
M  V30 2979 N 288.23 0.939286 1.26551 0
M  V30 2980 C 289.641 0.628782 1.75793 0
M  V30 2981 C 289.992 -0.856046 1.7654 0
M  V30 2982 O 289.117 -1.66994 1.3763 0
M  V30 2983 C 289.712 1.13465 3.19235 0
M  V30 2984 C 288.271 0.874601 3.66098 0
M  V30 2985 C 287.418 1.28667 2.45642 0
M  V30 2986 H 290.369 1.1178 1.12654 0
M  V30 2987 H 290.39 0.487609 3.77363 0
M  V30 2988 H 289.902 2.21535 3.1866 0
M  V30 2989 H 288.003 -0.191793 3.72106 0
M  V30 2990 H 288.116 1.50028 4.55004 0
M  V30 2991 H 286.48 0.705109 2.44745 0
M  V30 2992 H 287.263 2.37625 2.47769 0
M  V30 2993 N 289.708 -1.40897 0.706093 0
M  V30 2994 C 290.955 -2.01054 0.241531 0
M  V30 2995 C 291.283 -1.55956 -1.16223 0
M  V30 2996 O 290.538 -0.766336 -1.80072 0
M  V30 2997 C 290.837 -3.5646 0.259099 0
M  V30 2998 C 290.503 -4.21106 1.61184 0
M  V30 2999 C 289.165 -4.38479 1.98216 0
M  V30 3000 C 291.517 -4.57256 2.50132 0
M  V30 3001 C 288.845 -4.89282 3.2376 0
M  V30 3002 C 291.197 -5.09454 3.7502 0
M  V30 3003 C 289.861 -5.25037 4.12181 0
M  V30 3004 H 289.131 -0.73571 0.0883825 0
M  V30 3005 H 291.778 -1.68645 0.907257 0
M  V30 3006 H 290.083 -3.88721 -0.490189 0
M  V30 3007 H 291.78 -4.00826 -0.11804 0
M  V30 3008 H 288.37 -4.07966 1.31384 0
M  V30 3009 H 292.554 -4.43479 2.228 0
M  V30 3010 H 287.81 -4.99531 3.52532 0
M  V30 3011 H 291.984 -5.36404 4.44121 0
M  V30 3012 H 289.611 -5.64164 5.09532 0
M  V30 3013 N 291.186 -0.45159 -1.50991 0
M  V30 3014 C 292.433 0.110074 -2.02201 0
M  V30 3015 C 292.761 1.4146 -1.33489 0
M  V30 3016 O 292.016 1.90617 -0.443125 0
M  V30 3017 C 292.315 0.361728 -3.55565 0
M  V30 3018 C 291.981 -0.858717 -4.42648 0
M  V30 3019 C 290.643 -1.19338 -4.66167 0
M  V30 3020 C 292.995 -1.67221 -4.93646 0
M  V30 3021 C 290.323 -2.34195 -5.37931 0
M  V30 3022 C 292.675 -2.8119 -5.6667 0
M  V30 3023 C 291.339 -3.15094 -5.88449 0
M  V30 3024 H 290.609 0.040279 -0.739904 0
M  V30 3025 H 293.256 -0.601696 -1.81802 0
M  V30 3026 H 291.561 1.15554 -3.74372 0
M  V30 3027 H 293.258 0.80996 -3.92735 0
M  V30 3028 H 289.848 -0.58796 -4.24548 0
M  V30 3029 H 294.032 -1.42686 -4.75347 0
M  V30 3030 H 289.288 -2.6076 -5.53005 0
M  V30 3031 H 293.462 -3.44585 -6.05173 0
M  V30 3032 H 291.089 -4.04204 -6.43835 0
M  V30 3033 N 292.664 1.56529 -0.183458 0
M  V30 3034 C 293.941 1.88959 0.50536 0
M  V30 3035 C 294.321 1.09523 1.80466 0
M  V30 3036 O 293.669 0.19278 2.27685 0
M  V30 3037 C 293.879 3.41162 0.73547 0
M  V30 3038 C 295.227 4.11155 1.06005 0
M  V30 3039 O 296.251 3.46548 0.823594 0
M  V30 3040 O 295.11 5.25318 1.50675 0
M  V30 3041 H 292.204 0.78441 0.261973 0
M  V30 3042 H 294.75 1.68231 -0.222802 0
M  V30 3043 H 293.522 3.90874 -0.182561 0
M  V30 3044 H 293.145 3.67543 1.51651 0
M  V30 3045 N 294.142 -0.090211 1.57342 0
M  V30 3046 C 295.367 -0.810082 1.90925 0
M  V30 3047 C 295.792 -1.71248 0.778187 0
M  V30 3048 O 295.15 -1.79278 -0.269991 0
M  V30 3049 C 295.198 -1.59529 3.23393 0
M  V30 3050 O 294.302 -2.70461 3.11327 0
M  V30 3051 H 293.643 -0.222231 0.625707 0
M  V30 3052 H 296.173 -0.0639716 2.045 0
M  V30 3053 H 296.183 -1.97847 3.5682 0
M  V30 3054 H 294.858 -0.933055 4.05299 0
M  V30 3055 H 293.435 -2.35135 2.89423 0
M  V30 3056 N 295.62 -1.53406 -0.361157 0
M  V30 3057 C 296.55 -1.83136 -1.44857 0
M  V30 3058 C 297.531 -0.685174 -1.5569 0
M  V30 3059 O 298.716 -0.93544 -1.70186 0
M  V30 3060 C 295.846 -2.02522 -2.82138 0
M  V30 3061 C 294.8 -3.18302 -2.86126 0
M  V30 3062 C 294.126 -3.22989 -4.26125 0
M  V30 3063 C 295.426 -4.56796 -2.53248 0
M  V30 3064 H 297.12 -2.74201 -1.20226 0
M  V30 3065 H 294.666 -1.31938 -0.576922 0
M  V30 3066 H 296.619 -2.21904 -3.58241 0
M  V30 3067 H 295.343 -1.08172 -3.08166 0
M  V30 3068 H 294.002 -2.98747 -2.12475 0
M  V30 3069 H 293.65 -2.26267 -4.49235 0
M  V30 3070 H 293.35 -4.00781 -4.29708 0
M  V30 3071 H 294.874 -3.44559 -5.04094 0
M  V30 3072 H 296.288 -4.7631 -3.19064 0
M  V30 3073 H 294.685 -5.36862 -2.68141 0
M  V30 3074 H 295.755 -4.61606 -1.48484 0
M  V30 3075 N 297.098 0.621204 -1.44841 0
M  V30 3076 C 298.344 1.3826 -1.48365 0
M  V30 3077 C 298.677 1.93831 -0.119624 0
M  V30 3078 O 297.952 1.74251 0.864111 0
M  V30 3079 C 298.235 2.54058 -2.55199 0
M  V30 3080 C 298.088 2.03772 -4.00995 0
M  V30 3081 C 299.407 3.56225 -2.58442 0
M  V30 3082 H 296.526 0.501374 -0.540179 0
M  V30 3083 H 299.168 0.7015 -1.76576 0
M  V30 3084 H 297.318 3.12162 -2.31274 0
M  V30 3085 H 298.99 1.50423 -4.36086 0
M  V30 3086 H 297.233 1.34876 -4.12299 0
M  V30 3087 H 297.904 2.87185 -4.71411 0
M  V30 3088 H 300.38 3.07939 -2.79844 0
M  V30 3089 H 299.256 4.34756 -3.3508 0
M  V30 3090 H 299.517 4.10949 -1.63013 0
M  V30 3091 N 298.576 1.31904 0.862503 0
M  V30 3092 C 299.523 1.20182 1.9704 0
M  V30 3093 C 300.493 0.0858247 1.65878 0
M  V30 3094 O 301.678 0.26 1.8902 0
M  V30 3095 C 298.818 0.922797 3.32533 0
M  V30 3096 C 297.931 2.12284 3.76244 0
M  V30 3097 C 297.066 1.77996 5.00491 0
M  V30 3098 C 296.105 2.94366 5.36671 0
M  V30 3099 N 295.242 2.60223 6.52095 0
M  V30 3100 H 300.082 2.14951 2.06398 0
M  V30 3101 H 297.619 1.06917 1.01031 0
M  V30 3102 H 299.577 0.741548 4.10557 0
M  V30 3103 H 298.207 0.0119227 3.22798 0
M  V30 3104 H 297.259 2.41461 2.9394 0
M  V30 3105 H 298.571 2.99357 3.98982 0
M  V30 3106 H 297.725 1.56377 5.862 0
M  V30 3107 H 296.464 0.881252 4.79672 0
M  V30 3108 H 295.469 3.16625 4.49476 0
M  V30 3109 H 296.694 3.84957 5.59451 0
M  V30 3110 H 294.64 1.72884 6.32809 0
M  V30 3111 H 294.557 3.40827 6.74814 0
M  V30 3112 H 295.825 2.42016 7.40978 0
M  V30 3113 N 300.054 -1.07777 1.14986 0
M  V30 3114 C 300.986 -2.14769 0.800436 0
M  V30 3115 C 301.999 -1.61739 -0.185595 0
M  V30 3116 O 303.188 -1.78462 0.0370358 0
M  V30 3117 C 300.288 -3.38481 0.168533 0
M  V30 3118 C 299.461 -4.20876 1.1909 0
M  V30 3119 C 298.52 -5.22976 0.581575 0
M  V30 3120 O 297.546 -5.55388 1.24633 0
M  V30 3121 N 298.748 -5.76976 -0.638706 0
M  V30 3122 H 301.513 -2.45348 1.72118 0
M  V30 3123 H 299.074 -1.23645 1.04515 0
M  V30 3124 H 301.066 -4.03916 -0.251764 0
M  V30 3125 H 299.636 -3.05651 -0.655467 0
M  V30 3126 H 298.856 -3.51322 1.78791 0
M  V30 3127 H 300.144 -4.7274 1.88133 0
M  V30 3128 H 299.542 -5.52886 -1.19723 0
M  V30 3129 H 298.099 -6.44061 -1.00142 0
M  V30 3130 N 301.532 -0.945985 -1.26051 0
M  V30 3131 C 302.76 -0.613025 -1.9761 0
M  V30 3132 C 303.175 0.813035 -1.70397 0
M  V30 3133 O 302.532 1.54274 -0.974979 0
M  V30 3134 C 302.583 -0.85159 -3.51326 0
M  V30 3135 O 302.304 -2.22157 -3.77595 0
M  V30 3136 C 303.805 -0.529831 -4.40122 0
M  V30 3137 H 301.025 -0.230593 -0.630133 0
M  V30 3138 H 303.569 -1.268 -1.60443 0
M  V30 3139 H 301.724 -0.243151 -3.86636 0
M  V30 3140 H 302.138 -2.2852 -4.721 0
M  V30 3141 H 303.612 -0.747348 -5.46917 0
M  V30 3142 H 304.089 0.535341 -4.35925 0
M  V30 3143 H 304.695 -1.11721 -4.10364 0
M  V30 3144 N 303.011 1.40521 -0.713556 0
M  V30 3145 C 303.961 2.27971 -0.036165 0
M  V30 3146 C 304.945 1.43151 0.734623 0
M  V30 3147 O 306.137 1.66261 0.607158 0
M  V30 3148 C 303.266 3.31661 0.886331 0
M  V30 3149 C 302.352 4.23955 0.110836 0
M  V30 3150 N 302.743 4.97641 -0.904847 0
M  V30 3151 C 301.041 4.44674 0.343692 0
M  V30 3152 C 301.742 5.65322 -1.37064 0
M  V30 3153 N 300.718 5.39162 -0.693168 0
M  V30 3154 H 304.52 2.82384 -0.814645 0
M  V30 3155 H 302.034 1.52948 -0.545963 0
M  V30 3156 H 304.031 3.93154 1.38692 0
M  V30 3157 H 302.691 2.78808 1.66421 0
M  V30 3158 H 303.702 5.01689 -1.28563 0
M  V30 3159 H 300.379 4.02801 1.09805 0
M  V30 3160 H 301.769 6.34359 -2.21447 0
M  V30 3161 N 304.489 0.459591 1.5075 0
M  V30 3162 C 305.735 -0.0994966 2.02556 0
M  V30 3163 C 306.068 -1.40399 1.3417 0
M  V30 3164 O 305.343 -1.88892 0.463683 0
M  V30 3165 C 305.626 -0.295242 3.58888 0
M  V30 3166 C 305.479 1.02947 4.37861 0
M  V30 3167 C 306.798 -1.05502 4.27267 0
M  V30 3168 H 303.917 -0.034686 0.736183 0
M  V30 3169 H 306.559 0.602938 1.8018 0
M  V30 3170 H 304.709 -0.893563 3.78084 0
M  V30 3171 H 306.381 1.66348 4.30263 0
M  V30 3172 H 304.624 1.62885 4.02058 0
M  V30 3173 H 305.295 0.846281 5.45474 0
M  V30 3174 H 307.771 -0.547993 4.12476 0
M  V30 3175 H 306.647 -1.16077 5.36486 0
M  V30 3176 H 306.908 -2.08875 3.89645 0
M  V30 3177 N 305.967 -1.56429 0.191757 0
M  V30 3178 C 307.378 -1.83912 -0.321428 0
M  V30 3179 C 307.729 -1.11231 -1.61623 0
M  V30 3180 O 306.854 -0.37202 -2.13178 0
M  V30 3181 C 307.449 -3.33624 -0.589961 0
M  V30 3182 C 306.008 -3.6153 -1.04753 0
M  V30 3183 C 305.155 -2.7714 -0.0943327 0
M  V30 3184 H 308.106 -1.53161 0.415612 0
M  V30 3185 H 308.127 -3.52213 -1.43966 0
M  V30 3186 H 307.639 -3.86495 0.352588 0
M  V30 3187 H 305.74 -3.14089 -2.00447 0
M  V30 3188 H 305.853 -4.69737 -0.942549 0
M  V30 3189 H 304.217 -2.47638 -0.595589 0
M  V30 3190 H 305 -3.32799 0.842601 0
M  V30 3191 N 307.445 0.0818655 -1.57387 0
M  V30 3192 C 308.393 1.11712 -2.04018 0
M  V30 3193 C 309.387 1.40683 -0.94364 0
M  V30 3194 O 310.593 1.40209 -1.12878 0
M  V30 3195 H 306.968 0.377542 -0.650358 0
M  V30 3196 H 308.939 0.697614 -2.90131 0
M  V30 3197 C 307.688 2.42537 -2.49141 0
M  V30 3198 H 307.011 2.21092 -3.33104 0
M  V30 3199 H 308.451 3.13446 -2.85531 0
M  V30 3200 C 306.91 3.0778 -1.37014 0
M  V30 3201 O 307.44 3.95436 -0.706621 0
M  V30 3202 N 305.646 2.68242 -1.11779 0
M  V30 3203 H 305.193 1.97052 -1.65917 0
M  V30 3204 H 305.151 3.1222 -0.369594 0
M  V30 3205 N 308.923 1.53595 0.353017 0
M  V30 3206 C 309.853 1.83902 1.43883 0
M  V30 3207 C 310.834 0.693421 1.55324 0
M  V30 3208 O 312.019 0.944452 1.69687 0
M  V30 3209 C 309.149 2.04016 2.8106 0
M  V30 3210 C 308.103 3.19814 2.84434 0
M  V30 3211 C 307.429 3.25244 4.24406 0
M  V30 3212 C 308.729 4.58133 2.50822 0
M  V30 3213 H 310.423 2.74835 1.1877 0
M  V30 3214 H 307.969 1.32242 0.569917 0
M  V30 3215 H 309.922 2.238 3.57059 0
M  V30 3216 H 308.646 1.09804 3.07588 0
M  V30 3217 H 307.305 2.9987 2.10887 0
M  V30 3218 H 306.953 2.28646 4.48029 0
M  V30 3219 H 306.653 4.03054 4.27576 0
M  V30 3220 H 308.177 3.47228 5.0226 0
M  V30 3221 H 309.591 4.77995 3.16534 0
M  V30 3222 H 307.988 5.38276 2.6529 0
M  V30 3223 H 309.058 4.62387 1.46034 0
M  V30 3224 N 310.401 -0.613514 1.45168 0
M  V30 3225 C 311.648 -1.37268 1.48875 0
M  V30 3226 C 311.976 -1.94077 0.128161 0
M  V30 3227 O 311.231 -1.75178 -0.872416 0
M  V30 3228 C 311.53 -2.54347 2.51083 0
M  V30 3229 C 311.196 -2.1572 3.95949 0
M  V30 3230 C 309.858 -2.04899 4.35396 0
M  V30 3231 C 312.21 -1.85485 4.87078 0
M  V30 3232 C 309.538 -1.62057 5.63875 0
M  V30 3233 C 311.89 -1.4413 6.15962 0
M  V30 3234 C 310.554 -1.31863 6.54346 0
M  V30 3235 H 309.824 -0.502299 0.544773 0
M  V30 3236 H 312.471 -0.694021 1.78481 0
M  V30 3237 H 310.776 -3.27524 2.15024 0
M  V30 3238 H 312.473 -3.12577 2.51191 0
M  V30 3239 H 309.063 -2.25066 3.64751 0
M  V30 3240 H 313.247 -1.92745 4.57343 0
M  V30 3241 H 308.503 -1.51177 5.92415 0
M  V30 3242 H 312.677 -1.19778 6.86022 0
M  V30 3243 H 310.304 -0.984392 7.538 0
M  V30 3244 N 311.879 -1.3236 -0.855495 0
M  V30 3245 C 313.104 -1.2601 -1.64731 0
M  V30 3246 C 313.529 0.169068 -1.87339 0
M  V30 3247 O 312.887 1.12016 -1.42556 0
M  V30 3248 C 312.935 -2.02417 -2.98429 0
M  V30 3249 O 312.039 -1.3714 -3.8893 0
M  V30 3250 H 311.38 -0.434325 -0.502253 0
M  V30 3251 H 313.91 -1.74661 -1.06558 0
M  V30 3252 H 313.92 -2.12559 -3.48257 0
M  V30 3253 H 312.595 -3.06343 -2.81295 0
M  V30 3254 H 311.172 -1.3554 -3.47395 0
M  V30 3255 N 313.357 1.07166 -1.15556 0
M  V30 3256 C 314.287 2.16403 -0.877046 0
M  V30 3257 C 315.268 1.69217 0.173111 0
M  V30 3258 O 316.453 1.94181 0.027084 0
M  V30 3259 C 313.583 3.45349 -0.367632 0
M  V30 3260 C 312.537 4.05995 -1.35468 0
M  V30 3261 C 311.863 5.30045 -0.704038 0
M  V30 3262 C 313.163 4.45804 -2.72132 0
M  V30 3263 H 314.857 2.39959 -1.79053 0
M  V30 3264 H 312.403 1.15325 -0.862331 0
M  V30 3265 H 314.356 4.21095 -0.160317 0
M  V30 3266 H 313.08 3.21385 0.581326 0
M  V30 3267 H 311.739 3.32296 -1.54839 0
M  V30 3268 H 311.387 5.02373 0.251128 0
M  V30 3269 H 311.087 5.71579 -1.36277 0
M  V30 3270 H 312.611 6.08495 -0.50654 0
M  V30 3271 H 314.025 5.12671 -2.56595 0
M  V30 3272 H 312.422 4.98296 -3.34397 0
M  V30 3273 H 313.492 3.57083 -3.28054 0
M  V30 3274 N 314.835 0.952656 1.25548 0
M  V30 3275 C 315.767 0.428609 2.25157 0
M  V30 3276 C 316.78 -0.454428 1.56329 0
M  V30 3277 O 317.969 -0.263023 1.76552 0
M  V30 3278 C 315.069 -0.401972 3.36508 0
M  V30 3279 C 314.242 0.467601 4.34893 0
M  V30 3280 C 313.301 -0.30445 5.25319 0
M  V30 3281 O 312.327 0.296473 5.68427 0
M  V30 3282 N 313.529 -1.59805 5.5807 0
M  V30 3283 H 316.294 1.28497 2.70756 0
M  V30 3284 H 313.855 0.822798 1.39433 0
M  V30 3285 H 315.847 -0.926134 3.9396 0
M  V30 3286 H 314.417 -1.15918 2.90313 0
M  V30 3287 H 313.637 1.17288 3.76347 0
M  V30 3288 H 314.925 1.06119 4.97611 0
M  V30 3289 H 314.323 -2.10823 5.24948 0
M  V30 3290 H 312.88 -2.06822 6.18116 0
M  V30 3291 N 316.313 -1.40141 0.720998 0
M  V30 3292 C 317.243 -2.33339 0.0867621 0
M  V30 3293 C 318.224 -1.53178 -0.739622 0
M  V30 3294 O 319.409 -1.81625 -0.687449 0
M  V30 3295 C 316.539 -3.37194 -0.831728 0
M  V30 3296 C 315.493 -4.27857 -0.110558 0
M  V30 3297 C 314.819 -5.22294 -1.14513 0
M  V30 3298 C 316.119 -5.11872 1.0385 0
M  V30 3299 H 317.813 -2.86626 0.865219 0
M  V30 3300 H 315.359 -1.37814 0.417516 0
M  V30 3301 H 317.312 -4.01335 -1.28485 0
M  V30 3302 H 316.036 -2.82314 -1.64214 0
M  V30 3303 H 314.695 -3.65176 0.322797 0
M  V30 3304 H 314.343 -4.63717 -1.94874 0
M  V30 3305 H 314.043 -5.83797 -0.667446 0
M  V30 3306 H 315.567 -5.89312 -1.59824 0
M  V30 3307 H 316.981 -5.69436 0.664482 0
M  V30 3308 H 315.378 -5.82445 1.4449 0
M  V30 3309 H 316.448 -4.4753 1.86668 0
M  V30 3310 N 317.792 -0.46758 -1.50504 0
M  V30 3311 C 319.032 0.0874114 -2.04213 0
M  V30 3312 C 319.396 1.37301 -1.34211 0
M  V30 3313 O 320.597 2.01015 -1.78456 0
M  V30 3314 C 318.868 0.270571 -3.56374 0
M  V30 3315 S 320.427 0.784623 -4.31728 0
M  V30 3316 H 317.245 0.0176153 -0.710782 0
M  V30 3317 H 319.847 -0.633915 -1.84937 0
M  V30 3318 H 318.551 -0.670942 -4.04878 0
M  V30 3319 H 318.082 1.01811 -3.79997 0
M  V30 3320 H 320.097 2.05849 -4.51487 0
M  V30 3321 N 319.27 1.56325 -0.20005 0
M  V30 3322 C 320.518 1.97329 0.436547 0
M  V30 3323 C 320.839 1.08826 1.61808 0
M  V30 3324 O 320.109 0.160604 1.95241 0
M  V30 3325 H 318.689 0.728714 0.164272 0
M  V30 3326 H 321.351 1.92761 -0.287937 0
M  V30 3327 H 320.447 3.02264 0.777353 0
M  V30 3328 N 320.748 -0.0735177 1.57428 0
M  V30 3329 C 321.711 -1.07192 2.02589 0
M  V30 3330 C 322.711 -1.31695 0.922661 0
M  V30 3331 O 323.901 -1.27445 1.18758 0
M  V30 3332 C 321.033 -2.41599 2.40506 0
M  V30 3333 H 322.226 -0.682727 2.92025 0
M  V30 3334 H 319.779 -0.319193 1.53006 0
M  V30 3335 H 320.514 -2.85354 1.5409 0
M  V30 3336 H 320.299 -2.25156 3.21009 0
M  V30 3337 H 321.789 -3.13367 2.76027 0
M  V30 3338 N 322.226 -1.5378 -0.344866 0
M  V30 3339 C 323.474 -1.70625 -1.08311 0
M  V30 3340 C 323.795 -0.471447 -1.89215 0
M  V30 3341 O 323.065 0.514616 -1.8902 0
M  V30 3342 H 321.645 -0.629058 -0.402859 0
M  V30 3343 H 324.307 -1.9103 -0.386459 0
M  V30 3344 H 323.403 -2.57656 -1.76124 0
M  V30 3345 N 323.704 0.605807 -1.45491 0
M  V30 3346 C 324.951 1.36476 -1.49601 0
M  V30 3347 C 325.279 1.94007 -0.138452 0
M  V30 3348 O 324.534 1.75638 0.863114 0
M  V30 3349 C 324.833 2.53012 -2.52428 0
M  V30 3350 C 324.499 2.13617 -3.97087 0
M  V30 3351 C 323.161 2.02587 -4.36477 0
M  V30 3352 C 325.513 1.82899 -4.88055 0
M  V30 3353 C 322.841 1.59064 -5.64726 0
M  V30 3354 C 325.193 1.40861 -6.16718 0
M  V30 3355 C 323.857 1.28391 -6.55036 0
M  V30 3356 H 323.127 0.499402 -0.547429 0
M  V30 3357 H 325.774 0.684546 -1.78847 0
M  V30 3358 H 324.079 3.26379 -2.16758 0
M  V30 3359 H 325.776 3.1124 -2.52845 0
M  V30 3360 H 322.366 2.23129 -3.65939 0
M  V30 3361 H 326.55 1.90317 -4.58359 0
M  V30 3362 H 321.806 1.48034 -5.93208 0
M  V30 3363 H 325.98 1.16138 -6.86648 0
M  V30 3364 H 323.607 0.944403 -7.54311 0
M  V30 3365 N 325.182 1.32811 0.848464 0
M  V30 3366 C 326.593 1.21315 1.41914 0
M  V30 3367 C 326.944 -0.171847 1.95446 0
M  V30 3368 O 326.069 -1.07093 1.88043 0
M  V30 3369 C 326.664 2.19631 2.57968 0
M  V30 3370 C 325.223 2.12003 3.11017 0
M  V30 3371 C 324.37 2.07651 1.83783 0
M  V30 3372 H 327.321 1.44549 0.655071 0
M  V30 3373 H 327.342 1.79845 3.35315 0
M  V30 3374 H 326.854 3.20423 2.18976 0
M  V30 3375 H 324.955 1.14481 3.54577 0
M  V30 3376 H 325.068 3.02111 3.71841 0
M  V30 3377 H 323.432 1.52983 2.03638 0
M  V30 3378 H 324.215 3.10235 1.47 0
M  V30 3379 N 326.66 -1.06551 1.16123 0
M  V30 3380 C 327.59 -2.15935 0.88851 0
M  V30 3381 C 328.571 -1.69306 -0.164135 0
M  V30 3382 O 329.756 -1.94193 -0.0167857 0
M  V30 3383 C 326.886 -3.45149 0.385942 0
M  V30 3384 C 325.84 -4.05271 1.3762 0
M  V30 3385 C 325.166 -5.29664 0.732137 0
M  V30 3386 C 326.466 -4.44355 2.74493 0
M  V30 3387 H 328.16 -2.39006 1.80323 0
M  V30 3388 H 325.706 -1.14866 0.868435 0
M  V30 3389 H 327.659 -4.21004 0.182647 0
M  V30 3390 H 326.383 -3.21689 -0.564274 0
M  V30 3391 H 325.042 -3.3147 1.56599 0
M  V30 3392 H 324.69 -5.02499 -0.224483 0
M  V30 3393 H 324.39 -5.70848 1.39307 0
M  V30 3394 H 325.914 -6.08218 0.538802 0
M  V30 3395 H 327.328 -5.11303 2.59311 0
M  V30 3396 H 325.725 -4.96515 3.37035 0
M  V30 3397 H 326.795 -3.55339 3.29943 0
M  V30 3398 N 328.138 -0.959301 -1.25041 0
M  V30 3399 C 329.086 -0.474437 -2.2771 0
M  V30 3400 C 330.08 0.457697 -1.631 0
M  V30 3401 O 331.286 0.333912 -1.76876 0
M  V30 3402 H 327.661 -0.134936 -0.739795 0
M  V30 3403 H 329.632 -1.35251 -2.65988 0
M  V30 3404 C 328.381 0.227884 -3.46952 0
M  V30 3405 H 327.704 -0.480248 -3.96905 0
M  V30 3406 H 329.144 0.531091 -4.20661 0
M  V30 3407 C 327.603 1.452 -3.04004 0
M  V30 3408 O 328.133 2.54949 -3.10426 0
M  V30 3409 N 326.339 1.31502 -2.59144 0
M  V30 3410 H 325.886 0.422065 -2.54119 0
M  V30 3411 H 325.844 2.13521 -2.30773 0
M  V30 3412 N 329.616 1.39756 -0.72842 0
M  V30 3413 C 330.548 2.29157 -0.0446202 0
M  V30 3414 C 331.561 1.46484 0.710367 0
M  V30 3415 O 332.75 1.69632 0.55562 0
M  V30 3416 C 329.85 3.24987 0.961071 0
M  V30 3417 C 329.023 4.36572 0.268967 0
M  V30 3418 C 328.082 5.12756 1.18184 0
M  V30 3419 O 327.108 5.6534 0.661794 0
M  V30 3420 N 328.31 5.23331 2.51206 0
M  V30 3421 H 331.075 2.88482 -0.812295 0
M  V30 3422 H 328.636 1.51265 -0.577098 0
M  V30 3423 H 330.628 3.72827 1.57423 0
M  V30 3424 H 329.198 2.66739 1.63 0
M  V30 3425 H 328.418 3.90694 -0.524574 0
M  V30 3426 H 329.706 5.08363 -0.210934 0
M  V30 3427 H 329.104 4.82116 2.9594 0
M  V30 3428 H 327.661 5.74634 3.07634 0
M  V30 3429 N 331.094 0.475555 1.50254 0
M  V30 3430 C 332.319 -0.0777042 2.07254 0
M  V30 3431 C 332.744 -1.3235 1.3366 0
M  V30 3432 O 332.102 -1.77152 0.385597 0
M  V30 3433 C 332.15 -0.340169 3.58992 0
M  V30 3434 O 331.254 -1.41982 3.87188 0
M  V30 3435 H 330.595 0.0149556 0.663832 0
M  V30 3436 H 333.125 0.667878 1.93392 0
M  V30 3437 H 333.135 -0.579332 4.03866 0
M  V30 3438 H 331.81 0.570167 4.11973 0
M  V30 3439 H 330.387 -1.16762 3.54148 0
M  V30 3440 N 332.573 -1.56217 0.208337 0
M  V30 3441 C 333.483 -2.23316 -0.718836 0
M  V30 3442 C 334.499 -1.23648 -1.22422 0
M  V30 3443 O 335.675 -1.56423 -1.26861 0
M  V30 3444 C 332.74 -2.88968 -1.91568 0
M  V30 3445 C 331.801 -4.03943 -1.45357 0
M  V30 3446 C 331.034 -4.66455 -2.59337 0
M  V30 3447 O 331.257 -4.27919 -3.77149 0
M  V30 3448 O 330.191 -5.55686 -2.31293 0
M  V30 3449 H 334.017 -3.03182 -0.177315 0
M  V30 3450 H 331.602 -1.49384 -0.0215402 0
M  V30 3451 H 333.484 -3.30455 -2.61491 0
M  V30 3452 H 332.159 -2.12071 -2.44556 0
M  V30 3453 H 331.066 -3.67052 -0.722746 0
M  V30 3454 H 332.399 -4.82543 -0.970219 0
M  V30 3455 N 334.051 0.0651679 -1.57465 0
M  V30 3456 C 335.297 0.764193 -1.87851 0
M  V30 3457 C 335.63 1.76889 -0.801495 0
M  V30 3458 O 334.905 1.93594 0.187528 0
M  V30 3459 C 335.188 1.46625 -3.28897 0
M  V30 3460 C 335.041 0.477515 -4.47258 0
M  V30 3461 C 336.36 2.4095 -3.68281 0
M  V30 3462 H 333.479 0.276351 -0.683227 0
M  V30 3463 H 336.121 0.0272868 -1.8998 0
M  V30 3464 H 334.271 2.09438 -3.27212 0
M  V30 3465 H 335.943 -0.145922 -4.61069 0
M  V30 3466 H 334.186 -0.206576 -4.33308 0
M  V30 3467 H 334.857 1.0065 -5.42746 0
M  V30 3468 H 337.333 1.88209 -3.71102 0
M  V30 3469 H 336.209 2.87072 -4.67847 0
M  V30 3470 H 336.47 3.26049 -2.98571 0
M  V30 3471 N 335.529 1.53961 0.336706 0
M  V30 3472 C 336.459 1.85417 1.41925 0
M  V30 3473 C 337.44 0.709856 1.5458 0
M  V30 3474 O 338.625 0.962396 1.68676 0
M  V30 3475 C 335.755 2.06985 2.78881 0
M  V30 3476 C 334.709 3.22813 2.81026 0
M  V30 3477 C 334.035 3.29727 4.20932 0
M  V30 3478 C 335.335 4.60767 2.45949 0
M  V30 3479 H 337.029 2.76079 1.15848 0
M  V30 3480 H 334.575 1.32839 0.555859 0
M  V30 3481 H 336.528 2.27575 3.54665 0
M  V30 3482 H 335.252 1.13061 3.06406 0
M  V30 3483 H 333.911 3.0209 2.07695 0
M  V30 3484 H 333.559 2.33385 4.45579 0
M  V30 3485 H 333.259 4.07566 4.23277 0
M  V30 3486 H 334.783 3.52536 4.98549 0
M  V30 3487 H 336.197 4.81325 3.11446 0
M  V30 3488 H 334.594 5.4106 2.59566 0
M  V30 3489 H 335.664 4.6391 1.41122 0
M  V30 3490 N 337.007 -0.598083 1.45811 0
M  V30 3491 C 337.97 -1.69018 1.54808 0
M  V30 3492 C 338.97 -1.55037 0.426652 0
M  V30 3493 O 340.16 -1.59932 0.690456 0
M  V30 3494 C 337.292 -3.0835 1.45371 0
M  V30 3495 H 338.485 -1.62403 2.52121 0
M  V30 3496 H 336.038 -0.814626 1.33392 0
M  V30 3497 H 336.773 -3.20534 0.492793 0
M  V30 3498 H 336.558 -3.19907 2.26721 0
M  V30 3499 H 338.048 -3.8788 1.54721 0
M  V30 3500 N 338.485 -1.33259 -0.841409 0
M  V30 3501 C 339.71 -1.2775 -1.63385 0
M  V30 3502 C 340.135 0.149188 -1.87507 0
M  V30 3503 O 339.493 1.10498 -1.43736 0
M  V30 3504 C 339.541 -2.05571 -2.96265 0
M  V30 3505 O 338.645 -1.41257 -3.87453 0
M  V30 3506 H 337.986 -0.439627 -0.497618 0
M  V30 3507 H 340.516 -1.75782 -1.04699 0
M  V30 3508 H 340.526 -2.16241 -3.45982 0
M  V30 3509 H 339.201 -3.09309 -2.7803 0
M  V30 3510 H 337.778 -1.39217 -3.45938 0
M  V30 3511 N 339.963 1.05934 -1.16686 0
M  V30 3512 C 341.209 1.79065 -0.95203 0
M  V30 3513 C 341.542 1.87147 0.518629 0
M  V30 3514 O 340.817 1.36574 1.38484 0
M  V30 3515 C 341.1 3.23359 -1.58464 0
M  V30 3516 C 340.953 3.23336 -3.12689 0
M  V30 3517 C 342.272 4.21004 -1.28232 0
M  V30 3518 H 339.391 0.65005 -0.34728 0
M  V30 3519 H 342.033 1.23868 -1.44072 0
M  V30 3520 H 340.183 3.70493 -1.16908 0
M  V30 3521 H 341.855 2.84336 -3.6325 0
M  V30 3522 H 340.098 2.61886 -3.4583 0
M  V30 3523 H 340.769 4.25144 -3.52075 0
M  V30 3524 H 343.245 3.8233 -1.64203 0
M  V30 3525 H 342.121 5.20225 -1.75092 0
M  V30 3526 H 342.382 4.41639 -0.201791 0
M  V30 3527 N 341.441 0.965919 1.2453 0
M  V30 3528 C 342.689 0.625593 1.92174 0
M  V30 3529 C 343.01 -0.841652 1.75901 0
M  V30 3530 O 342.28 -1.60061 1.12948 0
M  V30 3531 H 340.86 0.228388 0.71123 0
M  V30 3532 H 343.522 1.2266 1.51461 0
M  V30 3533 H 342.618 0.864653 2.99884 0
M  V30 3534 N 342.919 -1.39368 0.735821 0
M  V30 3535 C 344.167 -2.00101 0.283562 0
M  V30 3536 C 344.488 -1.5868 -1.13338 0
M  V30 3537 O 343.758 -0.835423 -1.77193 0
M  V30 3538 H 342.338 -0.740024 0.101851 0
M  V30 3539 H 345 -1.70404 0.945962 0
M  V30 3540 H 344.096 -3.10323 0.332604 0
M  V30 3541 N 344.397 -0.483516 -1.5 0
M  V30 3542 C 345.622 0.0667119 -2.07293 0
M  V30 3543 C 346.047 1.3164 -1.3436 0
M  V30 3544 O 345.405 1.76945 -0.394987 0
M  V30 3545 C 345.453 0.321126 -3.59167 0
M  V30 3546 O 344.557 1.39927 -3.87936 0
M  V30 3547 H 343.898 -0.0184758 -0.663743 0
M  V30 3548 H 346.428 -0.678125 -1.93035 0
M  V30 3549 H 346.438 0.557906 -4.04168 0
M  V30 3550 H 345.113 -0.592007 -4.11665 0
M  V30 3551 H 343.69 1.14882 -3.54763 0
M  V30 3552 N 345.875 1.56104 -0.216619 0
M  V30 3553 C 346.808 2.16026 0.735395 0
M  V30 3554 C 347.786 1.1032 1.1945 0
M  V30 3555 O 348.97 1.38549 1.27814 0
M  V30 3556 C 346.097 2.73656 1.99575 0
M  V30 3557 C 345.143 3.92146 1.67702 0
M  V30 3558 S 345.976 5.29397 0.806145 0
M  V30 3559 C 347.132 5.90463 2.07617 0
M  V30 3560 H 347.365 2.96439 0.226072 0
M  V30 3561 H 344.898 1.544 -0.00136639 0
M  V30 3562 H 346.856 3.075 2.71945 0
M  V30 3563 H 345.517 1.93245 2.47619 0
M  V30 3564 H 344.71 4.30954 2.61332 0
M  V30 3565 H 344.312 3.59423 1.03398 0
M  V30 3566 H 346.604 6.06136 3.02664 0
M  V30 3567 H 347.547 6.86589 1.73207 0
M  V30 3568 H 347.955 5.19252 2.21445 0
M  V30 3569 N 347.353 -0.0568162 1.57498 0
M  V30 3570 C 348.602 -0.752001 1.87157 0
M  V30 3571 C 348.915 -1.77978 0.811375 0
M  V30 3572 O 350.121 -2.52559 0.996293 0
M  V30 3573 C 348.577 -1.38844 3.3204 0
M  V30 3574 C 348.185 -0.398456 4.46225 0
M  V30 3575 C 349.929 -2.06512 3.70882 0
M  V30 3576 C 347.836 -1.04166 5.82154 0
M  V30 3577 H 346.766 -0.28461 0.698222 0
M  V30 3578 H 349.417 -0.00561272 1.83499 0
M  V30 3579 H 347.799 -2.1836 3.30356 0
M  V30 3580 H 348.973 0.367977 4.59328 0
M  V30 3581 H 347.288 0.174592 4.16034 0
M  V30 3582 H 349.885 -2.55437 4.6974 0
M  V30 3583 H 350.228 -2.87117 3.01445 0
M  V30 3584 H 350.761 -1.33808 3.7462 0
M  V30 3585 H 347.5 -0.275614 6.5492 0
M  V30 3586 H 347.02 -1.7786 5.72823 0
M  V30 3587 H 348.699 -1.55715 6.27982 0
M  V30 3588 N 348.832 -1.54138 -0.328536 0
M  V30 3589 C 350.081 -1.71318 -1.06456 0
M  V30 3590 C 350.394 -0.491109 -1.89334 0
M  V30 3591 O 351.6 -0.54416 -2.65991 0
M  V30 3592 C 350.056 -3.03 -1.94214 0
M  V30 3593 C 349.664 -4.32595 -1.16471 0
M  V30 3594 C 351.408 -3.29544 -2.67583 0
M  V30 3595 C 349.315 -5.55341 -2.03347 0
M  V30 3596 H 348.245 -0.638429 -0.401155 0
M  V30 3597 H 350.896 -1.80633 -0.323106 0
M  V30 3598 H 349.278 -2.87579 -2.72239 0
M  V30 3599 H 350.452 -4.58766 -0.432525 0
M  V30 3600 H 348.767 -4.12777 -0.548063 0
M  V30 3601 H 351.364 -4.18444 -3.3288 0
M  V30 3602 H 351.707 -2.47206 -3.34955 0
M  V30 3603 H 352.24 -3.45809 -1.96623 0
M  V30 3604 H 348.979 -6.40268 -1.40491 0
M  V30 3605 H 348.499 -5.33397 -2.74313 0
M  V30 3606 H 350.178 -5.91557 -2.62049 0
M  V30 3607 N 350.31 0.590341 -1.46126 0
M  V30 3608 C 351.558 1.34616 -1.50742 0
M  V30 3609 C 351.879 1.94363 -0.157486 0
M  V30 3610 O 351.149 1.78136 0.815136 0
M  V30 3611 H 349.729 0.499789 -0.555175 0
M  V30 3612 H 352.391 0.691953 -1.82203 0
M  V30 3613 H 351.487 2.15678 -2.25587 0
M  V30 3614 N 351.788 1.33704 0.83433 0
M  V30 3615 C 353.036 1.25169 1.58673 0
M  V30 3616 C 353.357 -0.18127 1.94156 0
M  V30 3617 O 352.627 -1.11113 1.6134 0
M  V30 3618 H 351.207 0.4603 0.58833 0
M  V30 3619 H 353.869 1.67478 0.996847 0
M  V30 3620 H 352.965 1.84856 2.51465 0
M  V30 3621 N 353.266 -1.05314 1.17247 0
M  V30 3622 C 354.515 -1.77685 0.954521 0
M  V30 3623 C 354.828 -1.88616 -0.518025 0
M  V30 3624 O 356.034 -2.57714 -0.854144 0
M  V30 3625 C 354.49 -3.19402 1.65863 0
M  V30 3626 C 354.098 -3.16605 3.16963 0
M  V30 3627 C 355.842 -3.96237 1.52303 0
M  V30 3628 C 353.749 -4.53103 3.80068 0
M  V30 3629 H 352.679 -0.666 0.353496 0
M  V30 3630 H 355.33 -1.1805 1.40486 0
M  V30 3631 H 353.712 -3.79355 1.13602 0
M  V30 3632 H 354.886 -2.66176 3.76148 0
M  V30 3633 H 353.201 -2.53268 3.30521 0
M  V30 3634 H 355.798 -4.97157 1.96822 0
M  V30 3635 H 356.141 -4.136 0.473401 0
M  V30 3636 H 356.674 -3.42829 2.01775 0
M  V30 3637 H 353.413 -4.40946 4.85023 0
M  V30 3638 H 352.933 -5.03686 3.2567 0
M  V30 3639 H 354.612 -5.22045 3.82202 0
M  V30 3640 N 354.744 -0.972509 -1.24016 0
M  V30 3641 C 356.021 -0.553733 -1.87598 0
M  V30 3642 C 356.401 0.969158 -1.87538 0
M  V30 3643 O 355.749 1.84255 -1.35139 0
M  V30 3644 C 355.959 -1.15076 -3.29482 0
M  V30 3645 C 357.307 -1.23862 -4.06132 0
M  V30 3646 O 358.331 -1.10363 -3.38672 0
M  V30 3647 O 357.19 -1.45252 -5.26844 0
M  V30 3648 H 354.284 -0.185331 -0.805966 0
M  V30 3649 H 356.83 -1.06709 -1.31952 0
M  V30 3650 H 355.602 -2.19333 -3.2405 0
M  V30 3651 H 355.225 -0.621746 -3.92709 0
M  V30 3652 N 356.222 1.38976 -0.743202 0
M  V30 3653 C 357.172 2.27843 -0.084513 0
M  V30 3654 C 358.156 1.44677 0.704094 0
M  V30 3655 O 359.348 1.67511 0.571755 0
M  V30 3656 C 356.477 3.33466 0.815781 0
M  V30 3657 C 355.563 4.24095 0.0208844 0
M  V30 3658 N 355.954 4.95609 -1.0102 0
M  V30 3659 C 354.252 4.45303 0.249293 0
M  V30 3660 C 354.953 5.62287 -1.49024 0
M  V30 3661 N 353.929 5.37571 -0.807377 0
M  V30 3662 H 357.731 2.80593 -0.87436 0
M  V30 3663 H 355.245 1.51755 -0.578283 0
M  V30 3664 H 357.242 3.96008 1.30321 0
M  V30 3665 H 355.902 2.82276 1.6047 0
M  V30 3666 H 356.913 4.98849 -1.39176 0
M  V30 3667 H 353.59 4.0504 1.01237 0
M  V30 3668 H 354.98 6.29519 -2.34853 0
M  V30 3669 N 357.7 0.491464 1.49741 0
M  V30 3670 C 358.925 -0.0557177 2.07325 0
M  V30 3671 C 359.35 -1.30925 1.35056 0
M  V30 3672 O 358.708 -1.76733 0.404365 0
M  V30 3673 C 358.756 -0.302074 3.59333 0
M  V30 3674 O 357.86 -1.37868 3.88672 0
M  V30 3675 H 357.201 0.0219956 0.663636 0
M  V30 3676 H 359.731 0.688352 1.92673 0
M  V30 3677 H 359.741 -0.536464 4.04458 0
M  V30 3678 H 358.416 0.61383 4.11345 0
M  V30 3679 H 356.993 -1.12999 3.55367 0
M  V30 3680 N 359.178 -1.55987 0.224894 0
M  V30 3681 C 360.108 -2.23426 -0.678457 0
M  V30 3682 C 361.089 -1.20709 -1.19847 0
M  V30 3683 O 362.274 -1.49304 -1.24186 0
M  V30 3684 C 359.404 -2.91676 -1.88527 0
M  V30 3685 C 358.358 -4.00893 -1.49896 0
M  V30 3686 C 357.684 -4.56455 -2.78483 0
M  V30 3687 C 358.984 -5.17769 -0.686461 0
M  V30 3688 H 360.678 -2.99175 -0.116173 0
M  V30 3689 H 358.224 -1.43897 -0.054436 0
M  V30 3690 H 360.177 -3.37547 -2.5227 0
M  V30 3691 H 358.901 -2.1338 -2.47258 0
M  V30 3692 H 357.56 -3.55758 -0.884985 0
M  V30 3693 H 357.208 -3.74886 -3.35365 0
M  V30 3694 H 356.908 -5.30169 -2.53368 0
M  V30 3695 H 358.432 -5.05047 -3.43162 0
M  V30 3696 H 359.846 -5.60001 -1.22767 0
M  V30 3697 H 358.243 -5.97735 -0.532259 0
M  V30 3698 H 359.313 -4.83932 0.306196 0
M  V30 3699 N 360.656 0.0484629 -1.57525 0
M  V30 3700 C 361.886 0.754326 -1.92337 0
M  V30 3701 C 362.294 1.70443 -0.82132 0
M  V30 3702 O 361.637 1.82466 0.21254 0
M  V30 3703 C 361.699 1.58231 -3.22805 0
M  V30 3704 C 361.363 0.799074 -4.4996 0
M  V30 3705 C 362.36 0.1079 -5.19788 0
M  V30 3706 C 360.045 0.759345 -4.96527 0
M  V30 3707 C 362.039 -0.612516 -6.3445 0
M  V30 3708 C 359.726 0.0351713 -6.1109 0
M  V30 3709 C 360.724 -0.649537 -6.79904 0
M  V30 3710 O 360.412 -1.36199 -7.92278 0
M  V30 3711 H 360.144 0.218257 -0.639797 0
M  V30 3712 H 362.698 0.0159295 -2.05394 0
M  V30 3713 H 360.928 2.36406 -3.06021 0
M  V30 3714 H 362.617 2.16898 -3.43089 0
M  V30 3715 H 363.383 0.129748 -4.84826 0
M  V30 3716 H 359.262 1.28177 -4.42822 0
M  V30 3717 H 362.806 -1.14751 -6.88097 0
M  V30 3718 H 358.703 0.0113314 -6.45499 0
M  V30 3719 H 359.471 -1.27366 -8.0853 0
M  V30 3720 N 362.134 1.5431 0.320358 0
M  V30 3721 C 363.362 1.76636 1.07738 0
M  V30 3722 C 363.777 0.51649 1.81598 0
M  V30 3723 O 363.134 -0.512942 1.75143 0
M  V30 3724 C 363.185 2.96158 2.07299 0
M  V30 3725 O 362.906 4.16313 1.36438 0
M  V30 3726 C 364.407 3.3072 2.95193 0
M  V30 3727 H 361.627 0.589597 0.320339 0
M  V30 3728 H 364.171 2.01207 0.36551 0
M  V30 3729 H 362.326 2.73851 2.74016 0
M  V30 3730 H 362.74 4.83565 2.03138 0
M  V30 3731 H 364.214 4.17643 3.60941 0
M  V30 3732 H 364.691 2.48026 3.62463 0
M  V30 3733 H 365.297 3.55117 2.34034 0
M  V30 3734 N 363.613 -0.582584 1.46437 0
M  V30 3735 C 364.861 -1.33814 1.51453 0
M  V30 3736 C 365.182 -1.94277 0.167792 0
M  V30 3737 O 364.452 -1.78566 -0.805677 0
M  V30 3738 H 363.032 -0.496838 0.557818 0
M  V30 3739 H 365.694 -0.682281 1.82568 0
M  V30 3740 H 364.79 -2.14479 2.26728 0
M  V30 3741 N 365.091 -1.34144 -0.827227 0
M  V30 3742 C 366.316 -1.29476 -1.62021 0
M  V30 3743 C 366.741 0.129292 -1.87655 0
M  V30 3744 O 366.099 1.08967 -1.449 0
M  V30 3745 C 366.147 -2.08702 -2.94068 0
M  V30 3746 O 365.251 -1.45359 -3.85933 0
M  V30 3747 H 364.592 -0.444881 -0.492927 0
M  V30 3748 H 367.122 -1.76882 -1.02829 0
M  V30 3749 H 367.132 -2.19898 -3.43669 0
M  V30 3750 H 365.807 -3.12241 -2.74734 0
M  V30 3751 H 364.384 -1.42879 -3.44442 0
M  V30 3752 N 366.569 1.04691 -1.17803 0
M  V30 3753 C 367.499 2.14494 -0.92275 0
M  V30 3754 C 368.48 1.69546 0.137179 0
M  V30 3755 O 369.665 1.94195 -0.0141108 0
M  V30 3756 C 366.795 3.44491 -0.440803 0
M  V30 3757 C 365.749 4.03031 -1.4405 0
M  V30 3758 C 365.075 5.28432 -0.81631 0
M  V30 3759 C 366.375 4.39932 -2.81527 0
M  V30 3760 H 368.069 2.36107 -1.84103 0
M  V30 3761 H 365.615 1.1347 -0.886599 0
M  V30 3762 H 367.568 4.2066 -0.249602 0
M  V30 3763 H 366.292 3.22546 0.513025 0
M  V30 3764 H 364.951 3.28937 -1.61853 0
M  V30 3765 H 364.599 5.02792 0.144511 0
M  V30 3766 H 364.299 5.68559 -1.48371 0
M  V30 3767 H 365.823 6.07284 -0.635496 0
M  V30 3768 H 367.237 5.07113 -2.67412 0
M  V30 3769 H 365.634 4.9109 -3.44892 0
M  V30 3770 H 366.704 3.50045 -3.35554 0
M  V30 3771 N 368.047 0.979072 1.23499 0
M  V30 3772 C 369.293 0.6578 1.9247 0
M  V30 3773 C 369.648 -0.799746 1.74991 0
M  V30 3774 O 368.941 -1.56922 1.09937 0
M  V30 3775 C 369.135 0.981932 3.43646 0
M  V30 3776 C 368.964 2.46944 3.75831 0
M  V30 3777 C 367.734 3.13119 3.96591 0
M  V30 3778 C 369.932 3.45006 3.81412 0
M  V30 3779 N 367.914 4.51489 4.15969 0
M  V30 3780 C 369.285 4.68778 4.05768 0
M  V30 3781 C 371.34 3.39505 3.64198 0
M  V30 3782 C 370.043 5.87723 4.14697 0
M  V30 3783 C 372.069 4.57814 3.7438 0
M  V30 3784 C 371.431 5.80381 3.99171 0
M  V30 3785 H 367.53 0.291746 0.72554 0
M  V30 3786 H 370.114 1.25626 1.48749 0
M  V30 3787 H 368.285 0.412179 3.86207 0
M  V30 3788 H 370.017 0.618068 3.99953 0
M  V30 3789 H 366.772 2.63619 3.93449 0
M  V30 3790 H 367.196 5.23221 4.29615 0
M  V30 3791 H 371.838 2.45773 3.44029 0
M  V30 3792 H 369.556 6.81874 4.33675 0
M  V30 3793 H 373.142 4.55132 3.62417 0
M  V30 3794 H 372.022 6.70398 4.06861 0
M  V30 3795 N 369.525 -1.3858 0.750561 0
M  V30 3796 C 370.755 -2.04175 0.31564 0
M  V30 3797 C 371.163 -1.56726 -1.05989 0
M  V30 3798 O 370.506 -0.734225 -1.68389 0
M  V30 3799 C 370.568 -3.58585 0.256389 0
M  V30 3800 C 370.232 -4.29077 1.57296 0
M  V30 3801 C 371.229 -4.54656 2.52159 0
M  V30 3802 C 368.914 -4.67324 1.84156 0
M  V30 3803 C 370.908 -5.17512 3.72103 0
M  V30 3804 C 368.595 -5.29905 3.04374 0
M  V30 3805 C 369.593 -5.54933 3.98168 0
M  V30 3806 O 369.281 -6.16212 5.16273 0
M  V30 3807 H 369.013 -0.662742 0.133226 0
M  V30 3808 H 371.567 -1.78313 1.01948 0
M  V30 3809 H 369.797 -3.83406 -0.503677 0
M  V30 3810 H 371.486 -4.05628 -0.148612 0
M  V30 3811 H 372.252 -4.25539 2.32683 0
M  V30 3812 H 368.131 -4.47191 1.11988 0
M  V30 3813 H 371.675 -5.36963 4.45327 0
M  V30 3814 H 367.572 -5.58444 3.23745 0
M  V30 3815 H 368.34 -6.34701 5.16815 0
M  V30 3816 N 371.003 -0.499398 -1.49478 0
M  V30 3817 C 372.231 0.0425456 -2.06856 0
M  V30 3818 C 372.646 1.30964 -1.35992 0
M  V30 3819 O 372.003 1.77172 -0.437762 0
M  V30 3820 C 372.054 0.301735 -3.60239 0
M  V30 3821 O 371.775 -0.915127 -4.28436 0
M  V30 3822 C 373.276 0.887499 -4.34325 0
M  V30 3823 H 370.496 -0.0197482 -0.670709 0
M  V30 3824 H 373.04 -0.696297 -1.92281 0
M  V30 3825 H 371.195 0.990556 -3.74522 0
M  V30 3826 H 371.609 -0.676993 -5.20113 0
M  V30 3827 H 373.083 1.01845 -5.42523 0
M  V30 3828 H 373.56 1.88488 -3.96698 0
M  V30 3829 H 374.166 0.236196 -4.24644 0
M  V30 3830 N 372.481 1.55866 -0.233164 0
M  V30 3831 C 373.892 1.847 0.272554 0
M  V30 3832 C 374.243 1.15477 1.58617 0
M  V30 3833 O 373.368 0.42841 2.12117 0
M  V30 3834 C 373.963 3.35071 0.501299 0
M  V30 3835 C 372.522 3.6418 0.951304 0
M  V30 3836 C 371.669 2.77292 0.0208209 0
M  V30 3837 H 374.62 1.52005 -0.456074 0
M  V30 3838 H 374.641 3.55906 1.34577 0
M  V30 3839 H 374.153 3.85424 -0.454936 0
M  V30 3840 H 372.254 3.19293 1.92049 0
M  V30 3841 H 372.367 4.72071 0.817675 0
M  V30 3842 H 370.731 2.49131 0.529723 0
M  V30 3843 H 371.514 3.30448 -0.93054 0
M  V30 3844 N 373.959 -0.0401083 1.57549 0
M  V30 3845 C 375.208 -0.732108 1.87944 0
M  V30 3846 C 375.521 -1.77107 0.830206 0
M  V30 3847 O 376.727 -2.51488 1.02302 0
M  V30 3848 C 375.183 -1.35315 3.33494 0
M  V30 3849 C 374.791 -0.351105 4.46622 0
M  V30 3850 C 376.535 -2.02566 3.73051 0
M  V30 3851 C 374.442 -0.979859 5.83226 0
M  V30 3852 H 373.372 -0.277188 0.701201 0
M  V30 3853 H 376.023 0.0138501 1.83495 0
M  V30 3854 H 374.405 -2.14844 3.32653 0
M  V30 3855 H 375.579 0.416674 4.58912 0
M  V30 3856 H 373.894 0.218708 4.15825 0
M  V30 3857 H 376.491 -2.50441 4.72423 0
M  V30 3858 H 376.834 -2.83904 3.04474 0
M  V30 3859 H 377.367 -1.29827 3.76018 0
M  V30 3860 H 374.106 -0.206135 6.55176 0
M  V30 3861 H 373.626 -1.71774 5.74677 0
M  V30 3862 H 375.305 -1.49046 6.29599 0
M  V30 3863 N 375.437 -1.54477 -0.31217 0
M  V30 3864 C 376.853 -1.45442 -0.657185 0
M  V30 3865 C 377.053 -0.63653 -1.91182 0
M  V30 3866 O 376.109 -0.139815 -2.52113 0
M  V30 3867 C 377.422 -2.89287 -0.82058 0
M  V30 3868 C 378.97 -2.9926 -0.917188 0
M  V30 3869 C 379.445 -4.44279 -1.11267 0
M  V30 3870 N 380.936 -4.4794 -1.17914 0
M  V30 3871 C 381.671 -5.57318 -1.34848 0
M  V30 3872 N 381.167 -6.76642 -1.48752 0
M  V30 3873 N 382.96 -5.44986 -1.37647 0
M  V30 3874 H 375.111 -2.06129 0.512313 0
M  V30 3875 H 377.374 -0.933088 0.167485 0
M  V30 3876 H 377.08 -3.51687 0.0302604 0
M  V30 3877 H 376.954 -3.36061 -1.71298 0
M  V30 3878 H 379.341 -2.36981 -1.75852 0
M  V30 3879 H 379.422 -2.558 -0.00101257 0
M  V30 3880 H 379.066 -5.07149 -0.27614 0
M  V30 3881 H 378.996 -4.85359 -2.04289 0
M  V30 3882 H 381.487 -3.61969 -1.08567 0
M  V30 3883 H 381.8 -7.55758 -1.61397 0
M  V30 3884 H 380.145 -6.79529 -1.45828 0
M  V30 3885 H 383.336 -4.50715 -1.26388 0
M  V30 3886 H 383.509 -6.3028 -1.50501 0
M  V30 3887 N 376.915 0.57481 -1.46744 0
M  V30 3888 C 378.331 0.898981 -1.31873 0
M  V30 3889 C 378.531 1.99313 -0.29605 0
M  V30 3890 O 377.587 2.50728 0.298621 0
M  V30 3891 C 378.9 1.30886 -2.7072 0
M  V30 3892 C 380.448 1.42127 -2.78871 0
M  V30 3893 C 380.923 1.86478 -4.18318 0
M  V30 3894 N 382.414 1.93658 -4.20774 0
M  V30 3895 C 383.149 2.29267 -5.2557 0
M  V30 3896 N 382.645 2.63612 -6.40688 0
M  V30 3897 N 384.438 2.29889 -5.1294 0
M  V30 3898 H 376.589 -0.147839 -2.11885 0
M  V30 3899 H 378.852 -0.00347013 -0.947994 0
M  V30 3900 H 378.558 0.578853 -3.46904 0
M  V30 3901 H 378.432 2.26874 -3.01343 0
M  V30 3902 H 380.819 2.14213 -2.0297 0
M  V30 3903 H 380.9 0.443705 -2.51922 0
M  V30 3904 H 380.544 1.14968 -4.94717 0
M  V30 3905 H 380.474 2.85207 -4.42679 0
M  V30 3906 H 382.965 1.69574 -3.37718 0
M  V30 3907 H 383.278 2.89759 -7.16421 0
M  V30 3908 H 381.623 2.61232 -6.44036 0
M  V30 3909 H 384.814 2.02485 -4.22039 0
M  V30 3910 H 384.987 2.57312 -5.94722 0
M  V30 3911 N 378.394 1.34581 0.820102 0
M  V30 3912 C 379.304 1.28471 1.96297 0
M  V30 3913 C 380.32 0.191902 1.72939 0
M  V30 3914 O 381.496 0.418879 1.96996 0
M  V30 3915 C 378.561 1.04281 3.30645 0
M  V30 3916 C 377.622 2.22745 3.66992 0
M  V30 3917 C 376.855 1.997 4.9493 0
M  V30 3918 O 377.078 0.956656 5.6232 0
M  V30 3919 O 376.012 2.86723 5.2922 0
M  V30 3920 H 379.838 2.24624 2.04396 0
M  V30 3921 H 377.423 1.14816 0.955913 0
M  V30 3922 H 379.305 0.925841 4.11104 0
M  V30 3923 H 377.98 0.111697 3.23507 0
M  V30 3924 H 376.887 2.40003 2.86966 0
M  V30 3925 H 378.22 3.14257 3.78819 0
M  V30 3926 N 379.872 -1.04064 1.18357 0
M  V30 3927 C 381.118 -1.77658 0.990412 0
M  V30 3928 C 381.473 -1.86446 -0.474944 0
M  V30 3929 O 380.766 -1.36153 -1.34807 0
M  V30 3930 C 380.96 -3.20634 1.57888 0
M  V30 3931 C 380.789 -3.25782 3.09994 0
M  V30 3932 C 379.559 -3.34411 3.7881 0
M  V30 3933 C 381.757 -3.13791 4.0748 0
M  V30 3934 N 379.739 -3.28809 5.18418 0
M  V30 3935 C 381.11 -3.15689 5.33611 0
M  V30 3936 C 383.165 -2.97833 3.98998 0
M  V30 3937 C 381.868 -3.03268 6.52243 0
M  V30 3938 C 383.894 -2.86759 5.17227 0
M  V30 3939 C 383.256 -2.893 6.4225 0
M  V30 3940 H 379.355 -0.661901 0.416427 0
M  V30 3941 H 381.939 -1.23968 1.50133 0
M  V30 3942 H 380.11 -3.7267 1.09414 0
M  V30 3943 H 381.842 -3.82525 1.32124 0
M  V30 3944 H 378.597 -3.40144 3.29543 0
M  V30 3945 H 379.021 -3.29448 5.91433 0
M  V30 3946 H 383.663 -2.94698 3.03171 0
M  V30 3947 H 381.381 -3.05156 7.48268 0
M  V30 3948 H 384.967 -2.75465 5.12455 0
M  V30 3949 H 383.847 -2.80818 7.32196 0
M  V30 3950 N 381.35 -0.985608 -1.22978 0
M  V30 3951 C 382.58 -0.674603 -1.95276 0
M  V30 3952 C 382.988 0.763483 -1.73111 0
M  V30 3953 O 382.331 1.52601 -1.02268 0
M  V30 3954 C 382.393 -0.891597 -3.48268 0
M  V30 3955 C 382.057 -2.31275 -3.94158 0
M  V30 3956 C 383.054 -3.29179 -4.02415 0
M  V30 3957 C 380.739 -2.64524 -4.27004 0
M  V30 3958 C 382.733 -4.58407 -4.42879 0
M  V30 3959 C 380.42 -3.93974 -4.67149 0
M  V30 3960 C 381.418 -4.90727 -4.75053 0
M  V30 3961 O 381.106 -6.17865 -5.14294 0
M  V30 3962 H 380.838 -0.249251 -0.628371 0
M  V30 3963 H 383.392 -1.32106 -1.5728 0
M  V30 3964 H 381.622 -0.187962 -3.86243 0
M  V30 3965 H 383.311 -0.576957 -4.01779 0
M  V30 3966 H 384.077 -3.04823 -3.77237 0
M  V30 3967 H 379.956 -1.89923 -4.2006 0
M  V30 3968 H 383.5 -5.33926 -4.48964 0
M  V30 3969 H 379.397 -4.18122 -4.91777 0
M  V30 3970 H 380.165 -6.21694 -5.32389 0
M  V30 3971 N 382.828 1.3818 -0.7579 0
M  V30 3972 C 384.058 2.04004 -0.326463 0
M  V30 3973 C 384.466 1.57286 1.05156 0
M  V30 3974 O 383.809 0.743144 1.67997 0
M  V30 3975 C 383.871 3.58444 -0.275402 0
M  V30 3976 C 383.535 4.28237 -1.59569 0
M  V30 3977 C 384.532 4.53312 -2.54566 0
M  V30 3978 C 382.217 4.66341 -1.86631 0
M  V30 3979 C 384.211 5.15531 -3.74842 0
M  V30 3980 C 381.898 5.28283 -3.0718 0
M  V30 3981 C 382.896 5.52814 -4.01106 0
M  V30 3982 O 382.584 6.13465 -5.19534 0
M  V30 3983 H 382.316 0.662026 -0.136739 0
M  V30 3984 H 384.87 1.7777 -1.02893 0
M  V30 3985 H 383.1 3.83667 0.483337 0
M  V30 3986 H 384.789 4.05701 0.127099 0
M  V30 3987 H 385.555 4.24299 -2.34936 0
M  V30 3988 H 381.434 4.46591 -1.14358 0
M  V30 3989 H 384.978 5.34594 -4.48168 0
M  V30 3990 H 380.875 5.56719 -3.26702 0
M  V30 3991 H 381.643 6.31951 -5.20173 0
M  V30 3992 N 384.306 0.507319 1.49211 0
M  V30 3993 C 385.216 -0.272136 2.33016 0
M  V30 3994 C 386.232 -0.961206 1.45041 0
M  V30 3995 O 387.408 -0.941191 1.78055 0
M  V30 3996 C 384.473 -1.31895 3.20631 0
M  V30 3997 C 383.534 -0.642648 4.24463 0
M  V30 3998 C 382.767 -1.63959 5.07891 0
M  V30 3999 O 382.99 -2.87007 4.92933 0
M  V30 4000 O 381.924 -1.19143 5.8999 0
M  V30 4001 H 385.75 0.413982 3.00865 0
M  V30 4002 H 383.335 0.268556 1.46966 0
M  V30 4003 H 385.217 -1.92446 3.7489 0
M  V30 4004 H 383.892 -1.98788 2.5547 0
M  V30 4005 H 382.799 0.00276252 3.741 0
M  V30 4006 H 384.132 -0.0160534 4.92197 0
M  V30 4007 N 385.784 -1.5574 0.241426 0
M  V30 4008 C 387.03 -1.99104 -0.385406 0
M  V30 4009 C 387.363 -1.1293 -1.57988 0
M  V30 4010 O 386.638 -0.191449 -1.93555 0
M  V30 4011 C 386.921 -3.51087 -0.800616 0
M  V30 4012 C 386.774 -4.48028 0.398874 0
M  V30 4013 C 388.093 -4.08015 -1.64959 0
M  V30 4014 H 385.212 -0.723848 -0.138614 0
M  V30 4015 H 387.854 -1.86903 0.341642 0
M  V30 4016 H 386.004 -3.61615 -1.4201 0
M  V30 4017 H 387.676 -4.49487 1.03726 0
M  V30 4018 H 385.919 -4.21077 1.04293 0
M  V30 4019 H 386.59 -5.51962 0.0651056 0
M  V30 4020 H 389.066 -4.00555 -1.12672 0
M  V30 4021 H 387.942 -5.14635 -1.90898 0
M  V30 4022 H 388.203 -3.56131 -2.61961 0
M  V30 4023 N 387.262 0.0317525 -1.57568 0
M  V30 4024 C 388.511 0.722131 -1.8833 0
M  V30 4025 C 388.824 1.76664 -0.839587 0
M  V30 4026 O 390.03 2.50942 -1.03635 0
M  V30 4027 C 388.486 1.33544 -3.34207 0
M  V30 4028 C 388.094 0.327415 -4.46802 0
M  V30 4029 C 389.838 2.00585 -3.7412 0
M  V30 4030 C 387.745 0.948915 -5.83738 0
M  V30 4031 H 386.675 0.273466 -0.702661 0
M  V30 4032 H 389.326 -0.0235811 -1.83485 0
M  V30 4033 H 387.708 2.13077 -3.33788 0
M  V30 4034 H 388.882 -0.441006 -4.58685 0
M  V30 4035 H 387.197 -0.240758 -4.15703 0
M  V30 4036 H 389.794 2.47932 -4.73744 0
M  V30 4037 H 390.137 2.82285 -3.05975 0
M  V30 4038 H 390.67 1.27831 -3.76702 0
M  V30 4039 H 387.409 0.171387 -6.55276 0
M  V30 4040 H 386.929 1.68724 -5.7558 0
M  V30 4041 H 388.608 1.45705 -6.3038 0
M  V30 4042 N 388.74 1.54641 0.303973 0
M  V30 4043 C 389.989 1.7299 1.03717 0
M  V30 4044 C 390.302 0.521168 1.88529 0
M  V30 4045 O 391.508 0.586408 2.65092 0
M  V30 4046 C 389.964 3.06051 1.89369 0
M  V30 4047 C 389.572 4.34393 1.09574 0
M  V30 4048 C 391.316 3.3376 2.62306 0
M  V30 4049 C 389.223 5.58506 1.94486 0
M  V30 4050 H 388.153 0.64473 0.390947 0
M  V30 4051 H 390.804 1.81124 0.294328 0
M  V30 4052 H 389.186 2.91874 2.67629 0
M  V30 4053 H 390.36 4.59396 0.359485 0
M  V30 4054 H 388.675 4.13597 0.482324 0
M  V30 4055 H 391.272 4.23687 3.26181 0
M  V30 4056 H 391.615 2.52503 3.3098 0
M  V30 4057 H 392.148 3.48894 1.91097 0
M  V30 4058 H 388.887 6.42422 1.30287 0
M  V30 4059 H 388.407 5.37694 2.65792 0
M  V30 4060 H 390.086 5.95651 2.52605 0
M  V30 4061 N 390.218 -0.567019 1.47046 0
M  V30 4062 C 391.464 -1.32658 1.53394 0
M  V30 4063 C 391.797 -1.93254 0.19148 0
M  V30 4064 O 391.072 -1.77338 -0.798844 0
M  V30 4065 C 391.355 -2.44412 2.64452 0
M  V30 4066 C 391.208 -1.88749 4.08282 0
M  V30 4067 C 392.527 -3.46387 2.71485 0
M  V30 4068 H 389.646 -0.48098 0.558415 0
M  V30 4069 H 392.288 -0.635481 1.79058 0
M  V30 4070 H 390.438 -3.03363 2.427 0
M  V30 4071 H 392.11 -1.34134 4.41368 0
M  V30 4072 H 390.353 -1.19481 4.17021 0
M  V30 4073 H 391.024 -2.69491 4.81745 0
M  V30 4074 H 393.5 -2.9734 2.91081 0
M  V30 4075 H 392.376 -4.2202 3.50985 0
M  V30 4076 H 392.637 -4.04616 1.78153 0
M  V30 4077 N 391.696 -1.35014 -0.812953 0
M  V30 4078 C 393.112 -1.14914 -1.10757 0
M  V30 4079 C 393.312 0.0426818 -2.01455 0
M  V30 4080 O 392.368 0.715212 -2.42159 0
M  V30 4081 C 393.681 -2.44911 -1.74468 0
M  V30 4082 C 395.229 -2.5106 -1.86917 0
M  V30 4083 C 395.704 -3.81085 -2.54044 0
M  V30 4084 N 397.195 -3.82301 -2.61535 0
M  V30 4085 C 397.93 -4.79634 -3.14227 0
M  V30 4086 N 397.426 -5.87353 -3.67407 0
M  V30 4087 N 399.219 -4.67078 -3.12721 0
M  V30 4088 H 391.37 -2.1136 -0.20989 0
M  V30 4089 H 393.633 -0.935128 -0.155692 0
M  V30 4090 H 393.339 -3.32267 -1.15289 0
M  V30 4091 H 393.213 -2.58989 -2.74234 0
M  V30 4092 H 395.6 -1.64137 -2.45241 0
M  V30 4093 H 395.681 -2.40901 -0.860242 0
M  V30 4094 H 395.325 -4.68402 -1.96372 0
M  V30 4095 H 395.255 -3.88529 -3.55461 0
M  V30 4096 H 397.746 -3.04465 -2.23851 0
M  V30 4097 H 398.059 -6.57624 -4.05894 0
M  V30 4098 H 396.404 -5.91054 -3.65623 0
M  V30 4099 H 399.595 -3.82067 -2.70449 0
M  V30 4100 H 399.768 -5.43098 -3.53481 0
M  V30 4101 N 393.175 1.03435 -1.18907 0
M  V30 4102 C 394.421 1.77005 -0.989798 0
M  V30 4103 C 394.754 1.88205 0.478816 0
M  V30 4104 O 394.029 1.39481 1.35556 0
M  V30 4105 C 394.312 3.19925 -1.65287 0
M  V30 4106 C 394.165 3.1663 -3.19477 0
M  V30 4107 C 395.484 4.18189 -1.37134 0
M  V30 4108 H 392.603 0.642538 -0.360991 0
M  V30 4109 H 395.245 1.20784 -1.46667 0
M  V30 4110 H 393.395 3.67929 -1.24741 0
M  V30 4111 H 395.067 2.76567 -3.692 0
M  V30 4112 H 393.31 2.54491 -3.51307 0
M  V30 4113 H 393.981 4.1758 -3.61013 0
M  V30 4114 H 396.457 3.78761 -1.72276 0
M  V30 4115 H 395.333 5.16394 -1.86087 0
M  V30 4116 H 395.594 4.41112 -0.295424 0
M  V30 4117 N 394.653 0.992116 1.22453 0
M  V30 4118 C 395.563 0.55065 2.28046 0
M  V30 4119 C 396.579 -0.400189 1.69335 0
M  V30 4120 O 397.755 -0.267215 1.99619 0
M  V30 4121 C 394.82 -0.128496 3.46462 0
M  V30 4122 C 393.881 0.865208 4.20491 0
M  V30 4123 C 393.114 0.218377 5.33253 0
M  V30 4124 O 393.337 -0.987894 5.6178 0
M  V30 4125 O 392.271 0.922845 5.94783 0
M  V30 4126 H 396.097 1.4291 2.67975 0
M  V30 4127 H 393.682 0.760326 1.28606 0
M  V30 4128 H 395.564 -0.508947 4.18315 0
M  V30 4129 H 394.239 -0.981526 3.0846 0
M  V30 4130 H 393.146 1.29658 3.50913 0
M  V30 4131 H 394.479 1.68741 4.62371 0
M  V30 4132 N 396.131 -1.37776 0.765217 0
M  V30 4133 C 397.38 -1.99092 0.323307 0
M  V30 4134 C 397.693 -1.61434 -1.10446 0
M  V30 4135 O 398.899 -2.15805 -1.64743 0
M  V30 4136 C 397.355 -3.56019 0.527098 0
M  V30 4137 C 396.963 -4.0262 1.96471 0
M  V30 4138 C 398.707 -4.2424 0.148483 0
M  V30 4139 C 396.614 -5.52233 2.11644 0
M  V30 4140 H 395.544 -0.744846 0.117137 0
M  V30 4141 H 398.195 -1.57391 0.943417 0
M  V30 4142 H 396.577 -3.95667 -0.162372 0
M  V30 4143 H 397.751 -3.74234 2.68859 0
M  V30 4144 H 396.066 -3.47161 2.29931 0
M  V30 4145 H 398.663 -5.34159 0.240456 0
M  V30 4146 H 399.006 -4.06446 -0.900422 0
M  V30 4147 H 399.539 -3.89872 0.79025 0
M  V30 4148 H 396.278 -5.74945 3.1483 0
M  V30 4149 H 395.798 -5.82324 1.4373 0
M  V30 4150 H 397.477 -6.18106 1.91193 0
M  V30 4151 N 397.609 -0.515225 -1.4894 0
M  V30 4152 C 398.557 0.269115 -2.31038 0
M  V30 4153 C 399.551 0.949443 -1.40292 0
M  V30 4154 O 400.757 0.87551 -1.57273 0
M  V30 4155 H 397.132 0.10565 -0.744542 0
M  V30 4156 H 399.103 -0.443096 -2.95092 0
M  V30 4157 C 397.852 1.31213 -3.21991 0
M  V30 4158 H 397.175 0.798034 -3.91754 0
M  V30 4159 H 398.615 1.83263 -3.82349 0
M  V30 4160 C 397.074 2.33791 -2.42576 0
M  V30 4161 O 397.604 3.3995 -2.14003 0
M  V30 4162 N 395.81 2.06625 -2.0434 0
M  V30 4163 H 395.357 1.20314 -2.27777 0
M  V30 4164 H 395.315 2.75483 -1.51514 0
M  V30 4165 N 399.087 1.5561 -0.249682 0
M  V30 4166 C 400.335 1.98618 0.373548 0
M  V30 4167 C 400.656 1.13919 1.58264 0
M  V30 4168 O 399.926 0.222637 1.94631 0
M  V30 4169 H 398.506 0.733571 0.141006 0
M  V30 4170 H 401.168 1.91748 -0.349117 0
M  V30 4171 H 400.264 3.04584 0.680796 0
M  V30 4172 N 400.565 -0.0233959 1.57583 0
M  V30 4173 C 401.497 -1.04994 2.03737 0
M  V30 4174 C 402.51 -1.32125 0.951152 0
M  V30 4175 O 403.699 -1.29512 1.22837 0
M  V30 4176 C 400.799 -2.39026 2.40249 0
M  V30 4177 C 399.972 -2.31171 3.7132 0
M  V30 4178 C 399.031 -3.47698 3.94959 0
M  V30 4179 O 398.057 -3.26937 4.65941 0
M  V30 4180 N 399.259 -4.6976 3.41037 0
M  V30 4181 H 402.024 -0.656507 2.92421 0
M  V30 4182 H 399.585 -0.211235 1.60516 0
M  V30 4183 H 401.577 -3.15712 2.53196 0
M  V30 4184 H 400.147 -2.70194 1.57207 0
M  V30 4185 H 399.367 -1.39547 3.68674 0
M  V30 4186 H 400.655 -2.23071 4.57293 0
M  V30 4187 H 400.053 -4.89528 2.83512 0
M  V30 4188 H 398.61 -5.43791 3.59353 0
M  V30 4189 N 402.043 -1.548 -0.295768 0
M  V30 4190 C 403.32 -1.65014 -1.05023 0
M  V30 4191 C 403.7 -0.501805 -2.05049 0
M  V30 4192 O 403.048 0.500869 -2.22943 0
M  V30 4193 C 403.258 -3.03252 -1.72741 0
M  V30 4194 C 404.606 -3.60242 -2.24746 0
M  V30 4195 O 405.63 -3.05737 -1.82765 0
M  V30 4196 O 404.489 -4.55687 -3.01681 0
M  V30 4197 H 401.583 -0.669314 -0.485744 0
M  V30 4198 H 404.129 -1.67144 -0.293438 0
M  V30 4199 H 402.901 -3.7827 -1.00138 0
M  V30 4200 H 402.524 -3.04922 -2.55163 0
M  V30 4201 N 403.521 0.559213 -1.47345 0
M  V30 4202 C 404.451 1.67622 -1.62558 0
M  V30 4203 C 405.432 1.63331 -0.475087 0
M  V30 4204 O 406.617 1.80983 -0.704182 0
M  V30 4205 C 403.747 3.0626 -1.63774 0
M  V30 4206 C 402.701 3.25397 -2.7803 0
M  V30 4207 C 402.027 4.64801 -2.64318 0
M  V30 4208 C 403.327 3.10965 -4.19641 0
M  V30 4209 H 405.021 1.55146 -2.56067 0
M  V30 4210 H 402.567 0.744961 -1.23233 0
M  V30 4211 H 404.52 3.84247 -1.73008 0
M  V30 4212 H 403.244 3.1969 -0.66825 0
M  V30 4213 H 401.903 2.49817 -2.68304 0
M  V30 4214 H 401.551 4.75028 -1.65401 0
M  V30 4215 H 401.251 4.78555 -3.40968 0
M  V30 4216 H 402.775 5.44926 -2.75478 0
M  V30 4217 H 404.189 3.78772 -4.30354 0
M  V30 4218 H 402.586 3.36229 -4.97062 0
M  V30 4219 H 403.656 2.07736 -4.38148 0
M  V30 4220 N 404.999 1.35443 0.805782 0
M  V30 4221 C 405.946 1.28431 1.91766 0
M  V30 4222 C 406.916 0.156102 1.65365 0
M  V30 4223 O 408.101 0.339936 1.87747 0
M  V30 4224 C 405.241 1.06301 3.2832 0
M  V30 4225 C 404.354 2.2805 3.66902 0
M  V30 4226 C 403.489 1.99064 4.92491 0
M  V30 4227 C 402.528 3.16863 5.23703 0
M  V30 4228 N 401.665 2.87647 6.40471 0
M  V30 4229 H 406.505 2.23511 1.97096 0
M  V30 4230 H 404.042 1.11105 0.964054 0
M  V30 4231 H 406 0.915012 4.07042 0
M  V30 4232 H 404.63 0.148822 3.22457 0
M  V30 4233 H 403.682 2.53711 2.83434 0
M  V30 4234 H 404.994 3.1601 3.85927 0
M  V30 4235 H 404.148 1.81099 5.7904 0
M  V30 4236 H 402.887 1.0839 4.75503 0
M  V30 4237 H 401.892 3.35404 4.35642 0
M  V30 4238 H 403.117 4.08339 5.4262 0
M  V30 4239 H 401.063 1.99568 6.24907 0
M  V30 4240 H 400.98 3.69141 6.59751 0
M  V30 4241 H 402.248 2.73226 7.30047 0
M  V30 4242 N 406.477 -1.02803 1.19454 0
M  V30 4243 C 407.41 -2.107 0.876396 0
M  V30 4244 C 408.388 -1.61741 -0.166897 0
M  V30 4245 O 409.572 -1.88451 -0.0430195 0
M  V30 4246 C 406.699 -3.37262 0.311758 0
M  V30 4247 C 405.745 -4.05093 1.33424 0
M  V30 4248 S 406.578 -4.50498 2.89503 0
M  V30 4249 C 407.734 -5.80277 2.34584 0
M  V30 4250 H 407.967 -2.37362 1.79016 0
M  V30 4251 H 405.5 -1.15755 1.02177 0
M  V30 4252 H 407.458 -4.10499 -0.00748752 0
M  V30 4253 H 406.119 -3.08693 -0.58032 0
M  V30 4254 H 405.312 -4.9611 0.888302 0
M  V30 4255 H 404.914 -3.3803 1.60037 0
M  V30 4256 H 407.206 -6.54873 1.73633 0
M  V30 4257 H 408.149 -6.29651 3.23952 0
M  V30 4258 H 408.557 -5.3599 1.77131 0
M  V30 4259 N 407.956 -0.998596 -1.21925 0
M  V30 4260 C 409.233 -0.593401 -1.86382 0
M  V30 4261 C 409.613 0.92916 -1.89552 0
M  V30 4262 O 408.961 1.81347 -1.39017 0
M  V30 4263 C 409.171 -1.22039 -3.26967 0
M  V30 4264 C 410.519 -1.32449 -4.03413 0
M  V30 4265 O 411.543 -1.17522 -3.36254 0
M  V30 4266 O 410.402 -1.56395 -5.23644 0
M  V30 4267 H 407.496 -0.202385 -0.801854 0
M  V30 4268 H 410.042 -1.09484 -1.29659 0
M  V30 4269 H 408.814 -2.26158 -3.19325 0
M  V30 4270 H 408.437 -0.704906 -3.91301 0
M  V30 4271 N 409.434 1.37368 -0.772513 0
M  V30 4272 C 410.674 2.01512 -0.342361 0
M  V30 4273 C 411.038 1.59997 1.06136 0
M  V30 4274 O 412.239 2.16609 1.59167 0
M  V30 4275 C 410.51 3.54134 -0.482048 0
M  V30 4276 S 412.069 4.38585 -0.137272 0
M  V30 4277 H 408.887 0.698699 -0.131686 0
M  V30 4278 H 411.489 1.67552 -1.0073 0
M  V30 4279 H 410.193 3.81837 -1.50428 0
M  V30 4280 H 409.724 3.92894 0.199413 0
M  V30 4281 H 411.739 4.84594 1.06692 0
M  V30 4282 N 410.912 0.523116 1.48665 0
M  V30 4283 C 411.859 -0.243398 2.29513 0
M  V30 4284 C 412.829 -0.940139 1.36933 0
M  V30 4285 O 414.014 -0.942503 1.65896 0
M  V30 4286 C 411.154 -1.28855 3.20141 0
M  V30 4287 C 410.267 -0.60135 4.27794 0
M  V30 4288 C 409.402 -1.62884 5.05611 0
M  V30 4289 C 408.441 -0.924726 6.05075 0
M  V30 4290 N 407.578 -1.89744 6.75975 0
M  V30 4291 H 412.418 0.452234 2.94549 0
M  V30 4292 H 409.955 0.234858 1.45213 0
M  V30 4293 H 411.913 -1.90674 3.71079 0
M  V30 4294 H 410.543 -1.95266 2.57043 0
M  V30 4295 H 409.595 0.130623 3.80176 0
M  V30 4296 H 410.907 -0.0481585 4.98777 0
M  V30 4297 H 410.061 -2.32149 5.60528 0
M  V30 4298 H 408.8 -2.21592 4.34452 0
M  V30 4299 H 407.805 -0.217966 5.49368 0
M  V30 4300 H 409.03 -0.343851 6.78229 0
M  V30 4301 H 406.976 -2.47373 6.07571 0
M  V30 4302 H 406.893 -1.3955 7.43009 0
M  V30 4303 H 408.161 -2.58229 7.35485 0
M  V30 4304 N 412.39 -1.55475 0.257931 0
M  V30 4305 C 413.3 -2.2549 -0.647425 0
M  V30 4306 C 414.316 -1.2748 -1.18427 0
M  V30 4307 O 415.492 -1.6038 -1.2182 0
M  V30 4308 C 412.557 -2.94916 -1.82278 0
M  V30 4309 C 411.618 -4.08363 -1.32432 0
M  V30 4310 C 410.851 -4.74469 -2.44366 0
M  V30 4311 O 411.074 -4.39701 -3.63344 0
M  V30 4312 O 410.008 -5.62763 -2.13497 0
M  V30 4313 H 413.834 -3.03593 -0.0807707 0
M  V30 4314 H 411.419 -1.49377 0.0259962 0
M  V30 4315 H 413.301 -3.38606 -2.50846 0
M  V30 4316 H 411.976 -2.19744 -2.37685 0
M  V30 4317 H 410.883 -3.69166 -0.605605 0
M  V30 4318 H 412.216 -4.85385 -0.816211 0
M  V30 4319 N 413.868 0.0150385 -1.57593 0
M  V30 4320 C 415.098 0.713359 -1.93894 0
M  V30 4321 C 415.506 1.68663 -0.857289 0
M  V30 4322 O 414.849 1.82876 0.173788 0
M  V30 4323 C 414.911 1.51348 -3.26089 0
M  V30 4324 C 414.575 0.703451 -4.51554 0
M  V30 4325 C 415.572 -0.00237924 -5.199 0
M  V30 4326 C 413.257 0.653854 -4.98026 0
M  V30 4327 C 415.251 -0.746955 -6.33008 0
M  V30 4328 C 412.938 -0.0944578 -6.11027 0
M  V30 4329 C 413.936 -0.793609 -6.78374 0
M  V30 4330 O 413.624 -1.52974 -7.89211 0
M  V30 4331 H 413.356 0.204637 -0.644282 0
M  V30 4332 H 415.91 -0.0276411 -2.05381 0
M  V30 4333 H 414.14 2.29862 -3.10967 0
M  V30 4334 H 415.829 2.09572 -3.47612 0
M  V30 4335 H 416.595 0.0268803 -4.84993 0
M  V30 4336 H 412.474 1.18756 -4.45441 0
M  V30 4337 H 416.018 -1.2932 -6.85509 0
M  V30 4338 H 411.915 -0.125591 -6.45378 0
M  V30 4339 H 412.683 -1.44488 -8.05646 0
M  V30 4340 N 415.346 1.54954 0.287554 0
M  V30 4341 C 416.294 1.87606 1.37502 0
M  V30 4342 C 417.288 0.751001 1.51843 0
M  V30 4343 O 418.494 0.935169 1.53801 0
M  V30 4344 H 414.869 0.595231 0.459569 0
M  V30 4345 H 416.84 2.78477 1.07206 0
M  V30 4346 C 415.589 2.15183 2.73115 0
M  V30 4347 H 414.912 3.01234 2.62866 0
M  V30 4348 H 416.352 2.4196 3.48183 0
M  V30 4349 C 414.811 0.954686 3.2309 0
M  V30 4350 O 415.341 0.181949 4.01288 0
M  V30 4351 N 413.547 0.756368 2.80584 0
M  V30 4352 H 413.094 1.38643 2.17108 0
M  V30 4353 H 413.052 -0.0430391 3.14371 0
M  V30 4354 N 416.824 -0.551391 1.4764 0
M  V30 4355 C 418.054 -1.33163 1.57959 0
M  V30 4356 C 418.462 -1.87785 0.23094 0
M  V30 4357 O 417.805 -1.65996 -0.786825 0
M  V30 4358 C 417.867 -2.53449 2.54958 0
M  V30 4359 C 417.531 -2.20071 4.00522 0
M  V30 4360 C 418.528 -1.77017 4.88836 0
M  V30 4361 C 416.213 -2.31252 4.45901 0
M  V30 4362 C 418.207 -1.4558 6.20552 0
M  V30 4363 C 415.894 -1.99427 5.77644 0
M  V30 4364 C 416.892 -1.56659 6.64791 0
M  V30 4365 O 416.58 -1.25242 7.94084 0
M  V30 4366 H 416.312 -0.412022 0.535923 0
M  V30 4367 H 418.866 -0.674186 1.9402 0
M  V30 4368 H 417.096 -3.22104 2.13976 0
M  V30 4369 H 418.785 -3.15523 2.55343 0
M  V30 4370 H 419.551 -1.67867 4.55023 0
M  V30 4371 H 415.43 -2.63498 3.78272 0
M  V30 4372 H 418.974 -1.12125 6.8853 0
M  V30 4373 H 414.871 -2.08211 6.10998 0
M  V30 4374 H 415.639 -1.38822 8.06642 0
M  V30 4375 N 418.302 -1.35869 -0.798587 0
M  V30 4376 C 419.579 -1.20145 -1.54352 0
M  V30 4377 C 419.959 0.216161 -2.0999 0
M  V30 4378 O 419.307 1.22068 -1.93162 0
M  V30 4379 C 419.517 -2.27602 -2.64572 0
M  V30 4380 C 420.865 -2.63811 -3.32699 0
M  V30 4381 O 421.889 -2.26576 -2.74849 0
M  V30 4382 O 420.748 -3.27866 -4.37226 0
M  V30 4383 H 417.842 -0.467248 -0.682355 0
M  V30 4384 H 420.388 -1.47574 -0.837859 0
M  V30 4385 H 419.16 -3.2265 -2.21388 0
M  V30 4386 H 418.783 -2.01488 -3.42766 0
M  V30 4387 N 419.78 1.02168 -1.19998 0
M  V30 4388 C 420.727 2.10601 -0.944228 0
M  V30 4389 C 421.697 1.65639 0.123664 0
M  V30 4390 O 422.882 1.9079 -0.0199941 0
M  V30 4391 C 420.022 3.41504 -0.496865 0
M  V30 4392 C 419.135 3.99973 -1.63234 0
M  V30 4393 C 418.27 5.18915 -1.13579 0
M  V30 4394 C 417.309 5.69456 -2.24468 0
M  V30 4395 N 416.446 6.79665 -1.76068 0
M  V30 4396 H 421.286 2.31814 -1.8726 0
M  V30 4397 H 418.823 1.13686 -0.933483 0
M  V30 4398 H 420.781 4.16626 -0.218843 0
M  V30 4399 H 419.411 3.2038 0.394508 0
M  V30 4400 H 418.463 3.21997 -2.0254 0
M  V30 4401 H 419.775 4.33492 -2.46752 0
M  V30 4402 H 418.929 6.01222 -0.813429 0
M  V30 4403 H 417.668 4.8695 -0.270434 0
M  V30 4404 H 416.673 4.85757 -2.57526 0
M  V30 4405 H 417.898 6.03459 -3.11472 0
M  V30 4406 H 415.844 6.49538 -0.918516 0
M  V30 4407 H 415.761 7.12349 -2.5317 0
M  V30 4408 H 417.029 7.65549 -1.46817 0
M  V30 4409 N 421.258 1.00505 1.21394 0
M  V30 4410 C 422.483 0.706367 1.95001 0
M  V30 4411 C 422.908 -0.72463 1.73582 0
M  V30 4412 O 422.266 -1.49702 1.0227 0
M  V30 4413 C 422.314 1.03299 3.45487 0
M  V30 4414 O 421.418 0.138275 4.12168 0
M  V30 4415 H 420.759 0.263175 0.609619 0
M  V30 4416 H 423.289 1.34531 1.54151 0
M  V30 4417 H 423.299 0.979872 3.96059 0
M  V30 4418 H 421.974 2.07567 3.60401 0
M  V30 4419 H 420.551 0.247928 3.72075 0
M  V30 4420 N 422.737 -1.36956 0.779787 0
M  V30 4421 C 423.986 -1.98738 0.344405 0
M  V30 4422 C 424.299 -1.62596 -1.08728 0
M  V30 4423 O 425.505 -2.1754 -1.62445 0
M  V30 4424 C 423.961 -3.5544 0.564829 0
M  V30 4425 C 423.569 -4.00514 2.0073 0
M  V30 4426 C 425.313 -4.24059 0.193471 0
M  V30 4427 C 423.22 -5.49957 2.17489 0
M  V30 4428 H 422.15 -0.743561 0.12503 0
M  V30 4429 H 424.801 -1.56381 0.960057 0
M  V30 4430 H 423.183 -3.95817 -0.120397 0
M  V30 4431 H 424.357 -3.71362 2.72814 0
M  V30 4432 H 422.672 -3.44703 2.336 0
M  V30 4433 H 425.269 -5.33874 0.297097 0
M  V30 4434 H 425.612 -4.07378 -0.857263 0
M  V30 4435 H 426.145 -3.89012 0.831556 0
M  V30 4436 H 422.884 -5.71574 3.2091 0
M  V30 4437 H 422.404 -5.80767 1.49899 0
M  V30 4438 H 424.083 -6.16043 1.97738 0
M  V30 4439 N 424.215 -0.530993 -1.48385 0
M  V30 4440 C 425.461 0.00274135 -2.028 0
M  V30 4441 C 425.794 1.33838 -1.40716 0
M  V30 4442 O 425.069 1.86465 -0.553277 0
M  V30 4443 C 425.352 0.123676 -3.59888 0
M  V30 4444 C 425.205 -1.2372 -4.3245 0
M  V30 4445 C 426.524 0.849967 -4.31814 0
M  V30 4446 H 423.643 -0.000477758 -0.737 0
M  V30 4447 H 426.285 -0.688217 -1.77098 0
M  V30 4448 H 424.435 0.712157 -3.81917 0
M  V30 4449 H 426.107 -1.86687 -4.21836 0
M  V30 4450 H 424.35 -1.81882 -3.93829 0
M  V30 4451 H 425.021 -1.10557 -5.40815 0
M  V30 4452 H 427.497 0.350572 -4.14621 0
M  V30 4453 H 426.373 0.903486 -5.41413 0
M  V30 4454 H 426.634 1.90047 -3.99167 0
M  V30 4455 N 425.693 1.55336 -0.266172 0
M  V30 4456 C 426.97 1.91372 0.404486 0
M  V30 4457 C 427.35 1.18935 1.74407 0
M  V30 4458 O 426.698 0.3132 2.26343 0
M  V30 4459 C 426.908 3.44581 0.553593 0
M  V30 4460 C 428.256 4.16196 0.840618 0
M  V30 4461 O 429.28 3.50426 0.638739 0
M  V30 4462 O 428.139 5.32567 1.22618 0
M  V30 4463 H 425.233 0.797194 0.220025 0
M  V30 4464 H 427.779 1.66813 -0.311664 0
M  V30 4465 H 426.551 3.89357 -0.389498 0
M  V30 4466 H 426.174 3.75065 1.31955 0
M  V30 4467 N 427.171 -0.0066808 1.57599 0
M  V30 4468 C 428.396 -0.707738 1.94951 0
M  V30 4469 C 428.821 -1.66882 0.867868 0
M  V30 4470 O 428.179 -1.80457 -0.17458 0
M  V30 4471 C 428.227 -1.42162 3.31394 0
M  V30 4472 O 427.331 -2.53578 3.25226 0
M  V30 4473 H 426.672 -0.188752 0.636607 0
M  V30 4474 H 429.202 0.0445193 2.04552 0
M  V30 4475 H 429.212 -1.78655 3.66806 0
M  V30 4476 H 427.887 -0.716903 4.09675 0
M  V30 4477 H 426.464 -2.19463 3.01481 0
M  V30 4478 N 428.649 -1.55105 -0.279332 0
M  V30 4479 C 429.897 -1.75066 -1.00977 0
M  V30 4480 C 430.218 -0.551276 -1.87045 0
M  V30 4481 O 429.488 0.433984 -1.91032 0
M  V30 4482 H 428.068 -0.645578 -0.375816 0
M  V30 4483 H 430.73 -1.92497 -0.305089 0
M  V30 4484 H 429.826 -2.64894 -1.65038 0
M  V30 4485 N 430.127 0.543554 -1.4793 0
M  V30 4486 C 431.355 1.32516 -1.58894 0
M  V30 4487 C 431.77 1.87215 -0.244131 0
M  V30 4488 O 431.127 1.65709 0.764652 0
M  V30 4489 C 431.178 2.48554 -2.62494 0
M  V30 4490 O 430.899 1.96112 -3.91755 0
M  V30 4491 C 432.4 3.40572 -2.8377 0
M  V30 4492 H 429.62 0.403472 -0.536145 0
M  V30 4493 H 432.164 0.657106 -1.93655 0
M  V30 4494 H 430.319 3.1127 -2.30629 0
M  V30 4495 H 430.733 2.71967 -4.4848 0
M  V30 4496 H 432.207 4.18375 -3.60093 0
M  V30 4497 H 432.684 3.94965 -1.92092 0
M  V30 4498 H 433.29 2.8366 -3.16887 0
M  V30 4499 N 431.605 1.3629 0.791371 0
M  V30 4500 C 432.833 1.33562 1.58016 0
M  V30 4501 C 433.248 -0.0835616 1.88615 0
M  V30 4502 O 432.605 -1.0399 1.49974 0
M  V30 4503 C 432.656 2.15517 2.90232 0
M  V30 4504 O 432.377 3.51902 2.60953 0
M  V30 4505 C 433.878 2.20546 3.84544 0
M  V30 4506 H 431.098 0.458226 0.490173 0
M  V30 4507 H 433.642 1.79361 0.982345 0
M  V30 4508 H 431.797 1.73278 3.46487 0
M  V30 4509 H 432.211 3.94644 3.4548 0
M  V30 4510 H 433.685 2.82252 4.74382 0
M  V30 4511 H 434.162 1.20838 4.2225 0
M  V30 4512 H 434.768 2.63013 3.34222 0
M  V30 4513 N 433.083 -1.0153 1.20538 0
M  V30 4514 C 434.031 -2.12215 0.952235 0
M  V30 4515 C 435.025 -1.69123 -0.0968735 0
M  V30 4516 O 436.231 -1.7992 0.0536006 0
M  V30 4517 H 432.606 -0.693576 0.290613 0
M  V30 4518 H 434.577 -2.3075 1.89201 0
M  V30 4519 C 433.326 -3.43755 0.522287 0
M  V30 4520 H 432.649 -3.7734 1.32115 0
M  V30 4521 H 434.089 -4.22254 0.384389 0
M  V30 4522 C 432.548 -3.28088 -0.765489 0
M  V30 4523 O 433.078 -3.57921 -1.8236 0
M  V30 4524 N 431.284 -2.81333 -0.728011 0
M  V30 4525 H 430.831 -2.57255 0.133332 0
M  V30 4526 H 430.789 -2.71232 -1.58999 0
M  V30 4527 N 434.561 -1.01147 -1.20859 0
M  V30 4528 C 435.491 -0.597663 -2.25722 0
M  V30 4529 C 436.472 0.384744 -1.65692 0
M  V30 4530 O 437.657 0.271303 -1.92296 0
M  V30 4531 C 434.787 0.0700149 -3.47229 0
M  V30 4532 C 433.741 -0.832843 -4.19819 0
M  V30 4533 C 433.067 -0.0312202 -5.34691 0
M  V30 4534 C 434.367 -2.1385 -4.76514 0
M  V30 4535 H 436.061 -1.47423 -2.60589 0
M  V30 4536 H 433.607 -0.710301 -1.25263 0
M  V30 4537 H 435.56 0.37103 -4.19763 0
M  V30 4538 H 434.284 0.981259 -3.11511 0
M  V30 4539 H 432.943 -1.11778 -3.49144 0
M  V30 4540 H 432.591 0.881515 -4.95215 0
M  V30 4541 H 432.291 -0.632434 -5.84187 0
M  V30 4542 H 433.815 0.26346 -6.10031 0
M  V30 4543 H 435.229 -1.9002 -5.40893 0
M  V30 4544 H 433.626 -2.69012 -5.36426 0
M  V30 4545 H 434.696 -2.80495 -3.95538 0
M  V30 4546 N 436.039 1.36541 -0.78704 0
M  V30 4547 C 437.455 1.52571 -0.46844 0
M  V30 4548 C 437.655 1.7415 1.01361 0
M  V30 4549 O 436.711 1.77163 1.79915 0
M  V30 4550 C 438.024 2.71299 -1.29682 0
M  V30 4551 C 439.572 2.85169 -1.29027 0
M  V30 4552 C 440.047 4.06898 -2.10233 0
M  V30 4553 N 441.538 4.1404 -2.07666 0
M  V30 4554 C 442.273 5.07301 -2.67271 0
M  V30 4555 N 441.769 6.06021 -3.35724 0
M  V30 4556 N 443.562 4.99898 -2.57018 0
M  V30 4557 H 435.713 1.20788 -1.74711 0
M  V30 4558 H 437.976 0.589364 -0.742532 0
M  V30 4559 H 437.682 2.61868 -2.34773 0
M  V30 4560 H 437.556 3.6539 -0.936479 0
M  V30 4561 H 439.943 2.94062 -0.247284 0
M  V30 4562 H 440.024 1.91992 -1.69035 0
M  V30 4563 H 439.668 3.98766 -3.1456 0
M  V30 4564 H 439.598 4.99218 -1.67597 0
M  V30 4565 H 442.089 3.43357 -1.57843 0
M  V30 4566 H 442.402 6.73741 -3.78541 0
M  V30 4567 H 440.747 6.06253 -3.39826 0
M  V30 4568 H 443.938 4.21724 -2.03142 0
M  V30 4569 H 444.111 5.72392 -3.03761 0
M  V30 4570 N 437.518 0.538854 1.48102 0
M  V30 4571 C 438.448 -0.207654 2.32575 0
M  V30 4572 C 439.429 -0.926559 1.4265 0
M  V30 4573 O 440.614 -0.91061 1.71527 0
M  V30 4574 C 437.744 -1.24957 3.24042 0
M  V30 4575 C 436.698 -0.648263 4.23062 0
M  V30 4576 C 436.024 -1.79348 5.03725 0
M  V30 4577 C 437.324 0.385897 5.20872 0
M  V30 4578 H 439.018 0.497534 2.95237 0
M  V30 4579 H 436.564 0.240715 1.41974 0
M  V30 4580 H 438.517 -1.77983 3.81969 0
M  V30 4581 H 437.241 -1.98446 2.59397 0
M  V30 4582 H 435.9 -0.139452 3.66335 0
M  V30 4583 H 435.548 -2.51696 4.35498 0
M  V30 4584 H 435.248 -1.39702 5.70751 0
M  V30 4585 H 436.772 -2.32735 5.64506 0
M  V30 4586 H 438.186 -0.057607 5.73271 0
M  V30 4587 H 436.583 0.700227 5.96001 0
M  V30 4588 H 437.653 1.28848 4.67468 0
M  V30 4589 N 438.996 -1.55193 0.274407 0
M  V30 4590 C 440.407 -1.85358 -0.223488 0
M  V30 4591 C 440.758 -1.19642 -1.555 0
M  V30 4592 O 439.883 -0.484498 -2.10907 0
M  V30 4593 C 440.478 -3.36282 -0.412285 0
M  V30 4594 C 439.037 -3.66574 -0.854413 0
M  V30 4595 C 438.184 -2.7725 0.0527056 0
M  V30 4596 H 441.135 -1.50743 0.496215 0
M  V30 4597 H 441.156 -3.59349 -1.25094 0
M  V30 4598 H 440.668 -3.84083 0.556965 0
M  V30 4599 H 438.769 -3.24273 -1.83516 0
M  V30 4600 H 438.882 -4.74073 -0.692226 0
M  V30 4601 H 437.246 -2.50447 -0.463484 0
M  V30 4602 H 438.029 -3.27865 1.01783 0
M  V30 4603 N 440.474 -0.00167713 -1.576 0
M  V30 4604 C 441.421 0.989195 -2.08527 0
M  V30 4605 C 442.391 1.34031 -0.981065 0
M  V30 4606 O 443.576 1.43839 -1.2536 0
M  V30 4607 C 440.716 2.27537 -2.59463 0
M  V30 4608 C 439.829 1.98314 -3.83791 0
M  V30 4609 C 438.964 3.21025 -4.23222 0
M  V30 4610 C 438.003 2.87495 -5.40382 0
M  V30 4611 N 437.14 4.02749 -5.75098 0
M  V30 4612 H 441.98 0.547973 -2.92919 0
M  V30 4613 H 439.517 0.258917 -1.44803 0
M  V30 4614 H 441.475 3.02729 -2.87073 0
M  V30 4615 H 440.105 2.69325 -1.77943 0
M  V30 4616 H 439.157 1.13482 -3.63078 0
M  V30 4617 H 440.469 1.69601 -4.69081 0
M  V30 4618 H 439.623 4.04561 -4.52123 0
M  V30 4619 H 438.362 3.52877 -3.36644 0
M  V30 4620 H 437.367 2.02367 -5.11202 0
M  V30 4621 H 438.592 2.56889 -6.28637 0
M  V30 4622 H 436.538 4.34494 -4.91478 0
M  V30 4623 H 436.455 3.77566 -6.54966 0
M  V30 4624 H 437.723 4.87068 -6.08592 0
M  V30 4625 N 441.952 1.55251 0.271103 0
M  V30 4626 C 442.899 1.88261 1.33516 0
M  V30 4627 C 443.869 0.734296 1.48988 0
M  V30 4628 O 445.054 0.985741 1.63364 0
M  V30 4629 C 442.194 2.16168 2.69008 0
M  V30 4630 C 441.307 3.43678 2.61743 0
M  V30 4631 C 440.442 3.61276 3.89427 0
M  V30 4632 C 439.481 4.82472 3.7668 0
M  V30 4633 N 438.618 4.96717 4.96202 0
M  V30 4634 H 443.458 2.79015 1.04665 0
M  V30 4635 H 440.995 1.38137 0.505618 0
M  V30 4636 H 442.953 2.30349 3.47844 0
M  V30 4637 H 441.583 1.28646 2.96057 0
M  V30 4638 H 440.635 3.37959 1.74607 0
M  V30 4639 H 441.947 4.3265 2.48224 0
M  V30 4640 H 441.101 3.75284 4.76704 0
M  V30 4641 H 439.84 2.70492 4.05814 0
M  V30 4642 H 438.845 4.68465 2.87786 0
M  V30 4643 H 440.07 5.74692 3.61809 0
M  V30 4644 H 438.016 4.08865 5.12997 0
M  V30 4645 H 437.933 5.79738 4.85222 0
M  V30 4646 H 439.201 5.15113 5.85046 0
M  V30 4647 N 443.43 -0.535701 1.48216 0
M  V30 4648 C 444.676 -1.29375 1.56173 0
M  V30 4649 C 445.009 -1.92804 0.232429 0
M  V30 4650 O 444.284 -1.78992 -0.761048 0
M  V30 4651 C 444.567 -2.38747 2.69577 0
M  V30 4652 C 444.42 -1.80046 4.12193 0
M  V30 4653 C 445.739 -3.40551 2.78771 0
M  V30 4654 H 442.858 -0.469027 0.568491 0
M  V30 4655 H 445.5 -0.597358 1.80365 0
M  V30 4656 H 443.65 -2.98147 2.4908 0
M  V30 4657 H 445.322 -1.24742 4.44114 0
M  V30 4658 H 443.565 -1.10609 4.19462 0
M  V30 4659 H 444.236 -2.59212 4.87353 0
M  V30 4660 H 446.712 -2.91099 2.97322 0
M  V30 4661 H 445.588 -4.1448 3.59857 0
M  V30 4662 H 445.849 -4.00746 1.86696 0
M  V30 4663 N 444.908 -1.36708 -0.784132 0
M  V30 4664 C 446.155 -1.31231 -1.54222 0
M  V30 4665 C 446.483 0.106864 -1.94206 0
M  V30 4666 O 445.738 1.07734 -1.63376 0
M  V30 4667 C 446.037 -2.18571 -2.82774 0
M  V30 4668 C 445.703 -3.67039 -2.61903 0
M  V30 4669 C 444.365 -4.07503 -2.55919 0
M  V30 4670 C 446.717 -4.61149 -2.4288 0
M  V30 4671 C 444.045 -5.40211 -2.28886 0
M  V30 4672 C 446.397 -5.94081 -2.17373 0
M  V30 4673 C 445.061 -6.33664 -2.09825 0
M  V30 4674 H 444.331 -0.48021 -0.56434 0
M  V30 4675 H 446.978 -1.68807 -0.904233 0
M  V30 4676 H 445.283 -1.73949 -3.51068 0
M  V30 4677 H 446.98 -2.11655 -3.40592 0
M  V30 4678 H 443.57 -3.34941 -2.67418 0
M  V30 4679 H 447.754 -4.30756 -2.46501 0
M  V30 4680 H 443.01 -5.69855 -2.21529 0
M  V30 4681 H 447.184 -6.66566 -2.01649 0
M  V30 4682 H 444.811 -7.36423 -1.88641 0
M  V30 4683 N 446.386 1.0089 -1.21074 0
M  V30 4684 C 447.296 2.13039 -0.982425 0
M  V30 4685 C 448.312 1.73881 0.0642161 0
M  V30 4686 O 449.488 2.01012 -0.12496 0
M  V30 4687 C 446.553 3.42377 -0.545803 0
M  V30 4688 C 445.614 3.95731 -1.6642 0
M  V30 4689 C 444.847 5.18896 -1.24832 0
M  V30 4690 O 445.07 5.70273 -0.120265 0
M  V30 4691 O 444.004 5.65597 -2.05873 0
M  V30 4692 H 447.83 2.35175 -1.92163 0
M  V30 4693 H 445.415 1.1142 -0.995285 0
M  V30 4694 H 447.297 4.20244 -0.311912 0
M  V30 4695 H 445.972 3.21639 0.364727 0
M  V30 4696 H 444.879 3.19108 -1.95246 0
M  V30 4697 H 446.212 4.20872 -2.55201 0
M  V30 4698 N 447.864 1.01787 1.20321 0
M  V30 4699 C 448.827 0.593972 2.2137 0
M  V30 4700 C 449.827 -0.336553 1.57239 0
M  V30 4701 O 451.017 -0.125069 1.7375 0
M  V30 4702 C 448.149 -0.132433 3.40643 0
M  V30 4703 H 449.342 1.48791 2.60387 0
M  V30 4704 H 446.895 0.807803 1.33807 0
M  V30 4705 H 447.63 -1.04123 3.0713 0
M  V30 4706 H 447.415 0.53605 3.88418 0
M  V30 4707 H 448.905 -0.416314 4.1552 0
M  V30 4708 N 449.342 -1.36122 0.79427 0
M  V30 4709 C 450.305 -2.28309 0.201889 0
M  V30 4710 C 451.305 -1.49041 -0.603603 0
M  V30 4711 O 452.495 -1.68964 -0.423888 0
M  V30 4712 C 449.627 -3.3321 -0.719978 0
M  V30 4713 H 450.82 -2.82208 1.01481 0
M  V30 4714 H 448.373 -1.45768 0.564037 0
M  V30 4715 H 449.108 -2.84475 -1.55706 0
M  V30 4716 H 448.893 -3.91835 -0.144266 0
M  V30 4717 H 450.383 -4.02044 -1.12916 0
M  V30 4718 N 450.82 -0.546701 -1.47814 0
M  V30 4719 C 452.066 -0.0187684 -2.02791 0
M  V30 4720 C 452.399 1.32338 -1.42128 0
M  V30 4721 O 451.674 1.85867 -0.573023 0
M  V30 4722 C 451.957 0.0854985 -3.59998 0
M  V30 4723 C 451.81 -1.283 -4.31114 0
M  V30 4724 C 453.129 0.80412 -4.32691 0
M  V30 4725 H 450.248 -0.0082946 -0.736953 0
M  V30 4726 H 452.89 -0.706962 -1.76358 0
M  V30 4727 H 451.04 0.671609 -3.82651 0
M  V30 4728 H 452.712 -1.91151 -4.19832 0
M  V30 4729 H 450.955 -1.86049 -3.91878 0
M  V30 4730 H 451.626 -1.16287 -5.39612 0
M  V30 4731 H 454.102 0.306576 -4.14969 0
M  V30 4732 H 452.978 0.846011 -5.42341 0
M  V30 4733 H 453.239 1.85802 -4.01161 0
M  V30 4734 N 452.299 1.55045 -0.282633 0
M  V30 4735 C 453.246 2.22822 0.601566 0
M  V30 4736 C 454.216 1.20431 1.14392 0
M  V30 4737 O 455.401 1.48996 1.19184 0
M  V30 4738 C 452.541 2.95873 1.77632 0
M  V30 4739 C 451.654 4.12999 1.26711 0
M  V30 4740 C 450.789 4.73676 2.40426 0
M  V30 4741 C 449.828 5.82981 1.86545 0
M  V30 4742 N 448.965 6.3769 2.93762 0
M  V30 4743 H 453.805 2.97995 0.0169528 0
M  V30 4744 H 451.342 1.471 -0.00339964 0
M  V30 4745 H 453.3 3.36447 2.46697 0
M  V30 4746 H 451.93 2.2311 2.33285 0
M  V30 4747 H 450.982 3.77494 0.469314 0
M  V30 4748 H 452.294 4.91803 0.832518 0
M  V30 4749 H 451.448 5.17008 3.17471 0
M  V30 4750 H 450.187 3.94164 2.87203 0
M  V30 4751 H 449.192 5.39092 1.07983 0
M  V30 4752 H 450.417 6.64366 1.40694 0
M  V30 4753 H 448.363 5.61069 3.39908 0
M  V30 4754 H 448.28 7.11788 2.54744 0
M  V30 4755 H 449.548 6.8568 3.7076 0
M  V30 4756 N 453.777 0.010035 1.57597 0
M  V30 4757 C 455.002 -0.687021 1.95691 0
M  V30 4758 C 455.427 -1.65952 0.885519 0
M  V30 4759 O 454.785 -1.80633 -0.15543 0
M  V30 4760 C 454.833 -1.3864 3.32884 0
M  V30 4761 O 453.937 -2.50115 3.27897 0
M  V30 4762 H 453.278 -0.181989 0.638573 0
M  V30 4763 H 455.808 0.0662122 2.04493 0
M  V30 4764 H 455.818 -1.74754 3.6868 0
M  V30 4765 H 454.493 -0.673411 4.10412 0
M  V30 4766 H 453.07 -2.16253 3.03791 0
M  V30 4767 N 455.255 -1.55392 -0.262866 0
M  V30 4768 C 456.504 -1.75679 -0.990943 0
M  V30 4769 C 456.817 -0.57097 -1.87081 0
M  V30 4770 O 458.023 -0.656486 -2.63444 0
M  V30 4771 C 456.479 -3.10964 -1.81188 0
M  V30 4772 C 456.087 -4.37146 -0.980188 0
M  V30 4773 C 457.831 -3.40597 -2.53365 0
M  V30 4774 C 455.738 -5.63466 -1.7961 0
M  V30 4775 H 454.668 -0.654868 -0.373716 0
M  V30 4776 H 457.319 -1.81841 -0.246203 0
M  V30 4777 H 455.701 -2.98867 -2.59797 0
M  V30 4778 H 456.875 -4.60187 -0.237558 0
M  V30 4779 H 455.19 -4.14731 -0.372497 0
M  V30 4780 H 457.787 -4.32186 -3.14833 0
M  V30 4781 H 458.13 -2.6119 -3.24169 0
M  V30 4782 H 458.663 -3.53838 -1.81779 0
M  V30 4783 H 455.402 -6.4565 -1.13209 0
M  V30 4784 H 454.922 -5.44552 -2.51443 0
M  V30 4785 H 456.601 -6.02139 -2.36723 0
M  V30 4786 N 456.733 0.527833 -1.48498 0
M  V30 4787 C 457.68 1.6322 -1.6318 0
M  V30 4788 C 458.65 1.59199 -0.473815 0
M  V30 4789 O 459.835 1.77591 -0.697563 0
M  V30 4790 C 456.975 3.01474 -1.67951 0
M  V30 4791 C 456.088 3.15713 -2.94871 0
M  V30 4792 C 455.223 4.44539 -2.90789 0
M  V30 4793 C 454.262 4.52315 -4.12404 0
M  V30 4794 N 453.399 5.72533 -4.06387 0
M  V30 4795 H 458.239 1.50011 -2.57489 0
M  V30 4796 H 455.776 0.730298 -1.27691 0
M  V30 4797 H 457.734 3.81572 -1.68698 0
M  V30 4798 H 456.364 3.1345 -0.771306 0
M  V30 4799 H 455.416 2.28854 -3.03859 0
M  V30 4800 H 456.728 3.1732 -3.8485 0
M  V30 4801 H 455.882 5.3293 -2.89949 0
M  V30 4802 H 454.621 4.45457 -1.98542 0
M  V30 4803 H 453.626 3.62331 -4.13517 0
M  V30 4804 H 454.851 4.53134 -5.05812 0
M  V30 4805 H 452.797 5.74344 -3.16962 0
M  V30 4806 H 452.714 5.75643 -4.90073 0
M  V30 4807 H 453.982 6.63204 -4.0961 0
M  V30 4808 N 458.211 1.37122 0.776871 0
M  V30 4809 C 459.174 1.32301 1.8716 0
M  V30 4810 C 460.174 0.228099 1.59174 0
M  V30 4811 O 461.364 0.483642 1.67352 0
M  V30 4812 C 458.496 1.054 3.24197 0
M  V30 4813 H 459.689 2.29673 1.92848 0
M  V30 4814 H 457.242 1.22077 0.97606 0
M  V30 4815 H 457.977 0.0853872 3.24188 0
M  V30 4816 H 457.762 1.84648 3.45901 0
M  V30 4817 H 459.252 1.04664 4.04271 0
M  V30 4818 N 459.689 -1.00246 1.21608 0
M  V30 4819 C 460.652 -2.07233 0.979133 0
M  V30 4820 C 461.652 -1.6072 -0.0508219 0
M  V30 4821 O 462.842 -1.73196 0.186712 0
M  V30 4822 C 459.974 -3.37546 0.477016 0
M  V30 4823 H 461.167 -2.29687 1.92831 0
M  V30 4824 H 458.72 -1.17261 1.03342 0
M  V30 4825 H 459.455 -3.20773 -0.476966 0
M  V30 4826 H 459.24 -3.72638 1.21997 0
M  V30 4827 H 460.73 -4.16285 0.331181 0
M  V30 4828 N 461.167 -1.02423 -1.1978 0
M  V30 4829 C 462.392 -0.7373 -1.93852 0
M  V30 4830 C 462.817 0.696923 -1.74713 0
M  V30 4831 O 462.175 1.48056 -1.04638 0
M  V30 4832 C 462.223 -1.08783 -3.438 0
M  V30 4833 O 461.327 -0.20383 -4.11896 0
M  V30 4834 H 460.668 -0.27284 -0.605355 0
M  V30 4835 H 463.198 -1.36966 -1.51992 0
M  V30 4836 H 463.208 -1.04276 -3.9445 0
M  V30 4837 H 461.883 -2.13274 -3.57053 0
M  V30 4838 H 460.46 -0.307091 -3.71633 0
M  V30 4839 N 462.645 1.35699 -0.801477 0
M  V30 4840 C 463.87 2.03687 -0.390678 0
M  V30 4841 C 464.295 1.60015 0.988778 0
M  V30 4842 O 463.653 0.774357 1.63931 0
M  V30 4843 C 463.701 3.57439 -0.476404 0
M  V30 4844 O 462.805 4.09208 0.512106 0
M  V30 4845 H 462.146 0.64344 -0.163956 0
M  V30 4846 H 464.676 1.73403 -1.08594 0
M  V30 4847 H 464.686 4.06544 -0.344357 0
M  V30 4848 H 463.361 3.88576 -1.48262 0
M  V30 4849 H 461.938 3.7134 0.340721 0
M  V30 4850 N 464.123 0.554532 1.47522 0
M  V30 4851 C 465.351 0.034257 2.06872 0
M  V30 4852 C 465.766 -1.25826 1.40759 0
M  V30 4853 O 465.123 -1.75425 0.503217 0
M  V30 4854 C 465.174 -0.167827 3.6111 0
M  V30 4855 O 464.895 1.07351 4.24744 0
M  V30 4856 C 466.396 -0.72569 4.3732 0
M  V30 4857 H 463.616 0.0446275 0.669514 0
M  V30 4858 H 466.16 0.767181 1.89564 0
M  V30 4859 H 464.315 -0.850872 3.7794 0
M  V30 4860 H 464.729 0.869563 5.17242 0
M  V30 4861 H 466.203 -0.816394 5.45929 0
M  V30 4862 H 466.68 -1.73635 4.0342 0
M  V30 4863 H 467.286 -0.0784292 4.25228 0
M  V30 4864 N 465.601 -1.54893 0.290851 0
M  V30 4865 C 466.511 -2.26812 -0.59945 0
M  V30 4866 C 467.527 -1.29963 -1.15696 0
M  V30 4867 O 468.703 -1.62928 -1.18391 0
M  V30 4868 C 465.768 -2.98716 -1.75982 0
M  V30 4869 C 464.829 -4.1108 -1.2374 0
M  V30 4870 C 464.062 -4.79546 -2.34246 0
M  V30 4871 O 464.285 -4.47309 -3.53936 0
M  V30 4872 O 463.219 -5.67165 -2.01512 0
M  V30 4873 H 467.045 -3.03696 -0.0163561 0
M  V30 4874 H 464.63 -1.49289 0.0576755 0
M  V30 4875 H 466.512 -3.43851 -2.43607 0
M  V30 4876 H 465.187 -2.24737 -2.3297 0
M  V30 4877 H 464.094 -3.70367 -0.527163 0
M  V30 4878 H 465.427 -4.87007 -0.71307 0
M  V30 4879 N 467.08 -0.0183926 -1.57589 0
M  V30 4880 C 468.027 0.967022 -2.09565 0
M  V30 4881 C 468.997 1.32983 -0.995225 0
M  V30 4882 O 470.182 1.42501 -1.26878 0
M  V30 4883 C 467.322 2.24772 -2.61861 0
M  V30 4884 C 466.435 1.94232 -3.85873 0
M  V30 4885 C 465.57 3.16518 -4.26603 0
M  V30 4886 C 464.609 2.81748 -5.43401 0
M  V30 4887 N 463.746 3.96626 -5.79338 0
M  V30 4888 H 468.586 0.516874 -2.93483 0
M  V30 4889 H 466.123 0.243544 -1.4507 0
M  V30 4890 H 468.081 2.99667 -2.90268 0
M  V30 4891 H 466.711 2.67423 -1.8079 0
M  V30 4892 H 465.763 1.09625 -3.64262 0
M  V30 4893 H 467.075 1.64616 -4.70853 0
M  V30 4894 H 466.229 3.99743 -4.56389 0
M  V30 4895 H 464.968 3.49286 -3.40368 0
M  V30 4896 H 463.973 1.96933 -5.1332 0
M  V30 4897 H 465.198 2.50207 -6.31327 0
M  V30 4898 H 463.144 4.29257 -4.96059 0
M  V30 4899 H 463.061 3.70598 -6.58933 0
M  V30 4900 H 464.329 4.80586 -6.13724 0
M  V30 4901 N 468.558 1.5553 0.254621 0
M  V30 4902 C 469.805 1.77 0.983736 0
M  V30 4903 C 470.133 0.58133 1.85609 0
M  V30 4904 O 469.388 -0.435621 1.9079 0
M  V30 4905 C 469.687 3.03891 1.88109 0
M  V30 4906 C 469.353 4.35597 1.16472 0
M  V30 4907 C 468.015 4.7139 0.966714 0
M  V30 4908 C 470.367 5.1705 0.656387 0
M  V30 4909 C 467.695 5.86176 0.247942 0
M  V30 4910 C 470.047 6.32581 -0.0488807 0
M  V30 4911 C 468.711 6.67 -0.258438 0
M  V30 4912 H 467.981 0.647688 0.359974 0
M  V30 4913 H 470.628 1.89802 0.254463 0
M  V30 4914 H 468.933 2.86068 2.67717 0
M  V30 4915 H 470.63 3.17701 2.44677 0
M  V30 4916 H 467.22 4.07475 1.32899 0
M  V30 4917 H 471.404 4.8986 0.796933 0
M  V30 4918 H 466.66 6.11354 0.075035 0
M  V30 4919 H 470.834 6.94942 -0.450444 0
M  V30 4920 H 468.461 7.55793 -0.817358 0
M  V30 4921 N 470.036 -0.519951 1.48776 0
M  V30 4922 C 471.447 -1.10177 1.50725 0
M  V30 4923 C 471.798 -1.94153 0.282678 0
M  V30 4924 O 470.923 -2.07645 -0.609298 0
M  V30 4925 C 471.518 -2.00482 2.73116 0
M  V30 4926 C 470.077 -2.53862 2.77905 0
M  V30 4927 C 469.224 -1.31047 2.44381 0
M  V30 4928 H 472.175 -0.30473 1.55747 0
M  V30 4929 H 472.196 -2.8491 2.52203 0
M  V30 4930 H 471.708 -1.39335 3.62225 0
M  V30 4931 H 469.809 -3.18702 1.93029 0
M  V30 4932 H 469.922 -2.9231 3.79594 0
M  V30 4933 H 468.286 -1.62953 1.95751 0
M  V30 4934 H 469.069 -0.71637 3.35743 0
M  V30 4935 N 471.514 -1.37532 -0.769588 0
M  V30 4936 C 472.791 -1.23392 -1.51768 0
M  V30 4937 C 473.171 0.17157 -2.10402 0
M  V30 4938 O 472.519 1.17943 -1.95708 0
M  V30 4939 C 472.729 -2.33163 -2.59685 0
M  V30 4940 C 474.077 -2.70809 -3.27028 0
M  V30 4941 O 475.101 -2.32355 -2.69981 0
M  V30 4942 O 473.96 -3.37066 -4.30173 0
M  V30 4943 H 471.054 -0.481617 -0.67229 0
M  V30 4944 H 473.6 -1.49318 -0.806368 0
M  V30 4945 H 472.372 -3.27273 -2.14494 0
M  V30 4946 H 471.995 -2.08713 -3.38415 0
M  V30 4947 N 472.992 0.995999 -1.22138 0
M  V30 4948 C 474.24 1.73167 -1.042 0
M  V30 4949 C 474.561 1.90329 0.42423 0
M  V30 4950 O 473.831 1.4607 1.30539 0
M  V30 4951 H 472.411 0.641593 -0.38258 0
M  V30 4952 H 475.073 1.19974 -1.53598 0
M  V30 4953 H 474.169 2.72734 -1.51731 0
M  V30 4954 N 474.47 1.03057 1.19235 0
M  V30 4955 C 475.717 0.728019 1.88961 0
M  V30 4956 C 476.045 -0.743515 1.79728 0
M  V30 4957 O 475.3 -1.55729 1.1852 0
M  V30 4958 C 475.599 1.1268 3.39172 0
M  V30 4959 C 475.265 2.5969 3.68608 0
M  V30 4960 C 473.927 2.99854 3.76352 0
M  V30 4961 C 476.279 3.54793 3.81801 0
M  V30 4962 C 473.607 4.34031 3.94758 0
M  V30 4963 C 475.959 4.88675 4.0172 0
M  V30 4964 C 474.623 5.28526 4.07697 0
M  V30 4965 H 473.893 0.266401 0.691456 0
M  V30 4966 H 476.54 1.29373 1.41191 0
M  V30 4967 H 474.845 0.479722 3.88852 0
M  V30 4968 H 476.542 0.870203 3.91444 0
M  V30 4969 H 473.132 2.27575 3.63191 0
M  V30 4970 H 477.316 3.24914 3.7516 0
M  V30 4971 H 472.572 4.6444 3.97625 0
M  V30 4972 H 476.746 5.6228 4.1087 0
M  V30 4973 H 474.373 6.32506 4.21712 0
M  V30 4974 N 475.948 -1.35272 0.808662 0
M  V30 4975 C 477.194 -1.99434 0.399717 0
M  V30 4976 C 477.549 -1.62992 -1.02232 0
M  V30 4977 O 476.842 -0.884091 -1.69983 0
M  V30 4978 C 477.036 -3.53556 0.522798 0
M  V30 4979 C 476.865 -4.04969 1.95525 0
M  V30 4980 C 475.635 -4.34228 2.58407 0
M  V30 4981 C 477.833 -4.23362 2.92009 0
M  V30 4982 N 475.815 -4.71585 3.93041 0
M  V30 4983 C 477.186 -4.63739 4.11517 0
M  V30 4984 C 479.241 -4.05576 2.88813 0
M  V30 4985 C 477.944 -4.88189 5.28265 0
M  V30 4986 C 479.97 -4.31184 4.04765 0
M  V30 4987 C 479.332 -4.71834 5.23022 0
M  V30 4988 H 475.431 -0.757534 0.19408 0
M  V30 4989 H 478.015 -1.63939 1.05034 0
M  V30 4990 H 476.186 -3.88277 -0.0978471 0
M  V30 4991 H 477.918 -4.04604 0.0882378 0
M  V30 4992 H 474.673 -4.24621 2.09747 0
M  V30 4993 H 475.097 -4.9452 4.62363 0
M  V30 4994 H 479.739 -3.73288 1.98535 0
M  V30 4995 H 477.457 -5.1935 6.19113 0
M  V30 4996 H 481.043 -4.18972 4.03675 0
M  V30 4997 H 479.923 -4.91263 6.11253 0
M  V30 4998 N 477.426 -0.562348 -1.47226 0
M  V30 4999 C 478.356 0.170627 -2.32876 0
M  V30 5000 C 479.337 0.903748 -1.44106 0
M  V30 5001 O 480.522 0.883206 -1.72954 0
M  V30 5002 C 477.652 1.19786 -3.25989 0
M  V30 5003 C 476.606 0.580875 -4.2404 0
M  V30 5004 C 475.932 1.71311 -5.06514 0
M  V30 5005 C 477.232 -0.468714 -5.20193 0
M  V30 5006 H 478.926 -0.544441 -2.94408 0
M  V30 5007 H 476.472 -0.263271 -1.41573 0
M  V30 5008 H 478.425 1.71884 -3.84752 0
M  V30 5009 H 477.149 1.94294 -2.62521 0
M  V30 5010 H 475.808 0.0811538 -3.6651 0
M  V30 5011 H 475.456 2.44736 -4.39447 0
M  V30 5012 H 475.156 1.30604 -5.72902 0
M  V30 5013 H 476.68 2.23725 -5.68137 0
M  V30 5014 H 478.094 -0.0336028 -5.7329 0
M  V30 5015 H 476.491 -0.794957 -5.94811 0
M  V30 5016 H 477.561 -1.36269 -4.65359 0
M  V30 5017 N 478.904 1.54736 -0.299062 0
M  V30 5018 C 480.152 1.99706 0.31017 0
M  V30 5019 C 480.473 1.18896 1.54559 0
M  V30 5020 O 479.743 0.284445 1.93824 0
M  V30 5021 H 478.323 0.737686 0.117596 0
M  V30 5022 H 480.985 1.9054 -0.409943 0
M  V30 5023 H 480.081 3.06596 0.58355 0
M  V30 5024 N 480.382 0.0267497 1.57577 0
M  V30 5025 C 481.292 -0.971633 2.13533 0
M  V30 5026 C 482.308 -1.35868 1.08701 0
M  V30 5027 O 483.484 -1.44058 1.40746 0
M  V30 5028 C 480.549 -2.23622 2.64941 0
M  V30 5029 C 479.61 -1.90982 3.8448 0
M  V30 5030 C 478.843 -3.11411 4.33427 0
M  V30 5031 O 479.066 -4.23992 3.81558 0
M  V30 5032 O 478 -2.93848 5.25297 0
M  V30 5033 H 481.826 -0.525853 2.99113 0
M  V30 5034 H 479.411 -0.193712 1.48139 0
M  V30 5035 H 481.293 -2.97864 2.98086 0
M  V30 5036 H 479.968 -2.67386 1.82446 0
M  V30 5037 H 478.875 -1.14132 3.56265 0
M  V30 5038 H 480.208 -1.52036 4.6813 0
M  V30 5039 N 481.861 -1.55662 -0.24637 0
M  V30 5040 C 482.793 -1.86811 -1.32794 0
M  V30 5041 C 483.806 -0.754413 -1.44265 0
M  V30 5042 O 484.995 -1.03253 -1.45606 0
M  V30 5043 C 482.095 -2.0397 -2.70646 0
M  V30 5044 C 481.268 -3.34832 -2.81436 0
M  V30 5045 C 480.327 -3.41727 -4.00136 0
M  V30 5046 O 479.353 -4.14934 -3.89639 0
M  V30 5047 N 480.555 -2.71058 -5.1333 0
M  V30 5048 H 483.32 -2.80174 -1.06409 0
M  V30 5049 H 480.881 -1.55906 -0.43647 0
M  V30 5050 H 482.873 -2.05924 -3.48393 0
M  V30 5051 H 481.443 -1.1735 -2.89738 0
M  V30 5052 H 480.663 -3.4519 -1.90361 0
M  V30 5053 H 481.951 -4.21085 -2.85595 0
M  V30 5054 H 481.349 -2.11314 -5.2475 0
M  V30 5055 H 479.906 -2.78704 -5.89209 0
M  V30 5056 N 483.339 0.512053 -1.4905 0
M  V30 5057 C 484.269 1.62365 -1.67809 0
M  V30 5058 C 485.25 1.61737 -0.526809 0
M  V30 5059 O 486.435 1.78651 -0.761404 0
M  V30 5060 C 483.565 3.00895 -1.73435 0
M  V30 5061 C 482.519 3.16387 -2.88242 0
M  V30 5062 C 481.845 4.56157 -2.78971 0
M  V30 5063 C 483.145 2.97457 -4.29321 0
M  V30 5064 H 484.839 1.46921 -2.60873 0
M  V30 5065 H 482.385 0.705379 -1.2554 0
M  V30 5066 H 484.338 3.78549 -1.85145 0
M  V30 5067 H 483.062 3.17403 -0.769619 0
M  V30 5068 H 481.721 2.41155 -2.76116 0
M  V30 5069 H 481.369 4.69525 -1.8043 0
M  V30 5070 H 481.069 4.67465 -3.5602 0
M  V30 5071 H 482.593 5.35886 -2.92675 0
M  V30 5072 H 484.007 3.64888 -4.42187 0
M  V30 5073 H 482.404 3.20245 -5.07507 0
M  V30 5074 H 483.474 1.93692 -4.44535 0
M  V30 5075 N 484.817 1.37938 0.762283 0
M  V30 5076 C 486.063 1.33866 1.52341 0
M  V30 5077 C 486.396 -0.0738961 1.94059 0
M  V30 5078 O 485.671 -1.03326 1.64785 0
M  V30 5079 C 485.954 2.28644 2.78197 0
M  V30 5080 C 485.807 3.78722 2.42672 0
M  V30 5081 C 487.126 2.21702 3.80179 0
M  V30 5082 H 484.245 0.487593 0.55265 0
M  V30 5083 H 486.887 1.68717 0.873767 0
M  V30 5084 H 485.037 1.99055 3.33631 0
M  V30 5085 H 486.709 4.18948 1.93081 0
M  V30 5086 H 484.952 3.96827 1.75244 0
M  V30 5087 H 485.623 4.40486 3.3268 0
M  V30 5088 H 488.099 2.47805 3.34263 0
M  V30 5089 H 486.975 2.90143 4.65949 0
M  V30 5090 H 487.236 1.21301 4.25133 0
M  V30 5091 N 486.295 -0.989507 1.22664 0
M  V30 5092 C 487.535 -1.7447 1.06488 0
M  V30 5093 C 487.899 -1.8794 -0.392737 0
M  V30 5094 O 489.1 -2.60175 -0.675446 0
M  V30 5095 C 487.371 -3.11043 1.76031 0
M  V30 5096 S 488.93 -4.02258 1.7531 0
M  V30 5097 H 485.748 -0.600123 0.381278 0
M  V30 5098 H 488.35 -1.18283 1.55658 0
M  V30 5099 H 487.054 -2.98884 2.81241 0
M  V30 5100 H 486.585 -3.72301 1.27105 0
M  V30 5101 H 488.6 -4.89623 0.805208 0
M  V30 5102 N 487.773 -1.03688 -1.18687 0
M  V30 5103 C 489.019 -0.74888 -1.89112 0
M  V30 5104 C 489.374 0.715345 -1.78607 0
M  V30 5105 O 488.667 1.51498 -1.17299 0
M  V30 5106 C 488.861 -1.14477 -3.3857 0
M  V30 5107 C 488.69 -2.64594 -3.63621 0
M  V30 5108 C 487.46 -3.31685 -3.812 0
M  V30 5109 C 489.658 -3.62811 -3.64517 0
M  V30 5110 N 487.64 -4.70822 -3.93955 0
M  V30 5111 C 489.011 -4.87603 -3.8294 0
M  V30 5112 C 491.066 -3.56495 -3.47585 0
M  V30 5113 C 489.769 -6.0684 -3.86184 0
M  V30 5114 C 491.795 -4.75155 -3.52111 0
M  V30 5115 C 491.157 -5.98765 -3.71026 0
M  V30 5116 H 487.256 -0.32603 -0.710794 0
M  V30 5117 H 489.84 -1.3258 -1.42586 0
M  V30 5118 H 488.011 -0.595974 -3.838 0
M  V30 5119 H 489.743 -0.808187 -3.96548 0
M  V30 5120 H 486.498 -2.82091 -3.80423 0
M  V30 5121 H 486.922 -5.43122 -4.04163 0
M  V30 5122 H 491.564 -2.61907 -3.31911 0
M  V30 5123 H 489.282 -7.01788 -4.00648 0
M  V30 5124 H 492.868 -4.71905 -3.40289 0
M  V30 5125 H 491.748 -6.89047 -3.74412 0
M  V30 5126 N 489.251 1.34841 -0.815825 0
M  V30 5127 C 490.183 2.28409 -0.190265 0
M  V30 5128 C 491.196 1.50705 0.615771 0
M  V30 5129 O 492.385 1.72822 0.446616 0
M  V30 5130 C 489.485 3.30441 0.752446 0
M  V30 5131 C 488.658 4.37399 -0.00922152 0
M  V30 5132 C 487.717 5.19234 0.853351 0
M  V30 5133 O 486.743 5.68404 0.300919 0
M  V30 5134 N 487.945 5.38248 2.17416 0
M  V30 5135 H 490.71 2.82732 -0.994114 0
M  V30 5136 H 488.271 1.47289 -0.672129 0
M  V30 5137 H 490.263 3.82084 1.33394 0
M  V30 5138 H 488.833 2.76565 1.45707 0
M  V30 5139 H 488.053 3.86567 -0.771979 0
M  V30 5140 H 489.341 5.05992 -0.533807 0
M  V30 5141 H 488.739 4.99961 2.6468 0
M  V30 5142 H 487.296 5.93035 2.70467 0
M  V30 5143 N 490.729 0.570148 1.46925 0
M  V30 5144 C 491.692 -0.159933 2.28641 0
M  V30 5145 C 492.692 -0.830638 1.37685 0
M  V30 5146 O 493.882 -0.684516 1.60187 0
M  V30 5147 C 491.014 -1.2354 3.17727 0
M  V30 5148 H 492.207 0.558035 2.94662 0
M  V30 5149 H 489.76 0.327603 1.52828 0
M  V30 5150 H 490.495 -1.98535 2.56426 0
M  V30 5151 H 490.28 -0.759125 3.84681 0
M  V30 5152 H 491.77 -1.74782 3.79264 0
M  V30 5153 N 492.207 -1.54576 0.307264 0
M  V30 5154 C 493.455 -1.99867 -0.299574 0
M  V30 5155 C 493.776 -1.19714 -1.53927 0
M  V30 5156 O 493.046 -0.29472 -1.9367 0
M  V30 5157 H 491.626 -0.738299 -0.113683 0
M  V30 5158 H 494.288 -1.9032 0.420042 0
M  V30 5159 H 493.384 -3.06901 -0.567283 0
M  V30 5160 N 493.685 -0.035106 -1.57561 0
M  V30 5161 C 494.913 0.652258 -1.9635 0
M  V30 5162 C 495.328 1.65317 -0.911897 0
M  V30 5163 O 494.685 1.82194 0.105657 0
M  V30 5164 C 494.736 1.35337 -3.35211 0
M  V30 5165 O 494.457 0.392548 -4.36338 0
M  V30 5166 C 495.958 2.13199 -3.88666 0
M  V30 5167 H 493.178 0.179444 -0.646561 0
M  V30 5168 H 495.722 -0.0966459 -2.04271 0
M  V30 5169 H 493.877 2.05362 -3.28489 0
M  V30 5170 H 494.291 0.891097 -5.16875 0
M  V30 5171 H 495.765 2.577 -4.88154 0
M  V30 5172 H 496.242 2.97353 -3.23231 0
M  V30 5173 H 496.848 1.48118 -3.98674 0
M  V30 5174 N 495.163 1.55791 0.238111 0
M  V30 5175 C 496.391 1.82098 0.982233 0
M  V30 5176 C 496.806 0.612025 1.78605 0
M  V30 5177 O 496.163 -0.419381 1.77616 0
M  V30 5178 C 496.214 3.0673 1.91309 0
M  V30 5179 O 495.935 4.2296 1.14179 0
M  V30 5180 C 497.436 3.45903 2.77248 0
M  V30 5181 H 494.656 0.605748 0.288635 0
M  V30 5182 H 497.2 2.02862 0.258341 0
M  V30 5183 H 495.355 2.87991 2.59114 0
M  V30 5184 H 495.769 4.93653 1.7722 0
M  V30 5185 H 497.243 4.36189 3.38295 0
M  V30 5186 H 497.72 2.66891 3.48806 0
M  V30 5187 H 498.326 3.67024 2.14881 0
M  V30 5188 N 496.642 -0.504142 1.49319 0
M  V30 5189 C 498.053 -1.08572 1.51885 0
M  V30 5190 C 498.404 -1.93842 0.303255 0
M  V30 5191 O 497.529 -2.0828 -0.58724 0
M  V30 5192 C 498.124 -1.97574 2.75227 0
M  V30 5193 C 496.683 -2.509 2.80581 0
M  V30 5194 C 495.83 -1.28447 2.45757 0
M  V30 5195 H 498.781 -0.288194 1.56061 0
M  V30 5196 H 498.802 -2.82219 2.55211 0
M  V30 5197 H 498.314 -1.35486 3.63683 0
M  V30 5198 H 496.415 -3.16636 1.96398 0
M  V30 5199 H 496.528 -2.88268 3.82673 0
M  V30 5200 H 494.892 -1.60868 1.97468 0
M  V30 5201 H 495.675 -0.68072 3.36483 0
M  V30 5202 N 498.12 -1.38341 -0.754957 0
M  V30 5203 C 499.366 -1.35678 -1.51536 0
M  V30 5204 C 499.721 0.0533985 -1.92326 0
M  V30 5205 O 499.014 1.01573 -1.6246 0
M  V30 5206 C 499.208 -2.2452 -2.78075 0
M  V30 5207 C 499.037 -3.74035 -2.49655 0
M  V30 5208 C 497.807 -4.43066 -2.42942 0
M  V30 5209 C 500.005 -4.665 -2.16523 0
M  V30 5210 N 497.987 -5.78026 -2.06783 0
M  V30 5211 C 499.358 -5.89962 -1.90644 0
M  V30 5212 C 501.413 -4.54718 -2.02821 0
M  V30 5213 C 500.116 -7.0296 -1.52444 0
M  V30 5214 C 502.142 -5.67618 -1.66023 0
M  V30 5215 C 501.504 -6.90141 -1.41015 0
M  V30 5216 H 497.603 -0.551764 -0.554148 0
M  V30 5217 H 500.187 -1.73716 -0.879258 0
M  V30 5218 H 498.358 -1.88673 -3.39496 0
M  V30 5219 H 500.09 -2.12993 -3.44116 0
M  V30 5220 H 496.845 -3.96264 -2.59367 0
M  V30 5221 H 497.269 -6.49394 -1.91353 0
M  V30 5222 H 501.911 -3.60546 -2.20831 0
M  V30 5223 H 499.629 -7.97051 -1.33174 0
M  V30 5224 H 503.215 -5.6048 -1.56055 0
M  V30 5225 H 502.095 -7.76021 -1.12965 0
M  V30 5226 N 499.598 0.982988 -1.23187 0
M  V30 5227 C 500.546 2.09616 -1.00817 0
M  V30 5228 C 501.54 1.6932 0.0519995 0
M  V30 5229 O 502.746 1.79715 -0.101284 0
M  V30 5230 H 499.121 0.685628 -0.308899 0
M  V30 5231 H 501.092 2.25652 -1.95253 0
M  V30 5232 C 499.841 3.42249 -0.613243 0
M  V30 5233 H 499.164 3.73705 -1.42073 0
M  V30 5234 H 500.604 4.21086 -0.496208 0
M  V30 5235 C 499.063 3.30002 0.678233 0
M  V30 5236 O 499.593 3.6263 1.72807 0
M  V30 5237 N 497.799 2.83164 0.653165 0
M  V30 5238 H 497.346 2.56811 -0.201492 0
M  V30 5239 H 497.304 2.75352 1.51752 0
M  V30 5240 N 501.076 1.04316 1.18135 0
M  V30 5241 C 502.325 0.74319 1.87509 0
M  V30 5242 C 502.638 -0.732136 1.81381 0
M  V30 5243 O 503.844 -1.14572 2.46141 0
M  V30 5244 C 502.3 1.27913 3.36402 0
M  V30 5245 C 501.908 2.78326 3.51053 0
M  V30 5246 C 503.652 1.0558 4.11161 0
M  V30 5247 C 501.559 3.25266 4.93919 0
M  V30 5248 H 500.489 0.274313 0.702331 0
M  V30 5249 H 503.14 1.25931 1.33467 0
M  V30 5250 H 501.522 0.690853 3.89927 0
M  V30 5251 H 502.696 3.42933 3.07788 0
M  V30 5252 H 501.011 2.991 2.89704 0
M  V30 5253 H 503.608 1.38161 5.16542 0
M  V30 5254 H 503.951 -0.00684729 4.16299 0
M  V30 5255 H 504.484 1.60882 3.63816 0
M  V30 5256 H 501.223 4.30922 4.9395 0
M  V30 5257 H 500.743 2.65396 5.3789 0
M  V30 5258 H 502.422 3.19433 5.62647 0
M  V30 5259 N 502.554 -1.34406 0.822964 0
M  V30 5260 C 503.801 -1.98284 0.411057 0
M  V30 5261 C 504.129 -1.65245 -1.02588 0
M  V30 5262 O 503.384 -0.91619 -1.72929 0
M  V30 5263 C 503.683 -3.52981 0.560268 0
M  V30 5264 C 503.349 -4.05931 1.96293 0
M  V30 5265 C 502.011 -4.20103 2.34664 0
M  V30 5266 C 504.363 -4.34412 2.87985 0
M  V30 5267 C 501.691 -4.60082 3.64062 0
M  V30 5268 C 504.043 -4.75838 4.16847 0
M  V30 5269 C 502.707 -4.88215 4.55195 0
M  V30 5270 H 501.977 -0.725573 0.150416 0
M  V30 5271 H 504.624 -1.60349 1.04692 0
M  V30 5272 H 502.929 -3.91477 -0.158982 0
M  V30 5273 H 504.626 -4.00385 0.222087 0
M  V30 5274 H 501.216 -3.95363 1.65487 0
M  V30 5275 H 505.4 -4.23001 2.59584 0
M  V30 5276 H 500.656 -4.67856 3.93599 0
M  V30 5277 H 504.83 -4.96834 4.87984 0
M  V30 5278 H 502.457 -5.18952 5.55512 0
M  V30 5279 N 504.032 -0.577932 -1.46621 0
M  V30 5280 C 505.443 -0.150071 -1.86096 0
M  V30 5281 C 505.794 1.28563 -1.48209 0
M  V30 5282 O 504.919 1.97036 -0.894754 0
M  V30 5283 C 505.514 -0.265576 -3.37758 0
M  V30 5284 C 504.073 0.10738 -3.76247 0
M  V30 5285 C 503.22 -0.603711 -2.70649 0
M  V30 5286 H 506.171 -0.786438 -1.37844 0
M  V30 5287 H 506.192 0.510352 -3.77062 0
M  V30 5288 H 505.704 -1.3106 -3.65301 0
M  V30 5289 H 503.805 1.15272 -3.54321 0
M  V30 5290 H 503.918 -0.26561 -4.78363 0
M  V30 5291 H 502.282 -0.0444884 -2.54661 0
M  V30 5292 H 503.065 -1.65029 -3.01032 0
M  V30 5293 N 505.51 1.54411 -0.315457 0
M  V30 5294 C 506.756 2.00716 0.289972 0
M  V30 5295 C 507.089 1.2034 1.5242 0
M  V30 5296 O 506.364 0.283579 1.92422 0
M  V30 5297 C 506.647 3.54507 0.632196 0
M  V30 5298 C 506.5 4.45615 -0.61218 0
M  V30 5299 C 507.819 4.15421 1.45305 0
M  V30 5300 H 504.938 0.729637 0.10392 0
M  V30 5301 H 507.58 1.8506 -0.430427 0
M  V30 5302 H 505.73 3.67979 1.24595 0
M  V30 5303 H 507.402 4.44026 -1.25053 0
M  V30 5304 H 505.645 4.15621 -1.24264 0
M  V30 5305 H 506.316 5.51022 -0.328379 0
M  V30 5306 H 508.792 4.05474 0.934331 0
M  V30 5307 H 507.668 5.23157 1.66127 0
M  V30 5308 H 507.929 3.68223 2.44671 0
M  V30 5309 N 506.988 0.0434614 1.5754 0
M  V30 5310 C 508.237 -0.631454 1.91561 0
M  V30 5311 C 508.55 -1.72457 0.92292 0
M  V30 5312 O 509.756 -2.45712 1.15489 0
M  V30 5313 C 508.212 -1.17447 3.40197 0
M  V30 5314 C 507.82 -0.113867 4.47855 0
M  V30 5315 C 509.564 -1.82507 3.83264 0
M  V30 5316 C 507.471 -0.669326 5.876 0
M  V30 5317 H 506.401 -0.239629 0.714908 0
M  V30 5318 H 509.052 0.111097 1.83163 0
M  V30 5319 H 507.434 -1.96909 3.43574 0
M  V30 5320 H 508.608 0.659348 4.56058 0
M  V30 5321 H 506.923 0.438821 4.14081 0
M  V30 5322 H 509.52 -2.25047 4.85034 0
M  V30 5323 H 509.863 -2.67365 3.19095 0
M  V30 5324 H 510.396 -1.09712 3.82372 0
M  V30 5325 H 507.135 0.141449 6.55347 0
M  V30 5326 H 506.655 -1.4107 5.82974 0
M  V30 5327 H 508.334 -1.15463 6.36614 0
M  V30 5328 N 508.466 -1.55915 -0.229846 0
M  V30 5329 C 509.691 -1.8296 -0.976743 0
M  V30 5330 C 510.116 -0.622735 -1.77493 0
M  V30 5331 O 509.474 0.428431 -1.76165 0
M  V30 5332 C 509.522 -3.07916 -1.8767 0
M  V30 5333 O 508.626 -2.86028 -2.97088 0
M  V30 5334 H 507.967 -0.603453 -0.277021 0
M  V30 5335 H 510.497 -2.0312 -0.245669 0
M  V30 5336 H 510.507 -3.37802 -2.2881 0
M  V30 5337 H 509.182 -3.95389 -1.28996 0
M  V30 5338 H 507.759 -2.67355 -2.59954 0
M  V30 5339 N 509.944 0.496216 -1.49584 0
M  V30 5340 C 510.874 1.60576 -1.69521 0
M  V30 5341 C 511.855 1.61169 -0.543933 0
M  V30 5342 O 513.04 1.77834 -0.78031 0
M  V30 5343 C 510.17 2.99038 -1.76616 0
M  V30 5344 C 509.124 3.13312 -2.91581 0
M  V30 5345 C 508.45 4.53172 -2.83794 0
M  V30 5346 C 509.75 2.92886 -4.32452 0
M  V30 5347 H 511.444 1.44146 -2.62416 0
M  V30 5348 H 508.99 0.692024 -1.26282 0
M  V30 5349 H 510.943 3.76564 -1.8915 0
M  V30 5350 H 509.667 3.16568 -0.80324 0
M  V30 5351 H 508.326 2.38213 -2.78658 0
M  V30 5352 H 507.974 4.67585 -1.854 0
M  V30 5353 H 507.674 4.63662 -3.60958 0
M  V30 5354 H 509.198 5.32752 -2.98342 0
M  V30 5355 H 510.612 3.60178 -4.46032 0
M  V30 5356 H 509.009 3.14844 -5.10875 0
M  V30 5357 H 510.079 1.88966 -4.46565 0
M  V30 5358 N 511.423 1.38739 0.74761 0
M  V30 5359 C 512.653 1.3832 1.53464 0
M  V30 5360 C 513.061 -0.0273464 1.8918 0
M  V30 5361 O 512.404 -1.00588 1.53713 0
M  V30 5362 C 512.466 2.18007 2.85855 0
M  V30 5363 C 512.13 3.66762 2.72644 0
M  V30 5364 C 513.127 4.60124 2.42037 0
M  V30 5365 C 510.812 4.10193 2.89909 0
M  V30 5366 C 512.806 5.94897 2.28859 0
M  V30 5367 C 510.493 5.45045 2.7635 0
M  V30 5368 C 511.491 6.37211 2.45869 0
M  V30 5369 O 511.179 7.69581 2.3238 0
M  V30 5370 H 510.911 0.474718 0.481268 0
M  V30 5371 H 513.465 1.83012 0.932518 0
M  V30 5372 H 511.695 1.68043 3.48279 0
M  V30 5373 H 513.384 2.09921 3.47402 0
M  V30 5374 H 514.15 4.27874 2.28361 0
M  V30 5375 H 510.029 3.38797 3.1263 0
M  V30 5376 H 513.573 6.66802 2.04989 0
M  V30 5377 H 509.47 5.76889 2.89601 0
M  V30 5378 H 510.238 7.80169 2.47546 0
M  V30 5379 N 512.901 -0.976442 1.23707 0
M  V30 5380 C 513.831 -2.08749 1.04624 0
M  V30 5381 C 514.812 -1.70057 -0.0380956 0
M  V30 5382 O 515.997 -1.93782 0.127308 0
M  V30 5383 C 513.127 -3.41335 0.640902 0
M  V30 5384 C 512.081 -3.93947 1.67302 0
M  V30 5385 C 511.407 -5.22774 1.12301 0
M  V30 5386 C 512.707 -4.22769 3.06697 0
M  V30 5387 H 514.401 -2.24972 1.97555 0
M  V30 5388 H 511.947 -1.08108 0.951247 0
M  V30 5389 H 513.9 -4.18489 0.494434 0
M  V30 5390 H 512.624 -3.24988 -0.324099 0
M  V30 5391 H 511.283 -3.18941 1.80755 0
M  V30 5392 H 510.931 -5.0278 0.148877 0
M  V30 5393 H 510.631 -5.58942 1.81267 0
M  V30 5394 H 512.155 -6.02546 0.988479 0
M  V30 5395 H 513.569 -4.90659 2.96524 0
M  V30 5396 H 511.966 -4.70147 3.72937 0
M  V30 5397 H 513.036 -3.29885 3.55392 0
M  V30 5398 N 514.379 -1.04941 -1.1758 0
M  V30 5399 C 515.312 -0.592518 -2.20373 0
M  V30 5400 C 516.29 0.377561 -1.58156 0
M  V30 5401 O 517.474 0.28978 -1.86259 0
M  V30 5402 C 514.601 0.133215 -3.38438 0
M  V30 5403 C 513.647 -0.791484 -4.19092 0
M  V30 5404 S 514.48 -2.27925 -4.84572 0
M  V30 5405 C 515.636 -1.56462 -6.06028 0
M  V30 5406 H 515.869 -1.46342 -2.58788 0
M  V30 5407 H 513.402 -0.861148 -1.28155 0
M  V30 5408 H 515.36 0.545746 -4.06856 0
M  V30 5409 H 514.021 0.980124 -2.98416 0
M  V30 5410 H 513.214 -0.230039 -5.03475 0
M  V30 5411 H 512.816 -1.14326 -3.56098 0
M  V30 5412 H 515.108 -0.862539 -6.71987 0
M  V30 5413 H 516.051 -2.38583 -6.66696 0
M  V30 5414 H 516.459 -1.05313 -5.5459 0
M  V30 5415 N 515.857 1.33968 -0.830081 0
M  V30 5416 C 517.105 1.97672 -0.420734 0
M  V30 5417 C 517.426 1.66111 1.02138 0
M  V30 5418 O 516.696 0.955503 1.71017 0
M  V30 5419 H 515.276 0.73125 -0.152587 0
M  V30 5420 H 517.938 1.63483 -1.0611 0
M  V30 5421 H 517.034 3.07294 -0.545588 0
M  V30 5422 N 517.335 0.585699 1.46312 0
M  V30 5423 C 518.245 -0.148236 2.34131 0
M  V30 5424 C 519.261 -0.882972 1.49932 0
M  V30 5425 O 520.437 -0.845484 1.82794 0
M  V30 5426 C 517.502 -1.14714 3.27172 0
M  V30 5427 C 516.563 -0.416746 4.27272 0
M  V30 5428 C 515.796 -1.36806 5.15868 0
M  V30 5429 O 516.019 -2.60475 5.07454 0
M  V30 5430 O 514.953 -0.877018 5.95476 0
M  V30 5431 H 518.779 0.572882 2.98248 0
M  V30 5432 H 516.364 0.346082 1.45336 0
M  V30 5433 H 518.246 -1.72303 3.84564 0
M  V30 5434 H 516.921 -1.84967 2.65648 0
M  V30 5435 H 515.828 0.201061 3.73559 0
M  V30 5436 H 517.161 0.244872 4.9159 0
M  V30 5437 N 518.813 -1.54241 0.323641 0
M  V30 5438 C 520.059 -2.00867 -0.279323 0
M  V30 5439 C 520.392 -1.21146 -1.5178 0
M  V30 5440 O 519.667 -0.29378 -1.92269 0
M  V30 5441 C 519.95 -3.54837 -0.613387 0
M  V30 5442 C 519.803 -4.45284 0.635803 0
M  V30 5443 C 521.122 -4.16186 -1.43099 0
M  V30 5444 H 518.241 -0.730177 -0.100049 0
M  V30 5445 H 520.883 -1.84829 0.440235 0
M  V30 5446 H 519.033 -3.68634 -1.22641 0
M  V30 5447 H 520.705 -4.43357 1.27406 0
M  V30 5448 H 518.948 -4.14956 1.26466 0
M  V30 5449 H 519.619 -5.5084 0.357597 0
M  V30 5450 H 522.095 -4.05964 -0.912814 0
M  V30 5451 H 520.971 -5.24031 -1.6335 0
M  V30 5452 H 521.232 -3.69516 -2.42715 0
M  V30 5453 N 520.291 -0.0518155 -1.57515 0
M  V30 5454 C 521.519 0.631395 -1.9703 0
M  V30 5455 C 521.934 1.64341 -0.92938 0
M  V30 5456 O 521.291 1.82296 0.0863266 0
M  V30 5457 C 521.342 1.31774 -3.36627 0
M  V30 5458 O 521.063 0.346247 -4.3673 0
M  V30 5459 C 522.564 2.09065 -3.90905 0
M  V30 5460 H 519.784 0.172576 -0.648428 0
M  V30 5461 H 522.328 -0.118306 -2.04158 0
M  V30 5462 H 520.483 2.01867 -3.30649 0
M  V30 5463 H 520.897 0.836226 -5.17791 0
M  V30 5464 H 522.371 2.52508 -4.9086 0
M  V30 5465 H 522.848 2.93908 -3.26366 0
M  V30 5466 H 523.454 1.43882 -4.00223 0
M  V30 5467 N 521.769 1.56035 0.221574 0
M  V30 5468 C 522.717 1.93269 1.29421 0
M  V30 5469 C 523.711 0.814727 1.48521 0
M  V30 5470 O 524.917 0.999559 1.49696 0
M  V30 5471 H 521.292 0.614188 0.43391 0
M  V30 5472 H 523.263 2.82773 0.952987 0
M  V30 5473 C 522.012 2.26573 2.63742 0
M  V30 5474 H 521.335 3.12112 2.49853 0
M  V30 5475 H 522.775 2.5651 3.37607 0
M  V30 5476 C 521.234 1.09086 3.1875 0
M  V30 5477 O 521.764 0.351985 4.00155 0
M  V30 5478 N 519.97 0.874693 2.77124 0
M  V30 5479 H 519.517 1.47726 2.11033 0
M  V30 5480 H 519.475 0.0903349 3.1427 0
M  V30 5481 N 523.247 -0.488276 1.49845 0
M  V30 5482 C 524.179 -1.60539 1.63584 0
M  V30 5483 C 525.192 -1.5434 0.517972 0
M  V30 5484 O 526.381 -1.60041 0.790516 0
M  V30 5485 C 523.481 -2.99374 1.58835 0
M  V30 5486 C 522.654 -3.30624 2.86368 0
M  V30 5487 C 521.713 -4.4893 2.74496 0
M  V30 5488 O 520.739 -4.50085 3.48443 0
M  V30 5489 N 521.941 -5.49591 1.86894 0
M  V30 5490 H 524.706 -1.49176 2.59936 0
M  V30 5491 H 522.267 -0.67639 1.47094 0
M  V30 5492 H 524.259 -3.76459 1.48529 0
M  V30 5493 H 522.829 -3.04595 0.702892 0
M  V30 5494 H 522.049 -2.42314 3.1093 0
M  V30 5495 H 523.337 -3.48305 3.70892 0
M  V30 5496 H 522.735 -5.51467 1.26097 0
M  V30 5497 H 521.292 -6.25728 1.82503 0
M  V30 5498 N 524.725 -1.39134 -0.740242 0
M  V30 5499 C 525.95 -1.39518 -1.53459 0
M  V30 5500 C 526.375 0.00968883 -1.88098 0
M  V30 5501 O 525.733 0.995312 -1.51536 0
M  V30 5502 C 525.781 -2.26981 -2.802 0
M  V30 5503 O 524.885 -1.69609 -3.75908 0
M  V30 5504 H 524.226 -0.475328 -0.463637 0
M  V30 5505 H 526.756 -1.83064 -0.913717 0
M  V30 5506 H 526.766 -2.41309 -3.28989 0
M  V30 5507 H 525.441 -3.29081 -2.5432 0
M  V30 5508 H 524.018 -1.64495 -3.34658 0
M  V30 5509 N 526.204 0.969867 -1.24223 0
M  V30 5510 C 527.451 1.71256 -1.08063 0
M  V30 5511 C 527.779 1.90734 0.380872 0
M  V30 5512 O 527.034 1.46469 1.29789 0
M  V30 5513 C 527.333 3.10883 -1.76314 0
M  V30 5514 C 526.999 3.11252 -3.26241 0
M  V30 5515 C 525.661 3.1106 -3.67144 0
M  V30 5516 C 528.013 3.05751 -4.22097 0
M  V30 5517 C 525.341 3.03097 -5.02344 0
M  V30 5518 C 527.693 2.9933 -5.57301 0
M  V30 5519 C 526.357 2.97466 -5.97554 0
M  V30 5520 H 525.627 0.62667 -0.395431 0
M  V30 5521 H 528.274 1.13422 -1.54297 0
M  V30 5522 H 526.579 3.72168 -1.22468 0
M  V30 5523 H 528.276 3.67138 -1.61277 0
M  V30 5524 H 524.866 3.12165 -2.93685 0
M  V30 5525 H 529.05 3.05031 -3.91497 0
M  V30 5526 H 524.306 3.00013 -5.32731 0
M  V30 5527 H 528.48 2.94033 -6.31283 0
M  V30 5528 H 526.107 2.91051 -7.02277 0
M  V30 5529 N 527.682 1.05563 1.17022 0
M  V30 5530 C 529.098 0.777684 1.39371 0
M  V30 5531 C 529.298 -0.626269 1.91521 0
M  V30 5532 O 528.354 -1.38806 2.10924 0
M  V30 5533 C 529.667 1.83642 2.3811 0
M  V30 5534 C 531.215 1.85907 2.51809 0
M  V30 5535 C 531.69 2.90813 3.53824 0
M  V30 5536 N 533.181 2.898 3.61345 0
M  V30 5537 C 533.916 3.6762 4.40049 0
M  V30 5538 N 533.412 4.55237 5.22237 0
M  V30 5539 N 535.205 3.56044 4.34959 0
M  V30 5540 H 527.356 1.9614 0.815047 0
M  V30 5541 H 529.619 0.849527 0.420722 0
M  V30 5542 H 529.325 2.84425 2.06871 0
M  V30 5543 H 529.199 1.6812 3.37662 0
M  V30 5544 H 531.586 0.857865 2.82356 0
M  V30 5545 H 531.667 2.05506 1.52318 0
M  V30 5546 H 531.311 3.91122 3.24015 0
M  V30 5547 H 531.241 2.68465 4.53028 0
M  V30 5548 H 533.732 2.26274 3.02669 0
M  V30 5549 H 534.045 5.11291 5.79484 0
M  V30 5550 H 532.39 4.59296 5.21605 0
M  V30 5551 H 535.581 2.86986 3.69806 0
M  V30 5552 H 535.754 4.16938 4.96051 0
M  V30 5553 N 529.16 -1.33526 0.837174 0
M  V30 5554 C 530.409 -1.97098 0.428387 0
M  V30 5555 C 530.722 -1.67062 -1.01734 0
M  V30 5556 O 531.928 -2.24235 -1.53072 0
M  V30 5557 C 530.384 -3.52725 0.715075 0
M  V30 5558 C 529.992 -3.9164 2.17537 0
M  V30 5559 C 531.736 -4.22857 0.373154 0
M  V30 5560 C 529.643 -5.40237 2.40619 0
M  V30 5561 H 528.573 -0.737589 0.156455 0
M  V30 5562 H 531.224 -1.52169 1.02552 0
M  V30 5563 H 529.606 -3.95971 0.0475904 0
M  V30 5564 H 530.78 -3.59456 2.88319 0
M  V30 5565 H 529.095 -3.34485 2.4801 0
M  V30 5566 H 531.692 -5.32133 0.523264 0
M  V30 5567 H 532.035 -4.10647 -0.683708 0
M  V30 5568 H 532.568 -3.85135 0.995801 0
M  V30 5569 H 529.307 -5.57449 3.44864 0
M  V30 5570 H 528.827 -5.73887 1.74396 0
M  V30 5571 H 530.506 -6.07102 2.23688 0
M  V30 5572 N 530.638 -0.59345 -1.46 0
M  V30 5573 C 531.866 -0.0890934 -2.06708 0
M  V30 5574 C 532.281 1.2205 -1.44046 0
M  V30 5575 O 531.638 1.74029 -0.549551 0
M  V30 5576 C 531.689 0.0720263 -3.61428 0
M  V30 5577 O 531.41 -1.18574 -4.21748 0
M  V30 5578 C 532.911 0.609487 -4.3909 0
M  V30 5579 H 530.131 -0.0623628 -0.668096 0
M  V30 5580 H 532.675 -0.817171 -1.87464 0
M  V30 5581 H 530.83 0.750369 -3.80063 0
M  V30 5582 H 531.244 -1.0064 -5.14754 0
M  V30 5583 H 532.718 0.671363 -5.47902 0
M  V30 5584 H 533.195 1.62878 -4.07882 0
M  V30 5585 H 533.801 -0.03434 -4.25286 0
M  V30 5586 N 532.116 1.54067 -0.331816 0
M  V30 5587 C 533.365 1.99895 0.269209 0
M  V30 5588 C 533.678 1.22371 1.52593 0
M  V30 5589 O 534.884 1.58618 2.20347 0
M  V30 5590 C 533.34 3.55972 0.530244 0
M  V30 5591 C 532.948 4.4234 -0.709901 0
M  V30 5592 C 534.692 4.10247 1.09077 0
M  V30 5593 C 532.599 5.89905 -0.420312 0
M  V30 5594 H 531.529 0.746741 0.104371 0
M  V30 5595 H 534.18 1.78014 -0.445324 0
M  V30 5596 H 532.562 3.73873 1.30518 0
M  V30 5597 H 533.736 4.36215 -1.48504 0
M  V30 5598 H 532.051 3.98997 -1.19123 0
M  V30 5599 H 534.648 5.18095 1.32219 0
M  V30 5600 H 534.991 3.62739 2.0427 0
M  V30 5601 H 535.524 3.96011 0.376824 0
M  V30 5602 H 532.263 6.41623 -1.34164 0
M  V30 5603 H 531.783 5.98962 0.316962 0
M  V30 5604 H 533.462 6.46991 -0.0331956 0
M  V30 5605 N 533.594 0.0601682 1.57485 0
M  V30 5606 C 534.524 -0.90889 2.15085 0
M  V30 5607 C 535.505 -1.31838 1.07484 0
M  V30 5608 O 536.69 -1.3915 1.35466 0
M  V30 5609 C 533.82 -2.18059 2.7031 0
M  V30 5610 C 532.774 -1.91088 3.82974 0
M  V30 5611 C 532.1 -3.24789 4.24754 0
M  V30 5612 C 533.4 -1.22535 5.07723 0
M  V30 5613 H 535.094 -0.429093 2.96309 0
M  V30 5614 H 532.64 -0.204952 1.42534 0
M  V30 5615 H 534.593 -2.86258 3.09248 0
M  V30 5616 H 533.317 -2.6826 1.8629 0
M  V30 5617 H 531.976 -1.25297 3.44523 0
M  V30 5618 H 531.624 -3.72809 3.37672 0
M  V30 5619 H 531.324 -3.07538 5.00694 0
M  V30 5620 H 532.848 -3.94205 4.66299 0
M  V30 5621 H 534.262 -1.80783 5.4405 0
M  V30 5622 H 532.659 -1.1558 5.88864 0
M  V30 5623 H 533.729 -0.202692 4.84476 0
M  V30 5624 N 535.072 -1.5615 -0.213296 0
M  V30 5625 C 536.483 -1.69645 -0.779582 0
M  V30 5626 C 536.834 -0.663615 -1.84636 0
M  V30 5627 O 535.959 0.183633 -2.15619 0
M  V30 5628 C 536.554 -3.07567 -1.42084 0
M  V30 5629 C 535.113 -3.22889 -1.93442 0
M  V30 5630 C 534.26 -2.65581 -0.797612 0
M  V30 5631 H 537.211 -1.58696 0.0114951 0
M  V30 5632 H 537.232 -3.03884 -2.28986 0
M  V30 5633 H 536.744 -3.82716 -0.644187 0
M  V30 5634 H 534.845 -2.52623 -2.73884 0
M  V30 5635 H 534.958 -4.30197 -2.10872 0
M  V30 5636 H 533.322 -2.24278 -1.20712 0
M  V30 5637 H 534.105 -3.43284 -0.033494 0
M  V30 5638 N 536.55 0.480323 -1.50102 0
M  V30 5639 C 537.482 1.59669 -1.64433 0
M  V30 5640 C 538.495 1.54063 -0.52615 0
M  V30 5641 O 539.684 1.59619 -0.798992 0
M  V30 5642 C 536.784 2.98527 -1.6042 0
M  V30 5643 C 535.957 3.291 -2.88117 0
M  V30 5644 C 535.016 4.47468 -2.76873 0
M  V30 5645 O 534.042 4.4823 -3.50825 0
M  V30 5646 N 535.244 5.48593 -1.89806 0
M  V30 5647 H 538.009 1.47795 -2.60723 0
M  V30 5648 H 535.57 0.66858 -1.4745 0
M  V30 5649 H 537.562 3.75666 -1.50523 0
M  V30 5650 H 536.132 3.04218 -0.719036 0
M  V30 5651 H 535.352 2.40662 -3.12211 0
M  V30 5652 H 536.64 3.46334 -3.72734 0
M  V30 5653 H 536.038 5.50791 -1.2902 0
M  V30 5654 H 534.595 6.24752 -1.85819 0
M  V30 5655 N 538.028 1.39524 0.732853 0
M  V30 5656 C 538.96 1.34318 1.85718 0
M  V30 5657 C 539.973 0.251576 1.60844 0
M  V30 5658 O 541.162 0.510685 1.71039 0
M  V30 5659 C 538.262 1.06334 3.21786 0
M  V30 5660 C 537.435 2.26813 3.73998 0
M  V30 5661 C 536.494 1.95253 4.88634 0
M  V30 5662 O 535.52 2.67957 5.02183 0
M  V30 5663 N 536.722 0.919984 5.73164 0
M  V30 5664 H 539.487 2.3121 1.90688 0
M  V30 5665 H 537.048 1.33654 0.91368 0
M  V30 5666 H 539.04 0.832363 3.96048 0
M  V30 5667 H 537.61 0.181682 3.12072 0
M  V30 5668 H 536.83 2.65849 2.91064 0
M  V30 5669 H 538.118 3.0717 4.05616 0
M  V30 5670 H 537.516 0.317487 5.64808 0
M  V30 5671 H 536.073 0.748905 6.47483 0
M  V30 5672 N 539.506 -0.963266 1.24736 0
M  V30 5673 C 540.736 -1.73913 1.11524 0
M  V30 5674 C 541.144 -1.86218 -0.334612 0
M  V30 5675 O 540.487 -1.3531 -1.24245 0
M  V30 5676 C 540.549 -3.17501 1.68622 0
M  V30 5677 C 540.213 -3.28655 3.17546 0
M  V30 5678 C 541.21 -3.13637 4.14642 0
M  V30 5679 C 538.895 -3.52753 3.5759 0
M  V30 5680 C 540.889 -3.2255 5.49764 0
M  V30 5681 C 538.576 -3.61303 4.92852 0
M  V30 5682 C 539.574 -3.46214 5.88748 0
M  V30 5683 O 539.262 -3.5443 7.2155 0
M  V30 5684 H 538.994 -0.552057 0.390139 0
M  V30 5685 H 541.548 -1.2177 1.65412 0
M  V30 5686 H 539.778 -3.70969 1.09172 0
M  V30 5687 H 541.467 -3.76914 1.50635 0
M  V30 5688 H 542.233 -2.94899 3.85045 0
M  V30 5689 H 538.112 -3.63561 2.83451 0
M  V30 5690 H 541.656 -3.1069 6.24594 0
M  V30 5691 H 537.553 -3.79556 5.22118 0
M  V30 5692 H 538.321 -3.71116 7.29531 0
M  V30 5693 N 540.985 -1.06182 -1.16461 0
M  V30 5694 C 541.915 -0.692861 -2.22984 0
M  V30 5695 C 542.896 0.314122 -1.67174 0
M  V30 5696 O 544.081 0.189499 -1.93273 0
M  V30 5697 C 541.211 -0.07732 -3.47214 0
M  V30 5698 C 540.165 -1.01015 -4.15909 0
M  V30 5699 C 539.491 -0.257973 -5.34077 0
M  V30 5700 C 540.791 -2.33868 -4.67015 0
M  V30 5701 H 542.485 -1.58343 -2.54102 0
M  V30 5702 H 540.031 -0.76279 -1.22137 0
M  V30 5703 H 541.984 0.19266 -4.20959 0
M  V30 5704 H 540.708 0.848254 -3.15392 0
M  V30 5705 H 539.367 -1.26486 -3.44088 0
M  V30 5706 H 539.015 0.670684 -4.98509 0
M  V30 5707 H 538.715 -0.879638 -5.80979 0
M  V30 5708 H 540.239 0.00448788 -6.106 0
M  V30 5709 H 541.653 -2.1279 -5.32347 0
M  V30 5710 H 540.05 -2.91522 -5.24533 0
M  V30 5711 H 541.12 -2.97019 -3.83286 0
M  V30 5712 N 542.463 1.3308 -0.844243 0
M  V30 5713 C 543.879 1.50447 -0.532729 0
M  V30 5714 C 544.079 1.78292 0.938837 0
M  V30 5715 O 543.135 1.84635 1.72239 0
M  V30 5716 C 544.448 2.65555 -1.41072 0
M  V30 5717 C 545.996 2.7944 -1.41005 0
M  V30 5718 C 546.471 3.97616 -2.27301 0
M  V30 5719 N 547.962 4.0486 -2.2504 0
M  V30 5720 C 548.697 4.95508 -2.88547 0
M  V30 5721 N 548.193 5.91236 -3.61126 0
M  V30 5722 N 549.986 4.88548 -2.77989 0
M  V30 5723 H 542.137 1.13269 -1.79677 0
M  V30 5724 H 544.4 0.55734 -0.766861 0
M  V30 5725 H 544.106 2.51675 -2.45668 0
M  V30 5726 H 543.98 3.61089 -1.09061 0
M  V30 5727 H 546.367 2.92749 -0.371784 0
M  V30 5728 H 546.448 1.8465 -1.77026 0
M  V30 5729 H 546.092 3.85066 -3.3119 0
M  V30 5730 H 546.022 4.91661 -1.88619 0
M  V30 5731 H 548.513 3.36353 -1.72264 0
M  V30 5732 H 548.826 6.57079 -4.06776 0
M  V30 5733 H 547.171 5.91295 -3.65234 0
M  V30 5734 H 550.362 4.12729 -2.20846 0
M  V30 5735 H 550.535 5.58994 -3.27765 0
M  V30 5736 N 543.941 0.601185 1.45683 0
M  V30 5737 C 545.352 0.179659 1.85834 0
M  V30 5738 C 545.703 -1.26189 1.50236 0
M  V30 5739 O 544.828 -1.95587 0.925987 0
M  V30 5740 C 545.423 0.319277 3.37292 0
M  V30 5741 C 543.982 -0.0475092 3.7637 0
M  V30 5742 C 543.129 0.646692 2.69654 0
M  V30 5743 H 546.08 0.808268 1.36575 0
M  V30 5744 H 546.101 -0.4503 3.77826 0
M  V30 5745 H 545.613 1.36855 3.6317 0
M  V30 5746 H 543.714 -1.0962 3.5611 0
M  V30 5747 H 543.827 0.34168 4.7788 0
M  V30 5748 H 542.191 0.0849971 2.54558 0
M  V30 5749 H 542.974 1.69797 2.98369 0
M  V30 5750 N 545.419 -1.53889 0.339982 0
M  V30 5751 C 546.665 -2.01152 -0.258003 0
M  V30 5752 C 546.998 -1.22749 -1.50487 0
M  V30 5753 O 546.273 -0.314156 -1.91946 0
M  V30 5754 C 546.556 -3.55468 -0.575717 0
M  V30 5755 C 546.409 -4.44584 0.682996 0
M  V30 5756 C 547.728 -4.1768 -1.38677 0
M  V30 5757 H 544.847 -0.731198 -0.0922992 0
M  V30 5758 H 547.489 -1.84352 0.459814 0
M  V30 5759 H 545.639 -3.69914 -1.18725 0
M  V30 5760 H 547.311 -4.41981 1.32102 0
M  V30 5761 H 545.554 -4.13592 1.3086 0
M  V30 5762 H 546.225 -5.5043 0.416001 0
M  V30 5763 H 548.701 -4.0691 -0.869705 0
M  V30 5764 H 547.577 -5.25734 -1.57783 0
M  V30 5765 H 547.838 -3.72069 -2.38782 0
M  V30 5766 N 546.897 -0.0685191 -1.57451 0
M  V30 5767 C 547.807 0.914677 -2.16034 0
M  V30 5768 C 548.823 1.32938 -1.12265 0
M  V30 5769 O 549.999 1.40275 -1.44516 0
M  V30 5770 C 547.064 2.16519 -2.70777 0
M  V30 5771 C 546.125 1.80721 -3.89408 0
M  V30 5772 C 545.358 2.9981 -4.41531 0
M  V30 5773 O 545.581 4.13727 -3.92666 0
M  V30 5774 O 544.515 2.79817 -5.32903 0
M  V30 5775 H 548.341 0.446364 -3.00402 0
M  V30 5776 H 545.926 0.154367 -1.486 0
M  V30 5777 H 547.808 2.89856 -3.05878 0
M  V30 5778 H 546.483 2.62454 -1.89471 0
M  V30 5779 H 545.39 1.04646 -3.59166 0
M  V30 5780 H 546.723 1.39571 -4.71997 0
M  V30 5781 N 548.375 1.56261 0.205012 0
M  V30 5782 C 549.652 1.70856 0.952233 0
M  V30 5783 C 550.032 0.620501 2.01775 0
M  V30 5784 O 549.38 -0.370035 2.25484 0
M  V30 5785 C 549.59 3.12807 1.54767 0
M  V30 5786 C 550.938 3.72733 2.0336 0
M  V30 5787 O 551.962 3.15873 1.64629 0
M  V30 5788 O 550.821 4.72501 2.746 0
M  V30 5789 H 547.915 0.696496 0.445895 0
M  V30 5790 H 550.461 1.6857 0.195489 0
M  V30 5791 H 549.233 3.83465 0.779132 0
M  V30 5792 H 548.856 3.1928 2.36951 0
M  V30 5793 N 549.853 -0.472356 1.50355 0
M  V30 5794 C 551.099 -1.22634 1.6152 0
M  V30 5795 C 551.432 -1.91645 0.313995 0
M  V30 5796 O 550.707 -1.82059 -0.684446 0
M  V30 5797 C 550.99 -2.27099 2.7946 0
M  V30 5798 C 550.843 -1.62402 4.19459 0
M  V30 5799 C 552.162 -3.28421 2.92964 0
M  V30 5800 H 549.281 -0.444494 0.587873 0
M  V30 5801 H 551.923 -0.520321 1.82737 0
M  V30 5802 H 550.073 -2.87314 2.61501 0
M  V30 5803 H 551.745 -1.05793 4.49005 0
M  V30 5804 H 549.988 -0.927184 4.23776 0
M  V30 5805 H 550.659 -2.38309 4.97909 0
M  V30 5806 H 553.135 -2.78227 3.09401 0
M  V30 5807 H 552.011 -3.98845 3.77113 0
M  V30 5808 H 552.272 -3.92467 2.03525 0
M  V30 5809 N 551.331 -1.39911 -0.725443 0
M  V30 5810 C 552.294 -1.39156 -1.82121 0
M  V30 5811 C 553.294 -0.287018 -1.58218 0
M  V30 5812 O 554.484 -0.545421 -1.65441 0
M  V30 5813 C 551.616 -1.1736 -3.20062 0
M  V30 5814 H 552.809 -2.36672 -1.84191 0
M  V30 5815 H 550.362 -1.25615 -0.930079 0
M  V30 5816 H 551.097 -0.205648 -3.23647 0
M  V30 5817 H 550.882 -1.97358 -3.3881 0
M  V30 5818 H 552.372 -1.19596 -4.00108 0
M  V30 5819 N 552.809 0.956637 -1.25245 0
M  V30 5820 C 554.037 1.73571 -1.12608 0
M  V30 5821 C 554.452 1.86063 0.320324 0
M  V30 5822 O 553.809 1.35691 1.22042 0
M  V30 5823 C 553.86 3.15053 -1.77268 0
M  V30 5824 O 553.581 3.03174 -3.16255 0
M  V30 5825 C 555.082 4.09248 -1.70386 0
M  V30 5826 H 552.302 0.543955 -0.392879 0
M  V30 5827 H 554.846 1.20031 -1.65568 0
M  V30 5828 H 553.001 3.65543 -1.28284 0
M  V30 5829 H 553.415 3.9241 -3.48015 0
M  V30 5830 H 554.889 5.06138 -2.20291 0
M  V30 5831 H 555.366 4.34102 -0.667239 0
M  V30 5832 H 555.972 3.64672 -2.18849 0
M  V30 5833 N 554.287 1.06798 1.15896 0
M  V30 5834 C 555.512 0.808739 1.90982 0
M  V30 5835 C 555.937 -0.6316 1.77179 0
M  V30 5836 O 555.295 -1.4407 1.10061 0
M  V30 5837 C 555.343 1.21468 3.39526 0
M  V30 5838 O 554.447 0.356562 4.10856 0
M  V30 5839 H 553.788 0.29512 0.594811 0
M  V30 5840 H 556.318 1.42513 1.46804 0
M  V30 5841 H 556.328 1.18844 3.90308 0
M  V30 5842 H 555.003 2.26379 3.48891 0
M  V30 5843 H 553.58 0.444808 3.70238 0
M  V30 5844 N 555.766 -1.3263 0.851289 0
M  V30 5845 C 556.698 -2.27824 0.250757 0
M  V30 5846 C 557.711 -1.52285 -0.575598 0
M  V30 5847 O 558.9 -1.73946 -0.400638 0
M  V30 5848 C 556 -3.3232 -0.664571 0
M  V30 5849 C 555.173 -4.37221 0.125187 0
M  V30 5850 C 554.232 -5.21314 -0.715385 0
M  V30 5851 O 553.258 -5.69002 -0.150111 0
M  V30 5852 N 554.46 -5.43823 -2.03069 0
M  V30 5853 H 557.225 -2.79997 1.06873 0
M  V30 5854 H 554.786 -1.45455 0.710943 0
M  V30 5855 H 556.778 -3.85486 -1.23216 0
M  V30 5856 H 555.348 -2.80331 -1.38323 0
M  V30 5857 H 554.568 -3.84384 0.874199 0
M  V30 5858 H 555.856 -5.04399 0.667774 0
M  V30 5859 H 555.254 -5.06803 -2.51332 0
M  V30 5860 H 553.811 -5.99998 -2.54648 0
M  V30 5861 N 557.244 -0.608902 -1.45362 0
M  V30 5862 C 558.521 -0.0365378 -1.95566 0
M  V30 5863 C 558.901 1.43169 -1.55131 0
M  V30 5864 O 558.249 2.1349 -0.814513 0
M  V30 5865 C 558.459 -0.236026 -3.48201 0
M  V30 5866 C 559.807 -0.117518 -4.24437 0
M  V30 5867 O 560.831 -0.166217 -3.55812 0
M  V30 5868 O 559.69 -0.00372127 -5.465 0
M  V30 5869 H 556.784 0.0349874 -0.82626 0
M  V30 5870 H 559.33 -0.679055 -1.55521 0
M  V30 5871 H 558.102 -1.25569 -3.70605 0
M  V30 5872 H 557.725 0.441691 -3.95139 0
M  V30 5873 N 558.722 1.53707 -0.348139 0
M  V30 5874 C 559.999 1.93247 0.302475 0
M  V30 5875 C 560.379 1.28012 1.67857 0
M  V30 5876 O 559.727 0.43274 2.24365 0
M  V30 5877 C 559.937 3.47031 0.370159 0
M  V30 5878 C 561.285 4.20066 0.61882 0
M  V30 5879 O 562.309 3.53319 0.452087 0
M  V30 5880 O 561.168 5.38318 0.94215 0
M  V30 5881 H 558.262 0.807736 0.177458 0
M  V30 5882 H 560.808 1.64927 -0.399651 0
M  V30 5883 H 559.58 3.86745 -0.59534 0
M  V30 5884 H 559.203 3.81532 1.11888 0
M  V30 5885 N 560.2 0.0768682 1.57412 0
M  V30 5886 C 561.44 -0.594676 1.95558 0
M  V30 5887 C 561.804 -1.66469 0.956658 0
M  V30 5888 O 563.005 -2.39215 1.22595 0
M  V30 5889 C 561.276 -1.15206 3.38323 0
M  V30 5890 S 562.835 -1.83803 3.9845 0
M  V30 5891 H 559.653 -0.194579 0.683857 0
M  V30 5892 H 562.255 0.151933 1.94909 0
M  V30 5893 H 560.959 -0.36153 4.08805 0
M  V30 5894 H 560.49 -1.93491 3.42527 0
M  V30 5895 H 562.505 -3.12087 3.85767 0
M  V30 5896 N 561.678 -1.56367 -0.196722 0
M  V30 5897 C 562.908 -1.84371 -0.932254 0
M  V30 5898 C 563.316 -0.657013 -1.77426 0
M  V30 5899 O 562.659 0.383576 -1.79651 0
M  V30 5900 C 562.721 -3.06454 -1.87952 0
M  V30 5901 C 562.385 -4.40425 -1.21962 0
M  V30 5902 C 563.382 -5.16457 -0.597343 0
M  V30 5903 C 561.067 -4.8716 -1.22396 0
M  V30 5904 C 563.061 -6.37399 0.0117913 0
M  V30 5905 C 560.748 -6.08038 -0.610995 0
M  V30 5906 C 561.746 -6.83 0.00580487 0
M  V30 5907 O 561.434 -8.01589 0.609173 0
M  V30 5908 H 561.166 -0.616377 -0.277589 0
M  V30 5909 H 563.72 -2.04329 -0.209452 0
M  V30 5910 H 561.95 -2.82377 -2.64197 0
M  V30 5911 H 563.639 -3.21118 -2.48271 0
M  V30 5912 H 564.405 -4.81445 -0.586142 0
M  V30 5913 H 560.284 -4.2877 -1.69345 0
M  V30 5914 H 563.828 -6.9585 0.493836 0
M  V30 5915 H 559.725 -6.42519 -0.619693 0
M  V30 5916 H 560.493 -8.16935 0.505919 0
M  V30 5917 N 563.156 0.464375 -1.50603 0
M  V30 5918 C 564.103 1.56152 -1.69956 0
M  V30 5919 C 565.073 1.57046 -0.54091 0
M  V30 5920 O 566.258 1.74473 -0.772258 0
M  V30 5921 C 563.398 2.94079 -1.80586 0
M  V30 5922 C 562.511 3.02923 -3.07996 0
M  V30 5923 C 561.646 4.31806 -3.09382 0
M  V30 5924 C 560.685 4.34417 -4.31218 0
M  V30 5925 N 559.822 5.54782 -4.30304 0
M  V30 5926 H 564.662 1.38955 -2.6362 0
M  V30 5927 H 562.199 0.675482 -1.30674 0
M  V30 5928 H 564.157 3.74073 -1.8473 0
M  V30 5929 H 562.787 3.09896 -0.903556 0
M  V30 5930 H 561.839 2.1576 -3.13292 0
M  V30 5931 H 563.151 3.00712 -3.97962 0
M  V30 5932 H 562.305 5.20153 -3.12292 0
M  V30 5933 H 561.044 4.36636 -2.17257 0
M  V30 5934 H 560.049 3.44467 -4.28512 0
M  V30 5935 H 561.274 4.31273 -5.24576 0
M  V30 5936 H 559.22 5.60384 -3.41037 0
M  V30 5937 H 559.137 5.54339 -5.14047 0
M  V30 5938 H 560.405 6.45235 -4.3737 0
M  V30 5939 N 564.634 1.40294 0.718013 0
M  V30 5940 C 565.881 1.3844 1.47786 0
M  V30 5941 C 566.209 -0.0140838 1.94495 0
M  V30 5942 O 565.464 -0.998165 1.68331 0
M  V30 5943 C 565.763 2.31814 2.72024 0
M  V30 5944 C 565.429 3.79117 2.44093 0
M  V30 5945 C 564.091 4.19249 2.36185 0
M  V30 5946 C 566.443 4.72212 2.20602 0
M  V30 5947 C 563.771 5.50516 2.02851 0
M  V30 5948 C 566.123 6.03775 1.88781 0
M  V30 5949 C 564.787 6.42953 1.79354 0
M  V30 5950 H 564.057 0.506588 0.540786 0
M  V30 5951 H 566.704 1.72929 0.822663 0
M  V30 5952 H 565.009 1.90501 3.42369 0
M  V30 5953 H 566.706 2.27664 3.30106 0
M  V30 5954 H 563.296 3.47318 2.51133 0
M  V30 5955 H 567.48 4.42026 2.25669 0
M  V30 5956 H 562.736 5.79776 1.94088 0
M  V30 5957 H 566.91 6.75428 1.69617 0
M  V30 5958 H 564.537 7.44584 1.53291 0
M  V30 5959 N 566.112 -0.949982 1.2575 0
M  V30 5960 C 567.075 -2.02894 1.06615 0
M  V30 5961 C 568.075 -1.60791 0.0173905 0
M  V30 5962 O 569.265 -1.72249 0.260003 0
M  V30 5963 C 566.397 -3.35219 0.619751 0
M  V30 5964 H 567.59 -2.21302 2.02399 0
M  V30 5965 H 565.143 -1.12772 1.08223 0
M  V30 5966 H 565.878 -3.22508 -0.340486 0
M  V30 5967 H 565.663 -3.67129 1.37692 0
M  V30 5968 H 567.153 -4.14505 0.507443 0
M  V30 5969 N 567.59 -1.07411 -1.15328 0
M  V30 5970 C 568.839 -0.792643 -1.85473 0
M  V30 5971 C 569.152 0.683789 -1.83259 0
M  V30 5972 O 570.358 1.08005 -2.49093 0
M  V30 5973 C 568.814 -1.36787 -3.32892 0
M  V30 5974 C 568.422 -2.87536 -3.43551 0
M  V30 5975 C 570.166 -1.16444 -4.08217 0
M  V30 5976 C 568.073 -3.38247 -4.85122 0
M  V30 5977 H 567.003 -0.292838 -0.694811 0
M  V30 5978 H 569.654 -1.29426 -1.30082 0
M  V30 5979 H 568.036 -0.793993 -3.87958 0
M  V30 5980 H 569.21 -3.50973 -2.98588 0
M  V30 5981 H 567.525 -3.06676 -2.81672 0
M  V30 5982 H 570.122 -1.51808 -5.12697 0
M  V30 5983 H 570.465 -0.10353 -4.16171 0
M  V30 5984 H 570.998 -1.70472 -3.59422 0
M  V30 5985 H 567.737 -4.43866 -4.82351 0
M  V30 5986 H 567.257 -2.79564 -5.30664 0
M  V30 5987 H 568.936 -3.34238 -5.5398 0
M  V30 5988 N 569.068 1.32177 -0.85831 0
M  V30 5989 C 570.293 2.01847 -0.476718 0
M  V30 5990 C 570.718 1.64065 0.920021 0
M  V30 5991 O 570.076 0.843189 1.60499 0
M  V30 5992 C 570.124 3.55097 -0.627578 0
M  V30 5993 O 569.228 4.11012 0.338086 0
M  V30 5994 H 568.569 0.635907 -0.191099 0
M  V30 5995 H 571.099 1.68641 -1.15851 0
M  V30 5996 H 571.109 4.04718 -0.516476 0
M  V30 5997 H 569.784 3.81938 -1.64609 0
M  V30 5998 H 568.361 3.72451 0.182917 0
M  V30 5999 N 570.547 0.616602 1.45037 0
M  V30 6000 C 571.479 -0.135186 2.28801 0
M  V30 6001 C 572.492 -0.82303 1.40464 0
M  V30 6002 O 573.681 -0.686909 1.64754 0
M  V30 6003 C 570.781 -1.21292 3.16451 0
M  V30 6004 C 569.954 -0.61043 4.3312 0
M  V30 6005 C 569.013 -1.58022 5.01912 0
M  V30 6006 O 568.039 -1.10301 5.58411 0
M  V30 6007 N 569.241 -2.91464 5.02025 0
M  V30 6008 H 572.006 0.583612 2.93963 0
M  V30 6009 H 569.567 0.456723 1.55324 0
M  V30 6010 H 571.559 -1.86169 3.59337 0
M  V30 6011 H 570.129 -1.83412 2.53138 0
M  V30 6012 H 569.349 0.216638 3.93604 0
M  V30 6013 H 570.637 -0.188293 5.08451 0
M  V30 6014 H 570.035 -3.32829 4.57429 0
M  V30 6015 H 568.592 -3.51741 5.48745 0
M  V30 6016 N 572.025 -1.5352 0.356285 0
M  V30 6017 C 573.25 -2.06007 -0.239961 0
M  V30 6018 C 573.675 -1.22872 -1.42422 0
M  V30 6019 O 573.033 -0.245516 -1.7963 0
M  V30 6020 C 573.081 -3.5522 -0.620587 0
M  V30 6021 O 572.185 -3.74864 -1.71902 0
M  V30 6022 H 571.526 -0.662961 -0.0371377 0
M  V30 6023 H 574.056 -1.98033 0.514194 0
M  V30 6024 H 574.066 -3.98081 -0.894197 0
M  V30 6025 H 572.741 -4.15175 0.245407 0
M  V30 6026 H 571.318 -3.43904 -1.44169 0
M  V30 6027 N 573.503 -0.0852151 -1.57369 0
M  V30 6028 C 574.728 0.592872 -1.98746 0
M  V30 6029 C 575.153 1.61538 -0.963689 0
M  V30 6030 O 574.511 1.81168 0.069071 0
M  V30 6031 C 574.559 1.22599 -3.39119 0
M  V30 6032 O 573.663 2.34185 -3.39457 0
M  V30 6033 H 573.004 0.151314 -0.646529 0
M  V30 6034 H 575.534 -0.163703 -2.03944 0
M  V30 6035 H 575.544 1.56965 -3.76598 0
M  V30 6036 H 574.219 0.476831 -4.13158 0
M  V30 6037 H 572.796 2.01512 -3.13763 0
M  V30 6038 N 574.981 1.5647 0.188427 0
M  V30 6039 C 576.209 1.85131 0.923803 0
M  V30 6040 C 576.624 0.668537 1.76567 0
M  V30 6041 O 575.981 -0.362662 1.7886 0
M  V30 6042 C 576.032 3.12661 1.81453 0
M  V30 6043 O 575.753 4.26378 1.00665 0
M  V30 6044 C 577.254 3.54548 2.66103 0
M  V30 6045 H 574.474 0.614624 0.269218 0
M  V30 6046 H 577.018 2.03581 0.193671 0
M  V30 6047 H 575.173 2.96088 2.49821 0
M  V30 6048 H 575.587 4.99041 1.61425 0
M  V30 6049 H 577.061 4.4673 3.24247 0
M  V30 6050 H 577.538 2.77853 3.40139 0
M  V30 6051 H 578.144 3.73674 2.03096 0
M  V30 6052 N 576.459 -0.456382 1.50847 0
M  V30 6053 C 577.707 -1.20497 1.62249 0
M  V30 6054 C 578.028 -1.92156 0.331839 0
M  V30 6055 O 577.298 -1.84751 -0.651443 0
M  V30 6056 H 575.878 -0.447775 0.597918 0
M  V30 6057 H 578.54 -0.525099 1.87693 0
M  V30 6058 H 577.636 -1.94492 2.44089 0
M  V30 6059 N 577.937 -1.40673 -0.710563 0
M  V30 6060 C 579.165 -1.42547 -1.4996 0
M  V30 6061 C 579.58 -0.0265485 -1.88781 0
M  V30 6062 O 578.937 0.950694 -1.55782 0
M  V30 6063 C 578.988 -2.32071 -2.77173 0
M  V30 6064 O 578.709 -3.66518 -2.39992 0
M  V30 6065 C 580.21 -2.42591 -3.71032 0
M  V30 6066 H 577.43 -0.486025 -0.462623 0
M  V30 6067 H 579.974 -1.84783 -0.876102 0
M  V30 6068 H 578.129 -1.93184 -3.35795 0
M  V30 6069 H 578.543 -4.14115 -3.21884 0
M  V30 6070 H 580.017 -3.09429 -4.57119 0
M  V30 6071 H 580.494 -1.4525 -4.14486 0
M  V30 6072 H 581.1 -2.82051 -3.18319 0
M  V30 6073 N 579.415 0.9433 -1.26252 0
M  V30 6074 C 580.661 1.69175 -1.11837 0
M  V30 6075 C 580.994 1.91238 0.337891 0
M  V30 6076 O 580.269 1.49152 1.24836 0
M  V30 6077 C 580.552 3.06783 -1.88563 0
M  V30 6078 C 580.405 2.9206 -3.42083 0
M  V30 6079 C 581.724 4.06865 -1.67776 0
M  V30 6080 H 578.843 0.61399 -0.407658 0
M  V30 6081 H 581.485 1.09572 -1.55222 0
M  V30 6082 H 579.635 3.57663 -1.51689 0
M  V30 6083 H 581.307 2.48419 -3.88698 0
M  V30 6084 H 579.55 2.27731 -3.69217 0
M  V30 6085 H 580.221 3.89651 -3.90994 0
M  V30 6086 H 582.697 3.64939 -1.99897 0
M  V30 6087 H 581.573 5.01168 -2.23879 0
M  V30 6088 H 581.834 4.37705 -0.621816 0
M  V30 6089 N 580.893 1.08022 1.14757 0
M  V30 6090 C 581.826 0.650738 2.18725 0
M  V30 6091 C 582.804 -0.335496 1.59101 0
M  V30 6092 O 583.988 -0.240295 1.86962 0
M  V30 6093 C 581.115 -0.0434377 3.38672 0
M  V30 6094 C 580.161 0.90232 4.16846 0
M  V30 6095 S 580.994 2.40693 4.78359 0
M  V30 6096 C 582.15 1.72475 6.01667 0
M  V30 6097 H 582.383 1.53152 2.54817 0
M  V30 6098 H 579.916 0.894823 1.25826 0
M  V30 6099 H 581.874 -0.437684 4.0816 0
M  V30 6100 H 580.535 -0.900659 3.0091 0
M  V30 6101 H 579.728 0.363445 5.02688 0
M  V30 6102 H 579.33 1.23728 3.52941 0
M  V30 6103 H 581.622 1.0404 6.69464 0
M  V30 6104 H 582.565 2.56175 6.60136 0
M  V30 6105 H 582.973 1.19979 5.51602 0
M  V30 6106 N 582.371 -1.3172 0.865308 0
M  V30 6107 C 583.619 -1.96487 0.472995 0
M  V30 6108 C 583.94 -1.68761 -0.976975 0
M  V30 6109 O 583.21 -1.00051 -1.68424 0
M  V30 6110 H 581.79 -0.726947 0.171922 0
M  V30 6111 H 584.452 -1.60612 1.10407 0
M  V30 6112 H 583.548 -3.0574 0.62687 0
M  V30 6113 N 583.85 -0.624285 -1.44708 0
M  V30 6114 C 584.812 0.0749638 -2.29077 0
M  V30 6115 C 585.812 0.778965 -1.40673 0
M  V30 6116 O 587.003 0.624591 -1.62618 0
M  V30 6117 C 584.135 1.11663 -3.22094 0
M  V30 6118 H 585.327 -0.667013 -2.92388 0
M  V30 6119 H 582.88 -0.384098 -1.51507 0
M  V30 6120 H 583.615 1.88881 -2.63618 0
M  V30 6121 H 583.401 0.61583 -3.87234 0
M  V30 6122 H 584.891 1.60585 -3.8549 0
M  V30 6123 N 585.328 1.53329 -0.364422 0
M  V30 6124 C 586.574 2.01537 0.225969 0
M  V30 6125 C 586.907 1.25128 1.48515 0
M  V30 6126 O 586.182 0.344653 1.91422 0
M  V30 6127 C 586.465 3.56339 0.519092 0
M  V30 6128 C 586.318 4.43441 -0.753639 0
M  V30 6129 C 587.637 4.19833 1.32015 0
M  V30 6130 H 584.756 0.732573 0.0806548 0
M  V30 6131 H 587.398 1.83597 -0.489084 0
M  V30 6132 H 585.548 3.71756 1.12825 0
M  V30 6133 H 587.22 4.39823 -1.39116 0
M  V30 6134 H 585.463 4.11457 -1.37424 0
M  V30 6135 H 586.134 5.49699 -0.503517 0
M  V30 6136 H 588.61 4.08242 0.804859 0
M  V30 6137 H 587.486 5.28177 1.49399 0
M  V30 6138 H 587.747 3.75821 2.32832 0
M  V30 6139 N 586.806 0.0935595 1.57322 0
M  V30 6140 C 588.055 -0.570191 1.93473 0
M  V30 6141 C 588.368 -1.69434 0.977318 0
M  V30 6142 O 589.574 -2.41914 1.23248 0
M  V30 6143 C 588.03 -1.06564 3.43762 0
M  V30 6144 C 587.638 0.0286723 4.47991 0
M  V30 6145 C 589.382 -1.70221 3.88877 0
M  V30 6146 C 587.289 -0.482046 5.89432 0
M  V30 6147 H 586.219 -0.216764 0.72217 0
M  V30 6148 H 588.87 0.169313 1.82717 0
M  V30 6149 H 587.252 -1.85878 3.49664 0
M  V30 6150 H 588.426 0.804106 4.5373 0
M  V30 6151 H 586.741 0.570336 4.12476 0
M  V30 6152 H 589.338 -2.09502 4.91948 0
M  V30 6153 H 589.681 -2.57078 3.27439 0
M  V30 6154 H 590.214 -0.974919 3.85668 0
M  V30 6155 H 586.953 0.349871 6.54566 0
M  V30 6156 H 586.473 -1.22452 5.87167 0
M  V30 6157 H 588.152 -0.951508 6.39965 0
M  V30 6158 N 588.284 -1.56567 -0.180126 0
M  V30 6159 C 589.217 -1.90813 -1.25163 0
M  V30 6160 C 590.195 -0.7699 -1.43218 0
M  V30 6161 O 591.379 -1.02236 -1.58367 0
M  V30 6162 C 588.506 -2.15138 -2.61597 0
M  V30 6163 C 587.552 -3.37834 -2.60328 0
M  V30 6164 S 588.385 -4.92486 -2.1028 0
M  V30 6165 C 589.541 -5.19896 -3.48509 0
M  V30 6166 H 589.774 -2.81398 -0.959283 0
M  V30 6167 H 587.307 -1.49541 -0.3843 0
M  V30 6168 H 589.265 -2.29835 -3.40127 0
M  V30 6169 H 587.926 -1.25276 -2.88036 0
M  V30 6170 H 587.119 -3.52027 -3.60684 0
M  V30 6171 H 586.721 -3.22208 -1.8989 0
M  V30 6172 H 589.013 -5.11334 -4.44459 0
M  V30 6173 H 589.956 -6.21571 -3.39198 0
M  V30 6174 H 590.364 -4.47489 -3.44114 0
M  V30 6175 N 589.762 0.448376 -1.51087 0
M  V30 6176 C 590.672 1.56882 -1.74428 0
M  V30 6177 C 591.688 1.62268 -0.62809 0
M  V30 6178 O 592.864 1.79716 -0.909075 0
M  V30 6179 C 589.929 2.92947 -1.85426 0
M  V30 6180 C 588.99 2.97766 -3.09247 0
M  V30 6181 C 588.223 4.27341 -3.19711 0
M  V30 6182 O 588.446 5.19112 -2.36387 0
M  V30 6183 O 587.38 4.38219 -4.12611 0
M  V30 6184 H 591.206 1.40104 -2.69452 0
M  V30 6185 H 588.791 0.630247 -1.35456 0
M  V30 6186 H 590.673 3.73719 -1.94709 0
M  V30 6187 H 589.348 3.09876 -0.935887 0
M  V30 6188 H 588.255 2.15989 -3.0545 0
M  V30 6189 H 589.588 2.8578 -4.00738 0
M  V30 6190 N 591.24 1.41047 0.703093 0
M  V30 6191 C 592.488 1.39723 1.4602 0
M  V30 6192 C 592.809 0.00461257 1.94999 0
M  V30 6193 O 592.079 -0.952292 1.71196 0
M  V30 6194 H 590.659 0.514281 0.541779 0
M  V30 6195 H 593.321 1.76217 0.832678 0
M  V30 6196 H 592.417 2.07982 2.32701 0
M  V30 6197 N 592.718 -0.936591 1.26751 0
M  V30 6198 C 593.965 -1.68331 1.12566 0
M  V30 6199 C 594.293 -1.91677 -0.330168 0
M  V30 6200 O 593.548 -1.49859 -1.2586 0
M  V30 6201 C 593.847 -3.06099 1.84494 0
M  V30 6202 C 593.513 -3.02493 3.34378 0
M  V30 6203 C 592.175 -3.01217 3.75262 0
M  V30 6204 C 594.527 -2.94453 4.30055 0
M  V30 6205 C 591.855 -2.89672 5.10203 0
M  V30 6206 C 594.207 -2.84449 5.65041 0
M  V30 6207 C 592.871 -2.81518 6.0523 0
M  V30 6208 H 592.141 -0.615965 0.411907 0
M  V30 6209 H 594.788 -1.09292 1.5725 0
M  V30 6210 H 593.093 -3.6879 1.32292 0
M  V30 6211 H 594.79 -3.62733 1.70955 0
M  V30 6212 H 591.38 -3.04269 3.01858 0
M  V30 6213 H 595.564 -2.94544 3.99447 0
M  V30 6214 H 590.82 -2.85783 5.40498 0
M  V30 6215 H 594.994 -2.77192 6.38856 0
M  V30 6216 H 592.621 -2.72329 7.09747 0
M  V30 6217 N 594.196 -1.08629 -1.14182 0
M  V30 6218 C 595.426 -0.837673 -1.88856 0
M  V30 6219 C 595.834 0.614024 -1.78959 0
M  V30 6220 O 595.177 1.43384 -1.14833 0
M  V30 6221 C 595.239 -1.18355 -3.39459 0
M  V30 6222 C 594.903 -2.63848 -3.73139 0
M  V30 6223 C 595.9 -3.62099 -3.73069 0
M  V30 6224 C 593.585 -2.99761 -4.03049 0
M  V30 6225 C 595.579 -4.94292 -4.02435 0
M  V30 6226 C 593.266 -4.32147 -4.32078 0
M  V30 6227 C 594.264 -5.29223 -4.31755 0
M  V30 6228 O 593.952 -6.59229 -4.60079 0
M  V30 6229 H 593.684 -0.301609 -0.604986 0
M  V30 6230 H 596.238 -1.44961 -1.45518 0
M  V30 6231 H 594.468 -0.514628 -3.8326 0
M  V30 6232 H 596.157 -0.915391 -3.95443 0
M  V30 6233 H 596.923 -3.35698 -3.50046 0
M  V30 6234 H 592.802 -2.2484 -4.02453 0
M  V30 6235 H 596.346 -5.70055 -4.02098 0
M  V30 6236 H 592.243 -4.58296 -4.54571 0
M  V30 6237 H 593.011 -6.64578 -4.77785 0
M  V30 6238 N 595.674 1.31259 -0.872281 0
M  V30 6239 C 596.92 1.96913 -0.485083 0
M  V30 6240 C 597.253 1.68774 0.960667 0
M  V30 6241 O 596.528 0.985495 1.67685 0
M  V30 6242 C 596.811 3.52299 -0.745502 0
M  V30 6243 C 596.664 3.90002 -2.24095 0
M  V30 6244 C 597.983 4.39582 -0.213516 0
M  V30 6245 H 595.102 0.715252 -0.177716 0
M  V30 6246 H 597.744 1.55347 -1.09395 0
M  V30 6247 H 595.894 3.87835 -0.227276 0
M  V30 6248 H 597.566 3.64555 -2.82661 0
M  V30 6249 H 595.809 3.38526 -2.71261 0
M  V30 6250 H 596.48 4.98352 -2.37381 0
M  V30 6251 H 598.956 4.10882 -0.656902 0
M  V30 6252 H 597.832 5.47251 -0.42516 0
M  V30 6253 H 598.093 4.33158 0.884666 0
M  V30 6254 N 597.152 0.631951 1.44375 0
M  V30 6255 C 598.398 0.13697 2.02337 0
M  V30 6256 C 598.731 -1.23826 1.49602 0
M  V30 6257 O 598.006 -1.8221 0.680415 0
M  V30 6258 C 598.289 0.124536 3.59885 0
M  V30 6259 C 598.142 1.53217 4.229 0
M  V30 6260 C 599.461 -0.550481 4.36644 0
M  V30 6261 H 596.58 0.051247 0.735216 0
M  V30 6262 H 599.222 0.808581 1.71936 0
M  V30 6263 H 597.372 -0.44737 3.85916 0
M  V30 6264 H 599.044 2.15303 4.07973 0
M  V30 6265 H 597.287 2.0858 3.80364 0
M  V30 6266 H 597.958 1.4755 5.31914 0
M  V30 6267 H 600.434 -0.0641154 4.16051 0
M  V30 6268 H 599.31 -0.528371 5.46351 0
M  V30 6269 H 599.571 -1.62097 4.11311 0
M  V30 6270 N 598.631 -1.53133 0.372548 0
M  V30 6271 C 599.878 -2.01356 -0.214959 0
M  V30 6272 C 600.206 -1.2596 -1.48204 0
M  V30 6273 O 599.461 -0.343511 -1.92662 0
M  V30 6274 C 599.76 -3.53206 -0.545938 0
M  V30 6275 C 599.426 -4.46511 0.627624 0
M  V30 6276 C 598.088 -4.71737 0.949615 0
M  V30 6277 C 600.44 -5.01666 1.41353 0
M  V30 6278 C 597.768 -5.4937 2.05936 0
M  V30 6279 C 600.12 -5.80511 2.51375 0
M  V30 6280 C 598.784 -6.04022 2.84101 0
M  V30 6281 H 598.054 -0.736813 -0.078659 0
M  V30 6282 H 600.701 -1.84682 0.506447 0
M  V30 6283 H 599.006 -3.67864 -1.34845 0
M  V30 6284 H 600.703 -3.87997 -1.01287 0
M  V30 6285 H 597.293 -4.27029 0.366635 0
M  V30 6286 H 601.477 -4.82117 1.17802 0
M  V30 6287 H 596.733 -5.65803 2.31682 0
M  V30 6288 H 600.907 -6.22255 3.12684 0
M  V30 6289 H 598.534 -6.63962 3.70214 0
M  V30 6290 N 600.109 -0.101901 -1.5727 0
M  V30 6291 C 601.386 0.602832 -1.86079 0
M  V30 6292 C 601.766 1.85912 -1 0
M  V30 6293 O 601.114 2.28379 -0.0742488 0
M  V30 6294 C 601.324 0.911694 -3.36881 0
M  V30 6295 C 602.672 1.2722 -4.05093 0
M  V30 6296 O 603.696 1.0025 -3.41802 0
M  V30 6297 O 602.555 1.7776 -5.16782 0
M  V30 6298 H 599.649 0.302366 -0.769743 0
M  V30 6299 H 602.195 -0.135113 -1.69161 0
M  V30 6300 H 600.967 0.0207256 -3.91295 0
M  V30 6301 H 600.59 1.70538 -3.59169 0
M  V30 6302 N 601.587 1.56661 0.17182 0
M  V30 6303 C 603.003 1.50768 0.52357 0
M  V30 6304 C 603.203 0.806072 1.84675 0
M  V30 6305 O 602.259 0.366233 2.4983 0
M  V30 6306 C 603.572 2.955 0.556793 0
M  V30 6307 C 605.12 3.06303 0.644029 0
M  V30 6308 C 605.595 4.52492 0.708148 0
M  V30 6309 N 607.086 4.56737 0.771051 0
M  V30 6310 C 607.821 5.67196 0.841229 0
M  V30 6311 N 607.317 6.87287 0.872272 0
M  V30 6312 N 609.11 5.55165 0.88021 0
M  V30 6313 H 601.261 2.00679 -0.695817 0
M  V30 6314 H 603.524 0.914219 -0.250814 0
M  V30 6315 H 603.23 3.49986 -0.346774 0
M  V30 6316 H 603.104 3.50119 1.40346 0
M  V30 6317 H 605.491 2.51851 1.53802 0
M  V30 6318 H 605.572 2.5477 -0.229297 0
M  V30 6319 H 605.216 5.07575 -0.181585 0
M  V30 6320 H 605.146 5.01781 1.59761 0
M  V30 6321 H 607.637 3.70274 0.755364 0
M  V30 6322 H 607.95 7.6722 0.92698 0
M  V30 6323 H 606.295 6.89898 0.840557 0
M  V30 6324 H 609.486 4.60263 0.852956 0
M  V30 6325 H 609.659 6.41271 0.931439 0
M  V30 6326 N 603.065 -0.440357 1.51323 0
M  V30 6327 C 604.028 -1.51679 1.71832 0
M  V30 6328 C 605.028 -1.49648 0.588386 0
M  V30 6329 O 606.218 -1.51724 0.855891 0
M  V30 6330 C 603.35 -2.91228 1.77199 0
M  V30 6331 H 604.543 -1.34799 2.67898 0
M  V30 6332 H 602.096 -0.66883 1.41267 0
M  V30 6333 H 602.831 -3.13516 0.829363 0
M  V30 6334 H 602.616 -2.94107 2.59314 0
M  V30 6335 H 604.106 -3.69321 1.94915 0
M  V30 6336 N 604.543 -1.41418 -0.695603 0
M  V30 6337 C 605.959 -1.23887 -1.00619 0
M  V30 6338 C 606.159 -0.128206 -2.01092 0
M  V30 6339 O 605.215 0.507408 -2.47349 0
M  V30 6340 C 606.528 -2.58816 -1.53083 0
M  V30 6341 C 608.076 -2.65998 -1.64967 0
M  V30 6342 C 608.551 -4.01244 -2.20833 0
M  V30 6343 N 610.042 -4.0309 -2.28194 0
M  V30 6344 C 610.777 -5.04539 -2.72448 0
M  V30 6345 N 610.273 -6.16378 -3.16306 0
M  V30 6346 N 612.066 -4.91901 -2.72011 0
M  V30 6347 H 604.217 -2.12379 -0.0300061 0
M  V30 6348 H 606.48 -0.944958 -0.0758797 0
M  V30 6349 H 606.186 -3.40842 -0.867147 0
M  V30 6350 H 606.06 -2.81299 -2.51298 0
M  V30 6351 H 608.447 -1.84331 -2.30448 0
M  V30 6352 H 608.528 -2.47325 -0.652982 0
M  V30 6353 H 608.172 -4.83359 -1.55968 0
M  V30 6354 H 608.102 -4.17257 -3.21254 0
M  V30 6355 H 610.593 -3.22341 -1.97242 0
M  V30 6356 H 610.906 -6.89658 -3.487 0
M  V30 6357 H 609.251 -6.19914 -3.14215 0
M  V30 6358 H 612.442 -4.03613 -2.37095 0
M  V30 6359 H 612.615 -5.71102 -3.06181 0
M  V30 6360 N 606.021 0.929856 -1.27246 0
M  V30 6361 C 606.968 2.03017 -1.09785 0
M  V30 6362 C 607.938 1.661 0.000456744 0
M  V30 6363 O 609.123 1.90116 -0.161462 0
M  V30 6364 C 606.263 3.36878 -0.748816 0
M  V30 6365 C 605.376 3.86763 -1.92453 0
M  V30 6366 C 604.511 5.09061 -1.51758 0
M  V30 6367 C 603.55 5.51237 -2.66091 0
M  V30 6368 N 602.687 6.64732 -2.25999 0
M  V30 6369 H 607.527 2.17285 -2.03939 0
M  V30 6370 H 605.064 1.06448 -1.01524 0
M  V30 6371 H 607.022 4.13855 -0.527283 0
M  V30 6372 H 605.652 3.22424 0.155771 0
M  V30 6373 H 604.704 3.06086 -2.25867 0
M  V30 6374 H 606.016 4.13994 -2.78227 0
M  V30 6375 H 605.17 5.93532 -1.25716 0
M  V30 6376 H 603.909 4.83602 -0.630896 0
M  V30 6377 H 602.914 4.65316 -2.92849 0
M  V30 6378 H 604.139 5.78692 -3.55377 0
M  V30 6379 H 602.085 6.40935 -1.3978 0
M  V30 6380 H 602.002 6.91607 -3.05313 0
M  V30 6381 H 603.27 7.52549 -2.03199 0
M  V30 6382 N 607.499 1.09233 1.13605 0
M  V30 6383 C 608.915 0.82163 1.36826 0
M  V30 6384 C 609.115 -0.565021 1.93416 0
M  V30 6385 O 608.171 -1.32026 2.15234 0
M  V30 6386 C 609.484 1.91124 2.32147 0
M  V30 6387 C 611.032 1.93824 2.45767 0
M  V30 6388 C 611.507 3.01923 3.44393 0
M  V30 6389 N 612.998 3.01149 3.51942 0
M  V30 6390 C 613.733 3.81434 4.2813 0
M  V30 6391 N 613.229 4.71621 5.07489 0
M  V30 6392 N 615.022 3.69702 4.23411 0
M  V30 6393 H 607.173 1.98633 0.752234 0
M  V30 6394 H 609.436 0.862482 0.393482 0
M  V30 6395 H 609.142 2.90862 1.97717 0
M  V30 6396 H 609.016 1.78777 3.32142 0
M  V30 6397 H 611.403 0.94726 2.79483 0
M  V30 6398 H 611.484 2.10248 1.45703 0
M  V30 6399 H 611.128 4.01232 3.11408 0
M  V30 6400 H 611.058 2.82742 4.44257 0
M  V30 6401 H 613.549 2.35789 2.95317 0
M  V30 6402 H 613.862 5.29468 5.62924 0
M  V30 6403 H 612.207 4.75658 5.06729 0
M  V30 6404 H 615.398 2.98606 3.60489 0
M  V30 6405 H 615.571 4.32509 4.82535 0
M  V30 6406 N 608.977 -1.30795 0.87923 0
M  V30 6407 C 610.226 -1.95636 0.490875 0
M  V30 6408 C 610.539 -1.70214 -0.963674 0
M  V30 6409 O 611.745 -2.28991 -1.45861 0
M  V30 6410 C 610.201 -3.50271 0.826929 0
M  V30 6411 C 609.809 -3.84521 2.29886 0
M  V30 6412 C 611.553 -4.21456 0.507494 0
M  V30 6413 C 609.46 -5.32309 2.57685 0
M  V30 6414 H 608.39 -0.732238 0.179841 0
M  V30 6415 H 611.041 -1.48829 1.07341 0
M  V30 6416 H 609.423 -3.9562 0.173542 0
M  V30 6417 H 610.597 -3.50102 2.99609 0
M  V30 6418 H 608.912 -3.26425 2.58526 0
M  V30 6419 H 611.509 -5.30199 0.692293 0
M  V30 6420 H 611.852 -4.12614 -0.552718 0
M  V30 6421 H 612.385 -3.81772 1.11782 0
M  V30 6422 H 609.124 -5.46195 3.62424 0
M  V30 6423 H 608.644 -5.68048 1.92566 0
M  V30 6424 H 610.323 -5.99678 2.42889 0
M  V30 6425 N 610.455 -0.639598 -1.44038 0
M  V30 6426 C 611.703 -0.147188 -2.01563 0
M  V30 6427 C 612.024 1.2384 -1.50628 0
M  V30 6428 O 611.294 1.82452 -0.713316 0
M  V30 6429 H 609.874 -0.0514231 -0.745228 0
M  V30 6430 H 612.536 -0.828205 -1.76428 0
M  V30 6431 H 611.632 -0.121358 -3.11864 0
M  V30 6432 N 611.933 1.52934 -0.380664 0
M  V30 6433 C 613.18 2.01467 0.204278 0
M  V30 6434 C 613.508 1.26744 1.47533 0
M  V30 6435 O 612.763 0.353723 1.92477 0
M  V30 6436 C 613.062 3.5349 0.527199 0
M  V30 6437 C 612.728 4.46171 -0.651295 0
M  V30 6438 C 611.39 4.71227 -0.974619 0
M  V30 6439 C 613.742 5.00909 -1.44012 0
M  V30 6440 C 611.07 5.4827 -2.08847 0
M  V30 6441 C 613.422 5.7917 -2.5445 0
M  V30 6442 C 612.086 6.02507 -2.87301 0
M  V30 6443 H 611.356 0.73722 0.0747504 0
M  V30 6444 H 614.003 1.84411 -0.516234 0
M  V30 6445 H 612.308 3.68574 1.32892 0
M  V30 6446 H 614.005 3.88529 0.992283 0
M  V30 6447 H 610.595 4.26829 -0.389276 0
M  V30 6448 H 614.779 4.81485 -1.20357 0
M  V30 6449 H 610.035 5.64567 -2.34679 0
M  V30 6450 H 614.209 6.20588 -3.1598 0
M  V30 6451 H 611.836 6.61989 -3.7373 0
M  V30 6452 N 613.412 0.11024 1.57214 0
M  V30 6453 C 614.375 -0.828808 2.1369 0
M  V30 6454 C 615.375 -1.20059 1.06969 0
M  V30 6455 O 616.565 -1.12754 1.32786 0
M  V30 6456 C 613.697 -2.11959 2.66994 0
M  V30 6457 H 614.89 -0.338146 2.97988 0
M  V30 6458 H 612.443 -0.138913 1.55681 0
M  V30 6459 H 613.178 -2.65476 1.8626 0
M  V30 6460 H 612.963 -1.86258 3.45037 0
M  V30 6461 H 614.453 -2.79105 3.10629 0
M  V30 6462 N 614.89 -1.56749 -0.16351 0
M  V30 6463 C 616.136 -1.82704 -0.880168 0
M  V30 6464 C 616.469 -0.689311 -1.81555 0
M  V30 6465 O 615.744 0.308224 -1.92042 0
M  V30 6466 C 616.027 -3.19084 -1.66905 0
M  V30 6467 C 615.88 -4.43397 -0.756269 0
M  V30 6468 C 617.199 -3.52493 -2.63509 0
M  V30 6469 H 614.318 -0.664608 -0.318535 0
M  V30 6470 H 616.96 -1.89438 -0.146036 0
M  V30 6471 H 615.11 -3.13475 -2.2949 0
M  V30 6472 H 616.782 -4.61079 -0.14269 0
M  V30 6473 H 615.025 -4.33752 -0.0647944 0
M  V30 6474 H 615.696 -5.3539 -1.34393 0
M  V30 6475 H 618.172 -3.58606 -2.11047 0
M  V30 6476 H 617.048 -4.48979 -3.15767 0
M  V30 6477 H 617.309 -2.77597 -3.44082 0
M  V30 6478 N 616.368 0.432326 -1.51554 0
M  V30 6479 C 617.593 1.20824 -1.68571 0
M  V30 6480 C 618.018 1.84126 -0.384596 0
M  V30 6481 O 617.376 1.69025 0.655751 0
M  V30 6482 C 617.424 2.26429 -2.80646 0
M  V30 6483 O 616.528 3.32032 -2.44598 0
M  V30 6484 H 615.869 0.353765 -0.561913 0
M  V30 6485 H 618.399 0.509916 -1.98144 0
M  V30 6486 H 618.409 2.71133 -3.04878 0
M  V30 6487 H 617.084 1.79733 -3.75058 0
M  V30 6488 H 615.661 2.92769 -2.30956 0
M  V30 6489 N 617.846 1.41785 0.688094 0
M  V30 6490 C 618.809 1.43936 1.78368 0
M  V30 6491 C 619.809 0.328866 1.57401 0
M  V30 6492 O 620.999 0.589093 1.63937 0
M  V30 6493 C 618.131 1.25804 3.16838 0
M  V30 6494 H 619.324 2.41472 1.77852 0
M  V30 6495 H 616.877 1.28037 0.896448 0
M  V30 6496 H 617.612 0.291386 3.22988 0
M  V30 6497 H 617.397 2.06272 3.33458 0
M  V30 6498 H 618.887 1.30162 3.96797 0
M  V30 6499 N 619.324 -0.923095 1.27737 0
M  V30 6500 C 620.564 -1.6858 1.15586 0
M  V30 6501 C 620.928 -1.89758 -0.292562 0
M  V30 6502 O 622.129 -2.6339 -0.536583 0
M  V30 6503 C 620.4 -3.01275 1.92271 0
M  V30 6504 S 621.959 -3.924 1.96387 0
M  V30 6505 H 618.777 -0.579069 0.412554 0
M  V30 6506 H 621.379 -1.09866 1.61709 0
M  V30 6507 H 620.083 -2.83556 2.96689 0
M  V30 6508 H 619.614 -3.6504 1.46661 0
M  V30 6509 H 621.629 -4.84667 1.06361 0
M  V30 6510 N 620.802 -1.09834 -1.13024 0
M  V30 6511 C 621.752 -0.710899 -2.16634 0
M  V30 6512 C 622.736 0.276836 -1.58501 0
M  V30 6513 O 623.928 0.0865457 -1.76788 0
M  V30 6514 C 621.057 -0.137574 -3.43024 0
M  V30 6515 C 620.143 -1.15198 -4.08155 0
M  V30 6516 N 620.534 -2.34054 -4.48388 0
M  V30 6517 C 618.832 -0.991074 -4.34849 0
M  V30 6518 C 619.533 -2.98616 -4.99203 0
M  V30 6519 N 618.509 -2.26159 -4.94321 0
M  V30 6520 H 622.311 -1.61576 -2.455 0
M  V30 6521 H 619.825 -0.975158 -1.29863 0
M  V30 6522 H 621.822 0.158031 -4.166 0
M  V30 6523 H 620.482 0.762088 -3.1563 0
M  V30 6524 H 621.493 -2.7162 -4.40957 0
M  V30 6525 H 618.17 -0.146448 -4.17243 0
M  V30 6526 H 619.56 -3.99683 -5.40096 0
M  V30 6527 N 622.28 1.30327 -0.886154 0
M  V30 6528 C 623.526 1.96388 -0.505941 0
M  V30 6529 C 623.859 1.69784 0.942712 0
M  V30 6530 O 623.134 1.00322 1.6663 0
M  V30 6531 C 623.417 3.51488 -0.782826 0
M  V30 6532 C 623.27 3.87603 -2.28219 0
M  V30 6533 C 624.589 4.39331 -0.260128 0
M  V30 6534 H 621.708 0.713327 -0.185292 0
M  V30 6535 H 624.35 1.54178 -1.11036 0
M  V30 6536 H 622.5 3.87572 -0.268399 0
M  V30 6537 H 624.172 3.61537 -2.86512 0
M  V30 6538 H 622.415 3.3563 -2.74837 0
M  V30 6539 H 623.086 4.95806 -2.42653 0
M  V30 6540 H 625.562 4.10162 -0.700444 0
M  V30 6541 H 624.438 5.46769 -0.483179 0
M  V30 6542 H 624.699 4.34072 0.838674 0
M  V30 6543 N 623.758 0.647228 1.43697 0
M  V30 6544 C 624.708 -0.0702191 2.27892 0
M  V30 6545 C 625.692 -0.800601 1.39568 0
M  V30 6546 O 626.884 -0.684055 1.63247 0
M  V30 6547 C 624.013 -1.04008 3.27165 0
M  V30 6548 C 623.099 -0.308484 4.22977 0
M  V30 6549 N 623.49 0.671721 5.0132 0
M  V30 6550 C 621.788 -0.550751 4.42586 0
M  V30 6551 C 622.489 1.10543 5.711 0
M  V30 6552 N 621.465 0.440903 5.41809 0
M  V30 6553 H 625.267 0.682031 2.85877 0
M  V30 6554 H 622.781 0.474022 1.55328 0
M  V30 6555 H 624.778 -1.56881 3.86256 0
M  V30 6556 H 623.438 -1.79246 2.70742 0
M  V30 6557 H 624.449 1.0502 5.0714 0
M  V30 6558 H 621.126 -1.28476 3.97241 0
M  V30 6559 H 622.516 1.91614 6.43998 0
M  V30 6560 N 625.236 -1.5273 0.388769 0
M  V30 6561 C 626.513 -1.93981 -0.251133 0
M  V30 6562 C 626.893 -1.32418 -1.64404 0
M  V30 6563 O 626.241 -0.492074 -2.23139 0
M  V30 6564 C 626.451 -3.47891 -0.27802 0
M  V30 6565 C 627.799 -4.21559 -0.507229 0
M  V30 6566 O 628.823 -3.54394 -0.358252 0
M  V30 6567 O 627.682 -5.40626 -0.799094 0
M  V30 6568 H 624.776 -0.812157 -0.15598 0
M  V30 6569 H 627.322 -1.63809 0.443237 0
M  V30 6570 H 626.094 -3.8503 0.697669 0
M  V30 6571 H 625.717 -3.84364 -1.01733 0
M  V30 6572 N 626.714 -0.118576 -1.57153 0
M  V30 6573 C 627.624 0.845484 -2.18835 0
M  V30 6574 C 628.64 1.29299 -1.16438 0
M  V30 6575 O 629.816 1.35607 -1.48905 0
M  V30 6576 C 626.881 2.07795 -2.77529 0
M  V30 6577 C 625.942 1.6824 -3.9496 0
M  V30 6578 C 625.175 2.85612 -4.50845 0
M  V30 6579 O 625.398 4.01025 -4.05629 0
M  V30 6580 O 624.332 2.62721 -5.41536 0
M  V30 6581 H 628.158 0.350568 -3.0167 0
M  V30 6582 H 625.743 0.107013 -1.49016 0
M  V30 6583 H 627.625 2.79978 -3.14945 0
M  V30 6584 H 626.3 2.56294 -1.97725 0
M  V30 6585 H 625.207 0.931663 -3.62313 0
M  V30 6586 H 626.54 1.24484 -4.76198 0
M  V30 6587 N 628.193 1.56834 0.155195 0
M  V30 6588 C 629.44 1.82898 0.869179 0
M  V30 6589 C 629.768 0.698194 1.81537 0
M  V30 6590 O 629.023 -0.313404 1.93174 0
M  V30 6591 C 629.322 3.15239 1.68402 0
M  V30 6592 C 628.988 4.42123 0.885341 0
M  V30 6593 C 627.65 4.76583 0.664971 0
M  V30 6594 C 630.002 5.20178 0.326234 0
M  V30 6595 C 627.33 5.86566 -0.125346 0
M  V30 6596 C 629.682 6.3099 -0.45108 0
M  V30 6597 C 628.346 6.64006 -0.682102 0
M  V30 6598 H 627.616 0.66927 0.318055 0
M  V30 6599 H 630.263 1.91036 0.133241 0
M  V30 6600 H 628.568 3.02515 2.48982 0
M  V30 6601 H 630.265 3.32618 2.23978 0
M  V30 6602 H 626.855 4.15102 1.06716 0
M  V30 6603 H 631.039 4.93936 0.483787 0
M  V30 6604 H 626.295 6.10594 -0.313915 0
M  V30 6605 H 630.469 6.9067 -0.89149 0
M  V30 6606 H 628.096 7.49065 -1.29636 0
M  V30 6607 N 629.671 -0.424282 1.51781 0
M  V30 6608 C 631.087 -0.761768 1.40247 0
M  V30 6609 C 631.287 -1.95324 0.495041 0
M  V30 6610 O 630.343 -2.5246 -0.0448949 0
M  V30 6611 C 631.656 -1.0299 2.82513 0
M  V30 6612 C 633.204 -1.13354 2.91753 0
M  V30 6613 C 633.679 -1.43453 4.34954 0
M  V30 6614 N 635.17 -1.5035 4.3812 0
M  V30 6615 C 635.905 -1.75236 5.45967 0
M  V30 6616 N 635.401 -1.97827 6.63955 0
M  V30 6617 N 637.194 -1.77126 5.33463 0
M  V30 6618 H 629.345 0.360228 2.09323 0
M  V30 6619 H 631.608 0.0988128 0.942836 0
M  V30 6620 H 631.314 -0.226961 3.50967 0
M  V30 6621 H 631.188 -1.95411 3.22637 0
M  V30 6622 H 633.575 -1.92709 2.23489 0
M  V30 6623 H 633.656 -0.188041 2.55108 0
M  V30 6624 H 633.3 -0.646209 5.03772 0
M  V30 6625 H 633.23 -2.3923 4.69123 0
M  V30 6626 H 635.721 -1.34742 3.53062 0
M  V30 6627 H 636.034 -2.16223 7.41935 0
M  V30 6628 H 634.379 -1.95123 6.67047 0
M  V30 6629 H 637.57 -1.59005 4.40267 0
M  V30 6630 H 637.743 -1.96182 6.17589 0
M  V30 6631 N 631.149 -1.42148 -0.680565 0
M  V30 6632 C 632.377 -1.45696 -1.46902 0
M  V30 6633 C 632.792 -0.0665858 -1.88683 0
M  V30 6634 O 632.149 0.917436 -1.57764 0
M  V30 6635 C 632.2 -2.37898 -2.72188 0
M  V30 6636 O 631.921 -3.71526 -2.32163 0
M  V30 6637 C 633.422 -2.50407 -3.65802 0
M  V30 6638 H 630.642 -0.495729 -0.45221 0
M  V30 6639 H 633.186 -1.866 -0.836709 0
M  V30 6640 H 631.341 -2.00263 -3.31622 0
M  V30 6641 H 631.755 -4.20849 -3.13027 0
M  V30 6642 H 633.229 -3.19056 -4.50452 0
M  V30 6643 H 633.706 -1.5401 -4.11312 0
M  V30 6644 H 634.312 -2.8874 -3.12265 0
M  V30 6645 N 632.627 0.916307 -1.28225 0
M  V30 6646 C 633.59 1.99996 -1.11957 0
M  V30 6647 C 634.59 1.60688 -0.0600152 0
M  V30 6648 O 635.78 1.71499 -0.30558 0
M  V30 6649 C 632.912 3.33458 -0.708411 0
M  V30 6650 H 634.105 2.15858 -2.08196 0
M  V30 6651 H 631.658 1.09863 -1.11175 0
M  V30 6652 H 632.393 3.23297 0.254859 0
M  V30 6653 H 632.178 3.63349 -1.47377 0
M  V30 6654 H 633.668 4.13014 -0.617164 0
M  V30 6655 N 634.105 1.10431 1.1244 0
M  V30 6656 C 635.068 0.756542 2.16354 0
M  V30 6657 C 636.068 -0.21899 1.59302 0
M  V30 6658 O 637.258 0.00415969 1.742 0
M  V30 6659 C 634.39 0.120612 3.40687 0
M  V30 6660 H 635.583 1.67696 2.48632 0
M  V30 6661 H 633.136 0.904832 1.27446 0
M  V30 6662 H 633.871 -0.810536 3.14008 0
M  V30 6663 H 633.656 0.822693 3.83372 0
M  V30 6664 H 635.146 -0.106945 4.17463 0
M  V30 6665 N 635.583 -1.29855 0.893053 0
M  V30 6666 C 636.829 -1.96116 0.516349 0
M  V30 6667 C 637.162 -1.70281 -0.933695 0
M  V30 6668 O 636.437 -1.01205 -1.66096 0
M  V30 6669 C 636.72 -3.51068 0.801455 0
M  V30 6670 C 636.573 -3.86387 2.30272 0
M  V30 6671 C 637.892 -4.39186 0.283423 0
M  V30 6672 H 635.011 -0.712335 0.189072 0
M  V30 6673 H 637.653 -1.53587 1.11852 0
M  V30 6674 H 635.803 -3.87424 0.288949 0
M  V30 6675 H 637.475 -3.60012 2.88425 0
M  V30 6676 H 635.718 -3.34167 2.76613 0
M  V30 6677 H 636.389 -4.94512 2.45279 0
M  V30 6678 H 638.865 -4.09785 0.722187 0
M  V30 6679 H 637.741 -5.46505 0.512169 0
M  V30 6680 H 638.002 -4.34511 -0.815643 0
M  V30 6681 N 637.061 -0.65484 -1.43351 0
M  V30 6682 C 637.971 0.0363603 -2.34572 0
M  V30 6683 C 638.987 0.810432 -1.53974 0
M  V30 6684 O 640.163 0.757308 -1.86619 0
M  V30 6685 C 637.228 0.989733 -3.32273 0
M  V30 6686 C 636.289 0.212414 -4.28774 0
M  V30 6687 C 635.522 1.12038 -5.21808 0
M  V30 6688 O 635.745 2.35967 -5.19303 0
M  V30 6689 O 634.679 0.59191 -5.98982 0
M  V30 6690 H 638.505 -0.714527 -2.95175 0
M  V30 6691 H 636.09 -0.415029 -1.4352 0
M  V30 6692 H 637.972 1.53759 -3.92347 0
M  V30 6693 H 636.647 1.72082 -2.74171 0
M  V30 6694 H 635.554 -0.379062 -3.72175 0
M  V30 6695 H 636.887 -0.479138 -4.89862 0
M  V30 6696 N 638.539 1.52521 -0.396863 0
M  V30 6697 C 639.787 2.01274 0.182536 0
M  V30 6698 C 640.108 1.28485 1.46685 0
M  V30 6699 O 639.378 0.407134 1.91623 0
M  V30 6700 H 637.958 0.743671 0.0704442 0
M  V30 6701 H 640.62 1.87547 -0.530289 0
M  V30 6702 H 639.716 3.09687 0.387385 0
M  V30 6703 N 640.017 0.126909 1.57088 0
M  V30 6704 C 641.428 -0.397201 1.82426 0
M  V30 6705 C 641.779 -1.66084 1.04453 0
M  V30 6706 O 640.904 -2.14534 0.283552 0
M  V30 6707 C 641.499 -0.727411 3.30899 0
M  V30 6708 C 640.058 -1.19612 3.56889 0
M  V30 6709 C 639.205 -0.20885 2.76512 0
M  V30 6710 H 642.156 0.351924 1.54749 0
M  V30 6711 H 642.177 -1.58407 3.45959 0
M  V30 6712 H 641.689 0.19247 3.87622 0
M  V30 6713 H 639.79 -2.13263 3.05532 0
M  V30 6714 H 639.903 -1.13598 4.65438 0
M  V30 6715 H 638.267 -0.697479 2.44964 0
M  V30 6716 H 639.05 0.704267 3.35998 0
M  V30 6717 N 641.495 -1.56914 -0.146875 0
M  V30 6718 C 642.742 -1.83356 -0.859467 0
M  V30 6719 C 643.07 -0.707811 -1.81164 0
M  V30 6720 O 642.325 0.303155 -1.93338 0
M  V30 6721 C 642.624 -3.16128 -1.66727 0
M  V30 6722 C 642.29 -4.42586 -0.861881 0
M  V30 6723 C 640.952 -4.76929 -0.639687 0
M  V30 6724 C 643.304 -5.20344 -0.298643 0
M  V30 6725 C 640.632 -5.86491 0.156451 0
M  V30 6726 C 642.984 -6.30742 0.484536 0
M  V30 6727 C 641.648 -6.63635 0.717306 0
M  V30 6728 H 640.918 -0.670947 -0.314501 0
M  V30 6729 H 643.565 -1.91104 -0.123108 0
M  V30 6730 H 641.87 -3.03831 -2.47374 0
M  V30 6731 H 643.567 -3.33802 -2.2221 0
M  V30 6732 H 640.157 -4.15662 -1.04513 0
M  V30 6733 H 644.341 -4.94186 -0.457585 0
M  V30 6734 H 639.597 -6.10419 0.346292 0
M  V30 6735 H 643.771 -6.90188 0.928105 0
M  V30 6736 H 641.398 -7.48367 1.33607 0
M  V30 6737 N 642.974 0.416227 -1.52004 0
M  V30 6738 C 644.22 1.16555 -1.6596 0
M  V30 6739 C 644.553 1.90347 -0.384906 0
M  V30 6740 O 643.828 1.84474 0.616405 0
M  V30 6741 C 644.111 2.1657 -2.87696 0
M  V30 6742 C 643.964 1.46722 -4.25197 0
M  V30 6743 C 645.283 3.17321 -3.04951 0
M  V30 6744 H 642.402 0.422369 -0.603965 0
M  V30 6745 H 645.044 0.452141 -1.84542 0
M  V30 6746 H 643.194 2.77411 -2.71985 0
M  V30 6747 H 644.866 0.89056 -4.52622 0
M  V30 6748 H 643.109 0.769263 -4.26925 0
M  V30 6749 H 643.78 2.19665 -5.0641 0
M  V30 6750 H 646.256 2.66552 -3.19514 0
M  V30 6751 H 645.132 3.84573 -3.91656 0
M  V30 6752 H 645.393 3.84643 -2.17951 0
M  V30 6753 N 644.452 1.42507 0.673017 0
M  V30 6754 C 645.68 1.46473 1.46128 0
M  V30 6755 C 646.095 0.0765912 1.88645 0
M  V30 6756 O 645.452 -0.909057 1.58248 0
M  V30 6757 C 645.503 2.39339 2.70923 0
M  V30 6758 O 645.224 3.72752 2.3019 0
M  V30 6759 C 646.725 2.52343 3.64469 0
M  V30 6760 H 643.945 0.49812 0.449575 0
M  V30 6761 H 646.489 1.87041 0.826802 0
M  V30 6762 H 644.644 2.02019 3.30556 0
M  V30 6763 H 645.058 4.22503 3.10791 0
M  V30 6764 H 646.532 3.2144 4.48754 0
M  V30 6765 H 647.009 1.56189 4.1049 0
M  V30 6766 H 647.615 2.90392 3.10729 0
M  V30 6767 N 645.93 -0.909495 1.28709 0
M  V30 6768 C 646.86 -2.0291 1.15542 0
M  V30 6769 C 647.841 -1.7002 0.0521017 0
M  V30 6770 O 649.026 -1.92835 0.229849 0
M  V30 6771 C 646.156 -3.37458 0.820935 0
M  V30 6772 C 645.11 -3.84524 1.87949 0
M  V30 6773 C 644.436 -5.16086 1.39854 0
M  V30 6774 C 645.736 -4.05918 3.28676 0
M  V30 6775 H 647.43 -2.14183 2.09203 0
M  V30 6776 H 644.976 -1.02913 1.00722 0
M  V30 6777 H 646.929 -4.1528 0.715571 0
M  V30 6778 H 645.653 -3.26249 -0.151374 0
M  V30 6779 H 644.312 -3.08911 1.97408 0
M  V30 6780 H 643.96 -5.01284 0.41518 0
M  V30 6781 H 643.66 -5.48547 2.1064 0
M  V30 6782 H 645.184 -5.96459 1.30649 0
M  V30 6783 H 646.598 -4.74252 3.22115 0
M  V30 6784 H 644.995 -4.49717 3.97334 0
M  V30 6785 H 646.065 -3.10583 3.72379 0
M  V30 6786 N 647.408 -1.11026 -1.11852 0
M  V30 6787 C 648.685 -0.768347 -1.79877 0
M  V30 6788 C 649.065 0.744261 -1.97545 0
M  V30 6789 O 648.413 1.67271 -1.55669 0
M  V30 6790 C 648.623 -1.52648 -3.13846 0
M  V30 6791 C 649.971 -1.70297 -3.88953 0
M  V30 6792 O 650.995 -1.49037 -3.23522 0
M  V30 6793 O 649.854 -2.05593 -5.06353 0
M  V30 6794 H 646.948 -0.277891 -0.778913 0
M  V30 6795 H 649.494 -1.21343 -1.18633 0
M  V30 6796 H 648.266 -2.55564 -2.96315 0
M  V30 6797 H 647.889 -1.07466 -3.82801 0
M  V30 6798 N 648.886 1.2938 -0.899927 0
M  V30 6799 C 649.819 2.25911 -0.322386 0
M  V30 6800 C 650.797 1.52447 0.565567 0
M  V30 6801 O 651.981 1.81404 0.512324 0
M  V30 6802 C 649.108 3.3436 0.540455 0
M  V30 6803 C 648.154 4.25579 -0.280211 0
M  V30 6804 S 648.987 5.08526 -1.67814 0
M  V30 6805 C 650.143 6.20476 -0.822224 0
M  V30 6806 H 650.376 2.7455 -1.1406 0
M  V30 6807 H 647.909 1.37606 -0.700285 0
M  V30 6808 H 649.867 3.97303 1.0325 0
M  V30 6809 H 648.528 2.84416 1.33291 0
M  V30 6810 H 647.721 5.02574 0.378915 0
M  V30 6811 H 647.323 3.67287 -0.705405 0
M  V30 6812 H 649.615 6.77485 -0.0457138 0
M  V30 6813 H 650.558 6.90606 -1.56426 0
M  V30 6814 H 650.966 5.63243 -0.37651 0
M  V30 6815 N 650.364 0.662433 1.43002 0
M  V30 6816 C 651.274 -0.0239199 2.34588 0
M  V30 6817 C 652.29 -0.802255 1.54402 0
M  V30 6818 O 653.466 -0.747401 1.87018 0
M  V30 6819 C 650.531 -0.972098 3.32793 0
M  V30 6820 C 649.592 -0.189673 4.28881 0
M  V30 6821 C 648.825 -1.09269 5.22395 0
M  V30 6822 O 649.048 -2.33209 5.20547 0
M  V30 6823 O 647.982 -0.560136 5.99288 0
M  V30 6824 H 651.808 0.730171 2.94792 0
M  V30 6825 H 649.393 0.422635 1.43297 0
M  V30 6826 H 651.275 -1.51676 3.93157 0
M  V30 6827 H 649.95 -1.70626 2.75079 0
M  V30 6828 H 648.857 0.398794 3.71968 0
M  V30 6829 H 650.19 0.50511 4.89601 0
M  V30 6830 N 651.842 -1.52309 0.404946 0
M  V30 6831 C 653.119 -1.94237 -0.230544 0
M  V30 6832 C 653.499 -1.34154 -1.6299 0
M  V30 6833 O 652.847 -0.515713 -2.22604 0
M  V30 6834 C 653.057 -3.48166 -0.241106 0
M  V30 6835 C 654.405 -4.22074 -0.462488 0
M  V30 6836 O 655.429 -3.54754 -0.320644 0
M  V30 6837 O 654.288 -5.41443 -0.741708 0
M  V30 6838 H 651.382 -0.813766 -0.147358 0
M  V30 6839 H 653.928 -1.6333 0.460587 0
M  V30 6840 H 652.7 -3.84269 0.738467 0
M  V30 6841 H 652.323 -3.85422 -0.97651 0
M  V30 6842 N 653.32 -0.135238 -1.57019 0
M  V30 6843 C 654.56 0.521686 -1.9763 0
M  V30 6844 C 654.924 1.62804 -1.01778 0
M  V30 6845 O 656.125 2.345 -1.31389 0
M  V30 6846 C 654.396 1.0257 -3.42365 0
M  V30 6847 S 655.955 1.68888 -4.04997 0
M  V30 6848 H 652.773 0.169064 -0.690607 0
M  V30 6849 H 655.375 -0.224168 -1.94211 0
M  V30 6850 H 654.079 0.209556 -4.09865 0
M  V30 6851 H 653.61 1.80645 -3.49472 0
M  V30 6852 H 655.625 2.97554 -3.97084 0
M  V30 6853 N 654.798 1.5699 0.138552 0
M  V30 6854 C 656.046 1.83446 0.848053 0
M  V30 6855 C 656.367 0.71744 1.81322 0
M  V30 6856 O 655.637 -0.260228 1.94164 0
M  V30 6857 H 654.217 0.676792 0.316166 0
M  V30 6858 H 656.879 1.94462 0.130538 0
M  V30 6859 H 655.975 2.78677 1.40518 0
M  V30 6860 N 656.276 -0.40816 1.52223 0
M  V30 6861 C 657.506 -1.17501 1.69932 0
M  V30 6862 C 657.914 -1.84729 0.408874 0
M  V30 6863 O 657.257 -1.7274 -0.625025 0
M  V30 6864 C 657.319 -2.27994 2.77955 0
M  V30 6865 C 656.983 -1.80894 4.19674 0
M  V30 6866 C 657.98 -1.29618 5.03483 0
M  V30 6867 C 655.665 -1.87698 4.65913 0
M  V30 6868 C 657.659 -0.857695 6.31603 0
M  V30 6869 C 655.346 -1.43461 5.94022 0
M  V30 6870 C 656.344 -0.925822 6.76696 0
M  V30 6871 O 656.032 -0.489841 8.02406 0
M  V30 6872 H 655.764 -0.359065 0.572755 0
M  V30 6873 H 658.318 -0.486188 1.99563 0
M  V30 6874 H 656.548 -3.00243 2.43703 0
M  V30 6875 H 658.237 -2.89749 2.84254 0
M  V30 6876 H 659.003 -1.23733 4.68951 0
M  V30 6877 H 654.882 -2.26244 4.01665 0
M  V30 6878 H 658.426 -0.459879 6.96083 0
M  V30 6879 H 654.323 -1.49026 6.28062 0
M  V30 6880 H 655.091 -0.613062 8.16201 0
M  V30 6881 N 657.755 -1.42862 -0.66545 0
M  V30 6882 C 658.703 -1.47319 -1.8 0
M  V30 6883 C 659.697 -0.347963 -1.65788 0
M  V30 6884 O 660.903 -0.521406 -1.72283 0
M  V30 6885 H 657.278 -0.461588 -0.593667 0
M  V30 6886 H 659.249 -2.42876 -1.7336 0
M  V30 6887 C 657.998 -1.40152 -3.18203 0
M  V30 6888 H 657.321 -2.26035 -3.2977 0
M  V30 6889 H 658.761 -1.47331 -3.9758 0
M  V30 6890 C 657.22 -0.117493 -3.36695 0
M  V30 6891 O 657.75 0.826058 -3.93115 0
M  V30 6892 N 655.956 -0.0316218 -2.90583 0
M  V30 6893 H 655.503 -0.800247 -2.44855 0
M  V30 6894 H 655.461 0.826835 -3.03333 0
M  V30 6895 N 659.233 0.902656 -1.29189 0
M  V30 6896 C 660.482 1.6475 -1.16362 0
M  V30 6897 C 660.795 1.93517 0.284682 0
M  V30 6898 O 662.001 2.66192 0.534229 0
M  V30 6899 C 660.457 2.96848 -2.03493 0
M  V30 6900 C 660.065 2.75687 -3.5313 0
M  V30 6901 C 661.809 3.74762 -1.99383 0
M  V30 6902 C 659.716 4.03492 -4.32375 0
M  V30 6903 H 658.646 0.618041 -0.431904 0
M  V30 6904 H 661.297 1.0008 -1.53806 0
M  V30 6905 H 659.679 3.62715 -1.58916 0
M  V30 6906 H 660.853 2.18431 -4.05739 0
M  V30 6907 H 659.168 2.11171 -3.58881 0
M  V30 6908 H 661.765 4.69515 -2.5585 0
M  V30 6909 H 662.108 4.04767 -0.973123 0
M  V30 6910 H 662.641 3.15732 -2.41988 0
M  V30 6911 H 659.38 3.78656 -5.3507 0
M  V30 6912 H 658.9 4.60318 -3.84535 0
M  V30 6913 H 660.579 4.71662 -4.42881 0
M  V30 6914 N 660.711 1.11618 1.11262 0
M  V30 6915 C 662.122 0.881942 1.64556 0
M  V30 6916 C 662.473 -0.585442 1.87262 0
M  V30 6917 O 661.598 -1.44795 1.60821 0
M  V30 6918 C 662.193 1.59446 2.98935 0
M  V30 6919 C 660.752 1.40661 3.4913 0
M  V30 6920 C 659.899 1.63593 2.23903 0
M  V30 6921 H 662.85 1.27217 0.94877 0
M  V30 6922 H 662.871 1.04054 3.65996 0
M  V30 6923 H 662.383 2.66241 2.82378 0
M  V30 6924 H 660.484 0.360835 3.70849 0
M  V30 6925 H 660.597 2.15693 4.27801 0
M  V30 6926 H 658.961 1.05944 2.3162 0
M  V30 6927 H 659.744 2.71666 2.09886 0
M  V30 6928 N 662.189 -1.289 0.906776 0
M  V30 6929 C 663.121 -2.26556 0.347159 0
M  V30 6930 C 664.134 -1.54589 -0.51049 0
M  V30 6931 O 665.323 -1.75489 -0.326501 0
M  V30 6932 C 662.423 -3.3484 -0.523024 0
M  V30 6933 C 661.596 -4.36296 0.310515 0
M  V30 6934 C 660.655 -5.23879 -0.493634 0
M  V30 6935 O 659.681 -5.69127 0.0913569 0
M  V30 6936 N 660.883 -5.51946 -1.7982 0
M  V30 6937 H 663.648 -2.75212 1.18652 0
M  V30 6938 H 661.209 -1.42309 0.771996 0
M  V30 6939 H 663.201 -3.90366 -1.06756 0
M  V30 6940 H 661.771 -2.85946 -1.26309 0
M  V30 6941 H 660.991 -3.80331 1.03644 0
M  V30 6942 H 662.279 -5.01113 0.881106 0
M  V30 6943 H 661.677 -5.17006 -2.2961 0
M  V30 6944 H 660.234 -6.10258 -2.28971 0
M  V30 6945 N 663.667 -0.670007 -1.42649 0
M  V30 6946 C 664.895 -0.19854 -2.05945 0
M  V30 6947 C 665.31 1.14243 -1.50313 0
M  V30 6948 O 664.667 1.70872 -0.641027 0
M  V30 6949 C 664.718 -0.11966 -3.61302 0
M  V30 6950 O 664.439 -1.40764 -4.1487 0
M  V30 6951 C 665.94 0.375878 -4.41704 0
M  V30 6952 H 663.16 -0.0976894 -0.663851 0
M  V30 6953 H 665.704 -0.915392 -1.82868 0
M  V30 6954 H 663.859 0.547851 -3.83507 0
M  V30 6955 H 664.273 -1.27784 -5.08696 0
M  V30 6956 H 665.747 0.379988 -5.50691 0
M  V30 6957 H 666.224 1.41028 -4.15942 0
M  V30 6958 H 666.83 -0.259727 -4.24506 0
M  V30 6959 N 665.145 1.52092 -0.413018 0
M  V30 6960 C 666.422 1.94356 0.22024 0
M  V30 6961 C 666.802 1.35017 1.62277 0
M  V30 6962 O 666.15 0.527511 2.22328 0
M  V30 6963 C 666.36 3.48289 0.222638 0
M  V30 6964 C 667.708 4.22313 0.440098 0
M  V30 6965 O 668.732 3.54919 0.301826 0
M  V30 6966 O 667.591 5.41829 0.712984 0
M  V30 6967 H 664.685 0.814536 0.14304 0
M  V30 6968 H 667.231 1.63083 -0.469242 0
M  V30 6969 H 666.003 3.83872 -0.758836 0
M  V30 6970 H 665.626 3.85934 0.956057 0
M  V30 6971 N 666.623 0.143563 1.56945 0
M  V30 6972 C 667.533 -0.810562 2.20152 0
M  V30 6973 C 668.549 -1.27431 1.1848 0
M  V30 6974 O 669.725 -1.33221 1.51044 0
M  V30 6975 C 666.79 -2.03353 2.80799 0
M  V30 6976 C 665.851 -1.61936 3.97587 0
M  V30 6977 C 665.084 -2.78403 4.55332 0
M  V30 6978 O 665.307 -3.94521 4.11958 0
M  V30 6979 O 664.241 -2.54073 5.45647 0
M  V30 6980 H 668.067 -0.30253 3.02189 0
M  V30 6981 H 665.652 -0.0832925 1.49168 0
M  V30 6982 H 667.534 -2.74932 3.19359 0
M  V30 6983 H 666.209 -2.53116 2.01777 0
M  V30 6984 H 665.116 -0.873904 3.6375 0
M  V30 6985 H 666.449 -1.16892 4.78118 0
M  V30 6986 N 668.101 -1.57061 -0.130224 0
M  V30 6987 C 669.326 -1.88802 -0.858409 0
M  V30 6988 C 669.751 -0.734353 -1.73173 0
M  V30 6989 O 669.109 0.315529 -1.78533 0
M  V30 6990 C 669.157 -3.19228 -1.67708 0
M  V30 6991 O 668.261 -3.04343 -2.78297 0
M  V30 6992 H 667.602 -0.619849 -0.238083 0
M  V30 6993 H 670.132 -2.04271 -0.115995 0
M  V30 6994 H 670.142 -3.51669 -2.06864 0
M  V30 6995 H 668.817 -4.02793 -1.0359 0
M  V30 6996 H 667.394 -2.83346 -2.42425 0
M  V30 6997 N 669.579 0.400081 -1.52437 0
M  V30 6998 C 670.807 1.16768 -1.70801 0
M  V30 6999 C 671.222 1.84036 -0.421462 0
M  V30 7000 O 670.579 1.72242 0.603228 0
M  V30 7001 C 670.63 2.22403 -2.8499 0
M  V30 7002 O 670.351 1.57879 -4.08663 0
M  V30 7003 C 671.852 3.11974 -3.1494 0
M  V30 7004 H 669.072 0.350533 -0.57216 0
M  V30 7005 H 671.616 0.469534 -1.99037 0
M  V30 7006 H 669.771 2.87871 -2.59247 0
M  V30 7007 H 670.185 2.27982 -4.7236 0
M  V30 7008 H 671.659 3.82148 -3.9833 0
M  V30 7009 H 672.136 3.74858 -2.28863 0
M  V30 7010 H 672.742 2.52165 -3.42481 0
M  V30 7011 N 671.057 1.43213 0.657864 0
M  V30 7012 C 671.987 1.50815 1.78262 0
M  V30 7013 C 672.968 0.363211 1.66177 0
M  V30 7014 O 674.153 0.579806 1.85343 0
M  V30 7015 C 671.283 1.42625 3.16663 0
M  V30 7016 C 670.237 2.5532 3.43505 0
M  V30 7017 C 669.563 2.32184 4.81658 0
M  V30 7018 C 670.863 3.97583 3.38711 0
M  V30 7019 H 672.557 2.44954 1.72157 0
M  V30 7020 H 670.103 1.17896 0.82683 0
M  V30 7021 H 672.056 1.46548 3.95097 0
M  V30 7022 H 670.78 0.449877 3.23487 0
M  V30 7023 H 669.439 2.50742 2.6744 0
M  V30 7024 H 669.087 1.32801 4.85153 0
M  V30 7025 H 668.787 3.07724 5.00579 0
M  V30 7026 H 670.311 2.37883 5.62356 0
M  V30 7027 H 671.725 4.03673 4.07089 0
M  V30 7028 H 670.122 4.73112 3.69168 0
M  V30 7029 H 671.192 4.23049 2.36976 0
M  V30 7030 N 672.536 -0.895792 1.29666 0
M  V30 7031 C 673.469 -2.00238 1.09453 0
M  V30 7032 C 674.447 -1.62599 0.00527044 0
M  V30 7033 O 675.631 -1.87847 0.156729 0
M  V30 7034 C 672.758 -3.32066 0.667054 0
M  V30 7035 C 671.804 -3.88691 1.7556 0
M  V30 7036 S 672.637 -4.17317 3.35569 0
M  V30 7037 C 673.793 -5.52181 2.94698 0
M  V30 7038 H 674.026 -2.17076 2.03138 0
M  V30 7039 H 671.559 -1.04287 1.13858 0
M  V30 7040 H 673.517 -4.08272 0.427136 0
M  V30 7041 H 672.178 -3.13101 -0.250256 0
M  V30 7042 H 671.371 -4.83918 1.40853 0
M  V30 7043 H 670.973 -3.19187 1.94924 0
M  V30 7044 H 673.265 -6.3281 2.41986 0
M  V30 7045 H 674.208 -5.91817 3.88791 0
M  V30 7046 H 674.616 -5.14225 2.32879 0
M  V30 7047 N 674.014 -1.12206 -1.10668 0
M  V30 7048 C 675.242 -0.898635 -1.86366 0
M  V30 7049 C 675.657 0.551991 -1.80551 0
M  V30 7050 O 675.014 1.38152 -1.19249 0
M  V30 7051 C 675.065 -1.36199 -3.34861 0
M  V30 7052 O 674.786 -2.75576 -3.40573 0
M  V30 7053 C 676.287 -1.17515 -4.2744 0
M  V30 7054 H 673.507 -0.321281 -0.589084 0
M  V30 7055 H 676.051 -1.49142 -1.39918 0
M  V30 7056 H 674.206 -0.81249 -3.78784 0
M  V30 7057 H 674.62 -2.95851 -4.33096 0
M  V30 7058 H 676.094 -1.54827 -5.29842 0
M  V30 7059 H 676.571 -0.115486 -4.39048 0
M  V30 7060 H 677.177 -1.71203 -3.89319 0
M  V30 7061 N 675.492 1.28418 -0.913599 0
M  V30 7062 C 676.741 1.94265 -0.542572 0
M  V30 7063 C 677.054 1.72709 0.918207 0
M  V30 7064 O 678.26 2.32778 1.39738 0
M  V30 7065 C 676.716 3.47956 -0.919507 0
M  V30 7066 C 676.324 3.78291 -2.4 0
M  V30 7067 C 678.068 4.19962 -0.619057 0
M  V30 7068 C 675.975 5.2529 -2.71707 0
M  V30 7069 H 674.905 0.727213 -0.199192 0
M  V30 7070 H 677.556 1.45931 -1.11249 0
M  V30 7071 H 675.938 3.9502 -0.278372 0
M  V30 7072 H 677.112 3.42035 -3.08786 0
M  V30 7073 H 675.427 3.19456 -2.67089 0
M  V30 7074 H 678.024 5.28178 -0.832623 0
M  V30 7075 H 678.367 4.13935 0.443126 0
M  V30 7076 H 678.9 3.78674 -1.21865 0
M  V30 7077 H 675.639 5.36394 -3.76778 0
M  V30 7078 H 675.159 5.62743 -2.07559 0
M  V30 7079 H 676.838 5.93027 -2.58703 0
M  V30 7080 N 676.97 0.677563 1.42291 0
M  V30 7081 C 677.933 0.0101085 2.29198 0
M  V30 7082 C 678.933 -0.726219 1.43467 0
M  V30 7083 O 680.123 -0.563807 1.64824 0
M  V30 7084 C 677.255 -0.996316 3.26016 0
M  V30 7085 H 678.448 0.775071 2.89711 0
M  V30 7086 H 676.001 0.440065 1.49977 0
M  V30 7087 H 676.736 -1.78967 2.70446 0
M  V30 7088 H 676.521 -0.471687 3.89253 0
M  V30 7089 H 678.011 -1.46167 3.91184 0
M  V30 7090 N 678.448 -1.51871 0.421078 0
M  V30 7091 C 679.678 -2.06057 -0.149723 0
M  V30 7092 C 680.086 -1.29002 -1.38402 0
M  V30 7093 O 679.429 -0.338385 -1.80556 0
M  V30 7094 C 679.491 -3.55216 -0.553339 0
M  V30 7095 C 679.155 -4.53408 0.571879 0
M  V30 7096 C 680.152 -4.99586 1.4391 0
M  V30 7097 C 677.837 -4.967 0.747979 0
M  V30 7098 C 679.831 -5.87711 2.46727 0
M  V30 7099 C 677.518 -5.84619 1.77944 0
M  V30 7100 C 678.516 -6.30021 2.63748 0
M  V30 7101 O 678.204 -7.16197 3.65126 0
M  V30 7102 H 677.936 -0.675744 -0.0186102 0
M  V30 7103 H 680.49 -1.96618 0.594166 0
M  V30 7104 H 678.72 -3.62381 -1.34969 0
M  V30 7105 H 680.409 -3.91992 -1.05342 0
M  V30 7106 H 681.175 -4.66846 1.31451 0
M  V30 7107 H 677.054 -4.60913 0.0897357 0
M  V30 7108 H 680.598 -6.2307 3.13734 0
M  V30 7109 H 676.495 -6.16771 1.90429 0
M  V30 7110 H 677.263 -7.34337 3.61512 0
M  V30 7111 N 679.926 -0.151884 -1.56866 0
M  V30 7112 C 681.172 0.498742 -1.96572 0
M  V30 7113 C 681.505 1.64194 -1.03702 0
M  V30 7114 O 680.78 1.94334 -0.0803432 0
M  V30 7115 C 681.063 1.00027 -3.45929 0
M  V30 7116 C 680.916 -0.141767 -4.49577 0
M  V30 7117 C 682.235 1.88044 -3.97904 0
M  V30 7118 H 679.354 0.17982 -0.714726 0
M  V30 7119 H 681.996 -0.234097 -1.88552 0
M  V30 7120 H 680.146 1.62476 -3.52894 0
M  V30 7121 H 681.818 -0.778269 -4.54687 0
M  V30 7122 H 680.061 -0.80019 -4.26356 0
M  V30 7123 H 680.732 0.250947 -5.51429 0
M  V30 7124 H 683.208 1.35416 -3.93449 0
M  V30 7125 H 682.084 2.20043 -5.02864 0
M  V30 7126 H 682.345 2.81916 -3.40552 0
M  V30 7127 N 681.404 1.57128 0.121893 0
M  V30 7128 C 682.337 1.95327 1.17995 0
M  V30 7129 C 683.315 0.822524 1.40262 0
M  V30 7130 O 684.499 1.08044 1.54463 0
M  V30 7131 C 681.626 2.24699 2.53432 0
M  V30 7132 C 680.672 3.47263 2.4761 0
M  V30 7133 S 681.505 4.99951 1.91857 0
M  V30 7134 C 682.661 5.32473 3.28973 0
M  V30 7135 H 682.894 2.84765 0.854182 0
M  V30 7136 H 680.427 1.50864 0.328534 0
M  V30 7137 H 682.385 2.423 3.31362 0
M  V30 7138 H 681.046 1.3588 2.83188 0
M  V30 7139 H 680.239 3.65171 3.4737 0
M  V30 7140 H 679.841 3.29034 1.778 0
M  V30 7141 H 682.133 5.27478 4.25175 0
M  V30 7142 H 683.076 6.33732 3.15895 0
M  V30 7143 H 683.484 4.59952 3.27268 0
M  V30 7144 N 682.882 -0.391992 1.52647 0
M  V30 7145 C 683.845 -1.46135 1.7657 0
M  V30 7146 C 684.845 -1.47701 0.635698 0
M  V30 7147 O 686.035 -1.48924 0.903728 0
M  V30 7148 C 683.167 -2.85443 1.86374 0
M  V30 7149 H 684.36 -1.26208 2.72051 0
M  V30 7150 H 681.913 -0.623549 1.43323 0
M  V30 7151 H 682.648 -3.10718 0.928685 0
M  V30 7152 H 682.433 -2.85708 2.68539 0
M  V30 7153 H 683.923 -3.62933 2.06566 0
M  V30 7154 N 684.36 -1.4356 -0.65026 0
M  V30 7155 C 685.323 -1.48615 -1.74489 0
M  V30 7156 C 686.323 -0.370483 -1.56474 0
M  V30 7157 O 687.513 -0.632351 -1.62317 0
M  V30 7158 C 684.645 -1.34161 -3.13391 0
M  V30 7159 H 685.838 -2.46103 -1.71387 0
M  V30 7160 H 683.391 -1.30369 -0.862186 0
M  V30 7161 H 684.126 -0.376918 -3.22102 0
M  V30 7162 H 683.911 -2.1504 -3.27872 0
M  V30 7163 H 685.401 -1.40637 -3.93206 0
M  V30 7164 N 685.838 0.888903 -1.30139 0
M  V30 7165 C 687.087 1.63507 -1.18103 0
M  V30 7166 C 687.4 1.93808 0.264141 0
M  V30 7167 O 688.606 2.66744 0.505966 0
M  V30 7168 C 687.062 2.94673 -2.0663 0
M  V30 7169 C 686.67 2.71926 -3.56034 0
M  V30 7170 C 688.414 3.72626 -2.03346 0
M  V30 7171 C 686.321 3.98884 -4.3663 0
M  V30 7172 H 685.251 0.613426 -0.438435 0
M  V30 7173 H 687.902 0.984427 -1.54859 0
M  V30 7174 H 686.284 3.61009 -1.62754 0
M  V30 7175 H 687.458 2.14116 -4.08033 0
M  V30 7176 H 685.773 2.07353 -3.61101 0
M  V30 7177 H 688.37 4.66775 -2.60816 0
M  V30 7178 H 688.713 4.03712 -1.016 0
M  V30 7179 H 689.246 3.13147 -2.45324 0
M  V30 7180 H 685.985 3.72959 -5.39056 0
M  V30 7181 H 685.505 4.56214 -3.89396 0
M  V30 7182 H 687.184 4.66938 -4.47859 0
M  V30 7183 N 687.317 1.12792 1.10072 0
M  V30 7184 C 688.557 0.895691 1.8373 0
M  V30 7185 C 688.921 -0.568131 1.83402 0
M  V30 7186 O 690.122 -0.917666 2.52651 0
M  V30 7187 C 688.393 1.4593 3.2625 0
M  V30 7188 S 689.952 1.36615 4.16991 0
M  V30 7189 H 686.77 0.323017 0.633389 0
M  V30 7190 H 689.372 1.43816 1.32428 0
M  V30 7191 H 688.076 2.51818 3.24062 0
M  V30 7192 H 687.607 0.914478 3.82624 0
M  V30 7193 H 689.622 0.340131 4.95033 0
M  V30 7194 N 688.795 -1.27931 0.920396 0
M  V30 7195 C 689.758 -2.25345 0.41858 0
M  V30 7196 C 690.758 -1.54116 -0.458798 0
M  V30 7197 O 691.948 -1.72235 -0.260912 0
M  V30 7198 C 689.08 -3.38556 -0.399104 0
M  V30 7199 H 690.273 -2.71251 1.27918 0
M  V30 7200 H 687.826 -1.39728 0.700406 0
M  V30 7201 H 688.561 -2.98021 -1.27882 0
M  V30 7202 H 688.346 -3.91426 0.229863 0
M  V30 7203 H 689.836 -4.10976 -0.740817 0
M  V30 7204 N 690.273 -0.685099 -1.4193 0
M  V30 7205 C 691.203 -0.0273506 -2.33484 0
M  V30 7206 C 692.184 0.778366 -1.51246 0
M  V30 7207 O 693.369 0.733449 -1.79817 0
M  V30 7208 C 690.499 0.917272 -3.34968 0
M  V30 7209 C 689.453 0.21941 -4.27437 0
M  V30 7210 C 688.779 1.27768 -5.1921 0
M  V30 7211 C 690.079 -0.907894 -5.14349 0
M  V30 7212 H 691.773 -0.791994 -2.88735 0
M  V30 7213 H 689.319 -0.382308 -1.38832 0
M  V30 7214 H 691.272 1.38657 -3.97935 0
M  V30 7215 H 689.996 1.71346 -2.78043 0
M  V30 7216 H 688.655 -0.229757 -3.65879 0
M  V30 7217 H 688.303 2.06612 -4.58607 0
M  V30 7218 H 688.003 0.815803 -5.81909 0
M  V30 7219 H 689.527 1.7477 -5.85054 0
M  V30 7220 H 690.941 -0.519348 -5.70943 0
M  V30 7221 H 689.338 -1.2962 -5.85934 0
M  V30 7222 H 690.408 -1.75218 -4.52136 0
M  V30 7223 N 691.751 1.51645 -0.429126 0
M  V30 7224 C 692.998 2.02015 0.140079 0
M  V30 7225 C 693.326 1.31374 1.43427 0
M  V30 7226 O 692.581 0.414779 1.91254 0
M  V30 7227 C 692.88 3.54989 0.414472 0
M  V30 7228 C 692.546 4.43874 -0.792911 0
M  V30 7229 C 691.208 4.67887 -1.12404 0
M  V30 7230 C 693.56 4.96074 -1.59875 0
M  V30 7231 C 690.888 5.41348 -2.26184 0
M  V30 7232 C 693.24 5.70782 -2.72747 0
M  V30 7233 C 691.904 5.93062 -3.06324 0
M  V30 7234 H 691.174 0.739225 0.0512585 0
M  V30 7235 H 693.821 1.82675 -0.574641 0
M  V30 7236 H 692.126 3.72615 1.21099 0
M  V30 7237 H 693.823 3.91489 0.868173 0
M  V30 7238 H 690.413 4.25374 -0.524871 0
M  V30 7239 H 694.597 4.77412 -1.35614 0
M  V30 7240 H 689.853 5.56815 -2.52522 0
M  V30 7241 H 694.027 6.10221 -3.35564 0
M  V30 7242 H 691.654 6.49764 -3.94602 0
M  V30 7243 N 693.229 0.160201 1.56784 0
M  V30 7244 C 694.162 -0.812797 2.13234 0
M  V30 7245 C 695.14 -1.2335 1.05942 0
M  V30 7246 O 696.324 -1.32725 1.33852 0
M  V30 7247 C 693.451 -2.09311 2.66283 0
M  V30 7248 C 692.497 -1.8173 3.85845 0
M  V30 7249 S 693.33 -0.996473 5.26147 0
M  V30 7250 C 694.486 -2.28769 5.82594 0
M  V30 7251 H 694.719 -0.332794 2.95432 0
M  V30 7252 H 692.252 -0.0542971 1.54304 0
M  V30 7253 H 694.21 -2.82854 2.97496 0
M  V30 7254 H 692.871 -2.54425 1.84192 0
M  V30 7255 H 692.064 -2.76699 4.21253 0
M  V30 7256 H 691.666 -1.16289 3.55462 0
M  V30 7257 H 693.958 -3.24319 5.9483 0
M  V30 7258 H 694.901 -1.97846 6.79899 0
M  V30 7259 H 695.309 -2.40021 5.10931 0
M  V30 7260 N 694.707 -1.5719 -0.113559 0
M  V30 7261 C 695.637 -2.03772 -1.14013 0
M  V30 7262 C 696.618 -0.923176 -1.42869 0
M  V30 7263 O 697.803 -1.19325 -1.53216 0
M  V30 7264 C 694.933 -2.44663 -2.4649 0
M  V30 7265 C 693.887 -3.59612 -2.32085 0
M  V30 7266 C 693.213 -3.8642 -3.69573 0
M  V30 7267 C 694.513 -4.91149 -1.7768 0
M  V30 7268 H 696.207 -2.89785 -0.752665 0
M  V30 7269 H 693.753 -1.39412 -0.360609 0
M  V30 7270 H 695.706 -2.75857 -3.18561 0
M  V30 7271 H 694.43 -1.55628 -2.87137 0
M  V30 7272 H 693.089 -3.28636 -1.62461 0
M  V30 7273 H 692.737 -2.94581 -4.07715 0
M  V30 7274 H 692.437 -4.63797 -3.60786 0
M  V30 7275 H 693.961 -4.2007 -4.4314 0
M  V30 7276 H 695.375 -5.20843 -2.39574 0
M  V30 7277 H 693.772 -5.72562 -1.79701 0
M  V30 7278 H 694.842 -4.79301 -0.734776 0
M  V30 7279 N 696.185 0.383891 -1.52853 0
M  V30 7280 C 697.596 0.961591 -1.60032 0
M  V30 7281 C 697.947 1.90819 -0.456333 0
M  V30 7282 O 697.072 2.12288 0.419873 0
M  V30 7283 C 697.667 1.75078 -2.90057 0
M  V30 7284 C 696.226 2.2781 -2.99632 0
M  V30 7285 C 695.373 1.08512 -2.55187 0
M  V30 7286 H 698.324 0.163269 -1.57858 0
M  V30 7287 H 698.345 2.61046 -2.7683 0
M  V30 7288 H 697.857 1.06157 -3.73299 0
M  V30 7289 H 695.958 3.00028 -2.20939 0
M  V30 7290 H 696.071 2.56947 -4.0437 0
M  V30 7291 H 694.435 1.44667 -2.09627 0
M  V30 7292 H 695.218 0.41118 -3.40829 0
M  V30 7293 N 697.663 1.43903 0.642637 0
M  V30 7294 C 698.593 1.52697 1.76652 0
M  V30 7295 C 699.574 0.380816 1.65782 0
M  V30 7296 O 700.759 0.599432 1.84717 0
M  V30 7297 C 697.889 1.45975 3.15133 0
M  V30 7298 C 696.843 2.58949 3.40778 0
M  V30 7299 C 696.169 2.37279 4.79169 0
M  V30 7300 C 697.469 4.01153 3.34475 0
M  V30 7301 H 699.163 2.46766 1.69549 0
M  V30 7302 H 696.709 1.18767 0.814279 0
M  V30 7303 H 698.662 1.5073 3.93521 0
M  V30 7304 H 697.386 0.484162 3.22991 0
M  V30 7305 H 696.045 2.53564 2.64765 0
M  V30 7306 H 695.693 1.37939 4.83717 0
M  V30 7307 H 695.393 3.13016 4.97287 0
M  V30 7308 H 696.917 2.43834 5.59801 0
M  V30 7309 H 698.331 4.07968 4.02784 0
M  V30 7310 H 696.728 4.77001 3.64129 0
M  V30 7311 H 697.798 4.25539 2.32475 0
M  V30 7312 N 699.141 -0.881989 1.30609 0
M  V30 7313 C 700.381 -1.64817 1.20891 0
M  V30 7314 C 700.745 -1.90593 -0.232043 0
M  V30 7315 O 701.946 -2.64964 -0.452516 0
M  V30 7316 C 700.217 -2.95006 2.01758 0
M  V30 7317 S 701.776 -3.85953 2.08771 0
M  V30 7318 H 698.594 -0.565651 0.430767 0
M  V30 7319 H 701.196 -1.04665 1.65122 0
M  V30 7320 H 699.9 -2.73973 3.0556 0
M  V30 7321 H 699.431 -3.60189 1.582 0
M  V30 7322 H 701.446 -4.81037 1.21727 0
M  V30 7323 N 700.619 -1.13374 -1.09472 0
M  V30 7324 C 701.549 -0.833268 -2.18126 0
M  V30 7325 C 702.53 0.207169 -1.68834 0
M  V30 7326 O 703.715 0.0662012 -1.94087 0
M  V30 7327 C 700.845 -0.297979 -3.46019 0
M  V30 7328 C 699.799 -1.27261 -4.08642 0
M  V30 7329 C 699.125 -0.597104 -5.31356 0
M  V30 7330 C 700.425 -2.63095 -4.51197 0
M  V30 7331 H 702.119 -1.74182 -2.43518 0
M  V30 7332 H 699.665 -0.838921 -1.17039 0
M  V30 7333 H 701.618 -0.0754444 -4.21332 0
M  V30 7334 H 700.342 0.645959 -3.20148 0
M  V30 7335 H 699.001 -1.48113 -3.35348 0
M  V30 7336 H 698.649 0.352293 -5.01765 0
M  V30 7337 H 698.349 -1.24734 -5.74208 0
M  V30 7338 H 699.873 -0.38384 -6.09392 0
M  V30 7339 H 701.287 -2.46214 -5.17737 0
M  V30 7340 H 699.684 -3.2429 -5.04932 0
M  V30 7341 H 700.754 -3.20793 -3.6362 0
M  V30 7342 N 702.098 1.27442 -0.927168 0
M  V30 7343 C 703.031 2.25177 -0.370232 0
M  V30 7344 C 704.009 1.53612 0.533103 0
M  V30 7345 O 705.193 1.8245 0.47373 0
M  V30 7346 C 702.32 3.35431 0.469411 0
M  V30 7347 C 701.366 4.24888 -0.370419 0
M  V30 7348 S 702.199 5.04852 -1.78562 0
M  V30 7349 C 703.355 6.18592 -0.953651 0
M  V30 7350 H 703.588 2.72069 -1.19858 0
M  V30 7351 H 701.121 1.36089 -0.729316 0
M  V30 7352 H 703.079 3.99404 0.947992 0
M  V30 7353 H 701.74 2.87179 1.27228 0
M  V30 7354 H 700.933 5.03264 0.272226 0
M  V30 7355 H 700.535 3.65709 -0.783153 0
M  V30 7356 H 702.827 6.77235 -0.189408 0
M  V30 7357 H 703.77 6.87132 -1.7104 0
M  V30 7358 H 704.178 5.62318 -0.495897 0
M  V30 7359 N 703.576 0.692616 1.41565 0
M  V30 7360 C 704.822 0.222664 2.01574 0
M  V30 7361 C 705.155 -1.1737 1.54719 0
M  V30 7362 O 704.43 -1.79161 0.757084 0
M  V30 7363 C 704.713 0.277064 3.59033 0
M  V30 7364 C 704.566 1.71016 4.16021 0
M  V30 7365 C 705.885 -0.36479 4.38586 0
M  V30 7366 H 703.004 0.0823839 0.732381 0
M  V30 7367 H 705.646 0.880778 1.68352 0
M  V30 7368 H 703.796 -0.283288 3.87466 0
M  V30 7369 H 705.468 2.32413 3.98475 0
M  V30 7370 H 703.711 2.24525 3.71175 0
M  V30 7371 H 704.382 1.69978 5.25178 0
M  V30 7372 H 706.858 0.112404 4.15948 0
M  V30 7373 H 705.734 -0.296169 5.481 0
M  V30 7374 H 705.995 -1.44506 4.17816 0
M  V30 7375 N 705.054 -1.51416 0.437162 0
M  V30 7376 C 706.294 -2.03995 -0.128538 0
M  V30 7377 C 706.658 -1.31417 -1.39977 0
M  V30 7378 O 707.859 -1.74369 -2.0457 0
M  V30 7379 C 706.13 -3.55757 -0.342317 0
M  V30 7380 S 707.689 -4.3006 -0.871446 0
M  V30 7381 H 704.507 -0.710283 -0.0319322 0
M  V30 7382 H 707.109 -1.86177 0.596526 0
M  V30 7383 H 705.813 -4.06148 0.589233 0
M  V30 7384 H 705.344 -3.77869 -1.09447 0
M  V30 7385 H 707.359 -4.47248 -2.14903 0
M  V30 7386 N 706.532 -0.168513 -1.56696 0
M  V30 7387 C 707.464 0.794249 -2.14998 0
M  V30 7388 C 708.477 1.1957 -1.10485 0
M  V30 7389 O 709.666 1.13604 -1.37682 0
M  V30 7390 C 706.766 2.08018 -2.67547 0
M  V30 7391 C 705.939 1.84274 -3.96689 0
M  V30 7392 C 704.998 2.97059 -4.3433 0
M  V30 7393 O 704.024 2.67815 -5.02259 0
M  V30 7394 N 705.226 4.24775 -3.9566 0
M  V30 7395 H 707.991 0.295832 -2.98236 0
M  V30 7396 H 705.552 0.0143611 -1.61894 0
M  V30 7397 H 707.544 2.82559 -2.89729 0
M  V30 7398 H 706.114 2.49059 -1.88914 0
M  V30 7399 H 705.334 0.936528 -3.82914 0
M  V30 7400 H 706.622 1.65773 -4.81037 0
M  V30 7401 H 706.02 4.51395 -3.40968 0
M  V30 7402 H 704.577 4.96027 -4.22848 0
M  V30 7403 N 708.01 1.57248 0.105221 0
M  V30 7404 C 709.256 1.86719 0.806692 0
M  V30 7405 C 709.611 0.758061 1.76837 0
M  V30 7406 O 708.904 -0.240812 1.90081 0
M  V30 7407 C 709.098 3.20437 1.58287 0
M  V30 7408 C 708.927 4.44252 0.697864 0
M  V30 7409 C 707.697 5.04104 0.347444 0
M  V30 7410 C 709.895 5.14299 0.00933014 0
M  V30 7411 N 707.877 6.1146 -0.546786 0
M  V30 7412 C 709.248 6.15528 -0.74336 0
M  V30 7413 C 711.303 4.97857 -0.0656505 0
M  V30 7414 C 710.006 7.02091 -1.56401 0
M  V30 7415 C 712.032 5.84919 -0.873167 0
M  V30 7416 C 711.394 6.8566 -1.61401 0
M  V30 7417 H 707.493 0.73329 0.271679 0
M  V30 7418 H 710.077 1.94575 0.0697152 0
M  V30 7419 H 708.248 3.13651 2.29079 0
M  V30 7420 H 709.98 3.37668 2.23075 0
M  V30 7421 H 706.735 4.68505 0.692817 0
M  V30 7422 H 707.159 6.69779 -0.986157 0
M  V30 7423 H 711.801 4.19919 0.492768 0
M  V30 7424 H 709.519 7.79427 -2.13353 0
M  V30 7425 H 713.105 5.74259 -0.933724 0
M  V30 7426 H 711.985 7.5186 -2.2288 0
M  V30 7427 N 709.488 -0.375779 1.53054 0
M  V30 7428 C 710.728 -1.12828 1.70438 0
M  V30 7429 C 711.092 -1.86854 0.441527 0
M  V30 7430 O 712.293 -2.64261 0.491908 0
M  V30 7431 C 710.564 -2.07009 2.91345 0
M  V30 7432 S 712.123 -2.89917 3.29383 0
M  V30 7433 H 708.941 -0.381736 0.599832 0
M  V30 7434 H 711.543 -0.4109 1.91133 0
M  V30 7435 H 710.247 -1.51371 3.81464 0
M  V30 7436 H 709.778 -2.83236 2.73022 0
M  V30 7437 H 711.793 -4.0924 2.80601 0
M  V30 7438 N 710.966 -1.44241 -0.634997 0
M  V30 7439 C 712.206 -1.48339 -1.40623 0
M  V30 7440 C 712.57 -0.111479 -1.91676 0
M  V30 7441 O 713.771 -0.0271345 -2.68786 0
M  V30 7442 C 712.042 -2.51122 -2.54308 0
M  V30 7443 S 713.601 -2.74237 -3.42548 0
M  V30 7444 H 710.419 -0.524715 -0.479787 0
M  V30 7445 H 713.021 -1.81138 -0.735489 0
M  V30 7446 H 711.725 -3.49511 -2.15106 0
M  V30 7447 H 711.256 -2.19883 -3.26213 0
M  V30 7448 H 713.271 -2.0554 -4.51628 0
M  V30 7449 N 712.444 0.87505 -1.31075 0
M  V30 7450 C 713.374 1.99775 -1.20881 0
M  V30 7451 C 714.355 1.69822 -0.0971612 0
M  V30 7452 O 715.54 1.92158 -0.280895 0
M  V30 7453 C 712.67 3.35163 -0.910118 0
M  V30 7454 C 711.624 3.79406 -1.98078 0
M  V30 7455 C 710.95 5.12197 -1.53488 0
M  V30 7456 C 712.25 3.97061 -3.39323 0
M  V30 7457 H 713.944 2.08562 -2.14808 0
M  V30 7458 H 711.49 1.00207 -1.03415 0
M  V30 7459 H 713.443 4.13237 -0.825423 0
M  V30 7460 H 712.167 3.26536 0.064822 0
M  V30 7461 H 710.826 3.03568 -2.05528 0
M  V30 7462 H 710.474 5.00007 -0.547941 0
M  V30 7463 H 710.174 5.4277 -2.2511 0
M  V30 7464 H 711.698 5.92785 -1.46417 0
M  V30 7465 H 713.112 4.65545 -3.34576 0
M  V30 7466 H 711.509 4.39025 -4.09118 0
M  V30 7467 H 712.579 3.00601 -3.80483 0
M  V30 7468 N 713.922 1.13953 1.08869 0
M  V30 7469 C 715.338 0.878924 1.33218 0
M  V30 7470 C 715.538 -0.482478 1.95638 0
M  V30 7471 O 714.594 -1.22778 2.2064 0
M  V30 7472 C 715.907 2.00798 2.23832 0
M  V30 7473 C 717.455 2.04073 2.37325 0
M  V30 7474 C 717.93 3.16258 3.31278 0
M  V30 7475 N 719.421 3.15805 3.38853 0
M  V30 7476 C 720.156 3.99249 4.11567 0
M  V30 7477 N 719.652 4.92721 4.87029 0
M  V30 7478 N 721.445 3.87327 4.0735 0
M  V30 7479 H 713.596 2.01645 0.66731 0
M  V30 7480 H 715.859 0.878395 0.356547 0
M  V30 7481 H 715.565 2.98986 1.85203 0
M  V30 7482 H 715.439 1.92704 3.24261 0
M  V30 7483 H 717.826 1.06495 2.75214 0
M  V30 7484 H 717.907 2.16239 1.36654 0
M  V30 7485 H 717.551 4.14079 2.9411 0
M  V30 7486 H 717.481 3.0133 4.31866 0
M  V30 7487 H 719.972 2.48102 2.8505 0
M  V30 7488 H 720.285 5.52867 5.39961 0
M  V30 7489 H 718.63 4.96723 4.86098 0
M  V30 7490 H 721.821 3.13627 3.475 0
M  V30 7491 H 721.994 4.52585 4.63757 0
M  V30 7492 N 715.4 -1.26948 0.933913 0
M  V30 7493 C 716.64 -1.9585 0.585003 0
M  V30 7494 C 717.004 -1.71722 -0.858802 0
M  V30 7495 O 718.205 -2.34366 -1.31629 0
M  V30 7496 C 716.476 -3.45638 0.909352 0
M  V30 7497 S 718.035 -4.33656 0.669892 0
M  V30 7498 H 714.853 -0.677485 0.215721 0
M  V30 7499 H 717.455 -1.54051 1.20368 0
M  V30 7500 H 716.159 -3.60697 1.9577 0
M  V30 7501 H 715.69 -3.92401 0.280115 0
M  V30 7502 H 717.705 -4.93975 -0.469378 0
M  V30 7503 N 716.879 -0.700114 -1.41195 0
M  V30 7504 C 717.809 -0.0521132 -2.33442 0
M  V30 7505 C 718.79 0.76228 -1.52063 0
M  V30 7506 O 719.975 0.714336 -1.80585 0
M  V30 7507 C 717.105 0.881693 -3.35922 0
M  V30 7508 C 716.059 0.174062 -4.27646 0
M  V30 7509 C 715.385 1.22254 -5.20536 0
M  V30 7510 C 716.685 -0.962396 -5.13357 0
M  V30 7511 H 718.379 -0.822574 -2.87879 0
M  V30 7512 H 715.925 -0.397011 -1.38419 0
M  V30 7513 H 717.878 1.34429 -3.99383 0
M  V30 7514 H 716.602 1.68387 -2.79845 0
M  V30 7515 H 715.261 -0.268551 -3.65615 0
M  V30 7516 H 714.909 2.01736 -4.60773 0
M  V30 7517 H 714.609 0.754038 -5.82742 0
M  V30 7518 H 716.133 1.68555 -5.86874 0
M  V30 7519 H 717.547 -0.579875 -5.7036 0
M  V30 7520 H 715.944 -1.35828 -5.84526 0
M  V30 7521 H 717.014 -1.80003 -4.50252 0
M  V30 7522 N 718.357 1.51182 -0.445186 0
M  V30 7523 C 719.773 1.59299 -0.0978954 0
M  V30 7524 C 719.973 1.4555 1.39346 0
M  V30 7525 O 719.029 1.30073 2.16419 0
M  V30 7526 C 720.342 2.94133 -0.625005 0
M  V30 7527 C 721.89 3.07463 -0.586137 0
M  V30 7528 C 722.365 4.44832 -1.09035 0
M  V30 7529 N 723.856 4.51173 -1.04867 0
M  V30 7530 C 724.591 5.55804 -1.40959 0
M  V30 7531 N 724.087 6.67816 -1.84375 0
M  V30 7532 N 725.88 5.46205 -1.32726 0
M  V30 7533 H 718.031 1.58363 -1.41544 0
M  V30 7534 H 720.294 0.746946 -0.58376 0
M  V30 7535 H 720 3.09589 -1.66876 0
M  V30 7536 H 719.874 3.77161 -0.0542262 0
M  V30 7537 H 722.261 2.9167 0.448646 0
M  V30 7538 H 722.342 2.26255 -1.19341 0
M  V30 7539 H 721.986 4.61372 -2.12364 0
M  V30 7540 H 721.916 5.24591 -0.459539 0
M  V30 7541 H 724.407 3.70783 -0.729932 0
M  V30 7542 H 724.72 7.43683 -2.10131 0
M  V30 7543 H 723.065 6.69003 -1.88308 0
M  V30 7544 H 726.256 4.57583 -0.986678 0
M  V30 7545 H 726.429 6.27634 -1.61182 0
M  V30 7546 N 719.835 0.176821 1.56605 0
M  V30 7547 C 720.767 -0.782836 2.15417 0
M  V30 7548 C 721.78 -1.18982 1.11117 0
M  V30 7549 O 722.969 -1.12872 1.38283 0
M  V30 7550 C 720.069 -2.06596 2.68647 0
M  V30 7551 C 719.242 -1.82167 3.9766 0
M  V30 7552 C 718.301 -2.94751 4.35899 0
M  V30 7553 O 717.327 -2.65148 5.03672 0
M  V30 7554 N 718.529 -4.2267 3.97907 0
M  V30 7555 H 721.294 -0.280012 2.98389 0
M  V30 7556 H 718.855 -0.00577529 1.61899 0
M  V30 7557 H 720.847 -2.81018 2.91223 0
M  V30 7558 H 719.417 -2.48054 1.90232 0
M  V30 7559 H 718.637 -0.916208 3.83405 0
M  V30 7560 H 719.925 -1.6322 4.81909 0
M  V30 7561 H 719.323 -4.4958 3.43357 0
M  V30 7562 H 717.88 -4.93778 4.25472 0
M  V30 7563 N 721.313 -1.57302 -0.09688 0
M  V30 7564 C 722.245 -1.98618 -1.14384 0
M  V30 7565 C 723.258 -0.888483 -1.36418 0
M  V30 7566 O 724.447 -1.16661 -1.35101 0
M  V30 7567 C 721.547 -2.28838 -2.49973 0
M  V30 7568 C 720.72 -3.60132 -2.48241 0
M  V30 7569 C 719.779 -3.7831 -3.65743 0
M  V30 7570 O 718.805 -4.50183 -3.48316 0
M  V30 7571 N 720.007 -3.18752 -4.85157 0
M  V30 7572 H 722.772 -2.8904 -0.792202 0
M  V30 7573 H 720.333 -1.59356 -0.285883 0
M  V30 7574 H 722.325 -2.38193 -3.27179 0
M  V30 7575 H 720.895 -1.44431 -2.77233 0
M  V30 7576 H 720.115 -3.61763 -1.56593 0
M  V30 7577 H 721.403 -4.46389 -2.4416 0
M  V30 7578 H 720.801 -2.60368 -5.0222 0
M  V30 7579 H 719.358 -3.33595 -5.59962 0
M  V30 7580 N 722.791 0.367657 -1.53252 0
M  V30 7581 C 723.741 1.45035 -1.75923 0
M  V30 7582 C 724.725 1.48736 -0.613719 0
M  V30 7583 O 725.917 1.54012 -0.872313 0
M  V30 7584 C 723.046 2.82493 -1.9507 0
M  V30 7585 C 722.132 2.83279 -3.15617 0
M  V30 7586 N 722.523 2.53712 -4.37566 0
M  V30 7587 C 720.821 3.1444 -3.16297 0
M  V30 7588 C 721.522 2.62123 -5.19294 0
M  V30 7589 N 720.498 2.96747 -4.55458 0
M  V30 7590 H 724.3 1.21035 -2.6782 0
M  V30 7591 H 721.814 0.575822 -1.51849 0
M  V30 7592 H 723.811 3.60473 -2.0944 0
M  V30 7593 H 722.471 3.07459 -1.044 0
M  V30 7594 H 723.482 2.27344 -4.65333 0
M  V30 7595 H 720.159 3.44733 -2.35511 0
M  V30 7596 H 721.549 2.42628 -6.26563 0
M  V30 7597 N 724.269 1.44576 0.627338 0
M  V30 7598 C 725.546 1.38033 1.38586 0
M  V30 7599 C 725.926 0.0409468 2.1106 0
M  V30 7600 O 725.274 -0.976582 2.0658 0
M  V30 7601 C 725.484 2.58102 2.34913 0
M  V30 7602 C 726.832 3.02332 2.98129 0
M  V30 7603 O 727.856 2.58334 2.45238 0
M  V30 7604 O 726.715 3.78628 3.94085 0
M  V30 7605 H 723.809 0.546801 0.620434 0
M  V30 7606 H 726.355 1.56672 0.652077 0
M  V30 7607 H 725.127 3.4719 1.80485 0
M  V30 7608 H 724.75 2.41696 3.15703 0
M  V30 7609 N 725.747 -0.868086 1.31537 0
M  V30 7610 C 727.024 -1.60384 1.11965 0
M  V30 7611 C 727.404 -2.08584 -0.324949 0
M  V30 7612 O 726.752 -1.86561 -1.31937 0
M  V30 7613 C 726.962 -2.76038 2.13551 0
M  V30 7614 C 728.31 -3.45954 2.46173 0
M  V30 7615 O 729.334 -2.86247 2.11993 0
M  V30 7616 O 728.193 -4.53666 3.04711 0
M  V30 7617 H 725.287 -0.705705 0.431172 0
M  V30 7618 H 727.833 -0.913385 1.43022 0
M  V30 7619 H 726.605 -2.37849 3.10714 0
M  V30 7620 H 726.228 -3.52769 1.83411 0
M  V30 7621 N 727.225 -1.14528 -1.08264 0
M  V30 7622 C 728.472 -0.914405 -1.80679 0
M  V30 7623 C 728.8 0.558952 -1.86295 0
M  V30 7624 O 728.055 1.43017 -1.33584 0
M  V30 7625 C 728.354 -1.46226 -3.26117 0
M  V30 7626 C 728.02 -2.95451 -3.40616 0
M  V30 7627 C 726.682 -3.36191 -3.4428 0
M  V30 7628 C 729.034 -3.91399 -3.44175 0
M  V30 7629 C 726.362 -4.71539 -3.49096 0
M  V30 7630 C 728.714 -5.26606 -3.50526 0
M  V30 7631 C 727.378 -5.66856 -3.52464 0
M  V30 7632 H 726.648 -0.334604 -0.661151 0
M  V30 7633 H 729.295 -1.4292 -1.27461 0
M  V30 7634 H 727.6 -0.868442 -3.82054 0
M  V30 7635 H 729.297 -1.25955 -3.80705 0
M  V30 7636 H 725.887 -2.62955 -3.38456 0
M  V30 7637 H 730.071 -3.61004 -3.40573 0
M  V30 7638 H 725.327 -5.02082 -3.4889 0
M  V30 7639 H 729.501 -6.00758 -3.52225 0
M  V30 7640 H 727.128 -6.71718 -3.55948 0
M  V30 7641 N 728.703 1.26451 -0.940633 0
M  V30 7642 C 729.666 2.24651 -0.454378 0
M  V30 7643 C 730.666 1.54826 0.434222 0
M  V30 7644 O 731.856 1.72628 0.233477 0
M  V30 7645 C 728.988 3.39148 0.345192 0
M  V30 7646 H 730.181 2.69182 -1.32217 0
M  V30 7647 H 727.734 1.38596 -0.722547 0
M  V30 7648 H 728.469 3.00018 1.23125 0
M  V30 7649 H 728.254 3.9101 -0.292107 0
M  V30 7650 H 729.744 4.12103 0.675341 0
M  V30 7651 N 730.181 0.707592 1.40822 0
M  V30 7652 C 731.458 0.171172 1.9485 0
M  V30 7653 C 731.838 -1.32143 1.64625 0
M  V30 7654 O 731.186 -2.07372 0.959647 0
M  V30 7655 C 731.396 0.475334 3.45748 0
M  V30 7656 C 732.744 0.409625 4.22619 0
M  V30 7657 O 733.768 0.410934 3.53822 0
M  V30 7658 O 732.627 0.380185 5.45176 0
M  V30 7659 H 729.721 0.022015 0.826707 0
M  V30 7660 H 732.267 0.784577 1.50474 0
M  V30 7661 H 731.039 1.50801 3.61075 0
M  V30 7662 H 730.662 -0.168439 3.97243 0
M  V30 7663 N 731.66 -1.50943 0.453197 0
M  V30 7664 C 732.937 -1.94872 -0.168633 0
M  V30 7665 C 733.317 -1.39272 -1.5864 0
M  V30 7666 O 732.665 -0.586272 -2.20851 0
M  V30 7667 C 732.875 -3.48757 -0.130217 0
M  V30 7668 C 734.223 -4.23331 -0.327975 0
M  V30 7669 O 735.247 -3.55594 -0.207619 0
M  V30 7670 O 734.106 -5.43529 -0.569077 0
M  V30 7671 H 731.2 -0.818042 -0.121394 0
M  V30 7672 H 733.746 -1.61782 0.512316 0
M  V30 7673 H 732.518 -3.81725 0.860346 0
M  V30 7674 H 732.141 -3.88333 -0.853397 0
M  V30 7675 N 733.138 -0.185124 -1.56509 0
M  V30 7676 C 734.387 0.456421 -1.96468 0
M  V30 7677 C 734.7 1.63448 -1.07444 0
M  V30 7678 O 735.906 2.34316 -1.37143 0
M  V30 7679 C 734.362 0.863404 -3.4939 0
M  V30 7680 C 733.97 -0.289815 -4.47062 0
M  V30 7681 C 735.714 1.47259 -3.98139 0
M  V30 7682 C 733.621 0.137571 -5.9124 0
M  V30 7683 H 732.551 0.17429 -0.733579 0
M  V30 7684 H 735.202 -0.275554 -1.81419 0
M  V30 7685 H 733.584 1.65176 -3.59907 0
M  V30 7686 H 734.758 -1.06728 -4.4827 0
M  V30 7687 H 733.073 -0.809851 -4.08449 0
M  V30 7688 H 735.67 1.80463 -5.03326 0
M  V30 7689 H 736.013 2.3755 -3.41871 0
M  V30 7690 H 736.546 0.748405 -3.90696 0
M  V30 7691 H 733.285 -0.730907 -6.51412 0
M  V30 7692 H 732.805 0.8801 -5.93308 0
M  V30 7693 H 734.484 0.576771 -6.44424 0
M  V30 7694 N 734.616 1.57351 0.0885366 0
M  V30 7695 C 735.841 1.91011 0.80805 0
M  V30 7696 C 736.266 0.780009 1.71165 0
M  V30 7697 O 735.624 -0.268083 1.79307 0
M  V30 7698 C 735.672 3.23562 1.59185 0
M  V30 7699 O 734.776 3.11615 2.7013 0
M  V30 7700 H 734.117 0.625943 0.221565 0
M  V30 7701 H 736.647 2.04507 0.0617954 0
M  V30 7702 H 736.657 3.5703 1.97468 0
M  V30 7703 H 735.332 4.05398 0.928741 0
M  V30 7704 H 733.909 2.89673 2.34827 0
M  V30 7705 N 736.094 -0.359525 1.53444 0
M  V30 7706 C 737.024 -1.44662 1.8329 0
M  V30 7707 C 738.005 -1.55617 0.68683 0
M  V30 7708 O 739.19 -1.70086 0.93725 0
M  V30 7709 C 736.32 -2.81923 2.02822 0
M  V30 7710 C 735.274 -2.85787 3.18606 0
M  V30 7711 C 734.6 -4.25781 3.23442 0
M  V30 7712 C 735.9 -2.52762 4.57065 0
M  V30 7713 H 737.594 -1.19934 2.74329 0
M  V30 7714 H 735.14 -0.575517 1.31999 0
M  V30 7715 H 737.093 -3.58005 2.22285 0
M  V30 7716 H 735.817 -3.08051 1.085 0
M  V30 7717 H 734.476 -2.12157 2.98973 0
M  V30 7718 H 734.124 -4.48994 2.26745 0
M  V30 7719 H 733.824 -4.29281 4.01238 0
M  V30 7720 H 735.348 -5.03727 3.45096 0
M  V30 7721 H 736.762 -3.18557 4.76649 0
M  V30 7722 H 735.159 -2.67569 5.37147 0
M  V30 7723 H 736.229 -1.47993 4.61764 0
M  V30 7724 N 737.572 -1.44907 -0.619662 0
M  V30 7725 C 738.502 -1.55488 -1.742 0
M  V30 7726 C 739.483 -0.407143 -1.65156 0
M  V30 7727 O 740.668 -0.628743 -1.8374 0
M  V30 7728 C 737.798 -1.5097 -3.1277 0
M  V30 7729 C 736.752 -2.64337 -3.36615 0
M  V30 7730 C 736.078 -2.44872 -4.75333 0
M  V30 7731 C 737.378 -4.06423 -3.28051 0
M  V30 7732 H 739.072 -2.49432 -1.65602 0
M  V30 7733 H 736.618 -1.20047 -0.795281 0
M  V30 7734 H 738.571 -1.56971 -3.91073 0
M  V30 7735 H 737.295 -0.535486 -3.2218 0
M  V30 7736 H 735.954 -2.57744 -2.60698 0
M  V30 7737 H 735.602 -1.45617 -4.81461 0
M  V30 7738 H 735.302 -3.20888 -4.92244 0
M  V30 7739 H 736.826 -2.52709 -5.55851 0
M  V30 7740 H 738.24 -4.14324 -3.96243 0
M  V30 7741 H 736.637 -4.82733 -3.56495 0
M  V30 7742 H 737.707 -4.29183 -2.25676 0
M  V30 7743 N 739.05 0.861098 -1.31996 0
M  V30 7744 C 739.997 1.96912 -1.20392 0
M  V30 7745 C 740.967 1.65869 -0.0875899 0
M  V30 7746 O 742.152 1.88992 -0.262011 0
M  V30 7747 C 739.292 3.32435 -0.926335 0
M  V30 7748 C 738.405 3.76018 -2.12684 0
M  V30 7749 C 737.54 5.00301 -1.78529 0
M  V30 7750 C 736.579 5.36357 -2.94937 0
M  V30 7751 N 735.716 6.51818 -2.60917 0
M  V30 7752 H 740.556 2.06169 -2.1517 0
M  V30 7753 H 738.093 1.00917 -1.07024 0
M  V30 7754 H 740.051 4.10478 -0.745917 0
M  V30 7755 H 738.681 3.22796 -0.0153578 0
M  V30 7756 H 737.733 2.93683 -2.41774 0
M  V30 7757 H 739.045 3.98664 -2.99781 0
M  V30 7758 H 738.199 5.86034 -1.57001 0
M  V30 7759 H 736.938 4.79578 -0.886356 0
M  V30 7760 H 735.943 4.49139 -3.17103 0
M  V30 7761 H 737.168 5.59041 -3.85552 0
M  V30 7762 H 735.114 6.32624 -1.73558 0
M  V30 7763 H 735.031 6.7445 -3.41544 0
M  V30 7764 H 736.299 7.4072 -2.42804 0
M  V30 7765 O 740.567 1.26963 0.998129 0
M  V30 7766 H 741.258 1.06242 1.61964 0
M  V30 END ATOM
M  V30 BEGIN BOND
M  V30 END BOND
M  V30 END CTAB
M  END
$$$$
