drugbank_target|O75385 Serine/threonine-protein kinase ULK1 (DB12010)
 OpenBabel12092121143D

  0  0  0     0  0            999 V3000
M  V30 BEGIN CTAB
M  V30 COUNTS 15827 16026 0 0 0
M  V30 BEGIN ATOM
M  V30 1 H -0.908 1.98254 -0.117106 0
M  V30 2 N 0 1.576 0 0
M  V30 3 C 0.933 2.03868 1.02534 0
M  V30 4 C 1.911 0.928543 1.3348 0
M  V30 5 O 3.095 1.19667 1.45644 0
M  V30 6 C 0.222 2.43627 2.35294 0
M  V30 7 C -0.732 3.65373 2.2001 0
M  V30 8 S 0.101 5.13292 1.52614 0
M  V30 9 C 1.257 5.56322 2.86805 0
M  V30 10 H 1.49 2.90518 0.631377 0
M  V30 11 H -0.977 1.52953 0.210867 0
M  V30 12 H 0.981 2.67203 3.11629 0
M  V30 13 H -0.358 1.57376 2.7183 0
M  V30 14 H -1.165 3.90944 3.18086 0
M  V30 15 H -1.563 3.418 1.51819 0
M  V30 16 H 0.729 5.58782 3.83104 0
M  V30 17 H 1.672 6.56266 2.65933 0
M  V30 18 H 2.08 4.83886 2.90714 0
M  V30 19 N 1.4781 -0.272755 1.55222 0
M  V30 20 C 2.3881 -1.35918 1.91216 0
M  V30 21 C 3.4041 -1.54026 0.809436 0
M  V30 22 O 4.5801 -1.68148 1.10852 0
M  V30 23 C 1.6451 -2.69834 2.17693 0
M  V30 24 C 0.7061 -2.6047 3.41253 0
M  V30 25 C -0.0609 -3.88 3.66458 0
M  V30 26 O 0.1621 -4.88693 2.94169 0
M  V30 27 O -0.9039 -3.88189 4.59992 0
M  V30 28 H 2.9221 -1.0839 2.83699 0
M  V30 29 H 0.5071 -0.471301 1.41771 0
M  V30 30 H 2.3891 -3.49017 2.36147 0
M  V30 31 H 1.0641 -2.97148 1.28392 0
M  V30 32 H -0.0289 -1.79663 3.28134 0
M  V30 33 H 1.3041 -2.38106 4.30774 0
M  V30 34 N 2.9562 -1.48159 -0.537278 0
M  V30 35 C 4.3672 -1.49429 -1.11928 0
M  V30 36 C 4.7182 -0.26 -1.9447 0
M  V30 37 O 3.8432 0.633489 -2.0692 0
M  V30 38 C 4.4382 -2.70758 -2.03656 0
M  V30 39 C 2.9972 -2.74923 -2.57088 0
M  V30 40 C 2.1442 -2.42835 -1.3389 0
M  V30 41 H 5.0952 -1.55381 -0.322886 0
M  V30 42 H 5.1162 -2.48861 -2.87834 0
M  V30 43 H 4.6282 -3.60575 -1.43553 0
M  V30 44 H 2.7292 -1.89296 -3.20933 0
M  V30 45 H 2.8422 -3.76157 -2.9672 0
M  V30 46 H 1.2062 -1.93836 -1.65226 0
M  V30 47 H 1.9892 -3.34884 -0.755504 0
M  V30 48 N 4.4343 0.785586 -1.36625 0
M  V30 49 C 5.6823 1.54057 -1.30808 0
M  V30 50 C 6.0033 1.94683 0.111157 0
M  V30 51 O 5.2733 1.65241 1.05224 0
M  V30 52 H 3.8533 0.571354 -0.481211 0
M  V30 53 H 6.5153 0.935821 -1.70963 0
M  V30 54 H 5.6113 2.44637 -1.93801 0
M  V30 55 N 5.9124 1.20967 1.01018 0
M  V30 56 C 7.3284 0.965905 1.27053 0
M  V30 57 C 7.5284 -0.350785 1.98423 0
M  V30 58 O 6.5844 -1.07773 2.28344 0
M  V30 59 C 7.8974 2.15294 2.09926 0
M  V30 60 C 9.4454 2.19463 2.23171 0
M  V30 61 C 9.9204 3.3767 3.09424 0
M  V30 62 N 11.4114 3.37724 3.17012 0
M  V30 63 C 12.1464 4.25837 3.83993 0
M  V30 64 N 11.6424 5.24138 4.53047 0
M  V30 65 N 13.4354 4.1366 3.80581 0
M  V30 66 H 5.5864 2.0565 0.531194 0
M  V30 67 H 7.8494 0.90024 0.297106 0
M  V30 68 H 7.5554 3.10684 1.64828 0
M  V30 69 H 7.4294 2.13923 3.10672 0
M  V30 70 H 9.8164 1.24632 2.6749 0
M  V30 71 H 9.8974 2.2488 1.21912 0
M  V30 72 H 9.5414 4.32791 2.65808 0
M  V30 73 H 9.4714 3.29491 4.10784 0
M  V30 74 H 11.9624 2.6658 2.6785 0
M  V30 75 H 12.2754 5.87684 5.01844 0
M  V30 76 H 10.6204 5.28068 4.5185 0
M  V30 77 H 13.8114 3.36127 3.25785 0
M  V30 78 H 13.9844 4.82538 4.32505 0
M  V30 79 N 7.3905 -1.2043 1.01659 0
M  V30 80 C 8.6385 -1.89423 0.704522 0
M  V30 81 C 8.9595 -1.79231 -0.768197 0
M  V30 82 O 8.2295 -1.1947 -1.55254 0
M  V30 83 H 6.8095 -0.701178 0.257602 0
M  V30 84 H 9.4715 -1.4626 1.28818 0
M  V30 85 H 8.5675 -2.96052 0.987916 0
M  V30 86 N 8.8686 -0.792821 -1.36206 0
M  V30 87 C 10.1166 -0.366062 -1.98757 0
M  V30 88 C 10.4376 1.0668 -1.63231 0
M  V30 89 O 9.7076 1.73587 -0.907978 0
M  V30 90 H 8.2876 -0.132364 -0.735179 0
M  V30 91 H 10.9496 -1.01562 -1.66347 0
M  V30 92 H 10.0456 -0.460638 -3.08682 0
M  V30 93 N 10.3467 1.47872 -0.545128 0
M  V30 94 C 11.5747 2.06889 -0.021084 0
M  V30 95 C 11.9897 1.39955 1.2672 0
M  V30 96 O 11.3467 0.492036 1.75742 0
M  V30 97 C 11.3977 3.60996 0.190817 0
M  V30 98 O 11.1187 4.25419 -1.04644 0
M  V30 99 C 12.6197 4.36849 0.753521 0
M  V30 100 H 9.8397 0.669785 -0.0403635 0
M  V30 101 H 12.3837 1.90049 -0.755095 0
M  V30 102 H 10.5387 3.77391 0.87492 0
M  V30 103 H 10.9527 5.17785 -0.836611 0
M  V30 104 H 12.4267 5.45399 0.851139 0
M  V30 105 H 12.9037 4.02306 1.762 0
M  V30 106 H 13.5097 4.25169 0.105503 0
M  V30 107 N 11.8248 0.280983 1.55075 0
M  V30 108 C 12.7348 -0.61388 2.26426 0
M  V30 109 C 13.7508 -1.16521 1.29224 0
M  V30 110 O 14.9268 -1.19426 1.62171 0
M  V30 111 C 11.9918 -1.7788 2.9759 0
M  V30 112 C 11.0528 -1.26355 4.10284 0
M  V30 113 C 10.2858 -2.37295 4.78045 0
M  V30 114 O 10.5088 -3.56777 4.45047 0
M  V30 115 O 9.4428 -2.05119 5.65871 0
M  V30 116 H 13.2688 -0.0356932 3.03679 0
M  V30 117 H 10.8538 0.0481686 1.49322 0
M  V30 118 H 12.7358 -2.45791 3.42293 0
M  V30 119 H 11.4108 -2.34397 2.23249 0
M  V30 120 H 10.3178 -0.550735 3.70024 0
M  V30 121 H 11.6508 -0.744065 4.86543 0
M  V30 122 N 13.3029 -1.57598 0.00835791 0
M  V30 123 C 14.5309 -1.95214 -0.68549 0
M  V30 124 C 14.9459 -0.883706 -1.66841 0
M  V30 125 O 14.3029 0.136565 -1.81988 0
M  V30 126 C 14.3539 -3.32865 -1.41007 0
M  V30 127 O 14.0749 -4.35609 -0.466552 0
M  V30 128 C 15.5759 -3.84991 -2.19765 0
M  V30 129 H 12.7959 -0.643422 -0.190392 0
M  V30 130 H 15.3399 -2.04406 0.0619607 0
M  V30 131 H 13.4949 -3.24956 -2.10908 0
M  V30 132 H 13.9089 -5.15288 -0.978699 0
M  V30 133 H 15.3829 -4.8371 -2.65948 0
M  V30 134 H 15.8599 -3.18137 -3.02796 0
M  V30 135 H 16.4659 -3.96103 -1.54864 0
M  V30 136 N 14.781 0.264519 -1.55364 0
M  V30 137 C 16.027 0.99646 -1.76631 0
M  V30 138 C 16.36 1.85632 -0.570478 0
M  V30 139 O 15.635 1.89647 0.43175 0
M  V30 140 C 15.918 1.87187 -3.07625 0
M  V30 141 C 15.771 1.04138 -4.37579 0
M  V30 142 C 17.09 2.85749 -3.34717 0
M  V30 143 H 14.209 0.360841 -0.642622 0
M  V30 144 H 16.851 0.268218 -1.88097 0
M  V30 145 H 15.001 2.49279 -2.9798 0
M  V30 146 H 16.673 0.440517 -4.59192 0
M  V30 147 H 14.916 0.345115 -4.32425 0
M  V30 148 H 15.587 1.68729 -5.2558 0
M  V30 149 H 18.063 2.33793 -3.4421 0
M  V30 150 H 16.939 3.44136 -4.27623 0
M  V30 151 H 17.2 3.61311 -2.54768 0
M  V30 152 N 16.2591 1.48442 0.529413 0
M  V30 153 C 17.5071 1.56179 1.28267 0
M  V30 154 C 17.8281 0.237721 1.93546 0
M  V30 155 O 17.0981 -0.740779 1.81354 0
M  V30 156 H 15.6781 0.575367 0.476405 0
M  V30 157 H 18.3401 1.84909 0.61602 0
M  V30 158 H 17.4361 2.34312 2.06165 0
M  V30 159 N 17.7372 -0.778329 1.37039 0
M  V30 160 C 18.6842 -1.89139 1.32269 0
M  V30 161 C 19.6542 -1.65017 0.189387 0
M  V30 162 O 20.8392 -1.87024 0.377693 0
M  V30 163 C 17.9792 -3.26112 1.12894 0
M  V30 164 C 17.0922 -3.62233 2.35396 0
M  V30 165 C 16.2272 -4.8838 2.08946 0
M  V30 166 C 15.2662 -5.17212 3.2735 0
M  V30 167 N 14.4032 -6.34546 3.00492 0
M  V30 168 H 19.2432 -1.92552 2.27437 0
M  V30 169 H 16.7802 -0.941473 1.13025 0
M  V30 170 H 18.7382 -4.05116 0.996835 0
M  V30 171 H 17.3682 -3.22091 0.213758 0
M  V30 172 H 16.4202 -2.78265 2.5937 0
M  V30 173 H 17.7322 -3.79481 3.23721 0
M  V30 174 H 16.8862 -5.75274 1.92729 0
M  V30 175 H 15.6252 -4.73222 1.17949 0
M  V30 176 H 14.6302 -4.28796 3.44113 0
M  V30 177 H 15.8552 -5.34283 4.19188 0
M  V30 178 H 13.8012 -6.20759 2.12118 0
M  V30 179 H 13.7182 -6.52179 3.82358 0
M  V30 180 H 14.9862 -7.24394 2.87879 0
M  V30 181 N 19.2153 -1.21501 -1.00376 0
M  V30 182 C 20.4623 -1.03299 -1.74171 0
M  V30 183 C 20.7903 0.433326 -1.89612 0
M  V30 184 O 20.0453 1.33779 -1.42834 0
M  V30 185 C 20.3443 -1.67673 -3.15627 0
M  V30 186 C 20.0103 -3.17533 -3.2013 0
M  V30 187 C 18.6723 -3.58427 -3.21067 0
M  V30 188 C 21.0243 -4.13504 -3.17275 0
M  V30 189 C 18.3523 -4.93794 -3.16835 0
M  V30 190 C 20.7043 -5.48834 -3.14585 0
M  V30 191 C 19.3683 -5.89123 -3.13831 0
M  V30 192 H 18.6383 -0.377999 -0.637336 0
M  V30 193 H 21.2853 -1.51111 -1.17634 0
M  V30 194 H 19.5903 -1.12158 -3.75404 0
M  V30 195 H 21.2873 -1.51091 -3.71446 0
M  V30 196 H 17.8773 -2.84965 -3.20145 0
M  V30 197 H 22.0613 -3.82936 -3.15711 0
M  V30 198 H 17.3173 -5.24255 -3.1459 0
M  V30 199 H 21.4913 -6.22934 -3.1133 0
M  V30 200 H 19.1183 -6.93984 -3.10307 0
M  V30 201 N 20.6934 1.19889 -1.02296 0
M  V30 202 C 21.6034 2.26571 -0.608508 0
M  V30 203 C 22.6194 1.70299 0.356964 0
M  V30 204 O 23.7954 2.00235 0.216326 0
M  V30 205 C 20.8604 3.46677 0.0402814 0
M  V30 206 C 19.9214 4.18153 -0.97194 0
M  V30 207 C 19.1544 5.32525 -0.354016 0
M  V30 208 O 19.3774 5.64112 0.844604 0
M  V30 209 O 18.3114 5.92242 -1.07391 0
M  V30 210 H 22.1374 2.64251 -1.49684 0
M  V30 211 H 19.7224 1.26629 -0.792809 0
M  V30 212 H 21.6044 4.19475 0.402324 0
M  V30 213 H 20.2794 3.10858 0.902707 0
M  V30 214 H 19.1864 3.47499 -1.38546 0
M  V30 215 H 20.5194 4.57927 -1.80454 0
M  V30 216 N 22.1715 0.800033 1.35784 0
M  V30 217 C 23.4185 0.377342 1.98953 0
M  V30 218 C 23.7465 -1.05378 1.6348 0
M  V30 219 O 23.0015 -1.74459 0.886707 0
M  V30 220 C 23.3005 0.500276 3.53881 0
M  V30 221 C 22.9665 1.89375 4.09204 0
M  V30 222 C 21.6285 2.27499 4.24025 0
M  V30 223 C 23.9805 2.8057 4.39238 0
M  V30 224 C 21.3085 3.562 4.66195 0
M  V30 225 C 23.6605 4.0871 4.82844 0
M  V30 226 C 22.3245 4.46843 4.95871 0
M  V30 227 H 21.5945 0.138079 0.728021 0
M  V30 228 H 24.2415 1.01955 1.62103 0
M  V30 229 H 22.5465 -0.225405 3.91151 0
M  V30 230 H 24.2435 0.154097 4.00704 0
M  V30 231 H 20.8335 1.58753 3.98115 0
M  V30 232 H 25.0175 2.52367 4.27346 0
M  V30 233 H 20.2735 3.85602 4.74469 0
M  V30 234 H 24.4475 4.79481 5.05046 0
M  V30 235 H 22.0745 5.46623 5.28306 0
M  V30 236 N 23.6496 -1.47581 0.552962 0
M  V30 237 C 24.8746 -2.07378 0.0300593 0
M  V30 238 C 25.2996 -1.40355 -1.25229 0
M  V30 239 O 24.6576 -0.477099 -1.7491 0
M  V30 240 C 24.7056 -3.60274 -0.153231 0
M  V30 241 O 23.8096 -3.94041 -1.21678 0
M  V30 242 H 23.1506 -0.662158 0.0494182 0
M  V30 243 H 25.6806 -1.89662 0.767434 0
M  V30 244 H 25.6906 -4.0633 -0.368761 0
M  V30 245 H 24.3656 -4.08455 0.783397 0
M  V30 246 H 22.9426 -3.59735 -0.982079 0
M  V30 247 N 25.1277 -0.289203 -1.54924 0
M  V30 248 C 26.5437 0.0645403 -1.59469 0
M  V30 249 C 26.7437 1.53419 -1.30632 0
M  V30 250 O 25.7997 2.2852 -1.074 0
M  V30 251 C 27.1127 -0.32278 -2.98963 0
M  V30 252 C 28.6607 -0.270564 -3.11828 0
M  V30 253 C 29.1357 -0.632532 -4.53611 0
M  V30 254 N 30.6267 -0.584617 -4.59496 0
M  V30 255 C 31.3617 -0.837314 -5.67254 0
M  V30 256 N 30.8577 -1.15536 -6.83098 0
M  V30 257 N 32.6507 -0.765166 -5.56868 0
M  V30 258 H 24.8017 -1.24714 -1.71931 0
M  V30 259 H 27.0647 -0.504809 -0.802416 0
M  V30 260 H 26.7707 -1.34541 -3.24948 0
M  V30 261 H 26.6447 0.32944 -3.75759 0
M  V30 262 H 29.0317 0.742805 -2.85598 0
M  V30 263 H 29.1127 -0.957242 -2.37214 0
M  V30 264 H 28.7567 -1.64365 -4.80569 0
M  V30 265 H 28.6867 0.07609 -5.26545 0
M  V30 266 H 31.1777 -0.349248 -3.76283 0
M  V30 267 H 31.4907 -1.33447 -7.61191 0
M  V30 268 H 29.8357 -1.19328 -6.84679 0
M  V30 269 H 33.0267 -0.516432 -4.65243 0
M  V30 270 H 33.1997 -0.965477 -6.40767 0
M  V30 271 N 26.6058 1.57591 -0.0167156 0
M  V30 272 C 27.5528 2.09462 0.969251 0
M  V30 273 C 28.5228 0.99381 1.33089 0
M  V30 274 O 29.7078 1.26726 1.42636 0
M  V30 275 C 26.8478 2.61622 2.25051 0
M  V30 276 C 25.9608 3.85666 1.94642 0
M  V30 277 C 25.0958 4.26266 3.16972 0
M  V30 278 C 24.1348 5.43101 2.82326 0
M  V30 279 N 23.2718 5.78915 3.97243 0
M  V30 280 H 28.1118 2.93428 0.519997 0
M  V30 281 H 25.6488 1.45044 0.245087 0
M  V30 282 H 27.6068 2.89949 2.99976 0
M  V30 283 H 26.2368 1.80505 2.67615 0
M  V30 284 H 25.2888 3.64145 1.10013 0
M  V30 285 H 26.6008 4.70678 1.65117 0
M  V30 286 H 25.7548 4.55963 4.00228 0
M  V30 287 H 24.4938 3.39996 3.49648 0
M  V30 288 H 23.4988 5.1311 1.97479 0
M  V30 289 H 24.7238 6.3106 2.50879 0
M  V30 290 H 22.6698 4.95602 4.29785 0
M  V30 291 H 22.5868 6.58539 3.71299 0
M  V30 292 H 23.8548 6.13212 4.81239 0
M  V30 293 N 28.0839 -0.256276 1.55502 0
M  V30 294 C 29.3609 -1.00789 1.67633 0
M  V30 295 C 29.7409 -2.03706 0.553826 0
M  V30 296 O 29.0889 -2.24145 -0.443969 0
M  V30 297 C 29.2989 -1.64968 3.07549 0
M  V30 298 C 30.6469 -2.15505 3.65845 0
M  V30 299 O 31.6709 -1.74925 3.1029 0
M  V30 300 O 30.5299 -2.89986 4.63217 0
M  V30 301 H 27.6239 -0.468553 0.681459 0
M  V30 302 H 30.1699 -0.250806 1.67836 0
M  V30 303 H 28.9419 -0.904785 3.80696 0
M  V30 304 H 28.5649 -2.47321 3.11317 0
M  V30 305 N 29.562 -1.4872 -0.521534 0
M  V30 306 C 30.492 -1.66771 -1.63431 0
M  V30 307 C 31.473 -0.516499 -1.62069 0
M  V30 308 O 32.658 -0.750013 -1.79132 0
M  V30 309 C 29.788 -1.71515 -3.01993 0
M  V30 310 C 28.742 -2.86222 -3.18216 0
M  V30 311 C 28.068 -2.76061 -4.57924 0
M  V30 312 C 29.368 -4.27419 -3.00184 0
M  V30 313 H 31.062 -2.59932 -1.48579 0
M  V30 314 H 28.608 -1.25089 -0.713358 0
M  V30 315 H 30.561 -1.82731 -3.7972 0
M  V30 316 H 29.285 -0.749393 -3.17886 0
M  V30 317 H 27.944 -2.74575 -2.42908 0
M  V30 318 H 27.592 -1.77437 -4.70665 0
M  V30 319 H 27.292 -3.53037 -4.69722 0
M  V30 320 H 28.816 -2.89256 -5.37739 0
M  V30 321 H 30.23 -4.39855 -3.67697 0
M  V30 322 H 28.627 -5.05458 -3.2347 0
M  V30 323 H 29.697 -4.43293 -1.96518 0
M  V30 324 N 31.0401 0.771051 -1.3745 0
M  V30 325 C 32.2891 1.52491 -1.3202 0
M  V30 326 C 32.6021 1.9538 0.0927347 0
M  V30 327 O 33.8081 2.70159 0.269503 0
M  V30 328 C 32.2641 2.75366 -2.31736 0
M  V30 329 C 31.8721 2.39573 -3.78562 0
M  V30 330 C 33.6161 3.53307 -2.35318 0
M  V30 331 C 31.5231 3.58954 -4.70007 0
M  V30 332 H 30.4531 0.572506 -0.490666 0
M  V30 333 H 33.1041 0.844474 -1.62914 0
M  V30 334 H 31.4861 3.45303 -1.93861 0
M  V30 335 H 32.6601 1.77415 -4.25277 0
M  V30 336 H 30.9751 1.74805 -3.77932 0
M  V30 337 H 33.5721 4.42039 -3.00842 0
M  V30 338 H 33.9151 3.93217 -1.36698 0
M  V30 339 H 34.4481 2.90367 -2.71904 0
M  V30 340 H 31.1871 3.24125 -5.69757 0
M  V30 341 H 30.7071 4.20214 -4.27996 0
M  V30 342 H 32.3861 4.25758 -4.87175 0
M  V30 343 N 32.5182 1.22032 0.997298 0
M  V30 344 C 33.7662 1.04016 1.73278 0
M  V30 345 C 34.0872 -0.426255 1.90284 0
M  V30 346 O 33.3572 -1.30694 1.45931 0
M  V30 347 H 31.9372 0.381897 0.642 0
M  V30 348 H 34.5992 1.5347 1.20137 0
M  V30 349 H 33.6952 1.51441 2.72896 0
M  V30 350 N 33.9963 -1.19345 1.0293 0
M  V30 351 C 34.9463 -2.20472 0.58104 0
M  V30 352 C 35.9303 -1.56578 -0.370442 0
M  V30 353 O 37.1223 -1.75963 -0.191344 0
M  V30 354 C 34.2513 -3.43236 -0.066306 0
M  V30 355 C 33.3373 -4.14274 0.907642 0
M  V30 356 N 33.7283 -4.61492 2.07023 0
M  V30 357 C 32.0263 -4.39966 0.731177 0
M  V30 358 C 32.7273 -5.1605 2.68454 0
M  V30 359 N 31.7033 -5.06875 1.96414 0
M  V30 360 H 35.5053 -2.54659 1.46717 0
M  V30 361 H 33.0193 -1.35423 0.896345 0
M  V30 362 H 35.0163 -4.14927 -0.405068 0
M  V30 363 H 33.6763 -3.10549 -0.948118 0
M  V30 364 H 34.6873 -4.56304 2.44963 0
M  V30 365 H 31.3643 -4.17377 -0.101507 0
M  V30 366 H 32.7543 -5.6287 3.66915 0
M  V30 367 N 35.4744 -0.807222 -1.35358 0
M  V30 368 C 36.7224 -0.387122 -1.98358 0
M  V30 369 C 37.0434 1.04942 -1.64354 0
M  V30 370 O 36.3134 1.72615 -0.926339 0
M  V30 371 H 34.8934 -0.140154 -0.733734 0
M  V30 372 H 37.5554 -1.0332 -1.6526 0
M  V30 373 H 36.6514 -0.493352 -3.08176 0
M  V30 374 N 36.9525 1.47285 -0.560781 0
M  V30 375 C 37.9155 2.28535 0.174488 0
M  V30 376 C 38.9155 1.37153 0.839388 0
M  V30 377 O 40.1055 1.59748 0.694702 0
M  V30 378 C 37.2375 3.16934 1.25561 0
M  V30 379 H 38.4305 2.95012 -0.539262 0
M  V30 380 H 35.9835 1.53034 -0.317865 0
M  V30 381 H 36.7185 2.55157 2.00164 0
M  V30 382 H 36.5035 3.8419 0.783604 0
M  V30 383 H 37.9935 3.78143 1.77193 0
M  V30 384 N 38.4306 0.297415 1.54768 0
M  V30 385 C 39.6776 -0.312913 2.00068 0
M  V30 386 C 40.0056 -1.54171 1.18582 0
M  V30 387 O 39.2606 -1.94108 0.249133 0
M  V30 388 C 39.5596 -0.717561 3.50123 0
M  V30 389 C 39.2256 0.409095 4.4904 0
M  V30 390 C 37.8876 0.718399 4.75807 0
M  V30 391 C 40.2396 1.16717 5.07963 0
M  V30 392 C 37.5676 1.78896 5.5876 0
M  V30 393 C 39.9196 2.22762 5.92081 0
M  V30 394 C 38.5836 2.54303 6.1716 0
M  V30 395 H 37.8536 -0.114503 0.7321 0
M  V30 396 H 40.5006 0.415767 1.86932 0
M  V30 397 H 38.8056 -1.52627 3.60849 0
M  V30 398 H 40.5026 -1.20091 3.82595 0
M  V30 399 H 37.0926 0.157918 4.28309 0
M  V30 400 H 41.2766 0.941466 4.87289 0
M  V30 401 H 36.5326 2.0381 5.7643 0
M  V30 402 H 40.7066 2.81962 6.36765 0
M  V30 403 H 38.3336 3.3739 6.81229 0
M  V30 404 N 39.9087 -1.5758 0.0250728 0
M  V30 405 C 40.8717 -2.08896 -0.943139 0
M  V30 406 C 41.8717 -1.00321 -1.25668 0
M  V30 407 O 43.0617 -1.26495 -1.19769 0
M  V30 408 C 40.1937 -2.55143 -2.26086 0
M  V30 409 H 41.3867 -2.95723 -0.498775 0
M  V30 410 H 38.9397 -1.54703 -0.222888 0
M  V30 411 H 39.6747 -1.71633 -2.75159 0
M  V30 412 H 39.4597 -3.34461 -2.04641 0
M  V30 413 H 40.9497 -2.95083 -2.95492 0
M  V30 414 N 41.3868 0.248026 -1.55636 0
M  V30 415 C 42.6328 0.97767 -1.77678 0
M  V30 416 C 42.9658 1.85016 -0.590135 0
M  V30 417 O 42.2408 1.90095 0.411611 0
M  V30 418 C 42.5238 1.83914 -3.09593 0
M  V30 419 C 42.3768 0.99491 -4.38659 0
M  V30 420 C 43.6958 2.82183 -3.37729 0
M  V30 421 H 40.8148 0.354005 -0.646413 0
M  V30 422 H 43.4568 0.248253 -1.88371 0
M  V30 423 H 41.6068 2.46104 -3.00608 0
M  V30 424 H 43.2788 0.391789 -4.59633 0
M  V30 425 H 41.5218 0.299231 -4.32767 0
M  V30 426 H 42.1928 1.63145 -5.2734 0
M  V30 427 H 44.6688 2.30129 -3.4667 0
M  V30 428 H 43.5448 3.39582 -4.31249 0
M  V30 429 H 43.8058 3.58588 -2.58586 0
M  V30 430 N 42.8649 1.48995 0.513639 0
M  V30 431 C 44.1109 1.58076 1.27042 0
M  V30 432 C 44.4439 0.261026 1.92438 0
M  V30 433 O 43.7189 -0.734393 1.80103 0
M  V30 434 C 44.0019 2.73091 2.34719 0
M  V30 435 C 43.8549 4.14821 1.73907 0
M  V30 436 C 45.1739 2.83796 3.36375 0
M  V30 437 H 42.2929 0.575391 0.460536 0
M  V30 438 H 44.9349 1.81232 0.570516 0
M  V30 439 H 43.0849 2.53479 2.94416 0
M  V30 440 H 44.7569 4.45917 1.18135 0
M  V30 441 H 42.9999 4.21058 1.0437 0
M  V30 442 H 43.6709 4.91147 2.51949 0
M  V30 443 H 46.1469 3.01611 2.86653 0
M  V30 444 H 45.0229 3.65971 4.09093 0
M  V30 445 H 45.2839 1.92624 3.9793 0
M  V30 446 N 44.343 -0.763751 1.37857 0
M  V30 447 C 45.59 -1.52257 1.33506 0
M  V30 448 C 45.918 -1.94343 -0.078022 0
M  V30 449 O 45.173 -1.64958 -1.05297 0
M  V30 450 C 45.472 -2.79499 2.22745 0
M  V30 451 C 45.138 -2.56426 3.70886 0
M  V30 452 C 43.8 -2.49842 4.11257 0
M  V30 453 C 46.152 -2.36008 4.64704 0
M  V30 454 C 43.48 -2.20841 5.43549 0
M  V30 455 C 45.832 -2.0853 5.97242 0
M  V30 456 C 44.496 -2.00396 6.36709 0
M  V30 457 H 43.766 -0.557149 0.488534 0
M  V30 458 H 46.413 -0.879073 1.70131 0
M  V30 459 H 44.718 -3.48447 1.79142 0
M  V30 460 H 46.415 -3.37413 2.16688 0
M  V30 461 H 43.005 -2.62416 3.38874 0
M  V30 462 H 47.189 -2.40079 4.34368 0
M  V30 463 H 42.445 -2.13045 5.73081 0
M  V30 464 H 46.619 -1.91732 6.69486 0
M  V30 465 H 44.246 -1.77688 7.39142 0
M  V30 466 N 45.8211 -1.22559 -0.990812 0
M  V30 467 C 46.7681 -0.997519 -2.0813 0
M  V30 468 C 47.7381 0.0814702 -1.659 0
M  V30 469 O 48.9231 -0.0685424 -1.90677 0
M  V30 470 C 46.0631 -0.583615 -3.40129 0
M  V30 471 C 45.1761 -1.7336 -3.9569 0
M  V30 472 C 44.3111 -1.26748 -5.15857 0
M  V30 473 C 43.3501 -2.38888 -5.63559 0
M  V30 474 N 42.4871 -1.93308 -6.74964 0
M  V30 475 H 47.3271 -1.93099 -2.26973 0
M  V30 476 H 44.8641 -0.962114 -1.11273 0
M  V30 477 H 46.8221 -0.324801 -4.15934 0
M  V30 478 H 45.4521 0.312845 -3.2128 0
M  V30 479 H 44.5041 -2.10669 -3.16738 0
M  V30 480 H 45.8161 -2.57704 -4.27071 0
M  V30 481 H 44.9701 -0.966173 -5.98957 0
M  V30 482 H 43.7091 -0.394272 -4.86104 0
M  V30 483 H 42.7141 -2.69805 -4.79046 0
M  V30 484 H 43.9391 -3.26728 -5.95336 0
M  V30 485 H 41.8851 -1.08352 -6.4699 0
M  V30 486 H 41.8021 -2.71217 -7.05675 0
M  V30 487 H 43.0701 -1.66252 -7.61564 0
M  V30 488 N 47.2992 1.18797 -1.03562 0
M  V30 489 C 48.5472 1.88278 -0.734569 0
M  V30 490 C 48.8682 1.8043 0.739586 0
M  V30 491 O 48.1382 1.21925 1.53333 0
M  V30 492 H 46.7182 0.696991 -0.268725 0
M  V30 493 H 49.3802 1.44192 -1.31129 0
M  V30 494 H 48.4762 2.94443 -1.03489 0
M  V30 495 N 48.7773 0.814389 1.34928 0
M  V30 496 C 50.1933 0.499084 1.51596 0
M  V30 497 C 50.3933 -0.978319 1.76157 0
M  V30 498 O 49.4493 -1.76309 1.80752 0
M  V30 499 C 50.7623 1.35121 2.68631 0
M  V30 500 C 52.3103 1.34746 2.82511 0
M  V30 501 C 52.7853 2.18388 4.0258 0
M  V30 502 N 54.2763 2.15966 4.09772 0
M  V30 503 C 55.0113 2.77437 5.01813 0
M  V30 504 N 54.5073 3.47866 5.99134 0
M  V30 505 N 56.3003 2.67037 4.94619 0
M  V30 506 H 48.4513 1.7711 1.17243 0
M  V30 507 H 50.7143 0.754256 0.574284 0
M  V30 508 H 50.4203 2.40001 2.57085 0
M  V30 509 H 50.2943 1.00991 3.63429 0
M  V30 510 H 52.6813 0.30648 2.93504 0
M  V30 511 H 52.7623 1.72869 1.88547 0
M  V30 512 H 52.4063 3.2253 3.92347 0
M  V30 513 H 52.3363 1.77621 4.9574 0
M  V30 514 H 54.8273 1.64729 3.40107 0
M  V30 515 H 55.1403 3.92038 6.65977 0
M  V30 516 H 53.4853 3.51972 5.99284 0
M  V30 517 H 56.6763 2.11597 4.17546 0
M  V30 518 H 56.8493 3.15232 5.66156 0
M  V30 519 N 50.2554 -1.46986 0.568584 0
M  V30 520 C 51.2054 -2.27179 -0.193339 0
M  V30 521 C 52.1894 -1.35035 -0.874895 0
M  V30 522 O 53.3814 -1.5931 -0.771322 0
M  V30 523 C 50.5104 -3.21063 -1.21546 0
M  V30 524 C 49.5964 -4.2069 -0.536738 0
M  V30 525 N 49.9874 -5.04218 0.399673 0
M  V30 526 C 48.2854 -4.38961 -0.789254 0
M  V30 527 C 48.9864 -5.76242 0.795017 0
M  V30 528 N 47.9624 -5.434 0.1473 0
M  V30 529 H 51.7644 -2.89146 0.526458 0
M  V30 530 H 49.2784 -1.57664 0.389342 0
M  V30 531 H 51.2754 -3.77209 -1.77536 0
M  V30 532 H 49.9354 -2.60654 -1.93623 0
M  V30 533 H 50.9464 -5.12077 0.774454 0
M  V30 534 H 47.6234 -3.89713 -1.49767 0
M  V30 535 H 49.0134 -6.53417 1.56513 0
M  V30 536 N 51.7335 -0.305618 -1.54608 0
M  V30 537 C 53.1495 0.0476228 -1.59529 0
M  V30 538 C 53.3495 1.52025 -1.32252 0
M  V30 539 O 52.4055 2.27368 -1.09818 0
M  V30 540 C 53.7185 -0.354471 -2.98603 0
M  V30 541 C 55.2665 -0.303622 -3.11524 0
M  V30 542 C 55.7415 -0.680608 -4.52915 0
M  V30 543 N 57.2325 -0.63332 -4.5885 0
M  V30 544 C 57.9675 -0.897432 -5.66334 0
M  V30 545 N 57.4635 -1.22775 -6.81834 0
M  V30 546 N 59.2565 -0.824186 -5.56025 0
M  V30 547 H 51.4075 -1.2653 -1.70599 0
M  V30 548 H 53.6705 -0.513291 -0.797017 0
M  V30 549 H 53.3765 -1.3798 -3.23503 0
M  V30 550 H 53.2505 0.289568 -3.76087 0
M  V30 551 H 55.6375 0.712472 -2.8637 0
M  V30 552 H 55.7185 -0.982348 -2.36185 0
M  V30 553 H 55.3625 -1.69453 -4.78799 0
M  V30 554 H 55.2925 0.0202385 -5.26596 0
M  V30 555 H 57.7835 -0.389138 -3.75891 0
M  V30 556 H 58.0965 -1.41513 -7.59733 0
M  V30 557 H 56.4415 -1.26583 -6.83375 0
M  V30 558 H 59.6325 -0.565748 -4.64669 0
M  V30 559 H 59.8055 -1.03338 -6.39707 0
M  V30 560 N 53.2116 1.57565 -0.0334293 0
M  V30 561 C 54.1216 2.13943 0.962572 0
M  V30 562 C 55.1376 1.09276 1.35406 0
M  V30 563 O 56.3136 1.41355 1.4346 0
M  V30 564 C 53.3786 2.65887 2.22497 0
M  V30 565 C 52.4396 3.85286 1.8935 0
M  V30 566 C 51.6726 4.34743 3.09571 0
M  V30 567 O 51.8956 3.83352 4.22371 0
M  V30 568 O 50.8296 5.26538 2.91618 0
M  V30 569 H 54.6556 2.99333 0.513169 0
M  V30 570 H 52.2406 1.4822 0.18743 0
M  V30 571 H 54.1226 2.99346 2.96598 0
M  V30 572 H 52.7976 1.83578 2.6661 0
M  V30 573 H 51.7046 3.56746 1.1262 0
M  V30 574 H 53.0376 4.68771 1.5005 0
M  V30 575 N 54.6897 -0.239769 1.55765 0
M  V30 576 C 55.6367 -1.29696 1.90913 0
M  V30 577 C 56.6067 -1.47478 0.764164 0
M  V30 578 O 57.7917 -1.61345 1.01845 0
M  V30 579 C 54.9317 -2.64598 2.21544 0
M  V30 580 C 54.0447 -2.54765 3.48882 0
M  V30 581 C 53.1797 -3.82069 3.69049 0
M  V30 582 C 52.2187 -3.66883 4.89963 0
M  V30 583 N 51.3557 -4.86094 5.06614 0
M  V30 584 H 56.1957 -0.990224 2.81067 0
M  V30 585 H 53.7327 -0.477684 1.39128 0
M  V30 586 H 55.6907 -3.43132 2.3731 0
M  V30 587 H 54.3207 -2.93405 1.34585 0
M  V30 588 H 53.3727 -1.67763 3.41409 0
M  V30 589 H 54.6847 -2.39457 4.37563 0
M  V30 590 H 53.8387 -4.69046 3.84812 0
M  V30 591 H 52.5777 -4.00282 2.78614 0
M  V30 592 H 51.5827 -2.78289 4.74168 0
M  V30 593 H 52.8077 -3.50157 5.81865 0
M  V30 594 H 50.7537 -5.04655 4.19117 0
M  V30 595 H 50.6707 -4.73443 5.89396 0
M  V30 596 H 51.9387 -5.74549 5.26795 0
M  V30 597 N 56.1678 -1.49265 -0.50573 0
M  V30 598 C 57.1178 -1.6198 -1.60457 0
M  V30 599 C 58.1018 -0.47568 -1.53708 0
M  V30 600 O 59.2938 -0.728392 -1.61318 0
M  V30 601 C 56.4228 -1.68526 -2.99089 0
M  V30 602 C 55.5088 -2.885 -3.10852 0
M  V30 603 N 55.8998 -4.12635 -2.92517 0
M  V30 604 C 54.1978 -2.86338 -3.41945 0
M  V30 605 C 54.8988 -4.93258 -3.08337 0
M  V30 606 N 53.8748 -4.26533 -3.37003 0
M  V30 607 H 57.6768 -2.55681 -1.44928 0
M  V30 608 H 55.1908 -1.45972 -0.711752 0
M  V30 609 H 57.1878 -1.75732 -3.78053 0
M  V30 610 H 55.8478 -0.759584 -3.1569 0
M  V30 611 H 56.8588 -4.42689 -2.68787 0
M  V30 612 H 53.5358 -2.03129 -3.64753 0
M  V30 613 H 54.9258 -6.01856 -2.98695 0
M  V30 614 N 57.6459 0.756429 -1.3826 0
M  V30 615 C 58.9229 1.50584 -1.24835 0
M  V30 616 C 59.3029 2.10556 0.151485 0
M  V30 617 O 58.6509 1.96825 1.1607 0
M  V30 618 C 58.8609 2.57448 -2.3563 0
M  V30 619 C 60.2089 3.24429 -2.73917 0
M  V30 620 O 61.2329 2.67751 -2.34921 0
M  V30 621 O 60.0919 4.26937 -3.41156 0
M  V30 622 H 57.1859 0.667664 -0.48801 0
M  V30 623 H 59.7319 0.792083 -1.5008 0
M  V30 624 H 58.5039 2.11362 -3.29305 0
M  V30 625 H 58.1269 3.36408 -2.11933 0
M  V30 626 N 59.124 1.23083 0.984299 0
M  V30 627 C 60.054 1.03292 2.09411 0
M  V30 628 C 61.035 -0.048923 1.7003 0
M  V30 629 O 62.22 0.114967 1.93859 0
M  V30 630 C 59.35 0.619155 3.41736 0
M  V30 631 C 58.304 1.64791 3.95004 0
M  V30 632 C 57.63 1.0897 5.23478 0
M  V30 633 C 58.93 3.03999 4.24714 0
M  V30 634 H 60.624 1.96119 2.26225 0
M  V30 635 H 58.17 0.944344 1.08711 0
M  V30 636 H 60.123 0.467777 4.18796 0
M  V30 637 H 58.847 -0.344786 3.24775 0
M  V30 638 H 57.506 1.78721 3.20085 0
M  V30 639 H 57.154 0.11686 5.02864 0
M  V30 640 H 56.854 1.77704 5.60085 0
M  V30 641 H 58.378 0.950093 6.03163 0
M  V30 642 H 59.792 2.93393 4.92538 0
M  V30 643 H 58.189 3.69936 4.72512 0
M  V30 644 H 59.259 3.53285 3.32142 0
M  V30 645 N 60.6021 -1.18246 1.0419 0
M  V30 646 C 61.5121 -2.25574 0.644476 0
M  V30 647 C 62.5281 -1.70845 -0.329826 0
M  V30 648 O 63.7041 -2.00554 -0.184443 0
M  V30 649 C 60.7691 -3.46697 0.014877 0
M  V30 650 C 59.8301 -4.16554 1.03834 0
M  V30 651 C 59.0631 -5.31894 0.438692 0
M  V30 652 O 59.2861 -5.65385 -0.754752 0
M  V30 653 O 58.2201 -5.90459 1.168 0
M  V30 654 H 62.0461 -2.61836 1.53869 0
M  V30 655 H 59.6311 -1.25352 0.812854 0
M  V30 656 H 61.5131 -4.20062 -0.335538 0
M  V30 657 H 60.1881 -3.12255 -0.853138 0
M  V30 658 H 59.0951 -3.45251 1.44057 0
M  V30 659 H 60.4281 -4.54998 1.87716 0
M  V30 660 N 62.0802 -0.821533 -1.34494 0
M  V30 661 C 63.3262 -0.409552 -1.98622 0
M  V30 662 C 63.6592 1.0244 -1.64984 0
M  V30 663 O 62.9342 1.71325 -0.920758 0
M  V30 664 C 63.2172 -0.610458 -3.54888 0
M  V30 665 C 63.0702 -2.09043 -3.98273 0
M  V30 666 C 64.3892 -0.0455379 -4.40076 0
M  V30 667 H 61.5082 -0.15028 -0.721516 0
M  V30 668 H 64.1502 -1.03384 -1.59411 0
M  V30 669 H 62.3002 -0.079044 -3.8842 0
M  V30 670 H 63.9722 -2.68537 -3.75081 0
M  V30 671 H 62.2152 -2.58139 -3.48635 0
M  V30 672 H 62.8862 -2.18182 -5.07051 0
M  V30 673 H 65.3622 -0.499557 -4.1309 0
M  V30 674 H 64.2382 -0.215922 -5.48475 0
M  V30 675 H 64.4992 1.04939 -4.29465 0
M  V30 676 N 63.5583 1.46682 -0.576371 0
M  V30 677 C 64.5213 2.28707 0.150239 0
M  V30 678 C 65.5213 1.38035 0.824794 0
M  V30 679 O 66.7113 1.60476 0.677719 0
M  V30 680 C 63.8433 3.18248 1.22192 0
M  V30 681 H 65.0363 2.94423 -0.570521 0
M  V30 682 H 62.5893 1.52688 -0.334078 0
M  V30 683 H 63.3243 2.57265 1.97447 0
M  V30 684 H 63.1093 3.85 0.742812 0
M  V30 685 H 64.5993 3.80001 1.73172 0
M  V30 686 N 65.0364 0.313813 1.54444 0
M  V30 687 C 66.2824 -0.292108 2.00685 0
M  V30 688 C 66.6154 -1.52548 1.20177 0
M  V30 689 O 65.8904 -1.92452 0.281531 0
M  V30 690 C 66.1734 -0.635968 3.5444 0
M  V30 691 C 66.0264 0.607437 4.4568 0
M  V30 692 C 67.3454 -1.45747 4.15266 0
M  V30 693 H 64.4644 -0.104697 0.729526 0
M  V30 694 H 67.1064 0.428457 1.85106 0
M  V30 695 H 65.2564 -1.24986 3.67846 0
M  V30 696 H 66.9284 1.24581 4.44159 0
M  V30 697 H 65.1714 1.23822 4.15753 0
M  V30 698 H 65.8424 0.322515 5.51057 0
M  V30 699 H 68.3184 -0.938645 4.05375 0
M  V30 700 H 67.1944 -1.66683 5.2298 0
M  V30 701 H 67.4554 -2.45063 3.67963 0
M  V30 702 N 66.5145 -1.57545 0.0417849 0
M  V30 703 C 67.4615 -2.10977 -0.935805 0
M  V30 704 C 68.4315 -1.01486 -1.31491 0
M  V30 705 O 69.6165 -1.2898 -1.40602 0
M  V30 706 C 66.7565 -2.65169 -2.2086 0
M  V30 707 C 65.8695 -3.88714 -1.88482 0
M  V30 708 C 65.0045 -4.31254 -3.1015 0
M  V30 709 C 64.0435 -5.47524 -2.7365 0
M  V30 710 N 63.1805 -5.85162 -3.87982 0
M  V30 711 H 68.0205 -2.94218 -0.473249 0
M  V30 712 H 65.5575 -1.45415 -0.221981 0
M  V30 713 H 67.5155 -2.94685 -2.95325 0
M  V30 714 H 66.1455 -1.8474 -2.64709 0
M  V30 715 H 65.1975 -3.65849 -1.04205 0
M  V30 716 H 66.5095 -4.73245 -1.57608 0
M  V30 717 H 65.6635 -4.62273 -3.92923 0
M  V30 718 H 64.4025 -3.45516 -3.44195 0
M  V30 719 H 63.4075 -5.16187 -1.89291 0
M  V30 720 H 64.6325 -6.34971 -2.40807 0
M  V30 721 H 62.5785 -5.02377 -4.21846 0
M  V30 722 H 62.4955 -6.64362 -3.60775 0
M  V30 723 H 63.7635 -6.20791 -4.71422 0
M  V30 724 N 67.9926 0.231505 -1.5589 0
M  V30 725 C 69.2326 0.964533 -1.80211 0
M  V30 726 C 69.5966 1.81926 -0.613744 0
M  V30 727 O 70.7976 2.58526 -0.736045 0
M  V30 728 C 69.0686 1.78956 -3.09369 0
M  V30 729 S 70.6276 2.57959 -3.54969 0
M  V30 730 H 67.4456 0.324173 -0.632798 0
M  V30 731 H 70.0476 0.230985 -1.94131 0
M  V30 732 H 68.7516 1.15161 -3.93911 0
M  V30 733 H 68.2826 2.56559 -2.9823 0
M  V30 734 H 70.2976 3.81309 -3.17519 0
M  V30 735 N 69.4707 1.49531 0.497807 0
M  V30 736 C 70.7197 1.58426 1.24837 0
M  V30 737 C 71.0327 0.277643 1.93619 0
M  V30 738 O 72.2387 0.24517 2.70391 0
M  V30 739 C 70.6947 2.79538 2.26686 0
M  V30 740 C 70.3027 4.16971 1.63828 0
M  V30 741 C 72.0467 2.97764 3.0255 0
M  V30 742 C 69.9537 5.29301 2.63807 0
M  V30 743 H 68.8837 0.58989 0.469623 0
M  V30 744 H 71.5347 1.75923 0.521857 0
M  V30 745 H 69.9167 2.55542 3.02514 0
M  V30 746 H 71.0907 4.51116 0.939711 0
M  V30 747 H 69.4057 4.04129 1.00342 0
M  V30 748 H 72.0027 3.78856 3.77323 0
M  V30 749 H 72.3457 2.08448 3.60354 0
M  V30 750 H 72.8787 3.21815 2.33838 0
M  V30 751 H 69.6177 6.20687 2.10779 0
M  V30 752 H 69.1377 4.99606 3.31894 0
M  V30 753 H 70.8167 5.58768 3.2617 0
M  V30 754 N 70.9488 -0.749086 1.3866 0
M  V30 755 C 71.8968 -1.88428 1.36373 0
M  V30 756 C 72.8908 -1.67561 0.248929 0
M  V30 757 O 74.0968 -1.75074 0.41821 0
M  V30 758 H 70.4718 -0.620023 0.42553 0
M  V30 759 H 72.4428 -1.87473 2.32156 0
M  V30 760 C 71.1918 -3.25961 1.21014 0
M  V30 761 H 70.5148 -3.42607 2.06059 0
M  V30 762 H 71.9548 -4.05625 1.23469 0
M  V30 763 C 70.4138 -3.36799 -0.0825941 0
M  V30 764 O 70.9438 -3.87517 -1.05797 0
M  V30 765 N 69.1498 -2.90258 -0.140939 0
M  V30 766 H 68.6968 -2.49174 0.653477 0
M  V30 767 H 68.6548 -2.97889 -1.00545 0
M  V30 768 N 72.4269 -1.23603 -0.977757 0
M  V30 769 C 73.3739 -1.01954 -2.07061 0
M  V30 770 C 74.3439 0.0638697 -1.65977 0
M  V30 771 O 75.5289 -0.0887624 -1.90593 0
M  V30 772 C 72.6689 -0.619658 -3.39491 0
M  V30 773 C 71.7819 -1.77547 -3.93829 0
M  V30 774 C 70.9169 -1.32212 -5.14484 0
M  V30 775 C 69.9559 -2.44852 -5.60994 0
M  V30 776 N 69.0929 -2.00456 -6.72876 0
M  V30 777 H 73.9329 -1.95495 -2.24913 0
M  V30 778 H 71.4699 -0.973861 -1.10247 0
M  V30 779 H 73.4279 -0.368898 -4.15566 0
M  V30 780 H 72.0579 0.278752 -3.21594 0
M  V30 781 H 71.1099 -2.14016 -3.14486 0
M  V30 782 H 72.4219 -2.62219 -4.24314 0
M  V30 783 H 71.5759 -1.02965 -5.97899 0
M  V30 784 H 70.3149 -0.445808 -4.85658 0
M  V30 785 H 69.3199 -2.74871 -4.76157 0
M  V30 786 H 70.5449 -3.33024 -5.91837 0
M  V30 787 H 68.4909 -1.15208 -6.45804 0
M  V30 788 H 68.4079 -2.78687 -7.02759 0
M  V30 789 H 69.6759 -1.7432 -7.59758 0
M  V30 790 N 73.905 1.17692 -1.04816 0
M  V30 791 C 74.852 2.21581 -0.645797 0
M  V30 792 C 75.822 1.62367 0.350159 0
M  V30 793 O 77.007 1.89254 0.242433 0
M  V30 794 C 74.147 3.45092 -0.0227568 0
M  V30 795 C 73.26 4.18613 -1.06709 0
M  V30 796 C 72.395 5.29602 -0.411767 0
M  V30 797 C 71.434 5.94904 -1.44067 0
M  V30 798 N 70.571 6.97414 -0.809781 0
M  V30 799 H 75.411 2.55353 -1.5362 0
M  V30 800 H 72.948 1.25438 -0.768364 0
M  V30 801 H 74.906 4.15679 0.35588 0
M  V30 802 H 73.536 3.11917 0.831122 0
M  V30 803 H 72.588 3.46779 -1.5636 0
M  V30 804 H 73.9 4.63293 -1.84827 0
M  V30 805 H 73.054 6.06696 0.0206623 0
M  V30 806 H 71.793 4.86045 0.401438 0
M  V30 807 H 70.798 5.16544 -1.88316 0
M  V30 808 H 72.023 6.40542 -2.25571 0
M  V30 809 H 69.969 6.55998 -0.0170186 0
M  V30 810 H 69.886 7.40386 -1.52856 0
M  V30 811 H 71.154 7.78463 -0.401999 0
M  V30 812 N 75.3831 0.828654 1.34056 0
M  V30 813 C 76.3311 0.242973 2.31327 0
M  V30 814 C 77.3251 -0.61944 1.57668 0
M  V30 815 O 78.5311 -0.51014 1.7262 0
M  V30 816 H 74.9061 0.059834 0.749616 0
M  V30 817 H 76.8771 1.07809 2.78244 0
M  V30 818 C 75.6261 -0.575733 3.429 0
M  V30 819 H 74.9491 0.0785582 3.99723 0
M  V30 820 H 76.3891 -0.951547 4.13185 0
M  V30 821 C 74.8481 -1.75044 2.87856 0
M  V30 822 O 75.3781 -2.84882 2.83205 0
M  V30 823 N 73.5841 -1.56903 2.44602 0
M  V30 824 H 73.1311 -0.675547 2.48584 0
M  V30 825 H 73.0891 -2.35652 2.08124 0
M  V30 826 N 76.8612 -1.46375 0.584142 0
M  V30 827 C 77.7912 -2.33103 -0.136037 0
M  V30 828 C 78.7722 -1.45431 -0.882255 0
M  V30 829 O 79.9572 -1.74246 -0.857434 0
M  V30 830 C 77.0872 -3.27731 -1.14933 0
M  V30 831 C 76.0412 -4.24855 -0.517862 0
M  V30 832 C 75.3672 -5.09001 -1.63773 0
M  V30 833 C 76.6672 -5.19439 0.545886 0
M  V30 834 H 78.3612 -2.93568 0.588086 0
M  V30 835 H 75.9072 -1.41166 0.284259 0
M  V30 836 H 77.8602 -3.87261 -1.66153 0
M  V30 837 H 76.5842 -2.65377 -1.90375 0
M  V30 838 H 75.2432 -3.6659 -0.0267361 0
M  V30 839 H 74.8912 -4.43031 -2.38185 0
M  V30 840 H 74.5912 -5.74777 -1.22085 0
M  V30 841 H 76.1152 -5.71396 -2.15266 0
M  V30 842 H 77.5292 -5.73177 0.118704 0
M  V30 843 H 75.9262 -5.93566 0.88317 0
M  V30 844 H 76.9962 -4.63285 1.43162 0
M  V30 845 N 78.3393 -0.321999 -1.54275 0
M  V30 846 C 79.3023 0.531975 -2.22941 0
M  V30 847 C 80.3023 1.04478 -1.22234 0
M  V30 848 O 81.4923 0.937452 -1.46825 0
M  V30 849 C 78.6243 1.73874 -2.93224 0
M  V30 850 H 79.8173 -0.0682612 -2.99822 0
M  V30 851 H 77.3703 -0.0730644 -1.56129 0
M  V30 852 H 78.1053 2.37825 -2.20476 0
M  V30 853 H 77.8903 1.37847 -3.6707 0
M  V30 854 H 79.3803 2.34496 -3.45545 0
M  V30 855 N 79.8174 1.5752 -0.0501392 0
M  V30 856 C 80.7644 2.1147 0.924603 0
M  V30 857 C 81.7344 1.02182 1.30951 0
M  V30 858 O 82.9194 1.29723 1.39916 0
M  V30 859 C 80.0594 2.66337 2.19451 0
M  V30 860 C 79.1724 3.89708 1.86418 0
M  V30 861 C 78.3074 4.32893 3.07859 0
M  V30 862 C 77.3464 5.48967 2.70742 0
M  V30 863 N 76.4834 5.87211 3.84874 0
M  V30 864 H 81.3234 2.94465 0.457639 0
M  V30 865 H 78.8604 1.45531 0.214266 0
M  V30 866 H 80.8184 2.96247 2.93758 0
M  V30 867 H 79.4484 1.86141 2.63726 0
M  V30 868 H 78.5004 3.66396 1.02264 0
M  V30 869 H 79.8124 4.74074 1.55096 0
M  V30 870 H 78.9664 4.6435 3.90466 0
M  V30 871 H 77.7054 3.47336 3.42358 0
M  V30 872 H 76.7104 5.17183 1.86551 0
M  V30 873 H 77.9354 6.3624 2.37436 0
M  V30 874 H 75.8814 5.04607 4.19175 0
M  V30 875 H 75.7984 6.66266 3.57247 0
M  V30 876 H 77.0664 6.23282 4.68123 0
M  V30 877 N 81.2955 -0.223234 1.56011 0
M  V30 878 C 82.5205 -0.968978 1.83373 0
M  V30 879 C 82.9455 -1.77227 0.630254 0
M  V30 880 O 82.3035 -1.76345 -0.420959 0
M  V30 881 C 82.3515 -1.86363 3.08709 0
M  V30 882 O 81.4555 -2.95873 2.87285 0
M  V30 883 H 80.7965 -0.274461 0.604622 0
M  V30 884 H 83.3265 -0.237056 2.03222 0
M  V30 885 H 83.3365 -2.27376 3.38768 0
M  V30 886 H 82.0115 -1.27319 3.95933 0
M  V30 887 H 80.5885 -2.58818 2.68454 0
M  V30 888 N 82.7736 -1.49793 -0.48987 0
M  V30 889 C 83.7056 -1.63413 -1.60713 0
M  V30 890 C 84.7186 -0.516329 -1.54395 0
M  V30 891 O 85.9076 -0.788812 -1.60125 0
M  V30 892 C 83.0076 -1.58516 -2.99543 0
M  V30 893 C 82.1806 -2.86016 -3.30928 0
M  V30 894 C 81.2396 -2.74018 -4.49222 0
M  V30 895 O 80.2656 -3.47964 -4.50455 0
M  V30 896 N 81.4676 -1.86309 -5.4979 0
M  V30 897 H 84.2326 -2.59777 -1.49452 0
M  V30 898 H 81.7936 -1.47022 -0.677955 0
M  V30 899 H 83.7856 -1.48128 -3.76617 0
M  V30 900 H 82.3556 -0.69965 -3.0467 0
M  V30 901 H 81.5756 -3.10672 -2.42645 0
M  V30 902 H 82.8636 -3.70521 -3.487 0
M  V30 903 H 82.2616 -1.2551 -5.51601 0
M  V30 904 H 80.8186 -1.81837 -6.25922 0
M  V30 905 N 84.2517 0.741722 -1.39055 0
M  V30 906 C 85.4797 1.53098 -1.39171 0
M  V30 907 C 85.8947 1.88794 0.0155099 0
M  V30 908 O 85.2517 1.53626 0.985159 0
M  V30 909 C 85.3027 2.82274 -2.2584 0
M  V30 910 O 85.0237 2.48097 -3.61081 0
M  V30 911 C 86.5247 3.76343 -2.34266 0
M  V30 912 H 83.7447 0.473335 -0.4756 0
M  V30 913 H 86.2887 0.917045 -1.82785 0
M  V30 914 H 84.4437 3.40015 -1.85656 0
M  V30 915 H 84.8577 3.31029 -4.06842 0
M  V30 916 H 86.3317 4.63898 -2.9917 0
M  V30 917 H 86.8087 4.17619 -1.35982 0
M  V30 918 H 87.4147 3.24523 -2.74891 0
M  V30 919 N 85.7298 1.2412 0.971189 0
M  V30 920 C 86.6598 1.05508 2.08304 0
M  V30 921 C 87.6408 -0.0308864 1.70072 0
M  V30 922 O 88.8258 0.135521 1.93727 0
M  V30 923 C 85.9558 0.655365 3.4106 0
M  V30 924 C 84.9098 1.68971 3.93234 0
M  V30 925 C 84.2358 1.14516 5.22293 0
M  V30 926 C 85.5358 3.08487 4.21465 0
M  V30 927 H 87.2298 1.98507 2.24132 0
M  V30 928 H 84.7758 0.955821 1.07704 0
M  V30 929 H 86.7288 0.51217 4.18276 0
M  V30 930 H 85.4528 -0.31032 3.25122 0
M  V30 931 H 84.1118 1.82106 3.18171 0
M  V30 932 H 83.7598 0.170189 5.02712 0
M  V30 933 H 83.4598 1.83635 5.58168 0
M  V30 934 H 84.9838 1.01401 6.02121 0
M  V30 935 H 86.3978 2.98601 4.89398 0
M  V30 936 H 84.7948 3.74926 4.68562 0
M  V30 937 H 85.8648 3.56787 3.28376 0
M  V30 938 N 87.2079 -1.17134 1.05439 0
M  V30 939 C 88.1379 -2.2342 0.678649 0
M  V30 940 C 89.1189 -1.66971 -0.32476 0
M  V30 941 O 90.3039 -1.93149 -0.201802 0
M  V30 942 C 87.4339 -3.47256 0.0552099 0
M  V30 943 C 86.3879 -4.16543 0.98365 0
M  V30 944 C 85.7139 -5.34231 0.223961 0
M  V30 945 C 87.0139 -4.68495 2.3089 0
M  V30 946 H 88.7079 -2.55105 1.56722 0
M  V30 947 H 86.2539 -1.2262 0.754998 0
M  V30 948 H 88.2069 -4.20828 -0.21946 0
M  V30 949 H 86.9309 -3.14846 -0.868319 0
M  V30 950 H 85.5899 -3.44887 1.24293 0
M  V30 951 H 85.2379 -4.98071 -0.702412 0
M  V30 952 H 84.9379 -5.81527 0.842627 0
M  V30 953 H 86.4619 -6.10585 -0.0433671 0
M  V30 954 H 87.8759 -5.33691 2.09396 0
M  V30 955 H 86.2729 -5.26379 2.88176 0
M  V30 956 H 87.3429 -3.85169 2.94572 0
M  V30 957 N 88.686 -0.835752 -1.33615 0
M  V30 958 C 89.934 -0.429109 -1.97492 0
M  V30 959 C 90.255 1.01433 -1.66543 0
M  V30 960 O 89.525 1.70611 -0.962744 0
M  V30 961 H 88.105 -0.155686 -0.730596 0
M  V30 962 H 90.767 -1.06802 -1.63031 0
M  V30 963 H 89.863 -0.55861 -3.0706 0
M  V30 964 N 90.1641 1.46063 -0.591896 0
M  V30 965 C 91.1111 2.30399 0.136069 0
M  V30 966 C 92.0811 1.41169 0.875238 0
M  V30 967 O 93.2661 1.70112 0.86409 0
M  V30 968 C 90.4061 3.25804 1.13781 0
M  V30 969 C 89.5191 4.30134 0.401137 0
M  V30 970 C 88.6541 5.12659 1.39121 0
M  V30 971 C 87.6931 6.0873 0.641462 0
M  V30 972 N 86.8301 6.8409 1.58004 0
M  V30 973 H 91.6701 2.92118 -0.589144 0
M  V30 974 H 89.2071 1.43959 -0.302342 0
M  V30 975 H 91.1651 3.79569 1.73156 0
M  V30 976 H 89.7951 2.65872 1.83062 0
M  V30 977 H 88.8471 3.79152 -0.307826 0
M  V30 978 H 90.1591 4.98458 -0.184565 0
M  V30 979 H 89.3131 5.70747 2.05749 0
M  V30 980 H 88.0521 4.44316 2.01084 0
M  V30 981 H 87.0571 5.49786 -0.0385419 0
M  V30 982 H 88.2821 6.79095 0.0270945 0
M  V30 983 H 86.2281 6.18449 2.18761 0
M  V30 984 H 86.1451 7.48709 1.04738 0
M  V30 985 H 87.4131 7.4673 2.23639 0
M  V30 986 N 91.6422 0.330177 1.54103 0
M  V30 987 C 92.5522 -0.541534 2.28264 0
M  V30 988 C 93.5682 -1.12351 1.32866 0
M  V30 989 O 94.7442 -1.14206 1.65888 0
M  V30 990 C 91.8092 -1.68322 3.03098 0
M  V30 991 C 90.8702 -1.13238 4.14096 0
M  V30 992 C 90.1032 -2.21966 4.85352 0
M  V30 993 O 90.3262 -3.42437 4.56172 0
M  V30 994 O 89.2602 -1.87013 5.7211 0
M  V30 995 H 93.0862 0.060938 3.03639 0
M  V30 996 H 90.6712 0.09565 1.49093 0
M  V30 997 H 92.5532 -2.34777 3.49939 0
M  V30 998 H 91.2282 -2.27176 2.30593 0
M  V30 999 H 90.1352 -0.432736 3.71589 0
M  V30 1000 H 91.4682 -0.588898 4.88664 0
M  V30 1001 N 93.1203 -1.57491 0.0584922 0
M  V30 1002 C 94.3693 -1.92155 -0.613146 0
M  V30 1003 C 94.6823 -0.939334 -1.71569 0
M  V30 1004 O 95.8883 -1.17829 -2.44599 0
M  V30 1005 C 94.3443 -3.41303 -1.14195 0
M  V30 1006 C 93.9523 -4.47944 -0.0711265 0
M  V30 1007 C 95.6963 -3.84988 -1.78841 0
M  V30 1008 C 93.6033 -5.88212 -0.613225 0
M  V30 1009 H 92.5333 -0.717162 -0.232796 0
M  V30 1010 H 95.1843 -1.83049 0.12857 0
M  V30 1011 H 93.5663 -3.45437 -1.93621 0
M  V30 1012 H 94.7403 -4.55408 0.702836 0
M  V30 1013 H 93.0553 -4.13644 0.478313 0
M  V30 1014 H 95.6523 -4.87159 -2.20408 0
M  V30 1015 H 95.9953 -3.21632 -2.64308 0
M  V30 1016 H 96.5283 -3.83401 -1.06059 0
M  V30 1017 H 93.2673 -6.55183 0.203978 0
M  V30 1018 H 92.7873 -5.84294 -1.35501 0
M  V30 1019 H 94.4663 -6.37687 -1.09383 0
M  V30 1020 N 94.5984 0.214957 -1.56127 0
M  V30 1021 C 95.5454 1.26642 -1.92952 0
M  V30 1022 C 96.5154 1.46244 -0.78753 0
M  V30 1023 O 97.7004 1.59704 -1.04399 0
M  V30 1024 C 94.8404 2.6104 -2.25726 0
M  V30 1025 C 93.9534 2.49183 -3.52891 0
M  V30 1026 C 93.0884 3.76149 -3.7508 0
M  V30 1027 C 92.1274 3.59041 -4.95738 0
M  V30 1028 N 91.2644 4.77972 -5.14283 0
M  V30 1029 H 96.1044 0.945384 -2.82607 0
M  V30 1030 H 93.6414 0.455489 -1.3987 0
M  V30 1031 H 95.5994 3.39313 -2.42739 0
M  V30 1032 H 94.2294 2.91227 -1.39236 0
M  V30 1033 H 93.2814 1.6231 -3.44034 0
M  V30 1034 H 94.5934 2.32466 -4.41318 0
M  V30 1035 H 93.7474 4.62865 -3.92226 0
M  V30 1036 H 92.4864 3.95799 -2.84947 0
M  V30 1037 H 91.4914 2.7071 -4.78535 0
M  V30 1038 H 92.7164 3.40856 -5.87362 0
M  V30 1039 H 90.6624 4.97923 -4.27093 0
M  V30 1040 H 90.5794 4.64006 -5.96853 0
M  V30 1041 H 91.8474 5.66096 -5.35869 0
M  V30 1042 N 96.0765 1.50051 0.48192 0
M  V30 1043 C 97.3255 1.59741 1.23149 0
M  V30 1044 C 97.6385 0.298163 1.93314 0
M  V30 1045 O 98.8445 0.273835 2.70116 0
M  V30 1046 C 97.3005 2.81926 2.23708 0
M  V30 1047 C 96.9085 4.18685 1.59396 0
M  V30 1048 C 98.6525 3.00956 2.99375 0
M  V30 1049 C 96.5595 5.3207 2.58178 0
M  V30 1050 H 95.4895 0.594838 0.46334 0
M  V30 1051 H 98.1405 1.76467 0.503169 0
M  V30 1052 H 96.5225 2.58736 2.99786 0
M  V30 1053 H 97.6965 4.52088 0.891811 0
M  V30 1054 H 96.0115 4.05171 0.960503 0
M  V30 1055 H 98.6085 3.82836 3.73283 0
M  V30 1056 H 98.9515 2.12258 3.58123 0
M  V30 1057 H 99.4845 3.24277 2.30411 0
M  V30 1058 H 96.2235 6.22888 2.04184 0
M  V30 1059 H 95.7435 5.03098 3.26577 0
M  V30 1060 H 97.4225 5.62196 3.20225 0
M  V30 1061 N 97.5546 -0.734337 1.39446 0
M  V30 1062 C 98.4846 -1.86155 1.40955 0
M  V30 1063 C 99.4656 -1.67898 0.272827 0
M  V30 1064 O 100.651 -1.88207 0.478743 0
M  V30 1065 C 97.7806 -3.23912 1.25294 0
M  V30 1066 C 96.7346 -3.56808 2.36373 0
M  V30 1067 C 96.0606 -4.93508 2.058 0
M  V30 1068 C 97.3606 -3.59713 3.78687 0
M  V30 1069 H 99.0546 -1.8515 2.35287 0
M  V30 1070 H 96.6006 -0.889367 1.13253 0
M  V30 1071 H 98.5536 -4.02443 1.2497 0
M  V30 1072 H 97.2776 -3.25446 0.274308 0
M  V30 1073 H 95.9366 -2.80606 2.35914 0
M  V30 1074 H 95.5846 -4.91623 1.06374 0
M  V30 1075 H 95.2846 -5.16486 2.80208 0
M  V30 1076 H 96.8086 -5.74396 2.07128 0
M  V30 1077 H 98.2226 -4.2832 3.81071 0
M  V30 1078 H 96.6196 -3.94209 4.52459 0
M  V30 1079 H 97.6896 -2.59504 4.09617 0
M  V30 1080 N 99.0327 -1.24633 -0.964593 0
M  V30 1081 C 99.9797 -1.04144 -2.05968 0
M  V30 1082 C 100.95 0.046262 -1.66036 0
M  V30 1083 O 102.135 -0.108972 -1.90489 0
M  V30 1084 C 99.2747 -0.65563 -3.38815 0
M  V30 1085 C 98.3877 -1.81714 -3.91923 0
M  V30 1086 C 97.5227 -1.37662 -5.13052 0
M  V30 1087 C 96.5617 -2.50788 -5.58365 0
M  V30 1088 N 95.6987 -2.07582 -6.70712 0
M  V30 1089 H 100.539 -1.9787 -2.22827 0
M  V30 1090 H 98.0757 -0.9855 -1.09208 0
M  V30 1091 H 100.034 -0.412954 -4.15151 0
M  V30 1092 H 98.6637 0.244627 -3.21872 0
M  V30 1093 H 97.7157 -2.1734 -3.12198 0
M  V30 1094 H 99.0277 -2.66705 -4.21509 0
M  V30 1095 H 98.1817 -1.093 -5.96773 0
M  V30 1096 H 96.9207 -0.497293 -4.85158 0
M  V30 1097 H 95.9257 -2.79906 -4.73215 0
M  V30 1098 H 97.1507 -3.39283 -5.88272 0
M  V30 1099 H 95.0967 -1.22051 -6.44546 0
M  V30 1100 H 95.0137 -2.86125 -6.99763 0
M  V30 1101 H 96.2817 -1.82369 -7.57867 0
M  V30 1102 N 100.511 1.16574 -1.06058 0
M  V30 1103 C 101.421 2.2452 -0.680282 0
M  V30 1104 C 102.437 1.71348 0.302604 0
M  V30 1105 O 103.613 2.00822 0.152513 0
M  V30 1106 C 100.678 3.46629 -0.0700315 0
M  V30 1107 C 99.7388 4.14849 -1.10448 0
M  V30 1108 C 98.9718 5.31129 -0.523256 0
M  V30 1109 O 99.1948 5.66514 0.664709 0
M  V30 1110 O 98.1288 5.88526 -1.26179 0
M  V30 1111 H 101.955 2.59355 -1.58015 0
M  V30 1112 H 99.5398 1.24043 -0.832694 0
M  V30 1113 H 101.422 4.20543 0.268667 0
M  V30 1114 H 100.097 3.13573 0.803353 0
M  V30 1115 H 99.0038 3.42916 -1.49532 0
M  V30 1116 H 100.337 4.51954 -1.94931 0
M  V30 1117 N 101.989 0.842826 1.3317 0
M  V30 1118 C 102.919 0.294028 2.31641 0
M  V30 1119 C 103.9 -0.600401 1.59151 0
M  V30 1120 O 105.085 -0.523124 1.87022 0
M  V30 1121 C 102.215 -0.528416 3.43257 0
M  V30 1122 C 101.169 0.27056 4.27144 0
M  V30 1123 C 100.495 -0.675881 5.30411 0
M  V30 1124 C 101.795 1.48981 5.00602 0
M  V30 1125 H 103.489 1.11681 2.77791 0
M  V30 1126 H 101.035 0.538478 1.33553 0
M  V30 1127 H 102.988 -0.922674 4.11175 0
M  V30 1128 H 101.712 -1.38445 2.95805 0
M  V30 1129 H 100.371 0.646427 3.60856 0
M  V30 1130 H 100.019 -1.52842 4.79216 0
M  V30 1131 H 99.7189 -0.145374 5.8742 0
M  V30 1132 H 101.243 -1.06757 6.01195 0
M  V30 1133 H 102.657 1.16849 5.61266 0
M  V30 1134 H 101.054 1.95739 5.6728 0
M  V30 1135 H 102.124 2.25746 4.29147 0
M  V30 1136 N 103.467 -1.45747 0.599634 0
M  V30 1137 C 104.414 -2.30467 -0.123849 0
M  V30 1138 C 105.384 -1.41632 -0.86774 0
M  V30 1139 O 106.569 -1.70568 -0.855056 0
M  V30 1140 C 103.709 -3.26402 -1.12051 0
M  V30 1141 C 102.822 -4.3034 -0.37832 0
M  V30 1142 C 101.957 -5.13389 -1.364 0
M  V30 1143 C 100.996 -6.09061 -0.609171 0
M  V30 1144 N 100.133 -6.84918 -1.54374 0
M  V30 1145 H 104.973 -2.91802 0.604627 0
M  V30 1146 H 102.51 -1.43797 0.309972 0
M  V30 1147 H 104.468 -3.80482 -1.7114 0
M  V30 1148 H 103.098 -2.66839 -1.8165 0
M  V30 1149 H 102.15 -3.78984 0.327929 0
M  V30 1150 H 103.462 -4.98354 0.210997 0
M  V30 1151 H 102.616 -5.7183 -2.02719 0
M  V30 1152 H 101.355 -4.45376 -1.98725 0
M  V30 1153 H 100.36 -5.49758 0.0676979 0
M  V30 1154 H 101.585 -6.79099 0.00891991 0
M  V30 1155 H 99.531 -6.19601 -2.15478 0
M  V30 1156 H 99.448 -7.49254 -1.00766 0
M  V30 1157 H 100.716 -7.47906 -2.19676 0
M  V30 1158 N 104.945 -0.338344 -1.53925 0
M  V30 1159 C 105.895 0.536712 -2.21593 0
M  V30 1160 C 106.879 1.07015 -1.20153 0
M  V30 1161 O 108.071 1.00471 -1.45721 0
M  V30 1162 C 105.2 1.68977 -2.98834 0
M  V30 1163 C 104.286 1.17052 -4.07627 0
M  V30 1164 N 104.677 0.372085 -5.0443 0
M  V30 1165 C 102.975 1.44789 -4.21844 0
M  V30 1166 C 103.676 0.0909171 -5.81629 0
M  V30 1167 N 102.652 0.681131 -5.39316 0
M  V30 1168 H 106.454 -0.0804298 -2.9379 0
M  V30 1169 H 103.968 -0.144943 -1.61752 0
M  V30 1170 H 105.965 2.32857 -3.45808 0
M  V30 1171 H 104.625 2.31024 -2.28162 0
M  V30 1172 H 105.636 0.0136217 -5.17898 0
M  V30 1173 H 102.313 2.07313 -3.62391 0
M  V30 1174 H 103.703 -0.552817 -6.69622 0
M  V30 1175 N 106.423 1.57458 -0.0668435 0
M  V30 1176 C 107.333 2.15937 0.916975 0
M  V30 1177 C 108.349 1.12123 1.33058 0
M  V30 1178 O 109.525 1.44366 1.40429 0
M  V30 1179 C 106.59 2.70547 2.16807 0
M  V30 1180 C 105.651 3.89215 1.81135 0
M  V30 1181 C 104.884 4.41211 3.0028 0
M  V30 1182 O 105.107 3.92225 4.14144 0
M  V30 1183 O 104.041 5.32605 2.80384 0
M  V30 1184 H 107.867 3.00354 0.449561 0
M  V30 1185 H 105.452 1.48584 0.155949 0
M  V30 1186 H 107.334 3.0557 2.90181 0
M  V30 1187 H 106.009 1.89192 2.62656 0
M  V30 1188 H 104.916 3.59054 1.05028 0
M  V30 1189 H 106.249 4.71848 1.40073 0
M  V30 1190 N 107.901 -0.206675 1.56239 0
M  V30 1191 C 108.849 -1.27571 1.94495 0
M  V30 1192 C 109.843 -1.47737 0.828862 0
M  V30 1193 O 111.049 -1.48735 1.0138 0
M  V30 1194 H 107.424 -0.428029 0.6183 0
M  V30 1195 H 109.395 -0.925961 2.8367 0
M  V30 1196 C 108.144 -2.61568 2.29079 0
M  V30 1197 H 107.467 -2.46863 3.14482 0
M  V30 1198 H 108.907 -3.35144 2.5972 0
M  V30 1199 C 107.366 -3.17695 1.12123 0
M  V30 1200 O 107.896 -3.99801 0.390153 0
M  V30 1201 N 106.102 -2.76276 0.901097 0
M  V30 1202 H 105.649 -2.09613 1.49733 0
M  V30 1203 H 105.607 -3.1417 0.120319 0
M  V30 1204 N 109.379 -1.50304 -0.473955 0
M  V30 1205 C 110.628 -1.60392 -1.22301 0
M  V30 1206 C 110.941 -0.308411 -1.93153 0
M  V30 1207 O 112.147 -0.288156 -2.69966 0
M  V30 1208 C 110.603 -2.83109 -2.2221 0
M  V30 1209 C 110.211 -4.19524 -1.57173 0
M  V30 1210 C 111.955 -3.0254 -2.97775 0
M  V30 1211 C 109.862 -5.33431 -2.55353 0
M  V30 1212 H 108.792 -0.597286 -0.460179 0
M  V30 1213 H 111.443 -1.76731 -0.493803 0
M  V30 1214 H 109.825 -2.60322 -2.9841 0
M  V30 1215 H 110.999 -4.52554 -0.867824 0
M  V30 1216 H 109.314 -4.05674 -0.939002 0
M  V30 1217 H 111.911 -3.84811 -3.71248 0
M  V30 1218 H 112.254 -2.14154 -3.56992 0
M  V30 1219 H 112.787 -3.25494 -2.28688 0
M  V30 1220 H 109.526 -6.23962 -2.00878 0
M  V30 1221 H 109.046 -5.04823 -3.23904 0
M  V30 1222 H 110.725 -5.63887 -3.17239 0
M  V30 1223 N 110.857 0.726932 -1.39834 0
M  V30 1224 C 112.103 1.48884 -1.377 0
M  V30 1225 C 112.436 1.94185 0.0244852 0
M  V30 1226 O 111.711 1.67361 0.990986 0
M  V30 1227 C 111.994 2.72288 -2.3565 0
M  V30 1228 C 111.847 2.32956 -3.84775 0
M  V30 1229 C 113.166 3.74414 -2.31306 0
M  V30 1230 H 110.285 0.540062 -0.5015 0
M  V30 1231 H 112.927 0.830547 -1.70886 0
M  V30 1232 H 111.077 3.28457 -2.07481 0
M  V30 1233 H 112.749 1.82356 -4.23726 0
M  V30 1234 H 110.992 1.65088 -4.01159 0
M  V30 1235 H 111.663 3.21362 -4.4881 0
M  V30 1236 H 114.139 3.27849 -2.56231 0
M  V30 1237 H 113.015 4.58414 -3.01907 0
M  V30 1238 H 113.276 4.21909 -1.32081 0
M  V30 1239 N 112.336 1.25143 0.95797 0
M  V30 1240 C 113.299 1.05321 2.03569 0
M  V30 1241 C 114.299 0.007152 1.60798 0
M  V30 1242 O 115.489 0.24903 1.72411 0
M  V30 1243 C 112.621 0.598394 3.35607 0
M  V30 1244 H 113.814 2.00986 2.22586 0
M  V30 1245 H 111.367 1.07502 1.13459 0
M  V30 1246 H 112.102 -0.361014 3.22284 0
M  V30 1247 H 111.887 1.35351 3.67998 0
M  V30 1248 H 113.377 0.48104 4.1482 0
M  V30 1249 N 113.814 -1.1601 1.06675 0
M  V30 1250 C 114.744 -2.22688 0.702307 0
M  V30 1251 C 115.725 -1.67306 -0.307032 0
M  V30 1252 O 116.91 -1.93352 -0.181305 0
M  V30 1253 C 114.04 -3.47178 0.092038 0
M  V30 1254 C 112.994 -4.15477 1.02777 0
M  V30 1255 C 112.32 -5.33963 0.28061 0
M  V30 1256 C 113.62 -4.66019 2.35846 0
M  V30 1257 H 115.314 -2.53429 1.59419 0
M  V30 1258 H 112.86 -1.21813 0.767961 0
M  V30 1259 H 114.813 -4.21037 -0.174814 0
M  V30 1260 H 113.537 -3.15749 -0.834877 0
M  V30 1261 H 112.196 -3.43549 1.27944 0
M  V30 1262 H 111.844 -4.98788 -0.649545 0
M  V30 1263 H 111.544 -5.806 0.904258 0
M  V30 1264 H 113.068 -6.10596 0.021396 0
M  V30 1265 H 114.482 -5.3144 2.15045 0
M  V30 1266 H 112.879 -5.23293 2.93743 0
M  V30 1267 H 113.949 -3.82023 2.98641 0
M  V30 1268 N 115.292 -0.849877 -1.32721 0
M  V30 1269 C 116.522 -0.46408 -2.0132 0
M  V30 1270 C 116.93 0.94246 -1.64056 0
M  V30 1271 O 116.273 1.6257 -0.855379 0
M  V30 1272 C 116.335 -0.517887 -3.5575 0
M  V30 1273 C 115.999 -1.88248 -4.16427 0
M  V30 1274 C 116.996 -2.84726 -4.35002 0
M  V30 1275 C 114.681 -2.17832 -4.52609 0
M  V30 1276 C 116.675 -4.08945 -4.8892 0
M  V30 1277 C 114.362 -3.42304 -5.06232 0
M  V30 1278 C 115.36 -4.37677 -5.24335 0
M  V30 1279 O 115.048 -5.59946 -5.76815 0
M  V30 1280 H 114.78 -0.181327 -0.651227 0
M  V30 1281 H 117.334 -1.14713 -1.70382 0
M  V30 1282 H 115.564 0.221997 -3.86062 0
M  V30 1283 H 117.253 -0.148366 -4.05629 0
M  V30 1284 H 118.019 -2.63174 -4.07388 0
M  V30 1285 H 113.898 -1.44385 -4.37806 0
M  V30 1286 H 117.442 -4.83396 -5.02966 0
M  V30 1287 H 113.339 -3.63709 -5.33278 0
M  V30 1288 H 114.107 -5.61838 -5.95214 0
M  V30 1289 N 116.77 1.45427 -0.607355 0
M  V30 1290 C 118.047 1.9557 -0.0344566 0
M  V30 1291 C 118.427 1.54979 1.43334 0
M  V30 1292 O 117.775 0.812241 2.13576 0
M  V30 1293 C 117.985 3.48226 -0.232321 0
M  V30 1294 C 119.333 4.2445 -0.113001 0
M  V30 1295 O 120.357 3.55829 -0.162431 0
M  V30 1296 O 119.216 5.465 0.00209442 0
M  V30 1297 H 116.31 0.826222 0.0358667 0
M  V30 1298 H 118.856 1.55594 -0.6774 0
M  V30 1299 H 117.628 3.70739 -1.25174 0
M  V30 1300 H 117.251 3.95092 0.445896 0
M  V30 1301 N 118.248 0.346503 1.53744 0
M  V30 1302 C 119.495 -0.249104 2.00962 0
M  V30 1303 C 119.823 -1.5032 1.23426 0
M  V30 1304 O 119.078 -1.93217 0.310761 0
M  V30 1305 C 119.377 -0.605809 3.52228 0
M  V30 1306 C 119.043 0.551747 4.47512 0
M  V30 1307 C 117.705 0.86941 4.73281 0
M  V30 1308 C 120.057 1.32818 5.03993 0
M  V30 1309 C 117.385 1.96582 5.52786 0
M  V30 1310 C 119.737 2.41486 5.84694 0
M  V30 1311 C 118.401 2.73808 6.08757 0
M  V30 1312 H 117.671 -0.0911538 0.735372 0
M  V30 1313 H 120.318 0.475027 1.85515 0
M  V30 1314 H 118.623 -1.4107 3.65522 0
M  V30 1315 H 120.32 -1.07858 3.86222 0
M  V30 1316 H 116.91 0.294102 4.2759 0
M  V30 1317 H 121.094 1.09602 4.84047 0
M  V30 1318 H 116.35 2.22045 5.69654 0
M  V30 1319 H 120.524 3.02078 6.27473 0
M  V30 1320 H 118.151 3.58892 6.7015 0
M  V30 1321 N 119.726 -1.57421 0.075193 0
M  V30 1322 C 120.658 -2.09904 -0.920483 0
M  V30 1323 C 121.671 -1.03191 -1.25918 0
M  V30 1324 O 122.86 -1.30695 -1.21577 0
M  V30 1325 C 119.96 -2.54726 -2.23534 0
M  V30 1326 C 119.133 -3.8505 -2.07498 0
M  V30 1327 C 118.192 -4.15929 -3.22319 0
M  V30 1328 O 117.218 -4.85474 -2.9716 0
M  V30 1329 N 118.42 -3.69745 -4.47514 0
M  V30 1330 H 121.185 -2.95954 -0.472359 0
M  V30 1331 H 118.746 -1.61523 -0.110444 0
M  V30 1332 H 120.738 -2.72443 -2.9926 0
M  V30 1333 H 119.308 -1.73795 -2.59835 0
M  V30 1334 H 118.528 -3.76679 -1.16219 0
M  V30 1335 H 119.816 -4.70348 -1.94038 0
M  V30 1336 H 119.214 -3.13569 -4.7084 0
M  V30 1337 H 117.771 -3.92655 -5.20255 0
M  V30 1338 N 121.204 0.198386 -1.56346 0
M  V30 1339 C 122.114 1.2664 -1.97483 0
M  V30 1340 C 123.13 1.49989 -0.882002 0
M  V30 1341 O 124.306 1.62668 -1.18748 0
M  V30 1342 C 121.371 2.59141 -2.30319 0
M  V30 1343 C 120.432 2.43892 -3.53292 0
M  V30 1344 C 119.665 3.70074 -3.84553 0
M  V30 1345 O 119.888 4.74101 -3.1715 0
M  V30 1346 O 118.822 3.658 -4.7799 0
M  V30 1347 H 122.648 0.947304 -2.88548 0
M  V30 1348 H 120.233 0.403123 -1.43859 0
M  V30 1349 H 122.115 3.37352 -2.5253 0
M  V30 1350 H 120.79 2.90684 -1.42423 0
M  V30 1351 H 119.697 1.63803 -3.36332 0
M  V30 1352 H 121.03 2.17282 -4.41644 0
M  V30 1353 N 122.682 1.50554 0.465978 0
M  V30 1354 C 123.615 1.64436 1.58227 0
M  V30 1355 C 124.593 0.492367 1.54966 0
M  V30 1356 O 125.777 0.712536 1.74514 0
M  V30 1357 C 122.904 1.63165 2.96808 0
M  V30 1358 C 121.95 2.83987 3.18204 0
M  V30 1359 S 122.783 4.45219 2.97557 0
M  V30 1360 C 123.939 4.46649 4.3847 0
M  V30 1361 H 124.172 2.58861 1.46213 0
M  V30 1362 H 121.705 1.3988 0.653678 0
M  V30 1363 H 123.663 1.63116 3.76701 0
M  V30 1364 H 122.324 0.69967 3.06208 0
M  V30 1365 H 121.517 2.79416 4.19455 0
M  V30 1366 H 121.119 2.81629 2.46092 0
M  V30 1367 H 123.411 4.20526 5.31191 0
M  V30 1368 H 124.354 5.48295 4.48082 0
M  V30 1369 H 124.762 3.76296 4.20787 0
M  V30 1370 N 124.16 -0.719506 1.40217 0
M  V30 1371 C 125.123 -1.8153 1.39927 0
M  V30 1372 C 126.123 -1.58095 0.293723 0
M  V30 1373 O 127.313 -1.65209 0.552429 0
M  V30 1374 C 124.445 -3.19561 1.18716 0
M  V30 1375 H 125.638 -1.83186 2.37451 0
M  V30 1376 H 123.191 -0.924746 1.26008 0
M  V30 1377 H 123.926 -3.23557 0.219366 0
M  V30 1378 H 123.711 -3.3797 1.98793 0
M  V30 1379 H 125.201 -3.99598 1.21291 0
M  V30 1380 N 125.638 -1.25649 -0.95132 0
M  V30 1381 C 126.586 -1.06118 -2.06982 0
M  V30 1382 C 127.58 0.00889169 -1.69398 0
M  V30 1383 O 128.786 -0.146988 -1.79399 0
M  V30 1384 H 125.161 -0.326248 -0.677544 0
M  V30 1385 H 127.132 -2.00932 -2.2061 0
M  V30 1386 C 125.881 -0.700145 -3.40578 0
M  V30 1387 H 125.204 -1.51537 -3.69968 0
M  V30 1388 H 126.644 -0.603211 -4.19687 0
M  V30 1389 C 125.103 0.59403 -3.31622 0
M  V30 1390 O 125.633 1.63522 -3.66911 0
M  V30 1391 N 123.839 0.58089 -2.84735 0
M  V30 1392 H 123.386 -0.266783 -2.56215 0
M  V30 1393 H 123.344 1.44695 -2.79125 0
M  V30 1394 N 127.117 1.15442 -1.07289 0
M  V30 1395 C 128.342 1.90638 -0.816828 0
M  V30 1396 C 128.767 1.77445 0.624083 0
M  V30 1397 O 128.125 1.10671 1.43602 0
M  V30 1398 C 128.173 3.39008 -1.22906 0
M  V30 1399 O 127.277 4.10701 -0.373975 0
M  V30 1400 H 126.618 0.593555 -0.297638 0
M  V30 1401 H 129.148 1.46198 -1.43134 0
M  V30 1402 H 129.158 3.89801 -1.20497 0
M  V30 1403 H 127.833 3.47929 -2.27856 0
M  V30 1404 H 126.41 3.70046 -0.460499 0
M  V30 1405 N 128.595 0.856903 1.32268 0
M  V30 1406 C 129.841 0.462069 1.97466 0
M  V30 1407 C 130.174 -0.980298 1.67642 0
M  V30 1408 O 129.449 -1.68824 0.965858 0
M  V30 1409 C 129.732 0.704336 3.53145 0
M  V30 1410 C 129.585 2.19529 3.9259 0
M  V30 1411 C 130.904 0.1622 4.39801 0
M  V30 1412 H 128.023 0.169357 0.717278 0
M  V30 1413 H 130.665 1.07574 1.56614 0
M  V30 1414 H 128.815 0.181999 3.88073 0
M  V30 1415 H 130.487 2.78387 3.67829 0
M  V30 1416 H 128.73 2.67292 3.41668 0
M  V30 1417 H 129.401 2.31549 5.01088 0
M  V30 1418 H 131.877 0.608905 4.11621 0
M  V30 1419 H 130.753 0.361265 5.4771 0
M  V30 1420 H 131.014 -0.935158 4.32096 0
M  V30 1421 N 130.073 -1.45103 0.615059 0
M  V30 1422 C 131.303 -2.06254 0.119596 0
M  V30 1423 C 131.711 -1.4591 -1.20445 0
M  V30 1424 O 131.054 -0.570384 -1.7462 0
M  V30 1425 C 131.116 -3.59396 -0.0865591 0
M  V30 1426 C 130.78 -4.42116 1.15683 0
M  V30 1427 C 131.777 -4.7662 2.07676 0
M  V30 1428 C 129.462 -4.82749 1.38775 0
M  V30 1429 C 131.456 -5.50622 3.21082 0
M  V30 1430 C 129.143 -5.56504 2.52481 0
M  V30 1431 C 130.141 -5.90358 3.43463 0
M  V30 1432 O 129.829 -6.62615 4.55189 0
M  V30 1433 H 129.561 -0.672423 0.0694512 0
M  V30 1434 H 132.115 -1.87219 0.844885 0
M  V30 1435 H 130.345 -3.76859 -0.866823 0
M  V30 1436 H 132.034 -4.02365 -0.534555 0
M  V30 1437 H 132.8 -4.4578 1.91063 0
M  V30 1438 H 128.679 -4.55829 0.688545 0
M  V30 1439 H 132.223 -5.76965 3.92119 0
M  V30 1440 H 128.12 -5.86759 2.69043 0
M  V30 1441 H 128.888 -6.81071 4.53966 0
M  V30 1442 N 131.551 -0.354651 -1.53558 0
M  V30 1443 C 132.481 0.489091 -2.2832 0
M  V30 1444 C 133.462 1.09324 -1.30316 0
M  V30 1445 O 134.647 1.11255 -1.59173 0
M  V30 1446 C 131.777 1.63456 -3.0643 0
M  V30 1447 C 130.731 1.1582 -4.12031 0
M  V30 1448 C 130.057 2.39305 -4.7816 0
M  V30 1449 C 131.357 0.250731 -5.21698 0
M  V30 1450 H 133.051 -0.134614 -2.99097 0
M  V30 1451 H 130.597 -0.0661826 -1.43848 0
M  V30 1452 H 132.55 2.23136 -3.57475 0
M  V30 1453 H 131.274 2.28533 -2.33325 0
M  V30 1454 H 129.933 0.584146 -3.61916 0
M  V30 1455 H 129.581 3.02814 -4.01637 0
M  V30 1456 H 129.281 2.08109 -5.49513 0
M  V30 1457 H 130.805 2.99691 -5.31994 0
M  V30 1458 H 132.219 0.754695 -5.68311 0
M  V30 1459 H 130.616 0.0301468 -6.00092 0
M  V30 1460 H 131.686 -0.710125 -4.79672 0
M  V30 1461 N 133.029 1.57378 -0.0835403 0
M  V30 1462 C 134.275 1.94217 0.583733 0
M  V30 1463 C 134.608 0.964653 1.68547 0
M  V30 1464 O 133.883 -0.00422258 1.945 0
M  V30 1465 C 134.166 3.41253 1.14972 0
M  V30 1466 C 134.019 4.49768 0.0538277 0
M  V30 1467 C 135.338 3.89352 2.05166 0
M  V30 1468 H 132.457 0.706233 0.210724 0
M  V30 1469 H 135.099 1.89392 -0.1519 0
M  V30 1470 H 133.249 3.45496 1.77665 0
M  V30 1471 H 134.921 4.57641 -0.579851 0
M  V30 1472 H 133.164 4.29432 -0.614068 0
M  V30 1473 H 133.835 5.49817 0.490452 0
M  V30 1474 H 136.311 3.87189 1.52393 0
M  V30 1475 H 135.187 4.92822 2.41698 0
M  V30 1476 H 135.448 3.27973 2.96456 0
M  V30 1477 N 134.507 -0.190092 1.56449 0
M  V30 1478 C 135.44 -1.26375 1.90012 0
M  V30 1479 C 136.418 -1.43705 0.760765 0
M  V30 1480 O 137.602 -1.59014 1.01226 0
M  V30 1481 C 134.729 -2.62962 2.13468 0
M  V30 1482 C 133.775 -2.62474 3.36169 0
M  V30 1483 S 134.608 -2.13412 4.91137 0
M  V30 1484 C 135.764 -3.51812 5.17667 0
M  V30 1485 H 135.997 -0.977181 2.80782 0
M  V30 1486 H 133.53 -0.393814 1.49293 0
M  V30 1487 H 135.488 -3.41583 2.27664 0
M  V30 1488 H 134.149 -2.88828 1.23439 0
M  V30 1489 H 133.342 -3.62918 3.49723 0
M  V30 1490 H 132.944 -1.91937 3.20992 0
M  V30 1491 H 135.236 -4.47706 5.08494 0
M  V30 1492 H 136.179 -3.43148 6.19399 0
M  V30 1493 H 136.587 -3.46956 4.45288 0
M  V30 1494 N 135.985 -1.50799 -0.457987 0
M  V30 1495 C 136.895 -1.73426 -1.57989 0
M  V30 1496 C 137.911 -0.617745 -1.62665 0
M  V30 1497 O 139.087 -0.897614 -1.80291 0
M  V30 1498 C 136.152 -1.83557 -2.94122 0
M  V30 1499 C 135.213 -3.07345 -2.99729 0
M  V30 1500 C 134.446 -3.16983 -4.29368 0
M  V30 1501 O 134.669 -2.33077 -5.20607 0
M  V30 1502 O 133.603 -4.09812 -4.40837 0
M  V30 1503 H 137.429 -2.68555 -1.41817 0
M  V30 1504 H 135.014 -1.35052 -0.638859 0
M  V30 1505 H 136.896 -1.92326 -3.74952 0
M  V30 1506 H 135.571 -0.916137 -3.10465 0
M  V30 1507 H 134.478 -3.04068 -2.1793 0
M  V30 1508 H 135.811 -3.9891 -2.88326 0
M  V30 1509 N 137.463 0.71206 -1.40597 0
M  V30 1510 C 138.693 1.49894 -1.42181 0
M  V30 1511 C 139.101 1.89189 -0.0208078 0
M  V30 1512 O 138.444 1.56223 0.966436 0
M  V30 1513 C 138.506 2.80215 -2.25211 0
M  V30 1514 C 138.17 2.63221 -3.73582 0
M  V30 1515 C 139.167 2.30249 -4.66135 0
M  V30 1516 C 136.852 2.79376 -4.17438 0
M  V30 1517 C 138.846 2.13645 -6.00529 0
M  V30 1518 C 136.533 2.6239 -5.51901 0
M  V30 1519 C 137.531 2.29573 -6.43262 0
M  V30 1520 O 137.219 2.12719 -7.75246 0
M  V30 1521 H 136.951 0.469031 -0.486812 0
M  V30 1522 H 139.505 0.88564 -1.85326 0
M  V30 1523 H 137.735 3.4389 -1.76852 0
M  V30 1524 H 139.424 3.41947 -2.18694 0
M  V30 1525 H 140.19 2.17398 -4.33547 0
M  V30 1526 H 136.069 3.03906 -3.46644 0
M  V30 1527 H 139.613 1.87953 -6.71803 0
M  V30 1528 H 135.51 2.74826 -5.84073 0
M  V30 1529 H 136.278 2.27611 -7.86216 0
M  V30 1530 N 138.941 1.26152 0.944643 0
M  V30 1531 C 140.181 1.12708 1.70517 0
M  V30 1532 C 140.545 -0.324727 1.89234 0
M  V30 1533 O 141.746 -0.581211 2.62441 0
M  V30 1534 C 140.017 1.8713 3.04495 0
M  V30 1535 S 141.576 1.89698 3.95677 0
M  V30 1536 H 138.394 0.402665 0.585988 0
M  V30 1537 H 140.996 1.59821 1.12594 0
M  V30 1538 H 139.7 2.91833 2.88551 0
M  V30 1539 H 139.231 1.40444 3.67477 0
M  V30 1540 H 141.246 0.981198 4.86402 0
M  V30 1541 N 140.419 -1.14872 1.07899 0
M  V30 1542 C 141.367 -2.21857 0.698727 0
M  V30 1543 C 142.361 -1.66845 -0.293086 0
M  V30 1544 O 143.567 -1.79321 -0.156204 0
M  V30 1545 H 139.942 -0.722691 0.207899 0
M  V30 1546 H 141.913 -2.51205 1.61054 0
M  V30 1547 C 140.662 -3.47498 0.11858 0
M  V30 1548 H 139.985 -3.90154 0.872914 0
M  V30 1549 H 141.425 -4.23858 -0.109759 0
M  V30 1550 C 139.884 -3.16947 -1.1422 0
M  V30 1551 O 140.414 -3.3426 -2.22785 0
M  V30 1552 N 138.62 -2.70946 -1.05055 0
M  V30 1553 H 138.167 -2.57058 -0.167038 0
M  V30 1554 H 138.125 -2.50879 -1.89491 0
M  V30 1555 N 141.898 -0.863906 -1.31812 0
M  V30 1556 C 143.146 -0.470904 -1.96537 0
M  V30 1557 C 143.467 0.978771 -1.68657 0
M  V30 1558 O 142.737 1.6853 -0.998717 0
M  V30 1559 H 141.317 -0.171148 -0.72713 0
M  V30 1560 H 143.979 -1.10236 -1.60729 0
M  V30 1561 H 143.075 -0.623616 -3.05806 0
M  V30 1562 N 143.376 1.44774 -0.622745 0
M  V30 1563 C 144.624 2.01721 -0.123655 0
M  V30 1564 C 144.945 1.49172 1.25589 0
M  V30 1565 O 144.215 0.691974 1.83272 0
M  V30 1566 H 142.795 0.745777 -0.0427225 0
M  V30 1567 H 145.457 1.77382 -0.807559 0
M  V30 1568 H 144.553 3.11984 -0.0849534 0
M  V30 1569 N 144.854 0.36279 1.53368 0
M  V30 1570 C 146.131 -0.284021 1.93527 0
M  V30 1571 C 146.511 -1.66628 1.29608 0
M  V30 1572 O 145.859 -2.23942 0.45413 0
M  V30 1573 C 146.069 -0.337028 3.47369 0
M  V30 1574 C 147.417 -0.578708 4.20638 0
M  V30 1575 O 148.441 -0.418352 3.53735 0
M  V30 1576 O 147.3 -0.89074 5.39192 0
M  V30 1577 H 144.394 -0.169743 0.809393 0
M  V30 1578 H 146.94 0.41537 1.64538 0
M  V30 1579 H 145.712 0.632217 3.86159 0
M  V30 1580 H 145.335 -1.08243 3.82582 0
M  V30 1581 N 146.332 -1.57332 0.0918853 0
M  V30 1582 C 147.262 -2.16872 -0.865371 0
M  V30 1583 C 148.243 -1.10118 -1.29646 0
M  V30 1584 O 149.428 -1.38242 -1.36392 0
M  V30 1585 C 146.558 -2.74649 -2.12569 0
M  V30 1586 C 145.512 -3.86747 -1.83333 0
M  V30 1587 C 144.838 -4.31212 -3.16166 0
M  V30 1588 C 146.138 -5.10089 -1.1228 0
M  V30 1589 H 147.832 -2.97114 -0.369307 0
M  V30 1590 H 145.378 -1.42918 -0.176194 0
M  V30 1591 H 147.331 -3.14952 -2.7997 0
M  V30 1592 H 146.055 -1.91657 -2.64452 0
M  V30 1593 H 144.714 -3.46978 -1.18331 0
M  V30 1594 H 144.362 -3.45115 -3.6593 0
M  V30 1595 H 144.062 -5.06788 -2.97388 0
M  V30 1596 H 145.586 -4.74146 -3.84731 0
M  V30 1597 H 147 -5.47582 -1.69785 0
M  V30 1598 H 145.397 -5.91073 -1.03693 0
M  V30 1599 H 146.467 -4.84786 -0.105041 0
M  V30 1600 N 147.81 0.181792 -1.56548 0
M  V30 1601 C 148.773 1.20894 -1.94724 0
M  V30 1602 C 149.773 1.37738 -0.829747 0
M  V30 1603 O 150.963 1.35323 -1.09697 0
M  V30 1604 C 148.095 2.57593 -2.23291 0
M  V30 1605 H 149.288 0.882275 -2.86629 0
M  V30 1606 H 146.841 0.423838 -1.50444 0
M  V30 1607 H 147.576 2.95291 -1.34067 0
M  V30 1608 H 147.361 2.46735 -3.04736 0
M  V30 1609 H 148.851 3.31637 -2.53785 0
M  V30 1610 N 149.288 1.51039 0.449983 0
M  V30 1611 C 150.565 1.53612 1.21089 0
M  V30 1612 C 150.945 0.292997 2.09057 0
M  V30 1613 O 150.293 -0.72259 2.16774 0
M  V30 1614 C 150.503 2.84337 2.0237 0
M  V30 1615 C 151.851 3.35807 2.59843 0
M  V30 1616 O 152.875 2.85802 2.12593 0
M  V30 1617 O 151.734 4.23029 3.45989 0
M  V30 1618 H 148.828 0.617057 0.550608 0
M  V30 1619 H 151.374 1.63344 0.460082 0
M  V30 1620 H 150.146 3.66278 1.37681 0
M  V30 1621 H 149.769 2.77708 2.84542 0
M  V30 1622 N 150.766 -0.704594 1.40972 0
M  V30 1623 C 151.996 -1.49138 1.42974 0
M  V30 1624 C 152.404 -1.89175 0.0308406 0
M  V30 1625 O 151.747 -1.56734 -0.958138 0
M  V30 1626 C 151.809 -2.79016 2.26694 0
M  V30 1627 C 151.473 -2.61236 3.74973 0
M  V30 1628 C 152.47 -2.27773 4.67349 0
M  V30 1629 C 150.155 -2.77158 4.18914 0
M  V30 1630 C 152.149 -2.10457 6.01653 0
M  V30 1631 C 149.836 -2.59459 5.53285 0
M  V30 1632 C 150.834 -2.26158 6.4447 0
M  V30 1633 O 150.522 -2.08605 7.76363 0
M  V30 1634 H 150.254 -0.466443 0.489292 0
M  V30 1635 H 152.808 -0.8758 1.85793 0
M  V30 1636 H 151.038 -3.42947 1.78673 0
M  V30 1637 H 152.727 -3.40782 2.20504 0
M  V30 1638 H 153.493 -2.15095 4.34694 0
M  V30 1639 H 149.372 -3.02064 3.48251 0
M  V30 1640 H 152.916 -1.84387 6.72791 0
M  V30 1641 H 148.813 -2.71725 5.85522 0
M  V30 1642 H 149.581 -2.23439 7.87412 0
M  V30 1643 N 152.244 -1.26651 -0.937939 0
M  V30 1644 C 153.174 -1.10993 -2.05433 0
M  V30 1645 C 154.155 -0.0142161 -1.70094 0
M  V30 1646 O 155.34 -0.186837 -1.93299 0
M  V30 1647 C 152.47 -0.745561 -3.39203 0
M  V30 1648 C 151.424 -1.79337 -3.88616 0
M  V30 1649 C 150.75 -1.28324 -5.19073 0
M  V30 1650 C 152.05 -3.19553 -4.13138 0
M  V30 1651 H 153.744 -2.0438 -2.1879 0
M  V30 1652 H 151.29 -0.984041 -1.05131 0
M  V30 1653 H 153.243 -0.622888 -4.16771 0
M  V30 1654 H 151.967 0.22401 -3.25831 0
M  V30 1655 H 150.626 -1.90477 -3.13231 0
M  V30 1656 H 150.274 -0.303414 -5.02084 0
M  V30 1657 H 149.974 -1.98369 -5.53103 0
M  V30 1658 H 151.498 -1.1733 -5.99221 0
M  V30 1659 H 152.912 -3.11471 -4.81309 0
M  V30 1660 H 151.309 -3.87218 -4.58457 0
M  V30 1661 H 152.379 -3.65368 -3.18801 0
M  V30 1662 N 153.722 1.14298 -1.08507 0
M  V30 1663 C 154.672 2.17449 -0.685569 0
M  V30 1664 C 155.656 1.58167 0.295315 0
M  V30 1665 O 156.848 1.76675 0.107172 0
M  V30 1666 C 153.977 3.43161 -0.0975318 0
M  V30 1667 C 153.063 4.09471 -1.10426 0
M  V30 1668 N 153.454 4.51089 -2.28806 0
M  V30 1669 C 151.752 4.35976 -0.940258 0
M  V30 1670 C 152.453 5.02654 -2.9277 0
M  V30 1671 N 151.429 4.96927 -2.20374 0
M  V30 1672 H 155.231 2.47369 -1.587 0
M  V30 1673 H 152.745 1.30992 -0.959936 0
M  V30 1674 H 154.742 4.16388 0.20664 0
M  V30 1675 H 153.402 3.14719 0.798872 0
M  V30 1676 H 154.413 4.44097 -2.66455 0
M  V30 1677 H 151.09 4.17386 -0.0977441 0
M  V30 1678 H 152.48 5.44723 -3.93352 0
M  V30 1679 N 155.201 0.870884 1.31352 0
M  V30 1680 C 156.164 0.332243 2.26779 0
M  V30 1681 C 157.164 -0.517302 1.52252 0
M  V30 1682 O 158.354 -0.326477 1.71113 0
M  V30 1683 C 155.486 -0.528066 3.36785 0
M  V30 1684 H 156.679 1.17469 2.75937 0
M  V30 1685 H 154.232 0.64655 1.423 0
M  V30 1686 H 154.967 -1.39167 2.92922 0
M  V30 1687 H 154.752 0.0802582 3.92018 0
M  V30 1688 H 156.242 -0.897179 4.07849 0
M  V30 1689 N 156.679 -1.44442 0.630414 0
M  V30 1690 C 157.612 -2.27862 -0.124247 0
M  V30 1691 C 158.59 -1.38495 -0.851931 0
M  V30 1692 O 159.774 -1.67935 -0.856166 0
M  V30 1693 C 156.901 -3.17407 -1.18197 0
M  V30 1694 C 155.947 -4.22875 -0.554892 0
M  V30 1695 S 156.78 -5.31485 0.654489 0
M  V30 1696 C 157.936 -6.246 -0.40326 0
M  V30 1697 H 158.169 -2.91519 0.583435 0
M  V30 1698 H 155.702 -1.48618 0.418565 0
M  V30 1699 H 157.66 -3.69549 -1.78728 0
M  V30 1700 H 156.321 -2.52971 -1.86184 0
M  V30 1701 H 155.514 -4.85542 -1.35148 0
M  V30 1702 H 155.116 -3.73992 -0.0242105 0
M  V30 1703 H 157.408 -6.65375 -1.27602 0
M  V30 1704 H 158.351 -7.07851 0.187813 0
M  V30 1705 H 158.759 -5.59775 -0.728837 0
M  V30 1706 N 158.157 -0.370918 -1.53173 0
M  V30 1707 C 159.573 -0.0200818 -1.59587 0
M  V30 1708 C 159.773 1.46279 -1.38581 0
M  V30 1709 O 158.829 2.22506 -1.19363 0
M  V30 1710 C 160.142 -0.4808 -2.96831 0
M  V30 1711 C 161.69 -0.435477 -3.09956 0
M  V30 1712 C 162.165 -0.872092 -4.4962 0
M  V30 1713 N 163.656 -0.827364 -4.55751 0
M  V30 1714 C 164.391 -1.13683 -5.62018 0
M  V30 1715 N 163.887 -1.51584 -6.76014 0
M  V30 1716 N 165.68 -1.05927 -5.52029 0
M  V30 1717 H 157.831 -1.33652 -1.65079 0
M  V30 1718 H 160.094 -0.546634 -0.774529 0
M  V30 1719 H 159.8 -1.51577 -3.1736 0
M  V30 1720 H 159.674 0.129796 -3.76977 0
M  V30 1721 H 162.061 0.590371 -2.89134 0
M  V30 1722 H 162.142 -1.08164 -2.31806 0
M  V30 1723 H 161.786 -1.89608 -4.71181 0
M  V30 1724 H 161.716 -0.203127 -5.26208 0
M  V30 1725 H 164.207 -0.548216 -3.73902 0
M  V30 1726 H 164.52 -1.73609 -7.53047 0
M  V30 1727 H 162.865 -1.55454 -6.77391 0
M  V30 1728 H 166.056 -0.762321 -4.61851 0
M  V30 1729 H 166.229 -1.30378 -6.34749 0
M  V30 1730 N 159.635 1.57281 -0.100228 0
M  V30 1731 C 160.863 1.98879 0.570509 0
M  V30 1732 C 161.278 0.979476 1.61405 0
M  V30 1733 O 160.635 -0.0302288 1.82475 0
M  V30 1734 C 160.686 3.4052 1.2136 0
M  V30 1735 O 160.407 4.37588 0.211786 0
M  V30 1736 C 161.908 3.97149 1.96945 0
M  V30 1737 H 159.128 0.653428 0.152555 0
M  V30 1738 H 161.672 2.03697 -0.18103 0
M  V30 1739 H 159.827 3.367 1.91603 0
M  V30 1740 H 160.241 5.20118 0.676607 0
M  V30 1741 H 161.715 4.98393 2.37294 0
M  V30 1742 H 162.192 3.3525 2.83733 0
M  V30 1743 H 162.798 4.04458 1.31506 0
M  V30 1744 N 161.113 -0.173488 1.56642 0
M  V30 1745 C 162.043 -1.2171 1.99271 0
M  V30 1746 C 163.024 -1.46289 0.867959 0
M  V30 1747 O 164.209 -1.5766 1.13388 0
M  V30 1748 C 161.339 -2.55651 2.35074 0
M  V30 1749 C 160.293 -2.45645 3.50489 0
M  V30 1750 C 159.619 -3.84056 3.72028 0
M  V30 1751 C 160.919 -1.96302 4.84007 0
M  V30 1752 H 162.613 -0.86275 2.867 0
M  V30 1753 H 160.159 -0.413571 1.37933 0
M  V30 1754 H 162.112 -3.2886 2.63494 0
M  V30 1755 H 160.836 -2.92869 1.44552 0
M  V30 1756 H 159.495 -1.7489 3.22194 0
M  V30 1757 H 159.143 -4.18664 2.788 0
M  V30 1758 H 158.843 -3.7823 4.49684 0
M  V30 1759 H 160.367 -4.58854 4.02846 0
M  V30 1760 H 161.781 -2.59284 5.11317 0
M  V30 1761 H 160.178 -2.01429 5.65284 0
M  V30 1762 H 161.248 -0.917226 4.76146 0
M  V30 1763 N 162.591 -1.51276 -0.441967 0
M  V30 1764 C 163.816 -1.67799 -1.21895 0
M  V30 1765 C 164.241 -0.372864 -1.84367 0
M  V30 1766 O 163.599 0.666501 -1.68604 0
M  V30 1767 C 163.647 -2.79199 -2.28211 0
M  V30 1768 O 162.751 -2.42479 -3.33583 0
M  V30 1769 H 162.092 -0.559649 -0.357336 0
M  V30 1770 H 164.622 -1.97815 -0.522522 0
M  V30 1771 H 164.632 -3.03146 -2.73069 0
M  V30 1772 H 163.307 -3.73906 -1.82118 0
M  V30 1773 H 161.884 -2.29087 -2.94234 0
M  V30 1774 N 164.069 0.697108 -1.41344 0
M  V30 1775 C 164.979 1.84088 -1.45427 0
M  V30 1776 C 165.995 1.70545 -0.34501 0
M  V30 1777 O 167.171 1.92488 -0.592492 0
M  V30 1778 C 164.236 3.20056 -1.33286 0
M  V30 1779 C 163.297 3.45718 -2.54514 0
M  V30 1780 C 162.53 4.75199 -2.42944 0
M  V30 1781 O 162.753 5.51579 -1.45318 0
M  V30 1782 O 161.687 5.0161 -3.32672 0
M  V30 1783 H 165.513 1.836 -2.41919 0
M  V30 1784 H 163.098 0.849966 -1.22866 0
M  V30 1785 H 164.98 4.01236 -1.28794 0
M  V30 1786 H 163.655 3.2123 -0.39909 0
M  V30 1787 H 162.562 2.64474 -2.64583 0
M  V30 1788 H 163.895 3.49356 -3.46715 0
M  V30 1789 N 165.547 1.27147 0.931209 0
M  V30 1790 C 166.824 1.0401 1.65654 0
M  V30 1791 C 167.204 -0.426297 2.06751 0
M  V30 1792 O 166.552 -1.40879 1.79904 0
M  V30 1793 C 166.762 1.99834 2.86125 0
M  V30 1794 C 168.11 2.29007 3.57549 0
M  V30 1795 O 169.134 1.97779 2.96246 0
M  V30 1796 O 167.993 2.82222 4.67989 0
M  V30 1797 H 165.087 0.396239 0.725895 0
M  V30 1798 H 167.633 1.38397 0.982056 0
M  V30 1799 H 166.405 2.98744 2.52721 0
M  V30 1800 H 166.028 1.65987 3.61295 0
M  V30 1801 N 167.025 -1.13721 1.09112 0
M  V30 1802 C 168.253 -1.88773 0.846899 0
M  V30 1803 C 168.668 -1.7896 -0.601572 0
M  V30 1804 O 168.025 -1.15394 -1.41388 0
M  V30 1805 C 168.076 -3.3849 1.26913 0
M  V30 1806 O 167.797 -3.48043 2.66079 0
M  V30 1807 C 169.298 -4.30518 1.05682 0
M  V30 1808 H 166.518 -0.59772 0.304914 0
M  V30 1809 H 169.062 -1.43977 1.45227 0
M  V30 1810 H 167.217 -3.80881 0.707723 0
M  V30 1811 H 167.631 -4.4109 2.83795 0
M  V30 1812 H 169.105 -5.3391 1.40156 0
M  V30 1813 H 169.582 -4.392 -0.00563416 0
M  V30 1814 H 170.188 -3.93893 1.60402 0
M  V30 1815 N 168.503 -0.877838 -1.30888 0
M  V30 1816 C 169.752 -0.488793 -1.95688 0
M  V30 1817 C 170.065 0.965485 -1.70111 0
M  V30 1818 O 171.271 1.46104 -2.28836 0
M  V30 1819 C 169.727 -0.823201 -3.50359 0
M  V30 1820 C 169.335 -2.29477 -3.84765 0
M  V30 1821 C 171.079 -0.503009 -4.21509 0
M  V30 1822 C 168.986 -2.57118 -5.32583 0
M  V30 1823 H 167.916 -0.179062 -0.732429 0
M  V30 1824 H 170.567 -1.07183 -1.48943 0
M  V30 1825 H 168.949 -0.169331 -3.95638 0
M  V30 1826 H 170.123 -2.99236 -3.5042 0
M  V30 1827 H 168.438 -2.58178 -3.267 0
M  V30 1828 H 171.035 -0.68665 -5.30273 0
M  V30 1829 H 171.378 0.557109 -4.12555 0
M  V30 1830 H 171.911 -1.11376 -3.8189 0
M  V30 1831 H 168.65 -3.61843 -5.4658 0
M  V30 1832 H 168.17 -1.91961 -5.68253 0
M  V30 1833 H 169.849 -2.42251 -5.99936 0
M  V30 1834 N 169.982 1.44106 -0.638065 0
M  V30 1835 C 171.398 1.56672 -0.304286 0
M  V30 1836 C 171.598 1.6244 1.19228 0
M  V30 1837 O 170.654 1.57121 1.9766 0
M  V30 1838 C 171.967 2.83503 -1.00231 0
M  V30 1839 C 173.515 2.97226 -0.981116 0
M  V30 1840 C 173.99 4.26868 -1.65974 0
M  V30 1841 N 175.481 4.33698 -1.62666 0
M  V30 1842 C 176.216 5.32745 -2.12063 0
M  V30 1843 N 175.712 6.38157 -2.6968 0
M  V30 1844 N 177.505 5.24299 -2.02651 0
M  V30 1845 H 169.656 1.38605 -1.60942 0
M  V30 1846 H 171.919 0.664661 -0.675965 0
M  V30 1847 H 171.625 2.85251 -2.0573 0
M  V30 1848 H 171.499 3.73251 -0.54439 0
M  V30 1849 H 173.886 2.95027 0.0654188 0
M  V30 1850 H 173.967 2.08808 -1.47759 0
M  V30 1851 H 173.611 4.29826 -2.70576 0
M  V30 1852 H 173.541 5.14156 -1.13804 0
M  V30 1853 H 176.032 3.58138 -1.20606 0
M  V30 1854 H 176.345 7.10029 -3.05087 0
M  V30 1855 H 174.69 6.38823 -2.73734 0
M  V30 1856 H 177.881 4.4086 -1.57353 0
M  V30 1857 H 178.054 6.01334 -2.41457 0
M  V30 1858 N 171.46 0.379036 1.52974 0
M  V30 1859 C 172.39 -0.452706 2.29069 0
M  V30 1860 C 173.371 -1.07237 1.32039 0
M  V30 1861 O 174.556 -1.08708 1.60923 0
M  V30 1862 C 171.686 -1.5856 3.08992 0
M  V30 1863 C 170.64 -1.0925 4.13822 0
M  V30 1864 C 169.966 -2.31668 4.81907 0
M  V30 1865 C 171.266 -0.167702 5.22031 0
M  V30 1866 H 172.96 0.182181 2.98845 0
M  V30 1867 H 170.506 0.0890592 1.43724 0
M  V30 1868 H 172.459 -2.1742 3.6098 0
M  V30 1869 H 171.183 -2.24792 2.36931 0
M  V30 1870 H 169.842 -0.526494 3.628 0
M  V30 1871 H 169.49 -2.96386 4.06404 0
M  V30 1872 H 169.19 -1.9934 5.52754 0
M  V30 1873 H 170.714 -2.91189 5.36695 0
M  V30 1874 H 172.128 -0.664186 5.6944 0
M  V30 1875 H 170.525 0.0653265 6.00064 0
M  V30 1876 H 171.595 0.786347 4.78482 0
M  V30 1877 N 172.938 -1.57226 0.108567 0
M  V30 1878 C 174.185 -1.94833 -0.551943 0
M  V30 1879 C 174.513 -0.991204 -1.67348 0
M  V30 1880 O 173.768 -0.0131878 -1.95696 0
M  V30 1881 C 174.067 -3.38911 -1.13463 0
M  V30 1882 C 173.733 -4.50696 -0.135509 0
M  V30 1883 C 172.395 -4.80998 0.139252 0
M  V30 1884 C 174.747 -5.18333 0.545957 0
M  V30 1885 C 172.075 -5.76259 1.10194 0
M  V30 1886 C 174.427 -6.14627 1.49721 0
M  V30 1887 C 173.091 -6.43327 1.78006 0
M  V30 1888 H 172.361 -0.712944 -0.20197 0
M  V30 1889 H 175.008 -1.90582 0.18726 0
M  V30 1890 H 173.313 -3.39805 -1.95037 0
M  V30 1891 H 175.01 -3.65317 -1.65362 0
M  V30 1892 H 171.6 -4.27087 -0.359846 0
M  V30 1893 H 175.784 -4.95087 0.346842 0
M  V30 1894 H 171.04 -5.96804 1.32795 0
M  V30 1895 H 175.214 -6.66126 2.03099 0
M  V30 1896 H 172.841 -7.1695 2.52759 0
M  V30 1897 N 174.416 0.165178 -1.56732 0
M  V30 1898 C 175.346 1.20651 -1.99914 0
M  V30 1899 C 176.327 1.45827 -0.875705 0
M  V30 1900 O 177.512 1.57057 -1.14223 0
M  V30 1901 C 174.642 2.54401 -2.36427 0
M  V30 1902 C 173.596 2.43782 -3.51787 0
M  V30 1903 C 172.922 3.82078 -3.7406 0
M  V30 1904 C 174.222 1.93732 -4.85041 0
M  V30 1905 H 175.916 0.847534 -2.87154 0
M  V30 1906 H 173.462 0.40625 -1.38151 0
M  V30 1907 H 175.415 3.27458 -2.65234 0
M  V30 1908 H 174.139 2.92098 -1.46103 0
M  V30 1909 H 172.798 1.73178 -3.23117 0
M  V30 1910 H 172.446 4.17179 -2.81017 0
M  V30 1911 H 172.146 3.7584 -4.51684 0
M  V30 1912 H 173.67 4.56712 -4.05274 0
M  V30 1913 H 175.084 2.56569 -5.12684 0
M  V30 1914 H 173.481 1.98428 -5.66345 0
M  V30 1915 H 174.551 0.891962 -4.76626 0
M  V30 1916 N 175.894 1.51508 0.433938 0
M  V30 1917 C 176.826 1.69266 1.54537 0
M  V30 1918 C 177.839 0.573276 1.52373 0
M  V30 1919 O 179.028 0.847698 1.57087 0
M  V30 1920 C 176.128 1.69524 2.93453 0
M  V30 1921 C 175.301 2.98101 3.20085 0
M  V30 1922 C 174.36 2.90502 4.38742 0
M  V30 1923 O 173.386 3.64442 4.3723 0
M  V30 1924 N 174.588 2.06586 5.42496 0
M  V30 1925 H 177.353 2.65145 1.39708 0
M  V30 1926 H 174.914 1.49437 0.622922 0
M  V30 1927 H 176.906 1.62004 3.70859 0
M  V30 1928 H 175.476 0.812245 3.01863 0
M  V30 1929 H 174.696 3.19464 2.30947 0
M  V30 1930 H 175.984 3.83207 3.34708 0
M  V30 1931 H 175.382 1.45896 5.46563 0
M  V30 1932 H 173.939 2.04943 6.18742 0
M  V30 1933 N 177.372 -0.689602 1.41712 0
M  V30 1934 C 178.304 -1.815 1.39966 0
M  V30 1935 C 179.317 -1.59995 0.300917 0
M  V30 1936 O 180.506 -1.69387 0.563039 0
M  V30 1937 C 177.606 -3.18364 1.16179 0
M  V30 1938 C 176.779 -3.66847 2.38206 0
M  V30 1939 C 175.838 -4.82398 2.10186 0
M  V30 1940 O 174.864 -4.93706 2.83272 0
M  V30 1941 N 176.066 -5.70064 1.0958 0
M  V30 1942 H 178.831 -1.83488 2.36965 0
M  V30 1943 H 176.392 -0.872149 1.36401 0
M  V30 1944 H 178.384 -3.93301 0.953756 0
M  V30 1945 H 176.954 -3.11365 0.27756 0
M  V30 1946 H 176.174 -2.82751 2.74673 0
M  V30 1947 H 177.462 -3.95978 3.19498 0
M  V30 1948 H 176.86 -5.63565 0.491019 0
M  V30 1949 H 175.417 -6.44874 0.947656 0
M  V30 1950 N 178.85 -1.27639 -0.924453 0
M  V30 1951 C 180.099 -1.13549 -1.66702 0
M  V30 1952 C 180.412 0.317487 -1.93006 0
M  V30 1953 O 181.618 0.579333 -2.65247 0
M  V30 1954 C 180.074 -1.98426 -3.00259 0
M  V30 1955 C 179.682 -3.484 -2.81641 0
M  V30 1956 C 181.426 -1.92993 -3.78092 0
M  V30 1957 C 179.333 -4.25464 -4.10773 0
M  V30 1958 H 178.263 -0.421351 -0.625283 0
M  V30 1959 H 180.914 -1.52085 -1.02676 0
M  V30 1960 H 179.296 -1.52736 -3.6536 0
M  V30 1961 H 180.47 -4.01973 -2.25287 0
M  V30 1962 H 178.785 -3.55245 -2.17232 0
M  V30 1963 H 181.382 -2.47844 -4.7379 0
M  V30 1964 H 181.725 -0.904281 -4.0636 0
M  V30 1965 H 182.258 -2.36595 -3.19793 0
M  V30 1966 H 178.997 -5.28566 -3.87683 0
M  V30 1967 H 178.517 -3.76667 -4.66779 0
M  V30 1968 H 180.196 -4.34812 -4.79111 0
M  V30 1969 N 180.328 1.1314 -1.09713 0
M  V30 1970 C 181.291 2.16831 -0.742751 0
M  V30 1971 C 182.291 1.59159 0.229129 0
M  V30 1972 O 183.481 1.74199 0.00693237 0
M  V30 1973 C 180.613 3.40756 -0.0989168 0
M  V30 1974 H 181.806 2.49695 -1.66109 0
M  V30 1975 H 179.359 1.2802 -0.896699 0
M  V30 1976 H 180.094 3.13485 0.830514 0
M  V30 1977 H 179.879 3.83888 -0.798265 0
M  V30 1978 H 181.369 4.17386 0.133524 0
M  V30 1979 N 181.806 0.884767 1.30421 0
M  V30 1980 C 183.054 0.502112 1.95763 0
M  V30 1981 C 183.375 -0.951815 1.70192 0
M  V30 1982 O 182.645 -1.6692 1.0254 0
M  V30 1983 H 181.225 0.182694 0.724315 0
M  V30 1984 H 183.887 1.1278 1.58955 0
M  V30 1985 H 182.983 0.672188 3.04775 0
M  V30 1986 N 183.284 -1.43765 0.645699 0
M  V30 1987 C 184.247 -2.29163 -0.0409488 0
M  V30 1988 C 185.247 -1.41813 -0.757996 0
M  V30 1989 O 186.437 -1.63527 -0.600382 0
M  V30 1990 C 183.569 -3.23716 -1.06869 0
M  V30 1991 H 184.762 -2.91366 0.710345 0
M  V30 1992 H 182.315 -1.5092 0.406547 0
M  V30 1993 H 183.05 -2.66393 -1.84947 0
M  V30 1994 H 182.835 -3.88105 -0.558277 0
M  V30 1995 H 184.325 -3.87831 -1.54845 0
M  V30 1996 N 184.763 -0.387143 -1.52771 0
M  V30 1997 C 185.696 0.493123 -2.22808 0
M  V30 1998 C 186.674 1.0658 -1.22798 0
M  V30 1999 O 187.858 1.11785 -1.51777 0
M  V30 2000 C 184.985 1.68238 -2.93962 0
M  V30 2001 C 184.031 1.23515 -4.08223 0
M  V30 2002 S 184.864 0.21848 -5.35054 0
M  V30 2003 C 186.02 1.41357 -6.09729 0
M  V30 2004 H 186.253 -0.101625 -2.97126 0
M  V30 2005 H 183.786 -0.171323 -1.53447 0
M  V30 2006 H 185.744 2.36443 -3.35567 0
M  V30 2007 H 184.405 2.24842 -2.19328 0
M  V30 2008 H 183.598 2.12304 -4.57103 0
M  V30 2009 H 183.2 0.632044 -3.68621 0
M  V30 2010 H 185.492 2.34101 -6.3577 0
M  V30 2011 H 186.435 0.965736 -7.01484 0
M  V30 2012 H 186.843 1.6294 -5.40473 0
M  V30 2013 N 186.241 1.57166 -0.116904 0
M  V30 2014 C 187.657 1.5779 0.239693 0
M  V30 2015 C 187.857 1.1295 1.66867 0
M  V30 2016 O 186.913 0.81592 2.38954 0
M  V30 2017 C 188.226 3.00699 0.00828202 0
M  V30 2018 C 189.774 3.12912 0.0743438 0
M  V30 2019 C 190.249 4.57817 -0.129348 0
M  V30 2020 N 191.74 4.63139 -0.075247 0
M  V30 2021 C 192.475 5.73023 -0.207788 0
M  V30 2022 N 191.971 6.91665 -0.396382 0
M  V30 2023 N 193.764 5.61906 -0.14751 0
M  V30 2024 H 185.915 1.84615 -1.05029 0
M  V30 2025 H 188.178 0.85311 -0.41341 0
M  V30 2026 H 187.884 3.37784 -0.979531 0
M  V30 2027 H 187.758 3.69848 0.741077 0
M  V30 2028 H 190.145 2.75686 1.05268 0
M  V30 2029 H 190.226 2.4631 -0.690297 0
M  V30 2030 H 189.87 4.95742 -1.10465 0
M  V30 2031 H 189.8 5.22507 0.655253 0
M  V30 2032 H 192.291 3.7784 0.0670898 0
M  V30 2033 H 192.604 7.71255 -0.488437 0
M  V30 2034 H 190.949 6.93654 -0.432329 0
M  V30 2035 H 194.14 4.681 -0.00115036 0
M  V30 2036 H 194.313 6.47501 -0.254247 0
M  V30 2037 N 187.719 -0.156864 1.56817 0
M  V30 2038 C 188.649 -1.19589 2.00551 0
M  V30 2039 C 189.63 -1.4536 0.883426 0
M  V30 2040 O 190.815 -1.56449 1.15054 0
M  V30 2041 C 187.945 -2.53143 2.37773 0
M  V30 2042 C 186.899 -2.41913 3.53075 0
M  V30 2043 C 186.225 -3.80088 3.76081 0
M  V30 2044 C 187.525 -1.91157 4.86062 0
M  V30 2045 H 189.219 -0.832293 2.87599 0
M  V30 2046 H 186.765 -0.398918 1.38364 0
M  V30 2047 H 188.718 -3.26047 2.66967 0
M  V30 2048 H 187.442 -2.91319 1.4765 0
M  V30 2049 H 186.101 -1.71462 3.24031 0
M  V30 2050 H 185.749 -4.15683 2.83225 0
M  V30 2051 H 185.449 -3.73439 4.53671 0
M  V30 2052 H 186.973 -4.54556 4.0769 0
M  V30 2053 H 188.387 -2.53846 5.14038 0
M  V30 2054 H 186.784 -1.95422 5.67389 0
M  V30 2055 H 187.854 -0.866673 4.77092 0
M  V30 2056 N 189.197 -1.51736 -0.425897 0
M  V30 2057 C 190.127 -1.76827 -1.52494 0
M  V30 2058 C 191.108 -0.618524 -1.58456 0
M  V30 2059 O 192.293 -0.862416 -1.74 0
M  V30 2060 C 189.423 -1.90374 -2.90474 0
M  V30 2061 C 188.377 -3.0588 -2.99369 0
M  V30 2062 C 187.703 -3.04625 -4.3944 0
M  V30 2063 C 189.003 -4.45644 -2.72394 0
M  V30 2064 H 190.697 -2.68855 -1.31748 0
M  V30 2065 H 188.243 -1.29372 -0.632362 0
M  V30 2066 H 190.196 -2.0651 -3.6733 0
M  V30 2067 H 188.92 -0.95004 -3.12477 0
M  V30 2068 H 187.579 -2.89467 -2.24954 0
M  V30 2069 H 187.227 -2.0701 -4.58428 0
M  V30 2070 H 186.927 -3.82195 -4.46319 0
M  V30 2071 H 188.451 -3.22869 -5.18255 0
M  V30 2072 H 189.865 -4.62348 -3.38979 0
M  V30 2073 H 188.262 -5.25006 -2.9067 0
M  V30 2074 H 189.332 -4.54893 -1.67929 0
M  V30 2075 N 190.675 0.682077 -1.42076 0
M  V30 2076 C 191.625 1.78823 -1.41444 0
M  V30 2077 C 192.609 1.58323 -0.28681 0
M  V30 2078 O 193.801 1.68926 -0.528498 0
M  V30 2079 C 190.93 3.17232 -1.3122 0
M  V30 2080 C 190.016 3.4338 -2.489 0
M  V30 2081 N 190.407 3.40152 -3.7434 0
M  V30 2082 C 188.705 3.73986 -2.43003 0
M  V30 2083 C 189.406 3.65581 -4.52466 0
M  V30 2084 N 188.382 3.85989 -3.8277 0
M  V30 2085 H 192.184 1.7471 -2.36334 0
M  V30 2086 H 189.698 0.882622 -1.36321 0
M  V30 2087 H 191.695 3.96489 -1.2885 0
M  V30 2088 H 190.355 3.22547 -0.373263 0
M  V30 2089 H 191.366 3.20221 -4.07037 0
M  V30 2090 H 188.043 3.86591 -1.57651 0
M  V30 2091 H 189.433 3.69108 -5.61435 0
M  V30 2092 N 192.153 1.28127 0.917671 0
M  V30 2093 C 193.378 1.18007 1.70555 0
M  V30 2094 C 193.803 -0.258257 1.86319 0
M  V30 2095 O 193.161 -1.1869 1.37049 0
M  V30 2096 C 193.209 1.87948 3.07746 0
M  V30 2097 O 192.313 1.18427 3.9503 0
M  V30 2098 H 191.654 0.409867 0.522403 0
M  V30 2099 H 194.184 1.69379 1.1477 0
M  V30 2100 H 194.194 1.95701 3.58001 0
M  V30 2101 H 192.869 2.92573 2.95591 0
M  V30 2102 H 191.446 1.18811 3.53466 0
M  V30 2103 N 193.631 -1.12557 1.10312 0
M  V30 2104 C 194.578 -2.18247 0.750781 0
M  V30 2105 C 195.548 -1.63853 -0.272293 0
M  V30 2106 O 196.733 -1.90195 -0.151862 0
M  V30 2107 C 193.873 -3.44591 0.187379 0
M  V30 2108 C 192.986 -4.13046 1.2656 0
M  V30 2109 C 192.121 -5.27034 0.663978 0
M  V30 2110 C 191.16 -5.87353 1.72287 0
M  V30 2111 N 190.297 -6.92757 1.1416 0
M  V30 2112 H 195.137 -2.47732 1.65628 0
M  V30 2113 H 192.674 -1.21629 0.827337 0
M  V30 2114 H 194.632 -4.16904 -0.157148 0
M  V30 2115 H 193.262 -3.15527 -0.681355 0
M  V30 2116 H 192.314 -3.38924 1.72727 0
M  V30 2117 H 193.626 -4.53947 2.06721 0
M  V30 2118 H 192.78 -6.06104 0.268824 0
M  V30 2119 H 191.519 -4.87407 -0.169082 0
M  V30 2120 H 190.524 -5.06971 2.12746 0
M  V30 2121 H 191.749 -6.29051 2.55875 0
M  V30 2122 H 189.695 -6.5517 0.329984 0
M  V30 2123 H 189.612 -7.3225 1.88007 0
M  V30 2124 H 190.88 -7.75658 0.772956 0
M  V30 2125 N 195.109 -0.891671 -1.2995 0
M  V30 2126 C 196.357 -0.512486 -1.95494 0
M  V30 2127 C 196.678 0.942776 -1.70695 0
M  V30 2128 O 195.948 1.66374 -1.03424 0
M  V30 2129 H 194.528 -0.186533 -0.723336 0
M  V30 2130 H 197.19 -1.13621 -1.58355 0
M  V30 2131 H 196.286 -0.688342 -3.04415 0
M  V30 2132 N 196.587 1.43421 -0.653314 0
M  V30 2133 C 197.836 2.01032 -0.164076 0
M  V30 2134 C 198.149 1.52147 1.22926 0
M  V30 2135 O 199.355 2.02031 1.81371 0
M  V30 2136 C 197.811 3.59082 -0.24252 0
M  V30 2137 C 197.419 4.1696 -1.63855 0
M  V30 2138 C 199.163 4.24079 0.18911 0
M  V30 2139 C 197.07 5.67304 -1.67092 0
M  V30 2140 H 196 0.751798 -0.0575769 0
M  V30 2141 H 198.651 1.6439 -0.815362 0
M  V30 2142 H 197.033 3.93125 0.476276 0
M  V30 2143 H 198.207 3.94416 -2.38271 0
M  V30 2144 H 196.522 3.64335 -2.01616 0
M  V30 2145 H 199.119 5.34381 0.184775 0
M  V30 2146 H 199.462 3.98005 1.22056 0
M  V30 2147 H 199.995 3.94918 -0.477938 0
M  V30 2148 H 196.734 5.98145 -2.68146 0
M  V30 2149 H 196.254 5.91904 -0.970014 0
M  V30 2150 H 197.933 6.31344 -1.4147 0
M  V30 2151 N 198.065 0.39524 1.52563 0
M  V30 2152 C 199.314 -0.186321 2.00838 0
M  V30 2153 C 199.627 -1.47402 1.28577 0
M  V30 2154 O 200.833 -2.13599 1.67593 0
M  V30 2155 C 199.289 -0.382595 3.57861 0
M  V30 2156 C 198.897 0.892202 4.39026 0
M  V30 2157 C 200.641 -0.9202 4.14406 0
M  V30 2158 C 198.548 0.66388 5.87662 0
M  V30 2159 H 197.478 -0.0734041 0.750418 0
M  V30 2160 H 200.129 0.518552 1.76021 0
M  V30 2161 H 198.511 -1.14946 3.7895 0
M  V30 2162 H 199.685 1.66414 4.29701 0
M  V30 2163 H 198 1.35519 3.9373 0
M  V30 2164 H 200.597 -1.10683 5.23119 0
M  V30 2165 H 200.94 -1.89096 3.70875 0
M  V30 2166 H 201.473 -0.212751 3.97231 0
M  V30 2167 H 198.212 1.6058 6.35527 0
M  V30 2168 H 197.732 -0.0690193 5.9976 0
M  V30 2169 H 199.411 0.300699 6.46301 0
M  V30 2170 N 199.544 -1.57102 0.125237 0
M  V30 2171 C 200.494 -2.12202 -0.833936 0
M  V30 2172 C 201.478 -1.04433 -1.22403 0
M  V30 2173 O 202.67 -1.30655 -1.19408 0
M  V30 2174 C 199.799 -2.72994 -2.08157 0
M  V30 2175 C 198.885 -3.87852 -1.71556 0
M  V30 2176 N 199.276 -4.9464 -1.05662 0
M  V30 2177 C 197.574 -3.98153 -2.00973 0
M  V30 2178 C 198.275 -5.74953 -0.883376 0
M  V30 2179 N 197.251 -5.24985 -1.41036 0
M  V30 2180 H 201.053 -2.92141 -0.321035 0
M  V30 2181 H 198.567 -1.62217 -0.0770315 0
M  V30 2182 H 200.564 -3.10816 -2.77847 0
M  V30 2183 H 199.224 -1.9452 -2.59985 0
M  V30 2184 H 200.235 -5.12872 -0.719878 0
M  V30 2185 H 196.912 -3.30728 -2.54804 0
M  V30 2186 H 198.302 -6.70904 -0.365675 0
M  V30 2187 N 201.022 0.148545 -1.56898 0
M  V30 2188 C 202.438 0.501131 -1.51528 0
M  V30 2189 C 202.638 1.83458 -0.833399 0
M  V30 2190 O 201.694 2.49259 -0.40328 0
M  V30 2191 C 203.007 0.512864 -2.96294 0
M  V30 2192 C 204.555 0.598487 -3.07225 0
M  V30 2193 C 205.03 0.640897 -4.53494 0
M  V30 2194 N 206.521 0.703163 -4.57832 0
M  V30 2195 C 207.256 0.756935 -5.68382 0
M  V30 2196 N 206.752 0.770147 -6.88506 0
M  V30 2197 N 208.545 0.797698 -5.56411 0
M  V30 2198 H 200.696 -0.725532 -1.99624 0
M  V30 2199 H 202.959 -0.264358 -0.910395 0
M  V30 2200 H 202.665 -0.398691 -3.49433 0
M  V30 2201 H 202.539 1.35133 -3.52163 0
M  V30 2202 H 204.926 1.50046 -2.54106 0
M  V30 2203 H 205.007 -0.267093 -2.54402 0
M  V30 2204 H 204.651 -0.256915 -5.0725 0
M  V30 2205 H 204.581 1.52295 -5.04097 0
M  V30 2206 H 207.072 0.700314 -3.71354 0
M  V30 2207 H 207.385 0.812983 -7.68512 0
M  V30 2208 H 205.73 0.738049 -6.9107 0
M  V30 2209 H 208.921 0.784535 -4.61479 0
M  V30 2210 H 209.094 0.83614 -6.42583 0
M  V30 2211 N 202.5 1.5196 0.417844 0
M  V30 2212 C 203.777 1.56146 1.17803 0
M  V30 2213 C 204.157 0.337275 2.08388 0
M  V30 2214 O 203.505 -0.676447 2.18258 0
M  V30 2215 C 203.715 2.88566 1.96293 0
M  V30 2216 C 205.063 3.41244 2.52662 0
M  V30 2217 O 206.087 2.90247 2.06483 0
M  V30 2218 O 204.946 4.30273 3.36938 0
M  V30 2219 H 202.04 0.628598 0.537395 0
M  V30 2220 H 204.586 1.64283 0.425331 0
M  V30 2221 H 203.358 3.69116 1.2988 0
M  V30 2222 H 202.981 2.83681 2.78587 0
M  V30 2223 N 203.978 -0.674533 1.42435 0
M  V30 2224 C 204.908 -1.80009 1.48724 0
M  V30 2225 C 205.889 -1.6659 0.343793 0
M  V30 2226 O 207.074 -1.86007 0.558137 0
M  V30 2227 C 204.204 -3.18306 1.38919 0
M  V30 2228 C 203.158 -3.46461 2.51294 0
M  V30 2229 C 202.484 -4.84335 2.26547 0
M  V30 2230 C 203.784 -3.43328 3.93603 0
M  V30 2231 H 205.478 -1.75004 2.42928 0
M  V30 2232 H 203.024 -0.840533 1.16923 0
M  V30 2233 H 204.977 -3.9678 1.41927 0
M  V30 2234 H 203.701 -3.2399 0.412094 0
M  V30 2235 H 202.36 -2.70348 2.47604 0
M  V30 2236 H 202.008 -4.86669 1.2713 0
M  V30 2237 H 201.708 -5.04136 3.01861 0
M  V30 2238 H 203.232 -5.65094 2.31304 0
M  V30 2239 H 204.646 -4.11772 3.98894 0
M  V30 2240 H 203.043 -3.74664 4.68771 0
M  V30 2241 H 204.113 -2.41897 4.20255 0
M  V30 2242 N 205.456 -1.28612 -0.910864 0
M  V30 2243 C 206.403 -1.12786 -2.01365 0
M  V30 2244 C 207.373 -0.024201 -1.66082 0
M  V30 2245 O 208.558 -0.189667 -1.89855 0
M  V30 2246 C 205.698 -0.798743 -3.35729 0
M  V30 2247 C 204.811 -1.98173 -3.83864 0
M  V30 2248 C 203.946 -1.59298 -5.06752 0
M  V30 2249 C 202.985 -2.74245 -5.47226 0
M  V30 2250 N 202.122 -2.35842 -6.61304 0
M  V30 2251 H 206.962 -2.07142 -2.14234 0
M  V30 2252 H 204.499 -1.03093 -1.0493 0
M  V30 2253 H 206.457 -0.588662 -4.13026 0
M  V30 2254 H 205.087 0.10789 -3.2262 0
M  V30 2255 H 204.139 -2.30386 -3.02699 0
M  V30 2256 H 205.451 -2.84343 -4.09818 0
M  V30 2257 H 204.605 -1.34513 -5.916 0
M  V30 2258 H 203.344 -0.702618 -4.82612 0
M  V30 2259 H 202.349 -2.99725 -4.60918 0
M  V30 2260 H 203.574 -3.63928 -5.73353 0
M  V30 2261 H 201.52 -1.49279 -6.38789 0
M  V30 2262 H 201.437 -3.15546 -6.86998 0
M  V30 2263 H 202.705 -2.14348 -7.4945 0
M  V30 2264 N 206.934 1.1197 -1.10907 0
M  V30 2265 C 208.345 1.65114 -0.871446 0
M  V30 2266 C 208.696 1.86885 0.597353 0
M  V30 2267 O 207.821 1.59896 1.45816 0
M  V30 2268 C 208.416 2.99944 -1.5754 0
M  V30 2269 C 206.975 3.50018 -1.38435 0
M  V30 2270 C 206.122 2.24941 -1.62164 0
M  V30 2271 H 209.073 0.956851 -1.2661 0
M  V30 2272 H 209.094 3.66651 -1.01721 0
M  V30 2273 H 208.606 2.84067 -2.64438 0
M  V30 2274 H 206.707 3.71071 -0.337214 0
M  V30 2275 H 206.82 4.29165 -2.12965 0
M  V30 2276 H 205.184 2.3229 -1.04467 0
M  V30 2277 H 205.967 2.11612 -2.70324 0
M  V30 2278 N 208.412 0.89855 1.29475 0
M  V30 2279 C 209.344 0.332726 2.26772 0
M  V30 2280 C 210.357 -0.520323 1.54261 0
M  V30 2281 O 211.546 -0.337668 1.75277 0
M  V30 2282 C 208.646 -0.544334 3.345 0
M  V30 2283 C 207.819 0.282728 4.36485 0
M  V30 2284 C 206.878 -0.526982 5.23555 0
M  V30 2285 O 205.904 0.0551165 5.69173 0
M  V30 2286 N 207.106 -1.83331 5.5079 0
M  V30 2287 H 209.871 1.16897 2.75962 0
M  V30 2288 H 207.432 0.762919 1.42798 0
M  V30 2289 H 209.424 -1.09239 3.89678 0
M  V30 2290 H 207.994 -1.28127 2.85136 0
M  V30 2291 H 207.214 1.01221 3.80983 0
M  V30 2292 H 208.502 0.84918 5.01664 0
M  V30 2293 H 207.9 -2.32898 5.15534 0
M  V30 2294 H 206.457 -2.32852 6.08788 0
M  V30 2295 N 209.89 -1.43072 0.660911 0
M  V30 2296 C 210.838 -2.32569 -0.0378199 0
M  V30 2297 C 211.832 -1.49046 -0.805092 0
M  V30 2298 O 213.038 -1.65206 -0.714624 0
M  V30 2299 H 209.413 -0.75136 -0.031019 0
M  V30 2300 H 211.384 -2.89216 0.734609 0
M  V30 2301 C 210.133 -3.33453 -0.985124 0
M  V30 2302 H 209.456 -3.97752 -0.404147 0
M  V30 2303 H 210.896 -3.98691 -1.44297 0
M  V30 2304 C 209.355 -2.64642 -2.08486 0
M  V30 2305 O 209.885 -2.46776 -3.16961 0
M  V30 2306 N 208.091 -2.23891 -1.8526 0
M  V30 2307 H 207.638 -2.38621 -0.970449 0
M  V30 2308 H 207.596 -1.78181 -2.59034 0
M  V30 2309 N 211.368 -0.403325 -1.52352 0
M  V30 2310 C 212.617 0.175668 -2.00934 0
M  V30 2311 C 212.93 1.46718 -1.29356 0
M  V30 2312 O 214.136 2.12708 -1.68724 0
M  V30 2313 C 212.592 0.363612 -3.58058 0
M  V30 2314 C 212.2 -0.915472 -4.38547 0
M  V30 2315 C 213.944 0.89821 -4.14888 0
M  V30 2316 C 211.851 -0.695035 -5.87302 0
M  V30 2317 H 210.781 0.0694234 -0.750797 0
M  V30 2318 H 213.432 -0.527879 -1.75743 0
M  V30 2319 H 211.814 1.12935 -3.79555 0
M  V30 2320 H 212.988 -1.68691 -4.28812 0
M  V30 2321 H 211.303 -1.37606 -3.93006 0
M  V30 2322 H 213.9 1.07907 -5.23699 0
M  V30 2323 H 214.243 1.87126 -3.71873 0
M  V30 2324 H 214.776 0.191681 -3.97338 0
M  V30 2325 H 211.515 -1.63948 -6.34666 0
M  V30 2326 H 211.035 0.0372116 -5.99788 0
M  V30 2327 H 212.714 -0.33497 -6.46132 0
M  V30 2328 N 212.846 1.57033 -0.133567 0
M  V30 2329 C 213.776 2.1909 0.807567 0
M  V30 2330 C 214.757 1.13517 1.26681 0
M  V30 2331 O 215.942 1.41809 1.32679 0
M  V30 2332 C 213.072 2.80188 2.05212 0
M  V30 2333 C 212.026 3.91471 1.73015 0
M  V30 2334 C 211.352 4.39443 3.04622 0
M  V30 2335 C 212.652 5.12886 0.987168 0
M  V30 2336 H 214.346 2.97988 0.290403 0
M  V30 2337 H 211.892 1.43335 0.138239 0
M  V30 2338 H 213.845 3.22264 2.71521 0
M  V30 2339 H 212.569 1.98601 2.59278 0
M  V30 2340 H 211.228 3.49993 1.0909 0
M  V30 2341 H 210.876 3.54695 3.56651 0
M  V30 2342 H 210.576 5.14495 2.83847 0
M  V30 2343 H 212.1 4.8418 3.72024 0
M  V30 2344 H 213.514 5.51891 1.55208 0
M  V30 2345 H 211.911 5.93615 0.87985 0
M  V30 2346 H 212.981 4.84894 -0.0235286 0
M  V30 2347 N 214.325 -0.140222 1.56975 0
M  V30 2348 C 215.255 -1.17456 2.01808 0
M  V30 2349 C 216.236 -1.44415 0.898794 0
M  V30 2350 O 217.421 -1.5522 1.16707 0
M  V30 2351 C 214.551 -2.50607 2.40444 0
M  V30 2352 C 213.505 -2.38155 3.55621 0
M  V30 2353 C 212.831 -3.76078 3.80091 0
M  V30 2354 C 214.131 -1.85991 4.88062 0
M  V30 2355 H 215.825 -0.801743 2.88466 0
M  V30 2356 H 213.371 -0.38422 1.38779 0
M  V30 2357 H 215.324 -3.23197 2.7041 0
M  V30 2358 H 214.048 -2.89737 1.50732 0
M  V30 2359 H 212.707 -1.68016 3.25832 0
M  V30 2360 H 212.355 -4.12656 2.87618 0
M  V30 2361 H 212.055 -3.68606 4.57606 0
M  V30 2362 H 213.579 -4.50206 4.12488 0
M  V30 2363 H 214.993 -2.4838 5.16701 0
M  V30 2364 H 213.39 -1.89393 5.6943 0
M  V30 2365 H 214.46 -0.816023 4.77984 0
M  V30 2366 N 215.803 -1.52179 -0.40978 0
M  V30 2367 C 217.028 -1.70347 -1.18308 0
M  V30 2368 C 217.453 -0.411887 -1.83535 0
M  V30 2369 O 216.811 0.630587 -1.6998 0
M  V30 2370 C 216.859 -2.83977 -2.22238 0
M  V30 2371 O 215.963 -2.495 -3.28365 0
M  V30 2372 H 215.304 -0.567103 -0.345384 0
M  V30 2373 H 217.834 -1.98879 -0.480445 0
M  V30 2374 H 217.844 -3.0887 -2.66577 0
M  V30 2375 H 216.519 -3.77685 -1.74146 0
M  V30 2376 H 215.096 -2.35277 -2.89308 0
M  V30 2377 N 217.281 0.66697 -1.42791 0
M  V30 2378 C 218.229 1.80157 -1.47127 0
M  V30 2379 C 219.223 1.65825 -0.346199 0
M  V30 2380 O 220.429 1.72338 -0.519572 0
M  V30 2381 H 216.804 0.594158 -0.460956 0
M  V30 2382 H 218.775 1.73619 -2.42692 0
M  V30 2383 C 217.524 3.18351 -1.39813 0
M  V30 2384 H 216.847 3.3001 -2.25684 0
M  V30 2385 H 218.287 3.97736 -1.46908 0
M  V30 2386 C 216.746 3.36707 -0.11391 0
M  V30 2387 O 217.276 3.93027 0.830241 0
M  V30 2388 N 215.482 2.90586 -0.0285295 0
M  V30 2389 H 215.029 2.4494 -0.79764 0
M  V30 2390 H 214.987 3.03245 0.830063 0
M  V30 2391 N 218.759 1.29093 0.90403 0
M  V30 2392 C 220.17 1.15186 1.46932 0
M  V30 2393 C 220.521 -0.254587 1.94541 0
M  V30 2394 O 219.646 -1.14972 1.83332 0
M  V30 2395 C 220.241 2.08492 2.67051 0
M  V30 2396 C 218.8 1.98621 3.19729 0
M  V30 2397 C 217.947 1.9967 1.92425 0
M  V30 2398 H 220.898 1.41641 0.715789 0
M  V30 2399 H 220.919 1.65461 3.42641 0
M  V30 2400 H 220.431 3.10847 2.3237 0
M  V30 2401 H 218.532 0.993389 3.59114 0
M  V30 2402 H 218.645 2.86068 3.8432 0
M  V30 2403 H 217.009 1.44208 2.09943 0
M  V30 2404 H 217.792 3.03721 1.60026 0
M  V30 2405 N 220.237 -1.11381 1.11499 0
M  V30 2406 C 221.2 -2.15622 0.777153 0
M  V30 2407 C 222.2 -1.59504 -0.203779 0
M  V30 2408 O 223.39 -1.74188 0.020782 0
M  V30 2409 C 220.522 -3.40556 0.153116 0
M  V30 2410 H 221.715 -2.47021 1.70061 0
M  V30 2411 H 219.268 -1.26577 0.916952 0
M  V30 2412 H 220.003 -3.14767 -0.780536 0
M  V30 2413 H 219.788 -3.8257 0.859238 0
M  V30 2414 H 221.278 -4.17546 -0.0671044 0
M  V30 2415 N 221.715 -0.905404 -1.28997 0
M  V30 2416 C 222.963 -0.533192 -1.9494 0
M  V30 2417 C 223.284 0.924618 -1.71685 0
M  V30 2418 O 222.554 1.65268 -1.05183 0
M  V30 2419 H 221.134 -0.194194 -0.721317 0
M  V30 2420 H 223.796 -1.15294 -1.57141 0
M  V30 2421 H 222.892 -0.72059 -3.03667 0
M  V30 2422 N 223.193 1.4272 -0.668489 0
M  V30 2423 C 224.609 1.55992 -0.33745 0
M  V30 2424 C 224.809 1.64933 1.15756 0
M  V30 2425 O 223.865 1.61278 1.94282 0
M  V30 2426 C 225.178 2.81314 -1.06222 0
M  V30 2427 C 226.726 2.95078 -1.04394 0
M  V30 2428 C 227.201 4.23252 -1.74991 0
M  V30 2429 N 228.692 4.3015 -1.71829 0
M  V30 2430 C 229.427 5.28127 -2.23315 0
M  V30 2431 N 228.923 6.32293 -2.83156 0
M  V30 2432 N 230.716 5.19882 -2.13726 0
M  V30 2433 H 222.867 1.3516 -1.63846 0
M  V30 2434 H 225.13 0.650174 -0.689912 0
M  V30 2435 H 224.836 2.80823 -2.11734 0
M  V30 2436 H 224.71 3.72012 -0.62344 0
M  V30 2437 H 227.097 2.951 0.0028244 0
M  V30 2438 H 227.178 2.05627 -1.52155 0
M  V30 2439 H 226.822 4.2399 -2.79633 0
M  V30 2440 H 226.752 5.11626 -1.24685 0
M  V30 2441 H 229.243 3.55499 -1.28175 0
M  V30 2442 H 229.556 7.03398 -3.20079 0
M  V30 2443 H 227.901 6.32873 -2.87223 0
M  V30 2444 H 231.092 4.37423 -1.66669 0
M  V30 2445 H 231.265 5.96077 -2.54158 0
M  V30 2446 N 224.671 0.411399 1.52136 0
M  V30 2447 C 226.087 0.0623865 1.59478 0
M  V30 2448 C 226.287 -1.42554 1.4241 0
M  V30 2449 O 225.343 -2.19263 1.2522 0
M  V30 2450 C 226.656 0.559331 2.95452 0
M  V30 2451 C 228.204 0.517503 3.08692 0
M  V30 2452 C 228.679 0.990994 4.4715 0
M  V30 2453 N 230.17 0.947908 4.53397 0
M  V30 2454 C 230.905 1.28544 5.58806 0
M  V30 2455 N 230.401 1.69454 6.71757 0
M  V30 2456 N 232.194 1.20526 5.49026 0
M  V30 2457 H 224.345 1.37982 1.61477 0
M  V30 2458 H 226.608 0.566977 0.759764 0
M  V30 2459 H 226.314 1.59938 3.1323 0
M  V30 2460 H 226.188 -0.0298014 3.77188 0
M  V30 2461 H 228.575 -0.513505 2.90598 0
M  V30 2462 H 228.656 1.14272 2.28857 0
M  V30 2463 H 228.3 2.02034 4.65988 0
M  V30 2464 H 228.23 0.34257 5.25485 0
M  V30 2465 H 230.721 0.647157 3.72317 0
M  V30 2466 H 231.034 1.93513 7.48179 0
M  V30 2467 H 229.379 1.73359 6.73032 0
M  V30 2468 H 232.57 0.884505 4.59667 0
M  V30 2469 H 232.743 1.47161 6.31069 0
M  V30 2470 N 226.149 -1.5696 0.141893 0
M  V30 2471 C 227.112 -2.15316 -0.785587 0
M  V30 2472 C 228.112 -1.09366 -1.1788 0
M  V30 2473 O 229.302 -1.35031 -1.10056 0
M  V30 2474 C 226.434 -2.71211 -2.06537 0
M  V30 2475 H 227.627 -2.98608 -0.278041 0
M  V30 2476 H 225.18 -1.5593 -0.107519 0
M  V30 2477 H 225.915 -1.91571 -2.6167 0
M  V30 2478 H 225.7 -3.4872 -1.79268 0
M  V30 2479 H 227.19 -3.16189 -2.72789 0
M  V30 2480 N 227.627 0.131896 -1.57047 0
M  V30 2481 C 228.575 1.18146 -2.0036 0
M  V30 2482 C 229.569 1.43614 -0.898406 0
M  V30 2483 O 230.775 1.43729 -1.08361 0
M  V30 2484 H 227.15 0.398042 -0.638018 0
M  V30 2485 H 229.121 0.789564 -2.87765 0
M  V30 2486 C 227.87 2.50341 -2.41298 0
M  V30 2487 H 227.193 2.31578 -3.25902 0
M  V30 2488 H 228.633 3.22371 -2.75414 0
M  V30 2489 C 227.092 3.11984 -1.27153 0
M  V30 2490 O 227.622 3.97484 -0.580459 0
M  V30 2491 N 225.828 2.71662 -1.03189 0
M  V30 2492 H 225.375 2.02231 -1.59564 0
M  V30 2493 H 225.333 3.13238 -0.270077 0
M  V30 2494 N 229.106 1.52395 0.401703 0
M  V30 2495 C 230.517 1.58899 0.980202 0
M  V30 2496 C 230.868 0.434032 1.91339 0
M  V30 2497 O 229.993 -0.444619 2.11783 0
M  V30 2498 C 230.588 2.87994 1.78451 0
M  V30 2499 C 229.147 2.96953 2.31292 0
M  V30 2500 C 228.294 2.53903 1.11483 0
M  V30 2501 H 231.245 1.57657 0.18168 0
M  V30 2502 H 231.266 2.73765 2.64259 0
M  V30 2503 H 230.778 3.72035 1.10506 0
M  V30 2504 H 228.879 2.17422 3.02586 0
M  V30 2505 H 228.992 4.01344 2.61649 0
M  V30 2506 H 227.356 2.07925 1.47104 0
M  V30 2507 H 228.139 3.40326 0.450928 0
M  V30 2508 N 230.584 -0.659388 1.43143 0
M  V30 2509 C 231.532 -1.79374 1.4808 0
M  V30 2510 C 232.526 -1.65639 0.354988 0
M  V30 2511 O 233.732 -1.7206 0.528704 0
M  V30 2512 H 230.107 -0.591705 0.4641 0
M  V30 2513 H 232.078 -1.72329 2.43609 0
M  V30 2514 C 230.827 -3.17606 1.41499 0
M  V30 2515 H 230.15 -3.28809 2.27431 0
M  V30 2516 H 231.59 -3.96951 1.49015 0
M  V30 2517 C 230.049 -3.36642 0.131765 0
M  V30 2518 O 230.579 -3.93461 -0.809386 0
M  V30 2519 N 228.785 -2.90567 0.0439396 0
M  V30 2520 H 228.332 -2.44513 0.810619 0
M  V30 2521 H 228.29 -3.03681 -0.813969 0
M  V30 2522 N 232.062 -1.29571 -0.897171 0
M  V30 2523 C 233.287 -1.20705 -1.68656 0
M  V30 2524 C 233.712 0.228582 -1.86706 0
M  V30 2525 O 233.07 1.16494 -1.3892 0
M  V30 2526 C 233.118 -1.9282 -3.04717 0
M  V30 2527 O 232.222 -1.24697 -3.93096 0
M  V30 2528 H 231.563 -0.418126 -0.515816 0
M  V30 2529 H 234.093 -1.71183 -1.12061 0
M  V30 2530 H 234.103 -2.01372 -3.54843 0
M  V30 2531 H 232.778 -2.97239 -2.90899 0
M  V30 2532 H 231.355 -1.2442 -3.51531 0
M  V30 2533 N 233.54 1.10788 -1.12088 0
M  V30 2534 C 234.789 1.82036 -0.868659 0
M  V30 2535 C 235.102 1.85929 0.607426 0
M  V30 2536 O 236.308 2.53346 0.97613 0
M  V30 2537 C 234.764 3.26951 -1.50435 0
M  V30 2538 C 234.372 3.31367 -3.01496 0
M  V30 2539 C 236.116 4.03053 -1.33225 0
M  V30 2540 C 234.023 4.7072 -3.58017 0
M  V30 2541 H 232.953 0.682108 -0.321318 0
M  V30 2542 H 235.604 1.24618 -1.34694 0
M  V30 2543 H 233.986 3.84343 -0.953735 0
M  V30 2544 H 235.16 2.83819 -3.6302 0
M  V30 2545 H 233.475 2.6875 -3.18061 0
M  V30 2546 H 236.072 5.05981 -1.72878 0
M  V30 2547 H 236.415 4.15387 -0.275529 0
M  V30 2548 H 236.948 3.52066 -1.85188 0
M  V30 2549 H 233.687 4.63585 -4.63432 0
M  V30 2550 H 233.207 5.1865 -3.01268 0
M  V30 2551 H 234.886 5.39685 -3.56859 0
M  V30 2552 N 235.018 0.912232 1.28515 0
M  V30 2553 C 236.434 0.610159 1.47476 0
M  V30 2554 C 236.634 -0.844955 1.82928 0
M  V30 2555 O 235.69 -1.62416 1.93332 0
M  V30 2556 C 237.003 1.54675 2.57868 0
M  V30 2557 C 238.551 1.55331 2.71738 0
M  V30 2558 C 239.026 2.47649 3.85272 0
M  V30 2559 N 240.517 2.45767 3.92623 0
M  V30 2560 C 241.252 3.13896 4.79851 0
M  V30 2561 N 240.748 3.9135 5.71679 0
M  V30 2562 N 242.541 3.02991 4.73448 0
M  V30 2563 H 234.692 1.85318 1.03783 0
M  V30 2564 H 236.955 0.794777 0.516753 0
M  V30 2565 H 236.661 2.5841 2.38574 0
M  V30 2566 H 236.535 1.27671 3.54937 0
M  V30 2567 H 238.922 0.52335 2.90422 0
M  V30 2568 H 239.003 1.86378 1.75205 0
M  V30 2569 H 238.647 3.50745 3.67342 0
M  V30 2570 H 238.577 2.13904 4.81199 0
M  V30 2571 H 241.068 1.89503 3.26951 0
M  V30 2572 H 241.381 4.40359 6.35062 0
M  V30 2573 H 239.726 3.95455 5.71524 0
M  V30 2574 H 242.917 2.41987 4.007 0
M  V30 2575 H 243.09 3.5636 5.41213 0
M  V30 2576 N 236.496 -1.42363 0.676048 0
M  V30 2577 C 237.742 -2.0182 0.199125 0
M  V30 2578 C 238.075 -1.53339 -1.19168 0
M  V30 2579 O 237.35 -0.736124 -1.80032 0
M  V30 2580 C 237.633 -3.59331 0.235144 0
M  V30 2581 C 237.486 -4.17989 1.66149 0
M  V30 2582 C 238.805 -4.3813 -0.41595 0
M  V30 2583 H 235.924 -0.733293 0.0738311 0
M  V30 2584 H 238.566 -1.69368 0.86107 0
M  V30 2585 H 236.716 -3.87109 -0.328487 0
M  V30 2586 H 238.388 -4.0116 2.27747 0
M  V30 2587 H 236.631 -3.7377 2.20178 0
M  V30 2588 H 237.302 -5.27126 1.63837 0
M  V30 2589 H 239.778 -4.16051 0.0638529 0
M  V30 2590 H 238.654 -5.47717 -0.360115 0
M  V30 2591 H 238.915 -4.16101 -1.49373 0
M  V30 2592 N 237.974 -0.419461 -1.51915 0
M  V30 2593 C 238.921 0.400927 -2.27291 0
M  V30 2594 C 239.891 1.03224 -1.30131 0
M  V30 2595 O 241.076 1.05455 -1.59009 0
M  V30 2596 C 238.216 1.50603 -3.10504 0
M  V30 2597 C 237.329 0.89462 -4.22635 0
M  V30 2598 C 236.464 1.97328 -4.93189 0
M  V30 2599 C 235.503 1.33935 -5.97267 0
M  V30 2600 N 234.64 2.3586 -6.61298 0
M  V30 2601 H 239.48 -0.248251 -2.96964 0
M  V30 2602 H 237.017 -0.134266 -1.46486 0
M  V30 2603 H 238.975 2.15783 -3.57062 0
M  V30 2604 H 237.605 2.12509 -2.42981 0
M  V30 2605 H 236.657 0.131583 -3.80172 0
M  V30 2606 H 237.969 0.391641 -4.9726 0
M  V30 2607 H 237.123 2.70211 -5.43204 0
M  V30 2608 H 235.862 2.50994 -4.18155 0
M  V30 2609 H 234.867 0.595896 -5.46561 0
M  V30 2610 H 236.092 0.810252 -6.74249 0
M  V30 2611 H 234.038 2.88639 -5.89087 0
M  V30 2612 H 233.955 1.90403 -7.3163 0
M  V30 2613 H 235.223 3.08282 -7.15949 0
M  V30 2614 N 239.452 1.56882 -0.150215 0
M  V30 2615 C 240.701 1.95403 0.500071 0
M  V30 2616 C 241.014 1.03777 1.658 0
M  V30 2617 O 242.22 1.31889 2.37313 0
M  V30 2618 C 240.676 3.4738 0.941018 0
M  V30 2619 C 240.284 4.47596 -0.190158 0
M  V30 2620 C 242.028 3.9476 1.56091 0
M  V30 2621 C 239.935 5.90787 0.269237 0
M  V30 2622 H 238.865 0.729515 0.190588 0
M  V30 2623 H 241.516 1.81988 -0.235074 0
M  V30 2624 H 239.898 3.56138 1.73152 0
M  V30 2625 H 241.072 4.50536 -0.967157 0
M  V30 2626 H 239.387 4.10151 -0.718666 0
M  V30 2627 H 241.984 4.99181 1.9163 0
M  V30 2628 H 242.327 3.36494 2.45107 0
M  V30 2629 H 242.86 3.88932 0.835249 0
M  V30 2630 H 239.599 6.52879 -0.585621 0
M  V30 2631 H 239.119 5.912 1.01204 0
M  V30 2632 H 240.798 6.42979 0.720176 0
M  V30 2633 N 240.93 -0.123565 1.57115 0
M  V30 2634 C 241.893 -1.13583 1.99076 0
M  V30 2635 C 242.893 -1.34564 0.880296 0
M  V30 2636 O 244.083 -1.31158 1.14644 0
M  V30 2637 C 241.215 -2.49128 2.32698 0
M  V30 2638 H 242.408 -0.775287 2.89706 0
M  V30 2639 H 239.961 -0.36771 1.51913 0
M  V30 2640 H 240.696 -2.90111 1.44934 0
M  V30 2641 H 240.481 -2.35255 3.13684 0
M  V30 2642 H 241.971 -3.2199 2.65918 0
M  V30 2643 N 242.408 -1.52605 -0.393616 0
M  V30 2644 C 243.685 -1.58001 -1.15304 0
M  V30 2645 C 244.065 -0.370385 -2.07825 0
M  V30 2646 O 243.413 0.641638 -2.19306 0
M  V30 2647 C 243.623 -2.91652 -1.91677 0
M  V30 2648 C 244.971 -3.4522 -2.47201 0
M  V30 2649 O 245.995 -2.93495 -2.01839 0
M  V30 2650 O 244.854 -4.35579 -3.3005 0
M  V30 2651 H 241.948 -0.637068 -0.527327 0
M  V30 2652 H 244.494 -1.64939 -0.399141 0
M  V30 2653 H 243.266 -3.71136 -1.23992 0
M  V30 2654 H 242.889 -2.88077 -2.74039 0
M  V30 2655 N 243.887 0.651787 -1.4349 0
M  V30 2656 C 245.134 1.41167 -1.45183 0
M  V30 2657 C 245.462 1.94349 -0.0766601 0
M  V30 2658 O 244.717 1.72804 0.918555 0
M  V30 2659 C 245.016 2.60914 -2.44251 0
M  V30 2660 C 244.682 2.26142 -3.9009 0
M  V30 2661 C 243.344 2.16371 -4.2981 0
M  V30 2662 C 245.696 1.98334 -4.81989 0
M  V30 2663 C 243.024 1.7695 -5.5938 0
M  V30 2664 C 245.376 1.6041 -6.11924 0
M  V30 2665 C 244.04 1.49166 -6.5062 0
M  V30 2666 H 243.31 0.516566 -0.531263 0
M  V30 2667 H 245.957 0.741099 -1.76579 0
M  V30 2668 H 244.262 3.3311 -2.06265 0
M  V30 2669 H 245.959 3.19127 -2.42815 0
M  V30 2670 H 242.549 2.34658 -3.58655 0
M  V30 2671 H 246.733 2.04803 -4.52072 0
M  V30 2672 H 241.989 1.66831 -5.88198 0
M  V30 2673 H 246.163 1.37925 -6.82605 0
M  V30 2674 H 243.79 1.1839 -7.50925 0
M  V30 2675 N 245.365 1.30045 0.890287 0
M  V30 2676 C 246.613 1.18327 1.63839 0
M  V30 2677 C 246.934 -0.263455 1.93212 0
M  V30 2678 O 246.204 -1.17856 1.56482 0
M  V30 2679 H 244.784 0.434933 0.607324 0
M  V30 2680 H 247.446 1.631 1.06698 0
M  V30 2681 H 246.542 1.74024 2.59079 0
M  V30 2682 N 246.843 -1.10192 1.12674 0
M  V30 2683 C 248.09 -1.82205 0.883606 0
M  V30 2684 C 248.418 -1.8532 -0.590492 0
M  V30 2685 O 247.673 -1.31137 -1.45264 0
M  V30 2686 C 247.972 -3.28552 1.4067 0
M  V30 2687 C 247.638 -3.45582 2.89627 0
M  V30 2688 C 246.3 -3.49937 3.30299 0
M  V30 2689 C 248.652 -3.50768 3.85501 0
M  V30 2690 C 245.98 -3.57049 4.65546 0
M  V30 2691 C 248.332 -3.59414 5.20581 0
M  V30 2692 C 246.996 -3.62034 5.60792 0
M  V30 2693 H 246.266 -0.666735 0.323334 0
M  V30 2694 H 248.913 -1.29868 1.40736 0
M  V30 2695 H 247.218 -3.83473 0.80347 0
M  V30 2696 H 248.915 -3.82788 1.19475 0
M  V30 2697 H 245.505 -3.42871 2.57172 0
M  V30 2698 H 249.689 -3.46651 3.55171 0
M  V30 2699 H 244.945 -3.57361 4.96088 0
M  V30 2700 H 249.119 -3.62371 5.94693 0
M  V30 2701 H 246.746 -3.67298 6.6558 0
M  V30 2702 N 248.321 -0.919034 -1.28029 0
M  V30 2703 C 249.284 -0.416182 -2.2539 0
M  V30 2704 C 250.284 0.460438 -1.54067 0
M  V30 2705 O 251.474 0.262744 -1.72207 0
M  V30 2706 C 248.606 0.402707 -3.38513 0
M  V30 2707 H 249.799 -1.27629 -2.71387 0
M  V30 2708 H 247.352 -0.698919 -1.39803 0
M  V30 2709 H 248.087 1.282 -2.97885 0
M  V30 2710 H 247.872 -0.225698 -3.9145 0
M  V30 2711 H 249.362 0.745191 -4.10897 0
M  V30 2712 N 249.799 1.42003 -0.683588 0
M  V30 2713 C 251.215 1.55625 -0.353976 0
M  V30 2714 C 251.415 1.66151 1.14 0
M  V30 2715 O 250.471 1.63329 1.92561 0
M  V30 2716 C 251.784 2.80171 -1.092 0
M  V30 2717 C 253.332 2.93954 -1.07518 0
M  V30 2718 C 253.807 4.21372 -1.79471 0
M  V30 2719 N 255.298 4.28303 -1.76381 0
M  V30 2720 C 256.033 5.25729 -2.28904 0
M  V30 2721 N 255.529 6.29254 -2.89846 0
M  V30 2722 N 257.322 5.17586 -2.19228 0
M  V30 2723 H 249.473 1.33415 -1.6527 0
M  V30 2724 H 251.736 0.64282 -0.696769 0
M  V30 2725 H 251.442 2.78561 -2.14701 0
M  V30 2726 H 251.316 3.7133 -0.662862 0
M  V30 2727 H 253.703 2.95086 -0.028475 0
M  V30 2728 H 253.784 2.04002 -1.54328 0
M  V30 2729 H 253.428 4.21001 -2.84114 0
M  V30 2730 H 253.358 5.10275 -1.30104 0
M  V30 2731 H 255.849 3.54119 -1.31939 0
M  V30 2732 H 256.162 6.99964 -3.27522 0
M  V30 2733 H 254.507 6.29791 -2.93919 0
M  V30 2734 H 257.698 4.35631 -1.71299 0
M  V30 2735 H 257.871 5.93348 -2.60466 0
M  V30 2736 N 251.277 0.427512 1.51691 0
M  V30 2737 C 252.507 -0.140986 2.06118 0
M  V30 2738 C 252.915 -1.37854 1.29588 0
M  V30 2739 O 252.258 -1.80411 0.346036 0
M  V30 2740 C 252.32 -0.538276 3.55447 0
M  V30 2741 C 251.984 0.591095 4.53161 0
M  V30 2742 C 252.981 1.46027 4.98971 0
M  V30 2743 C 250.666 0.769028 4.96378 0
M  V30 2744 C 252.66 2.49216 5.8666 0
M  V30 2745 C 250.347 1.80421 5.83859 0
M  V30 2746 C 251.345 2.66417 6.28897 0
M  V30 2747 O 251.033 3.68159 7.14643 0
M  V30 2748 H 250.765 -0.0157455 0.675817 0
M  V30 2749 H 253.319 0.602495 1.96365 0
M  V30 2750 H 251.549 -1.33432 3.6295 0
M  V30 2751 H 253.238 -1.0368 3.92435 0
M  V30 2752 H 254.004 1.33429 4.66285 0
M  V30 2753 H 249.883 0.109273 4.6087 0
M  V30 2754 H 253.427 3.16372 6.21735 0
M  V30 2755 H 249.324 1.93042 6.15959 0
M  V30 2756 H 250.092 3.64622 7.32798 0
M  V30 2757 N 252.755 -1.56801 0.158532 0
M  V30 2758 C 253.685 -2.20347 -0.772609 0
M  V30 2759 C 254.666 -1.15518 -1.24859 0
M  V30 2760 O 255.851 -1.43902 -1.30406 0
M  V30 2761 C 252.981 -2.83417 -2.00729 0
M  V30 2762 C 251.935 -3.94174 -1.66765 0
M  V30 2763 C 251.261 -4.44233 -2.97592 0
M  V30 2764 C 252.561 -5.14392 -0.905447 0
M  V30 2765 H 254.255 -2.98413 -0.242959 0
M  V30 2766 H 251.801 -1.43537 -0.115419 0
M  V30 2767 H 253.754 -3.26543 -2.6636 0
M  V30 2768 H 252.478 -2.02701 -2.56086 0
M  V30 2769 H 251.137 -3.51684 -1.03508 0
M  V30 2770 H 250.785 -3.60325 -3.50963 0
M  V30 2771 H 250.485 -5.18945 -2.75626 0
M  V30 2772 H 252.009 -4.90037 -3.64274 0
M  V30 2773 H 253.423 -5.5429 -1.46408 0
M  V30 2774 H 251.82 -5.9494 -0.7853 0
M  V30 2775 H 252.89 -4.84795 0.100668 0
M  V30 2776 N 254.233 0.115231 -1.57178 0
M  V30 2777 C 255.165 1.16694 -1.97269 0
M  V30 2778 C 256.178 1.37445 -0.872502 0
M  V30 2779 O 257.367 1.36454 -1.15077 0
M  V30 2780 C 254.467 2.52627 -2.25905 0
M  V30 2781 C 253.64 2.52427 -3.57211 0
M  V30 2782 C 252.699 3.70134 -3.74016 0
M  V30 2783 O 251.725 3.53546 -4.46087 0
M  V30 2784 N 252.927 4.88844 -3.13068 0
M  V30 2785 H 255.692 0.82588 -2.88096 0
M  V30 2786 H 253.253 0.304461 -1.59011 0
M  V30 2787 H 255.245 3.29937 -2.34359 0
M  V30 2788 H 253.815 2.789 -1.41186 0
M  V30 2789 H 253.035 1.60805 -3.5991 0
M  V30 2790 H 254.323 2.49353 -4.43509 0
M  V30 2791 H 253.721 5.05225 -2.54489 0
M  V30 2792 H 252.278 5.63817 -3.27037 0
M  V30 2793 N 255.711 1.52812 0.385517 0
M  V30 2794 C 256.936 1.72207 1.15583 0
M  V30 2795 C 257.361 0.441034 1.82857 0
M  V30 2796 O 256.719 -0.603465 1.70962 0
M  V30 2797 C 256.767 2.87476 2.17692 0
M  V30 2798 O 255.871 2.54693 3.24354 0
M  V30 2799 H 255.212 0.572526 0.336319 0
M  V30 2800 H 257.742 1.99618 0.448744 0
M  V30 2801 H 257.752 3.13072 2.6163 0
M  V30 2802 H 256.427 3.80408 1.68115 0
M  V30 2803 H 255.004 2.3985 2.85529 0
M  V30 2804 N 257.189 -0.644168 1.43834 0
M  V30 2805 C 258.137 -1.77793 1.49974 0
M  V30 2806 C 259.131 -1.65253 0.372536 0
M  V30 2807 O 260.337 -1.7149 0.546924 0
M  V30 2808 H 256.712 -0.58675 0.47035 0
M  V30 2809 H 258.683 -1.69736 2.45423 0
M  V30 2810 C 257.432 -3.16087 1.4486 0
M  V30 2811 H 256.755 -3.26378 2.30905 0
M  V30 2812 H 258.195 -3.95349 1.53217 0
M  V30 2813 C 256.654 -3.36484 0.167463 0
M  V30 2814 O 257.184 -3.94298 -0.767609 0
M  V30 2815 N 255.39 -2.90504 0.0747556 0
M  V30 2816 H 254.937 -2.4364 0.836507 0
M  V30 2817 H 254.895 -3.04527 -0.781714 0
M  V30 2818 N 258.668 -1.30515 -0.883378 0
M  V30 2819 C 259.601 -1.11359 -1.99184 0
M  V30 2820 C 260.579 -0.0207858 -1.62587 0
M  V30 2821 O 261.763 -0.174646 -1.87689 0
M  V30 2822 C 258.89 -0.69871 -3.31415 0
M  V30 2823 C 257.936 -1.79261 -3.86998 0
M  V30 2824 S 258.769 -3.39536 -4.14096 0
M  V30 2825 C 259.925 -2.99954 -5.49344 0
M  V30 2826 H 260.158 -2.052 -2.15128 0
M  V30 2827 H 257.691 -1.14847 -1.03196 0
M  V30 2828 H 259.649 -0.466075 -4.07846 0
M  V30 2829 H 258.31 0.220368 -3.13326 0
M  V30 2830 H 257.503 -1.45464 -4.82552 0
M  V30 2831 H 257.105 -1.97961 -3.17313 0
M  V30 2832 H 259.397 -2.48013 -6.30473 0
M  V30 2833 H 260.34 -3.9442 -5.8808 0
M  V30 2834 H 260.748 -2.37775 -5.1198 0
M  V30 2835 N 260.146 1.09593 -1.13257 0
M  V30 2836 C 261.079 2.15451 -0.752061 0
M  V30 2837 C 262.057 1.60493 0.260913 0
M  V30 2838 O 263.241 1.8788 0.152819 0
M  V30 2839 C 260.368 3.38506 -0.114594 0
M  V30 2840 C 259.414 4.12183 -1.09579 0
M  V30 2841 S 260.247 4.6661 -2.62745 0
M  V30 2842 C 261.403 5.92966 -2.00354 0
M  V30 2843 H 261.636 2.47395 -1.64872 0
M  V30 2844 H 259.169 1.21515 -0.952545 0
M  V30 2845 H 261.127 4.09757 0.246808 0
M  V30 2846 H 259.788 3.04784 0.759309 0
M  V30 2847 H 258.981 5.00445 -0.597545 0
M  V30 2848 H 258.583 3.46785 -1.40057 0
M  V30 2849 H 260.875 6.63882 -1.35156 0
M  V30 2850 H 261.818 6.47467 -2.86691 0
M  V30 2851 H 262.226 5.45405 -1.4558 0
M  V30 2852 N 261.624 0.925811 1.2754 0
M  V30 2853 C 262.587 0.428129 2.25166 0
M  V30 2854 C 263.587 -0.452261 1.54309 0
M  V30 2855 O 264.777 -0.253608 1.72344 0
M  V30 2856 C 261.909 -0.384749 3.38722 0
M  V30 2857 H 263.102 1.29066 2.70706 0
M  V30 2858 H 260.655 0.706323 1.3943 0
M  V30 2859 H 261.39 -1.26618 2.98561 0
M  V30 2860 H 261.175 0.246454 3.91325 0
M  V30 2861 H 262.665 -0.723389 4.11287 0
M  V30 2862 N 263.102 -1.41638 0.69111 0
M  V30 2863 C 264.065 -2.29178 0.0319786 0
M  V30 2864 C 265.065 -1.44153 -0.712496 0
M  V30 2865 O 266.255 -1.65354 -0.548053 0
M  V30 2866 C 263.387 -3.26952 -0.965161 0
M  V30 2867 H 264.58 -2.88959 0.802681 0
M  V30 2868 H 262.133 -1.4955 0.454356 0
M  V30 2869 H 262.868 -2.72142 -1.76378 0
M  V30 2870 H 262.653 -3.89685 -0.434522 0
M  V30 2871 H 264.143 -3.92561 -1.42428 0
M  V30 2872 N 264.58 -0.43555 -1.51462 0
M  V30 2873 C 265.808 0.130242 -2.0649 0
M  V30 2874 C 266.223 1.36614 -1.30315 0
M  V30 2875 O 265.58 1.78869 -0.362223 0
M  V30 2876 C 265.631 0.454253 -3.58635 0
M  V30 2877 O 265.352 -0.73259 -4.31931 0
M  V30 2878 C 266.853 1.07091 -4.3017 0
M  V30 2879 H 264.073 0.00871669 -0.670943 0
M  V30 2880 H 266.617 -0.614117 -1.95061 0
M  V30 2881 H 264.772 1.14851 -3.69984 0
M  V30 2882 H 265.186 -0.455787 -5.22516 0
M  V30 2883 H 266.66 1.24764 -5.37716 0
M  V30 2884 H 267.137 2.05144 -3.88346 0
M  V30 2885 H 267.743 0.416089 -4.2326 0
M  V30 2886 N 266.058 1.56714 -0.166846 0
M  V30 2887 C 266.988 2.20754 0.760913 0
M  V30 2888 C 267.969 1.16178 1.24244 0
M  V30 2889 O 269.154 1.44592 1.29641 0
M  V30 2890 C 266.284 2.84478 1.99223 0
M  V30 2891 C 265.238 3.95053 1.64672 0
M  V30 2892 C 264.564 4.45805 2.95232 0
M  V30 2893 C 265.864 5.14865 0.878155 0
M  V30 2894 H 267.558 2.98537 0.22713 0
M  V30 2895 H 265.104 1.43596 0.107805 0
M  V30 2896 H 267.057 3.27951 2.64624 0
M  V30 2897 H 265.781 2.04056 2.55007 0
M  V30 2898 H 264.44 3.52228 1.01641 0
M  V30 2899 H 264.088 3.62181 3.49047 0
M  V30 2900 H 263.788 5.204 2.7287 0
M  V30 2901 H 265.312 4.91962 3.6167 0
M  V30 2902 H 266.726 5.55059 1.43466 0
M  V30 2903 H 265.123 5.95348 0.753738 0
M  V30 2904 H 266.193 4.84735 -0.126377 0
M  V30 2905 N 267.536 -0.106894 1.57237 0
M  V30 2906 C 268.776 -0.818277 1.87306 0
M  V30 2907 C 269.14 -1.76474 0.756371 0
M  V30 2908 O 270.341 -2.5186 0.939155 0
M  V30 2909 C 268.612 -1.53806 3.22612 0
M  V30 2910 S 270.171 -2.28935 3.74345 0
M  V30 2911 H 266.989 -0.272862 0.656557 0
M  V30 2912 H 269.591 -0.075988 1.95352 0
M  V30 2913 H 268.295 -0.834951 4.01817 0
M  V30 2914 H 267.826 -2.32049 3.17674 0
M  V30 2915 H 269.841 -3.54871 3.46815 0
M  V30 2916 N 269.014 -1.53014 -0.377408 0
M  V30 2917 C 270.262 -1.6829 -1.11906 0
M  V30 2918 C 270.583 -0.431206 -1.90173 0
M  V30 2919 O 269.853 0.554595 -1.87886 0
M  V30 2920 H 268.433 -0.620371 -0.416112 0
M  V30 2921 H 271.095 -1.90167 -0.426893 0
M  V30 2922 H 270.191 -2.53862 -1.8155 0
M  V30 2923 N 270.492 0.636531 -1.44174 0
M  V30 2924 C 271.717 1.42847 -1.50364 0
M  V30 2925 C 272.142 1.87665 -0.127867 0
M  V30 2926 O 271.5 1.58408 0.88185 0
M  V30 2927 C 271.548 2.62854 -2.4686 0
M  V30 2928 O 270.652 3.62501 -1.9664 0
M  V30 2929 H 269.993 0.427642 -0.507955 0
M  V30 2930 H 272.523 0.777422 -1.89255 0
M  V30 2931 H 272.533 3.10465 -2.64718 0
M  V30 2932 H 271.208 2.29578 -3.46795 0
M  V30 2933 H 269.785 3.21735 -1.88523 0
M  V30 2934 N 271.97 1.30982 0.876444 0
M  V30 2935 C 273.381 1.18277 1.44456 0
M  V30 2936 C 273.732 -0.213265 1.95037 0
M  V30 2937 O 272.857 -1.11057 1.85729 0
M  V30 2938 C 273.452 2.1411 2.62569 0
M  V30 2939 C 272.011 2.05358 3.15444 0
M  V30 2940 C 271.158 2.03706 1.88146 0
M  V30 2941 H 274.109 1.43127 0.685584 0
M  V30 2942 H 274.13 1.72692 3.39054 0
M  V30 2943 H 273.642 3.15706 2.25724 0
M  V30 2944 H 271.743 1.06934 3.56926 0
M  V30 2945 H 271.856 2.94156 3.78166 0
M  V30 2946 H 270.22 1.48629 2.06837 0
M  V30 2947 H 271.003 3.07047 1.53547 0
M  V30 2948 N 273.449 -1.08991 1.13837 0
M  V30 2949 C 274.382 -2.15049 0.763477 0
M  V30 2950 C 275.36 -1.60629 -0.252398 0
M  V30 2951 O 276.544 -1.87958 -0.142853 0
M  V30 2952 C 273.671 -3.38441 0.132545 0
M  V30 2953 C 272.717 -4.11596 1.11763 0
M  V30 2954 S 273.55 -4.6521 2.65216 0
M  V30 2955 C 274.706 -5.91896 2.03495 0
M  V30 2956 H 274.939 -2.46518 1.66182 0
M  V30 2957 H 272.472 -1.21008 0.958976 0
M  V30 2958 H 274.43 -4.09883 -0.225074 0
M  V30 2959 H 273.091 -3.05182 -0.743135 0
M  V30 2960 H 272.284 -5.00121 0.624076 0
M  V30 2961 H 271.886 -3.46038 1.41894 0
M  V30 2962 H 274.178 -6.63156 1.38675 0
M  V30 2963 H 275.121 -6.45938 2.9012 0
M  V30 2964 H 275.529 -5.44625 1.48471 0
M  V30 2965 N 274.927 -0.932562 -1.27047 0
M  V30 2966 C 276.157 -0.591173 -1.97961 0
M  V30 2967 C 276.565 0.836219 -1.69717 0
M  V30 2968 O 275.908 1.56801 -0.957036 0
M  V30 2969 C 275.97 -0.743082 -3.51736 0
M  V30 2970 C 275.634 -2.1435 -4.03613 0
M  V30 2971 C 276.631 -3.11815 -4.16014 0
M  V30 2972 C 274.316 -2.46175 -4.37839 0
M  V30 2973 C 276.31 -4.39211 -4.61923 0
M  V30 2974 C 273.997 -3.73806 -4.83438 0
M  V30 2975 C 274.995 -4.70137 -4.95439 0
M  V30 2976 O 274.683 -5.95496 -5.40037 0
M  V30 2977 H 274.415 -0.222375 -0.638377 0
M  V30 2978 H 276.969 -1.25317 -1.62742 0
M  V30 2979 H 275.199 -0.0239739 -3.86693 0
M  V30 2980 H 276.888 -0.40603 -4.03864 0
M  V30 2981 H 277.654 -2.88549 -3.89826 0
M  V30 2982 H 273.533 -1.71936 -4.27737 0
M  V30 2983 H 277.077 -5.14404 -4.71205 0
M  V30 2984 H 272.974 -3.96888 -5.09068 0
M  V30 2985 H 273.742 -5.98554 -5.58279 0
M  V30 2986 N 276.405 1.4127 -0.698611 0
M  V30 2987 C 277.338 2.28195 0.0153898 0
M  V30 2988 C 278.316 1.42402 0.784883 0
M  V30 2989 O 279.5 1.71828 0.775067 0
M  V30 2990 C 276.627 3.22685 1.02918 0
M  V30 2991 C 275.673 4.25041 0.352501 0
M  V30 2992 S 276.506 5.27757 -0.907322 0
M  V30 2993 C 277.662 6.25812 0.104796 0
M  V30 2994 H 277.895 2.88403 -0.721858 0
M  V30 2995 H 275.428 1.46452 -0.488996 0
M  V30 2996 H 277.386 3.77655 1.60893 0
M  V30 2997 H 276.047 2.61566 1.73902 0
M  V30 2998 H 275.24 4.91437 1.11828 0
M  V30 2999 H 274.842 3.73682 -0.154254 0
M  V30 3000 H 277.134 6.70705 0.957103 0
M  V30 3001 H 278.077 7.06149 -0.525323 0
M  V30 3002 H 278.485 5.62615 0.460931 0
M  V30 3003 N 277.883 0.443576 1.51229 0
M  V30 3004 C 278.846 -0.353132 2.26463 0
M  V30 3005 C 279.846 -0.944338 1.3015 0
M  V30 3006 O 281.036 -0.817813 1.5381 0
M  V30 3007 C 278.168 -1.50023 3.06114 0
M  V30 3008 H 279.361 0.3063 2.98332 0
M  V30 3009 H 276.914 0.196902 1.55055 0
M  V30 3010 H 277.649 -2.19553 2.38677 0
M  V30 3011 H 277.434 -1.08241 3.76864 0
M  V30 3012 H 278.924 -2.06296 3.63087 0
M  V30 3013 N 279.361 -1.56624 0.175154 0
M  V30 3014 C 280.772 -1.83561 -0.340916 0
M  V30 3015 C 281.123 -1.09511 -1.62794 0
M  V30 3016 O 280.248 -0.349389 -2.13561 0
M  V30 3017 C 280.843 -3.32979 -0.625313 0
M  V30 3018 C 279.402 -3.60399 -1.08581 0
M  V30 3019 C 278.549 -2.77024 -0.123722 0
M  V30 3020 H 281.5 -1.53593 0.399344 0
M  V30 3021 H 281.521 -3.50666 -1.47694 0
M  V30 3022 H 281.033 -3.86847 0.311575 0
M  V30 3023 H 279.134 -3.11945 -2.03767 0
M  V30 3024 H 279.247 -4.68711 -0.992317 0
M  V30 3025 H 277.611 -2.46993 -0.621821 0
M  V30 3026 H 278.394 -3.33674 0.807256 0
M  V30 3027 N 280.839 0.0985539 -1.57292 0
M  V30 3028 C 281.749 1.13824 -2.05137 0
M  V30 3029 C 282.765 1.44076 -0.975604 0
M  V30 3030 O 283.941 1.54786 -1.28853 0
M  V30 3031 C 281.006 2.43969 -2.46333 0
M  V30 3032 C 280.067 2.2093 -3.68087 0
M  V30 3033 C 279.3 3.44869 -4.0731 0
M  V30 3034 O 279.523 4.52972 -3.46659 0
M  V30 3035 O 278.457 3.34661 -5.00285 0
M  V30 3036 H 282.283 0.761881 -2.93988 0
M  V30 3037 H 279.868 0.310818 -1.46131 0
M  V30 3038 H 281.75 3.20609 -2.73473 0
M  V30 3039 H 280.425 2.81038 -1.60621 0
M  V30 3040 H 279.332 1.42081 -3.46069 0
M  V30 3041 H 280.665 1.88755 -4.54568 0
M  V30 3042 N 282.317 1.53212 0.369288 0
M  V30 3043 C 283.563 1.69466 1.11397 0
M  V30 3044 C 283.896 0.443257 1.89074 0
M  V30 3045 O 283.171 -0.559386 1.86282 0
M  V30 3046 C 283.454 2.9422 2.07621 0
M  V30 3047 C 283.307 4.29508 1.33577 0
M  V30 3048 C 284.626 3.14565 3.07794 0
M  V30 3049 H 281.745 0.616667 0.403597 0
M  V30 3050 H 284.387 1.85845 0.395179 0
M  V30 3051 H 282.537 2.80387 2.68916 0
M  V30 3052 H 284.209 4.55147 0.750955 0
M  V30 3053 H 282.452 4.29088 0.637618 0
M  V30 3054 H 283.123 5.12926 2.03989 0
M  V30 3055 H 285.599 3.2756 2.56601 0
M  V30 3056 H 284.475 4.03297 3.72348 0
M  V30 3057 H 284.736 2.29675 3.77759 0
M  V30 3058 N 283.795 -0.628877 1.44509 0
M  V30 3059 C 285.044 -1.38437 1.4669 0
M  V30 3060 C 285.357 -1.95322 0.104272 0
M  V30 3061 O 286.563 -2.715 0.00362163 0
M  V30 3062 C 285.019 -2.50659 2.5826 0
M  V30 3063 C 284.627 -2.00277 4.0074 0
M  V30 3064 C 286.371 -3.27844 2.69664 0
M  V30 3065 C 284.278 -3.09854 5.0373 0
M  V30 3066 H 283.208 -0.520245 0.545766 0
M  V30 3067 H 285.859 -0.676313 1.70582 0
M  V30 3068 H 284.241 -3.2405 2.27612 0
M  V30 3069 H 285.415 -1.33736 4.40966 0
M  V30 3070 H 283.73 -1.35901 3.93599 0
M  V30 3071 H 286.327 -4.09534 3.43781 0
M  V30 3072 H 286.67 -3.77471 1.75559 0
M  V30 3073 H 287.203 -2.61543 2.99733 0
M  V30 3074 H 283.942 -2.65168 5.99472 0
M  V30 3075 H 283.462 -3.7503 4.68095 0
M  V30 3076 H 285.141 -3.74592 5.27532 0
M  V30 3077 N 285.273 -1.31445 -0.869486 0
M  V30 3078 C 286.206 -1.13465 -1.97992 0
M  V30 3079 C 287.184 -0.0380291 -1.62556 0
M  V30 3080 O 288.368 -0.194544 -1.87493 0
M  V30 3081 C 285.495 -0.733822 -3.30655 0
M  V30 3082 C 284.541 -1.83356 -3.85075 0
M  V30 3083 S 285.374 -3.43909 -4.10472 0
M  V30 3084 C 286.53 -3.05763 -5.46132 0
M  V30 3085 H 286.763 -2.07471 -2.1294 0
M  V30 3086 H 284.296 -1.15936 -1.01972 0
M  V30 3087 H 286.254 -0.509306 -4.07328 0
M  V30 3088 H 284.915 0.187123 -3.13542 0
M  V30 3089 H 284.108 -1.50574 -4.80982 0
M  V30 3090 H 283.71 -2.01315 -3.15195 0
M  V30 3091 H 286.002 -2.54686 -6.27807 0
M  V30 3092 H 286.945 -4.00635 -5.83864 0
M  V30 3093 H 287.353 -2.43192 -5.09429 0
M  V30 3094 N 286.751 1.08385 -1.14413 0
M  V30 3095 C 287.976 1.85057 -0.936413 0
M  V30 3096 C 288.401 1.81055 0.509971 0
M  V30 3097 O 287.759 1.1958 1.36273 0
M  V30 3098 C 287.807 3.30505 -1.44217 0
M  V30 3099 O 286.911 4.07491 -0.634409 0
M  V30 3100 H 286.252 0.573425 -0.334784 0
M  V30 3101 H 288.782 1.36799 -1.52142 0
M  V30 3102 H 288.792 3.81348 -1.45043 0
M  V30 3103 H 287.467 3.32734 -2.49522 0
M  V30 3104 H 286.044 3.66368 -0.694902 0
M  V30 3105 N 288.23 0.939286 1.26551 0
M  V30 3106 C 289.162 0.404704 2.25599 0
M  V30 3107 C 290.175 -0.470983 1.55838 0
M  V30 3108 O 291.364 -0.281734 1.76263 0
M  V30 3109 C 288.464 -0.43764 3.36062 0
M  V30 3110 C 287.637 0.421449 4.35365 0
M  V30 3111 C 286.696 -0.36015 5.24966 0
M  V30 3112 O 285.722 0.236167 5.6871 0
M  V30 3113 N 286.924 -1.65715 5.56344 0
M  V30 3114 H 289.689 1.25618 2.72103 0
M  V30 3115 H 287.25 0.807963 1.40298 0
M  V30 3116 H 289.242 -0.967866 3.92956 0
M  V30 3117 H 287.812 -1.18991 2.89067 0
M  V30 3118 H 287.032 1.1329 3.7757 0
M  V30 3119 H 288.32 1.00835 4.98708 0
M  V30 3120 H 287.718 -2.16378 5.22682 0
M  V30 3121 H 286.275 -2.13366 6.15888 0
M  V30 3122 N 289.708 -1.40897 0.706093 0
M  V30 3123 C 290.658 -2.27987 0.0240746 0
M  V30 3124 C 291.642 -1.42759 -0.742204 0
M  V30 3125 O 292.834 -1.65936 -0.615966 0
M  V30 3126 C 289.963 -3.31186 -0.903907 0
M  V30 3127 C 289.049 -4.2389 -0.133318 0
M  V30 3128 N 289.44 -4.98113 0.878444 0
M  V30 3129 C 287.738 -4.44485 -0.367269 0
M  V30 3130 C 288.439 -5.6604 1.34064 0
M  V30 3131 N 287.415 -5.39522 0.664565 0
M  V30 3132 H 291.217 -2.82812 0.799658 0
M  V30 3133 H 288.731 -1.53235 0.537845 0
M  V30 3134 H 290.728 -3.92413 -1.40775 0
M  V30 3135 H 289.388 -2.77922 -1.67897 0
M  V30 3136 H 290.399 -5.02364 1.25901 0
M  V30 3137 H 287.076 -4.02213 -1.1194 0
M  V30 3138 H 288.466 -6.35524 2.1808 0
M  V30 3139 N 291.186 -0.45159 -1.50991 0
M  V30 3140 C 292.416 0.108177 -2.06317 0
M  V30 3141 C 292.824 1.35774 -1.31765 0
M  V30 3142 O 292.167 1.79838 -0.374694 0
M  V30 3143 C 292.229 0.481659 -3.56259 0
M  V30 3144 C 291.893 -0.663114 -4.52163 0
M  V30 3145 C 292.89 -1.53947 -4.96585 0
M  V30 3146 C 290.575 -0.8479 -4.95092 0
M  V30 3147 C 292.569 -2.58518 -5.82621 0
M  V30 3148 C 290.256 -1.89686 -5.80915 0
M  V30 3149 C 291.254 -2.76388 -6.24579 0
M  V30 3150 O 290.942 -3.79482 -7.08695 0
M  V30 3151 H 290.674 0.00499183 -0.675982 0
M  V30 3152 H 293.228 -0.633659 -1.95381 0
M  V30 3153 H 291.458 1.27641 -3.65027 0
M  V30 3154 H 293.147 0.974233 -3.94035 0
M  V30 3155 H 293.913 -1.4083 -4.64103 0
M  V30 3156 H 289.792 -0.18258 -4.60638 0
M  V30 3157 H 293.336 -3.26224 -6.16623 0
M  V30 3158 H 289.233 -2.02817 -6.12809 0
M  V30 3159 H 290.001 -3.76234 -7.26905 0
M  V30 3160 N 292.664 1.56529 -0.183458 0
M  V30 3161 C 293.941 1.88959 0.50536 0
M  V30 3162 C 294.321 1.09523 1.80466 0
M  V30 3163 O 293.669 0.19278 2.27685 0
M  V30 3164 C 293.879 3.41162 0.73547 0
M  V30 3165 C 295.227 4.11155 1.06005 0
M  V30 3166 O 296.251 3.46548 0.823594 0
M  V30 3167 O 295.11 5.25318 1.50675 0
M  V30 3168 H 292.204 0.78441 0.261973 0
M  V30 3169 H 294.75 1.68231 -0.222802 0
M  V30 3170 H 293.522 3.90874 -0.182561 0
M  V30 3171 H 293.145 3.67543 1.51651 0
M  V30 3172 N 294.142 -0.090211 1.57342 0
M  V30 3173 C 295.39 -0.791241 1.85967 0
M  V30 3174 C 295.711 -1.7903 0.772859 0
M  V30 3175 O 294.981 -1.94872 -0.200398 0
M  V30 3176 H 293.561 -0.295205 0.686195 0
M  V30 3177 H 296.223 -0.0706782 1.94772 0
M  V30 3178 H 295.319 -1.31882 2.82867 0
M  V30 3179 N 295.62 -1.53406 -0.361157 0
M  V30 3180 C 296.567 -1.80156 -1.44265 0
M  V30 3181 C 297.537 -0.646183 -1.53015 0
M  V30 3182 O 298.722 -0.888818 -1.68833 0
M  V30 3183 C 295.862 -2.00116 -2.81154 0
M  V30 3184 C 294.975 -3.27833 -2.81335 0
M  V30 3185 C 294.11 -3.37957 -4.09828 0
M  V30 3186 C 293.149 -4.59689 -4.04168 0
M  V30 3187 N 292.286 -4.66942 -5.24318 0
M  V30 3188 H 297.126 -2.72438 -1.20754 0
M  V30 3189 H 294.663 -1.34954 -0.585296 0
M  V30 3190 H 296.621 -2.09677 -3.60682 0
M  V30 3191 H 295.251 -1.11167 -3.03054 0
M  V30 3192 H 294.303 -3.27204 -1.94014 0
M  V30 3193 H 295.615 -4.17442 -2.73027 0
M  V30 3194 H 294.769 -3.46853 -4.97773 0
M  V30 3195 H 293.508 -2.46372 -4.20894 0
M  V30 3196 H 292.513 -4.50889 -3.14609 0
M  V30 3197 H 293.738 -5.5262 -3.947 0
M  V30 3198 H 291.684 -3.7826 -5.35962 0
M  V30 3199 H 291.601 -5.50462 -5.18197 0
M  V30 3200 H 292.869 -4.80127 -6.14084 0
M  V30 3201 N 297.098 0.621204 -1.44841 0
M  V30 3202 C 298.061 1.71459 -1.521 0
M  V30 3203 C 299.061 1.55696 -0.401933 0
M  V30 3204 O 300.251 1.61011 -0.664925 0
M  V30 3205 C 297.383 3.10624 -1.40447 0
M  V30 3206 H 298.576 1.66394 -2.49506 0
M  V30 3207 H 296.129 0.835745 -1.3208 0
M  V30 3208 H 296.864 3.21277 -0.441737 0
M  V30 3209 H 296.649 3.23473 -2.21602 0
M  V30 3210 H 298.139 3.90293 -1.4853 0
M  V30 3211 N 298.576 1.31904 0.862503 0
M  V30 3212 C 299.853 1.12644 1.59908 0
M  V30 3213 C 300.233 -0.316104 2.0872 0
M  V30 3214 O 299.581 -1.31145 1.87118 0
M  V30 3215 C 299.791 2.1472 2.7513 0
M  V30 3216 C 301.139 2.47637 3.44907 0
M  V30 3217 O 302.163 2.13205 2.85346 0
M  V30 3218 O 301.022 3.06632 4.52371 0
M  V30 3219 H 298.116 0.43416 0.703871 0
M  V30 3220 H 300.662 1.43408 0.907314 0
M  V30 3221 H 299.434 3.1172 2.3653 0
M  V30 3222 H 299.057 1.84905 3.51989 0
M  V30 3223 N 300.054 -1.07777 1.14986 0
M  V30 3224 C 300.984 -2.16865 0.865557 0
M  V30 3225 C 301.965 -1.69123 -0.182083 0
M  V30 3226 O 303.15 -1.94164 -0.0373815 0
M  V30 3227 C 300.28 -3.45539 0.349313 0
M  V30 3228 C 299.234 -4.06708 1.33313 0
M  V30 3229 C 298.56 -5.30411 0.675918 0
M  V30 3230 C 299.86 -4.47241 2.69764 0
M  V30 3231 H 301.554 -2.40905 1.77778 0
M  V30 3232 H 299.1 -1.15781 0.856203 0
M  V30 3233 H 301.053 -4.21174 0.137983 0
M  V30 3234 H 299.777 -3.21072 -0.598362 0
M  V30 3235 H 298.436 -3.33112 1.53075 0
M  V30 3236 H 298.084 -5.02232 -0.277767 0
M  V30 3237 H 297.784 -5.72293 1.33244 0
M  V30 3238 H 299.308 -6.08755 0.474262 0
M  V30 3239 H 300.722 -5.14025 2.53873 0
M  V30 3240 H 299.119 -5.00062 3.3175 0
M  V30 3241 H 300.189 -3.58818 3.26156 0
M  V30 3242 N 301.532 -0.945985 -1.26051 0
M  V30 3243 C 302.778 -0.606539 -1.94146 0
M  V30 3244 C 303.133 0.84586 -1.72809 0
M  V30 3245 O 302.426 1.59781 -1.05738 0
M  V30 3246 C 302.62 -0.890475 -3.46129 0
M  V30 3247 C 302.449 -2.36892 -3.82246 0
M  V30 3248 C 301.219 -3.02494 -4.04753 0
M  V30 3249 C 303.417 -3.34772 -3.90425 0
M  V30 3250 N 301.399 -4.40302 -4.27794 0
M  V30 3251 C 302.77 -4.57855 -4.18054 0
M  V30 3252 C 304.825 -3.2973 -3.73072 0
M  V30 3253 C 303.528 -5.76522 -4.30134 0
M  V30 3254 C 305.554 -4.47727 -3.86386 0
M  V30 3255 C 304.916 -5.69593 -4.14419 0
M  V30 3256 H 301.015 -0.272407 -0.73302 0
M  V30 3257 H 303.599 -1.21638 -1.52027 0
M  V30 3258 H 301.77 -0.309638 -3.87164 0
M  V30 3259 H 303.502 -0.51181 -4.01451 0
M  V30 3260 H 300.257 -2.53095 -4.003 0
M  V30 3261 H 300.681 -5.11646 -4.43337 0
M  V30 3262 H 305.323 -2.36565 -3.50424 0
M  V30 3263 H 303.041 -6.70136 -4.51601 0
M  V30 3264 H 306.627 -4.45363 -3.74356 0
M  V30 3265 H 305.507 -6.59375 -4.24493 0
M  V30 3266 N 303.011 1.40521 -0.713556 0
M  V30 3267 C 304.236 2.05759 -0.26035 0
M  V30 3268 C 304.661 1.53403 1.08854 0
M  V30 3269 O 304.019 0.668535 1.68524 0
M  V30 3270 C 304.067 3.59745 -0.248122 0
M  V30 3271 O 303.171 4.05123 0.77131 0
M  V30 3272 H 302.512 0.652564 -0.122703 0
M  V30 3273 H 305.042 1.79958 -0.973467 0
M  V30 3274 H 305.052 4.07911 -0.0851129 0
M  V30 3275 H 303.727 3.97218 -1.2325 0
M  V30 3276 H 302.304 3.68422 0.57619 0
M  V30 3277 N 304.489 0.459591 1.5075 0
M  V30 3278 C 305.738 -0.100971 2.01447 0
M  V30 3279 C 306.051 -1.41816 1.34713 0
M  V30 3280 O 307.257 -2.06299 1.76502 0
M  V30 3281 C 305.713 -0.23047 3.59161 0
M  V30 3282 C 305.321 1.0776 4.34847 0
M  V30 3283 C 307.065 -0.743608 4.17936 0
M  V30 3284 C 304.972 0.91253 5.84317 0
M  V30 3285 H 303.902 -0.0415102 0.752856 0
M  V30 3286 H 306.553 0.592742 1.73663 0
M  V30 3287 H 304.935 -0.987703 3.83485 0
M  V30 3288 H 306.109 1.8449 4.22256 0
M  V30 3289 H 304.424 1.52097 3.87628 0
M  V30 3290 H 307.021 -0.883959 5.27343 0
M  V30 3291 H 307.364 -1.73196 3.78562 0
M  V30 3292 H 307.897 -0.04408 3.97776 0
M  V30 3293 H 304.636 1.87391 6.28144 0
M  V30 3294 H 304.156 0.185422 5.99513 0
M  V30 3295 H 305.835 0.574547 6.44444 0
M  V30 3296 N 305.967 -1.56429 0.191757 0
M  V30 3297 C 307.215 -1.97095 -0.447006 0
M  V30 3298 C 307.536 -1.07967 -1.62383 0
M  V30 3299 O 306.806 -0.150248 -1.95323 0
M  V30 3300 H 305.386 -0.727832 -0.168135 0
M  V30 3301 H 308.048 -1.92911 0.27771 0
M  V30 3302 H 307.144 -3.01848 -0.793371 0
M  V30 3303 N 307.445 0.0818655 -1.57387 0
M  V30 3304 C 308.673 0.796108 -1.9097 0
M  V30 3305 C 309.088 1.71626 -0.786757 0
M  V30 3306 O 308.445 1.80908 0.240513 0
M  V30 3307 C 308.496 1.59829 -3.24248 0
M  V30 3308 O 308.217 0.715131 -4.32224 0
M  V30 3309 C 309.718 2.41442 -3.7178 0
M  V30 3310 H 306.938 0.22691 -0.631469 0
M  V30 3311 H 309.482 0.0551439 -2.04426 0
M  V30 3312 H 307.637 2.29163 -3.12351 0
M  V30 3313 H 308.051 1.27205 -5.08841 0
M  V30 3314 H 309.525 2.932 -4.67694 0
M  V30 3315 H 310.002 3.2051 -3.00283 0
M  V30 3316 H 310.608 1.77283 -3.86589 0
M  V30 3317 N 308.923 1.53595 0.353017 0
M  V30 3318 C 310.172 1.69603 1.09168 0
M  V30 3319 C 310.485 0.460925 1.90092 0
M  V30 3320 O 311.691 0.501774 2.66823 0
M  V30 3321 C 310.147 2.99872 1.9901 0
M  V30 3322 C 309.755 4.30687 1.23339 0
M  V30 3323 C 311.499 3.25246 2.72792 0
M  V30 3324 C 309.406 5.52036 2.12156 0
M  V30 3325 H 308.336 0.631966 0.411261 0
M  V30 3326 H 310.987 1.80096 0.351802 0
M  V30 3327 H 309.369 2.83212 2.7678 0
M  V30 3328 H 310.543 4.58019 0.505456 0
M  V30 3329 H 308.858 4.11853 0.613663 0
M  V30 3330 H 311.455 4.13095 3.39495 0
M  V30 3331 H 311.798 2.41846 3.38846 0
M  V30 3332 H 312.331 3.42638 2.021 0
M  V30 3333 H 309.07 6.37951 1.50659 0
M  V30 3334 H 308.59 5.28966 2.82764 0
M  V30 3335 H 310.269 5.87313 2.71427 0
M  V30 3336 N 310.401 -0.613514 1.45168 0
M  V30 3337 C 311.647 -1.37471 1.49096 0
M  V30 3338 C 311.98 -1.93765 0.129901 0
M  V30 3339 O 311.255 -1.74707 -0.854858 0
M  V30 3340 C 311.538 -2.52701 2.56542 0
M  V30 3341 C 311.391 -2.01643 4.0207 0
M  V30 3342 C 312.71 -3.54849 2.60327 0
M  V30 3343 H 309.829 -0.498502 0.54283 0
M  V30 3344 H 312.471 -0.692125 1.76945 0
M  V30 3345 H 310.621 -3.10931 2.32926 0
M  V30 3346 H 312.293 -1.48108 4.36877 0
M  V30 3347 H 310.536 -1.32688 4.13009 0
M  V30 3348 H 311.207 -2.84681 4.72928 0
M  V30 3349 H 313.683 -3.0645 2.81474 0
M  V30 3350 H 312.559 -4.32973 3.37381 0
M  V30 3351 H 312.82 -4.10079 1.6519 0
M  V30 3352 N 311.879 -1.3236 -0.855495 0
M  V30 3353 C 313.109 -1.25688 -1.6397 0
M  V30 3354 C 313.517 0.177592 -1.88365 0
M  V30 3355 O 312.86 1.12485 -1.45234 0
M  V30 3356 C 312.922 -1.94602 -3.02275 0
M  V30 3357 C 312.586 -3.43937 -3.00926 0
M  V30 3358 C 313.583 -4.39435 -2.77835 0
M  V30 3359 C 311.268 -3.85858 -3.21588 0
M  V30 3360 C 313.262 -5.74829 -2.75409 0
M  V30 3361 C 310.949 -5.21361 -3.18789 0
M  V30 3362 C 311.947 -6.15658 -2.95727 0
M  V30 3363 O 311.635 -7.48681 -2.928 0
M  V30 3364 H 311.367 -0.434972 -0.51747 0
M  V30 3365 H 313.921 -1.75023 -1.075 0
M  V30 3366 H 312.151 -1.39836 -3.60531 0
M  V30 3367 H 313.84 -1.81651 -3.62985 0
M  V30 3368 H 314.606 -4.08374 -2.6164 0
M  V30 3369 H 310.485 -3.12883 -3.38564 0
M  V30 3370 H 314.029 -6.48404 -2.57328 0
M  V30 3371 H 309.926 -5.52052 -3.34528 0
M  V30 3372 H 310.694 -7.5803 -3.0876 0
M  V30 3373 N 313.357 1.07166 -1.15556 0
M  V30 3374 C 314.289 2.14341 -0.811815 0
M  V30 3375 C 315.302 1.61835 0.177015 0
M  V30 3376 O 316.491 1.78439 -0.0464996 0
M  V30 3377 C 313.591 3.38387 -0.186481 0
M  V30 3378 C 312.764 4.20238 -1.21321 0
M  V30 3379 C 311.823 5.2266 -0.609302 0
M  V30 3380 O 310.849 5.54719 -1.27576 0
M  V30 3381 N 312.051 5.77306 0.608099 0
M  V30 3382 H 314.816 2.44431 -1.73417 0
M  V30 3383 H 312.377 1.23089 -1.0517 0
M  V30 3384 H 314.369 4.04044 0.230339 0
M  V30 3385 H 312.939 3.05994 0.639249 0
M  V30 3386 H 312.159 3.50369 -1.80652 0
M  V30 3387 H 313.447 4.71736 -1.90638 0
M  V30 3388 H 312.845 5.53513 1.1679 0
M  V30 3389 H 311.402 6.44583 0.96725 0
M  V30 3390 N 314.835 0.952656 1.25548 0
M  V30 3391 C 316.075 0.614013 1.9496 0
M  V30 3392 C 316.439 -0.833215 1.72978 0
M  V30 3393 O 317.64 -1.28135 2.36294 0
M  V30 3394 C 315.911 0.960562 3.4425 0
M  V30 3395 S 317.47 0.734195 4.32614 0
M  V30 3396 H 314.288 0.225754 0.674208 0
M  V30 3397 H 316.89 1.22641 1.52248 0
M  V30 3398 H 315.594 2.01103 3.57751 0
M  V30 3399 H 315.125 0.338336 3.91942 0
M  V30 3400 H 317.14 -0.395995 4.94617 0
M  V30 3401 N 316.313 -1.40141 0.720998 0
M  V30 3402 C 317.243 -2.33339 0.0867621 0
M  V30 3403 C 318.224 -1.53178 -0.739622 0
M  V30 3404 O 319.409 -1.81625 -0.687449 0
M  V30 3405 C 316.539 -3.37194 -0.831728 0
M  V30 3406 C 315.493 -4.27857 -0.110558 0
M  V30 3407 C 314.819 -5.22294 -1.14513 0
M  V30 3408 C 316.119 -5.11872 1.0385 0
M  V30 3409 H 317.813 -2.86626 0.865219 0
M  V30 3410 H 315.359 -1.37814 0.417516 0
M  V30 3411 H 317.312 -4.01335 -1.28485 0
M  V30 3412 H 316.036 -2.82314 -1.64214 0
M  V30 3413 H 314.695 -3.65176 0.322797 0
M  V30 3414 H 314.343 -4.63717 -1.94874 0
M  V30 3415 H 314.043 -5.83797 -0.667446 0
M  V30 3416 H 315.567 -5.89312 -1.59824 0
M  V30 3417 H 316.981 -5.69436 0.664482 0
M  V30 3418 H 315.378 -5.82445 1.4449 0
M  V30 3419 H 316.448 -4.4753 1.86668 0
M  V30 3420 N 317.792 -0.46758 -1.50504 0
M  V30 3421 C 319.02 0.0864133 -2.06719 0
M  V30 3422 C 319.435 1.33819 -1.33184 0
M  V30 3423 O 318.792 1.78061 -0.400083 0
M  V30 3424 C 318.843 0.378079 -3.59517 0
M  V30 3425 O 318.564 -0.824044 -4.3028 0
M  V30 3426 C 320.065 0.979426 -4.32345 0
M  V30 3427 H 317.285 -0.00551697 -0.670977 0
M  V30 3428 H 319.829 -0.655354 -1.93715 0
M  V30 3429 H 317.984 1.06977 -3.72337 0
M  V30 3430 H 318.398 -0.566518 -5.21432 0
M  V30 3431 H 319.872 1.1333 -5.40241 0
M  V30 3432 H 320.349 1.9686 -3.9261 0
M  V30 3433 H 320.955 0.326216 -4.24047 0
M  V30 3434 N 319.27 1.56325 -0.20005 0
M  V30 3435 C 320.518 1.97329 0.436547 0
M  V30 3436 C 320.839 1.08826 1.61808 0
M  V30 3437 O 320.109 0.160604 1.95241 0
M  V30 3438 H 318.689 0.728714 0.164272 0
M  V30 3439 H 321.351 1.92761 -0.287937 0
M  V30 3440 H 320.447 3.02264 0.777353 0
M  V30 3441 N 320.748 -0.0735177 1.57428 0
M  V30 3442 C 321.695 -1.08756 2.0357 0
M  V30 3443 C 322.665 -1.38559 0.916 0
M  V30 3444 O 323.85 -1.49656 1.18354 0
M  V30 3445 C 320.99 -2.39657 2.48311 0
M  V30 3446 C 320.103 -2.16399 3.73892 0
M  V30 3447 C 319.238 -3.40852 4.07423 0
M  V30 3448 C 318.277 -3.1295 5.2605 0
M  V30 3449 N 317.414 -4.29729 5.55228 0
M  V30 3450 H 322.254 -0.687104 2.8997 0
M  V30 3451 H 319.791 -0.327709 1.43403 0
M  V30 3452 H 321.749 -3.16081 2.72303 0
M  V30 3453 H 320.379 -2.77508 1.64891 0
M  V30 3454 H 319.431 -1.30676 3.57251 0
M  V30 3455 H 320.743 -1.91788 4.60455 0
M  V30 3456 H 319.897 -4.25671 4.32306 0
M  V30 3457 H 318.636 -3.68537 3.19425 0
M  V30 3458 H 317.641 -2.26526 5.00965 0
M  V30 3459 H 318.866 -2.86589 6.15665 0
M  V30 3460 H 316.812 -4.57448 4.70188 0
M  V30 3461 H 316.729 -4.08385 6.36206 0
M  V30 3462 H 317.997 -5.1555 5.84661 0
M  V30 3463 N 322.226 -1.5378 -0.344866 0
M  V30 3464 C 323.189 -1.80981 -1.40637 0
M  V30 3465 C 324.189 -0.680816 -1.45676 0
M  V30 3466 O 325.379 -0.949095 -1.46075 0
M  V30 3467 C 322.511 -1.95063 -2.79577 0
M  V30 3468 H 323.704 -2.75803 -1.17783 0
M  V30 3469 H 321.257 -1.45173 -0.579181 0
M  V30 3470 H 321.992 -1.02379 -3.07716 0
M  V30 3471 H 321.777 -2.77198 -2.77315 0
M  V30 3472 H 323.267 -2.17629 -3.56409 0
M  V30 3473 N 323.704 0.605807 -1.45491 0
M  V30 3474 C 325.115 1.18777 -1.44045 0
M  V30 3475 C 325.466 1.95471 -0.169001 0
M  V30 3476 O 324.591 2.0374 0.729324 0
M  V30 3477 C 325.186 2.16064 -2.60963 0
M  V30 3478 C 323.745 2.69633 -2.62631 0
M  V30 3479 C 322.892 1.45072 -2.36325 0
M  V30 3480 H 325.843 0.395017 -1.53705 0
M  V30 3481 H 325.864 2.9913 -2.35163 0
M  V30 3482 H 325.376 1.60217 -3.53486 0
M  V30 3483 H 323.477 3.29414 -1.74119 0
M  V30 3484 H 323.59 3.13944 -3.61906 0
M  V30 3485 H 321.954 1.74089 -1.85917 0
M  V30 3486 H 322.737 0.910899 -3.30995 0
M  V30 3487 N 325.182 1.32811 0.848464 0
M  V30 3488 C 326.429 1.23724 1.60308 0
M  V30 3489 C 326.757 -0.1994 1.93475 0
M  V30 3490 O 326.012 -1.15406 1.5805 0
M  V30 3491 C 326.311 2.04831 2.92881 0
M  V30 3492 C 325.977 3.54125 2.79117 0
M  V30 3493 C 324.639 3.94829 2.7507 0
M  V30 3494 C 326.991 4.49036 2.64606 0
M  V30 3495 C 324.319 5.28675 2.544 0
M  V30 3496 C 326.671 5.83033 2.4547 0
M  V30 3497 C 325.335 6.22931 2.39819 0
M  V30 3498 H 324.605 0.452737 0.586609 0
M  V30 3499 H 327.252 1.64301 0.983743 0
M  V30 3500 H 325.557 1.57001 3.58968 0
M  V30 3501 H 327.254 1.95164 3.50303 0
M  V30 3502 H 323.844 3.21801 2.83094 0
M  V30 3503 H 328.028 4.18505 2.66772 0
M  V30 3504 H 323.284 5.58637 2.48465 0
M  V30 3505 H 327.458 6.56186 2.33222 0
M  V30 3506 H 325.085 7.26584 2.23562 0
M  V30 3507 N 326.66 -1.06551 1.16123 0
M  V30 3508 C 327.592 -2.13908 0.823171 0
M  V30 3509 C 328.605 -1.61926 -0.16843 0
M  V30 3510 O 329.794 -1.78412 0.055962 0
M  V30 3511 C 326.894 -3.38283 0.204424 0
M  V30 3512 C 326.067 -4.19589 1.23548 0
M  V30 3513 C 325.126 -5.2233 0.637011 0
M  V30 3514 O 324.152 -5.54034 1.30516 0
M  V30 3515 N 325.354 -5.77621 -0.577474 0
M  V30 3516 H 328.119 -2.43508 1.74711 0
M  V30 3517 H 325.68 -1.2253 1.05821 0
M  V30 3518 H 327.672 -4.0416 -0.208909 0
M  V30 3519 H 326.242 -3.06329 -0.623012 0
M  V30 3520 H 325.462 -3.49406 1.82507 0
M  V30 3521 H 326.75 -4.70718 1.93137 0
M  V30 3522 H 326.148 -5.54125 -1.13853 0
M  V30 3523 H 324.705 -6.45087 -0.933053 0
M  V30 3524 N 328.138 -0.959301 -1.25041 0
M  V30 3525 C 329.101 -0.487677 -2.23952 0
M  V30 3526 C 330.101 0.41119 -1.55454 0
M  V30 3527 O 331.291 0.207825 -1.72956 0
M  V30 3528 C 328.423 0.294807 -3.39623 0
M  V30 3529 H 329.616 -1.36198 -2.67189 0
M  V30 3530 H 327.169 -0.743042 -1.37508 0
M  V30 3531 H 327.904 1.18658 -3.01813 0
M  V30 3532 H 327.689 -0.35012 -3.90534 0
M  V30 3533 H 329.179 0.614089 -4.1306 0
M  V30 3534 N 329.616 1.39756 -0.72842 0
M  V30 3535 C 330.841 2.05472 -0.282159 0
M  V30 3536 C 331.266 1.54549 1.07221 0
M  V30 3537 O 330.624 0.686372 1.67805 0
M  V30 3538 C 330.672 3.59462 -0.286264 0
M  V30 3539 O 329.776 4.05918 0.728298 0
M  V30 3540 H 329.117 0.651226 -0.129618 0
M  V30 3541 H 331.647 1.78915 -0.992499 0
M  V30 3542 H 331.657 4.07798 -0.128373 0
M  V30 3543 H 330.332 3.95889 -1.27456 0
M  V30 3544 H 328.909 3.69012 0.537081 0
M  V30 3545 N 331.094 0.475555 1.50254 0
M  V30 3546 C 332.319 -0.0777042 2.07254 0
M  V30 3547 C 332.744 -1.3235 1.3366 0
M  V30 3548 O 332.102 -1.77152 0.385597 0
M  V30 3549 C 332.15 -0.340169 3.58992 0
M  V30 3550 O 331.254 -1.41982 3.87188 0
M  V30 3551 H 330.595 0.0149556 0.663832 0
M  V30 3552 H 333.125 0.667878 1.93392 0
M  V30 3553 H 333.135 -0.579332 4.03866 0
M  V30 3554 H 331.81 0.570167 4.11973 0
M  V30 3555 H 330.387 -1.16762 3.54148 0
M  V30 3556 N 332.573 -1.56217 0.208337 0
M  V30 3557 C 333.984 -1.84243 -0.301904 0
M  V30 3558 C 334.335 -1.12939 -1.60434 0
M  V30 3559 O 333.46 -0.39461 -2.12772 0
M  V30 3560 C 334.055 -3.34231 -0.554543 0
M  V30 3561 C 332.614 -3.62621 -1.00912 0
M  V30 3562 C 331.761 -2.77224 -0.064933 0
M  V30 3563 H 334.712 -1.52712 0.431833 0
M  V30 3564 H 334.733 -3.5372 -1.40223 0
M  V30 3565 H 334.245 -3.86099 0.393561 0
M  V30 3566 H 332.346 -3.16197 -1.97104 0
M  V30 3567 H 332.459 -4.7071 -0.892674 0
M  V30 3568 H 330.823 -2.48256 -0.56929 0
M  V30 3569 H 331.606 -3.31887 0.877851 0
M  V30 3570 N 334.051 0.0651679 -1.57465 0
M  V30 3571 C 334.983 1.10359 -2.00882 0
M  V30 3572 C 335.996 1.346 -0.915788 0
M  V30 3573 O 337.185 1.32723 -1.1936 0
M  V30 3574 C 334.285 2.45312 -2.33828 0
M  V30 3575 C 333.458 2.40934 -3.65061 0
M  V30 3576 C 332.517 3.58047 -3.85602 0
M  V30 3577 O 331.543 3.39175 -4.57109 0
M  V30 3578 N 332.745 4.78637 -3.28462 0
M  V30 3579 H 335.51 0.733807 -2.90578 0
M  V30 3580 H 333.071 0.253719 -1.599 0
M  V30 3581 H 335.063 3.22314 -2.44737 0
M  V30 3582 H 333.633 2.74267 -1.49988 0
M  V30 3583 H 332.853 1.49273 -3.64844 0
M  V30 3584 H 334.141 2.35117 -4.51218 0
M  V30 3585 H 333.539 4.96872 -2.70433 0
M  V30 3586 H 332.096 5.53127 -3.44809 0
M  V30 3587 N 335.529 1.53961 0.336706 0
M  V30 3588 C 336.806 1.62171 1.09361 0
M  V30 3589 C 337.186 0.447263 2.06307 0
M  V30 3590 O 336.534 -0.559802 2.21537 0
M  V30 3591 C 336.744 2.98565 1.80721 0
M  V30 3592 C 338.092 3.54157 2.34218 0
M  V30 3593 O 339.116 3.00784 1.90807 0
M  V30 3594 O 337.975 4.47528 3.13657 0
M  V30 3595 H 335.069 0.6562 0.503319 0
M  V30 3596 H 337.615 1.66307 0.33765 0
M  V30 3597 H 336.387 3.75482 1.10132 0
M  V30 3598 H 336.01 2.9805 2.63158 0
M  V30 3599 N 337.007 -0.598083 1.45811 0
M  V30 3600 C 337.937 -1.71873 1.58057 0
M  V30 3601 C 338.918 -1.64533 0.431615 0
M  V30 3602 O 340.103 -1.82787 0.65595 0
M  V30 3603 C 337.233 -3.10495 1.55597 0
M  V30 3604 C 336.187 -3.32654 2.69305 0
M  V30 3605 C 335.513 -4.71646 2.51902 0
M  V30 3606 C 336.813 -3.21981 4.11248 0
M  V30 3607 H 338.507 -1.61881 2.51863 0
M  V30 3608 H 336.053 -0.777372 1.21214 0
M  V30 3609 H 338.006 -3.88699 1.6276 0
M  V30 3610 H 336.73 -3.2135 0.583255 0
M  V30 3611 H 335.389 -2.56843 2.61586 0
M  V30 3612 H 335.037 -4.79246 1.52748 0
M  V30 3613 H 334.737 -4.87426 3.2816 0
M  V30 3614 H 336.261 -5.52038 2.60933 0
M  V30 3615 H 337.675 -3.90049 4.20161 0
M  V30 3616 H 336.072 -3.49289 4.87972 0
M  V30 3617 H 337.142 -2.1928 4.32486 0
M  V30 3618 N 338.485 -1.33259 -0.841409 0
M  V30 3619 C 339.901 -1.12538 -1.13169 0
M  V30 3620 C 340.101 0.0854037 -2.01319 0
M  V30 3621 O 339.157 0.766417 -2.40587 0
M  V30 3622 C 340.47 -2.41156 -1.79623 0
M  V30 3623 C 342.018 -2.47038 -1.922 0
M  V30 3624 C 342.493 -3.7561 -2.6207 0
M  V30 3625 N 343.984 -3.76667 -2.69585 0
M  V30 3626 C 344.719 -4.72861 -3.2433 0
M  V30 3627 N 344.215 -5.79428 -3.79783 0
M  V30 3628 N 346.008 -4.6034 -3.22558 0
M  V30 3629 H 338.159 -2.10868 -0.254676 0
M  V30 3630 H 340.422 -0.931615 -0.175493 0
M  V30 3631 H 340.128 -3.29747 -1.22311 0
M  V30 3632 H 340.002 -2.53114 -2.79666 0
M  V30 3633 H 342.389 -1.58898 -2.48667 0
M  V30 3634 H 342.47 -2.39022 -0.911148 0
M  V30 3635 H 342.114 -4.64131 -2.06263 0
M  V30 3636 H 342.044 -3.80902 -3.63622 0
M  V30 3637 H 344.535 -2.99648 -2.30259 0
M  V30 3638 H 344.848 -6.48867 -4.19752 0
M  V30 3639 H 343.193 -5.83166 -3.78078 0
M  V30 3640 H 346.384 -3.76244 -2.78492 0
M  V30 3641 H 346.557 -5.35478 -3.64921 0
M  V30 3642 N 339.963 1.05934 -1.16686 0
M  V30 3643 C 340.893 2.1546 -0.899949 0
M  V30 3644 C 341.874 1.69391 0.155154 0
M  V30 3645 O 343.059 1.94199 0.00648693 0
M  V30 3646 C 340.189 3.44939 -0.404241 0
M  V30 3647 C 339.143 4.04536 -1.39767 0
M  V30 3648 C 338.469 5.29268 -0.760216 0
M  V30 3649 C 339.769 4.42893 -2.76845 0
M  V30 3650 H 341.463 2.38046 -1.81588 0
M  V30 3651 H 339.009 1.14404 -0.874514 0
M  V30 3652 H 340.962 4.20901 -0.204971 0
M  V30 3653 H 339.686 3.21983 0.547206 0
M  V30 3654 H 338.345 3.30635 -1.58355 0
M  V30 3655 H 337.993 5.02611 0.197831 0
M  V30 3656 H 337.693 5.70101 -1.42332 0
M  V30 3657 H 339.217 6.07924 -0.57105 0
M  V30 3658 H 340.631 5.09921 -2.62019 0
M  V30 3659 H 339.028 4.94721 -3.39663 0
M  V30 3660 H 340.098 3.53584 -3.31823 0
M  V30 3661 N 341.441 0.965919 1.2453 0
M  V30 3662 C 342.688 0.626831 1.92554 0
M  V30 3663 C 343.016 -0.837739 1.75534 0
M  V30 3664 O 342.271 -1.61793 1.10098 0
M  V30 3665 C 342.57 0.945428 3.44669 0
M  V30 3666 C 342.236 2.39785 3.81856 0
M  V30 3667 C 340.898 2.79483 3.91718 0
M  V30 3668 C 343.25 3.34055 4.00071 0
M  V30 3669 C 340.578 4.12496 4.1721 0
M  V30 3670 C 342.93 4.66694 4.27059 0
M  V30 3671 C 341.594 5.06172 4.3514 0
M  V30 3672 H 340.864 0.229374 0.704605 0
M  V30 3673 H 343.511 1.21707 1.4785 0
M  V30 3674 H 341.816 0.272926 3.90848 0
M  V30 3675 H 343.513 0.661484 3.95507 0
M  V30 3676 H 340.103 2.08003 3.74743 0
M  V30 3677 H 344.287 3.04571 3.91855 0
M  V30 3678 H 339.543 4.42709 4.21685 0
M  V30 3679 H 343.717 5.3971 4.40097 0
M  V30 3680 H 341.344 6.09262 4.54646 0
M  V30 3681 N 342.919 -1.39368 0.735821 0
M  V30 3682 C 344.149 -2.04498 0.293967 0
M  V30 3683 C 344.557 -1.55593 -1.07645 0
M  V30 3684 O 343.9 -0.716324 -1.69158 0
M  V30 3685 C 343.962 -3.58836 0.218342 0
M  V30 3686 C 343.626 -4.30721 1.52736 0
M  V30 3687 C 344.623 -4.57305 2.47322 0
M  V30 3688 C 342.308 -4.69251 1.79189 0
M  V30 3689 C 344.302 -5.21429 3.66593 0
M  V30 3690 C 341.989 -5.33104 2.98737 0
M  V30 3691 C 342.987 -5.59125 3.9226 0
M  V30 3692 O 342.675 -6.21653 5.09708 0
M  V30 3693 H 342.407 -0.664118 0.126189 0
M  V30 3694 H 344.961 -1.79385 1.00051 0
M  V30 3695 H 343.191 -3.8285 -0.544314 0
M  V30 3696 H 344.88 -4.05447 -0.191626 0
M  V30 3697 H 345.646 -4.27983 2.28156 0
M  V30 3698 H 341.525 -4.48354 1.07239 0
M  V30 3699 H 345.069 -5.41656 4.39607 0
M  V30 3700 H 340.966 -5.61846 3.17803 0
M  V30 3701 H 341.734 -6.40146 5.10054 0
M  V30 3702 N 344.397 -0.483516 -1.5 0
M  V30 3703 C 345.307 0.309172 -2.32554 0
M  V30 3704 C 346.323 0.984159 -1.43493 0
M  V30 3705 O 347.499 0.969399 -1.76535 0
M  V30 3706 C 344.564 1.36979 -3.18493 0
M  V30 3707 C 343.625 0.710095 -4.23387 0
M  V30 3708 C 342.858 1.72018 -5.05218 0
M  V30 3709 O 343.081 2.94813 -4.88305 0
M  V30 3710 O 342.015 1.28515 -5.8802 0
M  V30 3711 H 345.841 -0.366064 -3.01486 0
M  V30 3712 H 343.426 -0.24514 -1.47375 0
M  V30 3713 H 345.308 1.98385 -3.71781 0
M  V30 3714 H 343.983 2.02828 -2.52275 0
M  V30 3715 H 342.89 0.0567539 -3.74057 0
M  V30 3716 H 344.223 0.0943557 -4.9211 0
M  V30 3717 N 345.875 1.56104 -0.216619 0
M  V30 3718 C 346.822 2.2007 0.695531 0
M  V30 3719 C 347.792 1.15471 1.19397 0
M  V30 3720 O 348.977 1.43807 1.25396 0
M  V30 3721 C 346.117 2.88073 1.90021 0
M  V30 3722 C 345.23 4.07253 1.44113 0
M  V30 3723 C 344.365 4.63052 2.603 0
M  V30 3724 C 343.404 5.74545 2.11103 0
M  V30 3725 N 342.541 6.24656 3.20545 0
M  V30 3726 H 347.381 2.97655 0.143327 0
M  V30 3727 H 344.918 1.46982 0.0589934 0
M  V30 3728 H 346.876 3.25681 2.60745 0
M  V30 3729 H 345.506 2.13015 2.42538 0
M  V30 3730 H 344.558 3.75164 0.628999 0
M  V30 3731 H 345.87 4.8783 1.04036 0
M  V30 3732 H 345.024 5.03078 3.39113 0
M  V30 3733 H 343.763 3.81628 3.03663 0
M  V30 3734 H 342.768 5.34027 1.3075 0
M  V30 3735 H 343.993 6.57801 1.68746 0
M  V30 3736 H 341.939 5.46148 3.63399 0
M  V30 3737 H 341.856 7.00343 2.84704 0
M  V30 3738 H 343.124 6.69338 3.99508 0
M  V30 3739 N 347.353 -0.0568162 1.57498 0
M  V30 3740 C 348.301 -1.08452 2.05769 0
M  V30 3741 C 349.295 -1.39164 0.965903 0
M  V30 3742 O 350.501 -1.38395 1.15095 0
M  V30 3743 H 346.876 -0.367148 0.656282 0
M  V30 3744 H 348.847 -0.651368 2.91204 0
M  V30 3745 C 347.596 -2.38543 2.52968 0
M  V30 3746 H 346.919 -2.15765 3.36579 0
M  V30 3747 H 348.359 -3.08863 2.90481 0
M  V30 3748 C 346.818 -3.05562 1.41893 0
M  V30 3749 O 347.348 -3.94262 0.769442 0
M  V30 3750 N 345.554 -2.6643 1.16032 0
M  V30 3751 H 345.101 -1.94387 1.6903 0
M  V30 3752 H 345.059 -3.11593 0.419219 0
M  V30 3753 N 348.832 -1.54138 -0.328536 0
M  V30 3754 C 349.779 -1.83176 -1.40411 0
M  V30 3755 C 350.749 -0.678494 -1.5161 0
M  V30 3756 O 351.934 -0.92443 -1.6691 0
M  V30 3757 C 349.074 -2.06035 -2.76846 0
M  V30 3758 C 348.187 -3.33727 -2.74318 0
M  V30 3759 C 347.322 -3.46574 -4.02567 0
M  V30 3760 C 346.361 -4.68159 -3.94327 0
M  V30 3761 N 345.498 -4.77959 -5.14296 0
M  V30 3762 H 350.338 -2.74938 -1.14948 0
M  V30 3763 H 347.875 -1.36166 -0.556538 0
M  V30 3764 H 349.833 -2.1728 -3.56153 0
M  V30 3765 H 348.463 -1.1757 -3.00628 0
M  V30 3766 H 347.515 -3.31246 -1.8703 0
M  V30 3767 H 348.827 -4.23139 -2.64111 0
M  V30 3768 H 347.981 -3.57333 -4.90304 0
M  V30 3769 H 346.72 -2.55245 -4.15574 0
M  V30 3770 H 345.725 -4.57461 -3.04974 0
M  V30 3771 H 346.95 -5.60868 -3.82889 0
M  V30 3772 H 344.896 -3.89544 -5.27818 0
M  V30 3773 H 344.813 -5.6133 -5.06404 0
M  V30 3774 H 346.081 -4.93044 -6.03761 0
M  V30 3775 N 350.31 0.590341 -1.46126 0
M  V30 3776 C 351.538 1.37504 -1.54597 0
M  V30 3777 C 351.953 1.87897 -0.184447 0
M  V30 3778 O 351.31 1.63192 0.816984 0
M  V30 3779 C 351.361 2.56779 -2.54454 0
M  V30 3780 O 351.082 2.08476 -3.85317 0
M  V30 3781 C 352.583 3.49427 -2.72792 0
M  V30 3782 H 349.803 0.420325 -0.523037 0
M  V30 3783 H 352.347 0.718383 -1.91467 0
M  V30 3784 H 350.502 3.1845 -2.20609 0
M  V30 3785 H 350.916 2.86097 -4.396 0
M  V30 3786 H 352.39 4.29619 -3.466 0
M  V30 3787 H 352.867 4.00876 -1.79429 0
M  V30 3788 H 353.473 2.93598 -3.07702 0
M  V30 3789 N 351.788 1.33704 0.83433 0
M  V30 3790 C 352.718 1.26967 1.95963 0
M  V30 3791 C 353.699 0.149337 1.69443 0
M  V30 3792 O 354.884 0.339852 1.91203 0
M  V30 3793 C 352.014 1.01275 3.32206 0
M  V30 3794 C 350.968 2.09652 3.73136 0
M  V30 3795 C 350.294 1.69166 5.07235 0
M  V30 3796 C 351.594 3.51372 3.86439 0
M  V30 3797 H 353.288 2.2112 2.01857 0
M  V30 3798 H 350.834 1.06447 0.969793 0
M  V30 3799 H 352.787 0.952106 4.10503 0
M  V30 3800 H 351.511 0.0356203 3.26581 0
M  V30 3801 H 350.17 2.14766 2.97104 0
M  V30 3802 H 349.818 0.701437 4.98085 0
M  V30 3803 H 349.518 2.41694 5.35591 0
M  V30 3804 H 351.042 1.64576 5.88003 0
M  V30 3805 H 352.456 3.48734 4.55036 0
M  V30 3806 H 350.853 4.22425 4.26236 0
M  V30 3807 H 351.923 3.89546 2.88759 0
M  V30 3808 N 353.266 -1.05314 1.17247 0
M  V30 3809 C 354.512 -1.78557 0.961513 0
M  V30 3810 C 354.845 -1.87419 -0.508697 0
M  V30 3811 O 354.12 -1.37307 -1.37757 0
M  V30 3812 C 354.403 -3.22514 1.60176 0
M  V30 3813 C 354.256 -3.21673 3.14399 0
M  V30 3814 C 355.575 -4.20318 1.30463 0
M  V30 3815 H 352.694 -0.6482 0.350723 0
M  V30 3816 H 355.336 -1.23102 1.44727 0
M  V30 3817 H 353.486 -3.69867 1.18871 0
M  V30 3818 H 355.158 -2.82405 3.64753 0
M  V30 3819 H 353.401 -2.60048 3.47214 0
M  V30 3820 H 354.072 -4.23271 3.54324 0
M  V30 3821 H 356.548 -3.81454 1.66229 0
M  V30 3822 H 355.424 -5.19289 1.77848 0
M  V30 3823 H 355.685 -4.41526 0.22521 0
M  V30 3824 N 354.744 -0.972509 -1.24016 0
M  V30 3825 C 356.155 -0.67517 -1.74064 0
M  V30 3826 C 356.506 0.808939 -1.78747 0
M  V30 3827 O 355.631 1.63286 -1.42009 0
M  V30 3828 C 356.226 -1.21889 -3.16115 0
M  V30 3829 C 354.785 -0.971358 -3.6365 0
M  V30 3830 C 353.932 -1.35134 -2.42145 0
M  V30 3831 H 356.883 -1.14727 -1.09651 0
M  V30 3832 H 356.904 -0.587489 -3.75937 0
M  V30 3833 H 356.416 -2.29906 -3.12674 0
M  V30 3834 H 354.517 0.0930686 -3.72484 0
M  V30 3835 H 354.63 -1.62039 -4.50866 0
M  V30 3836 H 352.994 -0.769751 -2.4279 0
M  V30 3837 H 353.777 -2.4411 -2.41381 0
M  V30 3838 N 356.222 1.38976 -0.743202 0
M  V30 3839 C 357.45 2.04636 -0.30525 0
M  V30 3840 C 357.865 1.56044 1.06281 0
M  V30 3841 O 357.222 0.728921 1.67311 0
M  V30 3842 C 357.273 3.60193 -0.307177 0
M  V30 3843 O 356.994 4.06998 -1.62124 0
M  V30 3844 C 358.495 4.4306 0.145928 0
M  V30 3845 H 355.715 0.65788 -0.132041 0
M  V30 3846 H 358.259 1.77866 -1.00915 0
M  V30 3847 H 356.414 3.85835 0.347898 0
M  V30 3848 H 356.828 5.01371 -1.54036 0
M  V30 3849 H 358.302 5.51921 0.0934183 0
M  V30 3850 H 358.779 4.22706 1.19231 0
M  V30 3851 H 359.385 4.22584 -0.479886 0
M  V30 3852 N 357.7 0.491464 1.49741 0
M  V30 3853 C 358.949 -0.0582189 2.01616 0
M  V30 3854 C 359.262 -1.38927 1.3769 0
M  V30 3855 O 360.468 -2.02509 1.80838 0
M  V30 3856 C 358.924 -0.154235 3.59569 0
M  V30 3857 C 358.532 1.1696 4.32463 0
M  V30 3858 C 360.276 -0.65479 4.1942 0
M  V30 3859 C 358.183 1.03627 5.8225 0
M  V30 3860 H 357.113 -0.0255317 0.753568 0
M  V30 3861 H 359.764 0.629445 1.72367 0
M  V30 3862 H 358.146 -0.906138 3.85493 0
M  V30 3863 H 359.32 1.93405 4.18248 0
M  V30 3864 H 357.635 1.60285 3.84315 0
M  V30 3865 H 360.232 -0.771903 5.29099 0
M  V30 3866 H 360.575 -1.65127 3.8215 0
M  V30 3867 H 361.108 0.040304 3.9778 0
M  V30 3868 H 357.847 2.00672 6.24028 0
M  V30 3869 H 357.367 0.312546 5.98985 0
M  V30 3870 H 359.046 0.711114 6.4308 0
M  V30 3871 N 359.178 -1.55987 0.224894 0
M  V30 3872 C 360.589 -1.84553 -0.282345 0
M  V30 3873 C 360.94 -1.14634 -1.59227 0
M  V30 3874 O 360.065 -0.417155 -2.12341 0
M  V30 3875 C 360.66 -3.348 -0.519062 0
M  V30 3876 C 359.219 -3.63671 -0.970604 0
M  V30 3877 C 358.366 -2.77277 -0.0355261 0
M  V30 3878 H 361.317 -1.52245 0.448006 0
M  V30 3879 H 361.338 -3.55187 -1.36463 0
M  V30 3880 H 360.85 -3.8566 0.43449 0
M  V30 3881 H 358.951 -3.1827 -1.9374 0
M  V30 3882 H 359.064 -4.71631 -0.842698 0
M  V30 3883 H 357.428 -2.48846 -0.542927 0
M  V30 3884 H 358.211 -3.30937 0.913003 0
M  V30 3885 N 360.656 0.0484629 -1.57525 0
M  V30 3886 C 362.072 0.40375 -1.54409 0
M  V30 3887 C 362.272 1.77786 -0.948384 0
M  V30 3888 O 361.328 2.46189 -0.560983 0
M  V30 3889 C 362.641 0.323394 -2.98956 0
M  V30 3890 C 364.189 0.401892 -3.10409 0
M  V30 3891 C 364.664 0.351195 -4.56652 0
M  V30 3892 N 366.155 0.410576 -4.61377 0
M  V30 3893 C 366.89 0.393933 -5.72045 0
M  V30 3894 N 366.386 0.330724 -6.9201 0
M  V30 3895 N 368.179 0.442227 -5.60358 0
M  V30 3896 H 360.33 -0.851016 -1.94606 0
M  V30 3897 H 362.593 -0.321721 -0.89174 0
M  V30 3898 H 362.299 -0.62011 -3.4619 0
M  V30 3899 H 362.173 1.12463 -3.60044 0
M  V30 3900 H 364.56 1.33582 -2.63134 0
M  V30 3901 H 364.641 -0.428342 -2.52188 0
M  V30 3902 H 364.285 -0.578987 -5.04589 0
M  V30 3903 H 364.215 1.19928 -5.12762 0
M  V30 3904 H 366.706 0.462729 -3.75056 0
M  V30 3905 H 367.019 0.322592 -7.72126 0
M  V30 3906 H 365.364 0.29706 -6.94365 0
M  V30 3907 H 368.555 0.489464 -4.65534 0
M  V30 3908 H 368.728 0.425788 -6.466 0
M  V30 3909 N 362.134 1.5431 0.320358 0
M  V30 3910 C 363.044 1.86946 1.41734 0
M  V30 3911 C 364.06 0.761689 1.56443 0
M  V30 3912 O 365.236 1.05629 1.71477 0
M  V30 3913 C 362.301 2.09293 2.76401 0
M  V30 3914 C 361.362 3.33082 2.70841 0
M  V30 3915 C 360.595 3.54353 3.99086 0
M  V30 3916 O 360.818 2.79002 4.97508 0
M  V30 3917 O 359.752 4.47838 4.0215 0
M  V30 3918 H 363.578 2.80232 1.17062 0
M  V30 3919 H 361.163 1.40255 0.514673 0
M  V30 3920 H 363.045 2.25303 3.56113 0
M  V30 3921 H 361.72 1.19194 3.00956 0
M  V30 3922 H 360.627 3.22454 1.89668 0
M  V30 3923 H 361.96 4.23249 2.5124 0
M  V30 3924 N 363.613 -0.582584 1.46437 0
M  V30 3925 C 364.841 -1.36682 1.55324 0
M  V30 3926 C 365.256 -1.87796 0.194409 0
M  V30 3927 O 364.613 -1.63623 -0.808318 0
M  V30 3928 C 364.664 -2.55426 2.55812 0
M  V30 3929 O 364.385 -2.0643 3.86417 0
M  V30 3930 C 365.886 -3.47976 2.74641 0
M  V30 3931 H 363.106 -0.417545 0.525259 0
M  V30 3932 H 365.65 -0.708219 1.91845 0
M  V30 3933 H 363.805 -3.17275 2.22295 0
M  V30 3934 H 364.219 -2.83762 4.41111 0
M  V30 3935 H 365.693 -4.27775 3.48874 0
M  V30 3936 H 366.17 -3.99919 1.81553 0
M  V30 3937 H 366.776 -2.91962 3.09255 0
M  V30 3938 N 365.091 -1.34144 -0.827227 0
M  V30 3939 C 366.316 -1.29476 -1.62021 0
M  V30 3940 C 366.741 0.129292 -1.87655 0
M  V30 3941 O 366.099 1.08967 -1.449 0
M  V30 3942 C 366.147 -2.08702 -2.94068 0
M  V30 3943 O 365.251 -1.45359 -3.85933 0
M  V30 3944 H 364.592 -0.444881 -0.492927 0
M  V30 3945 H 367.122 -1.76882 -1.02829 0
M  V30 3946 H 367.132 -2.19898 -3.43669 0
M  V30 3947 H 365.807 -3.12241 -2.74734 0
M  V30 3948 H 364.384 -1.42879 -3.44442 0
M  V30 3949 N 366.569 1.04691 -1.17803 0
M  V30 3950 C 367.532 2.10724 -0.901545 0
M  V30 3951 C 368.532 1.6042 0.110437 0
M  V30 3952 O 369.722 1.7377 -0.122303 0
M  V30 3953 C 366.854 3.39084 -0.351409 0
M  V30 3954 H 368.047 2.36686 -1.84174 0
M  V30 3955 H 365.6 1.21015 -0.98919 0
M  V30 3956 H 366.335 3.18782 0.59569 0
M  V30 3957 H 366.12 3.76909 -1.08083 0
M  V30 3958 H 367.61 4.17227 -0.176451 0
M  V30 3959 N 368.047 0.979072 1.23499 0
M  V30 3960 C 369.458 0.684391 1.73704 0
M  V30 3961 C 369.809 -0.799448 1.79174 0
M  V30 3962 O 368.934 -1.62531 1.42873 0
M  V30 3963 C 369.529 1.23564 3.15464 0
M  V30 3964 C 368.088 0.99063 3.6313 0
M  V30 3965 C 367.235 1.36416 2.41425 0
M  V30 3966 H 370.186 1.15307 1.09041 0
M  V30 3967 H 370.207 0.607417 3.7562 0
M  V30 3968 H 369.719 2.31561 3.1145 0
M  V30 3969 H 367.82 -0.0733136 3.72528 0
M  V30 3970 H 367.933 1.64427 4.5 0
M  V30 3971 H 366.297 0.782616 2.42378 0
M  V30 3972 H 367.08 2.45387 2.40083 0
M  V30 3973 N 369.525 -1.3858 0.750561 0
M  V30 3974 C 370.455 -2.33102 0.136237 0
M  V30 3975 C 371.436 -1.54713 -0.706965 0
M  V30 3976 O 372.621 -1.83043 -0.648769 0
M  V30 3977 C 369.751 -3.38882 -0.760017 0
M  V30 3978 C 368.705 -4.27995 -0.0197785 0
M  V30 3979 C 368.031 -5.24605 -1.03408 0
M  V30 3980 C 369.331 -5.09554 1.14684 0
M  V30 3981 H 371.025 -2.84726 0.925822 0
M  V30 3982 H 368.571 -1.36898 0.446654 0
M  V30 3983 H 370.524 -4.0397 -1.19943 0
M  V30 3984 H 369.248 -2.85734 -1.58189 0
M  V30 3985 H 367.907 -3.64409 0.400184 0
M  V30 3986 H 367.555 -4.67746 -1.84994 0
M  V30 3987 H 367.255 -5.85081 -0.543464 0
M  V30 3988 H 368.779 -5.9257 -1.47288 0
M  V30 3989 H 370.193 -5.67899 0.785118 0
M  V30 3990 H 368.59 -5.7925 1.56812 0
M  V30 3991 H 369.66 -4.4347 1.96118 0
M  V30 3992 N 371.003 -0.499398 -1.49478 0
M  V30 3993 C 372.419 -0.155261 -1.58843 0
M  V30 3994 C 372.619 1.34008 -1.50479 0
M  V30 3995 O 371.675 2.11589 -1.37791 0
M  V30 3996 C 372.988 -0.730636 -2.91689 0
M  V30 3997 C 374.536 -0.696599 -3.0515 0
M  V30 3998 C 375.011 -1.25001 -4.40612 0
M  V30 3999 N 376.502 -1.21064 -4.47099 0
M  V30 4000 C 377.237 -1.60905 -5.50361 0
M  V30 4001 N 376.733 -2.08331 -6.60735 0
M  V30 4002 N 378.526 -1.52331 -5.41065 0
M  V30 4003 H 370.677 -1.47162 -1.53158 0
M  V30 4004 H 372.94 -0.610309 -0.725415 0
M  V30 4005 H 372.646 -1.77928 -3.03372 0
M  V30 4006 H 372.52 -0.190161 -3.7672 0
M  V30 4007 H 374.907 0.343204 -2.93097 0
M  V30 4008 H 374.988 -1.2742 -2.21806 0
M  V30 4009 H 374.632 -2.28859 -4.53416 0
M  V30 4010 H 374.562 -0.64836 -5.22593 0
M  V30 4011 H 377.053 -0.863128 -3.67911 0
M  V30 4012 H 377.366 -2.36805 -7.35624 0
M  V30 4013 H 375.711 -2.12304 -6.6178 0
M  V30 4014 H 378.902 -1.151 -4.53729 0
M  V30 4015 H 379.075 -1.83704 -6.21415 0
M  V30 4016 N 372.481 1.55866 -0.233164 0
M  V30 4017 C 373.413 2.18099 0.704668 0
M  V30 4018 C 374.426 1.15334 1.14899 0
M  V30 4019 O 375.615 1.42262 1.07814 0
M  V30 4020 C 372.715 2.7592 1.96777 0
M  V30 4021 C 371.888 4.03969 1.67713 0
M  V30 4022 C 370.947 4.46242 2.78845 0
M  V30 4023 O 369.973 5.12903 2.46818 0
M  V30 4024 N 371.175 4.12886 4.08051 0
M  V30 4025 H 373.94 2.99205 0.172258 0
M  V30 4026 H 371.501 1.61815 -0.0525945 0
M  V30 4027 H 373.493 3.01165 2.70337 0
M  V30 4028 H 372.063 1.99051 2.41034 0
M  V30 4029 H 371.283 3.86459 0.777391 0
M  V30 4030 H 372.571 4.8748 1.4574 0
M  V30 4031 H 371.969 3.59342 4.3691 0
M  V30 4032 H 370.526 4.42997 4.78118 0
M  V30 4033 N 373.959 -0.0401083 1.57549 0
M  V30 4034 C 374.889 -1.04384 2.08869 0
M  V30 4035 C 375.87 -1.38407 0.988817 0
M  V30 4036 O 377.055 -1.47483 1.26342 0
M  V30 4037 C 374.185 -2.34808 2.55895 0
M  V30 4038 C 373.139 -2.15057 3.70047 0
M  V30 4039 C 372.465 -3.51145 4.03239 0
M  V30 4040 C 373.765 -1.54576 4.98902 0
M  V30 4041 H 375.459 -0.616666 2.92981 0
M  V30 4042 H 373.005 -0.295184 1.40942 0
M  V30 4043 H 374.958 -3.05346 2.90417 0
M  V30 4044 H 373.682 -2.79565 1.68853 0
M  V30 4045 H 372.341 -1.46954 3.35857 0
M  V30 4046 H 371.989 -3.93529 3.13279 0
M  V30 4047 H 371.689 -3.38758 4.80122 0
M  V30 4048 H 373.213 -4.23062 4.40285 0
M  V30 4049 H 374.627 -2.15017 5.31451 0
M  V30 4050 H 373.024 -1.52796 5.80322 0
M  V30 4051 H 374.094 -0.51039 4.82206 0
M  V30 4052 N 375.437 -1.54477 -0.31217 0
M  V30 4053 C 376.367 -1.87652 -1.38957 0
M  V30 4054 C 377.348 -0.734358 -1.53431 0
M  V30 4055 O 378.533 -0.98911 -1.67123 0
M  V30 4056 C 375.663 -2.11396 -2.75552 0
M  V30 4057 C 374.617 -3.27243 -2.75855 0
M  V30 4058 C 373.943 -3.36382 -4.15633 0
M  V30 4059 C 375.243 -4.64622 -2.38587 0
M  V30 4060 H 376.937 -2.77887 -1.11442 0
M  V30 4061 H 374.483 -1.33707 -0.534655 0
M  V30 4062 H 376.436 -2.33189 -3.51 0
M  V30 4063 H 375.16 -1.17921 -3.04569 0
M  V30 4064 H 373.819 -3.05356 -2.02863 0
M  V30 4065 H 373.467 -2.40445 -4.41809 0
M  V30 4066 H 373.167 -4.14249 -4.1674 0
M  V30 4067 H 374.691 -3.60422 -4.92877 0
M  V30 4068 H 376.105 -4.86219 -3.03749 0
M  V30 4069 H 374.502 -5.45121 -2.50925 0
M  V30 4070 H 375.572 -4.66097 -1.33723 0
M  V30 4071 N 376.915 0.57481 -1.46744 0
M  V30 4072 C 377.845 1.69337 -1.60771 0
M  V30 4073 C 378.826 1.63825 -0.457736 0
M  V30 4074 O 380.011 1.8172 -0.684947 0
M  V30 4075 C 377.141 3.0798 -1.60517 0
M  V30 4076 C 376.095 3.28327 -2.74564 0
M  V30 4077 C 375.421 4.67578 -2.59373 0
M  V30 4078 C 376.721 3.15398 -4.16319 0
M  V30 4079 H 378.415 1.57853 -2.54407 0
M  V30 4080 H 375.961 0.75799 -1.22436 0
M  V30 4081 H 377.914 3.86061 -1.68923 0
M  V30 4082 H 376.638 3.20381 -0.634305 0
M  V30 4083 H 375.297 2.52649 -2.65639 0
M  V30 4084 H 374.945 4.76755 -1.60353 0
M  V30 4085 H 374.645 4.82144 -3.35873 0
M  V30 4086 H 376.169 5.47817 -2.69682 0
M  V30 4087 H 377.583 3.83315 -4.26313 0
M  V30 4088 H 375.98 3.41482 -4.93468 0
M  V30 4089 H 377.05 2.12372 -4.3592 0
M  V30 4090 N 378.394 1.34581 0.820102 0
M  V30 4091 C 379.357 1.2628 1.91275 0
M  V30 4092 C 380.357 0.177344 1.59819 0
M  V30 4093 O 381.547 0.430156 1.68806 0
M  V30 4094 C 378.679 0.950327 3.27386 0
M  V30 4095 H 379.872 2.23421 2.00057 0
M  V30 4096 H 377.425 1.1891 1.0144 0
M  V30 4097 H 378.16 -0.0177938 3.24295 0
M  V30 4098 H 377.945 1.73549 3.51601 0
M  V30 4099 H 379.435 0.917492 4.07396 0
M  V30 4100 N 379.872 -1.04064 1.18357 0
M  V30 4101 C 380.802 -2.14001 0.934113 0
M  V30 4102 C 381.783 -1.69616 -0.128186 0
M  V30 4103 O 382.968 -1.94185 0.0244093 0
M  V30 4104 C 380.098 -3.44253 0.459066 0
M  V30 4105 C 379.052 -4.02261 1.46185 0
M  V30 4106 C 378.378 -5.27992 0.844322 0
M  V30 4107 C 379.678 -4.38432 2.83856 0
M  V30 4108 H 381.372 -2.35127 1.85352 0
M  V30 4109 H 378.918 -1.12998 0.892604 0
M  V30 4110 H 380.871 -4.20522 0.271907 0
M  V30 4111 H 379.595 -3.22813 -0.495912 0
M  V30 4112 H 378.254 -3.28074 1.63595 0
M  V30 4113 H 377.902 -5.02862 -0.117845 0
M  V30 4114 H 377.602 -5.67765 1.51384 0
M  V30 4115 H 379.126 -6.06938 0.667693 0
M  V30 4116 H 380.54 -5.05688 2.70098 0
M  V30 4117 H 378.937 -4.89254 3.47491 0
M  V30 4118 H 380.007 -3.4826 3.37406 0
M  V30 4119 N 381.35 -0.985608 -1.22978 0
M  V30 4120 C 382.28 -0.549649 -2.26939 0
M  V30 4121 C 383.261 0.419803 -1.64838 0
M  V30 4122 O 384.446 0.31203 -1.91677 0
M  V30 4123 C 381.576 0.143652 -3.47003 0
M  V30 4124 C 380.53 -0.743606 -4.21491 0
M  V30 4125 C 379.856 0.0822027 -5.34637 0
M  V30 4126 C 381.156 -2.03694 -4.80943 0
M  V30 4127 H 382.85 -1.41862 -2.63658 0
M  V30 4128 H 380.396 -0.683571 -1.26741 0
M  V30 4129 H 382.349 0.459985 -4.18882 0
M  V30 4130 H 381.073 1.04711 -3.09359 0
M  V30 4131 H 379.732 -1.04347 -3.51436 0
M  V30 4132 H 379.38 0.986359 -4.93234 0
M  V30 4133 H 379.08 -0.508377 -5.85397 0
M  V30 4134 H 380.604 0.392797 -6.09335 0
M  V30 4135 H 382.018 -1.78504 -5.44802 0
M  V30 4136 H 380.415 -2.57573 -5.42011 0
M  V30 4137 H 381.485 -2.72042 -4.01399 0
M  V30 4138 N 382.828 1.3818 -0.7579 0
M  V30 4139 C 383.76 2.2901 -0.0932177 0
M  V30 4140 C 384.773 1.47958 0.679136 0
M  V30 4141 O 385.962 1.70773 0.519514 0
M  V30 4142 C 383.062 3.26953 0.89192 0
M  V30 4143 C 382.235 4.37045 0.176303 0
M  V30 4144 C 381.294 5.15148 1.07281 0
M  V30 4145 O 380.32 5.66616 0.541728 0
M  V30 4146 N 381.522 5.28542 2.40049 0
M  V30 4147 H 384.287 2.86694 -0.873303 0
M  V30 4148 H 381.848 1.50007 -0.609054 0
M  V30 4149 H 383.84 3.76083 1.49479 0
M  V30 4150 H 382.41 2.70136 1.57306 0
M  V30 4151 H 381.63 3.89493 -0.607328 0
M  V30 4152 H 382.918 5.07801 -0.318718 0
M  V30 4153 H 382.316 4.88285 2.85647 0
M  V30 4154 H 380.873 5.8103 2.95376 0
M  V30 4155 N 384.306 0.507319 1.49211 0
M  V30 4156 C 385.722 0.163682 1.58758 0
M  V30 4157 C 385.922 -1.33208 1.51188 0
M  V30 4158 O 384.978 -2.10855 1.38911 0
M  V30 4159 C 386.291 0.746095 2.91297 0
M  V30 4160 C 387.839 0.712773 3.04776 0
M  V30 4161 C 388.314 1.27336 4.39943 0
M  V30 4162 N 389.805 1.23433 4.46451 0
M  V30 4163 C 390.54 1.63821 5.495 0
M  V30 4164 N 390.036 2.11832 6.5962 0
M  V30 4165 N 391.829 1.55198 5.4025 0
M  V30 4166 H 383.98 1.47972 1.52375 0
M  V30 4167 H 386.243 0.614147 0.722168 0
M  V30 4168 H 385.949 1.79534 3.02424 0
M  V30 4169 H 385.823 0.210137 3.76614 0
M  V30 4170 H 388.21 -0.327656 2.93275 0
M  V30 4171 H 388.291 1.28595 2.21127 0
M  V30 4172 H 387.935 2.3126 4.52196 0
M  V30 4173 H 387.865 0.676066 5.22242 0
M  V30 4174 H 390.356 0.882627 3.67448 0
M  V30 4175 H 390.669 2.40703 7.34358 0
M  V30 4176 H 389.014 2.1581 6.60644 0
M  V30 4177 H 392.205 1.17505 4.53112 0
M  V30 4178 H 392.378 1.86997 6.20432 0
M  V30 4179 N 385.784 -1.5574 0.241426 0
M  V30 4180 C 386.732 -2.22538 -0.676718 0
M  V30 4181 C 387.726 -1.21117 -1.18436 0
M  V30 4182 O 388.932 -1.39144 -1.14188 0
M  V30 4183 H 385.307 -0.713776 -0.236701 0
M  V30 4184 H 387.278 -2.98264 -0.0901187 0
M  V30 4185 C 386.027 -2.93439 -1.86518 0
M  V30 4186 H 385.35 -3.7125 -1.4837 0
M  V30 4187 H 386.79 -3.43549 -2.48495 0
M  V30 4188 C 385.249 -1.97008 -2.73294 0
M  V30 4189 O 385.779 -1.49965 -3.72657 0
M  V30 4190 N 383.985 -1.64227 -2.39745 0
M  V30 4191 H 383.532 -2.02677 -1.58996 0
M  V30 4192 H 383.49 -0.999708 -2.98083 0
M  V30 4193 N 387.262 0.0317525 -1.57568 0
M  V30 4194 C 388.212 1.04101 -2.02847 0
M  V30 4195 C 389.196 1.3219 -0.917317 0
M  V30 4196 O 390.388 1.31819 -1.18121 0
M  V30 4197 C 387.517 2.34295 -2.5092 0
M  V30 4198 C 386.603 2.09308 -3.68851 0
M  V30 4199 N 386.994 1.5437 -4.81667 0
M  V30 4200 C 385.292 2.39604 -3.76172 0
M  V30 4201 C 385.993 1.45126 -5.63306 0
M  V30 4202 N 384.969 1.92589 -5.08341 0
M  V30 4203 H 388.771 0.610217 -2.87495 0
M  V30 4204 H 386.285 0.238108 -1.60645 0
M  V30 4205 H 388.282 3.07404 -2.81617 0
M  V30 4206 H 386.942 2.78055 -1.67677 0
M  V30 4207 H 387.953 1.22678 -5.03161 0
M  V30 4208 H 384.63 2.86457 -3.03724 0
M  V30 4209 H 386.02 1.03163 -6.63933 0
M  V30 4210 N 388.74 1.54641 0.303973 0
M  V30 4211 C 389.687 1.85386 1.37479 0
M  V30 4212 C 390.657 0.702528 1.50512 0
M  V30 4213 O 391.842 0.950867 1.65418 0
M  V30 4214 C 388.982 2.10413 2.73533 0
M  V30 4215 C 388.095 3.38049 2.68974 0
M  V30 4216 C 387.23 3.52934 3.97002 0
M  V30 4217 C 386.269 4.74373 3.86829 0
M  V30 4218 N 385.406 4.8608 5.06627 0
M  V30 4219 H 390.246 2.76732 1.1056 0
M  V30 4220 H 387.783 1.37034 0.534805 0
M  V30 4221 H 389.741 2.22919 3.52652 0
M  V30 4222 H 388.371 1.22338 2.98719 0
M  V30 4223 H 387.423 3.3418 1.81736 0
M  V30 4224 H 388.735 4.27288 2.57346 0
M  V30 4225 H 387.889 3.65088 4.84557 0
M  V30 4226 H 386.628 2.61824 4.1146 0
M  V30 4227 H 385.633 4.62255 2.97658 0
M  V30 4228 H 386.858 5.66888 3.73918 0
M  V30 4229 H 384.804 3.97891 5.21554 0
M  V30 4230 H 384.721 5.69315 4.9741 0
M  V30 4231 H 385.989 5.02587 5.95841 0
M  V30 4232 N 390.218 -0.567019 1.47046 0
M  V30 4233 C 391.495 -1.3276 1.43646 0
M  V30 4234 C 391.875 -2.1071 0.128186 0
M  V30 4235 O 391.223 -2.10441 -0.890326 0
M  V30 4236 C 391.433 -2.2404 2.67595 0
M  V30 4237 C 392.781 -2.85372 3.14401 0
M  V30 4238 O 393.805 -2.34346 2.68254 0
M  V30 4239 O 392.664 -3.78091 3.946 0
M  V30 4240 H 389.758 -0.597293 0.571988 0
M  V30 4241 H 392.304 -0.586735 1.59234 0
M  V30 4242 H 391.076 -1.65975 3.54356 0
M  V30 4243 H 390.699 -3.05439 2.54544 0
M  V30 4244 N 391.696 -1.35014 -0.812953 0
M  V30 4245 C 393.112 -1.14914 -1.10757 0
M  V30 4246 C 393.312 0.0426818 -2.01455 0
M  V30 4247 O 392.368 0.715212 -2.42159 0
M  V30 4248 C 393.681 -2.44911 -1.74468 0
M  V30 4249 C 395.229 -2.5106 -1.86917 0
M  V30 4250 C 395.704 -3.81085 -2.54044 0
M  V30 4251 N 397.195 -3.82301 -2.61535 0
M  V30 4252 C 397.93 -4.79634 -3.14227 0
M  V30 4253 N 397.426 -5.87353 -3.67407 0
M  V30 4254 N 399.219 -4.67078 -3.12721 0
M  V30 4255 H 391.37 -2.1136 -0.20989 0
M  V30 4256 H 393.633 -0.935128 -0.155692 0
M  V30 4257 H 393.339 -3.32267 -1.15289 0
M  V30 4258 H 393.213 -2.58989 -2.74234 0
M  V30 4259 H 395.6 -1.64137 -2.45241 0
M  V30 4260 H 395.681 -2.40901 -0.860242 0
M  V30 4261 H 395.325 -4.68402 -1.96372 0
M  V30 4262 H 395.255 -3.88529 -3.55461 0
M  V30 4263 H 397.746 -3.04465 -2.23851 0
M  V30 4264 H 398.059 -6.57624 -4.05894 0
M  V30 4265 H 396.404 -5.91054 -3.65623 0
M  V30 4266 H 399.595 -3.82067 -2.70449 0
M  V30 4267 H 399.768 -5.43098 -3.53481 0
M  V30 4268 N 393.175 1.03435 -1.18907 0
M  V30 4269 C 394.108 2.11162 -0.86521 0
M  V30 4270 C 395.086 1.6165 0.175473 0
M  V30 4271 O 396.27 1.88425 0.0530129 0
M  V30 4272 C 393.397 3.37423 -0.293868 0
M  V30 4273 C 392.443 4.05795 -1.31274 0
M  V30 4274 S 393.276 4.52027 -2.8711 0
M  V30 4275 C 394.432 5.81513 -2.31504 0
M  V30 4276 H 394.665 2.38308 -1.77754 0
M  V30 4277 H 392.198 1.16295 -1.01562 0
M  V30 4278 H 394.156 4.1049 0.0292572 0
M  V30 4279 H 392.817 3.0838 0.596682 0
M  V30 4280 H 392.01 4.96574 -0.86198 0
M  V30 4281 H 391.612 3.38874 -1.58242 0
M  V30 4282 H 393.904 6.55784 -1.70157 0
M  V30 4283 H 394.847 6.3136 -3.20608 0
M  V30 4284 H 395.255 5.36921 -1.74286 0
M  V30 4285 N 394.653 0.992116 1.22453 0
M  V30 4286 C 395.93 0.583508 1.86694 0
M  V30 4287 C 396.31 -0.9392 1.89056 0
M  V30 4288 O 395.658 -1.82081 1.38053 0
M  V30 4289 C 395.868 1.20304 3.2761 0
M  V30 4290 C 397.216 1.30308 4.0411 0
M  V30 4291 O 398.24 1.15737 3.36873 0
M  V30 4292 O 397.099 1.53615 5.24466 0
M  V30 4293 H 394.193 0.198129 0.802916 0
M  V30 4294 H 396.739 1.08794 1.30238 0
M  V30 4295 H 395.511 2.24461 3.2052 0
M  V30 4296 H 395.134 0.684144 3.9167 0
M  V30 4297 N 396.131 -1.37776 0.765217 0
M  V30 4298 C 397.378 -1.99849 0.326588 0
M  V30 4299 C 397.706 -1.60746 -1.09504 0
M  V30 4300 O 396.961 -0.84202 -1.76659 0
M  V30 4301 C 397.26 -3.5504 0.410053 0
M  V30 4302 C 396.926 -4.13891 1.78899 0
M  V30 4303 C 395.588 -4.29678 2.16635 0
M  V30 4304 C 397.94 -4.46236 2.69301 0
M  V30 4305 C 395.268 -4.7511 3.44221 0
M  V30 4306 C 397.62 -4.93089 3.9629 0
M  V30 4307 C 396.284 -5.07082 4.34078 0
M  V30 4308 H 395.554 -0.7313 0.119507 0
M  V30 4309 H 398.201 -1.64645 0.977968 0
M  V30 4310 H 396.506 -3.90451 -0.324878 0
M  V30 4311 H 398.203 -4.00966 0.0520699 0
M  V30 4312 H 394.793 -4.02026 1.48569 0
M  V30 4313 H 398.977 -4.3363 2.41409 0
M  V30 4314 H 394.233 -4.84129 3.73402 0
M  V30 4315 H 398.407 -5.17084 4.66472 0
M  V30 4316 H 396.034 -5.42046 5.33001 0
M  V30 4317 N 397.609 -0.515225 -1.4894 0
M  V30 4318 C 398.886 0.0879088 -1.95402 0
M  V30 4319 C 399.266 1.52745 -1.45712 0
M  V30 4320 O 398.614 2.18238 -0.677093 0
M  V30 4321 C 398.824 -0.0141055 -3.48997 0
M  V30 4322 C 400.172 0.152646 -4.24326 0
M  V30 4323 O 401.196 0.0604025 -3.56149 0
M  V30 4324 O 400.055 0.34384 -5.45417 0
M  V30 4325 H 397.149 0.0874636 -0.822362 0
M  V30 4326 H 399.695 -0.578775 -1.59525 0
M  V30 4327 H 398.467 -1.01745 -3.77841 0
M  V30 4328 H 398.09 0.692091 -3.9153 0
M  V30 4329 N 399.087 1.5561 -0.249682 0
M  V30 4330 C 399.997 2.25143 0.659375 0
M  V30 4331 C 401.013 1.2685 1.19101 0
M  V30 4332 O 402.189 1.59732 1.22669 0
M  V30 4333 C 399.254 2.93945 1.8384 0
M  V30 4334 C 398.315 4.07655 1.34596 0
M  V30 4335 C 397.548 4.73167 2.46878 0
M  V30 4336 O 397.771 4.37768 3.65671 0
M  V30 4337 O 396.705 5.61623 2.16478 0
M  V30 4338 H 400.531 3.03545 0.0968698 0
M  V30 4339 H 398.116 1.49389 -0.018074 0
M  V30 4340 H 399.998 3.37271 2.52638 0
M  V30 4341 H 398.673 2.18481 2.38847 0
M  V30 4342 H 397.58 3.68839 0.625174 0
M  V30 4343 H 398.913 4.84946 0.841941 0
M  V30 4344 N 400.565 -0.0233959 1.57583 0
M  V30 4345 C 401.812 -0.713063 1.8953 0
M  V30 4346 C 402.14 -1.75056 0.847673 0
M  V30 4347 O 401.395 -1.95119 -0.150636 0
M  V30 4348 C 401.694 -1.41428 3.28227 0
M  V30 4349 C 401.36 -0.512222 4.47981 0
M  V30 4350 C 400.022 -0.263785 4.80476 0
M  V30 4351 C 402.374 0.110248 5.21083 0
M  V30 4352 C 399.702 0.615804 5.83459 0
M  V30 4353 C 402.054 0.977573 6.25001 0
M  V30 4354 C 400.718 1.23542 6.55968 0
M  V30 4355 H 399.988 -0.260928 0.69354 0
M  V30 4356 H 402.635 0.0271047 1.91481 0
M  V30 4357 H 400.94 -2.22791 3.22291 0
M  V30 4358 H 402.637 -1.95355 3.50196 0
M  V30 4359 H 399.227 -0.716013 4.22577 0
M  V30 4360 H 403.411 -0.0687137 4.96252 0
M  V30 4361 H 398.667 0.82382 6.05824 0
M  V30 4362 H 402.841 1.46638 6.80786 0
M  V30 4363 H 400.468 1.91871 7.35588 0
M  V30 4364 N 402.043 -1.548 -0.295768 0
M  V30 4365 C 403.29 -1.74329 -1.03032 0
M  V30 4366 C 403.618 -0.531915 -1.87085 0
M  V30 4367 O 402.873 0.486052 -1.89568 0
M  V30 4368 C 403.172 -2.98797 -1.961 0
M  V30 4369 C 402.838 -4.32356 -1.2798 0
M  V30 4370 C 401.5 -4.68661 -1.09135 0
M  V30 4371 C 403.852 -5.15128 -0.793243 0
M  V30 4372 C 401.18 -5.85312 -0.403269 0
M  V30 4373 C 403.532 -6.32488 -0.118854 0
M  V30 4374 C 402.196 -6.6745 0.0815043 0
M  V30 4375 H 401.466 -0.637916 -0.37702 0
M  V30 4376 H 404.113 -1.8906 -0.304696 0
M  V30 4377 H 402.418 -2.78869 -2.75207 0
M  V30 4378 H 404.115 -3.11102 -2.53015 0
M  V30 4379 H 400.705 -4.03808 -1.43655 0
M  V30 4380 H 404.889 -4.87575 -0.92653 0
M  V30 4381 H 400.145 -6.1094 -0.237098 0
M  V30 4382 H 404.319 -6.95892 0.266035 0
M  V30 4383 H 401.946 -7.57695 0.616685 0
M  V30 4384 N 403.521 0.559213 -1.47345 0
M  V30 4385 C 404.471 1.66192 -1.5609 0
M  V30 4386 C 405.455 1.55323 -0.419957 0
M  V30 4387 O 406.647 1.63839 -0.669762 0
M  V30 4388 C 403.776 3.0497 -1.57634 0
M  V30 4389 C 402.862 3.2105 -2.77106 0
M  V30 4390 N 403.253 3.07203 -4.01821 0
M  V30 4391 C 401.551 3.52046 -2.73825 0
M  V30 4392 C 402.252 3.25919 -4.81821 0
M  V30 4393 N 401.228 3.52161 -4.14106 0
M  V30 4394 H 405.03 1.54052 -2.5029 0
M  V30 4395 H 402.544 0.763914 -1.43311 0
M  V30 4396 H 404.541 3.84142 -1.61989 0
M  V30 4397 H 403.201 3.18224 -0.645281 0
M  V30 4398 H 404.212 2.84572 -4.32711 0
M  V30 4399 H 400.889 3.71839 -1.89848 0
M  V30 4400 H 402.279 3.20198 -5.90697 0
M  V30 4401 N 404.999 1.35443 0.805782 0
M  V30 4402 C 405.949 1.24972 1.90699 0
M  V30 4403 C 406.933 0.144806 1.60247 0
M  V30 4404 O 408.125 0.376102 1.72958 0
M  V30 4405 C 405.254 1.02475 3.27649 0
M  V30 4406 C 404.34 2.17361 3.64164 0
M  V30 4407 N 404.731 3.42591 3.72109 0
M  V30 4408 C 403.029 2.08765 3.94123 0
M  V30 4409 C 403.73 4.18144 4.04389 0
M  V30 4410 N 402.706 3.4691 4.18515 0
M  V30 4411 H 406.508 2.19852 1.95044 0
M  V30 4412 H 404.022 1.27928 1.00041 0
M  V30 4413 H 406.019 0.930617 4.06381 0
M  V30 4414 H 404.679 0.0848009 3.24589 0
M  V30 4415 H 405.69 3.76932 3.55166 0
M  V30 4416 H 402.367 1.22629 3.99084 0
M  V30 4417 H 403.757 5.26367 4.17597 0
M  V30 4418 N 406.477 -1.02803 1.19454 0
M  V30 4419 C 407.888 -1.57667 0.999899 0
M  V30 4420 C 408.239 -1.91041 -0.446956 0
M  V30 4421 O 407.364 -1.70978 -1.32648 0
M  V30 4422 C 407.959 -2.86477 1.80877 0
M  V30 4423 C 406.518 -3.37911 1.65811 0
M  V30 4424 C 405.665 -2.11343 1.79526 0
M  V30 4425 H 408.616 -0.853214 1.33813 0
M  V30 4426 H 408.637 -3.57408 1.30536 0
M  V30 4427 H 408.149 -2.62155 2.86175 0
M  V30 4428 H 406.25 -3.67218 0.63102 0
M  V30 4429 H 406.363 -4.10885 2.46395 0
M  V30 4430 H 404.727 -2.23254 1.22596 0
M  V30 4431 H 405.51 -1.89461 2.86285 0
M  V30 4432 N 407.956 -0.998596 -1.21925 0
M  V30 4433 C 409.203 -0.677663 -1.90824 0
M  V30 4434 C 409.531 0.790905 -1.77693 0
M  V30 4435 O 408.786 1.58817 -1.14349 0
M  V30 4436 C 409.085 -1.03648 -3.42041 0
M  V30 4437 C 408.751 -2.49825 -3.75364 0
M  V30 4438 C 407.413 -2.8977 -3.8417 0
M  V30 4439 C 409.765 -3.44545 -3.91073 0
M  V30 4440 C 407.093 -4.23412 -4.06127 0
M  V30 4441 C 409.445 -4.77853 -4.14535 0
M  V30 4442 C 408.109 -5.17531 -4.21566 0
M  V30 4443 H 407.379 -0.247975 -0.698276 0
M  V30 4444 H 410.026 -1.25584 -1.44571 0
M  V30 4445 H 408.331 -0.376457 -3.89987 0
M  V30 4446 H 410.028 -0.766113 -3.93614 0
M  V30 4447 H 406.618 -2.17866 -3.69097 0
M  V30 4448 H 410.802 -3.14853 -3.83642 0
M  V30 4449 H 406.058 -4.53734 -4.09799 0
M  V30 4450 H 410.232 -5.51189 -4.25633 0
M  V30 4451 H 407.859 -6.21102 -4.38333 0
M  V30 4452 N 409.434 1.37368 -0.772513 0
M  V30 4453 C 410.364 2.32856 -0.173304 0
M  V30 4454 C 411.345 1.55818 0.682262 0
M  V30 4455 O 412.53 1.84052 0.619566 0
M  V30 4456 C 409.66 3.40048 0.706007 0
M  V30 4457 C 408.614 4.27973 -0.0483144 0
M  V30 4458 C 407.94 5.26184 0.950491 0
M  V30 4459 C 409.24 5.07665 -1.22776 0
M  V30 4460 H 410.934 2.83217 -0.971002 0
M  V30 4461 H 408.48 1.3617 -0.468377 0
M  V30 4462 H 410.433 4.05827 1.13501 0
M  V30 4463 H 409.157 2.88214 1.53623 0
M  V30 4464 H 407.816 3.63726 -0.458107 0
M  V30 4465 H 407.464 4.7063 1.77529 0
M  V30 4466 H 407.164 5.85872 0.450314 0
M  V30 4467 H 408.688 5.94838 1.37842 0
M  V30 4468 H 410.102 5.66578 -0.875366 0
M  V30 4469 H 408.499 5.76681 -1.66007 0
M  V30 4470 H 409.569 4.40294 -2.03149 0
M  V30 4471 N 410.912 0.523116 1.48665 0
M  V30 4472 C 412.189 -0.0775449 1.95446 0
M  V30 4473 C 412.569 -1.5197 1.4652 0
M  V30 4474 O 411.917 -2.17876 0.688657 0
M  V30 4475 C 412.127 0.0326135 3.48985 0
M  V30 4476 C 413.475 -0.130141 4.24401 0
M  V30 4477 O 414.499 -0.0415142 3.56176 0
M  V30 4478 O 413.358 -0.31491 5.45592 0
M  V30 4479 H 410.452 -0.0831012 0.822814 0
M  V30 4480 H 412.998 0.587227 1.59216 0
M  V30 4481 H 411.77 1.03748 3.77296 0
M  V30 4482 H 411.393 -0.671317 3.91892 0
M  V30 4483 N 412.39 -1.55475 0.257931 0
M  V30 4484 C 413.353 -2.20551 -0.623706 0
M  V30 4485 C 414.353 -1.17809 -1.09443 0
M  V30 4486 O 415.543 -1.42823 -0.997362 0
M  V30 4487 C 412.675 -2.85784 -1.8585 0
M  V30 4488 H 413.868 -2.99848 -0.0557743 0
M  V30 4489 H 411.421 -1.56298 0.0084422 0
M  V30 4490 H 412.156 -2.10453 -2.46739 0
M  V30 4491 H 411.941 -3.61057 -1.52907 0
M  V30 4492 H 413.431 -3.35553 -2.48584 0
M  V30 4493 N 413.868 0.0150385 -1.57593 0
M  V30 4494 C 415.093 0.718067 -1.94573 0
M  V30 4495 C 415.518 1.6734 -0.859005 0
M  V30 4496 O 414.876 1.80362 0.184147 0
M  V30 4497 C 414.924 1.43918 -3.30636 0
M  V30 4498 O 414.028 2.55299 -3.23876 0
M  V30 4499 H 413.369 0.192125 -0.635597 0
M  V30 4500 H 415.899 -0.0336708 -2.04572 0
M  V30 4501 H 415.909 1.80598 -3.65853 0
M  V30 4502 H 414.584 0.738619 -4.09289 0
M  V30 4503 H 413.161 2.21058 -3.00312 0
M  V30 4504 N 415.346 1.54954 0.287554 0
M  V30 4505 C 416.757 1.65732 0.859634 0
M  V30 4506 C 417.108 0.574767 1.87592 0
M  V30 4507 O 416.233 -0.286299 2.14498 0
M  V30 4508 C 416.828 3.00438 1.56597 0
M  V30 4509 C 415.387 3.13292 2.08627 0
M  V30 4510 C 414.534 2.61473 0.923416 0
M  V30 4511 H 417.485 1.5857 0.0642338 0
M  V30 4512 H 417.506 2.92613 2.43224 0
M  V30 4513 H 417.018 3.79207 0.826053 0
M  V30 4514 H 415.119 2.39268 2.85625 0
M  V30 4515 H 415.232 4.19647 2.31157 0
M  V30 4516 H 413.596 2.18264 1.31275 0
M  V30 4517 H 414.379 3.42733 0.197241 0
M  V30 4518 N 416.824 -0.551391 1.4764 0
M  V30 4519 C 418.049 -1.33837 1.58437 0
M  V30 4520 C 418.474 -1.866 0.237063 0
M  V30 4521 O 417.832 -1.6328 -0.787994 0
M  V30 4522 C 417.88 -2.48014 2.61766 0
M  V30 4523 O 416.984 -3.50419 2.1744 0
M  V30 4524 H 416.325 -0.397299 0.532024 0
M  V30 4525 H 418.855 -0.665759 1.93465 0
M  V30 4526 H 418.865 -2.94503 2.82369 0
M  V30 4527 H 417.54 -2.08969 3.5959 0
M  V30 4528 H 416.117 -3.10196 2.06961 0
M  V30 4529 N 418.302 -1.35869 -0.798587 0
M  V30 4530 C 419.548 -1.2978 -1.55836 0
M  V30 4531 C 419.881 0.125322 -1.93795 0
M  V30 4532 O 419.156 1.07658 -1.61987 0
M  V30 4533 C 419.439 -2.21188 -2.84162 0
M  V30 4534 C 419.292 -3.72155 -2.52628 0
M  V30 4535 C 420.611 -2.11545 -3.85923 0
M  V30 4536 H 417.73 -0.472769 -0.565383 0
M  V30 4537 H 420.372 -1.66341 -0.918192 0
M  V30 4538 H 418.522 -1.90139 -3.38791 0
M  V30 4539 H 420.194 -4.13682 -2.04121 0
M  V30 4540 H 418.437 -3.92042 -1.85704 0
M  V30 4541 H 419.108 -4.31511 -3.44242 0
M  V30 4542 H 421.584 -2.38855 -3.40716 0
M  V30 4543 H 420.46 -2.77688 -4.73477 0
M  V30 4544 H 420.721 -1.09987 -4.282 0
M  V30 4545 N 419.78 1.02168 -1.19998 0
M  V30 4546 C 421.196 1.27969 -0.953737 0
M  V30 4547 C 421.396 1.98079 0.369703 0
M  V30 4548 O 420.452 2.27306 1.09947 0
M  V30 4549 C 421.765 2.11971 -2.13281 0
M  V30 4550 C 423.313 2.25255 -2.17323 0
M  V30 4551 C 423.788 3.12632 -3.34702 0
M  V30 4552 N 425.279 3.2022 -3.34684 0
M  V30 4553 C 426.014 3.88039 -4.22153 0
M  V30 4554 N 425.51 4.58027 -5.19791 0
M  V30 4555 N 427.303 3.84511 -4.10009 0
M  V30 4556 H 419.454 0.550794 -2.05134 0
M  V30 4557 H 421.717 0.305683 -0.897364 0
M  V30 4558 H 421.423 1.67785 -3.09097 0
M  V30 4559 H 421.297 3.12699 -2.10949 0
M  V30 4560 H 423.684 2.68667 -1.22073 0
M  V30 4561 H 423.765 1.24053 -2.23706 0
M  V30 4562 H 423.409 2.69926 -4.30235 0
M  V30 4563 H 423.339 4.13909 -3.25556 0
M  V30 4564 H 425.83 2.70382 -2.64012 0
M  V30 4565 H 426.143 5.07429 -5.82868 0
M  V30 4566 H 424.488 4.56869 -5.23733 0
M  V30 4567 H 427.679 3.28978 -3.33003 0
M  V30 4568 H 427.852 4.3709 -4.78389 0
M  V30 4569 N 421.258 1.00505 1.21394 0
M  V30 4570 C 422.205 0.565496 2.23765 0
M  V30 4571 C 423.175 -0.408466 1.60999 0
M  V30 4572 O 424.36 -0.310503 1.88257 0
M  V30 4573 C 421.5 -0.101667 3.4495 0
M  V30 4574 C 420.613 0.915479 4.22188 0
M  V30 4575 C 419.748 0.220574 5.30742 0
M  V30 4576 C 418.787 1.22527 5.99711 0
M  V30 4577 N 417.924 0.557831 6.9988 0
M  V30 4578 H 422.764 1.44314 2.60725 0
M  V30 4579 H 420.301 0.722643 1.28126 0
M  V30 4580 H 422.259 -0.505504 4.14126 0
M  V30 4581 H 420.889 -0.94303 3.08718 0
M  V30 4582 H 419.941 1.43756 3.52191 0
M  V30 4583 H 421.253 1.68005 4.69655 0
M  V30 4584 H 420.407 -0.239368 6.06228 0
M  V30 4585 H 419.146 -0.576401 4.84282 0
M  V30 4586 H 418.151 1.69571 5.22997 0
M  V30 4587 H 419.376 2.02332 6.48258 0
M  V30 4588 H 417.322 -0.219486 6.55633 0
M  V30 4589 H 417.239 1.26065 7.45415 0
M  V30 4590 H 418.507 0.121095 7.79406 0
M  V30 4591 N 422.737 -1.36956 0.779787 0
M  V30 4592 C 423.962 -2.04283 0.358224 0
M  V30 4593 C 424.387 -1.58422 -1.01411 0
M  V30 4594 O 423.745 -0.748179 -1.65142 0
M  V30 4595 C 423.793 -3.58152 0.419479 0
M  V30 4596 O 422.897 -4.08342 -0.577142 0
M  V30 4597 H 422.238 -0.645967 0.153698 0
M  V30 4598 H 424.768 -1.75108 1.05822 0
M  V30 4599 H 424.778 -4.07041 0.279636 0
M  V30 4600 H 423.453 -3.90886 1.42061 0
M  V30 4601 H 422.03 -3.70751 -0.399755 0
M  V30 4602 N 424.215 -0.530993 -1.48385 0
M  V30 4603 C 425.626 -0.0907905 -1.86479 0
M  V30 4604 C 425.977 1.33213 -1.44044 0
M  V30 4605 O 425.102 1.99783 -0.831615 0
M  V30 4606 C 425.697 -0.157987 -3.38431 0
M  V30 4607 C 424.256 0.227026 -3.75715 0
M  V30 4608 C 423.403 -0.5173 -2.72432 0
M  V30 4609 H 426.354 -0.742186 -1.40276 0
M  V30 4610 H 426.375 0.630053 -3.75247 0
M  V30 4611 H 425.887 -1.19372 -3.69286 0
M  V30 4612 H 423.988 1.26486 -3.50474 0
M  V30 4613 H 424.101 -0.113288 -4.78966 0
M  V30 4614 H 422.465 0.0365527 -2.54674 0
M  V30 4615 H 423.248 -1.55368 -3.0613 0
M  V30 4616 N 425.693 1.55336 -0.266172 0
M  V30 4617 C 427.104 1.85236 0.233315 0
M  V30 4618 C 427.455 1.18816 1.56132 0
M  V30 4619 O 426.58 0.473307 2.11161 0
M  V30 4620 C 427.175 3.36059 0.430113 0
M  V30 4621 C 425.734 3.66116 0.873842 0
M  V30 4622 C 424.881 2.77274 -0.0380016 0
M  V30 4623 H 427.832 1.51004 -0.488214 0
M  V30 4624 H 427.853 3.58681 1.26998 0
M  V30 4625 H 427.365 3.84373 -0.536588 0
M  V30 4626 H 425.466 3.23295 1.85233 0
M  V30 4627 H 425.579 4.73699 0.717358 0
M  V30 4628 H 423.943 2.50198 0.476759 0
M  V30 4629 H 424.726 3.284 -1.00042 0
M  V30 4630 N 427.171 -0.0066808 1.57599 0
M  V30 4631 C 428.417 -0.693947 1.90558 0
M  V30 4632 C 428.75 -1.73792 0.866594 0
M  V30 4633 O 428.025 -1.94156 -0.115548 0
M  V30 4634 C 428.308 -1.34317 3.34112 0
M  V30 4635 C 428.161 -0.311189 4.48722 0
M  V30 4636 C 429.48 -2.27116 3.7697 0
M  V30 4637 H 426.599 -0.250803 0.693013 0
M  V30 4638 H 429.241 0.043242 1.89951 0
M  V30 4639 H 427.391 -1.9715 3.3476 0
M  V30 4640 H 429.063 0.316944 4.6021 0
M  V30 4641 H 427.306 0.367253 4.32243 0
M  V30 4642 H 427.977 -0.804366 5.46108 0
M  V30 4643 H 430.453 -1.74306 3.77831 0
M  V30 4644 H 429.329 -2.69511 4.78179 0
M  V30 4645 H 429.59 -3.14743 3.10466 0
M  V30 4646 N 428.649 -1.55105 -0.279332 0
M  V30 4647 C 430.06 -1.66186 -0.850832 0
M  V30 4648 C 430.411 -0.584707 -1.87285 0
M  V30 4649 O 429.536 0.274919 -2.14647 0
M  V30 4650 C 430.131 -3.01264 -1.55001 0
M  V30 4651 C 428.69 -3.14394 -2.06963 0
M  V30 4652 C 427.837 -2.61959 -0.909536 0
M  V30 4653 H 430.788 -1.58602 -0.0558235 0
M  V30 4654 H 430.809 -2.93899 -2.41669 0
M  V30 4655 H 430.321 -3.7964 -0.805931 0
M  V30 4656 H 428.422 -2.4078 -2.84352 0
M  V30 4657 H 428.535 -4.20867 -2.28928 0
M  V30 4658 H 426.899 -2.18957 -1.30116 0
M  V30 4659 H 427.682 -3.42833 -0.179062 0
M  V30 4660 N 430.127 0.543554 -1.4793 0
M  V30 4661 C 431.373 1.30201 -1.55485 0
M  V30 4662 C 431.706 1.92925 -0.222201 0
M  V30 4663 O 430.981 1.78586 0.77053 0
M  V30 4664 C 431.264 2.40174 -2.68307 0
M  V30 4665 C 431.117 1.8223 -4.11233 0
M  V30 4666 C 432.436 3.42024 -2.76961 0
M  V30 4667 H 429.555 0.472036 -0.565996 0
M  V30 4668 H 432.197 0.606914 -1.80046 0
M  V30 4669 H 430.347 2.99463 -2.47495 0
M  V30 4670 H 432.019 1.27096 -4.43446 0
M  V30 4671 H 430.262 1.12832 -4.18869 0
M  V30 4672 H 430.933 2.61793 -4.85972 0
M  V30 4673 H 433.409 2.92672 -2.95774 0
M  V30 4674 H 432.285 4.16383 -3.57654 0
M  V30 4675 H 432.546 4.0173 -1.84568 0
M  V30 4676 N 431.605 1.3629 0.791371 0
M  V30 4677 C 433.016 1.27225 1.36641 0
M  V30 4678 C 433.367 -0.0887968 1.95999 0
M  V30 4679 O 432.492 -0.990207 1.92416 0
M  V30 4680 C 433.087 2.30375 2.48421 0
M  V30 4681 C 431.646 2.25004 3.01746 0
M  V30 4682 C 430.793 2.15259 1.7481 0
M  V30 4683 H 433.744 1.47198 0.593173 0
M  V30 4684 H 433.765 1.93905 3.27385 0
M  V30 4685 H 433.277 3.29422 2.05189 0
M  V30 4686 H 431.378 1.29417 3.49403 0
M  V30 4687 H 431.491 3.1761 3.58693 0
M  V30 4688 H 429.855 1.61482 1.96966 0
M  V30 4689 H 430.638 3.16191 1.33709 0
M  V30 4690 N 433.083 -1.0153 1.20538 0
M  V30 4691 C 434.308 -1.79283 1.04271 0
M  V30 4692 C 434.733 -1.8372 -0.403544 0
M  V30 4693 O 434.091 -1.27321 -1.2907 0
M  V30 4694 C 434.139 -3.21535 1.63241 0
M  V30 4695 O 433.243 -4.03099 0.870908 0
M  V30 4696 H 432.584 -0.55293 0.367647 0
M  V30 4697 H 435.114 -1.27696 1.59859 0
M  V30 4698 H 435.124 -3.72243 1.6703 0
M  V30 4699 H 433.799 -3.1762 2.68497 0
M  V30 4700 H 432.376 -3.61693 0.907323 0
M  V30 4701 N 434.561 -1.01147 -1.20859 0
M  V30 4702 C 435.791 -0.715872 -1.93801 0
M  V30 4703 C 436.199 0.726592 -1.74692 0
M  V30 4704 O 435.542 1.50397 -1.05482 0
M  V30 4705 C 435.604 -0.965269 -3.46299 0
M  V30 4706 C 435.268 -2.39584 -3.89164 0
M  V30 4707 C 436.265 -3.3764 -3.95342 0
M  V30 4708 C 433.95 -2.73522 -4.21297 0
M  V30 4709 C 435.944 -4.67698 -4.33056 0
M  V30 4710 C 433.631 -4.03794 -4.58687 0
M  V30 4711 C 434.629 -5.00693 -4.64538 0
M  V30 4712 O 434.317 -6.28635 -5.01072 0
M  V30 4713 H 434.049 -0.262524 -0.622942 0
M  V30 4714 H 436.603 -1.35413 -1.54443 0
M  V30 4715 H 434.833 -0.269847 -3.85757 0
M  V30 4716 H 436.522 -0.662051 -4.00464 0
M  V30 4717 H 437.288 -3.12757 -3.70686 0
M  V30 4718 H 433.167 -1.9879 -4.15937 0
M  V30 4719 H 436.711 -5.4333 -4.37537 0
M  V30 4720 H 432.608 -4.28459 -4.82797 0
M  V30 4721 H 433.376 -6.32847 -5.19083 0
M  V30 4722 N 436.039 1.36541 -0.78704 0
M  V30 4723 C 437.45 1.81873 -0.421807 0
M  V30 4724 C 437.801 1.65487 1.05397 0
M  V30 4725 O 436.926 1.17448 1.81755 0
M  V30 4726 C 437.521 3.30192 -0.758841 0
M  V30 4727 C 436.08 3.73743 -0.446468 0
M  V30 4728 C 435.227 2.58844 -0.994728 0
M  V30 4729 H 438.178 1.24796 -0.98039 0
M  V30 4730 H 438.199 3.80468 -0.0490648 0
M  V30 4731 H 437.711 3.42087 -1.83299 0
M  V30 4732 H 435.812 3.6741 0.619739 0
M  V30 4733 H 435.925 4.69272 -0.965415 0
M  V30 4734 H 434.289 2.51245 -0.418087 0
M  V30 4735 H 435.072 2.73525 -2.07458 0
M  V30 4736 N 437.518 0.538854 1.48102 0
M  V30 4737 C 438.743 0.0102694 2.07397 0
M  V30 4738 C 439.168 -1.26562 1.39153 0
M  V30 4739 O 438.526 -1.75357 0.460387 0
M  V30 4740 C 438.574 -0.187602 3.60112 0
M  V30 4741 O 437.678 -1.25432 3.92862 0
M  V30 4742 H 437.019 0.0430975 0.6626 0
M  V30 4743 H 439.549 0.749301 1.90385 0
M  V30 4744 H 439.559 -0.407517 4.0596 0
M  V30 4745 H 438.234 0.744386 4.09184 0
M  V30 4746 H 436.811 -1.01636 3.58782 0
M  V30 4747 N 438.996 -1.55193 0.274407 0
M  V30 4748 C 440.221 -2.04446 -0.348824 0
M  V30 4749 C 440.646 -1.15149 -1.48735 0
M  V30 4750 O 440.004 -0.149952 -1.80679 0
M  V30 4751 C 440.052 -3.51431 -0.808009 0
M  V30 4752 O 439.156 -3.65225 -1.91531 0
M  V30 4753 H 438.497 -0.66006 -0.0722276 0
M  V30 4754 H 441.027 -2.00481 0.408498 0
M  V30 4755 H 441.037 -3.92781 -1.10395 0
M  V30 4756 H 439.712 -4.15892 0.0249865 0
M  V30 4757 H 438.289 -3.35778 -1.62196 0
M  V30 4758 N 440.474 -0.00167713 -1.576 0
M  V30 4759 C 441.722 0.681471 -1.90264 0
M  V30 4760 C 442.043 1.7422 -0.875924 0
M  V30 4761 O 441.313 1.95709 0.0864412 0
M  V30 4762 H 439.893 0.254696 -0.702239 0
M  V30 4763 H 442.555 -0.0429996 -1.94853 0
M  V30 4764 H 441.651 1.15166 -2.90075 0
M  V30 4765 N 441.952 1.55251 0.271103 0
M  V30 4766 C 443.177 1.80306 1.02491 0
M  V30 4767 C 443.602 0.575457 1.79081 0
M  V30 4768 O 442.96 -0.474987 1.74967 0
M  V30 4769 C 443.008 3.02832 1.95768 0
M  V30 4770 O 442.112 2.78051 3.04568 0
M  V30 4771 H 441.453 0.595896 0.292923 0
M  V30 4772 H 443.983 2.02397 0.299436 0
M  V30 4773 H 443.993 3.31616 2.37686 0
M  V30 4774 H 442.668 3.9183 1.39434 0
M  V30 4775 H 441.245 2.60369 2.66951 0
M  V30 4776 N 443.43 -0.535701 1.48216 0
M  V30 4777 C 444.678 -1.28928 1.55634 0
M  V30 4778 C 444.999 -1.93645 0.229514 0
M  V30 4779 O 444.269 -1.81038 -0.74846 0
M  V30 4780 H 442.849 -0.47884 0.573342 0
M  V30 4781 H 445.511 -0.623853 1.84646 0
M  V30 4782 H 444.607 -2.07157 2.33436 0
M  V30 4783 N 444.908 -1.36708 -0.784132 0
M  V30 4784 C 446.133 -1.34565 -1.5782 0
M  V30 4785 C 446.558 0.0695257 -1.87971 0
M  V30 4786 O 445.916 1.04302 -1.48293 0
M  V30 4787 C 445.964 -2.17952 -2.87279 0
M  V30 4788 O 445.068 -1.57563 -3.81114 0
M  V30 4789 H 444.409 -0.460337 -0.478524 0
M  V30 4790 H 446.939 -1.80064 -0.971495 0
M  V30 4791 H 446.949 -2.30721 -3.365 0
M  V30 4792 H 445.624 -3.20823 -2.64661 0
M  V30 4793 H 444.201 -1.53764 -3.39722 0
M  V30 4794 N 446.386 1.0089 -1.21074 0
M  V30 4795 C 447.611 1.78727 -1.05221 0
M  V30 4796 C 448.036 1.83932 0.393795 0
M  V30 4797 O 447.394 1.28004 1.28393 0
M  V30 4798 C 447.442 3.20665 -1.64944 0
M  V30 4799 O 446.546 4.02632 -0.892273 0
M  V30 4800 H 445.887 0.550973 -0.370574 0
M  V30 4801 H 448.417 1.26847 -1.60534 0
M  V30 4802 H 448.427 3.71352 -1.69002 0
M  V30 4803 H 447.102 3.16191 -2.70177 0
M  V30 4804 H 445.679 3.61207 -0.926492 0
M  V30 4805 N 447.864 1.01787 1.20321 0
M  V30 4806 C 449.089 0.727009 1.9424 0
M  V30 4807 C 449.514 -0.706179 1.74341 0
M  V30 4808 O 448.872 -1.48609 1.03852 0
M  V30 4809 C 448.92 1.06958 3.44372 0
M  V30 4810 O 448.024 0.181983 4.11998 0
M  V30 4811 H 447.365 0.269626 0.606793 0
M  V30 4812 H 449.895 1.36158 1.52716 0
M  V30 4813 H 449.905 1.02182 3.94997 0
M  V30 4814 H 448.58 2.11378 3.58179 0
M  V30 4815 H 447.157 0.287378 3.71791 0
M  V30 4816 N 449.342 -1.36122 0.79427 0
M  V30 4817 C 450.567 -2.03891 0.379871 0
M  V30 4818 C 450.992 -1.59488 -0.997251 0
M  V30 4819 O 450.35 -0.765652 -1.64339 0
M  V30 4820 C 450.398 -3.57687 0.457442 0
M  V30 4821 O 449.502 -4.08931 -0.5338 0
M  V30 4822 H 448.843 -0.6443 0.160541 0
M  V30 4823 H 451.373 -1.73976 1.07673 0
M  V30 4824 H 451.383 -4.06721 0.322792 0
M  V30 4825 H 450.058 -3.89357 1.46199 0
M  V30 4826 H 448.635 -3.71154 -0.360409 0
M  V30 4827 N 450.82 -0.546701 -1.47814 0
M  V30 4828 C 452.045 -0.021268 -2.07389 0
M  V30 4829 C 452.47 1.25822 -1.39822 0
M  V30 4830 O 451.828 1.75111 -0.46968 0
M  V30 4831 C 451.876 0.168502 -3.60206 0
M  V30 4832 O 450.98 1.23347 -3.93522 0
M  V30 4833 H 450.321 -0.0466108 -0.662362 0
M  V30 4834 H 452.851 -0.759387 -1.89985 0
M  V30 4835 H 452.861 0.385982 -4.0617 0
M  V30 4836 H 451.536 -0.766075 -4.08784 0
M  V30 4837 H 450.113 0.997319 -3.59316 0
M  V30 4838 N 452.299 1.55045 -0.282633 0
M  V30 4839 C 453.524 2.04628 0.337977 0
M  V30 4840 C 453.949 1.15937 1.48123 0
M  V30 4841 O 453.307 0.159532 1.80597 0
M  V30 4842 C 453.355 3.51854 0.78936 0
M  V30 4843 O 452.459 3.66236 1.89592 0
M  V30 4844 H 451.8 0.660434 0.0687261 0
M  V30 4845 H 454.33 2.00261 -0.419124 0
M  V30 4846 H 454.34 3.93361 1.08311 0
M  V30 4847 H 453.015 4.15873 -0.0470419 0
M  V30 4848 H 451.592 3.36633 1.60413 0
M  V30 4849 N 453.777 0.010035 1.57597 0
M  V30 4850 C 455.002 -0.687021 1.95691 0
M  V30 4851 C 455.427 -1.65952 0.885519 0
M  V30 4852 O 454.785 -1.80633 -0.15543 0
M  V30 4853 C 454.833 -1.3864 3.32884 0
M  V30 4854 O 453.937 -2.50115 3.27897 0
M  V30 4855 H 453.278 -0.181989 0.638573 0
M  V30 4856 H 455.808 0.0662122 2.04493 0
M  V30 4857 H 455.818 -1.74754 3.6868 0
M  V30 4858 H 454.493 -0.673411 4.10412 0
M  V30 4859 H 453.07 -2.16253 3.03791 0
M  V30 4860 N 455.255 -1.55392 -0.262866 0
M  V30 4861 C 456.483 -1.80513 -1.01108 0
M  V30 4862 C 456.898 -0.583533 -1.79556 0
M  V30 4863 O 456.255 0.447585 -1.76926 0
M  V30 4864 C 456.306 -3.03648 -1.96164 0
M  V30 4865 O 456.027 -4.2109 -1.20893 0
M  V30 4866 C 457.528 -3.41448 -2.82715 0
M  V30 4867 H 454.748 -0.601079 -0.298236 0
M  V30 4868 H 457.292 -2.02425 -0.290582 0
M  V30 4869 H 455.447 -2.83832 -2.63663 0
M  V30 4870 H 455.861 -4.90771 -1.85051 0
M  V30 4871 H 457.335 -4.30751 -3.45192 0
M  V30 4872 H 457.812 -2.61308 -3.53008 0
M  V30 4873 H 458.418 -3.63559 -2.20693 0
M  V30 4874 N 456.733 0.527833 -1.48498 0
M  V30 4875 C 457.958 1.313 -1.60546 0
M  V30 4876 C 458.383 1.86199 -0.26672 0
M  V30 4877 O 457.741 1.64513 0.761918 0
M  V30 4878 C 457.789 2.43818 -2.65678 0
M  V30 4879 O 456.893 3.46916 -2.22987 0
M  V30 4880 H 456.234 0.388784 -0.538277 0
M  V30 4881 H 458.764 0.634896 -1.945 0
M  V30 4882 H 458.774 2.89973 -2.87018 0
M  V30 4883 H 457.449 2.03222 -3.62869 0
M  V30 4884 H 456.026 3.06864 -2.11869 0
M  V30 4885 N 458.211 1.37122 0.776871 0
M  V30 4886 C 459.161 1.28989 1.88005 0
M  V30 4887 C 460.145 0.178765 1.59904 0
M  V30 4888 O 461.337 0.412705 1.72121 0
M  V30 4889 C 458.466 1.09402 3.25402 0
M  V30 4890 C 457.552 2.25036 3.59471 0
M  V30 4891 N 457.943 3.50407 3.64759 0
M  V30 4892 C 456.241 2.17078 3.89607 0
M  V30 4893 C 456.942 4.26628 3.95428 0
M  V30 4894 N 455.918 3.55709 4.11062 0
M  V30 4895 H 459.72 2.2394 1.90337 0
M  V30 4896 H 457.234 1.30021 0.973052 0
M  V30 4897 H 459.231 1.01661 4.04315 0
M  V30 4898 H 457.891 0.153632 3.24336 0
M  V30 4899 H 458.902 3.8438 3.47091 0
M  V30 4900 H 455.579 1.31067 3.96393 0
M  V30 4901 H 456.969 5.35107 4.06338 0
M  V30 4902 N 459.689 -1.00246 1.21608 0
M  V30 4903 C 460.619 -2.10921 1.00172 0
M  V30 4904 C 461.6 -1.69938 -0.0741587 0
M  V30 4905 O 462.785 -1.94009 0.0861753 0
M  V30 4906 C 459.915 -3.42618 0.568355 0
M  V30 4907 C 458.869 -3.97407 1.58909 0
M  V30 4908 C 458.195 -5.25038 1.01187 0
M  V30 4909 C 459.495 -4.2918 2.97661 0
M  V30 4910 H 461.189 -2.29112 1.92739 0
M  V30 4911 H 458.735 -1.10101 0.928102 0
M  V30 4912 H 460.688 -4.19444 0.405555 0
M  V30 4913 H 459.412 -3.24227 -0.392961 0
M  V30 4914 H 458.071 -3.22703 1.73949 0
M  V30 4915 H 457.719 -5.02982 0.0421965 0
M  V30 4916 H 457.419 -5.62661 1.6937 0
M  V30 4917 H 458.943 -6.04507 0.860448 0
M  V30 4918 H 460.357 -4.96839 2.86049 0
M  V30 4919 H 458.754 -4.77952 3.6288 0
M  V30 4920 H 459.824 -3.3735 3.48315 0
M  V30 4921 N 461.167 -1.02423 -1.1978 0
M  V30 4922 C 462.13 -0.605703 -2.21052 0
M  V30 4923 C 463.13 0.328209 -1.57415 0
M  V30 4924 O 464.32 0.115853 -1.73814 0
M  V30 4925 C 461.452 0.114366 -3.40708 0
M  V30 4926 H 462.645 -1.5017 -2.59594 0
M  V30 4927 H 460.198 -0.814888 -1.33376 0
M  V30 4928 H 460.933 1.02492 -3.07678 0
M  V30 4929 H 460.718 -0.556641 -3.88129 0
M  V30 4930 H 462.208 0.394272 -4.15735 0
M  V30 4931 N 462.645 1.35699 -0.801477 0
M  V30 4932 C 463.87 2.03687 -0.390678 0
M  V30 4933 C 464.295 1.60015 0.988778 0
M  V30 4934 O 463.653 0.774357 1.63931 0
M  V30 4935 C 463.701 3.57439 -0.476404 0
M  V30 4936 O 462.805 4.09208 0.512106 0
M  V30 4937 H 462.146 0.64344 -0.163956 0
M  V30 4938 H 464.676 1.73403 -1.08594 0
M  V30 4939 H 464.686 4.06544 -0.344357 0
M  V30 4940 H 463.361 3.88576 -1.48262 0
M  V30 4941 H 461.938 3.7134 0.340721 0
M  V30 4942 N 464.123 0.554532 1.47522 0
M  V30 4943 C 465.534 0.120446 1.86311 0
M  V30 4944 C 465.885 -1.30904 1.46145 0
M  V30 4945 O 465.01 -1.98434 0.863294 0
M  V30 4946 C 465.605 0.211808 3.38137 0
M  V30 4947 C 464.164 -0.167224 3.76028 0
M  V30 4948 C 463.311 0.560576 2.71575 0
M  V30 4949 H 466.262 0.764408 1.39077 0
M  V30 4950 H 466.283 -0.570275 3.76202 0
M  V30 4951 H 465.795 1.25232 3.6734 0
M  V30 4952 H 463.896 -1.20894 3.52442 0
M  V30 4953 H 464.009 0.189473 4.78725 0
M  V30 4954 H 462.373 0.00396836 2.547 0
M  V30 4955 H 463.156 1.60219 3.0362 0
M  V30 4956 N 465.601 -1.54893 0.290851 0
M  V30 4957 C 467.012 -1.85584 -0.203816 0
M  V30 4958 C 467.363 -1.21285 -1.54222 0
M  V30 4959 O 466.488 -0.506841 -2.10381 0
M  V30 4960 C 467.083 -3.367 -0.376595 0
M  V30 4961 C 465.642 -3.6746 -0.815485 0
M  V30 4962 C 464.789 -2.77178 0.0821087 0
M  V30 4963 H 467.74 -1.50208 0.512175 0
M  V30 4964 H 467.761 -3.60656 -1.21275 0
M  V30 4965 H 467.273 -3.8347 0.59767 0
M  V30 4966 H 465.374 -3.26201 -1.80066 0
M  V30 4967 H 465.487 -4.7478 -0.641905 0
M  V30 4968 H 463.851 -2.50925 -0.436895 0
M  V30 4969 H 464.634 -3.26767 1.05254 0
M  V30 4970 N 467.08 -0.0183926 -1.57589 0
M  V30 4971 C 468.305 0.676634 -1.96052 0
M  V30 4972 C 468.73 1.6548 -0.894307 0
M  V30 4973 O 468.088 1.80712 0.145849 0
M  V30 4974 C 468.136 1.36872 -3.33614 0
M  V30 4975 O 467.24 2.48372 -3.29219 0
M  V30 4976 H 466.581 0.1786 -0.63953 0
M  V30 4977 H 469.111 -0.077056 -2.04455 0
M  V30 4978 H 469.121 1.72797 -3.69601 0
M  V30 4979 H 467.796 0.651636 -4.10763 0
M  V30 4980 H 466.373 2.14639 -3.04934 0
M  V30 4981 N 468.558 1.5553 0.254621 0
M  V30 4982 C 469.488 1.9268 1.31897 0
M  V30 4983 C 470.469 0.790797 1.506 0
M  V30 4984 O 471.654 1.05045 1.63337 0
M  V30 4985 C 468.784 2.21477 2.67517 0
M  V30 4986 C 467.738 3.37256 2.63519 0
M  V30 4987 C 467.064 3.51576 4.02862 0
M  V30 4988 C 468.364 4.73157 2.21179 0
M  V30 4989 H 470.058 2.81832 1.01051 0
M  V30 4990 H 467.604 1.35599 0.484662 0
M  V30 4991 H 469.557 2.46055 3.42104 0
M  V30 4992 H 468.281 1.29144 2.99982 0
M  V30 4993 H 466.94 3.12675 1.9139 0
M  V30 4994 H 466.588 2.56676 4.32581 0
M  V30 4995 H 466.288 4.2943 4.01078 0
M  V30 4996 H 467.812 3.78467 4.79161 0
M  V30 4997 H 469.226 4.97158 2.85494 0
M  V30 4998 H 467.623 5.54058 2.30521 0
M  V30 4999 H 468.693 4.70739 1.16332 0
M  V30 5000 N 470.036 -0.519951 1.48776 0
M  V30 5001 C 471.284 -1.2727 1.56993 0
M  V30 5002 C 471.605 -1.9339 0.25004 0
M  V30 5003 O 470.875 -1.81822 -0.729216 0
M  V30 5004 H 469.455 -0.472732 0.578389 0
M  V30 5005 H 472.117 -0.604234 1.85297 0
M  V30 5006 H 471.213 -2.04669 2.3562 0
M  V30 5007 N 471.514 -1.37532 -0.769588 0
M  V30 5008 C 472.424 -1.35668 -1.91393 0
M  V30 5009 C 473.44 -0.255954 -1.72107 0
M  V30 5010 O 474.616 -0.491704 -1.95305 0
M  V30 5011 C 471.681 -1.16481 -3.26547 0
M  V30 5012 C 470.742 -2.36212 -3.58472 0
M  V30 5013 C 469.975 -2.17932 -4.87177 0
M  V30 5014 O 470.198 -1.1647 -5.58382 0
M  V30 5015 O 469.132 -3.06167 -5.18214 0
M  V30 5016 H 472.958 -2.32055 -1.95918 0
M  V30 5017 H 470.543 -1.18284 -0.912641 0
M  V30 5018 H 472.425 -1.07778 -4.07384 0
M  V30 5019 H 471.1 -0.231687 -3.2287 0
M  V30 5020 H 470.007 -2.50488 -2.77861 0
M  V30 5021 H 471.34 -3.281 -3.66894 0
M  V30 5022 N 472.992 0.995999 -1.22138 0
M  V30 5023 C 473.925 2.08302 -0.931952 0
M  V30 5024 C 474.903 1.62127 0.123956 0
M  V30 5025 O 476.087 1.88499 -0.00696004 0
M  V30 5026 C 473.214 3.36317 -0.401068 0
M  V30 5027 C 472.26 4.01413 -1.44117 0
M  V30 5028 S 473.093 4.42664 -3.01345 0
M  V30 5029 C 474.249 5.73853 -2.49887 0
M  V30 5030 H 474.482 2.32532 -1.85246 0
M  V30 5031 H 472.015 1.13005 -1.0521 0
M  V30 5032 H 473.973 4.10375 -0.101352 0
M  V30 5033 H 472.634 3.10123 0.498272 0
M  V30 5034 H 471.827 4.9358 -1.01952 0
M  V30 5035 H 471.429 3.33668 -1.68943 0
M  V30 5036 H 473.721 6.50039 -1.90934 0
M  V30 5037 H 474.664 6.20841 -3.40532 0
M  V30 5038 H 475.072 5.31105 -1.9128 0
M  V30 5039 N 474.47 1.03057 1.19235 0
M  V30 5040 C 475.402 0.570932 2.21975 0
M  V30 5041 C 476.415 -0.354088 1.58903 0
M  V30 5042 O 477.604 -0.150211 1.77867 0
M  V30 5043 C 474.704 -0.187152 3.38383 0
M  V30 5044 C 473.877 0.743231 4.31039 0
M  V30 5045 C 472.936 0.0302493 5.26191 0
M  V30 5046 O 471.962 0.657371 5.65391 0
M  V30 5047 N 473.164 -1.23991 5.67104 0
M  V30 5048 H 475.929 1.45456 2.62036 0
M  V30 5049 H 473.49 0.909807 1.33918 0
M  V30 5050 H 475.482 -0.673715 3.99053 0
M  V30 5051 H 474.052 -0.972205 2.97098 0
M  V30 5052 H 473.272 1.40985 3.68126 0
M  V30 5053 H 474.56 1.3755 4.89854 0
M  V30 5054 H 473.958 -1.77011 5.37293 0
M  V30 5055 H 472.515 -1.67093 6.30018 0
M  V30 5056 N 475.948 -1.35272 0.808662 0
M  V30 5057 C 476.88 -2.28507 0.178149 0
M  V30 5058 C 477.893 -1.50377 -0.623754 0
M  V30 5059 O 479.082 -1.72583 -0.455774 0
M  V30 5060 C 476.182 -3.30038 -0.769959 0
M  V30 5061 C 475.355 -4.37398 -0.0139749 0
M  V30 5062 C 474.414 -5.18775 -0.880875 0
M  V30 5063 O 473.44 -5.68236 -0.331059 0
M  V30 5064 N 474.642 -5.37087 -2.20267 0
M  V30 5065 H 477.407 -2.83255 0.979106 0
M  V30 5066 H 474.968 -1.47643 0.664308 0
M  V30 5067 H 476.96 -3.81371 -1.35418 0
M  V30 5068 H 475.53 -2.75789 -1.47171 0
M  V30 5069 H 474.75 -3.86971 0.751468 0
M  V30 5070 H 476.038 -5.06268 0.506965 0
M  V30 5071 H 475.436 -4.9855 -2.67328 0
M  V30 5072 H 473.993 -5.91593 -2.73608 0
M  V30 5073 N 477.426 -0.562348 -1.47226 0
M  V30 5074 C 478.356 0.170627 -2.32876 0
M  V30 5075 C 479.337 0.903748 -1.44106 0
M  V30 5076 O 480.522 0.883206 -1.72954 0
M  V30 5077 C 477.652 1.19786 -3.25989 0
M  V30 5078 C 476.606 0.580875 -4.2404 0
M  V30 5079 C 475.932 1.71311 -5.06514 0
M  V30 5080 C 477.232 -0.468714 -5.20193 0
M  V30 5081 H 478.926 -0.544441 -2.94408 0
M  V30 5082 H 476.472 -0.263271 -1.41573 0
M  V30 5083 H 478.425 1.71884 -3.84752 0
M  V30 5084 H 477.149 1.94294 -2.62521 0
M  V30 5085 H 475.808 0.0811538 -3.6651 0
M  V30 5086 H 475.456 2.44736 -4.39447 0
M  V30 5087 H 475.156 1.30604 -5.72902 0
M  V30 5088 H 476.68 2.23725 -5.68137 0
M  V30 5089 H 478.094 -0.0336028 -5.7329 0
M  V30 5090 H 476.491 -0.794957 -5.94811 0
M  V30 5091 H 477.561 -1.36269 -4.65359 0
M  V30 5092 N 478.904 1.54736 -0.299062 0
M  V30 5093 C 479.836 2.20891 0.61153 0
M  V30 5094 C 480.849 1.20104 1.09904 0
M  V30 5095 O 482.038 1.46707 1.01683 0
M  V30 5096 C 479.138 2.84018 1.84897 0
M  V30 5097 C 478.311 4.10719 1.50428 0
M  V30 5098 C 477.37 4.57667 2.59667 0
M  V30 5099 O 476.396 5.2291 2.24842 0
M  V30 5100 N 477.598 4.29821 3.90172 0
M  V30 5101 H 480.363 2.99666 0.0452001 0
M  V30 5102 H 477.924 1.61446 -0.121178 0
M  V30 5103 H 479.916 3.1236 2.5732 0
M  V30 5104 H 478.486 2.09095 2.32375 0
M  V30 5105 H 477.706 3.89408 0.612781 0
M  V30 5106 H 478.994 4.93223 1.24934 0
M  V30 5107 H 478.392 3.77549 4.21276 0
M  V30 5108 H 476.949 4.62877 4.58899 0
M  V30 5109 N 480.382 0.0267497 1.57577 0
M  V30 5110 C 481.329 -0.955894 2.10075 0
M  V30 5111 C 482.299 -1.32453 1.00226 0
M  V30 5112 O 483.484 -1.41826 1.27632 0
M  V30 5113 C 480.624 -2.2338 2.6305 0
M  V30 5114 C 479.737 -1.92183 3.86898 0
M  V30 5115 C 478.872 -3.14251 4.28275 0
M  V30 5116 C 477.911 -2.78862 5.44888 0
M  V30 5117 N 477.048 -3.93548 5.81433 0
M  V30 5118 H 481.888 -0.501303 2.93753 0
M  V30 5119 H 479.425 -0.235847 1.45197 0
M  V30 5120 H 481.383 -2.98124 2.91853 0
M  V30 5121 H 480.013 -2.6646 1.82205 0
M  V30 5122 H 479.065 -1.07692 3.64838 0
M  V30 5123 H 480.377 -1.62117 4.7172 0
M  V30 5124 H 479.531 -3.97317 4.58502 0
M  V30 5125 H 478.27 -3.47476 3.42215 0
M  V30 5126 H 477.275 -1.94208 5.14357 0
M  V30 5127 H 478.5 -2.46855 6.32645 0
M  V30 5128 H 476.446 -4.2662 4.98328 0
M  V30 5129 H 476.363 -3.67098 6.6089 0
M  V30 5130 H 477.631 -4.77325 6.16264 0
M  V30 5131 N 481.861 -1.55662 -0.24637 0
M  V30 5132 C 483.089 -1.81575 -0.991876 0
M  V30 5133 C 483.504 -0.602545 -1.78927 0
M  V30 5134 O 482.861 0.428795 -1.77391 0
M  V30 5135 C 482.912 -3.05711 -1.92933 0
M  V30 5136 O 482.633 -4.22348 -1.1642 0
M  V30 5137 C 484.134 -3.44428 -2.79078 0
M  V30 5138 H 481.354 -0.604209 -0.291844 0
M  V30 5139 H 483.898 -2.02722 -0.269095 0
M  V30 5140 H 482.053 -2.86612 -2.60638 0
M  V30 5141 H 482.467 -4.92706 -1.79835 0
M  V30 5142 H 483.941 -4.34388 -3.40603 0
M  V30 5143 H 484.418 -2.65037 -3.50217 0
M  V30 5144 H 485.024 -3.65879 -2.16824 0
M  V30 5145 N 483.339 0.512053 -1.4905 0
M  V30 5146 C 484.269 1.62365 -1.67809 0
M  V30 5147 C 485.25 1.61737 -0.526809 0
M  V30 5148 O 486.435 1.78651 -0.761404 0
M  V30 5149 C 483.565 3.00895 -1.73435 0
M  V30 5150 C 482.519 3.16387 -2.88242 0
M  V30 5151 C 481.845 4.56157 -2.78971 0
M  V30 5152 C 483.145 2.97457 -4.29321 0
M  V30 5153 H 484.839 1.46921 -2.60873 0
M  V30 5154 H 482.385 0.705379 -1.2554 0
M  V30 5155 H 484.338 3.78549 -1.85145 0
M  V30 5156 H 483.062 3.17403 -0.769619 0
M  V30 5157 H 481.721 2.41155 -2.76116 0
M  V30 5158 H 481.369 4.69525 -1.8043 0
M  V30 5159 H 481.069 4.67465 -3.5602 0
M  V30 5160 H 482.593 5.35886 -2.92675 0
M  V30 5161 H 484.007 3.64888 -4.42187 0
M  V30 5162 H 482.404 3.20245 -5.07507 0
M  V30 5163 H 483.474 1.93692 -4.44535 0
M  V30 5164 N 484.817 1.37938 0.762283 0
M  V30 5165 C 485.78 1.34279 1.85747 0
M  V30 5166 C 486.78 0.244969 1.58923 0
M  V30 5167 O 487.97 0.501365 1.66829 0
M  V30 5168 C 485.102 1.08833 3.23061 0
M  V30 5169 H 486.295 2.31705 1.90401 0
M  V30 5170 H 483.848 1.23105 0.963057 0
M  V30 5171 H 484.583 0.119767 3.24079 0
M  V30 5172 H 484.368 1.88306 3.43923 0
M  V30 5173 H 485.858 1.08946 4.03138 0
M  V30 5174 N 486.295 -0.989507 1.22664 0
M  V30 5175 C 487.52 -1.77031 1.08051 0
M  V30 5176 C 487.945 -1.84535 -0.364483 0
M  V30 5177 O 487.303 -1.3003 -1.2634 0
M  V30 5178 C 487.351 -3.18 1.70024 0
M  V30 5179 O 486.455 -4.01161 0.956216 0
M  V30 5180 H 485.796 -0.545008 0.379292 0
M  V30 5181 H 488.326 -1.24277 1.62531 0
M  V30 5182 H 488.336 -3.68616 1.74888 0
M  V30 5183 H 487.011 -3.11853 2.75174 0
M  V30 5184 H 485.588 -3.59687 0.98384 0
M  V30 5185 N 487.773 -1.03688 -1.18687 0
M  V30 5186 C 489.184 -0.766488 -1.70241 0
M  V30 5187 C 489.535 0.713052 -1.82784 0
M  V30 5188 O 488.66 1.55529 -1.50465 0
M  V30 5189 C 489.255 -1.38475 -3.09209 0
M  V30 5190 C 487.814 -1.16276 -3.5799 0
M  V30 5191 C 486.961 -1.4778 -2.34641 0
M  V30 5192 H 489.912 -1.20378 -1.03415 0
M  V30 5193 H 489.933 -0.785939 -3.72295 0
M  V30 5194 H 489.445 -2.46157 -3.00048 0
M  V30 5195 H 487.546 -0.104508 -3.72453 0
M  V30 5196 H 487.659 -1.8571 -4.41643 0
M  V30 5197 H 486.023 -0.897366 -2.38368 0
M  V30 5198 H 486.806 -2.56562 -2.28102 0
M  V30 5199 N 489.251 1.34841 -0.815825 0
M  V30 5200 C 490.214 2.27959 -0.238185 0
M  V30 5201 C 491.214 1.49983 0.579816 0
M  V30 5202 O 492.404 1.69617 0.396953 0
M  V30 5203 C 489.536 3.34314 0.666876 0
M  V30 5204 H 490.729 2.80558 -1.05958 0
M  V30 5205 H 488.282 1.44852 -0.587156 0
M  V30 5206 H 489.017 2.86916 1.5116 0
M  V30 5207 H 488.802 3.92014 0.0819106 0
M  V30 5208 H 490.292 4.0379 1.06506 0
M  V30 5209 N 490.729 0.570148 1.46925 0
M  V30 5210 C 492.006 -0.0153259 1.95594 0
M  V30 5211 C 492.386 -1.47232 1.51281 0
M  V30 5212 O 491.734 -2.15574 0.757624 0
M  V30 5213 C 491.944 0.143624 3.48704 0
M  V30 5214 C 493.292 0.00494484 4.246 0
M  V30 5215 O 494.316 0.0718214 3.56128 0
M  V30 5216 O 493.175 -0.141175 5.46318 0
M  V30 5217 H 490.269 -0.0568819 0.825041 0
M  V30 5218 H 492.815 0.637583 1.57267 0
M  V30 5219 H 491.587 1.15699 3.73804 0
M  V30 5220 H 491.21 -0.5463 3.93829 0
M  V30 5221 N 492.207 -1.54576 0.307264 0
M  V30 5222 C 493.435 -2.04675 -0.302597 0
M  V30 5223 C 493.85 -1.18425 -1.47041 0
M  V30 5224 O 493.207 -0.211257 -1.81273 0
M  V30 5225 C 493.258 -3.53575 -0.752801 0
M  V30 5226 O 492.979 -4.36547 0.368536 0
M  V30 5227 C 494.48 -4.19699 -1.42717 0
M  V30 5228 H 491.7 -0.66786 -0.0648374 0
M  V30 5229 H 494.244 -1.99516 0.448716 0
M  V30 5230 H 492.399 -3.59074 -1.45412 0
M  V30 5231 H 492.813 -5.24497 0.0168937 0
M  V30 5232 H 494.287 -5.25388 -1.69327 0
M  V30 5233 H 494.764 -3.69815 -2.36925 0
M  V30 5234 H 495.37 -4.18293 -0.768856 0
M  V30 5235 N 493.685 -0.035106 -1.57561 0
M  V30 5236 C 494.648 0.929819 -2.09492 0
M  V30 5237 C 495.648 1.25026 -1.01119 0
M  V30 5238 O 496.838 1.18961 -1.27255 0
M  V30 5239 C 493.97 2.24457 -2.56577 0
M  V30 5240 H 495.163 0.479935 -2.96035 0
M  V30 5241 H 492.716 0.213033 -1.54841 0
M  V30 5242 H 493.451 2.74061 -1.73382 0
M  V30 5243 H 493.236 2.02508 -3.35757 0
M  V30 5244 H 494.726 2.93607 -2.96959 0
M  V30 5245 N 495.163 1.55791 0.238111 0
M  V30 5246 C 496.411 1.77681 0.963001 0
M  V30 5247 C 496.732 0.600674 1.85518 0
M  V30 5248 O 496.002 -0.383182 1.92116 0
M  V30 5249 H 494.582 0.655315 0.358568 0
M  V30 5250 H 497.244 1.93239 0.253945 0
M  V30 5251 H 496.34 2.69177 1.57956 0
M  V30 5252 N 496.642 -0.504142 1.49319 0
M  V30 5253 C 497.889 -1.25846 1.58647 0
M  V30 5254 C 498.217 -1.92592 0.27177 0
M  V30 5255 O 497.472 -1.81167 -0.74007 0
M  V30 5256 C 497.771 -2.35021 2.69258 0
M  V30 5257 C 497.437 -1.85755 4.1086 0
M  V30 5258 C 496.099 -1.72038 4.49395 0
M  V30 5259 C 498.451 -1.48844 4.99495 0
M  V30 5260 C 495.779 -1.19783 5.74342 0
M  V30 5261 C 498.131 -0.980422 6.24956 0
M  V30 5262 C 496.795 -0.829622 6.62324 0
M  V30 5263 H 496.065 -0.460505 0.580531 0
M  V30 5264 H 498.712 -0.559716 1.83138 0
M  V30 5265 H 497.017 -3.10672 2.38726 0
M  V30 5266 H 498.714 -2.93083 2.73685 0
M  V30 5267 H 495.304 -1.9739 3.80441 0
M  V30 5268 H 499.488 -1.5829 4.70381 0
M  V30 5269 H 494.744 -1.06817 6.01997 0
M  V30 5270 H 498.918 -0.685608 6.93017 0
M  V30 5271 H 496.545 -0.42253 7.59025 0
M  V30 5272 N 498.12 -1.38341 -0.754957 0
M  V30 5273 C 499.05 -1.38176 -1.88227 0
M  V30 5274 C 500.031 -0.247873 -1.68284 0
M  V30 5275 O 501.216 -0.45075 -1.88896 0
M  V30 5276 C 498.346 -1.20471 -3.25736 0
M  V30 5277 C 497.3 -2.3105 -3.60278 0
M  V30 5278 C 496.626 -1.98452 -4.96509 0
M  V30 5279 C 497.926 -3.73305 -3.65295 0
M  V30 5280 H 499.62 -2.32512 -1.88622 0
M  V30 5281 H 497.166 -1.1192 -0.906082 0
M  V30 5282 H 499.119 -1.18982 -4.04254 0
M  V30 5283 H 497.843 -0.225965 -3.25817 0
M  V30 5284 H 496.502 -2.31723 -2.84078 0
M  V30 5285 H 496.15 -0.990641 -4.93148 0
M  V30 5286 H 495.85 -2.7251 -5.20588 0
M  V30 5287 H 497.374 -1.98578 -5.77407 0
M  V30 5288 H 498.788 -3.7467 -4.3393 0
M  V30 5289 H 497.185 -4.46557 -4.00883 0
M  V30 5290 H 498.255 -4.05719 -2.65556 0
M  V30 5291 N 499.598 0.982988 -1.23187 0
M  V30 5292 C 500.548 2.05962 -0.977942 0
M  V30 5293 C 501.532 1.60725 0.0751148 0
M  V30 5294 O 502.724 1.76471 -0.136683 0
M  V30 5295 C 499.853 3.38564 -0.568276 0
M  V30 5296 C 498.939 3.90407 -1.6566 0
M  V30 5297 N 499.33 4.15359 -2.88635 0
M  V30 5298 C 497.628 4.18915 -1.53058 0
M  V30 5299 C 498.329 4.57642 -3.5908 0
M  V30 5300 N 497.305 4.6192 -2.86584 0
M  V30 5301 H 501.107 2.23208 -1.91195 0
M  V30 5302 H 498.621 1.16555 -1.13087 0
M  V30 5303 H 500.618 4.15276 -0.36764 0
M  V30 5304 H 499.278 3.22712 0.358713 0
M  V30 5305 H 500.289 4.03258 -3.24966 0
M  V30 5306 H 496.966 4.12081 -0.670506 0
M  V30 5307 H 498.356 4.85488 -4.6449 0
M  V30 5308 N 501.076 1.04316 1.18135 0
M  V30 5309 C 502.301 0.768047 1.92655 0
M  V30 5310 C 502.726 -0.66904 1.758 0
M  V30 5311 O 502.084 -1.46372 1.06981 0
M  V30 5312 C 502.132 1.14239 3.42026 0
M  V30 5313 O 501.236 0.269333 4.1152 0
M  V30 5314 H 500.577 0.282436 0.600937 0
M  V30 5315 H 503.107 1.39367 1.49793 0
M  V30 5316 H 503.117 1.10538 3.92741 0
M  V30 5317 H 501.792 2.18928 3.53615 0
M  V30 5318 H 500.369 0.366175 3.71098 0
M  V30 5319 N 502.554 -1.34406 0.822964 0
M  V30 5320 C 503.779 -2.0304 0.423034 0
M  V30 5321 C 504.204 -1.61568 -0.963196 0
M  V30 5322 O 503.562 -0.800339 -1.62678 0
M  V30 5323 C 503.61 -3.56636 0.53321 0
M  V30 5324 O 502.714 -4.09971 -0.446939 0
M  V30 5325 H 502.055 -0.64075 0.174171 0
M  V30 5326 H 504.585 -1.71653 1.11339 0
M  V30 5327 H 504.595 -4.05945 0.408991 0
M  V30 5328 H 503.27 -3.86168 1.54425 0
M  V30 5329 H 501.847 -3.71835 -0.281601 0
M  V30 5330 N 504.032 -0.577932 -1.46621 0
M  V30 5331 C 505.448 -0.239242 -1.57797 0
M  V30 5332 C 505.648 1.25843 -1.57371 0
M  V30 5333 O 504.704 2.03988 -1.48813 0
M  V30 5334 C 506.017 -0.884227 -2.87405 0
M  V30 5335 C 507.565 -0.857373 -3.01028 0
M  V30 5336 C 508.04 -1.48181 -4.33366 0
M  V30 5337 N 509.531 -1.44593 -4.40053 0
M  V30 5338 C 510.266 -1.89852 -5.41058 0
M  V30 5339 N 509.762 -2.43062 -6.48762 0
M  V30 5340 N 511.555 -1.80797 -5.3223 0
M  V30 5341 H 503.706 -1.55073 -1.45142 0
M  V30 5342 H 505.969 -0.647903 -0.692044 0
M  V30 5343 H 505.675 -1.93759 -2.93514 0
M  V30 5344 H 505.549 -0.389585 -3.75183 0
M  V30 5345 H 507.936 0.187357 -2.94505 0
M  V30 5346 H 508.017 -1.38999 -2.14739 0
M  V30 5347 H 507.661 -2.52572 -4.40647 0
M  V30 5348 H 507.591 -0.924464 -5.18422 0
M  V30 5349 H 510.082 -1.05694 -3.62819 0
M  V30 5350 H 510.395 -2.75466 -7.22038 0
M  V30 5351 H 508.74 -2.47085 -6.49595 0
M  V30 5352 H 511.931 -1.38989 -4.46989 0
M  V30 5353 H 512.104 -2.16385 -6.10804 0
M  V30 5354 N 505.51 1.54411 -0.315457 0
M  V30 5355 C 506.787 1.92562 0.343398 0
M  V30 5356 C 507.167 1.24423 1.70535 0
M  V30 5357 O 506.515 0.385051 2.25232 0
M  V30 5358 C 506.725 3.46168 0.443687 0
M  V30 5359 C 508.073 4.18659 0.707783 0
M  V30 5360 O 509.097 3.52281 0.52693 0
M  V30 5361 O 507.956 5.36198 1.05612 0
M  V30 5362 H 505.05 0.80379 0.194552 0
M  V30 5363 H 507.596 1.65738 -0.364577 0
M  V30 5364 H 506.368 3.8792 -0.513172 0
M  V30 5365 H 505.991 3.79073 1.19956 0
M  V30 5366 N 506.988 0.0434614 1.5754 0
M  V30 5367 C 508.213 -0.645358 1.97104 0
M  V30 5368 C 508.638 -1.64037 0.920521 0
M  V30 5369 O 507.996 -1.80922 -0.11708 0
M  V30 5370 C 508.044 -1.31547 3.35749 0
M  V30 5371 O 507.148 -2.43103 3.33129 0
M  V30 5372 H 506.489 -0.168403 0.64229 0
M  V30 5373 H 509.019 0.109573 2.04306 0
M  V30 5374 H 509.029 -1.66895 3.72304 0
M  V30 5375 H 507.704 -0.586205 4.11748 0
M  V30 5376 H 506.281 -2.0976 3.0831 0
M  V30 5377 N 508.466 -1.55915 -0.229846 0
M  V30 5378 C 509.714 -1.7819 -0.953565 0
M  V30 5379 C 510.035 -0.610504 -1.85197 0
M  V30 5380 O 509.305 0.372988 -1.92316 0
M  V30 5381 H 507.885 -0.657208 -0.355087 0
M  V30 5382 H 510.547 -1.9337 -0.243693 0
M  V30 5383 H 509.643 -2.70011 -1.56527 0
M  V30 5384 N 509.944 0.496216 -1.49584 0
M  V30 5385 C 511.192 1.24756 -1.58998 0
M  V30 5386 C 511.513 1.92968 -0.280775 0
M  V30 5387 O 510.783 1.82959 0.700198 0
M  V30 5388 H 509.363 0.463471 -0.585836 0
M  V30 5389 H 512.025 0.574678 -1.86235 0
M  V30 5390 H 511.121 2.00895 -2.38847 0
M  V30 5391 N 511.423 1.38739 0.74761 0
M  V30 5392 C 512.648 1.38702 1.54197 0
M  V30 5393 C 513.073 -0.019664 1.8809 0
M  V30 5394 O 512.431 -1.00333 1.51006 0
M  V30 5395 C 512.479 2.25492 2.814 0
M  V30 5396 O 511.583 1.67613 3.76802 0
M  V30 5397 H 510.924 0.472863 0.466151 0
M  V30 5398 H 513.454 1.82577 0.923413 0
M  V30 5399 H 513.464 2.39561 3.30264 0
M  V30 5400 H 512.139 3.27727 2.56062 0
M  V30 5401 H 510.716 1.62718 3.35526 0
M  V30 5402 N 512.901 -0.976442 1.23707 0
M  V30 5403 C 513.848 -2.06952 1.02174 0
M  V30 5404 C 514.818 -1.65984 -0.0621034 0
M  V30 5405 O 516.003 -1.90584 0.0907906 0
M  V30 5406 C 513.143 -3.39425 0.62327 0
M  V30 5407 C 512.256 -3.9364 1.77966 0
M  V30 5408 C 511.391 -5.14343 1.3276 0
M  V30 5409 C 510.43 -5.60733 2.45449 0
M  V30 5410 N 509.567 -6.72662 2.01172 0
M  V30 5411 H 514.407 -2.24704 1.95734 0
M  V30 5412 H 511.944 -1.10143 0.975034 0
M  V30 5413 H 513.902 -4.15526 0.37332 0
M  V30 5414 H 512.532 -3.21624 -0.275329 0
M  V30 5415 H 511.584 -3.14258 2.14351 0
M  V30 5416 H 512.896 -4.24035 2.62671 0
M  V30 5417 H 512.05 -5.97789 1.03601 0
M  V30 5418 H 510.789 -4.8561 0.450975 0
M  V30 5419 H 509.794 -4.75865 2.75378 0
M  V30 5420 H 511.019 -5.91483 3.33654 0
M  V30 5421 H 508.965 -6.45681 1.15895 0
M  V30 5422 H 508.882 -7.02462 2.79434 0
M  V30 5423 H 510.15 -7.59572 1.75129 0
M  V30 5424 N 514.379 -1.04941 -1.1758 0
M  V30 5425 C 515.656 -0.671918 -1.83697 0
M  V30 5426 C 516.036 0.847929 -1.93322 0
M  V30 5427 O 515.384 1.75287 -1.46583 0
M  V30 5428 C 515.594 -1.35797 -3.21497 0
M  V30 5429 C 516.942 -1.4944 -3.97433 0
M  V30 5430 O 517.966 -1.31678 -3.30967 0
M  V30 5431 O 516.825 -1.78463 -5.1654 0
M  V30 5432 H 513.919 -0.236212 -0.792548 0
M  V30 5433 H 516.465 -1.14884 -1.24899 0
M  V30 5434 H 515.237 -2.39498 -3.09446 0
M  V30 5435 H 514.86 -0.870236 -3.8796 0
M  V30 5436 N 515.857 1.33968 -0.830081 0
M  V30 5437 C 517.082 2.02813 -0.433796 0
M  V30 5438 C 517.507 1.62076 0.954614 0
M  V30 5439 O 516.865 0.808955 1.62252 0
M  V30 5440 C 516.913 3.56348 -0.552115 0
M  V30 5441 O 516.017 4.10202 0.425191 0
M  V30 5442 H 515.358 0.639817 -0.177567 0
M  V30 5443 H 517.888 1.7106 -1.12248 0
M  V30 5444 H 517.898 4.05722 -0.430513 0
M  V30 5445 H 516.573 3.85344 -1.56471 0
M  V30 5446 H 515.15 3.71979 0.261878 0
M  V30 5447 N 517.335 0.585699 1.46312 0
M  V30 5448 C 518.56 0.0762461 2.0726 0
M  V30 5449 C 518.985 -1.22071 1.43109 0
M  V30 5450 O 518.343 -1.73804 0.515942 0
M  V30 5451 C 518.391 -0.0729404 3.60526 0
M  V30 5452 O 517.495 -1.1287 3.96654 0
M  V30 5453 H 516.836 0.0641558 0.660893 0
M  V30 5454 H 519.366 0.809492 1.87905 0
M  V30 5455 H 519.376 -0.278158 4.07051 0
M  V30 5456 H 518.051 0.874188 4.06609 0
M  V30 5457 H 516.628 -0.901703 3.61834 0
M  V30 5458 N 518.813 -1.54241 0.323641 0
M  V30 5459 C 520.053 -2.0248 -0.279502 0
M  V30 5460 C 520.417 -1.20672 -1.49339 0
M  V30 5461 O 521.618 -1.58715 -2.1694 0
M  V30 5462 C 519.889 -3.52238 -0.605266 0
M  V30 5463 S 521.448 -4.22411 -1.18805 0
M  V30 5464 H 518.266 -0.705957 -0.0845313 0
M  V30 5465 H 520.868 -1.90089 0.456781 0
M  V30 5466 H 519.572 -4.094 0.286339 0
M  V30 5467 H 519.103 -3.6871 -1.37174 0
M  V30 5468 H 521.118 -4.30075 -2.47487 0
M  V30 5469 N 520.291 -0.0518155 -1.57515 0
M  V30 5470 C 521.568 0.661727 -1.84067 0
M  V30 5471 C 521.948 1.88999 -0.940351 0
M  V30 5472 O 521.296 2.285 -0.00155404 0
M  V30 5473 C 521.506 1.01841 -3.3381 0
M  V30 5474 C 522.854 1.40043 -4.00841 0
M  V30 5475 O 523.878 1.11073 -3.38439 0
M  V30 5476 O 522.737 1.94111 -5.10865 0
M  V30 5477 H 519.831 0.326702 -0.759733 0
M  V30 5478 H 522.377 -0.0812277 -1.69505 0
M  V30 5479 H 521.149 0.145202 -3.91031 0
M  V30 5480 H 520.772 1.81879 -3.53562 0
M  V30 5481 N 521.769 1.56035 0.221574 0
M  V30 5482 C 522.997 1.8313 0.962864 0
M  V30 5483 C 523.412 0.630934 1.77946 0
M  V30 5484 O 522.769 -0.400519 1.78051 0
M  V30 5485 C 522.82 3.08742 1.88045 0
M  V30 5486 O 522.541 4.24147 1.09686 0
M  V30 5487 C 524.042 3.48824 2.73563 0
M  V30 5488 H 521.262 0.608775 0.282194 0
M  V30 5489 H 523.806 2.03124 0.23681 0
M  V30 5490 H 521.961 2.90723 2.56045 0
M  V30 5491 H 522.375 4.95505 1.71974 0
M  V30 5492 H 523.849 4.39752 3.3365 0
M  V30 5493 H 524.326 2.70575 3.45956 0
M  V30 5494 H 524.932 3.69282 2.10976 0
M  V30 5495 N 523.247 -0.488276 1.49845 0
M  V30 5496 C 524.524 -1.24959 1.50481 0
M  V30 5497 C 524.904 -2.09735 0.239698 0
M  V30 5498 O 524.252 -2.14865 -0.777524 0
M  V30 5499 C 524.462 -2.0954 2.79095 0
M  V30 5500 C 525.81 -2.68305 3.29086 0
M  V30 5501 O 526.834 -2.19797 2.80299 0
M  V30 5502 O 525.693 -3.56643 4.14087 0
M  V30 5503 H 522.787 -0.566133 0.602845 0
M  V30 5504 H 525.333 -0.501504 1.6212 0
M  V30 5505 H 524.105 -1.46958 3.62656 0
M  V30 5506 H 523.728 -2.91517 2.70377 0
M  V30 5507 N 524.725 -1.39134 -0.740242 0
M  V30 5508 C 526.002 -1.26584 -1.49117 0
M  V30 5509 C 526.382 0.126902 -2.10718 0
M  V30 5510 O 525.73 1.13765 -1.98166 0
M  V30 5511 C 525.94 -2.38619 -2.54681 0
M  V30 5512 C 527.288 -2.77685 -3.21211 0
M  V30 5513 O 528.312 -2.38029 -2.64991 0
M  V30 5514 O 527.171 -3.46115 -4.22926 0
M  V30 5515 H 524.265 -0.495769 -0.661923 0
M  V30 5516 H 526.811 -1.50995 -0.774514 0
M  V30 5517 H 525.583 -3.3175 -2.07504 0
M  V30 5518 H 525.206 -2.15845 -3.33911 0
M  V30 5519 N 526.204 0.969867 -1.24223 0
M  V30 5520 C 527.451 1.71256 -1.08063 0
M  V30 5521 C 527.779 1.90734 0.380872 0
M  V30 5522 O 527.034 1.46469 1.29789 0
M  V30 5523 C 527.333 3.10883 -1.76314 0
M  V30 5524 C 526.999 3.11252 -3.26241 0
M  V30 5525 C 525.661 3.1106 -3.67144 0
M  V30 5526 C 528.013 3.05751 -4.22097 0
M  V30 5527 C 525.341 3.03097 -5.02344 0
M  V30 5528 C 527.693 2.9933 -5.57301 0
M  V30 5529 C 526.357 2.97466 -5.97554 0
M  V30 5530 H 525.627 0.62667 -0.395431 0
M  V30 5531 H 528.274 1.13422 -1.54297 0
M  V30 5532 H 526.579 3.72168 -1.22468 0
M  V30 5533 H 528.276 3.67138 -1.61277 0
M  V30 5534 H 524.866 3.12165 -2.93685 0
M  V30 5535 H 529.05 3.05031 -3.91497 0
M  V30 5536 H 524.306 3.00013 -5.32731 0
M  V30 5537 H 528.48 2.94033 -6.31283 0
M  V30 5538 H 526.107 2.91051 -7.02277 0
M  V30 5539 N 527.682 1.05563 1.17022 0
M  V30 5540 C 528.928 0.769074 1.87652 0
M  V30 5541 C 529.261 -0.702326 1.81055 0
M  V30 5542 O 528.536 -1.5139 1.22112 0
M  V30 5543 C 528.819 1.25492 3.37526 0
M  V30 5544 C 528.672 2.78953 3.52853 0
M  V30 5545 C 529.991 0.856919 4.31677 0
M  V30 5546 H 527.11 0.280854 0.681388 0
M  V30 5547 H 529.752 1.31027 1.37593 0
M  V30 5548 H 527.902 0.794516 3.80289 0
M  V30 5549 H 529.574 3.33146 3.19079 0
M  V30 5550 H 527.817 3.18046 2.95007 0
M  V30 5551 H 528.488 3.08011 4.58076 0
M  V30 5552 H 530.964 1.25334 3.96775 0
M  V30 5553 H 529.84 1.22443 5.35069 0
M  V30 5554 H 530.101 -0.238787 4.41455 0
M  V30 5555 N 529.16 -1.33526 0.837174 0
M  V30 5556 C 530.093 -2.27192 0.214233 0
M  V30 5557 C 531.071 -1.49575 -0.637657 0
M  V30 5558 O 532.255 -1.78753 -0.598291 0
M  V30 5559 C 529.382 -3.31401 -0.699367 0
M  V30 5560 C 528.428 -4.26431 0.0768429 0
M  V30 5561 S 529.261 -5.15954 1.4336 0
M  V30 5562 C 530.417 -6.23692 0.525251 0
M  V30 5563 H 530.65 -2.79679 1.00831 0
M  V30 5564 H 528.183 -1.4079 0.633834 0
M  V30 5565 H 530.141 -3.91924 -1.22088 0
M  V30 5566 H 528.802 -2.77732 -1.46709 0
M  V30 5567 H 527.995 -5.00193 -0.618268 0
M  V30 5568 H 527.597 -3.70235 0.529364 0
M  V30 5569 H 529.889 -6.76931 -0.277575 0
M  V30 5570 H 530.832 -6.97283 1.23299 0
M  V30 5571 H 531.24 -5.64398 0.107351 0
M  V30 5572 N 530.638 -0.59345 -1.46 0
M  V30 5573 C 531.884 -0.0832754 -2.02629 0
M  V30 5574 C 532.217 1.27749 -1.46266 0
M  V30 5575 O 531.492 1.8395 -0.631866 0
M  V30 5576 C 531.775 -0.0290756 -3.60088 0
M  V30 5577 C 531.628 -1.41951 -4.26814 0
M  V30 5578 C 532.947 0.666055 -4.35031 0
M  V30 5579 H 530.066 -0.031736 -0.736316 0
M  V30 5580 H 532.708 -0.762711 -1.74019 0
M  V30 5581 H 530.858 0.549532 -3.84594 0
M  V30 5582 H 532.53 -2.04411 -4.13538 0
M  V30 5583 H 530.773 -1.98422 -3.8576 0
M  V30 5584 H 531.444 -1.33395 -5.3564 0
M  V30 5585 H 533.92 0.174401 -4.15734 0
M  V30 5586 H 532.796 0.673041 -5.44758 0
M  V30 5587 H 533.057 1.72946 -4.06869 0
M  V30 5588 N 532.116 1.54067 -0.331816 0
M  V30 5589 C 533.527 1.86059 0.15454 0
M  V30 5590 C 533.878 1.25331 1.50952 0
M  V30 5591 O 533.003 0.562441 2.08963 0
M  V30 5592 C 533.598 3.37581 0.287192 0
M  V30 5593 C 532.157 3.69493 0.717773 0
M  V30 5594 C 531.304 2.76863 -0.155569 0
M  V30 5595 H 534.255 1.48797 -0.55182 0
M  V30 5596 H 534.276 3.63744 1.11671 0
M  V30 5597 H 533.788 3.81751 -0.699131 0
M  V30 5598 H 531.889 3.3086 1.71354 0
M  V30 5599 H 532.002 4.76315 0.5158 0
M  V30 5600 H 530.366 2.51995 0.370213 0
M  V30 5601 H 531.149 3.23861 -1.13881 0
M  V30 5602 N 533.594 0.0601682 1.57485 0
M  V30 5603 C 534.557 -0.896373 2.10945 0
M  V30 5604 C 535.557 -1.23402 1.03095 0
M  V30 5605 O 536.747 -1.16921 1.29132 0
M  V30 5606 C 533.879 -2.20346 2.60116 0
M  V30 5607 H 535.072 -0.432778 2.96761 0
M  V30 5608 H 532.625 -0.188372 1.55161 0
M  V30 5609 H 533.36 -2.71268 1.7772 0
M  V30 5610 H 533.145 -1.9714 3.38937 0
M  V30 5611 H 534.635 -2.88846 3.01592 0
M  V30 5612 N 535.072 -1.5615 -0.213296 0
M  V30 5613 C 536.004 -1.89586 -1.28802 0
M  V30 5614 C 537.017 -0.784844 -1.42633 0
M  V30 5615 O 538.206 -1.06319 -1.43383 0
M  V30 5616 C 535.306 -2.09665 -2.66259 0
M  V30 5617 C 534.479 -3.40726 -2.7427 0
M  V30 5618 C 533.538 -3.50137 -3.92798 0
M  V30 5619 O 532.564 -4.23105 -3.8075 0
M  V30 5620 N 533.766 -2.81886 -5.07465 0
M  V30 5621 H 536.531 -2.82368 -1.00442 0
M  V30 5622 H 534.092 -1.56796 -0.403302 0
M  V30 5623 H 536.084 -2.13268 -3.43946 0
M  V30 5624 H 534.654 -1.23469 -2.87183 0
M  V30 5625 H 533.874 -3.4915 -1.82997 0
M  V30 5626 H 535.162 -4.27048 -2.76599 0
M  V30 5627 H 534.56 -2.22397 -5.2015 0
M  V30 5628 H 533.117 -2.91139 -5.83165 0
M  V30 5629 N 536.55 0.480323 -1.50102 0
M  V30 5630 C 537.797 1.23307 -1.60629 0
M  V30 5631 C 538.125 1.92135 -0.302375 0
M  V30 5632 O 537.38 1.82321 0.711154 0
M  V30 5633 C 537.679 2.30708 -2.72963 0
M  V30 5634 C 537.345 1.79195 -4.13763 0
M  V30 5635 C 536.007 1.64867 -4.52076 0
M  V30 5636 C 538.359 1.40878 -5.018 0
M  V30 5637 C 535.687 1.10631 -5.76175 0
M  V30 5638 C 538.039 0.880872 -6.26437 0
M  V30 5639 C 536.703 0.724146 -6.6356 0
M  V30 5640 H 535.973 0.451211 -0.587784 0
M  V30 5641 H 538.62 0.53051 -1.84005 0
M  V30 5642 H 536.925 3.06834 -2.43639 0
M  V30 5643 H 538.622 2.88692 -2.78313 0
M  V30 5644 H 535.212 1.91313 -3.83533 0
M  V30 5645 H 539.396 1.50786 -4.7284 0
M  V30 5646 H 534.652 0.972263 -6.0362 0
M  V30 5647 H 538.826 0.575269 -6.9402 0
M  V30 5648 H 536.453 0.301722 -7.59601 0
M  V30 5649 N 538.028 1.39524 0.732853 0
M  V30 5650 C 539.439 1.32905 1.31122 0
M  V30 5651 C 539.79 -0.00558708 1.96199 0
M  V30 5652 O 538.915 -0.907706 1.96443 0
M  V30 5653 C 539.51 2.40704 2.38426 0
M  V30 5654 C 538.069 2.37599 2.91931 0
M  V30 5655 C 537.216 2.2248 1.65523 0
M  V30 5656 H 540.167 1.49581 0.530207 0
M  V30 5657 H 540.188 2.07616 3.18867 0
M  V30 5658 H 539.7 3.37829 1.91033 0
M  V30 5659 H 537.801 1.44119 3.43599 0
M  V30 5660 H 537.914 3.32538 3.44899 0
M  V30 5661 H 536.278 1.69691 1.8994 0
M  V30 5662 H 537.061 3.21577 1.20178 0
M  V30 5663 N 539.506 -0.963266 1.24736 0
M  V30 5664 C 540.754 -1.70343 1.08755 0
M  V30 5665 C 541.075 -1.91387 -0.373619 0
M  V30 5666 O 540.345 -1.4948 -1.2662 0
M  V30 5667 H 538.925 -0.631224 0.399456 0
M  V30 5668 H 541.587 -1.15859 1.56725 0
M  V30 5669 H 540.683 -2.68616 1.58909 0
M  V30 5670 N 540.985 -1.06182 -1.16461 0
M  V30 5671 C 542.262 -0.691364 -1.82974 0
M  V30 5672 C 542.642 0.827377 -1.9421 0
M  V30 5673 O 541.99 1.73723 -1.48434 0
M  V30 5674 C 542.2 -1.39199 -3.20038 0
M  V30 5675 C 543.548 -1.53647 -3.95825 0
M  V30 5676 O 544.572 -1.35181 -3.29552 0
M  V30 5677 O 543.431 -1.83932 -5.14618 0
M  V30 5678 H 540.525 -0.244605 -0.789998 0
M  V30 5679 H 543.071 -1.16203 -1.23673 0
M  V30 5680 H 541.843 -2.42766 -3.06888 0
M  V30 5681 H 541.466 -0.911335 -3.87015 0
M  V30 5682 N 542.463 1.3308 -0.844243 0
M  V30 5683 C 543.393 2.3161 -0.296493 0
M  V30 5684 C 544.374 1.59215 0.598707 0
M  V30 5685 O 545.559 1.87077 0.521134 0
M  V30 5686 C 542.689 3.43313 0.524762 0
M  V30 5687 C 541.643 4.27115 -0.275106 0
M  V30 5688 C 540.969 5.30483 0.670236 0
M  V30 5689 C 542.269 5.00443 -1.49514 0
M  V30 5690 H 543.963 2.77672 -1.11976 0
M  V30 5691 H 541.509 1.33496 -0.539899 0
M  V30 5692 H 543.462 4.11273 0.918298 0
M  V30 5693 H 542.186 2.95952 1.3813 0
M  V30 5694 H 540.845 3.60787 -0.650267 0
M  V30 5695 H 540.493 4.79379 1.52332 0
M  V30 5696 H 540.193 5.87435 0.139123 0
M  V30 5697 H 541.717 6.01308 1.06117 0
M  V30 5698 H 543.131 5.61141 -1.17447 0
M  V30 5699 H 541.528 5.67071 -1.96343 0
M  V30 5700 H 542.598 4.28906 -2.26202 0
M  V30 5701 N 543.941 0.601185 1.45683 0
M  V30 5702 C 545.187 0.0940202 2.02582 0
M  V30 5703 C 545.52 -1.26972 1.46941 0
M  V30 5704 O 544.795 -1.83613 0.641612 0
M  V30 5705 C 545.078 0.0481715 3.60068 0
M  V30 5706 C 544.931 1.44212 4.26055 0
M  V30 5707 C 546.25 -0.642975 4.35378 0
M  V30 5708 H 543.369 0.0356404 0.736138 0
M  V30 5709 H 546.011 0.771929 1.73612 0
M  V30 5710 H 544.161 -0.529128 3.8488 0
M  V30 5711 H 545.833 2.06601 4.12449 0
M  V30 5712 H 544.076 2.00465 3.84703 0
M  V30 5713 H 544.747 1.36234 5.34925 0
M  V30 5714 H 547.223 -0.152351 4.15821 0
M  V30 5715 H 546.099 -0.644141 5.45107 0
M  V30 5716 H 546.36 -1.70785 4.0778 0
M  V30 5717 N 545.419 -1.53889 0.339982 0
M  V30 5718 C 546.382 -2.23547 -0.50592 0
M  V30 5719 C 547.382 -1.23445 -1.03044 0
M  V30 5720 O 548.572 -1.47909 -0.920253 0
M  V30 5721 C 545.704 -2.95234 -1.7044 0
M  V30 5722 H 546.897 -2.99722 0.103247 0
M  V30 5723 H 544.45 -1.56033 0.0912804 0
M  V30 5724 H 545.185 -2.23236 -2.35236 0
M  V30 5725 H 544.97 -3.68654 -1.33553 0
M  V30 5726 H 546.46 -3.48258 -2.30447 0
M  V30 5727 N 546.897 -0.0685191 -1.57451 0
M  V30 5728 C 547.807 0.914677 -2.16034 0
M  V30 5729 C 548.823 1.32938 -1.12265 0
M  V30 5730 O 549.999 1.40275 -1.44516 0
M  V30 5731 C 547.064 2.16519 -2.70777 0
M  V30 5732 C 546.125 1.80721 -3.89408 0
M  V30 5733 C 545.358 2.9981 -4.41531 0
M  V30 5734 O 545.581 4.13727 -3.92666 0
M  V30 5735 O 544.515 2.79817 -5.32903 0
M  V30 5736 H 548.341 0.446364 -3.00402 0
M  V30 5737 H 545.926 0.154367 -1.486 0
M  V30 5738 H 547.808 2.89856 -3.05878 0
M  V30 5739 H 546.483 2.62454 -1.89471 0
M  V30 5740 H 545.39 1.04646 -3.59166 0
M  V30 5741 H 546.723 1.39571 -4.71997 0
M  V30 5742 N 548.375 1.56261 0.205012 0
M  V30 5743 C 549.338 1.92908 1.23771 0
M  V30 5744 C 550.338 0.809208 1.38955 0
M  V30 5745 O 551.528 1.07676 1.36936 0
M  V30 5746 C 548.66 2.19442 2.60879 0
M  V30 5747 H 549.853 2.85287 0.924728 0
M  V30 5748 H 547.406 1.49798 0.446125 0
M  V30 5749 H 548.141 1.29668 2.97248 0
M  V30 5750 H 547.926 3.0104 2.51232 0
M  V30 5751 H 549.416 2.48833 3.35368 0
M  V30 5752 N 549.853 -0.472356 1.50355 0
M  V30 5753 C 551.264 -1.05326 1.54154 0
M  V30 5754 C 551.615 -1.93155 0.344303 0
M  V30 5755 O 550.74 -2.09479 -0.542928 0
M  V30 5756 C 551.335 -1.91691 2.79356 0
M  V30 5757 C 549.894 -2.44892 2.8584 0
M  V30 5758 C 549.041 -1.23205 2.48426 0
M  V30 5759 H 551.992 -0.255027 1.56637 0
M  V30 5760 H 552.013 -2.76742 2.6114 0
M  V30 5761 H 551.525 -1.27741 3.66475 0
M  V30 5762 H 549.626 -3.12399 2.0307 0
M  V30 5763 H 549.739 -2.80086 3.88701 0
M  V30 5764 H 548.103 -1.56643 2.00836 0
M  V30 5765 H 548.886 -0.609194 3.37852 0
M  V30 5766 N 551.331 -1.39911 -0.725443 0
M  V30 5767 C 552.556 -1.41137 -1.5197 0
M  V30 5768 C 552.981 -0.010262 -1.88097 0
M  V30 5769 O 552.339 0.979184 -1.52583 0
M  V30 5770 C 552.387 -2.2994 -2.77777 0
M  V30 5771 O 551.491 -1.73586 -3.74088 0
M  V30 5772 H 550.832 -0.480219 -0.458569 0
M  V30 5773 H 553.362 -1.84023 -0.894249 0
M  V30 5774 H 553.372 -2.44785 -3.26411 0
M  V30 5775 H 552.047 -3.31759 -2.50816 0
M  V30 5776 H 550.624 -1.68035 -3.32894 0
M  V30 5777 N 552.809 0.956637 -1.25245 0
M  V30 5778 C 553.772 2.03457 -1.05537 0
M  V30 5779 C 554.772 1.60798 -0.00886317 0
M  V30 5780 O 555.962 1.72384 -0.250865 0
M  V30 5781 C 553.094 3.35543 -0.601965 0
M  V30 5782 H 554.287 2.22372 -2.01223 0
M  V30 5783 H 551.84 1.13344 -1.07623 0
M  V30 5784 H 552.575 3.22323 0.357584 0
M  V30 5785 H 552.36 3.67854 -1.35743 0
M  V30 5786 H 553.85 4.14769 -0.485454 0
M  V30 5787 N 554.287 1.06798 1.15896 0
M  V30 5788 C 555.234 0.683314 2.20453 0
M  V30 5789 C 556.204 -0.32255 1.62938 0
M  V30 5790 O 557.389 -0.210276 1.89638 0
M  V30 5791 C 554.529 0.0813266 3.45004 0
M  V30 5792 C 553.642 1.13799 4.16742 0
M  V30 5793 C 552.777 0.501598 5.28826 0
M  V30 5794 C 551.816 1.54144 5.92373 0
M  V30 5795 N 550.953 0.928038 6.9594 0
M  V30 5796 H 555.793 1.57932 2.52708 0
M  V30 5797 H 553.33 0.789544 1.24115 0
M  V30 5798 H 555.288 -0.285274 4.16224 0
M  V30 5799 H 553.918 -0.77806 3.13283 0
M  V30 5800 H 552.97 1.62223 3.44075 0
M  V30 5801 H 554.282 1.92664 4.60089 0
M  V30 5802 H 553.436 0.0823162 6.06644 0
M  V30 5803 H 552.175 -0.318883 4.86656 0
M  V30 5804 H 551.18 1.97056 5.13273 0
M  V30 5805 H 552.405 2.3641 6.36621 0
M  V30 5806 H 550.351 0.12836 6.55874 0
M  V30 5807 H 550.268 1.65401 7.37685 0
M  V30 5808 H 551.536 0.534071 7.77668 0
M  V30 5809 N 555.766 -1.3263 0.851289 0
M  V30 5810 C 557.177 -1.79653 0.5081 0
M  V30 5811 C 557.528 -1.70327 -0.973815 0
M  V30 5812 O 556.653 -1.25986 -1.75944 0
M  V30 5813 C 557.248 -3.26196 0.915515 0
M  V30 5814 C 555.807 -3.71187 0.624277 0
M  V30 5815 C 554.954 -2.53804 1.11709 0
M  V30 5816 H 557.905 -1.19976 1.03882 0
M  V30 5817 H 557.926 -3.79801 0.230535 0
M  V30 5818 H 557.438 -3.32952 1.99411 0
M  V30 5819 H 555.539 -3.69948 -0.443737 0
M  V30 5820 H 555.652 -4.64132 1.18821 0
M  V30 5821 H 554.016 -2.48964 0.537484 0
M  V30 5822 H 554.799 -2.63315 2.20272 0
M  V30 5823 N 557.244 -0.608902 -1.45362 0
M  V30 5824 C 558.655 -0.189511 -1.85736 0
M  V30 5825 C 559.006 1.2539 -1.50903 0
M  V30 5826 O 558.131 1.95094 -0.936347 0
M  V30 5827 C 558.726 -0.33716 -3.37118 0
M  V30 5828 C 557.285 0.0275487 -3.7639 0
M  V30 5829 C 556.432 -0.660983 -2.69307 0
M  V30 5830 H 559.383 -0.815499 -1.36144 0
M  V30 5831 H 559.404 0.430257 -3.7806 0
M  V30 5832 H 558.916 -1.38779 -3.62439 0
M  V30 5833 H 557.017 1.0773 -3.56686 0
M  V30 5834 H 557.13 -0.367018 -4.77692 0
M  V30 5835 H 555.494 -0.0984958 -2.54509 0
M  V30 5836 H 556.277 -1.71377 -2.97464 0
M  V30 5837 N 558.722 1.53707 -0.348139 0
M  V30 5838 C 560.133 1.86213 0.134797 0
M  V30 5839 C 560.484 1.26925 1.49614 0
M  V30 5840 O 559.609 0.584573 2.08355 0
M  V30 5841 C 560.204 3.37866 0.251371 0
M  V30 5842 C 558.763 3.70233 0.678543 0
M  V30 5843 C 557.91 2.76683 -0.184925 0
M  V30 5844 H 560.861 1.48204 -0.567571 0
M  V30 5845 H 560.882 3.64908 1.07806 0
M  V30 5846 H 560.394 3.80988 -0.739581 0
M  V30 5847 H 558.495 3.32659 1.67835 0
M  V30 5848 H 558.608 4.76836 0.465251 0
M  V30 5849 H 556.972 2.52374 0.343465 0
M  V30 5850 H 557.755 3.22635 -1.1731 0
M  V30 5851 N 560.2 0.0768682 1.57412 0
M  V30 5852 C 561.477 -0.632359 1.85096 0
M  V30 5853 C 561.857 -1.87479 0.9703 0
M  V30 5854 O 561.205 -2.28469 0.0379062 0
M  V30 5855 C 561.415 -0.965174 3.35388 0
M  V30 5856 C 562.763 -1.33648 4.03018 0
M  V30 5857 O 563.787 -1.05675 3.40164 0
M  V30 5858 O 562.646 -1.85959 5.13889 0
M  V30 5859 H 559.74 -0.314574 0.764835 0
M  V30 5860 H 562.286 0.108184 1.69355 0
M  V30 5861 H 561.058 -0.0829745 3.91212 0
M  V30 5862 H 560.681 -1.76231 3.5641 0
M  V30 5863 N 561.678 -1.56367 -0.196722 0
M  V30 5864 C 562.903 -1.84991 -0.937714 0
M  V30 5865 C 563.328 -0.660244 -1.76132 0
M  V30 5866 O 562.686 0.390967 -1.77034 0
M  V30 5867 C 562.734 -3.11828 -1.81096 0
M  V30 5868 O 561.838 -2.92266 -2.90955 0
M  V30 5869 H 561.179 -0.609193 -0.264159 0
M  V30 5870 H 563.709 -2.03595 -0.202529 0
M  V30 5871 H 563.719 -3.42579 -2.21594 0
M  V30 5872 H 562.394 -3.98037 -1.2058 0
M  V30 5873 H 560.971 -2.72809 -2.54224 0
M  V30 5874 N 563.156 0.464375 -1.50603 0
M  V30 5875 C 564.086 1.56944 -1.72889 0
M  V30 5876 C 565.067 1.59979 -0.577997 0
M  V30 5877 O 566.252 1.76138 -0.817855 0
M  V30 5878 C 563.382 2.95225 -1.8292 0
M  V30 5879 C 562.336 3.07056 -2.98162 0
M  V30 5880 C 561.662 4.47051 -2.93343 0
M  V30 5881 C 562.962 2.83648 -4.38567 0
M  V30 5882 H 564.656 1.38547 -2.65415 0
M  V30 5883 H 562.202 0.665082 -1.27721 0
M  V30 5884 H 564.155 3.72467 -1.97095 0
M  V30 5885 H 562.879 3.14793 -0.870209 0
M  V30 5886 H 561.538 2.32248 -2.83648 0
M  V30 5887 H 561.186 4.63547 -1.95276 0
M  V30 5888 H 560.886 4.55902 -3.70712 0
M  V30 5889 H 562.41 5.26304 -3.09575 0
M  V30 5890 H 563.824 3.50636 -4.53572 0
M  V30 5891 H 562.221 3.03937 -5.17438 0
M  V30 5892 H 563.291 1.79451 -4.50472 0
M  V30 5893 N 564.634 1.40294 0.718013 0
M  V30 5894 C 565.567 1.34767 1.84155 0
M  V30 5895 C 566.545 0.218455 1.61126 0
M  V30 5896 O 567.729 0.401716 1.8417 0
M  V30 5897 C 564.856 1.09676 3.20451 0
M  V30 5898 C 563.902 2.25016 3.62312 0
M  V30 5899 S 564.735 3.87397 3.69707 0
M  V30 5900 C 565.891 3.64565 5.08766 0
M  V30 5901 H 566.124 2.29851 1.88562 0
M  V30 5902 H 563.657 1.2655 0.884555 0
M  V30 5903 H 565.615 0.95885 3.99144 0
M  V30 5904 H 564.276 0.162502 3.13679 0
M  V30 5905 H 563.469 2.03097 4.61268 0
M  V30 5906 H 563.071 2.35098 2.90869 0
M  V30 5907 H 565.363 3.22882 5.95612 0
M  V30 5908 H 566.306 4.63043 5.35721 0
M  V30 5909 H 566.714 2.98303 4.79245 0
M  V30 5910 N 566.112 -0.949982 1.2575 0
M  V30 5911 C 567.352 -1.70994 1.11984 0
M  V30 5912 C 567.716 -1.89095 -0.332746 0
M  V30 5913 O 568.917 -2.62192 -0.592331 0
M  V30 5914 C 567.188 -3.05286 1.85837 0
M  V30 5915 S 568.747 -3.96477 1.88019 0
M  V30 5916 H 565.565 -0.587689 0.400178 0
M  V30 5917 H 568.167 -1.13271 1.59342 0
M  V30 5918 H 566.871 -2.89785 2.90608 0
M  V30 5919 H 566.402 -3.68069 1.38885 0
M  V30 5920 H 568.417 -4.86814 0.96057 0
M  V30 5921 N 567.59 -1.07411 -1.15328 0
M  V30 5922 C 568.815 -0.818856 -1.90551 0
M  V30 5923 C 569.24 0.622194 -1.77512 0
M  V30 5924 O 568.598 1.43484 -1.10824 0
M  V30 5925 C 568.646 -1.23267 -3.38877 0
M  V30 5926 O 567.75 -0.378345 -4.10661 0
M  V30 5927 H 567.091 -0.29827 -0.593238 0
M  V30 5928 H 569.621 -1.43289 -1.46046 0
M  V30 5929 H 569.631 -1.20912 -3.89672 0
M  V30 5930 H 568.306 -2.28226 -3.47686 0
M  V30 5931 H 566.883 -0.464437 -3.69996 0
M  V30 5932 N 569.068 1.32177 -0.85831 0
M  V30 5933 C 570.316 1.96735 -0.462568 0
M  V30 5934 C 570.637 1.6824 0.985911 0
M  V30 5935 O 569.907 0.991564 1.68952 0
M  V30 5936 H 568.487 0.727849 -0.168064 0
M  V30 5937 H 571.149 1.61195 -1.09554 0
M  V30 5938 H 570.245 3.06068 -0.610647 0
M  V30 5939 N 570.547 0.616602 1.45037 0
M  V30 5940 C 571.772 0.120192 2.07051 0
M  V30 5941 C 572.197 -1.19008 1.45666 0
M  V30 5942 O 571.555 -1.7267 0.552692 0
M  V30 5943 C 571.603 0.00354901 3.606 0
M  V30 5944 O 570.707 -1.04431 3.98958 0
M  V30 5945 H 570.048 0.0781599 0.659384 0
M  V30 5946 H 572.578 0.849167 1.86146 0
M  V30 5947 H 572.588 -0.191754 4.07549 0
M  V30 5948 H 571.263 0.960239 4.04663 0
M  V30 5949 H 569.84 -0.824749 3.63665 0
M  V30 5950 N 572.025 -1.5352 0.356285 0
M  V30 5951 C 573.25 -2.06007 -0.239961 0
M  V30 5952 C 573.675 -1.22872 -1.42422 0
M  V30 5953 O 573.033 -0.245516 -1.7963 0
M  V30 5954 C 573.081 -3.5522 -0.620587 0
M  V30 5955 O 572.185 -3.74864 -1.71902 0
M  V30 5956 H 571.526 -0.662961 -0.0371377 0
M  V30 5957 H 574.056 -1.98033 0.514194 0
M  V30 5958 H 574.066 -3.98081 -0.894197 0
M  V30 5959 H 572.741 -4.15175 0.245407 0
M  V30 5960 H 571.318 -3.43904 -1.44169 0
M  V30 5961 N 573.503 -0.0852151 -1.57369 0
M  V30 5962 C 574.433 0.874556 -2.16503 0
M  V30 5963 C 575.414 1.30111 -1.09568 0
M  V30 5964 O 576.599 1.36977 -1.37662 0
M  V30 5965 C 573.729 2.13731 -2.73745 0
M  V30 5966 C 572.683 1.84971 -3.85966 0
M  V30 5967 C 572.009 3.17991 -4.29867 0
M  V30 5968 C 573.309 1.14442 -5.09608 0
M  V30 5969 H 575.003 0.381899 -2.96954 0
M  V30 5970 H 572.549 0.18225 -1.42842 0
M  V30 5971 H 574.502 2.81302 -3.13763 0
M  V30 5972 H 573.226 2.65263 -1.90534 0
M  V30 5973 H 571.885 1.19801 -3.46473 0
M  V30 5974 H 571.533 3.6739 -3.4356 0
M  V30 5975 H 571.233 2.99534 -5.05523 0
M  V30 5976 H 572.757 3.86737 -4.72511 0
M  V30 5977 H 574.171 1.72105 -5.46857 0
M  V30 5978 H 572.568 1.06197 -5.90629 0
M  V30 5979 H 573.638 0.12559 -4.84737 0
M  V30 5980 N 574.981 1.5647 0.188427 0
M  V30 5981 C 576.227 1.81281 0.909124 0
M  V30 5982 C 576.56 0.66034 1.82628 0
M  V30 5983 O 575.835 -0.338737 1.91528 0
M  V30 5984 C 576.118 3.16388 1.7196 0
M  V30 5985 C 575.971 4.42137 0.826714 0
M  V30 5986 C 577.29 3.48256 2.69083 0
M  V30 5987 H 574.409 0.659457 0.329068 0
M  V30 5988 H 577.051 1.89182 0.176156 0
M  V30 5989 H 575.201 3.09784 2.34448 0
M  V30 5990 H 576.873 4.60794 0.216025 0
M  V30 5991 H 575.116 4.33594 0.133792 0
M  V30 5992 H 575.787 5.33184 1.42893 0
M  V30 5993 H 578.263 3.55203 2.16726 0
M  V30 5994 H 577.139 4.43899 3.2287 0
M  V30 5995 H 577.4 2.72088 3.48455 0
M  V30 5996 N 576.459 -0.456382 1.50847 0
M  V30 5997 C 577.422 -1.53493 1.70213 0
M  V30 5998 C 578.422 -1.50264 0.572481 0
M  V30 5999 O 579.612 -1.52623 0.839751 0
M  V30 6000 C 576.744 -2.93091 1.741 0
M  V30 6001 H 577.937 -1.37633 2.66453 0
M  V30 6002 H 575.49 -0.683776 1.4055 0
M  V30 6003 H 576.225 -3.14378 0.796063 0
M  V30 6004 H 576.01 -2.9684 2.5618 0
M  V30 6005 H 577.5 -3.71368 1.90987 0
M  V30 6006 N 577.937 -1.40673 -0.710563 0
M  V30 6007 C 579.162 -1.42741 -1.50465 0
M  V30 6008 C 579.587 -0.0302116 -1.88076 0
M  V30 6009 O 578.945 0.962945 -1.53613 0
M  V30 6010 C 578.993 -2.32873 -2.75322 0
M  V30 6011 O 578.097 -1.77544 -3.72226 0
M  V30 6012 H 577.438 -0.485056 -0.45345 0
M  V30 6013 H 579.968 -1.84961 -0.874681 0
M  V30 6014 H 579.978 -2.48233 -3.23797 0
M  V30 6015 H 578.653 -3.34401 -2.47283 0
M  V30 6016 H 577.23 -1.71556 -3.31093 0
M  V30 6017 N 579.415 0.9433 -1.26252 0
M  V30 6018 C 580.378 2.02326 -1.07689 0
M  V30 6019 C 581.378 1.60779 -0.0259174 0
M  V30 6020 O 582.568 1.72108 -0.269134 0
M  V30 6021 C 579.7 3.34886 -0.63752 0
M  V30 6022 H 580.893 2.20225 -2.0357 0
M  V30 6023 H 578.446 1.12197 -1.08819 0
M  V30 6024 H 579.181 3.22684 0.323377 0
M  V30 6025 H 578.966 3.66393 -1.39637 0
M  V30 6026 H 580.456 4.14231 -0.529418 0
M  V30 6027 N 580.893 1.08022 1.14757 0
M  V30 6028 C 582.141 0.805913 1.85336 0
M  V30 6029 C 582.462 -0.670162 1.83122 0
M  V30 6030 O 581.732 -1.48567 1.2769 0
M  V30 6031 H 580.312 0.295138 0.686223 0
M  V30 6032 H 582.974 1.36538 1.3908 0
M  V30 6033 H 582.07 1.14655 2.90277 0
M  V30 6034 N 582.371 -1.3172 0.865308 0
M  V30 6035 C 583.301 -2.31109 0.333302 0
M  V30 6036 C 584.282 -1.60148 -0.573301 0
M  V30 6037 O 585.467 -1.87882 -0.491305 0
M  V30 6038 C 582.597 -3.44104 -0.470078 0
M  V30 6039 C 581.551 -4.26623 0.343021 0
M  V30 6040 C 580.877 -5.31482 -0.585756 0
M  V30 6041 C 582.177 -4.98001 1.57456 0
M  V30 6042 H 583.871 -2.75855 1.1638 0
M  V30 6043 H 581.417 -1.3262 0.561069 0
M  V30 6044 H 583.37 -4.12682 -0.852752 0
M  V30 6045 H 582.094 -2.98112 -1.33404 0
M  V30 6046 H 580.753 -3.59707 0.707583 0
M  V30 6047 H 580.401 -4.81741 -1.44686 0
M  V30 6048 H 580.101 -5.87582 -0.0456494 0
M  V30 6049 H 581.625 -6.0292 -0.965375 0
M  V30 6050 H 583.039 -5.59201 1.26359 0
M  V30 6051 H 581.436 -5.63876 2.05339 0
M  V30 6052 H 582.506 -4.25253 2.32997 0
M  V30 6053 N 583.85 -0.624285 -1.44708 0
M  V30 6054 C 584.76 0.0861083 -2.34442 0
M  V30 6055 C 585.776 0.84291 -1.5222 0
M  V30 6056 O 586.952 0.796723 -1.84971 0
M  V30 6057 C 584.017 1.05999 -3.30099 0
M  V30 6058 C 583.077 0.303316 -4.28227 0
M  V30 6059 C 582.311 1.23081 -5.19314 0
M  V30 6060 O 582.534 2.46929 -5.14181 0
M  V30 6061 O 581.468 0.71883 -5.97592 0
M  V30 6062 H 585.293 -0.651756 -2.96624 0
M  V30 6063 H 582.879 -0.384493 -1.44368 0
M  V30 6064 H 584.76 1.62046 -3.88997 0
M  V30 6065 H 583.436 1.77859 -2.70459 0
M  V30 6066 H 582.343 -0.300033 -3.72895 0
M  V30 6067 H 583.676 -0.375123 -4.90768 0
M  V30 6068 N 585.328 1.53329 -0.364422 0
M  V30 6069 C 586.553 2.06132 0.229033 0
M  V30 6070 C 586.978 1.23625 1.41769 0
M  V30 6071 O 586.336 0.255038 1.79497 0
M  V30 6072 C 586.384 3.55544 0.60174 0
M  V30 6073 O 585.488 3.75771 1.69912 0
M  V30 6074 H 584.829 0.663148 0.0336213 0
M  V30 6075 H 587.359 1.97758 -0.524689 0
M  V30 6076 H 587.369 3.98549 0.873073 0
M  V30 6077 H 586.044 4.15039 -0.267421 0
M  V30 6078 H 584.621 3.44663 1.42343 0
M  V30 6079 N 586.806 0.0935595 1.57322 0
M  V30 6080 C 587.756 -0.876521 2.10478 0
M  V30 6081 C 588.74 -1.24482 1.01946 0
M  V30 6082 O 589.932 -1.22016 1.28223 0
M  V30 6083 C 587.061 -2.13615 2.68745 0
M  V30 6084 C 586.147 -1.79335 3.84317 0
M  V30 6085 N 586.538 -1.15606 4.92411 0
M  V30 6086 C 584.836 -2.08954 3.94023 0
M  V30 6087 C 585.537 -0.999036 5.73057 0
M  V30 6088 N 584.513 -1.51585 5.22037 0
M  V30 6089 H 588.315 -0.379829 2.91435 0
M  V30 6090 H 585.829 -0.109699 1.62029 0
M  V30 6091 H 587.826 -2.84053 3.05155 0
M  V30 6092 H 586.486 -2.63851 1.89242 0
M  V30 6093 H 587.497 -0.823063 5.11318 0
M  V30 6094 H 584.174 -2.61416 3.25527 0
M  V30 6095 H 585.564 -0.500772 6.70031 0
M  V30 6096 N 588.284 -1.56567 -0.180126 0
M  V30 6097 C 589.532 -1.81133 -0.896392 0
M  V30 6098 C 589.853 -0.669114 -1.83161 0
M  V30 6099 O 589.123 0.311616 -1.93406 0
M  V30 6100 H 587.703 -0.668172 -0.333999 0
M  V30 6101 H 590.365 -1.94048 -0.182051 0
M  V30 6102 H 589.461 -2.74854 -1.47857 0
M  V30 6103 N 589.762 0.448376 -1.51087 0
M  V30 6104 C 591.178 0.783984 -1.39017 0
M  V30 6105 C 591.378 1.96087 -0.463904 0
M  V30 6106 O 590.434 2.52357 0.0850534 0
M  V30 6107 C 591.747 1.07471 -2.80839 0
M  V30 6108 C 593.295 1.17981 -2.89913 0
M  V30 6109 C 593.77 1.50354 -4.32617 0
M  V30 6110 N 595.261 1.57301 -4.35673 0
M  V30 6111 C 595.996 1.839 -5.4311 0
M  V30 6112 N 595.492 2.08365 -6.60724 0
M  V30 6113 N 597.285 1.8559 -5.30578 0
M  V30 6114 H 589.436 -0.326881 -2.0987 0
M  V30 6115 H 591.699 -0.0838006 -0.944289 0
M  V30 6116 H 591.405 0.282768 -3.50561 0
M  V30 6117 H 591.279 2.00519 -3.19487 0
M  V30 6118 H 593.666 1.9624 -2.20395 0
M  V30 6119 H 593.747 0.228603 -2.54776 0
M  V30 6120 H 593.391 0.726273 -5.0268 0
M  V30 6121 H 593.321 2.46663 -4.65258 0
M  V30 6122 H 595.812 1.40342 -3.50874 0
M  V30 6123 H 596.125 2.27999 -7.38401 0
M  V30 6124 H 594.47 2.0571 -6.63859 0
M  V30 6125 H 597.661 1.65989 -4.37682 0
M  V30 6126 H 597.834 2.05983 -6.1439 0
M  V30 6127 N 591.24 1.41047 0.703093 0
M  V30 6128 C 592.468 1.4334 1.49202 0
M  V30 6129 C 592.883 0.0365596 1.88765 0
M  V30 6130 O 592.24 -0.942419 1.56284 0
M  V30 6131 C 592.291 2.33538 2.75939 0
M  V30 6132 O 592.012 3.67786 2.38045 0
M  V30 6133 C 593.513 2.44555 3.6974 0
M  V30 6134 H 590.733 0.488472 0.460039 0
M  V30 6135 H 593.277 1.85245 0.86629 0
M  V30 6136 H 591.432 1.94962 3.34766 0
M  V30 6137 H 591.846 4.15816 3.19683 0
M  V30 6138 H 593.32 3.11849 4.55471 0
M  V30 6139 H 593.797 1.47447 4.1371 0
M  V30 6140 H 594.403 2.83735 3.16819 0
M  V30 6141 N 592.718 -0.936591 1.26751 0
M  V30 6142 C 594.129 -1.49816 1.1141 0
M  V30 6143 C 594.48 -1.9383 -0.304015 0
M  V30 6144 O 593.605 -1.80346 -1.196 0
M  V30 6145 C 594.2 -2.72271 2.01629 0
M  V30 6146 C 592.759 -3.2468 1.9042 0
M  V30 6147 C 591.906 -1.97444 1.94708 0
M  V30 6148 H 594.857 -0.751604 1.39773 0
M  V30 6149 H 594.878 -3.46741 1.56688 0
M  V30 6150 H 594.39 -2.40205 3.04833 0
M  V30 6151 H 592.491 -3.61525 0.901674 0
M  V30 6152 H 592.604 -3.91476 2.76195 0
M  V30 6153 H 590.968 -2.13545 1.38818 0
M  V30 6154 H 591.751 -1.67703 2.9955 0
M  V30 6155 N 594.196 -1.08629 -1.14182 0
M  V30 6156 C 595.421 -0.83902 -1.89671 0
M  V30 6157 C 595.846 0.603332 -1.78161 0
M  V30 6158 O 595.204 1.42301 -1.12339 0
M  V30 6159 C 595.252 -1.26854 -3.37551 0
M  V30 6160 O 594.356 -0.42188 -4.10236 0
M  V30 6161 H 593.697 -0.304545 -0.590041 0
M  V30 6162 H 596.227 -1.4483 -1.44518 0
M  V30 6163 H 596.237 -1.25038 -3.88368 0
M  V30 6164 H 594.912 -2.31901 -3.45246 0
M  V30 6165 H 593.489 -0.503654 -3.69483 0
M  V30 6166 N 595.674 1.31259 -0.872281 0
M  V30 6167 C 597.085 1.78822 -0.536617 0
M  V30 6168 C 597.436 1.71855 0.946594 0
M  V30 6169 O 596.561 1.28769 1.73918 0
M  V30 6170 C 597.156 3.24698 -0.967294 0
M  V30 6171 C 595.715 3.70147 -0.683251 0
M  V30 6172 C 594.862 2.51994 -1.15733 0
M  V30 6173 H 597.813 1.18308 -1.05777 0
M  V30 6174 H 597.834 3.79386 -0.290929 0
M  V30 6175 H 597.346 3.29737 -2.04683 0
M  V30 6176 H 595.447 3.70607 0.384825 0
M  V30 6177 H 595.56 4.62183 -1.2619 0
M  V30 6178 H 593.924 2.48078 -0.577024 0
M  V30 6179 H 594.707 2.59778 -2.24434 0
M  V30 6180 N 597.152 0.631951 1.44375 0
M  V30 6181 C 598.377 0.142146 2.06912 0
M  V30 6182 C 598.802 -1.17456 1.4692 0
M  V30 6183 O 598.16 -1.72074 0.570975 0
M  V30 6184 C 598.208 0.0417952 3.60576 0
M  V30 6185 O 597.312 -1.00194 4.00044 0
M  V30 6186 H 596.653 0.0851491 0.658518 0
M  V30 6187 H 599.183 0.868863 1.85235 0
M  V30 6188 H 599.193 -0.148517 4.0773 0
M  V30 6189 H 597.868 1.0031 4.03622 0
M  V30 6190 H 596.445 -0.786131 3.64519 0
M  V30 6191 N 598.631 -1.53133 0.372548 0
M  V30 6192 C 600.042 -1.86404 -0.105155 0
M  V30 6193 C 600.393 -1.29289 -1.47576 0
M  V30 6194 O 599.518 -0.617646 -2.07398 0
M  V30 6195 C 600.113 -3.38223 -0.197588 0
M  V30 6196 C 598.672 -3.71266 -0.619556 0
M  V30 6197 C 597.819 -2.76353 0.228919 0
M  V30 6198 H 600.77 -1.47282 0.591077 0
M  V30 6199 H 600.791 -3.66577 -1.01987 0
M  V30 6200 H 600.303 -3.79763 0.800099 0
M  V30 6201 H 598.404 -3.35287 -1.62522 0
M  V30 6202 H 598.517 -4.77515 -0.389332 0
M  V30 6203 H 596.881 -2.52888 -0.303271 0
M  V30 6204 H 597.664 -3.20728 1.22428 0
M  V30 6205 N 600.109 -0.101901 -1.5727 0
M  V30 6206 C 601.52 0.426173 -1.81771 0
M  V30 6207 C 601.871 1.67725 -1.01797 0
M  V30 6208 O 600.996 2.14958 -0.249386 0
M  V30 6209 C 601.591 0.779962 -3.297 0
M  V30 6210 C 600.15 1.25275 -3.54941 0
M  V30 6211 C 599.297 0.252814 -2.76145 0
M  V30 6212 H 602.248 -0.32726 -1.55289 0
M  V30 6213 H 602.269 1.63891 -3.43395 0
M  V30 6214 H 601.781 -0.130778 -3.8788 0
M  V30 6215 H 599.882 2.18097 -3.021 0
M  V30 6216 H 599.995 1.20988 -4.63572 0
M  V30 6217 H 598.359 0.736362 -2.43823 0
M  V30 6218 H 599.142 -0.650724 -3.37076 0
M  V30 6219 N 601.587 1.56661 0.17182 0
M  V30 6220 C 602.827 1.83762 0.895029 0
M  V30 6221 C 603.191 0.682752 1.79451 0
M  V30 6222 O 604.392 0.834208 2.55528 0
M  V30 6223 C 602.663 3.15976 1.67015 0
M  V30 6224 S 604.222 3.64558 2.44219 0
M  V30 6225 H 601.04 0.644713 0.299778 0
M  V30 6226 H 603.642 1.94871 0.156701 0
M  V30 6227 H 602.346 3.98021 1.00039 0
M  V30 6228 H 601.877 3.07807 2.44986 0
M  V30 6229 H 603.892 3.31845 3.68909 0
M  V30 6230 N 603.065 -0.440357 1.51323 0
M  V30 6231 C 604.29 -1.21716 1.67928 0
M  V30 6232 C 604.715 -1.84328 0.374826 0
M  V30 6233 O 604.073 -1.68675 -0.664706 0
M  V30 6234 C 604.121 -2.27914 2.79442 0
M  V30 6235 O 603.225 -3.33325 2.42834 0
M  V30 6236 H 602.566 -0.35674 0.560029 0
M  V30 6237 H 605.096 -0.520417 1.97871 0
M  V30 6238 H 605.106 -2.72746 3.03436 0
M  V30 6239 H 603.781 -1.8172 3.741 0
M  V30 6240 H 602.358 -2.9399 2.294 0
M  V30 6241 N 604.543 -1.41418 -0.695603 0
M  V30 6242 C 605.768 -1.44329 -1.48942 0
M  V30 6243 C 606.193 -0.0501579 -1.88033 0
M  V30 6244 O 605.551 0.946598 -1.54626 0
M  V30 6245 C 605.599 -2.3578 -2.72837 0
M  V30 6246 O 604.703 -1.81482 -3.70322 0
M  V30 6247 H 604.044 -0.489838 -0.44828 0
M  V30 6248 H 606.574 -1.85878 -0.855014 0
M  V30 6249 H 606.584 -2.51654 -3.21145 0
M  V30 6250 H 605.259 -3.37005 -2.43722 0
M  V30 6251 H 603.836 -1.75058 -3.29255 0
M  V30 6252 N 606.021 0.929856 -1.27246 0
M  V30 6253 C 607.246 1.71674 -1.16374 0
M  V30 6254 C 607.671 1.86064 0.276024 0
M  V30 6255 O 607.029 1.3591 1.19992 0
M  V30 6256 C 607.077 3.09526 -1.85003 0
M  V30 6257 O 606.181 3.96142 -1.14653 0
M  V30 6258 H 605.522 0.52629 -0.404863 0
M  V30 6259 H 608.052 1.16381 -1.68276 0
M  V30 6260 H 608.062 3.59852 -1.92276 0
M  V30 6261 H 606.737 2.98369 -2.89739 0
M  V30 6262 H 605.314 3.54584 -1.15433 0
M  V30 6263 N 607.499 1.09233 1.13605 0
M  V30 6264 C 608.91 0.846839 1.6639 0
M  V30 6265 C 609.261 -0.625031 1.85978 0
M  V30 6266 O 608.386 -1.48173 1.57714 0
M  V30 6267 C 608.981 1.5307 3.0225 0
M  V30 6268 C 607.54 1.33223 3.52035 0
M  V30 6269 C 606.687 1.58806 2.27323 0
M  V30 6270 H 609.638 1.25175 0.975541 0
M  V30 6271 H 609.659 0.96267 3.68121 0
M  V30 6272 H 609.171 2.60192 2.87961 0
M  V30 6273 H 607.272 0.282091 3.71531 0
M  V30 6274 H 607.385 2.0657 4.32279 0
M  V30 6275 H 605.749 1.01007 2.33815 0
M  V30 6276 H 606.532 2.67153 2.15602 0
M  V30 6277 N 608.977 -1.30795 0.87923 0
M  V30 6278 C 610.202 -2.01063 0.508769 0
M  V30 6279 C 610.627 -1.65508 -0.893803 0
M  V30 6280 O 609.985 -0.868616 -1.59138 0
M  V30 6281 C 610.033 -3.54054 0.683991 0
M  V30 6282 O 609.137 -4.11498 -0.272654 0
M  V30 6283 H 608.478 -0.632786 0.201191 0
M  V30 6284 H 611.008 -1.66776 1.18519 0
M  V30 6285 H 611.018 -4.03845 0.580798 0
M  V30 6286 H 609.693 -3.79271 1.70665 0
M  V30 6287 H 608.27 -3.72695 -0.12364 0
M  V30 6288 N 610.455 -0.639598 -1.44038 0
M  V30 6289 C 611.866 -0.228866 -1.85292 0
M  V30 6290 C 612.217 1.22161 -1.53529 0
M  V30 6291 O 611.342 1.93064 -0.977518 0
M  V30 6292 C 611.937 -0.408592 -3.36327 0
M  V30 6293 C 610.496 -0.0522953 -3.76364 0
M  V30 6294 C 609.643 -0.717959 -2.67844 0
M  V30 6295 H 612.594 -0.844194 -1.34384 0
M  V30 6296 H 612.615 0.349968 -3.78887 0
M  V30 6297 H 612.127 -1.46435 -3.59414 0
M  V30 6298 H 610.228 1.0014 -3.58891 0
M  V30 6299 H 610.341 -0.468261 -4.76806 0
M  V30 6300 H 608.705 -0.152459 -2.54243 0
M  V30 6301 H 609.488 -1.77648 -2.93762 0
M  V30 6302 N 611.933 1.52934 -0.380664 0
M  V30 6303 C 613.158 2.06363 0.207157 0
M  V30 6304 C 613.583 1.25122 1.4045 0
M  V30 6305 O 612.941 0.274062 1.79217 0
M  V30 6306 C 612.989 3.56162 0.563996 0
M  V30 6307 O 612.093 3.77552 1.65917 0
M  V30 6308 H 611.434 0.663468 0.0265859 0
M  V30 6309 H 613.964 1.9719 -0.545635 0
M  V30 6310 H 613.974 3.99453 0.830752 0
M  V30 6311 H 612.649 4.14732 -0.311427 0
M  V30 6312 H 611.226 3.46154 1.3868 0
M  V30 6313 N 613.412 0.11024 1.57214 0
M  V30 6314 C 614.66 -0.548783 1.94506 0
M  V30 6315 C 614.981 -1.67772 0.99386 0
M  V30 6316 O 614.251 -1.9584 0.0485841 0
M  V30 6317 H 612.831 -0.205715 0.718116 0
M  V30 6318 H 615.493 0.177127 1.94093 0
M  V30 6319 H 614.589 -0.949096 2.97319 0
M  V30 6320 N 614.89 -1.56749 -0.16351 0
M  V30 6321 C 616.306 -1.51043 -0.515567 0
M  V30 6322 C 616.506 -0.815855 -1.84245 0
M  V30 6323 O 615.562 -0.379477 -2.49632 0
M  V30 6324 C 616.875 -2.95791 -0.541114 0
M  V30 6325 C 618.423 -3.0664 -0.627776 0
M  V30 6326 C 618.898 -4.52861 -0.684141 0
M  V30 6327 N 620.389 -4.5714 -0.746818 0
M  V30 6328 C 621.124 -5.67634 -0.811137 0
M  V30 6329 N 620.62 -6.8774 -0.835811 0
M  V30 6330 N 622.413 -5.55624 -0.850756 0
M  V30 6331 H 614.564 -2.00307 0.70645 0
M  V30 6332 H 616.827 -0.912876 0.255659 0
M  V30 6333 H 616.533 -3.49797 0.365329 0
M  V30 6334 H 616.407 -3.50858 -1.38487 0
M  V30 6335 H 618.794 -2.52663 -1.52464 0
M  V30 6336 H 618.875 -2.54645 0.242805 0
M  V30 6337 H 618.519 -5.07472 0.2085 0
M  V30 6338 H 618.449 -5.02621 -1.57098 0
M  V30 6339 H 620.94 -3.70669 -0.735717 0
M  V30 6340 H 621.253 -7.67701 -0.886279 0
M  V30 6341 H 619.598 -6.90334 -0.803958 0
M  V30 6342 H 622.789 -4.60709 -0.828535 0
M  V30 6343 H 622.962 -6.41756 -0.897418 0
M  V30 6344 N 616.368 0.432326 -1.51554 0
M  V30 6345 C 617.331 1.50765 -1.72634 0
M  V30 6346 C 618.331 1.49334 -0.596314 0
M  V30 6347 O 619.521 1.51268 -0.863925 0
M  V30 6348 C 616.653 2.90284 -1.7874 0
M  V30 6349 H 617.846 1.33377 -2.68609 0
M  V30 6350 H 615.399 0.661329 -1.4162 0
M  V30 6351 H 616.134 3.13071 -0.845977 0
M  V30 6352 H 615.919 2.92727 -2.6087 0
M  V30 6353 H 617.409 3.68282 -1.96871 0
M  V30 6354 N 617.846 1.41785 0.688094 0
M  V30 6355 C 619.094 1.41264 1.4453 0
M  V30 6356 C 619.415 0.0252946 1.94984 0
M  V30 6357 O 618.685 -0.934081 1.72197 0
M  V30 6358 H 617.265 0.519998 0.536294 0
M  V30 6359 H 619.927 1.7709 0.813941 0
M  V30 6360 H 619.023 2.10439 2.30482 0
M  V30 6361 N 619.324 -0.923095 1.27737 0
M  V30 6362 C 620.735 -1.48626 1.12993 0
M  V30 6363 C 621.086 -1.94142 -0.283439 0
M  V30 6364 O 620.211 -1.81605 -1.17681 0
M  V30 6365 C 620.806 -2.70117 2.04505 0
M  V30 6366 C 619.365 -3.22642 1.93853 0
M  V30 6367 C 618.512 -1.95368 1.96791 0
M  V30 6368 H 621.463 -0.736737 1.40563 0
M  V30 6369 H 621.484 -3.4506 1.60356 0
M  V30 6370 H 620.996 -2.36959 3.07363 0
M  V30 6371 H 619.097 -3.60549 0.939968 0
M  V30 6372 H 619.21 -3.88525 2.80331 0
M  V30 6373 H 617.574 -2.12061 1.41076 0
M  V30 6374 H 618.357 -1.64517 3.01312 0
M  V30 6375 N 620.802 -1.09834 -1.13024 0
M  V30 6376 C 622.049 -0.83695 -1.84395 0
M  V30 6377 C 622.377 0.637463 -1.83757 0
M  V30 6378 O 621.632 1.48554 -1.27398 0
M  V30 6379 C 621.931 -1.32263 -3.32026 0
M  V30 6380 C 621.597 -2.80739 -3.52841 0
M  V30 6381 C 620.259 -3.21286 -3.5823 0
M  V30 6382 C 622.611 -3.76449 -3.60466 0
M  V30 6383 C 619.939 -4.56308 -3.68781 0
M  V30 6384 C 622.291 -5.11266 -3.72546 0
M  V30 6385 C 620.955 -5.51397 -3.76189 0
M  V30 6386 H 620.225 -0.306262 -0.674748 0
M  V30 6387 H 622.872 -1.37385 -1.33408 0
M  V30 6388 H 621.177 -0.705618 -3.85394 0
M  V30 6389 H 622.874 -1.09695 -3.85705 0
M  V30 6390 H 619.464 -2.48363 -3.49305 0
M  V30 6391 H 623.648 -3.46234 -3.55578 0
M  V30 6392 H 618.904 -4.86832 -3.69871 0
M  V30 6393 H 623.078 -5.85279 -3.77388 0
M  V30 6394 H 620.705 -6.56017 -3.84117 0
M  V30 6395 N 622.28 1.30327 -0.886154 0
M  V30 6396 C 623.505 2.0079 -0.519425 0
M  V30 6397 C 623.93 1.65979 0.885013 0
M  V30 6398 O 623.288 0.877043 1.58675 0
M  V30 6399 C 623.336 3.53686 -0.702758 0
M  V30 6400 O 622.44 4.11637 0.250828 0
M  V30 6401 H 621.781 0.63171 -0.204544 0
M  V30 6402 H 624.311 1.66145 -1.19402 0
M  V30 6403 H 624.321 4.03531 -0.602207 0
M  V30 6404 H 622.996 3.78361 -1.72673 0
M  V30 6405 H 621.573 3.72755 0.103873 0
M  V30 6406 N 623.758 0.647228 1.43697 0
M  V30 6407 C 624.983 0.164083 2.0675 0
M  V30 6408 C 625.408 -1.15892 1.48158 0
M  V30 6409 O 624.766 -1.71459 0.589194 0
M  V30 6410 C 624.814 0.0800368 3.60511 0
M  V30 6411 O 623.918 -0.959453 4.01084 0
M  V30 6412 H 623.259 0.0921288 0.657578 0
M  V30 6413 H 625.789 0.88846 1.84303 0
M  V30 6414 H 625.799 -0.105263 4.07864 0
M  V30 6415 H 624.474 1.04586 4.02535 0
M  V30 6416 H 623.051 -0.747425 3.65333 0
M  V30 6417 N 625.236 -1.5273 0.388769 0
M  V30 6418 C 626.461 -2.0647 -0.19621 0
M  V30 6419 C 626.886 -1.25865 -1.39784 0
M  V30 6420 O 626.244 -0.283562 -1.79069 0
M  V30 6421 C 626.292 -3.56456 -0.5451 0
M  V30 6422 O 625.396 -3.78426 -1.63912 0
M  V30 6423 H 624.737 -0.663599 -0.023067 0
M  V30 6424 H 627.267 -1.96898 0.556084 0
M  V30 6425 H 627.277 -3.99888 -0.809557 0
M  V30 6426 H 625.952 -4.14561 0.333417 0
M  V30 6427 H 624.529 -3.46884 -1.36842 0
M  V30 6428 N 626.714 -0.118576 -1.57153 0
M  V30 6429 C 628.13 0.238014 -1.57815 0
M  V30 6430 C 628.33 1.66747 -1.13127 0
M  V30 6431 O 627.386 2.38867 -0.818462 0
M  V30 6432 C 628.699 0.00508207 -3.007 0
M  V30 6433 C 630.247 0.0710139 -3.12919 0
M  V30 6434 C 630.722 -0.13422 -4.57803 0
M  V30 6435 N 632.213 -0.0801755 -4.63131 0
M  V30 6436 C 632.948 -0.213885 -5.73001 0
M  V30 6437 N 632.444 -0.403742 -6.91623 0
M  V30 6438 N 634.237 -0.15349 -5.6189 0
M  V30 6439 H 626.388 -1.05226 -1.84503 0
M  V30 6440 H 628.651 -0.414318 -0.852669 0
M  V30 6441 H 628.357 -0.983125 -3.3768 0
M  V30 6442 H 628.231 0.73714 -3.69927 0
M  V30 6443 H 630.618 1.04975 -2.75798 0
M  V30 6444 H 630.699 -0.692918 -2.46236 0
M  V30 6445 H 630.343 -1.10992 -4.95624 0
M  V30 6446 H 630.273 0.649692 -5.22577 0
M  V30 6447 H 632.764 0.0630689 -3.77847 0
M  V30 6448 H 633.077 -0.496645 -7.71202 0
M  V30 6449 H 631.422 -0.43971 -6.93608 0
M  V30 6450 H 634.613 -0.00613174 -4.681 0
M  V30 6451 H 634.786 -0.261138 -6.47474 0
M  V30 6452 N 628.193 1.56834 0.155195 0
M  V30 6453 C 629.433 1.84701 0.875488 0
M  V30 6454 C 629.797 0.701747 1.78716 0
M  V30 6455 O 630.998 0.861263 2.54629 0
M  V30 6456 C 629.269 3.1773 1.63654 0
M  V30 6457 S 630.828 3.67128 2.40338 0
M  V30 6458 H 627.646 0.647856 0.292923 0
M  V30 6459 H 630.248 1.95026 0.136024 0
M  V30 6460 H 628.952 3.99059 0.958117 0
M  V30 6461 H 628.483 3.10388 2.41708 0
M  V30 6462 H 630.498 3.35739 3.65368 0
M  V30 6463 N 629.671 -0.424282 1.51781 0
M  V30 6464 C 630.919 -1.17028 1.64769 0
M  V30 6465 C 631.24 -1.91409 0.372523 0
M  V30 6466 O 630.51 -1.86091 -0.612108 0
M  V30 6467 H 629.09 -0.434992 0.607282 0
M  V30 6468 H 631.752 -0.485169 1.88765 0
M  V30 6469 H 630.848 -1.8927 2.4816 0
M  V30 6470 N 631.149 -1.42148 -0.680565 0
M  V30 6471 C 632.112 -1.4488 -1.77602 0
M  V30 6472 C 633.112 -0.337209 -1.57224 0
M  V30 6473 O 634.302 -0.597778 -1.63622 0
M  V30 6474 C 631.434 -1.27483 -3.16166 0
M  V30 6475 H 632.627 -2.42412 -1.76568 0
M  V30 6476 H 630.18 -1.28511 -0.889645 0
M  V30 6477 H 630.915 -0.30851 -3.22829 0
M  V30 6478 H 630.7 -2.08037 -3.3236 0
M  V30 6479 H 632.19 -1.32265 -3.96101 0
M  V30 6480 N 632.627 0.916307 -1.28225 0
M  V30 6481 C 633.852 1.7043 -1.18188 0
M  V30 6482 C 634.277 1.86346 0.256274 0
M  V30 6483 O 633.635 1.37175 1.18544 0
M  V30 6484 C 633.683 3.07546 -1.88275 0
M  V30 6485 O 632.787 3.94904 -1.18848 0
M  V30 6486 H 632.128 0.521967 -0.410423 0
M  V30 6487 H 634.658 1.14589 -1.69501 0
M  V30 6488 H 634.668 3.57793 -1.96082 0
M  V30 6489 H 633.343 2.95279 -2.92887 0
M  V30 6490 H 631.92 3.53339 -1.19187 0
M  V30 6491 N 634.105 1.10431 1.1244 0
M  V30 6492 C 635.351 0.847972 1.84221 0
M  V30 6493 C 635.684 -0.624903 1.83871 0
M  V30 6494 O 634.959 -1.46074 1.28423 0
M  V30 6495 C 635.242 1.39695 3.319 0
M  V30 6496 C 635.095 2.93668 3.40704 0
M  V30 6497 C 636.414 1.03924 4.27654 0
M  V30 6498 H 633.533 0.309502 0.668863 0
M  V30 6499 H 636.175 1.36745 1.31912 0
M  V30 6500 H 634.325 0.955095 3.76577 0
M  V30 6501 H 635.997 3.46379 3.04662 0
M  V30 6502 H 634.24 3.30272 2.81252 0
M  V30 6503 H 634.911 3.27162 4.446 0
M  V30 6504 H 637.387 1.42049 3.91102 0
M  V30 6505 H 636.263 1.45027 5.29394 0
M  V30 6506 H 636.524 -0.051336 4.4207 0
M  V30 6507 N 635.583 -1.29855 0.893053 0
M  V30 6508 C 636.994 -1.77946 0.564998 0
M  V30 6509 C 637.345 -1.73339 -0.919134 0
M  V30 6510 O 636.47 -1.3152 -1.71847 0
M  V30 6511 C 637.065 -3.23118 1.01883 0
M  V30 6512 C 635.624 -3.69013 0.742051 0
M  V30 6513 C 634.771 -2.50121 1.19727 0
M  V30 6514 H 637.722 -1.16611 1.07646 0
M  V30 6515 H 637.743 -3.78875 0.351249 0
M  V30 6516 H 637.255 -3.26439 2.09903 0
M  V30 6517 H 635.356 -3.71173 -0.325816 0
M  V30 6518 H 635.469 -4.60117 1.33527 0
M  V30 6519 H 633.833 -2.47128 0.616418 0
M  V30 6520 H 634.616 -2.56174 2.28538 0
M  V30 6521 N 637.061 -0.65484 -1.43351 0
M  V30 6522 C 638.31 -0.166215 -2.01014 0
M  V30 6523 C 638.623 1.22764 -1.52278 0
M  V30 6524 O 639.829 1.81156 -2.02224 0
M  V30 6525 C 638.285 -0.246341 -3.59056 0
M  V30 6526 C 637.893 -1.64299 -4.16785 0
M  V30 6527 C 639.637 0.184597 -4.24098 0
M  V30 6528 C 637.544 -1.67695 -5.67126 0
M  V30 6529 H 636.474 -0.0583769 -0.751737 0
M  V30 6530 H 639.125 -0.817111 -1.64303 0
M  V30 6531 H 637.507 0.472092 -3.93176 0
M  V30 6532 H 638.681 -2.3869 -3.94162 0
M  V30 6533 H 636.996 -2.02004 -3.6412 0
M  V30 6534 H 639.593 0.179088 -5.344 0
M  V30 6535 H 639.936 1.21632 -3.98135 0
M  V30 6536 H 640.469 -0.482141 -3.94867 0
M  V30 6537 H 637.208 -2.68783 -5.9786 0
M  V30 6538 H 636.728 -0.976313 -5.91801 0
M  V30 6539 H 638.407 -1.42142 -6.31193 0
M  V30 6540 N 638.539 1.52521 -0.396863 0
M  V30 6541 C 639.95 1.86547 0.0754868 0
M  V30 6542 C 640.301 1.31621 1.45501 0
M  V30 6543 O 639.426 0.650563 2.0639 0
M  V30 6544 C 640.021 3.38495 0.143754 0
M  V30 6545 C 638.58 3.72205 0.560413 0
M  V30 6546 C 637.727 2.75954 -0.272856 0
M  V30 6547 H 640.678 1.46323 -0.614434 0
M  V30 6548 H 640.699 3.68153 0.961425 0
M  V30 6549 H 640.211 3.78442 -0.860415 0
M  V30 6550 H 638.312 3.3783 1.57167 0
M  V30 6551 H 638.425 4.78074 0.313314 0
M  V30 6552 H 636.789 2.53339 0.263 0
M  V30 6553 H 637.572 3.1874 -1.27515 0
M  V30 6554 N 640.017 0.126909 1.57088 0
M  V30 6555 C 641.263 -0.529952 1.95753 0
M  V30 6556 C 641.596 -1.65823 1.01077 0
M  V30 6557 O 640.871 -1.94437 0.0494162 0
M  V30 6558 C 641.154 -1.05517 3.44294 0
M  V30 6559 C 641.007 0.0702253 4.49745 0
M  V30 6560 C 642.326 -1.9435 3.94862 0
M  V30 6561 H 639.445 -0.191168 0.711775 0
M  V30 6562 H 642.087 0.204071 1.88901 0
M  V30 6563 H 640.237 -1.68069 3.50264 0
M  V30 6564 H 641.909 0.705834 4.55868 0
M  V30 6565 H 640.152 0.732259 4.27575 0
M  V30 6566 H 640.823 -0.338642 5.5096 0
M  V30 6567 H 643.299 -1.41658 3.91244 0
M  V30 6568 H 642.175 -2.28015 4.993 0
M  V30 6569 H 642.436 -2.87299 3.36024 0
M  V30 6570 N 641.495 -1.56914 -0.146875 0
M  V30 6571 C 642.906 -1.72799 -0.706928 0
M  V30 6572 C 643.257 -0.741329 -1.81656 0
M  V30 6573 O 642.382 0.0920162 -2.16204 0
M  V30 6574 C 642.977 -3.13317 -1.28911 0
M  V30 6575 C 641.536 -3.30803 -1.79573 0
M  V30 6576 C 640.683 -2.68725 -0.684252 0
M  V30 6577 H 643.634 -1.58504 0.0787931 0
M  V30 6578 H 643.655 -3.13323 -2.15891 0
M  V30 6579 H 643.167 -3.85104 -0.481284 0
M  V30 6580 H 641.268 -2.64012 -2.62923 0
M  V30 6581 H 641.381 -4.38754 -1.92436 0
M  V30 6582 H 639.745 -2.29196 -1.11091 0
M  V30 6583 H 640.528 -3.43117 0.112134 0
M  V30 6584 N 642.974 0.416227 -1.52004 0
M  V30 6585 C 644.202 1.18573 -1.69553 0
M  V30 6586 C 644.617 1.84472 -0.401919 0
M  V30 6587 O 643.974 1.71593 0.621463 0
M  V30 6588 C 644.025 2.25413 -2.82615 0
M  V30 6589 O 643.746 1.62205 -4.06966 0
M  V30 6590 C 645.247 3.15297 -3.11613 0
M  V30 6591 H 642.467 0.356582 -0.56841 0
M  V30 6592 H 645.011 0.490618 -1.98528 0
M  V30 6593 H 643.166 2.90604 -2.56179 0
M  V30 6594 H 643.58 2.3298 -4.69916 0
M  V30 6595 H 645.054 3.86351 -3.94255 0
M  V30 6596 H 645.531 3.77264 -2.24874 0
M  V30 6597 H 646.137 2.55783 -3.39787 0
M  V30 6598 N 644.452 1.42507 0.673017 0
M  V30 6599 C 645.384 1.42074 1.79854 0
M  V30 6600 C 646.397 0.319569 1.59633 0
M  V30 6601 O 647.586 0.582769 1.68719 0
M  V30 6602 C 644.686 1.19886 3.16987 0
M  V30 6603 C 643.859 2.42471 3.64042 0
M  V30 6604 C 642.918 2.15802 4.79913 0
M  V30 6605 O 641.944 2.89015 4.90366 0
M  V30 6606 N 643.146 1.16225 5.68746 0
M  V30 6607 H 645.911 2.3909 1.8071 0
M  V30 6608 H 643.472 1.37409 0.856171 0
M  V30 6609 H 645.464 0.999591 3.92161 0
M  V30 6610 H 644.034 0.313879 3.1102 0
M  V30 6611 H 643.254 2.77954 2.79526 0
M  V30 6612 H 644.542 3.24097 3.92223 0
M  V30 6613 H 643.94 0.556756 5.62954 0
M  V30 6614 H 642.497 1.02285 6.43724 0
M  V30 6615 N 645.93 -0.909495 1.28709 0
M  V30 6616 C 647.176 -1.66151 1.16283 0
M  V30 6617 C 647.509 -1.92067 -0.287069 0
M  V30 6618 O 646.784 -1.52409 -1.20837 0
M  V30 6619 C 647.067 -3.01676 1.9663 0
M  V30 6620 C 646.92 -2.82888 3.49707 0
M  V30 6621 C 648.239 -4.02274 1.78504 0
M  V30 6622 H 645.358 -0.602966 0.423793 0
M  V30 6623 H 648 -1.05418 1.58073 0
M  V30 6624 H 646.15 -3.53515 1.61119 0
M  V30 6625 H 647.822 -2.38026 3.95147 0
M  V30 6626 H 646.065 -2.17862 3.75125 0
M  V30 6627 H 646.736 -3.79147 4.01187 0
M  V30 6628 H 649.212 -3.59511 2.09503 0
M  V30 6629 H 648.088 -4.95056 2.37088 0
M  V30 6630 H 648.349 -4.35903 0.737647 0
M  V30 6631 N 647.408 -1.11026 -1.11852 0
M  V30 6632 C 648.34 -0.72249 -2.17515 0
M  V30 6633 C 649.353 0.243782 -1.60964 0
M  V30 6634 O 650.542 0.0273252 -1.78479 0
M  V30 6635 C 647.642 -0.0463979 -3.38868 0
M  V30 6636 C 646.815 -1.0384 -4.24895 0
M  V30 6637 C 645.874 -0.392659 -5.24733 0
M  V30 6638 O 644.9 -1.0453 -5.5952 0
M  V30 6639 N 646.102 0.846296 -5.74298 0
M  V30 6640 H 648.867 -1.63161 -2.51393 0
M  V30 6641 H 646.428 -0.999899 -1.27333 0
M  V30 6642 H 648.42 0.397215 -4.02746 0
M  V30 6643 H 646.99 0.765231 -3.03089 0
M  V30 6644 H 646.21 -1.6601 -3.57539 0
M  V30 6645 H 647.498 -1.70968 -4.79215 0
M  V30 6646 H 646.896 1.39578 -5.4821 0
M  V30 6647 H 645.453 1.23296 -6.40032 0
M  V30 6648 N 648.886 1.2938 -0.899927 0
M  V30 6649 C 649.834 2.29675 -0.367698 0
M  V30 6650 C 650.828 1.60787 0.533282 0
M  V30 6651 O 652.034 1.75126 0.416058 0
M  V30 6652 H 648.409 0.745284 -0.100279 0
M  V30 6653 H 650.38 2.72008 -1.22696 0
M  V30 6654 C 649.129 3.45512 0.389483 0
M  V30 6655 H 648.452 3.98713 -0.294575 0
M  V30 6656 H 649.892 4.17725 0.726744 0
M  V30 6657 C 648.351 2.969 1.59223 0
M  V30 6658 O 648.881 2.98195 2.69152 0
M  V30 6659 N 647.087 2.52728 1.43447 0
M  V30 6660 H 646.634 2.51873 0.540148 0
M  V30 6661 H 646.592 2.20561 2.24054 0
M  V30 6662 N 650.364 0.662433 1.43002 0
M  V30 6663 C 651.594 0.187343 2.05749 0
M  V30 6664 C 652.002 -1.15582 1.49791 0
M  V30 6665 O 651.345 -1.72651 0.627487 0
M  V30 6666 C 651.407 0.0316493 3.59486 0
M  V30 6667 C 651.071 1.30156 4.38073 0
M  V30 6668 C 652.068 2.23234 4.69535 0
M  V30 6669 C 649.753 1.54572 4.77926 0
M  V30 6670 C 651.747 3.39012 5.39768 0
M  V30 6671 C 649.434 2.70641 5.47902 0
M  V30 6672 C 650.432 3.62687 5.78746 0
M  V30 6673 O 650.12 4.76728 6.47291 0
M  V30 6674 H 649.852 0.0915214 0.669776 0
M  V30 6675 H 652.406 0.905982 1.8434 0
M  V30 6676 H 650.636 -0.742451 3.79506 0
M  V30 6677 H 652.325 -0.401977 4.03905 0
M  V30 6678 H 653.091 2.05616 4.39257 0
M  V30 6679 H 648.97 0.83804 4.53319 0
M  V30 6680 H 652.514 4.10877 5.63761 0
M  V30 6681 H 648.411 2.88189 5.77596 0
M  V30 6682 H 649.179 4.76113 6.65777 0
M  V30 6683 N 651.842 -1.52309 0.404946 0
M  V30 6684 C 652.774 -2.24579 -0.45791 0
M  V30 6685 C 653.787 -1.2739 -1.01369 0
M  V30 6686 O 654.976 -1.53363 -0.91335 0
M  V30 6687 C 652.076 -2.9608 -1.64893 0
M  V30 6688 C 651.249 -4.20106 -1.21777 0
M  V30 6689 C 650.308 -4.74468 -2.27523 0
M  V30 6690 O 649.334 -5.37157 -1.88285 0
M  V30 6691 N 650.536 -4.55678 -3.59635 0
M  V30 6692 H 653.301 -2.99265 0.161341 0
M  V30 6693 H 650.862 -1.60228 0.232107 0
M  V30 6694 H 652.854 -3.29344 -2.35191 0
M  V30 6695 H 651.424 -2.24606 -2.17419 0
M  V30 6696 H 650.644 -3.92704 -0.343071 0
M  V30 6697 H 651.932 -5.00658 -0.906596 0
M  V30 6698 H 651.33 -4.05673 -3.94266 0
M  V30 6699 H 649.887 -4.9339 -4.25922 0
M  V30 6700 N 653.32 -0.135238 -1.57019 0
M  V30 6701 C 654.736 0.221262 -1.58059 0
M  V30 6702 C 654.936 1.65538 -1.14889 0
M  V30 6703 O 653.992 2.37985 -0.843751 0
M  V30 6704 C 655.305 -0.0268114 -3.00688 0
M  V30 6705 C 656.853 0.0378206 -3.12977 0
M  V30 6706 C 657.328 -0.182769 -4.57635 0
M  V30 6707 N 658.819 -0.129292 -4.6302 0
M  V30 6708 C 659.554 -0.274648 -5.72742 0
M  V30 6709 N 659.05 -0.477075 -6.91155 0
M  V30 6710 N 660.843 -0.213077 -5.61696 0
M  V30 6711 H 652.994 -1.07177 -1.83376 0
M  V30 6712 H 655.257 -0.423338 -0.848227 0
M  V30 6713 H 654.963 -1.01889 -3.36618 0
M  V30 6714 H 654.837 0.697863 -3.70688 0
M  V30 6715 H 657.224 1.02043 -2.76896 0
M  V30 6716 H 657.305 -0.718996 -2.45487 0
M  V30 6717 H 656.949 -1.16243 -4.94419 0
M  V30 6718 H 656.879 0.59423 -5.23237 0
M  V30 6719 H 659.37 0.0229896 -3.77893 0
M  V30 6720 H 659.683 -0.578413 -7.70632 0
M  V30 6721 H 658.028 -0.513252 -6.93102 0
M  V30 6722 H 661.219 -0.0557796 -4.68067 0
M  V30 6723 H 661.392 -0.329796 -6.4716 0
M  V30 6724 N 654.798 1.5699 0.138552 0
M  V30 6725 C 656.047 1.82998 0.848205 0
M  V30 6726 C 656.36 0.717829 1.81952 0
M  V30 6727 O 657.566 0.863756 2.57394 0
M  V30 6728 C 656.022 3.24379 1.55904 0
M  V30 6729 C 655.63 4.43552 0.62971 0
M  V30 6730 C 657.374 3.59654 2.25498 0
M  V30 6731 C 655.281 5.75957 1.34266 0
M  V30 6732 H 654.211 0.682495 0.320495 0
M  V30 6733 H 656.862 1.83222 0.100924 0
M  V30 6734 H 655.244 3.18567 2.35226 0
M  V30 6735 H 656.418 4.6062 -0.128882 0
M  V30 6736 H 654.733 4.16379 0.0417526 0
M  V30 6737 H 657.33 4.55837 2.79493 0
M  V30 6738 H 657.673 2.86124 3.02388 0
M  V30 6739 H 658.206 3.67164 1.53087 0
M  V30 6740 H 654.945 6.52604 0.615441 0
M  V30 6741 H 654.465 5.62811 2.07375 0
M  V30 6742 H 656.144 6.19046 1.88126 0
M  V30 6743 N 656.276 -0.40816 1.52223 0
M  V30 6744 C 657.186 -1.52202 1.78526 0
M  V30 6745 C 658.202 -1.60546 0.670892 0
M  V30 6746 O 659.378 -1.77242 0.956404 0
M  V30 6747 C 656.443 -2.87928 1.93128 0
M  V30 6748 C 655.504 -2.89463 3.17033 0
M  V30 6749 C 654.737 -4.18715 3.30929 0
M  V30 6750 O 654.96 -5.12662 2.50067 0
M  V30 6751 O 653.894 -4.27125 4.24084 0
M  V30 6752 H 657.72 -1.32911 2.73072 0
M  V30 6753 H 655.305 -0.594112 1.37079 0
M  V30 6754 H 657.187 -3.68426 2.04549 0
M  V30 6755 H 655.862 -3.07285 1.01772 0
M  V30 6756 H 654.769 -2.07815 3.11069 0
M  V30 6757 H 656.102 -2.75055 4.08174 0
M  V30 6758 N 657.755 -1.42862 -0.66545 0
M  V30 6759 C 659.171 -1.25993 -0.979687 0
M  V30 6760 C 659.371 -0.170831 -2.00775 0
M  V30 6761 O 658.427 0.454827 -2.4837 0
M  V30 6762 C 659.74 -2.62005 -1.47559 0
M  V30 6763 C 661.288 -2.69437 -1.59288 0
M  V30 6764 C 661.763 -4.05838 -2.12272 0
M  V30 6765 N 663.254 -4.0784 -2.19592 0
M  V30 6766 C 663.989 -5.10205 -2.61684 0
M  V30 6767 N 663.485 -6.22949 -3.03161 0
M  V30 6768 N 665.278 -4.9756 -2.61516 0
M  V30 6769 H 657.429 -2.12395 0.0150493 0
M  V30 6770 H 659.692 -0.946355 -0.0558187 0
M  V30 6771 H 659.398 -3.42605 -0.794654 0
M  V30 6772 H 659.272 -2.86566 -2.45275 0
M  V30 6773 H 661.659 -1.89178 -2.26486 0
M  V30 6774 H 661.74 -2.48655 -0.600374 0
M  V30 6775 H 661.384 -4.86559 -1.4568 0
M  V30 6776 H 661.314 -4.23977 -3.12331 0
M  V30 6777 H 663.805 -3.26452 -1.90361 0
M  V30 6778 H 664.118 -6.96899 -3.33993 0
M  V30 6779 H 662.463 -6.2644 -3.00995 0
M  V30 6780 H 665.654 -4.08551 -2.28481 0
M  V30 6781 H 665.827 -5.77468 -2.93999 0
M  V30 6782 N 659.233 0.902656 -1.29189 0
M  V30 6783 C 660.181 2.0278 -1.13943 0
M  V30 6784 C 661.175 1.69308 -0.055787 0
M  V30 6785 O 662.381 1.78707 -0.215371 0
M  V30 6786 H 658.756 0.664595 -0.351877 0
M  V30 6787 H 660.727 2.12778 -2.09208 0
M  V30 6788 C 659.476 3.37657 -0.82966 0
M  V30 6789 H 658.799 3.63913 -1.65551 0
M  V30 6790 H 660.239 4.17078 -0.762998 0
M  V30 6791 C 658.698 3.33648 0.466991 0
M  V30 6792 O 659.228 3.72886 1.49395 0
M  V30 6793 N 657.434 2.86745 0.471761 0
M  V30 6794 H 656.981 2.55009 -0.364406 0
M  V30 6795 H 656.939 2.84446 1.33933 0
M  V30 6796 N 660.711 1.11618 1.11262 0
M  V30 6797 C 661.641 0.79846 2.19424 0
M  V30 6798 C 662.622 -0.234003 1.68483 0
M  V30 6799 O 663.807 -0.0970704 1.93957 0
M  V30 6800 C 660.937 0.242892 3.4645 0
M  V30 6801 C 659.891 1.20744 4.10615 0
M  V30 6802 C 659.217 0.512494 5.32238 0
M  V30 6803 C 660.517 2.55884 4.55325 0
M  V30 6804 H 662.211 1.70286 2.46258 0
M  V30 6805 H 659.757 0.820195 1.18359 0
M  V30 6806 H 661.71 0.00840447 4.21399 0
M  V30 6807 H 660.434 -0.696811 3.1908 0
M  V30 6808 H 659.093 1.42759 3.37662 0
M  V30 6809 H 658.741 -0.432075 5.01141 0
M  V30 6810 H 658.441 1.15583 5.7612 0
M  V30 6811 H 659.965 0.286842 6.09926 0
M  V30 6812 H 661.379 2.37946 5.21588 0
M  V30 6813 H 659.776 3.16216 5.10027 0
M  V30 6814 H 660.846 3.14968 3.68678 0
M  V30 6815 N 662.189 -1.289 0.906776 0
M  V30 6816 C 663.121 -2.26556 0.347159 0
M  V30 6817 C 664.134 -1.54589 -0.51049 0
M  V30 6818 O 665.323 -1.75489 -0.326501 0
M  V30 6819 C 662.423 -3.3484 -0.523024 0
M  V30 6820 C 661.596 -4.36296 0.310515 0
M  V30 6821 C 660.655 -5.23879 -0.493634 0
M  V30 6822 O 659.681 -5.69127 0.0913569 0
M  V30 6823 N 660.883 -5.51946 -1.7982 0
M  V30 6824 H 663.648 -2.75212 1.18652 0
M  V30 6825 H 661.209 -1.42309 0.771996 0
M  V30 6826 H 663.201 -3.90366 -1.06756 0
M  V30 6827 H 661.771 -2.85946 -1.26309 0
M  V30 6828 H 660.991 -3.80331 1.03644 0
M  V30 6829 H 662.279 -5.01113 0.881106 0
M  V30 6830 H 661.677 -5.17006 -2.2961 0
M  V30 6831 H 660.234 -6.10258 -2.28971 0
M  V30 6832 N 663.667 -0.670007 -1.42649 0
M  V30 6833 C 664.892 -0.196955 -2.06463 0
M  V30 6834 C 665.317 1.1352 -1.49983 0
M  V30 6835 O 664.675 1.705 -0.616397 0
M  V30 6836 C 664.723 -0.137381 -3.60338 0
M  V30 6837 O 663.827 0.895523 -4.02559 0
M  V30 6838 H 663.168 -0.102579 -0.656029 0
M  V30 6839 H 665.698 -0.917669 -1.82866 0
M  V30 6840 H 665.708 0.0403625 -4.0798 0
M  V30 6841 H 664.383 -1.10977 -4.0082 0
M  V30 6842 H 662.96 0.689209 -3.66476 0
M  V30 6843 N 665.145 1.52092 -0.413018 0
M  V30 6844 C 666.556 1.86617 0.0556967 0
M  V30 6845 C 666.907 1.33156 1.44097 0
M  V30 6846 O 666.032 0.672417 2.05688 0
M  V30 6847 C 666.627 3.38628 0.107844 0
M  V30 6848 C 665.186 3.72778 0.520904 0
M  V30 6849 C 664.333 2.75649 -0.302109 0
M  V30 6850 H 667.284 1.45663 -0.629919 0
M  V30 6851 H 667.305 3.69152 0.922324 0
M  V30 6852 H 666.817 3.77508 -0.900506 0
M  V30 6853 H 664.918 3.39478 1.53575 0
M  V30 6854 H 665.031 4.7838 0.262591 0
M  V30 6855 H 663.395 2.53603 0.236115 0
M  V30 6856 H 664.178 3.17369 -1.30888 0
M  V30 6857 N 666.623 0.143563 1.56945 0
M  V30 6858 C 667.851 -0.515447 2.00377 0
M  V30 6859 C 668.266 -1.58643 1.02361 0
M  V30 6860 O 667.623 -1.82489 0.0201039 0
M  V30 6861 C 667.674 -1.11923 3.43737 0
M  V30 6862 O 667.395 -0.0910318 4.38005 0
M  V30 6863 C 668.896 -1.85918 4.02429 0
M  V30 6864 H 666.116 -0.134478 0.657386 0
M  V30 6865 H 668.66 0.237135 2.0312 0
M  V30 6866 H 666.815 -1.82245 3.41856 0
M  V30 6867 H 667.229 -0.532916 5.21786 0
M  V30 6868 H 668.703 -2.2346 5.04747 0
M  V30 6869 H 669.18 -2.7438 3.42947 0
M  V30 6870 H 669.786 -1.20303 4.07931 0
M  V30 6871 N 668.101 -1.57061 -0.130224 0
M  V30 6872 C 669.033 -1.96147 -1.18571 0
M  V30 6873 C 670.046 -0.859347 -1.38272 0
M  V30 6874 O 671.235 -1.13769 -1.37545 0
M  V30 6875 C 668.335 -2.23484 -2.54771 0
M  V30 6876 C 667.508 -3.54786 -2.55824 0
M  V30 6877 C 666.567 -3.70467 -3.73686 0
M  V30 6878 O 665.593 -4.42693 -3.57787 0
M  V30 6879 N 666.795 -3.08389 -4.91809 0
M  V30 6880 H 669.56 -2.87295 -0.853333 0
M  V30 6881 H 667.121 -1.58714 -0.319621 0
M  V30 6882 H 669.113 -2.312 -3.32158 0
M  V30 6883 H 667.683 -1.38518 -2.80235 0
M  V30 6884 H 666.903 -3.5836 -1.64232 0
M  V30 6885 H 668.191 -4.4111 -2.53573 0
M  V30 6886 H 667.589 -2.49656 -5.0763 0
M  V30 6887 H 666.146 -3.21642 -5.66912 0
M  V30 6888 N 669.579 0.400081 -1.52437 0
M  V30 6889 C 670.826 1.14619 -1.6694 0
M  V30 6890 C 671.154 1.90262 -0.403797 0
M  V30 6891 O 670.409 1.85835 0.61351 0
M  V30 6892 C 670.708 2.15914 -2.84808 0
M  V30 6893 C 670.374 1.57011 -4.2268 0
M  V30 6894 C 669.036 1.40672 -4.60179 0
M  V30 6895 C 671.388 1.14081 -5.08562 0
M  V30 6896 C 668.716 0.799335 -5.81229 0
M  V30 6897 C 671.068 0.547573 -6.30226 0
M  V30 6898 C 669.732 0.371389 -6.66466 0
M  V30 6899 H 669.002 0.419419 -0.610875 0
M  V30 6900 H 671.649 0.432227 -1.86558 0
M  V30 6901 H 669.954 2.93488 -2.59561 0
M  V30 6902 H 671.651 2.73533 -2.93225 0
M  V30 6903 H 668.241 1.70713 -3.93135 0
M  V30 6904 H 672.425 1.2551 -4.80168 0
M  V30 6905 H 667.681 0.65093 -6.07925 0
M  V30 6906 H 671.855 0.206575 -6.96094 0
M  V30 6907 H 669.482 -0.10135 -7.60132 0
M  V30 6908 N 671.057 1.43213 0.657864 0
M  V30 6909 C 671.989 1.43974 1.78337 0
M  V30 6910 C 673.002 0.336482 1.59285 0
M  V30 6911 O 674.191 0.600631 1.68091 0
M  V30 6912 C 671.291 1.23242 3.15697 0
M  V30 6913 C 670.464 2.46319 3.61449 0
M  V30 6914 C 669.523 2.2088 4.77597 0
M  V30 6915 O 668.549 2.942 4.87273 0
M  V30 6916 N 669.751 1.22251 5.67481 0
M  V30 6917 H 672.516 2.40993 1.78164 0
M  V30 6918 H 670.077 1.3831 0.841549 0
M  V30 6919 H 672.069 1.04113 3.91079 0
M  V30 6920 H 670.639 0.346849 3.1067 0
M  V30 6921 H 669.859 2.80904 2.76563 0
M  V30 6922 H 671.147 3.28239 3.88763 0
M  V30 6923 H 670.545 0.616433 5.62331 0
M  V30 6924 H 669.102 1.09107 6.42603 0
M  V30 6925 N 672.536 -0.895792 1.29666 0
M  V30 6926 C 673.764 -1.68001 1.20761 0
M  V30 6927 C 674.179 -1.87379 -0.231187 0
M  V30 6928 O 673.536 -1.41359 -1.15429 0
M  V30 6929 C 673.587 -3.06236 1.92098 0
M  V30 6930 O 673.308 -2.8774 3.30359 0
M  V30 6931 C 674.809 -4.00652 1.89717 0
M  V30 6932 H 672.029 -0.524591 0.418384 0
M  V30 6933 H 674.573 -1.11995 1.71106 0
M  V30 6934 H 672.728 -3.59007 1.45578 0
M  V30 6935 H 673.142 -3.75359 3.66342 0
M  V30 6936 H 674.616 -4.95051 2.44189 0
M  V30 6937 H 675.093 -4.30424 0.873595 0
M  V30 6938 H 675.699 -3.53815 2.35998 0
M  V30 6939 N 674.014 -1.12206 -1.10668 0
M  V30 6940 C 675.425 -0.890657 -1.64086 0
M  V30 6941 C 675.776 0.575502 -1.8757 0
M  V30 6942 O 674.901 1.4394 -1.61587 0
M  V30 6943 C 675.496 -1.61029 -2.98085 0
M  V30 6944 C 674.055 -1.4251 -3.48379 0
M  V30 6945 C 673.202 -1.64778 -2.23033 0
M  V30 6946 H 676.153 -1.27718 -0.94201 0
M  V30 6947 H 676.174 -1.05993 -3.65439 0
M  V30 6948 H 675.686 -2.67735 -2.80962 0
M  V30 6949 H 673.787 -0.380497 -3.70652 0
M  V30 6950 H 673.9 -2.17959 -4.26651 0
M  V30 6951 H 672.264 -1.07171 -2.31055 0
M  V30 6952 H 673.047 -2.72776 -2.08443 0
M  V30 6953 N 675.492 1.28418 -0.913599 0
M  V30 6954 C 676.908 1.47411 -0.611728 0
M  V30 6955 C 677.108 1.83018 0.843008 0
M  V30 6956 O 676.164 1.93505 1.6221 0
M  V30 6957 C 677.477 2.57703 -1.5495 0
M  V30 6958 C 679.025 2.71572 -1.5562 0
M  V30 6959 C 679.5 3.85008 -2.48058 0
M  V30 6960 N 680.991 3.92361 -2.46184 0
M  V30 6961 C 681.726 4.79516 -3.14407 0
M  V30 6962 N 681.222 5.71262 -3.91958 0
M  V30 6963 N 683.015 4.73125 -3.03495 0
M  V30 6964 H 675.166 1.03585 -1.85429 0
M  V30 6965 H 677.429 0.515907 -0.795326 0
M  V30 6966 H 677.135 2.38298 -2.58663 0
M  V30 6967 H 677.009 3.54801 -1.28048 0
M  V30 6968 H 679.396 2.90366 -0.526441 0
M  V30 6969 H 679.477 1.75006 -1.86565 0
M  V30 6970 H 679.121 3.66969 -3.51136 0
M  V30 6971 H 679.051 4.80971 -2.14416 0
M  V30 6972 H 681.542 3.26749 -1.89851 0
M  V30 6973 H 681.855 6.34593 -4.41034 0
M  V30 6974 H 680.2 5.71103 -3.96063 0
M  V30 6975 H 683.391 4.00442 -2.42413 0
M  V30 6976 H 683.564 5.40834 -3.56935 0
M  V30 6977 N 676.97 0.677563 1.42291 0
M  V30 6978 C 678.195 0.207901 2.06355 0
M  V30 6979 C 678.62 -1.12723 1.50583 0
M  V30 6980 O 677.978 -1.70171 0.62543 0
M  V30 6981 C 678.026 0.156489 3.6026 0
M  V30 6982 O 677.13 -0.874162 4.03029 0
M  V30 6983 H 676.471 0.106056 0.655475 0
M  V30 6984 H 679.001 0.927354 1.82377 0
M  V30 6985 H 679.011 -0.0187258 4.07996 0
M  V30 6986 H 677.686 1.13101 4.00226 0
M  V30 6987 H 676.263 -0.669764 3.66836 0
M  V30 6988 N 678.448 -1.51871 0.421078 0
M  V30 6989 C 679.673 -2.0684 -0.152371 0
M  V30 6990 C 680.098 -1.28802 -1.37083 0
M  V30 6991 O 679.456 -0.321482 -1.78427 0
M  V30 6992 C 679.504 -3.57532 -0.469368 0
M  V30 6993 O 678.608 -3.81818 -1.55848 0
M  V30 6994 H 677.949 -0.663939 -0.00898586 0
M  V30 6995 H 680.479 -1.95674 0.597724 0
M  V30 6996 H 680.489 -4.01515 -0.724553 0
M  V30 6997 H 679.164 -4.13761 0.421276 0
M  V30 6998 H 677.741 -3.49709 -1.29453 0
M  V30 6999 N 679.926 -0.151884 -1.56866 0
M  V30 7000 C 680.889 0.771861 -2.15812 0
M  V30 7001 C 681.889 1.17181 -1.10115 0
M  V30 7002 O 683.079 1.09194 -1.35729 0
M  V30 7003 C 680.211 2.04806 -2.7252 0
M  V30 7004 H 681.404 0.259021 -2.98779 0
M  V30 7005 H 678.957 0.097588 -1.55995 0
M  V30 7006 H 679.692 2.60445 -1.93233 0
M  V30 7007 H 679.477 1.77044 -3.49854 0
M  V30 7008 H 680.967 2.70771 -3.1792 0
M  V30 7009 N 681.404 1.57128 0.121893 0
M  V30 7010 C 682.653 1.83888 0.828748 0
M  V30 7011 C 682.966 0.737087 1.81181 0
M  V30 7012 O 684.172 0.891007 2.56463 0
M  V30 7013 C 682.628 3.26014 1.52455 0
M  V30 7014 C 682.236 4.44195 0.58263 0
M  V30 7015 C 683.98 3.62025 2.21671 0
M  V30 7016 C 681.887 5.77349 1.28149 0
M  V30 7017 H 680.817 0.685856 0.313238 0
M  V30 7018 H 683.468 1.83319 0.0814851 0
M  V30 7019 H 681.85 3.21044 2.31834 0
M  V30 7020 H 683.024 4.60457 -0.177729 0
M  V30 7021 H 681.339 4.164 -0.00241228 0
M  V30 7022 H 683.936 4.58776 2.74643 0
M  V30 7023 H 684.279 2.89315 2.99337 0
M  V30 7024 H 684.812 3.68767 1.49184 0
M  V30 7025 H 681.551 6.53221 0.546189 0
M  V30 7026 H 681.071 5.64978 2.01394 0
M  V30 7027 H 682.75 6.21006 1.81549 0
M  V30 7028 N 682.882 -0.391992 1.52647 0
M  V30 7029 C 684.298 -0.731848 1.41831 0
M  V30 7030 C 684.498 -1.9423 0.536361 0
M  V30 7031 O 683.554 -2.52499 0.00866571 0
M  V30 7032 C 684.867 -0.969743 2.84634 0
M  V30 7033 C 686.415 -1.0714 2.94092 0
M  V30 7034 C 686.89 -1.34195 4.37899 0
M  V30 7035 N 688.381 -1.41023 4.41211 0
M  V30 7036 C 689.116 -1.63616 5.49561 0
M  V30 7037 N 688.612 -1.83699 6.68002 0
M  V30 7038 N 690.405 -1.65771 5.371 0
M  V30 7039 H 682.556 0.404547 2.08512 0
M  V30 7040 H 684.819 0.11879 0.940528 0
M  V30 7041 H 684.525 -0.152465 3.51369 0
M  V30 7042 H 684.399 -1.88523 3.26709 0
M  V30 7043 H 686.786 -1.87925 2.27526 0
M  V30 7044 H 686.867 -0.133887 2.55449 0
M  V30 7045 H 686.511 -0.539207 5.0503 0
M  V30 7046 H 686.441 -2.29226 4.74092 0
M  V30 7047 H 688.932 -1.27223 3.55841 0
M  V30 7048 H 689.245 -2.00437 7.46354 0
M  V30 7049 H 687.59 -1.8093 6.71036 0
M  V30 7050 H 690.781 -1.4963 4.43541 0
M  V30 7051 H 690.954 -1.83038 6.21612 0
M  V30 7052 N 684.36 -1.4356 -0.65026 0
M  V30 7053 C 685.776 -1.27025 -0.966269 0
M  V30 7054 C 685.976 -0.192117 -2.00582 0
M  V30 7055 O 685.032 0.428459 -2.48838 0
M  V30 7056 C 686.345 -2.63556 -1.44772 0
M  V30 7057 C 687.893 -2.71111 -1.56421 0
M  V30 7058 C 688.368 -4.08067 -2.07956 0
M  V30 7059 N 689.859 -4.10146 -2.15254 0
M  V30 7060 C 690.594 -5.12952 -2.56258 0
M  V30 7061 N 690.09 -6.26129 -2.96537 0
M  V30 7062 N 691.883 -5.00306 -2.56224 0
M  V30 7063 H 684.034 -2.12367 0.0375758 0
M  V30 7064 H 686.297 -0.946894 -0.0457782 0
M  V30 7065 H 686.003 -3.43429 -0.758271 0
M  V30 7066 H 685.877 -2.89152 -2.42221 0
M  V30 7067 H 688.264 -1.91569 -2.24467 0
M  V30 7068 H 688.345 -2.49277 -0.573967 0
M  V30 7069 H 687.989 -4.88077 -1.40511 0
M  V30 7070 H 687.919 -4.27266 -3.07817 0
M  V30 7071 H 690.41 -3.28453 -1.86887 0
M  V30 7072 H 690.723 -7.00403 -3.26582 0
M  V30 7073 H 689.068 -6.29597 -2.94334 0
M  V30 7074 H 692.259 -4.10952 -2.24135 0
M  V30 7075 H 692.432 -5.80553 -2.87857 0
M  V30 7076 N 685.838 0.888903 -1.30139 0
M  V30 7077 C 687.063 1.67884 -1.21777 0
M  V30 7078 C 687.488 1.86848 0.216689 0
M  V30 7079 O 686.846 1.39659 1.15608 0
M  V30 7080 C 686.894 3.03483 -1.94757 0
M  V30 7081 O 685.998 3.92294 -1.27198 0
M  V30 7082 H 685.339 0.513144 -0.421402 0
M  V30 7083 H 687.869 1.10968 -1.71893 0
M  V30 7084 H 687.879 3.53553 -2.03627 0
M  V30 7085 H 686.554 2.89 -2.99085 0
M  V30 7086 H 685.131 3.50732 -1.26655 0
M  V30 7087 N 687.317 1.12792 1.10072 0
M  V30 7088 C 688.565 0.883796 1.81751 0
M  V30 7089 C 688.886 -0.591891 1.858 0
M  V30 7090 O 688.156 -1.43017 1.33876 0
M  V30 7091 H 686.736 0.323978 0.673088 0
M  V30 7092 H 689.398 1.42314 1.33164 0
M  V30 7093 H 688.494 1.26863 2.85153 0
M  V30 7094 N 688.795 -1.27931 0.920396 0
M  V30 7095 C 690.02 -1.99343 0.572478 0
M  V30 7096 C 690.445 -1.68267 -0.840696 0
M  V30 7097 O 689.803 -0.918805 -1.56294 0
M  V30 7098 C 689.851 -3.51698 0.796284 0
M  V30 7099 O 688.955 -4.12157 -0.141602 0
M  V30 7100 H 688.296 -0.626065 0.221221 0
M  V30 7101 H 690.826 -1.62921 1.23765 0
M  V30 7102 H 690.836 -4.01793 0.708984 0
M  V30 7103 H 689.511 -3.73649 1.82644 0
M  V30 7104 H 688.088 -3.729 -0.005007 0
M  V30 7105 N 690.273 -0.685099 -1.4193 0
M  V30 7106 C 691.501 -0.220372 -2.05723 0
M  V30 7107 C 691.916 1.12642 -1.51516 0
M  V30 7108 O 691.273 1.70182 -0.659114 0
M  V30 7109 C 691.324 -0.157974 -3.61155 0
M  V30 7110 O 691.045 -1.45156 -4.13354 0
M  V30 7111 C 692.546 0.329009 -4.42077 0
M  V30 7112 H 689.766 -0.104725 -0.662777 0
M  V30 7113 H 692.31 -0.934736 -1.81887 0
M  V30 7114 H 690.465 0.507144 -3.84066 0
M  V30 7115 H 690.879 -1.33172 -5.07312 0
M  V30 7116 H 692.353 0.321559 -5.51063 0
M  V30 7117 H 692.83 1.36608 -4.17414 0
M  V30 7118 H 693.436 -0.304737 -4.24207 0
M  V30 7119 N 691.751 1.51645 -0.429126 0
M  V30 7120 C 692.976 2.06917 0.141399 0
M  V30 7121 C 693.401 1.29527 1.36398 0
M  V30 7122 O 692.759 0.33094 1.78254 0
M  V30 7123 C 692.807 3.57776 0.4504 0
M  V30 7124 O 691.911 3.82639 1.53821 0
M  V30 7125 H 691.252 0.663978 0.0054647 0
M  V30 7126 H 693.782 1.95355 -0.608093 0
M  V30 7127 H 693.792 4.01894 0.703249 0
M  V30 7128 H 692.467 4.13532 -0.443213 0
M  V30 7129 H 691.044 3.5039 1.27597 0
M  V30 7130 N 693.229 0.160201 1.56784 0
M  V30 7131 C 694.64 -0.358417 1.83227 0
M  V30 7132 C 694.991 -1.63831 1.07952 0
M  V30 7133 O 694.116 -2.13885 0.328995 0
M  V30 7134 C 694.711 -0.657058 3.32368 0
M  V30 7135 C 693.27 -1.12015 3.59346 0
M  V30 7136 C 692.417 -0.15015 2.76893 0
M  V30 7137 H 695.368 0.384669 1.53967 0
M  V30 7138 H 695.389 -1.51033 3.49241 0
M  V30 7139 H 694.901 0.274647 3.87127 0
M  V30 7140 H 693.002 -2.06734 3.09987 0
M  V30 7141 H 693.115 -1.037 4.67743 0
M  V30 7142 H 691.479 -0.645361 2.46388 0
M  V30 7143 H 692.262 0.775379 3.34429 0
M  V30 7144 N 694.707 -1.5719 -0.113559 0
M  V30 7145 C 695.637 -2.03772 -1.14013 0
M  V30 7146 C 696.618 -0.923176 -1.42869 0
M  V30 7147 O 697.803 -1.19325 -1.53216 0
M  V30 7148 C 694.933 -2.44663 -2.4649 0
M  V30 7149 C 693.887 -3.59612 -2.32085 0
M  V30 7150 C 693.213 -3.8642 -3.69573 0
M  V30 7151 C 694.513 -4.91149 -1.7768 0
M  V30 7152 H 696.207 -2.89785 -0.752665 0
M  V30 7153 H 693.753 -1.39412 -0.360609 0
M  V30 7154 H 695.706 -2.75857 -3.18561 0
M  V30 7155 H 694.43 -1.55628 -2.87137 0
M  V30 7156 H 693.089 -3.28636 -1.62461 0
M  V30 7157 H 692.737 -2.94581 -4.07715 0
M  V30 7158 H 692.437 -4.63797 -3.60786 0
M  V30 7159 H 693.961 -4.2007 -4.4314 0
M  V30 7160 H 695.375 -5.20843 -2.39574 0
M  V30 7161 H 693.772 -5.72562 -1.79701 0
M  V30 7162 H 694.842 -4.79301 -0.734776 0
M  V30 7163 N 696.185 0.383891 -1.52853 0
M  V30 7164 C 697.433 1.12619 -1.67814 0
M  V30 7165 C 697.754 1.90354 -0.423141 0
M  V30 7166 O 697.024 1.87649 0.562554 0
M  V30 7167 H 695.604 0.418738 -0.618601 0
M  V30 7168 H 698.266 0.43495 -1.89985 0
M  V30 7169 H 697.362 1.82624 -2.5309 0
M  V30 7170 N 697.663 1.43903 0.642637 0
M  V30 7171 C 698.91 1.46079 1.40239 0
M  V30 7172 C 699.238 0.0890335 1.94296 0
M  V30 7173 O 698.493 -0.907533 1.73385 0
M  V30 7174 C 698.792 2.45907 2.59354 0
M  V30 7175 C 698.458 3.91522 2.23654 0
M  V30 7176 C 697.12 4.31179 2.1363 0
M  V30 7177 C 699.472 4.83242 1.95261 0
M  V30 7178 C 696.8 5.60495 1.73384 0
M  V30 7179 C 699.152 6.12933 1.56511 0
M  V30 7180 C 697.816 6.51556 1.4502 0
M  V30 7181 H 697.086 0.534542 0.513172 0
M  V30 7182 H 699.733 1.77047 0.72984 0
M  V30 7183 H 698.038 2.08381 3.3179 0
M  V30 7184 H 699.735 2.44842 3.17574 0
M  V30 7185 H 696.325 3.60142 2.32369 0
M  V30 7186 H 700.509 4.53367 2.0192 0
M  V30 7187 H 695.765 5.89249 1.63082 0
M  V30 7188 H 699.939 6.83469 1.33576 0
M  V30 7189 H 697.566 7.51663 1.13606 0
M  V30 7190 N 699.141 -0.881989 1.30609 0
M  V30 7191 C 700.104 -1.96957 1.1722 0
M  V30 7192 C 701.104 -1.60472 0.102598 0
M  V30 7193 O 702.294 -1.70628 0.350943 0
M  V30 7194 C 699.426 -3.31463 0.796572 0
M  V30 7195 H 700.619 -2.10262 2.13846 0
M  V30 7196 H 698.172 -1.06877 1.14048 0
M  V30 7197 H 698.907 -3.23859 -0.169053 0
M  V30 7198 H 698.692 -3.59314 1.56959 0
M  V30 7199 H 700.182 -4.11233 0.72645 0
M  V30 7200 N 700.619 -1.13374 -1.09472 0
M  V30 7201 C 702.035 -0.871846 -1.33682 0
M  V30 7202 C 702.235 0.492847 -1.9538 0
M  V30 7203 O 701.291 1.23946 -2.19985 0
M  V30 7204 C 702.604 -1.99608 -2.24893 0
M  V30 7205 C 704.152 -2.02812 -2.38404 0
M  V30 7206 C 704.627 -3.14497 -3.3295 0
M  V30 7207 N 706.118 -3.14004 -3.40523 0
M  V30 7208 C 706.853 -3.97061 -4.13679 0
M  V30 7209 N 706.349 -4.90131 -4.89636 0
M  V30 7210 N 708.142 -3.85162 -4.09398 0
M  V30 7211 H 700.293 -2.01288 -0.677995 0
M  V30 7212 H 702.556 -0.876492 -0.361201 0
M  V30 7213 H 702.262 -2.98 -1.86786 0
M  V30 7214 H 702.136 -1.90981 -3.25278 0
M  V30 7215 H 704.523 -1.05034 -2.75775 0
M  V30 7216 H 704.604 -2.15511 -1.37799 0
M  V30 7217 H 704.248 -4.12514 -2.96302 0
M  V30 7218 H 704.178 -2.99035 -4.33458 0
M  V30 7219 H 706.669 -2.46587 -2.86362 0
M  V30 7220 H 706.982 -5.49996 -5.42885 0
M  V30 7221 H 705.327 -4.94138 -4.88726 0
M  V30 7222 H 708.518 -3.11779 -3.49158 0
M  V30 7223 H 708.691 -4.5012 -4.6615 0
M  V30 7224 N 702.098 1.27442 -0.927168 0
M  V30 7225 C 703.061 2.2512 -0.430525 0
M  V30 7226 C 704.061 1.54357 0.450619 0
M  V30 7227 O 705.251 1.72371 0.251774 0
M  V30 7228 C 702.383 3.38763 0.381144 0
M  V30 7229 H 703.576 2.70569 -1.29354 0
M  V30 7230 H 701.129 1.39355 -0.707806 0
M  V30 7231 H 701.864 2.98695 1.263 0
M  V30 7232 H 701.649 3.91298 -0.250618 0
M  V30 7233 H 703.139 4.11364 0.719012 0
M  V30 7234 N 703.576 0.692616 1.41565 0
M  V30 7235 C 704.801 0.229776 2.06123 0
M  V30 7236 C 705.226 -1.11119 1.5177 0
M  V30 7237 O 704.584 -1.69498 0.643444 0
M  V30 7238 C 704.632 0.19469 3.60074 0
M  V30 7239 O 703.736 -0.831366 4.03933 0
M  V30 7240 H 703.077 0.113002 0.654314 0
M  V30 7241 H 705.607 0.946645 1.81383 0
M  V30 7242 H 705.617 0.0245487 4.07993 0
M  V30 7243 H 704.292 1.17339 3.99004 0
M  V30 7244 H 702.869 -0.630819 3.67526 0
M  V30 7245 N 705.054 -1.51416 0.437162 0
M  V30 7246 C 706.465 -1.86682 -0.0260005 0
M  V30 7247 C 706.816 -1.35432 -1.4196 0
M  V30 7248 O 705.941 -0.705055 -2.04592 0
M  V30 7249 C 706.536 -3.38757 -0.0539577 0
M  V30 7250 C 705.095 -3.7356 -0.461532 0
M  V30 7251 C 704.242 -2.75134 0.345924 0
M  V30 7252 H 707.193 -1.44642 0.653013 0
M  V30 7253 H 707.214 -3.70573 -0.863478 0
M  V30 7254 H 706.726 -3.76028 0.96045 0
M  V30 7255 H 704.827 -3.41878 -1.48155 0
M  V30 7256 H 704.94 -4.78737 -0.186451 0
M  V30 7257 H 703.304 -2.53947 -0.195739 0
M  V30 7258 H 704.087 -3.15247 1.35921 0
M  V30 7259 N 706.532 -0.168513 -1.56696 0
M  V30 7260 C 707.757 0.486688 -2.01609 0
M  V30 7261 C 708.182 1.56203 -1.04796 0
M  V30 7262 O 707.54 1.8128 -0.0270596 0
M  V30 7263 C 707.588 1.04451 -3.45141 0
M  V30 7264 O 706.692 2.15862 -3.51393 0
M  V30 7265 H 706.033 0.116831 -0.653641 0
M  V30 7266 H 708.563 -0.271579 -2.0279 0
M  V30 7267 H 708.573 1.36782 -3.84389 0
M  V30 7268 H 707.248 0.257155 -4.15104 0
M  V30 7269 H 705.825 1.84597 -3.24004 0
M  V30 7270 N 708.01 1.57248 0.105221 0
M  V30 7271 C 709.421 1.74612 0.660865 0
M  V30 7272 C 709.772 0.789231 1.79626 0
M  V30 7273 O 708.897 -0.0346611 2.16372 0
M  V30 7274 C 709.492 3.16624 1.20559 0
M  V30 7275 C 708.051 3.35447 1.7074 0
M  V30 7276 C 707.198 2.70445 0.612764 0
M  V30 7277 H 710.149 1.5824 -0.12079 0
M  V30 7278 H 710.17 3.18937 2.07508 0
M  V30 7279 H 709.682 3.86245 0.379012 0
M  V30 7280 H 707.783 2.7089 2.5583 0
M  V30 7281 H 707.896 4.43702 1.80736 0
M  V30 7282 H 706.26 2.32061 1.04975 0
M  V30 7283 H 707.043 3.42699 -0.203066 0
M  V30 7284 N 709.488 -0.375779 1.53054 0
M  V30 7285 C 710.899 -0.95309 1.6054 0
M  V30 7286 C 711.25 -1.90575 0.466446 0
M  V30 7287 O 710.375 -2.12507 -0.408609 0
M  V30 7288 C 710.97 -1.73537 2.90982 0
M  V30 7289 C 709.529 -2.26218 3.00836 0
M  V30 7290 C 708.676 -1.07157 2.55759 0
M  V30 7291 H 711.627 -0.154895 1.57942 0
M  V30 7292 H 711.648 -2.59574 2.78211 0
M  V30 7293 H 711.16 -1.04176 3.73857 0
M  V30 7294 H 709.261 -2.98852 2.22527 0
M  V30 7295 H 709.374 -2.54799 4.05727 0
M  V30 7296 H 707.738 -1.43553 2.10391 0
M  V30 7297 H 708.521 -0.393099 3.41042 0
M  V30 7298 N 710.966 -1.44241 -0.634997 0
M  V30 7299 C 711.929 -1.50457 -1.72903 0
M  V30 7300 C 712.929 -0.387058 -1.56072 0
M  V30 7301 O 714.119 -0.649531 -1.61638 0
M  V30 7302 C 711.251 -1.37477 -3.1195 0
M  V30 7303 H 712.444 -2.47907 -1.68767 0
M  V30 7304 H 709.997 -1.31276 -0.84831 0
M  V30 7305 H 710.732 -0.41106 -3.21684 0
M  V30 7306 H 710.517 -2.18506 -3.25573 0
M  V30 7307 H 712.007 -1.44799 -3.91692 0
M  V30 7308 N 712.444 0.87505 -1.31075 0
M  V30 7309 C 713.394 1.96933 -1.14898 0
M  V30 7310 C 714.378 1.60783 -0.0613703 0
M  V30 7311 O 715.57 1.74678 -0.285751 0
M  V30 7312 C 712.699 3.3253 -0.853166 0
M  V30 7313 C 711.785 3.74963 -1.98151 0
M  V30 7314 N 712.176 3.89403 -3.22799 0
M  V30 7315 C 710.474 4.04436 -1.8801 0
M  V30 7316 C 711.175 4.25563 -3.96574 0
M  V30 7317 N 710.151 4.3597 -3.24701 0
M  V30 7318 H 713.953 2.06201 -2.09424 0
M  V30 7319 H 711.467 1.06551 -1.22558 0
M  V30 7320 H 713.464 4.10666 -0.718266 0
M  V30 7321 H 712.124 3.24592 0.0839218 0
M  V30 7322 H 713.135 3.74266 -3.57974 0
M  V30 7323 H 709.812 4.04915 -1.01733 0
M  V30 7324 H 711.202 4.44375 -5.03965 0
M  V30 7325 N 713.922 1.13953 1.08869 0
M  V30 7326 C 714.885 0.824991 2.13838 0
M  V30 7327 C 715.885 -0.168198 1.59918 0
M  V30 7328 O 717.075 0.0595778 1.74098 0
M  V30 7329 C 714.207 0.228938 3.4013 0
M  V30 7330 H 715.4 1.75521 2.43171 0
M  V30 7331 H 712.953 0.94492 1.24503 0
M  V30 7332 H 713.688 -0.710227 3.16427 0
M  V30 7333 H 713.473 0.944243 3.80561 0
M  V30 7334 H 714.963 0.0259223 4.17592 0
M  V30 7335 N 715.4 -1.26948 0.933913 0
M  V30 7336 C 716.31 -2.30366 0.443671 0
M  V30 7337 C 717.326 -1.67284 -0.478745 0
M  V30 7338 O 718.502 -1.98156 -0.360043 0
M  V30 7339 C 715.567 -3.45485 -0.289974 0
M  V30 7340 C 714.628 -4.24069 0.668114 0
M  V30 7341 C 713.861 -5.33691 -0.0306138 0
M  V30 7342 O 714.084 -5.5656 -1.24888 0
M  V30 7343 O 713.018 -5.98441 0.644384 0
M  V30 7344 H 716.844 -2.74349 1.30254 0
M  V30 7345 H 714.429 -1.32012 0.699506 0
M  V30 7346 H 716.311 -4.15486 -0.70353 0
M  V30 7347 H 714.986 -3.03546 -1.12435 0
M  V30 7348 H 713.893 -3.56579 1.13147 0
M  V30 7349 H 715.226 -4.69739 1.46989 0
M  V30 7350 N 716.879 -0.700114 -1.41195 0
M  V30 7351 C 717.829 -0.0144098 -2.27995 0
M  V30 7352 C 718.813 0.748249 -1.42443 0
M  V30 7353 O 720.005 0.622995 -1.65674 0
M  V30 7354 C 717.134 0.917938 -3.308 0
M  V30 7355 C 716.22 0.151286 -4.2383 0
M  V30 7356 N 716.611 -0.85732 -4.98481 0
M  V30 7357 C 714.909 0.386108 -4.44326 0
M  V30 7358 C 715.61 -1.31663 -5.66604 0
M  V30 7359 N 714.586 -0.641689 -5.39799 0
M  V30 7360 H 718.388 -0.787662 -2.83149 0
M  V30 7361 H 715.902 -0.531344 -1.53462 0
M  V30 7362 H 717.899 1.42437 -3.91813 0
M  V30 7363 H 716.559 1.69074 -2.77208 0
M  V30 7364 H 717.57 -1.2377 -5.02893 0
M  V30 7365 H 714.247 1.13644 -4.01735 0
M  V30 7366 H 715.637 -2.15384 -6.36443 0
M  V30 7367 N 718.357 1.51182 -0.445186 0
M  V30 7368 C 719.605 2.01753 0.11841 0
M  V30 7369 C 719.926 1.33087 1.42523 0
M  V30 7370 O 719.196 0.467891 1.9023 0
M  V30 7371 H 717.776 0.745536 0.0467492 0
M  V30 7372 H 720.438 1.85765 -0.589688 0
M  V30 7373 H 719.534 3.10762 0.288665 0
M  V30 7374 N 719.835 0.176821 1.56605 0
M  V30 7375 C 721.083 -0.465793 1.96659 0
M  V30 7376 C 721.404 -1.63406 1.06412 0
M  V30 7377 O 720.674 -1.95457 0.131603 0
M  V30 7378 H 719.254 -0.175072 0.726195 0
M  V30 7379 H 721.916 0.25929 1.93168 0
M  V30 7380 H 721.012 -0.822138 3.01077 0
M  V30 7381 N 721.313 -1.57302 -0.09688 0
M  V30 7382 C 722.559 -1.86273 -0.801885 0
M  V30 7383 C 722.892 -0.765694 -1.78468 0
M  V30 7384 O 722.167 0.226495 -1.93177 0
M  V30 7385 C 722.45 -3.25876 -1.53221 0
M  V30 7386 C 722.303 -4.46205 -0.567529 0
M  V30 7387 C 723.622 -3.63352 -2.48321 0
M  V30 7388 H 720.741 -0.67752 -0.29006 0
M  V30 7389 H 723.383 -1.89887 -0.0655577 0
M  V30 7390 H 721.533 -3.22926 -2.15988 0
M  V30 7391 H 723.205 -4.6127 0.0529982 0
M  V30 7392 H 721.448 -4.33636 0.119233 0
M  V30 7393 H 722.119 -5.40608 -1.11564 0
M  V30 7394 H 724.595 -3.67234 -1.95648 0
M  V30 7395 H 723.471 -4.61968 -2.9644 0
M  V30 7396 H 723.732 -2.91941 -3.31998 0
M  V30 7397 N 722.791 0.367657 -1.53252 0
M  V30 7398 C 723.721 1.45632 -1.8252 0
M  V30 7399 C 724.702 1.55979 -0.678568 0
M  V30 7400 O 725.887 1.70581 -0.928217 0
M  V30 7401 C 723.017 2.82994 -2.01325 0
M  V30 7402 C 721.971 2.87473 -3.17086 0
M  V30 7403 C 721.297 4.2749 -3.21179 0
M  V30 7404 C 722.597 2.55182 -4.55719 0
M  V30 7405 H 724.291 1.21387 -2.73689 0
M  V30 7406 H 721.837 0.58251 -1.31692 0
M  V30 7407 H 723.79 3.59179 -2.20383 0
M  V30 7408 H 722.514 3.08622 -1.06864 0
M  V30 7409 H 721.173 2.13739 -2.97844 0
M  V30 7410 H 720.821 4.5019 -2.24361 0
M  V30 7411 H 720.521 4.31403 -3.98955 0
M  V30 7412 H 722.045 5.0555 -3.42419 0
M  V30 7413 H 723.459 3.21081 -4.74953 0
M  V30 7414 H 721.856 2.70414 -5.3572 0
M  V30 7415 H 722.926 1.5044 -4.60973 0
M  V30 7416 N 724.269 1.44576 0.627338 0
M  V30 7417 C 725.232 1.51372 1.72102 0
M  V30 7418 C 726.232 0.395329 1.55865 0
M  V30 7419 O 727.422 0.658094 1.61291 0
M  V30 7420 C 724.554 1.39129 3.11217 0
M  V30 7421 H 725.747 2.48798 1.6745 0
M  V30 7422 H 723.3 1.31724 0.841336 0
M  V30 7423 H 724.035 0.428114 3.21462 0
M  V30 7424 H 723.82 2.20229 3.24409 0
M  V30 7425 H 725.31 1.46874 3.90919 0
M  V30 7426 N 725.747 -0.868086 1.31537 0
M  V30 7427 C 727.163 -1.15414 1.10235 0
M  V30 7428 C 727.363 -2.01106 -0.125947 0
M  V30 7429 O 726.419 -2.38994 -0.814734 0
M  V30 7430 C 727.732 -1.84445 2.37488 0
M  V30 7431 C 729.28 -1.97139 2.43116 0
M  V30 7432 C 729.755 -2.69585 3.70254 0
M  V30 7433 N 731.246 -2.77119 3.71159 0
M  V30 7434 C 731.981 -3.33791 4.6623 0
M  V30 7435 N 731.477 -3.9138 5.71659 0
M  V30 7436 N 733.27 -3.31767 4.53747 0
M  V30 7437 H 725.421 -0.297109 2.10312 0
M  V30 7438 H 727.684 -0.194227 0.92789 0
M  V30 7439 H 727.39 -1.2893 3.27215 0
M  V30 7440 H 727.264 -2.84709 2.47428 0
M  V30 7441 H 729.651 -2.51818 1.53856 0
M  V30 7442 H 729.732 -0.95912 2.37138 0
M  V30 7443 H 729.376 -2.15572 4.59881 0
M  V30 7444 H 729.306 -3.71223 3.73499 0
M  V30 7445 H 731.797 -2.3625 2.94948 0
M  V30 7446 H 732.11 -4.3274 6.40278 0
M  V30 7447 H 730.455 -3.8975 5.7543 0
M  V30 7448 H 733.646 -2.86016 3.70557 0
M  V30 7449 H 733.819 -3.75636 5.28017 0
M  V30 7450 N 727.225 -1.14528 -1.08264 0
M  V30 7451 C 728.172 -0.833556 -2.15222 0
M  V30 7452 C 729.142 0.209539 -1.64773 0
M  V30 7453 O 730.327 0.0791388 -1.90636 0
M  V30 7454 C 727.467 -0.318799 -3.43624 0
M  V30 7455 C 726.58 -1.42237 -4.07913 0
M  V30 7456 C 725.715 -0.864704 -5.24115 0
M  V30 7457 C 724.754 -1.94585 -5.80347 0
M  V30 7458 N 723.891 -1.40525 -6.87893 0
M  V30 7459 H 728.731 -1.74965 -2.41228 0
M  V30 7460 H 726.268 -0.873169 -1.18381 0
M  V30 7461 H 728.226 -0.00213088 -4.172 0
M  V30 7462 H 726.856 0.560397 -3.17898 0
M  V30 7463 H 725.908 -1.8554 -3.32083 0
M  V30 7464 H 727.22 -2.23901 -4.45724 0
M  V30 7465 H 726.374 -0.500025 -6.04636 0
M  V30 7466 H 725.113 -0.0171219 -4.87697 0
M  V30 7467 H 724.118 -2.31946 -4.98479 0
M  V30 7468 H 725.343 -2.79704 -6.18823 0
M  V30 7469 H 723.289 -0.579873 -6.53432 0
M  V30 7470 H 723.206 -2.15825 -7.24538 0
M  V30 7471 H 724.474 -1.06852 -7.72142 0
M  V30 7472 N 728.703 1.26451 -0.940633 0
M  V30 7473 C 729.636 2.24771 -0.394094 0
M  V30 7474 C 730.614 1.54169 0.516781 0
M  V30 7475 O 731.798 1.82942 0.454352 0
M  V30 7476 C 728.925 3.3591 0.433807 0
M  V30 7477 C 727.971 4.24472 -0.415464 0
M  V30 7478 S 728.804 5.0293 -1.83907 0
M  V30 7479 C 729.96 6.17546 -1.01921 0
M  V30 7480 H 730.193 2.70782 -1.22737 0
M  V30 7481 H 727.726 1.35308 -0.743709 0
M  V30 7482 H 729.684 4.00387 0.905576 0
M  V30 7483 H 728.345 2.88512 1.24175 0
M  V30 7484 H 727.538 5.03525 0.218833 0
M  V30 7485 H 727.14 3.64857 -0.821897 0
M  V30 7486 H 729.432 6.76996 -0.261227 0
M  V30 7487 H 730.375 6.8528 -1.78318 0
M  V30 7488 H 730.783 5.6176 -0.555511 0
M  V30 7489 N 730.181 0.707592 1.40822 0
M  V30 7490 C 731.406 0.251626 2.05868 0
M  V30 7491 C 731.831 -1.09503 1.5294 0
M  V30 7492 O 731.189 -1.68806 0.661385 0
M  V30 7493 C 731.237 0.23287 3.59847 0
M  V30 7494 O 730.341 -0.788477 4.04792 0
M  V30 7495 H 729.682 0.119936 0.653078 0
M  V30 7496 H 732.212 0.96583 1.80369 0
M  V30 7497 H 732.222 0.0678204 4.07944 0
M  V30 7498 H 730.897 1.21565 3.97737 0
M  V30 7499 H 729.474 -0.591802 3.68174 0
M  V30 7500 N 731.66 -1.50943 0.453197 0
M  V30 7501 C 732.59 -2.31005 -0.34044 0
M  V30 7502 C 733.571 -1.37112 -1.00669 0
M  V30 7503 O 734.756 -1.66033 -1.0073 0
M  V30 7504 C 731.886 -3.16358 -1.433 0
M  V30 7505 C 730.84 -4.18658 -0.889363 0
M  V30 7506 C 730.166 -4.92633 -2.07887 0
M  V30 7507 C 731.466 -5.22227 0.0871142 0
M  V30 7508 H 733.16 -2.97601 0.327723 0
M  V30 7509 H 730.706 -1.43119 0.159054 0
M  V30 7510 H 732.659 -3.71155 -1.99555 0
M  V30 7511 H 731.383 -2.47613 -2.12968 0
M  V30 7512 H 730.042 -3.64936 -0.348915 0
M  V30 7513 H 729.69 -4.20376 -2.76211 0
M  V30 7514 H 729.39 -5.61819 -1.72143 0
M  V30 7515 H 730.914 -5.50258 -2.64666 0
M  V30 7516 H 732.328 -5.72001 -0.385656 0
M  V30 7517 H 730.725 -5.99032 0.357926 0
M  V30 7518 H 731.795 -4.74077 1.01879 0
M  V30 7519 N 733.138 -0.185124 -1.56509 0
M  V30 7520 C 734.386 0.455357 -1.96903 0
M  V30 7521 C 734.707 1.62839 -1.07277 0
M  V30 7522 O 733.977 1.95385 -0.141966 0
M  V30 7523 H 732.557 0.171218 -0.727113 0
M  V30 7524 H 735.219 -0.26953 -1.93027 0
M  V30 7525 H 734.315 0.80616 -3.01509 0
M  V30 7526 N 734.616 1.57351 0.0885366 0
M  V30 7527 C 735.864 1.86051 0.789262 0
M  V30 7528 C 736.185 0.774763 1.78948 0
M  V30 7529 O 735.455 -0.198324 1.94894 0
M  V30 7530 H 734.035 0.686508 0.294475 0
M  V30 7531 H 736.697 1.94779 0.0686055 0
M  V30 7532 H 735.793 2.83007 1.31581 0
M  V30 7533 N 736.094 -0.359525 1.53444 0
M  V30 7534 C 737.342 -1.09935 1.69584 0
M  V30 7535 C 737.663 -1.89656 0.453371 0
M  V30 7536 O 736.933 -1.8852 -0.53263 0
M  V30 7537 H 735.513 -0.408843 0.625185 0
M  V30 7538 H 738.175 -0.40467 1.90653 0
M  V30 7539 H 737.271 -1.78575 2.55964 0
M  V30 7540 N 737.572 -1.44907 -0.619662 0
M  V30 7541 C 738.988 -1.29046 -0.939107 0
M  V30 7542 C 739.188 -0.23462 -2.00129 0
M  V30 7543 O 738.244 0.37558 -2.49691 0
M  V30 7544 C 739.557 -2.66567 -1.39149 0
M  V30 7545 C 741.105 -2.74368 -1.50635 0
M  V30 7546 C 741.58 -4.12386 -1.99253 0
M  V30 7547 N 743.071 -4.1462 -2.06506 0
M  V30 7548 C 743.806 -5.18272 -2.4532 0
M  V30 7549 N 743.302 -6.32278 -2.83189 0
M  V30 7550 N 745.095 -5.05628 -2.45554 0
M  V30 7551 H 737.246 -2.12239 0.0826135 0
M  V30 7552 H 739.509 -0.947652 -0.0256829 0
M  V30 7553 H 739.215 -3.4496 -0.685254 0
M  V30 7554 H 739.089 -2.94224 -2.36034 0
M  V30 7555 H 741.476 -1.96287 -2.20353 0
M  V30 7556 H 741.557 -2.50439 -0.520963 0
M  V30 7557 H 741.201 -4.90947 -1.30127 0
M  V30 7558 H 741.131 -4.33699 -2.98684 0
M  V30 7559 H 743.622 -3.32343 -1.79878 0
M  V30 7560 H 743.935 -7.07172 -3.11652 0
M  V30 7561 H 742.28 -6.35699 -2.80913 0
M  V30 7562 H 745.471 -4.15613 -2.15367 0
M  V30 7563 H 745.644 -5.86529 -2.75478 0
M  V30 7564 N 739.05 0.861098 -1.31996 0
M  V30 7565 C 740.461 1.43065 -1.19955 0
M  V30 7566 C 740.812 1.95273 0.190489 0
M  V30 7567 O 739.937 1.87012 1.08882 0
M  V30 7568 C 740.532 2.60052 -2.1716 0
M  V30 7569 C 739.091 3.13026 -2.09026 0
M  V30 7570 C 738.238 1.85756 -2.05888 0
M  V30 7571 H 741.189 0.668834 -1.43918 0
M  V30 7572 H 741.21 3.37016 -1.76637 0
M  V30 7573 H 740.722 2.22024 -3.18319 0
M  V30 7574 H 738.823 3.55653 -1.11092 0
M  V30 7575 H 738.936 3.74707 -2.98549 0
M  V30 7576 H 737.3 2.05088 -1.51033 0
M  V30 7577 H 738.083 1.49954 -3.08818 0
M  V30 7578 N 740.528 1.15101 1.07655 0
M  V30 7579 C 741.758 0.946357 1.83651 0
M  V30 7580 C 742.166 -0.508641 1.82235 0
M  V30 7581 O 741.509 -1.36445 1.22997 0
M  V30 7582 C 741.571 1.37945 3.31981 0
M  V30 7583 C 741.235 2.85155 3.57122 0
M  V30 7584 C 742.232 3.83234 3.51323 0
M  V30 7585 C 739.917 3.2275 3.84887 0
M  V30 7586 C 741.911 5.16914 3.72932 0
M  V30 7587 C 739.598 4.56604 4.06148 0
M  V30 7588 C 740.596 5.53495 4.00165 0
M  V30 7589 O 740.284 6.84931 4.20861 0
M  V30 7590 H 740.016 0.336368 0.586372 0
M  V30 7591 H 742.57 1.53198 1.36819 0
M  V30 7592 H 740.8 0.737205 3.79608 0
M  V30 7593 H 742.489 1.14439 3.89434 0
M  V30 7594 H 743.255 3.55535 3.29878 0
M  V30 7595 H 739.134 2.47921 3.88659 0
M  V30 7596 H 742.678 5.92529 3.68178 0
M  V30 7597 H 738.575 4.84019 4.27078 0
M  V30 7598 H 739.343 6.91304 4.38226 0
M  V30 7599 N 742.006 -1.2595 0.947325 0
M  V30 7600 C 743.234 -1.97544 0.615127 0
M  V30 7601 C 743.649 -1.70484 -0.811221 0
M  V30 7602 O 743.006 -0.97662 -1.5417 0
M  V30 7603 C 743.057 -3.51236 0.855328 0
M  V30 7604 O 742.778 -3.77359 2.22558 0
M  V30 7605 C 744.279 -4.40066 0.534515 0
M  V30 7606 H 741.499 -0.629888 0.231263 0
M  V30 7607 H 744.043 -1.60308 1.26971 0
M  V30 7608 H 742.198 -3.8661 0.247266 0
M  V30 7609 H 742.612 -4.71857 2.29022 0
M  V30 7610 H 744.086 -5.46838 0.753168 0
M  V30 7611 H 744.563 -4.35982 -0.530701 0
M  V30 7612 H 745.169 -4.10245 1.12158 0
M  V30 7613 N 743.484 -0.715051 -1.40445 0
M  V30 7614 C 744.895 -0.326763 -1.83818 0
M  V30 7615 C 745.246 1.13851 -1.59789 0
M  V30 7616 O 744.371 1.87611 -1.07848 0
M  V30 7617 C 744.966 -0.586297 -3.33688 0
M  V30 7618 C 743.525 -0.251724 -3.75557 0
M  V30 7619 C 742.672 -0.858928 -2.63662 0
M  V30 7620 H 745.623 -0.914241 -1.2972 0
M  V30 7621 H 745.644 0.148636 -3.8021 0
M  V30 7622 H 745.156 -1.65281 -3.51146 0
M  V30 7623 H 743.257 0.809754 -3.63695 0
M  V30 7624 H 743.37 -0.720348 -4.73654 0
M  V30 7625 H 741.734 -0.287013 -2.53078 0
M  V30 7626 H 742.517 -1.9297 -2.83932 0
M  V30 7627 N 744.962 1.50701 -0.461195 0
M  V30 7628 C 746.187 2.07171 0.0974773 0
M  V30 7629 C 746.612 1.32391 1.3362 0
M  V30 7630 O 745.97 0.368676 1.77512 0
M  V30 7631 C 746.018 3.58651 0.374409 0
M  V30 7632 O 745.122 3.85816 1.4567 0
M  V30 7633 H 744.463 0.663944 -0.00862047 0
M  V30 7634 H 746.993 1.94021 -0.649394 0
M  V30 7635 H 747.003 4.03295 0.617843 0
M  V30 7636 H 745.678 4.12498 -0.530829 0
M  V30 7637 H 744.255 3.53018 1.20136 0
M  V30 7638 N 746.441 0.193421 1.56409 0
M  V30 7639 C 747.852 -0.319471 1.83946 0
M  V30 7640 C 748.203 -1.61505 1.11403 0
M  V30 7641 O 747.328 -2.13139 0.374289 0
M  V30 7642 C 747.923 -0.586411 3.33686 0
M  V30 7643 C 746.482 -1.04368 3.61641 0
M  V30 7644 C 745.629 -0.0913834 2.77149 0
M  V30 7645 H 748.58 0.417242 1.53117 0
M  V30 7646 H 748.601 -1.43591 3.52366 0
M  V30 7647 H 748.113 0.356701 3.86457 0
M  V30 7648 H 746.214 -2.00113 3.14302 0
M  V30 7649 H 746.327 -0.937549 4.69837 0
M  V30 7650 H 744.691 -0.592954 2.47702 0
M  V30 7651 H 745.474 0.846142 3.32709 0
M  V30 7652 N 747.919 -1.57396 -0.0801906 0
M  V30 7653 C 748.851 -1.9982 -1.12271 0
M  V30 7654 C 749.864 -0.902902 -1.35468 0
M  V30 7655 O 751.053 -1.18088 -1.33856 0
M  V30 7656 C 748.153 -2.31476 -2.47532 0
M  V30 7657 C 747.326 -3.62745 -2.44407 0
M  V30 7658 C 746.385 -3.82168 -3.6171 0
M  V30 7659 O 745.411 -4.53852 -3.43522 0
M  V30 7660 N 746.613 -3.2388 -4.81749 0
M  V30 7661 H 749.378 -2.89864 -0.761501 0
M  V30 7662 H 746.939 -1.5965 -0.268965 0
M  V30 7663 H 748.931 -2.4165 -3.24634 0
M  V30 7664 H 747.501 -1.47364 -2.75686 0
M  V30 7665 H 746.721 -3.63403 -1.52747 0
M  V30 7666 H 748.009 -4.48954 -2.39412 0
M  V30 7667 H 747.407 -2.6568 -4.9943 0
M  V30 7668 H 745.964 -3.39515 -5.56392 0
M  V30 7669 N 749.397 0.351382 -1.53633 0
M  V30 7670 C 750.643 1.09411 -1.70754 0
M  V30 7671 C 750.976 1.88544 -0.465293 0
M  V30 7672 O 750.251 1.86923 0.537608 0
M  V30 7673 C 750.534 2.04173 -2.96623 0
M  V30 7674 C 750.387 1.28556 -4.31038 0
M  V30 7675 C 751.706 3.04102 -3.18136 0
M  V30 7676 H 748.825 0.396373 -0.621335 0
M  V30 7677 H 751.467 0.373464 -1.86293 0
M  V30 7678 H 749.617 2.65625 -2.83506 0
M  V30 7679 H 751.289 0.697786 -4.55992 0
M  V30 7680 H 749.532 0.587498 -4.29803 0
M  V30 7681 H 750.203 1.97989 -5.15271 0
M  V30 7682 H 752.679 2.5276 -3.30532 0
M  V30 7683 H 751.555 3.67616 -4.07615 0
M  V30 7684 H 751.816 3.75053 -2.34068 0
M  V30 7685 N 750.875 1.45233 0.611969 0
M  V30 7686 C 752.123 1.48727 1.36838 0
M  V30 7687 C 752.444 0.128616 1.94575 0
M  V30 7688 O 751.714 -0.84149 1.76906 0
M  V30 7689 H 750.294 0.547695 0.507976 0
M  V30 7690 H 752.956 1.81156 0.718925 0
M  V30 7691 H 752.052 2.2236 2.19003 0
M  V30 7692 N 752.353 -0.854086 1.3245 0
M  V30 7693 C 753.581 -1.64074 1.26045 0
M  V30 7694 C 753.996 -1.8802 -0.171456 0
M  V30 7695 O 753.353 -1.4496 -1.10873 0
M  V30 7696 C 753.404 -2.9997 2.01743 0
M  V30 7697 O 753.125 -2.77084 3.39346 0
M  V30 7698 C 754.626 -3.94414 2.02368 0
M  V30 7699 H 751.846 -0.511015 0.434862 0
M  V30 7700 H 754.39 -1.06494 1.74583 0
M  V30 7701 H 752.545 -3.54193 1.56926 0
M  V30 7702 H 752.959 -3.63514 3.78098 0
M  V30 7703 H 754.433 -4.87032 2.59815 0
M  V30 7704 H 754.91 -4.27427 1.01009 0
M  V30 7705 H 755.516 -3.46127 2.47135 0
M  V30 7706 N 753.831 -1.1567 -1.07043 0
M  V30 7707 C 755.08 -0.928039 -1.79082 0
M  V30 7708 C 755.393 0.545968 -1.87826 0
M  V30 7709 O 756.599 0.892308 -2.56418 0
M  V30 7710 C 755.055 -1.61103 -3.21829 0
M  V30 7711 C 754.663 -3.12228 -3.21275 0
M  V30 7712 C 756.407 -1.46404 -3.98455 0
M  V30 7713 C 754.314 -3.733 -4.58695 0
M  V30 7714 H 753.244 -0.34357 -0.671175 0
M  V30 7715 H 755.895 -1.38718 -1.20123 0
M  V30 7716 H 754.277 -1.07958 -3.81 0
M  V30 7717 H 755.451 -3.72155 -2.71731 0
M  V30 7718 H 753.766 -3.26725 -2.58147 0
M  V30 7719 H 756.363 -1.8942 -5.00024 0
M  V30 7720 H 756.706 -0.41195 -4.14257 0
M  V30 7721 H 757.239 -1.96663 -3.45787 0
M  V30 7722 H 753.978 -4.78423 -4.48098 0
M  V30 7723 H 753.498 -3.18157 -5.08465 0
M  V30 7724 H 755.177 -3.7441 -5.27661 0
M  V30 7725 N 755.309 1.25446 -0.953992 0
M  V30 7726 C 756.72 1.75047 -0.649255 0
M  V30 7727 C 757.071 1.77527 0.835385 0
M  V30 7728 O 756.196 1.39569 1.65377 0
M  V30 7729 C 756.791 3.17889 -1.17183 0
M  V30 7730 C 755.35 3.65052 -0.917267 0
M  V30 7731 C 754.497 2.44124 -1.31525 0
M  V30 7732 H 757.448 1.11342 -1.13087 0
M  V30 7733 H 757.469 3.76768 -0.531616 0
M  V30 7734 H 756.981 3.16052 -2.25239 0
M  V30 7735 H 755.082 3.72305 0.148354 0
M  V30 7736 H 755.195 4.53222 -1.55328 0
M  V30 7737 H 753.559 2.43906 -0.733624 0
M  V30 7738 H 754.342 2.44979 -2.405 0
M  V30 7739 N 756.787 0.722489 1.40064 0
M  V30 7740 C 757.697 0.0755984 2.34478 0
M  V30 7741 C 758.713 -0.736046 1.57665 0
M  V30 7742 O 759.889 -0.667407 1.9002 0
M  V30 7743 C 756.954 -0.830075 3.36616 0
M  V30 7744 C 756.015 -0.00759884 4.29299 0
M  V30 7745 C 755.248 -0.870139 5.26559 0
M  V30 7746 O 755.471 -2.10921 5.2997 0
M  V30 7747 O 754.405 -0.305454 6.01124 0
M  V30 7748 H 758.231 0.854545 2.9143 0
M  V30 7749 H 755.816 0.483032 1.41376 0
M  V30 7750 H 757.698 -1.34864 3.99236 0
M  V30 7751 H 756.373 -1.58805 2.82069 0
M  V30 7752 H 755.28 0.556199 3.69942 0
M  V30 7753 H 756.613 0.712312 4.87018 0
M  V30 7754 N 758.265 -1.50454 0.469181 0
M  V30 7755 C 759.681 -1.59124 0.123226 0
M  V30 7756 C 759.881 -1.47749 -1.37013 0
M  V30 7757 O 758.937 -1.335 -2.14322 0
M  V30 7758 C 760.25 -2.93101 0.67172 0
M  V30 7759 C 761.798 -3.06491 0.634978 0
M  V30 7760 C 762.273 -4.43041 1.16098 0
M  V30 7761 N 763.764 -4.49448 1.12031 0
M  V30 7762 C 764.499 -5.53491 1.49784 0
M  V30 7763 N 763.995 -6.64798 1.94976 0
M  V30 7764 N 765.788 -5.44025 1.41399 0
M  V30 7765 H 757.939 -1.56091 1.44046 0
M  V30 7766 H 760.202 -0.737564 0.59557 0
M  V30 7767 H 759.908 -3.06895 1.7178 0
M  V30 7768 H 759.782 -3.77027 0.114222 0
M  V30 7769 H 762.169 -2.92346 -0.402187 0
M  V30 7770 H 762.25 -2.24328 1.22926 0
M  V30 7771 H 761.894 -4.57935 2.19677 0
M  V30 7772 H 761.824 -5.23794 0.542939 0
M  V30 7773 H 764.315 -3.69575 0.788828 0
M  V30 7774 H 764.628 -7.40246 2.21936 0
M  V30 7775 H 762.973 -6.65923 1.98927 0
M  V30 7776 H 766.164 -4.55955 1.05935 0
M  V30 7777 H 766.337 -6.2499 1.71147 0
M  V30 7778 N 759.743 -0.201713 -1.56304 0
M  V30 7779 C 761.154 0.309711 -1.84113 0
M  V30 7780 C 761.505 1.60912 -1.12258 0
M  V30 7781 O 760.63 2.12937 -0.385587 0
M  V30 7782 C 761.225 0.568706 -3.33993 0
M  V30 7783 C 759.784 1.02448 -3.6219 0
M  V30 7784 C 758.931 0.0766842 -2.77194 0
M  V30 7785 H 761.882 -0.425356 -1.52893 0
M  V30 7786 H 761.903 1.41721 -3.53122 0
M  V30 7787 H 761.415 -0.37719 -3.86263 0
M  V30 7788 H 759.516 1.98443 -3.15359 0
M  V30 7789 H 759.629 0.912619 -4.70328 0
M  V30 7790 H 757.993 0.579809 -2.48013 0
M  V30 7791 H 758.776 -0.863774 -3.32256 0
M  V30 7792 N 761.222 1.57436 0.0718424 0
M  V30 7793 C 762.47 1.86878 0.769484 0
M  V30 7794 C 762.791 0.7937 1.78116 0
M  V30 7795 O 762.061 -0.177642 1.95093 0
M  V30 7796 H 760.641 0.689593 0.287177 0
M  V30 7797 H 763.303 1.94841 0.0479427 0
M  V30 7798 H 762.399 2.84387 1.28572 0
M  V30 7799 N 762.7 -0.34323 1.53817 0
M  V30 7800 C 763.946 -1.08137 1.72273 0
M  V30 7801 C 764.301 -1.86311 0.480201 0
M  V30 7802 O 763.594 -1.84204 -0.527192 0
M  V30 7803 C 763.788 -2.05195 2.92626 0
M  V30 7804 C 763.617 -1.36561 4.28464 0
M  V30 7805 C 762.387 -1.11033 4.9295 0
M  V30 7806 C 764.585 -0.791663 5.0817 0
M  V30 7807 N 762.567 -0.389839 6.12661 0
M  V30 7808 C 763.938 -0.201742 6.19672 0
M  V30 7809 C 765.993 -0.692541 4.9306 0
M  V30 7810 C 764.696 0.477661 7.17712 0
M  V30 7811 C 766.722 -0.0268775 5.91394 0
M  V30 7812 C 766.084 0.552072 7.02233 0
M  V30 7813 H 762.183 -0.380078 0.683421 0
M  V30 7814 H 764.767 -0.364925 1.9125 0
M  V30 7815 H 762.938 -2.74131 2.75149 0
M  V30 7816 H 764.67 -2.7185 2.99799 0
M  V30 7817 H 761.425 -1.39752 4.52511 0
M  V30 7818 H 761.849 -0.0443076 6.76986 0
M  V30 7819 H 766.491 -1.12589 4.07534 0
M  V30 7820 H 764.209 0.922895 8.02813 0
M  V30 7821 H 767.795 0.0491921 5.81779 0
M  V30 7822 H 766.675 1.05899 7.77017 0
M  V30 7823 N 764.178 -1.45556 -0.604258 0
M  V30 7824 C 765.403 -1.53509 -1.39462 0
M  V30 7825 C 765.828 -0.169638 -1.87333 0
M  V30 7826 O 765.186 0.846346 -1.60333 0
M  V30 7827 C 765.234 -2.52654 -2.5729 0
M  V30 7828 O 764.338 -2.04666 -3.5803 0
M  V30 7829 H 763.679 -0.517355 -0.416221 0
M  V30 7830 H 766.209 -1.90939 -0.735072 0
M  V30 7831 H 766.219 -2.71568 -3.04491 0
M  V30 7832 H 764.894 -3.51823 -2.21797 0
M  V30 7833 H 763.471 -1.95643 -3.17456 0
M  V30 7834 N 765.656 0.84705 -1.32902 0
M  V30 7835 C 766.904 1.5986 -1.2365 0
M  V30 7836 C 767.225 1.93974 0.199789 0
M  V30 7837 O 766.495 1.60273 1.12648 0
M  V30 7838 H 765.075 0.592696 -0.454665 0
M  V30 7839 H 767.737 1.01278 -1.66519 0
M  V30 7840 H 766.833 2.53218 -1.82448 0
M  V30 7841 N 767.134 1.16236 1.06428 0
M  V30 7842 C 768.362 0.967184 1.82902 0
M  V30 7843 C 768.777 -0.484601 1.82475 0
M  V30 7844 O 768.134 -1.33631 1.24294 0
M  V30 7845 C 768.185 1.48534 3.29576 0
M  V30 7846 O 767.906 2.88026 3.3011 0
M  V30 7847 C 769.407 1.33298 4.22784 0
M  V30 7848 H 766.627 0.342923 0.576754 0
M  V30 7849 H 769.171 1.54232 1.34286 0
M  V30 7850 H 767.326 0.952513 3.75508 0
M  V30 7851 H 767.74 3.11721 4.21818 0
M  V30 7852 H 769.214 1.74385 5.23731 0
M  V30 7853 H 769.691 0.278356 4.38317 0
M  V30 7854 H 770.297 1.85535 3.82697 0
M  V30 7855 N 768.612 -1.24939 0.960631 0
M  V30 7856 C 770.023 -1.74701 0.658529 0
M  V30 7857 C 770.374 -1.77967 -0.825959 0
M  V30 7858 O 769.499 -1.40444 -1.64634 0
M  V30 7859 C 770.094 -3.17263 1.18867 0
M  V30 7860 C 768.653 -3.64561 0.936614 0
M  V30 7861 C 767.8 -2.43423 1.32817 0
M  V30 7862 H 770.751 -1.10741 1.13676 0
M  V30 7863 H 770.772 -3.76481 0.551589 0
M  V30 7864 H 770.284 -3.14854 2.26912 0
M  V30 7865 H 768.385 -3.72378 -0.128608 0
M  V30 7866 H 768.498 -4.52392 1.57729 0
M  V30 7867 H 766.862 -2.43513 0.746548 0
M  V30 7868 H 767.645 -2.437 2.41796 0
M  V30 7869 N 770.09 -0.729906 -1.39679 0
M  V30 7870 C 771.315 -0.284345 -2.05442 0
M  V30 7871 C 771.74 1.07056 -1.54663 0
M  V30 7872 O 771.098 1.67732 -0.688157 0
M  V30 7873 C 771.146 -0.290089 -3.59431 0
M  V30 7874 O 770.25 0.723978 -4.05995 0
M  V30 7875 H 769.591 -0.130311 -0.651088 0
M  V30 7876 H 772.121 -0.994403 -1.78809 0
M  V30 7877 H 772.131 -0.132712 -4.07784 0
M  V30 7878 H 770.806 -1.27877 -3.95753 0
M  V30 7879 H 769.383 0.533154 -3.69069 0
M  V30 7880 N 771.568 1.50203 -0.477153 0
M  V30 7881 C 772.979 1.86685 -0.0235041 0
M  V30 7882 C 773.33 1.39148 1.38319 0
M  V30 7883 O 772.455 0.759051 2.02651 0
M  V30 7884 C 773.05 3.38781 -0.0358767 0
M  V30 7885 C 771.609 3.74652 0.362327 0
M  V30 7886 C 770.756 2.7412 -0.41875 0
M  V30 7887 H 773.707 1.4286 -0.691133 0
M  V30 7888 H 773.728 3.72732 0.764924 0
M  V30 7889 H 773.24 3.73349 -1.05981 0
M  V30 7890 H 771.341 3.45686 1.39039 0
M  V30 7891 H 771.454 4.79063 0.059457 0
M  V30 7892 H 769.818 2.54376 0.128341 0
M  V30 7893 H 770.601 3.11532 -1.44231 0
M  V30 7894 N 773.046 0.209999 1.56195 0
M  V30 7895 C 773.978 -0.736967 2.17029 0
M  V30 7896 C 774.991 -1.16599 1.13616 0
M  V30 7897 O 776.18 -1.09914 1.40646 0
M  V30 7898 C 773.28 -2.00852 2.72969 0
M  V30 7899 C 772.453 -1.73691 4.01435 0
M  V30 7900 C 771.512 -2.85439 4.42053 0
M  V30 7901 O 770.538 -2.54405 5.09183 0
M  V30 7902 N 771.74 -4.14135 4.06783 0
M  V30 7903 H 774.505 -0.216656 2.98916 0
M  V30 7904 H 772.066 0.0285672 1.61875 0
M  V30 7905 H 774.058 -2.74778 2.97118 0
M  V30 7906 H 772.628 -2.43963 1.95451 0
M  V30 7907 H 771.848 -0.834676 3.85262 0
M  V30 7908 H 773.136 -1.52961 4.85263 0
M  V30 7909 H 772.534 -4.42196 3.52816 0
M  V30 7910 H 771.091 -4.84642 4.35851 0
M  V30 7911 N 774.524 -1.57472 -0.0634922 0
M  V30 7912 C 775.772 -1.87283 -0.759563 0
M  V30 7913 C 776.093 -0.803135 -1.77693 0
M  V30 7914 O 775.363 0.167293 -1.95184 0
M  V30 7915 H 773.943 -0.691106 -0.283516 0
M  V30 7916 H 776.605 -1.94864 -0.0376091 0
M  V30 7917 H 775.701 -2.85064 -1.27062 0
M  V30 7918 N 776.003 0.335068 -1.53997 0
M  V30 7919 C 776.966 1.39481 -1.81872 0
M  V30 7920 C 777.966 1.4524 -0.690078 0
M  V30 7921 O 779.156 1.45467 -0.958377 0
M  V30 7922 C 776.288 2.78329 -1.9684 0
M  V30 7923 H 777.481 1.16024 -2.76547 0
M  V30 7924 H 775.034 0.569926 -1.45539 0
M  V30 7925 H 775.769 3.07058 -1.04337 0
M  V30 7926 H 775.554 2.75544 -2.78958 0
M  V30 7927 H 777.044 3.55016 -2.19894 0
M  V30 7928 N 777.481 1.45874 0.596531 0
M  V30 7929 C 778.391 1.57947 1.73464 0
M  V30 7930 C 779.407 0.463461 1.67714 0
M  V30 7931 O 780.583 0.725685 1.87872 0
M  V30 7932 C 777.648 1.55348 3.09948 0
M  V30 7933 C 776.709 2.78074 3.27068 0
M  V30 7934 C 775.942 2.75589 4.57041 0
M  V30 7935 O 776.165 1.83545 5.40063 0
M  V30 7936 O 775.099 3.66945 4.77111 0
M  V30 7937 H 778.925 2.54169 1.66228 0
M  V30 7938 H 776.51 1.2851 0.76194 0
M  V30 7939 H 778.392 1.56545 3.91244 0
M  V30 7940 H 777.067 0.622811 3.17652 0
M  V30 7941 H 775.974 2.82435 2.45319 0
M  V30 7942 H 777.307 3.70303 3.24248 0
M  V30 7943 N 778.959 -0.83999 1.33349 0
M  V30 7944 C 779.892 -1.95415 1.17848 0
M  V30 7945 C 780.87 -1.6243 0.0742296 0
M  V30 7946 O 782.054 -1.87014 0.23626 0
M  V30 7947 C 779.181 -3.28938 0.807295 0
M  V30 7948 C 778.227 -3.80895 1.91888 0
M  V30 7949 S 779.06 -4.02709 3.52967 0
M  V30 7950 C 780.216 -5.39185 3.17853 0
M  V30 7951 H 780.449 -2.08265 2.12162 0
M  V30 7952 H 777.982 -0.993643 1.18178 0
M  V30 7953 H 779.94 -4.06093 0.599914 0
M  V30 7954 H 778.601 -3.13881 -0.117234 0
M  V30 7955 H 777.794 -4.77508 1.6125 0
M  V30 7956 H 777.396 -3.10633 2.08286 0
M  V30 7957 H 779.688 -6.21978 2.68608 0
M  V30 7958 H 780.631 -5.74795 4.13542 0
M  V30 7959 H 781.039 -5.03885 2.5448 0
M  V30 7960 N 780.437 -1.16799 -1.0581 0
M  V30 7961 C 781.853 -0.913935 -1.30841 0
M  V30 7962 C 782.053 0.430439 -1.96849 0
M  V30 7963 O 781.109 1.16885 -2.23817 0
M  V30 7964 C 782.422 -2.06662 -2.18429 0
M  V30 7965 C 783.97 -2.10294 -2.31831 0
M  V30 7966 C 784.445 -3.2493 -3.22776 0
M  V30 7967 N 785.936 -3.24678 -3.30361 0
M  V30 7968 C 786.671 -4.10021 -4.00837 0
M  V30 7969 N 786.167 -5.05461 -4.73795 0
M  V30 7970 N 787.96 -3.97991 -3.96937 0
M  V30 7971 H 780.111 -2.03343 -0.613613 0
M  V30 7972 H 782.374 -0.88754 -0.333133 0
M  V30 7973 H 782.08 -3.03791 -1.77211 0
M  V30 7974 H 781.954 -2.01233 -3.19038 0
M  V30 7975 H 784.341 -1.13754 -2.72294 0
M  V30 7976 H 784.422 -2.19786 -1.30873 0
M  V30 7977 H 784.066 -4.21731 -2.83028 0
M  V30 7978 H 783.996 -3.12674 -4.23725 0
M  V30 7979 H 786.487 -2.55573 -2.78372 0
M  V30 7980 H 786.8 -5.66989 -5.25113 0
M  V30 7981 H 785.145 -5.09436 -4.72758 0
M  V30 7982 H 788.336 -3.2273 -3.39062 0
M  V30 7983 H 788.509 -4.64722 -4.51594 0
M  V30 7984 N 781.915 1.24427 -0.967243 0
M  V30 7985 C 783.163 1.92107 -0.627638 0
M  V30 7986 C 783.484 1.75991 0.83978 0
M  V30 7987 O 782.754 1.13118 1.59941 0
M  V30 7988 H 781.334 0.710986 -0.229145 0
M  V30 7989 H 783.996 1.51331 -1.22821 0
M  V30 7990 H 783.092 2.99791 -0.867844 0
M  V30 7991 N 783.393 0.737304 1.3929 0
M  V30 7992 C 784.641 0.285691 2.00071 0
M  V30 7993 C 784.962 -1.13169 1.58801 0
M  V30 7994 O 784.232 -1.77104 0.837308 0
M  V30 7995 H 782.812 0.102638 0.739915 0
M  V30 7996 H 785.474 0.947775 1.70303 0
M  V30 7997 H 784.57 0.335906 3.10287 0
M  V30 7998 N 784.871 -1.49948 0.485112 0
M  V30 7999 C 786.287 -1.58984 0.140096 0
M  V30 8000 C 786.487 -1.49194 -1.35438 0
M  V30 8001 O 785.543 -1.35765 -2.12894 0
M  V30 8002 C 786.856 -2.92372 0.702769 0
M  V30 8003 C 788.404 -3.05801 0.66745 0
M  V30 8004 C 788.879 -4.41785 1.20791 0
M  V30 8005 N 790.37 -4.48234 1.16792 0
M  V30 8006 C 791.105 -5.51871 1.55646 0
M  V30 8007 N 790.601 -6.62692 2.02016 0
M  V30 8008 N 792.394 -5.42494 1.47161 0
M  V30 8009 H 784.545 -1.54555 1.45693 0
M  V30 8010 H 786.808 -0.731206 0.603359 0
M  V30 8011 H 786.514 -3.05056 1.75025 0
M  V30 8012 H 786.388 -3.76885 0.154205 0
M  V30 8013 H 788.775 -2.92757 -0.371157 0
M  V30 8014 H 788.856 -2.23011 1.25298 0
M  V30 8015 H 788.5 -4.55579 2.24522 0
M  V30 8016 H 788.43 -5.23188 0.598464 0
M  V30 8017 H 790.921 -3.68718 0.827982 0
M  V30 8018 H 791.234 -7.3785 2.29775 0
M  V30 8019 H 789.579 -6.63775 2.05979 0
M  V30 8020 H 792.77 -4.54806 1.10765 0
M  V30 8021 H 792.943 -6.2314 1.77766 0
M  V30 8022 N 786.349 -0.21828 -1.56081 0
M  V30 8023 C 787.574 0.422302 -2.03055 0
M  V30 8024 C 787.999 1.5279 -1.09713 0
M  V30 8025 O 787.357 1.81102 -0.0847187 0
M  V30 8026 C 787.405 0.934177 -3.48289 0
M  V30 8027 O 786.509 2.04574 -3.58083 0
M  V30 8028 H 785.85 0.0959764 -0.657027 0
M  V30 8029 H 788.38 -0.335958 -2.01823 0
M  V30 8030 H 788.39 1.24484 -3.88546 0
M  V30 8031 H 787.065 0.124963 -4.15712 0
M  V30 8032 H 785.642 1.74196 -3.29712 0
M  V30 8033 N 787.827 1.57504 0.0551401 0
M  V30 8034 C 789.238 1.76626 0.604979 0
M  V30 8035 C 789.589 0.845978 1.77024 0
M  V30 8036 O 788.714 0.0341936 2.16373 0
M  V30 8037 C 789.309 3.203 1.10425 0
M  V30 8038 C 787.868 3.4071 1.59981 0
M  V30 8039 C 787.015 2.72258 0.526414 0
M  V30 8040 H 789.966 1.57775 -0.171072 0
M  V30 8041 H 789.987 3.25377 1.97256 0
M  V30 8042 H 789.499 3.87255 0.255939 0
M  V30 8043 H 787.6 2.78892 2.47083 0
M  V30 8044 H 787.713 4.49227 1.66528 0
M  V30 8045 H 786.077 2.35283 0.97539 0
M  V30 8046 H 786.86 3.41879 -0.311991 0
M  V30 8047 N 789.305 -0.326896 1.54172 0
M  V30 8048 C 790.721 -0.671034 1.44808 0
M  V30 8049 C 790.921 -1.91781 0.618258 0
M  V30 8050 O 789.977 -2.52235 0.115751 0
M  V30 8051 C 791.29 -0.848147 2.88491 0
M  V30 8052 C 792.838 -0.945702 2.98371 0
M  V30 8053 C 793.313 -1.15501 4.43197 0
M  V30 8054 N 794.804 -1.22183 4.46795 0
M  V30 8055 C 795.539 -1.4016 5.56006 0
M  V30 8056 N 795.035 -1.55202 6.75192 0
M  V30 8057 N 796.828 -1.42841 5.43648 0
M  V30 8058 H 788.979 0.49262 2.06608 0
M  V30 8059 H 791.242 0.158574 0.934643 0
M  V30 8060 H 790.948 -0.00329969 3.517 0
M  V30 8061 H 790.822 -1.74497 3.34411 0
M  V30 8062 H 793.209 -1.78106 2.35292 0
M  V30 8063 H 793.29 -0.0254215 2.55787 0
M  V30 8064 H 792.934 -0.324521 5.06862 0
M  V30 8065 H 792.864 -2.08911 4.83388 0
M  V30 8066 H 795.355 -1.12016 3.60917 0
M  V30 8067 H 795.668 -1.68601 7.54184 0
M  V30 8068 H 794.013 -1.52306 6.78106 0
M  V30 8069 H 797.204 -1.30683 4.49488 0
M  V30 8070 H 797.377 -1.56509 6.28816 0
M  V30 8071 N 790.784 -1.46188 -0.588786 0
M  V30 8072 C 792.195 -1.45421 -1.17088 0
M  V30 8073 C 792.546 -0.191801 -1.9526 0
M  V30 8074 O 791.671 0.705497 -2.04577 0
M  V30 8075 C 792.266 -2.63467 -2.13004 0
M  V30 8076 C 790.825 -2.6576 -2.6655 0
M  V30 8077 C 789.972 -2.38002 -1.42304 0
M  V30 8078 H 792.923 -1.54156 -0.377052 0
M  V30 8079 H 792.944 -2.38638 -2.96365 0
M  V30 8080 H 792.456 -3.55331 -1.56081 0
M  V30 8081 H 790.557 -1.77952 -3.27359 0
M  V30 8082 H 790.67 -3.65545 -3.09699 0
M  V30 8083 H 789.034 -1.87936 -1.71907 0
M  V30 8084 H 789.817 -3.32035 -0.872209 0
M  V30 8085 N 792.262 0.832906 -1.33792 0
M  V30 8086 C 793.51 1.58539 -1.25338 0
M  V30 8087 C 793.831 1.94175 0.179204 0
M  V30 8088 O 793.101 1.61458 1.10941 0
M  V30 8089 H 791.681 0.58784 -0.460926 0
M  V30 8090 H 794.343 0.995064 -1.67584 0
M  V30 8091 H 793.439 2.51268 -1.85123 0
M  V30 8092 N 793.74 1.17359 1.05189 0
M  V30 8093 C 794.965 0.98709 1.82404 0
M  V30 8094 C 795.39 -0.459848 1.82392 0
M  V30 8095 O 794.748 -1.32924 1.23292 0
M  V30 8096 C 794.796 1.53276 3.26403 0
M  V30 8097 O 793.9 0.746541 4.05587 0
M  V30 8098 H 793.241 0.35047 0.563974 0
M  V30 8099 H 795.771 1.55856 1.32552 0
M  V30 8100 H 795.781 1.55504 3.77203 0
M  V30 8101 H 794.456 2.58603 3.25726 0
M  V30 8102 H 793.033 0.795671 3.64312 0
M  V30 8103 N 795.218 -1.23913 0.973828 0
M  V30 8104 C 796.443 -1.96735 0.656511 0
M  V30 8105 C 796.868 -1.71682 -0.768571 0
M  V30 8106 O 796.226 -0.984267 -1.52256 0
M  V30 8107 C 796.274 -3.48004 0.944735 0
M  V30 8108 O 795.378 -4.12387 0.0333357 0
M  V30 8109 H 794.719 -0.616119 0.247575 0
M  V30 8110 H 797.249 -1.57525 1.30564 0
M  V30 8111 H 797.259 -3.98424 0.87876 0
M  V30 8112 H 795.934 -3.65567 1.98328 0
M  V30 8113 H 794.511 -3.72585 0.153157 0
M  V30 8114 N 796.696 -0.74468 -1.38897 0
M  V30 8115 C 797.659 -0.11945 -2.28889 0
M  V30 8116 C 798.659 0.656942 -1.46768 0
M  V30 8117 O 799.849 0.484525 -1.67326 0
M  V30 8118 C 796.981 0.839635 -3.30398 0
M  V30 8119 H 798.174 -0.912414 -2.85683 0
M  V30 8120 H 795.727 -0.511119 -1.47707 0
M  V30 8121 H 796.462 1.6586 -2.78677 0
M  V30 8122 H 796.247 0.285432 -3.9106 0
M  V30 8123 H 797.737 1.27337 -3.97712 0
M  V30 8124 N 798.174 1.49689 -0.493057 0
M  V30 8125 C 799.585 1.8665 -0.0433032 0
M  V30 8126 C 799.936 1.40607 1.36836 0
M  V30 8127 O 799.061 0.780503 2.01834 0
M  V30 8128 C 799.656 3.38724 -0.0718069 0
M  V30 8129 C 798.215 3.75015 0.32257 0
M  V30 8130 C 797.362 2.7366 -0.4478 0
M  V30 8131 H 800.313 1.42119 -0.706246 0
M  V30 8132 H 800.334 3.73522 0.725347 0
M  V30 8133 H 799.846 3.72204 -1.09935 0
M  V30 8134 H 797.947 3.47142 1.35364 0
M  V30 8135 H 798.06 4.79099 0.00864259 0
M  V30 8136 H 796.424 2.54498 0.101354 0
M  V30 8137 H 797.207 3.09985 -1.47527 0
M  V30 8138 N 799.652 0.226554 1.55963 0
M  V30 8139 C 800.562 -0.692725 2.24139 0
M  V30 8140 C 801.578 -1.20971 1.25068 0
M  V30 8141 O 802.754 -1.25027 1.57893 0
M  V30 8142 C 799.819 -1.88183 2.91184 0
M  V30 8143 C 798.88 -1.40633 4.05612 0
M  V30 8144 C 798.113 -2.53875 4.6945 0
M  V30 8145 O 798.336 -3.72129 4.32292 0
M  V30 8146 O 797.27 -2.24792 5.58348 0
M  V30 8147 H 801.096 -0.141921 3.03368 0
M  V30 8148 H 798.681 -0.0041049 1.49399 0
M  V30 8149 H 800.563 -2.57617 3.33484 0
M  V30 8150 H 799.238 -2.42064 2.14911 0
M  V30 8151 H 798.145 -0.67986 3.67871 0
M  V30 8152 H 799.478 -0.913838 4.83642 0
M  V30 8153 N 801.13 -1.57531 -0.0467866 0
M  V30 8154 C 802.08 -2.01845 -1.06031 0
M  V30 8155 C 803.064 -0.904662 -1.33059 0
M  V30 8156 O 804.256 -1.16858 -1.32941 0
M  V30 8157 C 801.385 -2.48673 -2.36679 0
M  V30 8158 C 800.471 -3.66837 -2.12818 0
M  V30 8159 N 800.862 -4.80172 -1.5896 0
M  V30 8160 C 799.16 -3.73869 -2.43183 0
M  V30 8161 C 799.861 -5.61895 -1.50494 0
M  V30 8162 N 798.837 -5.0648 -1.97431 0
M  V30 8163 H 802.639 -2.869 -0.637623 0
M  V30 8164 H 800.153 -1.6041 -0.253427 0
M  V30 8165 H 802.15 -2.78671 -3.10077 0
M  V30 8166 H 800.81 -1.65016 -2.79642 0
M  V30 8167 H 801.821 -5.01967 -1.27474 0
M  V30 8168 H 798.498 -3.00977 -2.89342 0
M  V30 8169 H 799.888 -6.62918 -1.09494 0
M  V30 8170 N 802.608 0.318715 -1.54344 0
M  V30 8171 C 803.833 1.07987 -1.77069 0
M  V30 8172 C 804.258 1.80766 -0.520117 0
M  V30 8173 O 803.616 1.73424 0.528566 0
M  V30 8174 C 803.664 2.04987 -2.96669 0
M  V30 8175 O 802.768 3.12974 -2.68554 0
M  V30 8176 H 802.109 0.311109 -0.586606 0
M  V30 8177 H 804.639 0.361533 -2.0138 0
M  V30 8178 H 804.649 2.47771 -3.2415 0
M  V30 8179 H 803.324 1.51417 -3.87357 0
M  V30 8180 H 801.901 2.74831 -2.52037 0
M  V30 8181 N 804.086 1.46499 0.581025 0
M  V30 8182 C 805.497 1.4604 1.16315 0
M  V30 8183 C 805.848 0.202154 1.95156 0
M  V30 8184 O 804.973 -0.694638 2.04948 0
M  V30 8185 C 805.568 2.64593 2.11604 0
M  V30 8186 C 804.127 2.6717 2.65136 0
M  V30 8187 C 803.274 2.38753 1.4104 0
M  V30 8188 H 806.225 1.54354 0.368871 0
M  V30 8189 H 806.246 2.40207 2.95095 0
M  V30 8190 H 805.758 3.56154 1.54194 0
M  V30 8191 H 803.859 1.79685 3.26411 0
M  V30 8192 H 803.972 3.67182 3.07757 0
M  V30 8193 H 802.336 1.88845 1.70908 0
M  V30 8194 H 803.119 3.32493 0.854588 0
M  V30 8195 N 805.565 -0.825799 1.34232 0
M  V30 8196 C 806.981 -1.11848 1.13851 0
M  V30 8197 C 807.181 -2.01405 -0.0619031 0
M  V30 8198 O 806.237 -2.41465 -0.738287 0
M  V30 8199 C 807.55 -1.76797 2.43235 0
M  V30 8200 C 809.098 -1.89304 2.49265 0
M  V30 8201 C 809.573 -2.57669 3.78643 0
M  V30 8202 N 811.064 -2.65171 3.79788 0
M  V30 8203 C 811.799 -3.1879 4.76614 0
M  V30 8204 N 811.295 -3.72995 5.83821 0
M  V30 8205 N 813.088 -3.17164 4.64073 0
M  V30 8206 H 805.239 -0.230049 2.11151 0
M  V30 8207 H 807.502 -0.164609 0.9336 0
M  V30 8208 H 807.208 -1.18455 3.31152 0
M  V30 8209 H 807.082 -2.76693 2.56361 0
M  V30 8210 H 809.469 -2.46796 1.6179 0
M  V30 8211 H 809.55 -0.883191 2.4007 0
M  V30 8212 H 809.194 -2.00833 4.66507 0
M  V30 8213 H 809.124 -3.59152 3.8512 0
M  V30 8214 H 811.615 -2.26746 3.02315 0
M  V30 8215 H 811.928 -4.12151 6.53721 0
M  V30 8216 H 810.273 -3.71246 5.87538 0
M  V30 8217 H 813.464 -2.74082 3.79469 0
M  V30 8218 H 813.637 -3.58647 5.397 0
M  V30 8219 N 807.043 -1.17915 -1.04565 0
M  V30 8220 C 808.271 -0.99616 -1.8134 0
M  V30 8221 C 808.686 0.455509 -1.83223 0
M  V30 8222 O 808.043 1.31636 -1.26405 0
M  V30 8223 C 808.094 -1.53758 -3.27171 0
M  V30 8224 O 807.815 -2.93241 -3.25486 0
M  V30 8225 C 809.316 -1.40007 -4.2061 0
M  V30 8226 H 806.536 -0.352055 -0.571225 0
M  V30 8227 H 809.08 -1.56349 -1.31815 0
M  V30 8228 H 807.235 -1.01213 -3.73945 0
M  V30 8229 H 807.649 -3.18392 -4.16805 0
M  V30 8230 H 809.123 -1.82695 -5.2089 0
M  V30 8231 H 809.6 -0.348054 -4.37819 0
M  V30 8232 H 810.206 -1.916 -3.79697 0
M  V30 8233 N 808.521 1.23394 -0.980386 0
M  V30 8234 C 809.746 1.96384 -0.666935 0
M  V30 8235 C 810.171 1.72087 0.759456 0
M  V30 8236 O 809.529 0.992328 1.51732 0
M  V30 8237 C 809.577 3.47499 -0.963177 0
M  V30 8238 O 808.681 4.12363 -0.0552051 0
M  V30 8239 H 808.022 0.614797 -0.250839 0
M  V30 8240 H 810.552 1.56831 -1.31398 0
M  V30 8241 H 810.562 3.97953 -0.899877 0
M  V30 8242 H 809.237 3.6451 -2.00264 0
M  V30 8243 H 807.814 3.72499 -0.172914 0
M  V30 8244 N 809.999 0.752036 1.385 0
M  V30 8245 C 811.247 0.306895 1.99756 0
M  V30 8246 C 811.568 -1.11478 1.59992 0
M  V30 8247 O 810.838 -1.76206 0.856045 0
M  V30 8248 H 809.418 0.11048 0.738785 0
M  V30 8249 H 812.08 0.965785 1.69289 0
M  V30 8250 H 811.176 0.368797 3.09913 0
M  V30 8251 N 811.477 -1.49425 0.500989 0
M  V30 8252 C 812.407 -2.31971 -0.266775 0
M  V30 8253 C 813.388 -1.40245 -0.962563 0
M  V30 8254 O 814.573 -1.69154 -0.953968 0
M  V30 8255 C 811.703 -3.20757 -1.33163 0
M  V30 8256 C 810.657 -4.21275 -0.75572 0
M  V30 8257 C 809.983 -4.98997 -1.92109 0
M  V30 8258 C 811.283 -5.21686 0.253213 0
M  V30 8259 H 812.977 -2.96408 0.422237 0
M  V30 8260 H 810.523 -1.4254 0.204505 0
M  V30 8261 H 812.476 -3.77315 -1.87646 0
M  V30 8262 H 811.2 -2.54263 -2.04983 0
M  V30 8263 H 809.859 -3.65861 -0.232637 0
M  V30 8264 H 809.507 -4.28951 -2.62698 0
M  V30 8265 H 809.207 -5.67011 -1.54182 0
M  V30 8266 H 810.731 -5.584 -2.47026 0
M  V30 8267 H 812.145 -5.72939 -0.203483 0
M  V30 8268 H 810.542 -5.9759 0.548322 0
M  V30 8269 H 811.612 -4.70596 1.16909 0
M  V30 8270 N 812.955 -0.234822 -1.55841 0
M  V30 8271 C 814.203 0.392483 -1.98252 0
M  V30 8272 C 814.524 1.59344 -1.12404 0
M  V30 8273 O 813.794 1.94834 -0.204055 0
M  V30 8274 H 812.374 0.147999 -0.732192 0
M  V30 8275 H 815.036 -0.330804 -1.92072 0
M  V30 8276 H 814.132 0.709829 -3.03921 0
M  V30 8277 N 814.433 1.57553 0.0384317 0
M  V30 8278 C 815.673 1.90687 0.736069 0
M  V30 8279 C 816.037 0.832381 1.73019 0
M  V30 8280 O 817.238 1.04777 2.47538 0
M  V30 8281 C 815.509 3.28994 1.39635 0
M  V30 8282 S 817.068 3.83944 2.12444 0
M  V30 8283 H 813.886 0.667799 0.244059 0
M  V30 8284 H 816.488 1.95498 -0.00901643 0
M  V30 8285 H 815.192 4.05067 0.659465 0
M  V30 8286 H 814.723 3.27463 2.18018 0
M  V30 8287 H 816.738 3.61916 3.39457 0
M  V30 8288 N 815.911 -0.310526 1.54511 0
M  V30 8289 C 817.327 -0.655637 1.45511 0
M  V30 8290 C 817.527 -1.91114 0.638564 0
M  V30 8291 O 816.583 -2.52098 0.142497 0
M  V30 8292 C 817.896 -0.817501 2.89374 0
M  V30 8293 C 819.444 -0.914003 2.99358 0
M  V30 8294 C 819.919 -1.10794 4.44397 0
M  V30 8295 N 821.41 -1.17437 4.48066 0
M  V30 8296 C 822.145 -1.34255 5.57461 0
M  V30 8297 N 821.641 -1.48032 6.768 0
M  V30 8298 N 823.434 -1.37067 5.45132 0
M  V30 8299 H 815.585 0.514506 2.06074 0
M  V30 8300 H 817.848 0.168478 0.932909 0
M  V30 8301 H 817.554 0.034003 3.51684 0
M  V30 8302 H 817.428 -1.7094 3.36243 0
M  V30 8303 H 819.815 -1.756 2.37168 0
M  V30 8304 H 819.896 0.00170958 2.558 0
M  V30 8305 H 819.54 -0.270743 5.07178 0
M  V30 8306 H 819.47 -2.03773 4.85576 0
M  V30 8307 H 821.961 -1.08181 3.62084 0
M  V30 8308 H 822.274 -1.60593 7.5593 0
M  V30 8309 H 820.619 -1.45105 6.79683 0
M  V30 8310 H 823.81 -1.25909 4.50849 0
M  V30 8311 H 823.983 -1.49831 6.3044 0
M  V30 8312 N 817.389 -1.46805 -0.573248 0
M  V30 8313 C 818.319 -1.60951 -1.69165 0
M  V30 8314 C 819.3 -0.45948 -1.63777 0
M  V30 8315 O 820.485 -0.68688 -1.81647 0
M  V30 8316 C 817.615 -1.60844 -3.07809 0
M  V30 8317 C 816.569 -2.74913 -3.28035 0
M  V30 8318 C 815.895 -2.59871 -4.67302 0
M  V30 8319 C 817.195 -4.16654 -3.14955 0
M  V30 8320 H 818.889 -2.54574 -1.57582 0
M  V30 8321 H 816.435 -1.22516 -0.756686 0
M  V30 8322 H 818.388 -1.69334 -3.85881 0
M  V30 8323 H 817.112 -0.637714 -3.20314 0
M  V30 8324 H 815.771 -2.65908 -2.52366 0
M  V30 8325 H 815.419 -1.60861 -4.76585 0
M  V30 8326 H 815.119 -3.36386 -4.81786 0
M  V30 8327 H 816.643 -2.70265 -5.4753 0
M  V30 8328 H 818.057 -4.26721 -3.82861 0
M  V30 8329 H 816.454 -4.93831 -3.40956 0
M  V30 8330 H 817.524 -4.36146 -2.11908 0
M  V30 8331 N 818.867 0.818669 -1.34668 0
M  V30 8332 C 819.817 1.91882 -1.23147 0
M  V30 8333 C 820.801 1.60378 -0.129509 0
M  V30 8334 O 821.993 1.73309 -0.359581 0
M  V30 8335 C 819.122 3.28612 -0.993436 0
M  V30 8336 C 818.208 3.66221 -2.13876 0
M  V30 8337 N 818.599 3.75361 -3.39024 0
M  V30 8338 C 816.897 3.96098 -2.04994 0
M  V30 8339 C 817.598 4.0836 -4.14266 0
M  V30 8340 N 816.574 4.21806 -3.429 0
M  V30 8341 H 820.376 1.97133 -2.17981 0
M  V30 8342 H 817.89 1.01257 -1.26967 0
M  V30 8343 H 819.887 4.0725 -0.891797 0
M  V30 8344 H 818.547 3.24655 -0.053824 0
M  V30 8345 H 819.558 3.58747 -3.73525 0
M  V30 8346 H 816.235 4.00236 -1.18816 0
M  V30 8347 H 817.625 4.226 -5.22359 0
M  V30 8348 N 820.346 1.18468 1.03938 0
M  V30 8349 C 821.571 1.00638 1.81347 0
M  V30 8350 C 821.996 -0.440477 1.8287 0
M  V30 8351 O 821.354 -1.31609 1.24695 0
M  V30 8352 C 821.402 1.5673 3.24759 0
M  V30 8353 O 820.506 0.789517 4.04772 0
M  V30 8354 H 819.847 0.356432 0.560225 0
M  V30 8355 H 822.377 1.57253 1.30891 0
M  V30 8356 H 822.387 1.59496 3.75533 0
M  V30 8357 H 821.062 2.62043 3.22965 0
M  V30 8358 H 819.639 0.834267 3.63448 0
M  V30 8359 N 821.824 -1.22873 0.986916 0
M  V30 8360 C 822.787 -2.2281 0.537442 0
M  V30 8361 C 823.787 -1.56331 -0.37646 0
M  V30 8362 O 824.977 -1.73376 -0.169247 0
M  V30 8363 C 822.109 -3.40195 -0.219082 0
M  V30 8364 H 823.302 -2.64089 1.42116 0
M  V30 8365 H 820.855 -1.35819 0.773488 0
M  V30 8366 H 821.59 -3.04381 -1.11905 0
M  V30 8367 H 821.375 -3.89657 0.437026 0
M  V30 8368 H 822.865 -4.14326 -0.521926 0
M  V30 8369 N 823.302 -0.75937 -1.38099 0
M  V30 8370 C 824.713 -0.385078 -1.82686 0
M  V30 8371 C 825.064 1.0871 -1.6333 0
M  V30 8372 O 824.189 1.84084 -1.13762 0
M  V30 8373 C 824.784 -0.692161 -3.31654 0
M  V30 8374 C 823.343 -0.371077 -3.74566 0
M  V30 8375 C 822.49 -0.942375 -2.60796 0
M  V30 8376 H 825.441 -0.955048 -1.26746 0
M  V30 8377 H 825.462 0.0276001 -3.8049 0
M  V30 8378 H 824.974 -1.76369 -3.4571 0
M  V30 8379 H 823.075 0.693637 -3.66087 0
M  V30 8380 H 823.188 -0.870672 -4.71122 0
M  V30 8381 H 821.552 -0.367383 -2.52036 0
M  V30 8382 H 822.335 -2.01905 -2.77649 0
M  V30 8383 N 824.78 1.49157 -0.508906 0
M  V30 8384 C 825.728 2.30922 0.278906 0
M  V30 8385 C 826.722 1.39889 0.955382 0
M  V30 8386 O 827.928 1.56901 0.882169 0
M  V30 8387 H 824.303 0.744087 0.108805 0
M  V30 8388 H 826.274 2.95277 -0.430583 0
M  V30 8389 C 825.023 3.21432 1.32576 0
M  V30 8390 H 824.346 3.91413 0.814634 0
M  V30 8391 H 825.786 3.81568 1.84882 0
M  V30 8392 C 824.245 2.41583 2.34817 0
M  V30 8393 O 824.775 2.1256 3.40854 0
M  V30 8394 N 822.981 2.03462 2.07489 0
M  V30 8395 H 822.528 2.27265 1.21278 0
M  V30 8396 H 822.486 1.50345 2.76123 0
M  V30 8397 N 826.258 0.243083 1.55714 0
M  V30 8398 C 827.188 -0.652336 2.24203 0
M  V30 8399 C 828.169 -1.1843 1.221 0
M  V30 8400 O 829.354 -1.22435 1.50743 0
M  V30 8401 C 826.484 -1.85111 2.93856 0
M  V30 8402 C 825.438 -1.45208 4.02615 0
M  V30 8403 C 824.764 -2.73137 4.59674 0
M  V30 8404 C 826.064 -0.625988 5.18535 0
M  V30 8405 H 827.758 -0.0812504 2.9929 0
M  V30 8406 H 825.304 -0.0376388 1.43951 0
M  V30 8407 H 827.257 -2.48314 3.40468 0
M  V30 8408 H 825.981 -2.44751 2.16251 0
M  V30 8409 H 824.64 -0.843406 3.56766 0
M  V30 8410 H 824.288 -3.30967 3.78774 0
M  V30 8411 H 823.988 -2.47163 5.33089 0
M  V30 8412 H 825.512 -3.37245 5.09017 0
M  V30 8413 H 826.926 -1.16223 5.61396 0
M  V30 8414 H 825.323 -0.462465 5.98315 0
M  V30 8415 H 826.393 0.362652 4.83542 0
M  V30 8416 N 827.736 -1.57571 -0.0300757 0
M  V30 8417 C 828.961 -1.93879 -0.736601 0
M  V30 8418 C 829.386 -0.842998 -1.68152 0
M  V30 8419 O 828.744 0.20135 -1.80178 0
M  V30 8420 C 828.792 -3.29247 -1.47066 0
M  V30 8421 O 827.896 -3.21426 -2.58378 0
M  V30 8422 H 827.237 -0.633735 -0.198181 0
M  V30 8423 H 829.767 -2.04595 0.0141485 0
M  V30 8424 H 829.777 -3.64113 -1.84081 0
M  V30 8425 H 828.452 -4.08565 -0.77764 0
M  V30 8426 H 827.029 -2.98189 -2.23914 0
M  V30 8427 N 829.214 0.302327 -1.54673 0
M  V30 8428 C 830.491 1.05721 -1.64567 0
M  V30 8429 C 830.871 2.0526 -0.493108 0
M  V30 8430 O 830.219 2.22729 0.510315 0
M  V30 8431 C 830.429 1.74025 -3.02517 0
M  V30 8432 C 831.777 2.26271 -3.59286 0
M  V30 8433 O 832.801 1.8406 -3.0496 0
M  V30 8434 O 831.66 3.0361 -4.54404 0
M  V30 8435 H 828.754 0.488577 -0.667249 0
M  V30 8436 H 831.3 0.300521 -1.67018 0
M  V30 8437 H 830.072 1.0174 -3.77842 0
M  V30 8438 H 829.695 2.56454 -3.03838 0
M  V30 8439 N 830.692 1.47107 0.565454 0
M  V30 8440 C 831.622 1.61846 1.68309 0
M  V30 8441 C 832.603 0.468159 1.63531 0
M  V30 8442 O 833.788 0.696504 1.8128 0
M  V30 8443 C 830.918 1.62474 3.06952 0
M  V30 8444 C 829.872 2.76649 3.26572 0
M  V30 8445 C 829.198 2.62345 4.65917 0
M  V30 8446 C 830.498 4.18319 3.12741 0
M  V30 8447 H 832.192 2.55407 1.5623 0
M  V30 8448 H 829.738 1.22916 0.750179 0
M  V30 8449 H 831.691 1.71378 3.84977 0
M  V30 8450 H 830.415 0.654692 3.19971 0
M  V30 8451 H 829.074 2.67242 2.50952 0
M  V30 8452 H 828.722 1.63386 4.75725 0
M  V30 8453 H 828.422 3.38936 4.79996 0
M  V30 8454 H 829.946 2.73165 5.46089 0
M  V30 8455 H 831.36 4.28745 3.80593 0
M  V30 8456 H 829.757 4.95632 3.38333 0
M  V30 8457 H 830.827 4.37263 2.09592 0
M  V30 8458 N 832.17 -0.811516 1.35101 0
M  V30 8459 C 833.12 -1.91227 1.24163 0
M  V30 8460 C 834.104 -1.60307 0.138012 0
M  V30 8461 O 835.296 -1.73116 0.368767 0
M  V30 8462 C 832.425 -3.2808 1.01085 0
M  V30 8463 C 831.511 -3.65082 2.15815 0
M  V30 8464 N 831.902 -3.73558 3.4101 0
M  V30 8465 C 830.2 -3.95005 2.07092 0
M  V30 8466 C 830.901 -4.06158 4.16426 0
M  V30 8467 N 829.877 -4.19982 3.45132 0
M  V30 8468 H 833.679 -1.95975 2.19023 0
M  V30 8469 H 831.193 -1.00583 1.27503 0
M  V30 8470 H 833.19 -4.06771 0.913382 0
M  V30 8471 H 831.85 -3.24622 0.0710406 0
M  V30 8472 H 832.861 -3.56761 3.75423 0
M  V30 8473 H 829.538 -3.99601 1.20937 0
M  V30 8474 H 830.928 -4.19824 5.24592 0
M  V30 8475 N 833.648 -1.19017 -1.03309 0
M  V30 8476 C 834.894 -0.991681 -1.769 0
M  V30 8477 C 835.227 0.476813 -1.88255 0
M  V30 8478 O 834.502 1.35407 -1.39625 0
M  V30 8479 C 834.785 -1.65627 -3.19749 0
M  V30 8480 C 834.638 -3.19813 -3.1629 0
M  V30 8481 C 835.957 -1.37579 -4.18043 0
M  V30 8482 H 833.076 -0.361674 -0.642153 0
M  V30 8483 H 835.718 -1.46795 -1.20628 0
M  V30 8484 H 833.868 -1.25132 -3.67796 0
M  V30 8485 H 835.54 -3.69494 -2.76174 0
M  V30 8486 H 833.783 -3.51578 -2.54117 0
M  V30 8487 H 834.454 -3.61457 -4.17196 0
M  V30 8488 H 836.93 -1.72679 -3.78578 0
M  V30 8489 H 835.806 -1.86636 -5.16196 0
M  V30 8490 H 836.067 -0.300118 -4.4108 0
M  V30 8491 N 835.127 1.22348 -0.993418 0
M  V30 8492 C 836.373 1.91393 -0.67056 0
M  V30 8493 C 836.706 1.77163 0.795428 0
M  V30 8494 O 835.981 1.14084 1.57528 0
M  V30 8495 C 836.264 3.43589 -1.0779 0
M  V30 8496 C 836.117 3.66867 -2.60248 0
M  V30 8497 C 837.436 4.35545 -0.631527 0
M  V30 8498 H 834.555 0.695057 -0.24508 0
M  V30 8499 H 837.197 1.44213 -1.23703 0
M  V30 8500 H 835.347 3.83903 -0.595902 0
M  V30 8501 H 837.019 3.35954 -3.16121 0
M  V30 8502 H 835.262 3.1113 -3.02293 0
M  V30 8503 H 835.933 4.73457 -2.838 0
M  V30 8504 H 838.409 4.0275 -1.04554 0
M  V30 8505 H 837.285 5.40707 -0.944831 0
M  V30 8506 H 837.546 4.39618 0.467779 0
M  V30 8507 N 836.605 0.766683 1.37694 0
M  V30 8508 C 838.021 0.445739 1.53249 0
M  V30 8509 C 838.221 -1.03935 1.72626 0
M  V30 8510 O 837.277 -1.82525 1.74473 0
M  V30 8511 C 838.59 1.2564 2.73194 0
M  V30 8512 C 840.138 1.24779 2.87053 0
M  V30 8513 C 840.613 2.04169 4.09974 0
M  V30 8514 N 842.104 2.01497 4.17077 0
M  V30 8515 C 842.839 2.5971 5.11212 0
M  V30 8516 N 842.335 3.26691 6.10938 0
M  V30 8517 N 844.128 2.49568 5.03659 0
M  V30 8518 H 836.279 1.72899 1.23368 0
M  V30 8519 H 838.542 0.733701 0.600322 0
M  V30 8520 H 838.248 2.30859 2.65324 0
M  V30 8521 H 838.122 0.882133 3.6674 0
M  V30 8522 H 840.509 0.203603 2.94397 0
M  V30 8523 H 840.59 1.66166 1.9448 0
M  V30 8524 H 840.234 3.08606 4.03392 0
M  V30 8525 H 840.164 1.60167 5.01651 0
M  V30 8526 H 842.655 1.52728 3.45662 0
M  V30 8527 H 842.968 3.68497 6.79286 0
M  V30 8528 H 841.313 3.30789 6.11231 0
M  V30 8529 H 844.504 1.96859 4.24693 0
M  V30 8530 H 844.677 2.95231 5.76839 0
M  V30 8531 N 838.083 -1.48885 0.516809 0
M  V30 8532 C 839.494 -1.86557 0.0729921 0
M  V30 8533 C 839.845 -1.42767 -1.34581 0
M  V30 8534 O 838.97 -0.812514 -2.00567 0
M  V30 8535 C 839.565 -3.38567 0.125686 0
M  V30 8536 C 838.124 -3.75481 -0.262867 0
M  V30 8537 C 837.271 -2.72913 0.491281 0
M  V30 8538 H 840.222 -1.40978 0.728767 0
M  V30 8539 H 840.243 -3.74629 -0.665831 0
M  V30 8540 H 839.755 -3.70408 1.15842 0
M  V30 8541 H 837.856 -3.49251 -1.29824 0
M  V30 8542 H 837.969 -4.79052 0.067579 0
M  V30 8543 H 836.333 -2.54627 -0.0608525 0
M  V30 8544 H 837.116 -3.07599 1.5244 0
M  V30 8545 N 839.561 -0.251338 -1.55583 0
M  V30 8546 C 840.508 0.646337 -2.21565 0
M  V30 8547 C 841.478 1.16796 -1.18102 0
M  V30 8548 O 842.663 1.22162 -1.46564 0
M  V30 8549 C 839.803 1.83557 -2.92234 0
M  V30 8550 C 838.916 1.35006 -4.10363 0
M  V30 8551 C 838.051 2.4992 -4.68736 0
M  V30 8552 C 837.09 1.98253 -5.79105 0
M  V30 8553 N 836.227 3.06551 -6.31642 0
M  V30 8554 H 841.067 0.0769881 -2.97901 0
M  V30 8555 H 838.604 0.026238 -1.47077 0
M  V30 8556 H 840.562 2.53425 -3.31408 0
M  V30 8557 H 839.192 2.37733 -2.18364 0
M  V30 8558 H 838.244 0.545274 -3.76472 0
M  V30 8559 H 839.556 0.931435 -4.90026 0
M  V30 8560 H 838.71 3.27823 -5.10507 0
M  V30 8561 H 837.449 2.95086 -3.88298 0
M  V30 8562 H 836.454 1.18822 -5.36807 0
M  V30 8563 H 837.679 1.54051 -6.61396 0
M  V30 8564 H 835.625 3.51143 -5.54107 0
M  V30 8565 H 835.542 2.69033 -7.06511 0
M  V30 8566 H 836.81 3.84499 -6.78071 0
M  V30 8567 N 841.039 1.57585 0.0217189 0
M  V30 8568 C 841.969 2.10073 1.01939 0
M  V30 8569 C 842.95 1.0049 1.37243 0
M  V30 8570 O 844.135 1.28055 1.45999 0
M  V30 8571 C 841.265 2.58618 2.31806 0
M  V30 8572 C 840.219 3.72531 2.10724 0
M  V30 8573 C 839.545 4.07309 3.46415 0
M  V30 8574 C 840.845 5.00672 1.48743 0
M  V30 8575 H 842.539 2.9368 0.582432 0
M  V30 8576 H 840.085 1.41277 0.278715 0
M  V30 8577 H 842.038 2.9396 3.01936 0
M  V30 8578 H 840.762 1.72104 2.77575 0
M  V30 8579 H 839.421 3.37549 1.43025 0
M  V30 8580 H 839.069 3.17851 3.89846 0
M  V30 8581 H 838.769 4.84042 3.33132 0
M  V30 8582 H 840.293 4.45192 4.17895 0
M  V30 8583 H 841.707 5.33925 2.088 0
M  V30 8584 H 840.104 5.82065 1.46013 0
M  V30 8585 H 841.174 4.82769 0.45408 0
M  V30 8586 N 842.517 -0.29412 1.54831 0
M  V30 8587 C 843.928 -0.866651 1.65366 0
M  V30 8588 C 844.279 -1.87834 0.56681 0
M  V30 8589 O 843.404 -2.14374 -0.295389 0
M  V30 8590 C 843.999 -1.57869 2.99771 0
M  V30 8591 C 842.558 -2.09954 3.12404 0
M  V30 8592 C 841.705 -0.934492 2.6108 0
M  V30 8593 H 844.656 -0.0709551 1.58541 0
M  V30 8594 H 844.677 -2.44462 2.91579 0
M  V30 8595 H 844.189 -0.84212 3.78853 0
M  V30 8596 H 842.29 -2.86637 2.38055 0
M  V30 8597 H 842.403 -2.32934 4.18663 0
M  V30 8598 H 840.767 -1.32199 2.17705 0
M  V30 8599 H 841.55 -0.211768 3.42646 0
M  V30 8600 N 843.995 -1.47404 -0.557645 0
M  V30 8601 C 844.942 -1.59859 -1.66475 0
M  V30 8602 C 845.912 -0.441644 -1.60121 0
M  V30 8603 O 847.097 -0.661641 -1.78961 0
M  V30 8604 C 844.237 -1.61843 -3.04797 0
M  V30 8605 C 843.35 -2.8845 -3.2159 0
M  V30 8606 C 842.485 -2.81773 -4.50308 0
M  V30 8607 C 841.524 -4.03208 -4.60532 0
M  V30 8608 N 840.661 -3.94769 -5.80604 0
M  V30 8609 H 845.501 -2.54415 -1.55168 0
M  V30 8610 H 843.038 -1.26194 -0.755876 0
M  V30 8611 H 844.996 -1.60976 -3.84893 0
M  V30 8612 H 843.626 -0.707997 -3.1494 0
M  V30 8613 H 842.678 -2.99186 -2.34929 0
M  V30 8614 H 843.99 -3.78379 -3.25009 0
M  V30 8615 H 843.144 -2.79153 -5.38663 0
M  V30 8616 H 841.883 -1.89527 -4.49367 0
M  V30 8617 H 840.888 -4.06133 -3.70589 0
M  V30 8618 H 842.113 -4.9658 -4.63233 0
M  V30 8619 H 840.059 -3.05326 -5.80613 0
M  V30 8620 H 839.976 -4.78375 -5.854 0
M  V30 8621 H 841.244 -3.96165 -6.71322 0
M  V30 8622 N 845.473 0.80434 -1.35529 0
M  V30 8623 C 846.884 1.37849 -1.25915 0
M  V30 8624 C 847.235 1.95905 0.107495 0
M  V30 8625 O 846.36 1.91462 1.00852 0
M  V30 8626 C 846.955 2.50608 -2.27994 0
M  V30 8627 C 845.514 3.03879 -2.22114 0
M  V30 8628 C 844.661 1.76856 -2.13582 0
M  V30 8629 H 847.612 0.607192 -1.46625 0
M  V30 8630 H 847.633 3.29221 -1.90772 0
M  V30 8631 H 847.145 2.08323 -3.27449 0
M  V30 8632 H 845.246 3.50622 -1.26077 0
M  V30 8633 H 845.359 3.61707 -3.14173 0
M  V30 8634 H 843.723 1.98498 -1.59595 0
M  V30 8635 H 844.506 1.36721 -3.14901 0
M  V30 8636 N 846.951 1.19563 1.02676 0
M  V30 8637 C 848.362 1.00158 1.57561 0
M  V30 8638 C 848.713 -0.444922 1.91089 0
M  V30 8639 O 847.838 -1.32466 1.71119 0
M  V30 8640 C 848.433 1.81181 2.86284 0
M  V30 8641 C 846.992 1.66171 3.37734 0
M  V30 8642 C 846.139 1.7975 2.11152 0
M  V30 8643 H 849.09 1.33904 0.85179 0
M  V30 8644 H 849.111 1.30916 3.57269 0
M  V30 8645 H 848.623 2.86454 2.6185 0
M  V30 8646 H 846.724 0.634927 3.6715 0
M  V30 8647 H 846.837 2.46832 4.10622 0
M  V30 8648 H 845.201 1.22833 2.23123 0
M  V30 8649 H 845.984 2.86487 1.89157 0
M  V30 8650 N 848.429 -1.21819 0.999893 0
M  V30 8651 C 849.657 -1.94758 0.698359 0
M  V30 8652 C 850.072 -1.73771 -0.738183 0
M  V30 8653 O 849.429 -1.04113 -1.49889 0
M  V30 8654 C 849.48 -3.47292 1.00353 0
M  V30 8655 O 849.201 -3.67579 2.38363 0
M  V30 8656 C 850.702 -4.37403 0.72068 0
M  V30 8657 H 847.922 -0.619512 0.257771 0
M  V30 8658 H 850.466 -1.54778 1.33656 0
M  V30 8659 H 848.621 -3.85213 0.411018 0
M  V30 8660 H 849.035 -4.61719 2.48829 0
M  V30 8661 H 850.509 -5.43151 0.984422 0
M  V30 8662 H 850.986 -4.3784 -0.345309 0
M  V30 8663 H 851.592 -4.05119 1.29456 0
M  V30 8664 N 849.908 -0.773975 -1.37286 0
M  V30 8665 C 851.185 -0.263942 -1.93811 0
M  V30 8666 C 851.565 1.24138 -1.70743 0
M  V30 8667 O 850.913 2.02557 -1.05749 0
M  V30 8668 C 851.123 -0.639753 -3.43086 0
M  V30 8669 C 852.471 -0.610796 -4.20184 0
M  V30 8670 O 853.495 -0.579278 -3.51458 0
M  V30 8671 O 852.354 -0.639862 -5.42741 0
M  V30 8672 H 849.448 -0.0614331 -0.824715 0
M  V30 8673 H 851.994 -0.855477 -1.46559 0
M  V30 8674 H 850.766 -1.67856 -3.53469 0
M  V30 8675 H 850.389 -0.0212827 -3.97594 0
M  V30 8676 N 851.386 1.48609 -0.524698 0
M  V30 8677 C 852.797 1.86516 -0.0828846 0
M  V30 8678 C 853.148 1.43478 1.33822 0
M  V30 8679 O 852.273 0.823139 2.00133 0
M  V30 8680 C 852.868 3.38495 -0.143639 0
M  V30 8681 C 851.427 3.75615 0.242951 0
M  V30 8682 C 850.574 2.72649 -0.505747 0
M  V30 8683 H 853.525 1.40589 -0.736233 0
M  V30 8684 H 853.546 3.74977 0.645955 0
M  V30 8685 H 853.058 3.69789 -1.17805 0
M  V30 8686 H 851.159 3.49935 1.27971 0
M  V30 8687 H 851.272 4.7901 -0.0929834 0
M  V30 8688 H 849.636 2.54656 0.0473482 0
M  V30 8689 H 850.419 3.06786 -1.54069 0
M  V30 8690 N 852.864 0.259585 1.55447 0
M  V30 8691 C 853.794 -0.62852 2.24882 0
M  V30 8692 C 854.775 -1.17128 1.23349 0
M  V30 8693 O 855.96 -1.20829 1.52033 0
M  V30 8694 C 853.09 -1.81983 2.95803 0
M  V30 8695 C 852.044 -1.40929 4.04132 0
M  V30 8696 C 851.37 -2.68246 4.62545 0
M  V30 8697 C 852.67 -0.570956 5.1917 0
M  V30 8698 H 854.364 -0.0495021 2.99359 0
M  V30 8699 H 851.91 -0.0223688 1.43983 0
M  V30 8700 H 853.863 -2.44689 3.43082 0
M  V30 8701 H 852.587 -2.42444 2.18835 0
M  V30 8702 H 851.246 -0.805519 3.57641 0
M  V30 8703 H 850.894 -3.26931 3.82263 0
M  V30 8704 H 850.594 -2.41495 5.35681 0
M  V30 8705 H 852.118 -3.31827 5.12565 0
M  V30 8706 H 853.532 -1.10262 5.62597 0
M  V30 8707 H 851.929 -0.398979 5.98772 0
M  V30 8708 H 852.999 0.413918 4.8313 0
M  V30 8709 N 854.342 -1.57594 -0.0133615 0
M  V30 8710 C 855.59 -1.89605 -0.699596 0
M  V30 8711 C 855.911 -0.85926 -1.75048 0
M  V30 8712 O 855.181 0.105112 -1.95618 0
M  V30 8713 H 853.761 -0.699776 -0.261385 0
M  V30 8714 H 856.423 -1.94885 0.0244044 0
M  V30 8715 H 855.519 -2.88962 -1.17928 0
M  V30 8716 N 855.82 0.285905 -1.54985 0
M  V30 8717 C 856.783 1.33625 -1.86218 0
M  V30 8718 C 857.783 1.42971 -0.735936 0
M  V30 8719 O 858.973 1.42345 -1.00417 0
M  V30 8720 C 856.105 2.71926 -2.05595 0
M  V30 8721 H 857.298 1.07167 -2.80099 0
M  V30 8722 H 854.851 0.523335 -1.47278 0
M  V30 8723 H 855.586 3.03583 -1.14053 0
M  V30 8724 H 855.371 2.6653 -2.87583 0
M  V30 8725 H 856.861 3.47841 -2.31077 0
M  V30 8726 N 857.298 1.47698 0.54982 0
M  V30 8727 C 858.544 1.54931 1.30859 0
M  V30 8728 C 858.877 0.214021 1.93017 0
M  V30 8729 O 858.152 -0.778093 1.78258 0
M  V30 8730 C 858.435 2.67286 2.41309 0
M  V30 8731 C 858.288 4.10457 1.83971 0
M  V30 8732 C 859.607 2.75509 3.43195 0
M  V30 8733 H 856.726 0.56399 0.474431 0
M  V30 8734 H 859.368 1.79787 0.614541 0
M  V30 8735 H 857.518 2.46224 3.0051 0
M  V30 8736 H 859.19 4.42903 1.28974 0
M  V30 8737 H 857.433 4.18387 1.14606 0
M  V30 8738 H 858.104 4.84857 2.63851 0
M  V30 8739 H 860.58 2.94531 2.93923 0
M  V30 8740 H 859.456 3.55886 4.17895 0
M  V30 8741 H 859.717 1.82863 4.02509 0
M  V30 8742 N 858.776 -0.797141 1.35954 0
M  V30 8743 C 860.023 -1.55468 1.29754 0
M  V30 8744 C 860.351 -1.94095 -0.125391 0
M  V30 8745 O 859.606 -1.62341 -1.09288 0
M  V30 8746 C 859.905 -2.84847 2.15863 0
M  V30 8747 C 859.571 -2.65394 3.64523 0
M  V30 8748 C 858.233 -2.59796 4.05042 0
M  V30 8749 C 860.585 -2.4727 4.58811 0
M  V30 8750 C 857.913 -2.3403 5.38002 0
M  V30 8751 C 860.265 -2.23032 5.91979 0
M  V30 8752 C 858.929 -2.15862 6.31633 0
M  V30 8753 H 858.199 -0.568897 0.474803 0
M  V30 8754 H 860.846 -0.920299 1.67937 0
M  V30 8755 H 859.151 -3.52712 1.70591 0
M  V30 8756 H 860.848 -3.42597 2.08395 0
M  V30 8757 H 857.438 -2.70602 3.32374 0
M  V30 8758 H 861.622 -2.506 4.28384 0
M  V30 8759 H 856.878 -2.26956 5.67715 0
M  V30 8760 H 861.052 -2.08001 6.64612 0
M  V30 8761 H 858.679 -1.9566 7.34589 0
M  V30 8762 N 860.254 -1.20106 -1.0204 0
M  V30 8763 C 861.479 -1.0351 -1.79723 0
M  V30 8764 C 861.904 0.411328 -1.83548 0
M  V30 8765 O 861.262 1.29608 -1.26773 0
M  V30 8766 C 861.31 -1.61876 -3.22224 0
M  V30 8767 O 860.414 -0.853813 -4.03465 0
M  V30 8768 H 859.755 -0.365299 -0.554484 0
M  V30 8769 H 862.285 -1.59316 -1.28373 0
M  V30 8770 H 862.295 -1.65451 -3.72948 0
M  V30 8771 H 860.97 -2.67148 -3.18755 0
M  V30 8772 H 859.547 -0.891983 -3.62075 0
M  V30 8773 N 861.732 1.21287 -1.00634 0
M  V30 8774 C 863.143 1.72136 -0.722914 0
M  V30 8775 C 863.494 1.8091 0.759338 0
M  V30 8776 O 862.619 1.46458 1.59308 0
M  V30 8777 C 863.214 3.12633 -1.30561 0
M  V30 8778 C 861.773 3.60833 -1.07127 0
M  V30 8779 C 860.92 2.38326 -1.4176 0
M  V30 8780 H 863.871 1.06445 -1.17708 0
M  V30 8781 H 863.892 3.74174 -0.690937 0
M  V30 8782 H 863.404 3.06215 -2.38441 0
M  V30 8783 H 861.505 3.72599 -0.00968671 0
M  V30 8784 H 861.618 4.46226 -1.74411 0
M  V30 8785 H 859.982 2.40575 -0.836412 0
M  V30 8786 H 860.765 2.34558 -2.50674 0
M  V30 8787 N 863.21 0.781244 1.36873 0
M  V30 8788 C 864.621 0.414093 1.8205 0
M  V30 8789 C 864.972 -1.06098 1.65039 0
M  V30 8790 O 864.097 -1.82251 1.16677 0
M  V30 8791 C 864.692 0.744837 3.30511 0
M  V30 8792 C 863.251 0.430621 3.73929 0
M  V30 8793 C 862.398 0.983746 2.59264 0
M  V30 8794 H 865.349 0.975091 1.2521 0
M  V30 8795 H 865.37 0.032936 3.80486 0
M  V30 8796 H 864.882 1.81847 3.42861 0
M  V30 8797 H 862.983 -0.635308 3.67144 0
M  V30 8798 H 863.096 0.945514 4.69677 0
M  V30 8799 H 861.46 0.407433 2.5142 0
M  V30 8800 H 862.243 2.06297 2.74402 0
M  V30 8801 N 864.689 -1.48329 0.532571 0
M  V30 8802 C 865.621 -2.27652 -0.265931 0
M  V30 8803 C 866.634 -1.35522 -0.902083 0
M  V30 8804 O 867.823 -1.60552 -0.780088 0
M  V30 8805 C 864.923 -3.0899 -1.39207 0
M  V30 8806 C 864.096 -4.28915 -0.857349 0
M  V30 8807 C 863.155 -4.92044 -1.86493 0
M  V30 8808 O 862.181 -5.51181 -1.42084 0
M  V30 8809 N 863.383 -4.84518 -3.19723 0
M  V30 8810 H 866.148 -2.96821 0.414389 0
M  V30 8811 H 863.709 -1.57684 0.367066 0
M  V30 8812 H 865.701 -3.48091 -2.06433 0
M  V30 8813 H 864.271 -2.42224 -1.97601 0
M  V30 8814 H 863.491 -3.94199 -0.00901765 0
M  V30 8815 H 864.779 -5.0654 -0.479025 0
M  V30 8816 H 864.177 -4.37628 -3.58467 0
M  V30 8817 H 862.734 -5.27712 -3.82575 0
M  V30 8818 N 866.167 -0.267825 -1.55308 0
M  V30 8819 C 867.13 0.60965 -2.20943 0
M  V30 8820 C 868.13 1.0869 -1.18504 0
M  V30 8821 O 869.32 0.988248 -1.43455 0
M  V30 8822 C 866.452 1.84027 -2.86961 0
M  V30 8823 H 867.645 0.0366806 -2.99878 0
M  V30 8824 H 865.198 -0.0183941 -1.56289 0
M  V30 8825 H 865.933 2.45394 -2.1202 0
M  V30 8826 H 865.718 1.50605 -3.62023 0
M  V30 8827 H 867.208 2.46442 -3.37129 0
M  V30 8828 N 867.645 1.57599 0.00500368 0
M  V30 8829 C 868.87 1.95026 0.705663 0
M  V30 8830 C 869.295 0.869643 1.6679 0
M  V30 8831 O 868.653 -0.172659 1.80476 0
M  V30 8832 C 868.701 3.31545 1.4181 0
M  V30 8833 O 867.805 3.25495 2.53232 0
M  V30 8834 H 867.146 0.636808 0.188074 0
M  V30 8835 H 869.676 2.04547 -0.046696 0
M  V30 8836 H 869.686 3.66996 1.78265 0
M  V30 8837 H 868.361 4.09751 0.712543 0
M  V30 8838 H 866.938 3.01714 2.19142 0
M  V30 8839 N 869.123 -0.277682 1.55134 0
M  V30 8840 C 870.534 -0.849063 1.66276 0
M  V30 8841 C 870.885 -1.87223 0.5867 0
M  V30 8842 O 870.01 -2.14676 -0.272635 0
M  V30 8843 C 870.605 -1.54681 3.01429 0
M  V30 8844 C 869.164 -2.06628 3.14614 0
M  V30 8845 C 868.311 -0.906748 2.62056 0
M  V30 8846 H 871.262 -0.0541357 1.58608 0
M  V30 8847 H 871.283 -2.41356 2.94156 0
M  V30 8848 H 870.795 -0.80189 3.79725 0
M  V30 8849 H 868.896 -2.84095 2.41082 0
M  V30 8850 H 869.009 -2.2848 4.2111 0
M  V30 8851 H 867.373 -1.29882 2.19095 0
M  V30 8852 H 868.156 -0.175414 3.42852 0
M  V30 8853 N 870.601 -1.47988 -0.541979 0
M  V30 8854 C 872.012 -1.49073 -1.12402 0
M  V30 8855 C 872.363 -0.253825 -1.94551 0
M  V30 8856 O 871.488 0.640056 -2.06718 0
M  V30 8857 C 872.083 -2.7011 -2.04514 0
M  V30 8858 C 870.642 -2.74105 -2.5796 0
M  V30 8859 C 869.789 -2.42409 -1.3466 0
M  V30 8860 H 872.74 -1.55277 -0.327818 0
M  V30 8861 H 872.761 -2.47946 -2.88623 0
M  V30 8862 H 872.273 -3.60117 -1.44697 0
M  V30 8863 H 870.374 -1.88276 -3.21532 0
M  V30 8864 H 870.487 -3.75213 -2.97913 0
M  V30 8865 H 868.851 -1.9331 -1.65841 0
M  V30 8866 H 869.634 -3.34642 -0.766133 0
M  V30 8867 N 872.079 0.78992 -1.36375 0
M  V30 8868 C 873.011 1.91113 -1.26524 0
M  V30 8869 C 874.024 1.61747 -0.184851 0
M  V30 8870 O 875.213 1.73004 -0.439524 0
M  V30 8871 C 872.313 3.25908 -0.92937 0
M  V30 8872 C 871.486 3.83057 -2.11154 0
M  V30 8873 C 870.545 4.96289 -1.74881 0
M  V30 8874 O 869.571 5.12834 -2.46962 0
M  V30 8875 N 870.773 5.76478 -0.682193 0
M  V30 8876 H 873.538 2.00085 -2.23128 0
M  V30 8877 H 871.099 0.968165 -1.29762 0
M  V30 8878 H 873.091 3.99151 -0.667884 0
M  V30 8879 H 871.661 3.12556 -0.0524843 0
M  V30 8880 H 870.881 3.01808 -2.53586 0
M  V30 8881 H 872.169 4.1797 -2.90135 0
M  V30 8882 H 871.567 5.65638 -0.0836661 0
M  V30 8883 H 870.124 6.50026 -0.480529 0
M  V30 8884 N 873.557 1.20646 1.01402 0
M  V30 8885 C 874.968 1.01823 1.56489 0
M  V30 8886 C 875.319 -0.42463 1.9155 0
M  V30 8887 O 874.444 -1.30644 1.72514 0
M  V30 8888 C 875.039 1.84208 2.84347 0
M  V30 8889 C 873.598 1.69743 3.35953 0
M  V30 8890 C 872.745 1.8198 2.09233 0
M  V30 8891 H 875.696 1.348 0.837539 0
M  V30 8892 H 875.717 1.34698 3.55861 0
M  V30 8893 H 875.229 2.89215 2.58798 0
M  V30 8894 H 873.33 0.673833 3.66456 0
M  V30 8895 H 873.443 2.51173 4.07981 0
M  V30 8896 H 871.807 1.25193 2.21808 0
M  V30 8897 H 872.59 2.88477 1.86107 0
M  V30 8898 N 875.035 -1.20752 1.01276 0
M  V30 8899 C 876.26 -1.94547 0.718769 0
M  V30 8900 C 876.685 -1.7404 -0.713563 0
M  V30 8901 O 876.043 -1.03221 -1.49047 0
M  V30 8902 C 876.091 -3.44823 1.05497 0
M  V30 8903 O 875.195 -4.12072 0.164516 0
M  V30 8904 H 874.536 -0.607931 0.267051 0
M  V30 8905 H 877.066 -1.53292 1.35509 0
M  V30 8906 H 877.076 -3.95427 1.00507 0
M  V30 8907 H 875.751 -3.59072 2.09858 0
M  V30 8908 H 874.328 -3.71909 0.271615 0
M  V30 8909 N 876.513 -0.788492 -1.36457 0
M  V30 8910 C 877.463 -0.159377 -2.27442 0
M  V30 8911 C 878.447 0.656146 -1.46913 0
M  V30 8912 O 879.639 0.516372 -1.693 0
M  V30 8913 C 876.768 0.705703 -3.35968 0
M  V30 8914 C 875.854 -0.11856 -4.23934 0
M  V30 8915 N 876.245 -1.1726 -4.9202 0
M  V30 8916 C 874.543 0.102752 -4.45882 0
M  V30 8917 C 875.244 -1.6743 -5.57083 0
M  V30 8918 N 874.22 -0.983682 -5.34626 0
M  V30 8919 H 878.022 -0.96614 -2.77566 0
M  V30 8920 H 875.536 -0.627864 -1.49772 0
M  V30 8921 H 877.533 1.17231 -4.00078 0
M  V30 8922 H 876.193 1.51102 -2.87399 0
M  V30 8923 H 877.204 -1.55502 -4.94004 0
M  V30 8924 H 873.881 0.878651 -4.08149 0
M  V30 8925 H 875.271 -2.55423 -6.21457 0
M  V30 8926 N 877.991 1.48044 -0.54043 0
M  V30 8927 C 879.239 2.02097 -0.0101367 0
M  V30 8928 C 879.56 1.41881 1.33771 0
M  V30 8929 O 878.83 0.587923 1.8687 0
M  V30 8930 H 877.41 0.747 -0.000758716 0
M  V30 8931 H 880.072 1.81639 -0.706634 0
M  V30 8932 H 879.168 3.11969 0.0904474 0
M  V30 8933 N 879.47 0.276058 1.55163 0
M  V30 8934 C 880.4 -0.604633 2.25536 0
M  V30 8935 C 881.381 -1.15813 1.24585 0
M  V30 8936 O 882.566 -1.1921 1.53306 0
M  V30 8937 C 879.696 -1.78836 2.97716 0
M  V30 8938 C 878.65 -1.36635 4.05604 0
M  V30 8939 C 877.976 -2.63325 4.65364 0
M  V30 8940 C 879.276 -0.515858 5.19746 0
M  V30 8941 H 880.97 -0.0177483 2.99395 0
M  V30 8942 H 878.516 -0.00709627 1.43998 0
M  V30 8943 H 880.469 -2.41036 3.45658 0
M  V30 8944 H 879.193 -2.40109 2.21394 0
M  V30 8945 H 877.852 -0.767541 3.58475 0
M  V30 8946 H 877.5 -3.22858 3.85709 0
M  V30 8947 H 877.2 -2.358 5.38212 0
M  V30 8948 H 878.724 -3.26372 5.16056 0
M  V30 8949 H 880.138 -1.04289 5.63735 0
M  V30 8950 H 878.535 -0.335449 5.99162 0
M  V30 8951 H 879.605 0.465137 4.82664 0
M  V30 8952 N 880.948 -1.576 0.00335426 0
M  V30 8953 C 881.88 -2.0549 -1.01521 0
M  V30 8954 C 882.893 -0.973441 -1.30491 0
M  V30 8955 O 884.082 -1.25017 -1.27409 0
M  V30 8956 C 881.182 -2.44272 -2.34914 0
M  V30 8957 C 880.355 -3.75191 -2.24835 0
M  V30 8958 C 879.414 -4.00804 -3.40944 0
M  V30 8959 O 878.44 -4.71423 -3.18981 0
M  V30 8960 N 879.642 -3.48961 -4.63904 0
M  V30 8961 H 882.407 -2.93493 -0.60678 0
M  V30 8962 H 879.968 -1.60851 -0.18396 0
M  V30 8963 H 881.96 -2.58518 -3.11369 0
M  V30 8964 H 880.53 -1.6177 -2.67487 0
M  V30 8965 H 879.75 -3.70989 -1.3327 0
M  V30 8966 H 881.038 -4.61013 -2.15277 0
M  V30 8967 H 880.436 -2.9178 -4.84645 0
M  V30 8968 H 878.993 -3.68531 -5.37613 0
M  V30 8969 N 882.426 0.269451 -1.5528 0
M  V30 8970 C 883.651 1.02299 -1.80415 0
M  V30 8971 C 884.076 1.7902 -0.577363 0
M  V30 8972 O 883.434 1.75018 0.473125 0
M  V30 8973 C 883.482 1.95445 -3.0304 0
M  V30 8974 O 882.586 3.04271 -2.78375 0
M  V30 8975 H 881.927 0.292289 -0.596207 0
M  V30 8976 H 884.457 0.297282 -2.02429 0
M  V30 8977 H 884.467 2.37333 -3.31869 0
M  V30 8978 H 883.142 1.39017 -3.91978 0
M  V30 8979 H 881.719 2.66673 -2.60653 0
M  V30 8980 N 883.904 1.48273 0.534124 0
M  V30 8981 C 885.144 1.57674 1.3007 0
M  V30 8982 C 885.508 0.243256 1.90453 0
M  V30 8983 O 886.709 0.212231 2.67961 0
M  V30 8984 C 884.98 2.68044 2.36405 0
M  V30 8985 S 886.539 2.97183 3.22843 0
M  V30 8986 H 883.357 0.55652 0.442501 0
M  V30 8987 H 885.959 1.85774 0.60896 0
M  V30 8988 H 884.663 3.63498 1.90518 0
M  V30 8989 H 884.194 2.41833 3.10291 0
M  V30 8990 H 886.209 2.36164 4.36396 0
M  V30 8991 N 885.382 -0.782676 1.36792 0
M  V30 8992 C 886.798 -1.08169 1.17352 0
M  V30 8993 C 886.998 -2.015 0.0022037 0
M  V30 8994 O 886.054 -2.43692 -0.661093 0
M  V30 8995 C 887.367 -1.68969 2.48737 0
M  V30 8996 C 888.915 -1.81278 2.55161 0
M  V30 8997 C 889.39 -2.45492 3.86649 0
M  V30 8998 N 890.881 -2.52954 3.88032 0
M  V30 8999 C 891.616 -3.03465 4.86515 0
M  V30 9000 N 891.112 -3.54232 5.95392 0
M  V30 9001 N 892.905 -3.02239 4.73928 0
M  V30 9002 H 885.056 -0.162757 2.11775 0
M  V30 9003 H 887.319 -0.134823 0.938364 0
M  V30 9004 H 887.025 -1.07859 3.34753 0
M  V30 9005 H 886.899 -2.68397 2.65034 0
M  V30 9006 H 889.286 -2.41524 1.69559 0
M  V30 9007 H 889.367 -0.806367 2.42758 0
M  V30 9008 H 889.011 -1.85889 4.7266 0
M  V30 9009 H 888.941 -3.46718 3.96351 0
M  V30 9010 H 891.432 -2.17014 3.09376 0
M  V30 9011 H 891.745 -3.91145 6.66503 0
M  V30 9012 H 890.09 -3.52366 5.99052 0
M  V30 9013 H 893.281 -2.61871 3.87996 0
M  V30 9014 H 893.454 -3.41295 5.50837 0
M  V30 9015 N 886.86 -1.21182 -1.00761 0
M  V30 9016 C 887.808 -0.965728 -2.11604 0
M  V30 9017 C 888.802 0.0861028 -1.69181 0
M  V30 9018 O 890.008 -0.0650558 -1.79882 0
M  V30 9019 H 886.383 -0.295023 -0.691712 0
M  V30 9020 H 888.354 -1.90667 -2.2954 0
M  V30 9021 C 887.103 -0.544164 -3.43415 0
M  V30 9022 H 886.426 -1.34515 -3.76491 0
M  V30 9023 H 887.866 -0.411268 -4.22001 0
M  V30 9024 C 886.325 0.744583 -3.28569 0
M  V30 9025 O 886.855 1.80078 -3.59075 0
M  V30 9026 N 885.061 0.710083 -2.81791 0
M  V30 9027 H 884.608 -0.14971 -2.57165 0
M  V30 9028 H 884.566 1.57268 -2.72239 0
M  V30 9029 N 888.338 1.20213 -1.01915 0
M  V30 9030 C 889.268 2.25336 -0.612023 0
M  V30 9031 C 890.249 1.65933 0.374186 0
M  V30 9032 O 891.434 1.92464 0.259053 0
M  V30 9033 C 888.564 3.47267 0.047904 0
M  V30 9034 C 887.518 4.1928 -0.859557 0
M  V30 9035 C 886.844 5.3466 -0.0652655 0
M  V30 9036 C 888.144 4.75143 -2.1688 0
M  V30 9037 H 889.838 2.59645 -1.49079 0
M  V30 9038 H 887.384 1.24808 -0.718263 0
M  V30 9039 H 889.337 4.19991 0.344294 0
M  V30 9040 H 888.061 3.12129 0.961404 0
M  V30 9041 H 886.72 3.48425 -1.13999 0
M  V30 9042 H 886.368 4.95767 0.849964 0
M  V30 9043 H 886.068 5.83772 -0.669618 0
M  V30 9044 H 887.592 6.10187 0.224612 0
M  V30 9045 H 889.006 5.39672 -1.9346 0
M  V30 9046 H 887.403 5.34702 -2.72422 0
M  V30 9047 H 888.473 3.93744 -2.83008 0
M  V30 9048 N 889.816 0.795718 1.36037 0
M  V30 9049 C 891.232 0.478145 1.52269 0
M  V30 9050 C 891.432 -1.0025 1.74792 0
M  V30 9051 O 890.488 -1.78783 1.78305 0
M  V30 9052 C 891.801 1.31406 2.70468 0
M  V30 9053 C 893.349 1.3084 2.84341 0
M  V30 9054 C 893.824 2.12819 4.05551 0
M  V30 9055 N 895.315 2.10298 4.12709 0
M  V30 9056 C 896.05 2.70495 5.05589 0
M  V30 9057 N 895.546 3.39576 6.03871 0
M  V30 9058 N 897.339 2.60195 4.98252 0
M  V30 9059 H 889.49 1.75477 1.19673 0
M  V30 9060 H 891.753 0.74627 0.584624 0
M  V30 9061 H 891.459 2.36435 2.60368 0
M  V30 9062 H 891.333 0.959726 3.64786 0
M  V30 9063 H 893.72 0.266003 2.93899 0
M  V30 9064 H 893.801 1.70254 1.90912 0
M  V30 9065 H 893.445 3.17093 3.96755 0
M  V30 9066 H 893.375 1.70772 4.98141 0
M  V30 9067 H 895.866 1.60026 3.42345 0
M  V30 9068 H 896.179 3.82823 6.71317 0
M  V30 9069 H 894.524 3.43679 6.04077 0
M  V30 9070 H 897.715 2.05823 4.20422 0
M  V30 9071 H 897.888 3.074 5.70447 0
M  V30 9072 N 891.294 -1.47756 0.548274 0
M  V30 9073 C 892.542 -2.02089 0.0208542 0
M  V30 9074 C 892.863 -1.42589 -1.33017 0
M  V30 9075 O 892.133 -0.597825 -1.86555 0
M  V30 9076 H 890.713 -0.746985 0.00472023 0
M  V30 9077 H 893.375 -1.81262 0.716257 0
M  V30 9078 H 892.471 -3.12012 -0.0739016 0
M  V30 9079 N 892.772 -0.284283 -1.55015 0
M  V30 9080 C 893.997 0.335799 -2.04664 0
M  V30 9081 C 894.422 1.47999 -1.16094 0
M  V30 9082 O 893.78 1.8058 -0.161454 0
M  V30 9083 C 893.828 0.785615 -3.51938 0
M  V30 9084 O 892.932 1.89202 -3.66437 0
M  V30 9085 H 892.273 0.0680233 -0.660506 0
M  V30 9086 H 894.803 -0.421255 -2.00216 0
M  V30 9087 H 894.813 1.07892 -3.93476 0
M  V30 9088 H 893.488 -0.0514675 -4.15868 0
M  V30 9089 H 892.065 1.60055 -3.36804 0
M  V30 9090 N 894.251 1.57596 -0.0117121 0
M  V30 9091 C 895.662 1.79033 0.529521 0
M  V30 9092 C 896.013 0.920299 1.73277 0
M  V30 9093 O 895.138 0.125934 2.16033 0
M  V30 9094 C 895.733 3.24695 0.967405 0
M  V30 9095 C 894.292 3.47188 1.45387 0
M  V30 9096 C 893.439 2.74245 0.410466 0
M  V30 9097 H 896.39 1.56908 -0.237836 0
M  V30 9098 H 896.411 3.33451 1.83278 0
M  V30 9099 H 895.923 3.87992 0.0914605 0
M  V30 9100 H 894.024 2.89121 2.35032 0
M  V30 9101 H 894.137 4.55886 1.47325 0
M  V30 9102 H 892.501 2.39209 0.874721 0
M  V30 9103 H 893.284 3.40248 -0.456713 0
M  V30 9104 N 895.729 -0.261212 1.5542 0
M  V30 9105 C 896.676 -1.32315 1.89107 0
M  V30 9106 C 897.646 -1.48517 0.743767 0
M  V30 9107 O 898.831 -1.62733 0.996123 0
M  V30 9108 C 895.971 -2.67626 2.17877 0
M  V30 9109 C 895.084 -2.59549 3.45338 0
M  V30 9110 C 894.219 -3.87118 3.63748 0
M  V30 9111 C 893.258 -3.736 4.8486 0
M  V30 9112 N 892.395 -4.93029 4.99867 0
M  V30 9113 H 897.235 -1.02886 2.79675 0
M  V30 9114 H 894.772 -0.496812 1.38456 0
M  V30 9115 H 896.73 -3.4637 2.32559 0
M  V30 9116 H 895.36 -2.95232 1.30529 0
M  V30 9117 H 894.412 -1.72452 3.39064 0
M  V30 9118 H 895.724 -2.45465 4.34222 0
M  V30 9119 H 894.878 -4.74305 3.78312 0
M  V30 9120 H 893.617 -4.04084 2.73071 0
M  V30 9121 H 892.622 -2.84797 4.70288 0
M  V30 9122 H 893.847 -3.58143 5.76984 0
M  V30 9123 H 891.793 -5.10383 4.12123 0
M  V30 9124 H 891.71 -4.81521 5.82815 0
M  V30 9125 H 892.978 -5.81754 5.18828 0
M  V30 9126 N 897.207 -1.48554 -0.526253 0
M  V30 9127 C 898.137 -1.66252 -1.63959 0
M  V30 9128 C 899.118 -0.511351 -1.62232 0
M  V30 9129 O 900.303 -0.744322 -1.7937 0
M  V30 9130 C 897.433 -1.70556 -3.02536 0
M  V30 9131 C 896.387 -2.8521 -3.19123 0
M  V30 9132 C 895.713 -2.74606 -4.58798 0
M  V30 9133 C 897.013 -4.26463 -3.0154 0
M  V30 9134 H 898.707 -2.59459 -1.49404 0
M  V30 9135 H 896.253 -1.24862 -0.717326 0
M  V30 9136 H 898.206 -1.81524 -3.80298 0
M  V30 9137 H 896.93 -0.739297 -3.18123 0
M  V30 9138 H 895.589 -2.73802 -2.43779 0
M  V30 9139 H 895.237 -1.75941 -4.71226 0
M  V30 9140 H 894.937 -3.51544 -4.70841 0
M  V30 9141 H 896.461 -2.87548 -5.38655 0
M  V30 9142 H 897.875 -4.38685 -3.69091 0
M  V30 9143 H 896.272 -5.04428 -3.25073 0
M  V30 9144 H 897.342 -4.42667 -1.97925 0
M  V30 9145 N 898.685 0.775411 -1.37205 0
M  V30 9146 C 900.096 1.35147 -1.28811 0
M  V30 9147 C 900.447 1.96089 0.0659168 0
M  V30 9148 O 899.572 1.93558 0.967684 0
M  V30 9149 C 900.167 2.45715 -2.33258 0
M  V30 9150 C 898.726 2.99099 -2.2851 0
M  V30 9151 C 897.873 1.72286 -2.17285 0
M  V30 9152 H 900.824 0.575954 -1.4788 0
M  V30 9153 H 900.845 3.251 -1.97712 0
M  V30 9154 H 900.357 2.01331 -3.31795 0
M  V30 9155 H 898.458 3.47868 -1.33485 0
M  V30 9156 H 898.571 3.54962 -3.21774 0
M  V30 9157 H 896.935 1.95068 -1.6377 0
M  V30 9158 H 897.718 1.3001 -3.1773 0
M  V30 9159 N 900.163 1.21714 1.00117 0
M  V30 9160 C 901.44 0.945391 1.71236 0
M  V30 9161 C 901.82 -0.541772 2.0403 0
M  V30 9162 O 901.168 -1.50763 1.71705 0
M  V30 9163 C 901.378 1.83444 2.96899 0
M  V30 9164 C 902.726 2.08558 3.69849 0
M  V30 9165 O 903.75 1.80824 3.06889 0
M  V30 9166 O 902.609 2.55485 4.83104 0
M  V30 9167 H 899.703 0.354834 0.747009 0
M  V30 9168 H 902.249 1.32661 1.05825 0
M  V30 9169 H 901.021 2.84075 2.69105 0
M  V30 9170 H 900.644 1.45428 3.70049 0
M  V30 9171 N 901.641 -1.19671 1.02551 0
M  V30 9172 C 902.888 -1.89268 0.720002 0
M  V30 9173 C 903.216 -1.79411 -0.751127 0
M  V30 9174 O 902.471 -1.17859 -1.5623 0
M  V30 9175 C 902.77 -3.39647 1.11241 0
M  V30 9176 C 902.436 -3.69706 2.58125 0
M  V30 9177 C 901.098 -3.7762 2.98256 0
M  V30 9178 C 903.45 -3.83301 3.53171 0
M  V30 9179 C 900.778 -3.96594 4.32354 0
M  V30 9180 C 903.13 -4.03788 4.86968 0
M  V30 9181 C 901.794 -4.09934 5.26793 0
M  V30 9182 H 901.064 -0.692579 0.263467 0
M  V30 9183 H 903.711 -1.41738 1.28774 0
M  V30 9184 H 902.016 -3.89052 0.463234 0
M  V30 9185 H 903.713 -3.91809 0.853602 0
M  V30 9186 H 900.303 -3.64152 2.26033 0
M  V30 9187 H 904.487 -3.76534 3.2332 0
M  V30 9188 H 899.743 -3.9959 4.6275 0
M  V30 9189 H 903.917 -4.1325 5.60533 0
M  V30 9190 H 901.544 -4.24389 6.30712 0
M  V30 9191 N 903.119 -0.802921 -1.35613 0
M  V30 9192 C 904.049 -0.225131 -2.32412 0
M  V30 9193 C 905.03 0.647383 -1.57299 0
M  V30 9194 O 906.215 0.578414 -1.85386 0
M  V30 9195 C 903.345 0.630085 -3.41537 0
M  V30 9196 C 902.299 -0.143635 -4.27759 0
M  V30 9197 C 901.625 0.833046 -5.28171 0
M  V30 9198 C 902.925 -1.34054 -5.04804 0
M  V30 9199 H 904.619 -1.03385 -2.80984 0
M  V30 9200 H 902.165 -0.498593 -1.35093 0
M  V30 9201 H 904.118 1.04433 -4.08254 0
M  V30 9202 H 902.842 1.47165 -2.91565 0
M  V30 9203 H 901.501 -0.539015 -3.62616 0
M  V30 9204 H 901.149 1.67001 -4.74468 0
M  V30 9205 H 900.849 0.319697 -5.8673 0
M  V30 9206 H 902.373 1.24558 -5.97761 0
M  V30 9207 H 903.787 -1.00136 -5.64487 0
M  V30 9208 H 902.184 -1.78812 -5.72841 0
M  V30 9209 H 903.254 -2.12906 -4.35659 0
M  V30 9210 N 904.597 1.47463 -0.556102 0
M  V30 9211 C 905.529 2.28046 0.22968 0
M  V30 9212 C 906.542 1.3694 0.880409 0
M  V30 9213 O 907.731 1.61773 0.754447 0
M  V30 9214 C 904.831 3.11165 1.34273 0
M  V30 9215 C 904.004 4.30225 0.789004 0
M  V30 9216 C 903.063 4.94948 1.78641 0
M  V30 9217 O 902.089 5.53372 1.33297 0
M  V30 9218 N 903.291 4.89543 3.11974 0
M  V30 9219 H 906.056 2.96125 -0.461558 0
M  V30 9220 H 903.617 1.5708 -0.392105 0
M  V30 9221 H 905.609 3.51331 2.00869 0
M  V30 9222 H 904.179 2.45337 1.93722 0
M  V30 9223 H 903.399 3.94163 -0.0536971 0
M  V30 9224 H 904.687 5.07238 0.398378 0
M  V30 9225 H 904.085 4.43275 3.51459 0
M  V30 9226 H 902.642 5.33732 3.74131 0
M  V30 9227 N 906.075 0.2925 1.54862 0
M  V30 9228 C 907.491 -0.0611461 1.59483 0
M  V30 9229 C 907.691 -1.53141 1.30958 0
M  V30 9230 O 906.747 -2.28291 1.07887 0
M  V30 9231 C 908.06 0.329143 2.98893 0
M  V30 9232 C 909.608 0.2772 3.1177 0
M  V30 9233 C 910.083 0.642185 4.53475 0
M  V30 9234 N 911.574 0.594396 4.5937 0
M  V30 9235 C 912.309 0.849385 5.67074 0
M  V30 9236 N 911.805 1.1699 6.82851 0
M  V30 9237 N 913.598 0.777016 5.56704 0
M  V30 9238 H 905.749 1.25079 1.71665 0
M  V30 9239 H 908.012 0.506516 0.80134 0
M  V30 9240 H 907.718 1.35233 3.24661 0
M  V30 9241 H 907.592 -0.321442 3.75828 0
M  V30 9242 H 909.979 -0.736725 2.85756 0
M  V30 9243 H 910.06 0.962289 2.3701 0
M  V30 9244 H 909.704 1.65388 4.80218 0
M  V30 9245 H 909.634 -0.0648831 5.2656 0
M  V30 9246 H 912.125 0.357256 3.76208 0
M  V30 9247 H 912.438 1.35067 7.60905 0
M  V30 9248 H 910.783 1.20785 6.84424 0
M  V30 9249 H 913.974 0.526333 4.65132 0
M  V30 9250 H 914.147 0.979113 6.4056 0
M  V30 9251 N 907.553 -1.57587 0.0200696 0
M  V30 9252 C 908.501 -2.10814 -0.982868 0
M  V30 9253 C 909.495 -1.03263 -1.34287 0
M  V30 9254 O 910.701 -1.21708 -1.32617 0
M  V30 9255 H 907.076 -0.673409 -0.334701 0
M  V30 9256 H 909.047 -2.94034 -0.50856 0
M  V30 9257 C 907.796 -2.64301 -2.25921 0
M  V30 9258 H 907.119 -3.46703 -1.99091 0
M  V30 9259 H 908.559 -3.052 -2.94328 0
M  V30 9260 C 907.018 -1.56628 -2.98277 0
M  V30 9261 O 907.548 -0.960825 -3.9004 0
M  V30 9262 N 905.754 -1.28889 -2.60453 0
M  V30 9263 H 905.301 -1.7831 -1.85912 0
M  V30 9264 H 905.259 -0.570697 -3.09177 0
M  V30 9265 N 909.032 0.252966 -1.55557 0
M  V30 9266 C 910.443 0.822503 -1.67606 0
M  V30 9267 C 910.794 1.86265 -0.616411 0
M  V30 9268 O 909.919 2.15082 0.238447 0
M  V30 9269 C 910.514 1.49866 -3.03852 0
M  V30 9270 C 909.073 2.01597 -3.17861 0
M  V30 9271 C 908.22 0.864943 -2.63465 0
M  V30 9272 H 911.171 0.0288958 -1.58674 0
M  V30 9273 H 911.192 2.36646 -2.97958 0
M  V30 9274 H 910.704 0.741378 -3.80953 0
M  V30 9275 H 908.805 2.80224 -2.45571 0
M  V30 9276 H 908.918 2.21752 -4.24692 0
M  V30 9277 H 907.282 1.2638 -2.21134 0
M  V30 9278 H 908.065 0.120847 -3.43087 0
M  V30 9279 N 910.51 1.48831 0.518367 0
M  V30 9280 C 911.44 1.67119 1.63075 0
M  V30 9281 C 912.421 0.519948 1.61958 0
M  V30 9282 O 913.606 0.753824 1.78972 0
M  V30 9283 C 910.736 1.72158 3.01627 0
M  V30 9284 C 909.69 2.86898 3.17606 0
M  V30 9285 C 909.016 2.77035 4.57335 0
M  V30 9286 C 910.316 4.28057 2.99274 0
M  V30 9287 H 912.01 2.60248 1.48025 0
M  V30 9288 H 909.556 1.2524 0.710694 0
M  V30 9289 H 911.509 1.83539 3.7933 0
M  V30 9290 H 910.233 0.756157 3.17726 0
M  V30 9291 H 908.892 2.75091 2.42323 0
M  V30 9292 H 908.54 1.78438 4.70286 0
M  V30 9293 H 908.24 3.54036 4.6897 0
M  V30 9294 H 909.764 2.904 5.37122 0
M  V30 9295 H 911.178 4.40636 3.6676 0
M  V30 9296 H 909.575 5.06145 3.22393 0
M  V30 9297 H 910.645 4.4371 1.95574 0
M  V30 9298 N 911.988 -0.768124 1.37614 0
M  V30 9299 C 913.399 -1.34462 1.29525 0
M  V30 9300 C 913.75 -1.96121 -0.0555168 0
M  V30 9301 O 912.875 -1.94069 -0.957406 0
M  V30 9302 C 913.47 -2.44475 2.34558 0
M  V30 9303 C 912.029 -2.97883 2.30093 0
M  V30 9304 C 911.176 -1.71131 2.18196 0
M  V30 9305 H 914.127 -0.568103 1.48183 0
M  V30 9306 H 914.148 -3.24047 1.99434 0
M  V30 9307 H 913.66 -1.99568 3.32858 0
M  V30 9308 H 911.761 -3.47156 1.35328 0
M  V30 9309 H 911.874 -3.53251 3.23652 0
M  V30 9310 H 910.238 -1.94197 1.64802 0
M  V30 9311 H 911.021 -1.28323 3.18415 0
M  V30 9312 N 913.466 -1.22244 -0.994698 0
M  V30 9313 C 914.877 -1.043 -1.5485 0
M  V30 9314 C 915.228 0.394102 -1.92201 0
M  V30 9315 O 914.353 1.27883 -1.74571 0
M  V30 9316 C 914.948 -1.88708 -2.8138 0
M  V30 9317 C 913.507 -1.75067 -3.3321 0
M  V30 9318 C 912.654 -1.85286 -2.06312 0
M  V30 9319 H 915.605 -1.36115 -0.815988 0
M  V30 9320 H 915.626 -1.40342 -3.53673 0
M  V30 9321 H 915.138 -2.93296 -2.54164 0
M  V30 9322 H 913.239 -0.732047 -3.65338 0
M  V30 9323 H 913.352 -2.57632 -4.03934 0
M  V30 9324 H 911.716 -1.28706 -2.19788 0
M  V30 9325 H 912.499 -2.91401 -1.81494 0
M  V30 9326 N 914.944 1.19125 -1.03184 0
M  V30 9327 C 916.193 1.8821 -0.725264 0
M  V30 9328 C 916.506 1.80674 0.749411 0
M  V30 9329 O 917.712 2.45037 1.16915 0
M  V30 9330 C 916.168 3.37607 -1.24697 0
M  V30 9331 C 915.776 3.53693 -2.74964 0
M  V30 9332 C 917.52 4.12149 -1.01652 0
M  V30 9333 C 915.427 4.97001 -3.20538 0
M  V30 9334 H 914.357 0.704916 -0.267599 0
M  V30 9335 H 917.008 1.34663 -1.24652 0
M  V30 9336 H 915.39 3.90569 -0.653614 0
M  V30 9337 H 916.564 3.11046 -3.39981 0
M  V30 9338 H 914.879 2.92544 -2.96322 0
M  V30 9339 H 917.476 5.17837 -1.33226 0
M  V30 9340 H 917.819 4.16274 0.0465712 0
M  V30 9341 H 918.352 3.65334 -1.57403 0
M  V30 9342 H 915.091 4.9804 -4.26189 0
M  V30 9343 H 914.611 5.40398 -2.60251 0
M  V30 9344 H 916.29 5.65669 -3.14049 0
M  V30 9345 N 916.422 0.810101 1.35185 0
M  V30 9346 C 917.352 0.237453 2.32289 0
M  V30 9347 C 918.333 -0.639032 1.5764 0
M  V30 9348 O 919.518 -0.568575 1.8569 0
M  V30 9349 C 916.648 -0.611964 3.41866 0
M  V30 9350 C 915.602 0.166318 4.27677 0
M  V30 9351 C 914.928 -0.805024 5.28605 0
M  V30 9352 C 916.228 1.36729 5.04086 0
M  V30 9353 H 917.922 1.04874 2.80432 0
M  V30 9354 H 915.468 0.505751 1.34826 0
M  V30 9355 H 917.421 -1.02267 4.08802 0
M  V30 9356 H 916.145 -1.45617 2.92341 0
M  V30 9357 H 914.804 0.558238 3.62325 0
M  V30 9358 H 914.452 -1.64483 4.75347 0
M  V30 9359 H 914.152 -0.288577 5.86891 0
M  V30 9360 H 915.676 -1.21386 5.98413 0
M  V30 9361 H 917.09 1.03128 5.63948 0
M  V30 9362 H 915.487 1.81848 5.71884 0
M  V30 9363 H 916.557 2.15214 4.34524 0
M  V30 9364 N 917.9 -1.47166 0.563914 0
M  V30 9365 C 919.148 -2.02056 0.0422873 0
M  V30 9366 C 919.469 -1.43992 -1.31497 0
M  V30 9367 O 918.739 -0.617578 -1.85911 0
M  V30 9368 H 917.319 -0.746893 0.0126427 0
M  V30 9369 H 919.981 -1.80492 0.735441 0
M  V30 9370 H 919.077 -3.12073 -0.0408044 0
M  V30 9371 N 919.378 -0.300708 -1.54705 0
M  V30 9372 C 920.603 0.314073 -2.05008 0
M  V30 9373 C 921.028 1.46759 -1.17657 0
M  V30 9374 O 920.386 1.80398 -0.180598 0
M  V30 9375 C 920.434 0.748243 -3.52752 0
M  V30 9376 O 919.538 1.85305 -3.68424 0
M  V30 9377 H 918.879 0.0610139 -0.661191 0
M  V30 9378 H 921.409 -0.442467 -1.99758 0
M  V30 9379 H 921.419 1.03713 -3.94598 0
M  V30 9380 H 920.094 -0.095573 -4.1579 0
M  V30 9381 H 918.671 1.56473 -3.38483 0
M  V30 9382 N 920.856 1.57574 -0.0284266 0
M  V30 9383 C 922.267 1.79585 0.510502 0
M  V30 9384 C 922.618 0.938625 1.72291 0
M  V30 9385 O 921.743 0.14884 2.15888 0
M  V30 9386 C 922.338 3.25703 0.932912 0
M  V30 9387 C 920.897 3.48711 1.41696 0
M  V30 9388 C 920.044 2.74665 0.381356 0
M  V30 9389 H 922.995 1.56647 -0.254464 0
M  V30 9390 H 923.016 3.35376 1.79731 0
M  V30 9391 H 922.528 3.88067 0.0503036 0
M  V30 9392 H 920.629 2.91597 2.31952 0
M  V30 9393 H 920.742 4.57423 1.42481 0
M  V30 9394 H 919.106 2.40123 0.8493 0
M  V30 9395 H 919.889 3.39745 -0.492775 0
M  V30 9396 N 922.334 -0.244713 1.55689 0
M  V30 9397 C 923.562 -0.989944 1.8168 0
M  V30 9398 C 923.977 -1.78863 0.604449 0
M  V30 9399 O 923.334 -1.77437 -0.426907 0
M  V30 9400 C 923.385 -1.92607 3.05916 0
M  V30 9401 O 923.106 -1.1597 4.22472 0
M  V30 9402 C 924.607 -2.78711 3.44724 0
M  V30 9403 H 921.827 -0.2912 0.604519 0
M  V30 9404 H 924.371 -0.266938 2.0275 0
M  V30 9405 H 922.526 -2.60333 2.8689 0
M  V30 9406 H 922.94 -1.79311 4.92898 0
M  V30 9407 H 924.414 -3.40141 4.34751 0
M  V30 9408 H 924.891 -3.49935 2.6541 0
M  V30 9409 H 925.497 -2.16435 3.66109 0
M  V30 9410 N 923.813 -1.49104 -0.510467 0
M  V30 9411 C 924.76 -1.65074 -1.61305 0
M  V30 9412 C 925.73 -0.492362 -1.58635 0
M  V30 9413 O 926.915 -0.718241 -1.76765 0
M  V30 9414 C 924.055 -1.71457 -2.99493 0
M  V30 9415 C 923.168 -2.98536 -3.12251 0
M  V30 9416 C 922.303 -2.95957 -4.41116 0
M  V30 9417 C 921.342 -4.17655 -4.47471 0
M  V30 9418 N 920.479 -4.13041 -5.67751 0
M  V30 9419 H 925.319 -2.59222 -1.46996 0
M  V30 9420 H 922.856 -1.28535 -0.715346 0
M  V30 9421 H 924.814 -1.7314 -3.79577 0
M  V30 9422 H 923.444 -0.807834 -3.12528 0
M  V30 9423 H 922.496 -3.06509 -2.25292 0
M  V30 9424 H 923.808 -3.88527 -3.12807 0
M  V30 9425 H 922.962 -2.96149 -5.2951 0
M  V30 9426 H 921.701 -2.03728 -4.4311 0
M  V30 9427 H 920.706 -4.17717 -3.57481 0
M  V30 9428 H 921.931 -5.11066 -4.472 0
M  V30 9429 H 919.877 -3.23643 -5.70606 0
M  V30 9430 H 919.794 -4.96757 -5.69884 0
M  V30 9431 H 921.062 -4.17322 -6.58379 0
M  V30 9432 N 925.291 0.760815 -1.38019 0
M  V30 9433 C 926.254 1.85604 -1.34476 0
M  V30 9434 C 927.254 1.58897 -0.24666 0
M  V30 9435 O 928.444 1.66776 -0.50314 0
M  V30 9436 C 925.576 3.22945 -1.09176 0
M  V30 9437 H 926.769 1.90155 -2.31908 0
M  V30 9438 H 924.322 0.961746 -1.23208 0
M  V30 9439 H 925.057 3.24066 -0.123216 0
M  V30 9440 H 924.842 3.43723 -1.88672 0
M  V30 9441 H 926.332 4.03022 -1.09375 0
M  V30 9442 N 926.769 1.22769 0.988202 0
M  V30 9443 C 928.015 1.05665 1.73097 0
M  V30 9444 C 928.348 -0.406615 1.89895 0
M  V30 9445 O 927.623 -1.30132 1.44554 0
M  V30 9446 C 927.906 1.77381 3.13382 0
M  V30 9447 C 927.759 3.31332 3.04203 0
M  V30 9448 C 929.078 1.52999 4.12649 0
M  V30 9449 H 926.197 0.385258 0.628288 0
M  V30 9450 H 928.839 1.51171 1.15097 0
M  V30 9451 H 926.989 1.38696 3.62899 0
M  V30 9452 H 928.661 3.79489 2.6227 0
M  V30 9453 H 926.904 3.60767 2.40894 0
M  V30 9454 H 927.575 3.76692 4.03493 0
M  V30 9455 H 930.051 1.86611 3.71908 0
M  V30 9456 H 928.927 2.05666 5.08913 0
M  V30 9457 H 929.188 0.463615 4.39662 0
M  V30 9458 N 928.247 -1.18576 1.03814 0
M  V30 9459 C 929.658 -1.70159 0.768299 0
M  V30 9460 C 930.009 -1.8286 -0.711106 0
M  V30 9461 O 929.134 -1.5063 -1.55369 0
M  V30 9462 C 929.729 -3.09062 1.38804 0
M  V30 9463 C 928.288 -3.57866 1.16656 0
M  V30 9464 C 927.435 -2.34484 1.48029 0
M  V30 9465 H 930.386 -1.03287 1.20488 0
M  V30 9466 H 930.407 -3.72211 0.7899 0
M  V30 9467 H 929.919 -2.99785 2.46476 0
M  V30 9468 H 928.02 -3.72442 0.108471 0
M  V30 9469 H 928.133 -4.41445 1.8618 0
M  V30 9470 H 926.497 -2.38273 0.899902 0
M  V30 9471 H 927.28 -2.27829 2.56805 0
M  V30 9472 N 929.725 -0.817259 -1.34754 0
M  V30 9473 C 930.95 -0.414423 -2.03217 0
M  V30 9474 C 931.375 0.970037 -1.61158 0
M  V30 9475 O 930.733 1.63016 -0.793436 0
M  V30 9476 C 930.781 -0.518087 -3.56859 0
M  V30 9477 O 929.885 0.464314 -4.09778 0
M  V30 9478 H 929.226 -0.171454 -0.641482 0
M  V30 9479 H 931.756 -1.10611 -1.72123 0
M  V30 9480 H 931.766 -0.391779 -4.06115 0
M  V30 9481 H 930.441 -1.52786 -3.86819 0
M  V30 9482 H 929.018 0.297361 -3.71712 0
M  V30 9483 N 931.203 1.46865 -0.571711 0
M  V30 9484 C 932.45 2.0243 -0.0531071 0
M  V30 9485 C 932.778 1.44446 1.30252 0
M  V30 9486 O 932.033 0.595182 1.8643 0
M  V30 9487 C 932.332 3.57323 0.0742311 0
M  V30 9488 C 931.998 4.34295 -1.21237 0
M  V30 9489 C 930.66 4.55044 -1.56489 0
M  V30 9490 C 933.012 4.78577 -2.0643 0
M  V30 9491 C 930.34 5.17325 -2.76752 0
M  V30 9492 C 932.692 5.42186 -3.25909 0
M  V30 9493 C 931.356 5.61165 -3.61456 0
M  V30 9494 H 930.626 0.740745 -0.0194333 0
M  V30 9495 H 933.273 1.76366 -0.74614 0
M  V30 9496 H 931.578 3.82461 0.850325 0
M  V30 9497 H 933.275 3.97982 0.491077 0
M  V30 9498 H 929.865 4.18435 -0.927922 0
M  V30 9499 H 934.049 4.62313 -1.80501 0
M  V30 9500 H 929.305 5.30211 -3.04444 0
M  V30 9501 H 933.479 5.75459 -3.92198 0
M  V30 9502 H 931.106 6.09195 -4.54737 0
M  V30 9503 N 932.681 0.308908 1.54543 0
M  V30 9504 C 933.958 -0.351558 1.92415 0
M  V30 9505 C 934.338 -1.71061 1.23699 0
M  V30 9506 O 933.686 -2.25394 0.3755 0
M  V30 9507 C 933.896 -0.458357 3.45977 0
M  V30 9508 C 935.244 -0.725524 4.18355 0
M  V30 9509 O 936.268 -0.541859 3.52054 0
M  V30 9510 O 935.127 -1.07884 5.35745 0
M  V30 9511 H 932.221 -0.197957 0.802958 0
M  V30 9512 H 934.767 0.357548 1.65891 0
M  V30 9513 H 933.539 0.496723 3.88134 0
M  V30 9514 H 933.162 -1.21562 3.78561 0
M  V30 9515 N 934.159 -1.57557 0.0367827 0
M  V30 9516 C 935.406 -1.92114 -0.640185 0
M  V30 9517 C 935.734 -0.913887 -1.71693 0
M  V30 9518 O 934.989 0.0760343 -1.95552 0
M  V30 9519 C 935.288 -3.33387 -1.28794 0
M  V30 9520 C 934.954 -4.4961 -0.340819 0
M  V30 9521 C 933.616 -4.81133 -0.0801574 0
M  V30 9522 C 935.968 -5.20283 0.309106 0
M  V30 9523 C 933.296 -5.80683 0.838107 0
M  V30 9524 C 935.648 -6.20813 1.21547 0
M  V30 9525 C 934.312 -6.50773 1.48495 0
M  V30 9526 H 933.582 -0.702996 -0.23426 0
M  V30 9527 H 936.229 -1.91238 0.100188 0
M  V30 9528 H 934.534 -3.30561 -2.10324 0
M  V30 9529 H 936.231 -3.57399 -1.81843 0
M  V30 9530 H 932.821 -4.25002 -0.554161 0
M  V30 9531 H 937.005 -4.96153 0.120794 0
M  V30 9532 H 932.261 -6.02238 1.05451 0
M  V30 9533 H 936.435 -6.74692 1.72522 0
M  V30 9534 H 934.062 -7.27727 2.19814 0
M  V30 9535 N 935.637 0.236453 -1.55816 0
M  V30 9536 C 937.048 0.80468 -1.68469 0
M  V30 9537 C 937.399 1.85601 -0.636133 0
M  V30 9538 O 936.524 2.15323 0.215622 0
M  V30 9539 C 937.119 1.46634 -3.05424 0
M  V30 9540 C 935.678 1.98214 -3.19981 0
M  V30 9541 C 934.825 0.83695 -2.64368 0
M  V30 9542 H 937.776 0.0120647 -1.58695 0
M  V30 9543 H 937.797 2.33472 -3.00451 0
M  V30 9544 H 937.309 0.700931 -3.81718 0
M  V30 9545 H 935.41 2.77604 -2.4853 0
M  V30 9546 H 935.523 2.17235 -4.2702 0
M  V30 9547 H 933.887 1.24028 -2.22462 0
M  V30 9548 H 934.67 0.084451 -3.43196 0
M  V30 9549 N 937.115 1.49373 0.502552 0
M  V30 9550 C 938.062 1.65927 1.60427 0
M  V30 9551 C 939.032 0.500768 1.58371 0
M  V30 9552 O 940.217 0.727606 1.76382 0
M  V30 9553 C 937.357 1.73043 2.9858 0
M  V30 9554 C 936.47 3.00187 3.10663 0
M  V30 9555 C 935.605 2.98292 4.3954 0
M  V30 9556 C 934.644 4.20022 4.4525 0
M  V30 9557 N 933.781 4.16046 5.65553 0
M  V30 9558 H 938.621 2.59998 1.45619 0
M  V30 9559 H 936.158 1.28912 0.708519 0
M  V30 9560 H 938.116 1.7515 3.78653 0
M  V30 9561 H 936.746 0.824397 3.12095 0
M  V30 9562 H 935.798 3.07699 2.23663 0
M  V30 9563 H 937.11 3.9018 3.10742 0
M  V30 9564 H 936.264 2.98953 5.27932 0
M  V30 9565 H 935.003 2.06075 4.42023 0
M  V30 9566 H 934.008 4.19607 3.5526 0
M  V30 9567 H 935.233 5.13431 4.44484 0
M  V30 9568 H 933.179 3.26665 5.68881 0
M  V30 9569 H 933.096 4.99773 5.67242 0
M  V30 9570 H 934.364 4.20807 6.56156 0
M  V30 9571 N 938.594 -0.753485 1.38421 0
M  V30 9572 C 939.822 -1.54272 1.37868 0
M  V30 9573 C 940.237 -1.88774 -0.0315155 0
M  V30 9574 O 939.594 -1.52785 -0.998148 0
M  V30 9575 C 939.645 -2.84179 2.23438 0
M  V30 9576 O 939.366 -2.51149 3.58965 0
M  V30 9577 C 940.867 -3.78316 2.31067 0
M  V30 9578 H 938.087 -0.47735 0.47157 0
M  V30 9579 H 940.631 -0.932509 1.82001 0
M  V30 9580 H 938.786 -3.41577 1.82767 0
M  V30 9581 H 939.2 -3.34466 4.04021 0
M  V30 9582 H 940.674 -4.66418 2.95226 0
M  V30 9583 H 941.151 -4.18757 1.32436 0
M  V30 9584 H 941.757 -3.26842 2.72129 0
M  V30 9585 N 940.072 -1.23292 -0.981677 0
M  V30 9586 C 941.483 -1.05936 -1.53735 0
M  V30 9587 C 941.834 0.373695 -1.92608 0
M  V30 9588 O 940.959 1.26024 -1.75917 0
M  V30 9589 C 941.554 -1.91682 -2.79363 0
M  V30 9590 C 940.113 -1.78591 -3.31334 0
M  V30 9591 C 939.26 -1.87463 -2.04335 0
M  V30 9592 H 942.211 -1.36973 -0.801505 0
M  V30 9593 H 942.232 -1.44085 -3.52164 0
M  V30 9594 H 941.744 -2.95975 -2.51039 0
M  V30 9595 H 939.845 -0.770755 -3.64541 0
M  V30 9596 H 939.958 -2.61902 -4.01179 0
M  V30 9597 H 938.322 -1.3103 -2.18411 0
M  V30 9598 H 939.105 -2.9331 -1.78394 0
M  V30 9599 N 941.55 1.18024 -1.04442 0
M  V30 9600 C 942.775 1.92573 -0.770097 0
M  V30 9601 C 943.2 1.75871 0.667169 0
M  V30 9602 O 942.558 1.07136 1.46258 0
M  V30 9603 C 942.606 3.41904 -1.14602 0
M  V30 9604 O 941.71 4.11491 -0.273712 0
M  V30 9605 H 941.051 0.600636 -0.283076 0
M  V30 9606 H 943.581 1.49645 -1.39526 0
M  V30 9607 H 943.591 3.92623 -1.10956 0
M  V30 9608 H 942.266 3.53382 -2.19304 0
M  V30 9609 H 940.843 3.71059 -0.370124 0
M  V30 9610 N 943.028 0.824394 1.34319 0
M  V30 9611 C 944.253 0.425194 2.02995 0
M  V30 9612 C 944.678 -0.961476 1.6167 0
M  V30 9613 O 944.036 -1.62593 0.80207 0
M  V30 9614 C 944.084 0.537004 3.56579 0
M  V30 9615 O 943.188 -0.442576 4.10018 0
M  V30 9616 H 942.529 0.174853 0.640564 0
M  V30 9617 H 945.059 1.11522 1.71534 0
M  V30 9618 H 945.069 0.413311 4.05901 0
M  V30 9619 H 943.744 1.54836 3.86004 0
M  V30 9620 H 942.321 -0.277644 3.71865 0
M  V30 9621 N 944.506 -1.46559 0.579492 0
M  V30 9622 C 945.438 -2.28383 -0.19337 0
M  V30 9623 C 946.451 -1.38324 -0.858511 0
M  V30 9624 O 947.64 -1.62952 -0.728615 0
M  V30 9625 C 944.74 -3.13262 -1.29306 0
M  V30 9626 C 943.913 -4.31426 -0.720459 0
M  V30 9627 C 942.972 -4.97728 -1.70744 0
M  V30 9628 O 941.998 -5.55423 -1.24476 0
M  V30 9629 N 943.2 -4.94445 -3.04146 0
M  V30 9630 H 945.965 -2.95353 0.508611 0
M  V30 9631 H 943.526 -1.56436 0.417046 0
M  V30 9632 H 945.518 -3.54483 -1.95254 0
M  V30 9633 H 944.088 -2.48388 -1.89795 0
M  V30 9634 H 943.308 -3.94028 0.116398 0
M  V30 9635 H 944.596 -5.07808 -0.31763 0
M  V30 9636 H 943.994 -4.4881 -3.44363 0
M  V30 9637 H 942.551 -5.39616 -3.65592 0
M  V30 9638 N 945.984 -0.3171 -1.54377 0
M  V30 9639 C 946.932 0.567371 -2.25574 0
M  V30 9640 C 947.926 1.12387 -1.2675 0
M  V30 9641 O 949.132 1.07266 -1.44548 0
M  V30 9642 H 945.507 0.201605 -0.724472 0
M  V30 9643 H 947.478 -0.0554644 -2.98348 0
M  V30 9644 C 946.227 1.71984 -3.02187 0
M  V30 9645 H 945.55 1.30086 -3.78044 0
M  V30 9646 H 946.99 2.31443 -3.5526 0
M  V30 9647 C 945.449 2.6336 -2.10103 0
M  V30 9648 O 945.979 3.64899 -1.67962 0
M  V30 9649 N 944.185 2.3145 -1.75725 0
M  V30 9650 H 943.732 1.48921 -2.10191 0
M  V30 9651 H 943.69 2.92852 -1.14391 0
M  V30 9652 N 947.462 1.57535 -0.0451378 0
M  V30 9653 C 948.392 2.14208 0.929372 0
M  V30 9654 C 949.373 1.06221 1.32858 0
M  V30 9655 O 950.558 1.34132 1.40436 0
M  V30 9656 C 947.688 2.68217 2.20629 0
M  V30 9657 C 946.642 3.81134 1.94734 0
M  V30 9658 C 945.968 4.21636 3.28828 0
M  V30 9659 C 947.268 5.06531 1.27374 0
M  V30 9660 H 948.962 2.95886 0.457348 0
M  V30 9661 H 946.508 1.42332 0.218544 0
M  V30 9662 H 948.461 3.06502 2.89196 0
M  V30 9663 H 947.185 1.83722 2.70026 0
M  V30 9664 H 945.844 3.43312 1.28579 0
M  V30 9665 H 945.492 3.34099 3.76014 0
M  V30 9666 H 945.192 4.97736 3.12302 0
M  V30 9667 H 946.716 4.62516 3.98637 0
M  V30 9668 H 948.13 5.423 1.85967 0
M  V30 9669 H 946.527 5.87735 1.21194 0
M  V30 9670 H 947.597 4.84261 0.248913 0
M  V30 9671 N 948.94 -0.228186 1.55939 0
M  V30 9672 C 949.87 -1.28607 1.94891 0
M  V30 9673 C 950.851 -1.49236 0.816245 0
M  V30 9674 O 952.036 -1.61531 1.07803 0
M  V30 9675 C 949.166 -2.63719 2.25986 0
M  V30 9676 C 948.12 -2.57757 3.4168 0
M  V30 9677 C 947.446 -3.96837 3.58364 0
M  V30 9678 C 948.746 -2.13116 4.76843 0
M  V30 9679 H 950.44 -0.962531 2.83506 0
M  V30 9680 H 947.986 -0.461577 1.36402 0
M  V30 9681 H 949.939 -3.37878 2.51826 0
M  V30 9682 H 948.663 -2.97747 1.34217 0
M  V30 9683 H 947.322 -1.86055 3.15878 0
M  V30 9684 H 946.97 -4.28162 2.63982 0
M  V30 9685 H 946.67 -3.93731 4.36176 0
M  V30 9686 H 948.194 -4.72668 3.86545 0
M  V30 9687 H 949.608 -2.77015 5.01932 0
M  V30 9688 H 948.005 -2.21083 5.57891 0
M  V30 9689 H 949.075 -1.08326 4.72645 0
M  V30 9690 N 950.418 -1.49637 -0.494624 0
M  V30 9691 C 951.381 -1.66252 -1.57775 0
M  V30 9692 C 952.381 -0.534054 -1.51672 0
M  V30 9693 O 953.571 -0.800637 -1.54711 0
M  V30 9694 C 950.703 -1.66584 -2.97426 0
M  V30 9695 H 951.896 -2.62864 -1.4437 0
M  V30 9696 H 949.449 -1.38764 -0.719323 0
M  V30 9697 H 950.184 -0.715798 -3.16302 0
M  V30 9698 H 949.969 -2.48543 -3.03264 0
M  V30 9699 H 951.459 -1.81474 -3.76108 0
M  V30 9700 N 951.896 0.746133 -1.38819 0
M  V30 9701 C 952.826 1.87344 -1.39372 0
M  V30 9702 C 953.807 1.68123 -0.258583 0
M  V30 9703 O 954.992 1.88606 -0.462769 0
M  V30 9704 C 952.122 3.24962 -1.22543 0
M  V30 9705 C 951.076 3.58799 -2.33339 0
M  V30 9706 C 950.402 4.95235 -2.01609 0
M  V30 9707 C 951.702 3.62911 -3.75624 0
M  V30 9708 H 953.396 1.87138 -2.33709 0
M  V30 9709 H 950.942 0.898937 -1.12495 0
M  V30 9710 H 952.895 4.03488 -1.21554 0
M  V30 9711 H 951.619 3.25667 -0.246707 0
M  V30 9712 H 950.278 2.82596 -2.33527 0
M  V30 9713 H 949.926 4.92508 -1.02202 0
M  V30 9714 H 949.626 5.18843 -2.75819 0
M  V30 9715 H 951.15 5.76131 -2.02251 0
M  V30 9716 H 952.564 4.31535 -3.77426 0
M  V30 9717 H 950.961 3.98031 -4.491 0
M  V30 9718 H 952.031 2.62967 -4.07402 0
M  V30 9719 N 953.375 1.23811 0.975125 0
M  V30 9720 C 954.305 1.04846 2.08638 0
M  V30 9721 C 955.286 -0.0362859 1.70061 0
M  V30 9722 O 956.471 0.12937 1.93769 0
M  V30 9723 C 953.601 0.644534 3.41267 0
M  V30 9724 C 952.555 1.67722 3.93768 0
M  V30 9725 C 951.881 1.12857 5.22654 0
M  V30 9726 C 953.181 3.07147 4.22443 0
M  V30 9727 H 954.875 1.97795 2.24761 0
M  V30 9728 H 952.421 0.952397 1.08006 0
M  V30 9729 H 954.374 0.498887 4.18436 0
M  V30 9730 H 953.098 -0.320641 3.25022 0
M  V30 9731 H 951.757 1.81095 3.18748 0
M  V30 9732 H 951.405 0.154227 5.02764 0
M  V30 9733 H 951.105 1.81862 5.58749 0
M  V30 9734 H 952.629 0.994891 6.0244 0
M  V30 9735 H 954.043 2.97045 4.90344 0
M  V30 9736 H 952.44 3.73437 4.6975 0
M  V30 9737 H 953.51 3.55743 3.29507 0
M  V30 9738 N 954.853 -1.17469 1.05066 0
M  V30 9739 C 955.816 -2.19648 0.654793 0
M  V30 9740 C 956.816 -1.58107 -0.293063 0
M  V30 9741 O 958.006 -1.74029 -0.077106 0
M  V30 9742 C 955.138 -3.40878 -0.0384437 0
M  V30 9743 H 956.331 -2.56184 1.55915 0
M  V30 9744 H 953.884 -1.31528 0.844396 0
M  V30 9745 H 954.619 -3.09885 -0.956133 0
M  V30 9746 H 954.404 -3.86792 0.642961 0
M  V30 9747 H 955.894 -4.1651 -0.301568 0
M  V30 9748 N 956.331 -0.831506 -1.3388 0
M  V30 9749 C 957.747 -0.518349 -1.50948 0
M  V30 9750 C 957.947 0.955807 -1.77388 0
M  V30 9751 O 957.003 1.73993 -1.82983 0
M  V30 9752 C 958.316 -1.38531 -2.66889 0
M  V30 9753 C 959.864 -1.38332 -2.80772 0
M  V30 9754 C 960.339 -2.23497 -3.99766 0
M  V30 9755 N 961.83 -2.21167 -4.06988 0
M  V30 9756 C 962.565 -2.83805 -4.98239 0
M  V30 9757 N 962.061 -3.55468 -5.94655 0
M  V30 9758 N 963.854 -2.73314 -4.91178 0
M  V30 9759 H 956.005 -1.78588 -1.14978 0
M  V30 9760 H 958.268 -0.761508 -0.564633 0
M  V30 9761 H 957.974 -2.43255 -2.54007 0
M  V30 9762 H 957.848 -1.05611 -3.62114 0
M  V30 9763 H 960.235 -0.343832 -2.9309 0
M  V30 9764 H 960.316 -1.75256 -1.86331 0
M  V30 9765 H 959.96 -3.27501 -3.88208 0
M  V30 9766 H 959.89 -1.83919 -4.93438 0
M  V30 9767 H 962.381 -1.69046 -3.37982 0
M  V30 9768 H 962.694 -4.00487 -6.60931 0
M  V30 9769 H 961.039 -3.59575 -5.94753 0
M  V30 9770 H 964.23 -2.16897 -4.14817 0
M  V30 9771 H 964.403 -3.22416 -5.62096 0
M  V30 9772 N 957.809 1.4625 -0.587256 0
M  V30 9773 C 958.741 2.28482 0.181256 0
M  V30 9774 C 959.754 1.38777 0.851163 0
M  V30 9775 O 960.943 1.63336 0.719963 0
M  V30 9776 C 958.043 3.13944 1.27643 0
M  V30 9777 C 957.216 4.31802 0.697569 0
M  V30 9778 C 956.275 4.98626 1.68102 0
M  V30 9779 O 955.301 5.56075 1.21529 0
M  V30 9780 N 956.503 4.96051 3.0152 0
M  V30 9781 H 959.268 2.95079 -0.524267 0
M  V30 9782 H 956.829 1.56213 -0.425336 0
M  V30 9783 H 958.821 3.55513 1.93371 0
M  V30 9784 H 957.391 2.49391 1.88475 0
M  V30 9785 H 956.611 3.93961 -0.137293 0
M  V30 9786 H 957.899 5.07969 0.290696 0
M  V30 9787 H 957.297 4.5063 3.41978 0
M  V30 9788 H 955.854 5.41547 3.62725 0
M  V30 9789 N 959.287 0.325282 1.54207 0
M  V30 9790 C 960.535 -0.276229 2.00203 0
M  V30 9791 C 960.856 -1.52519 1.21503 0
M  V30 9792 O 960.126 -1.93313 0.317302 0
M  V30 9793 H 958.706 -0.105059 0.739575 0
M  V30 9794 H 961.368 0.442225 1.89817 0
M  V30 9795 H 960.464 -0.531427 3.07542 0
M  V30 9796 N 960.765 -1.57509 0.0534917 0
M  V30 9797 C 962.011 -1.93068 -0.62069 0
M  V30 9798 C 962.344 -0.932313 -1.70357 0
M  V30 9799 O 961.619 0.0413393 -1.94456 0
M  V30 9800 C 961.902 -3.38997 -1.21463 0
M  V30 9801 C 961.755 -4.49583 -0.13965 0
M  V30 9802 C 963.074 -3.85366 -2.12558 0
M  V30 9803 H 960.193 -0.702083 -0.224163 0
M  V30 9804 H 962.835 -1.89647 0.115729 0
M  V30 9805 H 960.985 -3.42043 -1.84226 0
M  V30 9806 H 962.657 -4.58664 0.492411 0
M  V30 9807 H 960.9 -4.30525 0.532006 0
M  V30 9808 H 961.571 -5.48781 -0.595287 0
M  V30 9809 H 964.047 -3.8421 -1.59755 0
M  V30 9810 H 962.923 -4.8812 -2.51058 0
M  V30 9811 H 963.184 -3.22256 -3.02661 0
M  V30 9812 N 962.243 0.219913 -1.56058 0
M  V30 9813 C 963.489 0.945463 -1.79412 0
M  V30 9814 C 963.822 1.83922 -0.62341 0
M  V30 9815 O 963.097 1.90806 0.377256 0
M  V30 9816 C 963.38 1.783 -3.1286 0
M  V30 9817 C 963.233 0.915626 -4.40382 0
M  V30 9818 C 964.552 2.76045 -3.42764 0
M  V30 9819 H 961.671 0.342288 -0.652693 0
M  V30 9820 H 964.313 0.214235 -1.88788 0
M  V30 9821 H 962.463 2.40642 -3.04998 0
M  V30 9822 H 964.135 0.30882 -4.60265 0
M  V30 9823 H 962.378 0.221124 -4.33236 0
M  V30 9824 H 963.049 1.53607 -5.30197 0
M  V30 9825 H 965.525 2.23838 -3.50764 0
M  V30 9826 H 964.401 3.31748 -4.37304 0
M  V30 9827 H 964.662 3.53866 -2.65012 0
M  V30 9828 N 963.721 1.49897 0.486681 0
M  V30 9829 C 964.654 1.6224 1.60479 0
M  V30 9830 C 965.632 0.470964 1.5563 0
M  V30 9831 O 966.816 0.688418 1.75479 0
M  V30 9832 C 963.943 1.59059 2.99028 0
M  V30 9833 C 962.989 2.79575 3.22087 0
M  V30 9834 S 963.822 4.41077 3.03664 0
M  V30 9835 C 964.978 4.40564 4.44583 0
M  V30 9836 H 965.211 2.56822 1.49766 0
M  V30 9837 H 962.744 1.38966 0.672893 0
M  V30 9838 H 964.702 1.5791 3.78913 0
M  V30 9839 H 963.363 0.657405 3.07143 0
M  V30 9840 H 962.556 2.73609 4.23266 0
M  V30 9841 H 962.158 2.78211 2.49949 0
M  V30 9842 H 964.45 4.13166 5.36936 0
M  V30 9843 H 965.393 5.42068 4.55596 0
M  V30 9844 H 965.801 3.70461 4.25933 0
M  V30 9845 N 965.199 -0.738761 1.39212 0
M  V30 9846 C 966.427 -1.52801 1.39497 0
M  V30 9847 C 966.842 -1.88797 -0.0114917 0
M  V30 9848 O 966.199 -1.53835 -0.981887 0
M  V30 9849 C 966.25 -2.81793 2.2644 0
M  V30 9850 O 965.971 -2.47328 3.61608 0
M  V30 9851 C 967.472 -3.75844 2.35067 0
M  V30 9852 H 964.692 -0.472322 0.476606 0
M  V30 9853 H 967.236 -0.913153 1.8298 0
M  V30 9854 H 965.391 -3.3962 1.8638 0
M  V30 9855 H 965.805 -3.30162 4.07545 0
M  V30 9856 H 967.279 -4.6326 3.00157 0
M  V30 9857 H 967.756 -4.17329 1.3687 0
M  V30 9858 H 968.362 -3.23937 2.75581 0
M  V30 9859 N 966.677 -1.24326 -0.968545 0
M  V30 9860 C 968.088 -1.07561 -1.52603 0
M  V30 9861 C 968.439 0.353245 -1.92994 0
M  V30 9862 O 967.564 1.24151 -1.77244 0
M  V30 9863 C 968.159 -1.94634 -2.77314 0
M  V30 9864 C 966.718 -1.82095 -3.29421 0
M  V30 9865 C 965.865 -1.8962 -2.02335 0
M  V30 9866 H 968.816 -1.37815 -0.786932 0
M  V30 9867 H 968.837 -1.47812 -3.50616 0
M  V30 9868 H 968.349 -2.98621 -2.47885 0
M  V30 9869 H 966.45 -0.809376 -3.63703 0
M  V30 9870 H 966.563 -2.66142 -3.98378 0
M  V30 9871 H 964.927 -1.33339 -2.17009 0
M  V30 9872 H 965.71 -2.95185 -1.75273 0
M  V30 9873 N 968.156 1.1691 -1.05688 0
M  V30 9874 C 969.567 1.68915 -0.795273 0
M  V30 9875 C 969.918 1.83968 0.681925 0
M  V30 9876 O 969.043 1.53083 1.52953 0
M  V30 9877 C 969.638 3.06814 -1.43703 0
M  V30 9878 C 968.197 3.55965 -1.22335 0
M  V30 9879 C 967.344 2.32099 -1.51741 0
M  V30 9880 H 970.295 1.01357 -1.22116 0
M  V30 9881 H 970.316 3.70907 -0.849016 0
M  V30 9882 H 969.828 2.95826 -2.51214 0
M  V30 9883 H 967.929 3.72222 -0.16771 0
M  V30 9884 H 968.042 4.38427 -1.9318 0
M  V30 9885 H 966.406 2.36811 -0.937696 0
M  V30 9886 H 967.189 2.23715 -2.60397 0
M  V30 9887 N 969.634 0.838594 1.33437 0
M  V30 9888 C 971.05 0.526347 1.50671 0
M  V30 9889 C 971.25 -0.946387 1.77893 0
M  V30 9890 O 970.306 -1.7302 1.83903 0
M  V30 9891 C 971.619 1.39945 2.6615 0
M  V30 9892 C 973.167 1.3982 2.80035 0
M  V30 9893 C 973.642 2.25614 3.98576 0
M  V30 9894 N 975.133 2.23322 4.0581 0
M  V30 9895 C 975.868 2.86443 4.96727 0
M  V30 9896 N 975.364 3.58616 5.92762 0
M  V30 9897 N 977.157 2.75915 4.89722 0
M  V30 9898 H 969.308 1.79195 1.1403 0
M  V30 9899 H 971.571 0.764491 0.560586 0
M  V30 9900 H 971.277 2.44599 2.52714 0
M  V30 9901 H 971.151 1.07529 3.61548 0
M  V30 9902 H 973.538 0.35937 2.92904 0
M  V30 9903 H 973.619 1.76241 1.85399 0
M  V30 9904 H 973.263 3.29555 3.86466 0
M  V30 9905 H 973.193 1.86533 4.92456 0
M  V30 9906 H 975.684 1.70836 3.37081 0
M  V30 9907 H 975.997 4.03987 6.58798 0
M  V30 9908 H 974.342 3.62724 5.92838 0
M  V30 9909 H 977.533 2.19094 4.13661 0
M  V30 9910 H 977.706 3.25393 5.60378 0
M  V30 9911 N 971.112 -1.45937 0.595003 0
M  V30 9912 C 972.06 -2.32155 -0.143798 0
M  V30 9913 C 973.054 -1.45221 -0.872198 0
M  V30 9914 O 974.26 -1.61777 -0.789191 0
M  V30 9915 H 970.635 -0.749165 -0.0652377 0
M  V30 9916 H 972.606 -2.92264 0.602005 0
M  V30 9917 C 971.355 -3.28615 -1.13611 0
M  V30 9918 H 970.678 -3.95496 -0.585044 0
M  V30 9919 H 972.118 -3.91699 -1.62321 0
M  V30 9920 C 970.577 -2.54863 -2.20333 0
M  V30 9921 O 971.107 -2.32071 -3.27881 0
M  V30 9922 N 969.313 -2.15213 -1.95274 0
M  V30 9923 H 968.86 -2.33949 -1.07822 0
M  V30 9924 H 968.818 -1.66188 -2.66888 0
M  V30 9925 N 972.59 -0.333456 -1.54032 0
M  V30 9926 C 974.006 0.0188405 -1.59589 0
M  V30 9927 C 974.206 1.49615 -1.34972 0
M  V30 9928 O 973.262 2.2535 -1.13901 0
M  V30 9929 C 974.575 -0.408273 -2.97915 0
M  V30 9930 C 976.123 -0.359763 -3.10926 0
M  V30 9931 C 976.598 -0.76219 -4.51613 0
M  V30 9932 N 978.089 -0.715981 -4.57633 0
M  V30 9933 C 978.824 -0.999436 -5.64623 0
M  V30 9934 N 978.32 -1.35053 -6.79509 0
M  V30 9935 N 980.113 -0.924343 -5.54448 0
M  V30 9936 H 972.264 -1.29587 -1.68289 0
M  V30 9937 H 974.527 -0.527584 -0.787629 0
M  V30 9938 H 974.233 -1.43793 -3.20962 0
M  V30 9939 H 974.107 0.221685 -3.76548 0
M  V30 9940 H 976.494 0.660703 -2.87609 0
M  V30 9941 H 976.575 -1.02479 -2.34375 0
M  V30 9942 H 976.219 -1.78062 -4.75664 0
M  V30 9943 H 976.149 -0.0747478 -5.26547 0
M  V30 9944 H 978.64 -0.456875 -3.75128 0
M  V30 9945 H 978.953 -1.55194 -7.57057 0
M  V30 9946 H 977.298 -1.38889 -6.80981 0
M  V30 9947 H 980.489 -0.649469 -4.63573 0
M  V30 9948 H 980.662 -1.1486 -6.37739 0
M  V30 9949 N 974.068 1.57479 -0.061844 0
M  V30 9950 C 975.296 1.97429 0.618837 0
M  V30 9951 C 975.711 0.939826 1.63746 0
M  V30 9952 O 975.068 -0.0747173 1.82347 0
M  V30 9953 C 975.119 3.3746 1.29628 0
M  V30 9954 O 974.84 4.36941 0.318431 0
M  V30 9955 C 976.341 3.92228 2.06572 0
M  V30 9956 H 973.561 0.649513 0.168444 0
M  V30 9957 H 976.105 2.04078 -0.131303 0
M  V30 9958 H 974.26 3.31928 1.99757 0
M  V30 9959 H 974.674 5.18313 0.803239 0
M  V30 9960 H 976.148 4.92458 2.49377 0
M  V30 9961 H 976.625 3.28231 2.91824 0
M  V30 9962 H 977.231 4.01131 1.4133 0
M  V30 9963 N 975.546 -0.211634 1.56173 0
M  V30 9964 C 976.476 -1.26533 1.96244 0
M  V30 9965 C 977.457 -1.48362 0.832028 0
M  V30 9966 O 978.642 -1.60378 1.0951 0
M  V30 9967 C 975.772 -2.61307 2.2877 0
M  V30 9968 C 974.726 -2.54119 3.44395 0
M  V30 9969 C 974.052 -3.93014 3.62552 0
M  V30 9970 C 975.352 -2.08046 4.79076 0
M  V30 9971 H 977.046 -0.932407 2.84511 0
M  V30 9972 H 974.592 -0.447084 1.36884 0
M  V30 9973 H 976.545 -3.35188 2.55396 0
M  V30 9974 H 975.269 -2.96307 1.37367 0
M  V30 9975 H 973.928 -1.82694 3.17834 0
M  V30 9976 H 973.576 -4.25338 2.68508 0
M  V30 9977 H 973.276 -3.89083 4.40327 0
M  V30 9978 H 974.8 -4.68542 3.91537 0
M  V30 9979 H 976.214 -2.71676 5.04842 0
M  V30 9980 H 974.611 -2.15154 5.60204 0
M  V30 9981 H 975.681 -1.03306 4.73768 0
M  V30 9982 N 977.024 -1.50153 -0.478725 0
M  V30 9983 C 978.435 -1.53706 -1.05978 0
M  V30 9984 C 978.786 -0.336112 -1.933 0
M  V30 9985 O 977.911 0.551803 -2.09246 0
M  V30 9986 C 978.506 -2.78541 -1.92874 0
M  V30 9987 C 977.065 -2.848 -2.46102 0
M  V30 9988 C 976.212 -2.47902 -1.24257 0
M  V30 9989 H 979.163 -1.56528 -0.261664 0
M  V30 9990 H 979.184 -2.59964 -2.77847 0
M  V30 9991 H 978.696 -3.6593 -1.29293 0
M  V30 9992 H 976.797 -2.01744 -3.13257 0
M  V30 9993 H 976.91 -3.87511 -2.81731 0
M  V30 9994 H 975.274 -2.0017 -1.57493 0
M  V30 9995 H 976.057 -3.3759 -0.62351 0
M  V30 9996 N 978.502 0.731368 -1.39602 0
M  V30 9997 C 979.779 1.48308 -1.27531 0
M  V30 9998 C 980.159 2.10795 0.113482 0
M  V30 9999 O 979.507 1.98886 1.12501 0
M  V30 10000 C 979.717 2.53156 -2.40235 0
M  V30 10001 C 981.065 3.19436 -2.79725 0
M  V30 10002 O 982.089 2.6347 -2.39712 0
M  V30 10003 O 980.948 4.20714 -3.48801 0
M  V30 10004 H 978.042 0.658753 -0.499973 0
M  V30 10005 H 980.588 0.764884 -1.51485 0
M  V30 10006 H 979.36 2.05387 -3.33064 0
M  V30 10007 H 978.983 3.3253 -2.17966 0
M  V30 10008 N 979.98 1.24838 0.961938 0
M  V30 10009 C 980.91 1.07053 2.07514 0
M  V30 10010 C 981.891 -0.0182465 1.7009 0
M  V30 10011 O 983.076 0.149915 1.9362 0
M  V30 10012 C 980.206 0.680693 3.40564 0
M  V30 10013 C 979.16 1.71889 3.91967 0
M  V30 10014 C 978.486 1.18395 5.21428 0
M  V30 10015 C 979.786 3.1161 4.19161 0
M  V30 10016 H 981.48 2.00167 2.22651 0
M  V30 10017 H 979.026 0.963799 1.0699 0
M  V30 10018 H 980.979 0.54324 4.17884 0
M  V30 10019 H 979.703 -0.28615 3.25344 0
M  V30 10020 H 978.362 1.84465 3.16809 0
M  V30 10021 H 978.01 0.207543 5.02572 0
M  V30 10022 H 977.71 1.87778 5.56788 0
M  V30 10023 H 979.234 1.05873 6.01351 0
M  V30 10024 H 980.648 3.0223 4.87165 0
M  V30 10025 H 979.045 3.78398 4.65763 0
M  V30 10026 H 980.115 3.59218 3.25715 0
M  V30 10027 N 981.458 -1.16348 1.06306 0
M  V30 10028 C 982.683 -1.91323 0.800636 0
M  V30 10029 C 983.108 -1.7691 -0.639105 0
M  V30 10030 O 982.466 -1.0945 -1.44535 0
M  V30 10031 C 982.514 -3.40038 1.20027 0
M  V30 10032 O 981.618 -4.11003 0.339142 0
M  V30 10033 H 980.959 -0.596057 0.292595 0
M  V30 10034 H 983.489 -1.47406 1.41889 0
M  V30 10035 H 983.499 -3.90808 1.17188 0
M  V30 10036 H 982.174 -3.49848 2.24898 0
M  V30 10037 H 980.751 -3.70423 0.42911 0
M  V30 10038 N 982.937 -0.845659 -1.3299 0
M  V30 10039 C 983.847 -0.2864 -2.32845 0
M  V30 10040 C 984.863 0.591105 -1.63652 0
M  V30 10041 O 986.039 0.493615 -1.95257 0
M  V30 10042 C 983.104 0.523636 -3.42723 0
M  V30 10043 C 982.165 -0.378945 -4.27624 0
M  V30 10044 C 981.398 0.392526 -5.32255 0
M  V30 10045 O 981.621 1.6235 -5.46808 0
M  V30 10046 O 980.555 -0.237 -6.01433 0
M  V30 10047 H 984.381 -1.11346 -2.82552 0
M  V30 10048 H 981.966 -0.608356 -1.36453 0
M  V30 10049 H 983.848 0.983718 -4.09757 0
M  V30 10050 H 982.523 1.32764 -2.95221 0
M  V30 10051 H 981.43 -0.887012 -3.63432 0
M  V30 10052 H 982.763 -1.1479 -4.78627 0
M  V30 10053 N 984.415 1.45619 -0.602734 0
M  V30 10054 C 985.661 2.02572 -0.0961759 0
M  V30 10055 C 985.994 1.47076 1.26815 0
M  V30 10056 O 985.269 0.643566 1.83544 0
M  V30 10057 C 985.552 3.60062 -0.0520032 0
M  V30 10058 C 985.405 4.25901 -1.44665 0
M  V30 10059 C 986.724 4.35446 0.638342 0
M  V30 10060 H 983.843 0.736099 -0.0364238 0
M  V30 10061 H 986.485 1.7353 -0.773776 0
M  V30 10062 H 984.635 3.84936 0.525032 0
M  V30 10063 H 986.307 4.12228 -2.0704 0
M  V30 10064 H 984.55 3.84489 -2.00874 0
M  V30 10065 H 985.221 5.34779 -1.36803 0
M  V30 10066 H 987.697 4.15837 0.147926 0
M  V30 10067 H 986.573 5.45176 0.63834 0
M  V30 10068 H 986.834 4.07962 1.70351 0
M  V30 10069 N 985.893 0.34162 1.53853 0
M  V30 10070 C 987.141 -0.254979 2.00485 0
M  V30 10071 C 987.462 -1.51222 1.23114 0
M  V30 10072 O 986.732 -1.92966 0.337787 0
M  V30 10073 H 985.312 -0.0972084 0.740648 0
M  V30 10074 H 987.974 0.462332 1.89337 0
M  V30 10075 H 987.07 -0.498778 3.08089 0
M  V30 10076 N 987.371 -1.57444 0.0701946 0
M  V30 10077 C 988.782 -1.80875 -0.462709 0
M  V30 10078 C 989.133 -0.983975 -1.69742 0
M  V30 10079 O 988.258 -0.206027 -2.15417 0
M  V30 10080 C 988.853 -3.28062 -0.84623 0
M  V30 10081 C 987.412 -3.52345 -1.32401 0
M  V30 10082 C 986.559 -2.7558 -0.308399 0
M  V30 10083 H 989.51 -1.55917 0.295907 0
M  V30 10084 H 989.531 -3.40023 -1.70776 0
M  V30 10085 H 989.043 -3.88064 0.0526033 0
M  V30 10086 H 987.144 -2.97645 -2.24139 0
M  V30 10087 H 987.257 -4.6104 -1.30304 0
M  V30 10088 H 985.621 -2.4229 -0.785337 0
M  V30 10089 H 986.404 -3.38319 0.582679 0
M  V30 10090 N 988.849 0.203349 -1.56283 0
M  V30 10091 C 990.096 0.92501 -1.80138 0
M  V30 10092 C 990.424 1.83598 -0.64204 0
M  V30 10093 O 989.679 1.92119 0.372658 0
M  V30 10094 C 989.978 1.78016 -3.09912 0
M  V30 10095 C 989.644 1.02088 -4.39191 0
M  V30 10096 C 988.306 0.811208 -4.74313 0
M  V30 10097 C 990.658 0.486037 -5.18929 0
M  V30 10098 C 987.986 0.0550856 -5.86674 0
M  V30 10099 C 990.338 -0.256833 -6.32078 0
M  V30 10100 C 989.002 -0.477594 -6.65789 0
M  V30 10101 H 988.272 0.338485 -0.659173 0
M  V30 10102 H 990.919 0.191923 -1.90536 0
M  V30 10103 H 989.224 2.58167 -2.94715 0
M  V30 10104 H 990.921 2.341 -3.25574 0
M  V30 10105 H 987.511 1.1943 -4.11624 0
M  V30 10106 H 991.695 0.635446 -4.92215 0
M  V30 10107 H 986.951 -0.126006 -6.1127 0
M  V30 10108 H 991.125 -0.678683 -6.93085 0
M  V30 10109 H 988.752 -1.0654 -7.52697 0
M  V30 10110 N 990.327 1.50405 0.470755 0
M  V30 10111 C 991.277 1.65681 1.56633 0
M  V30 10112 C 992.261 0.511424 1.52556 0
M  V30 10113 O 993.453 0.765844 1.59574 0
M  V30 10114 C 990.582 1.7546 2.95074 0
M  V30 10115 C 989.668 2.95676 3.04034 0
M  V30 10116 N 990.059 4.1935 2.82807 0
M  V30 10117 C 988.357 2.94241 3.35169 0
M  V30 10118 C 989.058 5.0032 2.96741 0
M  V30 10119 N 988.034 4.34282 3.26956 0
M  V30 10120 H 991.836 2.58994 1.38922 0
M  V30 10121 H 989.35 1.47593 0.67749 0
M  V30 10122 H 991.347 1.84508 3.73848 0
M  V30 10123 H 990.007 0.833057 3.13832 0
M  V30 10124 H 991.018 4.48842 2.58382 0
M  V30 10125 H 987.695 2.11587 3.59913 0
M  V30 10126 H 989.085 6.08664 2.84566 0
M  V30 10127 N 991.805 -0.723954 1.39988 0
M  V30 10128 C 993.053 -1.48078 1.3754 0
M  V30 10129 C 993.374 -1.94985 -0.0243358 0
M  V30 10130 O 992.644 -1.69764 -0.977602 0
M  V30 10131 H 991.224 -0.549354 0.506181 0
M  V30 10132 H 993.886 -0.858746 1.74962 0
M  V30 10133 H 992.982 -2.35763 2.04505 0
M  V30 10134 N 993.283 -1.25346 -0.955304 0
M  V30 10135 C 994.215 -1.0146 -2.0552 0
M  V30 10136 C 995.228 0.0202256 -1.62787 0
M  V30 10137 O 996.417 -0.218251 -1.77161 0
M  V30 10138 C 993.517 -0.511727 -3.35014 0
M  V30 10139 C 992.69 -1.61256 -4.0659 0
M  V30 10140 C 991.749 -1.11017 -5.14356 0
M  V30 10141 O 990.775 -1.80443 -5.39842 0
M  V30 10142 N 991.977 0.0489001 -5.80479 0
M  V30 10143 H 994.742 -1.96166 -2.26581 0
M  V30 10144 H 992.303 -1.16543 -1.12381 0
M  V30 10145 H 994.295 -0.160123 -4.04383 0
M  V30 10146 H 992.865 0.341377 -3.1073 0
M  V30 10147 H 992.085 -2.13577 -3.31328 0
M  V30 10148 H 993.373 -2.35213 -4.51168 0
M  V30 10149 H 992.771 0.629021 -5.62192 0
M  V30 10150 H 991.328 0.341542 -6.50905 0
M  V30 10151 N 994.761 1.15782 -1.06922 0
M  V30 10152 C 996.172 1.68062 -0.813144 0
M  V30 10153 C 996.523 1.84681 0.662374 0
M  V30 10154 O 995.648 1.54696 1.51321 0
M  V30 10155 C 996.243 3.05273 -1.46949 0
M  V30 10156 C 994.802 3.54647 -1.26104 0
M  V30 10157 C 993.949 2.30477 -1.54194 0
M  V30 10158 H 996.9 1.00056 -1.23185 0
M  V30 10159 H 996.921 3.69986 -0.888308 0
M  V30 10160 H 996.433 2.93145 -2.54337 0
M  V30 10161 H 994.534 3.72024 -0.20718 0
M  V30 10162 H 994.647 4.36354 -1.97819 0
M  V30 10163 H 993.011 2.35803 -0.96276 0
M  V30 10164 H 993.794 2.2094 -2.62755 0
M  V30 10165 N 996.239 0.8527 1.3254 0
M  V30 10166 C 997.169 0.311234 2.31416 0
M  V30 10167 C 998.15 -0.588557 1.59593 0
M  V30 10168 O 999.335 -0.509211 1.87405 0
M  V30 10169 C 996.465 -0.502892 3.4364 0
M  V30 10170 C 995.419 0.302296 4.26931 0
M  V30 10171 C 994.745 -0.636445 5.30899 0
M  V30 10172 C 996.045 1.52697 4.99481 0
M  V30 10173 H 997.739 1.13742 2.76953 0
M  V30 10174 H 995.285 0.548389 1.33149 0
M  V30 10175 H 997.238 -0.892092 4.11849 0
M  V30 10176 H 995.962 -1.36242 2.96826 0
M  V30 10177 H 994.621 0.673226 3.60365 0
M  V30 10178 H 994.269 -1.49277 4.80339 0
M  V30 10179 H 993.969 -0.101716 5.87512 0
M  V30 10180 H 995.493 -1.02286 6.01972 0
M  V30 10181 H 996.907 1.21017 5.60382 0
M  V30 10182 H 995.304 1.9995 5.65809 0
M  V30 10183 H 996.374 2.28929 4.27457 0
M  V30 10184 N 997.718 -1.45297 0.610449 0
M  V30 10185 C 998.966 -2.01819 0.106548 0
M  V30 10186 C 999.287 -1.48102 -1.26849 0
M  V30 10187 O 998.557 -0.676411 -1.83852 0
M  V30 10188 H 997.137 -0.746113 0.0363982 0
M  V30 10189 H 999.799 -1.78061 0.792491 0
M  V30 10190 H 998.895 -3.12045 0.0585 0
M  V30 10191 N 999.196 -0.349774 -1.5367 0
M  V30 10192 C 1000.61 0.132815 -1.86227 0
M  V30 10193 C 1000.96 1.49479 -1.27084 0
M  V30 10194 O 1000.08 2.08292 -0.58679 0
M  V30 10195 C 1000.68 0.247775 -3.37893 0
M  V30 10196 C 999.237 0.674603 -3.70305 0
M  V30 10197 C 998.384 -0.187869 -2.76663 0
M  V30 10198 H 1001.33 -0.569148 -1.48143 0
M  V30 10199 H 1001.36 1.07418 -3.65023 0
M  V30 10200 H 1000.87 -0.743635 -3.80909 0
M  V30 10201 H 998.969 1.67481 -3.32837 0
M  V30 10202 H 999.082 0.460177 -4.76885 0
M  V30 10203 H 997.446 0.340779 -2.5241 0
M  V30 10204 H 998.229 -1.17653 -3.2251 0
M  V30 10205 N 1000.67 1.57404 -0.0785433 0
M  V30 10206 C 1001.92 1.93361 0.58786 0
M  V30 10207 C 1002.24 0.959856 1.6974 0
M  V30 10208 O 1001.51 0.0091173 1.95898 0
M  V30 10209 H 1000.09 0.713825 0.220141 0
M  V30 10210 H 1002.75 1.94411 -0.137986 0
M  V30 10211 H 1001.85 2.95346 1.00881 0
M  V30 10212 N 1002.15 -0.195058 1.56388 0
M  V30 10213 C 1003.08 -1.24444 1.97575 0
M  V30 10214 C 1004.06 -1.47471 0.847717 0
M  V30 10215 O 1005.25 -1.59208 1.11205 0
M  V30 10216 C 1002.38 -2.58866 2.31529 0
M  V30 10217 C 1001.33 -2.50451 3.47071 0
M  V30 10218 C 1000.66 -3.89146 3.667 0
M  V30 10219 C 1001.96 -2.02953 4.81256 0
M  V30 10220 H 1003.65 -0.902178 2.85484 0
M  V30 10221 H 1001.2 -0.43254 1.3735 0
M  V30 10222 H 1003.15 -3.3246 2.58936 0
M  V30 10223 H 1001.87 -2.94833 1.40502 0
M  V30 10224 H 1000.53 -1.79313 3.19754 0
M  V30 10225 H 1000.18 -4.22466 2.73004 0
M  V30 10226 H 999.882 -3.84391 4.44429 0
M  V30 10227 H 1001.41 -4.64363 3.96484 0
M  V30 10228 H 1002.82 -2.66306 5.07695 0
M  V30 10229 H 1001.22 -2.092 5.62455 0
M  V30 10230 H 1002.29 -0.982757 4.74837 0
M  V30 10231 N 1003.63 -1.50653 -0.462772 0
M  V30 10232 C 1005.05 -1.38263 -0.797213 0
M  V30 10233 C 1005.25 -0.445172 -1.96521 0
M  V30 10234 O 1004.3 0.10913 -2.52264 0
M  V30 10235 C 1005.61 -2.798 -1.10146 0
M  V30 10236 C 1007.16 -2.88774 -1.20742 0
M  V30 10237 C 1007.64 -4.31163 -1.54476 0
M  V30 10238 N 1009.13 -4.34152 -1.61451 0
M  V30 10239 C 1009.86 -5.4133 -1.89074 0
M  V30 10240 N 1009.36 -6.58705 -2.1466 0
M  V30 10241 N 1011.15 -5.28783 -1.90645 0
M  V30 10242 H 1003.3 -2.10172 0.30684 0
M  V30 10243 H 1005.57 -0.945046 0.0747862 0
M  V30 10244 H 1005.27 -3.50276 -0.316207 0
M  V30 10245 H 1005.15 -3.17559 -2.03559 0
M  V30 10246 H 1007.53 -2.18512 -1.98334 0
M  V30 10247 H 1007.61 -2.54547 -0.252904 0
M  V30 10248 H 1007.26 -5.01965 -0.774207 0
M  V30 10249 H 1007.19 -4.62883 -2.51092 0
M  V30 10250 H 1009.68 -3.49519 -1.43684 0
M  V30 10251 H 1009.99 -7.36192 -2.35035 0
M  V30 10252 H 1008.34 -6.61866 -2.12035 0
M  V30 10253 H 1011.53 -4.36078 -1.70158 0
M  V30 10254 H 1011.7 -6.12396 -2.11836 0
M  V30 10255 N 1005.11 0.71652 -1.4037 0
M  V30 10256 C 1006.52 1.29562 -1.34427 0
M  V30 10257 C 1006.87 1.96192 -0.0173106 0
M  V30 10258 O 1006 1.97488 0.884719 0
M  V30 10259 C 1006.59 2.35601 -2.4347 0
M  V30 10260 C 1005.15 2.89138 -2.4099 0
M  V30 10261 C 1004.3 1.62915 -2.24397 0
M  V30 10262 H 1007.25 0.512715 -1.5019 0
M  V30 10263 H 1007.27 3.16422 -2.11323 0
M  V30 10264 H 1006.78 1.87077 -3.40035 0
M  V30 10265 H 1004.88 3.41894 -1.4812 0
M  V30 10266 H 1004.99 3.40995 -3.3654 0
M  V30 10267 H 1003.36 1.87947 -1.71896 0
M  V30 10268 H 1004.14 1.16417 -3.22958 0
M  V30 10269 N 1006.59 1.25851 0.948643 0
M  V30 10270 C 1007.83 1.10735 1.69062 0
M  V30 10271 C 1008.16 -0.351257 1.9181 0
M  V30 10272 O 1007.43 -1.24867 1.50947 0
M  V30 10273 H 1006.01 0.406796 0.626519 0
M  V30 10274 H 1008.67 1.58066 1.14022 0
M  V30 10275 H 1007.76 1.62033 2.66743 0
M  V30 10276 N 1008.06 -1.15214 1.07534 0
M  V30 10277 C 1008.97 -2.23636 0.708818 0
M  V30 10278 C 1009.99 -1.7172 -0.280759 0
M  V30 10279 O 1011.17 -2.01 -0.126927 0
M  V30 10280 C 1008.23 -3.46512 0.114167 0
M  V30 10281 C 1007.29 -4.13409 1.15722 0
M  V30 10282 C 1006.53 -5.30419 0.59085 0
M  V30 10283 O 1006.75 -5.67314 -0.592512 0
M  V30 10284 O 1005.68 -5.86871 1.33663 0
M  V30 10285 H 1009.51 -2.57322 1.61305 0
M  V30 10286 H 1007.09 -1.22972 0.848422 0
M  V30 10287 H 1008.98 -4.20851 -0.215091 0
M  V30 10288 H 1007.65 -3.1457 -0.763356 0
M  V30 10289 H 1006.56 -3.40984 1.53886 0
M  V30 10290 H 1007.89 -4.49435 2.00671 0
M  V30 10291 N 1009.54 -0.859717 -1.32086 0
M  V30 10292 C 1010.82 -0.386665 -1.9174 0
M  V30 10293 C 1011.2 1.13028 -1.78292 0
M  V30 10294 O 1010.55 1.95422 -1.18417 0
M  V30 10295 C 1010.76 -0.856648 -3.38323 0
M  V30 10296 C 1012.11 -0.87678 -4.15449 0
M  V30 10297 O 1013.13 -0.80162 -3.47063 0
M  V30 10298 O 1011.99 -0.98373 -5.37573 0
M  V30 10299 H 1009.08 -0.113758 -0.819139 0
M  V30 10300 H 1011.63 -0.946952 -1.40822 0
M  V30 10301 H 1010.4 -1.89996 -3.42078 0
M  V30 10302 H 1010.02 -0.274095 -3.96654 0
M  V30 10303 N 1011.02 1.44971 -0.618145 0
M  V30 10304 C 1012.43 1.85611 -0.201334 0
M  V30 10305 C 1012.78 1.51698 1.24427 0
M  V30 10306 O 1011.91 0.94875 1.94493 0
M  V30 10307 C 1012.5 3.36897 -0.358619 0
M  V30 10308 C 1011.06 3.764 0.00358196 0
M  V30 10309 C 1010.21 2.68881 -0.678118 0
M  V30 10310 H 1013.16 1.35622 -0.824152 0
M  V30 10311 H 1013.18 3.78326 0.406176 0
M  V30 10312 H 1012.69 3.61548 -1.41084 0
M  V30 10313 H 1010.79 3.57365 1.05457 0
M  V30 10314 H 1010.91 4.77449 -0.397427 0
M  V30 10315 H 1009.27 2.54442 -0.114699 0
M  V30 10316 H 1010.05 2.96367 -1.73268 0
M  V30 10317 N 1012.5 0.357919 1.53482 0
M  V30 10318 C 1013.45 -0.49217 2.25491 0
M  V30 10319 C 1014.42 -1.08382 1.25867 0
M  V30 10320 O 1015.6 -1.11775 1.54632 0
M  V30 10321 C 1012.74 -1.6299 3.04185 0
M  V30 10322 C 1011.85 -1.06416 4.18688 0
M  V30 10323 C 1010.99 -2.17037 4.84839 0
M  V30 10324 C 1010.03 -1.57889 5.91386 0
M  V30 10325 N 1009.16 -2.6231 6.51259 0
M  V30 10326 H 1014 0.128412 2.97723 0
M  V30 10327 H 1011.54 0.0751423 1.46908 0
M  V30 10328 H 1013.5 -2.29993 3.48079 0
M  V30 10329 H 1012.13 -2.22125 2.34223 0
M  V30 10330 H 1011.18 -0.284635 3.79334 0
M  V30 10331 H 1012.49 -0.591654 4.95279 0
M  V30 10332 H 1011.65 -2.91876 5.31877 0
M  V30 10333 H 1010.39 -2.67636 4.07703 0
M  V30 10334 H 1009.39 -0.815605 5.43717 0
M  V30 10335 H 1010.62 -1.08123 6.70437 0
M  V30 10336 H 1008.56 -3.12137 5.7698 0
M  V30 10337 H 1008.48 -2.19724 7.23365 0
M  V30 10338 H 1009.75 -3.36875 7.02948 0
M  V30 10339 N 1013.98 -1.5736 0.0868897 0
M  V30 10340 C 1015.22 -1.9367 -0.577598 0
M  V30 10341 C 1015.55 -0.968844 -1.69229 0
M  V30 10342 O 1014.82 -0.0195061 -1.9589 0
M  V30 10343 H 1013.4 -0.714983 -0.216353 0
M  V30 10344 H 1016.06 -1.94335 0.148294 0
M  V30 10345 H 1015.15 -2.95877 -0.993128 0
M  V30 10346 N 1015.45 0.186762 -1.56489 0
M  V30 10347 C 1016.87 0.750675 -1.70944 0
M  V30 10348 C 1017.22 1.83483 -0.694858 0
M  V30 10349 O 1016.34 2.159 0.147009 0
M  V30 10350 C 1016.94 1.36843 -3.09934 0
M  V30 10351 C 1015.5 1.87934 -3.26125 0
M  V30 10352 C 1014.64 0.75242 -2.66897 0
M  V30 10353 H 1017.59 -0.0384292 -1.58653 0
M  V30 10354 H 1017.61 2.23795 -3.07727 0
M  V30 10355 H 1017.13 0.579135 -3.83755 0
M  V30 10356 H 1015.23 2.69556 -2.57235 0
M  V30 10357 H 1015.34 2.0354 -4.33715 0
M  V30 10358 H 1013.7 1.16888 -2.26295 0
M  V30 10359 H 1014.49 -0.0247769 -3.43291 0
M  V30 10360 N 1016.93 1.50896 0.454776 0
M  V30 10361 C 1018.18 1.62699 1.20562 0
M  V30 10362 C 1018.51 0.334943 1.91594 0
M  V30 10363 O 1017.76 -0.680106 1.83502 0
M  V30 10364 C 1018.06 2.76839 2.26042 0
M  V30 10365 C 1017.73 4.16745 1.72147 0
M  V30 10366 C 1016.39 4.54809 1.5717 0
M  V30 10367 C 1018.74 5.04118 1.32341 0
M  V30 10368 C 1016.07 5.7797 1.00835 0
M  V30 10369 C 1018.42 6.27842 0.774419 0
M  V30 10370 C 1017.09 6.64694 0.611415 0
M  V30 10371 H 1016.36 0.595358 0.441169 0
M  V30 10372 H 1019 1.84879 0.499202 0
M  V30 10373 H 1017.31 2.48812 3.02655 0
M  V30 10374 H 1019 2.83173 2.83926 0
M  V30 10375 H 1015.59 3.86725 1.84775 0
M  V30 10376 H 1019.78 4.75331 1.42739 0
M  V30 10377 H 1015.03 6.05183 0.869669 0
M  V30 10378 H 1019.21 6.94896 0.457389 0
M  V30 10379 H 1016.84 7.60004 0.172751 0
M  V30 10380 N 1018.41 -0.709066 1.40748 0
M  V30 10381 C 1019.66 -1.46611 1.39103 0
M  V30 10382 C 1019.98 -1.95 -0.00365366 0
M  V30 10383 O 1019.25 -1.70791 -0.959541 0
M  V30 10384 H 1017.83 -0.543954 0.511979 0
M  V30 10385 H 1020.49 -0.840141 1.75863 0
M  V30 10386 H 1019.59 -2.33581 2.06994 0
M  V30 10387 N 1019.89 -1.26353 -0.941956 0
M  V30 10388 C 1021.31 -1.03448 -1.21534 0
M  V30 10389 C 1021.51 0.240855 -2.00055 0
M  V30 10390 O 1020.56 0.950199 -2.33939 0
M  V30 10391 C 1021.87 -2.2654 -1.97737 0
M  V30 10392 C 1023.42 -2.31433 -2.10731 0
M  V30 10393 C 1023.9 -3.54216 -2.90336 0
M  V30 10394 N 1025.39 -3.54688 -2.9791 0
M  V30 10395 C 1026.12 -4.4636 -3.59931 0
M  V30 10396 N 1025.62 -5.48319 -4.2346 0
M  V30 10397 N 1027.41 -4.34013 -3.57196 0
M  V30 10398 H 1019.56 -2.08266 -0.417005 0
M  V30 10399 H 1021.83 -0.915251 -0.247021 0
M  V30 10400 H 1021.53 -3.19299 -1.47449 0
M  V30 10401 H 1021.41 -2.30726 -2.98405 0
M  V30 10402 H 1023.79 -1.3919 -2.60212 0
M  V30 10403 H 1023.87 -2.31259 -1.09329 0
M  V30 10404 H 1023.52 -4.46788 -2.41543 0
M  V30 10405 H 1023.45 -3.51637 -3.91993 0
M  V30 10406 H 1025.94 -2.80942 -2.52745 0
M  V30 10407 H 1026.25 -6.14458 -4.6868 0
M  V30 10408 H 1024.6 -5.52177 -4.22049 0
M  V30 10409 H 1027.79 -3.53578 -3.06758 0
M  V30 10410 H 1027.96 -5.0565 -4.05244 0
M  V30 10411 N 1021.37 1.14642 -1.08144 0
M  V30 10412 C 1022.59 1.90025 -0.830972 0
M  V30 10413 C 1023.02 1.77904 0.610879 0
M  V30 10414 O 1022.38 1.11735 1.42776 0
M  V30 10415 C 1022.42 3.38085 -1.25422 0
M  V30 10416 O 1021.53 4.10412 -0.404486 0
M  V30 10417 H 1020.87 0.591327 -0.302041 0
M  V30 10418 H 1023.4 1.4513 -1.44216 0
M  V30 10419 H 1023.41 3.88894 -1.23391 0
M  V30 10420 H 1022.08 3.46226 -2.30435 0
M  V30 10421 H 1020.66 3.69693 -0.487987 0
M  V30 10422 N 1022.85 0.866709 1.31628 0
M  V30 10423 C 1024.09 0.476026 1.96825 0
M  V30 10424 C 1024.42 -0.970994 1.68529 0
M  V30 10425 O 1023.68 -1.69823 0.97255 0
M  V30 10426 C 1023.97 0.676018 3.50948 0
M  V30 10427 C 1023.64 2.09533 3.99258 0
M  V30 10428 C 1022.3 2.48349 4.1216 0
M  V30 10429 C 1024.65 3.02112 4.24709 0
M  V30 10430 C 1021.98 3.78991 4.47864 0
M  V30 10431 C 1024.33 4.32266 4.61875 0
M  V30 10432 C 1023 4.71 4.72985 0
M  V30 10433 H 1022.27 0.17419 0.720235 0
M  V30 10434 H 1024.92 1.09907 1.5682 0
M  V30 10435 H 1023.22 -0.0301867 3.91788 0
M  V30 10436 H 1024.92 0.353604 3.99438 0
M  V30 10437 H 1021.51 1.78396 3.89709 0
M  V30 10438 H 1025.69 2.73351 4.14238 0
M  V30 10439 H 1020.95 4.08769 4.54663 0
M  V30 10440 H 1025.12 5.04055 4.80522 0
M  V30 10441 H 1022.75 5.72273 5.00407 0
M  V30 10442 N 1024.32 -1.44642 0.625825 0
M  V30 10443 C 1025.55 -2.06971 0.133373 0
M  V30 10444 C 1025.97 -1.46421 -1.18078 0
M  V30 10445 O 1025.33 -0.563676 -1.72315 0
M  V30 10446 C 1025.38 -3.6059 0.0265097 0
M  V30 10447 O 1024.48 -3.99615 -1.01889 0
M  V30 10448 H 1023.82 -0.658873 0.0823568 0
M  V30 10449 H 1026.35 -1.85601 0.861002 0
M  V30 10450 H 1026.36 -4.07663 -0.1658 0
M  V30 10451 H 1025.04 -4.04043 0.985986 0
M  V30 10452 H 1023.62 -3.64183 -0.801577 0
M  V30 10453 N 1025.8 -0.366053 -1.5329 0
M  V30 10454 C 1027.03 0.224236 -2.05681 0
M  V30 10455 C 1027.44 1.42412 -1.23952 0
M  V30 10456 O 1026.8 1.80334 -0.280309 0
M  V30 10457 C 1026.85 0.617266 -3.56191 0
M  V30 10458 O 1026.57 -0.534931 -4.34822 0
M  V30 10459 C 1028.07 1.26589 -4.24841 0
M  V30 10460 H 1025.29 0.0392928 -0.669849 0
M  V30 10461 H 1027.84 -0.52456 -1.97658 0
M  V30 10462 H 1025.99 1.31598 -3.64364 0
M  V30 10463 H 1026.41 -0.217123 -5.2405 0
M  V30 10464 H 1027.88 1.49146 -5.31469 0
M  V30 10465 H 1028.36 2.22633 -3.78591 0
M  V30 10466 H 1028.96 0.6086 -4.20923 0
M  V30 10467 N 1027.28 1.57312 -0.0952337 0
M  V30 10468 C 1028.5 1.99119 0.580206 0
M  V30 10469 C 1028.93 0.973955 1.60922 0
M  V30 10470 O 1028.29 -0.0575338 1.81209 0
M  V30 10471 C 1028.34 3.39893 1.20438 0
M  V30 10472 O 1027.44 3.40941 2.32019 0
M  V30 10473 H 1026.78 0.64748 0.147195 0
M  V30 10474 H 1029.31 2.03836 -0.176686 0
M  V30 10475 H 1029.32 3.7759 1.54564 0
M  V30 10476 H 1028 4.13453 0.450514 0
M  V30 10477 H 1026.57 3.1504 1.9951 0
M  V30 10478 N 1028.76 -0.17846 1.56586 0
M  V30 10479 C 1030.17 -0.529957 1.50544 0
M  V30 10480 C 1030.37 -1.85015 0.798237 0
M  V30 10481 O 1029.43 -2.49983 0.355639 0
M  V30 10482 C 1030.74 -0.569314 2.95261 0
M  V30 10483 C 1032.29 -0.657008 3.06027 0
M  V30 10484 C 1032.77 -0.727323 4.52188 0
M  V30 10485 N 1034.26 -0.790406 4.56406 0
M  V30 10486 C 1034.99 -0.865265 5.66834 0
M  V30 10487 N 1034.49 -0.901398 6.86911 0
M  V30 10488 N 1036.28 -0.903736 5.54787 0
M  V30 10489 H 1028.43 0.687304 2.00972 0
M  V30 10490 H 1030.69 0.246936 0.915274 0
M  V30 10491 H 1030.4 0.331934 3.5013 0
M  V30 10492 H 1030.27 -1.41828 3.4952 0
M  V30 10493 H 1032.66 -1.54868 2.51197 0
M  V30 10494 H 1032.74 0.218495 2.54865 0
M  V30 10495 H 1032.39 0.160067 5.07648 0
M  V30 10496 H 1032.32 -1.61887 5.01099 0
M  V30 10497 H 1034.81 -0.771054 3.6995 0
M  V30 10498 H 1035.12 -0.959494 7.6682 0
M  V30 10499 H 1033.47 -0.869795 6.89536 0
M  V30 10500 H 1036.66 -0.872459 4.59898 0
M  V30 10501 H 1036.83 -0.958615 6.4087 0
M  V30 10502 N 1030.24 -1.51135 -0.446768 0
M  V30 10503 C 1031.17 -1.74709 -1.54916 0
M  V30 10504 C 1032.15 -0.596628 -1.59293 0
M  V30 10505 O 1033.33 -0.838356 -1.75172 0
M  V30 10506 C 1030.46 -1.86353 -2.9307 0
M  V30 10507 C 1029.42 -3.01725 -3.03556 0
M  V30 10508 C 1028.74 -2.9854 -4.43597 0
M  V30 10509 C 1030.04 -4.41848 -2.7851 0
M  V30 10510 H 1031.74 -2.67014 -1.3544 0
M  V30 10511 H 1029.28 -1.28489 -0.650131 0
M  V30 10512 H 1031.23 -2.01428 -3.70141 0
M  V30 10513 H 1029.96 -0.906887 -3.13756 0
M  V30 10514 H 1028.62 -2.86339 -2.28922 0
M  V30 10515 H 1028.27 -2.00673 -4.61237 0
M  V30 10516 H 1027.97 -3.76008 -4.51544 0
M  V30 10517 H 1029.49 -3.15696 -5.22655 0
M  V30 10518 H 1030.9 -4.57633 -3.45319 0
M  V30 10519 H 1029.3 -5.2095 -2.97877 0
M  V30 10520 H 1030.37 -4.52536 -1.74182 0
M  V30 10521 N 1031.71 0.701592 -1.41122 0
M  V30 10522 C 1032.94 1.49049 -1.43499 0
M  V30 10523 C 1033.36 1.88761 -0.0385684 0
M  V30 10524 O 1032.71 1.56384 0.940755 0
M  V30 10525 C 1032.76 2.7569 -2.33832 0
M  V30 10526 O 1032.49 2.37653 -3.68039 0
M  V30 10527 C 1033.99 3.69479 -2.44949 0
M  V30 10528 H 1031.21 0.459519 -0.488961 0
M  V30 10529 H 1033.75 0.864318 -1.85337 0
M  V30 10530 H 1031.91 3.34559 -1.95318 0
M  V30 10531 H 1032.32 3.19241 -4.16156 0
M  V30 10532 H 1033.79 4.55139 -3.12334 0
M  V30 10533 H 1034.27 4.13553 -1.47887 0
M  V30 10534 H 1034.88 3.16517 -2.84072 0
M  V30 10535 N 1033.19 1.2685 0.935242 0
M  V30 10536 C 1034.47 1.03483 1.65984 0
M  V30 10537 C 1034.85 -0.432859 2.06614 0
M  V30 10538 O 1034.2 -1.4145 1.79455 0
M  V30 10539 C 1034.41 1.98924 2.86758 0
M  V30 10540 C 1035.75 2.2787 3.58274 0
M  V30 10541 O 1036.78 1.96838 2.96873 0
M  V30 10542 O 1035.64 2.80734 4.68882 0
M  V30 10543 H 1032.73 0.393932 0.72715 0
M  V30 10544 H 1035.28 1.38085 0.986445 0
M  V30 10545 H 1034.05 2.9794 2.53668 0
M  V30 10546 H 1033.67 1.64839 3.6182 0
M  V30 10547 N 1034.67 -1.14067 1.0875 0
M  V30 10548 C 1035.6 -2.21385 0.74236 0
M  V30 10549 C 1036.58 -1.67833 -0.276805 0
M  V30 10550 O 1037.77 -1.93647 -0.1464 0
M  V30 10551 C 1034.9 -3.46956 0.154644 0
M  V30 10552 C 1033.85 -4.13555 1.10255 0
M  V30 10553 C 1033.18 -5.3337 0.376877 0
M  V30 10554 C 1034.48 -4.6169 2.44213 0
M  V30 10555 H 1036.17 -2.50512 1.63964 0
M  V30 10556 H 1033.72 -1.20408 0.789807 0
M  V30 10557 H 1035.67 -4.21284 -0.0988419 0
M  V30 10558 H 1034.39 -3.17203 -0.777789 0
M  V30 10559 H 1033.05 -3.41186 1.34119 0
M  V30 10560 H 1032.7 -4.99879 -0.559472 0
M  V30 10561 H 1032.4 -5.78875 1.00884 0
M  V30 10562 H 1033.92 -6.10458 0.131527 0
M  V30 10563 H 1035.34 -5.27475 2.24595 0
M  V30 10564 H 1033.74 -5.17909 3.03134 0
M  V30 10565 H 1034.81 -3.76574 3.05483 0
M  V30 10566 N 1036.15 -0.873678 -1.31166 0
M  V30 10567 C 1037.08 -0.348011 -2.30892 0
M  V30 10568 C 1038.06 0.563092 -1.60509 0
M  V30 10569 O 1039.24 0.479332 -1.88192 0
M  V30 10570 C 1036.37 0.448158 -3.44396 0
M  V30 10571 C 1035.33 -0.370179 -4.26396 0
M  V30 10572 C 1034.65 0.551903 -5.31844 0
M  V30 10573 C 1035.95 -1.60624 -4.96988 0
M  V30 10574 H 1037.65 -1.18134 -2.75109 0
M  V30 10575 H 1035.19 -0.569502 -1.3226 0
M  V30 10576 H 1037.15 0.826458 -4.13216 0
M  V30 10577 H 1035.87 1.31503 -2.98956 0
M  V30 10578 H 1034.53 -0.730472 -3.59249 0
M  V30 10579 H 1034.18 1.41616 -4.82653 0
M  V30 10580 H 1033.88 0.00823478 -5.87599 0
M  V30 10581 H 1035.4 0.926965 -6.03523 0
M  V30 10582 H 1036.82 -1.29917 -5.58386 0
M  V30 10583 H 1035.21 -2.08926 -5.62557 0
M  V30 10584 H 1036.28 -2.357 -4.23761 0
M  V30 10585 N 1037.63 1.44308 -0.633487 0
M  V30 10586 C 1038.56 2.33431 0.0568402 0
M  V30 10587 C 1039.54 1.48342 0.832386 0
M  V30 10588 O 1040.72 1.77056 0.797798 0
M  V30 10589 C 1037.85 3.31443 1.03743 0
M  V30 10590 C 1036.81 4.26368 0.373362 0
M  V30 10591 C 1036.13 5.14267 1.46403 0
M  V30 10592 C 1037.43 5.17287 -0.721876 0
M  V30 10593 H 1039.13 2.91402 -0.687388 0
M  V30 10594 H 1036.67 1.4012 -0.332009 0
M  V30 10595 H 1038.63 3.92677 1.52913 0
M  V30 10596 H 1037.35 2.71686 1.81258 0
M  V30 10597 H 1036.01 3.6647 -0.0977053 0
M  V30 10598 H 1035.66 4.50861 2.23011 0
M  V30 10599 H 1035.36 5.7859 1.02506 0
M  V30 10600 H 1036.88 5.78373 1.95748 0
M  V30 10601 H 1038.29 5.72444 -0.313181 0
M  V30 10602 H 1036.69 5.90226 -1.08413 0
M  V30 10603 H 1037.76 4.58159 -1.58804 0
M  V30 10604 N 1039.1 0.374177 1.53094 0
M  V30 10605 C 1040.05 -0.468226 2.26001 0
M  V30 10606 C 1041.02 -1.07041 1.27009 0
M  V30 10607 O 1042.21 -1.10129 1.55809 0
M  V30 10608 C 1039.35 -1.59754 3.05896 0
M  V30 10609 C 1038.46 -1.01969 4.19793 0
M  V30 10610 C 1037.59 -2.11882 4.87113 0
M  V30 10611 C 1036.63 -1.51607 5.93028 0
M  V30 10612 N 1035.77 -2.55388 6.54004 0
M  V30 10613 H 1040.61 0.159983 2.9757 0
M  V30 10614 H 1038.15 0.0907196 1.4682 0
M  V30 10615 H 1040.11 -2.26288 3.50499 0
M  V30 10616 H 1038.74 -2.19628 2.36565 0
M  V30 10617 H 1037.79 -0.244386 3.79614 0
M  V30 10618 H 1039.1 -0.539089 4.95878 0
M  V30 10619 H 1038.25 -2.86218 5.34943 0
M  V30 10620 H 1036.99 -2.63297 4.10519 0
M  V30 10621 H 1036 -0.757891 5.44551 0
M  V30 10622 H 1037.22 -1.01006 6.71546 0
M  V30 10623 H 1035.17 -3.06 5.80258 0
M  V30 10624 H 1035.09 -2.12039 7.25655 0
M  V30 10625 H 1036.35 -3.294 7.06481 0
M  V30 10626 N 1040.58 -1.57259 0.103575 0
M  V30 10627 C 1041.55 -2.13337 -0.837859 0
M  V30 10628 C 1042.55 -1.06459 -1.20512 0
M  V30 10629 O 1043.74 -1.32307 -1.13316 0
M  V30 10630 C 1040.87 -2.66093 -2.13089 0
M  V30 10631 H 1042.06 -2.97842 -0.350775 0
M  V30 10632 H 1039.61 -1.55621 -0.145511 0
M  V30 10633 H 1040.35 -1.85133 -2.66264 0
M  V30 10634 H 1040.13 -3.44244 -1.87719 0
M  V30 10635 H 1041.62 -3.09443 -2.80419 0
M  V30 10636 N 1042.06 0.170153 -1.56679 0
M  V30 10637 C 1043.02 1.19443 -1.95617 0
M  V30 10638 C 1044.02 1.37118 -0.83996 0
M  V30 10639 O 1045.21 1.34504 -1.10699 0
M  V30 10640 C 1042.35 2.55926 -2.25199 0
M  V30 10641 H 1043.54 0.86095 -2.87276 0
M  V30 10642 H 1041.09 0.412646 -1.50755 0
M  V30 10643 H 1041.83 2.94286 -1.36257 0
M  V30 10644 H 1041.61 2.44464 -3.06562 0
M  V30 10645 H 1043.1 3.29742 -2.56242 0
M  V30 10646 N 1043.54 1.5137 0.438746 0
M  V30 10647 C 1044.79 1.63969 1.1883 0
M  V30 10648 C 1045.11 0.355245 1.91228 0
M  V30 10649 O 1044.37 -0.660605 1.84213 0
M  V30 10650 C 1044.67 2.79221 2.23093 0
M  V30 10651 C 1044.33 4.18547 1.67717 0
M  V30 10652 C 1043 4.5645 1.52337 0
M  V30 10653 C 1045.35 5.05494 1.26986 0
M  V30 10654 C 1042.68 5.79007 0.946996 0
M  V30 10655 C 1045.03 6.28628 0.707785 0
M  V30 10656 C 1043.69 6.65305 0.540881 0
M  V30 10657 H 1042.96 0.600003 0.43483 0
M  V30 10658 H 1045.61 1.85398 0.479565 0
M  V30 10659 H 1043.91 2.52008 2.99999 0
M  V30 10660 H 1045.61 2.86168 2.80907 0
M  V30 10661 H 1042.2 3.88663 1.80663 0
M  V30 10662 H 1046.38 4.76818 1.37689 0
M  V30 10663 H 1041.64 6.06072 0.805432 0
M  V30 10664 H 1045.81 6.95342 0.38366 0
M  V30 10665 H 1043.44 7.60144 0.0921324 0
M  V30 10666 N 1045.02 -0.694098 1.41492 0
M  V30 10667 C 1046.26 -1.45127 1.4065 0
M  V30 10668 C 1046.59 -1.94993 0.0170289 0
M  V30 10669 O 1045.86 -1.71799 -0.941372 0
M  V30 10670 H 1044.44 -0.538493 0.51772 0
M  V30 10671 H 1047.1 -0.821441 1.76744 0
M  V30 10672 H 1046.19 -2.31372 2.0946 0
M  V30 10673 N 1046.49 -1.27344 -0.928501 0
M  V30 10674 C 1047.72 -1.16447 -1.7102 0
M  V30 10675 C 1048.14 0.278799 -1.8673 0
M  V30 10676 O 1047.49 1.18989 -1.38376 0
M  V30 10677 C 1047.55 -1.84242 -3.11026 0
M  V30 10678 O 1047.27 -3.2293 -2.96054 0
M  V30 10679 C 1048.77 -1.7946 -4.05351 0
M  V30 10680 H 1045.99 -0.404898 -0.535069 0
M  V30 10681 H 1048.53 -1.68201 -1.16313 0
M  V30 10682 H 1046.69 -1.36395 -3.62595 0
M  V30 10683 H 1047.1 -3.5667 -3.8456 0
M  V30 10684 H 1048.57 -2.31511 -5.01105 0
M  V30 10685 H 1049.05 -0.763771 -4.32508 0
M  V30 10686 H 1049.66 -2.26918 -3.59706 0
M  V30 10687 N 1047.97 1.13488 -1.09353 0
M  V30 10688 C 1048.9 2.18563 -0.69012 0
M  V30 10689 C 1049.92 1.60585 0.267651 0
M  V30 10690 O 1051.11 1.78419 0.0538176 0
M  V30 10691 C 1048.21 3.389 0.00391255 0
M  V30 10692 C 1047.38 4.2639 -0.975209 0
M  V30 10693 C 1046.44 5.25258 -0.314719 0
M  V30 10694 O 1045.46 5.6101 -0.962119 0
M  V30 10695 N 1046.67 5.72978 0.931458 0
M  V30 10696 H 1049.43 2.53788 -1.59411 0
M  V30 10697 H 1046.99 1.28803 -0.980886 0
M  V30 10698 H 1048.98 4.02112 0.45696 0
M  V30 10699 H 1047.55 3.0192 0.81014 0
M  V30 10700 H 1046.77 3.59964 -1.60684 0
M  V30 10701 H 1048.06 4.817 -1.63836 0
M  V30 10702 H 1047.46 5.46078 1.477 0
M  V30 10703 H 1046.02 6.38131 1.32784 0
M  V30 10704 N 1049.45 0.880621 1.30701 0
M  V30 10705 C 1050.41 0.349087 2.26526 0
M  V30 10706 C 1051.41 -0.505973 1.52632 0
M  V30 10707 O 1052.6 -0.313751 1.71351 0
M  V30 10708 C 1049.74 -0.503023 3.37168 0
M  V30 10709 H 1050.93 1.19516 2.75056 0
M  V30 10710 H 1048.48 0.657107 1.41816 0
M  V30 10711 H 1049.22 -1.36986 2.93948 0
M  V30 10712 H 1049 0.109389 3.91947 0
M  V30 10713 H 1050.49 -0.866845 4.08504 0
M  V30 10714 N 1050.93 -1.4397 0.641131 0
M  V30 10715 C 1052.34 -1.85267 0.230838 0
M  V30 10716 C 1052.69 -1.53659 -1.21998 0
M  V30 10717 O 1051.82 -0.979572 -1.92959 0
M  V30 10718 C 1052.41 -3.36284 0.412171 0
M  V30 10719 C 1050.97 -3.76358 0.0563004 0
M  V30 10720 C 1050.12 -2.67768 0.720809 0
M  V30 10721 H 1053.07 -1.34294 0.845624 0
M  V30 10722 H 1053.09 -3.78924 -0.345936 0
M  V30 10723 H 1052.6 -3.59258 1.46818 0
M  V30 10724 H 1050.7 -3.58997 -0.997582 0
M  V30 10725 H 1050.82 -4.76756 0.473335 0
M  V30 10726 H 1049.18 -2.54227 0.155164 0
M  V30 10727 H 1049.96 -2.93573 1.77961 0
M  V30 10728 N 1052.41 -0.382291 -1.52893 0
M  V30 10729 C 1053.68 0.259354 -1.93873 0
M  V30 10730 C 1054.06 1.64964 -1.3172 0
M  V30 10731 O 1053.41 2.23345 -0.482611 0
M  V30 10732 C 1053.62 0.292765 -3.4777 0
M  V30 10733 C 1054.97 0.525095 -4.21341 0
M  V30 10734 O 1055.99 0.373272 -3.54239 0
M  V30 10735 O 1054.85 0.822004 -5.40283 0
M  V30 10736 H 1051.95 0.159422 -0.811489 0
M  V30 10737 H 1054.49 -0.436289 -1.63996 0
M  V30 10738 H 1053.27 -0.681341 -3.85323 0
M  V30 10739 H 1052.89 1.03362 -3.8393 0
M  V30 10740 N 1053.89 1.57202 -0.111913 0
M  V30 10741 C 1055.3 1.82039 0.414591 0
M  V30 10742 C 1055.65 1.02863 1.67074 0
M  V30 10743 O 1054.77 0.263068 2.14795 0
M  V30 10744 C 1055.37 3.3019 0.758953 0
M  V30 10745 C 1053.93 3.55732 1.23012 0
M  V30 10746 C 1053.07 2.76301 0.235226 0
M  V30 10747 H 1056.02 1.55078 -0.337142 0
M  V30 10748 H 1056.05 3.44431 1.61701 0
M  V30 10749 H 1055.56 3.87788 -0.155473 0
M  V30 10750 H 1053.66 3.03483 2.16169 0
M  V30 10751 H 1053.77 4.64333 1.18034 0
M  V30 10752 H 1052.14 2.44287 0.720822 0
M  V30 10753 H 1052.92 3.36655 -0.672173 0
M  V30 10754 N 1055.36 -0.161842 1.56767 0
M  V30 10755 C 1056.61 -0.875192 1.82167 0
M  V30 10756 C 1056.93 -1.82367 0.690444 0
M  V30 10757 O 1056.2 -1.93756 -0.289023 0
M  V30 10758 H 1054.78 -0.326178 0.672024 0
M  V30 10759 H 1057.44 -0.159392 1.94247 0
M  V30 10760 H 1056.54 -1.44639 2.76561 0
M  V30 10761 N 1056.84 -1.516 -0.430713 0
M  V30 10762 C 1058.07 -1.687 -1.20644 0
M  V30 10763 C 1058.49 -0.386555 -1.84085 0
M  V30 10764 O 1057.85 0.653952 -1.69095 0
M  V30 10765 C 1057.9 -2.80887 -2.2613 0
M  V30 10766 O 1057 -2.44952 -3.31772 0
M  V30 10767 H 1056.34 -0.562289 -0.353167 0
M  V30 10768 H 1058.87 -1.98198 -0.507807 0
M  V30 10769 H 1058.88 -3.05167 -2.70809 0
M  V30 10770 H 1057.56 -3.75249 -1.79334 0
M  V30 10771 H 1056.13 -2.31267 -2.92523 0
M  V30 10772 N 1058.32 0.686584 -1.41858 0
M  V30 10773 C 1059.55 1.47519 -1.45072 0
M  V30 10774 C 1059.96 1.88709 -0.0585868 0
M  V30 10775 O 1059.32 1.57373 0.924116 0
M  V30 10776 C 1059.37 2.73195 -2.36742 0
M  V30 10777 O 1059.09 2.33736 -3.70539 0
M  V30 10778 C 1060.59 3.66861 -2.48854 0
M  V30 10779 H 1057.81 0.454307 -0.493808 0
M  V30 10780 H 1060.36 0.844612 -1.86243 0
M  V30 10781 H 1058.51 3.32468 -1.98856 0
M  V30 10782 H 1058.93 3.14809 -4.19518 0
M  V30 10783 H 1060.4 4.51801 -3.17143 0
M  V30 10784 H 1060.88 4.11961 -1.52265 0
M  V30 10785 H 1061.48 3.13486 -2.87414 0
M  V30 10786 N 1059.8 1.27835 0.921735 0
M  V30 10787 C 1060.71 1.12904 2.05645 0
M  V30 10788 C 1061.72 0.0575704 1.73905 0
M  V30 10789 O 1062.9 0.265261 1.99645 0
M  V30 10790 C 1059.96 0.783957 3.3772 0
M  V30 10791 C 1059.03 1.93694 3.8312 0
M  V30 10792 C 1058.26 1.60823 5.08893 0
M  V30 10793 O 1058.48 0.518873 5.68035 0
M  V30 10794 O 1057.42 2.44932 5.49811 0
M  V30 10795 H 1061.24 2.08143 2.21157 0
M  V30 10796 H 1058.83 1.07078 1.04185 0
M  V30 10797 H 1060.71 0.605107 4.17033 0
M  V30 10798 H 1059.38 -0.138849 3.23402 0
M  V30 10799 H 1058.29 2.17089 3.04669 0
M  V30 10800 H 1059.62 2.84016 4.0199 0
M  V30 10801 N 1061.28 -1.12907 1.09954 0
M  V30 10802 C 1062.5 -1.88679 0.861099 0
M  V30 10803 C 1062.93 -1.78853 -0.582499 0
M  V30 10804 O 1062.28 -1.13992 -1.4098 0
M  V30 10805 C 1062.33 -3.36047 1.30785 0
M  V30 10806 O 1061.44 -4.09716 0.469728 0
M  V30 10807 H 1060.78 -0.586447 0.31141 0
M  V30 10808 H 1063.31 -1.42818 1.46507 0
M  V30 10809 H 1063.32 -3.86882 1.29562 0
M  V30 10810 H 1061.99 -3.42516 2.35914 0
M  V30 10811 H 1060.57 -3.6887 0.54674 0
M  V30 10812 N 1062.75 -0.88754 -1.30232 0
M  V30 10813 C 1063.68 -0.372481 -2.3051 0
M  V30 10814 C 1064.66 0.546037 -1.61098 0
M  V30 10815 O 1065.85 0.459345 -1.88689 0
M  V30 10816 C 1062.98 0.411605 -3.44852 0
M  V30 10817 C 1061.93 -0.415383 -4.2598 0
M  V30 10818 C 1061.26 0.495463 -5.324 0
M  V30 10819 C 1062.56 -1.65886 -4.95257 0
M  V30 10820 H 1064.25 -1.21045 -2.7384 0
M  V30 10821 H 1061.8 -0.583498 -1.31648 0
M  V30 10822 H 1063.75 0.782584 -4.1407 0
M  V30 10823 H 1062.48 1.28325 -3.00334 0
M  V30 10824 H 1061.14 -0.768534 -3.58454 0
M  V30 10825 H 1060.78 1.36489 -4.84128 0
M  V30 10826 H 1060.48 -0.0540885 -5.87575 0
M  V30 10827 H 1062.01 0.862901 -6.04472 0
M  V30 10828 H 1063.42 -1.35832 -5.56976 0
M  V30 10829 H 1061.82 -2.14881 -5.60309 0
M  V30 10830 H 1062.89 -2.40181 -4.21237 0
M  V30 10831 N 1064.23 1.43628 -0.648757 0
M  V30 10832 C 1065.16 2.29045 0.0841858 0
M  V30 10833 C 1066.18 1.42262 0.791537 0
M  V30 10834 O 1067.37 1.66243 0.650039 0
M  V30 10835 C 1064.47 3.19075 1.14212 0
M  V30 10836 C 1063.64 4.34372 0.513799 0
M  V30 10837 C 1062.7 5.05307 1.46803 0
M  V30 10838 O 1061.72 5.60729 0.978346 0
M  V30 10839 N 1062.93 5.08393 2.80209 0
M  V30 10840 H 1065.69 2.9259 -0.648948 0
M  V30 10841 H 1063.25 1.54268 -0.491209 0
M  V30 10842 H 1065.24 3.63395 1.78119 0
M  V30 10843 H 1063.81 2.57161 1.77728 0
M  V30 10844 H 1063.03 3.93024 -0.304262 0
M  V30 10845 H 1064.32 5.08745 0.0749871 0
M  V30 10846 H 1063.72 4.64729 3.22557 0
M  V30 10847 H 1062.28 5.56445 3.3943 0
M  V30 10848 N 1065.71 0.390394 1.52688 0
M  V30 10849 C 1066.62 -0.451543 2.30213 0
M  V30 10850 C 1067.64 -1.07051 1.37172 0
M  V30 10851 O 1068.81 -1.07609 1.70242 0
M  V30 10852 C 1065.88 -1.56299 3.0947 0
M  V30 10853 C 1064.94 -0.969017 4.18221 0
M  V30 10854 C 1064.17 -2.0275 4.93688 0
M  V30 10855 O 1064.39 -3.24273 4.69258 0
M  V30 10856 O 1063.33 -1.64418 5.79008 0
M  V30 10857 H 1067.15 0.180042 3.03166 0
M  V30 10858 H 1064.74 0.154082 1.48603 0
M  V30 10859 H 1066.62 -2.20864 3.58883 0
M  V30 10860 H 1065.3 -2.17952 2.3933 0
M  V30 10861 H 1064.2 -0.286587 3.73001 0
M  V30 10862 H 1065.54 -0.396687 4.90599 0
M  V30 10863 N 1067.19 -1.57141 0.120249 0
M  V30 10864 C 1068.14 -2.15379 -0.829497 0
M  V30 10865 C 1069.11 -1.07913 -1.2627 0
M  V30 10866 O 1070.29 -1.35827 -1.33999 0
M  V30 10867 C 1067.43 -2.75847 -2.0737 0
M  V30 10868 C 1066.54 -3.97624 -1.68875 0
M  V30 10869 C 1065.68 -4.46175 -2.88272 0
M  V30 10870 C 1064.72 -5.60481 -2.46023 0
M  V30 10871 N 1063.85 -6.0377 -3.58337 0
M  V30 10872 H 1068.69 -2.96211 -0.326031 0
M  V30 10873 H 1066.23 -1.46341 -0.149235 0
M  V30 10874 H 1068.19 -3.09037 -2.80272 0
M  V30 10875 H 1066.82 -1.97703 -2.55174 0
M  V30 10876 H 1065.87 -3.70588 -0.858431 0
M  V30 10877 H 1067.18 -4.80512 -1.33827 0
M  V30 10878 H 1066.34 -4.8128 -3.69397 0
M  V30 10879 H 1065.08 -3.6224 -3.26548 0
M  V30 10880 H 1064.08 -5.24979 -1.63331 0
M  V30 10881 H 1065.31 -6.46184 -2.08863 0
M  V30 10882 H 1063.25 -5.22776 -3.96284 0
M  V30 10883 H 1063.17 -6.81517 -3.27217 0
M  V30 10884 H 1064.44 -6.43514 -4.39898 0
M  V30 10885 N 1068.67 0.153526 -1.5685 0
M  V30 10886 C 1070.08 0.714247 -1.72498 0
M  V30 10887 C 1070.43 1.81968 -0.733621 0
M  V30 10888 O 1069.55 2.16163 0.10118 0
M  V30 10889 C 1070.15 1.30238 -3.12767 0
M  V30 10890 C 1068.71 1.80974 -3.30038 0
M  V30 10891 C 1067.85 0.695638 -2.68433 0
M  V30 10892 H 1070.81 -0.0720733 -1.58536 0
M  V30 10893 H 1070.83 2.17217 -3.12405 0
M  V30 10894 H 1070.34 0.497605 -3.84897 0
M  V30 10895 H 1068.44 2.64039 -2.62895 0
M  V30 10896 H 1068.55 1.94294 -4.37934 0
M  V30 10897 H 1066.92 1.12061 -2.28723 0
M  V30 10898 H 1067.7 -0.0975885 -3.43161 0
M  V30 10899 N 1070.14 1.51827 0.422667 0
M  V30 10900 C 1071.08 1.68901 1.53453 0
M  V30 10901 C 1072.06 0.536549 1.53492 0
M  V30 10902 O 1073.24 0.762226 1.72402 0
M  V30 10903 C 1070.37 1.71599 2.92013 0
M  V30 10904 C 1069.41 2.92984 3.0994 0
M  V30 10905 S 1070.25 4.53559 2.84683 0
M  V30 10906 C 1071.4 4.59024 4.25498 0
M  V30 10907 H 1071.63 2.62943 1.38739 0
M  V30 10908 H 1069.17 1.41695 0.613347 0
M  V30 10909 H 1071.13 1.73838 3.71874 0
M  V30 10910 H 1069.79 0.787083 3.04079 0
M  V30 10911 H 1068.98 2.91315 4.1128 0
M  V30 10912 H 1068.58 2.88562 2.37924 0
M  V30 10913 H 1070.87 4.35567 5.18929 0
M  V30 10914 H 1071.82 5.60904 4.32195 0
M  V30 10915 H 1072.22 3.88193 4.09837 0
M  V30 10916 N 1071.62 -0.679052 1.4222 0
M  V30 10917 C 1072.53 -1.82221 1.47759 0
M  V30 10918 C 1073.55 -1.70092 0.3667 0
M  V30 10919 O 1074.72 -1.91718 0.616957 0
M  V30 10920 C 1071.79 -3.18332 1.37351 0
M  V30 10921 C 1070.85 -3.42449 2.58896 0
M  V30 10922 C 1070.08 -4.72067 2.48976 0
M  V30 10923 O 1070.31 -5.49683 1.5233 0
M  V30 10924 O 1069.24 -4.97333 3.39033 0
M  V30 10925 H 1073.07 -1.80504 2.44238 0
M  V30 10926 H 1070.65 -0.834251 1.23938 0
M  V30 10927 H 1072.53 -3.99563 1.33893 0
M  V30 10928 H 1071.21 -3.20696 0.439965 0
M  V30 10929 H 1070.12 -2.61083 2.6793 0
M  V30 10930 H 1071.45 -3.44912 3.51136 0
M  V30 10931 N 1073.1 -1.28322 -0.914942 0
M  V30 10932 C 1074.35 -1.14785 -1.65853 0
M  V30 10933 C 1074.66 0.303135 -1.93237 0
M  V30 10934 O 1075.87 0.559606 -2.6567 0
M  V30 10935 C 1074.32 -2.00652 -2.98776 0
M  V30 10936 C 1073.93 -3.50483 -2.79044 0
M  V30 10937 C 1075.68 -1.95798 -3.76648 0
M  V30 10938 C 1073.58 -4.28505 -4.076 0
M  V30 10939 H 1072.51 -0.425987 -0.622135 0
M  V30 10940 H 1075.16 -1.52844 -1.01543 0
M  V30 10941 H 1073.55 -1.55447 -3.64214 0
M  V30 10942 H 1074.72 -4.03636 -2.22293 0
M  V30 10943 H 1073.04 -3.5685 -2.14586 0
M  V30 10944 H 1075.63 -2.51359 -4.71935 0
M  V30 10945 H 1075.98 -0.934455 -4.05677 0
M  V30 10946 H 1076.51 -2.38965 -3.18026 0
M  V30 10947 H 1073.25 -5.31433 -3.83744 0
M  V30 10948 H 1072.77 -3.80125 -4.63966 0
M  V30 10949 H 1074.45 -4.3836 -4.75867 0
M  V30 10950 N 1074.58 1.12322 -1.10551 0
M  V30 10951 C 1075.54 2.16273 -0.758844 0
M  V30 10952 C 1076.54 1.59325 0.217294 0
M  V30 10953 O 1077.73 1.74199 -0.00601346 0
M  V30 10954 C 1074.86 3.40674 -0.124238 0
M  V30 10955 H 1076.06 2.48454 -1.6796 0
M  V30 10956 H 1073.61 1.2735 -0.906188 0
M  V30 10957 H 1074.34 3.14094 0.807194 0
M  V30 10958 H 1074.13 3.83284 -0.826772 0
M  V30 10959 H 1075.62 4.17474 0.102502 0
M  V30 10960 N 1076.06 0.894434 1.2976 0
M  V30 10961 C 1077.47 0.566892 1.77885 0
M  V30 10962 C 1077.82 -0.917289 1.73437 0
M  V30 10963 O 1076.94 -1.71707 1.31703 0
M  V30 10964 C 1077.54 1.02227 3.2301 0
M  V30 10965 C 1076.1 0.745978 3.68934 0
M  V30 10966 C 1075.24 1.19993 2.49994 0
M  V30 10967 H 1078.2 1.0777 1.16496 0
M  V30 10968 H 1078.22 0.355281 3.78838 0
M  V30 10969 H 1077.73 2.1025 3.26215 0
M  V30 10970 H 1075.83 -0.321866 3.71207 0
M  V30 10971 H 1075.94 1.34017 4.59974 0
M  V30 10972 H 1074.31 0.619047 2.47063 0
M  V30 10973 H 1075.09 2.28811 2.55931 0
M  V30 10974 N 1077.53 -1.43282 0.656365 0
M  V30 10975 C 1078.76 -2.06641 0.177245 0
M  V30 10976 C 1079.18 -1.48893 -1.14946 0
M  V30 10977 O 1078.54 -0.600099 -1.7108 0
M  V30 10978 C 1078.59 -3.60453 0.10299 0
M  V30 10979 O 1077.69 -4.01687 -0.933895 0
M  V30 10980 H 1077.04 -0.656978 0.096314 0
M  V30 10981 H 1079.57 -1.83733 0.900178 0
M  V30 10982 H 1079.58 -4.07923 -0.079291 0
M  V30 10983 H 1078.25 -4.01861 1.07147 0
M  V30 10984 H 1076.83 -3.65801 -0.724148 0
M  V30 10985 N 1079.01 -0.398486 -1.52479 0
M  V30 10986 C 1079.98 0.420206 -2.25315 0
M  V30 10987 C 1080.98 0.982559 -1.27289 0
M  V30 10988 O 1082.17 0.863113 -1.51314 0
M  V30 10989 C 1079.3 1.59045 -3.01525 0
M  V30 10990 H 1080.49 -0.217599 -2.9911 0
M  V30 10991 H 1078.04 -0.150784 -1.55571 0
M  V30 10992 H 1078.78 2.26542 -2.32054 0
M  V30 10993 H 1078.56 1.19382 -3.73484 0
M  V30 10994 H 1080.05 2.16984 -3.56802 0
M  V30 10995 N 1080.49 1.57075 -0.12858 0
M  V30 10996 C 1081.74 1.95134 0.526046 0
M  V30 10997 C 1082.06 1.01337 1.66601 0
M  V30 10998 O 1081.33 0.0714361 1.9577 0
M  V30 10999 H 1079.91 0.720468 0.19732 0
M  V30 11000 H 1082.57 1.93874 -0.199767 0
M  V30 11001 H 1081.67 2.98406 0.914332 0
M  V30 11002 N 1081.97 -0.145205 1.5693 0
M  V30 11003 C 1083.22 -0.857516 1.83447 0
M  V30 11004 C 1083.54 -1.81088 0.709739 0
M  V30 11005 O 1082.8 -1.9337 -0.301097 0
M  V30 11006 C 1083.1 -1.66391 3.16305 0
M  V30 11007 C 1082.76 -0.857171 4.42678 0
M  V30 11008 C 1081.43 -0.634611 4.76997 0
M  V30 11009 C 1083.78 -0.293105 5.20375 0
M  V30 11010 C 1081.11 0.162693 5.86474 0
M  V30 11011 C 1083.46 0.491248 6.3069 0
M  V30 11012 C 1082.12 0.724368 6.63558 0
M  V30 11013 H 1081.39 -0.313787 0.671281 0
M  V30 11014 H 1084.04 -0.121074 1.91117 0
M  V30 11015 H 1082.34 -2.47051 3.04094 0
M  V30 11016 H 1084.04 -2.21855 3.34038 0
M  V30 11017 H 1080.63 -1.0407 4.15773 0
M  V30 11018 H 1084.82 -0.452326 4.94234 0
M  V30 11019 H 1080.07 0.352788 6.10381 0
M  V30 11020 H 1084.25 0.935449 6.90089 0
M  V30 11021 H 1081.87 1.34403 7.48224 0
M  V30 11022 N 1083.45 -1.52049 -0.414609 0
M  V30 11023 C 1084.7 -1.65511 -1.15977 0
M  V30 11024 C 1085.02 -0.384703 -1.91168 0
M  V30 11025 O 1084.29 0.600247 -1.86477 0
M  V30 11026 H 1082.87 -0.610039 -0.431116 0
M  V30 11027 H 1085.53 -1.8907 -0.473139 0
M  V30 11028 H 1084.62 -2.4936 -1.87686 0
M  V30 11029 N 1084.93 0.6715 -1.42579 0
M  V30 11030 C 1086.17 1.42871 -1.42941 0
M  V30 11031 C 1086.49 1.94941 -0.0480483 0
M  V30 11032 O 1085.76 1.73275 0.913921 0
M  V30 11033 H 1084.34 0.530189 -0.526221 0
M  V30 11034 H 1087.01 0.793219 -1.78028 0
M  V30 11035 H 1086.1 2.2801 -2.13114 0
M  V30 11036 N 1086.4 1.28806 0.908124 0
M  V30 11037 C 1087.63 1.19271 1.69674 0
M  V30 11038 C 1088.05 -0.244403 1.86505 0
M  V30 11039 O 1087.41 -1.17668 1.37927 0
M  V30 11040 C 1087.46 1.9023 3.06341 0
M  V30 11041 O 1086.56 1.2136 3.94139 0
M  V30 11042 H 1085.9 0.413738 0.519343 0
M  V30 11043 H 1088.43 1.70227 1.13508 0
M  V30 11044 H 1088.44 1.98356 3.56537 0
M  V30 11045 H 1087.12 2.94762 2.93408 0
M  V30 11046 H 1085.7 1.21435 3.52573 0
M  V30 11047 N 1087.88 -1.11734 1.11145 0
M  V30 11048 C 1088.81 -2.1976 0.789152 0
M  V30 11049 C 1089.79 -1.68382 -0.241143 0
M  V30 11050 O 1090.98 -1.93914 -0.105292 0
M  V30 11051 C 1088.11 -3.46549 0.228204 0
M  V30 11052 C 1087.06 -4.11123 1.19002 0
M  V30 11053 C 1086.39 -5.32451 0.489928 0
M  V30 11054 C 1087.69 -4.56406 2.53951 0
M  V30 11055 H 1089.38 -2.46978 1.69241 0
M  V30 11056 H 1086.93 -1.18705 0.81517 0
M  V30 11057 H 1088.88 -4.21399 -0.00945908 0
M  V30 11058 H 1087.6 -3.18782 -0.71033 0
M  V30 11059 H 1086.26 -3.38264 1.41326 0
M  V30 11060 H 1085.91 -5.00953 -0.453315 0
M  V30 11061 H 1085.61 -5.76605 1.1314 0
M  V30 11062 H 1087.14 -6.10042 0.260984 0
M  V30 11063 H 1088.55 -5.22592 2.35733 0
M  V30 11064 H 1086.95 -5.11363 3.14051 0
M  V30 11065 H 1088.02 -3.7001 3.13402 0
M  V30 11066 N 1089.36 -0.901303 -1.29284 0
M  V30 11067 C 1090.31 -0.351562 -2.25273 0
M  V30 11068 C 1091.29 0.529276 -1.51946 0
M  V30 11069 O 1092.49 0.371031 -1.73068 0
M  V30 11070 C 1089.61 0.41843 -3.4074 0
M  V30 11071 C 1088.7 -0.47742 -4.21404 0
M  V30 11072 N 1089.09 -1.58537 -4.80312 0
M  V30 11073 C 1087.39 -0.275504 -4.45148 0
M  V30 11074 C 1088.09 -2.14041 -5.40889 0
M  V30 11075 N 1087.07 -1.43324 -5.24365 0
M  V30 11076 H 1090.87 -1.1979 -2.68379 0
M  V30 11077 H 1088.38 -0.752538 -1.43912 0
M  V30 11078 H 1090.38 0.829022 -4.08574 0
M  V30 11079 H 1089.04 1.26201 -2.99171 0
M  V30 11080 H 1090.05 -1.96809 -4.79047 0
M  V30 11081 H 1086.73 0.529581 -4.14128 0
M  V30 11082 H 1088.12 -3.07173 -5.97574 0
M  V30 11083 N 1090.84 1.42931 -0.663954 0
M  V30 11084 C 1092.25 1.84877 -0.260283 0
M  V30 11085 C 1092.6 1.5558 1.19538 0
M  V30 11086 O 1091.72 1.01015 1.91377 0
M  V30 11087 C 1092.32 3.35585 -0.465618 0
M  V30 11088 C 1090.88 3.76221 -0.116169 0
M  V30 11089 C 1090.03 2.66587 -0.763317 0
M  V30 11090 H 1092.98 1.32932 -0.866882 0
M  V30 11091 H 1093 3.79427 0.285608 0
M  V30 11092 H 1092.51 3.56877 -1.52515 0
M  V30 11093 H 1090.61 3.60539 0.940342 0
M  V30 11094 H 1090.72 4.75943 -0.549123 0
M  V30 11095 H 1089.09 2.53948 -0.19559 0
M  V30 11096 H 1089.87 2.90704 -1.82609 0
M  V30 11097 N 1092.32 0.406567 1.52266 0
M  V30 11098 C 1093.56 -0.169717 2.01386 0
M  V30 11099 C 1093.88 -1.45864 1.29417 0
M  V30 11100 O 1093.15 -1.9136 0.419327 0
M  V30 11101 H 1091.73 -0.0657075 0.744105 0
M  V30 11102 H 1094.4 0.542221 1.87206 0
M  V30 11103 H 1093.49 -0.367659 3.09927 0
M  V30 11104 N 1093.79 -1.57004 0.136909 0
M  V30 11105 C 1094.76 -2.15066 -0.792419 0
M  V30 11106 C 1095.76 -1.08991 -1.18226 0
M  V30 11107 O 1096.95 -1.34681 -1.10484 0
M  V30 11108 C 1094.08 -2.70554 -2.07397 0
M  V30 11109 H 1095.27 -2.98519 -0.28752 0
M  V30 11110 H 1092.83 -1.55895 -0.112469 0
M  V30 11111 H 1093.56 -1.90739 -2.62277 0
M  V30 11112 H 1093.35 -3.48149 -1.80374 0
M  V30 11113 H 1094.84 -3.15322 -2.73792 0
M  V30 11114 N 1095.27 0.136881 -1.57004 0
M  V30 11115 C 1096.69 0.489856 -1.51897 0
M  V30 11116 C 1096.89 1.82833 -0.847009 0
M  V30 11117 O 1095.94 2.48952 -0.421792 0
M  V30 11118 C 1097.26 0.490831 -2.96667 0
M  V30 11119 C 1098.81 0.575639 -3.07661 0
M  V30 11120 C 1099.28 0.607178 -4.53957 0
M  V30 11121 N 1100.77 0.66912 -4.58342 0
M  V30 11122 C 1101.51 0.714675 -5.68929 0
M  V30 11123 N 1101 0.718959 -6.89059 0
M  V30 11124 N 1102.8 0.756326 -5.56988 0
M  V30 11125 H 1094.95 -0.740347 -1.99079 0
M  V30 11126 H 1097.21 -0.271116 -0.908405 0
M  V30 11127 H 1096.92 -0.424648 -3.49127 0
M  V30 11128 H 1096.79 1.32512 -3.53158 0
M  V30 11129 H 1099.18 1.48154 -2.55215 0
M  V30 11130 H 1099.26 -0.285991 -2.54196 0
M  V30 11131 H 1098.9 -0.294604 -5.07045 0
M  V30 11132 H 1098.83 1.48544 -5.05215 0
M  V30 11133 H 1101.32 0.672697 -3.71864 0
M  V30 11134 H 1101.64 0.755848 -7.69095 0
M  V30 11135 H 1099.98 0.686671 -6.91599 0
M  V30 11136 H 1103.17 0.750219 -4.62049 0
M  V30 11137 H 1103.34 0.788363 -6.43186 0
M  V30 11138 N 1096.75 1.52266 0.40654 0
M  V30 11139 C 1097.71 1.75168 1.47814 0
M  V30 11140 C 1098.71 0.621575 1.48301 0
M  V30 11141 O 1099.9 0.889476 1.4978 0
M  V30 11142 C 1097.04 1.83642 2.87208 0
M  V30 11143 H 1098.23 2.70834 1.28798 0
M  V30 11144 H 1095.78 1.42722 0.637196 0
M  V30 11145 H 1096.52 0.898994 3.1159 0
M  V30 11146 H 1096.3 2.65801 2.88257 0
M  V30 11147 H 1097.79 2.03093 3.64888 0
M  V30 11148 N 1098.23 -0.663929 1.42933 0
M  V30 11149 C 1099.48 -1.42111 1.43697 0
M  V30 11150 C 1099.8 -1.94913 0.0583858 0
M  V30 11151 O 1099.07 -1.73757 -0.904719 0
M  V30 11152 H 1097.65 -0.527391 0.529026 0
M  V30 11153 H 1100.31 -0.783766 1.78446 0
M  V30 11154 H 1099.41 -2.26877 2.1432 0
M  V30 11155 N 1099.71 -1.29285 -0.901281 0
M  V30 11156 C 1100.95 -1.16934 -1.64836 0
M  V30 11157 C 1101.28 0.279826 -1.92982 0
M  V30 11158 O 1100.55 1.19179 -1.55478 0
M  V30 11159 H 1099.13 -0.429768 -0.61099 0
M  V30 11160 H 1101.79 -1.62189 -1.08077 0
M  V30 11161 H 1100.88 -1.71821 -2.60545 0
M  V30 11162 N 1101.18 1.11143 -1.11736 0
M  V30 11163 C 1102.41 1.86745 -0.890727 0
M  V30 11164 C 1102.83 1.80315 0.55964 0
M  V30 11165 O 1102.18 1.18663 1.38656 0
M  V30 11166 C 1102.24 3.35436 -1.34779 0
M  V30 11167 O 1101.96 3.41738 -2.74129 0
M  V30 11168 C 1103.46 4.27935 -1.15702 0
M  V30 11169 H 1100.68 0.59044 -0.318781 0
M  V30 11170 H 1103.22 1.40549 -1.48547 0
M  V30 11171 H 1101.38 3.79125 -0.796425 0
M  V30 11172 H 1101.79 4.34347 -2.94012 0
M  V30 11173 H 1103.26 5.30494 -1.52579 0
M  V30 11174 H 1103.74 4.39093 -0.0968735 0
M  V30 11175 H 1104.35 3.90042 -1.69551 0
M  V30 11176 N 1102.66 0.908147 1.28804 0
M  V30 11177 C 1103.89 0.553431 1.9988 0
M  V30 11178 C 1104.31 -0.856714 1.67458 0
M  V30 11179 O 1103.67 -1.57163 0.903849 0
M  V30 11180 C 1103.72 0.762688 3.52442 0
M  V30 11181 O 1102.82 -0.180924 4.12003 0
M  V30 11182 H 1102.16 0.215237 0.628147 0
M  V30 11183 H 1104.69 1.22205 1.64095 0
M  V30 11184 H 1104.7 0.670612 4.02451 0
M  V30 11185 H 1103.38 1.79071 3.75375 0
M  V30 11186 H 1101.96 -0.0405897 3.72878 0
M  V30 11187 N 1104.14 -1.42577 0.671525 0
M  V30 11188 C 1105.37 -2.06442 0.199152 0
M  V30 11189 C 1105.79 -1.50104 -1.1336 0
M  V30 11190 O 1105.15 -0.618211 -1.70434 0
M  V30 11191 C 1105.2 -3.60323 0.141215 0
M  V30 11192 O 1104.3 -4.02655 -0.891238 0
M  V30 11193 H 1103.64 -0.655919 0.103277 0
M  V30 11194 H 1106.17 -1.82768 0.919614 0
M  V30 11195 H 1106.18 -4.07984 -0.0360209 0
M  V30 11196 H 1104.86 -4.00702 1.11403 0
M  V30 11197 H 1103.43 -3.66549 -0.685309 0
M  V30 11198 N 1105.62 -0.414636 -1.52048 0
M  V30 11199 C 1107.03 0.0537107 -1.86623 0
M  V30 11200 C 1107.38 1.43955 -1.3331 0
M  V30 11201 O 1106.51 2.05616 -0.674606 0
M  V30 11202 C 1107.1 0.104241 -3.3864 0
M  V30 11203 C 1105.66 0.516936 -3.72833 0
M  V30 11204 C 1104.81 -0.305042 -2.75617 0
M  V30 11205 H 1107.76 -0.631469 -1.45596 0
M  V30 11206 H 1107.78 0.918395 -3.6925 0
M  V30 11207 H 1107.29 -0.904523 -3.77412 0
M  V30 11208 H 1105.39 1.53214 -3.39641 0
M  V30 11209 H 1105.5 0.2575 -4.78408 0
M  V30 11210 H 1103.87 0.233416 -2.53628 0
M  V30 11211 H 1104.65 -1.31226 -3.1723 0
M  V30 11212 N 1107.1 1.56929 -0.145233 0
M  V30 11213 C 1108.32 2.00864 0.516564 0
M  V30 11214 C 1108.75 1.02466 1.57741 0
M  V30 11215 O 1108.1 0.000145439 1.813 0
M  V30 11216 C 1108.15 3.43552 1.09563 0
M  V30 11217 O 1107.26 3.4815 2.21055 0
M  V30 11218 H 1106.6 0.651835 0.126521 0
M  V30 11219 H 1109.13 2.0317 -0.241445 0
M  V30 11220 H 1109.14 3.82316 1.42473 0
M  V30 11221 H 1107.81 4.14677 0.318749 0
M  V30 11222 H 1106.39 3.21228 1.89387 0
M  V30 11223 N 1108.58 -0.128553 1.57075 0
M  V30 11224 C 1109.99 -0.686713 1.73612 0
M  V30 11225 C 1110.34 -1.80778 0.762478 0
M  V30 11226 O 1109.46 -2.16297 -0.0667779 0
M  V30 11227 C 1110.06 -1.25246 3.148 0
M  V30 11228 C 1108.62 -1.757 3.32876 0
M  V30 11229 C 1107.76 -0.652844 2.69506 0
M  V30 11230 H 1110.71 0.0972859 1.58402 0
M  V30 11231 H 1110.74 -2.1222 3.15821 0
M  V30 11232 H 1110.25 -0.436308 3.8564 0
M  V30 11233 H 1108.35 -2.59824 2.67063 0
M  V30 11234 H 1108.46 -1.87302 4.4097 0
M  V30 11235 H 1106.83 -1.08408 2.30477 0
M  V30 11236 H 1107.61 0.15217 3.42963 0
M  V30 11237 N 1110.05 -1.5248 -0.398459 0
M  V30 11238 C 1111.3 -1.67309 -1.1461 0
M  V30 11239 C 1111.63 -0.407095 -1.89885 0
M  V30 11240 O 1110.91 0.594834 -1.85181 0
M  V30 11241 C 1111.19 -2.90204 -2.13198 0
M  V30 11242 C 1111.04 -4.26881 -1.4175 0
M  V30 11243 C 1112.36 -3.08634 -3.13741 0
M  V30 11244 H 1109.48 -0.608853 -0.415292 0
M  V30 11245 H 1112.12 -1.85057 -0.430573 0
M  V30 11246 H 1110.27 -2.75204 -2.74218 0
M  V30 11247 H 1111.95 -4.53631 -0.837676 0
M  V30 11248 H 1110.19 -4.27793 -0.719387 0
M  V30 11249 H 1110.86 -5.08939 -2.1374 0
M  V30 11250 H 1113.34 -3.22603 -2.62805 0
M  V30 11251 H 1112.21 -3.96117 -3.79977 0
M  V30 11252 H 1112.47 -2.22425 -3.82073 0
M  V30 11253 N 1111.53 0.65634 -1.43283 0
M  V30 11254 C 1112.78 1.41837 -1.44949 0
M  V30 11255 C 1113.11 1.94065 -0.0723212 0
M  V30 11256 O 1112.39 1.72092 0.906346 0
M  V30 11257 C 1112.67 2.60206 -2.48927 0
M  V30 11258 C 1112.52 2.1349 -3.95907 0
M  V30 11259 C 1113.84 3.62421 -2.49678 0
M  V30 11260 H 1110.96 0.514398 -0.527792 0
M  V30 11261 H 1113.6 0.74435 -1.74813 0
M  V30 11262 H 1111.75 3.17708 -2.23592 0
M  V30 11263 H 1113.42 1.61012 -4.32288 0
M  V30 11264 H 1111.67 1.4489 -4.08888 0
M  V30 11265 H 1112.34 2.98596 -4.64268 0
M  V30 11266 H 1114.81 3.14671 -2.72252 0
M  V30 11267 H 1113.69 4.42798 -3.24378 0
M  V30 11268 H 1113.95 4.14802 -1.52944 0
M  V30 11269 N 1113.01 1.29761 0.894412 0
M  V30 11270 C 1114.26 1.18039 1.64539 0
M  V30 11271 C 1114.58 -0.26697 1.92659 0
M  V30 11272 O 1113.84 -1.20865 1.53916 0
M  V30 11273 C 1114.14 1.94458 2.99868 0
M  V30 11274 C 1113.8 3.44143 2.91336 0
M  V30 11275 C 1112.47 3.84963 2.88716 0
M  V30 11276 C 1114.82 4.39503 2.80154 0
M  V30 11277 C 1112.15 5.19451 2.72741 0
M  V30 11278 C 1114.5 5.74088 2.65718 0
M  V30 11279 C 1113.16 6.14159 2.61467 0
M  V30 11280 H 1112.43 0.431936 0.60209 0
M  V30 11281 H 1115.08 1.60758 1.04063 0
M  V30 11282 H 1113.38 1.44346 3.64241 0
M  V30 11283 H 1115.08 1.82788 3.56917 0
M  V30 11284 H 1111.67 3.11699 2.9418 0
M  V30 11285 H 1115.86 4.08915 2.81251 0
M  V30 11286 H 1111.11 5.49602 2.67858 0
M  V30 11287 H 1115.29 6.47625 2.56038 0
M  V30 11288 H 1112.91 7.18317 2.48847 0
M  V30 11289 N 1114.49 -1.10549 1.12324 0
M  V30 11290 C 1115.72 -1.8627 0.900618 0
M  V30 11291 C 1116.13 -1.80609 -0.550069 0
M  V30 11292 O 1115.49 -1.19396 -1.38025 0
M  V30 11293 C 1115.54 -3.34716 1.36556 0
M  V30 11294 O 1115.26 -3.40279 2.75938 0
M  V30 11295 C 1116.76 -4.27315 1.17969 0
M  V30 11296 H 1113.98 -0.588741 0.321908 0
M  V30 11297 H 1116.52 -1.39759 1.49291 0
M  V30 11298 H 1114.68 -3.78697 0.81652 0
M  V30 11299 H 1115.09 -4.32781 2.96312 0
M  V30 11300 H 1116.57 -5.29677 1.55391 0
M  V30 11301 H 1117.04 -4.39036 0.120158 0
M  V30 11302 H 1117.65 -3.89137 1.71617 0
M  V30 11303 N 1115.97 -0.914965 -1.28321 0
M  V30 11304 C 1117.21 -0.549562 -1.95212 0
M  V30 11305 C 1117.54 0.904658 -1.71842 0
M  V30 11306 O 1116.82 1.64354 -1.04009 0
M  V30 11307 C 1117.1 -0.860927 -3.49657 0
M  V30 11308 C 1116.96 -2.36797 -3.82423 0
M  V30 11309 C 1118.27 -0.357926 -4.38642 0
M  V30 11310 H 1115.39 -0.201136 -0.709023 0
M  V30 11311 H 1118.04 -1.14443 -1.51667 0
M  V30 11312 H 1116.19 -0.354665 -3.86878 0
M  V30 11313 H 1117.86 -2.94494 -3.55065 0
M  V30 11314 H 1116.1 -2.82245 -3.29424 0
M  V30 11315 H 1116.77 -2.53637 -4.90278 0
M  V30 11316 H 1119.25 -0.791636 -4.085 0
M  V30 11317 H 1118.12 -0.604855 -5.45557 0
M  V30 11318 H 1118.38 0.741775 -4.35833 0
M  V30 11319 N 1117.44 1.42219 -0.679077 0
M  V30 11320 C 1118.69 2.01081 -0.202718 0
M  V30 11321 C 1119.01 1.53986 1.19639 0
M  V30 11322 O 1118.28 0.763359 1.80415 0
M  V30 11323 H 1116.86 0.743526 -0.0719547 0
M  V30 11324 H 1119.52 1.74077 -0.876544 0
M  V30 11325 H 1118.62 3.11411 -0.207314 0
M  V30 11326 N 1118.92 0.422693 1.51826 0
M  V30 11327 C 1120.15 -0.15017 2.06856 0
M  V30 11328 C 1120.57 -1.36946 1.28948 0
M  V30 11329 O 1119.93 -1.78393 0.32338 0
M  V30 11330 C 1119.98 -0.465563 3.57582 0
M  V30 11331 O 1119.08 -1.55442 3.81984 0
M  V30 11332 H 1118.42 -0.00827931 0.663948 0
M  V30 11333 H 1120.95 0.599806 1.95611 0
M  V30 11334 H 1120.96 -0.720279 4.01592 0
M  V30 11335 H 1119.64 0.425679 4.13716 0
M  V30 11336 H 1118.21 -1.29081 3.49846 0
M  V30 11337 N 1120.4 -1.5685 0.153553 0
M  V30 11338 C 1121.81 -1.83074 -0.36618 0
M  V30 11339 C 1122.16 -1.07257 -1.64288 0
M  V30 11340 O 1121.29 -0.319925 -2.14022 0
M  V30 11341 C 1121.88 -3.32086 -0.671142 0
M  V30 11342 C 1120.44 -3.58868 -1.13537 0
M  V30 11343 C 1119.59 -2.76827 -0.161887 0
M  V30 11344 H 1122.54 -1.54129 0.378139 0
M  V30 11345 H 1122.56 -3.48598 -1.52512 0
M  V30 11346 H 1122.07 -3.8724 0.258234 0
M  V30 11347 H 1120.17 -3.09107 -2.08047 0
M  V30 11348 H 1120.29 -4.67299 -1.05682 0
M  V30 11349 H 1118.65 -2.46112 -0.6558 0
M  V30 11350 H 1119.43 -3.34755 0.761195 0
M  V30 11351 N 1121.88 0.120221 -1.57141 0
M  V30 11352 C 1123.29 0.677497 -1.73974 0
M  V30 11353 C 1123.64 1.80371 -0.772055 0
M  V30 11354 O 1122.76 2.16329 0.0553062 0
M  V30 11355 C 1123.36 1.23575 -3.1546 0
M  V30 11356 C 1121.92 1.73933 -3.33803 0
M  V30 11357 C 1121.07 0.638542 -2.69848 0
M  V30 11358 H 1124.02 -0.105685 -1.58348 0
M  V30 11359 H 1124.04 2.10542 -3.16942 0
M  V30 11360 H 1123.55 0.415851 -3.85866 0
M  V30 11361 H 1121.65 2.58404 -2.68437 0
M  V30 11362 H 1121.76 1.84961 -4.41957 0
M  V30 11363 H 1120.13 1.07185 -2.31049 0
M  V30 11364 H 1120.91 -0.170356 -3.42877 0
M  V30 11365 N 1123.36 1.52689 0.390367 0
M  V30 11366 C 1124.58 1.71839 1.16129 0
M  V30 11367 C 1125.01 0.435226 1.82996 0
M  V30 11368 O 1124.36 -0.60889 1.70769 0
M  V30 11369 C 1124.41 2.86784 2.18603 0
M  V30 11370 O 1123.52 2.53662 3.25161 0
M  V30 11371 H 1122.86 0.571455 0.338135 0
M  V30 11372 H 1125.39 1.99475 0.45508 0
M  V30 11373 H 1125.4 3.12239 2.62622 0
M  V30 11374 H 1124.07 3.79872 1.69322 0
M  V30 11375 H 1122.65 2.38942 2.86289 0
M  V30 11376 N 1124.83 -0.648732 1.43629 0
M  V30 11377 C 1126.08 -1.40579 1.45196 0
M  V30 11378 C 1126.4 -1.9484 0.0790556 0
M  V30 11379 O 1125.67 -1.74707 -0.886239 0
M  V30 11380 H 1124.25 -0.52175 0.53459 0
M  V30 11381 H 1126.92 -0.764796 1.79268 0
M  V30 11382 H 1126.01 -2.24591 2.16715 0
M  V30 11383 N 1126.31 -1.30234 -0.887518 0
M  V30 11384 C 1127.54 -1.21955 -1.67755 0
M  V30 11385 C 1127.96 0.214701 -1.86871 0
M  V30 11386 O 1127.32 1.15459 -1.39782 0
M  V30 11387 C 1127.37 -1.95079 -3.03276 0
M  V30 11388 O 1126.47 -1.27615 -3.92158 0
M  V30 11389 H 1125.81 -0.421948 -0.512695 0
M  V30 11390 H 1128.34 -1.72011 -1.10785 0
M  V30 11391 H 1128.35 -2.04004 -3.53336 0
M  V30 11392 H 1127.03 -2.99392 -2.88682 0
M  V30 11393 H 1125.61 -1.27029 -3.50597 0
M  V30 11394 N 1127.79 1.09952 -1.12909 0
M  V30 11395 C 1129.02 1.8579 -0.910483 0
M  V30 11396 C 1129.43 1.80898 0.540484 0
M  V30 11397 O 1128.79 1.20126 1.3739 0
M  V30 11398 C 1128.84 3.33987 -1.38329 0
M  V30 11399 O 1128.56 3.38811 -2.77739 0
M  V30 11400 C 1130.06 4.26683 -1.20234 0
M  V30 11401 H 1127.28 0.587026 -0.325025 0
M  V30 11402 H 1129.83 1.38965 -1.5003 0
M  V30 11403 H 1127.98 3.78259 -0.836592 0
M  V30 11404 H 1128.4 4.31204 -2.98603 0
M  V30 11405 H 1129.87 5.28846 -1.58197 0
M  V30 11406 H 1130.35 4.38966 -0.14344 0
M  V30 11407 H 1130.95 3.88221 -1.73679 0
M  V30 11408 N 1129.27 0.921757 1.27833 0
M  V30 11409 C 1130.68 0.604496 1.76643 0
M  V30 11410 C 1131.03 -0.880294 1.75343 0
M  V30 11411 O 1130.16 -1.68875 1.35315 0
M  V30 11412 C 1130.75 1.09055 3.20768 0
M  V30 11413 C 1129.31 0.824066 3.67268 0
M  V30 11414 C 1128.46 1.25269 2.47392 0
M  V30 11415 H 1131.41 1.10217 1.14184 0
M  V30 11416 H 1131.43 0.435558 3.77999 0
M  V30 11417 H 1130.94 2.17122 3.21682 0
M  V30 11418 H 1129.04 -0.243055 3.71806 0
M  V30 11419 H 1129.15 1.43743 4.57028 0
M  V30 11420 H 1127.52 0.671313 2.45694 0
M  V30 11421 H 1128.3 2.34188 2.5102 0
M  V30 11422 N 1130.75 -1.41857 0.686609 0
M  V30 11423 C 1132.16 -1.84439 0.289662 0
M  V30 11424 C 1132.51 -1.57462 -1.17047 0
M  V30 11425 O 1131.63 -1.04046 -1.89745 0
M  V30 11426 C 1132.23 -3.34802 0.518948 0
M  V30 11427 C 1130.79 -3.75988 0.176007 0
M  V30 11428 C 1129.93 -2.65339 0.805632 0
M  V30 11429 H 1132.89 -1.31536 0.88792 0
M  V30 11430 H 1132.91 -3.79833 -0.225209 0
M  V30 11431 H 1132.42 -3.54405 1.58173 0
M  V30 11432 H 1130.52 -3.61989 -0.882865 0
M  V30 11433 H 1130.63 -4.75009 0.624772 0
M  V30 11434 H 1129 -2.53605 0.235966 0
M  V30 11435 H 1129.78 -2.87762 1.8721 0
M  V30 11436 N 1132.22 -0.430739 -1.51599 0
M  V30 11437 C 1133.16 0.419726 -2.25324 0
M  V30 11438 C 1134.17 0.991925 -1.29092 0
M  V30 11439 O 1135.36 0.887188 -1.54891 0
M  V30 11440 C 1132.46 1.59844 -2.98836 0
M  V30 11441 C 1131.63 1.14629 -4.22112 0
M  V30 11442 C 1130.69 2.19437 -4.78261 0
M  V30 11443 O 1129.72 1.79141 -5.40275 0
M  V30 11444 N 1130.92 3.51849 -4.61717 0
M  V30 11445 H 1133.68 -0.212112 -2.98948 0
M  V30 11446 H 1131.24 -0.259269 -1.59811 0
M  V30 11447 H 1133.24 2.29567 -3.33288 0
M  V30 11448 H 1131.81 2.13575 -2.28264 0
M  V30 11449 H 1131.03 0.276367 -3.9323 0
M  V30 11450 H 1132.31 0.821488 -5.02124 0
M  V30 11451 H 1131.71 3.87324 -4.12306 0
M  V30 11452 H 1130.27 4.17486 -5.00548 0
M  V30 11453 N 1133.7 1.56767 -0.161869 0
M  V30 11454 C 1134.95 1.96206 0.484537 0
M  V30 11455 C 1135.27 1.04848 1.64414 0
M  V30 11456 O 1134.54 0.112946 1.95574 0
M  V30 11457 H 1133.12 0.724491 0.181994 0
M  V30 11458 H 1135.78 1.93406 -0.240845 0
M  V30 11459 H 1134.88 3.00279 0.85083 0
M  V30 11460 N 1135.18 -0.111886 1.57202 0
M  V30 11461 C 1136.59 -0.668261 1.74331 0
M  V30 11462 C 1136.94 -1.79959 0.781609 0
M  V30 11463 O 1136.07 -2.16356 -0.043833 0
M  V30 11464 C 1136.66 -1.219 3.1611 0
M  V30 11465 C 1135.22 -1.7216 3.34721 0
M  V30 11466 C 1134.37 -0.624223 2.70183 0
M  V30 11467 H 1137.32 0.114081 1.58289 0
M  V30 11468 H 1137.34 -2.08858 3.18054 0
M  V30 11469 H 1136.85 -0.395381 3.86081 0
M  V30 11470 H 1134.95 -2.56976 2.69803 0
M  V30 11471 H 1135.07 -1.82615 4.42932 0
M  V30 11472 H 1133.43 -1.05958 2.31614 0
M  V30 11473 H 1134.21 0.188537 3.42782 0
M  V30 11474 N 1136.66 -1.52894 -0.382264 0
M  V30 11475 C 1138.07 -1.42295 -0.722802 0
M  V30 11476 C 1138.27 -0.548717 -1.93885 0
M  V30 11477 O 1137.33 -0.0247431 -2.52488 0
M  V30 11478 C 1138.64 -2.85246 -0.9516 0
M  V30 11479 C 1140.19 -2.94768 -1.05265 0
M  V30 11480 C 1140.67 -4.38745 -1.31404 0
M  V30 11481 N 1142.16 -4.421 -1.38211 0
M  V30 11482 C 1142.89 -5.50592 -1.60113 0
M  V30 11483 N 1142.39 -6.69158 -1.79442 0
M  V30 11484 N 1144.18 -5.38145 -1.62347 0
M  V30 11485 H 1136.33 -2.0825 0.417816 0
M  V30 11486 H 1138.6 -0.939753 0.124776 0
M  V30 11487 H 1138.3 -3.51459 -0.130088 0
M  V30 11488 H 1138.18 -3.27903 -1.86439 0
M  V30 11489 H 1140.56 -2.28718 -1.86472 0
M  V30 11490 H 1140.64 -2.55529 -0.117619 0
M  V30 11491 H 1140.29 -5.05363 -0.507038 0
M  V30 11492 H 1140.22 -4.75542 -2.26202 0
M  V30 11493 H 1142.71 -3.56644 -1.24954 0
M  V30 11494 H 1143.02 -7.47615 -1.95681 0
M  V30 11495 H 1141.37 -6.72175 -1.76653 0
M  V30 11496 H 1144.56 -4.44485 -1.46803 0
M  V30 11497 H 1144.73 -6.22764 -1.79077 0
M  V30 11498 N 1138.14 0.641106 -1.43971 0
M  V30 11499 C 1139.37 1.42829 -1.49692 0
M  V30 11500 C 1139.78 1.88427 -0.118594 0
M  V30 11501 O 1139.14 1.60234 0.873581 0
M  V30 11502 C 1139.19 2.65524 -2.45314 0
M  V30 11503 O 1138.91 2.2183 -3.77787 0
M  V30 11504 C 1140.41 3.58758 -2.60399 0
M  V30 11505 H 1137.63 0.438367 -0.508011 0
M  V30 11506 H 1140.17 0.784933 -1.88836 0
M  V30 11507 H 1138.33 3.25973 -2.09332 0
M  V30 11508 H 1138.74 3.01303 -4.29321 0
M  V30 11509 H 1140.22 4.41483 -3.31357 0
M  V30 11510 H 1140.69 4.06909 -1.65294 0
M  V30 11511 H 1141.3 3.04184 -2.97241 0
M  V30 11512 N 1139.62 1.30703 0.880598 0
M  V30 11513 C 1141.03 1.09129 1.1646 0
M  V30 11514 C 1141.23 -0.145131 2.00977 0
M  V30 11515 O 1140.29 -0.837502 2.38206 0
M  V30 11516 C 1141.6 2.35717 1.86703 0
M  V30 11517 C 1143.15 2.41224 1.9945 0
M  V30 11518 C 1143.62 3.67665 2.73105 0
M  V30 11519 N 1145.11 3.68498 2.80648 0
M  V30 11520 C 1145.85 4.63024 3.38225 0
M  V30 11521 N 1145.35 5.67898 3.96817 0
M  V30 11522 N 1147.14 4.50561 3.36082 0
M  V30 11523 H 1139.29 2.10019 0.317164 0
M  V30 11524 H 1141.55 0.925994 0.203072 0
M  V30 11525 H 1141.26 3.2597 1.32046 0
M  V30 11526 H 1141.13 2.447 2.87057 0
M  V30 11527 H 1143.52 1.51446 2.53275 0
M  V30 11528 H 1143.6 2.36212 0.981704 0
M  V30 11529 H 1143.24 4.57803 2.19951 0
M  V30 11530 H 1143.17 3.69939 3.7477 0
M  V30 11531 H 1145.67 2.92681 2.39053 0
M  V30 11532 H 1145.98 6.3612 4.3883 0
M  V30 11533 H 1144.32 5.71685 3.95223 0
M  V30 11534 H 1147.51 3.67811 2.89539 0
M  V30 11535 H 1147.69 5.24408 3.80657 0
M  V30 11536 N 1141.09 -1.09351 1.1349 0
M  V30 11537 C 1142.03 -2.15291 0.756645 0
M  V30 11538 C 1143 -1.60548 -0.257497 0
M  V30 11539 O 1144.19 -1.87912 -0.14882 0
M  V30 11540 C 1141.32 -3.38481 0.121799 0
M  V30 11541 C 1140.36 -4.11949 1.10456 0
M  V30 11542 S 1141.19 -4.6605 2.63738 0
M  V30 11543 C 1142.35 -5.92539 2.01615 0
M  V30 11544 H 1142.58 -2.47044 1.65398 0
M  V30 11545 H 1140.12 -1.21312 0.955129 0
M  V30 11546 H 1142.07 -4.09809 -0.238086 0
M  V30 11547 H 1140.74 -3.04945 -0.752821 0
M  V30 11548 H 1139.93 -5.00317 0.608195 0
M  V30 11549 H 1139.53 -3.46486 1.40795 0
M  V30 11550 H 1141.82 -6.63593 1.36569 0
M  V30 11551 H 1142.77 -6.46856 2.88068 0
M  V30 11552 H 1143.17 -5.45094 1.46741 0
M  V30 11553 N 1142.57 -0.928524 -1.27343 0
M  V30 11554 C 1143.82 -0.569392 -1.9433 0
M  V30 11555 C 1144.15 0.889481 -1.7297 0
M  V30 11556 O 1143.4 1.6499 -1.05247 0
M  V30 11557 C 1143.7 -0.84269 -3.47323 0
M  V30 11558 C 1143.37 -2.28344 -3.88806 0
M  V30 11559 C 1142.03 -2.67731 -3.99842 0
M  V30 11560 C 1144.38 -3.22031 -4.09811 0
M  V30 11561 C 1141.71 -3.99928 -4.29272 0
M  V30 11562 C 1144.06 -4.5381 -4.40725 0
M  V30 11563 C 1142.72 -4.93031 -4.49975 0
M  V30 11564 H 1141.99 -0.208355 -0.711104 0
M  V30 11565 H 1144.64 -1.17264 -1.51398 0
M  V30 11566 H 1142.95 -0.156775 -3.91486 0
M  V30 11567 H 1144.64 -0.543779 -3.97296 0
M  V30 11568 H 1141.23 -1.96787 -3.80753 0
M  V30 11569 H 1145.42 -2.92803 -4.00724 0
M  V30 11570 H 1140.67 -4.29996 -4.34642 0
M  V30 11571 H 1144.85 -5.26407 -4.55926 0
M  V30 11572 H 1142.47 -5.95497 -4.72533 0
M  V30 11573 N 1144.05 1.41491 -0.694123 0
M  V30 11574 C 1145.27 2.06099 -0.23197 0
M  V30 11575 C 1145.7 1.51888 1.10958 0
M  V30 11576 O 1145.06 0.645247 1.69429 0
M  V30 11577 C 1145.11 3.60053 -0.198522 0
M  V30 11578 O 1144.21 4.04021 0.827067 0
M  V30 11579 H 1143.55 0.654193 -0.113699 0
M  V30 11580 H 1146.08 1.81282 -0.948575 0
M  V30 11581 H 1146.09 4.0799 -0.0288904 0
M  V30 11582 H 1144.77 3.98879 -1.17764 0
M  V30 11583 H 1143.34 3.67593 0.626908 0
M  V30 11584 N 1145.53 0.438773 1.51369 0
M  V30 11585 C 1146.49 -0.36032 2.2635 0
M  V30 11586 C 1147.49 -0.948465 1.29849 0
M  V30 11587 O 1148.68 -0.822692 1.53549 0
M  V30 11588 C 1145.81 -1.50994 3.05636 0
M  V30 11589 H 1147.01 0.296826 2.98427 0
M  V30 11590 H 1144.56 0.191978 1.55117 0
M  V30 11591 H 1145.29 -2.2031 2.37979 0
M  V30 11592 H 1145.08 -1.09437 3.76518 0
M  V30 11593 H 1146.57 -2.07447 3.6243 0
M  V30 11594 N 1147.01 -1.56678 0.170181 0
M  V30 11595 C 1148.25 -1.9646 -0.474125 0
M  V30 11596 C 1148.57 -1.05719 -1.63855 0
M  V30 11597 O 1147.84 -0.123316 -1.95511 0
M  V30 11598 H 1146.42 -0.725446 -0.178149 0
M  V30 11599 H 1149.09 -1.93276 0.251099 0
M  V30 11600 H 1148.18 -3.00726 -0.834894 0
M  V30 11601 N 1148.48 0.103547 -1.57259 0
M  V30 11602 C 1149.89 0.659006 -1.74683 0
M  V30 11603 C 1150.25 1.79542 -0.791142 0
M  V30 11604 O 1149.37 2.16376 0.0323585 0
M  V30 11605 C 1149.97 1.20222 -3.16752 0
M  V30 11606 C 1148.52 1.70382 -3.35629 0
M  V30 11607 C 1147.67 0.609886 -2.7051 0
M  V30 11608 H 1150.62 -0.122474 -1.58227 0
M  V30 11609 H 1150.64 2.07169 -3.19157 0
M  V30 11610 H 1150.16 0.374901 -3.86285 0
M  V30 11611 H 1148.26 2.55542 -2.71162 0
M  V30 11612 H 1148.37 1.80263 -4.43894 0
M  V30 11613 H 1146.73 1.04728 -2.32173 0
M  V30 11614 H 1147.52 -0.206713 -3.42677 0
M  V30 11615 N 1149.96 1.53094 0.37415 0
M  V30 11616 C 1151.19 1.72758 1.13852 0
M  V30 11617 C 1151.6 0.452638 1.83294 0
M  V30 11618 O 1150.96 -0.573906 1.73241 0
M  V30 11619 C 1151.01 2.88724 2.17534 0
M  V30 11620 O 1150.73 4.11284 1.5092 0
M  V30 11621 C 1152.23 3.2019 3.06584 0
M  V30 11622 H 1149.45 0.578028 0.340771 0
M  V30 11623 H 1152 1.99805 0.435683 0
M  V30 11624 H 1150.15 2.64096 2.83429 0
M  V30 11625 H 1150.57 4.76162 2.19932 0
M  V30 11626 H 1152.04 4.04759 3.75332 0
M  V30 11627 H 1152.52 2.35193 3.70919 0
M  V30 11628 H 1153.12 3.46712 2.46315 0
M  V30 11629 N 1151.44 -0.633461 1.44309 0
M  V30 11630 C 1152.69 -1.39031 1.46679 0
M  V30 11631 C 1153.01 -1.94745 0.0997165 0
M  V30 11632 O 1152.28 -1.75637 -0.867659 0
M  V30 11633 H 1150.86 -0.516051 0.540093 0
M  V30 11634 H 1153.52 -0.745739 1.80069 0
M  V30 11635 H 1152.62 -2.2228 2.19085 0
M  V30 11636 N 1152.92 -1.31168 -0.873655 0
M  V30 11637 C 1154.14 -1.23728 -1.66452 0
M  V30 11638 C 1154.57 0.194869 -1.87088 0
M  V30 11639 O 1153.93 1.1397 -1.40998 0
M  V30 11640 C 1153.97 -1.98285 -3.0119 0
M  V30 11641 O 1153.08 -1.31767 -3.90783 0
M  V30 11642 H 1152.42 -0.427362 -0.508191 0
M  V30 11643 H 1154.95 -1.73176 -1.08955 0
M  V30 11644 H 1154.96 -2.0774 -3.51153 0
M  V30 11645 H 1153.63 -3.02437 -2.8549 0
M  V30 11646 H 1152.21 -1.3074 -3.4923 0
M  V30 11647 N 1154.4 1.08748 -1.14068 0
M  V30 11648 C 1155.36 2.1375 -0.827266 0
M  V30 11649 C 1156.36 1.59936 0.166496 0
M  V30 11650 O 1157.55 1.74092 -0.0614305 0
M  V30 11651 C 1154.68 3.40106 -0.232557 0
M  V30 11652 H 1155.87 2.42985 -1.7578 0
M  V30 11653 H 1153.43 1.24402 -0.946244 0
M  V30 11654 H 1154.16 3.16503 0.706859 0
M  V30 11655 H 1153.95 3.8046 -0.948293 0
M  V30 11656 H 1155.44 4.17589 -0.0303662 0
M  V30 11657 N 1155.87 0.935264 1.26849 0
M  V30 11658 C 1157.1 0.595704 1.98661 0
M  V30 11659 C 1157.52 -0.821001 1.69237 0
M  V30 11660 O 1156.88 -1.55211 0.936982 0
M  V30 11661 C 1156.93 0.837275 3.50745 0
M  V30 11662 O 1156.03 -0.0934914 4.12294 0
M  V30 11663 H 1155.38 0.228512 0.623441 0
M  V30 11664 H 1157.91 1.25658 1.61466 0
M  V30 11665 H 1157.92 0.755827 4.00938 0
M  V30 11666 H 1156.59 1.86993 3.71492 0
M  V30 11667 H 1155.17 0.0385124 3.7288 0
M  V30 11668 N 1157.35 -1.41121 0.701616 0
M  V30 11669 C 1158.58 -2.05973 0.242896 0
M  V30 11670 C 1159 -1.52474 -1.10151 0
M  V30 11671 O 1158.36 -0.654224 -1.69085 0
M  V30 11672 C 1158.41 -3.59943 0.217614 0
M  V30 11673 O 1157.51 -4.04454 -0.805629 0
M  V30 11674 H 1156.85 -0.653581 0.117166 0
M  V30 11675 H 1159.38 -1.80777 0.958175 0
M  V30 11676 H 1159.39 -4.07969 0.0505267 0
M  V30 11677 H 1158.07 -3.98249 1.19877 0
M  V30 11678 H 1156.65 -3.6792 -0.607404 0
M  V30 11679 N 1158.83 -0.446794 -1.51134 0
M  V30 11680 C 1160.06 0.117242 -2.07068 0
M  V30 11681 C 1160.48 1.34877 -1.3111 0
M  V30 11682 O 1159.84 1.77856 -0.35172 0
M  V30 11683 C 1159.89 0.408616 -3.58277 0
M  V30 11684 O 1158.99 1.49345 -3.84408 0
M  V30 11685 H 1158.33 -0.00228458 -0.663996 0
M  V30 11686 H 1160.86 -0.63085 -1.94632 0
M  V30 11687 H 1160.87 0.656298 -4.02687 0
M  V30 11688 H 1159.55 -0.491444 -4.12986 0
M  V30 11689 H 1158.12 1.23499 -3.51856 0
M  V30 11690 N 1160.31 1.56586 -0.178487 0
M  V30 11691 C 1161.27 2.17091 0.73512 0
M  V30 11692 C 1162.27 1.12088 1.15295 0
M  V30 11693 O 1163.46 1.37563 1.06874 0
M  V30 11694 C 1160.59 2.75957 2.00151 0
M  V30 11695 H 1161.79 2.99176 0.208272 0
M  V30 11696 H 1159.34 1.56138 0.0710967 0
M  V30 11697 H 1160.07 1.97626 2.57127 0
M  V30 11698 H 1159.86 3.52809 1.7108 0
M  V30 11699 H 1161.35 3.2247 2.65335 0
M  V30 11700 N 1161.79 -0.095206 1.57312 0
M  V30 11701 C 1163.2 -0.449411 1.53142 0
M  V30 11702 C 1163.4 -1.80523 0.895187 0
M  V30 11703 O 1162.46 -2.47746 0.487649 0
M  V30 11704 C 1163.77 -0.412002 2.97864 0
M  V30 11705 C 1165.32 -0.493866 3.09079 0
M  V30 11706 C 1165.79 -0.486606 4.55408 0
M  V30 11707 N 1167.29 -0.547363 4.59955 0
M  V30 11708 C 1168.02 -0.563582 5.70624 0
M  V30 11709 N 1167.52 -0.536015 6.90723 0
M  V30 11710 N 1169.31 -0.608385 5.58798 0
M  V30 11711 H 1161.46 0.792869 1.97047 0
M  V30 11712 H 1163.72 0.295106 0.900898 0
M  V30 11713 H 1163.43 0.517064 3.47878 0
M  V30 11714 H 1163.3 -1.23102 3.56547 0
M  V30 11715 H 1165.69 -1.41335 2.59053 0
M  V30 11716 H 1165.77 0.353286 2.53349 0
M  V30 11717 H 1165.42 0.428935 5.06086 0
M  V30 11718 H 1165.35 -1.35097 5.08976 0
M  V30 11719 H 1167.84 -0.573867 3.73517 0
M  V30 11720 H 1168.15 -0.551671 7.70828 0
M  V30 11721 H 1166.49 -0.503064 6.93177 0
M  V30 11722 H 1169.69 -0.627451 4.63876 0
M  V30 11723 H 1169.86 -0.617556 6.45051 0
M  V30 11724 N 1163.26 -1.53291 -0.366026 0
M  V30 11725 C 1164.21 -1.76077 -1.44847 0
M  V30 11726 C 1165.2 -0.615302 -1.4867 0
M  V30 11727 O 1166.39 -0.873952 -1.53919 0
M  V30 11728 C 1163.52 -1.95371 -2.82286 0
M  V30 11729 C 1162.61 -3.15918 -2.82943 0
M  V30 11730 N 1163 -4.37835 -2.53247 0
M  V30 11731 C 1161.29 -3.16631 -3.14103 0
M  V30 11732 C 1162 -5.19573 -2.6157 0
M  V30 11733 N 1160.97 -4.55773 -2.96263 0
M  V30 11734 H 1164.77 -2.67949 -1.2075 0
M  V30 11735 H 1162.29 -1.5191 -0.574206 0
M  V30 11736 H 1164.28 -2.09823 -3.6025 0
M  V30 11737 H 1162.94 -1.04727 -3.07347 0
M  V30 11738 H 1163.96 -4.65575 -2.26848 0
M  V30 11739 H 1160.63 -2.35878 -3.44482 0
M  V30 11740 H 1162.02 -6.26821 -2.41961 0
M  V30 11741 N 1164.74 0.6258 -1.44643 0
M  V30 11742 C 1165.67 1.74858 -1.54748 0
M  V30 11743 C 1166.65 1.65327 -0.400138 0
M  V30 11744 O 1167.84 1.84005 -0.620948 0
M  V30 11745 C 1164.97 3.13408 -1.49643 0
M  V30 11746 C 1163.92 3.37733 -2.62908 0
M  V30 11747 C 1163.25 4.76367 -2.42855 0
M  V30 11748 C 1164.55 3.29771 -4.05029 0
M  V30 11749 H 1166.24 1.66658 -2.48728 0
M  V30 11750 H 1163.79 0.800363 -1.19709 0
M  V30 11751 H 1165.74 3.91735 -1.55312 0
M  V30 11752 H 1164.47 3.22404 -0.521824 0
M  V30 11753 H 1163.12 2.61788 -2.56637 0
M  V30 11754 H 1162.77 4.82074 -1.43575 0
M  V30 11755 H 1162.47 4.936 -3.18799 0
M  V30 11756 H 1164 5.56917 -2.50351 0
M  V30 11757 H 1165.41 3.97996 -4.12641 0
M  V30 11758 H 1163.81 3.58538 -4.81218 0
M  V30 11759 H 1164.88 2.27493 -4.28223 0
M  V30 11760 N 1166.22 1.31629 0.866686 0
M  V30 11761 C 1167.47 1.21683 1.62238 0
M  V30 11762 C 1167.8 -0.223767 1.92907 0
M  V30 11763 O 1167.07 -1.15761 1.563 0
M  V30 11764 C 1167.36 2.06443 2.95048 0
M  V30 11765 C 1167.21 3.58818 2.71237 0
M  V30 11766 C 1168.53 1.91634 3.96187 0
M  V30 11767 H 1165.65 0.443389 0.588707 0
M  V30 11768 H 1168.29 1.61453 1.00164 0
M  V30 11769 H 1166.44 1.72654 3.48027 0
M  V30 11770 H 1168.11 4.0276 2.24905 0
M  V30 11771 H 1166.36 3.82085 2.05411 0
M  V30 11772 H 1167.03 4.13436 3.65752 0
M  V30 11773 H 1169.5 2.21209 3.52428 0
M  V30 11774 H 1168.38 2.53236 4.86993 0
M  V30 11775 H 1168.64 0.880564 4.33242 0
M  V30 11776 N 1167.7 -1.08142 1.14644 0
M  V30 11777 C 1169.11 -1.62061 0.926986 0
M  V30 11778 C 1169.46 -1.88805 -0.533578 0
M  V30 11779 O 1168.59 -1.64753 -1.40305 0
M  V30 11780 C 1169.18 -2.94425 1.67629 0
M  V30 11781 C 1167.74 -3.45118 1.50235 0
M  V30 11782 C 1166.89 -2.19307 1.69705 0
M  V30 11783 H 1169.84 -0.913326 1.29785 0
M  V30 11784 H 1169.86 -3.62987 1.14107 0
M  V30 11785 H 1169.37 -2.74928 2.73927 0
M  V30 11786 H 1167.47 -3.69713 0.462967 0
M  V30 11787 H 1167.59 -4.2169 2.27408 0
M  V30 11788 H 1165.95 -2.28611 1.12291 0
M  V30 11789 H 1166.73 -2.02315 2.77351 0
M  V30 11790 N 1169.18 -0.941978 -1.26351 0
M  V30 11791 C 1170.43 -0.588806 -1.93333 0
M  V30 11792 C 1170.75 0.875067 -1.74263 0
M  V30 11793 O 1170.02 1.62187 -1.09873 0
M  V30 11794 H 1168.6 -0.214774 -0.715459 0
M  V30 11795 H 1171.26 -1.19747 -1.53774 0
M  V30 11796 H 1170.35 -0.807267 -3.01479 0
M  V30 11797 N 1170.66 1.40747 -0.709091 0
M  V30 11798 C 1172.07 1.83955 -0.318968 0
M  V30 11799 C 1172.42 1.59304 1.14527 0
M  V30 11800 O 1171.54 1.07052 1.88066 0
M  V30 11801 C 1172.14 3.33934 -0.572147 0
M  V30 11802 C 1170.7 3.75661 -0.235802 0
M  V30 11803 C 1169.84 2.64024 -0.847743 0
M  V30 11804 H 1172.79 1.30107 -0.908734 0
M  V30 11805 H 1172.82 3.80143 0.164752 0
M  V30 11806 H 1172.33 3.51844 -1.63791 0
M  V30 11807 H 1170.43 3.63348 0.825164 0
M  V30 11808 H 1170.54 4.73955 -0.700263 0
M  V30 11809 H 1168.91 2.53197 -0.276283 0
M  V30 11810 H 1169.69 2.84748 -1.91765 0
M  V30 11811 N 1172.13 0.454803 1.50895 0
M  V30 11812 C 1173.37 -0.104722 2.04132 0
M  V30 11813 C 1173.74 -1.38434 1.33042 0
M  V30 11814 O 1174.94 -2.02521 1.76745 0
M  V30 11815 C 1173.21 -0.300775 3.56132 0
M  V30 11816 S 1174.77 -0.821197 4.31047 0
M  V30 11817 H 1171.59 -0.0236407 0.710607 0
M  V30 11818 H 1174.19 0.618213 1.85468 0
M  V30 11819 H 1172.89 0.636592 4.05433 0
M  V30 11820 H 1172.42 -1.05029 3.79121 0
M  V30 11821 H 1174.44 -2.09669 4.49726 0
M  V30 11822 N 1173.61 -1.56489 0.186789 0
M  V30 11823 C 1174.84 -2.02163 -0.463126 0
M  V30 11824 C 1175.26 -1.06612 -1.54969 0
M  V30 11825 O 1174.62 -0.0482139 -1.81236 0
M  V30 11826 C 1174.67 -3.46337 -1.00416 0
M  V30 11827 O 1173.77 -3.53889 -2.11747 0
M  V30 11828 H 1173.11 -0.65496 -0.109194 0
M  V30 11829 H 1175.64 -2.02459 0.295227 0
M  V30 11830 H 1175.65 -3.85959 -1.32287 0
M  V30 11831 H 1174.33 -4.15376 -0.208693 0
M  V30 11832 H 1172.9 -3.26136 -1.80803 0
M  V30 11833 N 1175.09 0.086862 -1.5736 0
M  V30 11834 C 1176 1.12297 -2.05977 0
M  V30 11835 C 1177.02 1.43347 -0.986284 0
M  V30 11836 O 1178.19 1.53825 -1.3 0
M  V30 11837 C 1175.26 2.42131 -2.4814 0
M  V30 11838 C 1174.32 2.18189 -3.69719 0
M  V30 11839 C 1173.55 3.41833 -4.09861 0
M  V30 11840 O 1173.77 4.50383 -3.50016 0
M  V30 11841 O 1172.71 3.30934 -5.02759 0
M  V30 11842 H 1176.53 0.740012 -2.94546 0
M  V30 11843 H 1174.12 0.29995 -1.46358 0
M  V30 11844 H 1176 3.18568 -2.75848 0
M  V30 11845 H 1174.68 2.79837 -1.62705 0
M  V30 11846 H 1173.58 1.39506 -3.47115 0
M  V30 11847 H 1174.92 1.85372 -4.55959 0
M  V30 11848 N 1176.57 1.53483 0.357892 0
M  V30 11849 C 1177.53 1.79782 1.42166 0
M  V30 11850 C 1178.53 0.668441 1.46248 0
M  V30 11851 O 1179.72 0.936677 1.46874 0
M  V30 11852 C 1176.85 1.92686 2.8122 0
M  V30 11853 H 1178.05 2.74794 1.20117 0
M  V30 11854 H 1175.6 1.44677 0.591468 0
M  V30 11855 H 1176.33 0.997669 3.08573 0
M  V30 11856 H 1176.12 2.74837 2.79655 0
M  V30 11857 H 1177.61 2.14599 3.58242 0
M  V30 11858 N 1178.05 -0.61812 1.44973 0
M  V30 11859 C 1179.46 -1.19994 1.43033 0
M  V30 11860 C 1179.81 -1.95607 0.152422 0
M  V30 11861 O 1178.93 -2.03114 -0.746571 0
M  V30 11862 C 1179.53 -2.18269 2.59122 0
M  V30 11863 C 1178.09 -2.7185 2.60336 0
M  V30 11864 C 1177.23 -1.4707 2.35086 0
M  V30 11865 H 1180.18 -0.408034 1.53365 0
M  V30 11866 H 1180.21 -3.01113 2.32619 0
M  V30 11867 H 1179.72 -1.63208 3.52115 0
M  V30 11868 H 1177.82 -3.30878 1.7132 0
M  V30 11869 H 1177.93 -3.17001 3.59231 0
M  V30 11870 H 1176.3 -1.75658 1.84435 0
M  V30 11871 H 1177.08 -0.938928 3.30211 0
M  V30 11872 N 1179.52 -1.32087 -0.859693 0
M  V30 11873 C 1180.49 -1.20546 -1.94939 0
M  V30 11874 C 1181.49 -0.12982 -1.60275 0
M  V30 11875 O 1182.68 -0.379853 -1.70008 0
M  V30 11876 C 1179.81 -0.852717 -3.30063 0
M  V30 11877 H 1181 -2.17384 -2.06602 0
M  V30 11878 H 1178.55 -1.15846 -1.04926 0
M  V30 11879 H 1179.29 0.114059 -3.24099 0
M  V30 11880 H 1179.07 -1.63035 -3.56598 0
M  V30 11881 H 1180.56 -0.796145 -4.09941 0
M  V30 11882 N 1181 1.07532 -1.15215 0
M  V30 11883 C 1182.41 1.61567 -0.935568 0
M  V30 11884 C 1182.76 1.89085 0.523557 0
M  V30 11885 O 1181.89 1.65495 1.39429 0
M  V30 11886 C 1182.48 2.93531 -1.69189 0
M  V30 11887 C 1181.04 3.44316 -1.52063 0
M  V30 11888 C 1180.19 2.18404 -1.70866 0
M  V30 11889 H 1183.14 0.906431 -1.30267 0
M  V30 11890 H 1183.16 3.62377 -1.16031 0
M  V30 11891 H 1182.67 2.73471 -2.75381 0
M  V30 11892 H 1180.77 3.69462 -0.482567 0
M  V30 11893 H 1180.89 4.20478 -2.29642 0
M  V30 11894 H 1179.25 2.28012 -1.13502 0
M  V30 11895 H 1180.03 2.00841 -2.7842 0
M  V30 11896 N 1182.48 0.948665 1.2585 0
M  V30 11897 C 1183.39 0.470525 2.29833 0
M  V30 11898 C 1184.41 -0.45919 1.67832 0
M  V30 11899 O 1185.58 -0.336893 1.98562 0
M  V30 11900 C 1182.65 -0.249635 3.458 0
M  V30 11901 C 1181.71 0.717559 4.23261 0
M  V30 11902 C 1180.94 0.0316724 5.33691 0
M  V30 11903 O 1181.16 -1.18384 5.5798 0
M  V30 11904 O 1180.1 0.71418 5.97648 0
M  V30 11905 H 1183.92 1.33447 2.72811 0
M  V30 11906 H 1181.51 0.714864 1.31187 0
M  V30 11907 H 1183.39 -0.654993 4.16279 0
M  V30 11908 H 1182.07 -1.08885 3.04837 0
M  V30 11909 H 1180.97 1.17301 3.55234 0
M  V30 11910 H 1182.31 1.52461 4.67992 0
M  V30 11911 N 1183.96 -1.40369 0.716545 0
M  V30 11912 C 1184.89 -2.33365 0.0793533 0
M  V30 11913 C 1185.87 -1.52943 -0.744482 0
M  V30 11914 O 1187.05 -1.81406 -0.693212 0
M  V30 11915 C 1184.18 -3.36928 -0.842429 0
M  V30 11916 C 1183.14 -4.2782 -0.124142 0
M  V30 11917 C 1182.46 -5.21928 -1.1617 0
M  V30 11918 C 1183.76 -5.12199 1.02224 0
M  V30 11919 H 1185.46 -2.86899 0.856115 0
M  V30 11920 H 1183 -1.37946 0.413138 0
M  V30 11921 H 1184.96 -4.00925 -1.29759 0
M  V30 11922 H 1183.68 -2.81791 -1.6511 0
M  V30 11923 H 1182.34 -3.65277 0.311201 0
M  V30 11924 H 1181.99 -4.63096 -1.96345 0
M  V30 11925 H 1181.69 -5.83582 -0.685978 0
M  V30 11926 H 1183.21 -5.88802 -1.61694 0
M  V30 11927 H 1184.63 -5.69644 0.646399 0
M  V30 11928 H 1183.02 -5.82901 1.4264 0
M  V30 11929 H 1184.09 -4.4812 1.85246 0
M  V30 11930 N 1185.44 -0.462799 -1.50652 0
M  V30 11931 C 1186.85 -0.00568907 -1.86699 0
M  V30 11932 C 1187.2 1.39641 -1.37822 0
M  V30 11933 O 1186.32 2.03366 -0.739679 0
M  V30 11934 C 1186.92 -0.00354783 -3.388 0
M  V30 11935 C 1185.48 0.398061 -3.74289 0
M  V30 11936 C 1184.62 -0.392574 -2.74507 0
M  V30 11937 H 1187.58 -0.677469 -1.43513 0
M  V30 11938 H 1187.6 0.800456 -3.71985 0
M  V30 11939 H 1187.11 -1.02414 -3.74344 0
M  V30 11940 H 1185.21 1.42331 -3.44344 0
M  V30 11941 H 1185.32 0.105168 -4.78985 0
M  V30 11942 H 1183.69 0.152608 -2.54242 0
M  V30 11943 H 1184.47 -1.41252 -3.12894 0
M  V30 11944 N 1186.91 1.56388 -0.195085 0
M  V30 11945 C 1187.88 2.17859 0.712053 0
M  V30 11946 C 1188.88 1.13304 1.141 0
M  V30 11947 O 1190.07 1.38689 1.05409 0
M  V30 11948 C 1187.2 2.78065 1.97213 0
M  V30 11949 H 1188.39 2.9938 0.176529 0
M  V30 11950 H 1185.95 1.56205 0.0545322 0
M  V30 11951 H 1186.68 2.00342 2.55017 0
M  V30 11952 H 1186.47 3.54603 1.67329 0
M  V30 11953 H 1187.96 3.25266 2.619 0
M  V30 11954 N 1188.39 -0.0785156 1.57404 0
M  V30 11955 C 1189.8 -0.631132 1.75709 0
M  V30 11956 C 1190.15 -1.78261 0.819605 0
M  V30 11957 O 1189.28 -2.164 0.00206912 0
M  V30 11958 C 1189.87 -1.15168 3.18625 0
M  V30 11959 C 1188.43 -1.65021 3.38297 0
M  V30 11960 C 1187.58 -0.566773 2.71446 0
M  V30 11961 H 1190.53 0.147631 1.58012 0
M  V30 11962 H 1190.55 -2.02065 3.22413 0
M  V30 11963 H 1190.06 -0.313399 3.86833 0
M  V30 11964 H 1188.17 -2.51196 2.75194 0
M  V30 11965 H 1188.28 -1.73179 4.46706 0
M  V30 11966 H 1186.64 -1.01021 2.33809 0
M  V30 11967 H 1187.43 0.261204 3.42305 0
M  V30 11968 N 1189.87 -1.5367 -0.349747 0
M  V30 11969 C 1191.12 -1.70281 -1.08853 0
M  V30 11970 C 1191.44 -0.465438 -1.89364 0
M  V30 11971 O 1190.71 0.520615 -1.88856 0
M  V30 11972 H 1189.29 -0.627775 -0.404854 0
M  V30 11973 H 1191.95 -1.90906 -0.392523 0
M  V30 11974 H 1191.05 -2.57096 -1.76941 0
M  V30 11975 N 1191.35 0.610423 -1.45298 0
M  V30 11976 C 1192.3 1.71552 -1.5018 0
M  V30 11977 C 1193.28 1.56697 -0.365357 0
M  V30 11978 O 1194.47 1.66082 -0.612029 0
M  V30 11979 C 1191.6 3.10298 -1.46867 0
M  V30 11980 C 1190.69 3.30549 -2.65703 0
M  V30 11981 N 1191.08 3.21073 -3.90827 0
M  V30 11982 C 1189.38 3.6141 -2.6134 0
M  V30 11983 C 1190.08 3.42577 -4.70123 0
M  V30 11984 N 1189.06 3.66434 -4.01531 0
M  V30 11985 H 1192.86 1.62714 -2.44747 0
M  V30 11986 H 1190.37 0.813587 -1.40551 0
M  V30 11987 H 1192.37 3.89575 -1.48449 0
M  V30 11988 H 1191.03 3.20286 -0.533548 0
M  V30 11989 H 1192.04 2.99537 -4.2249 0
M  V30 11990 H 1188.72 3.78253 -1.76722 0
M  V30 11991 H 1190.11 3.40669 -5.79132 0
M  V30 11992 N 1192.83 1.32541 0.852676 0
M  V30 11993 C 1194.07 1.22971 1.60383 0
M  V30 11994 C 1194.4 -0.208009 1.93887 0
M  V30 11995 O 1193.67 -1.13326 1.59794 0
M  V30 11996 H 1192.25 0.452149 0.594618 0
M  V30 11997 H 1194.91 1.66089 1.01983 0
M  V30 11998 H 1194 1.81373 2.53989 0
M  V30 11999 N 1194.3 -1.0692 1.15784 0
M  V30 12000 C 1195.54 -1.8119 0.946018 0
M  V30 12001 C 1195.91 -1.84899 -0.517338 0
M  V30 12002 O 1197.11 -2.55085 -0.847643 0
M  V30 12003 C 1195.38 -3.22102 1.54871 0
M  V30 12004 S 1196.94 -4.13065 1.48063 0
M  V30 12005 H 1193.76 -0.62424 0.340361 0
M  V30 12006 H 1196.36 -1.28411 1.47414 0
M  V30 12007 H 1195.06 -3.16994 2.60659 0
M  V30 12008 H 1194.59 -3.79956 1.01965 0
M  V30 12009 H 1196.61 -4.93907 0.476517 0
M  V30 12010 N 1195.78 -0.955326 -1.25345 0
M  V30 12011 C 1197.01 -0.627233 -1.97688 0
M  V30 12012 C 1197.43 0.793973 -1.70522 0
M  V30 12013 O 1196.79 1.537 -0.961556 0
M  V30 12014 C 1196.84 -0.892969 -3.49369 0
M  V30 12015 O 1195.94 0.0278871 -4.12391 0
M  V30 12016 H 1195.28 -0.238402 -0.619726 0
M  V30 12017 H 1197.81 -1.28211 -1.59446 0
M  V30 12018 H 1197.82 -0.819517 -3.99685 0
M  V30 12019 H 1196.5 -1.92879 -3.6847 0
M  V30 12020 H 1195.08 -0.0978295 -3.72772 0
M  V30 12021 N 1197.26 1.39987 -0.723979 0
M  V30 12022 C 1198.51 2.00731 -0.267115 0
M  V30 12023 C 1198.84 1.57424 1.14228 0
M  V30 12024 O 1198.09 0.789205 1.79081 0
M  V30 12025 C 1198.39 3.56101 -0.304472 0
M  V30 12026 C 1198.06 4.1902 -1.66533 0
M  V30 12027 C 1196.72 4.3592 -2.03783 0
M  V30 12028 C 1199.07 4.54034 -2.55935 0
M  V30 12029 C 1196.4 4.85119 -3.29964 0
M  V30 12030 C 1198.75 5.04637 -3.81477 0
M  V30 12031 C 1197.41 5.19745 -4.18833 0
M  V30 12032 H 1196.68 0.734525 -0.0977442 0
M  V30 12033 H 1199.33 1.67476 -0.928659 0
M  V30 12034 H 1197.64 3.89314 0.440647 0
M  V30 12035 H 1199.33 4.00944 0.0669875 0
M  V30 12036 H 1195.92 4.0626 -1.36569 0
M  V30 12037 H 1200.11 4.40606 -2.2843 0
M  V30 12038 H 1195.36 4.95001 -3.58865 0
M  V30 12039 H 1199.54 5.30705 -4.50916 0
M  V30 12040 H 1197.16 5.5763 -5.16675 0
M  V30 12041 N 1198.74 0.470782 1.50404 0
M  V30 12042 C 1199.7 -0.312227 2.27063 0
M  V30 12043 C 1200.7 -0.920709 1.31832 0
M  V30 12044 O 1201.89 -0.789937 1.5526 0
M  V30 12045 C 1199.02 -1.44477 3.0877 0
M  V30 12046 H 1200.22 0.36006 2.97731 0
M  V30 12047 H 1197.77 0.224837 1.54674 0
M  V30 12048 H 1198.51 -2.15212 2.42599 0
M  V30 12049 H 1198.29 -1.01426 3.78755 0
M  V30 12050 H 1199.78 -1.99713 3.66749 0
M  V30 12051 N 1200.22 -1.56282 0.203376 0
M  V30 12052 C 1201.49 -1.89587 -0.481256 0
M  V30 12053 C 1201.87 -1.11812 -1.79057 0
M  V30 12054 O 1201.22 -0.221759 -2.27421 0
M  V30 12055 C 1201.43 -3.42071 -0.691965 0
M  V30 12056 C 1202.78 -4.12471 -1.00761 0
M  V30 12057 O 1203.8 -3.47568 -0.779396 0
M  V30 12058 O 1202.66 -5.27194 -1.43974 0
M  V30 12059 H 1199.76 -0.787682 -0.251963 0
M  V30 12060 H 1202.3 -1.67934 0.244207 0
M  V30 12061 H 1201.08 -3.9061 0.232322 0
M  V30 12062 H 1200.7 -3.69444 -1.46958 0
M  V30 12063 N 1201.7 0.070167 -1.57444 0
M  V30 12064 C 1203.11 0.621805 -1.76041 0
M  V30 12065 C 1203.46 1.77824 -0.829047 0
M  V30 12066 O 1202.58 2.16396 -0.0135453 0
M  V30 12067 C 1203.18 1.13476 -3.19231 0
M  V30 12068 C 1201.74 1.63225 -3.39167 0
M  V30 12069 C 1200.88 0.552369 -2.71743 0
M  V30 12070 H 1203.83 -0.156009 -1.57931 0
M  V30 12071 H 1203.86 2.00352 -3.2348 0
M  V30 12072 H 1203.37 0.29288 -3.86993 0
M  V30 12073 H 1201.47 2.49733 -2.76522 0
M  V30 12074 H 1201.58 1.70807 -4.47618 0
M  V30 12075 H 1199.95 0.997797 -2.34342 0
M  V30 12076 H 1200.73 -0.279354 -3.42162 0
M  V30 12077 N 1203.17 1.53854 0.341593 0
M  V30 12078 C 1204.42 1.7041 1.07905 0
M  V30 12079 C 1204.74 0.475039 1.89744 0
M  V30 12080 O 1205.94 0.521589 2.66443 0
M  V30 12081 C 1204.4 3.01342 1.96776 0
M  V30 12082 C 1204.01 4.31592 1.20135 0
M  V30 12083 C 1205.75 3.27264 2.70367 0
M  V30 12084 C 1203.66 5.53598 2.08047 0
M  V30 12085 H 1202.59 0.635005 0.406553 0
M  V30 12086 H 1205.24 1.80353 0.338409 0
M  V30 12087 H 1203.62 2.85261 2.74667 0
M  V30 12088 H 1204.79 4.58382 0.471404 0
M  V30 12089 H 1203.11 4.12298 0.583039 0
M  V30 12090 H 1205.71 4.15607 3.36415 0
M  V30 12091 H 1206.05 2.44357 3.37039 0
M  V30 12092 H 1206.58 3.4413 1.99548 0
M  V30 12093 H 1203.32 6.39053 1.45914 0
M  V30 12094 H 1202.84 5.31052 2.78825 0
M  V30 12095 H 1204.52 5.89314 2.67055 0
M  V30 12096 N 1204.65 -0.602709 1.4562 0
M  V30 12097 C 1205.88 -1.3881 1.53426 0
M  V30 12098 C 1206.29 -1.88046 0.16851 0
M  V30 12099 O 1205.65 -1.62493 -0.830791 0
M  V30 12100 C 1205.7 -2.58927 2.52268 0
M  V30 12101 O 1205.42 -2.11735 3.83536 0
M  V30 12102 C 1206.92 -3.51728 2.69819 0
M  V30 12103 H 1204.14 -0.424744 0.519455 0
M  V30 12104 H 1206.69 -0.73459 1.90851 0
M  V30 12105 H 1204.84 -3.20309 2.17902 0
M  V30 12106 H 1205.26 -2.89814 4.37159 0
M  V30 12107 H 1206.73 -4.32542 3.42945 0
M  V30 12108 H 1207.21 -4.02383 1.76024 0
M  V30 12109 H 1207.81 -2.96196 3.05202 0
M  V30 12110 N 1206.13 -1.32992 -0.845635 0
M  V30 12111 C 1207.09 -1.22607 -1.9365 0
M  V30 12112 C 1208.09 -0.146812 -1.60128 0
M  V30 12113 O 1209.28 -0.397863 -1.69596 0
M  V30 12114 C 1206.41 -0.887677 -3.2914 0
M  V30 12115 H 1207.61 -2.19563 -2.04285 0
M  V30 12116 H 1205.16 -1.16952 -1.03691 0
M  V30 12117 H 1205.9 0.0796777 -3.24202 0
M  V30 12118 H 1205.68 -1.66808 -3.54849 0
M  V30 12119 H 1207.17 -0.83958 -4.09073 0
M  V30 12120 N 1207.61 1.06304 -1.1635 0
M  V30 12121 C 1208.56 2.15879 -0.865967 0
M  V30 12122 C 1209.55 1.68595 0.164929 0
M  V30 12123 O 1210.76 1.7999 0.0189271 0
M  V30 12124 H 1207.13 0.704721 -0.262435 0
M  V30 12125 H 1209.1 2.38185 -1.79751 0
M  V30 12126 C 1207.85 3.4558 -0.383374 0
M  V30 12127 H 1207.17 3.82356 -1.16806 0
M  V30 12128 H 1208.61 4.2346 -0.213964 0
M  V30 12129 C 1207.07 3.24738 0.897044 0
M  V30 12130 O 1207.6 3.50284 1.96632 0
M  V30 12131 N 1205.81 2.78172 0.840761 0
M  V30 12132 H 1205.36 2.57583 -0.029584 0
M  V30 12133 H 1205.31 2.64606 1.69797 0
M  V30 12134 N 1209.09 0.96196 1.24836 0
M  V30 12135 C 1210.02 0.506241 2.27946 0
M  V30 12136 C 1211 -0.451183 1.64007 0
M  V30 12137 O 1212.18 -0.348552 1.91046 0
M  V30 12138 C 1209.31 -0.209846 3.46665 0
M  V30 12139 C 1208.27 0.663035 4.22833 0
M  V30 12140 C 1207.59 -0.184216 5.34383 0
M  V30 12141 C 1208.89 1.94479 4.84742 0
M  V30 12142 H 1210.59 1.36805 2.66317 0
M  V30 12143 H 1208.13 0.65926 1.28023 0
M  V30 12144 H 1210.08 -0.539838 4.17928 0
M  V30 12145 H 1208.81 -1.10596 3.07305 0
M  V30 12146 H 1207.47 0.976216 3.53363 0
M  V30 12147 H 1207.12 -1.08031 4.91262 0
M  V30 12148 H 1206.82 0.39657 5.8626 0
M  V30 12149 H 1208.34 -0.509009 6.08475 0
M  V30 12150 H 1209.75 1.68074 5.48109 0
M  V30 12151 H 1208.15 2.47183 5.46828 0
M  V30 12152 H 1209.22 2.64332 4.06517 0
M  V30 12153 N 1210.56 -1.39601 0.731392 0
M  V30 12154 C 1211.47 -2.34425 0.090527 0
M  V30 12155 C 1212.49 -1.58131 -0.725992 0
M  V30 12156 O 1213.67 -1.90441 -0.655294 0
M  V30 12157 C 1210.73 -3.37138 -0.808624 0
M  V30 12158 C 1209.79 -4.29295 0.0197365 0
M  V30 12159 C 1209.02 -5.27102 -0.836593 0
M  V30 12160 O 1209.25 -5.31302 -2.07543 0
M  V30 12161 O 1208.18 -6.01307 -0.267172 0
M  V30 12162 H 1212.01 -2.9088 0.873084 0
M  V30 12163 H 1209.59 -1.41066 0.492024 0
M  V30 12164 H 1211.47 -4.00087 -1.32319 0
M  V30 12165 H 1210.15 -2.83074 -1.57006 0
M  V30 12166 H 1209.06 -3.69581 0.579744 0
M  V30 12167 H 1210.39 -4.86555 0.743308 0
M  V30 12168 N 1212.04 -0.478751 -1.50152 0
M  V30 12169 C 1213.29 0.0734397 -2.01967 0
M  V30 12170 C 1213.61 1.39523 -1.36229 0
M  V30 12171 O 1212.88 1.89141 -0.510149 0
M  V30 12172 H 1211.46 0.0301305 -0.746392 0
M  V30 12173 H 1214.12 -0.630921 -1.84406 0
M  V30 12174 H 1213.22 0.21937 -3.11328 0
M  V30 12175 N 1213.52 1.56172 -0.211661 0
M  V30 12176 C 1214.48 2.18602 0.688906 0
M  V30 12177 C 1215.48 1.14508 1.12892 0
M  V30 12178 O 1216.67 1.39799 1.03932 0
M  V30 12179 C 1213.81 2.80141 1.94253 0
M  V30 12180 H 1215 2.9955 0.144765 0
M  V30 12181 H 1212.55 1.56254 0.0379615 0
M  V30 12182 H 1213.29 2.03035 2.52878 0
M  V30 12183 H 1213.07 3.56358 1.63558 0
M  V30 12184 H 1214.56 3.28026 2.58436 0
M  V30 12185 N 1215 -0.0618163 1.57479 0
M  V30 12186 C 1216.24 -0.760193 1.88013 0
M  V30 12187 C 1216.58 -1.76718 0.805258 0
M  V30 12188 O 1215.85 -1.93633 -0.183408 0
M  V30 12189 C 1216.14 -1.45924 3.29208 0
M  V30 12190 C 1215.99 -0.467994 4.47359 0
M  V30 12191 C 1217.31 -2.40166 3.68793 0
M  V30 12192 H 1214.43 -0.274896 0.683814 0
M  V30 12193 H 1217.07 -0.0232433 1.89986 0
M  V30 12194 H 1215.22 -2.08741 3.27657 0
M  V30 12195 H 1216.89 0.155735 4.61037 0
M  V30 12196 H 1215.13 0.215797 4.33263 0
M  V30 12197 H 1215.8 -0.994942 5.42959 0
M  V30 12198 H 1218.28 -1.87419 3.71501 0
M  V30 12199 H 1217.16 -2.86076 4.68457 0
M  V30 12200 H 1217.42 -3.25413 2.99264 0
M  V30 12201 N 1216.48 -1.54033 -0.333429 0
M  V30 12202 C 1217.7 -1.75716 -1.09232 0
M  V30 12203 C 1218.12 -0.501076 -1.82029 0
M  V30 12204 O 1217.48 0.527772 -1.74702 0
M  V30 12205 C 1217.53 -2.9439 -2.09802 0
M  V30 12206 O 1217.25 -4.15141 -1.39963 0
M  V30 12207 C 1218.75 -3.28206 -2.97987 0
M  V30 12208 H 1215.97 -0.586859 -0.325326 0
M  V30 12209 H 1218.51 -2.0089 -0.382555 0
M  V30 12210 H 1216.67 -2.71518 -2.76327 0
M  V30 12211 H 1217.08 -4.81826 -2.0723 0
M  V30 12212 H 1218.56 -4.14568 -3.64469 0
M  V30 12213 H 1219.03 -2.44944 -3.64553 0
M  V30 12214 H 1219.64 -3.5312 -2.37036 0
M  V30 12215 N 1217.95 0.594978 -1.45938 0
M  V30 12216 C 1219.2 1.35361 -1.50611 0
M  V30 12217 C 1219.53 1.93898 -0.152866 0
M  V30 12218 O 1218.78 1.76275 0.850037 0
M  V30 12219 C 1219.08 2.51129 -2.54301 0
M  V30 12220 C 1218.75 2.1066 -3.98664 0
M  V30 12221 C 1217.41 1.99338 -4.3797 0
M  V30 12222 C 1219.76 1.79267 -4.894 0
M  V30 12223 C 1217.09 1.54863 -5.65893 0
M  V30 12224 C 1219.44 1.36274 -6.17748 0
M  V30 12225 C 1218.11 1.2352 -6.55972 0
M  V30 12226 H 1217.38 0.49532 -0.551125 0
M  V30 12227 H 1220.02 0.671236 -1.79351 0
M  V30 12228 H 1218.33 3.24759 -2.19177 0
M  V30 12229 H 1220.03 3.09353 -2.55151 0
M  V30 12230 H 1216.62 2.20403 -3.67587 0
M  V30 12231 H 1220.8 1.86906 -4.59761 0
M  V30 12232 H 1216.06 1.43621 -5.94292 0
M  V30 12233 H 1220.23 1.11032 -6.87492 0
M  V30 12234 H 1217.86 0.88832 -7.54992 0
M  V30 12235 N 1219.43 1.33438 0.838571 0
M  V30 12236 C 1220.34 1.25753 1.98049 0
M  V30 12237 C 1221.36 0.168051 1.73187 0
M  V30 12238 O 1222.53 0.391691 1.97554 0
M  V30 12239 C 1219.6 0.997148 3.32051 0
M  V30 12240 C 1218.66 2.17667 3.70027 0
M  V30 12241 C 1217.89 1.92861 4.97635 0
M  V30 12242 O 1218.12 0.879072 5.63585 0
M  V30 12243 O 1217.05 2.79402 5.33121 0
M  V30 12244 H 1220.88 2.21786 2.07472 0
M  V30 12245 H 1218.46 1.13488 0.971645 0
M  V30 12246 H 1220.34 0.869099 4.1234 0
M  V30 12247 H 1219.02 0.0671036 3.2363 0
M  V30 12248 H 1217.93 2.36025 2.90246 0
M  V30 12249 H 1219.26 3.09006 3.83114 0
M  V30 12250 N 1220.91 -1.05686 1.16912 0
M  V30 12251 C 1221.87 -2.11481 0.883647 0
M  V30 12252 C 1222.87 -1.60321 -0.124034 0
M  V30 12253 O 1224.06 -1.73868 0.107566 0
M  V30 12254 C 1221.2 -3.3937 0.322649 0
M  V30 12255 H 1222.39 -2.38239 1.8216 0
M  V30 12256 H 1219.94 -1.2185 0.978895 0
M  V30 12257 H 1220.68 -3.18266 -0.622695 0
M  V30 12258 H 1220.46 -3.77812 1.04883 0
M  V30 12259 H 1221.95 -4.17362 0.141072 0
M  V30 12260 N 1222.39 -0.968567 -1.24324 0
M  V30 12261 C 1223.8 -0.66964 -1.74278 0
M  V30 12262 C 1224.15 0.81461 -1.7849 0
M  V30 12263 O 1223.28 1.63736 -1.4149 0
M  V30 12264 C 1223.87 -1.20885 -3.165 0
M  V30 12265 C 1222.43 -0.959808 -3.63957 0
M  V30 12266 C 1221.58 -1.34365 -2.42573 0
M  V30 12267 H 1224.53 -1.14379 -1.10015 0
M  V30 12268 H 1224.55 -0.57555 -3.76122 0
M  V30 12269 H 1224.06 -2.28912 -3.13402 0
M  V30 12270 H 1222.16 0.104894 -3.72452 0
M  V30 12271 H 1222.27 -1.60606 -4.51378 0
M  V30 12272 H 1220.64 -0.762039 -2.43033 0
M  V30 12273 H 1221.42 -2.43343 -2.42155 0
M  V30 12274 N 1223.87 1.39211 -0.738786 0
M  V30 12275 C 1225.14 1.9442 -0.214533 0
M  V30 12276 C 1225.52 1.67528 1.28443 0
M  V30 12277 O 1224.87 1.0056 2.05183 0
M  V30 12278 C 1225.08 3.44603 -0.552232 0
M  V30 12279 C 1226.43 4.21602 -0.503663 0
M  V30 12280 O 1227.45 3.52819 -0.489647 0
M  V30 12281 O 1226.31 5.44194 -0.50153 0
M  V30 12282 H 1223.41 0.826011 -0.0404247 0
M  V30 12283 H 1225.95 1.48689 -0.817902 0
M  V30 12284 H 1224.72 3.57626 -1.58806 0
M  V30 12285 H 1224.35 3.9752 0.0799096 0
M  V30 12286 N 1225.34 0.486708 1.49896 0
M  V30 12287 C 1226.27 -0.288898 2.31706 0
M  V30 12288 C 1227.26 -0.975901 1.3932 0
M  V30 12289 O 1228.44 -0.970065 1.68236 0
M  V30 12290 C 1225.57 -1.36218 3.19471 0
M  V30 12291 C 1224.52 -0.795884 4.20535 0
M  V30 12292 C 1223.85 -1.96862 4.97141 0
M  V30 12293 C 1225.15 0.203421 5.21904 0
M  V30 12294 H 1226.84 0.393934 2.96797 0
M  V30 12295 H 1224.39 0.190894 1.42729 0
M  V30 12296 H 1226.34 -1.91238 3.75508 0
M  V30 12297 H 1225.07 -2.074 2.52295 0
M  V30 12298 H 1223.73 -0.267538 3.65622 0
M  V30 12299 H 1223.37 -2.66779 4.26425 0
M  V30 12300 H 1223.07 -1.59585 5.65514 0
M  V30 12301 H 1224.6 -2.52343 5.56017 0
M  V30 12302 H 1226.01 -0.258144 5.72719 0
M  V30 12303 H 1224.41 0.491273 5.98086 0
M  V30 12304 H 1225.48 1.12414 4.7169 0
M  V30 12305 N 1226.82 -1.56058 0.219941 0
M  V30 12306 C 1228.23 -1.84462 -0.288203 0
M  V30 12307 C 1228.59 -1.14128 -1.59591 0
M  V30 12308 O 1227.71 -0.410411 -2.12473 0
M  V30 12309 C 1228.31 -3.34634 -0.529689 0
M  V30 12310 C 1226.86 -3.63361 -0.982145 0
M  V30 12311 C 1226.01 -2.77265 -0.0443292 0
M  V30 12312 H 1228.96 -1.52387 0.44317 0
M  V30 12313 H 1228.98 -3.54752 -1.3759 0
M  V30 12314 H 1228.5 -3.85796 0.422243 0
M  V30 12315 H 1226.6 -3.17653 -1.94749 0
M  V30 12316 H 1226.71 -4.71361 -0.857668 0
M  V30 12317 H 1225.07 -2.48672 -0.550825 0
M  V30 12318 H 1225.86 -3.31225 0.902491 0
M  V30 12319 N 1228.3 0.053464 -1.57509 0
M  V30 12320 C 1229.21 1.07902 -2.08313 0
M  V30 12321 C 1230.23 1.41223 -1.01647 0
M  V30 12322 O 1231.4 1.51032 -1.33233 0
M  V30 12323 C 1228.47 2.36813 -2.5322 0
M  V30 12324 C 1227.53 2.10297 -3.74264 0
M  V30 12325 C 1226.76 3.33062 -4.1702 0
M  V30 12326 O 1226.99 4.42857 -3.59491 0
M  V30 12327 O 1225.92 3.20195 -5.09665 0
M  V30 12328 H 1229.75 0.677368 -2.9605 0
M  V30 12329 H 1227.33 0.268838 -1.46961 0
M  V30 12330 H 1229.21 3.12645 -2.82544 0
M  V30 12331 H 1227.89 2.76323 -1.68605 0
M  V30 12332 H 1226.79 1.32111 -3.49996 0
M  V30 12333 H 1228.13 1.75658 -4.59788 0
M  V30 12334 N 1229.78 1.54207 0.325255 0
M  V30 12335 C 1230.69 1.86495 1.42326 0
M  V30 12336 C 1231.71 0.756718 1.56684 0
M  V30 12337 O 1232.88 1.05084 1.71812 0
M  V30 12338 C 1229.95 2.08414 2.77064 0
M  V30 12339 C 1229.01 3.32221 2.71897 0
M  V30 12340 C 1228.24 3.53085 4.00209 0
M  V30 12341 O 1228.46 2.77421 4.98391 0
M  V30 12342 O 1227.4 4.46559 4.0357 0
M  V30 12343 H 1231.22 2.79859 1.17951 0
M  V30 12344 H 1228.81 1.40091 0.519124 0
M  V30 12345 H 1230.69 2.24171 3.56827 0
M  V30 12346 H 1229.37 1.18238 3.01333 0
M  V30 12347 H 1228.27 3.21851 1.90691 0
M  V30 12348 H 1229.61 4.22449 2.52582 0
M  V30 12349 N 1231.26 -0.58723 1.46251 0
M  V30 12350 C 1232.49 -1.37174 1.5489 0
M  V30 12351 C 1232.9 -1.87857 0.188445 0
M  V30 12352 O 1232.26 -1.63365 -0.813509 0
M  V30 12353 C 1232.31 -2.56237 2.55 0
M  V30 12354 O 1232.03 -2.07655 3.8576 0
M  V30 12355 C 1233.53 -3.48846 2.73535 0
M  V30 12356 H 1230.75 -0.419211 0.523931 0
M  V30 12357 H 1233.29 -0.714307 1.91619 0
M  V30 12358 H 1231.45 -3.1798 2.21287 0
M  V30 12359 H 1231.86 -2.85161 4.40208 0
M  V30 12360 H 1233.34 -4.2888 3.47514 0
M  V30 12361 H 1233.81 -4.00493 1.80282 0
M  V30 12362 H 1234.42 -2.92942 3.08326 0
M  V30 12363 N 1232.74 -1.33881 -0.831482 0
M  V30 12364 C 1233.67 -1.27384 -1.95693 0
M  V30 12365 C 1234.65 -0.152943 -1.69411 0
M  V30 12366 O 1235.83 -0.34392 -1.9113 0
M  V30 12367 C 1232.96 -1.01982 -3.31989 0
M  V30 12368 C 1231.92 -2.10445 -3.72689 0
M  V30 12369 C 1231.24 -1.70245 -5.06873 0
M  V30 12370 C 1232.54 -3.52194 -3.8569 0
M  V30 12371 H 1234.24 -2.21549 -2.01386 0
M  V30 12372 H 1231.78 -1.06653 -0.967526 0
M  V30 12373 H 1233.73 -0.960841 -4.103 0
M  V30 12374 H 1232.46 -0.0425709 -3.26572 0
M  V30 12375 H 1231.12 -2.15398 -2.96647 0
M  V30 12376 H 1230.77 -0.712036 -4.97935 0
M  V30 12377 H 1230.47 -2.42834 -5.35075 0
M  V30 12378 H 1231.99 -1.65827 -5.87651 0
M  V30 12379 H 1233.4 -3.49701 -4.54293 0
M  V30 12380 H 1231.8 -4.23331 -4.25336 0
M  V30 12381 H 1232.87 -3.9016 -2.87929 0
M  V30 12382 N 1234.21 1.05064 -1.1747 0
M  V30 12383 C 1235.15 2.12334 -0.836028 0
M  V30 12384 C 1236.12 1.61393 0.197733 0
M  V30 12385 O 1237.31 1.88334 0.0789748 0
M  V30 12386 C 1234.44 3.37796 -0.24734 0
M  V30 12387 C 1233.48 4.07565 -1.25669 0
M  V30 12388 S 1234.31 4.55941 -2.80853 0
M  V30 12389 C 1235.47 5.84648 -2.23468 0
M  V30 12390 H 1235.7 2.40735 -1.74453 0
M  V30 12391 H 1233.24 1.17684 -0.999495 0
M  V30 12392 H 1235.19 4.1041 0.0858241 0
M  V30 12393 H 1233.86 3.07529 0.639124 0
M  V30 12394 H 1233.05 4.97715 -0.793465 0
M  V30 12395 H 1232.65 3.41022 -1.53557 0
M  V30 12396 H 1234.94 6.58067 -1.61104 0
M  V30 12397 H 1235.89 6.35719 -3.11877 0
M  V30 12398 H 1236.29 5.39272 -1.6687 0
M  V30 12399 N 1235.69 0.975146 1.23809 0
M  V30 12400 C 1236.6 0.51917 2.28783 0
M  V30 12401 C 1237.62 -0.423487 1.68768 0
M  V30 12402 O 1238.79 -0.294699 1.99232 0
M  V30 12403 C 1235.86 -0.176229 3.46252 0
M  V30 12404 C 1234.92 0.807177 4.21643 0
M  V30 12405 C 1234.15 0.144869 5.33503 0
M  V30 12406 O 1234.38 -1.06522 5.60365 0
M  V30 12407 O 1233.31 0.84079 5.95999 0
M  V30 12408 H 1237.14 1.39204 2.69919 0
M  V30 12409 H 1234.72 0.74253 1.29641 0
M  V30 12410 H 1236.6 -0.566547 4.17574 0
M  V30 12411 H 1235.28 -1.02394 3.07078 0
M  V30 12412 H 1234.18 1.2481 3.52666 0
M  V30 12413 H 1235.52 1.62354 4.64653 0
M  V30 12414 N 1237.17 -1.38817 0.746158 0
M  V30 12415 C 1238.1 -2.29081 0.0737986 0
M  V30 12416 C 1239.11 -1.47377 -0.691656 0
M  V30 12417 O 1240.3 -1.70326 -0.533973 0
M  V30 12418 C 1237.4 -3.26185 -0.919607 0
M  V30 12419 C 1236.58 -4.36879 -0.213349 0
M  V30 12420 C 1235.64 -5.1422 -1.11644 0
M  V30 12421 O 1234.66 -5.66137 -0.589747 0
M  V30 12422 N 1235.86 -5.26488 -2.44521 0
M  V30 12423 H 1238.63 -2.87424 0.848966 0
M  V30 12424 H 1236.19 -1.50518 0.596314 0
M  V30 12425 H 1238.18 -3.74802 -1.52662 0
M  V30 12426 H 1236.75 -2.68793 -1.5959 0
M  V30 12427 H 1235.97 -3.89994 0.574285 0
M  V30 12428 H 1237.26 -5.08053 0.275655 0
M  V30 12429 H 1236.66 -4.85846 -2.89777 0
M  V30 12430 H 1235.21 -5.78505 -3.00291 0
M  V30 12431 N 1238.65 -0.49465 -1.49636 0
M  V30 12432 C 1239.56 0.291881 -2.32777 0
M  V30 12433 C 1240.57 0.973468 -1.44221 0
M  V30 12434 O 1241.75 0.956252 -1.77251 0
M  V30 12435 C 1238.81 1.34609 -3.19502 0
M  V30 12436 C 1237.88 0.678611 -4.23903 0
M  V30 12437 C 1237.11 1.68259 -5.06483 0
M  V30 12438 O 1237.33 2.91176 -4.90482 0
M  V30 12439 O 1236.27 1.24141 -5.88959 0
M  V30 12440 H 1240.09 -0.388459 -3.01205 0
M  V30 12441 H 1237.68 -0.256086 -1.47189 0
M  V30 12442 H 1239.56 1.95617 -3.73245 0
M  V30 12443 H 1238.23 2.00947 -2.53775 0
M  V30 12444 H 1237.14 0.0289541 -3.74089 0
M  V30 12445 H 1238.47 0.0577817 -4.92166 0
M  V30 12446 N 1240.13 1.55939 -0.228214 0
M  V30 12447 C 1241.08 2.17223 0.692674 0
M  V30 12448 C 1242.06 1.12252 1.15275 0
M  V30 12449 O 1243.25 1.3822 1.10563 0
M  V30 12450 C 1240.38 2.86084 1.89766 0
M  V30 12451 C 1239.47 3.98288 1.45695 0
M  V30 12452 N 1239.86 5.00515 0.729258 0
M  V30 12453 C 1238.16 4.105 1.74372 0
M  V30 12454 C 1238.86 5.79516 0.503606 0
M  V30 12455 N 1237.83 5.33119 1.06229 0
M  V30 12456 H 1241.63 2.9362 0.128345 0
M  V30 12457 H 1239.15 1.62373 -0.0297445 0
M  V30 12458 H 1241.15 3.28404 2.5682 0
M  V30 12459 H 1239.81 2.11185 2.46639 0
M  V30 12460 H 1240.82 5.16495 0.381261 0
M  V30 12461 H 1237.49 3.46759 2.32518 0
M  V30 12462 H 1238.88 6.71857 -0.0760344 0
M  V30 12463 N 1241.6 -0.0451101 1.57535 0
M  V30 12464 C 1242.83 -0.75132 1.92777 0
M  V30 12465 C 1243.25 -1.69743 0.826599 0
M  V30 12466 O 1242.6 -1.8142 -0.198224 0
M  V30 12467 C 1242.66 -1.52218 3.2789 0
M  V30 12468 O 1242.38 -0.614059 4.33775 0
M  V30 12469 C 1243.88 -2.32699 3.77314 0
M  V30 12470 H 1241.1 -0.21211 0.636593 0
M  V30 12471 H 1243.64 -0.0074174 2.04499 0
M  V30 12472 H 1241.8 -2.2181 3.17614 0
M  V30 12473 H 1242.21 -1.15294 5.11671 0
M  V30 12474 H 1243.68 -2.82205 4.7441 0
M  V30 12475 H 1244.16 -3.13414 3.07682 0
M  V30 12476 H 1244.77 -1.68212 3.90621 0
M  V30 12477 N 1243.08 -1.54377 -0.317073 0
M  V30 12478 C 1243.99 -1.87247 -1.41335 0
M  V30 12479 C 1245.01 -0.765017 -1.5628 0
M  V30 12480 O 1246.18 -1.05994 -1.71252 0
M  V30 12481 C 1243.25 -2.0988 -2.75955 0
M  V30 12482 C 1242.31 -3.33658 -2.70131 0
M  V30 12483 C 1241.54 -3.55202 -3.9833 0
M  V30 12484 O 1241.77 -2.80061 -4.96913 0
M  V30 12485 O 1240.7 -4.48693 -4.01196 0
M  V30 12486 H 1244.53 -2.80481 -1.16465 0
M  V30 12487 H 1242.11 -1.40364 -0.511687 0
M  V30 12488 H 1243.99 -2.2606 -3.55633 0
M  V30 12489 H 1242.67 -1.19834 -3.00702 0
M  V30 12490 H 1241.58 -3.22857 -1.88981 0
M  V30 12491 H 1242.91 -4.23782 -2.50338 0
M  V30 12492 N 1244.56 0.579466 -1.4656 0
M  V30 12493 C 1245.81 1.33379 -1.51304 0
M  V30 12494 C 1246.12 1.94855 -0.170507 0
M  V30 12495 O 1247.33 2.71331 -0.0957704 0
M  V30 12496 C 1245.78 2.41748 -2.66619 0
M  V30 12497 C 1245.39 1.8656 -4.07307 0
M  V30 12498 C 1247.14 3.18502 -2.80636 0
M  V30 12499 C 1245.04 2.92578 -5.13957 0
M  V30 12500 H 1243.97 0.501422 -0.56311 0
M  V30 12501 H 1246.62 0.618025 -1.72779 0
M  V30 12502 H 1245.01 3.16138 -2.3848 0
M  V30 12503 H 1246.18 1.18692 -4.45252 0
M  V30 12504 H 1244.5 1.22464 -3.97984 0
M  V30 12505 H 1247.09 3.9763 -3.57483 0
M  V30 12506 H 1247.44 3.71295 -1.8827 0
M  V30 12507 H 1247.97 2.51219 -3.08437 0
M  V30 12508 H 1244.71 2.44668 -6.08126 0
M  V30 12509 H 1244.23 3.58926 -4.80554 0
M  V30 12510 H 1245.91 3.56471 -5.39942 0
M  V30 12511 N 1246.04 1.3432 0.824371 0
M  V30 12512 C 1246.97 1.2842 1.95014 0
M  V30 12513 C 1247.95 0.161925 1.69328 0
M  V30 12514 O 1249.13 0.354052 1.90945 0
M  V30 12515 C 1246.26 1.03741 3.31444 0
M  V30 12516 C 1245.22 2.12419 3.71567 0
M  V30 12517 C 1244.54 1.72931 5.05963 0
M  V30 12518 C 1245.84 3.54235 3.83817 0
M  V30 12519 H 1247.54 2.22614 2.00209 0
M  V30 12520 H 1245.08 1.07165 0.961856 0
M  V30 12521 H 1247.04 0.982586 4.09784 0
M  V30 12522 H 1245.76 0.0598892 3.26545 0
M  V30 12523 H 1244.42 2.16968 2.955 0
M  V30 12524 H 1244.07 0.738433 4.9755 0
M  V30 12525 H 1243.77 2.45668 5.3378 0
M  V30 12526 H 1245.29 1.68941 5.86763 0
M  V30 12527 H 1246.71 3.52106 4.52432 0
M  V30 12528 H 1245.1 4.25581 4.23085 0
M  V30 12529 H 1246.17 3.91682 2.85856 0
M  V30 12530 N 1247.52 -1.0444 1.18026 0
M  V30 12531 C 1248.93 -1.29766 0.929143 0
M  V30 12532 C 1249.13 -1.97338 -0.407436 0
M  V30 12533 O 1248.19 -2.25166 -1.14265 0
M  V30 12534 C 1249.5 -2.16002 2.09197 0
M  V30 12535 C 1251.05 -2.29361 2.12985 0
M  V30 12536 C 1251.52 -3.18962 3.28675 0
M  V30 12537 N 1253.02 -3.26549 3.28512 0
M  V30 12538 C 1253.75 -3.96025 4.14671 0
M  V30 12539 N 1253.25 -4.67863 5.10956 0
M  V30 12540 N 1255.04 -3.92266 4.02597 0
M  V30 12541 H 1247.19 -0.58984 2.04046 0
M  V30 12542 H 1249.45 -0.322752 0.891367 0
M  V30 12543 H 1249.16 -1.73653 3.05839 0
M  V30 12544 H 1249.03 -3.16667 2.04943 0
M  V30 12545 H 1251.42 -2.70948 1.16924 0
M  V30 12546 H 1251.5 -1.28299 2.21298 0
M  V30 12547 H 1251.15 -2.78087 4.25006 0
M  V30 12548 H 1251.08 -4.20047 3.17598 0
M  V30 12549 H 1253.57 -2.75371 2.58804 0
M  V30 12550 H 1253.88 -5.1846 5.73079 0
M  V30 12551 H 1252.22 -4.6678 5.14919 0
M  V30 12552 H 1255.42 -3.35273 3.26665 0
M  V30 12553 H 1255.59 -4.4614 4.69961 0
M  V30 12554 N 1248.99 -0.981699 -1.2329 0
M  V30 12555 C 1250.24 -0.650015 -1.91361 0
M  V30 12556 C 1250.56 0.819184 -1.76959 0
M  V30 12557 O 1249.83 1.5861 -1.14977 0
M  V30 12558 H 1248.41 -0.237427 -0.708264 0
M  V30 12559 H 1251.08 -1.24579 -1.49887 0
M  V30 12560 H 1250.17 -0.902772 -2.98758 0
M  V30 12561 N 1250.47 1.3842 -0.753509 0
M  V30 12562 C 1251.4 2.33073 -0.141198 0
M  V30 12563 C 1252.38 1.54863 0.70367 0
M  V30 12564 O 1253.57 1.8318 0.644872 0
M  V30 12565 C 1250.7 3.39043 0.752802 0
M  V30 12566 C 1249.65 4.27999 0.0106692 0
M  V30 12567 C 1248.98 5.24824 1.02291 0
M  V30 12568 C 1250.28 5.09308 -1.15768 0
M  V30 12569 H 1251.97 2.84528 -0.93188 0
M  V30 12570 H 1249.52 1.36802 -0.449567 0
M  V30 12571 H 1251.47 4.04224 1.19083 0
M  V30 12572 H 1250.2 2.8607 1.57581 0
M  V30 12573 H 1248.85 3.64323 -0.407939 0
M  V30 12574 H 1248.5 4.68139 1.83998 0
M  V30 12575 H 1248.2 5.85196 0.53101 0
M  V30 12576 H 1249.73 5.92882 1.46026 0
M  V30 12577 H 1251.14 5.6773 -0.797203 0
M  V30 12578 H 1249.54 5.78914 -1.58044 0
M  V30 12579 H 1250.61 4.43051 -1.97062 0
M  V30 12580 N 1251.95 0.502579 1.49372 0
M  V30 12581 C 1253.37 0.158641 1.5881 0
M  V30 12582 C 1253.57 -1.33688 1.50764 0
M  V30 12583 O 1252.62 -2.11295 1.38241 0
M  V30 12584 C 1253.94 0.736843 2.91532 0
M  V30 12585 C 1255.48 0.703093 3.05001 0
M  V30 12586 C 1255.96 1.25938 4.40345 0
M  V30 12587 N 1257.45 1.22015 4.46841 0
M  V30 12588 C 1258.18 1.62076 5.50017 0
M  V30 12589 N 1257.68 2.09736 6.6029 0
M  V30 12590 N 1259.47 1.53482 5.4074 0
M  V30 12591 H 1251.62 1.47487 1.52844 0
M  V30 12592 H 1253.89 0.611851 0.724115 0
M  V30 12593 H 1253.59 1.78573 3.02992 0
M  V30 12594 H 1253.47 0.198178 3.76679 0
M  V30 12595 H 1255.85 -0.336965 2.9317 0
M  V30 12596 H 1255.94 1.27892 2.21534 0
M  V30 12597 H 1255.58 2.29823 4.52928 0
M  V30 12598 H 1255.51 0.659481 5.22454 0
M  V30 12599 H 1258 0.870957 3.67726 0
M  V30 12600 H 1258.31 2.3837 7.35119 0
M  V30 12601 H 1256.66 2.13712 6.61326 0
M  V30 12602 H 1259.85 1.16065 4.53483 0
M  V30 12603 H 1260.02 1.85026 6.21023 0
M  V30 12604 N 1253.43 -1.55816 0.23648 0
M  V30 12605 C 1254.68 -1.98686 -0.391146 0
M  V30 12606 C 1255 -1.12443 -1.58703 0
M  V30 12607 O 1254.26 -0.172805 -1.94936 0
M  V30 12608 C 1254.56 -3.47039 -0.85434 0
M  V30 12609 C 1254.22 -4.50299 0.232651 0
M  V30 12610 C 1252.89 -4.78259 0.531218 0
M  V30 12611 C 1255.24 -5.1215 0.967027 0
M  V30 12612 C 1252.57 -5.65347 1.56842 0
M  V30 12613 C 1254.92 -6.00363 1.99367 0
M  V30 12614 C 1253.58 -6.2666 2.299 0
M  V30 12615 H 1252.85 -0.727045 -0.14313 0
M  V30 12616 H 1255.5 -1.88419 0.342125 0
M  V30 12617 H 1253.8 -3.54585 -1.66663 0
M  V30 12618 H 1255.5 -3.7759 -1.35005 0
M  V30 12619 H 1252.09 -4.28599 -0.0102014 0
M  V30 12620 H 1256.27 -4.90606 0.749609 0
M  V30 12621 H 1251.53 -5.83981 1.81043 0
M  V30 12622 H 1255.7 -6.47335 2.56769 0
M  V30 12623 H 1253.33 -6.93938 3.1041 0
M  V30 12624 N 1254.91 0.036755 -1.57557 0
M  V30 12625 C 1256.13 0.741086 -1.93172 0
M  V30 12626 C 1256.55 1.69303 -0.835589 0
M  V30 12627 O 1255.91 1.81523 0.1886 0
M  V30 12628 C 1255.96 1.50477 -3.28693 0
M  V30 12629 O 1255.68 0.591046 -4.34095 0
M  V30 12630 C 1257.18 2.30695 -3.78543 0
M  V30 12631 H 1254.4 0.208731 -0.637709 0
M  V30 12632 H 1256.94 -0.00342776 -2.045 0
M  V30 12633 H 1255.1 2.20123 -3.18786 0
M  V30 12634 H 1255.51 1.12579 -5.12276 0
M  V30 12635 H 1256.99 2.79685 -4.759 0
M  V30 12636 H 1257.46 3.11778 -3.0934 0
M  V30 12637 H 1258.07 1.66138 -3.91508 0
M  V30 12638 N 1256.39 1.54543 0.308881 0
M  V30 12639 C 1257.32 1.87947 1.38557 0
M  V30 12640 C 1258.3 0.737622 1.53275 0
M  V30 12641 O 1259.48 0.992664 1.66913 0
M  V30 12642 C 1256.61 2.11982 2.75102 0
M  V30 12643 C 1255.57 3.2783 2.75158 0
M  V30 12644 C 1254.89 3.37266 4.14917 0
M  V30 12645 C 1256.19 4.65129 2.37598 0
M  V30 12646 H 1257.89 2.78123 1.1085 0
M  V30 12647 H 1255.43 1.3382 0.531808 0
M  V30 12648 H 1257.38 2.33935 3.50503 0
M  V30 12649 H 1256.11 1.18569 3.04317 0
M  V30 12650 H 1254.77 3.05787 2.02212 0
M  V30 12651 H 1254.42 2.41384 4.41296 0
M  V30 12652 H 1254.12 4.15135 4.15857 0
M  V30 12653 H 1255.64 3.61471 4.92109 0
M  V30 12654 H 1257.05 4.86865 3.02714 0
M  V30 12655 H 1255.45 5.45653 2.49765 0
M  V30 12656 H 1256.52 4.6638 1.32731 0
M  V30 12657 N 1257.86 -0.571685 1.46866 0
M  V30 12658 C 1258.79 -1.68994 1.61131 0
M  V30 12659 C 1259.77 -1.63728 0.461222 0
M  V30 12660 O 1260.96 -1.81574 0.688813 0
M  V30 12661 C 1258.09 -3.07638 1.61172 0
M  V30 12662 C 1257.04 -3.27742 2.75262 0
M  V30 12663 C 1256.37 -4.67025 2.60368 0
M  V30 12664 C 1257.67 -3.14511 4.16989 0
M  V30 12665 H 1259.36 -1.57311 2.54742 0
M  V30 12666 H 1256.91 -0.755382 1.22597 0
M  V30 12667 H 1258.86 -3.857 1.69744 0
M  V30 12668 H 1257.59 -3.20245 0.641122 0
M  V30 12669 H 1256.25 -2.52083 2.66176 0
M  V30 12670 H 1255.89 -4.76413 1.61368 0
M  V30 12671 H 1255.59 -4.81428 3.36899 0
M  V30 12672 H 1257.12 -5.47242 2.70848 0
M  V30 12673 H 1258.53 -3.82407 4.27128 0
M  V30 12674 H 1256.93 -3.40431 4.94193 0
M  V30 12675 H 1258 -2.11443 4.36371 0
M  V30 12676 N 1259.34 -1.34755 -0.817236 0
M  V30 12677 C 1260.59 -1.27432 -1.57377 0
M  V30 12678 C 1260.92 0.15419 -1.93888 0
M  V30 12679 O 1260.17 1.11686 -1.60701 0
M  V30 12680 C 1260.47 -2.11611 -2.8802 0
M  V30 12681 C 1260.14 -3.60543 -2.70776 0
M  V30 12682 C 1258.8 -4.01141 -2.6578 0
M  V30 12683 C 1261.15 -4.55089 -2.54053 0
M  V30 12684 C 1258.48 -5.34469 -2.41991 0
M  V30 12685 C 1260.83 -5.88603 -2.31795 0
M  V30 12686 C 1259.49 -6.28358 -2.25215 0
M  V30 12687 H 1258.76 -0.466305 -0.575882 0
M  V30 12688 H 1261.41 -1.66552 -0.945128 0
M  V30 12689 H 1259.72 -1.65336 -3.55206 0
M  V30 12690 H 1261.41 -2.03287 -3.45652 0
M  V30 12691 H 1258 -3.2832 -2.75506 0
M  V30 12692 H 1262.19 -4.24617 -2.56932 0
M  V30 12693 H 1257.44 -5.64284 -2.35359 0
M  V30 12694 H 1261.62 -6.61451 -2.17844 0
M  V30 12695 H 1259.24 -7.31604 -2.06543 0
M  V30 12696 N 1260.82 1.03812 -1.18578 0
M  V30 12697 C 1262.07 1.77319 -0.984173 0
M  V30 12698 C 1262.4 1.88052 0.484789 0
M  V30 12699 O 1261.67 1.3905 1.35998 0
M  V30 12700 C 1261.96 3.20448 -1.6427 0
M  V30 12701 C 1261.81 3.17643 -3.1847 0
M  V30 12702 C 1263.13 4.18623 -1.35805 0
M  V30 12703 H 1260.25 0.643681 -0.358949 0
M  V30 12704 H 1262.89 1.21249 -1.46283 0
M  V30 12705 H 1261.04 3.68324 -1.23572 0
M  V30 12706 H 1262.71 2.77738 -3.6832 0
M  V30 12707 H 1260.95 2.55606 -3.50497 0
M  V30 12708 H 1261.63 4.18724 -3.59686 0
M  V30 12709 H 1264.1 3.79306 -1.71073 0
M  V30 12710 H 1262.98 5.16982 -1.84446 0
M  V30 12711 H 1263.24 4.41203 -0.281418 0
M  V30 12712 N 1262.3 0.988223 1.22768 0
M  V30 12713 C 1263.23 0.492919 2.23837 0
M  V30 12714 C 1264.24 -0.409467 1.57567 0
M  V30 12715 O 1265.43 -0.21235 1.77232 0
M  V30 12716 C 1262.53 -0.305428 3.37521 0
M  V30 12717 C 1261.7 0.591966 4.33376 0
M  V30 12718 C 1260.76 -0.15387 5.25975 0
M  V30 12719 O 1259.79 0.459153 5.67345 0
M  V30 12720 N 1260.99 -1.43756 5.62418 0
M  V30 12721 H 1263.76 1.36199 2.66965 0
M  V30 12722 H 1261.32 0.862395 1.3702 0
M  V30 12723 H 1263.31 -0.812921 3.96451 0
M  V30 12724 H 1261.88 -1.07556 2.93514 0
M  V30 12725 H 1261.1 1.28019 3.72833 0
M  V30 12726 H 1262.39 1.20327 4.94367 0
M  V30 12727 H 1261.79 -1.95701 5.30771 0
M  V30 12728 H 1260.34 -1.89034 6.23786 0
M  V30 12729 N 1263.78 -1.38018 0.760839 0
M  V30 12730 C 1264.73 -2.27717 0.113521 0
M  V30 12731 C 1265.71 -1.45562 -0.685613 0
M  V30 12732 O 1266.9 -1.68226 -0.550377 0
M  V30 12733 C 1264.03 -3.34478 -0.77325 0
M  V30 12734 C 1263.12 -4.24087 0.0331238 0
M  V30 12735 N 1263.51 -4.94283 1.07323 0
M  V30 12736 C 1261.81 -4.45584 -0.192565 0
M  V30 12737 C 1262.51 -5.60344 1.56172 0
M  V30 12738 N 1261.48 -5.36499 0.875768 0
M  V30 12739 H 1265.28 -2.79456 0.910021 0
M  V30 12740 H 1262.8 -1.51006 0.597561 0
M  V30 12741 H 1264.8 -3.97635 -1.25268 0
M  V30 12742 H 1263.46 -2.84296 -1.56862 0
M  V30 12743 H 1264.47 -4.97036 1.45517 0
M  V30 12744 H 1261.14 -4.06296 -0.960704 0
M  V30 12745 H 1262.53 -6.26477 2.42851 0
M  V30 12746 N 1265.25 -0.510493 -1.49103 0
M  V30 12747 C 1266.5 0.030689 -2.02777 0
M  V30 12748 C 1266.83 1.35765 -1.38858 0
M  V30 12749 O 1266.11 1.87209 -0.527528 0
M  V30 12750 C 1266.39 0.173261 -3.59683 0
M  V30 12751 C 1266.24 -1.17749 -4.34114 0
M  V30 12752 C 1267.56 0.909395 -4.30602 0
M  V30 12753 H 1264.68 0.0096789 -0.736936 0
M  V30 12754 H 1267.32 -0.663746 -1.78029 0
M  V30 12755 H 1265.47 0.764721 -3.80899 0
M  V30 12756 H 1267.15 -1.80856 -4.24369 0
M  V30 12757 H 1265.39 -1.76438 -3.96298 0
M  V30 12758 H 1266.06 -1.03094 -5.42287 0
M  V30 12759 H 1268.54 0.407677 -4.14098 0
M  V30 12760 H 1267.41 0.978012 -5.40117 0
M  V30 12761 H 1267.67 1.9553 -3.96511 0
M  V30 12762 N 1266.73 1.55688 -0.24474 0
M  V30 12763 C 1267.66 2.24272 0.64995 0
M  V30 12764 C 1268.64 1.22226 1.183 0
M  V30 12765 O 1269.83 1.50873 1.22274 0
M  V30 12766 C 1266.96 2.94053 1.84798 0
M  V30 12767 C 1265.91 4.02769 1.44779 0
M  V30 12768 C 1265.24 4.59965 2.72647 0
M  V30 12769 C 1266.54 5.18601 0.62047 0
M  V30 12770 H 1268.23 2.99298 0.0780654 0
M  V30 12771 H 1265.78 1.43955 0.0361069 0
M  V30 12772 H 1267.73 3.40732 2.47951 0
M  V30 12773 H 1266.45 2.16511 2.44521 0
M  V30 12774 H 1265.11 3.56856 0.839609 0
M  V30 12775 H 1264.76 3.79126 3.30564 0
M  V30 12776 H 1264.46 5.33352 2.46596 0
M  V30 12777 H 1265.99 5.09376 3.36703 0
M  V30 12778 H 1267.4 5.61519 1.15625 0
M  V30 12779 H 1265.8 5.98364 0.456097 0
M  V30 12780 H 1266.87 4.83503 -0.367798 0
M  V30 12781 N 1268.21 -0.0283989 1.57574 0
M  V30 12782 C 1269.12 -1.04575 2.10003 0
M  V30 12783 C 1270.14 -1.39588 1.03881 0
M  V30 12784 O 1271.31 -1.48894 1.35619 0
M  V30 12785 C 1268.38 -2.32755 2.56955 0
M  V30 12786 C 1267.44 -2.04317 3.77562 0
M  V30 12787 C 1266.67 -3.26385 4.22266 0
M  V30 12788 O 1266.89 -4.37082 3.66491 0
M  V30 12789 O 1265.83 -3.12046 5.14695 0
M  V30 12790 H 1269.65 -0.630183 2.9709 0
M  V30 12791 H 1267.24 -0.245423 1.4737 0
M  V30 12792 H 1269.12 -3.08111 2.87482 0
M  V30 12793 H 1267.8 -2.73605 1.72979 0
M  V30 12794 H 1266.7 -1.26527 3.52054 0
M  V30 12795 H 1268.04 -1.68321 4.62524 0
M  V30 12796 N 1269.69 -1.54705 -0.300681 0
M  V30 12797 C 1270.94 -1.73211 -1.03349 0
M  V30 12798 C 1271.25 -0.52518 -1.88418 0
M  V30 12799 O 1272.46 -0.592049 -2.64966 0
M  V30 12800 C 1270.91 -3.06453 -1.88717 0
M  V30 12801 C 1270.52 -4.34625 -1.0865 0
M  V30 12802 C 1272.26 -3.34317 -2.61595 0
M  V30 12803 C 1270.17 -5.58919 -1.93297 0
M  V30 12804 H 1269.1 -0.64556 -0.389574 0
M  V30 12805 H 1271.75 -1.81186 -0.290472 0
M  V30 12806 H 1270.13 -2.92443 -2.67008 0
M  V30 12807 H 1271.31 -4.59471 -0.349707 0
M  V30 12808 H 1269.62 -4.13699 -0.473521 0
M  V30 12809 H 1272.22 -4.2438 -3.25278 0
M  V30 12810 H 1272.56 -2.53207 -3.30442 0
M  V30 12811 H 1273.1 -3.493 -1.90354 0
M  V30 12812 H 1269.83 -6.42697 -1.2892 0
M  V30 12813 H 1269.35 -5.38258 -2.64647 0
M  V30 12814 H 1271.03 -5.96187 -2.51336 0
M  V30 12815 N 1271.17 0.563888 -1.47167 0
M  V30 12816 C 1272.13 1.65359 -1.58711 0
M  V30 12817 C 1273.13 1.53999 -0.46272 0
M  V30 12818 O 1274.32 1.58277 -0.727595 0
M  V30 12819 C 1271.45 3.04874 -1.52529 0
M  V30 12820 H 1272.64 1.56475 -2.55843 0
M  V30 12821 H 1270.2 0.783271 -1.35257 0
M  V30 12822 H 1270.93 3.19297 -0.56747 0
M  V30 12823 H 1270.72 3.14528 -2.34125 0
M  V30 12824 H 1272.21 3.84164 -1.63731 0
M  V30 12825 N 1272.64 1.35187 0.810078 0
M  V30 12826 C 1273.61 1.27698 1.90331 0
M  V30 12827 C 1274.61 0.189216 1.59683 0
M  V30 12828 O 1275.8 0.442689 1.68481 0
M  V30 12829 C 1272.93 0.974631 3.26671 0
M  V30 12830 H 1274.12 2.24902 1.98392 0
M  V30 12831 H 1271.68 1.1966 1.00554 0
M  V30 12832 H 1272.41 0.0063068 3.24299 0
M  V30 12833 H 1272.2 1.76158 3.50301 0
M  V30 12834 H 1273.69 0.947743 4.06703 0
M  V30 12835 N 1274.12 -1.03182 1.19127 0
M  V30 12836 C 1275.05 -2.13301 0.94999 0
M  V30 12837 C 1276.03 -1.69707 -0.115577 0
M  V30 12838 O 1277.22 -1.94161 0.0388395 0
M  V30 12839 C 1274.35 -3.43902 0.484637 0
M  V30 12840 C 1273.3 -4.01164 1.4917 0
M  V30 12841 C 1272.63 -5.2735 0.883537 0
M  V30 12842 C 1273.93 -4.36311 2.87107 0
M  V30 12843 H 1275.62 -2.33743 1.87095 0
M  V30 12844 H 1273.17 -1.12332 0.900977 0
M  V30 12845 H 1275.12 -4.20308 0.30315 0
M  V30 12846 H 1273.85 -3.23173 -0.471909 0
M  V30 12847 H 1272.5 -3.26849 1.66028 0
M  V30 12848 H 1272.15 -5.02936 -0.0804712 0
M  V30 12849 H 1271.85 -5.66624 1.55599 0
M  V30 12850 H 1273.38 -6.06425 0.71278 0
M  V30 12851 H 1274.79 -5.03666 2.73848 0
M  V30 12852 H 1273.19 -4.86659 3.51117 0
M  V30 12853 H 1274.26 -3.45743 3.39985 0
M  V30 12854 N 1275.6 -0.99472 -1.22242 0
M  V30 12855 C 1276.55 -0.546504 -2.24236 0
M  V30 12856 C 1277.52 0.422101 -1.60647 0
M  V30 12857 O 1278.7 0.326452 -1.87987 0
M  V30 12858 C 1275.84 0.130909 -3.44852 0
M  V30 12859 C 1274.96 -0.879653 -4.22949 0
M  V30 12860 C 1274.09 -0.175569 -5.3091 0
M  V30 12861 C 1273.13 -1.17438 -6.00729 0
M  V30 12862 N 1272.27 -0.498474 -7.00328 0
M  V30 12863 H 1277.11 -1.42099 -2.61939 0
M  V30 12864 H 1274.64 -0.711755 -1.28734 0
M  V30 12865 H 1276.6 0.540596 -4.13683 0
M  V30 12866 H 1275.23 0.96917 -3.07907 0
M  V30 12867 H 1274.28 -1.40765 -3.53397 0
M  V30 12868 H 1275.6 -1.64017 -4.71062 0
M  V30 12869 H 1274.75 0.290756 -6.06003 0
M  V30 12870 H 1273.49 0.617438 -4.83776 0
M  V30 12871 H 1272.49 -1.65131 -5.24416 0
M  V30 12872 H 1273.72 -1.96829 -6.4995 0
M  V30 12873 H 1271.66 0.275063 -6.55423 0
M  V30 12874 H 1271.58 -1.19741 -7.46457 0
M  V30 12875 H 1272.85 -0.0550119 -7.79481 0
M  V30 12876 N 1277.08 1.37613 -0.768148 0
M  V30 12877 C 1278.33 1.99384 -0.330187 0
M  V30 12878 C 1278.65 1.61283 1.09604 0
M  V30 12879 O 1277.92 0.876551 1.75195 0
M  V30 12880 H 1276.5 0.737445 -0.119095 0
M  V30 12881 H 1279.16 1.6815 -0.985476 0
M  V30 12882 H 1278.26 3.09462 -0.40494 0
M  V30 12883 N 1278.56 0.518393 1.4883 0
M  V30 12884 C 1279.78 -0.0183131 2.07392 0
M  V30 12885 C 1280.21 -1.28468 1.37396 0
M  V30 12886 O 1279.56 -1.75975 0.436177 0
M  V30 12887 C 1279.61 -0.237211 3.59819 0
M  V30 12888 O 1278.72 -1.30835 3.91096 0
M  V30 12889 H 1278.06 0.0339621 0.663131 0
M  V30 12890 H 1280.59 0.722993 1.914 0
M  V30 12891 H 1280.6 -0.463424 4.0536 0
M  V30 12892 H 1279.27 0.687925 4.10171 0
M  V30 12893 H 1277.85 -1.06571 3.57347 0
M  V30 12894 N 1280.03 -1.55556 0.252993 0
M  V30 12895 C 1281 -2.20351 -0.630705 0
M  V30 12896 C 1282 -1.17461 -1.09816 0
M  V30 12897 O 1283.19 -1.42505 -1.00189 0
M  V30 12898 C 1280.32 -2.85192 -1.86757 0
M  V30 12899 H 1281.51 -2.99829 -0.0652939 0
M  V30 12900 H 1279.07 -1.563 0.00347982 0
M  V30 12901 H 1279.8 -2.09669 -2.47406 0
M  V30 12902 H 1279.59 -3.60569 -1.54053 0
M  V30 12903 H 1281.08 -3.34762 -2.49648 0
M  V30 12904 N 1281.51 0.0200419 -1.57587 0
M  V30 12905 C 1282.74 0.724241 -1.94344 0
M  V30 12906 C 1283.16 1.67612 -0.853688 0
M  V30 12907 O 1282.52 1.80303 0.189873 0
M  V30 12908 C 1282.57 1.44967 -3.30177 0
M  V30 12909 O 1281.67 2.56326 -3.23064 0
M  V30 12910 H 1281.01 0.194142 -0.634984 0
M  V30 12911 H 1283.54 -0.0271756 -2.04582 0
M  V30 12912 H 1283.55 1.81758 -3.65278 0
M  V30 12913 H 1282.23 0.75161 -4.09052 0
M  V30 12914 H 1280.81 2.22011 -2.99609 0
M  V30 12915 N 1282.99 1.54862 0.292472 0
M  V30 12916 C 1283.9 1.89472 1.38339 0
M  V30 12917 C 1284.92 0.789783 1.55043 0
M  V30 12918 O 1286.09 1.08705 1.69544 0
M  V30 12919 C 1283.16 2.14244 2.72581 0
M  V30 12920 C 1282.22 3.37913 2.64789 0
M  V30 12921 C 1281.45 3.61494 3.92629 0
M  V30 12922 O 1281.67 2.87931 4.92394 0
M  V30 12923 O 1280.61 4.55019 3.94007 0
M  V30 12924 H 1284.43 2.82298 1.11989 0
M  V30 12925 H 1282.02 1.41161 0.489291 0
M  V30 12926 H 1283.9 2.31689 3.51991 0
M  V30 12927 H 1282.58 1.24603 2.98757 0
M  V30 12928 H 1281.48 3.25823 1.83821 0
M  V30 12929 H 1282.82 4.27711 2.43565 0
M  V30 12930 N 1284.47 -0.556076 1.47464 0
M  V30 12931 C 1285.43 -1.64515 1.59586 0
M  V30 12932 C 1286.43 -1.53751 0.470881 0
M  V30 12933 O 1287.62 -1.57889 0.735979 0
M  V30 12934 C 1284.75 -3.0406 1.54143 0
M  V30 12935 H 1285.95 -1.55116 2.56669 0
M  V30 12936 H 1283.5 -0.776087 1.35671 0
M  V30 12937 H 1284.23 -3.18991 0.584395 0
M  V30 12938 H 1284.02 -3.13282 2.3579 0
M  V30 12939 H 1285.51 -3.8329 1.65766 0
M  V30 12940 N 1285.95 -1.35615 -0.802897 0
M  V30 12941 C 1286.91 -1.28705 -1.89651 0
M  V30 12942 C 1287.91 -0.197681 -1.5958 0
M  V30 12943 O 1289.1 -0.451618 -1.68244 0
M  V30 12944 C 1286.23 -0.991941 -3.26149 0
M  V30 12945 H 1287.43 -2.25951 -1.97196 0
M  V30 12946 H 1284.98 -1.20192 -0.999179 0
M  V30 12947 H 1285.71 -0.0235051 -3.24291 0
M  V30 12948 H 1285.5 -1.78013 -3.49362 0
M  V30 12949 H 1286.99 -0.969298 -4.06195 0
M  V30 12950 N 1287.43 1.02549 -1.19673 0
M  V30 12951 C 1288.67 1.75656 -0.999463 0
M  V30 12952 C 1288.99 1.89238 0.470517 0
M  V30 12953 O 1288.26 1.42843 1.34062 0
M  V30 12954 H 1286.84 0.650732 -0.366821 0
M  V30 12955 H 1289.51 1.23684 -1.50627 0
M  V30 12956 H 1288.6 2.76353 -1.45035 0
M  V30 12957 N 1288.9 1.00119 1.21713 0
M  V30 12958 C 1290.15 0.680377 1.90303 0
M  V30 12959 C 1290.47 -0.790927 1.7824 0
M  V30 12960 O 1289.74 -1.5676 1.17486 0
M  V30 12961 H 1288.32 0.248665 0.704397 0
M  V30 12962 H 1290.98 1.26948 1.47886 0
M  V30 12963 H 1290.08 0.950188 2.97284 0
M  V30 12964 N 1290.38 -1.37203 0.775435 0
M  V30 12965 C 1291.79 -1.82224 0.406372 0
M  V30 12966 C 1292.14 -1.64587 -1.06796 0
M  V30 12967 O 1291.27 -1.15903 -1.82744 0
M  V30 12968 C 1291.86 -3.30824 0.730819 0
M  V30 12969 C 1290.42 -3.74108 0.414766 0
M  V30 12970 C 1289.57 -2.59679 0.972747 0
M  V30 12971 H 1292.52 -1.25623 0.969775 0
M  V30 12972 H 1292.54 -3.80496 0.0168066 0
M  V30 12973 H 1292.05 -3.43628 1.80392 0
M  V30 12974 H 1290.15 -3.66871 -0.650866 0
M  V30 12975 H 1290.27 -4.70074 0.925595 0
M  V30 12976 H 1288.63 -2.51591 0.396772 0
M  V30 12977 H 1289.41 -2.75274 2.05132 0
M  V30 12978 N 1291.86 -0.526279 -1.48553 0
M  V30 12979 C 1292.77 0.24244 -2.33344 0
M  V30 12980 C 1293.79 0.942658 -1.46253 0
M  V30 12981 O 1294.96 0.91844 -1.79239 0
M  V30 12982 C 1292.03 1.27801 -3.22285 0
M  V30 12983 C 1291.09 0.588543 -4.25247 0
M  V30 12984 C 1290.32 1.57478 -5.09938 0
M  V30 12985 O 1290.54 2.80707 -4.96548 0
M  V30 12986 O 1289.48 1.11621 -5.9146 0
M  V30 12987 H 1293.3 -0.452262 -3.00314 0
M  V30 12988 H 1290.89 -0.287249 -1.46613 0
M  V30 12989 H 1292.77 1.87656 -3.7731 0
M  V30 12990 H 1291.45 1.95519 -2.57981 0
M  V30 12991 H 1290.35 -0.0504022 -3.74066 0
M  V30 12992 H 1291.69 -0.046627 -4.92178 0
M  V30 12993 N 1293.34 1.5542 -0.261239 0
M  V30 12994 C 1294.57 2.03391 0.362698 0
M  V30 12995 C 1294.98 1.13947 1.51039 0
M  V30 12996 O 1294.32 0.149231 1.83093 0
M  V30 12997 C 1294.38 3.47558 0.918889 0
M  V30 12998 C 1294.04 4.56894 -0.0983829 0
M  V30 12999 C 1295.04 5.1182 -0.913018 0
M  V30 13000 C 1292.73 5.01779 -0.228616 0
M  V30 13001 C 1294.72 6.10138 -1.84421 0
M  V30 13002 C 1292.41 5.99926 -1.16329 0
M  V30 13003 C 1293.41 6.53984 -1.9696 0
M  V30 13004 O 1293.09 7.50214 -2.8885 0
M  V30 13005 H 1292.83 0.670166 0.0886182 0
M  V30 13006 H 1295.38 2.01722 -0.386967 0
M  V30 13007 H 1293.61 3.46423 1.71838 0
M  V30 13008 H 1295.3 3.78947 1.45443 0
M  V30 13009 H 1296.06 4.77965 -0.823066 0
M  V30 13010 H 1291.94 4.59356 0.388945 0
M  V30 13011 H 1295.49 6.52258 -2.47397 0
M  V30 13012 H 1291.38 6.332 -1.25412 0
M  V30 13013 H 1292.15 7.67881 -2.83374 0
M  V30 13014 N 1294.82 -0.0116844 1.57596 0
M  V30 13015 C 1295.75 -1.03477 2.04512 0
M  V30 13016 C 1296.76 -1.31414 0.960945 0
M  V30 13017 O 1297.95 -1.28596 1.23796 0
M  V30 13018 C 1295.05 -2.37234 2.42019 0
M  V30 13019 C 1294.22 -2.28405 3.73028 0
M  V30 13020 C 1293.28 -3.44753 3.97532 0
M  V30 13021 O 1292.31 -3.23465 4.68358 0
M  V30 13022 N 1293.51 -4.67212 3.44518 0
M  V30 13023 H 1296.27 -0.634758 2.92901 0
M  V30 13024 H 1293.84 -0.1993 1.60669 0
M  V30 13025 H 1295.83 -3.13821 2.55535 0
M  V30 13026 H 1294.4 -2.69018 1.5921 0
M  V30 13027 H 1293.62 -1.36804 3.697 0
M  V30 13028 H 1294.91 -2.19666 4.58938 0
M  V30 13029 H 1294.3 -4.87407 2.87142 0
M  V30 13030 H 1292.86 -5.41105 3.63384 0
M  V30 13031 N 1296.29 -1.55015 -0.284256 0
M  V30 13032 C 1297.22 -1.90128 -1.3555 0
M  V30 13033 C 1298.2 -0.761914 -1.52082 0
M  V30 13034 O 1299.39 -1.01909 -1.65312 0
M  V30 13035 C 1296.52 -2.16332 -2.71695 0
M  V30 13036 C 1295.47 -3.32166 -2.69907 0
M  V30 13037 C 1294.8 -3.43824 -4.09498 0
M  V30 13038 C 1296.1 -4.6885 -2.30168 0
M  V30 13039 H 1297.79 -2.79852 -1.06411 0
M  V30 13040 H 1295.34 -1.34649 -0.510451 0
M  V30 13041 H 1297.29 -2.39482 -3.46737 0
M  V30 13042 H 1296.02 -1.23395 -3.02392 0
M  V30 13043 H 1294.68 -3.08965 -1.97322 0
M  V30 13044 H 1294.32 -2.48375 -4.374 0
M  V30 13045 H 1294.02 -4.21698 -4.092 0
M  V30 13046 H 1295.55 -3.69254 -4.86296 0
M  V30 13047 H 1296.96 -4.91619 -2.9493 0
M  V30 13048 H 1295.36 -5.49558 -2.41052 0
M  V30 13049 H 1296.43 -4.68433 -1.25294 0
M  V30 13050 N 1297.77 0.548248 -1.47757 0
M  V30 13051 C 1298.7 1.66999 -1.56984 0
M  V30 13052 C 1299.72 1.56302 -0.455372 0
M  V30 13053 O 1300.91 1.63096 -0.725399 0
M  V30 13054 C 1298.01 3.0553 -1.46645 0
M  V30 13055 C 1297.18 3.41892 -2.72816 0
M  V30 13056 C 1296.24 4.59624 -2.56187 0
M  V30 13057 O 1295.26 4.63757 -3.30028 0
M  V30 13058 N 1296.47 5.56675 -1.64601 0
M  V30 13059 H 1299.23 1.59527 -2.53715 0
M  V30 13060 H 1296.79 0.735101 -1.44249 0
M  V30 13061 H 1298.78 3.82137 -1.33242 0
M  V30 13062 H 1297.35 3.0718 -0.57961 0
M  V30 13063 H 1296.57 2.54644 -3.00916 0
M  V30 13064 H 1297.86 3.62965 -3.56559 0
M  V30 13065 H 1297.26 5.561 -1.03778 0
M  V30 13066 H 1295.82 6.32573 -1.57146 0
M  V30 13067 N 1299.25 1.36039 0.795694 0
M  V30 13068 C 1300.16 1.31991 1.93948 0
M  V30 13069 C 1301.18 0.223064 1.72564 0
M  V30 13070 O 1302.35 0.454344 1.96208 0
M  V30 13071 C 1299.42 1.10228 3.28711 0
M  V30 13072 C 1298.48 2.29328 3.62914 0
M  V30 13073 C 1297.71 2.08595 4.91247 0
M  V30 13074 O 1297.93 1.05793 5.60503 0
M  V30 13075 O 1296.87 2.96222 5.23962 0
M  V30 13076 H 1300.69 2.28274 2.00311 0
M  V30 13077 H 1298.28 1.16521 0.935048 0
M  V30 13078 H 1300.16 0.999842 4.09367 0
M  V30 13079 H 1298.84 0.17003 3.23253 0
M  V30 13080 H 1297.74 2.4514 2.8259 0
M  V30 13081 H 1299.08 3.21038 3.73089 0
M  V30 13082 N 1300.73 -1.01913 1.20215 0
M  V30 13083 C 1301.95 -1.79613 1.03702 0
M  V30 13084 C 1302.38 -1.83591 -0.409374 0
M  V30 13085 O 1301.74 -1.26911 -1.29473 0
M  V30 13086 C 1301.78 -3.22052 1.62219 0
M  V30 13087 O 1300.89 -4.03374 0.858106 0
M  V30 13088 H 1300.23 -0.554095 0.365889 0
M  V30 13089 H 1302.76 -1.28203 1.59452 0
M  V30 13090 H 1302.77 -3.72772 1.65847 0
M  V30 13091 H 1301.44 -3.18471 2.67487 0
M  V30 13092 H 1300.02 -3.6198 0.895835 0
M  V30 13093 N 1302.21 -1.00763 -1.2118 0
M  V30 13094 C 1303.45 -0.692851 -1.90598 0
M  V30 13095 C 1303.79 0.774698 -1.78079 0
M  V30 13096 O 1303.06 1.56186 -1.15914 0
M  V30 13097 C 1303.34 -1.11792 -3.42308 0
M  V30 13098 C 1303.2 -2.64511 -3.63805 0
M  V30 13099 C 1304.52 -0.682314 -4.34779 0
M  V30 13100 H 1301.63 -0.253175 -0.69215 0
M  V30 13101 H 1304.28 -1.25378 -1.4276 0
M  V30 13102 H 1302.43 -0.640665 -3.83181 0
M  V30 13103 H 1304.1 -3.20021 -3.32242 0
M  V30 13104 H 1302.34 -3.05903 -3.0758 0
M  V30 13105 H 1303.01 -2.89306 -4.70113 0
M  V30 13106 H 1305.49 -1.09247 -4.01503 0
M  V30 13107 H 1304.36 -1.00787 -5.39568 0
M  V30 13108 H 1304.63 0.416441 -4.40134 0
M  V30 13109 N 1303.68 1.3679 -0.7827 0
M  V30 13110 C 1304.93 1.99712 -0.352533 0
M  V30 13111 C 1305.26 1.61984 1.0712 0
M  V30 13112 O 1304.54 0.871342 1.7389 0
M  V30 13113 C 1304.82 3.5649 -0.508628 0
M  V30 13114 C 1304.67 4.04093 -1.97557 0
M  V30 13115 C 1305.99 4.40026 0.0804447 0
M  V30 13116 H 1303.11 0.725522 -0.129566 0
M  V30 13117 H 1305.75 1.62305 -0.987788 0
M  V30 13118 H 1303.9 3.88487 0.0321664 0
M  V30 13119 H 1305.58 3.82613 -2.57691 0
M  V30 13120 H 1303.82 3.55881 -2.48055 0
M  V30 13121 H 1304.49 5.13088 -2.03579 0
M  V30 13122 H 1306.97 4.14351 -0.381113 0
M  V30 13123 H 1305.84 5.48868 -0.0588424 0
M  V30 13124 H 1306.1 4.26285 1.17189 0
M  V30 13125 N 1305.16 0.53415 1.48272 0
M  V30 13126 C 1306.13 -0.215641 2.28183 0
M  V30 13127 C 1307.13 -0.863966 1.35618 0
M  V30 13128 O 1308.32 -0.723375 1.58471 0
M  V30 13129 C 1305.45 -1.31251 3.1462 0
M  V30 13130 H 1306.64 0.486014 2.95936 0
M  V30 13131 H 1304.19 0.290237 1.53582 0
M  V30 13132 H 1304.93 -2.04729 2.51508 0
M  V30 13133 H 1304.71 -0.852706 3.82716 0
M  V30 13134 H 1306.2 -1.83978 3.74889 0
M  V30 13135 N 1306.64 -1.55279 0.269478 0
M  V30 13136 C 1307.92 -1.91458 -0.400412 0
M  V30 13137 C 1308.3 -1.19306 -1.74153 0
M  V30 13138 O 1307.65 -0.318017 -2.26276 0
M  V30 13139 C 1307.86 -3.44698 -0.546258 0
M  V30 13140 C 1309.2 -4.16374 -0.831758 0
M  V30 13141 O 1310.23 -3.50561 -0.631279 0
M  V30 13142 O 1309.09 -5.32826 -1.21484 0
M  V30 13143 H 1306.18 -0.79766 -0.218328 0
M  V30 13144 H 1308.73 -1.66747 0.315214 0
M  V30 13145 H 1307.5 -3.89273 0.397784 0
M  V30 13146 H 1307.12 -3.75345 -1.31157 0
M  V30 13147 N 1308.12 0.00332656 -1.576 0
M  V30 13148 C 1309.05 1.02391 -2.05058 0
M  V30 13149 C 1310.06 1.30903 -0.967901 0
M  V30 13150 O 1311.25 1.27937 -1.24476 0
M  V30 13151 C 1308.35 2.35947 -2.43274 0
M  V30 13152 C 1307.53 2.26423 -3.74234 0
M  V30 13153 C 1306.58 3.4264 -3.99355 0
M  V30 13154 O 1305.61 3.20977 -4.70067 0
M  V30 13155 N 1306.81 4.65379 -3.46991 0
M  V30 13156 H 1309.58 0.619216 -2.93233 0
M  V30 13157 H 1307.14 0.190777 -1.60772 0
M  V30 13158 H 1309.13 3.12462 -2.57196 0
M  V30 13159 H 1307.7 2.6817 -1.60635 0
M  V30 13160 H 1306.92 1.34841 -3.70421 0
M  V30 13161 H 1308.21 2.17229 -4.60097 0
M  V30 13162 H 1307.61 4.85878 -2.89723 0
M  V30 13163 H 1306.16 5.39171 -3.66249 0
M  V30 13164 N 1309.6 1.55164 0.276031 0
M  V30 13165 C 1310.85 1.74833 1.0058 0
M  V30 13166 C 1311.16 0.555089 1.87558 0
M  V30 13167 O 1312.36 0.634127 2.63991 0
M  V30 13168 C 1310.82 3.09417 1.83818 0
M  V30 13169 C 1310.43 4.36299 1.01721 0
M  V30 13170 C 1312.17 3.38437 2.56244 0
M  V30 13171 C 1310.08 5.61923 1.8438 0
M  V30 13172 H 1309.01 0.651676 0.379254 0
M  V30 13173 H 1311.66 1.81626 0.26161 0
M  V30 13174 H 1310.04 2.96654 2.62321 0
M  V30 13175 H 1311.22 4.59969 0.276565 0
M  V30 13176 H 1309.53 4.144 0.407645 0
M  V30 13177 H 1312.13 4.29501 3.18485 0
M  V30 13178 H 1312.47 2.58432 3.26372 0
M  V30 13179 H 1313 3.52284 1.84773 0
M  V30 13180 H 1309.74 6.44667 1.18679 0
M  V30 13181 H 1309.26 5.424 2.56051 0
M  V30 13182 H 1310.94 6.0011 2.4182 0
M  V30 13183 N 1311.07 -0.540404 1.48045 0
M  V30 13184 C 1312.3 -1.32656 1.59427 0
M  V30 13185 C 1312.72 -1.86419 0.250924 0
M  V30 13186 O 1312.08 -1.63861 -0.775838 0
M  V30 13187 C 1312.13 -2.46062 2.63602 0
M  V30 13188 O 1311.23 -3.48794 2.20038 0
M  V30 13189 H 1310.58 -0.393334 0.534962 0
M  V30 13190 H 1313.11 -0.651363 1.93955 0
M  V30 13191 H 1313.12 -2.92396 2.84549 0
M  V30 13192 H 1311.79 -2.06291 3.61133 0
M  V30 13193 H 1310.37 -3.0865 2.0926 0
M  V30 13194 N 1312.55 -1.36459 -0.788468 0
M  V30 13195 C 1313.48 -1.33545 -1.91541 0
M  V30 13196 C 1314.46 -0.206762 -1.68839 0
M  V30 13197 O 1315.65 -0.404553 -1.89939 0
M  V30 13198 C 1312.78 -1.12492 -3.28577 0
M  V30 13199 C 1311.73 -2.22196 -3.65805 0
M  V30 13200 C 1311.06 -1.86285 -5.01201 0
M  V30 13201 C 1312.36 -3.64286 -3.7429 0
M  V30 13202 H 1314.05 -2.27844 -1.94236 0
M  V30 13203 H 1311.6 -1.09677 -0.933105 0
M  V30 13204 H 1313.55 -1.09089 -4.07035 0
M  V30 13205 H 1312.28 -0.146446 -3.26272 0
M  V30 13206 H 1310.93 -2.24727 -2.89644 0
M  V30 13207 H 1310.58 -0.87009 -4.95417 0
M  V30 13208 H 1310.28 -2.59734 -5.27079 0
M  V30 13209 H 1311.81 -1.84439 -5.82078 0
M  V30 13210 H 1313.22 -3.63977 -4.42937 0
M  V30 13211 H 1311.62 -4.36648 -4.11653 0
M  V30 13212 H 1312.69 -3.99123 -2.75371 0
M  V30 13213 N 1314.03 1.01274 -1.20754 0
M  V30 13214 C 1314.96 2.11763 -0.983805 0
M  V30 13215 C 1315.94 1.69869 0.0885635 0
M  V30 13216 O 1317.13 1.94075 -0.0697239 0
M  V30 13217 C 1314.26 3.43087 -0.539287 0
M  V30 13218 C 1313.21 3.9874 -1.55534 0
M  V30 13219 C 1312.54 5.25877 -0.967322 0
M  V30 13220 C 1313.84 4.31688 -2.94012 0
M  V30 13221 H 1315.53 2.30737 -1.90789 0
M  V30 13222 H 1313.08 1.10884 -0.918734 0
M  V30 13223 H 1315.03 4.19773 -0.369979 0
M  V30 13224 H 1313.75 3.23883 0.420435 0
M  V30 13225 H 1312.41 3.24166 -1.71207 0
M  V30 13226 H 1312.06 5.03 0.000448307 0
M  V30 13227 H 1311.76 5.64077 -1.64594 0
M  V30 13228 H 1313.28 6.05215 -0.809167 0
M  V30 13229 H 1314.7 4.99246 -2.81827 0
M  V30 13230 H 1313.1 4.81011 -3.58815 0
M  V30 13231 H 1314.17 3.4029 -3.45442 0
M  V30 13232 N 1315.51 1.01404 1.20644 0
M  V30 13233 C 1316.73 0.720839 1.9447 0
M  V30 13234 C 1317.16 -0.711711 1.74116 0
M  V30 13235 O 1316.52 -1.48938 1.03379 0
M  V30 13236 C 1316.57 1.05864 3.4471 0
M  V30 13237 O 1315.67 0.168901 4.12054 0
M  V30 13238 H 1315.01 0.267698 0.607646 0
M  V30 13239 H 1317.54 1.35672 1.53147 0
M  V30 13240 H 1317.55 1.00928 3.9532 0
M  V30 13241 H 1316.23 2.1024 3.58848 0
M  V30 13242 H 1314.8 0.275572 3.7188 0
M  V30 13243 N 1316.99 -1.36373 0.789944 0
M  V30 13244 C 1318.4 -1.52471 0.471686 0
M  V30 13245 C 1318.6 -1.74365 -1.0099 0
M  V30 13246 O 1317.66 -1.77546 -1.79538 0
M  V30 13247 C 1318.97 -2.71022 1.30259 0
M  V30 13248 C 1320.52 -2.84893 1.29633 0
M  V30 13249 C 1321 -4.0645 2.11098 0
M  V30 13250 N 1322.49 -4.13597 2.08547 0
M  V30 13251 C 1323.22 -5.06731 2.6835 0
M  V30 13252 N 1322.72 -6.05305 3.37013 0
M  V30 13253 N 1324.51 -4.9935 2.58081 0
M  V30 13254 H 1316.66 -1.20416 1.74968 0
M  V30 13255 H 1318.92 -0.587782 0.743785 0
M  V30 13256 H 1318.63 -2.61368 2.35329 0
M  V30 13257 H 1318.5 -3.6519 0.944254 0
M  V30 13258 H 1320.89 -2.94009 0.253542 0
M  V30 13259 H 1320.97 -1.91632 1.69443 0
M  V30 13260 H 1320.62 -3.98096 3.15408 0
M  V30 13261 H 1320.55 -4.98861 1.68659 0
M  V30 13262 H 1323.04 -3.4302 1.58573 0
M  V30 13263 H 1323.35 -6.72934 3.79974 0
M  V30 13264 H 1321.7 -6.05529 3.41116 0
M  V30 13265 H 1324.89 -4.21291 2.04039 0
M  V30 13266 H 1325.06 -5.71745 3.04979 0
M  V30 13267 N 1318.47 -0.542005 -1.47987 0
M  V30 13268 C 1319.38 0.217677 -2.33588 0
M  V30 13269 C 1320.39 0.927093 -1.47245 0
M  V30 13270 O 1321.57 0.899378 -1.80203 0
M  V30 13271 C 1318.63 1.24376 -3.23622 0
M  V30 13272 C 1317.69 0.543407 -4.25847 0
M  V30 13273 C 1316.93 1.5206 -5.11579 0
M  V30 13274 O 1317.15 2.75425 -4.99497 0
M  V30 13275 O 1316.08 1.05341 -5.9261 0
M  V30 13276 H 1319.91 -0.484089 -2.99817 0
M  V30 13277 H 1317.49 -0.302783 -1.463 0
M  V30 13278 H 1319.38 1.83644 -3.7928 0
M  V30 13279 H 1318.05 1.92772 -2.6004 0
M  V30 13280 H 1316.96 -0.090074 -3.73992 0
M  V30 13281 H 1318.29 -0.0988264 -4.92101 0
M  V30 13282 N 1319.94 1.55134 -0.277709 0
M  V30 13283 C 1321.19 2.00675 0.331809 0
M  V30 13284 C 1321.54 1.16274 1.53291 0
M  V30 13285 O 1320.84 0.225435 1.90269 0
M  V30 13286 C 1321.03 3.49182 0.762028 0
M  V30 13287 C 1320.86 4.47954 -0.395835 0
M  V30 13288 C 1319.63 4.9757 -0.880446 0
M  V30 13289 C 1321.83 4.99297 -1.23317 0
M  V30 13290 N 1319.81 5.80149 -2.0075 0
M  V30 13291 C 1321.18 5.79348 -2.20808 0
M  V30 13292 C 1323.24 4.8153 -1.26622 0
M  V30 13293 C 1321.94 6.43526 -3.21352 0
M  V30 13294 C 1323.97 5.4651 -2.26011 0
M  V30 13295 C 1323.33 6.26374 -3.22235 0
M  V30 13296 H 1319.43 0.777199 0.086518 0
M  V30 13297 H 1322.01 1.90498 -0.402322 0
M  V30 13298 H 1320.18 3.59696 1.46538 0
M  V30 13299 H 1321.91 3.81551 1.3491 0
M  V30 13300 H 1318.67 4.71367 -0.459314 0
M  V30 13301 H 1319.09 6.26128 -2.57473 0
M  V30 13302 H 1323.73 4.19388 -0.536085 0
M  V30 13303 H 1321.45 7.04816 -3.95297 0
M  V30 13304 H 1325.04 5.34703 -2.29313 0
M  V30 13305 H 1323.92 6.75765 -3.97884 0
M  V30 13306 N 1321.42 0.00503138 1.57599 0
M  V30 13307 C 1322.67 -0.67742 1.90409 0
M  V30 13308 C 1322.99 -1.74033 0.87963 0
M  V30 13309 O 1322.26 -1.95727 -0.0822757 0
M  V30 13310 H 1320.84 -0.2532 0.702779 0
M  V30 13311 H 1323.5 0.0471466 1.94843 0
M  V30 13312 H 1322.6 -1.14548 2.90319 0
M  V30 13313 N 1322.9 -1.55308 -0.267798 0
M  V30 13314 C 1324.15 -1.76159 -0.998707 0
M  V30 13315 C 1324.47 -0.565573 -1.86095 0
M  V30 13316 O 1323.73 0.45178 -1.90414 0
M  V30 13317 C 1324.03 -3.02286 -1.90678 0
M  V30 13318 C 1323.69 -4.34594 -1.20161 0
M  V30 13319 C 1322.36 -4.70553 -1.00664 0
M  V30 13320 C 1324.71 -5.16475 -0.7002 0
M  V30 13321 C 1322.04 -5.85945 -0.297629 0
M  V30 13322 C 1324.39 -6.326 -0.00475187 0
M  V30 13323 C 1323.05 -6.67195 0.20188 0
M  V30 13324 H 1322.32 -0.644613 -0.365453 0
M  V30 13325 H 1324.97 -1.89579 -0.270545 0
M  V30 13326 H 1323.27 -2.83788 -2.70133 0
M  V30 13327 H 1324.97 -3.15615 -2.47362 0
M  V30 13328 H 1321.56 -4.06334 -1.36348 0
M  V30 13329 H 1325.75 -4.89167 -0.838435 0
M  V30 13330 H 1321 -6.11268 -0.126864 0
M  V30 13331 H 1325.18 -6.95299 0.39151 0
M  V30 13332 H 1322.8 -7.56459 0.753252 0
M  V30 13333 N 1324.38 0.532545 -1.4833 0
M  V30 13334 C 1325.34 1.61955 -1.62183 0
M  V30 13335 C 1326.34 1.52982 -0.495281 0
M  V30 13336 O 1327.53 1.56698 -0.761005 0
M  V30 13337 C 1324.66 3.0157 -1.58961 0
M  V30 13338 H 1325.86 1.51013 -2.59105 0
M  V30 13339 H 1323.41 0.754405 -1.36888 0
M  V30 13340 H 1324.14 3.18021 -0.635069 0
M  V30 13341 H 1323.93 3.09491 -2.40744 0
M  V30 13342 H 1325.42 3.80604 -1.71843 0
M  V30 13343 N 1325.86 1.36875 0.78122 0
M  V30 13344 C 1326.77 1.3404 1.92537 0
M  V30 13345 C 1327.78 0.241354 1.72318 0
M  V30 13346 O 1328.96 0.475128 1.95715 0
M  V30 13347 C 1326.02 1.13708 3.27523 0
M  V30 13348 C 1325.08 2.33165 3.60462 0
M  V30 13349 C 1324.32 2.13793 4.89007 0
M  V30 13350 O 1324.54 1.11732 5.5935 0
M  V30 13351 O 1323.47 3.01762 5.20791 0
M  V30 13352 H 1327.3 2.30386 1.97879 0
M  V30 13353 H 1324.88 1.17506 0.922637 0
M  V30 13354 H 1326.77 1.0432 4.08283 0
M  V30 13355 H 1325.44 0.204306 3.23055 0
M  V30 13356 H 1324.35 2.48123 2.79974 0
M  V30 13357 H 1325.68 3.24977 3.69663 0
M  V30 13358 N 1327.33 -1.00632 1.21289 0
M  V30 13359 C 1328.27 -2.0954 0.928753 0
M  V30 13360 C 1329.28 -1.62565 -0.0875212 0
M  V30 13361 O 1330.47 -1.77912 0.144808 0
M  V30 13362 C 1327.57 -3.36844 0.37276 0
M  V30 13363 C 1326.74 -4.1291 1.44305 0
M  V30 13364 C 1325.8 -5.18506 0.896534 0
M  V30 13365 O 1324.83 -5.46841 1.57966 0
M  V30 13366 N 1326.03 -5.79781 -0.288888 0
M  V30 13367 H 1328.79 -2.34499 1.86629 0
M  V30 13368 H 1326.35 -1.17104 1.11796 0
M  V30 13369 H 1328.35 -4.04699 -0.00722737 0
M  V30 13370 H 1326.92 -3.09053 -0.469572 0
M  V30 13371 H 1326.14 -3.39876 1.99694 0
M  V30 13372 H 1327.42 -4.60508 2.16356 0
M  V30 13373 H 1326.82 -5.5911 -0.860951 0
M  V30 13374 H 1325.38 -6.48936 -0.6104 0
M  V30 13375 N 1328.81 -1.02043 -1.20104 0
M  V30 13376 C 1329.74 -0.614421 -2.25271 0
M  V30 13377 C 1330.72 0.37242 -1.65973 0
M  V30 13378 O 1331.91 0.257005 -1.92492 0
M  V30 13379 C 1329.04 0.0442085 -3.47272 0
M  V30 13380 C 1327.99 -0.864019 -4.19188 0
M  V30 13381 C 1327.32 -0.0709551 -5.34653 0
M  V30 13382 C 1328.62 -2.17385 -4.74912 0
M  V30 13383 H 1330.31 -1.49355 -2.59487 0
M  V30 13384 H 1327.86 -0.719591 -1.24731 0
M  V30 13385 H 1329.81 0.339825 -4.20028 0
M  V30 13386 H 1328.53 0.958082 -3.12231 0
M  V30 13387 H 1327.19 -1.1437 -3.48303 0
M  V30 13388 H 1326.84 0.844688 -4.95857 0
M  V30 13389 H 1326.54 -0.67583 -5.83701 0
M  V30 13390 H 1328.07 0.218118 -6.1021 0
M  V30 13391 H 1329.48 -1.94034 -5.39466 0
M  V30 13392 H 1327.88 -2.72991 -5.34412 0
M  V30 13393 H 1328.95 -2.83427 -3.93443 0
M  V30 13394 N 1330.29 1.35952 -0.797165 0
M  V30 13395 C 1331.54 1.99327 -0.373695 0
M  V30 13396 C 1331.87 1.63111 1.05396 0
M  V30 13397 O 1331.14 0.889736 1.72956 0
M  V30 13398 C 1331.43 3.5593 -0.54641 0
M  V30 13399 C 1331.28 4.01975 -2.01832 0
M  V30 13400 C 1332.6 4.40087 0.0337694 0
M  V30 13401 H 1329.72 0.724107 -0.137254 0
M  V30 13402 H 1332.36 1.61248 -1.00495 0
M  V30 13403 H 1330.51 3.88499 -0.00903959 0
M  V30 13404 H 1332.18 3.79859 -2.61735 0
M  V30 13405 H 1330.43 3.5323 -2.51815 0
M  V30 13406 H 1331.1 5.109 -2.09009 0
M  V30 13407 H 1333.57 4.13923 -0.425039 0
M  V30 13408 H 1332.45 5.48775 -0.117054 0
M  V30 13409 H 1332.71 4.27504 1.12661 0
M  V30 13410 N 1331.77 0.549846 1.47697 0
M  V30 13411 C 1332.7 -0.190364 2.32723 0
M  V30 13412 C 1333.68 -0.915933 1.43334 0
M  V30 13413 O 1334.86 -0.897838 1.72199 0
M  V30 13414 C 1331.99 -1.22545 3.24961 0
M  V30 13415 C 1330.95 -0.616805 4.23532 0
M  V30 13416 C 1330.27 -1.75599 5.05044 0
M  V30 13417 C 1331.57 0.424595 5.20571 0
M  V30 13418 H 1333.27 0.519461 2.94859 0
M  V30 13419 H 1330.81 0.251259 1.41791 0
M  V30 13420 H 1332.77 -1.75139 3.83281 0
M  V30 13421 H 1331.49 -1.96512 2.60865 0
M  V30 13422 H 1330.15 -0.112224 3.66428 0
M  V30 13423 H 1329.8 -2.48453 4.37356 0
M  V30 13424 H 1329.5 -1.35456 5.71774 0
M  V30 13425 H 1331.02 -2.28533 5.6622 0
M  V30 13426 H 1332.44 -0.0150025 5.73298 0
M  V30 13427 H 1330.83 0.7445 5.95464 0
M  V30 13428 H 1331.9 1.32318 4.66497 0
M  V30 13429 N 1333.25 -1.54984 0.285932 0
M  V30 13430 C 1334.48 -2.03943 -0.330295 0
M  V30 13431 C 1334.88 -1.16336 -1.49207 0
M  V30 13432 O 1334.23 -0.178341 -1.82832 0
M  V30 13433 C 1334.29 -3.48976 -0.863479 0
M  V30 13434 C 1333.95 -4.5668 0.171058 0
M  V30 13435 C 1334.95 -5.10303 0.994329 0
M  V30 13436 C 1332.64 -5.01352 0.308416 0
M  V30 13437 C 1334.63 -6.07126 1.94104 0
M  V30 13438 C 1332.32 -5.97999 1.25859 0
M  V30 13439 C 1333.31 -6.50768 2.0734 0
M  V30 13440 O 1333 -7.45524 3.00749 0
M  V30 13441 H 1332.73 -0.671491 -0.0779452 0
M  V30 13442 H 1335.29 -2.01081 0.419011 0
M  V30 13443 H 1333.52 -3.49113 -1.66305 0
M  V30 13444 H 1335.21 -3.81213 -1.39396 0
M  V30 13445 H 1335.97 -4.76595 0.899002 0
M  V30 13446 H 1331.85 -4.59917 -0.315817 0
M  V30 13447 H 1335.4 -6.48239 2.57743 0
M  V30 13448 H 1331.29 -6.31125 1.35469 0
M  V30 13449 H 1332.06 -7.63276 2.95554 0
M  V30 13450 N 1334.72 -0.0133892 -1.57594 0
M  V30 13451 C 1335.65 0.972341 -2.12292 0
M  V30 13452 C 1336.64 1.34971 -1.03522 0
M  V30 13453 O 1337.82 1.4311 -1.31275 0
M  V30 13454 C 1334.95 2.25988 -2.63717 0
M  V30 13455 C 1333.9 2.02373 -3.77133 0
M  V30 13456 C 1333.23 3.37256 -4.14925 0
M  V30 13457 C 1334.53 1.37553 -5.03861 0
M  V30 13458 H 1336.22 0.516869 -2.94905 0
M  V30 13459 H 1333.77 0.247176 -1.41863 0
M  V30 13460 H 1335.72 2.95313 -3.00613 0
M  V30 13461 H 1334.45 2.73672 -1.78244 0
M  V30 13462 H 1333.11 1.3547 -3.40651 0
M  V30 13463 H 1332.75 3.82669 -3.26456 0
M  V30 13464 H 1332.45 3.22267 -4.91343 0
M  V30 13465 H 1333.98 4.07875 -4.5439 0
M  V30 13466 H 1335.39 1.96855 -5.38443 0
M  V30 13467 H 1333.79 1.33011 -5.85174 0
M  V30 13468 H 1334.86 0.346429 -4.83661 0
M  V30 13469 N 1336.2 1.55448 0.259558 0
M  V30 13470 C 1337.15 1.89248 1.32113 0
M  V30 13471 C 1338.12 0.745348 1.48438 0
M  V30 13472 O 1339.3 0.997854 1.62627 0
M  V30 13473 C 1336.44 2.18161 2.67394 0
M  V30 13474 C 1335.56 3.45614 2.59182 0
M  V30 13475 C 1334.69 3.6416 3.86731 0
M  V30 13476 C 1333.73 4.85258 3.73084 0
M  V30 13477 N 1332.87 5.00391 4.92497 0
M  V30 13478 H 1337.71 2.79785 1.02589 0
M  V30 13479 H 1335.25 1.38509 0.495338 0
M  V30 13480 H 1337.2 2.32927 3.46122 0
M  V30 13481 H 1335.83 1.30843 2.95093 0
M  V30 13482 H 1334.89 3.39248 1.72091 0
M  V30 13483 H 1336.2 4.34483 2.45002 0
M  V30 13484 H 1335.35 3.78817 4.73902 0
M  V30 13485 H 1334.09 2.73501 4.03793 0
M  V30 13486 H 1333.1 4.70591 2.84296 0
M  V30 13487 H 1334.32 5.77365 3.57528 0
M  V30 13488 H 1332.27 4.12666 5.09944 0
M  V30 13489 H 1332.18 5.83328 4.809 0
M  V30 13490 H 1333.45 5.19446 5.81202 0
M  V30 13491 N 1337.68 -0.524672 1.4861 0
M  V30 13492 C 1338.93 -1.28211 1.5713 0
M  V30 13493 C 1339.26 -1.92626 0.246751 0
M  V30 13494 O 1338.53 -1.79553 -0.747725 0
M  V30 13495 C 1338.82 -2.36737 2.71344 0
M  V30 13496 C 1338.67 -1.76978 4.1352 0
M  V30 13497 C 1339.99 -3.3847 2.81294 0
M  V30 13498 H 1337.11 -0.46479 0.571961 0
M  V30 13499 H 1339.75 -0.583937 1.80804 0
M  V30 13500 H 1337.9 -2.96287 2.51289 0
M  V30 13501 H 1339.57 -1.21438 4.45029 0
M  V30 13502 H 1337.82 -1.07488 4.20272 0
M  V30 13503 H 1338.49 -2.55583 4.89266 0
M  V30 13504 H 1340.96 -2.88882 2.99477 0
M  V30 13505 H 1339.84 -4.11795 3.62928 0
M  V30 13506 H 1340.1 -3.99347 1.89669 0
M  V30 13507 N 1339.16 -1.37287 -0.77395 0
M  V30 13508 C 1340.12 -1.32699 -1.86878 0
M  V30 13509 C 1341.12 -0.231486 -1.59125 0
M  V30 13510 O 1342.31 -0.487203 -1.67248 0
M  V30 13511 C 1339.44 -1.0609 -3.23972 0
M  V30 13512 H 1340.64 -2.30083 -1.92359 0
M  V30 13513 H 1338.19 -1.22284 -0.973459 0
M  V30 13514 H 1338.92 -0.0922868 -3.24169 0
M  V30 13515 H 1338.71 -1.85383 -3.45508 0
M  V30 13516 H 1340.2 -1.05524 -4.04048 0
M  V30 13517 N 1340.64 0.999871 -1.21821 0
M  V30 13518 C 1341.55 2.12303 -0.99823 0
M  V30 13519 C 1342.56 1.73924 0.0512923 0
M  V30 13520 O 1343.74 2.00914 -0.139895 0
M  V30 13521 C 1340.8 3.41962 -0.571232 0
M  V30 13522 C 1339.86 3.94483 -1.69356 0
M  V30 13523 C 1339.1 5.17954 -1.28685 0
M  V30 13524 O 1339.32 5.70168 -0.162641 0
M  V30 13525 O 1338.25 5.64051 -2.10071 0
M  V30 13526 H 1342.08 2.3374 -1.93905 0
M  V30 13527 H 1339.67 1.10677 -1.00354 0
M  V30 13528 H 1341.55 4.20001 -0.343134 0
M  V30 13529 H 1340.22 3.21901 0.340814 0
M  V30 13530 H 1339.13 3.17648 -1.97612 0
M  V30 13531 H 1340.46 4.18964 -2.58322 0
M  V30 13532 N 1342.11 1.02678 1.19562 0
M  V30 13533 C 1343.04 0.626359 2.24942 0
M  V30 13534 C 1344.03 -0.363612 1.66168 0
M  V30 13535 O 1345.21 -0.246793 1.92625 0
M  V30 13536 C 1342.34 -0.0257912 3.4729 0
M  V30 13537 C 1341.29 0.886237 4.18724 0
M  V30 13538 C 1340.62 0.0993081 5.34608 0
M  V30 13539 C 1341.92 2.19901 4.73752 0
M  V30 13540 H 1343.61 1.50729 2.58691 0
M  V30 13541 H 1341.16 0.726195 1.24348 0
M  V30 13542 H 1343.11 -0.317545 4.20202 0
M  V30 13543 H 1341.84 -0.941511 3.12735 0
M  V30 13544 H 1340.5 1.16215 3.47692 0
M  V30 13545 H 1340.14 -0.81838 4.96298 0
M  V30 13546 H 1339.84 0.706776 5.83334 0
M  V30 13547 H 1341.37 -0.185754 6.10317 0
M  V30 13548 H 1342.78 1.96892 5.3843 0
M  V30 13549 H 1341.18 2.75821 5.32956 0
M  V30 13550 H 1342.25 2.85509 3.91934 0
M  V30 13551 N 1343.59 -1.35528 0.804364 0
M  V30 13552 C 1344.52 -2.32388 0.227604 0
M  V30 13553 C 1345.5 -1.57368 -0.645709 0
M  V30 13554 O 1346.69 -1.85448 -0.576441 0
M  V30 13555 C 1343.82 -3.41603 -0.62645 0
M  V30 13556 C 1342.77 -4.27743 0.148187 0
M  V30 13557 C 1342.1 -5.28259 -0.827425 0
M  V30 13558 C 1343.4 -5.04661 1.34591 0
M  V30 13559 H 1345.09 -2.80874 1.03684 0
M  V30 13560 H 1342.64 -1.3504 0.500031 0
M  V30 13561 H 1344.59 -4.08365 -1.03999 0
M  V30 13562 H 1343.32 -2.91721 -1.46855 0
M  V30 13563 H 1341.97 -3.62558 0.542874 0
M  V30 13564 H 1341.62 -4.74645 -1.66496 0
M  V30 13565 H 1341.32 -5.86763 -0.313453 0
M  V30 13566 H 1342.85 -5.97893 -1.23921 0
M  V30 13567 H 1344.26 -5.6438 1.00736 0
M  V30 13568 H 1342.66 -5.7265 1.79422 0
M  V30 13569 H 1343.73 -4.35432 2.1337 0
M  V30 13570 N 1345.07 -0.557671 -1.47404 0
M  V30 13571 C 1346.3 -0.0366797 -2.07368 0
M  V30 13572 C 1346.72 1.2478 -1.40754 0
M  V30 13573 O 1346.08 1.74757 -0.48268 0
M  V30 13574 C 1346.13 0.141728 -3.60321 0
M  V30 13575 O 1345.23 1.20419 -3.94427 0
M  V30 13576 H 1344.57 -0.0515319 -0.661997 0
M  V30 13577 H 1347.1 -0.773485 -1.89416 0
M  V30 13578 H 1347.11 0.355787 -4.06446 0
M  V30 13579 H 1345.79 -0.796433 -4.08203 0
M  V30 13580 H 1344.36 0.970589 -3.60047 0
M  V30 13581 N 1346.55 1.54831 -0.294147 0
M  V30 13582 C 1347.77 2.04873 0.32276 0
M  V30 13583 C 1348.2 1.17034 1.47257 0
M  V30 13584 O 1347.56 0.172949 1.80473 0
M  V30 13585 C 1347.61 3.52431 0.76319 0
M  V30 13586 O 1346.71 3.67635 1.86865 0
M  V30 13587 H 1346.05 0.660926 0.0638162 0
M  V30 13588 H 1348.58 1.99944 -0.433995 0
M  V30 13589 H 1348.59 3.94155 1.05385 0
M  V30 13590 H 1347.27 4.15827 -0.0779464 0
M  V30 13591 H 1345.84 3.37816 1.57907 0
M  V30 13592 N 1348.03 0.0217466 1.57585 0
M  V30 13593 C 1349.28 -0.657187 1.91116 0
M  V30 13594 C 1349.6 -1.7309 0.898039 0
M  V30 13595 O 1348.87 -1.95803 -0.0615116 0
M  V30 13596 H 1347.45 -0.245732 0.705425 0
M  V30 13597 H 1350.11 0.0678096 1.94782 0
M  V30 13598 H 1349.2 -1.11462 2.91518 0
M  V30 13599 N 1349.51 -1.55583 -0.251311 0
M  V30 13600 C 1350.44 -1.9296 -1.31486 0
M  V30 13601 C 1351.42 -0.794001 -1.50431 0
M  V30 13602 O 1352.6 -1.05393 -1.63113 0
M  V30 13603 C 1349.73 -2.22046 -2.67045 0
M  V30 13604 C 1348.69 -3.37816 -2.62801 0
M  V30 13605 C 1348.01 -3.52433 -4.02113 0
M  V30 13606 C 1349.31 -4.73626 -2.20171 0
M  V30 13607 H 1351.01 -2.82046 -1.00451 0
M  V30 13608 H 1348.55 -1.35702 -0.481775 0
M  V30 13609 H 1350.5 -2.46783 -3.41579 0
M  V30 13610 H 1349.23 -1.29782 -2.99707 0
M  V30 13611 H 1347.89 -3.13081 -1.90724 0
M  V30 13612 H 1347.54 -2.57597 -4.32034 0
M  V30 13613 H 1347.24 -4.30283 -4.00163 0
M  V30 13614 H 1348.76 -3.79486 -4.78354 0
M  V30 13615 H 1350.17 -4.97764 -2.84436 0
M  V30 13616 H 1348.57 -5.54547 -2.29341 0
M  V30 13617 H 1349.64 -4.70985 -1.1533 0
M  V30 13618 N 1350.98 0.516783 -1.48886 0
M  V30 13619 C 1351.92 1.63632 -1.60491 0
M  V30 13620 C 1352.93 1.55301 -0.488424 0
M  V30 13621 O 1354.12 1.6152 -0.75983 0
M  V30 13622 C 1351.22 3.02351 -1.53093 0
M  V30 13623 C 1350.39 3.36028 -2.80006 0
M  V30 13624 C 1349.45 4.54087 -2.65879 0
M  V30 13625 O 1348.48 4.56652 -3.3979 0
M  V30 13626 N 1349.68 5.53058 -1.76372 0
M  V30 13627 H 1352.44 1.54109 -2.57042 0
M  V30 13628 H 1350 0.704338 -1.45776 0
M  V30 13629 H 1352 3.79225 -1.41318 0
M  V30 13630 H 1350.57 3.05881 -0.644637 0
M  V30 13631 H 1349.79 2.48204 -3.06249 0
M  V30 13632 H 1351.07 3.5532 -3.64177 0
M  V30 13633 H 1350.47 5.53773 -1.1555 0
M  V30 13634 H 1349.03 6.29097 -1.70529 0
M  V30 13635 N 1352.46 1.37696 0.766659 0
M  V30 13636 C 1353.69 1.36564 1.56093 0
M  V30 13637 C 1354.11 -0.0455828 1.88045 0
M  V30 13638 O 1353.47 -1.02405 1.49609 0
M  V30 13639 C 1353.52 2.21592 2.84481 0
M  V30 13640 O 1352.62 1.62404 3.79076 0
M  V30 13641 H 1351.96 0.466394 0.472623 0
M  V30 13642 H 1354.49 1.81287 0.948486 0
M  V30 13643 H 1354.5 2.34987 3.33534 0
M  V30 13644 H 1353.18 3.24167 2.60554 0
M  V30 13645 H 1351.75 1.58078 3.37736 0
M  V30 13646 N 1353.94 -0.993397 1.22349 0
M  V30 13647 C 1354.9 -2.065 0.994506 0
M  V30 13648 C 1355.9 -1.60753 -0.0388766 0
M  V30 13649 O 1357.09 -1.73053 0.199578 0
M  V30 13650 C 1354.22 -3.37182 0.502088 0
M  V30 13651 H 1355.42 -2.28248 1.94533 0
M  V30 13652 H 1352.97 -1.16489 1.04211 0
M  V30 13653 H 1353.71 -3.21119 -0.453114 0
M  V30 13654 H 1353.49 -3.71721 1.24763 0
M  V30 13655 H 1354.98 -4.16027 0.362108 0
M  V30 13656 N 1355.42 -1.03311 -1.19015 0
M  V30 13657 C 1356.67 -0.727266 -1.88132 0
M  V30 13658 C 1356.98 0.747488 -1.80754 0
M  V30 13659 O 1358.19 1.16654 -2.45161 0
M  V30 13660 C 1356.64 -1.25056 -3.37474 0
M  V30 13661 C 1356.25 -2.7534 -3.534 0
M  V30 13662 C 1357.99 -1.02091 -4.12041 0
M  V30 13663 C 1355.9 -3.21066 -4.96659 0
M  V30 13664 H 1354.83 -0.268349 -0.704631 0
M  V30 13665 H 1357.48 -1.24795 -1.3453 0
M  V30 13666 H 1355.86 -0.65777 -3.90499 0
M  V30 13667 H 1357.04 -3.40311 -3.10684 0
M  V30 13668 H 1355.35 -2.96633 -2.92229 0
M  V30 13669 H 1357.95 -1.33777 -5.17695 0
M  V30 13670 H 1358.29 0.0421413 -4.16279 0
M  V30 13671 H 1358.83 -1.57792 -3.65166 0
M  V30 13672 H 1355.56 -4.26719 -4.97586 0
M  V30 13673 H 1355.08 -2.60826 -5.4012 0
M  V30 13674 H 1356.76 -3.14651 -5.65335 0
M  V30 13675 N 1356.9 1.35099 -0.81154 0
M  V30 13676 C 1358.17 1.93009 -0.317289 0
M  V30 13677 C 1358.55 1.74101 1.19382 0
M  V30 13678 O 1357.9 1.11295 1.99564 0
M  V30 13679 C 1358.11 3.41191 -0.734123 0
M  V30 13680 C 1359.46 4.1834 -0.726437 0
M  V30 13681 O 1360.48 3.49727 -0.67598 0
M  V30 13682 O 1359.34 5.4077 -0.789291 0
M  V30 13683 H 1356.44 0.822707 -0.084153 0
M  V30 13684 H 1358.98 1.44145 -0.895569 0
M  V30 13685 H 1357.75 3.48705 -1.7754 0
M  V30 13686 H 1357.38 3.97384 -0.130919 0
M  V30 13687 N 1358.37 0.56548 1.47106 0
M  V30 13688 C 1359.31 -0.215154 2.28188 0
M  V30 13689 C 1360.32 -0.871671 1.37498 0
M  V30 13690 O 1361.51 -0.744131 1.6225 0
M  V30 13691 C 1358.61 -1.32289 3.12014 0
M  V30 13692 C 1357.78 -0.761594 4.30719 0
M  V30 13693 C 1356.84 -1.75486 4.96076 0
M  V30 13694 O 1355.87 -1.29771 5.5421 0
M  V30 13695 N 1357.07 -3.0885 4.9152 0
M  V30 13696 H 1359.83 0.480405 2.95825 0
M  V30 13697 H 1357.39 0.402099 1.56827 0
M  V30 13698 H 1359.39 -1.98628 3.52603 0
M  V30 13699 H 1357.96 -1.92156 2.46566 0
M  V30 13700 H 1357.18 0.078794 3.94121 0
M  V30 13701 H 1358.46 -0.366072 5.07481 0
M  V30 13702 H 1357.86 -3.4863 4.45504 0
M  V30 13703 H 1356.42 -3.70725 5.36103 0
M  V30 13704 N 1359.85 -1.54672 0.302354 0
M  V30 13705 C 1361.1 -1.99345 -0.307307 0
M  V30 13706 C 1361.41 -1.19437 -1.549 0
M  V30 13707 O 1362.62 -1.54384 -2.23334 0
M  V30 13708 C 1361.08 -3.54896 -0.59808 0
M  V30 13709 C 1360.68 -4.43614 0.625357 0
M  V30 13710 C 1362.43 -4.08091 -1.16886 0
M  V30 13711 C 1360.34 -5.90599 0.307661 0
M  V30 13712 H 1359.27 -0.744614 -0.118603 0
M  V30 13713 H 1361.92 -1.78832 0.411271 0
M  V30 13714 H 1360.3 -3.71314 -1.37629 0
M  V30 13715 H 1361.47 -4.38969 1.40152 0
M  V30 13716 H 1359.79 -4.01198 1.11487 0
M  V30 13717 H 1362.38 -5.15477 -1.42082 0
M  V30 13718 H 1362.73 -3.58775 -2.11155 0
M  V30 13719 H 1363.26 -3.9522 -0.452329 0
M  V30 13720 H 1360 -6.44067 1.21895 0
M  V30 13721 H 1359.52 -5.98248 -0.431208 0
M  V30 13722 H 1361.2 -6.46937 -0.0902796 0
M  V30 13723 N 1361.33 -0.0301034 -1.57571 0
M  V30 13724 C 1362.75 0.326296 -1.56229 0
M  V30 13725 C 1362.95 1.72839 -1.03581 0
M  V30 13726 O 1362 2.43088 -0.682979 0
M  V30 13727 C 1363.32 0.174001 -3.00196 0
M  V30 13728 C 1364.86 0.246694 -3.12026 0
M  V30 13729 C 1365.34 0.123177 -4.57834 0
M  V30 13730 N 1366.83 0.180129 -4.6285 0
M  V30 13731 C 1367.56 0.108353 -5.73298 0
M  V30 13732 N 1367.06 -0.0145648 -6.92798 0
M  V30 13733 N 1368.85 0.162411 -5.61865 0
M  V30 13734 H 1361 -0.946945 -1.90123 0
M  V30 13735 H 1363.27 -0.365762 -0.874598 0
M  V30 13736 H 1362.97 -0.791871 -3.42669 0
M  V30 13737 H 1362.85 0.943794 -3.65202 0
M  V30 13738 H 1365.23 1.20303 -2.69465 0
M  V30 13739 H 1365.32 -0.553493 -2.4974 0
M  V30 13740 H 1364.96 -0.82974 -5.01077 0
M  V30 13741 H 1364.89 0.94224 -5.18102 0
M  V30 13742 H 1367.38 0.275236 -3.76896 0
M  V30 13743 H 1367.69 -0.062614 -7.72775 0
M  V30 13744 H 1366.04 -0.0493606 -6.94982 0
M  V30 13745 H 1369.23 0.256847 -4.67395 0
M  V30 13746 H 1369.4 0.103013 -6.47918 0
M  V30 13747 N 1362.81 1.55714 0.243056 0
M  V30 13748 C 1363.77 1.89832 1.28438 0
M  V30 13749 C 1364.77 0.775083 1.40887 0
M  V30 13750 O 1365.96 1.04304 1.39521 0
M  V30 13751 C 1363.09 2.13016 2.66153 0
M  V30 13752 H 1364.29 2.82947 0.994022 0
M  V30 13753 H 1361.84 1.48665 0.482521 0
M  V30 13754 H 1362.57 1.22381 3.00322 0
M  V30 13755 H 1362.36 2.94824 2.58498 0
M  V30 13756 H 1363.85 2.40581 3.41336 0
M  V30 13757 N 1364.29 -0.50888 1.49158 0
M  V30 13758 C 1365.53 -1.261 1.57934 0
M  V30 13759 C 1365.86 -1.93199 0.264405 0
M  V30 13760 O 1365.13 -1.82359 -0.715684 0
M  V30 13761 H 1363.71 -0.468421 0.581886 0
M  V30 13762 H 1366.37 -0.590447 1.85741 0
M  V30 13763 H 1365.46 -2.02913 2.37135 0
M  V30 13764 N 1365.76 -1.381 -0.759346 0
M  V30 13765 C 1366.71 -1.34866 -1.87296 0
M  V30 13766 C 1367.68 -0.212139 -1.6474 0
M  V30 13767 O 1368.87 -0.403464 -1.86485 0
M  V30 13768 C 1366.01 -1.17383 -3.24523 0
M  V30 13769 C 1365.12 -2.40372 -3.5895 0
M  V30 13770 C 1364.25 -2.15665 -4.8545 0
M  V30 13771 C 1363.29 -3.34455 -5.12646 0
M  V30 13772 N 1362.43 -3.0922 -6.30339 0
M  V30 13773 H 1367.27 -2.30072 -1.89396 0
M  V30 13774 H 1364.81 -1.14314 -0.925788 0
M  V30 13775 H 1366.77 -1.05264 -4.03702 0
M  V30 13776 H 1365.4 -0.258182 -3.21766 0
M  V30 13777 H 1364.45 -2.63185 -2.74659 0
M  V30 13778 H 1365.76 -3.28926 -3.74978 0
M  V30 13779 H 1364.91 -2.00649 -5.7256 0
M  V30 13780 H 1363.65 -1.24467 -4.7155 0
M  V30 13781 H 1362.66 -3.49997 -4.24007 0
M  V30 13782 H 1363.88 -4.26521 -5.28448 0
M  V30 13783 H 1361.83 -2.20664 -6.17773 0
M  V30 13784 H 1361.75 -3.91321 -6.46841 0
M  V30 13785 H 1363.01 -2.97847 -7.20352 0
M  V30 13786 N 1367.24 0.986894 -1.22875 0
M  V30 13787 C 1368.17 2.09628 -1.0285 0
M  V30 13788 C 1369.15 1.70019 0.0525118 0
M  V30 13789 O 1370.34 1.93883 -0.110874 0
M  V30 13790 C 1367.47 3.41866 -0.61194 0
M  V30 13791 C 1366.42 3.95351 -1.63956 0
M  V30 13792 C 1365.75 5.23707 -1.07865 0
M  V30 13793 C 1367.05 4.25354 -3.03102 0
M  V30 13794 H 1368.74 2.26639 -1.95641 0
M  V30 13795 H 1366.29 1.0891 -0.942048 0
M  V30 13796 H 1368.24 4.18893 -0.458936 0
M  V30 13797 H 1366.97 3.24701 0.35164 0
M  V30 13798 H 1365.62 3.20462 -1.78045 0
M  V30 13799 H 1365.27 5.02888 -0.106246 0
M  V30 13800 H 1364.97 5.60459 -1.76522 0
M  V30 13801 H 1366.5 6.03362 -0.937359 0
M  V30 13802 H 1367.91 4.93156 -2.92353 0
M  V30 13803 H 1366.31 4.73292 -3.68938 0
M  V30 13804 H 1367.38 3.32887 -3.52583 0
M  V30 13805 N 1368.72 1.0394 1.18466 0
M  V30 13806 C 1369.96 0.750905 1.90107 0
M  V30 13807 C 1370.32 -0.708278 1.78458 0
M  V30 13808 O 1371.53 -1.11033 2.44796 0
M  V30 13809 C 1369.8 1.20259 3.3656 0
M  V30 13810 S 1371.36 1.03954 4.26308 0
M  V30 13811 H 1368.17 0.273061 0.656475 0
M  V30 13812 H 1370.78 1.33143 1.43154 0
M  V30 13813 H 1369.48 2.26 3.42567 0
M  V30 13814 H 1369.01 0.615804 3.8855 0
M  V30 13815 H 1371.03 -0.0437629 4.96181 0
M  V30 13816 N 1370.2 -1.34667 0.818693 0
M  V30 13817 C 1371.13 -2.32134 0.252239 0
M  V30 13818 C 1372.11 -1.58044 -0.628982 0
M  V30 13819 O 1373.29 -1.86049 -0.55674 0
M  V30 13820 C 1370.42 -3.42249 -0.590183 0
M  V30 13821 C 1369.38 -4.27562 0.193547 0
M  V30 13822 C 1368.7 -5.29107 -0.771349 0
M  V30 13823 C 1370 -5.03205 1.39936 0
M  V30 13824 H 1371.7 -2.79758 1.06657 0
M  V30 13825 H 1369.24 -1.34502 0.514325 0
M  V30 13826 H 1371.2 -4.09445 -0.996616 0
M  V30 13827 H 1369.92 -2.93262 -1.43752 0
M  V30 13828 H 1368.58 -3.61962 0.581297 0
M  V30 13829 H 1368.23 -4.76384 -1.61453 0
M  V30 13830 H 1367.93 -5.87063 -0.251201 0
M  V30 13831 H 1369.45 -5.99174 -1.17573 0
M  V30 13832 H 1370.87 -5.6328 1.06717 0
M  V30 13833 H 1369.26 -5.70715 1.85485 0
M  V30 13834 H 1370.33 -4.33145 2.17976 0
M  V30 13835 N 1371.68 -0.573274 -1.46804 0
M  V30 13836 C 1372.9 -0.0586717 -2.07317 0
M  V30 13837 C 1373.33 1.2328 -1.42069 0
M  V30 13838 O 1372.68 1.74235 -0.501188 0
M  V30 13839 C 1372.73 0.103503 -3.60451 0
M  V30 13840 O 1371.84 1.16229 -3.95682 0
M  V30 13841 H 1371.18 -0.0585504 -0.661414 0
M  V30 13842 H 1373.71 -0.793532 -1.88585 0
M  V30 13843 H 1373.72 0.312658 -4.068 0
M  V30 13844 H 1372.39 -0.839684 -4.07335 0
M  V30 13845 H 1370.97 0.932347 -3.61056 0
M  V30 13846 N 1373.15 1.5451 -0.310553 0
M  V30 13847 C 1374.38 2.05204 0.301013 0
M  V30 13848 C 1374.8 1.1859 1.46007 0
M  V30 13849 O 1374.16 0.192081 1.8028 0
M  V30 13850 C 1374.21 3.53221 0.725767 0
M  V30 13851 O 1373.31 3.69596 1.82955 0
M  V30 13852 H 1372.66 0.661566 0.0568026 0
M  V30 13853 H 1375.19 1.99473 -0.455178 0
M  V30 13854 H 1375.2 3.9525 1.01198 0
M  V30 13855 H 1373.87 4.15721 -0.122046 0
M  V30 13856 H 1372.45 3.39472 1.54315 0
M  V30 13857 N 1374.63 0.0384594 1.57553 0
M  V30 13858 C 1375.86 -0.648077 1.96488 0
M  V30 13859 C 1376.28 -1.65123 0.915414 0
M  V30 13860 O 1375.63 -1.82216 -0.101779 0
M  V30 13861 C 1375.68 -1.34623 3.35498 0
M  V30 13862 O 1375.41 -0.383261 4.3642 0
M  V30 13863 C 1376.91 -2.12372 3.89119 0
M  V30 13864 H 1374.13 -0.178068 0.646941 0
M  V30 13865 H 1376.67 0.100993 2.0425 0
M  V30 13866 H 1374.83 -2.04663 3.28926 0
M  V30 13867 H 1375.24 -0.880095 5.17063 0
M  V30 13868 H 1376.71 -2.5666 4.88702 0
M  V30 13869 H 1377.19 -2.96664 3.23863 0
M  V30 13870 H 1377.8 -1.4727 3.98988 0
M  V30 13871 N 1376.11 -1.55841 -0.234795 0
M  V30 13872 C 1377.36 -1.78502 -0.96254 0
M  V30 13873 C 1377.69 -0.605832 -1.84508 0
M  V30 13874 O 1376.97 0.395446 -1.90438 0
M  V30 13875 C 1377.25 -3.11144 -1.81277 0
M  V30 13876 C 1377.1 -4.39488 -0.957607 0
M  V30 13877 C 1378.42 -3.40114 -2.79304 0
M  V30 13878 H 1375.54 -0.649397 -0.348501 0
M  V30 13879 H 1378.18 -1.88575 -0.23224 0
M  V30 13880 H 1376.33 -3.02687 -2.43542 0
M  V30 13881 H 1378 -4.59949 -0.352726 0
M  V30 13882 H 1376.25 -4.33005 -0.262454 0
M  V30 13883 H 1376.92 -5.28707 -1.58659 0
M  V30 13884 H 1379.39 -3.48612 -2.27175 0
M  V30 13885 H 1378.27 -4.34118 -3.35906 0
M  V30 13886 H 1378.53 -2.61623 -3.56378 0
M  V30 13887 N 1377.59 0.500963 -1.49426 0
M  V30 13888 C 1378.54 1.6025 -1.66098 0
M  V30 13889 C 1379.51 1.58318 -0.502453 0
M  V30 13890 O 1380.69 1.76304 -0.729482 0
M  V30 13891 C 1377.83 2.98396 -1.73361 0
M  V30 13892 C 1376.94 3.10343 -3.00518 0
M  V30 13893 C 1376.08 4.39222 -2.9876 0
M  V30 13894 C 1375.12 4.44803 -4.20496 0
M  V30 13895 N 1374.26 5.6511 -4.16648 0
M  V30 13896 H 1379.1 1.45342 -2.60153 0
M  V30 13897 H 1376.63 0.707147 -1.28988 0
M  V30 13898 H 1378.59 3.78467 -1.75553 0
M  V30 13899 H 1377.22 3.12007 -0.827718 0
M  V30 13900 H 1376.27 2.23336 -3.07937 0
M  V30 13901 H 1377.58 3.10327 -3.90511 0
M  V30 13902 H 1376.74 5.27613 -2.99515 0
M  V30 13903 H 1375.48 4.41804 -2.06545 0
M  V30 13904 H 1374.48 3.54814 -4.19985 0
M  V30 13905 H 1375.71 4.43937 -5.13903 0
M  V30 13906 H 1373.65 5.68533 -3.2727 0
M  V30 13907 H 1373.57 5.6671 -5.00376 0
M  V30 13908 H 1374.84 6.55708 -4.21506 0
M  V30 13909 N 1379.07 1.38501 0.752011 0
M  V30 13910 C 1380 1.31746 1.87551 0
M  V30 13911 C 1381.01 0.229386 1.61176 0
M  V30 13912 O 1382.2 0.487066 1.71726 0
M  V30 13913 C 1379.3 1.01889 3.23221 0
M  V30 13914 C 1378.47 2.21637 3.77088 0
M  V30 13915 C 1377.53 1.885 4.91278 0
M  V30 13916 O 1376.56 2.61011 5.05828 0
M  V30 13917 N 1377.76 0.840909 5.74377 0
M  V30 13918 H 1380.53 2.28561 1.93856 0
M  V30 13919 H 1378.09 1.32383 0.932013 0
M  V30 13920 H 1380.08 0.777704 3.97157 0
M  V30 13921 H 1378.65 0.138658 3.12292 0
M  V30 13922 H 1377.87 2.61812 2.947 0
M  V30 13923 H 1379.16 3.01551 4.0981 0
M  V30 13924 H 1378.56 0.23962 5.65192 0
M  V30 13925 H 1377.11 0.659604 6.48454 0
M  V30 13926 N 1380.55 -0.980364 1.23396 0
M  V30 13927 C 1381.79 -1.72421 1.06765 0
M  V30 13928 C 1382.12 -1.90151 -0.394515 0
M  V30 13929 O 1381.4 -1.4538 -1.29209 0
M  V30 13930 C 1381.68 -3.12246 1.79372 0
M  V30 13931 C 1381.54 -3.02087 3.33262 0
M  V30 13932 C 1382.85 -4.11667 1.55624 0
M  V30 13933 H 1379.97 -0.625822 0.389251 0
M  V30 13934 H 1382.62 -1.14132 1.51901 0
M  V30 13935 H 1380.77 -3.62008 1.41004 0
M  V30 13936 H 1382.44 -2.59848 3.81152 0
M  V30 13937 H 1380.68 -2.38592 3.62293 0
M  V30 13938 H 1381.35 -4.01087 3.79254 0
M  V30 13939 H 1383.83 -3.70712 1.88975 0
M  V30 13940 H 1382.7 -5.07593 2.08902 0
M  V30 13941 H 1382.96 -4.39358 0.491601 0
M  V30 13942 N 1382.02 -1.04567 -1.17913 0
M  V30 13943 C 1383.27 -0.753137 -1.88297 0
M  V30 13944 C 1383.6 0.717651 -1.80453 0
M  V30 13945 O 1382.88 1.5242 -1.20824 0
M  V30 13946 C 1383.16 -1.22626 -3.38578 0
M  V30 13947 C 1383.01 -2.75952 -3.55205 0
M  V30 13948 C 1384.33 -0.82029 -4.32388 0
M  V30 13949 H 1381.45 -0.275067 -0.683745 0
M  V30 13950 H 1384.09 -1.29856 -1.38699 0
M  V30 13951 H 1382.24 -0.762246 -3.80949 0
M  V30 13952 H 1383.92 -3.30429 -3.21892 0
M  V30 13953 H 1382.16 -3.15534 -2.97693 0
M  V30 13954 H 1382.83 -3.04116 -4.60671 0
M  V30 13955 H 1385.31 -1.21965 -3.97824 0
M  V30 13956 H 1384.18 -1.17902 -5.36088 0
M  V30 13957 H 1384.44 0.276205 -4.41236 0
M  V30 13958 N 1383.5 1.34231 -0.825823 0
M  V30 13959 C 1384.92 1.51166 -0.511945 0
M  V30 13960 C 1385.12 1.76981 0.963318 0
M  V30 13961 O 1384.17 1.82243 1.74767 0
M  V30 13962 C 1385.49 2.67474 -1.37399 0
M  V30 13963 C 1387.03 2.81356 -1.37141 0
M  V30 13964 C 1387.51 4.0071 -2.218 0
M  V30 13965 N 1389 4.07922 -2.19439 0
M  V30 13966 C 1389.74 4.99438 -2.81691 0
M  V30 13967 N 1389.23 5.96157 -3.52944 0
M  V30 13968 N 1391.02 4.92332 -2.7123 0
M  V30 13969 H 1383.18 1.15734 -1.78099 0
M  V30 13970 H 1385.44 0.567856 -0.759107 0
M  V30 13971 H 1385.14 2.55036 -2.42176 0
M  V30 13972 H 1385.02 3.62558 -1.04075 0
M  V30 13973 H 1387.41 2.93233 -0.331405 0
M  V30 13974 H 1387.49 1.87072 -1.74464 0
M  V30 13975 H 1387.13 3.89593 -3.25852 0
M  V30 13976 H 1387.06 4.94213 -1.81826 0
M  V30 13977 H 1389.55 3.38695 -1.67612 0
M  V30 13978 H 1389.86 6.62623 -3.97682 0
M  V30 13979 H 1388.21 5.96272 -3.5705 0
M  V30 13980 H 1391.4 4.15733 -2.15137 0
M  V30 13981 H 1391.57 5.63458 -3.20031 0
M  V30 13982 N 1384.98 0.581051 1.46498 0
M  V30 13983 C 1386.4 0.242599 1.57745 0
M  V30 13984 C 1386.6 -1.25508 1.57639 0
M  V30 13985 O 1385.65 -2.0367 1.49247 0
M  V30 13986 C 1386.96 0.890342 2.87217 0
M  V30 13987 C 1388.51 0.863778 3.00845 0
M  V30 13988 C 1388.99 1.49103 4.3305 0
M  V30 13989 N 1390.48 1.4553 4.39745 0
M  V30 13990 C 1391.21 1.91003 5.40653 0
M  V30 13991 N 1390.71 2.44442 6.48244 0
M  V30 13992 N 1392.5 1.8193 5.31844 0
M  V30 13993 H 1384.65 1.55382 1.44811 0
M  V30 13994 H 1386.92 0.649375 0.690664 0
M  V30 13995 H 1386.62 1.94383 2.93101 0
M  V30 13996 H 1386.5 0.397569 3.75099 0
M  V30 13997 H 1388.88 -0.181089 2.94544 0
M  V30 13998 H 1388.96 1.39455 2.14443 0
M  V30 13999 H 1388.61 2.53509 4.40109 0
M  V30 14000 H 1388.54 0.935496 5.18224 0
M  V30 14001 H 1391.03 1.06466 3.62593 0
M  V30 14002 H 1391.34 2.77002 7.2145 0
M  V30 14003 H 1389.69 2.48467 6.49068 0
M  V30 14004 H 1392.88 1.3994 4.46693 0
M  V30 14005 H 1393.05 2.17685 6.10342 0
M  V30 14006 N 1386.46 -1.54343 0.318742 0
M  V30 14007 C 1387.39 -2.27118 -0.542206 0
M  V30 14008 C 1388.37 -1.27731 -1.12334 0
M  V30 14009 O 1389.55 -1.56535 -1.14937 0
M  V30 14010 C 1386.68 -3.02535 -1.70558 0
M  V30 14011 C 1385.64 -4.09218 -1.25398 0
M  V30 14012 C 1384.96 -4.72449 -2.50391 0
M  V30 14013 C 1386.26 -5.20971 -0.372332 0
M  V30 14014 H 1387.96 -2.9933 0.0648226 0
M  V30 14015 H 1385.5 -1.43963 0.0326168 0
M  V30 14016 H 1387.46 -3.52174 -2.31412 0
M  V30 14017 H 1386.18 -2.27931 -2.33912 0
M  V30 14018 H 1384.84 -3.60455 -0.668392 0
M  V30 14019 H 1384.49 -3.94466 -3.12099 0
M  V30 14020 H 1384.19 -5.4451 -2.20868 0
M  V30 14021 H 1385.71 -5.2486 -3.12016 0
M  V30 14022 H 1387.13 -5.66396 -0.887029 0
M  V30 14023 H 1385.52 -5.99859 -0.17009 0
M  V30 14024 H 1386.59 -4.81198 0.598064 0
M  V30 14025 N 1387.94 -0.0468143 -1.5753 0
M  V30 14026 C 1388.88 0.946945 -2.12452 0
M  V30 14027 C 1389.88 1.32515 -1.05527 0
M  V30 14028 O 1391.08 1.30532 -1.23941 0
M  V30 14029 H 1387.46 0.323223 -0.678993 0
M  V30 14030 H 1389.43 0.45858 -2.94855 0
M  V30 14031 C 1388.18 2.21402 -2.68098 0
M  V30 14032 H 1387.5 1.93178 -3.50032 0
M  V30 14033 H 1388.94 2.89105 -3.10152 0
M  V30 14034 C 1387.4 2.95576 -1.61668 0
M  V30 14035 O 1387.93 3.88353 -1.02689 0
M  V30 14036 N 1386.14 2.58228 -1.33291 0
M  V30 14037 H 1385.68 1.82858 -1.8144 0
M  V30 14038 H 1385.64 3.08164 -0.623092 0
M  V30 14039 N 1389.41 1.55964 0.226527 0
M  V30 14040 C 1390.32 1.95169 1.30178 0
M  V30 14041 C 1391.34 0.854831 1.51554 0
M  V30 14042 O 1392.52 1.15798 1.64781 0
M  V30 14043 C 1389.58 2.25612 2.63249 0
M  V30 14044 C 1388.64 3.4884 2.50219 0
M  V30 14045 C 1387.88 3.77822 3.76944 0
M  V30 14046 O 1388.1 3.08556 4.79739 0
M  V30 14047 O 1387.03 4.7132 3.74354 0
M  V30 14048 H 1390.86 2.86794 0.999145 0
M  V30 14049 H 1388.44 1.43109 0.42898 0
M  V30 14050 H 1390.33 2.4641 3.41848 0
M  V30 14051 H 1389 1.37162 2.93203 0
M  V30 14052 H 1387.91 3.33326 1.69836 0
M  V30 14053 H 1389.24 4.37657 2.25205 0
M  V30 14054 N 1390.89 -0.493031 1.4969 0
M  V30 14055 C 1391.82 -1.60215 1.69863 0
M  V30 14056 C 1392.8 -1.61053 0.547362 0
M  V30 14057 O 1393.99 -1.77667 0.784093 0
M  V30 14058 C 1391.12 -2.98662 1.77252 0
M  V30 14059 C 1390.07 -3.1269 2.92248 0
M  V30 14060 C 1389.4 -4.52567 2.84758 0
M  V30 14061 C 1390.7 -2.91965 4.33074 0
M  V30 14062 H 1392.39 -1.43587 2.62723 0
M  V30 14063 H 1389.94 -0.689334 1.26429 0
M  V30 14064 H 1391.89 -3.7616 1.89951 0
M  V30 14065 H 1390.62 -3.16397 0.809976 0
M  V30 14066 H 1389.27 -2.37619 2.79164 0
M  V30 14067 H 1388.92 -4.6719 1.86394 0
M  V30 14068 H 1388.62 -4.62893 3.61944 0
M  V30 14069 H 1390.15 -5.32116 2.99475 0
M  V30 14070 H 1391.56 -3.59228 4.46798 0
M  V30 14071 H 1389.96 -3.13756 5.11544 0
M  V30 14072 H 1391.03 -1.88015 4.46966 0
M  V30 14073 N 1392.37 -1.38898 -0.744656 0
M  V30 14074 C 1393.6 -1.38647 -1.53169 0
M  V30 14075 C 1394.01 0.0233199 -1.89186 0
M  V30 14076 O 1393.35 1.00261 -1.53927 0
M  V30 14077 C 1393.41 -2.18615 -2.85391 0
M  V30 14078 C 1393.08 -3.67342 -2.71862 0
M  V30 14079 C 1394.07 -4.60638 -2.41057 0
M  V30 14080 C 1391.76 -4.10809 -2.89035 0
M  V30 14081 C 1393.75 -5.95383 -2.27592 0
M  V30 14082 C 1391.44 -5.45632 -2.7519 0
M  V30 14083 C 1392.44 -6.37733 -2.44512 0
M  V30 14084 O 1392.13 -7.70074 -2.30741 0
M  V30 14085 H 1391.86 -0.475741 -0.480257 0
M  V30 14086 H 1394.41 -1.8321 -0.928621 0
M  V30 14087 H 1392.64 -1.68784 -3.47921 0
M  V30 14088 H 1394.33 -2.1066 -3.46954 0
M  V30 14089 H 1395.1 -4.28359 -2.2745 0
M  V30 14090 H 1390.98 -3.39462 -3.11908 0
M  V30 14091 H 1394.52 -6.67237 -2.03569 0
M  V30 14092 H 1390.42 -5.77504 -2.88373 0
M  V30 14093 H 1391.19 -7.80694 -2.45885 0
M  V30 14094 N 1393.85 0.973806 -1.23914 0
M  V30 14095 C 1394.8 2.06734 -1.02614 0
M  V30 14096 C 1395.77 1.65997 0.0585705 0
M  V30 14097 O 1396.95 1.90564 -0.0948467 0
M  V30 14098 C 1394.09 3.39292 -0.630493 0
M  V30 14099 C 1393.2 3.9326 -1.78803 0
M  V30 14100 C 1392.34 5.14059 -1.33854 0
M  V30 14101 C 1391.38 5.60209 -2.46642 0
M  V30 14102 N 1390.51 6.72232 -2.02603 0
M  V30 14103 H 1395.35 2.24287 -1.96212 0
M  V30 14104 H 1392.89 1.09935 -0.977376 0
M  V30 14105 H 1394.85 4.15446 -0.382163 0
M  V30 14106 H 1393.48 3.21682 0.268483 0
M  V30 14107 H 1392.53 3.13801 -2.15019 0
M  V30 14108 H 1393.84 4.23475 -2.63573 0
M  V30 14109 H 1393 5.97567 -1.04873 0
M  V30 14110 H 1391.74 4.85513 -0.46131 0
M  V30 14111 H 1390.74 4.75278 -2.7639 0
M  V30 14112 H 1391.97 5.90771 -3.34912 0
M  V30 14113 H 1389.91 6.45433 -1.17269 0
M  V30 14114 H 1389.83 7.01865 -2.80929 0
M  V30 14115 H 1391.1 7.59198 -1.76745 0
M  V30 14116 N 1395.33 1.05191 1.17357 0
M  V30 14117 C 1396.29 0.65713 2.19578 0
M  V30 14118 C 1397.29 -0.29138 1.58138 0
M  V30 14119 O 1398.48 -0.075254 1.74037 0
M  V30 14120 C 1395.61 -0.0348162 3.40882 0
M  V30 14121 H 1396.8 1.56188 2.56018 0
M  V30 14122 H 1394.36 0.845795 1.31438 0
M  V30 14123 H 1395.09 -0.952835 3.09986 0
M  V30 14124 H 1394.88 0.647076 3.86724 0
M  V30 14125 H 1396.37 -0.297135 4.16542 0
M  V30 14126 N 1396.8 -1.33791 0.83293 0
M  V30 14127 C 1398.03 -2.0272 0.438111 0
M  V30 14128 C 1398.45 -1.62279 -0.951163 0
M  V30 14129 O 1397.81 -0.812406 -1.62079 0
M  V30 14130 C 1397.86 -3.5623 0.559698 0
M  V30 14131 O 1396.96 -4.10292 -0.41646 0
M  V30 14132 H 1396.31 -0.639438 0.178928 0
M  V30 14133 H 1398.84 -1.70821 1.12612 0
M  V30 14134 H 1398.85 -4.0563 0.439148 0
M  V30 14135 H 1397.52 -3.8501 1.5729 0
M  V30 14136 H 1396.1 -3.72034 -0.25396 0
M  V30 14137 N 1398.28 -0.588812 -1.46187 0
M  V30 14138 C 1399.53 -0.0768417 -2.02654 0
M  V30 14139 C 1399.86 1.28213 -1.4586 0
M  V30 14140 O 1399.14 1.8415 -0.626022 0
M  V30 14141 C 1399.42 -0.0176429 -3.60096 0
M  V30 14142 C 1399.27 -1.40595 -4.27262 0
M  V30 14143 C 1400.59 0.679864 -4.34817 0
M  V30 14144 H 1397.71 -0.0293981 -0.736413 0
M  V30 14145 H 1400.35 -0.757183 -1.74261 0
M  V30 14146 H 1398.5 0.56174 -3.84417 0
M  V30 14147 H 1400.17 -2.03097 -4.14185 0
M  V30 14148 H 1398.42 -1.97196 -3.86388 0
M  V30 14149 H 1399.09 -1.31694 -5.3606 0
M  V30 14150 H 1401.56 0.1876 -4.15677 0
M  V30 14151 H 1400.44 0.690333 -5.44542 0
M  V30 14152 H 1400.7 1.74237 -4.06318 0
M  V30 14153 N 1399.76 1.54172 -0.326923 0
M  V30 14154 C 1401.01 2.00926 0.275047 0
M  V30 14155 C 1401.34 1.21469 1.51522 0
M  V30 14156 O 1400.61 0.297871 1.92206 0
M  V30 14157 C 1400.9 3.54967 0.605833 0
M  V30 14158 C 1400.75 4.45147 -0.645279 0
M  V30 14159 C 1402.07 4.16489 1.42213 0
M  V30 14160 H 1399.19 0.730389 0.098495 0
M  V30 14161 H 1401.83 1.84735 -0.444168 0
M  V30 14162 H 1399.98 3.68895 1.21857 0
M  V30 14163 H 1401.65 4.43085 -1.2835 0
M  V30 14164 H 1399.9 4.14686 -1.27349 0
M  V30 14165 H 1400.57 5.50763 -0.36932 0
M  V30 14166 H 1403.04 4.06158 0.904172 0
M  V30 14167 H 1401.92 5.24377 1.62234 0
M  V30 14168 H 1402.18 3.70032 2.41928 0
M  V30 14169 N 1401.24 0.0551678 1.57503 0
M  V30 14170 C 1402.46 -0.630692 1.97578 0
M  V30 14171 C 1402.89 -1.63348 0.932686 0
M  V30 14172 O 1402.25 -1.81004 -0.103632 0
M  V30 14173 C 1402.29 -1.29049 3.36718 0
M  V30 14174 O 1401.4 -2.40621 3.34926 0
M  V30 14175 H 1400.74 -0.163625 0.643524 0
M  V30 14176 H 1403.27 0.124753 2.04219 0
M  V30 14177 H 1403.28 -1.64124 3.73534 0
M  V30 14178 H 1401.95 -0.55559 4.12172 0
M  V30 14179 H 1400.53 -2.07463 3.0986 0
M  V30 14180 N 1402.72 -1.56081 -0.218252 0
M  V30 14181 C 1403.96 -1.81024 -0.949188 0
M  V30 14182 C 1404.32 -0.629178 -1.81398 0
M  V30 14183 O 1405.52 -0.757982 -2.57892 0
M  V30 14184 C 1403.79 -3.10878 -1.76322 0
M  V30 14185 S 1405.35 -3.57147 -2.54934 0
M  V30 14186 H 1402.17 -0.635529 -0.318785 0
M  V30 14187 H 1404.77 -1.9432 -0.214484 0
M  V30 14188 H 1403.48 -3.94875 -1.11811 0
M  V30 14189 H 1403.01 -3.00399 -2.54016 0
M  V30 14190 H 1405.02 -3.20747 -3.78597 0
M  V30 14191 N 1404.2 0.485086 -1.49949 0
M  V30 14192 C 1405.13 1.60191 -1.63926 0
M  V30 14193 C 1406.14 1.5423 -0.521256 0
M  V30 14194 O 1407.33 1.59872 -0.79392 0
M  V30 14195 C 1404.43 2.99035 -1.59472 0
M  V30 14196 C 1403.6 3.30014 -2.87071 0
M  V30 14197 C 1402.66 4.48345 -2.75451 0
M  V30 14198 O 1401.69 4.49342 -3.494 0
M  V30 14199 N 1402.89 5.49192 -1.88064 0
M  V30 14200 H 1405.65 1.48622 -2.60253 0
M  V30 14201 H 1403.22 0.673258 -1.47237 0
M  V30 14202 H 1405.21 3.76142 -1.4933 0
M  V30 14203 H 1403.78 3.04445 -0.709373 0
M  V30 14204 H 1403 2.41652 -3.11445 0
M  V30 14205 H 1404.29 3.47515 -3.71632 0
M  V30 14206 H 1403.68 5.51198 -1.2727 0
M  V30 14207 H 1402.24 6.25338 -1.83835 0
M  V30 14208 N 1405.67 1.39291 0.737279 0
M  V30 14209 C 1406.92 1.36121 1.49384 0
M  V30 14210 C 1407.24 -0.0429406 1.94953 0
M  V30 14211 O 1406.51 -0.993756 1.68823 0
M  V30 14212 H 1405.09 0.500916 0.554159 0
M  V30 14213 H 1407.75 1.74134 0.875402 0
M  V30 14214 H 1406.85 2.02246 2.37704 0
M  V30 14215 N 1407.15 -0.967221 1.24429 0
M  V30 14216 C 1408.08 -2.07966 1.06172 0
M  V30 14217 C 1409.06 -1.70081 -0.0254566 0
M  V30 14218 O 1410.25 -1.93682 0.141705 0
M  V30 14219 C 1407.38 -3.4085 0.666251 0
M  V30 14220 C 1406.33 -3.92692 1.70225 0
M  V30 14221 C 1405.66 -5.21925 1.16183 0
M  V30 14222 C 1406.96 -4.20478 3.09831 0
M  V30 14223 H 1408.65 -2.23497 1.99222 0
M  V30 14224 H 1406.2 -1.07398 0.959255 0
M  V30 14225 H 1408.15 -4.1811 0.52552 0
M  V30 14226 H 1406.87 -3.2522 -0.299939 0
M  V30 14227 H 1405.53 -3.17588 1.83121 0
M  V30 14228 H 1405.18 -5.02655 0.186237 0
M  V30 14229 H 1404.88 -5.57579 1.85416 0
M  V30 14230 H 1406.41 -6.01795 1.03323 0
M  V30 14231 H 1407.82 -4.88442 3.00162 0
M  V30 14232 H 1406.22 -4.67362 3.7642 0
M  V30 14233 H 1407.29 -3.27235 3.57834 0
M  V30 14234 N 1408.63 -1.05812 -1.16797 0
M  V30 14235 C 1409.85 -0.792518 -1.91661 0
M  V30 14236 C 1410.28 0.646598 -1.76637 0
M  V30 14237 O 1409.64 1.44998 -1.08836 0
M  V30 14238 C 1409.69 -1.18585 -3.40544 0
M  V30 14239 O 1408.79 -0.321716 -4.11143 0
M  V30 14240 H 1408.13 -0.290066 -0.597292 0
M  V30 14241 H 1410.66 -1.41263 -1.48007 0
M  V30 14242 H 1410.67 -1.1553 -3.91301 0
M  V30 14243 H 1409.35 -2.23413 -3.50798 0
M  V30 14244 H 1407.92 -0.413403 -3.70601 0
M  V30 14245 N 1410.11 1.33347 -0.840014 0
M  V30 14246 C 1411.04 2.31703 -0.289138 0
M  V30 14247 C 1412.02 1.59024 0.603759 0
M  V30 14248 O 1413.2 1.86911 0.527071 0
M  V30 14249 C 1410.33 3.43144 0.53566 0
M  V30 14250 C 1409.29 4.272 -0.261544 0
M  V30 14251 C 1408.61 5.30267 0.687075 0
M  V30 14252 C 1409.91 5.00915 -1.47924 0
M  V30 14253 H 1411.61 2.78026 -1.11094 0
M  V30 14254 H 1409.15 1.33666 -0.535658 0
M  V30 14255 H 1411.11 4.10979 0.931351 0
M  V30 14256 H 1409.83 2.95512 1.39069 0
M  V30 14257 H 1408.49 3.60991 -0.638809 0
M  V30 14258 H 1408.14 4.78893 1.53853 0
M  V30 14259 H 1407.84 5.87388 0.157773 0
M  V30 14260 H 1409.36 6.00968 1.08026 0
M  V30 14261 H 1410.78 5.61511 -1.15664 0
M  V30 14262 H 1409.17 5.67692 -1.94541 0
M  V30 14263 H 1410.24 4.29622 -2.24839 0
M  V30 14264 N 1411.59 0.596556 1.45873 0
M  V30 14265 C 1413 0.259317 1.57479 0
M  V30 14266 C 1413.2 -1.23829 1.58961 0
M  V30 14267 O 1412.26 -2.02076 1.51399 0
M  V30 14268 C 1413.57 0.920755 2.86256 0
M  V30 14269 C 1415.12 0.895638 2.99912 0
M  V30 14270 C 1415.59 1.53688 4.31444 0
M  V30 14271 N 1417.08 1.50186 4.38176 0
M  V30 14272 C 1417.82 1.96727 5.38596 0
M  V30 14273 N 1417.32 2.51304 6.45615 0
M  V30 14274 N 1419.11 1.87561 5.29884 0
M  V30 14275 H 1411.26 1.56909 1.43155 0
M  V30 14276 H 1413.52 0.656664 0.683737 0
M  V30 14277 H 1413.23 1.97481 2.91023 0
M  V30 14278 H 1413.1 0.437331 3.74656 0
M  V30 14279 H 1415.49 -0.149838 2.94719 0
M  V30 14280 H 1415.57 1.41722 2.12952 0
M  V30 14281 H 1415.21 2.58163 4.37395 0
M  V30 14282 H 1415.14 0.990408 5.17203 0
M  V30 14283 H 1417.64 1.10305 3.61443 0
M  V30 14284 H 1417.95 2.84639 7.18471 0
M  V30 14285 H 1416.29 2.55337 6.46396 0
M  V30 14286 H 1419.48 1.4467 4.45183 0
M  V30 14287 H 1419.66 2.24146 6.07999 0
M  V30 14288 N 1413.06 -1.53996 0.335095 0
M  V30 14289 C 1413.99 -2.2768 -0.518087 0
M  V30 14290 C 1414.97 -1.28915 -1.10972 0
M  V30 14291 O 1416.16 -1.57745 -1.1327 0
M  V30 14292 C 1413.29 -3.04327 -1.67339 0
M  V30 14293 C 1412.24 -4.10525 -1.2105 0
M  V30 14294 C 1411.57 -4.75078 -2.45366 0
M  V30 14295 C 1412.87 -5.21337 -0.317055 0
M  V30 14296 H 1414.56 -2.99244 0.0965669 0
M  V30 14297 H 1412.11 -1.4392 0.0478842 0
M  V30 14298 H 1414.06 -3.54608 -2.27664 0
M  V30 14299 H 1412.79 -2.30399 -2.31481 0
M  V30 14300 H 1411.45 -3.61144 -0.630124 0
M  V30 14301 H 1411.09 -3.97754 -3.07897 0
M  V30 14302 H 1410.79 -5.46822 -2.1508 0
M  V30 14303 H 1412.32 -5.2814 -3.06432 0
M  V30 14304 H 1413.73 -5.67305 -0.826905 0
M  V30 14305 H 1412.13 -6.00006 -0.106458 0
M  V30 14306 H 1413.2 -4.80536 0.649068 0
M  V30 14307 N 1414.54 -0.0635198 -1.57472 0
M  V30 14308 C 1415.47 0.93602 -2.09216 0
M  V30 14309 C 1416.49 1.2668 -1.02255 0
M  V30 14310 O 1417.68 1.22543 -1.2979 0
M  V30 14311 C 1414.78 2.25417 -2.53062 0
M  V30 14312 C 1413.95 2.10347 -3.83501 0
M  V30 14313 C 1413.01 3.25394 -4.13528 0
M  V30 14314 O 1412.03 3.00751 -4.83257 0
M  V30 14315 N 1413.24 4.50243 -3.66417 0
M  V30 14316 H 1416 0.494288 -2.95596 0
M  V30 14317 H 1413.56 0.122416 -1.61437 0
M  V30 14318 H 1415.55 3.01272 -2.70217 0
M  V30 14319 H 1414.12 2.61116 -1.71864 0
M  V30 14320 H 1413.34 1.19009 -3.75807 0
M  V30 14321 H 1414.63 1.97519 -4.68896 0
M  V30 14322 H 1414.03 4.73152 -3.1007 0
M  V30 14323 H 1412.59 5.23152 -3.88787 0
M  V30 14324 N 1416.02 1.56195 0.209972 0
M  V30 14325 C 1417.44 1.49446 0.56018 0
M  V30 14326 C 1417.64 0.760799 1.86585 0
M  V30 14327 O 1416.69 0.305201 2.50649 0
M  V30 14328 C 1418 2.94054 0.628687 0
M  V30 14329 C 1419.55 3.04641 0.718531 0
M  V30 14330 C 1420.03 4.50631 0.81828 0
M  V30 14331 N 1421.52 4.54721 0.8822 0
M  V30 14332 C 1422.25 5.64976 0.979292 0
M  V30 14333 N 1421.75 6.84955 1.03961 0
M  V30 14334 N 1423.54 5.52854 1.01533 0
M  V30 14335 H 1415.69 2.02316 -0.646674 0
M  V30 14336 H 1417.96 0.920063 -0.228446 0
M  V30 14337 H 1417.66 3.50728 -0.261324 0
M  V30 14338 H 1417.54 3.46592 1.48842 0
M  V30 14339 H 1419.92 2.48026 1.59898 0
M  V30 14340 H 1420 2.55254 -0.167102 0
M  V30 14341 H 1419.65 5.07867 -0.0577557 0
M  V30 14342 H 1419.58 4.97736 1.7195 0
M  V30 14343 H 1422.07 3.68322 0.845433 0
M  V30 14344 H 1422.38 7.64732 1.11379 0
M  V30 14345 H 1420.73 6.87643 1.00854 0
M  V30 14346 H 1423.92 4.58046 0.96494 0
M  V30 14347 H 1424.09 6.38809 1.08754 0
M  V30 14348 N 1417.5 -0.477127 1.50204 0
M  V30 14349 C 1418.74 -1.22964 1.60891 0
M  V30 14350 C 1419.07 -1.9207 0.306464 0
M  V30 14351 O 1418.33 -1.82472 -0.707272 0
M  V30 14352 C 1418.63 -2.30126 2.73453 0
M  V30 14353 C 1418.29 -1.78314 4.14143 0
M  V30 14354 C 1416.95 -1.63904 4.52425 0
M  V30 14355 C 1419.31 -1.3981 5.02098 0
M  V30 14356 C 1416.63 -1.09404 5.76409 0
M  V30 14357 C 1418.99 -0.867538 6.26623 0
M  V30 14358 C 1417.65 -0.710022 6.63713 0
M  V30 14359 H 1416.92 -0.449959 0.588743 0
M  V30 14360 H 1419.57 -0.526592 1.84118 0
M  V30 14361 H 1417.87 -3.06315 2.44291 0
M  V30 14362 H 1419.57 -2.88099 2.78927 0
M  V30 14363 H 1416.16 -1.90496 3.83939 0
M  V30 14364 H 1420.34 -1.49779 4.73159 0
M  V30 14365 H 1415.6 -0.959413 6.03825 0
M  V30 14366 H 1419.77 -0.560496 6.94141 0
M  V30 14367 H 1417.4 -0.285555 7.59663 0
M  V30 14368 N 1418.98 -1.3968 -0.729882 0
M  V30 14369 C 1420.22 -1.37182 -1.48954 0
M  V30 14370 C 1420.55 0.0305728 -1.94476 0
M  V30 14371 O 1419.81 1.0124 -1.67478 0
M  V30 14372 C 1420.11 -2.29499 -2.7398 0
M  V30 14373 C 1419.77 -3.77034 -2.47298 0
M  V30 14374 C 1418.43 -4.17232 -2.39731 0
M  V30 14375 C 1420.79 -4.70325 -2.24597 0
M  V30 14376 C 1418.11 -5.48777 -2.07511 0
M  V30 14377 C 1420.47 -6.02153 -1.93893 0
M  V30 14378 C 1419.13 -6.41409 -1.84798 0
M  V30 14379 H 1418.4 -0.501985 -0.545061 0
M  V30 14380 H 1421.05 -1.72226 -0.837294 0
M  V30 14381 H 1419.35 -1.87592 -3.43972 0
M  V30 14382 H 1421.05 -2.24857 -3.32024 0
M  V30 14383 H 1417.64 -3.45177 -2.54069 0
M  V30 14384 H 1421.82 -4.40097 -2.29408 0
M  V30 14385 H 1417.08 -5.78109 -1.98996 0
M  V30 14386 H 1421.25 -6.73966 -1.75337 0
M  V30 14387 H 1418.88 -7.43258 -1.59598 0
M  V30 14388 N 1420.45 0.960609 -1.2494 0
M  V30 14389 C 1421.38 2.074 -1.07274 0
M  V30 14390 C 1422.37 1.70092 0.0164365 0
M  V30 14391 O 1423.55 1.93604 -0.151975 0
M  V30 14392 C 1420.68 3.40491 -0.684317 0
M  V30 14393 C 1419.63 3.91784 -1.72306 0
M  V30 14394 C 1418.96 5.21301 -1.18949 0
M  V30 14395 C 1420.26 4.18829 -3.12056 0
M  V30 14396 H 1421.95 2.22438 -2.00404 0
M  V30 14397 H 1419.5 1.06888 -0.964937 0
M  V30 14398 H 1421.45 4.17826 -0.547686 0
M  V30 14399 H 1420.18 3.25374 0.282687 0
M  V30 14400 H 1418.84 3.16613 -1.84802 0
M  V30 14401 H 1418.48 5.02549 -0.212892 0
M  V30 14402 H 1418.18 5.56588 -1.8837 0
M  V30 14403 H 1419.71 6.01238 -1.06513 0
M  V30 14404 H 1421.12 4.86844 -3.02748 0
M  V30 14405 H 1419.52 4.6536 -3.78894 0
M  V30 14406 H 1420.59 3.25333 -3.59564 0
M  V30 14407 N 1421.93 1.0643 1.16234 0
M  V30 14408 C 1423.21 0.695256 1.82827 0
M  V30 14409 C 1423.59 -0.823242 1.94386 0
M  V30 14410 O 1422.94 -1.73406 1.48804 0
M  V30 14411 C 1423.15 1.3988 3.19741 0
M  V30 14412 C 1424.5 1.54489 3.95498 0
M  V30 14413 O 1425.52 1.35882 3.29264 0
M  V30 14414 O 1424.38 1.85027 5.14225 0
M  V30 14415 H 1421.47 0.246285 0.789476 0
M  V30 14416 H 1424.02 1.16466 1.23426 0
M  V30 14417 H 1422.79 2.43419 3.06371 0
M  V30 14418 H 1422.41 0.91957 3.8682 0
M  V30 14419 N 1423.41 -1.329 0.847073 0
M  V30 14420 C 1424.36 -2.29044 0.284199 0
M  V30 14421 C 1425.33 -1.54706 -0.604591 0
M  V30 14422 O 1426.51 -1.82966 -0.541116 0
M  V30 14423 C 1423.65 -3.4104 -0.527822 0
M  V30 14424 C 1422.77 -4.30273 0.385907 0
M  V30 14425 C 1421.9 -5.29391 -0.438009 0
M  V30 14426 C 1420.94 -6.10265 0.473596 0
M  V30 14427 N 1420.08 -7.01403 -0.312684 0
M  V30 14428 H 1424.92 -2.76582 1.10935 0
M  V30 14429 H 1422.45 -1.36085 0.558508 0
M  V30 14430 H 1424.41 -4.04686 -1.01417 0
M  V30 14431 H 1423.04 -2.94673 -1.31787 0
M  V30 14432 H 1422.09 -3.67275 0.99061 0
M  V30 14433 H 1423.41 -4.86837 1.08585 0
M  V30 14434 H 1422.56 -5.98604 -0.987842 0
M  V30 14435 H 1421.3 -4.73424 -1.17135 0
M  V30 14436 H 1420.3 -5.39963 1.03537 0
M  V30 14437 H 1421.53 -6.68316 1.20543 0
M  V30 14438 H 1419.47 -6.47875 -1.02926 0
M  V30 14439 H 1419.39 -7.55286 0.328376 0
M  V30 14440 H 1420.66 -7.74912 -0.844489 0
M  V30 14441 N 1424.89 -0.604284 -1.45555 0
M  V30 14442 C 1425.82 0.154579 -2.28678 0
M  V30 14443 C 1426.83 0.83491 -1.39761 0
M  V30 14444 O 1428.02 0.700852 -1.64166 0
M  V30 14445 C 1425.12 1.2397 -3.15412 0
M  V30 14446 C 1424.3 0.647128 -4.32586 0
M  V30 14447 C 1423.35 1.62272 -5.00554 0
M  V30 14448 O 1422.38 1.15031 -5.57455 0
M  V30 14449 N 1423.58 2.9571 -4.99536 0
M  V30 14450 H 1426.35 -0.558668 -2.94447 0
M  V30 14451 H 1423.91 -0.443538 -1.55706 0
M  V30 14452 H 1425.9 1.89209 -3.57746 0
M  V30 14453 H 1424.47 1.85552 -2.51574 0
M  V30 14454 H 1423.69 -0.183261 -3.93774 0
M  V30 14455 H 1424.98 0.231394 -5.08274 0
M  V30 14456 H 1424.38 3.36695 -4.54591 0
M  V30 14457 H 1422.93 3.56381 -5.45744 0
M  V30 14458 N 1426.37 1.53816 -0.343257 0
M  V30 14459 C 1427.78 1.59598 0.00867849 0
M  V30 14460 C 1427.98 1.35922 1.48753 0
M  V30 14461 O 1427.04 1.15334 2.2462 0
M  V30 14462 C 1428.35 2.97649 -0.427234 0
M  V30 14463 C 1429.9 3.1069 -0.379554 0
M  V30 14464 C 1430.37 4.51119 -0.79093 0
M  V30 14465 N 1431.87 4.57168 -0.745105 0
M  V30 14466 C 1432.6 5.63975 -1.03537 0
M  V30 14467 N 1432.1 6.78635 -1.39377 0
M  V30 14468 N 1433.89 5.53848 -0.959628 0
M  V30 14469 H 1426.04 1.6746 -1.30656 0
M  V30 14470 H 1428.3 0.784254 -0.532588 0
M  V30 14471 H 1428.01 3.2004 -1.45834 0
M  V30 14472 H 1427.88 3.76682 0.197704 0
M  V30 14473 H 1430.27 2.88024 0.642376 0
M  V30 14474 H 1430.35 2.33718 -1.03969 0
M  V30 14475 H 1430 4.74521 -1.81087 0
M  V30 14476 H 1429.93 5.26489 -0.108274 0
M  V30 14477 H 1432.42 3.7483 -0.480752 0
M  V30 14478 H 1432.73 7.56053 -1.60011 0
M  V30 14479 H 1431.07 6.80083 -1.43222 0
M  V30 14480 H 1434.27 4.6315 -0.678974 0
M  V30 14481 H 1434.44 6.36995 -1.18919 0
M  V30 14482 N 1427.84 0.0718701 1.57436 0
M  V30 14483 C 1428.77 -0.89288 2.15754 0
M  V30 14484 C 1429.76 -1.31036 1.0846 0
M  V30 14485 O 1430.94 -1.38139 1.36496 0
M  V30 14486 C 1428.07 -2.16044 2.71923 0
M  V30 14487 C 1427.02 -1.88236 3.84384 0
M  V30 14488 C 1426.35 -3.21624 4.27156 0
M  V30 14489 C 1427.65 -1.18758 5.0862 0
M  V30 14490 H 1429.34 -0.407061 2.9662 0
M  V30 14491 H 1426.89 -0.194354 1.42682 0
M  V30 14492 H 1428.84 -2.83952 3.11366 0
M  V30 14493 H 1427.57 -2.66868 1.88279 0
M  V30 14494 H 1426.23 -1.22734 3.45445 0
M  V30 14495 H 1425.87 -3.70289 3.40433 0
M  V30 14496 H 1425.57 -3.03809 5.02965 0
M  V30 14497 H 1427.1 -3.90729 4.69215 0
M  V30 14498 H 1428.51 -1.76735 5.45378 0
M  V30 14499 H 1426.91 -1.11201 5.89707 0
M  V30 14500 H 1427.98 -0.166682 4.84613 0
M  V30 14501 N 1429.32 -1.56304 -0.201686 0
M  V30 14502 C 1430.25 -1.97046 -1.25281 0
M  V30 14503 C 1431.23 -0.841458 -1.47829 0
M  V30 14504 O 1432.42 -1.10529 -1.59678 0
M  V30 14505 C 1429.55 -2.30429 -2.59845 0
M  V30 14506 C 1428.5 -3.46006 -2.5192 0
M  V30 14507 C 1427.83 -3.65047 -3.90697 0
M  V30 14508 C 1429.13 -4.80391 -2.04992 0
M  V30 14509 H 1430.82 -2.85099 -0.914272 0
M  V30 14510 H 1428.37 -1.37166 -0.438359 0
M  V30 14511 H 1430.32 -2.57525 -3.33555 0
M  V30 14512 H 1429.05 -1.39251 -2.95426 0
M  V30 14513 H 1427.7 -3.18991 -1.80667 0
M  V30 14514 H 1427.35 -2.71211 -4.2362 0
M  V30 14515 H 1427.05 -4.42796 -3.86271 0
M  V30 14516 H 1428.58 -3.94512 -4.66039 0
M  V30 14517 H 1429.99 -5.06561 -2.68456 0
M  V30 14518 H 1428.39 -5.61563 -2.11582 0
M  V30 14519 H 1429.46 -4.74416 -1.00288 0
M  V30 14520 N 1430.8 0.469154 -1.50455 0
M  V30 14521 C 1432.08 1.23033 -1.5206 0
M  V30 14522 C 1432.46 2.09412 -0.266388 0
M  V30 14523 O 1431.81 2.15837 0.750099 0
M  V30 14524 C 1432.02 2.05969 -2.81741 0
M  V30 14525 C 1433.36 2.64093 -3.32476 0
M  V30 14526 O 1434.39 2.1621 -2.83075 0
M  V30 14527 O 1433.25 3.51341 -4.18595 0
M  V30 14528 H 1430.34 0.55841 -0.610006 0
M  V30 14529 H 1432.89 0.480818 -1.62746 0
M  V30 14530 H 1431.66 1.42327 -3.64498 0
M  V30 14531 H 1431.28 2.8805 -2.74067 0
M  V30 14532 N 1432.28 1.40065 0.722464 0
M  V30 14533 C 1433.69 1.21944 1.02965 0
M  V30 14534 C 1433.89 0.0898069 2.013 0
M  V30 14535 O 1432.95 -0.554519 2.46336 0
M  V30 14536 C 1434.26 2.55848 1.57995 0
M  V30 14537 C 1435.81 2.62801 1.70013 0
M  V30 14538 C 1436.29 3.96957 2.2845 0
M  V30 14539 N 1437.78 3.98662 2.35844 0
M  V30 14540 C 1438.51 4.99248 2.82026 0
M  V30 14541 N 1438.01 6.1023 3.28012 0
M  V30 14542 N 1439.8 4.8662 2.81349 0
M  V30 14543 H 1431.95 2.12283 0.0705301 0
M  V30 14544 H 1434.22 0.943338 0.0938991 0
M  V30 14545 H 1433.92 3.39125 0.932034 0
M  V30 14546 H 1433.8 2.76452 2.5662 0
M  V30 14547 H 1436.18 1.799 2.33923 0
M  V30 14548 H 1436.26 2.46034 0.700062 0
M  V30 14549 H 1435.91 4.80295 1.65164 0
M  V30 14550 H 1435.84 4.1105 3.29158 0
M  V30 14551 H 1438.33 3.18518 2.03358 0
M  V30 14552 H 1438.64 6.82878 3.61797 0
M  V30 14553 H 1436.99 6.13805 3.25988 0
M  V30 14554 H 1440.18 3.99015 2.44755 0
M  V30 14555 H 1440.35 5.65155 3.17024 0
M  V30 14556 N 1433.76 -0.95397 1.25448 0
M  V30 14557 C 1435.01 -1.69305 1.09631 0
M  V30 14558 C 1435.32 -1.92213 -0.362413 0
M  V30 14559 O 1436.53 -2.63824 -0.641036 0
M  V30 14560 C 1434.98 -3.04805 1.91369 0
M  V30 14561 C 1434.59 -2.8969 3.41737 0
M  V30 14562 C 1436.33 -3.82491 1.84123 0
M  V30 14563 C 1434.24 -4.20584 4.15768 0
M  V30 14564 H 1433.17 -0.63494 0.406654 0
M  V30 14565 H 1435.82 -1.06195 1.49649 0
M  V30 14566 H 1434.2 -3.68822 1.44174 0
M  V30 14567 H 1435.38 -2.346 3.9661 0
M  V30 14568 H 1433.69 -2.25458 3.50082 0
M  V30 14569 H 1436.29 -4.79442 2.36727 0
M  V30 14570 H 1436.63 -4.08358 0.809265 0
M  V30 14571 H 1437.17 -3.25224 2.29072 0
M  V30 14572 H 1433.9 -3.99905 5.19381 0
M  V30 14573 H 1433.42 -4.75436 3.65678 0
M  V30 14574 H 1435.1 -4.89122 4.2352 0
M  V30 14575 N 1435.24 -1.07045 -1.15668 0
M  V30 14576 C 1436.19 -0.65786 -2.18303 0
M  V30 14577 C 1437.17 0.315405 -1.57778 0
M  V30 14578 O 1438.36 0.129631 -1.76525 0
M  V30 14579 C 1435.49 -0.0538843 -3.43258 0
M  V30 14580 C 1434.58 -1.0521 -4.10843 0
M  V30 14581 N 1434.97 -2.23051 -4.53963 0
M  V30 14582 C 1433.27 -0.884739 -4.37137 0
M  V30 14583 C 1433.97 -2.86354 -5.06336 0
M  V30 14584 N 1432.94 -2.14037 -4.99689 0
M  V30 14585 H 1436.74 -1.55542 -2.49367 0
M  V30 14586 H 1434.26 -0.9432 -1.32202 0
M  V30 14587 H 1436.26 0.259575 -4.16091 0
M  V30 14588 H 1434.92 0.83883 -3.13678 0
M  V30 14589 H 1435.93 -2.60786 -4.4745 0
M  V30 14590 H 1432.6 -0.0446575 -4.17476 0
M  V30 14591 H 1433.99 -3.86393 -5.49682 0
M  V30 14592 N 1436.71 1.32449 -0.85411 0
M  V30 14593 C 1437.94 2.01997 -0.470307 0
M  V30 14594 C 1438.36 1.63772 0.925225 0
M  V30 14595 O 1437.72 0.838089 1.60766 0
M  V30 14596 C 1437.77 3.55294 -0.616301 0
M  V30 14597 O 1436.87 4.10902 0.351133 0
M  V30 14598 H 1436.21 0.63651 -0.189079 0
M  V30 14599 H 1438.74 1.69008 -1.15315 0
M  V30 14600 H 1438.75 4.0488 -0.503624 0
M  V30 14601 H 1437.43 3.82459 -1.63396 0
M  V30 14602 H 1436.01 3.72391 0.194741 0
M  V30 14603 N 1438.19 0.611994 1.45232 0
M  V30 14604 C 1439.44 0.106467 2.01419 0
M  V30 14605 C 1439.75 -1.2723 1.48566 0
M  V30 14606 O 1440.96 -1.8708 1.96757 0
M  V30 14607 C 1439.42 0.139639 3.59629 0
M  V30 14608 C 1439.02 1.51853 4.21479 0
M  V30 14609 C 1440.77 -0.310417 4.23364 0
M  V30 14610 C 1438.67 1.50785 5.71855 0
M  V30 14611 H 1437.6 0.0360345 0.753138 0
M  V30 14612 H 1440.26 0.767974 1.66657 0
M  V30 14613 H 1438.64 -0.588606 3.91601 0
M  V30 14614 H 1439.81 2.26884 4.01074 0
M  V30 14615 H 1438.13 1.91105 3.69956 0
M  V30 14616 H 1440.72 -0.337656 5.33633 0
M  V30 14617 H 1441.07 -1.33398 3.94348 0
M  V30 14618 H 1441.6 0.364704 3.96125 0
M  V30 14619 H 1438.34 2.50916 6.05575 0
M  V30 14620 H 1437.86 0.800195 5.94438 0
M  V30 14621 H 1439.54 1.23341 6.35135 0
M  V30 14622 N 1439.67 -1.53632 0.351409 0
M  V30 14623 C 1440.9 -2.05458 -0.243852 0
M  V30 14624 C 1441.31 -1.22588 -1.43589 0
M  V30 14625 O 1440.67 -0.263088 -1.80594 0
M  V30 14626 C 1440.72 -3.55586 -0.651226 0
M  V30 14627 O 1440.44 -4.35313 0.493415 0
M  V30 14628 C 1441.94 -4.23614 -1.30637 0
M  V30 14629 H 1439.16 -0.669443 -0.0456828 0
M  V30 14630 H 1441.71 -1.98149 0.505675 0
M  V30 14631 H 1439.86 -3.63091 -1.35068 0
M  V30 14632 H 1440.28 -5.24234 0.167107 0
M  V30 14633 H 1441.75 -5.30022 -1.5421 0
M  V30 14634 H 1442.23 -3.76449 -2.26236 0
M  V30 14635 H 1442.83 -4.20323 -0.648738 0
M  V30 14636 N 1441.15 -0.0802183 -1.57396 0
M  V30 14637 C 1442.11 0.869437 -2.12069 0
M  V30 14638 C 1443.11 1.22079 -1.04658 0
M  V30 14639 O 1444.3 1.15267 -1.3061 0
M  V30 14640 C 1441.43 2.17016 -2.62901 0
M  V30 14641 H 1442.63 0.394952 -2.97288 0
M  V30 14642 H 1440.18 0.168597 -1.55388 0
M  V30 14643 H 1440.91 2.68983 -1.8116 0
M  V30 14644 H 1440.7 1.92808 -3.4142 0
M  V30 14645 H 1442.19 2.84982 -3.05246 0
M  V30 14646 N 1442.63 1.56409 0.193394 0
M  V30 14647 C 1443.54 1.97886 1.26009 0
M  V30 14648 C 1444.55 0.886786 1.49707 0
M  V30 14649 O 1445.73 1.19267 1.62288 0
M  V30 14650 C 1442.79 2.31145 2.58404 0
M  V30 14651 C 1441.85 3.54069 2.42763 0
M  V30 14652 C 1441.09 3.85732 3.68845 0
M  V30 14653 O 1441.31 3.18662 4.73086 0
M  V30 14654 O 1440.24 4.79155 3.64272 0
M  V30 14655 H 1444.07 2.88849 0.938087 0
M  V30 14656 H 1441.65 1.43987 0.398528 0
M  V30 14657 H 1443.54 2.53606 3.36544 0
M  V30 14658 H 1442.21 1.4335 2.90228 0
M  V30 14659 H 1441.12 3.36854 1.62728 0
M  V30 14660 H 1442.45 4.42335 2.15871 0
M  V30 14661 N 1444.1 -0.461169 1.50702 0
M  V30 14662 C 1445.52 -0.795741 1.38348 0
M  V30 14663 C 1445.72 -1.96473 0.447263 0
M  V30 14664 O 1444.78 -2.52276 -0.106445 0
M  V30 14665 C 1446.09 -1.09849 2.79917 0
M  V30 14666 C 1447.64 -1.20435 2.88902 0
M  V30 14667 C 1448.11 -1.54017 4.31327 0
M  V30 14668 N 1449.6 -1.60989 4.34323 0
M  V30 14669 C 1450.34 -1.88498 5.41531 0
M  V30 14670 N 1449.83 -2.13959 6.58933 0
M  V30 14671 N 1451.63 -1.90082 5.28985 0
M  V30 14672 H 1443.78 0.309076 2.10139 0
M  V30 14673 H 1446.04 0.0757918 0.944965 0
M  V30 14674 H 1445.75 -0.312479 3.50309 0
M  V30 14675 H 1445.62 -2.03221 3.17775 0
M  V30 14676 H 1448.01 -1.98102 2.18723 0
M  V30 14677 H 1448.09 -0.250195 2.54573 0
M  V30 14678 H 1447.73 -0.768865 5.02047 0
M  V30 14679 H 1447.66 -2.50599 4.6315 0
M  V30 14680 H 1450.15 -1.43312 3.49672 0
M  V30 14681 H 1450.47 -2.34251 7.36442 0
M  V30 14682 H 1448.81 -2.11331 6.62091 0
M  V30 14683 H 1452 -1.69693 4.36259 0
M  V30 14684 H 1452.18 -2.11184 6.12622 0
M  V30 14685 N 1445.58 -1.40446 -0.715026 0
M  V30 14686 C 1446.51 -1.43511 -1.84193 0
M  V30 14687 C 1447.49 -0.295969 -1.67505 0
M  V30 14688 O 1448.68 -0.504667 -1.87528 0
M  V30 14689 C 1445.81 -1.29751 -3.22152 0
M  V30 14690 C 1444.76 -2.41274 -3.53512 0
M  V30 14691 C 1444.09 -2.12591 -4.90621 0
M  V30 14692 C 1445.39 -3.83614 -3.54454 0
M  V30 14693 H 1447.08 -2.37819 -1.81885 0
M  V30 14694 H 1444.63 -1.14469 -0.873655 0
M  V30 14695 H 1446.58 -1.30511 -4.0068 0
M  V30 14696 H 1445.3 -0.319189 -3.25037 0
M  V30 14697 H 1443.96 -2.39764 -2.77324 0
M  V30 14698 H 1443.61 -1.13148 -4.90109 0
M  V30 14699 H 1443.31 -2.87308 -5.1257 0
M  V30 14700 H 1444.84 -2.15034 -5.71483 0
M  V30 14701 H 1446.25 -3.86945 -4.23021 0
M  V30 14702 H 1444.65 -4.57855 -3.87929 0
M  V30 14703 H 1445.72 -4.13159 -2.53827 0
M  V30 14704 N 1447.06 0.947303 -1.25952 0
M  V30 14705 C 1448.31 1.68721 -1.10527 0
M  V30 14706 C 1448.62 1.92403 0.352215 0
M  V30 14707 O 1449.83 2.6416 0.627036 0
M  V30 14708 C 1448.28 3.03785 -1.92983 0
M  V30 14709 C 1447.89 2.87873 -3.43268 0
M  V30 14710 C 1449.64 3.81509 -1.86149 0
M  V30 14711 C 1447.54 4.18373 -4.17993 0
M  V30 14712 H 1446.47 0.632774 -0.410016 0
M  V30 14713 H 1449.12 1.054 -1.5021 0
M  V30 14714 H 1447.51 3.68052 -1.46128 0
M  V30 14715 H 1448.68 2.32493 -3.97848 0
M  V30 14716 H 1446.99 2.23598 -3.51273 0
M  V30 14717 H 1449.59 4.78179 -2.39267 0
M  V30 14718 H 1449.93 4.07923 -0.83091 0
M  V30 14719 H 1450.47 3.24005 -2.30794 0
M  V30 14720 H 1447.21 3.97145 -5.21494 0
M  V30 14721 H 1446.73 4.7349 -3.68194 0
M  V30 14722 H 1448.41 4.86869 -4.26108 0
M  V30 14723 N 1448.54 1.07657 1.15099 0
M  V30 14724 C 1449.79 0.801609 1.85958 0
M  V30 14725 C 1450.11 -0.672415 1.82507 0
M  V30 14726 O 1449.37 -1.50958 1.2454 0
M  V30 14727 C 1449.67 1.25903 3.3449 0
M  V30 14728 C 1449.33 2.73954 3.58134 0
M  V30 14729 C 1448 3.14392 3.64296 0
M  V30 14730 C 1450.35 3.69502 3.67584 0
M  V30 14731 C 1447.68 4.49187 3.77422 0
M  V30 14732 C 1450.03 5.04063 3.82235 0
M  V30 14733 C 1448.69 5.44117 3.86643 0
M  V30 14734 H 1447.96 0.293329 0.68047 0
M  V30 14735 H 1450.61 1.34814 1.36005 0
M  V30 14736 H 1448.91 0.631943 3.8667 0
M  V30 14737 H 1450.61 1.02314 3.87728 0
M  V30 14738 H 1447.2 2.41652 3.53981 0
M  V30 14739 H 1451.38 3.39385 3.62121 0
M  V30 14740 H 1446.64 4.79685 3.79094 0
M  V30 14741 H 1450.81 5.7797 3.88489 0
M  V30 14742 H 1448.44 6.48567 3.96567 0
M  V30 14743 N 1450.02 -1.31994 0.861122 0
M  V30 14744 C 1451.24 -2.01745 0.481013 0
M  V30 14745 C 1451.67 -1.6426 -0.916527 0
M  V30 14746 O 1451.02 -0.846603 -1.60319 0
M  V30 14747 C 1451.07 -3.54963 0.635134 0
M  V30 14748 O 1450.18 -4.11083 -0.329337 0
M  V30 14749 H 1449.52 -0.635499 0.192452 0
M  V30 14750 H 1452.05 -1.68394 1.1621 0
M  V30 14751 H 1452.06 -4.04607 0.525089 0
M  V30 14752 H 1450.73 -3.81587 1.65422 0
M  V30 14753 H 1449.31 -3.72489 -0.174989 0
M  V30 14754 N 1451.49 -0.619688 -1.44906 0
M  V30 14755 C 1452.44 0.113696 -2.27716 0
M  V30 14756 C 1453.43 0.82709 -1.38015 0
M  V30 14757 O 1454.62 0.715083 -1.61912 0
M  V30 14758 C 1451.75 1.10233 -3.25121 0
M  V30 14759 C 1450.84 0.389147 -4.22311 0
M  V30 14760 N 1451.23 -0.575929 -5.0251 0
M  V30 14761 C 1449.52 0.635112 -4.41455 0
M  V30 14762 C 1450.23 -0.996243 -5.73105 0
M  V30 14763 N 1449.2 -0.337427 -5.42552 0
M  V30 14764 H 1453 -0.627351 -2.87126 0
M  V30 14765 H 1450.52 -0.444293 -1.56204 0
M  V30 14766 H 1452.51 1.64223 -3.83192 0
M  V30 14767 H 1451.17 1.8438 -2.67272 0
M  V30 14768 H 1452.19 -0.953232 -5.09052 0
M  V30 14769 H 1448.86 1.36033 -3.94717 0
M  V30 14770 H 1450.25 -1.7929 -6.47537 0
M  V30 14771 N 1452.97 1.53444 -0.359552 0
M  V30 14772 C 1453.94 2.24173 0.477412 0
M  V30 14773 C 1454.94 1.24747 1.01464 0
M  V30 14774 O 1456.13 1.49069 0.901343 0
M  V30 14775 C 1453.26 2.9738 1.66667 0
M  V30 14776 H 1454.45 2.99566 -0.141407 0
M  V30 14777 H 1452 1.55904 -0.111143 0
M  V30 14778 H 1452.74 2.26214 2.32374 0
M  V30 14779 H 1452.52 3.70325 1.28848 0
M  V30 14780 H 1454.01 3.51165 2.25994 0
M  V30 14781 N 1454.45 0.0885642 1.57351 0
M  V30 14782 C 1455.7 -0.57753 1.94403 0
M  V30 14783 C 1456.03 -1.68238 0.970029 0
M  V30 14784 O 1455.3 -1.945 0.00198684 0
M  V30 14785 C 1455.59 -1.13882 3.41618 0
M  V30 14786 C 1455.44 -0.0394686 4.49783 0
M  V30 14787 C 1456.76 -2.03922 3.90005 0
M  V30 14788 H 1453.88 -0.208468 0.706902 0
M  V30 14789 H 1456.52 0.157945 1.89342 0
M  V30 14790 H 1454.67 -1.76561 3.46061 0
M  V30 14791 H 1456.34 0.594458 4.57454 0
M  V30 14792 H 1454.59 0.627775 4.29234 0
M  V30 14793 H 1455.26 -0.472897 5.49971 0
M  V30 14794 H 1457.73 -1.51156 3.87674 0
M  V30 14795 H 1456.61 -2.40123 4.93591 0
M  V30 14796 H 1456.87 -2.95407 3.28918 0
M  V30 14797 N 1455.93 -1.56509 -0.185096 0
M  V30 14798 C 1456.86 -1.91878 -1.25361 0
M  V30 14799 C 1457.87 -0.810443 -1.41194 0
M  V30 14800 O 1459.06 -1.08887 -1.41442 0
M  V30 14801 C 1456.16 -2.14433 -2.62434 0
M  V30 14802 C 1455.34 -3.45618 -2.6808 0
M  V30 14803 C 1454.39 -3.57165 -3.86419 0
M  V30 14804 O 1453.42 -4.29904 -3.73056 0
M  V30 14805 N 1454.62 -2.90993 -5.02298 0
M  V30 14806 H 1457.39 -2.84133 -0.953328 0
M  V30 14807 H 1454.95 -1.57498 -0.374955 0
M  V30 14808 H 1456.94 -2.19437 -3.40044 0
M  V30 14809 H 1455.51 -1.28629 -2.84909 0
M  V30 14810 H 1454.73 -3.52394 -1.76669 0
M  V30 14811 H 1456.02 -4.31968 -2.68851 0
M  V30 14812 H 1455.42 -2.31743 -5.16054 0
M  V30 14813 H 1453.97 -3.01611 -5.77819 0
M  V30 14814 N 1457.41 0.45317 -1.50944 0
M  V30 14815 C 1458.34 1.56825 -1.65775 0
M  V30 14816 C 1459.32 1.54542 -0.505515 0
M  V30 14817 O 1460.5 1.73902 -0.727336 0
M  V30 14818 C 1457.63 2.95411 -1.65681 0
M  V30 14819 C 1456.67 3.1578 -2.8668 0
M  V30 14820 S 1457.51 2.93763 -4.47731 0
M  V30 14821 C 1458.66 4.34659 -4.50358 0
M  V30 14822 H 1458.9 1.44008 -2.60094 0
M  V30 14823 H 1456.43 0.64177 -1.4043 0
M  V30 14824 H 1458.39 3.75301 -1.66311 0
M  V30 14825 H 1457.05 3.05603 -0.725659 0
M  V30 14826 H 1456.24 4.17066 -2.8297 0
M  V30 14827 H 1455.84 2.4369 -2.8371 0
M  V30 14828 H 1458.14 5.27599 -4.25024 0
M  V30 14829 H 1459.08 4.43408 -5.52082 0
M  V30 14830 H 1459.49 4.17575 -3.79857 0
M  V30 14831 N 1458.88 1.40823 0.707568 0
M  V30 14832 C 1460.13 1.39741 1.4697 0
M  V30 14833 C 1460.46 0.00231194 1.942 0
M  V30 14834 O 1459.74 -0.967798 1.68713 0
M  V30 14835 C 1460.02 2.39385 2.69011 0
M  V30 14836 C 1459.87 3.87953 2.27624 0
M  V30 14837 C 1461.19 2.3645 3.71186 0
M  V30 14838 H 1458.31 0.508904 0.533091 0
M  V30 14839 H 1460.95 1.72015 0.806888 0
M  V30 14840 H 1459.1 2.11993 3.25563 0
M  V30 14841 H 1460.78 4.26202 1.76492 0
M  V30 14842 H 1459.02 4.03399 1.59537 0
M  V30 14843 H 1459.69 4.53201 3.15139 0
M  V30 14844 H 1462.17 2.60731 3.24282 0
M  V30 14845 H 1461.04 3.08204 4.54204 0
M  V30 14846 H 1461.3 1.3789 4.20046 0
M  V30 14847 N 1460.36 -0.94061 1.26453 0
M  V30 14848 C 1461.29 -2.04322 1.03852 0
M  V30 14849 C 1462.31 -1.628 -0.00122618 0
M  V30 14850 O 1463.5 -1.76894 0.238911 0
M  V30 14851 C 1460.6 -3.34394 0.550789 0
M  V30 14852 C 1459.77 -4.0468 1.6599 0
M  V30 14853 C 1458.83 -5.13025 1.17012 0
M  V30 14854 O 1457.85 -5.37699 1.8673 0
M  V30 14855 N 1459.06 -5.80497 0.0188478 0
M  V30 14856 H 1461.82 -2.24276 1.98797 0
M  V30 14857 H 1459.38 -1.11013 1.17846 0
M  V30 14858 H 1461.37 -4.04169 0.207305 0
M  V30 14859 H 1459.94 -3.11108 -0.30509 0
M  V30 14860 H 1459.16 -3.28813 2.17429 0
M  V30 14861 H 1460.45 -4.48392 2.40463 0
M  V30 14862 H 1459.85 -5.62888 -0.563368 0
M  V30 14863 H 1458.41 -6.51259 -0.265556 0
M  V30 14864 N 1461.84 -1.08266 -1.14527 0
M  V30 14865 C 1463.07 -0.832994 -1.89937 0
M  V30 14866 C 1463.49 0.608985 -1.77969 0
M  V30 14867 O 1462.85 1.42657 -1.11887 0
M  V30 14868 C 1462.9 -1.25782 -3.37952 0
M  V30 14869 O 1462 -0.408853 -4.10368 0
M  V30 14870 H 1461.34 -0.30267 -0.591005 0
M  V30 14871 H 1463.87 -1.44371 -1.44977 0
M  V30 14872 H 1463.88 -1.23804 -3.88763 0
M  V30 14873 H 1462.56 -2.30804 -3.4598 0
M  V30 14874 H 1461.13 -0.49192 -3.69641 0
M  V30 14875 N 1463.32 1.31536 -0.86811 0
M  V30 14876 C 1464.28 2.26849 -0.327456 0
M  V30 14877 C 1465.28 1.52142 0.520514 0
M  V30 14878 O 1466.47 1.71044 0.330088 0
M  V30 14879 C 1463.6 3.36673 0.535174 0
M  V30 14880 H 1464.8 2.76184 -1.16886 0
M  V30 14881 H 1462.35 1.42437 -0.643545 0
M  V30 14882 H 1463.09 2.92627 1.39785 0
M  V30 14883 H 1462.87 3.92034 -0.0719835 0
M  V30 14884 H 1464.36 4.07658 0.905786 0
M  V30 14885 N 1464.8 0.627364 1.44575 0
M  V30 14886 C 1465.76 -0.0700881 2.29093 0
M  V30 14887 C 1466.76 -0.775969 1.40838 0
M  V30 14888 O 1467.95 -0.621129 1.6275 0
M  V30 14889 C 1465.08 -1.10977 3.2233 0
M  V30 14890 H 1466.28 0.673234 2.92246 0
M  V30 14891 H 1463.83 0.387322 1.51425 0
M  V30 14892 H 1464.56 -1.8832 2.64019 0
M  V30 14893 H 1464.35 -0.607587 3.87364 0
M  V30 14894 H 1465.84 -1.59764 3.8583 0
M  V30 14895 N 1466.28 -1.53251 0.367684 0
M  V30 14896 C 1467.21 -2.28728 -0.469676 0
M  V30 14897 C 1468.19 -1.3124 -1.08213 0
M  V30 14898 O 1469.37 -1.60112 -1.09898 0
M  V30 14899 C 1466.5 -3.07808 -1.60846 0
M  V30 14900 C 1465.46 -4.13 -1.12315 0
M  V30 14901 C 1464.78 -4.80176 -2.35234 0
M  V30 14902 C 1466.08 -5.21892 -0.2064 0
M  V30 14903 H 1467.78 -2.98972 0.160019 0
M  V30 14904 H 1465.32 -1.43786 0.0784011 0
M  V30 14905 H 1467.27 -3.59358 -2.20091 0
M  V30 14906 H 1466 -2.35258 -2.26542 0
M  V30 14907 H 1464.66 -3.62399 -0.553378 0
M  V30 14908 H 1464.31 -4.04196 -2.99391 0
M  V30 14909 H 1464.01 -5.51261 -2.03433 0
M  V30 14910 H 1465.53 -5.34521 -2.9516 0
M  V30 14911 H 1466.94 -5.68932 -0.706386 0
M  V30 14912 H 1465.34 -6.00096 0.0208362 0
M  V30 14913 H 1466.41 -4.79051 0.750851 0
M  V30 14914 N 1467.75 -0.0969077 -1.57302 0
M  V30 14915 C 1469.03 0.608737 -1.85886 0
M  V30 14916 C 1469.41 1.86228 -0.994096 0
M  V30 14917 O 1468.76 2.28402 -0.0669975 0
M  V30 14918 C 1468.97 0.922385 -3.3659 0
M  V30 14919 C 1470.32 1.28505 -4.04687 0
M  V30 14920 O 1471.34 1.01334 -3.41482 0
M  V30 14921 O 1470.2 1.794 -5.16215 0
M  V30 14922 H 1467.29 0.304808 -0.768779 0
M  V30 14923 H 1469.84 -0.129742 -1.69203 0
M  V30 14924 H 1468.61 0.0331488 -3.91286 0
M  V30 14925 H 1468.23 1.71678 -3.58626 0
M  V30 14926 N 1469.23 1.56605 0.176793 0
M  V30 14927 C 1470.14 1.99211 1.23903 0
M  V30 14928 C 1471.16 0.902614 1.48758 0
M  V30 14929 O 1472.33 1.20982 1.61014 0
M  V30 14930 C 1469.4 2.33873 2.55938 0
M  V30 14931 C 1468.46 3.56624 2.38994 0
M  V30 14932 C 1467.69 3.89623 3.64733 0
M  V30 14933 O 1467.92 3.23662 4.6968 0
M  V30 14934 O 1466.85 4.82992 3.5917 0
M  V30 14935 H 1470.68 2.89827 0.907398 0
M  V30 14936 H 1468.26 1.44401 0.383234 0
M  V30 14937 H 1470.14 2.57161 3.33836 0
M  V30 14938 H 1468.82 1.46421 2.88691 0
M  V30 14939 H 1467.72 3.38561 1.59146 0
M  V30 14940 H 1469.06 4.446 2.11167 0
M  V30 14941 N 1470.71 -0.445159 1.51182 0
M  V30 14942 C 1471.64 -1.55943 1.66604 0
M  V30 14943 C 1472.62 -1.54272 0.513703 0
M  V30 14944 O 1473.8 -1.73514 0.736548 0
M  V30 14945 C 1470.93 -2.94528 1.67245 0
M  V30 14946 C 1469.98 -3.14255 2.88351 0
M  V30 14947 S 1470.81 -2.91385 4.49283 0
M  V30 14948 C 1471.97 -4.32265 4.52656 0
M  V30 14949 H 1472.2 -1.42627 2.60854 0
M  V30 14950 H 1469.73 -0.634314 1.40769 0
M  V30 14951 H 1471.69 -3.74414 1.68299 0
M  V30 14952 H 1470.35 -3.05214 0.741856 0
M  V30 14953 H 1469.54 -4.1556 2.85177 0
M  V30 14954 H 1469.15 -2.42182 2.84998 0
M  V30 14955 H 1471.44 -5.25338 4.27816 0
M  V30 14956 H 1472.38 -4.40474 5.54426 0
M  V30 14957 H 1472.79 -4.15555 3.82066 0
M  V30 14958 N 1472.19 -1.41197 -0.700089 0
M  V30 14959 C 1473.43 -1.40311 -1.46011 0
M  V30 14960 C 1473.76 -0.0106853 -1.94497 0
M  V30 14961 O 1473.02 0.976648 -1.69588 0
M  V30 14962 C 1473.32 -2.35259 -2.6905 0
M  V30 14963 C 1472.98 -3.82194 -2.39245 0
M  V30 14964 C 1471.64 -4.22223 -2.30827 0
M  V30 14965 C 1474 -4.74983 -2.1457 0
M  V30 14966 C 1471.32 -5.53055 -1.95824 0
M  V30 14967 C 1473.68 -6.0613 -1.81077 0
M  V30 14968 C 1472.34 -6.45185 -1.71151 0
M  V30 14969 H 1471.61 -0.513434 -0.534291 0
M  V30 14970 H 1474.26 -1.73963 -0.800574 0
M  V30 14971 H 1472.56 -1.94845 -3.39915 0
M  V30 14972 H 1474.26 -2.31849 -3.2718 0
M  V30 14973 H 1470.85 -3.50488 -2.4669 0
M  V30 14974 H 1475.03 -4.44864 -2.20021 0
M  V30 14975 H 1470.29 -5.822 -1.86689 0
M  V30 14976 H 1474.46 -6.77533 -1.61002 0
M  V30 14977 H 1472.09 -7.46476 -1.43796 0
M  V30 14978 N 1473.67 0.933891 -1.2695 0
M  V30 14979 C 1474.6 2.03768 -1.04934 0
M  V30 14980 C 1475.61 1.62798 -0.00740752 0
M  V30 14981 O 1476.8 1.76765 -0.248289 0
M  V30 14982 C 1473.9 3.34097 -0.568515 0
M  V30 14983 C 1473.07 4.03794 -1.68133 0
M  V30 14984 C 1472.13 5.12397 -1.19731 0
M  V30 14985 O 1471.16 5.36701 -1.89579 0
M  V30 14986 N 1472.36 5.80479 -0.0496327 0
M  V30 14987 H 1475.12 2.23219 -1.99984 0
M  V30 14988 H 1472.69 1.10386 -1.18433 0
M  V30 14989 H 1474.68 4.04053 -0.228736 0
M  V30 14990 H 1473.25 3.11265 0.288587 0
M  V30 14991 H 1472.47 3.27655 -2.1917 0
M  V30 14992 H 1473.76 4.4711 -2.42837 0
M  V30 14993 H 1473.15 5.63179 0.533509 0
M  V30 14994 H 1471.71 6.5139 0.231014 0
M  V30 14995 N 1475.14 1.08871 1.13951 0
M  V30 14996 C 1476.09 0.692507 2.17229 0
M  V30 14997 C 1477.08 -0.290264 1.5826 0
M  V30 14998 O 1478.27 -0.101531 1.76709 0
M  V30 14999 C 1475.4 0.108487 3.43129 0
M  V30 15000 C 1474.48 1.11733 4.09117 0
M  V30 15001 N 1474.88 2.30244 4.50357 0
M  V30 15002 C 1473.17 0.954172 4.35674 0
M  V30 15003 C 1473.87 2.94373 5.01716 0
M  V30 15004 N 1472.85 2.2196 4.96221 0
M  V30 15005 H 1476.65 1.59489 2.46861 0
M  V30 15006 H 1474.17 0.964113 1.30685 0
M  V30 15007 H 1476.16 -0.193345 4.16451 0
M  V30 15008 H 1474.82 -0.78882 3.14973 0
M  V30 15009 H 1475.83 2.67871 4.43244 0
M  V30 15010 H 1472.51 0.111069 4.17352 0
M  V30 15011 H 1473.9 3.95089 5.43465 0
M  V30 15012 N 1476.62 -1.31073 0.875073 0
M  V30 15013 C 1478.04 -1.49162 0.567697 0
M  V30 15014 C 1478.24 -1.80435 -0.896969 0
M  V30 15015 O 1477.29 -1.88604 -1.67883 0
M  V30 15016 C 1478.61 -2.6219 1.47231 0
M  V30 15017 C 1480.15 -2.76072 1.47489 0
M  V30 15018 C 1480.63 -3.92202 2.36519 0
M  V30 15019 N 1482.12 -3.99497 2.34428 0
M  V30 15020 C 1482.86 -4.88639 3.00033 0
M  V30 15021 N 1482.35 -5.82647 3.74826 0
M  V30 15022 N 1484.14 -4.81926 2.89315 0
M  V30 15023 H 1476.3 -1.09045 1.82272 0
M  V30 15024 H 1478.56 -0.539291 0.77966 0
M  V30 15025 H 1478.26 -2.45872 2.51475 0
M  V30 15026 H 1478.14 -3.58446 1.17459 0
M  V30 15027 H 1480.53 -2.91801 0.440008 0
M  V30 15028 H 1480.61 -1.80468 1.81287 0
M  V30 15029 H 1480.25 -3.77231 3.40087 0
M  V30 15030 H 1480.18 -4.87125 2.00043 0
M  V30 15031 H 1482.67 -3.32241 1.80067 0
M  V30 15032 H 1482.98 -6.47406 4.22001 0
M  V30 15033 H 1481.33 -5.82609 3.78934 0
M  V30 15034 H 1484.52 -4.07462 2.30418 0
M  V30 15035 H 1484.69 -5.51192 3.40722 0
M  V30 15036 N 1478.1 -0.635022 -1.4424 0
M  V30 15037 C 1479.01 0.0686832 -2.34499 0
M  V30 15038 C 1480.03 0.831574 -1.52843 0
M  V30 15039 O 1481.2 0.782954 -1.85558 0
M  V30 15040 C 1478.27 1.03543 -3.30877 0
M  V30 15041 C 1477.33 0.271484 -4.28441 0
M  V30 15042 C 1476.56 1.19218 -5.20214 0
M  V30 15043 O 1476.78 2.43101 -5.16002 0
M  V30 15044 O 1475.72 0.6744 -5.9811 0
M  V30 15045 H 1479.54 -0.673781 -2.96132 0
M  V30 15046 H 1477.13 -0.395211 -1.44078 0
M  V30 15047 H 1479.01 1.59151 -3.90191 0
M  V30 15048 H 1477.69 1.75844 -2.71773 0
M  V30 15049 H 1476.59 -0.327736 -3.72662 0
M  V30 15050 H 1477.93 -0.411584 -4.90476 0
M  V30 15051 N 1479.58 1.53054 -0.375806 0
M  V30 15052 C 1480.83 2.01003 0.210257 0
M  V30 15053 C 1481.15 1.26451 1.48442 0
M  V30 15054 O 1480.42 0.380687 1.92166 0
M  V30 15055 H 1479 0.74263 0.0806861 0
M  V30 15056 H 1481.66 1.8826 -0.504393 0
M  V30 15057 H 1480.76 3.09123 0.430027 0
M  V30 15058 N 1481.06 0.105248 1.57248 0
M  V30 15059 C 1482.3 -0.559306 1.96599 0
M  V30 15060 C 1482.66 -1.64717 0.986529 0
M  V30 15061 O 1483.86 -2.36965 1.2689 0
M  V30 15062 C 1482.13 -1.09085 3.40346 0
M  V30 15063 S 1483.69 -1.76586 4.017 0
M  V30 15064 H 1480.51 -0.182213 0.687255 0
M  V30 15065 H 1483.11 0.187064 1.94603 0
M  V30 15066 H 1481.82 -0.287734 4.0939 0
M  V30 15067 H 1481.35 -1.87282 3.45961 0
M  V30 15068 H 1483.36 -3.05078 3.91334 0
M  V30 15069 N 1482.53 -1.56697 -0.168486 0
M  V30 15070 C 1483.78 -1.82424 -0.885965 0
M  V30 15071 C 1484.11 -0.683543 -1.81773 0
M  V30 15072 O 1483.39 0.314319 -1.91943 0
M  V30 15073 C 1483.67 -3.18553 -1.67917 0
M  V30 15074 C 1483.52 -4.43154 -0.770343 0
M  V30 15075 C 1484.84 -3.51654 -2.64627 0
M  V30 15076 H 1481.96 -0.663594 -0.320644 0
M  V30 15077 H 1484.6 -1.89391 -0.15205 0
M  V30 15078 H 1482.75 -3.12745 -2.30484 0
M  V30 15079 H 1484.43 -4.61032 -0.157328 0
M  V30 15080 H 1482.67 -4.33729 -0.0785653 0
M  V30 15081 H 1483.34 -5.34961 -1.36092 0
M  V30 15082 H 1485.82 -3.57934 -2.12185 0
M  V30 15083 H 1484.69 -4.47975 -3.17191 0
M  V30 15084 H 1484.95 -2.76503 -3.44961 0
M  V30 15085 N 1484.01 0.437135 -1.51416 0
M  V30 15086 C 1485.42 1.01699 -1.5657 0
M  V30 15087 C 1485.77 1.92299 -0.389291 0
M  V30 15088 O 1484.9 2.10689 0.49389 0
M  V30 15089 C 1485.49 1.85119 -2.83754 0
M  V30 15090 C 1484.05 2.38154 -2.91478 0
M  V30 15091 C 1483.2 1.17374 -2.51234 0
M  V30 15092 H 1486.15 0.218399 -1.5719 0
M  V30 15093 H 1486.17 2.70572 -2.67528 0
M  V30 15094 H 1485.68 1.19153 -3.69357 0
M  V30 15095 H 1483.79 3.07575 -2.10306 0
M  V30 15096 H 1483.9 2.70937 -3.95133 0
M  V30 15097 H 1482.26 1.51913 -2.04437 0
M  V30 15098 H 1483.05 0.530176 -3.39181 0
M  V30 15099 N 1485.49 1.41566 0.692592 0
M  V30 15100 C 1486.91 1.24101 1.00355 0
M  V30 15101 C 1487.11 0.132485 2.01064 0
M  V30 15102 O 1486.16 -0.502142 2.47457 0
M  V30 15103 C 1487.48 2.59142 1.52532 0
M  V30 15104 C 1489.02 2.66348 1.64401 0
M  V30 15105 C 1489.5 4.01713 2.19978 0
M  V30 15106 N 1490.99 4.03575 2.27335 0
M  V30 15107 C 1491.72 5.05118 2.71373 0
M  V30 15108 N 1491.22 6.1705 3.14994 0
M  V30 15109 N 1493.01 4.92479 2.70963 0
M  V30 15110 H 1485.16 2.12385 0.0254859 0
M  V30 15111 H 1487.43 0.945118 0.0738684 0
M  V30 15112 H 1487.13 3.41026 0.85989 0
M  V30 15113 H 1487.01 2.81833 2.50699 0
M  V30 15114 H 1489.39 1.84821 2.30055 0
M  V30 15115 H 1489.48 2.47464 0.647717 0
M  V30 15116 H 1489.12 4.8369 1.54939 0
M  V30 15117 H 1489.05 4.1794 3.20365 0
M  V30 15118 H 1491.54 3.2276 1.96556 0
M  V30 15119 H 1491.85 6.90399 3.47231 0
M  V30 15120 H 1490.2 6.20582 3.12895 0
M  V30 15121 H 1493.39 4.04117 2.36236 0
M  V30 15122 H 1493.56 5.71752 3.04965 0
M  V30 15123 N 1486.97 -0.927146 1.27443 0
M  V30 15124 C 1488.2 -1.70648 1.1646 0
M  V30 15125 C 1488.61 -1.871 -0.28114 0
M  V30 15126 O 1487.95 -1.38813 -1.20319 0
M  V30 15127 C 1488.01 -3.12542 1.77646 0
M  V30 15128 C 1487.68 -3.19425 3.26828 0
M  V30 15129 C 1488.67 -3.01633 4.23454 0
M  V30 15130 C 1486.36 -3.42366 3.67547 0
M  V30 15131 C 1488.35 -3.06672 5.58776 0
M  V30 15132 C 1486.04 -3.47039 5.02998 0
M  V30 15133 C 1487.04 -3.2921 5.98423 0
M  V30 15134 O 1486.72 -3.33619 7.31405 0
M  V30 15135 H 1486.46 -0.540657 0.40579 0
M  V30 15136 H 1489.01 -1.16983 1.68832 0
M  V30 15137 H 1487.24 -3.67691 1.19752 0
M  V30 15138 H 1488.93 -3.72445 1.61369 0
M  V30 15139 H 1489.7 -2.8375 3.93333 0
M  V30 15140 H 1485.57 -3.55294 2.93747 0
M  V30 15141 H 1489.12 -2.92674 6.33236 0
M  V30 15142 H 1485.02 -3.64446 5.32775 0
M  V30 15143 H 1485.78 -3.5007 7.3986 0
M  V30 15144 N 1488.45 -1.09474 -1.13372 0
M  V30 15145 C 1489.4 -0.704018 -2.16858 0
M  V30 15146 C 1490.38 0.281867 -1.58412 0
M  V30 15147 O 1491.57 0.0921582 -1.7676 0
M  V30 15148 C 1488.7 -0.126682 -3.43066 0
M  V30 15149 C 1487.79 -1.13901 -4.08518 0
M  V30 15150 N 1488.18 -2.3263 -4.49129 0
M  V30 15151 C 1486.48 -0.977263 -4.35162 0
M  V30 15152 C 1487.18 -2.9703 -5.00148 0
M  V30 15153 N 1486.15 -2.24588 -4.95037 0
M  V30 15154 H 1489.96 -1.60796 -2.46012 0
M  V30 15155 H 1487.47 -0.97103 -1.30172 0
M  V30 15156 H 1489.47 0.171257 -4.16548 0
M  V30 15157 H 1488.13 0.772105 -3.15386 0
M  V30 15158 H 1489.14 -2.70218 -4.41817 0
M  V30 15159 H 1485.81 -0.1332 -4.17287 0
M  V30 15160 H 1487.2 -3.97966 -5.41362 0
M  V30 15161 N 1489.92 1.30607 -0.882012 0
M  V30 15162 C 1490.87 2.2821 -0.344826 0
M  V30 15163 C 1491.84 1.56254 0.563361 0
M  V30 15164 O 1493.03 1.84336 0.492416 0
M  V30 15165 C 1490.17 3.42319 0.437216 0
M  V30 15166 C 1489.28 4.29098 -0.499851 0
M  V30 15167 C 1488.41 5.30366 0.297497 0
M  V30 15168 C 1487.45 6.08795 -0.63523 0
M  V30 15169 N 1486.59 7.01986 0.12661 0
M  V30 15170 H 1491.43 2.73543 -1.18229 0
M  V30 15171 H 1488.97 1.34556 -0.594392 0
M  V30 15172 H 1490.93 4.07232 0.906521 0
M  V30 15173 H 1489.56 2.98063 1.23928 0
M  V30 15174 H 1488.61 3.6452 -1.08764 0
M  V30 15175 H 1489.92 4.83787 -1.21454 0
M  V30 15176 H 1489.07 6.01013 0.828786 0
M  V30 15177 H 1487.81 4.76364 1.04542 0
M  V30 15178 H 1486.82 5.37028 -1.17817 0
M  V30 15179 H 1488.04 6.64885 -1.3822 0
M  V30 15180 H 1485.99 6.50376 0.857125 0
M  V30 15181 H 1485.91 7.5415 -0.528512 0
M  V30 15182 H 1487.17 7.76879 0.638738 0
M  V30 15183 N 1491.4 0.642663 1.43901 0
M  V30 15184 C 1492.37 -0.0457858 2.29154 0
M  V30 15185 C 1493.37 -0.760988 1.41653 0
M  V30 15186 O 1494.56 -0.603832 1.634 0
M  V30 15187 C 1491.69 -1.07552 3.23489 0
M  V30 15188 H 1492.88 0.704193 2.91515 0
M  V30 15189 H 1490.43 0.403361 1.51006 0
M  V30 15190 H 1491.17 -1.85509 2.66002 0
M  V30 15191 H 1490.95 -0.566468 3.87987 0
M  V30 15192 H 1492.44 -1.55663 3.87503 0
M  V30 15193 N 1492.88 -1.52852 0.383918 0
M  V30 15194 C 1493.81 -2.29213 -0.44539 0
M  V30 15195 C 1494.79 -1.3238 -1.06815 0
M  V30 15196 O 1495.98 -1.61269 -1.08194 0
M  V30 15197 C 1493.11 -3.09497 -1.57573 0
M  V30 15198 C 1492.06 -4.14168 -1.07928 0
M  V30 15199 C 1491.39 -4.82644 -2.30128 0
M  V30 15200 C 1492.69 -5.22082 -0.151035 0
M  V30 15201 H 1494.38 -2.98786 0.19172 0
M  V30 15202 H 1491.93 -1.43695 0.0936471 0
M  V30 15203 H 1493.88 -3.61672 -2.16267 0
M  V30 15204 H 1492.6 -2.37647 -2.24034 0
M  V30 15205 H 1491.26 -3.62966 -0.514909 0
M  V30 15206 H 1490.91 -4.07348 -2.95087 0
M  V30 15207 H 1490.61 -5.53388 -1.97574 0
M  V30 15208 H 1492.14 -5.37621 -2.89475 0
M  V30 15209 H 1493.55 -5.69649 -0.646003 0
M  V30 15210 H 1491.95 -6.00041 0.0844833 0
M  V30 15211 H 1493.02 -4.78228 0.801618 0
M  V30 15212 N 1494.36 -0.113586 -1.5719 0
M  V30 15213 C 1495.29 0.835363 -2.18046 0
M  V30 15214 C 1496.27 1.28114 -1.11897 0
M  V30 15215 O 1497.46 1.34472 -1.40111 0
M  V30 15216 C 1494.59 2.08759 -2.77556 0
M  V30 15217 C 1493.54 1.77979 -3.8924 0
M  V30 15218 C 1492.87 3.10185 -4.35533 0
M  V30 15219 C 1494.17 1.05231 -5.11589 0
M  V30 15220 H 1495.86 0.328275 -2.97595 0
M  V30 15221 H 1493.41 0.156456 -1.43148 0
M  V30 15222 H 1495.36 2.75597 -3.18785 0
M  V30 15223 H 1494.08 2.61783 -1.95288 0
M  V30 15224 H 1492.74 1.13532 -3.48577 0
M  V30 15225 H 1492.39 3.61133 -3.50131 0
M  V30 15226 H 1492.09 2.90367 -5.10843 0
M  V30 15227 H 1493.61 3.78151 -4.7941 0
M  V30 15228 H 1495.03 1.62213 -5.49872 0
M  V30 15229 H 1493.42 0.955269 -5.92448 0
M  V30 15230 H 1494.49 0.038137 -4.84885 0
M  V30 15231 N 1495.84 1.56784 0.160173 0
M  V30 15232 C 1496.77 2.00298 1.20012 0
M  V30 15233 C 1497.75 0.880356 1.45546 0
M  V30 15234 O 1498.93 1.14724 1.56691 0
M  V30 15235 C 1496.06 2.37238 2.53645 0
M  V30 15236 C 1495.02 3.52563 2.42658 0
M  V30 15237 C 1494.34 3.75278 3.80881 0
M  V30 15238 C 1495.64 4.85657 1.92183 0
M  V30 15239 H 1497.34 2.87423 0.838362 0
M  V30 15240 H 1494.88 1.3828 0.401838 0
M  V30 15241 H 1496.84 2.66278 3.2661 0
M  V30 15242 H 1495.56 1.47035 2.9163 0
M  V30 15243 H 1494.22 3.23669 1.72146 0
M  V30 15244 H 1493.87 2.82347 4.1628 0
M  V30 15245 H 1493.57 4.52882 3.74396 0
M  V30 15246 H 1495.09 4.0673 4.55415 0
M  V30 15247 H 1496.51 5.13501 2.54931 0
M  V30 15248 H 1494.9 5.66975 1.96619 0
M  V30 15249 H 1495.97 4.76908 0.876742 0
M  V30 15250 N 1497.32 -0.429099 1.51646 0
M  V30 15251 C 1498.25 -1.52867 1.76505 0
M  V30 15252 C 1499.23 -1.58586 0.615178 0
M  V30 15253 O 1500.41 -1.74182 0.858742 0
M  V30 15254 C 1497.54 -2.90875 1.8976 0
M  V30 15255 C 1496.5 -3.00014 3.05247 0
M  V30 15256 C 1495.82 -4.40082 3.03696 0
M  V30 15257 C 1497.12 -2.73334 4.45068 0
M  V30 15258 H 1498.82 -1.32315 2.68576 0
M  V30 15259 H 1496.36 -0.635091 1.29238 0
M  V30 15260 H 1498.31 -3.67765 2.05734 0
M  V30 15261 H 1497.04 -3.12677 0.943442 0
M  V30 15262 H 1495.7 -2.25565 2.88991 0
M  V30 15263 H 1495.35 -4.58864 2.06042 0
M  V30 15264 H 1495.05 -4.47125 3.81252 0
M  V30 15265 H 1496.57 -5.18935 3.21774 0
M  V30 15266 H 1497.98 -3.39954 4.61632 0
M  V30 15267 H 1496.38 -2.91777 5.24391 0
M  V30 15268 H 1497.45 -1.68889 4.54538 0
M  V30 15269 N 1498.79 -1.41931 -0.685074 0
M  V30 15270 C 1499.7 -1.46985 -1.82846 0
M  V30 15271 C 1500.72 -0.359487 -1.70246 0
M  V30 15272 O 1501.9 -0.608824 -1.91977 0
M  V30 15273 C 1498.96 -1.36001 -3.18912 0
M  V30 15274 C 1498.02 -2.57442 -3.43543 0
M  V30 15275 C 1497.25 -2.46972 -4.73118 0
M  V30 15276 O 1497.48 -1.49999 -5.50324 0
M  V30 15277 O 1496.41 -3.36922 -4.98766 0
M  V30 15278 H 1500.24 -2.4347 -1.81538 0
M  V30 15279 H 1497.82 -1.23583 -0.839497 0
M  V30 15280 H 1499.7 -1.32198 -4.00127 0
M  V30 15281 H 1498.38 -0.426366 -3.2088 0
M  V30 15282 H 1497.29 -2.66821 -2.62217 0
M  V30 15283 H 1498.62 -3.49671 -3.46398 0
M  V30 15284 N 1500.27 0.920374 -1.27933 0
M  V30 15285 C 1501.52 1.66554 -1.14474 0
M  V30 15286 C 1501.84 1.92545 0.308444 0
M  V30 15287 O 1501.11 1.53691 1.21473 0
M  V30 15288 H 1499.69 0.617302 -0.420651 0
M  V30 15289 H 1502.35 1.10473 -1.60567 0
M  V30 15290 H 1501.45 2.63067 -1.67935 0
M  V30 15291 N 1501.75 1.10074 1.1279 0
M  V30 15292 C 1502.68 0.768146 2.20503 0
M  V30 15293 C 1503.66 -0.257199 1.68144 0
M  V30 15294 O 1504.85 -0.12379 1.93805 0
M  V30 15295 C 1501.98 0.195125 3.46751 0
M  V30 15296 C 1500.93 1.15074 4.1224 0
M  V30 15297 C 1500.26 0.439098 5.32894 0
M  V30 15298 C 1501.56 2.49584 4.58808 0
M  V30 15299 H 1503.25 1.66876 2.48581 0
M  V30 15300 H 1500.8 0.803806 1.19478 0
M  V30 15301 H 1502.75 -0.0496695 4.21371 0
M  V30 15302 H 1501.47 -0.740717 3.1809 0
M  V30 15303 H 1500.13 1.38092 3.39597 0
M  V30 15304 H 1499.78 -0.501096 5.00498 0
M  V30 15305 H 1499.48 1.07632 5.77658 0
M  V30 15306 H 1501 0.202761 6.10263 0
M  V30 15307 H 1502.42 2.30736 5.24818 0
M  V30 15308 H 1500.81 3.09157 5.14336 0
M  V30 15309 H 1501.88 3.09857 3.72984 0
M  V30 15310 N 1503.23 -1.30138 0.888926 0
M  V30 15311 C 1504.16 -2.27013 0.315904 0
M  V30 15312 C 1505.17 -1.53871 -0.531746 0
M  V30 15313 O 1506.36 -1.75022 -0.350654 0
M  V30 15314 C 1503.46 -3.34087 -0.569119 0
M  V30 15315 C 1502.63 -4.36683 0.250359 0
M  V30 15316 C 1501.69 -5.23149 -0.565783 0
M  V30 15317 O 1500.72 -5.69199 0.0129167 0
M  V30 15318 N 1501.92 -5.49416 -1.8741 0
M  V30 15319 H 1504.69 -2.76821 1.14848 0
M  V30 15320 H 1502.25 -1.43359 0.752311 0
M  V30 15321 H 1504.24 -3.88857 -1.12125 0
M  V30 15322 H 1502.81 -2.84178 -1.30237 0
M  V30 15323 H 1502.03 -3.81723 0.983931 0
M  V30 15324 H 1503.32 -5.02279 0.811964 0
M  V30 15325 H 1502.72 -5.13793 -2.36713 0
M  V30 15326 H 1501.27 -6.07045 -2.37359 0
M  V30 15327 N 1504.71 -0.650285 -1.43559 0
M  V30 15328 C 1505.66 0.0653687 -2.27906 0
M  V30 15329 C 1506.64 0.797628 -1.39738 0
M  V30 15330 O 1507.83 0.680579 -1.63393 0
M  V30 15331 C 1504.96 1.03311 -3.27386 0
M  V30 15332 C 1504.05 0.299481 -4.23041 0
M  V30 15333 N 1504.44 -0.68239 -5.01176 0
M  V30 15334 C 1502.74 0.54133 -4.42703 0
M  V30 15335 C 1503.44 -1.11758 -5.70863 0
M  V30 15336 N 1502.41 -0.452434 -5.41714 0
M  V30 15337 H 1506.21 -0.688114 -2.85731 0
M  V30 15338 H 1503.73 -0.477326 -1.55227 0
M  V30 15339 H 1505.73 1.56058 -3.86589 0
M  V30 15340 H 1504.39 1.78669 -2.71123 0
M  V30 15341 H 1505.4 -1.06099 -5.06915 0
M  V30 15342 H 1502.07 1.2763 -3.97513 0
M  V30 15343 H 1503.46 -1.92985 -6.43589 0
M  V30 15344 N 1506.18 1.52647 -0.392018 0
M  V30 15345 C 1507.12 2.22965 0.486007 0
M  V30 15346 C 1508.09 1.23138 1.06188 0
M  V30 15347 O 1509.28 1.52133 1.113 0
M  V30 15348 C 1506.41 2.94498 1.67298 0
M  V30 15349 C 1505.45 4.08616 1.22211 0
M  V30 15350 S 1506.28 5.35121 0.201397 0
M  V30 15351 C 1507.44 6.10177 1.39409 0
M  V30 15352 H 1507.67 2.97092 -0.111111 0
M  V30 15353 H 1505.21 1.53391 -0.176221 0
M  V30 15354 H 1507.16 3.3632 2.3537 0
M  V30 15355 H 1505.83 2.20045 2.24141 0
M  V30 15356 H 1505.02 4.57778 2.10844 0
M  V30 15357 H 1504.62 3.68821 0.620272 0
M  V30 15358 H 1506.91 6.36514 2.3207 0
M  V30 15359 H 1507.86 7.01788 0.943337 0
M  V30 15360 H 1508.26 5.4099 1.61213 0
M  V30 15361 N 1507.66 0.121921 1.57128 0
M  V30 15362 C 1508.59 -0.823788 2.18486 0
M  V30 15363 C 1509.57 -1.27519 1.12574 0
M  V30 15364 O 1510.76 -1.33727 1.40822 0
M  V30 15365 C 1507.89 -2.07284 2.78659 0
M  V30 15366 C 1506.84 -1.75912 3.90178 0
M  V30 15367 C 1506.17 -3.07871 4.37172 0
M  V30 15368 C 1507.47 -1.02517 5.1214 0
M  V30 15369 H 1509.16 -0.312488 2.97765 0
M  V30 15370 H 1506.71 -0.148862 1.43228 0
M  V30 15371 H 1508.66 -2.73903 3.20242 0
M  V30 15372 H 1507.39 -2.60743 1.96673 0
M  V30 15373 H 1506.04 -1.11681 3.49174 0
M  V30 15374 H 1505.69 -3.59271 3.52041 0
M  V30 15375 H 1505.39 -2.87653 5.12376 0
M  V30 15376 H 1506.92 -3.75604 4.81409 0
M  V30 15377 H 1508.33 -1.59295 5.50725 0
M  V30 15378 H 1506.73 -0.923836 5.92946 0
M  V30 15379 H 1507.8 -0.0124219 4.84898 0
M  V30 15380 N 1509.14 -1.56867 -0.151857 0
M  V30 15381 C 1510.37 -1.87601 -0.884347 0
M  V30 15382 C 1510.79 -0.710419 -1.74168 0
M  V30 15383 O 1510.15 0.340103 -1.78081 0
M  V30 15384 C 1510.2 -3.16887 -1.72091 0
M  V30 15385 O 1509.3 -3.00479 -2.82464 0
M  V30 15386 H 1508.64 -0.616509 -0.246603 0
M  V30 15387 H 1511.17 -2.04092 -0.144135 0
M  V30 15388 H 1511.18 -3.48785 -2.11691 0
M  V30 15389 H 1509.86 -4.01327 -1.09131 0
M  V30 15390 H 1508.43 -2.79978 -2.46306 0
M  V30 15391 N 1510.62 0.421051 -1.51871 0
M  V30 15392 C 1511.9 1.18133 -1.55897 0
M  V30 15393 C 1512.28 2.08459 -0.332876 0
M  V30 15394 O 1511.62 2.18114 0.681052 0
M  V30 15395 C 1511.83 1.96902 -2.88151 0
M  V30 15396 C 1513.18 2.53382 -3.4071 0
M  V30 15397 O 1514.21 2.07095 -2.89811 0
M  V30 15398 O 1513.06 3.37846 -4.29561 0
M  V30 15399 H 1510.16 0.538721 -0.627462 0
M  V30 15400 H 1512.7 0.428798 -1.64193 0
M  V30 15401 H 1511.48 1.30659 -3.68841 0
M  V30 15402 H 1511.1 2.79185 -2.83093 0
M  V30 15403 N 1512.1 1.42293 0.677538 0
M  V30 15404 C 1513.03 1.41503 1.80304 0
M  V30 15405 C 1514.04 0.314499 1.59733 0
M  V30 15406 O 1515.23 0.57741 1.68903 0
M  V30 15407 C 1512.33 1.18879 3.17366 0
M  V30 15408 C 1511.5 2.41314 3.6481 0
M  V30 15409 C 1510.56 2.14277 4.80595 0
M  V30 15410 O 1509.59 2.87457 4.91281 0
M  V30 15411 N 1510.79 1.14419 5.69112 0
M  V30 15412 H 1513.56 2.38515 1.81468 0
M  V30 15413 H 1511.12 1.37137 0.860529 0
M  V30 15414 H 1513.11 0.987135 3.92476 0
M  V30 15415 H 1511.68 0.304002 3.11118 0
M  V30 15416 H 1510.9 2.77066 2.80407 0
M  V30 15417 H 1512.19 3.2285 3.9325 0
M  V30 15418 H 1511.58 0.53888 5.63127 0
M  V30 15419 H 1510.14 1.00241 6.44046 0
M  V30 15420 N 1513.57 -0.913576 1.28419 0
M  V30 15421 C 1514.54 -1.99757 1.12382 0
M  V30 15422 C 1515.54 -1.60675 0.063435 0
M  V30 15423 O 1516.73 -1.71433 0.30923 0
M  V30 15424 C 1513.86 -3.33307 0.715506 0
M  V30 15425 H 1515.05 -2.15414 2.08655 0
M  V30 15426 H 1512.61 -1.09626 1.11408 0
M  V30 15427 H 1513.34 -3.23351 -0.247977 0
M  V30 15428 H 1513.13 -3.63034 1.4815 0
M  V30 15429 H 1514.62 -4.12882 0.625953 0
M  V30 15430 N 1515.05 -1.1067 -1.12204 0
M  V30 15431 C 1516.33 -0.762632 -1.8012 0
M  V30 15432 C 1516.71 0.750529 -1.97308 0
M  V30 15433 O 1516.06 1.67764 -1.55137 0
M  V30 15434 C 1516.27 -1.51651 -3.14329 0
M  V30 15435 C 1517.62 -1.69061 -3.89491 0
M  V30 15436 O 1518.64 -1.48009 -3.23994 0
M  V30 15437 O 1517.5 -2.03984 -5.07004 0
M  V30 15438 H 1514.59 -0.275417 -0.779791 0
M  V30 15439 H 1517.14 -1.20966 -1.19018 0
M  V30 15440 H 1515.91 -2.54622 -2.97125 0
M  V30 15441 H 1515.53 -1.0625 -3.83141 0
M  V30 15442 N 1516.53 1.29665 -0.895815 0
M  V30 15443 C 1517.78 1.94995 -0.515749 0
M  V30 15444 C 1518.09 1.71427 0.94192 0
M  V30 15445 O 1519.3 2.3083 1.42933 0
M  V30 15446 C 1517.75 3.4919 -0.871468 0
M  V30 15447 C 1517.36 3.81562 -2.34764 0
M  V30 15448 C 1519.11 4.20775 -0.561123 0
M  V30 15449 C 1517.01 5.28984 -2.64442 0
M  V30 15450 H 1515.94 0.729889 -0.189151 0
M  V30 15451 H 1518.59 1.4745 -1.09228 0
M  V30 15452 H 1516.98 3.95366 -0.223908 0
M  V30 15453 H 1518.15 3.46258 -3.04043 0
M  V30 15454 H 1516.47 3.23107 -2.62661 0
M  V30 15455 H 1519.06 5.29275 -0.759755 0
M  V30 15456 H 1519.41 4.13285 0.500129 0
M  V30 15457 H 1519.94 3.80317 -1.16635 0
M  V30 15458 H 1516.68 5.41535 -3.69351 0
M  V30 15459 H 1516.2 5.6555 -1.99784 0
M  V30 15460 H 1517.88 5.96536 -2.50506 0
M  V30 15461 N 1518.01 0.657889 1.43212 0
M  V30 15462 C 1518.92 -0.0313677 2.34579 0
M  V30 15463 C 1519.93 -0.807153 1.54146 0
M  V30 15464 O 1521.11 -0.753335 1.8678 0
M  V30 15465 C 1518.18 -0.982659 3.32483 0
M  V30 15466 C 1517.24 -0.203288 4.28818 0
M  V30 15467 C 1516.47 -1.10927 5.22045 0
M  V30 15468 O 1516.69 -2.34861 5.19804 0
M  V30 15469 O 1515.63 -0.57916 5.99107 0
M  V30 15470 H 1519.45 0.720808 2.95022 0
M  V30 15471 H 1517.04 0.418083 1.43431 0
M  V30 15472 H 1518.92 -1.52923 3.92673 0
M  V30 15473 H 1517.59 -1.71498 2.74536 0
M  V30 15474 H 1516.5 0.386982 3.72093 0
M  V30 15475 H 1517.83 0.489562 4.89759 0
M  V30 15476 N 1519.49 -1.52437 0.400108 0
M  V30 15477 C 1520.43 -2.28312 -0.444572 0
M  V30 15478 C 1521.43 -1.32641 -1.0537 0
M  V30 15479 O 1522.63 -1.50136 -0.99293 0
M  V30 15480 H 1519.01 -0.734313 -0.162137 0
M  V30 15481 H 1520.98 -2.97612 0.216702 0
M  V30 15482 C 1519.73 -3.11044 -1.55393 0
M  V30 15483 H 1519.05 -3.84525 -1.09455 0
M  V30 15484 H 1520.49 -3.67255 -2.11896 0
M  V30 15485 C 1518.95 -2.24035 -2.51614 0
M  V30 15486 O 1519.48 -1.87447 -3.55284 0
M  V30 15487 N 1517.69 -1.87982 -2.2161 0
M  V30 15488 H 1517.23 -2.17936 -1.37338 0
M  V30 15489 H 1517.19 -1.30058 -2.86238 0
M  V30 15490 N 1520.96 -0.130252 -1.57061 0
M  V30 15491 C 1522.21 0.525784 -1.95866 0
M  V30 15492 C 1522.54 1.65607 -1.01429 0
M  V30 15493 O 1521.82 1.94426 -0.0535544 0
M  V30 15494 C 1522.1 1.04784 -3.44517 0
M  V30 15495 C 1521.95 -0.0797972 -4.49729 0
M  V30 15496 C 1523.27 1.9351 -3.95275 0
M  V30 15497 H 1520.39 0.189652 -0.71218 0
M  V30 15498 H 1523.03 -0.208091 -1.88857 0
M  V30 15499 H 1521.18 1.67324 -3.50621 0
M  V30 15500 H 1522.86 -0.715535 -4.55717 0
M  V30 15501 H 1521.1 -0.741358 -4.27418 0
M  V30 15502 H 1521.77 0.326915 -5.51031 0
M  V30 15503 H 1524.25 1.40825 -3.91545 0
M  V30 15504 H 1523.12 2.26952 -4.99784 0
M  V30 15505 H 1523.38 2.86583 -3.36634 0
M  V30 15506 N 1522.44 1.56945 0.143535 0
M  V30 15507 C 1523.67 1.87701 0.870401 0
M  V30 15508 C 1524.09 0.718833 1.7458 0
M  V30 15509 O 1523.44 -0.311286 1.79826 0
M  V30 15510 C 1523.49 3.1773 1.72424 0
M  V30 15511 O 1523.22 4.29086 0.884115 0
M  V30 15512 C 1524.72 3.62024 2.55839 0
M  V30 15513 H 1521.94 0.622083 0.251504 0
M  V30 15514 H 1524.48 2.04052 0.135285 0
M  V30 15515 H 1522.64 3.03122 2.41238 0
M  V30 15516 H 1523.05 5.0346 1.47065 0
M  V30 15517 H 1524.52 4.55834 3.11319 0
M  V30 15518 H 1525 2.87481 3.32041 0
M  V30 15519 H 1525.61 3.79338 1.9231 0
M  V30 15520 N 1523.92 -0.412991 1.52093 0
M  V30 15521 C 1524.87 -1.50294 1.75158 0
M  V30 15522 C 1525.84 -1.55119 0.593902 0
M  V30 15523 O 1527.02 -1.71751 0.831032 0
M  V30 15524 C 1524.16 -2.87781 1.90463 0
M  V30 15525 C 1523.28 -2.92295 3.181 0
M  V30 15526 C 1522.41 -4.21056 3.23859 0
M  V30 15527 C 1521.45 -4.1953 4.45714 0
M  V30 15528 N 1520.59 -5.39857 4.48886 0
M  V30 15529 H 1525.43 -1.29927 2.68185 0
M  V30 15530 H 1522.96 -0.630741 1.32891 0
M  V30 15531 H 1524.92 -3.67588 1.9732 0
M  V30 15532 H 1523.55 -3.06651 1.00822 0
M  V30 15533 H 1522.6 -2.05002 3.20434 0
M  V30 15534 H 1523.92 -2.87031 4.0794 0
M  V30 15535 H 1523.07 -5.09253 3.29767 0
M  V30 15536 H 1521.81 -4.2901 2.31952 0
M  V30 15537 H 1520.81 -3.29724 4.39957 0
M  V30 15538 H 1522.04 -4.1322 5.38912 0
M  V30 15539 H 1519.99 -5.48486 3.59861 0
M  V30 15540 H 1519.9 -5.36572 5.32566 0
M  V30 15541 H 1521.17 -6.30018 4.59018 0
M  V30 15542 N 1525.4 -1.4265 -0.669982 0
M  V30 15543 C 1526.64 -1.44866 -1.44199 0
M  V30 15544 C 1527 -0.0647049 -1.91891 0
M  V30 15545 O 1528.2 0.0384187 -2.68773 0
M  V30 15546 C 1526.48 -2.44846 -2.60356 0
M  V30 15547 S 1528.03 -2.65803 -3.49134 0
M  V30 15548 H 1524.85 -0.512859 -0.49244 0
M  V30 15549 H 1527.45 -1.7929 -0.779442 0
M  V30 15550 H 1526.16 -3.44161 -2.23565 0
M  V30 15551 H 1525.69 -2.11863 -3.31478 0
M  V30 15552 H 1527.7 -1.94466 -4.56506 0
M  V30 15553 N 1526.88 0.906753 -1.28902 0
M  V30 15554 C 1527.82 2.01004 -1.13429 0
M  V30 15555 C 1528.79 1.66074 -0.0295031 0
M  V30 15556 O 1529.98 1.89793 -0.195727 0
M  V30 15557 C 1527.12 3.35473 -0.809457 0
M  V30 15558 C 1526.23 3.83229 -1.99398 0
M  V30 15559 C 1525.37 5.06241 -1.60915 0
M  V30 15560 C 1524.41 5.46348 -2.7599 0
M  V30 15561 N 1523.54 6.60548 -2.37952 0
M  V30 15562 H 1528.38 2.13571 -2.07825 0
M  V30 15563 H 1525.92 1.046 -1.03428 0
M  V30 15564 H 1527.88 4.12836 -0.601845 0
M  V30 15565 H 1526.51 3.22652 0.0975896 0
M  V30 15566 H 1525.56 3.01962 -2.31351 0
M  V30 15567 H 1526.87 4.08908 -2.85649 0
M  V30 15568 H 1526.03 5.91168 -1.36401 0
M  V30 15569 H 1524.77 4.82385 -0.718021 0
M  V30 15570 H 1523.77 4.59959 -3.01195 0
M  V30 15571 H 1525 5.72188 -3.65757 0
M  V30 15572 H 1522.94 6.38309 -1.51318 0
M  V30 15573 H 1522.86 6.85987 -3.17738 0
M  V30 15574 H 1524.13 7.48762 -2.1674 0
M  V30 15575 N 1528.36 1.11264 1.11616 0
M  V30 15576 C 1529.29 0.79149 2.19676 0
M  V30 15577 C 1530.27 -0.239351 1.68408 0
M  V30 15578 O 1531.45 -0.103228 1.93925 0
M  V30 15579 C 1528.58 0.231891 3.46525 0
M  V30 15580 C 1527.54 1.19439 4.10997 0
M  V30 15581 C 1526.86 0.495593 5.32398 0
M  V30 15582 C 1528.16 2.54437 4.56135 0
M  V30 15583 H 1529.86 1.69503 2.46797 0
M  V30 15584 H 1527.4 0.816433 1.18619 0
M  V30 15585 H 1529.35 -0.00497468 4.214 0
M  V30 15586 H 1528.08 -0.706938 3.18857 0
M  V30 15587 H 1526.74 1.41686 3.38113 0
M  V30 15588 H 1526.39 -0.447984 5.01001 0
M  V30 15589 H 1526.09 1.13753 5.76484 0
M  V30 15590 H 1527.61 0.267476 6.10014 0
M  V30 15591 H 1529.02 2.36289 5.22341 0
M  V30 15592 H 1527.42 3.14595 5.11028 0
M  V30 15593 H 1528.49 3.13795 3.69676 0
M  V30 15594 N 1529.83 -1.29188 0.902679 0
M  V30 15595 C 1531.07 -1.97218 0.53707 0
M  V30 15596 C 1531.44 -1.69577 -0.900422 0
M  V30 15597 O 1532.64 -2.31086 -1.37305 0
M  V30 15598 C 1530.91 -3.47753 0.824796 0
M  V30 15599 S 1532.47 -4.35161 0.563943 0
M  V30 15600 H 1529.29 -0.682544 0.199136 0
M  V30 15601 H 1531.89 -1.56941 1.16575 0
M  V30 15602 H 1530.59 -3.65364 1.86916 0
M  V30 15603 H 1530.12 -3.92968 0.184342 0
M  V30 15604 H 1532.14 -4.92683 -0.589697 0
M  V30 15605 N 1531.31 -0.665475 -1.42861 0
M  V30 15606 C 1532.56 -0.181149 -2.00885 0
M  V30 15607 C 1532.87 1.21629 -1.53186 0
M  V30 15608 O 1534.08 1.79648 -2.03565 0
M  V30 15609 C 1532.54 -0.273017 -3.58863 0
M  V30 15610 C 1532.14 -1.67392 -4.15553 0
M  V30 15611 C 1533.89 0.153075 -4.24224 0
M  V30 15612 C 1531.79 -1.71905 -5.65864 0
M  V30 15613 H 1530.72 -0.0639619 -0.751282 0
M  V30 15614 H 1533.38 -0.829299 -1.63691 0
M  V30 15615 H 1531.76 0.44286 -3.93516 0
M  V30 15616 H 1532.93 -2.41613 -3.92377 0
M  V30 15617 H 1531.25 -2.04704 -3.62609 0
M  V30 15618 H 1533.84 0.139369 -5.34518 0
M  V30 15619 H 1534.19 1.1867 -3.99028 0
M  V30 15620 H 1534.72 -0.511472 -3.94498 0
M  V30 15621 H 1531.46 -2.73218 -5.95846 0
M  V30 15622 H 1530.98 -1.02027 -5.91059 0
M  V30 15623 H 1532.66 -1.46829 -6.30119 0
M  V30 15624 N 1532.79 1.52222 -0.408187 0
M  V30 15625 C 1533.7 2.30725 0.424645 0
M  V30 15626 C 1534.72 1.38412 1.05442 0
M  V30 15627 O 1535.89 1.71486 1.05614 0
M  V30 15628 C 1532.96 3.11273 1.52677 0
M  V30 15629 C 1532.02 4.19323 0.920143 0
M  V30 15630 C 1531.25 4.96021 1.96974 0
M  V30 15631 O 1531.47 4.73011 3.18774 0
M  V30 15632 O 1530.41 5.80887 1.5765 0
M  V30 15633 H 1534.23 3.02935 -0.215411 0
M  V30 15634 H 1531.82 1.48413 -0.171414 0
M  V30 15635 H 1533.7 3.61436 2.16661 0
M  V30 15636 H 1532.38 2.41857 2.15144 0
M  V30 15637 H 1531.28 3.7331 0.243037 0
M  V30 15638 H 1532.62 4.91028 0.339405 0
M  V30 15639 N 1534.27 0.138579 1.5699 0
M  V30 15640 C 1535.68 -0.217898 1.58106 0
M  V30 15641 C 1535.88 -1.65293 1.15241 0
M  V30 15642 O 1534.94 -2.37805 0.848815 0
M  V30 15643 C 1536.25 0.033211 3.00682 0
M  V30 15644 C 1537.8 -0.0311593 3.12984 0
M  V30 15645 C 1538.28 0.192508 4.57595 0
M  V30 15646 N 1539.77 0.139147 4.62991 0
M  V30 15647 C 1540.5 0.286837 5.72682 0
M  V30 15648 N 1540 0.491784 6.91052 0
M  V30 15649 N 1541.79 0.225032 5.61649 0
M  V30 15650 H 1533.94 1.07567 1.83148 0
M  V30 15651 H 1536.2 0.425143 0.847324 0
M  V30 15652 H 1535.91 1.02605 3.364 0
M  V30 15653 H 1535.78 -0.689972 3.70836 0
M  V30 15654 H 1538.17 -1.01454 2.77112 0
M  V30 15655 H 1538.25 0.724219 2.45334 0
M  V30 15656 H 1537.9 1.17295 4.9417 0
M  V30 15657 H 1537.83 -0.583092 5.23362 0
M  V30 15658 H 1540.32 -0.0149467 3.77897 0
M  V30 15659 H 1540.63 0.594813 7.70508 0
M  V30 15660 H 1538.98 0.528002 6.92991 0
M  V30 15661 H 1542.17 0.0657415 4.68054 0
M  V30 15662 H 1542.34 0.343569 6.47089 0
M  V30 15663 N 1535.75 -1.57019 -0.13521 0
M  V30 15664 C 1537.16 -1.51949 -0.48824 0
M  V30 15665 C 1537.36 -0.848955 -1.82743 0
M  V30 15666 O 1536.42 -0.424441 -2.48907 0
M  V30 15667 C 1537.73 -2.96719 -0.487673 0
M  V30 15668 C 1539.28 -3.07722 -0.572365 0
M  V30 15669 C 1539.75 -4.54022 -0.602347 0
M  V30 15670 N 1541.24 -4.58413 -0.664242 0
M  V30 15671 C 1541.98 -5.69005 -0.70862 0
M  V30 15672 N 1541.48 -6.89135 -0.711626 0
M  V30 15673 N 1543.27 -5.57069 -0.750399 0
M  V30 15674 H 1535.42 -1.99001 0.742465 0
M  V30 15675 H 1537.68 -0.908116 0.272083 0
M  V30 15676 H 1537.39 -3.49082 0.428363 0
M  V30 15677 H 1537.26 -3.53299 -1.32136 0
M  V30 15678 H 1539.65 -2.55372 -1.47882 0
M  V30 15679 H 1539.73 -2.54166 0.288696 0
M  V30 15680 H 1539.37 -5.07013 0.3 0
M  V30 15681 H 1539.3 -5.05373 -1.48006 0
M  V30 15682 H 1541.8 -3.71936 -0.668739 0
M  V30 15683 H 1542.11 -7.69175 -0.747663 0
M  V30 15684 H 1540.45 -6.91672 -0.679311 0
M  V30 15685 H 1543.64 -4.62129 -0.745301 0
M  V30 15686 H 1543.82 -6.4327 -0.781518 0
M  V30 15687 N 1537.22 0.404919 -1.52309 0
M  V30 15688 C 1538.15 1.50039 -1.78915 0
M  V30 15689 C 1539.14 1.57587 -0.640329 0
M  V30 15690 O 1540.32 1.72793 -0.886344 0
M  V30 15691 C 1537.45 2.87819 -1.94364 0
M  V30 15692 C 1536.4 2.9512 -3.09981 0
M  V30 15693 C 1535.73 4.35195 -3.10659 0
M  V30 15694 C 1537.03 2.66219 -4.4936 0
M  V30 15695 H 1538.72 1.28025 -2.70647 0
M  V30 15696 H 1536.27 0.61445 -1.30233 0
M  V30 15697 H 1538.22 3.64446 -2.11559 0
M  V30 15698 H 1536.95 3.11136 -0.993067 0
M  V30 15699 H 1535.61 2.20939 -2.92543 0
M  V30 15700 H 1535.25 4.55528 -2.13316 0
M  V30 15701 H 1534.95 4.41003 -3.88317 0
M  V30 15702 H 1536.48 5.1375 -3.29989 0
M  V30 15703 H 1537.89 3.32567 -4.66982 0
M  V30 15704 H 1536.29 2.83398 -5.28967 0
M  V30 15705 H 1537.36 1.61636 -4.57167 0
M  V30 15706 N 1538.7 1.43003 0.662408 0
M  V30 15707 C 1539.93 1.47766 1.45533 0
M  V30 15708 C 1540.35 0.0940298 1.87865 0
M  V30 15709 O 1539.71 -0.910252 1.56793 0
M  V30 15710 C 1539.76 2.42084 2.6726 0
M  V30 15711 O 1538.86 1.90076 3.65985 0
M  V30 15712 H 1538.2 0.500167 0.436725 0
M  V30 15713 H 1540.73 1.87823 0.811399 0
M  V30 15714 H 1540.74 2.5908 3.15185 0
M  V30 15715 H 1539.42 3.42601 2.3579 0
M  V30 15716 H 1538 1.82695 3.2508 0
M  V30 15717 N 1540.18 -0.899904 1.29381 0
M  V30 15718 C 1541.14 -1.98554 1.14494 0
M  V30 15719 C 1542.14 -1.60599 0.0804732 0
M  V30 15720 O 1543.33 -1.71096 0.327395 0
M  V30 15721 C 1540.47 -3.32529 0.750818 0
M  V30 15722 H 1541.66 -2.13189 2.10928 0
M  V30 15723 H 1539.21 -1.08438 1.12565 0
M  V30 15724 H 1539.95 -3.23595 -0.213668 0
M  V30 15725 H 1539.73 -3.61443 1.51992 0
M  V30 15726 H 1541.22 -4.12195 0.669709 0
M  V30 15727 N 1541.66 -1.11854 -1.11024 0
M  V30 15728 C 1542.59 -0.803129 -2.19253 0
M  V30 15729 C 1543.57 0.230417 -1.68532 0
M  V30 15730 O 1544.75 0.0929421 -1.93977 0
M  V30 15731 C 1541.88 -0.250265 -3.46397 0
M  V30 15732 C 1540.84 -1.21617 -4.10357 0
M  V30 15733 C 1540.16 -0.523821 -5.32128 0
M  V30 15734 C 1541.46 -2.56852 -4.54779 0
M  V30 15735 H 1543.16 -1.7081 -2.45895 0
M  V30 15736 H 1540.7 -0.822712 -1.18184 0
M  V30 15737 H 1542.66 -0.0173732 -4.21396 0
M  V30 15738 H 1541.38 0.690018 -3.19228 0
M  V30 15739 H 1540.04 -1.43477 -3.37357 0
M  V30 15740 H 1539.69 0.421408 -5.01232 0
M  V30 15741 H 1539.39 -1.16809 -5.75873 0
M  V30 15742 H 1540.91 -0.299823 -6.09863 0
M  V30 15743 H 1542.33 -2.39056 -5.21081 0
M  V30 15744 H 1540.72 -3.17301 -5.09353 0
M  V30 15745 H 1541.79 -3.15751 -3.68007 0
M  V30 15746 N 1543.14 1.28707 -0.909517 0
M  V30 15747 C 1544.07 2.29845 -0.411552 0
M  V30 15748 C 1545.05 1.62001 0.518615 0
M  V30 15749 O 1546.23 1.89442 0.427252 0
M  V30 15750 C 1543.36 3.45501 0.353013 0
M  V30 15751 C 1542.32 4.25213 -0.487625 0
M  V30 15752 C 1541.64 5.33164 0.405026 0
M  V30 15753 C 1542.94 4.9237 -1.74268 0
M  V30 15754 H 1544.64 2.71746 -1.25676 0
M  V30 15755 H 1542.18 1.30639 -0.605759 0
M  V30 15756 H 1544.14 4.15338 0.712191 0
M  V30 15757 H 1542.86 3.02469 1.23209 0
M  V30 15758 H 1541.52 3.57098 -0.829265 0
M  V30 15759 H 1541.17 4.86375 1.28252 0
M  V30 15760 H 1540.87 5.87399 -0.153811 0
M  V30 15761 H 1542.39 6.0585 0.760179 0
M  V30 15762 H 1543.8 5.5459 -1.45266 0
M  V30 15763 H 1542.2 5.56581 -2.2436 0
M  V30 15764 H 1543.27 4.171 -2.47297 0
M  V30 15765 N 1544.61 0.673042 1.42506 0
M  V30 15766 C 1545.84 0.202922 2.05902 0
M  V30 15767 C 1546.26 -1.13923 1.50556 0
M  V30 15768 O 1545.61 -1.70735 0.644662 0
M  V30 15769 C 1545.67 0.12735 3.61276 0
M  V30 15770 O 1545.39 1.41646 4.1457 0
M  V30 15771 C 1546.89 -0.366477 4.41783 0
M  V30 15772 H 1544.11 0.0991021 0.663641 0
M  V30 15773 H 1546.65 0.919282 1.82673 0
M  V30 15774 H 1544.81 -0.539687 3.83622 0
M  V30 15775 H 1545.22 1.28866 5.08423 0
M  V30 15776 H 1546.69 -0.368267 5.5077 0
M  V30 15777 H 1547.17 -1.40142 4.16241 0
M  V30 15778 H 1547.78 0.268761 4.2445 0
M  V30 15779 N 1546.09 -1.52004 0.416254 0
M  V30 15780 C 1547.34 -2.0149 -0.15689 0
M  V30 15781 C 1547.66 -1.30343 -1.45037 0
M  V30 15782 O 1546.93 -0.431503 -1.91089 0
M  V30 15783 H 1545.51 -0.744508 -0.0609682 0
M  V30 15784 H 1548.17 -1.86857 0.55413 0
M  V30 15785 H 1547.27 -3.10155 -0.347917 0
M  V30 15786 N 1547.57 -0.146903 -1.56914 0
M  V30 15787 C 1548.82 0.504195 -1.95297 0
M  V30 15788 C 1549.13 1.66019 -1.03426 0
M  V30 15789 O 1550.34 2.37591 -1.31388 0
M  V30 15790 C 1548.79 0.948348 -3.47181 0
M  V30 15791 C 1548.4 -0.18071 -4.47635 0
M  V30 15792 C 1550.15 1.56924 -3.9443 0
M  V30 15793 C 1548.05 0.281707 -5.90729 0
M  V30 15794 H 1546.98 0.192127 -0.729111 0
M  V30 15795 H 1549.63 -0.231232 -1.82037 0
M  V30 15796 H 1548.02 1.73903 -3.55772 0
M  V30 15797 H 1549.19 -0.957645 -4.50739 0
M  V30 15798 H 1547.51 -0.710007 -4.10302 0
M  V30 15799 H 1550.1 1.92684 -4.98776 0
M  V30 15800 H 1550.45 2.45816 -3.35976 0
M  V30 15801 H 1550.98 0.843456 -3.88755 0
M  V30 15802 H 1547.72 -0.571839 -6.53001 0
M  V30 15803 H 1547.24 1.02452 -5.90985 0
M  V30 15804 H 1548.92 0.733746 -6.42826 0
M  V30 15805 N 1549.05 1.57088 0.126881 0
M  V30 15806 C 1550.29 1.8625 0.842031 0
M  V30 15807 C 1550.65 0.733868 1.77421 0
M  V30 15808 O 1551.85 0.907051 2.53034 0
M  V30 15809 C 1550.12 3.2063 1.57897 0
M  V30 15810 S 1551.68 3.71403 2.33677 0
M  V30 15811 H 1548.5 0.653034 0.28119 0
M  V30 15812 H 1551.1 1.9524 0.100825 0
M  V30 15813 H 1549.81 4.00722 0.885982 0
M  V30 15814 H 1549.34 3.14698 2.3607 0
M  V30 15815 H 1551.35 3.42274 3.59253 0
M  V30 15816 N 1550.53 -0.396836 1.52522 0
M  V30 15817 C 1551.49 -1.46695 1.76106 0
M  V30 15818 C 1552.49 -1.47902 0.631005 0
M  V30 15819 O 1553.68 -1.4921 0.898995 0
M  V30 15820 C 1550.81 -2.86033 1.85467 0
M  V30 15821 H 1552 -1.27071 2.71649 0
M  V30 15822 H 1549.56 -0.628096 1.43125 0
M  V30 15823 H 1550.29 -3.11012 0.918816 0
M  V30 15824 H 1550.08 -2.86559 2.67631 0
M  V30 15825 H 1551.57 -3.63587 2.05412 0
M  V30 15826 O 1552.04 -1.52107 -0.542756 0
M  V30 15827 H 1552.73 -1.52217 -1.1979 0
M  V30 END ATOM
M  V30 BEGIN BOND
M  V30 END BOND
M  V30 END CTAB
M  END
$$$$
