drugbank_target|Q9I5I9 SDS hydrolase SdsA1 (DB06893; DB06894)
 OpenBabel12092120383D

  0  0  0     0  0            999 V3000
M  V30 BEGIN CTAB
M  V30 COUNTS 10193 10303 0 0 0
M  V30 BEGIN ATOM
M  V30 1 H -0.908 1.98254 -0.117106 0
M  V30 2 N 0 1.576 0 0
M  V30 3 C 0.933 2.03868 1.02534 0
M  V30 4 C 1.911 0.928543 1.3348 0
M  V30 5 O 3.095 1.19667 1.45644 0
M  V30 6 C 0.222 2.43627 2.35294 0
M  V30 7 C -0.732 3.65373 2.2001 0
M  V30 8 S 0.101 5.13292 1.52614 0
M  V30 9 C 1.257 5.56322 2.86805 0
M  V30 10 H 1.49 2.90518 0.631377 0
M  V30 11 H -0.977 1.52953 0.210867 0
M  V30 12 H 0.981 2.67203 3.11629 0
M  V30 13 H -0.358 1.57376 2.7183 0
M  V30 14 H -1.165 3.90944 3.18086 0
M  V30 15 H -1.563 3.418 1.51819 0
M  V30 16 H 0.729 5.58782 3.83104 0
M  V30 17 H 1.672 6.56266 2.65933 0
M  V30 18 H 2.08 4.83886 2.90714 0
M  V30 19 N 1.4781 -0.272755 1.55222 0
M  V30 20 C 2.7031 -1.02683 1.80197 0
M  V30 21 C 3.1281 -1.79142 0.573551 0
M  V30 22 O 2.4861 -1.74917 -0.476849 0
M  V30 23 C 2.5341 -1.9609 3.02624 0
M  V30 24 O 1.6381 -3.04863 2.77727 0
M  V30 25 H 0.9791 -0.293557 0.595584 0
M  V30 26 H 3.5091 -0.30159 2.02365 0
M  V30 27 H 3.5191 -2.38039 3.31363 0
M  V30 28 H 2.1941 -1.39851 3.91682 0
M  V30 29 H 0.7711 -2.67228 2.60084 0
M  V30 30 N 2.9562 -1.48159 -0.537278 0
M  V30 31 C 4.3722 -1.34118 -0.865129 0
M  V30 32 C 4.5722 -0.346678 -1.98495 0
M  V30 33 O 3.6282 0.234715 -2.51407 0
M  V30 34 C 4.9412 -2.73963 -1.23954 0
M  V30 35 C 6.4892 -2.82397 -1.34984 0
M  V30 36 C 6.9642 -4.22928 -1.75772 0
M  V30 37 N 8.4552 -4.25566 -1.82887 0
M  V30 38 C 9.1902 -5.31235 -2.15817 0
M  V30 39 N 8.6862 -6.47189 -2.47222 0
M  V30 40 N 10.4792 -5.18624 -2.16761 0
M  V30 41 H 2.6302 -2.1144 0.201715 0
M  V30 42 H 4.8932 -0.947598 0.0275949 0
M  V30 43 H 4.5992 -3.48264 -0.490381 0
M  V30 44 H 4.4732 -3.0702 -2.19132 0
M  V30 45 H 6.8602 -2.08356 -2.08978 0
M  V30 46 H 6.9412 -2.5297 -0.379448 0
M  V30 47 H 6.5852 -4.97482 -1.02341 0
M  V30 48 H 6.5152 -4.49794 -2.73848 0
M  V30 49 H 9.0062 -3.41924 -1.60924 0
M  V30 50 H 9.3192 -7.23564 -2.71433 0
M  V30 51 H 7.6642 -6.50476 -2.44757 0
M  V30 52 H 10.8552 -4.27056 -1.91679 0
M  V30 53 H 11.0282 -6.01078 -2.42093 0
M  V30 54 N 4.4343 0.785586 -1.36625 0
M  V30 55 C 5.3643 1.91259 -1.33949 0
M  V30 56 C 6.3453 1.68795 -0.210325 0
M  V30 57 O 7.5303 1.89854 -0.408561 0
M  V30 58 C 4.6603 3.28339 -1.13186 0
M  V30 59 C 3.6143 3.65335 -2.22967 0
M  V30 60 C 2.9403 5.00806 -1.87342 0
M  V30 61 C 4.2403 3.7352 -3.65075 0
M  V30 62 H 5.9343 1.93755 -2.28253 0
M  V30 63 H 3.4803 0.930788 -1.09874 0
M  V30 64 H 5.4333 4.06804 -1.09948 0
M  V30 65 H 4.1573 3.2624 -0.153332 0
M  V30 66 H 2.8163 2.89169 -2.25337 0
M  V30 67 H 2.4643 4.95233 -0.880545 0
M  V30 68 H 2.1643 5.26529 -2.60846 0
M  V30 69 H 3.6883 5.81687 -1.85667 0
M  V30 70 H 5.1023 4.42168 -3.64911 0
M  V30 71 H 3.4993 4.10731 -4.37516 0
M  V30 72 H 4.5693 2.74527 -3.99703 0
M  V30 73 N 5.9124 1.20967 1.01018 0
M  V30 74 C 6.8424 0.988272 2.11555 0
M  V30 75 C 7.8234 -0.0849778 1.69888 0
M  V30 76 O 9.0084 0.0738202 1.9406 0
M  V30 77 C 6.1384 0.546528 3.42973 0
M  V30 78 C 5.0924 1.56375 3.9841 0
M  V30 79 C 4.4184 0.97842 5.25672 0
M  V30 80 C 5.7184 2.94922 4.31066 0
M  V30 81 H 7.4124 1.91276 2.30334 0
M  V30 82 H 4.9584 0.921073 1.1069 0
M  V30 83 H 6.9114 0.378839 4.19694 0
M  V30 84 H 5.6354 -0.413598 3.23971 0
M  V30 85 H 4.2944 1.71891 3.23804 0
M  V30 86 H 3.9424 0.0101688 5.02999 0
M  V30 87 H 3.6424 1.65784 5.63728 0
M  V30 88 H 5.1664 0.821939 6.05043 0
M  V30 89 H 6.5804 2.8288 4.9865 0
M  V30 90 H 4.9774 3.5983 4.80253 0
M  V30 91 H 6.0474 3.4616 3.39561 0
M  V30 92 N 7.3905 -1.2043 1.01659 0
M  V30 93 C 8.3535 -2.21433 0.591616 0
M  V30 94 C 9.3535 -1.57203 -0.338226 0
M  V30 95 O 10.5435 -1.73737 -0.126918 0
M  V30 96 C 7.6755 -3.40628 -0.136058 0
M  V30 97 H 8.8685 -2.60545 1.48514 0
M  V30 98 H 6.4215 -1.33893 0.806379 0
M  V30 99 H 7.1565 -3.07019 -1.04449 0
M  V30 100 H 6.9415 -3.88475 0.531917 0
M  V30 101 H 8.4315 -4.15475 -0.420735 0
M  V30 102 N 8.8686 -0.792821 -1.36206 0
M  V30 103 C 9.7986 -0.207853 -2.32573 0
M  V30 104 C 10.7796 0.659055 -1.56813 0
M  V30 105 O 11.9646 0.592176 -1.84951 0
M  V30 106 C 9.0946 0.655449 -3.41059 0
M  V30 107 C 8.0486 -0.111842 -4.27854 0
M  V30 108 C 7.3746 0.872274 -5.27537 0
M  V30 109 C 8.6746 -1.30299 -5.05786 0
M  V30 110 H 10.3686 -1.01294 -2.81744 0
M  V30 111 H 7.9146 -0.48854 -1.3546 0
M  V30 112 H 9.8676 1.07464 -4.07467 0
M  V30 113 H 8.5916 1.49328 -2.90463 0
M  V30 114 H 7.2506 -0.512053 -3.63006 0
M  V30 115 H 6.8986 1.70523 -4.73214 0
M  V30 116 H 6.5986 0.363291 -5.86476 0
M  V30 117 H 8.1226 1.28996 -5.96818 0
M  V30 118 H 9.5366 -0.959379 -5.65216 0
M  V30 119 H 7.9336 -1.7455 -5.74154 0
M  V30 120 H 9.0036 -2.09663 -4.37229 0
M  V30 121 N 10.3467 1.47872 -0.545128 0
M  V30 122 C 11.2767 2.32661 0.197793 0
M  V30 123 C 12.2577 1.43041 0.920504 0
M  V30 124 O 13.4427 1.71912 0.90333 0
M  V30 125 C 10.5727 3.24569 1.23582 0
M  V30 126 C 9.5267 4.23333 0.630323 0
M  V30 127 C 8.8527 5.0448 1.77211 0
M  V30 128 C 10.1527 5.20704 -0.407974 0
M  V30 129 H 11.8467 2.95024 -0.510045 0
M  V30 130 H 9.3927 1.4187 -0.246731 0
M  V30 131 H 11.3457 3.8272 1.76362 0
M  V30 132 H 10.0697 2.60236 1.97344 0
M  V30 133 H 8.7287 3.6639 0.123922 0
M  V30 134 H 8.3767 4.36561 2.49847 0
M  V30 135 H 8.0767 5.71339 1.37281 0
M  V30 136 H 9.6007 5.65487 2.3034 0
M  V30 137 H 11.0147 5.7329 0.033305 0
M  V30 138 H 9.4117 5.95699 -0.725486 0
M  V30 139 H 10.4817 4.66917 -1.30828 0
M  V30 140 N 11.8248 0.280983 1.55075 0
M  V30 141 C 12.7878 -0.590896 2.21452 0
M  V30 142 C 13.7878 -1.07682 1.19421 0
M  V30 143 O 14.9778 -0.97605 1.44288 0
M  V30 144 C 12.1098 -1.81587 2.88511 0
M  V30 145 H 13.3028 -0.0112554 2.99898 0
M  V30 146 H 10.8558 0.0316438 1.56268 0
M  V30 147 H 11.5908 -2.43587 2.14093 0
M  V30 148 H 11.3758 -1.4753 3.63287 0
M  V30 149 H 12.8658 -2.43575 3.39206 0
M  V30 150 N 13.3029 -1.57598 0.00835791 0
M  V30 151 C 14.2329 -2.1198 -0.979113 0
M  V30 152 C 15.2139 -1.03091 -1.35301 0
M  V30 153 O 16.3989 -1.30818 -1.43528 0
M  V30 154 C 13.5289 -2.62995 -2.26828 0
M  V30 155 C 12.4829 -3.76485 -2.03576 0
M  V30 156 C 11.8089 -4.13846 -3.38579 0
M  V30 157 C 13.1089 -5.0342 -1.39161 0
M  V30 158 H 14.8029 -2.94738 -0.526281 0
M  V30 159 H 12.3489 -1.41783 -0.251704 0
M  V30 160 H 14.3019 -2.99669 -2.96271 0
M  V30 161 H 13.0259 -1.7737 -2.7424 0
M  V30 162 H 11.6849 -3.40217 -1.36557 0
M  V30 163 H 11.3329 -3.25232 -3.83709 0
M  V30 164 H 11.0329 -4.90312 -3.23834 0
M  V30 165 H 12.5569 -4.53086 -4.09323 0
M  V30 166 H 13.9709 -5.37812 -1.98573 0
M  V30 167 H 12.3679 -5.84746 -1.34878 0
M  V30 168 H 13.4379 -4.83548 -0.361868 0
M  V30 169 N 14.781 0.264519 -1.55364 0
M  V30 170 C 15.744 1.31046 -1.88042 0
M  V30 171 C 16.744 1.41943 -0.755569 0
M  V30 172 O 17.934 1.40947 -1.02369 0
M  V30 173 C 15.066 2.69067 -2.09323 0
M  V30 174 H 16.259 1.03297 -2.81549 0
M  V30 175 H 13.812 0.502989 -1.47986 0
M  V30 176 H 14.547 3.01982 -1.18226 0
M  V30 177 H 14.332 2.62542 -2.91229 0
M  V30 178 H 15.822 3.44623 -2.35848 0
M  V30 179 N 16.2591 1.48442 0.529413 0
M  V30 180 C 17.6701 1.5002 1.11134 0
M  V30 181 C 18.0211 0.27031 1.94329 0
M  V30 182 O 17.1461 -0.622507 2.07253 0
M  V30 183 C 17.7411 2.71834 2.02217 0
M  V30 184 C 16.3001 2.76283 2.55627 0
M  V30 185 C 15.4471 2.43542 1.326 0
M  V30 186 H 18.3981 1.5555 0.314641 0
M  V30 187 H 18.4191 2.50384 2.8651 0
M  V30 188 H 17.9311 3.61331 1.41639 0
M  V30 189 H 16.0321 1.90995 3.19924 0
M  V30 190 H 16.1451 3.77725 2.94721 0
M  V30 191 H 14.5091 1.94709 1.64196 0
M  V30 192 H 15.2921 3.3528 0.737734 0
M  V30 193 N 17.7372 -0.778329 1.37039 0
M  V30 194 C 18.6672 -1.90546 1.34962 0
M  V30 195 C 19.6482 -1.68681 0.219274 0
M  V30 196 O 20.8332 -1.89634 0.418624 0
M  V30 197 C 17.9632 -3.27734 1.14925 0
M  V30 198 C 16.9172 -3.64147 2.24902 0
M  V30 199 C 16.2432 -4.99806 1.89996 0
M  V30 200 C 17.5432 -3.71579 3.67051 0
M  V30 201 H 19.2372 -1.92541 2.29277 0
M  V30 202 H 16.7832 -0.924948 1.10366 0
M  V30 203 H 18.7362 -4.06215 1.12104 0
M  V30 204 H 17.4602 -3.26154 0.170631 0
M  V30 205 H 16.1192 -2.8797 2.26868 0
M  V30 206 H 15.7672 -4.94759 0.906796 0
M  V30 207 H 15.4672 -5.25139 2.63634 0
M  V30 208 H 16.9912 -5.80694 1.88749 0
M  V30 209 H 18.4052 -4.40227 3.67251 0
M  V30 210 H 16.8022 -4.08405 4.39688 0
M  V30 211 H 17.8722 -2.72404 4.01154 0
M  V30 212 N 19.2153 -1.21501 -1.00376 0
M  V30 213 C 20.1453 -0.999478 -2.11028 0
M  V30 214 C 21.1263 0.0759671 -1.6993 0
M  V30 215 O 22.3113 -0.0841106 -1.94018 0
M  V30 216 C 19.4413 -0.564709 -3.42678 0
M  V30 217 C 18.3953 -1.58486 -3.97576 0
M  V30 218 C 17.7213 -1.00628 -5.25146 0
M  V30 219 C 19.0213 -2.97204 -4.29496 0
M  V30 220 H 20.7153 -1.92495 -2.29317 0
M  V30 221 H 18.2613 -0.92693 -1.102 0
M  V30 222 H 20.2143 -0.401091 -4.19487 0
M  V30 223 H 18.9383 0.396411 -3.24185 0
M  V30 224 H 17.5973 -1.73606 -3.22888 0
M  V30 225 H 17.2453 -0.0368439 -5.02987 0
M  V30 226 H 16.9453 -1.68771 -5.62841 0
M  V30 227 H 18.4693 -0.854015 -6.04598 0
M  V30 228 H 19.8833 -2.8552 -4.97143 0
M  V30 229 H 18.2803 -3.62372 -4.78338 0
M  V30 230 H 19.3503 -3.47956 -3.3772 0
M  V30 231 N 20.6934 1.19889 -1.02296 0
M  V30 232 C 21.6564 2.21116 -0.603351 0
M  V30 233 C 22.6564 1.5738 0.329884 0
M  V30 234 O 23.8464 1.73802 0.117702 0
M  V30 235 C 20.9784 3.40696 0.117992 0
M  V30 236 H 22.1714 2.59754 -1.49893 0
M  V30 237 H 19.7244 1.33463 -0.813468 0
M  V30 238 H 20.4594 3.07569 1.0282 0
M  V30 239 H 20.2444 3.88188 -0.552511 0
M  V30 240 H 21.7344 4.15692 0.398696 0
M  V30 241 N 22.1715 0.800033 1.35784 0
M  V30 242 C 23.4195 0.376597 1.9856 0
M  V30 243 C 23.7405 -1.05812 1.63795 0
M  V30 244 O 23.0105 -1.73103 0.917171 0
M  V30 245 H 21.5905 0.136261 0.734467 0
M  V30 246 H 24.2525 1.02442 1.65806 0
M  V30 247 H 23.3485 0.477002 3.08433 0
M  V30 248 N 23.6496 -1.47581 0.552962 0
M  V30 249 C 24.6126 -2.28439 -0.186605 0
M  V30 250 C 25.6126 -1.36706 -0.84665 0
M  V30 251 O 26.8026 -1.59378 -0.703164 0
M  V30 252 C 23.9346 -3.16264 -1.2724 0
M  V30 253 H 25.1276 -2.95294 0.523609 0
M  V30 254 H 22.6806 -1.532 0.309745 0
M  V30 255 H 23.4156 -2.54091 -2.01514 0
M  V30 256 H 23.2006 -3.83769 -0.803968 0
M  V30 257 H 24.6906 -3.77198 -1.79196 0
M  V30 258 N 25.1277 -0.289203 -1.54924 0
M  V30 259 C 26.0907 0.579144 -2.21762 0
M  V30 260 C 27.0907 1.07047 -1.1999 0
M  V30 261 O 28.2807 0.968384 -1.44803 0
M  V30 262 C 25.4127 1.80055 -2.8947 0
M  V30 263 H 26.6057 -0.00464908 -2.999 0
M  V30 264 H 24.1587 -0.0399306 -1.56249 0
M  V30 265 H 24.8937 2.42449 -2.15381 0
M  V30 266 H 24.6787 1.45602 -3.64064 0
M  V30 267 H 26.1687 2.41773 -3.40493 0
M  V30 268 N 26.6058 1.57591 -0.0167156 0
M  V30 269 C 27.5158 2.1291 0.98521 0
M  V30 270 C 28.5318 1.07834 1.36557 0
M  V30 271 O 29.7078 1.39826 1.44951 0
M  V30 272 C 26.7728 2.63512 2.25305 0
M  V30 273 C 25.8338 3.83256 1.93426 0
M  V30 274 C 25.0668 4.31435 3.14165 0
M  V30 275 O 25.2898 3.78851 4.26413 0
M  V30 276 O 24.2238 5.23416 2.97186 0
M  V30 277 H 28.0498 2.98772 0.544888 0
M  V30 278 H 25.6348 1.48012 0.203141 0
M  V30 279 H 27.5168 2.96183 2.99756 0
M  V30 280 H 26.1918 1.8074 2.68542 0
M  V30 281 H 25.0988 3.55531 1.16398 0
M  V30 282 H 26.4318 4.67153 1.55013 0
M  V30 283 N 28.0839 -0.256276 1.55502 0
M  V30 284 C 29.3119 -1.00342 1.8094 0
M  V30 285 C 29.7269 -1.79307 0.59114 0
M  V30 286 O 29.0839 -1.77114 -0.440081 0
M  V30 287 C 29.1349 -1.94875 3.04476 0
M  V30 288 O 28.8559 -1.19107 4.21598 0
M  V30 289 C 30.3569 -2.81266 3.42644 0
M  V30 290 H 27.5769 -0.295685 0.602338 0
M  V30 291 H 30.1209 -0.281998 2.02546 0
M  V30 292 H 28.2759 -2.62457 2.84947 0
M  V30 293 H 28.6899 -1.82969 4.91551 0
M  V30 294 H 30.1639 -3.43362 4.32211 0
M  V30 295 H 30.6409 -3.51897 2.62802 0
M  V30 296 H 31.2469 -2.1915 3.64491 0
M  V30 297 N 29.562 -1.4872 -0.521534 0
M  V30 298 C 30.79 -1.60843 -1.30142 0
M  V30 299 C 31.205 -0.271897 -1.86832 0
M  V30 300 O 30.562 0.739969 -1.66825 0
M  V30 301 C 30.613 -2.66155 -2.4463 0
M  V30 302 O 30.334 -3.94623 -1.90275 0
M  V30 303 C 31.835 -2.88795 -3.36322 0
M  V30 304 H 29.055 -0.542075 -0.395468 0
M  V30 305 H 31.599 -1.94609 -0.628285 0
M  V30 306 H 29.754 -2.35224 -3.07812 0
M  V30 307 H 30.168 -4.52468 -2.65279 0
M  V30 308 H 31.642 -3.66264 -4.12983 0
M  V30 309 H 32.119 -1.97934 -3.9207 0
M  V30 310 H 32.725 -3.21063 -2.78924 0
M  V30 311 N 31.0401 0.771051 -1.3745 0
M  V30 312 C 32.0031 1.86598 -1.33093 0
M  V30 313 C 33.0031 1.59076 -0.234845 0
M  V30 314 O 34.1931 1.67145 -0.490732 0
M  V30 315 C 31.3251 3.23747 -1.06773 0
M  V30 316 H 32.5181 1.91873 -2.30488 0
M  V30 317 H 30.0711 0.970876 -1.2249 0
M  V30 318 H 30.8061 3.24148 -0.099129 0
M  V30 319 H 30.5911 3.45115 -1.86112 0
M  V30 320 H 32.0811 4.03824 -1.06377 0
M  V30 321 N 32.5182 1.22032 0.997298 0
M  V30 322 C 33.9292 1.0397 1.55071 0
M  V30 323 C 34.2802 -0.398192 1.92117 0
M  V30 324 O 33.4052 -1.28254 1.74298 0
M  V30 325 C 34.0002 1.88109 2.81781 0
M  V30 326 C 32.5592 1.74357 3.33581 0
M  V30 327 C 31.7062 1.84846 2.06706 0
M  V30 328 H 34.6572 1.35941 0.818883 0
M  V30 329 H 34.6782 1.39589 3.53971 0
M  V30 330 H 34.1902 2.92754 2.54787 0
M  V30 331 H 32.2912 0.72427 3.65493 0
M  V30 332 H 32.4042 2.56772 4.04481 0
M  V30 333 H 30.7682 1.28238 2.20062 0
M  V30 334 H 31.5512 2.91014 1.82114 0
M  V30 335 N 33.9963 -1.19345 1.0293 0
M  V30 336 C 34.9433 -2.2258 0.610464 0
M  V30 337 C 35.9133 -1.6179 -0.375946 0
M  V30 338 O 37.0983 -1.88844 -0.272511 0
M  V30 339 C 34.2383 -3.45085 -0.0321473 0
M  V30 340 C 33.3513 -4.20258 1.00035 0
M  V30 341 C 32.4863 -5.3019 0.32746 0
M  V30 342 C 31.5253 -5.97121 1.34584 0
M  V30 343 N 30.6623 -6.98615 0.698726 0
M  V30 344 H 35.5023 -2.57764 1.49538 0
M  V30 345 H 33.0393 -1.26644 0.748311 0
M  V30 346 H 34.9973 -4.15061 -0.421966 0
M  V30 347 H 33.6273 -3.10555 -0.88064 0
M  V30 348 H 32.6793 -3.49223 1.50823 0
M  V30 349 H 33.9913 -4.66175 1.77433 0
M  V30 350 H 33.1453 -6.06587 -0.11718 0
M  V30 351 H 31.8843 -4.85345 -0.478713 0
M  V30 352 H 30.8893 -5.19474 1.80074 0
M  V30 353 H 32.1143 -6.4405 2.15352 0
M  V30 354 H 30.0603 -6.55942 -0.0873471 0
M  V30 355 H 29.9773 -7.42724 1.41058 0
M  V30 356 H 31.2453 -7.79004 0.278102 0
M  V30 357 N 35.4744 -0.807222 -1.35358 0
M  V30 358 C 36.8854 -0.44876 -1.81226 0
M  V30 359 C 37.2364 1.02929 -1.67033 0
M  V30 360 O 36.3614 1.79991 -1.20133 0
M  V30 361 C 36.9564 -0.807774 -3.2903 0
M  V30 362 C 35.5154 -0.501901 -3.73039 0
M  V30 363 C 34.6624 -1.03304 -2.57339 0
M  V30 364 H 37.6134 -0.998808 -1.23327 0
M  V30 365 H 37.6344 -0.10554 -3.80354 0
M  V30 366 H 37.1464 -1.88357 -3.39328 0
M  V30 367 H 35.2474 0.565128 -3.68289 0
M  V30 368 H 35.3604 -1.03497 -4.67787 0
M  V30 369 H 33.7244 -0.455339 -2.50597 0
M  V30 370 H 34.5074 -2.11496 -2.70415 0
M  V30 371 N 36.9525 1.47285 -0.560781 0
M  V30 372 C 38.3635 1.86258 -0.128343 0
M  V30 373 C 38.7145 1.46699 1.30284 0
M  V30 374 O 37.8395 0.871698 1.98067 0
M  V30 375 C 38.4345 3.38044 -0.22614 0
M  V30 376 C 36.9935 3.76096 0.151283 0
M  V30 377 C 36.1405 2.71335 -0.572084 0
M  V30 378 H 39.0915 1.38752 -0.770297 0
M  V30 379 H 39.1125 3.76441 0.554322 0
M  V30 380 H 38.6245 3.66806 -1.26788 0
M  V30 381 H 36.7255 3.52951 1.19399 0
M  V30 382 H 36.8385 4.78641 -0.209765 0
M  V30 383 H 35.2025 2.54696 -0.0147653 0
M  V30 384 H 35.9855 3.02938 -1.61504 0
M  V30 385 N 38.4306 0.297415 1.54768 0
M  V30 386 C 39.6556 -0.318435 2.04941 0
M  V30 387 C 40.0806 -1.4701 1.17345 0
M  V30 388 O 39.4386 -1.80436 0.176758 0
M  V30 389 C 39.4866 -0.755749 3.52592 0
M  V30 390 O 38.5906 -1.86088 3.68028 0
M  V30 391 H 37.9316 -0.062421 0.661059 0
M  V30 392 H 40.4616 0.438215 1.99852 0
M  V30 393 H 40.4716 -1.04552 3.94376 0
M  V30 394 H 39.1466 0.0867233 4.1581 0
M  V30 395 H 37.7236 -1.57193 3.38149 0
M  V30 396 N 39.9087 -1.5758 0.0250728 0
M  V30 397 C 40.8717 -2.08896 -0.943139 0
M  V30 398 C 41.8717 -1.00321 -1.25668 0
M  V30 399 O 43.0617 -1.26495 -1.19769 0
M  V30 400 C 40.1937 -2.55143 -2.26086 0
M  V30 401 H 41.3867 -2.95723 -0.498775 0
M  V30 402 H 38.9397 -1.54703 -0.222888 0
M  V30 403 H 39.6747 -1.71633 -2.75159 0
M  V30 404 H 39.4597 -3.34461 -2.04641 0
M  V30 405 H 40.9497 -2.95083 -2.95492 0
M  V30 406 N 41.3868 0.248026 -1.55636 0
M  V30 407 C 42.6338 0.976224 -1.77415 0
M  V30 408 C 42.9618 1.85361 -0.589193 0
M  V30 409 O 42.2168 1.90973 0.427529 0
M  V30 410 C 42.5158 1.86819 -3.04686 0
M  V30 411 C 42.1818 1.14625 -4.36087 0
M  V30 412 C 40.8438 0.946723 -4.71795 0
M  V30 413 C 43.1958 0.634463 -5.17324 0
M  V30 414 C 40.5238 0.223091 -5.86276 0
M  V30 415 C 42.8758 -0.0756959 -6.32555 0
M  V30 416 C 41.5398 -0.286711 -6.66884 0
M  V30 417 H 40.8098 0.357226 -0.649208 0
M  V30 418 H 43.4568 0.246415 -1.89908 0
M  V30 419 H 41.7618 2.66502 -2.872 0
M  V30 420 H 43.4588 2.43329 -3.18735 0
M  V30 421 H 40.0488 1.3117 -4.08035 0
M  V30 422 H 44.2328 0.77616 -4.90193 0
M  V30 423 H 39.4888 0.0491185 -6.1138 0
M  V30 424 H 43.6628 -0.479899 -6.94745 0
M  V30 425 H 41.2898 -0.849389 -7.5544 0
M  V30 426 N 42.8649 1.48995 0.513639 0
M  V30 427 C 44.0929 1.61531 1.29288 0
M  V30 428 C 44.5079 0.281801 1.86685 0
M  V30 429 O 43.8649 -0.731111 1.67215 0
M  V30 430 C 43.9159 2.67449 2.43215 0
M  V30 431 O 43.6369 3.95626 1.88179 0
M  V30 432 C 45.1379 2.90575 3.34785 0
M  V30 433 H 42.3579 0.544165 0.392588 0
M  V30 434 H 44.9019 1.9494 0.617956 0
M  V30 435 H 43.0569 2.36853 3.0656 0
M  V30 436 H 43.4709 4.53868 2.62876 0
M  V30 437 H 44.9449 3.68449 4.11035 0
M  V30 438 H 45.4219 2.00011 3.91015 0
M  V30 439 H 46.0279 3.22538 2.77218 0
M  V30 440 N 44.343 -0.763751 1.37857 0
M  V30 441 C 45.589 -1.52483 1.33704 0
M  V30 442 C 45.922 -1.94051 -0.0759612 0
M  V30 443 O 45.197 -1.64675 -1.03501 0
M  V30 444 C 45.48 -2.78441 2.28348 0
M  V30 445 C 45.333 -2.43075 3.78463 0
M  V30 446 C 46.652 -3.80415 2.21298 0
M  V30 447 H 43.771 -0.553169 0.487005 0
M  V30 448 H 46.413 -0.875562 1.68624 0
M  V30 449 H 44.563 -3.33842 1.987 0
M  V30 450 H 46.235 -1.93527 4.18742 0
M  V30 451 H 44.478 -1.75666 3.96641 0
M  V30 452 H 45.149 -3.33149 4.40132 0
M  V30 453 H 47.625 -3.34527 2.47449 0
M  V30 454 H 46.501 -4.66257 2.89647 0
M  V30 455 H 46.762 -4.25262 1.20849 0
M  V30 456 N 45.8211 -1.22559 -0.990812 0
M  V30 457 C 46.7311 -1.01394 -2.11557 0
M  V30 458 C 47.7471 0.0383962 -1.73958 0
M  V30 459 O 48.9231 -0.154787 -2.00804 0
M  V30 460 C 45.9881 -0.596569 -3.41529 0
M  V30 461 C 45.0491 -1.72276 -3.93217 0
M  V30 462 C 44.2821 -1.32521 -5.16985 0
M  V30 463 O 44.5051 -0.204909 -5.70032 0
M  V30 464 O 43.4391 -2.14247 -5.62478 0
M  V30 465 H 47.2651 -1.95633 -2.32296 0
M  V30 466 H 44.8501 -1.01172 -1.0993 0
M  V30 467 H 46.7321 -0.374263 -4.19735 0
M  V30 468 H 45.4071 0.316939 -3.22145 0
M  V30 469 H 44.3141 -1.99961 -3.16174 0
M  V30 470 H 45.6471 -2.61421 -4.17037 0
M  V30 471 N 47.2992 1.18797 -1.03562 0
M  V30 472 C 48.2622 2.20464 -0.626769 0
M  V30 473 C 49.2622 1.57721 0.313173 0
M  V30 474 O 50.4522 1.73917 0.0992615 0
M  V30 475 C 47.5842 3.40802 0.0818498 0
M  V30 476 H 48.7772 2.58149 -1.5264 0
M  V30 477 H 46.3302 1.32593 -0.827578 0
M  V30 478 H 47.0652 3.08642 0.995518 0
M  V30 479 H 46.8502 3.8758 -0.593652 0
M  V30 480 H 48.3402 4.16092 0.354584 0
M  V30 481 N 48.7773 0.814389 1.34928 0
M  V30 482 C 49.7093 0.187834 2.28429 0
M  V30 483 C 50.7223 -0.617374 1.5064 0
M  V30 484 O 51.9113 -0.448454 1.72775 0
M  V30 485 C 49.0113 -0.755962 3.30361 0
M  V30 486 C 48.1843 0.00456686 4.374 0
M  V30 487 C 47.2433 -0.858876 5.19143 0
M  V30 488 O 46.2693 -0.306968 5.68372 0
M  V30 489 N 47.4713 -2.17988 5.38016 0
M  V30 490 H 50.2363 0.991105 2.82838 0
M  V30 491 H 47.7973 0.670561 1.4736 0
M  V30 492 H 49.7893 -1.338 3.81942 0
M  V30 493 H 48.3593 -1.46001 2.7641 0
M  V30 494 H 47.5793 0.767865 3.86649 0
M  V30 495 H 48.8673 0.528422 5.06049 0
M  V30 496 H 48.2653 -2.65212 4.99679 0
M  V30 497 H 46.8223 -2.71098 5.92747 0
M  V30 498 N 50.2554 -1.46986 0.568584 0
M  V30 499 C 51.6714 -1.57946 0.229189 0
M  V30 500 C 51.8714 -1.56567 -1.26843 0
M  V30 501 O 50.9274 -1.47511 -2.04931 0
M  V30 502 C 52.2404 -2.87963 0.865909 0
M  V30 503 C 53.7884 -3.01568 0.838188 0
M  V30 504 C 54.2634 -4.34301 1.45419 0
M  V30 505 N 55.7544 -4.40965 1.41788 0
M  V30 506 C 56.4894 -5.42256 1.86403 0
M  V30 507 N 55.9854 -6.50297 2.38926 0
M  V30 508 N 57.7784 -5.3337 1.77405 0
M  V30 509 H 49.9294 -1.46126 1.54146 0
M  V30 510 H 52.1924 -0.696156 0.643484 0
M  V30 511 H 51.8984 -2.94742 1.91886 0
M  V30 512 H 51.7724 -3.75423 0.365687 0
M  V30 513 H 54.1594 -2.94379 -0.206106 0
M  V30 514 H 54.2404 -2.1562 1.37629 0
M  V30 515 H 53.8844 -4.42247 2.49761 0
M  V30 516 H 53.8144 -5.19 0.891435 0
M  V30 517 H 56.3054 -3.63484 1.03381 0
M  V30 518 H 56.6184 -7.23777 2.70863 0
M  V30 519 H 54.9634 -6.51155 2.42944 0
M  V30 520 H 58.1544 -4.47865 1.3614 0
M  V30 521 H 58.3274 -6.12169 2.12492 0
M  V30 522 N 51.7335 -0.305618 -1.54608 0
M  V30 523 C 53.1495 0.0476228 -1.59529 0
M  V30 524 C 53.3495 1.52025 -1.32252 0
M  V30 525 O 52.4055 2.27368 -1.09818 0
M  V30 526 C 53.7185 -0.354471 -2.98603 0
M  V30 527 C 55.2665 -0.303622 -3.11524 0
M  V30 528 C 55.7415 -0.680608 -4.52915 0
M  V30 529 N 57.2325 -0.63332 -4.5885 0
M  V30 530 C 57.9675 -0.897432 -5.66334 0
M  V30 531 N 57.4635 -1.22775 -6.81834 0
M  V30 532 N 59.2565 -0.824186 -5.56025 0
M  V30 533 H 51.4075 -1.2653 -1.70599 0
M  V30 534 H 53.6705 -0.513291 -0.797017 0
M  V30 535 H 53.3765 -1.3798 -3.23503 0
M  V30 536 H 53.2505 0.289568 -3.76087 0
M  V30 537 H 55.6375 0.712472 -2.8637 0
M  V30 538 H 55.7185 -0.982348 -2.36185 0
M  V30 539 H 55.3625 -1.69453 -4.78799 0
M  V30 540 H 55.2925 0.0202385 -5.26596 0
M  V30 541 H 57.7835 -0.389138 -3.75891 0
M  V30 542 H 58.0965 -1.41513 -7.59733 0
M  V30 543 H 56.4415 -1.26583 -6.83375 0
M  V30 544 H 59.6325 -0.565748 -4.64669 0
M  V30 545 H 59.8055 -1.03338 -6.39707 0
M  V30 546 N 53.2116 1.57565 -0.0334293 0
M  V30 547 C 54.4576 1.92262 0.645226 0
M  V30 548 C 54.7906 0.910543 1.71531 0
M  V30 549 O 54.0656 -0.066099 1.94388 0
M  V30 550 C 54.3486 3.37422 1.2577 0
M  V30 551 C 54.2016 4.49369 0.196891 0
M  V30 552 C 55.5206 3.82628 2.17449 0
M  V30 553 H 52.6396 0.699171 0.233085 0
M  V30 554 H 55.2816 1.89779 -0.0915694 0
M  V30 555 H 53.4316 3.39669 1.88566 0
M  V30 556 H 55.1036 4.59254 -0.433962 0
M  V30 557 H 53.3466 4.31168 -0.477137 0
M  V30 558 H 54.0176 5.47978 0.665124 0
M  V30 559 H 56.4936 3.82145 1.64634 0
M  V30 560 H 55.3696 4.84883 2.57254 0
M  V30 561 H 55.6306 3.18376 3.0674 0
M  V30 562 N 54.6897 -0.239769 1.55765 0
M  V30 563 C 55.5997 -1.31831 1.94056 0
M  V30 564 C 56.6157 -1.52275 0.841925 0
M  V30 565 O 57.7917 -1.65759 1.14394 0
M  V30 566 C 54.8567 -2.65156 2.23368 0
M  V30 567 C 53.9177 -2.53173 3.46701 0
M  V30 568 C 53.1507 -3.8014 3.74606 0
M  V30 569 O 53.3737 -4.82343 3.04469 0
M  V30 570 O 52.3077 -3.78344 4.68123 0
M  V30 571 H 56.1337 -1.02347 2.85935 0
M  V30 572 H 53.7187 -0.441123 1.42739 0
M  V30 573 H 55.6007 -3.43929 2.43497 0
M  V30 574 H 54.2757 -2.94358 1.34666 0
M  V30 575 H 53.1827 -1.72662 3.31871 0
M  V30 576 H 54.5157 -2.28915 4.35728 0
M  V30 577 N 56.1678 -1.49265 -0.50573 0
M  V30 578 C 57.1308 -1.65075 -1.59006 0
M  V30 579 C 58.1308 -0.522768 -1.52065 0
M  V30 580 O 59.3208 -0.789117 -1.55302 0
M  V30 581 C 56.4528 -1.64369 -2.98656 0
M  V30 582 H 57.6458 -2.61784 -1.46319 0
M  V30 583 H 55.1988 -1.38226 -0.729616 0
M  V30 584 H 55.9338 -0.692272 -3.16825 0
M  V30 585 H 55.7188 -2.46282 -3.05103 0
M  V30 586 H 57.2088 -1.78674 -3.77446 0
M  V30 587 N 57.6459 0.756429 -1.3826 0
M  V30 588 C 58.5559 1.9009 -1.37488 0
M  V30 589 C 59.5719 1.71855 -0.272366 0
M  V30 590 O 60.7479 1.94827 -0.510318 0
M  V30 591 C 57.8129 3.25421 -1.19592 0
M  V30 592 C 56.8739 3.56202 -2.39622 0
M  V30 593 C 56.1069 4.85075 -2.2257 0
M  V30 594 O 56.3299 5.57246 -1.21793 0
M  V30 595 O 55.2639 5.15269 -3.11098 0
M  V30 596 H 59.0899 1.93695 -2.33914 0
M  V30 597 H 56.6749 0.901313 -1.1915 0
M  V30 598 H 58.5569 4.06337 -1.11661 0
M  V30 599 H 57.2319 3.22634 -0.262486 0
M  V30 600 H 56.1389 2.75458 -2.53128 0
M  V30 601 H 57.4719 3.63747 -3.31586 0
M  V30 602 N 59.124 1.23083 0.984299 0
M  V30 603 C 60.054 1.03292 2.09411 0
M  V30 604 C 61.035 -0.048923 1.7003 0
M  V30 605 O 62.22 0.114967 1.93859 0
M  V30 606 C 59.35 0.619155 3.41736 0
M  V30 607 C 58.304 1.64791 3.95004 0
M  V30 608 C 57.63 1.0897 5.23478 0
M  V30 609 C 58.93 3.03999 4.24714 0
M  V30 610 H 60.624 1.96119 2.26225 0
M  V30 611 H 58.17 0.944344 1.08711 0
M  V30 612 H 60.123 0.467777 4.18796 0
M  V30 613 H 58.847 -0.344786 3.24775 0
M  V30 614 H 57.506 1.78721 3.20085 0
M  V30 615 H 57.154 0.11686 5.02864 0
M  V30 616 H 56.854 1.77704 5.60085 0
M  V30 617 H 58.378 0.950093 6.03163 0
M  V30 618 H 59.792 2.93393 4.92538 0
M  V30 619 H 58.189 3.69936 4.72512 0
M  V30 620 H 59.259 3.53285 3.32142 0
M  V30 621 N 60.6021 -1.18246 1.0419 0
M  V30 622 C 62.0131 -1.69914 0.773698 0
M  V30 623 C 62.3641 -1.83085 -0.705297 0
M  V30 624 O 61.4891 -1.51123 -1.5489 0
M  V30 625 C 62.0841 -3.08619 1.39784 0
M  V30 626 C 60.6431 -3.57494 1.17792 0
M  V30 627 C 59.7901 -2.34013 1.48773 0
M  V30 628 H 62.7411 -1.02904 1.20816 0
M  V30 629 H 62.7621 -3.71958 0.801714 0
M  V30 630 H 62.2741 -2.99001 2.47426 0
M  V30 631 H 60.3751 -3.72406 0.120295 0
M  V30 632 H 60.4881 -4.40852 1.87581 0
M  V30 633 H 58.8521 -2.37986 0.907463 0
M  V30 634 H 59.6351 -2.27013 2.57527 0
M  V30 635 N 62.0802 -0.821533 -1.34494 0
M  V30 636 C 63.3272 -0.408946 -1.98328 0
M  V30 637 C 63.6552 1.02764 -1.65136 0
M  V30 638 O 62.9102 1.73026 -0.914349 0
M  V30 639 C 63.2092 -0.556512 -3.53041 0
M  V30 640 C 62.8752 -1.95861 -4.0614 0
M  V30 641 C 61.5372 -2.34217 -4.20352 0
M  V30 642 C 63.8892 -2.87523 -4.34718 0
M  V30 643 C 61.2172 -3.63572 -4.6047 0
M  V30 644 C 63.5692 -4.1634 -4.76281 0
M  V30 645 C 62.2332 -4.54675 -4.88699 0
M  V30 646 H 61.5032 -0.149644 -0.725732 0
M  V30 647 H 64.1502 -1.04521 -1.6046 0
M  V30 648 H 62.4552 0.163148 -3.9146 0
M  V30 649 H 64.1522 -0.217826 -4.00408 0
M  V30 650 H 60.7422 -1.65066 -3.95539 0
M  V30 651 H 64.9262 -2.59133 -4.23277 0
M  V30 652 H 60.1822 -3.93101 -4.68275 0
M  V30 653 H 64.3562 -4.87455 -4.97354 0
M  V30 654 H 61.9832 -5.54959 -5.19542 0
M  V30 655 N 63.5583 1.46682 -0.576371 0
M  V30 656 C 64.5213 2.28707 0.150239 0
M  V30 657 C 65.5213 1.38035 0.824794 0
M  V30 658 O 66.7113 1.60476 0.677719 0
M  V30 659 C 63.8433 3.18248 1.22192 0
M  V30 660 H 65.0363 2.94423 -0.570521 0
M  V30 661 H 62.5893 1.52688 -0.334078 0
M  V30 662 H 63.3243 2.57265 1.97447 0
M  V30 663 H 63.1093 3.85 0.742812 0
M  V30 664 H 64.5993 3.80001 1.73172 0
M  V30 665 N 65.0364 0.313813 1.54444 0
M  V30 666 C 66.3134 -0.345447 1.92525 0
M  V30 667 C 66.6934 -1.70667 1.24242 0
M  V30 668 O 66.0414 -2.25273 0.382654 0
M  V30 669 C 66.2514 -0.44737 3.46121 0
M  V30 670 C 67.5994 -0.712238 4.18584 0
M  V30 671 O 68.6234 -0.530678 3.52225 0
M  V30 672 O 67.4824 -1.06183 5.36085 0
M  V30 673 H 64.5764 -0.195407 0.803583 0
M  V30 674 H 67.1224 0.362813 1.65776 0
M  V30 675 H 65.8944 0.509043 3.87975 0
M  V30 676 H 65.5174 -1.20359 3.78945 0
M  V30 677 N 66.5145 -1.57545 0.0417849 0
M  V30 678 C 67.9305 -1.56467 -0.314704 0
M  V30 679 C 68.1305 -1.04859 -1.72066 0
M  V30 680 O 67.1865 -0.700983 -2.42575 0
M  V30 681 C 68.4995 -3.00317 -0.15174 0
M  V30 682 C 70.0475 -3.12201 -0.223553 0
M  V30 683 C 70.5225 -4.57913 -0.0892295 0
M  V30 684 N 72.0135 -4.6297 -0.145808 0
M  V30 685 C 72.7485 -5.73362 -0.0658459 0
M  V30 686 N 72.2445 -6.92769 0.0659282 0
M  V30 687 N 74.0375 -5.6197 -0.12075 0
M  V30 688 H 66.1885 -1.89416 0.961014 0
M  V30 689 H 68.4515 -0.871862 0.372237 0
M  V30 690 H 68.1575 -3.42073 0.817254 0
M  V30 691 H 68.0315 -3.65892 -0.916692 0
M  V30 692 H 70.4185 -2.70349 -1.18301 0
M  V30 693 H 70.4995 -2.49323 0.571994 0
M  V30 694 H 70.1435 -5.00448 0.866867 0
M  V30 695 H 70.0735 -5.18786 -0.903802 0
M  V30 696 H 72.5645 -3.7709 -0.247286 0
M  V30 697 H 72.8775 -7.72707 0.119905 0
M  V30 698 H 71.2225 -6.94927 0.100885 0
M  V30 699 H 74.4135 -4.67572 -0.222187 0
M  V30 700 H 74.5865 -6.47977 -0.0549735 0
M  V30 701 N 67.9926 0.231505 -1.5589 0
M  V30 702 C 68.9556 1.27028 -1.90779 0
M  V30 703 C 69.9556 1.40308 -0.785507 0
M  V30 704 O 71.1456 1.38744 -1.05336 0
M  V30 705 C 68.2776 2.64566 -2.14983 0
M  V30 706 H 69.4706 0.973017 -2.83677 0
M  V30 707 H 67.0236 0.471486 -1.49019 0
M  V30 708 H 67.7586 2.99406 -1.24604 0
M  V30 709 H 67.5436 2.56305 -2.96732 0
M  V30 710 H 69.0336 3.39543 -2.43105 0
M  V30 711 N 69.4707 1.49531 0.497807 0
M  V30 712 C 70.7477 1.49682 1.25915 0
M  V30 713 C 71.1277 0.226339 2.09883 0
M  V30 714 O 70.4757 -0.791189 2.14365 0
M  V30 715 C 70.6857 2.77755 2.11313 0
M  V30 716 C 72.0337 3.27371 2.70395 0
M  V30 717 O 73.0577 2.78894 2.21578 0
M  V30 718 O 71.9167 4.11808 3.59272 0
M  V30 719 H 69.0107 0.599228 0.56996 0
M  V30 720 H 71.5567 1.61798 0.511816 0
M  V30 721 H 70.3287 3.61713 1.49264 0
M  V30 722 H 69.9517 2.68515 2.93233 0
M  V30 723 N 70.9488 -0.749086 1.3866 0
M  V30 724 C 72.1958 -1.50833 1.35114 0
M  V30 725 C 72.5238 -1.94415 -0.0574049 0
M  V30 726 O 71.7788 -1.66065 -1.03541 0
M  V30 727 C 72.0778 -2.7712 2.25697 0
M  V30 728 C 71.7438 -2.52477 3.73585 0
M  V30 729 C 70.4058 -2.45466 4.13884 0
M  V30 730 C 72.7578 -2.31066 4.67181 0
M  V30 731 C 70.0858 -2.15064 5.45861 0
M  V30 732 C 72.4378 -2.02183 5.9942 0
M  V30 733 C 71.1018 -1.93631 6.38798 0
M  V30 734 H 70.3718 -0.551936 0.494416 0
M  V30 735 H 73.0188 -0.860979 1.71054 0
M  V30 736 H 71.3238 -3.46528 1.82827 0
M  V30 737 H 73.0208 -3.35096 2.20254 0
M  V30 738 H 69.6108 -2.58807 3.41638 0
M  V30 739 H 73.7948 -2.35459 4.3689 0
M  V30 740 H 69.0508 -2.06954 5.75308 0
M  V30 741 H 73.2248 -1.8462 6.71482 0
M  V30 742 H 70.8518 -1.69839 7.40985 0
M  V30 743 N 72.4269 -1.23603 -0.977757 0
M  V30 744 C 73.3369 -1.03632 -2.1047 0
M  V30 745 C 74.3529 0.0199435 -1.73989 0
M  V30 746 O 75.5289 -0.176076 -2.00629 0
M  V30 747 C 72.5939 -0.63276 -3.40877 0
M  V30 748 C 71.6549 -1.76437 -3.91367 0
M  V30 749 C 70.8879 -1.37997 -5.15551 0
M  V30 750 O 71.1109 -0.265357 -5.69782 0
M  V30 751 O 70.0449 -2.20201 -5.60174 0
M  V30 752 H 73.8709 -1.98086 -2.30208 0
M  V30 753 H 71.4559 -1.02332 -1.08851 0
M  V30 754 H 73.3379 -0.418761 -4.19314 0
M  V30 755 H 72.0129 0.282754 -3.22463 0
M  V30 756 H 70.9199 -2.03304 -3.14036 0
M  V30 757 H 72.2529 -2.6583 -4.14241 0
M  V30 758 N 73.905 1.17692 -1.04816 0
M  V30 759 C 75.321 1.39863 -0.768794 0
M  V30 760 C 75.521 1.91118 0.638451 0
M  V30 761 O 74.577 2.10036 1.40146 0
M  V30 762 C 75.89 2.39274 -1.82122 0
M  V30 763 C 77.438 2.52987 -1.843 0
M  V30 764 C 77.913 3.55669 -2.88555 0
M  V30 765 N 79.404 3.63183 -2.87493 0
M  V30 766 C 80.139 4.42381 -3.64811 0
M  V30 767 N 79.635 5.25125 -4.51903 0
M  V30 768 N 81.428 4.37217 -3.53267 0
M  V30 769 H 73.579 0.82752 -1.95617 0
M  V30 770 H 75.842 0.426123 -0.846831 0
M  V30 771 H 75.548 2.08678 -2.83102 0
M  V30 772 H 75.422 3.38725 -1.65967 0
M  V30 773 H 77.809 2.82896 -0.839869 0
M  V30 774 H 77.89 1.53623 -2.04532 0
M  V30 775 H 77.534 3.26499 -3.89051 0
M  V30 776 H 77.464 4.54728 -2.65575 0
M  V30 777 H 79.955 3.04103 -2.24343 0
M  V30 778 H 80.268 5.82728 -5.07591 0
M  V30 779 H 78.613 5.24519 -4.55966 0
M  V30 780 H 81.804 3.71626 -2.84625 0
M  V30 781 H 81.977 4.98696 -4.13771 0
M  V30 782 N 75.3831 0.828654 1.34056 0
M  V30 783 C 76.3461 0.259927 2.27721 0
M  V30 784 C 77.3461 -0.565478 1.50529 0
M  V30 785 O 78.5361 -0.38075 1.69988 0
M  V30 786 C 75.6681 -0.634944 3.34935 0
M  V30 787 H 76.8611 1.0863 2.79534 0
M  V30 788 H 74.4141 0.600951 1.44285 0
M  V30 789 H 75.1491 -1.48416 2.88346 0
M  V30 790 H 74.9341 -0.0444999 3.92075 0
M  V30 791 H 76.4241 -1.02648 4.04788 0
M  V30 792 N 76.8612 -1.46375 0.584142 0
M  V30 793 C 78.1382 -1.956 0.0033388 0
M  V30 794 C 78.5182 -1.52679 -1.45782 0
M  V30 795 O 77.8662 -0.77816 -2.14842 0
M  V30 796 C 78.0762 -3.48551 0.176891 0
M  V30 797 C 79.4242 -4.24576 0.0454609 0
M  V30 798 O 80.4482 -3.56043 0.105801 0
M  V30 799 O 79.3072 -5.46427 -0.0890376 0
M  V30 800 H 76.4012 -0.825547 -0.0490066 0
M  V30 801 H 78.9472 -1.56652 0.65256 0
M  V30 802 H 77.7192 -3.72683 1.1926 0
M  V30 803 H 77.3422 -3.94332 -0.508695 0
M  V30 804 N 78.3393 -0.321999 -1.54275 0
M  V30 805 C 79.7553 0.0306999 -1.5957 0
M  V30 806 C 79.9553 1.50614 -1.33857 0
M  V30 807 O 79.0113 2.2619 -1.12223 0
M  V30 808 C 80.3243 -0.386122 -2.98211 0
M  V30 809 C 81.8723 -0.336647 -3.11184 0
M  V30 810 C 82.3473 -0.728607 -4.52167 0
M  V30 811 N 83.8383 -0.681952 -4.58152 0
M  V30 812 C 84.5733 -0.957449 -5.6535 0
M  V30 813 N 84.0693 -1.3 -6.80494 0
M  V30 814 N 85.8623 -0.883113 -5.55119 0
M  V30 815 H 78.0133 -1.28332 -1.69247 0
M  V30 816 H 80.2763 -0.521716 -0.791528 0
M  V30 817 H 79.9823 -1.41404 -3.22022 0
M  V30 818 H 79.8563 0.249662 -3.76373 0
M  V30 819 H 82.2433 0.682058 -2.8711 0
M  V30 820 H 82.3243 -1.00734 -2.3513 0
M  V30 821 H 81.9683 -1.74522 -4.76974 0
M  V30 822 H 81.8983 -0.0356152 -5.26588 0
M  V30 823 H 84.3893 -0.428985 -3.75457 0
M  V30 824 H 84.7023 -1.49563 -7.58189 0
M  V30 825 H 83.0473 -1.33824 -6.81994 0
M  V30 826 H 86.2383 -0.615001 -4.64042 0
M  V30 827 H 86.4113 -1.10118 -6.38575 0
M  V30 828 N 79.8174 1.5752 -0.0501392 0
M  V30 829 C 81.0654 1.9227 0.622642 0
M  V30 830 C 81.3864 0.929083 1.71444 0
M  V30 831 O 80.6564 -0.0262186 1.95882 0
M  V30 832 H 79.2364 0.709739 0.232981 0
M  V30 833 H 81.8984 1.94628 -0.102898 0
M  V30 834 H 80.9944 2.93479 1.06191 0
M  V30 835 N 81.2955 -0.223234 1.56011 0
M  V30 836 C 82.2255 -1.27988 1.95298 0
M  V30 837 C 83.2065 -1.48976 0.820979 0
M  V30 838 O 84.3915 -1.61188 1.08315 0
M  V30 839 C 81.5215 -2.63 2.26822 0
M  V30 840 C 80.4755 -2.56671 3.42497 0
M  V30 841 C 79.8015 -3.95697 3.59622 0
M  V30 842 C 81.1015 -2.11601 4.77517 0
M  V30 843 H 82.7955 -0.953525 2.8381 0
M  V30 844 H 80.3415 -0.457244 1.36548 0
M  V30 845 H 82.2945 -3.37077 2.52898 0
M  V30 846 H 81.0185 -2.9732 1.35161 0
M  V30 847 H 79.6775 -1.85051 3.16467 0
M  V30 848 H 79.3255 -4.27322 2.6534 0
M  V30 849 H 79.0255 -3.92345 4.37424 0
M  V30 850 H 80.5495 -4.71438 3.88044 0
M  V30 851 H 81.9635 -2.7542 5.02809 0
M  V30 852 H 80.3605 -2.19311 5.5859 0
M  V30 853 H 81.4305 -1.06824 4.72987 0
M  V30 854 N 82.7736 -1.49793 -0.48987 0
M  V30 855 C 84.0226 -1.59085 -1.23995 0
M  V30 856 C 84.3356 -0.287907 -1.9347 0
M  V30 857 O 85.5416 -0.259506 -2.70257 0
M  V30 858 C 83.9976 -2.80736 -2.252 0
M  V30 859 C 83.6056 -4.17833 -1.61614 0
M  V30 860 C 85.3496 -2.99364 -3.00967 0
M  V30 861 C 83.2566 -5.30693 -2.60996 0
M  V30 862 H 82.1866 -0.592372 -0.466488 0
M  V30 863 H 84.8376 -1.76197 -0.51252 0
M  V30 864 H 83.2196 -2.57142 -3.01154 0
M  V30 865 H 84.3936 -4.51608 -0.915774 0
M  V30 866 H 82.7086 -4.04656 -0.981977 0
M  V30 867 H 85.3056 -3.80851 -3.75308 0
M  V30 868 H 85.6486 -2.10356 -3.59244 0
M  V30 869 H 86.1816 -3.2305 -2.32128 0
M  V30 870 H 82.9206 -6.21796 -2.07485 0
M  V30 871 H 82.4406 -5.01359 -3.2924 0
M  V30 872 H 84.1196 -5.6049 -3.23202 0
M  V30 873 N 84.2517 0.741722 -1.39055 0
M  V30 874 C 85.6677 1.04638 -1.20512 0
M  V30 875 C 85.8677 2.01405 -0.0620218 0
M  V30 876 O 84.9237 2.45547 0.588457 0
M  V30 877 C 86.2367 1.6151 -2.53643 0
M  V30 878 C 87.7847 1.73623 -2.6043 0
M  V30 879 C 88.2597 2.33906 -3.93767 0
M  V30 880 N 89.7507 2.41323 -3.9537 0
M  V30 881 C 90.4857 2.88888 -4.95309 0
M  V30 882 N 89.9817 3.36401 -6.05645 0
M  V30 883 N 91.7747 2.88037 -4.82692 0
M  V30 884 H 83.9257 0.0998155 -2.12165 0
M  V30 885 H 86.1887 0.106907 -0.941953 0
M  V30 886 H 85.8947 0.978739 -3.37807 0
M  V30 887 H 85.7687 2.60411 -2.72885 0
M  V30 888 H 88.1557 2.36384 -1.76655 0
M  V30 889 H 88.2367 0.733945 -2.45045 0
M  V30 890 H 87.8807 1.71776 -4.7797 0
M  V30 891 H 87.8107 3.34799 -4.06469 0
M  V30 892 H 90.3017 2.07734 -3.15682 0
M  V30 893 H 90.6147 3.71186 -6.77821 0
M  V30 894 H 88.9597 3.34427 -6.09248 0
M  V30 895 H 92.1507 2.50237 -3.95599 0
M  V30 896 H 92.3237 3.24792 -5.60726 0
M  V30 897 N 85.7298 1.2412 0.971189 0
M  V30 898 C 87.1458 1.00584 1.23916 0
M  V30 899 C 87.3458 -0.287481 1.99439 0
M  V30 900 O 86.4018 -1.00454 2.31658 0
M  V30 901 C 87.7148 2.21864 2.0297 0
M  V30 902 C 89.2628 2.26452 2.16076 0
M  V30 903 C 89.7378 3.47343 2.98524 0
M  V30 904 N 91.2288 3.47639 3.06107 0
M  V30 905 C 91.9638 4.37837 3.70251 0
M  V30 906 N 91.4598 5.38286 4.36142 0
M  V30 907 N 93.2528 4.25558 3.67228 0
M  V30 908 H 85.4038 2.07236 0.465499 0
M  V30 909 H 87.6668 0.909236 0.268315 0
M  V30 910 H 87.3728 3.15771 1.54861 0
M  V30 911 H 87.2468 2.23698 3.03709 0
M  V30 912 H 89.6338 1.33078 2.6339 0
M  V30 913 H 89.7148 2.28645 1.14696 0
M  V30 914 H 89.3588 4.41029 2.51905 0
M  V30 915 H 89.2888 3.42393 4.00093 0
M  V30 916 H 91.7798 2.74966 2.59233 0
M  V30 917 H 92.0928 6.03352 4.82894 0
M  V30 918 H 90.4378 5.42176 4.34822 0
M  V30 919 H 93.6288 3.46322 3.14927 0
M  V30 920 H 93.8018 4.96054 4.16935 0
M  V30 921 N 87.2079 -1.17134 1.05439 0
M  V30 922 C 88.6189 -1.69084 0.791676 0
M  V30 923 C 88.9699 -1.83822 -0.685839 0
M  V30 924 O 88.0949 -1.52757 -1.53278 0
M  V30 925 C 88.6899 -3.07119 1.4305 0
M  V30 926 C 87.2489 -3.56225 1.21577 0
M  V30 927 C 86.3959 -2.32421 1.51247 0
M  V30 928 H 89.3469 -1.01617 1.219 0
M  V30 929 H 89.3679 -3.71087 0.84112 0
M  V30 930 H 88.8799 -2.9636 2.50584 0
M  V30 931 H 86.9809 -3.72257 0.159787 0
M  V30 932 H 87.0939 -4.38837 1.92246 0
M  V30 933 H 85.4579 -2.3701 0.932653 0
M  V30 934 H 86.2409 -2.24268 2.5992 0
M  V30 935 N 88.686 -0.835752 -1.33615 0
M  V30 936 C 89.596 -0.269088 -2.33052 0
M  V30 937 C 90.612 0.603251 -1.63208 0
M  V30 938 O 91.788 0.508112 -1.94885 0
M  V30 939 C 88.853 0.549091 -3.42324 0
M  V30 940 C 87.914 -0.347156 -4.27894 0
M  V30 941 C 87.147 0.43207 -5.31948 0
M  V30 942 O 87.37 1.66409 -5.45586 0
M  V30 943 O 86.304 -0.192298 -6.01593 0
M  V30 944 H 90.13 -1.09243 -2.83372 0
M  V30 945 H 87.715 -0.598198 -1.36901 0
M  V30 946 H 89.597 1.01414 -4.09015 0
M  V30 947 H 88.272 1.34955 -2.94226 0
M  V30 948 H 87.179 -0.859979 -3.64081 0
M  V30 949 H 88.512 -1.1123 -4.79467 0
M  V30 950 N 90.1641 1.46063 -0.591896 0
M  V30 951 C 91.5801 1.57561 -0.254288 0
M  V30 952 C 91.7801 1.58565 1.24336 0
M  V30 953 O 90.8361 1.50753 2.02558 0
M  V30 954 C 92.1491 2.86549 -0.911611 0
M  V30 955 C 93.6971 3.00197 -0.886059 0
M  V30 956 C 94.1721 4.31933 -1.5231 0
M  V30 957 N 95.6631 4.38654 -1.48786 0
M  V30 958 C 96.3981 5.39222 -1.95006 0
M  V30 959 N 95.8941 6.46414 -2.49241 0
M  V30 960 N 97.6871 5.3048 -1.85868 0
M  V30 961 H 89.8381 1.43655 -1.56451 0
M  V30 962 H 92.1011 0.68583 -0.654478 0
M  V30 963 H 91.8071 2.91651 -1.96551 0
M  V30 964 H 91.6811 3.74794 -0.425368 0
M  V30 965 H 94.0681 2.9467 0.159246 0
M  V30 966 H 94.1491 2.13403 -1.41041 0
M  V30 967 H 93.7931 4.38217 -2.56765 0
M  V30 968 H 93.7231 5.17516 -0.973891 0
M  V30 969 H 96.2141 3.61793 -1.09151 0
M  V30 970 H 96.5271 7.19376 -2.82344 0
M  V30 971 H 94.8721 6.47208 -2.53272 0
M  V30 972 H 98.0631 4.45643 -1.43248 0
M  V30 973 H 98.2361 6.08711 -2.22204 0
M  V30 974 N 91.6422 0.330177 1.54103 0
M  V30 975 C 92.5722 -0.525353 2.27513 0
M  V30 976 C 93.5532 -1.11383 1.2856 0
M  V30 977 O 94.7382 -1.13773 1.57383 0
M  V30 978 C 91.8682 -1.6831 3.03791 0
M  V30 979 C 90.8222 -1.2236 4.10137 0
M  V30 980 C 90.1482 -2.46882 4.74293 0
M  V30 981 C 91.4482 -0.333697 5.21233 0
M  V30 982 H 93.1422 0.087013 2.99274 0
M  V30 983 H 90.6882 0.0432893 1.43935 0
M  V30 984 H 92.6412 -2.28795 3.5388 0
M  V30 985 H 91.3652 -2.32216 2.29659 0
M  V30 986 H 90.0242 -0.64165 3.60941 0
M  V30 987 H 89.6722 -3.09165 3.96769 0
M  V30 988 H 89.3722 -2.16825 5.46133 0
M  V30 989 H 90.8962 -3.08117 5.27159 0
M  V30 990 H 92.3102 -0.845013 5.67038 0
M  V30 991 H 90.7072 -0.125612 5.99969 0
M  V30 992 H 91.7772 0.633724 4.80741 0
M  V30 993 N 93.1203 -1.57491 0.0584922 0
M  V30 994 C 94.0503 -2.14988 -0.911178 0
M  V30 995 C 95.0313 -1.07343 -1.31952 0
M  V30 996 O 96.2163 -1.35318 -1.39294 0
M  V30 997 C 93.3463 -2.70078 -2.18347 0
M  V30 998 C 92.3003 -3.82771 -1.91495 0
M  V30 999 C 91.6263 -4.24408 -3.25241 0
M  V30 1000 C 92.9263 -5.07592 -1.23075 0
M  V30 1001 H 94.6203 -2.96263 -0.432246 0
M  V30 1002 H 92.1663 -1.42512 -0.206469 0
M  V30 1003 H 94.1193 -3.08943 -2.86587 0
M  V30 1004 H 92.8433 -1.86005 -2.68458 0
M  V30 1005 H 91.5023 -3.44389 -1.25664 0
M  V30 1006 H 91.1503 -3.37275 -3.73168 0
M  V30 1007 H 90.8503 -5.00366 -3.08071 0
M  V30 1008 H 92.3743 -4.65879 -3.94701 0
M  V30 1009 H 93.7883 -5.43857 -1.81362 0
M  V30 1010 H 92.1853 -5.88741 -1.16207 0
M  V30 1011 H 93.2553 -4.84454 -0.207847 0
M  V30 1012 N 94.5984 0.214957 -1.56127 0
M  V30 1013 C 95.8474 0.936451 -1.78643 0
M  V30 1014 C 96.1604 1.85237 -0.628229 0
M  V30 1015 O 97.3664 2.613 -0.737186 0
M  V30 1016 C 95.8224 1.7154 -3.16389 0
M  V30 1017 C 95.4304 0.845299 -4.39953 0
M  V30 1018 C 97.1744 2.42772 -3.48227 0
M  V30 1019 C 95.0814 1.62198 -5.68723 0
M  V30 1020 H 94.0114 0.353401 -0.666051 0
M  V30 1021 H 96.6624 0.190169 -1.82512 0
M  V30 1022 H 95.0444 2.50484 -3.06715 0
M  V30 1023 H 96.2184 0.0959353 -4.607 0
M  V30 1024 H 94.5334 0.244789 -4.1568 0
M  V30 1025 H 97.1304 3.01394 -4.41663 0
M  V30 1026 H 97.4734 3.15984 -2.71035 0
M  V30 1027 H 98.0064 1.70813 -3.5926 0
M  V30 1028 H 94.7454 0.933011 -6.48826 0
M  V30 1029 H 94.2654 2.34579 -5.52026 0
M  V30 1030 H 95.9444 2.18095 -6.09133 0
M  V30 1031 N 96.0765 1.50051 0.48192 0
M  V30 1032 C 97.4925 1.37237 0.814756 0
M  V30 1033 C 97.6925 0.420109 1.97072 0
M  V30 1034 O 96.7485 -0.141246 2.52105 0
M  V30 1035 C 98.0615 2.78375 1.13701 0
M  V30 1036 C 99.6095 2.87213 1.2441 0
M  V30 1037 C 100.084 4.29161 1.59954 0
M  V30 1038 N 101.575 4.32061 1.66967 0
M  V30 1039 C 102.31 5.38879 1.95952 0
M  V30 1040 N 101.806 6.55918 2.23031 0
M  V30 1041 N 103.599 5.26312 1.97363 0
M  V30 1042 H 95.7505 2.10546 -0.28005 0
M  V30 1043 H 98.0135 0.945921 -0.0627454 0
M  V30 1044 H 97.7195 3.49845 0.360787 0
M  V30 1045 H 97.5935 3.14941 2.07586 0
M  V30 1046 H 99.9805 2.15969 2.01101 0
M  V30 1047 H 100.061 2.54204 0.285299 0
M  V30 1048 H 99.7055 5.00938 0.838067 0
M  V30 1049 H 99.6355 4.59648 2.56966 0
M  V30 1050 H 102.126 3.47661 1.48123 0
M  V30 1051 H 102.439 7.33139 2.44391 0
M  V30 1052 H 100.784 6.59112 2.20447 0
M  V30 1053 H 103.975 4.33876 1.75697 0
M  V30 1054 H 104.148 6.09649 2.19618 0
M  V30 1055 N 97.5546 -0.734337 1.39446 0
M  V30 1056 C 98.5026 -1.86971 1.38364 0
M  V30 1057 C 99.4966 -1.67288 0.266687 0
M  V30 1058 O 100.703 -1.74621 0.436755 0
M  V30 1059 H 97.0776 -0.615474 0.432082 0
M  V30 1060 H 99.0486 -1.85 2.34132 0
M  V30 1061 C 97.7976 -3.2466 1.24465 0
M  V30 1062 H 97.1206 -3.40402 2.09682 0
M  V30 1063 H 98.5606 -4.04292 1.27764 0
M  V30 1064 C 97.0196 -3.36867 -0.0468674 0
M  V30 1065 O 97.5496 -3.88618 -1.01681 0
M  V30 1066 N 95.7556 -2.90391 -0.110145 0
M  V30 1067 H 95.3026 -2.48466 0.679868 0
M  V30 1068 H 95.2606 -2.98939 -0.973799 0
M  V30 1069 N 99.0327 -1.24633 -0.964593 0
M  V30 1070 C 100.444 -1.08045 -1.5226 0
M  V30 1071 C 100.795 0.347116 -1.93105 0
M  V30 1072 O 99.9197 1.23588 -1.77637 0
M  V30 1073 C 100.515 -1.95514 -2.76695 0
M  V30 1074 C 99.0737 -1.8314 -3.28841 0
M  V30 1075 C 98.2207 -1.90262 -2.01732 0
M  V30 1076 H 101.172 -1.38064 -0.782553 0
M  V30 1077 H 101.193 -1.48925 -3.50145 0
M  V30 1078 H 100.705 -2.99407 -2.46936 0
M  V30 1079 H 98.8057 -0.82092 -3.63444 0
M  V30 1080 H 98.9187 -2.67406 -3.97531 0
M  V30 1081 H 97.2827 -1.34027 -2.16584 0
M  V30 1082 H 98.0657 -2.9574 -1.74334 0
M  V30 1083 N 100.511 1.16574 -1.06058 0
M  V30 1084 C 101.788 1.83048 -0.689416 0
M  V30 1085 C 102.168 1.94122 0.829443 0
M  V30 1086 O 101.516 1.48249 1.7388 0
M  V30 1087 C 101.726 3.20186 -1.38859 0
M  V30 1088 C 103.074 3.95989 -1.53226 0
M  V30 1089 O 104.098 3.29696 -1.3483 0
M  V30 1090 O 102.957 5.14813 -1.83384 0
M  V30 1091 H 100.051 0.790258 -0.243764 0
M  V30 1092 H 102.597 1.23797 -1.16071 0
M  V30 1093 H 101.369 3.07146 -2.4244 0
M  V30 1094 H 100.992 3.87112 -0.907216 0
M  V30 1095 N 101.989 0.842826 1.3317 0
M  V30 1096 C 103.237 0.439577 1.97262 0
M  V30 1097 C 103.558 -1.00548 1.67078 0
M  V30 1098 O 102.828 -1.70098 0.971779 0
M  V30 1099 H 101.408 0.159558 0.72976 0
M  V30 1100 H 104.07 1.07665 1.62463 0
M  V30 1101 H 103.166 0.574886 3.0676 0
M  V30 1102 N 103.467 -1.45747 0.599634 0
M  V30 1103 C 104.692 -2.07178 0.0960198 0
M  V30 1104 C 105.117 -1.44268 -1.207 0
M  V30 1105 O 104.475 -0.532503 -1.73303 0
M  V30 1106 C 104.523 -3.60579 -0.0385348 0
M  V30 1107 O 103.627 -3.97713 -1.0908 0
M  V30 1108 H 102.968 -0.660251 0.0704593 0
M  V30 1109 H 105.498 -1.87124 0.827385 0
M  V30 1110 H 105.508 -4.07298 -0.239304 0
M  V30 1111 H 104.183 -4.05756 0.912947 0
M  V30 1112 H 102.76 -3.62678 -0.867135 0
M  V30 1113 N 104.945 -0.338344 -1.53925 0
M  V30 1114 C 106.191 0.260143 -2.01125 0
M  V30 1115 C 106.524 1.50617 -1.22589 0
M  V30 1116 O 105.799 1.91979 -0.312113 0
M  V30 1117 C 106.082 0.579499 -3.55407 0
M  V30 1118 C 105.935 -0.678264 -4.44657 0
M  V30 1119 C 107.254 1.39122 -4.17532 0
M  V30 1120 H 104.373 0.0930772 -0.731099 0
M  V30 1121 H 107.015 -0.457852 -1.84401 0
M  V30 1122 H 105.165 1.19118 -3.69788 0
M  V30 1123 H 106.837 -1.31631 -4.42121 0
M  V30 1124 H 105.08 -1.3042 -4.13731 0
M  V30 1125 H 105.751 -0.410143 -5.50474 0
M  V30 1126 H 108.227 0.874035 -4.06817 0
M  V30 1127 H 107.103 1.58342 -5.25565 0
M  V30 1128 H 107.364 2.39178 -3.71815 0
M  V30 1129 N 106.423 1.57458 -0.0668435 0
M  V30 1130 C 107.386 2.11323 0.887422 0
M  V30 1131 C 108.386 1.03618 1.22964 0
M  V30 1132 O 109.576 1.29626 1.16373 0
M  V30 1133 C 106.708 2.61048 2.19242 0
M  V30 1134 H 107.901 2.96942 0.420194 0
M  V30 1135 H 105.454 1.55239 0.181793 0
M  V30 1136 H 106.189 1.78868 2.70512 0
M  V30 1137 H 105.974 3.39769 1.95702 0
M  V30 1138 H 107.464 3.02814 2.87565 0
M  V30 1139 N 107.901 -0.206675 1.56239 0
M  V30 1140 C 109.147 -0.925733 1.81113 0
M  V30 1141 C 109.502 -1.81368 0.642135 0
M  V30 1142 O 108.795 -1.88126 -0.363211 0
M  V30 1143 C 108.989 -1.78675 3.09532 0
M  V30 1144 C 108.818 -0.98365 4.3881 0
M  V30 1145 C 107.588 -0.672661 5.00803 0
M  V30 1146 C 109.786 -0.341847 5.13163 0
M  V30 1147 N 107.768 0.150283 6.13716 0
M  V30 1148 C 109.139 0.343815 6.19046 0
M  V30 1149 C 111.194 -0.256392 4.97239 0
M  V30 1150 C 109.897 1.10678 7.10734 0
M  V30 1151 C 111.923 0.493142 5.8934 0
M  V30 1152 C 111.285 1.16729 6.94661 0
M  V30 1153 H 107.384 -0.318524 0.714189 0
M  V30 1154 H 109.968 -0.195378 1.93717 0
M  V30 1155 H 108.139 -2.4888 2.98183 0
M  V30 1156 H 109.871 -2.44441 3.22538 0
M  V30 1157 H 106.626 -0.994294 4.63045 0
M  V30 1158 H 107.05 0.551026 6.74754 0
M  V30 1159 H 111.692 -0.763249 4.15854 0
M  V30 1160 H 109.41 1.6251 7.91591 0
M  V30 1161 H 112.996 0.560465 5.79094 0
M  V30 1162 H 111.876 1.738 7.64698 0
M  V30 1163 N 109.379 -1.50304 -0.473955 0
M  V30 1164 C 110.311 -1.65109 -1.58971 0
M  V30 1165 C 111.324 -0.532676 -1.53839 0
M  V30 1166 O 112.513 -0.805751 -1.59279 0
M  V30 1167 C 109.613 -1.61684 -2.97845 0
M  V30 1168 C 108.786 -2.8951 -3.27876 0
M  V30 1169 C 107.845 -2.78768 -4.4629 0
M  V30 1170 O 106.871 -3.52722 -4.46739 0
M  V30 1171 N 108.073 -1.9213 -5.47783 0
M  V30 1172 H 110.838 -2.61347 -1.46689 0
M  V30 1173 H 108.399 -1.47732 -0.662324 0
M  V30 1174 H 110.391 -1.52114 -3.75024 0
M  V30 1175 H 108.961 -0.731925 -3.03911 0
M  V30 1176 H 108.181 -3.13228 -2.39336 0
M  V30 1177 H 109.469 -3.74199 -3.4475 0
M  V30 1178 H 108.867 -1.31353 -5.50239 0
M  V30 1179 H 107.424 -1.88466 -6.23958 0
M  V30 1180 N 110.857 0.726932 -1.39834 0
M  V30 1181 C 111.787 1.85405 -1.41941 0
M  V30 1182 C 112.768 1.67751 -0.281728 0
M  V30 1183 O 113.953 1.8795 -0.488717 0
M  V30 1184 C 111.083 3.23243 -1.2701 0
M  V30 1185 C 110.037 3.55549 -2.38262 0
M  V30 1186 C 109.363 4.9241 -2.08415 0
M  V30 1187 C 110.663 3.577 -3.80589 0
M  V30 1188 H 112.357 1.83899 -2.36266 0
M  V30 1189 H 109.903 0.883349 -1.13723 0
M  V30 1190 H 111.856 4.01775 -1.27103 0
M  V30 1191 H 110.58 3.25296 -0.291564 0
M  V30 1192 H 109.239 2.79351 -2.37399 0
M  V30 1193 H 108.887 4.91052 -1.0898 0
M  V30 1194 H 108.587 5.14992 -2.82943 0
M  V30 1195 H 110.111 5.73289 -2.10171 0
M  V30 1196 H 111.525 4.26293 -3.83337 0
M  V30 1197 H 109.922 3.91804 -4.54543 0
M  V30 1198 H 110.992 2.57328 -4.10987 0
M  V30 1199 N 112.336 1.25143 0.95797 0
M  V30 1200 C 113.584 1.09476 1.69881 0
M  V30 1201 C 113.905 -0.365502 1.91544 0
M  V30 1202 O 113.175 -1.25985 1.50015 0
M  V30 1203 H 111.755 0.402128 0.629525 0
M  V30 1204 H 114.417 1.57214 1.15194 0
M  V30 1205 H 113.513 1.60046 2.6794 0
M  V30 1206 N 113.814 -1.1601 1.06675 0
M  V30 1207 C 115.062 -1.86264 0.784229 0
M  V30 1208 C 115.383 -1.82328 -0.691488 0
M  V30 1209 O 114.653 -1.25947 -1.50047 0
M  V30 1210 H 113.233 -0.689621 0.28711 0
M  V30 1211 H 115.895 -1.40664 1.34906 0
M  V30 1212 H 114.991 -2.91595 1.11259 0
M  V30 1213 N 115.292 -0.849877 -1.32721 0
M  V30 1214 C 116.522 -0.46408 -2.0132 0
M  V30 1215 C 116.93 0.94246 -1.64056 0
M  V30 1216 O 116.273 1.6257 -0.855379 0
M  V30 1217 C 116.335 -0.517887 -3.5575 0
M  V30 1218 C 115.999 -1.88248 -4.16427 0
M  V30 1219 C 116.996 -2.84726 -4.35002 0
M  V30 1220 C 114.681 -2.17832 -4.52609 0
M  V30 1221 C 116.675 -4.08945 -4.8892 0
M  V30 1222 C 114.362 -3.42304 -5.06232 0
M  V30 1223 C 115.36 -4.37677 -5.24335 0
M  V30 1224 O 115.048 -5.59946 -5.76815 0
M  V30 1225 H 114.78 -0.181327 -0.651227 0
M  V30 1226 H 117.334 -1.14713 -1.70382 0
M  V30 1227 H 115.564 0.221997 -3.86062 0
M  V30 1228 H 117.253 -0.148366 -4.05629 0
M  V30 1229 H 118.019 -2.63174 -4.07388 0
M  V30 1230 H 113.898 -1.44385 -4.37806 0
M  V30 1231 H 117.442 -4.83396 -5.02966 0
M  V30 1232 H 113.339 -3.63709 -5.33278 0
M  V30 1233 H 114.107 -5.61838 -5.95214 0
M  V30 1234 N 116.77 1.45427 -0.607355 0
M  V30 1235 C 118.047 1.9557 -0.0344566 0
M  V30 1236 C 118.427 1.54979 1.43334 0
M  V30 1237 O 117.775 0.812241 2.13576 0
M  V30 1238 C 117.985 3.48226 -0.232321 0
M  V30 1239 C 119.333 4.2445 -0.113001 0
M  V30 1240 O 120.357 3.55829 -0.162431 0
M  V30 1241 O 119.216 5.465 0.00209442 0
M  V30 1242 H 116.31 0.826222 0.0358667 0
M  V30 1243 H 118.856 1.55594 -0.6774 0
M  V30 1244 H 117.628 3.70739 -1.25174 0
M  V30 1245 H 117.251 3.95092 0.445896 0
M  V30 1246 N 118.248 0.346503 1.53744 0
M  V30 1247 C 119.495 -0.249104 2.00962 0
M  V30 1248 C 119.823 -1.5032 1.23426 0
M  V30 1249 O 119.078 -1.93217 0.310761 0
M  V30 1250 C 119.377 -0.605809 3.52228 0
M  V30 1251 C 119.043 0.551747 4.47512 0
M  V30 1252 C 117.705 0.86941 4.73281 0
M  V30 1253 C 120.057 1.32818 5.03993 0
M  V30 1254 C 117.385 1.96582 5.52786 0
M  V30 1255 C 119.737 2.41486 5.84694 0
M  V30 1256 C 118.401 2.73808 6.08757 0
M  V30 1257 H 117.671 -0.0911538 0.735372 0
M  V30 1258 H 120.318 0.475027 1.85515 0
M  V30 1259 H 118.623 -1.4107 3.65522 0
M  V30 1260 H 120.32 -1.07858 3.86222 0
M  V30 1261 H 116.91 0.294102 4.2759 0
M  V30 1262 H 121.094 1.09602 4.84047 0
M  V30 1263 H 116.35 2.22045 5.69654 0
M  V30 1264 H 120.524 3.02078 6.27473 0
M  V30 1265 H 118.151 3.58892 6.7015 0
M  V30 1266 N 119.726 -1.57421 0.075193 0
M  V30 1267 C 120.656 -2.15942 -0.888324 0
M  V30 1268 C 121.637 -1.08737 -1.30806 0
M  V30 1269 O 122.822 -1.36787 -1.37851 0
M  V30 1270 C 119.952 -2.72379 -2.1547 0
M  V30 1271 C 118.906 -3.8478 -1.87425 0
M  V30 1272 C 118.232 -4.27834 -3.20721 0
M  V30 1273 C 119.532 -5.08869 -1.17684 0
M  V30 1274 H 121.226 -2.96705 -0.400799 0
M  V30 1275 H 118.772 -1.42723 -0.191342 0
M  V30 1276 H 120.725 -3.11965 -2.83295 0
M  V30 1277 H 119.449 -1.88841 -2.6647 0
M  V30 1278 H 118.108 -3.45703 -1.22004 0
M  V30 1279 H 117.756 -3.41214 -3.6957 0
M  V30 1280 H 117.456 -5.03605 -3.02746 0
M  V30 1281 H 118.98 -4.70039 -3.89738 0
M  V30 1282 H 120.394 -5.4575 -1.75584 0
M  V30 1283 H 118.791 -5.8994 -1.09956 0
M  V30 1284 H 119.861 -4.84648 -0.156453 0
M  V30 1285 N 121.204 0.198386 -1.56346 0
M  V30 1286 C 122.134 1.24865 -1.9731 0
M  V30 1287 C 123.115 1.47651 -0.844576 0
M  V30 1288 O 124.3 1.59444 -1.10866 0
M  V30 1289 C 121.43 2.59358 -2.30977 0
M  V30 1290 C 120.384 2.5119 -3.46537 0
M  V30 1291 C 119.71 3.89926 -3.65871 0
M  V30 1292 C 121.01 2.03977 -4.80823 0
M  V30 1293 H 122.704 0.908252 -2.85291 0
M  V30 1294 H 120.25 0.435462 -1.37258 0
M  V30 1295 H 122.203 3.33011 -2.58228 0
M  V30 1296 H 120.927 2.95132 -1.39874 0
M  V30 1297 H 119.586 1.79993 -3.19371 0
M  V30 1298 H 119.234 4.23046 -2.72105 0
M  V30 1299 H 118.934 3.85336 -4.4361 0
M  V30 1300 H 120.458 4.65205 -3.95495 0
M  V30 1301 H 121.872 2.67386 -5.07127 0
M  V30 1302 H 120.269 2.10397 -5.62008 0
M  V30 1303 H 121.339 0.992861 -4.74626 0
M  V30 1304 N 122.682 1.50554 0.465978 0
M  V30 1305 C 123.959 1.5232 1.22712 0
M  V30 1306 C 124.339 0.270807 2.09356 0
M  V30 1307 O 123.687 -0.745541 2.15995 0
M  V30 1308 C 123.897 2.82175 2.05374 0
M  V30 1309 C 125.245 3.33033 2.6339 0
M  V30 1310 O 126.269 2.83531 2.15612 0
M  V30 1311 O 125.128 4.19336 3.50456 0
M  V30 1312 H 122.222 0.611183 0.557122 0
M  V30 1313 H 124.768 1.62847 0.477381 0
M  V30 1314 H 123.54 3.64797 1.41558 0
M  V30 1315 H 123.163 2.74675 2.87471 0
M  V30 1316 N 124.16 -0.719506 1.40217 0
M  V30 1317 C 125.408 -1.47641 1.3801 0
M  V30 1318 C 125.729 -1.94992 -0.018145 0
M  V30 1319 O 124.999 -1.70073 -0.972207 0
M  V30 1320 H 123.579 -0.547744 0.507923 0
M  V30 1321 H 126.241 -0.853187 1.75233 0
M  V30 1322 H 125.337 -2.35112 2.05253 0
M  V30 1323 N 125.638 -1.25649 -0.95132 0
M  V30 1324 C 126.585 -1.06323 -2.04851 0
M  V30 1325 C 127.555 0.0286491 -1.66075 0
M  V30 1326 O 128.74 -0.12917 -1.90362 0
M  V30 1327 C 125.88 -0.691529 -3.381 0
M  V30 1328 C 124.993 -1.85861 -3.89974 0
M  V30 1329 C 124.128 -1.43096 -5.11563 0
M  V30 1330 C 123.167 -2.56696 -5.55674 0
M  V30 1331 N 122.304 -2.14684 -6.68472 0
M  V30 1332 H 127.144 -2.00222 -2.20715 0
M  V30 1333 H 124.681 -0.997027 -1.08156 0
M  V30 1334 H 126.639 -0.456963 -4.1469 0
M  V30 1335 H 125.269 0.210474 -3.22113 0
M  V30 1336 H 124.321 -2.20639 -3.09875 0
M  V30 1337 H 125.633 -2.71161 -4.18657 0
M  V30 1338 H 124.787 -1.15624 -5.9558 0
M  V30 1339 H 123.526 -0.548722 -4.84603 0
M  V30 1340 H 122.531 -2.84909 -4.7022 0
M  V30 1341 H 123.756 -3.45503 -5.8464 0
M  V30 1342 H 121.702 -1.28881 -6.43215 0
M  V30 1343 H 121.619 -2.9353 -6.96689 0
M  V30 1344 H 122.887 -1.90397 -7.5589 0
M  V30 1345 N 127.117 1.15442 -1.07289 0
M  V30 1346 C 128.528 1.67803 -0.818475 0
M  V30 1347 C 128.879 1.8489 0.656507 0
M  V30 1348 O 128.004 1.55176 1.50829 0
M  V30 1349 C 128.599 3.04805 -1.47917 0
M  V30 1350 C 127.158 3.54245 -1.27229 0
M  V30 1351 C 126.305 2.29986 -1.54925 0
M  V30 1352 H 129.256 0.996646 -1.23502 0
M  V30 1353 H 129.277 3.69702 -0.90005 0
M  V30 1354 H 128.789 2.92336 -2.55267 0
M  V30 1355 H 126.89 3.71956 -0.21899 0
M  V30 1356 H 127.003 4.35723 -1.99203 0
M  V30 1357 H 125.367 2.35496 -0.970242 0
M  V30 1358 H 126.15 2.20105 -2.63455 0
M  V30 1359 N 128.595 0.856903 1.32268 0
M  V30 1360 C 130.011 0.547061 1.49931 0
M  V30 1361 C 130.211 -0.921781 1.7918 0
M  V30 1362 O 129.267 -1.70469 1.8627 0
M  V30 1363 C 130.58 1.43599 2.64196 0
M  V30 1364 C 132.128 1.43665 2.78081 0
M  V30 1365 C 132.603 2.31085 3.95428 0
M  V30 1366 N 134.094 2.28893 4.02694 0
M  V30 1367 C 134.829 2.93262 4.92732 0
M  V30 1368 N 134.325 3.66751 5.87763 0
M  V30 1369 N 136.118 2.82638 4.85873 0
M  V30 1370 H 128.269 1.8075 1.11549 0
M  V30 1371 H 130.532 0.772144 0.549997 0
M  V30 1372 H 130.238 2.48058 2.49319 0
M  V30 1373 H 130.112 1.12502 3.60032 0
M  V30 1374 H 132.499 0.399701 2.92381 0
M  V30 1375 H 132.58 1.7878 1.82952 0
M  V30 1376 H 132.224 3.34849 3.81888 0
M  V30 1377 H 132.154 1.93302 4.89839 0
M  V30 1378 H 134.645 1.75466 3.34694 0
M  V30 1379 H 134.958 4.13027 6.53168 0
M  V30 1380 H 133.303 3.70859 5.87783 0
M  V30 1381 H 136.494 2.24774 4.10602 0
M  V30 1382 H 136.667 3.33084 5.55841 0
M  V30 1383 N 130.073 -1.45103 0.615059 0
M  V30 1384 C 131.35 -1.95549 0.0448276 0
M  V30 1385 C 131.73 -1.55737 -1.4251 0
M  V30 1386 O 131.078 -0.823556 -2.13143 0
M  V30 1387 C 131.288 -3.48098 0.250785 0
M  V30 1388 C 132.636 -4.24384 0.135509 0
M  V30 1389 O 133.66 -3.55738 0.181299 0
M  V30 1390 O 132.519 -5.46493 0.0268878 0
M  V30 1391 H 129.613 -0.8264 -0.0314845 0
M  V30 1392 H 132.159 -1.55232 0.685642 0
M  V30 1393 H 130.931 -3.7007 1.27139 0
M  V30 1394 H 130.554 -3.95323 -0.424937 0
M  V30 1395 N 131.551 -0.354651 -1.53558 0
M  V30 1396 C 132.776 0.242153 -2.05981 0
M  V30 1397 C 133.201 1.42553 -1.2272 0
M  V30 1398 O 132.559 1.79656 -0.243604 0
M  V30 1399 C 132.607 0.624367 -3.55154 0
M  V30 1400 O 131.711 1.72301 -3.74681 0
M  V30 1401 H 131.052 0.0378432 -0.662921 0
M  V30 1402 H 133.582 -0.512087 -1.98088 0
M  V30 1403 H 133.592 0.898433 -3.97985 0
M  V30 1404 H 132.267 -0.240989 -4.15201 0
M  V30 1405 H 130.844 1.44535 -3.4375 0
M  V30 1406 N 133.029 1.57378 -0.0835403 0
M  V30 1407 C 134.278 1.93106 0.582498 0
M  V30 1408 C 134.591 0.96651 1.70053 0
M  V30 1409 O 135.797 1.21705 2.42693 0
M  V30 1410 C 134.253 3.43076 1.08751 0
M  V30 1411 C 133.861 4.48 -0.000146404 0
M  V30 1412 C 135.605 3.87785 1.72694 0
M  V30 1413 C 133.512 5.89113 0.519568 0
M  V30 1414 H 132.442 0.720775 0.221358 0
M  V30 1415 H 135.093 1.82821 -0.157675 0
M  V30 1416 H 133.475 3.48474 1.88101 0
M  V30 1417 H 134.649 4.54233 -0.775199 0
M  V30 1418 H 132.964 4.1283 -0.54406 0
M  V30 1419 H 135.561 4.90604 2.1263 0
M  V30 1420 H 135.904 3.25796 2.59158 0
M  V30 1421 H 136.437 3.8504 0.999457 0
M  V30 1422 H 133.176 6.54775 -0.308186 0
M  V30 1423 H 132.696 5.86376 1.26188 0
M  V30 1424 H 134.375 6.39346 0.992237 0
M  V30 1425 N 134.507 -0.190092 1.56449 0
M  V30 1426 C 135.455 -1.25501 1.95837 0
M  V30 1427 C 136.449 -1.4685 0.844485 0
M  V30 1428 O 137.655 -1.47651 1.02952 0
M  V30 1429 H 134.03 -0.421447 0.622805 0
M  V30 1430 H 136.001 -0.895821 2.84636 0
M  V30 1431 C 134.75 -2.59124 2.31841 0
M  V30 1432 H 134.073 -2.43514 3.17082 0
M  V30 1433 H 135.513 -3.32371 2.6326 0
M  V30 1434 C 133.972 -3.16488 1.15486 0
M  V30 1435 O 134.502 -3.99365 0.432535 0
M  V30 1436 N 132.708 -2.75305 0.930349 0
M  V30 1437 H 132.255 -2.08013 1.51948 0
M  V30 1438 H 132.213 -3.14024 0.153634 0
M  V30 1439 N 135.985 -1.50799 -0.457987 0
M  V30 1440 C 137.396 -1.55152 -1.0385 0
M  V30 1441 C 137.747 -0.362719 -1.92818 0
M  V30 1442 O 136.872 0.522915 -2.09987 0
M  V30 1443 C 137.467 -2.81173 -1.89017 0
M  V30 1444 C 136.026 -2.88164 -2.42154 0
M  V30 1445 C 135.173 -2.49591 -1.20829 0
M  V30 1446 H 138.124 -1.56874 -0.240068 0
M  V30 1447 H 138.145 -2.63769 -2.74238 0
M  V30 1448 H 137.657 -3.67677 -1.24238 0
M  V30 1449 H 135.758 -2.06042 -3.10447 0
M  V30 1450 H 135.871 -3.91356 -2.76364 0
M  V30 1451 H 134.235 -2.02322 -1.54719 0
M  V30 1452 H 135.018 -3.38418 -0.576927 0
M  V30 1453 N 137.463 0.71206 -1.40597 0
M  V30 1454 C 138.688 1.50617 -1.42581 0
M  V30 1455 C 139.113 1.88079 -0.0282102 0
M  V30 1456 O 138.471 1.53511 0.964579 0
M  V30 1457 C 138.519 2.7557 -2.3258 0
M  V30 1458 O 137.623 3.72414 -1.77148 0
M  V30 1459 H 136.964 0.453966 -0.484573 0
M  V30 1460 H 139.494 0.876649 -1.84868 0
M  V30 1461 H 139.504 3.2406 -2.47889 0
M  V30 1462 H 138.179 2.47639 -3.34138 0
M  V30 1463 H 136.756 3.31276 -1.71204 0
M  V30 1464 N 138.941 1.26152 0.944643 0
M  V30 1465 C 139.871 1.09902 2.06019 0
M  V30 1466 C 140.852 0.00519538 1.70099 0
M  V30 1467 O 142.037 0.176583 1.93396 0
M  V30 1468 C 139.167 0.727562 3.39594 0
M  V30 1469 C 138.121 1.77274 3.89561 0
M  V30 1470 C 137.447 1.25569 5.19747 0
M  V30 1471 C 138.747 3.17357 4.14827 0
M  V30 1472 H 140.441 2.03217 2.19871 0
M  V30 1473 H 137.987 0.978452 1.05652 0
M  V30 1474 H 139.94 0.600777 4.17095 0
M  V30 1475 H 138.664 -0.241287 3.25707 0
M  V30 1476 H 137.323 1.88814 3.14237 0
M  V30 1477 H 136.971 0.276783 5.02238 0
M  V30 1478 H 136.671 1.95433 5.54148 0
M  V30 1479 H 138.195 1.1415 5.99835 0
M  V30 1480 H 139.609 3.08914 4.82954 0
M  V30 1481 H 138.006 3.84781 4.60504 0
M  V30 1482 H 139.076 3.63673 3.20734 0
M  V30 1483 N 140.419 -1.14872 1.07899 0
M  V30 1484 C 141.351 -2.19425 0.662231 0
M  V30 1485 C 142.364 -1.60231 -0.288079 0
M  V30 1486 O 143.553 -1.78336 -0.076534 0
M  V30 1487 C 140.653 -3.38867 -0.0470695 0
M  V30 1488 C 139.826 -4.27597 0.920831 0
M  V30 1489 C 138.885 -5.25616 0.247805 0
M  V30 1490 O 137.911 -5.62189 0.890599 0
M  V30 1491 N 139.113 -5.71746 -1.00435 0
M  V30 1492 H 141.878 -2.55797 1.56166 0
M  V30 1493 H 139.439 -1.30042 0.964404 0
M  V30 1494 H 141.431 -4.01497 -0.50813 0
M  V30 1495 H 140.001 -3.00864 -0.848523 0
M  V30 1496 H 139.221 -3.61982 1.56087 0
M  V30 1497 H 140.509 -4.83748 1.57688 0
M  V30 1498 H 139.907 -5.44153 -1.54642 0
M  V30 1499 H 138.464 -6.36389 -1.40899 0
M  V30 1500 N 141.898 -0.863906 -1.31812 0
M  V30 1501 C 143.314 -0.555004 -1.49639 0
M  V30 1502 C 143.514 0.912266 -1.79666 0
M  V30 1503 O 142.57 1.69479 -1.87171 0
M  V30 1504 C 143.883 -1.44998 -2.63431 0
M  V30 1505 C 145.431 -1.45138 -2.77316 0
M  V30 1506 C 145.906 -2.33179 -3.94197 0
M  V30 1507 N 147.397 -2.31025 -4.01474 0
M  V30 1508 C 148.132 -2.95871 -4.9117 0
M  V30 1509 N 147.628 -3.69863 -5.8581 0
M  V30 1510 N 149.421 -2.85211 -4.84367 0
M  V30 1511 H 141.572 -1.81339 -1.10589 0
M  V30 1512 H 143.835 -0.77505 -0.545895 0
M  V30 1513 H 143.541 -2.49377 -2.48 0
M  V30 1514 H 143.415 -1.14409 -3.59431 0
M  V30 1515 H 145.802 -0.415201 -2.92164 0
M  V30 1516 H 145.883 -1.79747 -1.82001 0
M  V30 1517 H 145.527 -3.3687 -3.80107 0
M  V30 1518 H 145.457 -1.95897 -4.88807 0
M  V30 1519 H 147.948 -1.77238 -3.33759 0
M  V30 1520 H 148.261 -4.16486 -6.50968 0
M  V30 1521 H 146.606 -3.73971 -5.85808 0
M  V30 1522 H 149.797 -2.26948 -4.09405 0
M  V30 1523 H 149.97 -3.36027 -5.54066 0
M  V30 1524 N 143.376 1.44774 -0.622745 0
M  V30 1525 C 144.308 2.28856 0.125485 0
M  V30 1526 C 145.321 1.40811 0.817069 0
M  V30 1527 O 146.51 1.65044 0.679918 0
M  V30 1528 C 143.61 3.16963 1.19949 0
M  V30 1529 C 142.783 4.33374 0.592064 0
M  V30 1530 C 141.842 5.02577 1.55893 0
M  V30 1531 O 140.868 5.58873 1.07933 0
M  V30 1532 N 142.07 5.03256 2.89334 0
M  V30 1533 H 144.835 2.93713 -0.596068 0
M  V30 1534 H 142.396 1.55129 -0.463303 0
M  V30 1535 H 144.388 3.60123 1.84644 0
M  V30 1536 H 142.958 2.53913 1.82337 0
M  V30 1537 H 142.178 3.93509 -0.233322 0
M  V30 1538 H 143.466 5.08527 0.166738 0
M  V30 1539 H 142.864 4.58836 3.30887 0
M  V30 1540 H 141.421 5.50232 3.49412 0
M  V30 1541 N 144.854 0.36279 1.53368 0
M  V30 1542 C 145.817 -0.472679 2.24273 0
M  V30 1543 C 146.817 -1.012 1.24961 0
M  V30 1544 O 148.007 -0.898194 1.49259 0
M  V30 1545 C 145.139 -1.66039 2.97731 0
M  V30 1546 H 146.332 0.14773 2.99536 0
M  V30 1547 H 143.885 0.114434 1.55881 0
M  V30 1548 H 144.62 -2.31896 2.26704 0
M  V30 1549 H 144.405 -1.28066 3.70596 0
M  V30 1550 H 145.895 -2.25252 3.51641 0
M  V30 1551 N 146.332 -1.57332 0.0918853 0
M  V30 1552 C 147.262 -2.16872 -0.865371 0
M  V30 1553 C 148.243 -1.10118 -1.29646 0
M  V30 1554 O 149.428 -1.38242 -1.36392 0
M  V30 1555 C 146.558 -2.74649 -2.12569 0
M  V30 1556 C 145.512 -3.86747 -1.83333 0
M  V30 1557 C 144.838 -4.31212 -3.16166 0
M  V30 1558 C 146.138 -5.10089 -1.1228 0
M  V30 1559 H 147.832 -2.97114 -0.369307 0
M  V30 1560 H 145.378 -1.42918 -0.176194 0
M  V30 1561 H 147.331 -3.14952 -2.7997 0
M  V30 1562 H 146.055 -1.91657 -2.64452 0
M  V30 1563 H 144.714 -3.46978 -1.18331 0
M  V30 1564 H 144.362 -3.45115 -3.6593 0
M  V30 1565 H 144.062 -5.06788 -2.97388 0
M  V30 1566 H 145.586 -4.74146 -3.84731 0
M  V30 1567 H 147 -5.47582 -1.69785 0
M  V30 1568 H 145.397 -5.91073 -1.03693 0
M  V30 1569 H 146.467 -4.84786 -0.105041 0
M  V30 1570 N 147.81 0.181792 -1.56548 0
M  V30 1571 C 148.74 1.22765 -1.98623 0
M  V30 1572 C 149.721 1.46747 -0.860189 0
M  V30 1573 O 150.906 1.58259 -1.12551 0
M  V30 1574 C 148.036 2.56894 -2.33715 0
M  V30 1575 C 146.99 2.475 -3.49182 0
M  V30 1576 C 146.316 3.86023 -3.69986 0
M  V30 1577 C 147.616 1.98866 -4.82959 0
M  V30 1578 H 149.31 0.877942 -2.86239 0
M  V30 1579 H 146.856 0.42088 -1.37712 0
M  V30 1580 H 148.809 3.30253 -2.61746 0
M  V30 1581 H 147.533 2.93632 -1.42997 0
M  V30 1582 H 146.192 1.76596 -3.21262 0
M  V30 1583 H 145.84 4.20136 -2.76576 0
M  V30 1584 H 145.54 3.80609 -4.47672 0
M  V30 1585 H 147.064 4.60984 -4.00407 0
M  V30 1586 H 148.478 2.61992 -5.09934 0
M  V30 1587 H 146.875 2.04424 -5.64208 0
M  V30 1588 H 147.945 0.942465 -4.75653 0
M  V30 1589 N 149.288 1.51039 0.449983 0
M  V30 1590 C 150.236 1.71995 1.5659 0
M  V30 1591 C 151.23 0.586029 1.5894 0
M  V30 1592 O 152.436 0.76709 1.62837 0
M  V30 1593 H 148.811 0.543233 0.520001 0
M  V30 1594 H 150.782 2.65562 1.36085 0
M  V30 1595 C 149.531 1.8506 2.9436 0
M  V30 1596 H 148.854 2.71712 2.93279 0
M  V30 1597 H 150.294 2.0374 3.71842 0
M  V30 1598 C 148.753 0.607277 3.31382 0
M  V30 1599 O 149.283 -0.243903 4.00959 0
M  V30 1600 N 147.489 0.455073 2.87015 0
M  V30 1601 H 147.036 1.14879 2.30566 0
M  V30 1602 H 146.994 -0.375611 3.12148 0
M  V30 1603 N 150.766 -0.704594 1.40972 0
M  V30 1604 C 151.696 -1.83124 1.44872 0
M  V30 1605 C 152.677 -1.67281 0.30838 0
M  V30 1606 O 153.862 -1.87149 0.518556 0
M  V30 1607 C 150.992 -3.21181 1.32136 0
M  V30 1608 C 149.946 -3.51714 2.43888 0
M  V30 1609 C 149.272 -4.89032 2.16222 0
M  V30 1610 C 150.572 -3.516 3.86232 0
M  V30 1611 H 152.266 -1.80117 2.39161 0
M  V30 1612 H 149.812 -0.865145 1.15114 0
M  V30 1613 H 151.765 -3.99702 1.33479 0
M  V30 1614 H 150.489 -3.24791 0.343279 0
M  V30 1615 H 149.148 -2.75539 2.41813 0
M  V30 1616 H 148.796 -4.89256 1.16778 0
M  V30 1617 H 148.496 -5.10426 2.911 0
M  V30 1618 H 150.02 -5.69873 2.19265 0
M  V30 1619 H 151.434 -4.2014 3.9007 0
M  V30 1620 H 149.831 -3.84523 4.60719 0
M  V30 1621 H 150.901 -2.50757 4.15029 0
M  V30 1622 N 152.244 -1.26651 -0.937939 0
M  V30 1623 C 153.191 -1.0849 -2.03712 0
M  V30 1624 C 154.161 0.011033 -1.66096 0
M  V30 1625 O 155.346 -0.149353 -1.90215 0
M  V30 1626 C 152.486 -0.72735 -3.37348 0
M  V30 1627 C 151.599 -1.89986 -3.87981 0
M  V30 1628 C 150.734 -1.48513 -5.10017 0
M  V30 1629 C 149.773 -2.62575 -5.5292 0
M  V30 1630 N 148.91 -2.21762 -6.66158 0
M  V30 1631 H 153.75 -2.02551 -2.18579 0
M  V30 1632 H 151.287 -1.00844 -1.07093 0
M  V30 1633 H 153.245 -0.50092 -4.14182 0
M  V30 1634 H 151.875 0.176298 -3.22318 0
M  V30 1635 H 150.927 -2.23913 -3.07518 0
M  V30 1636 H 152.239 -2.75586 -4.15757 0
M  V30 1637 H 151.393 -1.21934 -5.94321 0
M  V30 1638 H 150.132 -0.60009 -4.83994 0
M  V30 1639 H 149.137 -2.8988 -4.67172 0
M  V30 1640 H 150.362 -3.51685 -5.80943 0
M  V30 1641 H 148.308 -1.35696 -6.41812 0
M  V30 1642 H 148.225 -3.00903 -6.93537 0
M  V30 1643 H 149.493 -1.98403 -7.53828 0
M  V30 1644 N 153.722 1.14298 -1.08507 0
M  V30 1645 C 154.952 1.88945 -0.835663 0
M  V30 1646 C 155.36 1.78894 0.615928 0
M  V30 1647 O 154.703 1.1468 1.43506 0
M  V30 1648 C 154.765 3.39585 -1.17994 0
M  V30 1649 C 154.429 3.7342 -2.63451 0
M  V30 1650 C 155.426 3.73454 -3.61702 0
M  V30 1651 C 153.111 4.03368 -2.99332 0
M  V30 1652 C 155.105 4.02961 -4.93864 0
M  V30 1653 C 152.792 4.32538 -4.31687 0
M  V30 1654 C 153.79 4.32318 -5.28763 0
M  V30 1655 O 153.478 4.6078 -6.58739 0
M  V30 1656 H 153.21 0.605307 -0.300965 0
M  V30 1657 H 155.764 1.45673 -1.44806 0
M  V30 1658 H 153.994 3.83315 -0.51055 0
M  V30 1659 H 155.683 3.9554 -0.911182 0
M  V30 1660 H 156.449 3.50403 -3.35325 0
M  V30 1661 H 152.328 4.02692 -2.24411 0
M  V30 1662 H 155.872 4.02704 -5.69627 0
M  V30 1663 H 151.769 4.55059 -4.57812 0
M  V30 1664 H 152.537 4.78492 -6.64069 0
M  V30 1665 N 155.201 0.870884 1.31352 0
M  V30 1666 C 156.449 0.48132 1.96285 0
M  V30 1667 C 156.77 -0.969813 1.69173 0
M  V30 1668 O 156.04 -1.67998 1.00764 0
M  V30 1669 H 154.62 0.175002 0.726212 0
M  V30 1670 H 157.282 1.11087 1.60143 0
M  V30 1671 H 156.378 0.639825 3.05471 0
M  V30 1672 N 156.679 -1.44442 0.630414 0
M  V30 1673 C 157.609 -2.33418 -0.0618083 0
M  V30 1674 C 158.59 -1.48165 -0.835541 0
M  V30 1675 O 159.775 -1.76886 -0.801564 0
M  V30 1676 C 156.905 -3.31222 -1.04449 0
M  V30 1677 C 155.859 -4.26288 -0.382436 0
M  V30 1678 C 155.185 -5.13954 -1.47497 0
M  V30 1679 C 156.485 -5.1744 0.710865 0
M  V30 1680 H 158.179 -2.91548 0.681184 0
M  V30 1681 H 155.725 -1.40191 0.329026 0
M  V30 1682 H 157.678 -3.92351 -1.53748 0
M  V30 1683 H 156.402 -2.71299 -1.81836 0
M  V30 1684 H 155.061 -3.6649 0.0899054 0
M  V30 1685 H 154.709 -4.50385 -2.2397 0
M  V30 1686 H 154.409 -5.7837 -1.03737 0
M  V30 1687 H 155.933 -5.77955 -1.96979 0
M  V30 1688 H 157.347 -5.72509 0.300996 0
M  V30 1689 H 155.744 -5.90455 1.07156 0
M  V30 1690 H 156.814 -4.58496 1.57829 0
M  V30 1691 N 158.157 -0.370918 -1.53173 0
M  V30 1692 C 159.404 0.217102 -2.01333 0
M  V30 1693 C 159.732 1.48338 -1.25802 0
M  V30 1694 O 158.987 1.92698 -0.34146 0
M  V30 1695 C 159.286 0.549696 -3.53147 0
M  V30 1696 C 158.952 -0.622872 -4.46577 0
M  V30 1697 C 157.614 -0.944595 -4.71838 0
M  V30 1698 C 159.966 -1.40819 -5.01816 0
M  V30 1699 C 157.294 -2.05351 -5.49589 0
M  V30 1700 C 159.646 -2.50757 -5.80778 0
M  V30 1701 C 158.31 -2.83458 -6.04324 0
M  V30 1702 H 157.58 0.0794431 -0.736729 0
M  V30 1703 H 160.227 -0.504481 -1.84736 0
M  V30 1704 H 158.532 1.35237 -3.6772 0
M  V30 1705 H 160.229 1.017 -3.87889 0
M  V30 1706 H 156.819 -0.36209 -4.27068 0
M  V30 1707 H 161.003 -1.17289 -4.82242 0
M  V30 1708 H 156.259 -2.3108 -5.6605 0
M  V30 1709 H 160.433 -3.12022 -6.22588 0
M  V30 1710 H 158.06 -3.69508 -6.64355 0
M  V30 1711 N 159.635 1.57281 -0.100228 0
M  V30 1712 C 160.545 2.17833 0.870965 0
M  V30 1713 C 161.561 1.14921 1.30649 0
M  V30 1714 O 162.737 1.47313 1.37335 0
M  V30 1715 C 159.802 2.75085 2.1102 0
M  V30 1716 C 158.863 3.9297 1.72838 0
M  V30 1717 C 158.096 4.47482 2.90854 0
M  V30 1718 O 158.319 4.00922 4.05731 0
M  V30 1719 O 157.253 5.38433 2.69023 0
M  V30 1720 H 161.079 3.0124 0.38575 0
M  V30 1721 H 158.664 1.48881 0.124397 0
M  V30 1722 H 160.546 3.11656 2.83634 0
M  V30 1723 H 159.221 1.94721 2.58584 0
M  V30 1724 H 158.128 3.61201 0.973883 0
M  V30 1725 H 159.461 4.74713 1.30033 0
M  V30 1726 N 161.113 -0.173488 1.56642 0
M  V30 1727 C 162.359 -0.891784 1.8214 0
M  V30 1728 C 162.692 -1.8199 0.677736 0
M  V30 1729 O 161.967 -1.91842 -0.320446 0
M  V30 1730 C 162.25 -1.68933 3.18015 0
M  V30 1731 C 162.103 -0.784487 4.42906 0
M  V30 1732 C 163.422 -2.65748 3.50808 0
M  V30 1733 H 160.541 -0.322761 0.662567 0
M  V30 1734 H 163.183 -0.158095 1.89341 0
M  V30 1735 H 161.333 -2.31482 3.12007 0
M  V30 1736 H 163.005 -0.172046 4.60979 0
M  V30 1737 H 161.248 -0.0924117 4.33702 0
M  V30 1738 H 161.919 -1.37799 5.34524 0
M  V30 1739 H 164.395 -2.13327 3.57255 0
M  V30 1740 H 163.271 -3.18619 4.4696 0
M  V30 1741 H 163.532 -3.45842 2.75401 0
M  V30 1742 N 162.591 -1.51276 -0.441967 0
M  V30 1743 C 163.554 -1.7167 -1.51862 0
M  V30 1744 C 164.554 -0.586793 -1.49711 0
M  V30 1745 O 165.744 -0.854276 -1.51815 0
M  V30 1746 C 162.876 -1.76889 -2.91416 0
M  V30 1747 H 164.069 -2.67754 -1.35084 0
M  V30 1748 H 161.622 -1.41196 -0.670333 0
M  V30 1749 H 162.357 -0.826026 -3.13604 0
M  V30 1750 H 162.142 -2.59001 -2.94382 0
M  V30 1751 H 163.632 -1.94522 -3.69528 0
M  V30 1752 N 164.069 0.697108 -1.41344 0
M  V30 1753 C 164.979 1.84088 -1.45427 0
M  V30 1754 C 165.995 1.70545 -0.34501 0
M  V30 1755 O 167.171 1.92488 -0.592492 0
M  V30 1756 C 164.236 3.20056 -1.33286 0
M  V30 1757 C 163.297 3.45718 -2.54514 0
M  V30 1758 C 162.53 4.75199 -2.42944 0
M  V30 1759 O 162.753 5.51579 -1.45318 0
M  V30 1760 O 161.687 5.0161 -3.32672 0
M  V30 1761 H 165.513 1.836 -2.41919 0
M  V30 1762 H 163.098 0.849966 -1.22866 0
M  V30 1763 H 164.98 4.01236 -1.28794 0
M  V30 1764 H 163.655 3.2123 -0.39909 0
M  V30 1765 H 162.562 2.64474 -2.64583 0
M  V30 1766 H 163.895 3.49356 -3.46715 0
M  V30 1767 N 165.547 1.27147 0.931209 0
M  V30 1768 C 166.795 1.13055 1.6752 0
M  V30 1769 C 167.116 -0.324791 1.92276 0
M  V30 1770 O 166.386 -1.22775 1.52654 0
M  V30 1771 H 164.966 0.415391 0.620854 0
M  V30 1772 H 167.628 1.59623 1.11833 0
M  V30 1773 H 166.724 1.65694 2.64485 0
M  V30 1774 N 167.025 -1.13721 1.09112 0
M  V30 1775 C 168.274 -1.84275 0.82009 0
M  V30 1776 C 168.587 -1.84253 -0.656509 0
M  V30 1777 O 169.793 -2.50668 -1.04296 0
M  V30 1778 C 168.249 -3.30825 1.41714 0
M  V30 1779 C 167.857 -3.39244 2.92605 0
M  V30 1780 C 169.601 -4.06443 1.22492 0
M  V30 1781 C 167.508 -4.80047 3.45411 0
M  V30 1782 H 166.438 -0.690387 0.30312 0
M  V30 1783 H 169.089 -1.28146 1.31343 0
M  V30 1784 H 167.471 -3.86737 0.851498 0
M  V30 1785 H 168.645 -2.93344 3.55367 0
M  V30 1786 H 166.96 -2.77088 3.10823 0
M  V30 1787 H 169.557 -5.10387 1.59402 0
M  V30 1788 H 169.9 -4.15972 0.165299 0
M  V30 1789 H 170.433 -3.56852 1.75788 0
M  V30 1790 H 167.172 -4.75709 4.50978 0
M  V30 1791 H 166.692 -5.26455 2.87411 0
M  V30 1792 H 168.371 -5.48957 3.42425 0
M  V30 1793 N 168.503 -0.877838 -1.30888 0
M  V30 1794 C 169.733 -0.506678 -2.00291 0
M  V30 1795 C 170.141 0.907449 -1.66018 0
M  V30 1796 O 169.484 1.60719 -0.88967 0
M  V30 1797 C 169.546 -0.59323 -3.54572 0
M  V30 1798 C 169.21 -1.97038 -4.12341 0
M  V30 1799 C 170.207 -2.93889 -4.28865 0
M  V30 1800 C 167.892 -2.27383 -4.47886 0
M  V30 1801 C 169.886 -4.19224 -4.80136 0
M  V30 1802 C 167.573 -3.52965 -4.98857 0
M  V30 1803 C 168.571 -4.48701 -5.14934 0
M  V30 1804 O 168.259 -5.72056 -5.64808 0
M  V30 1805 H 167.991 -0.1951 -0.647234 0
M  V30 1806 H 170.545 -1.18301 -1.6791 0
M  V30 1807 H 168.775 0.140057 -3.86446 0
M  V30 1808 H 170.464 -0.234372 -4.05223 0
M  V30 1809 H 171.23 -2.71756 -4.01714 0
M  V30 1810 H 167.109 -1.53639 -4.34645 0
M  V30 1811 H 170.653 -4.93956 -4.92599 0
M  V30 1812 H 166.55 -3.74939 -5.25443 0
M  V30 1813 H 167.318 -5.74337 -5.83163 0
M  V30 1814 N 169.982 1.44106 -0.638065 0
M  V30 1815 C 170.914 2.28976 0.101205 0
M  V30 1816 C 171.927 1.4167 0.802088 0
M  V30 1817 O 173.116 1.65755 0.662375 0
M  V30 1818 C 170.216 3.18217 1.16581 0
M  V30 1819 C 169.389 4.33978 0.546066 0
M  V30 1820 C 168.448 5.04202 1.50554 0
M  V30 1821 O 167.474 5.59986 1.01999 0
M  V30 1822 N 168.676 5.06296 2.8398 0
M  V30 1823 H 171.441 2.93064 -0.627186 0
M  V30 1824 H 169.002 1.54629 -0.479731 0
M  V30 1825 H 170.994 3.62061 1.80815 0
M  V30 1826 H 169.564 2.55833 1.79634 0
M  V30 1827 H 168.784 3.93239 -0.275046 0
M  V30 1828 H 170.072 5.08675 0.112793 0
M  V30 1829 H 169.47 4.62319 3.26002 0
M  V30 1830 H 168.027 5.53907 3.43556 0
M  V30 1831 N 171.46 0.379036 1.52974 0
M  V30 1832 C 172.706 -0.206727 2.01744 0
M  V30 1833 C 173.039 -1.47314 1.26539 0
M  V30 1834 O 172.314 -1.91084 0.362903 0
M  V30 1835 C 172.597 -0.485066 3.56818 0
M  V30 1836 C 172.45 0.795919 4.42702 0
M  V30 1837 C 173.769 -1.28003 4.21074 0
M  V30 1838 H 170.888 -0.0736607 0.73331 0
M  V30 1839 H 173.53 0.506581 1.83122 0
M  V30 1840 H 171.68 -1.09272 3.72816 0
M  V30 1841 H 173.352 1.43307 4.38476 0
M  V30 1842 H 171.595 1.41344 4.10127 0
M  V30 1843 H 172.266 0.555947 5.49193 0
M  V30 1844 H 174.742 -0.765867 4.08991 0
M  V30 1845 H 173.618 -1.44352 5.29579 0
M  V30 1846 H 173.879 -2.29236 3.78026 0
M  V30 1847 N 172.938 -1.57226 0.108567 0
M  V30 1848 C 174.354 -1.5766 -0.248058 0
M  V30 1849 C 174.554 -1.12063 -1.67464 0
M  V30 1850 O 173.61 -0.803236 -2.39383 0
M  V30 1851 C 174.923 -3.0069 -0.0242287 0
M  V30 1852 C 176.471 -3.12868 -0.0909372 0
M  V30 1853 C 176.946 -4.57879 0.105067 0
M  V30 1854 N 178.437 -4.63172 0.0506846 0
M  V30 1855 C 179.172 -5.73126 0.177396 0
M  V30 1856 N 178.668 -6.91866 0.359696 0
M  V30 1857 N 180.461 -5.61977 0.117709 0
M  V30 1858 H 172.612 -1.85169 1.04049 0
M  V30 1859 H 174.875 -0.85529 0.40888 0
M  V30 1860 H 174.581 -3.38299 0.961604 0
M  V30 1861 H 174.455 -3.6945 -0.76068 0
M  V30 1862 H 176.842 -2.75124 -1.06729 0
M  V30 1863 H 176.923 -2.46672 0.677225 0
M  V30 1864 H 176.567 -4.96321 1.07834 0
M  V30 1865 H 176.497 -5.22153 -0.682954 0
M  V30 1866 H 178.988 -3.778 -0.0871266 0
M  V30 1867 H 179.301 -7.71503 0.447529 0
M  V30 1868 H 177.646 -6.93874 0.395536 0
M  V30 1869 H 180.837 -4.68094 -0.0236741 0
M  V30 1870 H 181.01 -6.47627 0.219905 0
M  V30 1871 N 174.416 0.165178 -1.56732 0
M  V30 1872 C 175.664 0.879068 -1.8198 0
M  V30 1873 C 175.985 1.82514 -0.686561 0
M  V30 1874 O 175.255 1.93694 0.293146 0
M  V30 1875 H 173.835 0.327608 -0.671329 0
M  V30 1876 H 176.497 0.163526 -1.94213 0
M  V30 1877 H 175.593 1.45228 -2.76252 0
M  V30 1878 N 175.894 1.51508 0.433938 0
M  V30 1879 C 177.141 1.64345 1.18309 0
M  V30 1880 C 177.469 0.361315 1.91115 0
M  V30 1881 O 176.724 -0.654753 1.84422 0
M  V30 1882 C 177.023 2.79928 2.22205 0
M  V30 1883 C 176.689 4.19078 1.66387 0
M  V30 1884 C 175.351 4.56932 1.50887 0
M  V30 1885 C 177.703 5.05894 1.25381 0
M  V30 1886 C 175.031 5.79305 0.928608 0
M  V30 1887 C 177.383 6.2885 0.687823 0
M  V30 1888 C 176.047 6.65473 0.519755 0
M  V30 1889 H 175.317 0.601381 0.432923 0
M  V30 1890 H 177.964 1.85549 0.473676 0
M  V30 1891 H 176.269 2.52959 2.99197 0
M  V30 1892 H 177.966 2.87059 2.79997 0
M  V30 1893 H 174.556 3.89234 1.79428 0
M  V30 1894 H 178.74 4.77253 1.36175 0
M  V30 1895 H 173.996 6.06324 0.786186 0
M  V30 1896 H 178.17 6.95461 0.361581 0
M  V30 1897 H 175.797 7.6017 0.0679979 0
M  V30 1898 N 177.372 -0.689602 1.41712 0
M  V30 1899 C 178.649 -1.44457 1.31877 0
M  V30 1900 C 179.029 -2.11039 -0.0508537 0
M  V30 1901 O 178.377 -2.02138 -1.06547 0
M  V30 1902 C 178.587 -2.45913 2.47645 0
M  V30 1903 C 179.935 -3.10991 2.89084 0
M  V30 1904 O 180.959 -2.56238 2.47428 0
M  V30 1905 O 179.818 -4.10174 3.61137 0
M  V30 1906 H 176.912 -0.64362 0.519309 0
M  V30 1907 H 179.458 -0.719576 1.53689 0
M  V30 1908 H 178.23 -1.95409 3.39015 0
M  V30 1909 H 177.853 -3.25913 2.27742 0
M  V30 1910 N 178.85 -1.27639 -0.924453 0
M  V30 1911 C 179.78 -1.13166 -2.04244 0
M  V30 1912 C 180.761 -0.032256 -1.70069 0
M  V30 1913 O 181.946 -0.207328 -1.9309 0
M  V30 1914 C 179.076 -0.781496 -3.38393 0
M  V30 1915 C 178.03 -1.83449 -3.86692 0
M  V30 1916 C 177.356 -1.33822 -5.17683 0
M  V30 1917 C 178.656 -3.23917 -4.09726 0
M  V30 1918 H 180.35 -2.06689 -2.1661 0
M  V30 1919 H 177.896 -0.995136 -1.04082 0
M  V30 1920 H 179.849 -0.667057 -4.16087 0
M  V30 1921 H 178.573 0.189439 -3.2605 0
M  V30 1922 H 177.232 -1.93789 -3.11193 0
M  V30 1923 H 176.88 -0.35665 -5.01734 0
M  V30 1924 H 176.58 -2.04224 -5.50968 0
M  V30 1925 H 178.104 -1.23679 -5.97943 0
M  V30 1926 H 179.518 -3.16559 -4.77978 0
M  V30 1927 H 177.915 -3.92059 -4.54324 0
M  V30 1928 H 178.985 -3.68729 -3.14908 0
M  V30 1929 N 180.328 1.1314 -1.09713 0
M  V30 1930 C 181.291 2.16831 -0.742751 0
M  V30 1931 C 182.291 1.59159 0.229129 0
M  V30 1932 O 183.481 1.74199 0.00693237 0
M  V30 1933 C 180.613 3.40756 -0.0989168 0
M  V30 1934 H 181.806 2.49695 -1.66109 0
M  V30 1935 H 179.359 1.2802 -0.896699 0
M  V30 1936 H 180.094 3.13485 0.830514 0
M  V30 1937 H 179.879 3.83888 -0.798265 0
M  V30 1938 H 181.369 4.17386 0.133524 0
M  V30 1939 N 181.806 0.884767 1.30421 0
M  V30 1940 C 182.754 0.340869 2.30089 0
M  V30 1941 C 183.748 -0.55201 1.60154 0
M  V30 1942 O 184.954 -0.436467 1.74628 0
M  V30 1943 H 181.329 0.0915739 0.746404 0
M  V30 1944 H 183.3 1.19513 2.73421 0
M  V30 1945 C 182.049 -0.429779 3.45034 0
M  V30 1946 H 181.372 0.248024 3.9903 0
M  V30 1947 H 182.812 -0.775445 4.16849 0
M  V30 1948 C 181.271 -1.62677 2.95022 0
M  V30 1949 O 181.801 -2.72614 2.95033 0
M  V30 1950 N 180.007 -1.46387 2.51036 0
M  V30 1951 H 179.554 -0.569506 2.51226 0
M  V30 1952 H 179.512 -2.26612 2.17932 0
M  V30 1953 N 183.284 -1.43765 0.645699 0
M  V30 1954 C 184.533 -2.01116 0.153412 0
M  V30 1955 C 184.846 -1.51493 -1.23731 0
M  V30 1956 O 186.052 -2.01067 -1.8244 0
M  V30 1957 C 184.508 -3.59206 0.223473 0
M  V30 1958 C 184.116 -4.17823 1.61642 0
M  V30 1959 C 185.86 -4.23972 -0.211597 0
M  V30 1960 C 183.767 -5.68183 1.64081 0
M  V30 1961 H 182.697 -0.752093 0.0535891 0
M  V30 1962 H 185.348 -1.6482 0.806633 0
M  V30 1963 H 183.73 -3.92867 -0.497118 0
M  V30 1964 H 184.904 -3.95674 2.36176 0
M  V30 1965 H 183.219 -3.65399 1.99681 0
M  V30 1966 H 185.816 -5.34275 -0.213112 0
M  V30 1967 H 186.159 -3.97352 -1.24165 0
M  V30 1968 H 186.692 -3.95166 0.456988 0
M  V30 1969 H 183.431 -5.99559 2.64971 0
M  V30 1970 H 182.951 -5.9241 0.938611 0
M  V30 1971 H 184.63 -6.32085 1.3812 0
M  V30 1972 N 184.763 -0.387143 -1.52771 0
M  V30 1973 C 185.991 0.195869 -2.05971 0
M  V30 1974 C 186.406 1.40691 -1.25903 0
M  V30 1975 O 185.763 1.79931 -0.305134 0
M  V30 1976 C 185.814 0.56812 -3.57008 0
M  V30 1977 O 185.535 -0.594803 -4.34043 0
M  V30 1978 C 187.036 1.20723 -4.26545 0
M  V30 1979 H 184.256 0.0300578 -0.670326 0
M  V30 1980 H 186.8 -0.551749 -1.96916 0
M  V30 1981 H 184.955 1.26564 -3.66143 0
M  V30 1982 H 185.369 -0.289322 -5.23701 0
M  V30 1983 H 186.843 1.41807 -5.33474 0
M  V30 1984 H 187.32 2.17395 -3.81623 0
M  V30 1985 H 187.926 0.550535 -4.21722 0
M  V30 1986 N 186.241 1.57166 -0.116904 0
M  V30 1987 C 187.488 1.95123 0.541603 0
M  V30 1988 C 187.816 1.00006 1.6682 0
M  V30 1989 O 187.071 0.0235658 1.95686 0
M  V30 1990 C 187.37 3.39508 1.11664 0
M  V30 1991 C 187.036 4.50762 0.111606 0
M  V30 1992 C 185.698 4.80918 -0.164758 0
M  V30 1993 C 188.05 5.18036 -0.573438 0
M  V30 1994 C 185.378 5.75666 -1.13249 0
M  V30 1995 C 187.73 6.13824 -1.52978 0
M  V30 1996 C 186.394 6.42374 -1.81415 0
M  V30 1997 H 185.664 0.714005 0.198187 0
M  V30 1998 H 188.311 1.9048 -0.197365 0
M  V30 1999 H 186.616 3.40835 1.93232 0
M  V30 2000 H 188.313 3.66189 1.63422 0
M  V30 2001 H 184.903 4.27272 0.337192 0
M  V30 2002 H 189.087 4.94896 -0.373092 0
M  V30 2003 H 184.343 5.96092 -1.35958 0
M  V30 2004 H 188.517 6.65039 -2.06629 0
M  V30 2005 H 186.144 7.15599 -2.56557 0
M  V30 2006 N 187.719 -0.156864 1.56817 0
M  V30 2007 C 188.968 -0.869504 1.81996 0
M  V30 2008 C 189.281 -1.82777 0.696545 0
M  V30 2009 O 190.487 -2.58384 0.833658 0
M  V30 2010 C 188.943 -1.59679 3.22538 0
M  V30 2011 C 188.551 -0.681431 4.42787 0
M  V30 2012 C 190.295 -2.2968 3.56997 0
M  V30 2013 C 188.202 -1.40978 5.74351 0
M  V30 2014 H 187.132 -0.328438 0.678708 0
M  V30 2015 H 189.783 -0.1223 1.83092 0
M  V30 2016 H 188.165 -2.38927 3.158 0
M  V30 2017 H 189.339 0.0751166 4.60739 0
M  V30 2018 H 187.654 -0.0903431 4.16302 0
M  V30 2019 H 190.251 -2.84794 4.52544 0
M  V30 2020 H 190.594 -3.05707 2.82576 0
M  V30 2021 H 191.127 -1.57361 3.65352 0
M  V30 2022 H 187.866 -0.691561 6.51842 0
M  V30 2023 H 187.386 -2.13929 5.60352 0
M  V30 2024 H 189.065 -1.95337 6.16808 0
M  V30 2025 N 189.197 -1.51736 -0.425897 0
M  V30 2026 C 190.613 -1.40166 -0.76326 0
M  V30 2027 C 190.813 -0.492962 -1.95377 0
M  V30 2028 O 189.869 0.0475815 -2.52455 0
M  V30 2029 C 191.182 -2.82403 -1.03291 0
M  V30 2030 C 192.73 -2.91632 -1.13665 0
M  V30 2031 C 193.205 -4.34801 -1.43916 0
M  V30 2032 N 194.696 -4.3796 -1.50816 0
M  V30 2033 C 195.431 -5.4578 -1.75817 0
M  V30 2034 N 194.927 -6.63744 -1.98534 0
M  V30 2035 N 196.72 -5.33274 -1.77694 0
M  V30 2036 H 188.871 -2.09361 0.358 0
M  V30 2037 H 191.134 -0.942941 0.0978094 0
M  V30 2038 H 190.84 -3.50943 -0.230696 0
M  V30 2039 H 190.714 -3.22428 -1.95754 0
M  V30 2040 H 193.101 -2.23284 -1.92947 0
M  V30 2041 H 193.182 -2.55088 -0.190756 0
M  V30 2042 H 192.826 -5.03703 -0.65157 0
M  V30 2043 H 192.756 -4.68868 -2.39729 0
M  V30 2044 H 195.247 -3.52919 -1.35118 0
M  V30 2045 H 195.56 -7.41704 -2.17013 0
M  V30 2046 H 193.905 -6.66839 -1.95832 0
M  V30 2047 H 197.096 -4.40098 -1.59473 0
M  V30 2048 H 197.269 -6.1738 -1.9684 0
M  V30 2049 N 190.675 0.682077 -1.42076 0
M  V30 2050 C 191.923 1.4393 -1.41876 0
M  V30 2051 C 192.244 1.94971 -0.0335599 0
M  V30 2052 O 191.514 1.72591 0.926773 0
M  V30 2053 H 190.094 0.534085 -0.522267 0
M  V30 2054 H 192.756 0.806427 -1.77434 0
M  V30 2055 H 191.852 2.29588 -2.11414 0
M  V30 2056 N 192.153 1.28127 0.917671 0
M  V30 2057 C 193.43 1.05761 1.64542 0
M  V30 2058 C 193.81 -0.404344 2.07191 0
M  V30 2059 O 193.158 -1.38963 1.81388 0
M  V30 2060 C 193.368 2.02857 2.83989 0
M  V30 2061 C 194.716 2.32786 3.551 0
M  V30 2062 O 195.74 2.0091 2.94132 0
M  V30 2063 O 194.599 2.87169 4.64969 0
M  V30 2064 H 191.693 0.403916 0.721652 0
M  V30 2065 H 194.239 1.39431 0.967322 0
M  V30 2066 H 193.011 3.01407 2.49538 0
M  V30 2067 H 192.634 1.69809 3.59514 0
M  V30 2068 N 193.631 -1.12557 1.10312 0
M  V30 2069 C 194.856 -1.88405 0.867085 0
M  V30 2070 C 195.281 -1.79038 -0.576817 0
M  V30 2071 O 194.639 -1.14439 -1.40618 0
M  V30 2072 C 194.687 -3.3563 1.31851 0
M  V30 2073 O 193.791 -4.09565 0.482734 0
M  V30 2074 H 193.132 -0.585455 0.313271 0
M  V30 2075 H 195.662 -1.42352 1.4696 0
M  V30 2076 H 195.672 -3.86469 1.3079 0
M  V30 2077 H 194.347 -3.41765 2.37001 0
M  V30 2078 H 192.924 -3.68695 0.558448 0
M  V30 2079 N 195.109 -0.891671 -1.2995 0
M  V30 2080 C 196.357 -0.512486 -1.95494 0
M  V30 2081 C 196.678 0.942776 -1.70695 0
M  V30 2082 O 195.948 1.66374 -1.03424 0
M  V30 2083 H 194.528 -0.186533 -0.723336 0
M  V30 2084 H 197.19 -1.13621 -1.58355 0
M  V30 2085 H 196.286 -0.688342 -3.04415 0
M  V30 2086 N 196.587 1.43421 -0.653314 0
M  V30 2087 C 197.833 2.02641 -0.175593 0
M  V30 2088 C 198.188 1.5062 1.19713 0
M  V30 2089 O 197.481 0.689697 1.78756 0
M  V30 2090 C 197.675 3.57176 -0.126623 0
M  V30 2091 C 197.504 4.24191 -1.49306 0
M  V30 2092 C 196.274 4.60257 -2.08547 0
M  V30 2093 C 198.472 4.53193 -2.43148 0
M  V30 2094 N 196.454 5.12345 -3.38194 0
M  V30 2095 C 197.825 5.06601 -3.57429 0
M  V30 2096 C 199.88 4.35161 -2.41949 0
M  V30 2097 C 198.583 5.43875 -4.70736 0
M  V30 2098 C 200.609 4.73498 -3.54336 0
M  V30 2099 C 199.971 5.27039 -4.67343 0
M  V30 2100 H 196.07 0.77441 -0.108686 0
M  V30 2101 H 198.654 1.74596 -0.861638 0
M  V30 2102 H 196.825 3.84784 0.528766 0
M  V30 2103 H 198.557 4.03078 0.36198 0
M  V30 2104 H 195.312 4.45302 -1.61255 0
M  V30 2105 H 195.736 5.42842 -4.04538 0
M  V30 2106 H 200.378 3.9304 -1.55818 0
M  V30 2107 H 198.096 5.8494 -5.57558 0
M  V30 2108 H 201.682 4.61241 -3.5461 0
M  V30 2109 H 200.562 5.56153 -5.52868 0
M  V30 2110 N 198.065 0.39524 1.52563 0
M  V30 2111 C 199.314 -0.186321 2.00838 0
M  V30 2112 C 199.627 -1.47402 1.28577 0
M  V30 2113 O 200.833 -2.13599 1.67593 0
M  V30 2114 C 199.289 -0.382595 3.57861 0
M  V30 2115 C 198.897 0.892202 4.39026 0
M  V30 2116 C 200.641 -0.9202 4.14406 0
M  V30 2117 C 198.548 0.66388 5.87662 0
M  V30 2118 H 197.478 -0.0734041 0.750418 0
M  V30 2119 H 200.129 0.518552 1.76021 0
M  V30 2120 H 198.511 -1.14946 3.7895 0
M  V30 2121 H 199.685 1.66414 4.29701 0
M  V30 2122 H 198 1.35519 3.9373 0
M  V30 2123 H 200.597 -1.10683 5.23119 0
M  V30 2124 H 200.94 -1.89096 3.70875 0
M  V30 2125 H 201.473 -0.212751 3.97231 0
M  V30 2126 H 198.212 1.6058 6.35527 0
M  V30 2127 H 197.732 -0.0690193 5.9976 0
M  V30 2128 H 199.411 0.300699 6.46301 0
M  V30 2129 N 199.544 -1.57102 0.125237 0
M  V30 2130 C 200.79 -1.95697 -0.532035 0
M  V30 2131 C 201.123 -1.009 -1.6593 0
M  V30 2132 O 200.398 -0.047347 -1.94442 0
M  V30 2133 C 200.681 -3.44181 -1.05884 0
M  V30 2134 C 200.534 -4.49752 0.0654392 0
M  V30 2135 C 201.853 -3.94655 -1.9477 0
M  V30 2136 H 198.972 -0.711571 -0.191925 0
M  V30 2137 H 201.614 -1.88923 0.20206 0
M  V30 2138 H 199.764 -3.50085 -1.68442 0
M  V30 2139 H 201.436 -4.55943 0.700982 0
M  V30 2140 H 199.679 -4.27653 0.727709 0
M  V30 2141 H 200.35 -5.50924 -0.344505 0
M  V30 2142 H 202.826 -3.91094 -1.42074 0
M  V30 2143 H 201.702 -4.99057 -2.28546 0
M  V30 2144 H 201.963 -3.35718 -2.87656 0
M  V30 2145 N 201.022 0.148545 -1.56898 0
M  V30 2146 C 202.268 0.862694 -1.83536 0
M  V30 2147 C 202.601 1.80889 -0.706604 0
M  V30 2148 O 201.876 1.92328 0.289885 0
M  V30 2149 C 202.159 1.63853 -3.20662 0
M  V30 2150 C 202.012 0.713925 -4.44098 0
M  V30 2151 C 203.331 2.60133 -3.54991 0
M  V30 2152 H 200.45 0.312179 -0.667618 0
M  V30 2153 H 203.092 0.127953 -1.89569 0
M  V30 2154 H 201.242 2.26489 -3.1565 0
M  V30 2155 H 202.914 0.098686 -4.61194 0
M  V30 2156 H 201.157 0.0234019 -4.33794 0
M  V30 2157 H 201.828 1.29278 -5.36648 0
M  V30 2158 H 204.304 2.07616 -3.60603 0
M  V30 2159 H 203.18 3.11468 -4.51972 0
M  V30 2160 H 203.441 3.41417 -2.80868 0
M  V30 2161 N 202.5 1.5196 0.417844 0
M  V30 2162 C 203.777 1.56146 1.17803 0
M  V30 2163 C 204.157 0.337275 2.08388 0
M  V30 2164 O 203.505 -0.676447 2.18258 0
M  V30 2165 C 203.715 2.88566 1.96293 0
M  V30 2166 C 205.063 3.41244 2.52662 0
M  V30 2167 O 206.087 2.90247 2.06483 0
M  V30 2168 O 204.946 4.30273 3.36938 0
M  V30 2169 H 202.04 0.628598 0.537395 0
M  V30 2170 H 204.586 1.64283 0.425331 0
M  V30 2171 H 203.358 3.69116 1.2988 0
M  V30 2172 H 202.981 2.83681 2.78587 0
M  V30 2173 N 203.978 -0.674533 1.42435 0
M  V30 2174 C 205.206 -1.46283 1.46317 0
M  V30 2175 C 205.621 -1.88653 0.0745836 0
M  V30 2176 O 204.978 -1.58151 -0.91074 0
M  V30 2177 C 205.029 -2.71178 2.3905 0
M  V30 2178 O 204.75 -2.30586 3.72507 0
M  V30 2179 C 206.251 -3.64738 2.51955 0
M  V30 2180 H 203.471 -0.450104 0.497642 0
M  V30 2181 H 206.015 -0.828792 1.86953 0
M  V30 2182 H 204.17 -3.3077 2.01667 0
M  V30 2183 H 204.584 -3.11241 4.22172 0
M  V30 2184 H 206.058 -4.49096 3.20962 0
M  V30 2185 H 206.535 -4.10656 1.55752 0
M  V30 2186 H 207.141 -3.11038 2.90061 0
M  V30 2187 N 205.456 -1.28612 -0.910864 0
M  V30 2188 C 206.386 -1.15326 -2.03032 0
M  V30 2189 C 207.367 -0.0502924 -1.70026 0
M  V30 2190 O 208.552 -0.227797 -1.92859 0
M  V30 2191 C 205.682 -0.817343 -3.37545 0
M  V30 2192 C 204.636 -1.8754 -3.84724 0
M  V30 2193 C 203.962 -1.39305 -5.16235 0
M  V30 2194 C 205.262 -3.28244 -4.06267 0
M  V30 2195 H 206.956 -2.08975 -2.14406 0
M  V30 2196 H 204.502 -1.00612 -1.03021 0
M  V30 2197 H 206.455 -0.711151 -4.15356 0
M  V30 2198 H 205.179 0.154846 -3.26233 0
M  V30 2199 H 203.838 -1.97079 -3.09121 0
M  V30 2200 H 203.486 -0.409846 -5.01328 0
M  V30 2201 H 203.186 -2.10057 -5.48771 0
M  V30 2202 H 204.71 -1.30014 -5.96598 0
M  V30 2203 H 206.124 -3.21611 -4.74594 0
M  V30 2204 H 204.521 -3.96855 -4.5014 0
M  V30 2205 H 205.591 -3.72048 -3.10979 0
M  V30 2206 N 206.934 1.1197 -1.10907 0
M  V30 2207 C 208.162 1.87402 -0.876824 0
M  V30 2208 C 208.577 1.79894 0.573025 0
M  V30 2209 O 207.934 1.17629 1.39534 0
M  V30 2210 C 207.985 3.36428 -1.32282 0
M  V30 2211 O 207.706 3.43765 -2.71582 0
M  V30 2212 C 209.207 4.28783 -1.12518 0
M  V30 2213 H 206.427 0.592793 -0.314384 0
M  V30 2214 H 208.971 1.41649 -1.47499 0
M  V30 2215 H 207.126 3.79706 -0.768229 0
M  V30 2216 H 207.54 4.3652 -2.90776 0
M  V30 2217 H 209.014 5.31613 -1.48633 0
M  V30 2218 H 209.491 4.39153 -0.0642394 0
M  V30 2219 H 210.097 3.91291 -1.66648 0
M  V30 2220 N 208.412 0.89855 1.29475 0
M  V30 2221 C 209.64 0.539261 1.99749 0
M  V30 2222 C 210.055 -0.875716 1.67262 0
M  V30 2223 O 209.412 -1.57786 0.917049 0
M  V30 2224 C 209.463 0.72061 3.54245 0
M  V30 2225 O 209.184 2.07989 3.8558 0
M  V30 2226 C 210.685 0.366118 4.41786 0
M  V30 2227 H 207.905 0.207047 0.638258 0
M  V30 2228 H 210.449 1.20758 1.65039 0
M  V30 2229 H 208.604 0.0994862 3.87272 0
M  V30 2230 H 209.018 2.10841 4.80257 0
M  V30 2231 H 210.492 0.543848 5.49314 0
M  V30 2232 H 210.969 -0.696763 4.33638 0
M  V30 2233 H 211.575 0.964135 4.14228 0
M  V30 2234 N 209.89 -1.43072 0.660911 0
M  V30 2235 C 211.301 -1.84932 0.256348 0
M  V30 2236 C 211.652 -1.55325 -1.19868 0
M  V30 2237 O 210.777 -1.00607 -1.91591 0
M  V30 2238 C 211.372 -3.35684 0.458475 0
M  V30 2239 C 209.931 -3.76245 0.108161 0
M  V30 2240 C 209.078 -2.66749 0.757641 0
M  V30 2241 H 212.029 -1.33116 0.864051 0
M  V30 2242 H 212.05 -3.79365 -0.293683 0
M  V30 2243 H 211.562 -3.572 1.51755 0
M  V30 2244 H 209.663 -3.60338 -0.948014 0
M  V30 2245 H 209.776 -4.76058 0.538992 0
M  V30 2246 H 208.14 -2.53989 0.190185 0
M  V30 2247 H 208.923 -2.91092 1.81989 0
M  V30 2248 N 211.368 -0.403325 -1.52352 0
M  V30 2249 C 212.331 0.413051 -2.25447 0
M  V30 2250 C 213.331 0.978513 -1.276 0
M  V30 2251 O 214.521 0.858305 -1.51587 0
M  V30 2252 C 211.653 1.58087 -3.02029 0
M  V30 2253 H 212.846 -0.227094 -2.99039 0
M  V30 2254 H 210.399 -0.155722 -1.55522 0
M  V30 2255 H 211.134 2.25804 -2.32772 0
M  V30 2256 H 210.919 1.18195 -3.73861 0
M  V30 2257 H 212.409 2.1585 -3.57489 0
M  V30 2258 N 212.846 1.57033 -0.133567 0
M  V30 2259 C 214.074 2.00044 0.528195 0
M  V30 2260 C 214.489 1.01349 1.59291 0
M  V30 2261 O 213.846 0.00848369 1.82498 0
M  V30 2262 C 213.897 3.43018 1.1411 0
M  V30 2263 O 213.618 4.37939 0.11892 0
M  V30 2264 C 215.119 4.01237 1.88477 0
M  V30 2265 H 212.339 0.656517 0.138661 0
M  V30 2266 H 214.883 2.03267 -0.224196 0
M  V30 2267 H 213.038 3.40688 1.84418 0
M  V30 2268 H 213.452 5.21436 0.56613 0
M  V30 2269 H 214.926 5.03314 2.26669 0
M  V30 2270 H 215.403 3.41193 2.76558 0
M  V30 2271 H 216.009 4.07156 1.22898 0
M  V30 2272 N 214.325 -0.140222 1.56975 0
M  V30 2273 C 215.288 -1.15689 1.97861 0
M  V30 2274 C 216.288 -1.3549 0.865974 0
M  V30 2275 O 217.478 -1.32367 1.13246 0
M  V30 2276 C 214.61 -2.51582 2.30042 0
M  V30 2277 H 215.803 -0.805971 2.88867 0
M  V30 2278 H 213.356 -0.383801 1.51515 0
M  V30 2279 H 214.091 -2.91632 1.41849 0
M  V30 2280 H 213.876 -2.38569 3.11171 0
M  V30 2281 H 215.366 -3.24792 2.62488 0
M  V30 2282 N 215.803 -1.52179 -0.40978 0
M  V30 2283 C 217.219 -1.40968 -0.74835 0
M  V30 2284 C 217.419 -0.513657 -1.94843 0
M  V30 2285 O 216.475 0.0208026 -2.52491 0
M  V30 2286 C 217.788 -2.83483 -1.0029 0
M  V30 2287 C 219.336 -2.92821 -1.10565 0
M  V30 2288 C 219.811 -4.36303 -1.39296 0
M  V30 2289 N 221.302 -4.39535 -1.46162 0
M  V30 2290 C 222.037 -5.47614 -1.70018 0
M  V30 2291 N 221.533 -6.65812 -1.91483 0
M  V30 2292 N 223.326 -5.35129 -1.72027 0
M  V30 2293 H 215.477 -2.0897 0.380186 0
M  V30 2294 H 217.74 -0.94185 0.107805 0
M  V30 2295 H 217.446 -3.51168 -0.193461 0
M  V30 2296 H 217.32 -3.24487 -1.92323 0
M  V30 2297 H 219.707 -2.25318 -1.90568 0
M  V30 2298 H 219.788 -2.55276 -0.16369 0
M  V30 2299 H 219.432 -5.04366 -0.598109 0
M  V30 2300 H 219.362 -4.71385 -2.34743 0
M  V30 2301 H 221.853 -3.54332 -1.31367 0
M  V30 2302 H 222.166 -7.43964 -2.09134 0
M  V30 2303 H 220.511 -6.68879 -1.88749 0
M  V30 2304 H 223.702 -4.41764 -1.54796 0
M  V30 2305 H 223.875 -6.19433 -1.9028 0
M  V30 2306 N 217.281 0.66697 -1.42791 0
M  V30 2307 C 218.244 1.76211 -1.46568 0
M  V30 2308 C 219.244 1.56896 -0.352196 0
M  V30 2309 O 220.434 1.63044 -0.613364 0
M  V30 2310 C 217.566 3.14935 -1.30494 0
M  V30 2311 H 218.759 1.74247 -2.44086 0
M  V30 2312 H 216.312 0.877342 -1.29354 0
M  V30 2313 H 217.047 3.2252 -0.339301 0
M  V30 2314 H 216.832 3.30359 -2.11199 0
M  V30 2315 H 218.322 3.94821 -1.36038 0
M  V30 2316 N 218.759 1.29093 0.90403 0
M  V30 2317 C 219.722 1.1386 1.98919 0
M  V30 2318 C 220.722 0.0753457 1.60623 0
M  V30 2319 O 221.912 0.321931 1.71199 0
M  V30 2320 C 219.044 0.740198 3.32767 0
M  V30 2321 H 220.237 2.10246 2.13861 0
M  V30 2322 H 217.79 1.12218 1.08797 0
M  V30 2323 H 218.525 -0.223997 3.23525 0
M  V30 2324 H 218.31 1.50838 3.61926 0
M  V30 2325 H 219.8 0.656546 4.12407 0
M  V30 2326 N 220.237 -1.11381 1.11499 0
M  V30 2327 C 221.467 -1.86663 0.885464 0
M  V30 2328 C 221.875 -1.80464 -0.568281 0
M  V30 2329 O 221.218 -1.18445 -1.40415 0
M  V30 2330 C 221.28 -3.36337 1.26956 0
M  V30 2331 C 220.944 -3.66304 2.73259 0
M  V30 2332 C 221.941 -3.63733 3.71476 0
M  V30 2333 C 219.626 -3.9529 3.09921 0
M  V30 2334 C 221.62 -3.89725 5.04374 0
M  V30 2335 C 219.307 -4.20941 4.43004 0
M  V30 2336 C 220.305 -4.18147 5.40039 0
M  V30 2337 O 219.993 -4.43153 6.70724 0
M  V30 2338 H 219.725 -0.597114 0.316908 0
M  V30 2339 H 222.279 -1.41782 1.48617 0
M  V30 2340 H 220.509 -3.81826 0.611999 0
M  V30 2341 H 222.198 -3.92986 1.01573 0
M  V30 2342 H 222.964 -3.41389 3.44498 0
M  V30 2343 H 218.843 -3.966 2.35009 0
M  V30 2344 H 222.387 -3.8746 5.80104 0
M  V30 2345 H 218.284 -4.42761 4.69716 0
M  V30 2346 H 219.052 -4.60717 6.76522 0
M  V30 2347 N 221.715 -0.905404 -1.28997 0
M  V30 2348 C 222.625 -0.392246 -2.31298 0
M  V30 2349 C 223.641 0.515889 -1.66176 0
M  V30 2350 O 224.817 0.404093 -1.97304 0
M  V30 2351 C 221.882 0.36686 -3.44754 0
M  V30 2352 C 220.943 -0.573485 -4.25452 0
M  V30 2353 C 220.176 0.149488 -5.33491 0
M  V30 2354 O 220.399 1.37255 -5.5364 0
M  V30 2355 O 219.333 -0.510919 -5.99728 0
M  V30 2356 H 223.159 -1.2411 -2.77183 0
M  V30 2357 H 220.744 -0.669926 -1.33538 0
M  V30 2358 H 222.626 0.795907 -4.13816 0
M  V30 2359 H 221.301 1.19169 -3.00966 0
M  V30 2360 H 220.208 -1.05176 -3.59011 0
M  V30 2361 H 221.541 -1.36489 -4.72897 0
M  V30 2362 N 223.193 1.4272 -0.668489 0
M  V30 2363 C 224.123 2.335 -0.000100175 0
M  V30 2364 C 225.104 1.50328 0.795964 0
M  V30 2365 O 226.289 1.78949 0.754385 0
M  V30 2366 C 223.419 3.33874 0.956302 0
M  V30 2367 C 222.373 4.27152 0.269278 0
M  V30 2368 C 221.699 5.17684 1.33818 0
M  V30 2369 C 222.999 5.15373 -0.847805 0
M  V30 2370 H 224.693 2.89639 -0.758244 0
M  V30 2371 H 222.239 1.39269 -0.366079 0
M  V30 2372 H 224.192 3.9629 1.43292 0
M  V30 2373 H 222.916 2.76025 1.74579 0
M  V30 2374 H 221.575 3.66123 -0.187042 0
M  V30 2375 H 221.223 4.56165 2.1195 0
M  V30 2376 H 220.923 5.80918 0.883659 0
M  V30 2377 H 222.447 5.82974 1.81586 0
M  V30 2378 H 223.861 5.7151 -0.452681 0
M  V30 2379 H 222.258 5.87407 -1.22773 0
M  V30 2380 H 223.328 4.5415 -1.69929 0
M  V30 2381 N 224.671 0.411399 1.52136 0
M  V30 2382 C 225.917 -0.163888 2.02137 0
M  V30 2383 C 226.25 -1.44597 1.29636 0
M  V30 2384 O 225.525 -1.90272 0.403353 0
M  V30 2385 C 225.808 -0.40927 3.57767 0
M  V30 2386 C 225.661 0.889643 4.40914 0
M  V30 2387 C 226.98 -1.19042 4.23694 0
M  V30 2388 H 224.099 -0.0580896 0.734707 0
M  V30 2389 H 226.741 0.54531 1.82007 0
M  V30 2390 H 224.891 -1.0134 3.7505 0
M  V30 2391 H 226.563 1.52575 4.35337 0
M  V30 2392 H 224.806 1.50011 4.07037 0
M  V30 2393 H 225.477 0.672314 5.4789 0
M  V30 2394 H 227.953 -0.678942 4.10524 0
M  V30 2395 H 226.829 -1.33086 5.32522 0
M  V30 2396 H 227.09 -2.21166 3.82803 0
M  V30 2397 N 226.149 -1.5696 0.141893 0
M  V30 2398 C 227.374 -2.00754 -0.520838 0
M  V30 2399 C 227.799 -1.0213 -1.57959 0
M  V30 2400 O 227.157 0.00371324 -1.813 0
M  V30 2401 C 227.205 -3.43318 -1.10294 0
M  V30 2402 O 226.309 -3.47679 -2.21795 0
M  V30 2403 H 225.65 -0.651564 -0.127908 0
M  V30 2404 H 228.18 -2.03221 0.23712 0
M  V30 2405 H 228.19 -3.82012 -1.43287 0
M  V30 2406 H 226.865 -4.14608 -0.327574 0
M  V30 2407 H 225.442 -3.20824 -1.9007 0
M  V30 2408 N 227.627 0.131896 -1.57047 0
M  V30 2409 C 229.043 0.485031 -1.52051 0
M  V30 2410 C 229.243 1.82563 -0.85281 0
M  V30 2411 O 228.299 2.48817 -0.429694 0
M  V30 2412 C 229.612 0.481409 -2.96821 0
M  V30 2413 C 231.16 0.565868 -3.07842 0
M  V30 2414 C 231.635 0.592762 -4.54148 0
M  V30 2415 N 233.126 0.654564 -4.58552 0
M  V30 2416 C 233.861 0.696608 -5.69153 0
M  V30 2417 N 233.357 0.697078 -6.89284 0
M  V30 2418 N 235.15 0.738639 -5.57226 0
M  V30 2419 H 227.301 -0.746664 -1.98843 0
M  V30 2420 H 229.564 -0.273999 -0.90754 0
M  V30 2421 H 229.27 -0.435731 -3.4899 0
M  V30 2422 H 229.144 1.3139 -3.53577 0
M  V30 2423 H 231.531 1.47343 -2.55684 0
M  V30 2424 H 231.612 -0.29406 -2.54104 0
M  V30 2425 H 231.256 -0.310701 -5.06949 0
M  V30 2426 H 231.186 1.46939 -5.05684 0
M  V30 2427 H 233.677 0.660887 -3.72076 0
M  V30 2428 H 233.99 0.731426 -7.69331 0
M  V30 2429 H 232.335 0.66471 -6.91814 0
M  V30 2430 H 235.526 0.735545 -4.62285 0
M  V30 2431 H 235.699 0.767938 -6.43434 0
M  V30 2432 N 229.106 1.52395 0.401703 0
M  V30 2433 C 230.016 1.7917 1.51444 0
M  V30 2434 C 231.032 0.677691 1.6026 0
M  V30 2435 O 232.208 0.963909 1.76835 0
M  V30 2436 C 229.273 1.94347 2.87107 0
M  V30 2437 C 228.334 3.18257 2.88116 0
M  V30 2438 C 227.567 3.32701 4.17308 0
M  V30 2439 O 227.79 2.52238 5.11598 0
M  V30 2440 O 226.724 4.25891 4.25324 0
M  V30 2441 H 230.55 2.73633 1.31752 0
M  V30 2442 H 228.135 1.3733 0.588296 0
M  V30 2443 H 230.017 2.06109 3.67555 0
M  V30 2444 H 228.692 1.03073 3.06851 0
M  V30 2445 H 227.599 3.11947 2.06494 0
M  V30 2446 H 228.932 4.09336 2.73322 0
M  V30 2447 N 230.584 -0.659388 1.43143 0
M  V30 2448 C 231.514 -1.78422 1.50625 0
M  V30 2449 C 232.495 -1.66216 0.361443 0
M  V30 2450 O 233.68 -1.85404 0.577834 0
M  V30 2451 C 230.81 -3.16815 1.42287 0
M  V30 2452 C 229.764 -3.43777 2.54954 0
M  V30 2453 C 229.09 -4.81905 2.31671 0
M  V30 2454 C 230.39 -3.39134 3.97222 0
M  V30 2455 H 232.084 -1.72417 2.44771 0
M  V30 2456 H 229.63 -0.828084 1.17808 0
M  V30 2457 H 231.583 -3.95253 1.46127 0
M  V30 2458 H 230.307 -3.23534 0.446435 0
M  V30 2459 H 228.966 -2.67707 2.50457 0
M  V30 2460 H 228.614 -4.85294 1.32284 0
M  V30 2461 H 228.314 -5.00906 3.07192 0
M  V30 2462 H 229.838 -5.62609 2.37284 0
M  V30 2463 H 231.252 -4.07518 4.03239 0
M  V30 2464 H 229.649 -3.69671 4.72719 0
M  V30 2465 H 230.719 -2.37426 4.22797 0
M  V30 2466 N 232.062 -1.29571 -0.897171 0
M  V30 2467 C 233.31 -1.17456 -1.64464 0
M  V30 2468 C 233.631 0.273698 -1.9307 0
M  V30 2469 O 232.901 1.18684 -1.55855 0
M  V30 2470 H 231.481 -0.431706 -0.609622 0
M  V30 2471 H 234.143 -1.62531 -1.07562 0
M  V30 2472 H 233.239 -1.72648 -2.59998 0
M  V30 2473 N 233.54 1.10788 -1.12088 0
M  V30 2474 C 234.45 2.20599 -0.798338 0
M  V30 2475 C 235.466 1.72712 0.21135 0
M  V30 2476 O 236.642 2.01348 0.0458477 0
M  V30 2477 C 233.707 3.45771 -0.253674 0
M  V30 2478 C 232.768 4.08411 -1.32283 0
M  V30 2479 C 232.001 5.27608 -0.80406 0
M  V30 2480 O 232.224 5.69241 0.363478 0
M  V30 2481 O 231.158 5.8101 -1.57198 0
M  V30 2482 H 234.984 2.50614 -1.7154 0
M  V30 2483 H 232.569 1.19454 -0.897275 0
M  V30 2484 H 234.451 4.21376 0.0453691 0
M  V30 2485 H 233.126 3.1739 0.636005 0
M  V30 2486 H 232.033 3.34507 -1.67499 0
M  V30 2487 H 233.366 4.40986 -2.18614 0
M  V30 2488 N 235.018 0.912232 1.28515 0
M  V30 2489 C 236.434 0.610159 1.47476 0
M  V30 2490 C 236.634 -0.844955 1.82928 0
M  V30 2491 O 235.69 -1.62416 1.93332 0
M  V30 2492 C 237.003 1.54675 2.57868 0
M  V30 2493 C 238.551 1.55331 2.71738 0
M  V30 2494 C 239.026 2.47649 3.85272 0
M  V30 2495 N 240.517 2.45767 3.92623 0
M  V30 2496 C 241.252 3.13896 4.79851 0
M  V30 2497 N 240.748 3.9135 5.71679 0
M  V30 2498 N 242.541 3.02991 4.73448 0
M  V30 2499 H 234.692 1.85318 1.03783 0
M  V30 2500 H 236.955 0.794777 0.516753 0
M  V30 2501 H 236.661 2.5841 2.38574 0
M  V30 2502 H 236.535 1.27671 3.54937 0
M  V30 2503 H 238.922 0.52335 2.90422 0
M  V30 2504 H 239.003 1.86378 1.75205 0
M  V30 2505 H 238.647 3.50745 3.67342 0
M  V30 2506 H 238.577 2.13904 4.81199 0
M  V30 2507 H 241.068 1.89503 3.26951 0
M  V30 2508 H 241.381 4.40359 6.35062 0
M  V30 2509 H 239.726 3.95455 5.71524 0
M  V30 2510 H 242.917 2.41987 4.007 0
M  V30 2511 H 243.09 3.5636 5.41213 0
M  V30 2512 N 236.496 -1.42363 0.676048 0
M  V30 2513 C 237.907 -1.84649 0.275948 0
M  V30 2514 C 238.258 -1.56588 -1.18214 0
M  V30 2515 O 237.383 -1.02634 -1.90513 0
M  V30 2516 C 237.978 -3.35178 0.494053 0
M  V30 2517 C 236.537 -3.76109 0.148061 0
M  V30 2518 C 235.684 -2.65931 0.785891 0
M  V30 2519 H 238.635 -1.32192 0.878121 0
M  V30 2520 H 238.656 -3.79655 -0.25343 0
M  V30 2521 H 238.168 -3.55571 1.55535 0
M  V30 2522 H 236.269 -3.61323 -0.909742 0
M  V30 2523 H 236.382 -4.7546 0.589454 0
M  V30 2524 H 234.746 -2.53773 0.217113 0
M  V30 2525 H 235.529 -2.89146 1.85067 0
M  V30 2526 N 237.974 -0.419461 -1.51915 0
M  V30 2527 C 239.223 0.154346 -2.01109 0
M  V30 2528 C 239.536 1.45338 -1.30905 0
M  V30 2529 O 240.742 2.10906 -1.7097 0
M  V30 2530 C 239.198 0.325615 -3.58424 0
M  V30 2531 C 238.806 -0.961934 -4.37551 0
M  V30 2532 C 240.55 0.854155 -4.15818 0
M  V30 2533 C 238.457 -0.757287 -5.86531 0
M  V30 2534 H 237.387 0.0614563 -0.751491 0
M  V30 2535 H 240.038 -0.54649 -1.75173 0
M  V30 2536 H 238.42 1.08903 -3.80731 0
M  V30 2537 H 239.594 -1.7323 -4.26999 0
M  V30 2538 H 237.909 -1.41766 -3.91524 0
M  V30 2539 H 240.506 1.02346 -5.24814 0
M  V30 2540 H 240.849 1.83172 -3.73837 0
M  V30 2541 H 241.382 0.149528 -3.97519 0
M  V30 2542 H 238.121 -1.70671 -6.32892 0
M  V30 2543 H 237.641 -0.0264061 -5.99794 0
M  V30 2544 H 239.32 -0.403482 -6.45741 0
M  V30 2545 N 239.452 1.56882 -0.150215 0
M  V30 2546 C 240.868 1.58263 0.20617 0
M  V30 2547 C 241.068 1.16464 1.64434 0
M  V30 2548 O 240.124 0.866422 2.3717 0
M  V30 2549 C 241.437 3.00649 -0.0555025 0
M  V30 2550 C 242.985 3.12999 0.00795388 0
M  V30 2551 C 243.46 4.5744 -0.226429 0
M  V30 2552 N 244.951 4.62875 -0.173469 0
M  V30 2553 C 245.686 5.72454 -0.329288 0
M  V30 2554 N 245.182 6.90669 -0.543005 0
M  V30 2555 N 246.975 5.61467 -0.266666 0
M  V30 2556 H 239.126 1.82345 -1.08922 0
M  V30 2557 H 241.389 0.844149 -0.431413 0
M  V30 2558 H 241.095 3.3563 -1.05096 0
M  V30 2559 H 240.969 3.71337 0.66246 0
M  V30 2560 H 243.356 2.77857 0.993966 0
M  V30 2561 H 243.437 2.4479 -0.742388 0
M  V30 2562 H 243.081 4.93287 -1.20956 0
M  V30 2563 H 243.011 5.2378 0.544274 0
M  V30 2564 H 245.502 3.77898 -0.0130709 0
M  V30 2565 H 245.815 7.70045 -0.651922 0
M  V30 2566 H 244.16 6.92581 -0.579366 0
M  V30 2567 H 247.351 4.67992 -0.100441 0
M  V30 2568 H 247.524 6.46816 -0.391535 0
M  V30 2569 N 240.93 -0.123565 1.57115 0
M  V30 2570 C 242.158 -0.846461 1.88793 0
M  V30 2571 C 242.573 -1.73652 0.740976 0
M  V30 2572 O 241.93 -1.80207 -0.288393 0
M  V30 2573 C 241.981 -1.6837 3.19897 0
M  V30 2574 O 241.702 -0.829477 4.30176 0
M  V30 2575 C 243.203 -2.51214 3.65248 0
M  V30 2576 H 240.423 -0.243573 0.625231 0
M  V30 2577 H 242.967 -0.109324 2.04208 0
M  V30 2578 H 241.122 -2.37364 3.06165 0
M  V30 2579 H 241.536 -1.40651 5.0529 0
M  V30 2580 H 243.01 -3.05497 4.59756 0
M  V30 2581 H 243.487 -3.28359 2.9168 0
M  V30 2582 H 244.093 -1.8747 3.81752 0
M  V30 2583 N 242.408 -1.52605 -0.393616 0
M  V30 2584 C 243.654 -1.67672 -1.14079 0
M  V30 2585 C 243.987 -0.413121 -1.89755 0
M  V30 2586 O 243.262 0.588952 -1.85369 0
M  V30 2587 C 243.545 -2.9088 -2.12276 0
M  V30 2588 C 243.398 -4.27329 -1.40394 0
M  V30 2589 C 244.717 -3.09628 -3.12759 0
M  V30 2590 H 241.836 -0.610168 -0.413356 0
M  V30 2591 H 244.478 -1.85193 -0.424696 0
M  V30 2592 H 242.628 -2.76073 -2.73342 0
M  V30 2593 H 244.3 -4.53894 -0.82327 0
M  V30 2594 H 242.543 -4.2802 -0.705801 0
M  V30 2595 H 243.214 -5.09615 -2.12123 0
M  V30 2596 H 245.69 -3.23436 -2.61779 0
M  V30 2597 H 244.566 -3.97322 -3.78717 0
M  V30 2598 H 244.827 -2.23637 -3.81365 0
M  V30 2599 N 243.887 0.651787 -1.4349 0
M  V30 2600 C 245.136 1.40754 -1.44469 0
M  V30 2601 C 245.449 1.95463 -0.0731845 0
M  V30 2602 O 246.655 2.71471 0.0395721 0
M  V30 2603 C 245.111 2.54735 -2.5424 0
M  V30 2604 C 244.719 2.06628 -3.97504 0
M  V30 2605 C 246.463 3.32092 -2.64414 0
M  V30 2606 C 244.37 3.17829 -4.98737 0
M  V30 2607 H 243.3 0.528862 -0.53742 0
M  V30 2608 H 245.951 0.703365 -1.69485 0
M  V30 2609 H 244.333 3.2763 -2.22428 0
M  V30 2610 H 245.507 1.40734 -4.38783 0
M  V30 2611 H 243.822 1.42146 -3.91387 0
M  V30 2612 H 246.419 4.14952 -3.37223 0
M  V30 2613 H 246.762 3.80217 -1.69532 0
M  V30 2614 H 247.295 2.66279 -2.95534 0
M  V30 2615 H 244.034 2.74671 -5.95177 0
M  V30 2616 H 243.554 3.82429 -4.62069 0
M  V30 2617 H 245.233 3.82937 -5.21505 0
M  V30 2618 N 245.365 1.30045 0.890287 0
M  V30 2619 C 246.595 1.21296 1.67245 0
M  V30 2620 C 247.003 -0.227471 1.87828 0
M  V30 2621 O 246.346 -1.16296 1.422 0
M  V30 2622 C 246.408 1.86519 3.07329 0
M  V30 2623 C 246.072 3.35837 3.09939 0
M  V30 2624 C 247.069 4.31915 2.89389 0
M  V30 2625 C 244.754 3.77196 3.31706 0
M  V30 2626 C 246.748 5.67325 2.90552 0
M  V30 2627 C 244.435 5.12725 3.32499 0
M  V30 2628 C 245.433 6.076 3.11947 0
M  V30 2629 O 245.121 7.40655 3.12547 0
M  V30 2630 H 244.853 0.4211 0.528821 0
M  V30 2631 H 247.407 1.72111 1.12103 0
M  V30 2632 H 245.637 1.30228 3.64112 0
M  V30 2633 H 247.326 1.71963 3.67673 0
M  V30 2634 H 248.092 4.01294 2.72375 0
M  V30 2635 H 243.971 3.03796 3.4674 0
M  V30 2636 H 247.515 6.41354 2.74429 0
M  V30 2637 H 243.412 5.42988 3.49047 0
M  V30 2638 H 244.18 7.49577 3.28749 0
M  V30 2639 N 246.843 -1.10192 1.12674 0
M  V30 2640 C 248.068 -1.86523 0.906853 0
M  V30 2641 C 248.493 -1.80221 -0.538711 0
M  V30 2642 O 247.851 -1.17396 -1.38158 0
M  V30 2643 C 247.899 -3.32758 1.3894 0
M  V30 2644 O 247.003 -4.08449 0.5695 0
M  V30 2645 H 246.344 -0.578678 0.325619 0
M  V30 2646 H 248.874 -1.39203 1.49946 0
M  V30 2647 H 248.884 -3.83608 1.38958 0
M  V30 2648 H 247.559 -3.36661 2.44197 0
M  V30 2649 H 246.136 -3.67427 0.636528 0
M  V30 2650 N 248.321 -0.919034 -1.28029 0
M  V30 2651 C 249.271 -0.382574 -2.24767 0
M  V30 2652 C 250.255 0.508286 -1.52661 0
M  V30 2653 O 251.447 0.347145 -1.73562 0
M  V30 2654 C 248.576 0.371432 -3.41285 0
M  V30 2655 C 247.662 -0.535449 -4.20706 0
M  V30 2656 N 248.053 -1.65141 -4.78082 0
M  V30 2657 C 246.351 -0.336824 -4.44726 0
M  V30 2658 C 247.052 -2.21475 -5.37888 0
M  V30 2659 N 246.028 -1.50537 -5.22341 0
M  V30 2660 H 249.83 -1.23477 -2.66703 0
M  V30 2661 H 247.344 -0.772299 -1.42861 0
M  V30 2662 H 249.341 0.772638 -4.09678 0
M  V30 2663 H 248.001 1.22066 -3.00882 0
M  V30 2664 H 249.012 -2.03392 -4.7629 0
M  V30 2665 H 245.689 0.47246 -4.14818 0
M  V30 2666 H 247.079 -3.15379 -5.93284 0
M  V30 2667 N 249.799 1.42003 -0.683588 0
M  V30 2668 C 250.762 2.29191 -0.0198243 0
M  V30 2669 C 251.762 1.43773 0.72013 0
M  V30 2670 O 252.952 1.65061 0.556815 0
M  V30 2671 C 250.084 3.26435 0.982487 0
M  V30 2672 H 251.277 2.8938 -0.787345 0
M  V30 2673 H 248.83 1.49789 -0.446418 0
M  V30 2674 H 249.565 2.71203 1.77819 0
M  V30 2675 H 249.35 3.89449 0.455182 0
M  V30 2676 H 250.84 3.918 1.44508 0
M  V30 2677 N 251.277 0.427512 1.51691 0
M  V30 2678 C 252.227 -0.406604 2.24345 0
M  V30 2679 C 253.211 -0.998276 1.26187 0
M  V30 2680 O 254.403 -0.918045 1.51331 0
M  V30 2681 C 251.532 -1.51266 3.08177 0
M  V30 2682 C 250.618 -0.930868 4.13758 0
M  V30 2683 N 251.009 -0.0773552 5.05741 0
M  V30 2684 C 249.307 -1.19948 4.29568 0
M  V30 2685 C 250.008 0.248344 5.8117 0
M  V30 2686 N 248.984 -0.365535 5.4237 0
M  V30 2687 H 252.786 0.251581 2.92821 0
M  V30 2688 H 250.3 0.239003 1.60632 0
M  V30 2689 H 252.297 -2.123 3.58796 0
M  V30 2690 H 250.957 -2.17328 2.41244 0
M  V30 2691 H 251.968 0.288351 5.17097 0
M  V30 2692 H 248.645 -1.85832 3.73862 0
M  V30 2693 H 250.035 0.942286 6.6526 0
M  V30 2694 N 252.755 -1.56801 0.158532 0
M  V30 2695 C 253.718 -2.16138 -0.762705 0
M  V30 2696 C 254.718 -1.1061 -1.16713 0
M  V30 2697 O 255.908 -1.36191 -1.08617 0
M  V30 2698 C 253.04 -2.73386 -2.03649 0
M  V30 2699 H 254.233 -2.98886 -0.246354 0
M  V30 2700 H 251.786 -1.56035 -0.0909744 0
M  V30 2701 H 252.521 -1.94335 -2.59623 0
M  V30 2702 H 252.306 -3.50601 -1.75559 0
M  V30 2703 H 253.796 -3.19065 -2.6942 0
M  V30 2704 N 254.233 0.115231 -1.57178 0
M  V30 2705 C 255.51 0.852873 -1.76027 0
M  V30 2706 C 255.89 1.97892 -0.73498 0
M  V30 2707 O 255.238 2.27232 0.24036 0
M  V30 2708 C 255.448 1.36608 -3.21153 0
M  V30 2709 C 256.796 1.81692 -3.83762 0
M  V30 2710 O 257.82 1.46278 -3.24779 0
M  V30 2711 O 256.679 2.47104 -4.87444 0
M  V30 2712 H 253.773 0.405296 -0.720877 0
M  V30 2713 H 256.319 0.0986785 -1.69413 0
M  V30 2714 H 255.091 0.558357 -3.87296 0
M  V30 2715 H 254.714 2.18287 -3.3232 0
M  V30 2716 N 255.711 1.52812 0.385517 0
M  V30 2717 C 256.661 1.74219 1.47078 0
M  V30 2718 C 257.645 0.59632 1.49442 0
M  V30 2719 O 258.837 0.85428 1.5502 0
M  V30 2720 C 255.966 1.9176 2.84751 0
M  V30 2721 C 255.052 3.12289 2.86943 0
M  V30 2722 N 255.443 4.34575 2.58802 0
M  V30 2723 C 253.741 3.12605 3.1811 0
M  V30 2724 C 254.442 5.162 2.68166 0
M  V30 2725 N 253.418 4.51964 3.02043 0
M  V30 2726 H 257.22 2.6639 1.24152 0
M  V30 2727 H 254.734 1.51166 0.593504 0
M  V30 2728 H 256.731 2.05218 3.62893 0
M  V30 2729 H 255.391 1.00805 3.08656 0
M  V30 2730 H 256.402 4.62649 2.32759 0
M  V30 2731 H 253.079 2.31472 3.47458 0
M  V30 2732 H 254.469 6.23689 2.49923 0
M  V30 2733 N 257.189 -0.644168 1.43834 0
M  V30 2734 C 258.436 -1.40395 1.4593 0
M  V30 2735 C 258.764 -1.94305 0.0869658 0
M  V30 2736 O 258.019 -1.73288 -0.909378 0
M  V30 2737 C 258.318 -2.59615 2.45631 0
M  V30 2738 C 257.984 -2.2407 3.91284 0
M  V30 2739 C 256.646 -2.14089 4.30952 0
M  V30 2740 C 258.998 -1.95775 4.83034 0
M  V30 2741 C 256.326 -1.73981 5.6031 0
M  V30 2742 C 258.678 -1.57163 6.12766 0
M  V30 2743 C 257.342 -1.45713 6.51402 0
M  V30 2744 H 256.612 -0.513741 0.533995 0
M  V30 2745 H 259.259 -0.731724 1.76969 0
M  V30 2746 H 257.564 -3.32011 2.08028 0
M  V30 2747 H 259.261 -3.17834 2.44504 0
M  V30 2748 H 255.851 -2.32753 3.59895 0
M  V30 2749 H 260.035 -2.02403 4.53152 0
M  V30 2750 H 255.291 -1.63709 5.89075 0
M  V30 2751 H 259.465 -1.34303 6.83327 0
M  V30 2752 H 257.092 -1.14406 7.51542 0
M  V30 2753 N 258.668 -1.30515 -0.883378 0
M  V30 2754 C 259.916 -1.19194 -1.63209 0
M  V30 2755 C 260.237 0.253205 -1.93349 0
M  V30 2756 O 259.507 1.17025 -1.57105 0
M  V30 2757 H 258.087 -0.438148 -0.605009 0
M  V30 2758 H 260.749 -1.63663 -1.05832 0
M  V30 2759 H 259.845 -1.75396 -2.58153 0
M  V30 2760 N 260.146 1.09593 -1.13257 0
M  V30 2761 C 261.394 1.81375 -0.891492 0
M  V30 2762 C 261.715 1.86049 0.584009 0
M  V30 2763 O 260.985 1.34481 1.42449 0
M  V30 2764 H 259.565 0.671708 -0.326828 0
M  V30 2765 H 262.227 1.3256 -1.42877 0
M  V30 2766 H 261.323 2.84612 -1.28071 0
M  V30 2767 N 261.624 0.925811 1.2754 0
M  V30 2768 C 262.87 0.566092 1.94739 0
M  V30 2769 C 263.203 -0.890057 1.72603 0
M  V30 2770 O 262.478 -1.63467 1.05399 0
M  V30 2771 C 262.761 0.89054 3.48915 0
M  V30 2772 C 262.614 2.4003 3.80402 0
M  V30 2773 C 263.933 0.395101 4.38323 0
M  V30 2774 H 261.052 0.20714 0.707292 0
M  V30 2775 H 263.694 1.15725 1.50691 0
M  V30 2776 H 261.844 0.387452 3.86563 0
M  V30 2777 H 263.516 2.97494 3.52555 0
M  V30 2778 H 261.759 2.85028 3.2702 0
M  V30 2779 H 262.43 2.57785 4.8811 0
M  V30 2780 H 264.906 0.826241 4.07814 0
M  V30 2781 H 263.782 0.651086 5.45025 0
M  V30 2782 H 264.043 -0.704798 4.36446 0
M  V30 2783 N 263.102 -1.41638 0.69111 0
M  V30 2784 C 264.518 -1.55435 0.362224 0
M  V30 2785 C 264.718 -1.66754 -1.13117 0
M  V30 2786 O 263.774 -1.64348 -1.91692 0
M  V30 2787 C 265.087 -2.79588 1.10684 0
M  V30 2788 C 266.635 -2.9338 1.09075 0
M  V30 2789 C 267.11 -4.20414 1.81703 0
M  V30 2790 N 268.601 -4.27362 1.7865 0
M  V30 2791 C 269.336 -5.24507 2.31689 0
M  V30 2792 N 268.832 -6.27708 2.93179 0
M  V30 2793 N 270.625 -5.16416 2.2197 0
M  V30 2794 H 262.776 -1.32536 1.65976 0
M  V30 2795 H 265.039 -0.639115 0.700168 0
M  V30 2796 H 264.745 -2.77419 2.16175 0
M  V30 2797 H 264.619 -3.70973 0.682545 0
M  V30 2798 H 267.006 -2.95067 0.0441238 0
M  V30 2799 H 267.087 -2.0318 1.55407 0
M  V30 2800 H 266.731 -4.19488 2.86343 0
M  V30 2801 H 266.661 -5.09578 1.32808 0
M  V30 2802 H 269.152 -3.53415 1.33815 0
M  V30 2803 H 269.465 -6.98217 3.31229 0
M  V30 2804 H 267.81 -6.28223 2.97255 0
M  V30 2805 H 271.001 -4.34716 1.73607 0
M  V30 2806 H 271.174 -5.91958 2.63609 0
M  V30 2807 N 264.58 -0.43555 -1.51462 0
M  V30 2808 C 265.828 0.131254 -2.01673 0
M  V30 2809 C 266.149 1.43368 -1.32177 0
M  V30 2810 O 265.419 1.90524 -0.455769 0
M  V30 2811 H 263.999 0.0514954 -0.745223 0
M  V30 2812 H 266.661 -0.577847 -1.86137 0
M  V30 2813 H 265.757 0.308446 -3.10572 0
M  V30 2814 N 266.058 1.56714 -0.166846 0
M  V30 2815 C 266.988 2.20754 0.760913 0
M  V30 2816 C 267.969 1.16178 1.24244 0
M  V30 2817 O 269.154 1.44592 1.29641 0
M  V30 2818 C 266.284 2.84478 1.99223 0
M  V30 2819 C 265.238 3.95053 1.64672 0
M  V30 2820 C 264.564 4.45805 2.95232 0
M  V30 2821 C 265.864 5.14865 0.878155 0
M  V30 2822 H 267.558 2.98537 0.22713 0
M  V30 2823 H 265.104 1.43596 0.107805 0
M  V30 2824 H 267.057 3.27951 2.64624 0
M  V30 2825 H 265.781 2.04056 2.55007 0
M  V30 2826 H 264.44 3.52228 1.01641 0
M  V30 2827 H 264.088 3.62181 3.49047 0
M  V30 2828 H 263.788 5.204 2.7287 0
M  V30 2829 H 265.312 4.91962 3.6167 0
M  V30 2830 H 266.726 5.55059 1.43466 0
M  V30 2831 H 265.123 5.95348 0.753738 0
M  V30 2832 H 266.193 4.84735 -0.126377 0
M  V30 2833 N 267.536 -0.106894 1.57237 0
M  V30 2834 C 268.782 -0.81373 1.85759 0
M  V30 2835 C 269.115 -1.78952 0.754315 0
M  V30 2836 O 268.39 -1.93029 -0.23879 0
M  V30 2837 C 268.673 -1.55293 3.24894 0
M  V30 2838 C 268.526 -0.595929 4.45835 0
M  V30 2839 C 269.845 -2.5063 3.61763 0
M  V30 2840 H 266.964 -0.294369 0.67566 0
M  V30 2841 H 269.606 -0.0776472 1.89841 0
M  V30 2842 H 267.756 -2.1804 3.21544 0
M  V30 2843 H 269.428 0.0236262 4.61294 0
M  V30 2844 H 267.671 0.0916191 4.33703 0
M  V30 2845 H 268.342 -1.15004 5.39887 0
M  V30 2846 H 270.818 -1.97982 3.65981 0
M  V30 2847 H 269.694 -2.99376 4.60071 0
M  V30 2848 H 269.955 -3.3385 2.89821 0
M  V30 2849 N 269.014 -1.53014 -0.377408 0
M  V30 2850 C 269.924 -1.81557 -1.48574 0
M  V30 2851 C 270.94 -0.703102 -1.59162 0
M  V30 2852 O 272.116 -0.99192 -1.75279 0
M  V30 2853 C 269.181 -1.9889 -2.83978 0
M  V30 2854 C 268.242 -3.22801 -2.83016 0
M  V30 2855 C 267.475 -3.39298 -4.11962 0
M  V30 2856 O 267.698 -2.60345 -5.0752 0
M  V30 2857 O 266.632 -4.32604 -4.18494 0
M  V30 2858 H 270.458 -2.75695 -1.27382 0
M  V30 2859 H 268.043 -1.38248 -0.566373 0
M  V30 2860 H 269.925 -2.11931 -3.6423 0
M  V30 2861 H 268.6 -1.07942 -3.05172 0
M  V30 2862 H 267.507 -3.15193 -2.01505 0
M  V30 2863 H 268.84 -4.13632 -2.66775 0
M  V30 2864 N 270.492 0.636531 -1.44174 0
M  V30 2865 C 271.903 1.21806 -1.41493 0
M  V30 2866 C 272.254 1.95785 -0.1275 0
M  V30 2867 O 271.379 2.02147 0.772376 0
M  V30 2868 C 271.974 2.21551 -2.56321 0
M  V30 2869 C 270.533 2.75143 -2.56853 0
M  V30 2870 C 269.68 1.50052 -2.33195 0
M  V30 2871 H 272.631 0.427531 -1.52833 0
M  V30 2872 H 272.652 3.0405 -2.28765 0
M  V30 2873 H 272.164 1.67679 -3.50008 0
M  V30 2874 H 270.265 3.33033 -1.67093 0
M  V30 2875 H 270.378 3.2155 -3.55165 0
M  V30 2876 H 268.742 1.77993 -1.82183 0
M  V30 2877 H 269.525 0.980903 -3.28988 0
M  V30 2878 N 271.97 1.30982 0.876444 0
M  V30 2879 C 272.902 1.13902 1.98894 0
M  V30 2880 C 273.915 0.0798815 1.62604 0
M  V30 2881 O 275.104 0.326743 1.75484 0
M  V30 2882 C 272.204 0.716699 3.31235 0
M  V30 2883 C 271.377 1.85945 3.95908 0
M  V30 2884 C 270.436 1.42426 5.06558 0
M  V30 2885 O 269.462 2.13287 5.27729 0
M  V30 2886 N 270.664 0.308025 5.79682 0
M  V30 2887 H 273.429 2.09724 2.14094 0
M  V30 2888 H 270.99 1.2323 1.05004 0
M  V30 2889 H 272.982 0.408403 4.02634 0
M  V30 2890 H 271.552 -0.149719 3.12241 0
M  V30 2891 H 270.772 2.33541 3.17573 0
M  V30 2892 H 272.06 2.62503 4.35855 0
M  V30 2893 H 271.458 -0.282241 5.64995 0
M  V30 2894 H 270.015 0.0592282 6.51773 0
M  V30 2895 N 273.449 -1.08991 1.13837 0
M  V30 2896 C 274.381 -2.15606 0.777612 0
M  V30 2897 C 275.394 -1.61533 -0.202739 0
M  V30 2898 O 276.583 -1.78491 0.0181055 0
M  V30 2899 C 273.683 -3.3864 0.132623 0
M  V30 2900 C 272.856 -4.22115 1.1462 0
M  V30 2901 C 271.915 -5.23564 0.526074 0
M  V30 2902 O 270.941 -5.56678 1.18735 0
M  V30 2903 N 272.143 -5.76266 -0.699866 0
M  V30 2904 H 274.908 -2.47159 1.69506 0
M  V30 2905 H 272.469 -1.24747 1.03198 0
M  V30 2906 H 274.461 -4.03626 -0.29459 0
M  V30 2907 H 273.031 -3.04938 -0.687849 0
M  V30 2908 H 272.251 -3.53199 1.75055 0
M  V30 2909 H 273.539 -4.74709 1.83109 0
M  V30 2910 H 272.937 -5.51585 -1.25581 0
M  V30 2911 H 271.494 -6.42963 -1.06968 0
M  V30 2912 N 274.927 -0.932562 -1.27047 0
M  V30 2913 C 276.173 -0.576412 -1.94436 0
M  V30 2914 C 276.506 0.880891 -1.73072 0
M  V30 2915 O 275.781 1.62905 -1.06264 0
M  V30 2916 C 276.064 -0.909031 -3.48437 0
M  V30 2917 C 275.917 -2.42044 -3.79123 0
M  V30 2918 C 277.236 -0.418341 -4.38107 0
M  V30 2919 H 274.355 -0.210888 -0.706184 0
M  V30 2920 H 276.997 -1.16522 -1.50075 0
M  V30 2921 H 275.147 -0.407947 -3.86352 0
M  V30 2922 H 276.819 -2.99359 -3.50973 0
M  V30 2923 H 275.062 -2.86758 -3.25503 0
M  V30 2924 H 275.733 -2.6037 -4.86736 0
M  V30 2925 H 278.209 -0.847856 -4.0737 0
M  V30 2926 H 277.085 -0.679981 -5.44672 0
M  V30 2927 H 277.346 0.681642 -4.36814 0
M  V30 2928 N 276.405 1.4127 -0.698611 0
M  V30 2929 C 277.368 2.29158 -0.044132 0
M  V30 2930 C 278.368 1.44529 0.704841 0
M  V30 2931 O 279.558 1.65643 0.539276 0
M  V30 2932 C 276.69 3.27459 0.947809 0
M  V30 2933 H 277.883 2.88529 -0.817994 0
M  V30 2934 H 275.436 1.49307 -0.46228 0
M  V30 2935 H 276.171 2.73073 1.74933 0
M  V30 2936 H 275.956 3.8991 0.41385 0
M  V30 2937 H 277.446 3.93311 1.40344 0
M  V30 2938 N 277.883 0.443576 1.51229 0
M  V30 2939 C 279.108 -0.121648 2.07043 0
M  V30 2940 C 279.533 -1.35156 1.30823 0
M  V30 2941 O 278.891 -1.7793 0.347934 0
M  V30 2942 C 278.939 -0.41624 3.5819 0
M  V30 2943 O 278.043 -1.50163 3.8409 0
M  V30 2944 H 277.384 0.000871367 0.663999 0
M  V30 2945 H 279.914 0.626706 1.94765 0
M  V30 2946 H 279.924 -0.664867 4.02546 0
M  V30 2947 H 278.599 0.482653 4.1309 0
M  V30 2948 H 277.176 -1.24248 3.51592 0
M  V30 2949 N 279.361 -1.56624 0.175154 0
M  V30 2950 C 280.609 -1.96609 -0.467885 0
M  V30 2951 C 280.93 -1.06238 -1.63519 0
M  V30 2952 O 280.2 -0.129523 -1.95471 0
M  V30 2953 H 278.78 -0.726008 -0.175845 0
M  V30 2954 H 281.442 -1.93195 0.257234 0
M  V30 2955 H 280.538 -3.00989 -0.825342 0
M  V30 2956 N 280.839 0.0985539 -1.57292 0
M  V30 2957 C 281.802 1.10402 -2.00858 0
M  V30 2958 C 282.802 1.33146 -0.901593 0
M  V30 2959 O 283.992 1.29318 -1.16716 0
M  V30 2960 C 281.124 2.45394 -2.36632 0
M  V30 2961 H 282.317 0.729099 -2.90902 0
M  V30 2962 H 279.87 0.343495 -1.52479 0
M  V30 2963 H 280.605 2.87769 -1.49531 0
M  V30 2964 H 280.39 2.30235 -3.17387 0
M  V30 2965 H 281.88 3.17718 -2.71007 0
M  V30 2966 N 282.317 1.53212 0.369288 0
M  V30 2967 C 283.563 1.69466 1.11397 0
M  V30 2968 C 283.896 0.443257 1.89074 0
M  V30 2969 O 283.171 -0.559386 1.86282 0
M  V30 2970 C 283.454 2.9422 2.07621 0
M  V30 2971 C 283.307 4.29508 1.33577 0
M  V30 2972 C 284.626 3.14565 3.07794 0
M  V30 2973 H 281.745 0.616667 0.403597 0
M  V30 2974 H 284.387 1.85845 0.395179 0
M  V30 2975 H 282.537 2.80387 2.68916 0
M  V30 2976 H 284.209 4.55147 0.750955 0
M  V30 2977 H 282.452 4.29088 0.637618 0
M  V30 2978 H 283.123 5.12926 2.03989 0
M  V30 2979 H 285.599 3.2756 2.56601 0
M  V30 2980 H 284.475 4.03297 3.72348 0
M  V30 2981 H 284.736 2.29675 3.77759 0
M  V30 2982 N 283.795 -0.628877 1.44509 0
M  V30 2983 C 284.727 -1.754 1.47538 0
M  V30 2984 C 285.74 -1.58575 0.368506 0
M  V30 2985 O 286.929 -1.66847 0.634376 0
M  V30 2986 C 284.029 -3.1315 1.29577 0
M  V30 2987 C 283.202 -3.56413 2.53551 0
M  V30 2988 C 282.261 -4.7305 2.30457 0
M  V30 2989 O 281.287 -4.81247 3.03957 0
M  V30 2990 N 282.489 -5.64903 1.3366 0
M  V30 2991 H 285.254 -1.73272 2.44534 0
M  V30 2992 H 282.815 -0.813512 1.39977 0
M  V30 2993 H 284.807 -3.88902 1.11971 0
M  V30 2994 H 283.377 -3.09908 0.409371 0
M  V30 2995 H 282.597 -2.70847 2.86419 0
M  V30 2996 H 283.885 -3.82071 3.36005 0
M  V30 2997 H 283.283 -5.60975 0.729604 0
M  V30 2998 H 281.84 -6.40275 1.22032 0
M  V30 2999 N 285.273 -1.31445 -0.869486 0
M  V30 3000 C 286.522 -1.20517 -1.61736 0
M  V30 3001 C 286.835 0.235341 -1.94179 0
M  V30 3002 O 288.041 0.466312 -2.67465 0
M  V30 3003 C 286.497 -2.10982 -2.91573 0
M  V30 3004 C 286.105 -3.60032 -2.66611 0
M  V30 3005 C 287.849 -2.08856 -3.69567 0
M  V30 3006 C 285.756 -4.42503 -3.92358 0
M  V30 3007 H 284.686 -0.447493 -0.606849 0
M  V30 3008 H 287.337 -1.56303 -0.96133 0
M  V30 3009 H 285.719 -1.68095 -3.58553 0
M  V30 3010 H 286.893 -4.11167 -2.08035 0
M  V30 3011 H 285.208 -3.64139 -2.0197 0
M  V30 3012 H 287.805 -2.67716 -4.62852 0
M  V30 3013 H 288.148 -1.07582 -4.02159 0
M  V30 3014 H 288.681 -2.49945 -3.09471 0
M  V30 3015 H 285.42 -5.44533 -3.64916 0
M  V30 3016 H 284.94 -3.96125 -4.50383 0
M  V30 3017 H 286.619 -4.54741 -4.60238 0
M  V30 3018 N 286.751 1.08385 -1.14413 0
M  V30 3019 C 288 1.80153 -0.907076 0
M  V30 3020 C 288.313 1.87176 0.567851 0
M  V30 3021 O 289.519 2.55359 0.922172 0
M  V30 3022 C 287.975 3.23687 -1.57336 0
M  V30 3023 C 287.583 3.24897 -3.08457 0
M  V30 3024 C 289.327 4.00136 -1.41744 0
M  V30 3025 C 287.234 4.6302 -3.67921 0
M  V30 3026 H 286.164 0.675139 -0.335714 0
M  V30 3027 H 288.815 1.21733 -1.37307 0
M  V30 3028 H 287.197 3.82234 -1.03505 0
M  V30 3029 H 288.371 2.76055 -3.68958 0
M  V30 3030 H 286.686 2.61943 -3.2369 0
M  V30 3031 H 289.283 5.02201 -1.83572 0
M  V30 3032 H 289.626 4.14709 -0.363576 0
M  V30 3033 H 290.159 3.48058 -1.92614 0
M  V30 3034 H 286.898 4.5365 -4.73161 0
M  V30 3035 H 286.418 5.12143 -3.12201 0
M  V30 3036 H 288.097 5.31994 -3.68227 0
M  V30 3037 N 288.23 0.939286 1.26551 0
M  V30 3038 C 289.193 0.451987 2.24699 0
M  V30 3039 C 290.193 -0.435869 1.5478 0
M  V30 3040 O 291.383 -0.235314 1.72603 0
M  V30 3041 C 288.515 -0.348801 3.39111 0
M  V30 3042 H 289.708 1.3193 2.69322 0
M  V30 3043 H 287.261 0.721072 1.38673 0
M  V30 3044 H 287.996 -1.23444 2.99887 0
M  V30 3045 H 287.781 0.287945 3.91041 0
M  V30 3046 H 289.271 -0.679726 4.12031 0
M  V30 3047 N 289.708 -1.40897 0.706093 0
M  V30 3048 C 291.119 -1.84023 0.315052 0
M  V30 3049 C 291.47 -1.5906 -1.14866 0
M  V30 3050 O 290.595 -1.06651 -1.88293 0
M  V30 3051 C 291.19 -3.34055 0.565038 0
M  V30 3052 C 289.749 -3.7571 0.227806 0
M  V30 3053 C 288.896 -2.64204 0.842122 0
M  V30 3054 H 291.847 -1.303 0.905963 0
M  V30 3055 H 291.868 -3.80107 -0.172843 0
M  V30 3056 H 291.38 -3.52192 1.63042 0
M  V30 3057 H 289.481 -3.63172 -0.832895 0
M  V30 3058 H 289.594 -4.74103 0.690174 0
M  V30 3059 H 287.958 -2.53255 0.270893 0
M  V30 3060 H 288.741 -2.85155 1.91158 0
M  V30 3061 N 291.186 -0.45159 -1.50991 0
M  V30 3062 C 292.149 0.341117 -2.26647 0
M  V30 3063 C 293.149 0.937422 -1.30649 0
M  V30 3064 O 294.339 0.809644 -1.54241 0
M  V30 3065 C 291.471 1.48398 -3.06905 0
M  V30 3066 H 292.664 -0.322117 -2.98165 0
M  V30 3067 H 290.217 -0.205122 -1.54948 0
M  V30 3068 H 290.952 2.18284 -2.39838 0
M  V30 3069 H 290.737 1.06241 -3.77432 0
M  V30 3070 H 292.227 2.04367 -3.64176 0
M  V30 3071 N 292.664 1.56529 -0.183458 0
M  V30 3072 C 293.912 1.96855 0.457452 0
M  V30 3073 C 294.233 1.07104 1.62953 0
M  V30 3074 O 293.503 0.139887 1.954 0
M  V30 3075 H 292.083 0.72693 0.171992 0
M  V30 3076 H 294.745 1.93056 -0.267476 0
M  V30 3077 H 293.841 3.01423 0.809368 0
M  V30 3078 N 294.142 -0.090211 1.57342 0
M  V30 3079 C 295.389 -0.792807 1.86335 0
M  V30 3080 C 295.717 -1.78494 0.772662 0
M  V30 3081 O 294.972 -1.94305 -0.233258 0
M  V30 3082 C 295.271 -1.55222 3.21933 0
M  V30 3083 C 294.937 -0.701765 4.45406 0
M  V30 3084 C 293.599 -0.467334 4.78925 0
M  V30 3085 C 295.951 -0.11086 5.21082 0
M  V30 3086 C 293.279 0.367785 5.85546 0
M  V30 3087 C 295.631 0.711609 6.28585 0
M  V30 3088 C 294.295 0.956086 6.60617 0
M  V30 3089 H 293.565 -0.290109 0.681849 0
M  V30 3090 H 296.212 -0.0541332 1.91423 0
M  V30 3091 H 294.517 -2.3626 3.12551 0
M  V30 3092 H 296.214 -2.10032 3.41595 0
M  V30 3093 H 292.804 -0.894598 4.1916 0
M  V30 3094 H 296.988 -0.279129 4.95514 0
M  V30 3095 H 292.244 0.566128 6.08773 0
M  V30 3096 H 296.418 1.17632 6.86393 0
M  V30 3097 H 294.045 1.60499 7.43064 0
M  V30 3098 N 295.62 -1.53406 -0.361157 0
M  V30 3099 C 296.553 -1.74946 -1.46524 0
M  V30 3100 C 297.531 -0.59795 -1.51206 0
M  V30 3101 O 298.715 -0.831062 -1.69191 0
M  V30 3102 C 295.842 -1.83224 -2.84863 0
M  V30 3103 C 294.888 -3.05233 -2.97885 0
M  V30 3104 S 295.721 -4.6466 -2.66179 0
M  V30 3105 C 296.877 -4.75793 -4.06659 0
M  V30 3106 H 297.11 -2.68319 -1.28033 0
M  V30 3107 H 294.643 -1.44051 -0.555764 0
M  V30 3108 H 296.601 -1.88679 -3.64569 0
M  V30 3109 H 295.262 -0.908948 -3.00661 0
M  V30 3110 H 294.455 -3.07648 -3.9921 0
M  V30 3111 H 294.057 -2.97913 -2.26106 0
M  V30 3112 H 296.349 -4.5612 -5.0096 0
M  V30 3113 H 297.292 -5.7786 -4.09247 0
M  V30 3114 H 297.7 -4.04389 -3.93865 0
M  V30 3115 N 297.098 0.621204 -1.44841 0
M  V30 3116 C 298.008 1.7612 -1.5498 0
M  V30 3117 C 299.024 1.68477 -0.434927 0
M  V30 3118 O 300.2 1.89076 -0.693693 0
M  V30 3119 C 297.265 3.1254 -1.50065 0
M  V30 3120 C 296.326 3.31741 -2.72482 0
M  V30 3121 C 295.559 4.61653 -2.67792 0
M  V30 3122 O 295.782 5.431 -1.74352 0
M  V30 3123 O 294.716 4.83271 -3.58794 0
M  V30 3124 H 298.542 1.70518 -2.51311 0
M  V30 3125 H 296.127 0.783643 -1.27198 0
M  V30 3126 H 298.009 3.93844 -1.49882 0
M  V30 3127 H 296.684 3.18663 -0.568806 0
M  V30 3128 H 295.591 2.50077 -2.7823 0
M  V30 3129 H 296.924 3.30486 -3.64746 0
M  V30 3130 N 298.576 1.31904 0.862503 0
M  V30 3131 C 299.539 1.20131 1.95195 0
M  V30 3132 C 300.539 0.126409 1.60302 0
M  V30 3133 O 301.729 0.376234 1.70089 0
M  V30 3134 C 298.861 0.845691 3.30244 0
M  V30 3135 H 300.054 2.16943 2.07064 0
M  V30 3136 H 297.607 1.15622 1.05172 0
M  V30 3137 H 298.342 -0.120957 3.24074 0
M  V30 3138 H 298.127 1.62276 3.56944 0
M  V30 3139 H 299.617 0.787418 4.10109 0
M  V30 3140 N 300.054 -1.07777 1.14986 0
M  V30 3141 C 301.017 -2.13041 0.845358 0
M  V30 3142 C 302.017 -1.60071 -0.152931 0
M  V30 3143 O 303.207 -1.74033 0.0761879 0
M  V30 3144 C 300.339 -3.39896 0.261383 0
M  V30 3145 H 301.532 -2.41485 1.77834 0
M  V30 3146 H 299.085 -1.23595 0.956757 0
M  V30 3147 H 299.82 -3.17091 -0.68 0
M  V30 3148 H 299.605 -3.79642 0.980514 0
M  V30 3149 H 301.095 -4.17548 0.0657687 0
M  V30 3150 N 301.532 -0.945985 -1.26051 0
M  V30 3151 C 302.781 -0.591836 -1.92822 0
M  V30 3152 C 303.094 0.873956 -1.7499 0
M  V30 3153 O 304.3 1.33769 -2.36259 0
M  V30 3154 C 302.756 -1.00776 -3.45503 0
M  V30 3155 C 302.364 -2.4955 -3.7206 0
M  V30 3156 C 304.108 -0.725735 -4.1825 0
M  V30 3157 C 302.015 -2.84988 -5.18205 0
M  V30 3158 H 300.945 -0.217635 -0.721908 0
M  V30 3159 H 303.596 -1.14927 -1.43052 0
M  V30 3160 H 301.978 -0.378812 -3.94184 0
M  V30 3161 H 303.152 -3.1739 -3.34066 0
M  V30 3162 H 301.467 -2.75133 -3.12555 0
M  V30 3163 H 304.064 -0.966771 -5.25887 0
M  V30 3164 H 304.407 0.337639 -4.14929 0
M  V30 3165 H 304.94 -1.31463 -3.7545 0
M  V30 3166 H 301.679 -3.90307 -5.26631 0
M  V30 3167 H 301.199 -2.21813 -5.57278 0
M  V30 3168 H 302.878 -2.73712 -5.86252 0
M  V30 3169 N 303.011 1.40521 -0.713556 0
M  V30 3170 C 303.958 2.30723 -0.059684 0
M  V30 3171 C 304.928 1.48079 0.752448 0
M  V30 3172 O 306.113 1.76823 0.71681 0
M  V30 3173 C 303.253 3.34274 0.857594 0
M  V30 3174 C 302.366 4.31986 0.0351536 0
M  V30 3175 C 301.501 5.22605 0.951724 0
M  V30 3176 C 300.54 6.11976 0.123253 0
M  V30 3177 N 299.677 6.9502 0.99459 0
M  V30 3178 H 304.517 2.86074 -0.834596 0
M  V30 3179 H 302.054 1.40879 -0.42326 0
M  V30 3180 H 304.012 3.92879 1.40364 0
M  V30 3181 H 302.642 2.8043 1.59871 0
M  V30 3182 H 301.694 3.7518 -0.628052 0
M  V30 3183 H 303.006 4.95101 -0.606347 0
M  V30 3184 H 302.16 5.86131 1.56638 0
M  V30 3185 H 300.899 4.59759 1.62705 0
M  V30 3186 H 299.904 5.47482 -0.50435 0
M  V30 3187 H 301.129 6.76881 -0.548539 0
M  V30 3188 H 299.075 6.34764 1.6556 0
M  V30 3189 H 298.992 7.54892 0.40908 0
M  V30 3190 H 300.26 7.62997 1.59549 0
M  V30 3191 N 304.489 0.459591 1.5075 0
M  V30 3192 C 305.399 -0.34613 2.32033 0
M  V30 3193 C 306.415 -1.00686 1.41909 0
M  V30 3194 O 307.591 -0.997361 1.7497 0
M  V30 3195 C 304.656 -1.42029 3.16273 0
M  V30 3196 C 303.717 -0.777362 4.22203 0
M  V30 3197 C 302.95 -1.80034 5.02418 0
M  V30 3198 O 303.173 -3.02544 4.83553 0
M  V30 3199 O 302.107 -1.37853 5.85901 0
M  V30 3200 H 305.933 0.318054 3.0203 0
M  V30 3201 H 303.518 0.221663 1.47746 0
M  V30 3202 H 305.4 -2.04275 3.68578 0
M  V30 3203 H 304.075 -2.06815 2.49016 0
M  V30 3204 H 302.982 -0.116256 3.73919 0
M  V30 3205 H 304.315 -0.172634 4.91897 0
M  V30 3206 N 305.967 -1.56429 0.191757 0
M  V30 3207 C 306.915 -2.20273 -0.747174 0
M  V30 3208 C 307.909 -1.17288 -1.22229 0
M  V30 3209 O 309.115 -1.35441 -1.18557 0
M  V30 3210 H 305.49 -0.705885 -0.259289 0
M  V30 3211 H 307.461 -2.97826 -0.184963 0
M  V30 3212 C 306.21 -2.87356 -1.95759 0
M  V30 3213 H 305.533 -3.66341 -1.60106 0
M  V30 3214 H 306.973 -3.3547 -2.59299 0
M  V30 3215 C 305.432 -1.88213 -2.79423 0
M  V30 3216 O 305.962 -1.38033 -3.7724 0
M  V30 3217 N 304.168 -1.56516 -2.44849 0
M  V30 3218 H 303.715 -1.97516 -1.65364 0
M  V30 3219 H 303.673 -0.904369 -3.01112 0
M  V30 3220 N 307.445 0.0818655 -1.57387 0
M  V30 3221 C 308.691 0.784074 -1.8703 0
M  V30 3222 C 309.024 1.77729 -0.782689 0
M  V30 3223 O 308.299 1.93384 0.208051 0
M  V30 3224 C 308.582 1.50105 -3.27323 0
M  V30 3225 C 308.435 0.524925 -4.46727 0
M  V30 3226 C 309.754 2.44843 -3.65705 0
M  V30 3227 H 306.873 0.283582 -0.680257 0
M  V30 3228 H 309.515 0.0474352 -1.89941 0
M  V30 3229 H 307.665 2.12897 -3.24972 0
M  V30 3230 H 309.337 -0.0970111 -4.61198 0
M  V30 3231 H 307.58 -0.160606 -4.33503 0
M  V30 3232 H 308.251 1.064 -5.41648 0
M  V30 3233 H 310.727 1.92135 -3.69085 0
M  V30 3234 H 309.603 2.92018 -4.64776 0
M  V30 3235 H 309.864 3.29197 -2.95096 0
M  V30 3236 N 308.923 1.53595 0.353017 0
M  V30 3237 C 309.853 1.83902 1.43883 0
M  V30 3238 C 310.834 0.693421 1.55324 0
M  V30 3239 O 312.019 0.944452 1.69687 0
M  V30 3240 C 309.149 2.04016 2.8106 0
M  V30 3241 C 308.103 3.19814 2.84434 0
M  V30 3242 C 307.429 3.25244 4.24406 0
M  V30 3243 C 308.729 4.58133 2.50822 0
M  V30 3244 H 310.423 2.74835 1.1877 0
M  V30 3245 H 307.969 1.32242 0.569917 0
M  V30 3246 H 309.922 2.238 3.57059 0
M  V30 3247 H 308.646 1.09804 3.07588 0
M  V30 3248 H 307.305 2.9987 2.10887 0
M  V30 3249 H 306.953 2.28646 4.48029 0
M  V30 3250 H 306.653 4.03054 4.27576 0
M  V30 3251 H 308.177 3.47228 5.0226 0
M  V30 3252 H 309.591 4.77995 3.16534 0
M  V30 3253 H 307.988 5.38276 2.6529 0
M  V30 3254 H 309.058 4.62387 1.46034 0
M  V30 3255 N 310.401 -0.613514 1.45168 0
M  V30 3256 C 311.364 -1.7065 1.53007 0
M  V30 3257 C 312.364 -1.5548 0.410184 0
M  V30 3258 O 313.554 -1.60656 0.673455 0
M  V30 3259 C 310.686 -3.09875 1.42093 0
M  V30 3260 H 311.879 -1.65068 2.50385 0
M  V30 3261 H 309.432 -0.828728 1.32521 0
M  V30 3262 H 310.167 -3.21039 0.458769 0
M  V30 3263 H 309.952 -3.22293 2.23315 0
M  V30 3264 H 311.442 -3.895 1.50598 0
M  V30 3265 N 311.879 -1.3236 -0.855495 0
M  V30 3266 C 313.127 -1.22629 -1.60644 0
M  V30 3267 C 313.448 0.212136 -1.93843 0
M  V30 3268 O 312.718 1.13666 -1.59552 0
M  V30 3269 H 311.298 -0.450882 -0.595579 0
M  V30 3270 H 313.96 -1.65871 -1.02337 0
M  V30 3271 H 313.056 -1.80832 -2.54374 0
M  V30 3272 N 313.357 1.07166 -1.15556 0
M  V30 3273 C 314.305 2.16517 -0.8499 0
M  V30 3274 C 315.299 1.68468 0.177454 0
M  V30 3275 O 316.505 1.79971 0.0323026 0
M  V30 3276 H 312.88 0.706652 -0.25719 0
M  V30 3277 H 314.851 2.39514 -1.77976 0
M  V30 3278 C 313.6 3.45855 -0.357682 0
M  V30 3279 H 312.923 3.83214 -1.13961 0
M  V30 3280 H 314.363 4.23607 -0.182489 0
M  V30 3281 C 312.822 3.24062 0.921152 0
M  V30 3282 O 313.352 3.48813 1.9923 0
M  V30 3283 N 311.558 2.77539 0.86141 0
M  V30 3284 H 311.105 2.57598 -0.0104408 0
M  V30 3285 H 311.063 2.63337 1.71758 0
M  V30 3286 N 314.835 0.952656 1.25548 0
M  V30 3287 C 315.798 0.475794 2.24207 0
M  V30 3288 C 316.798 -0.419428 1.55234 0
M  V30 3289 O 317.988 -0.216994 1.72843 0
M  V30 3290 C 315.12 -0.312814 3.39462 0
M  V30 3291 H 316.313 1.34779 2.67908 0
M  V30 3292 H 313.866 0.735739 1.37901 0
M  V30 3293 H 314.601 -1.20257 3.01179 0
M  V30 3294 H 314.386 0.329404 3.90714 0
M  V30 3295 H 315.876 -0.635986 4.12729 0
M  V30 3296 N 316.313 -1.40141 0.720998 0
M  V30 3297 C 317.246 -2.2819 0.020916 0
M  V30 3298 C 318.224 -1.43633 -0.762129 0
M  V30 3299 O 319.408 -1.7304 -0.747633 0
M  V30 3300 C 316.535 -3.24281 -0.977715 0
M  V30 3301 C 315.581 -4.25548 -0.284836 0
M  V30 3302 S 316.414 -5.26247 0.991169 0
M  V30 3303 C 317.57 -6.259 -0.0052214 0
M  V30 3304 H 317.803 -2.87218 0.767649 0
M  V30 3305 H 315.336 -1.45656 0.512233 0
M  V30 3306 H 317.294 -3.80167 -1.54865 0
M  V30 3307 H 315.955 -2.643 -1.69719 0
M  V30 3308 H 315.148 -4.93154 -1.03996 0
M  V30 3309 H 314.75 -3.73389 0.213684 0
M  V30 3310 H 317.042 -6.72143 -0.850279 0
M  V30 3311 H 317.985 -7.05224 0.637599 0
M  V30 3312 H 318.393 -5.63277 -0.371366 0
M  V30 3313 N 317.792 -0.46758 -1.50504 0
M  V30 3314 C 318.725 0.374324 -2.25109 0
M  V30 3315 C 319.703 0.99921 -1.28275 0
M  V30 3316 O 320.887 1.03583 -1.57489 0
M  V30 3317 C 318.014 1.52419 -3.02467 0
M  V30 3318 C 317.06 1.01702 -4.14197 0
M  V30 3319 S 317.893 -0.0654477 -5.3546 0
M  V30 3320 C 319.049 1.08837 -6.16365 0
M  V30 3321 H 319.282 -0.258983 -2.9617 0
M  V30 3322 H 316.815 -0.252421 -1.52323 0
M  V30 3323 H 318.773 2.18322 -3.47628 0
M  V30 3324 H 317.434 2.129 -2.30938 0
M  V30 3325 H 316.627 1.87776 -4.67714 0
M  V30 3326 H 316.229 0.435757 -3.71453 0
M  V30 3327 H 318.521 2.00071 -6.47285 0
M  V30 3328 H 319.464 0.592538 -7.05616 0
M  V30 3329 H 319.872 1.34061 -5.4835 0
M  V30 3330 N 319.27 1.56325 -0.20005 0
M  V30 3331 C 320.686 1.58839 0.155716 0
M  V30 3332 C 320.886 1.21636 1.60645 0
M  V30 3333 O 319.942 0.941437 2.34293 0
M  V30 3334 C 321.255 3.0032 -0.151124 0
M  V30 3335 C 322.803 3.12866 -0.0916284 0
M  V30 3336 C 323.278 4.56488 -0.371845 0
M  V30 3337 N 324.769 4.62089 -0.320641 0
M  V30 3338 C 325.504 5.71116 -0.511243 0
M  V30 3339 N 325 6.88592 -0.762461 0
M  V30 3340 N 326.793 5.60335 -0.445157 0
M  V30 3341 H 318.944 1.78788 -1.14668 0
M  V30 3342 H 321.207 0.829996 -0.458051 0
M  V30 3343 H 320.913 3.32117 -1.15721 0
M  V30 3344 H 320.787 3.73257 0.543986 0
M  V30 3345 H 323.174 2.80878 0.905065 0
M  V30 3346 H 323.255 2.42304 -0.81989 0
M  V30 3347 H 322.899 4.89189 -1.36588 0
M  V30 3348 H 322.829 5.25246 0.377362 0
M  V30 3349 H 325.32 3.77665 -0.13329 0
M  V30 3350 H 325.633 7.67581 -0.896576 0
M  V30 3351 H 323.978 6.90387 -0.799412 0
M  V30 3352 H 327.169 4.67436 -0.249278 0
M  V30 3353 H 327.342 6.45243 -0.597116 0
M  V30 3354 N 320.748 -0.0735177 1.57428 0
M  V30 3355 C 322.164 -0.428264 1.53747 0
M  V30 3356 C 322.364 -1.79272 0.91998 0
M  V30 3357 O 321.42 -2.47051 0.521745 0
M  V30 3358 C 322.733 -0.370914 2.98404 0
M  V30 3359 C 324.281 -0.451224 3.0973 0
M  V30 3360 C 324.756 -0.4238 4.56035 0
M  V30 3361 N 326.247 -0.483925 4.60665 0
M  V30 3362 C 326.982 -0.484891 5.71346 0
M  V30 3363 N 326.478 -0.440775 6.91396 0
M  V30 3364 N 328.271 -0.531319 5.59583 0
M  V30 3365 H 320.422 0.819949 1.95935 0
M  V30 3366 H 322.685 0.307493 0.896745 0
M  V30 3367 H 322.391 0.564956 3.47133 0
M  V30 3368 H 322.265 -1.18176 3.5821 0
M  V30 3369 H 324.652 -1.37752 2.60976 0
M  V30 3370 H 324.733 0.388167 2.52838 0
M  V30 3371 H 324.377 0.498638 5.05446 0
M  V30 3372 H 324.307 -1.2807 5.10789 0
M  V30 3373 H 326.798 -0.522338 3.74273 0
M  V30 3374 H 327.111 -0.44539 7.71515 0
M  V30 3375 H 325.456 -0.40749 6.93804 0
M  V30 3376 H 328.647 -0.563464 4.64696 0
M  V30 3377 H 328.82 -0.528603 6.4584 0
M  V30 3378 N 322.226 -1.5378 -0.344866 0
M  V30 3379 C 323.189 -1.80981 -1.40637 0
M  V30 3380 C 324.189 -0.680816 -1.45676 0
M  V30 3381 O 325.379 -0.949095 -1.46075 0
M  V30 3382 C 322.511 -1.95063 -2.79577 0
M  V30 3383 H 323.704 -2.75803 -1.17783 0
M  V30 3384 H 321.257 -1.45173 -0.579181 0
M  V30 3385 H 321.992 -1.02379 -3.07716 0
M  V30 3386 H 321.777 -2.77198 -2.77315 0
M  V30 3387 H 323.267 -2.17629 -3.56409 0
M  V30 3388 N 323.704 0.605807 -1.45491 0
M  V30 3389 C 324.932 1.39136 -1.5313 0
M  V30 3390 C 325.347 1.88082 -0.164507 0
M  V30 3391 O 324.704 1.62316 0.834247 0
M  V30 3392 C 324.755 2.59463 -2.51716 0
M  V30 3393 O 324.476 2.12551 -3.83084 0
M  V30 3394 C 325.977 3.52301 -2.6907 0
M  V30 3395 H 323.197 0.425849 -0.51855 0
M  V30 3396 H 325.741 0.73865 -1.90694 0
M  V30 3397 H 323.896 3.20772 -2.17219 0
M  V30 3398 H 324.31 2.90744 -4.36541 0
M  V30 3399 H 325.784 4.33271 -3.42024 0
M  V30 3400 H 326.261 4.02757 -1.75167 0
M  V30 3401 H 326.867 2.96845 -3.04571 0
M  V30 3402 N 325.182 1.32811 0.848464 0
M  V30 3403 C 326.412 1.26556 1.63301 0
M  V30 3404 C 326.82 -0.1676 1.88456 0
M  V30 3405 O 326.163 -1.11713 1.45828 0
M  V30 3406 C 326.225 1.96202 3.01239 0
M  V30 3407 C 325.889 3.45528 2.99098 0
M  V30 3408 C 326.886 4.40903 2.75501 0
M  V30 3409 C 324.571 3.87558 3.19537 0
M  V30 3410 C 326.565 5.76282 2.72356 0
M  V30 3411 C 324.252 5.23044 3.16019 0
M  V30 3412 C 325.25 6.17217 2.92458 0
M  V30 3413 O 324.938 7.50223 2.88825 0
M  V30 3414 H 324.67 0.43771 0.515156 0
M  V30 3415 H 327.224 1.7559 1.0657 0
M  V30 3416 H 325.454 1.41746 3.59785 0
M  V30 3417 H 327.143 1.83573 3.62016 0
M  V30 3418 H 327.909 4.09756 2.5947 0
M  V30 3419 H 323.788 3.14674 3.369 0
M  V30 3420 H 327.332 6.4976 2.53886 0
M  V30 3421 H 323.229 5.53818 3.31596 0
M  V30 3422 H 323.997 7.59657 3.04735 0
M  V30 3423 N 326.66 -1.06551 1.16123 0
M  V30 3424 C 327.592 -2.13908 0.823171 0
M  V30 3425 C 328.605 -1.61926 -0.16843 0
M  V30 3426 O 329.794 -1.78412 0.055962 0
M  V30 3427 C 326.894 -3.38283 0.204424 0
M  V30 3428 C 326.067 -4.19589 1.23548 0
M  V30 3429 C 325.126 -5.2233 0.637011 0
M  V30 3430 O 324.152 -5.54034 1.30516 0
M  V30 3431 N 325.354 -5.77621 -0.577474 0
M  V30 3432 H 328.119 -2.43508 1.74711 0
M  V30 3433 H 325.68 -1.2253 1.05821 0
M  V30 3434 H 327.672 -4.0416 -0.208909 0
M  V30 3435 H 326.242 -3.06329 -0.623012 0
M  V30 3436 H 325.462 -3.49406 1.82507 0
M  V30 3437 H 326.75 -4.70718 1.93137 0
M  V30 3438 H 326.148 -5.54125 -1.13853 0
M  V30 3439 H 324.705 -6.45087 -0.933053 0
M  V30 3440 N 328.138 -0.959301 -1.25041 0
M  V30 3441 C 329.368 -0.63303 -1.96663 0
M  V30 3442 C 329.776 0.800031 -1.71453 0
M  V30 3443 O 329.119 1.54736 -0.99008 0
M  V30 3444 C 329.181 -0.817523 -3.50081 0
M  V30 3445 C 328.845 -2.22863 -3.98975 0
M  V30 3446 C 329.842 -3.20569 -4.09306 0
M  V30 3447 C 327.527 -2.55407 -4.32519 0
M  V30 3448 C 329.521 -4.4891 -4.52503 0
M  V30 3449 C 327.208 -3.83976 -4.754 0
M  V30 3450 C 328.206 -4.8054 -4.85356 0
M  V30 3451 O 327.894 -6.06817 -5.27284 0
M  V30 3452 H 327.626 -0.235866 -0.633516 0
M  V30 3453 H 330.18 -1.2874 -1.60047 0
M  V30 3454 H 328.41 -0.105992 -3.86555 0
M  V30 3455 H 330.099 -0.491604 -4.02912 0
M  V30 3456 H 330.865 -2.96753 -3.83618 0
M  V30 3457 H 326.744 -1.8097 -4.23994 0
M  V30 3458 H 330.288 -5.24283 -4.60188 0
M  V30 3459 H 326.185 -4.07596 -5.00535 0
M  V30 3460 H 326.953 -6.10262 -5.45457 0
M  V30 3461 N 329.616 1.39756 -0.72842 0
M  V30 3462 C 330.864 2.00248 -0.272946 0
M  V30 3463 C 331.185 1.58077 1.14178 0
M  V30 3464 O 330.455 0.826014 1.77634 0
M  V30 3465 H 329.035 0.740554 -0.0979247 0
M  V30 3466 H 331.697 1.70903 -0.936912 0
M  V30 3467 H 330.793 3.10495 -0.316142 0
M  V30 3468 N 331.094 0.475555 1.50254 0
M  V30 3469 C 332.322 -0.0754493 2.06762 0
M  V30 3470 C 332.737 -1.33111 1.33891 0
M  V30 3471 O 332.094 -1.77846 0.40952 0
M  V30 3472 C 332.145 -0.359008 3.59713 0
M  V30 3473 O 331.866 0.846851 4.29837 0
M  V30 3474 C 333.367 -0.956484 4.32858 0
M  V30 3475 H 330.587 0.00907525 0.670939 0
M  V30 3476 H 333.131 0.665618 1.93364 0
M  V30 3477 H 331.286 -1.05001 3.72899 0
M  V30 3478 H 331.7 0.594162 5.21124 0
M  V30 3479 H 333.174 -1.10463 5.40834 0
M  V30 3480 H 333.651 -1.94775 3.93649 0
M  V30 3481 H 334.257 -0.303723 4.24214 0
M  V30 3482 N 332.573 -1.56217 0.208337 0
M  V30 3483 C 333.505 -2.1695 -0.739276 0
M  V30 3484 C 334.518 -1.13492 -1.1672 0
M  V30 3485 O 335.707 -1.40529 -1.10063 0
M  V30 3486 C 332.807 -2.72755 -2.01142 0
M  V30 3487 C 331.98 -4.0125 -1.74118 0
M  V30 3488 C 331.039 -4.41749 -2.85909 0
M  V30 3489 O 330.065 -5.08912 -2.54946 0
M  V30 3490 N 331.267 -4.06342 -4.14568 0
M  V30 3491 H 334.032 -2.98893 -0.219837 0
M  V30 3492 H 331.593 -1.61878 0.0268445 0
M  V30 3493 H 333.585 -2.96826 -2.75094 0
M  V30 3494 H 332.155 -1.95191 -2.4417 0
M  V30 3495 H 331.375 -3.85173 -0.838775 0
M  V30 3496 H 332.663 -4.851 -1.53477 0
M  V30 3497 H 332.061 -3.52345 -4.42571 0
M  V30 3498 H 330.618 -4.35335 -4.85105 0
M  V30 3499 N 334.051 0.0651679 -1.57465 0
M  V30 3500 C 334.981 1.07693 -2.07182 0
M  V30 3501 C 335.962 1.39962 -0.966673 0
M  V30 3502 O 337.147 1.49475 -1.2398 0
M  V30 3503 C 334.277 2.3885 -2.52127 0
M  V30 3504 C 333.231 2.20917 -3.66579 0
M  V30 3505 C 332.557 3.57515 -3.97601 0
M  V30 3506 C 333.857 1.62493 -4.9638 0
M  V30 3507 H 335.551 0.663199 -2.91962 0
M  V30 3508 H 333.097 0.317569 -1.40455 0
M  V30 3509 H 335.05 3.09928 -2.85522 0
M  V30 3510 H 333.774 2.82215 -1.64384 0
M  V30 3511 H 332.433 1.52279 -3.33477 0
M  V30 3512 H 332.081 3.98463 -3.06979 0
M  V30 3513 H 331.781 3.46353 -4.74672 0
M  V30 3514 H 333.305 4.30013 -4.33499 0
M  V30 3515 H 334.719 2.23445 -5.27963 0
M  V30 3516 H 333.116 1.62009 -5.77818 0
M  V30 3517 H 334.186 0.587041 -4.81333 0
M  V30 3518 N 335.529 1.53961 0.336706 0
M  V30 3519 C 336.94 1.62914 0.911925 0
M  V30 3520 C 337.291 0.514795 1.89326 0
M  V30 3521 O 336.416 -0.354395 2.13478 0
M  V30 3522 C 337.011 2.95304 1.66076 0
M  V30 3523 C 335.57 3.06496 2.18489 0
M  V30 3524 C 334.717 2.58403 1.00613 0
M  V30 3525 H 337.668 1.58285 0.114649 0
M  V30 3526 H 337.689 2.84727 2.5241 0
M  V30 3527 H 337.201 3.76387 0.946276 0
M  V30 3528 H 335.302 2.3006 2.93092 0
M  V30 3529 H 335.415 4.1208 2.44391 0
M  V30 3530 H 333.779 2.13977 1.38152 0
M  V30 3531 H 334.562 3.41932 0.306179 0
M  V30 3532 N 337.007 -0.598083 1.45811 0
M  V30 3533 C 337.954 -1.7082 1.55207 0
M  V30 3534 C 338.924 -1.61278 0.39732 0
M  V30 3535 O 340.109 -1.80717 0.612038 0
M  V30 3536 C 337.249 -3.09144 1.53376 0
M  V30 3537 C 336.362 -3.29423 2.79472 0
M  V30 3538 C 335.497 -4.57907 2.69248 0
M  V30 3539 C 334.536 -4.71476 3.90354 0
M  V30 3540 N 333.673 -5.9127 3.78608 0
M  V30 3541 H 338.513 -1.62125 2.50039 0
M  V30 3542 H 336.05 -0.790389 1.24062 0
M  V30 3543 H 338.008 -3.89186 1.50301 0
M  V30 3544 H 336.638 -3.16773 0.620876 0
M  V30 3545 H 335.69 -2.43091 2.92594 0
M  V30 3546 H 337.002 -3.3532 3.69272 0
M  V30 3547 H 336.156 -5.46157 2.64192 0
M  V30 3548 H 334.895 -4.54423 1.77063 0
M  V30 3549 H 333.9 -3.81648 3.95759 0
M  V30 3550 H 335.125 -4.76751 4.83617 0
M  V30 3551 H 333.071 -5.88813 2.89199 0
M  V30 3552 H 332.988 -5.98369 4.6205 0
M  V30 3553 H 334.256 -6.81992 3.77501 0
M  V30 3554 N 338.485 -1.33259 -0.841409 0
M  V30 3555 C 339.733 -1.24326 -1.59334 0
M  V30 3556 C 340.054 0.191564 -1.94057 0
M  V30 3557 O 339.324 1.11967 -1.60749 0
M  V30 3558 H 337.904 -0.457174 -0.590763 0
M  V30 3559 H 340.566 -1.66947 -1.00571 0
M  V30 3560 H 339.662 -1.8352 -2.52442 0
M  V30 3561 N 339.963 1.05934 -1.16686 0
M  V30 3562 C 341.374 1.60263 -0.957745 0
M  V30 3563 C 341.725 1.89789 0.49745 0
M  V30 3564 O 340.85 1.67401 1.37135 0
M  V30 3565 C 341.445 2.91172 -1.73218 0
M  V30 3566 C 340.004 3.42188 -1.56794 0
M  V30 3567 C 339.151 2.16028 -1.73859 0
M  V30 3568 H 342.102 0.888392 -1.31504 0
M  V30 3569 H 342.123 3.60744 -1.21014 0
M  V30 3570 H 341.635 2.6965 -2.79124 0
M  V30 3571 H 339.736 3.68762 -0.533437 0
M  V30 3572 H 339.849 4.17273 -2.35414 0
M  V30 3573 H 338.213 2.26426 -1.16633 0
M  V30 3574 H 338.996 1.96985 -2.81161 0
M  V30 3575 N 341.441 0.965919 1.2453 0
M  V30 3576 C 342.373 0.452465 2.2469 0
M  V30 3577 C 343.386 -0.437821 1.56802 0
M  V30 3578 O 344.575 -0.244283 1.76821 0
M  V30 3579 C 341.675 -0.366258 3.36915 0
M  V30 3580 C 340.848 0.513701 4.34373 0
M  V30 3581 C 339.907 -0.248716 5.25612 0
M  V30 3582 O 338.933 0.356745 5.68081 0
M  V30 3583 N 340.135 -1.53877 5.59734 0
M  V30 3584 H 342.9 1.31361 2.69378 0
M  V30 3585 H 340.461 0.837541 1.38553 0
M  V30 3586 H 342.453 -0.884297 3.94921 0
M  V30 3587 H 341.023 -1.12832 2.91526 0
M  V30 3588 H 340.243 1.21273 3.75082 0
M  V30 3589 H 341.531 1.11391 4.96457 0
M  V30 3590 H 340.929 -2.05243 5.27154 0
M  V30 3591 H 339.486 -2.00254 6.20275 0
M  V30 3592 N 342.919 -1.39368 0.735821 0
M  V30 3593 C 344.167 -2.00101 0.283562 0
M  V30 3594 C 344.488 -1.5868 -1.13338 0
M  V30 3595 O 343.758 -0.835423 -1.77193 0
M  V30 3596 H 342.338 -0.740024 0.101851 0
M  V30 3597 H 345 -1.70404 0.945962 0
M  V30 3598 H 344.096 -3.10323 0.332604 0
M  V30 3599 N 344.397 -0.483516 -1.5 0
M  V30 3600 C 345.329 0.340634 -2.26655 0
M  V30 3601 C 346.342 0.946152 -1.32483 0
M  V30 3602 O 347.531 0.832453 -1.579 0
M  V30 3603 C 344.631 1.4929 -3.04246 0
M  V30 3604 C 343.804 0.997903 -4.25865 0
M  V30 3605 C 342.863 2.02569 -4.85646 0
M  V30 3606 O 341.889 1.60128 -5.46212 0
M  V30 3607 N 343.091 3.3548 -4.73744 0
M  V30 3608 H 345.856 -0.316577 -2.98023 0
M  V30 3609 H 343.417 -0.315024 -1.58806 0
M  V30 3610 H 345.409 2.17766 -3.41116 0
M  V30 3611 H 343.979 2.05458 -2.35597 0
M  V30 3612 H 343.199 0.138617 -3.93956 0
M  V30 3613 H 344.487 0.645305 -5.04691 0
M  V30 3614 H 343.885 3.72661 -4.25605 0
M  V30 3615 H 342.442 3.99718 -5.14848 0
M  V30 3616 N 345.875 1.56104 -0.216619 0
M  V30 3617 C 347.121 1.98466 0.417033 0
M  V30 3618 C 347.454 1.10403 1.59765 0
M  V30 3619 O 346.729 0.160632 1.93836 0
M  V30 3620 C 347.012 3.49769 0.85637 0
M  V30 3621 C 346.865 4.48606 -0.327546 0
M  V30 3622 C 348.184 4.05339 1.7143 0
M  V30 3623 H 345.303 0.721551 0.150112 0
M  V30 3624 H 347.945 1.87423 -0.311864 0
M  V30 3625 H 346.095 3.5931 1.47745 0
M  V30 3626 H 347.767 4.5108 -0.965618 0
M  V30 3627 H 346.01 4.22682 -0.975805 0
M  V30 3628 H 346.681 5.51995 0.0227149 0
M  V30 3629 H 349.157 3.98712 1.19031 0
M  V30 3630 H 348.033 5.11533 1.99061 0
M  V30 3631 H 348.294 3.51918 2.67593 0
M  V30 3632 N 347.353 -0.0568162 1.57498 0
M  V30 3633 C 348.63 -0.786954 1.79071 0
M  V30 3634 C 349.01 -1.95028 0.80792 0
M  V30 3635 O 348.358 -2.27968 -0.155858 0
M  V30 3636 C 348.568 -1.24594 3.26002 0
M  V30 3637 C 349.916 -1.67323 3.90241 0
M  V30 3638 O 350.94 -1.34124 3.29984 0
M  V30 3639 O 349.799 -2.28842 4.9628 0
M  V30 3640 H 346.893 -0.378262 0.735423 0
M  V30 3641 H 349.439 -0.035734 1.69662 0
M  V30 3642 H 348.211 -0.41423 3.89101 0
M  V30 3643 H 347.834 -2.05803 3.40192 0
M  V30 3644 N 348.832 -1.54138 -0.328536 0
M  V30 3645 C 349.765 -1.78014 -1.4278 0
M  V30 3646 C 350.743 -0.629889 -1.49904 0
M  V30 3647 O 351.927 -0.866763 -1.6739 0
M  V30 3648 C 349.054 -1.89225 -2.80912 0
M  V30 3649 C 348.1 -3.11483 -2.91343 0
M  V30 3650 S 348.933 -4.70201 -2.56263 0
M  V30 3651 C 350.089 -4.84312 -3.96476 0
M  V30 3652 H 350.322 -2.70974 -1.22313 0
M  V30 3653 H 347.855 -1.45197 -0.525084 0
M  V30 3654 H 349.813 -1.9637 -3.60485 0
M  V30 3655 H 348.474 -0.972518 -2.98665 0
M  V30 3656 H 347.667 -3.16046 -3.92595 0
M  V30 3657 H 347.269 -3.02642 -2.19736 0
M  V30 3658 H 349.561 -4.66643 -4.91173 0
M  V30 3659 H 350.504 -5.86411 -3.96898 0
M  V30 3660 H 350.912 -4.12652 -3.85199 0
M  V30 3661 N 350.31 0.590341 -1.46126 0
M  V30 3662 C 351.273 1.68194 -1.55703 0
M  V30 3663 C 352.273 1.54808 -0.434868 0
M  V30 3664 O 353.463 1.59564 -0.698928 0
M  V30 3665 C 350.595 3.07575 -1.47005 0
M  V30 3666 H 351.788 1.61064 -2.52979 0
M  V30 3667 H 349.341 0.807541 -1.33823 0
M  V30 3668 H 350.076 3.20268 -0.509785 0
M  V30 3669 H 349.861 3.187 -2.28414 0
M  V30 3670 H 351.351 3.87055 -1.56776 0
M  V30 3671 N 351.788 1.33704 0.83433 0
M  V30 3672 C 353.037 1.24763 1.58484 0
M  V30 3673 C 353.35 -0.183775 1.94735 0
M  V30 3674 O 354.556 -0.395234 2.68608 0
M  V30 3675 C 353.012 2.18638 2.85876 0
M  V30 3676 C 352.62 3.66974 2.56971 0
M  V30 3677 C 354.364 2.18581 3.63899 0
M  V30 3678 C 352.271 4.5275 3.80488 0
M  V30 3679 H 351.201 0.463425 0.594772 0
M  V30 3680 H 353.852 1.58797 0.919551 0
M  V30 3681 H 352.234 1.77542 3.5397 0
M  V30 3682 H 353.408 4.16538 1.9706 0
M  V30 3683 H 351.723 3.69366 1.92244 0
M  V30 3684 H 354.32 2.79894 4.55591 0
M  V30 3685 H 354.663 1.18207 3.99165 0
M  V30 3686 H 355.196 2.58062 3.02735 0
M  V30 3687 H 351.935 5.54017 3.5035 0
M  V30 3688 H 351.455 4.07927 4.39722 0
M  V30 3689 H 353.134 4.66784 4.4802 0
M  V30 3690 N 353.266 -1.05314 1.17247 0
M  V30 3691 C 354.514 -1.77941 0.958194 0
M  V30 3692 C 354.835 -1.88089 -0.514556 0
M  V30 3693 O 354.105 -1.39676 -1.37359 0
M  V30 3694 H 352.685 -0.659116 0.351533 0
M  V30 3695 H 355.347 -1.27166 1.47699 0
M  V30 3696 H 354.443 -2.79663 1.38546 0
M  V30 3697 N 354.744 -0.972509 -1.24016 0
M  V30 3698 C 355.691 -0.505969 -2.25186 0
M  V30 3699 C 356.661 0.451009 -1.5986 0
M  V30 3700 O 357.846 0.360307 -1.87367 0
M  V30 3701 C 354.986 0.193089 -3.44559 0
M  V30 3702 C 354.099 -0.803222 -4.24467 0
M  V30 3703 C 353.234 -0.0797793 -5.3114 0
M  V30 3704 C 352.273 -1.06583 -6.02749 0
M  V30 3705 N 351.41 -0.372074 -7.01113 0
M  V30 3706 H 356.25 -1.37351 -2.64459 0
M  V30 3707 H 353.787 -0.688419 -1.29997 0
M  V30 3708 H 355.745 0.615125 -4.1264 0
M  V30 3709 H 354.375 1.02455 -3.06109 0
M  V30 3710 H 353.427 -1.34368 -3.55878 0
M  V30 3711 H 354.739 -1.55494 -4.73944 0
M  V30 3712 H 353.893 0.400015 -6.0538 0
M  V30 3713 H 352.632 0.704597 -4.82583 0
M  V30 3714 H 351.637 -1.55645 -5.27309 0
M  V30 3715 H 352.862 -1.85074 -6.53395 0
M  V30 3716 H 350.808 0.393238 -6.5482 0
M  V30 3717 H 350.725 -1.06258 -7.48495 0
M  V30 3718 H 351.993 0.0855932 -7.79453 0
M  V30 3719 N 356.222 1.38976 -0.743202 0
M  V30 3720 C 357.47 1.99948 -0.29417 0
M  V30 3721 C 357.791 1.59279 1.12495 0
M  V30 3722 O 357.061 0.844808 1.76748 0
M  V30 3723 H 355.641 0.739473 -0.105774 0
M  V30 3724 H 358.303 1.699 -0.954986 0
M  V30 3725 H 357.399 3.10142 -0.349056 0
M  V30 3726 N 357.7 0.491464 1.49741 0
M  V30 3727 C 358.63 -0.28154 2.31796 0
M  V30 3728 C 359.611 -0.971473 1.3963 0
M  V30 3729 O 360.796 -0.964719 1.68543 0
M  V30 3730 C 357.926 -1.35203 3.19902 0
M  V30 3731 C 356.88 -0.782529 4.20786 0
M  V30 3732 C 356.206 -1.95283 4.97764 0
M  V30 3733 C 357.506 0.21999 5.21837 0
M  V30 3734 H 359.2 0.403355 2.96671 0
M  V30 3735 H 356.746 0.195425 1.42668 0
M  V30 3736 H 358.699 -1.90045 3.76113 0
M  V30 3737 H 357.423 -2.06598 2.52953 0
M  V30 3738 H 356.082 -0.255928 3.65706 0
M  V30 3739 H 355.73 -2.65423 4.2727 0
M  V30 3740 H 355.43 -1.57789 5.66018 0
M  V30 3741 H 356.954 -2.50577 5.56816 0
M  V30 3742 H 358.368 -0.23996 5.72798 0
M  V30 3743 H 356.765 0.51026 5.97927 0
M  V30 3744 H 357.835 1.13911 4.7133 0
M  V30 3745 N 359.178 -1.55987 0.224894 0
M  V30 3746 C 360.141 -2.19178 -0.670348 0
M  V30 3747 C 361.141 -1.15461 -1.11917 0
M  V30 3748 O 362.331 -1.40675 -1.02743 0
M  V30 3749 C 359.463 -2.81777 -1.9187 0
M  V30 3750 H 360.656 -2.99662 -0.119364 0
M  V30 3751 H 358.209 -1.5628 -0.0247128 0
M  V30 3752 H 358.944 -2.05172 -2.51147 0
M  V30 3753 H 358.729 -3.57732 -1.60531 0
M  V30 3754 H 360.219 -3.30205 -2.55645 0
M  V30 3755 N 360.656 0.0484629 -1.57525 0
M  V30 3756 C 362.072 0.40375 -1.54409 0
M  V30 3757 C 362.272 1.77786 -0.948384 0
M  V30 3758 O 361.328 2.46189 -0.560983 0
M  V30 3759 C 362.641 0.323394 -2.98956 0
M  V30 3760 C 364.189 0.401892 -3.10409 0
M  V30 3761 C 364.664 0.351195 -4.56652 0
M  V30 3762 N 366.155 0.410576 -4.61377 0
M  V30 3763 C 366.89 0.393933 -5.72045 0
M  V30 3764 N 366.386 0.330724 -6.9201 0
M  V30 3765 N 368.179 0.442227 -5.60358 0
M  V30 3766 H 360.33 -0.851016 -1.94606 0
M  V30 3767 H 362.593 -0.321721 -0.89174 0
M  V30 3768 H 362.299 -0.62011 -3.4619 0
M  V30 3769 H 362.173 1.12463 -3.60044 0
M  V30 3770 H 364.56 1.33582 -2.63134 0
M  V30 3771 H 364.641 -0.428342 -2.52188 0
M  V30 3772 H 364.285 -0.578987 -5.04589 0
M  V30 3773 H 364.215 1.19928 -5.12762 0
M  V30 3774 H 366.706 0.462729 -3.75056 0
M  V30 3775 H 367.019 0.322592 -7.72126 0
M  V30 3776 H 365.364 0.29706 -6.94365 0
M  V30 3777 H 368.555 0.489464 -4.65534 0
M  V30 3778 H 368.728 0.425788 -6.466 0
M  V30 3779 N 362.134 1.5431 0.320358 0
M  V30 3780 C 363.382 1.72327 1.05583 0
M  V30 3781 C 363.703 0.50149 1.88441 0
M  V30 3782 O 362.973 -0.48448 1.89815 0
M  V30 3783 H 361.553 0.635387 0.3928 0
M  V30 3784 H 364.215 1.91621 0.356019 0
M  V30 3785 H 363.311 2.60426 1.72003 0
M  V30 3786 N 363.613 -0.582584 1.46437 0
M  V30 3787 C 365.024 -1.1647 1.45916 0
M  V30 3788 C 365.375 -1.95177 0.200077 0
M  V30 3789 O 364.5 -2.04874 -0.696819 0
M  V30 3790 C 365.095 -2.11885 2.64367 0
M  V30 3791 C 363.654 -2.65421 2.66887 0
M  V30 3792 C 362.801 -1.41294 2.38603 0
M  V30 3793 H 365.752 -0.370514 1.54314 0
M  V30 3794 H 365.773 -2.9535 2.39892 0
M  V30 3795 H 365.285 -1.54573 3.5599 0
M  V30 3796 H 363.386 -3.26602 1.79338 0
M  V30 3797 H 363.499 -3.08147 3.66854 0
M  V30 3798 H 361.863 -1.71109 1.88663 0
M  V30 3799 H 362.646 -0.858125 3.32402 0
M  V30 3800 N 365.091 -1.34144 -0.827227 0
M  V30 3801 C 366.021 -1.28005 -1.95287 0
M  V30 3802 C 367.002 -0.158321 -1.69362 0
M  V30 3803 O 368.187 -0.349987 -1.9102 0
M  V30 3804 C 365.317 -1.03036 -3.31664 0
M  V30 3805 C 364.271 -2.11628 -3.72019 0
M  V30 3806 C 363.597 -1.71854 -5.0633 0
M  V30 3807 C 364.897 -3.53417 -3.8457 0
M  V30 3808 H 366.591 -2.22187 -2.00682 0
M  V30 3809 H 364.137 -1.0696 -0.964135 0
M  V30 3810 H 366.09 -0.973863 -4.09993 0
M  V30 3811 H 364.814 -0.0529391 -3.26557 0
M  V30 3812 H 363.473 -2.16339 -2.95961 0
M  V30 3813 H 363.121 -0.727841 -4.97706 0
M  V30 3814 H 362.821 -2.44531 -5.34302 0
M  V30 3815 H 364.345 -1.67692 -5.87122 0
M  V30 3816 H 365.759 -3.51142 -4.5318 0
M  V30 3817 H 364.156 -4.24679 -4.2399 0
M  V30 3818 H 365.226 -3.91072 -2.86689 0
M  V30 3819 N 366.569 1.04691 -1.17803 0
M  V30 3820 C 367.794 1.81984 -0.994813 0
M  V30 3821 C 368.219 1.82586 0.452112 0
M  V30 3822 O 367.577 1.23854 1.324 0
M  V30 3823 C 367.625 3.2575 -1.54659 0
M  V30 3824 O 366.729 4.05267 -0.763728 0
M  V30 3825 H 366.07 0.562483 -0.352857 0
M  V30 3826 H 368.6 1.3189 -1.56417 0
M  V30 3827 H 368.61 3.76541 -1.57102 0
M  V30 3828 H 367.285 3.24627 -2.59981 0
M  V30 3829 H 365.862 3.63972 -0.811108 0
M  V30 3830 N 368.047 0.979072 1.23499 0
M  V30 3831 C 368.977 0.537606 2.27227 0
M  V30 3832 C 369.958 -0.428539 1.64613 0
M  V30 3833 O 371.143 -0.322191 1.91509 0
M  V30 3834 C 368.273 -0.162052 3.46922 0
M  V30 3835 C 367.227 0.721242 4.21879 0
M  V30 3836 C 366.553 -0.110555 5.34586 0
M  V30 3837 C 367.853 2.01141 4.82016 0
M  V30 3838 H 369.547 1.40462 2.64406 0
M  V30 3839 H 367.093 0.67684 1.27102 0
M  V30 3840 H 369.046 -0.482192 4.18632 0
M  V30 3841 H 367.77 -1.06351 3.08799 0
M  V30 3842 H 366.429 1.02482 3.51984 0
M  V30 3843 H 366.077 -1.0125 4.92704 0
M  V30 3844 H 365.777 0.477325 5.85658 0
M  V30 3845 H 367.301 -0.425107 6.09118 0
M  V30 3846 H 368.715 1.75612 5.45741 0
M  V30 3847 H 367.112 2.54695 5.43369 0
M  V30 3848 H 368.182 2.69909 4.02836 0
M  V30 3849 N 369.525 -1.3858 0.750561 0
M  V30 3850 C 370.455 -2.33102 0.136237 0
M  V30 3851 C 371.436 -1.54713 -0.706965 0
M  V30 3852 O 372.621 -1.83043 -0.648769 0
M  V30 3853 C 369.751 -3.38882 -0.760017 0
M  V30 3854 C 368.705 -4.27995 -0.0197785 0
M  V30 3855 C 368.031 -5.24605 -1.03408 0
M  V30 3856 C 369.331 -5.09554 1.14684 0
M  V30 3857 H 371.025 -2.84726 0.925822 0
M  V30 3858 H 368.571 -1.36898 0.446654 0
M  V30 3859 H 370.524 -4.0397 -1.19943 0
M  V30 3860 H 369.248 -2.85734 -1.58189 0
M  V30 3861 H 367.907 -3.64409 0.400184 0
M  V30 3862 H 367.555 -4.67746 -1.84994 0
M  V30 3863 H 367.255 -5.85081 -0.543464 0
M  V30 3864 H 368.779 -5.9257 -1.47288 0
M  V30 3865 H 370.193 -5.67899 0.785118 0
M  V30 3866 H 368.59 -5.7925 1.56812 0
M  V30 3867 H 369.66 -4.4347 1.96118 0
M  V30 3868 N 371.003 -0.499398 -1.49478 0
M  V30 3869 C 371.966 0.268838 -2.27618 0
M  V30 3870 C 372.966 0.895383 -1.33565 0
M  V30 3871 O 374.156 0.760164 -1.56739 0
M  V30 3872 C 371.288 1.38559 -3.11471 0
M  V30 3873 H 372.481 -0.416812 -2.96989 0
M  V30 3874 H 370.034 -0.254313 -1.54217 0
M  V30 3875 H 370.769 2.10544 -2.46661 0
M  V30 3876 H 370.554 0.941797 -3.80621 0
M  V30 3877 H 372.044 1.92678 -3.70493 0
M  V30 3878 N 372.481 1.55866 -0.233164 0
M  V30 3879 C 373.892 1.847 0.272554 0
M  V30 3880 C 374.243 1.15477 1.58617 0
M  V30 3881 O 373.368 0.42841 2.12117 0
M  V30 3882 C 373.963 3.35071 0.501299 0
M  V30 3883 C 372.522 3.6418 0.951304 0
M  V30 3884 C 371.669 2.77292 0.0208209 0
M  V30 3885 H 374.62 1.52005 -0.456074 0
M  V30 3886 H 374.641 3.55906 1.34577 0
M  V30 3887 H 374.153 3.85424 -0.454936 0
M  V30 3888 H 372.254 3.19293 1.92049 0
M  V30 3889 H 372.367 4.72071 0.817675 0
M  V30 3890 H 370.731 2.49131 0.529723 0
M  V30 3891 H 371.514 3.30448 -0.93054 0
M  V30 3892 N 373.959 -0.0401083 1.57549 0
M  V30 3893 C 375.187 -0.745196 1.93014 0
M  V30 3894 C 375.602 -1.6948 0.831984 0
M  V30 3895 O 374.959 -1.81482 -0.192463 0
M  V30 3896 C 375.01 -1.51176 3.28372 0
M  V30 3897 O 374.731 -0.600284 4.33968 0
M  V30 3898 C 376.232 -2.315 3.78051 0
M  V30 3899 H 373.452 -0.210088 0.637263 0
M  V30 3900 H 375.996 -0.000924689 2.045 0
M  V30 3901 H 374.151 -2.20801 3.18317 0
M  V30 3902 H 374.565 -1.13669 5.12035 0
M  V30 3903 H 376.039 -2.80697 4.75303 0
M  V30 3904 H 376.516 -3.12436 3.08675 0
M  V30 3905 H 377.122 -1.66971 3.91153 0
M  V30 3906 N 375.437 -1.54477 -0.31217 0
M  V30 3907 C 376.853 -1.45442 -0.657185 0
M  V30 3908 C 377.053 -0.63653 -1.91182 0
M  V30 3909 O 376.109 -0.139815 -2.52113 0
M  V30 3910 C 377.422 -2.89287 -0.82058 0
M  V30 3911 C 378.97 -2.9926 -0.917188 0
M  V30 3912 C 379.445 -4.44279 -1.11267 0
M  V30 3913 N 380.936 -4.4794 -1.17914 0
M  V30 3914 C 381.671 -5.57318 -1.34848 0
M  V30 3915 N 381.167 -6.76642 -1.48752 0
M  V30 3916 N 382.96 -5.44986 -1.37647 0
M  V30 3917 H 375.111 -2.06129 0.512313 0
M  V30 3918 H 377.374 -0.933088 0.167485 0
M  V30 3919 H 377.08 -3.51687 0.0302604 0
M  V30 3920 H 376.954 -3.36061 -1.71298 0
M  V30 3921 H 379.341 -2.36981 -1.75852 0
M  V30 3922 H 379.422 -2.558 -0.00101257 0
M  V30 3923 H 379.066 -5.07149 -0.27614 0
M  V30 3924 H 378.996 -4.85359 -2.04289 0
M  V30 3925 H 381.487 -3.61969 -1.08567 0
M  V30 3926 H 381.8 -7.55758 -1.61397 0
M  V30 3927 H 380.145 -6.79529 -1.45828 0
M  V30 3928 H 383.336 -4.50715 -1.26388 0
M  V30 3929 H 383.509 -6.3028 -1.50501 0
M  V30 3930 N 376.915 0.57481 -1.46744 0
M  V30 3931 C 377.845 1.69337 -1.60771 0
M  V30 3932 C 378.826 1.63825 -0.457736 0
M  V30 3933 O 380.011 1.8172 -0.684947 0
M  V30 3934 C 377.141 3.0798 -1.60517 0
M  V30 3935 C 376.095 3.28327 -2.74564 0
M  V30 3936 C 375.421 4.67578 -2.59373 0
M  V30 3937 C 376.721 3.15398 -4.16319 0
M  V30 3938 H 378.415 1.57853 -2.54407 0
M  V30 3939 H 375.961 0.75799 -1.22436 0
M  V30 3940 H 377.914 3.86061 -1.68923 0
M  V30 3941 H 376.638 3.20381 -0.634305 0
M  V30 3942 H 375.297 2.52649 -2.65639 0
M  V30 3943 H 374.945 4.76755 -1.60353 0
M  V30 3944 H 374.645 4.82144 -3.35873 0
M  V30 3945 H 376.169 5.47817 -2.69682 0
M  V30 3946 H 377.583 3.83315 -4.26313 0
M  V30 3947 H 375.98 3.41482 -4.93468 0
M  V30 3948 H 377.05 2.12372 -4.3592 0
M  V30 3949 N 378.394 1.34581 0.820102 0
M  V30 3950 C 379.643 1.26437 1.57151 0
M  V30 3951 C 379.956 -0.163111 1.94919 0
M  V30 3952 O 381.162 -0.366722 2.69012 0
M  V30 3953 C 379.618 2.21658 2.83541 0
M  V30 3954 C 379.226 3.69679 2.53065 0
M  V30 3955 C 380.97 2.22428 3.61561 0
M  V30 3956 C 378.877 4.56761 3.75664 0
M  V30 3957 H 377.807 0.469707 0.589823 0
M  V30 3958 H 380.458 1.59763 0.902656 0
M  V30 3959 H 378.84 1.81287 3.52067 0
M  V30 3960 H 380.014 4.18605 1.92631 0
M  V30 3961 H 378.329 3.71384 1.88316 0
M  V30 3962 H 380.926 2.8471 4.52597 0
M  V30 3963 H 381.269 1.22434 3.97889 0
M  V30 3964 H 381.802 2.61259 2.99981 0
M  V30 3965 H 378.541 5.57702 3.44454 0
M  V30 3966 H 378.061 4.12568 4.35371 0
M  V30 3967 H 379.74 4.71509 4.43044 0
M  V30 3968 N 379.872 -1.04064 1.18357 0
M  V30 3969 C 380.782 -2.15569 0.925596 0
M  V30 3970 C 381.798 -1.7365 -0.110295 0
M  V30 3971 O 382.974 -2.01273 0.0716218 0
M  V30 3972 C 380.039 -3.43704 0.454836 0
M  V30 3973 C 379.1 -4.00004 1.55869 0
M  V30 3974 C 378.333 -5.22023 1.1103 0
M  V30 3975 O 378.556 -5.70392 -0.0309756 0
M  V30 3976 O 377.49 -5.70856 1.90805 0
M  V30 3977 H 381.316 -2.40187 1.8586 0
M  V30 3978 H 378.901 -1.1402 0.965394 0
M  V30 3979 H 380.783 -4.20923 0.200382 0
M  V30 3980 H 379.458 -3.20559 -0.449876 0
M  V30 3981 H 378.365 -3.24172 1.86716 0
M  V30 3982 H 379.698 -4.2749 2.43953 0
M  V30 3983 N 381.35 -0.985608 -1.22978 0
M  V30 3984 C 382.598 -0.656087 -1.91154 0
M  V30 3985 C 382.919 0.813561 -1.77218 0
M  V30 3986 O 382.189 1.58244 -1.1548 0
M  V30 3987 H 380.769 -0.239674 -0.707506 0
M  V30 3988 H 383.431 -1.25054 -1.49491 0
M  V30 3989 H 382.527 -0.912253 -2.9847 0
M  V30 3990 N 382.828 1.3818 -0.7579 0
M  V30 3991 C 383.738 2.3421 -0.135247 0
M  V30 3992 C 384.754 1.59487 0.695683 0
M  V30 3993 O 385.93 1.91657 0.618832 0
M  V30 3994 C 382.995 3.3862 0.744139 0
M  V30 3995 C 382.056 4.2918 -0.101658 0
M  V30 3996 C 381.289 5.28603 0.735851 0
M  V30 3997 O 381.512 5.35166 1.97366 0
M  V30 3998 O 380.446 6.01707 0.152372 0
M  V30 3999 H 384.272 2.8916 -0.928436 0
M  V30 4000 H 381.857 1.40101 -0.518855 0
M  V30 4001 H 383.739 4.02539 1.2466 0
M  V30 4002 H 382.414 2.86019 1.51575 0
M  V30 4003 H 381.321 3.68407 -0.650167 0
M  V30 4004 H 382.654 4.85048 -0.836024 0
M  V30 4005 N 384.306 0.507319 1.49211 0
M  V30 4006 C 385.554 -0.0348839 2.0207 0
M  V30 4007 C 385.875 -1.36898 1.38866 0
M  V30 4008 O 385.145 -1.88133 0.546151 0
M  V30 4009 H 383.725 -0.0158812 0.746831 0
M  V30 4010 H 386.387 0.665998 1.83168 0
M  V30 4011 H 385.483 -0.159917 3.1169 0
M  V30 4012 N 385.784 -1.5574 0.241426 0
M  V30 4013 C 386.694 -2.2479 -0.671305 0
M  V30 4014 C 387.71 -1.26217 -1.19772 0
M  V30 4015 O 388.886 -1.59079 -1.23514 0
M  V30 4016 C 385.951 -2.92966 -1.85396 0
M  V30 4017 C 385.012 -4.06935 -1.36756 0
M  V30 4018 C 384.245 -4.71851 -2.49384 0
M  V30 4019 O 384.468 -4.35823 -3.67987 0
M  V30 4020 O 383.402 -5.60467 -2.19454 0
M  V30 4021 H 387.228 -3.0349 -0.112966 0
M  V30 4022 H 384.813 -1.49397 0.0101513 0
M  V30 4023 H 386.695 -3.35927 -2.54423 0
M  V30 4024 H 385.37 -2.17211 -2.40002 0
M  V30 4025 H 384.277 -3.68503 -0.644726 0
M  V30 4026 H 385.61 -4.84492 -0.867647 0
M  V30 4027 N 387.262 0.0317525 -1.57568 0
M  V30 4028 C 388.539 0.758366 -1.803 0
M  V30 4029 C 388.919 1.93718 -0.838845 0
M  V30 4030 O 388.267 2.28187 0.119571 0
M  V30 4031 C 388.477 1.19392 -3.27943 0
M  V30 4032 C 389.825 1.61094 -3.92854 0
M  V30 4033 O 390.849 1.28857 -3.32076 0
M  V30 4034 O 389.708 2.20918 -4.99858 0
M  V30 4035 H 386.802 0.366514 -0.741348 0
M  V30 4036 H 389.348 0.00873765 -1.69698 0
M  V30 4037 H 388.12 0.352275 -3.89711 0
M  V30 4038 H 387.743 2.00365 -3.43424 0
M  V30 4039 N 388.74 1.54641 0.303973 0
M  V30 4040 C 389.67 1.88386 1.3796 0
M  V30 4041 C 390.651 0.742485 1.5304 0
M  V30 4042 O 391.836 0.997959 1.66597 0
M  V30 4043 C 388.966 2.12854 2.74427 0
M  V30 4044 C 387.92 3.28702 2.74115 0
M  V30 4045 C 387.246 3.38582 4.13844 0
M  V30 4046 C 388.546 4.65881 2.3612 0
M  V30 4047 H 390.24 2.78474 1.09966 0
M  V30 4048 H 387.786 1.33988 0.527556 0
M  V30 4049 H 389.739 2.35047 3.49758 0
M  V30 4050 H 388.463 1.19535 3.03939 0
M  V30 4051 H 387.122 3.06428 2.0124 0
M  V30 4052 H 386.77 2.42784 4.40528 0
M  V30 4053 H 386.47 4.16453 4.14537 0
M  V30 4054 H 387.994 3.63031 4.90959 0
M  V30 4055 H 389.408 4.87823 3.01167 0
M  V30 4056 H 387.805 5.46444 2.48031 0
M  V30 4057 H 388.875 4.66799 1.3125 0
M  V30 4058 N 390.218 -0.567019 1.47046 0
M  V30 4059 C 391.464 -1.32658 1.53394 0
M  V30 4060 C 391.797 -1.93254 0.19148 0
M  V30 4061 O 391.072 -1.77338 -0.798844 0
M  V30 4062 C 391.355 -2.44412 2.64452 0
M  V30 4063 C 391.208 -1.88749 4.08282 0
M  V30 4064 C 392.527 -3.46387 2.71485 0
M  V30 4065 H 389.646 -0.48098 0.558415 0
M  V30 4066 H 392.288 -0.635481 1.79058 0
M  V30 4067 H 390.438 -3.03363 2.427 0
M  V30 4068 H 392.11 -1.34134 4.41368 0
M  V30 4069 H 390.353 -1.19481 4.17021 0
M  V30 4070 H 391.024 -2.69491 4.81745 0
M  V30 4071 H 393.5 -2.9734 2.91081 0
M  V30 4072 H 392.376 -4.2202 3.50985 0
M  V30 4073 H 392.637 -4.04616 1.78153 0
M  V30 4074 N 391.696 -1.35014 -0.812953 0
M  V30 4075 C 392.626 -1.30069 -1.93919 0
M  V30 4076 C 393.607 -0.176275 -1.69184 0
M  V30 4077 O 394.792 -0.370227 -1.90638 0
M  V30 4078 C 391.922 -1.06547 -3.30552 0
M  V30 4079 C 390.876 -2.15561 -3.69753 0
M  V30 4080 C 390.202 -1.77214 -5.04479 0
M  V30 4081 C 391.502 -3.57476 -3.808 0
M  V30 4082 H 393.196 -2.24303 -1.98314 0
M  V30 4083 H 390.742 -1.07977 -0.952736 0
M  V30 4084 H 392.695 -1.01729 -4.08937 0
M  V30 4085 H 391.419 -0.0875719 -3.26483 0
M  V30 4086 H 390.078 -2.19466 -2.9365 0
M  V30 4087 H 389.726 -0.780589 -4.96906 0
M  V30 4088 H 389.426 -2.50184 -5.31678 0
M  V30 4089 H 390.95 -1.7391 -5.8531 0
M  V30 4090 H 392.364 -3.55929 -4.4943 0
M  V30 4091 H 390.761 -4.29152 -4.19462 0
M  V30 4092 H 391.831 -3.94091 -2.82525 0
M  V30 4093 N 393.175 1.03435 -1.18907 0
M  V30 4094 C 394.452 1.73778 -0.89781 0
M  V30 4095 C 394.832 2.02458 0.597832 0
M  V30 4096 O 394.18 1.67482 1.55441 0
M  V30 4097 C 394.39 3.01845 -1.75187 0
M  V30 4098 C 395.738 3.7546 -1.9828 0
M  V30 4099 O 396.762 3.11759 -1.72293 0
M  V30 4100 O 395.621 4.89966 -2.42065 0
M  V30 4101 H 392.715 0.75651 -0.334098 0
M  V30 4102 H 395.261 1.09444 -1.29693 0
M  V30 4103 H 394.033 2.76836 -2.76545 0
M  V30 4104 H 393.656 3.73919 -1.35167 0
M  V30 4105 N 394.653 0.992116 1.22453 0
M  V30 4106 C 395.901 0.666215 1.90804 0
M  V30 4107 C 396.222 -0.804152 1.77647 0
M  V30 4108 O 395.492 -1.57629 1.16318 0
M  V30 4109 H 394.072 0.243423 0.706225 0
M  V30 4110 H 396.734 1.25845 1.48825 0
M  V30 4111 H 395.83 0.928069 2.97982 0
M  V30 4112 N 396.131 -1.37776 0.765217 0
M  V30 4113 C 397.377 -2.00145 0.327072 0
M  V30 4114 C 397.71 -1.60607 -1.09175 0
M  V30 4115 O 396.985 -0.849127 -1.74986 0
M  V30 4116 C 397.268 -3.57109 0.46319 0
M  V30 4117 C 397.121 -4.06576 1.92395 0
M  V30 4118 C 398.44 -4.39888 -0.136473 0
M  V30 4119 H 395.559 -0.727113 0.120316 0
M  V30 4120 H 398.201 -1.63549 0.967039 0
M  V30 4121 H 396.351 -3.88414 -0.0816358 0
M  V30 4122 H 398.023 -3.85864 2.52798 0
M  V30 4123 H 396.266 -3.59011 2.43503 0
M  V30 4124 H 396.937 -5.15639 1.97028 0
M  V30 4125 H 399.413 -4.14803 0.328317 0
M  V30 4126 H 398.289 -5.48899 -0.0110582 0
M  V30 4127 H 398.55 -4.24758 -1.22608 0
M  V30 4128 N 397.609 -0.515225 -1.4894 0
M  V30 4129 C 399.02 -0.0710067 -1.86565 0
M  V30 4130 C 399.371 1.34733 -1.42623 0
M  V30 4131 O 398.496 2.00653 -0.810379 0
M  V30 4132 C 399.091 -0.122083 -3.3858 0
M  V30 4133 C 397.65 0.266863 -3.75453 0
M  V30 4134 C 396.797 -0.488376 -2.72966 0
M  V30 4135 H 399.748 -0.727266 -1.41055 0
M  V30 4136 H 399.769 0.669818 -3.74558 0
M  V30 4137 H 399.281 -1.15448 -3.70531 0
M  V30 4138 H 397.382 1.30196 -3.49113 0
M  V30 4139 H 397.495 -0.0624811 -4.79059 0
M  V30 4140 H 395.859 0.0635622 -2.54621 0
M  V30 4141 H 396.642 -1.52113 -3.07761 0
M  V30 4142 N 399.087 1.5561 -0.249682 0
M  V30 4143 C 400.334 1.99011 0.374287 0
M  V30 4144 C 400.662 1.13785 1.57744 0
M  V30 4145 O 399.917 0.189326 1.94782 0
M  V30 4146 C 400.216 3.4775 0.824887 0
M  V30 4147 C 399.882 4.50086 -0.270819 0
M  V30 4148 C 398.544 4.77791 -0.571746 0
M  V30 4149 C 400.896 5.11312 -1.01041 0
M  V30 4150 C 398.224 5.63997 -1.61629 0
M  V30 4151 C 400.576 5.98651 -2.0445 0
M  V30 4152 C 399.24 6.24688 -2.35204 0
M  V30 4153 H 398.51 0.728233 0.136961 0
M  V30 4154 H 401.157 1.88122 -0.358087 0
M  V30 4155 H 399.462 3.55985 1.63651 0
M  V30 4156 H 401.159 3.78721 1.31799 0
M  V30 4157 H 397.749 4.28592 -0.026136 0
M  V30 4158 H 401.933 4.89953 -0.791177 0
M  V30 4159 H 397.189 5.82425 -1.85988 0
M  V30 4160 H 401.363 6.45135 -2.62248 0
M  V30 4161 H 398.99 6.91281 -3.16282 0
M  V30 4162 N 400.565 -0.0233959 1.57583 0
M  V30 4163 C 401.793 -0.724682 1.93794 0
M  V30 4164 C 402.208 -1.68588 0.849912 0
M  V30 4165 O 401.565 -1.81676 -0.173204 0
M  V30 4166 C 401.616 -1.47684 3.29957 0
M  V30 4167 O 401.337 -0.554222 4.3458 0
M  V30 4168 C 402.838 -2.27477 3.80485 0
M  V30 4169 H 400.058 -0.203317 0.639455 0
M  V30 4170 H 402.602 0.0207653 2.04489 0
M  V30 4171 H 400.757 -2.17412 3.20641 0
M  V30 4172 H 401.171 -1.08232 5.13212 0
M  V30 4173 H 402.645 -2.7564 4.78254 0
M  V30 4174 H 403.122 -3.09144 3.11972 0
M  V30 4175 H 403.728 -1.62813 3.92902 0
M  V30 4176 N 402.043 -1.548 -0.295768 0
M  V30 4177 C 403.29 -1.74329 -1.03032 0
M  V30 4178 C 403.618 -0.531915 -1.87085 0
M  V30 4179 O 402.873 0.486052 -1.89568 0
M  V30 4180 C 403.172 -2.98797 -1.961 0
M  V30 4181 C 402.838 -4.32356 -1.2798 0
M  V30 4182 C 401.5 -4.68661 -1.09135 0
M  V30 4183 C 403.852 -5.15128 -0.793243 0
M  V30 4184 C 401.18 -5.85312 -0.403269 0
M  V30 4185 C 403.532 -6.32488 -0.118854 0
M  V30 4186 C 402.196 -6.6745 0.0815043 0
M  V30 4187 H 401.466 -0.637916 -0.37702 0
M  V30 4188 H 404.113 -1.8906 -0.304696 0
M  V30 4189 H 402.418 -2.78869 -2.75207 0
M  V30 4190 H 404.115 -3.11102 -2.53015 0
M  V30 4191 H 400.705 -4.03808 -1.43655 0
M  V30 4192 H 404.889 -4.87575 -0.92653 0
M  V30 4193 H 400.145 -6.1094 -0.237098 0
M  V30 4194 H 404.319 -6.95892 0.266035 0
M  V30 4195 H 401.946 -7.57695 0.616685 0
M  V30 4196 N 403.521 0.559213 -1.47345 0
M  V30 4197 C 404.453 1.68161 -1.55738 0
M  V30 4198 C 405.466 1.56636 -0.443744 0
M  V30 4199 O 406.655 1.6363 -0.713258 0
M  V30 4200 C 403.755 3.06611 -1.4437 0
M  V30 4201 C 402.928 3.4391 -2.70268 0
M  V30 4202 C 401.987 4.61515 -2.52765 0
M  V30 4203 O 401.013 4.66197 -3.26572 0
M  V30 4204 N 402.215 5.57883 -1.6046 0
M  V30 4205 H 404.98 1.61408 -2.52522 0
M  V30 4206 H 402.541 0.7458 -1.43699 0
M  V30 4207 H 404.533 3.83117 -1.30398 0
M  V30 4208 H 403.103 3.07602 -0.556766 0
M  V30 4209 H 402.323 2.56873 -2.99015 0
M  V30 4210 H 403.611 3.65605 -3.53851 0
M  V30 4211 H 403.009 5.56855 -0.996422 0
M  V30 4212 H 401.566 6.33723 -1.52441 0
M  V30 4213 N 404.999 1.35443 0.805782 0
M  V30 4214 C 405.947 1.28465 1.93906 0
M  V30 4215 C 406.941 0.17943 1.68447 0
M  V30 4216 O 408.147 0.345459 1.76654 0
M  V30 4217 H 404.522 0.399528 0.637088 0
M  V30 4218 H 406.493 2.24206 1.96912 0
M  V30 4219 C 405.242 1.07432 3.30687 0
M  V30 4220 H 404.565 1.91716 3.50835 0
M  V30 4221 H 406.005 1.06591 4.10383 0
M  V30 4222 C 404.464 -0.22179 3.36169 0
M  V30 4223 O 404.994 -1.21731 3.82811 0
M  V30 4224 N 403.2 -0.260841 2.89427 0
M  V30 4225 H 402.747 0.549884 2.51663 0
M  V30 4226 H 402.705 -1.12777 2.93477 0
M  V30 4227 N 406.477 -1.02803 1.19454 0
M  V30 4228 C 407.705 -1.79841 1.02297 0
M  V30 4229 C 408.12 -1.83879 -0.428259 0
M  V30 4230 O 407.477 -1.28345 -1.29745 0
M  V30 4231 C 407.528 -3.24852 1.58598 0
M  V30 4232 O 407.249 -3.21097 2.98041 0
M  V30 4233 C 408.75 -4.18485 1.46236 0
M  V30 4234 H 405.97 -0.565936 0.360496 0
M  V30 4235 H 408.514 -1.2948 1.58288 0
M  V30 4236 H 406.669 -3.72401 1.06753 0
M  V30 4237 H 407.083 -4.12033 3.24545 0
M  V30 4238 H 408.557 -5.18121 1.90407 0
M  V30 4239 H 409.034 -4.37254 0.41301 0
M  V30 4240 H 409.64 -3.76811 1.97215 0
M  V30 4241 N 407.956 -0.998596 -1.21925 0
M  V30 4242 C 409.367 -0.711939 -1.72593 0
M  V30 4243 C 409.718 0.770842 -1.80423 0
M  V30 4244 O 408.843 1.60237 -1.4544 0
M  V30 4245 C 409.438 -1.28567 -3.13458 0
M  V30 4246 C 407.997 -1.04828 -3.61508 0
M  V30 4247 C 407.144 -1.4024 -2.39224 0
M  V30 4248 H 410.095 -1.17027 -1.07193 0
M  V30 4249 H 410.116 -0.667098 -3.74607 0
M  V30 4250 H 409.628 -2.36486 -3.07727 0
M  V30 4251 H 407.729 0.0140383 -3.72597 0
M  V30 4252 H 407.842 -1.71566 -4.47328 0
M  V30 4253 H 406.206 -0.821077 -2.41103 0
M  V30 4254 H 406.989 -2.49176 -2.36149 0
M  V30 4255 N 409.434 1.37368 -0.772513 0
M  V30 4256 C 410.682 1.99279 -0.336516 0
M  V30 4257 C 411.003 1.6163 1.09091 0
M  V30 4258 O 410.273 0.882109 1.74916 0
M  V30 4259 H 408.853 0.737063 -0.121435 0
M  V30 4260 H 411.515 1.67836 -0.990809 0
M  V30 4261 H 410.611 3.09332 -0.414763 0
M  V30 4262 N 410.912 0.523116 1.48665 0
M  V30 4263 C 412.14 -0.0096312 2.06898 0
M  V30 4264 C 412.555 -1.28784 1.38059 0
M  V30 4265 O 411.912 -1.76453 0.465893 0
M  V30 4266 C 411.963 -0.244386 3.60673 0
M  V30 4267 O 411.684 0.983172 4.26925 0
M  V30 4268 C 413.185 -0.818289 4.35682 0
M  V30 4269 H 410.405 0.0304161 0.67031 0
M  V30 4270 H 412.949 0.726799 1.91149 0
M  V30 4271 H 411.104 -0.930847 3.76051 0
M  V30 4272 H 411.518 0.759653 5.1897 0
M  V30 4273 H 412.992 -0.93201 5.44075 0
M  V30 4274 H 413.469 -1.82153 3.99646 0
M  V30 4275 H 414.075 -0.168609 4.24966 0
M  V30 4276 N 412.39 -1.55475 0.257931 0
M  V30 4277 C 413.3 -2.2549 -0.647425 0
M  V30 4278 C 414.316 -1.2748 -1.18427 0
M  V30 4279 O 415.492 -1.6038 -1.2182 0
M  V30 4280 C 412.557 -2.94916 -1.82278 0
M  V30 4281 C 411.618 -4.08363 -1.32432 0
M  V30 4282 C 410.851 -4.74469 -2.44366 0
M  V30 4283 O 411.074 -4.39701 -3.63344 0
M  V30 4284 O 410.008 -5.62763 -2.13497 0
M  V30 4285 H 413.834 -3.03593 -0.0807707 0
M  V30 4286 H 411.419 -1.49377 0.0259962 0
M  V30 4287 H 413.301 -3.38606 -2.50846 0
M  V30 4288 H 411.976 -2.19744 -2.37685 0
M  V30 4289 H 410.883 -3.69166 -0.605605 0
M  V30 4290 H 412.216 -4.85385 -0.816211 0
M  V30 4291 N 413.868 0.0150385 -1.57593 0
M  V30 4292 C 415.093 0.718067 -1.94573 0
M  V30 4293 C 415.518 1.6734 -0.859005 0
M  V30 4294 O 414.876 1.80362 0.184147 0
M  V30 4295 C 414.924 1.43918 -3.30636 0
M  V30 4296 O 414.028 2.55299 -3.23876 0
M  V30 4297 H 413.369 0.192125 -0.635597 0
M  V30 4298 H 415.899 -0.0336708 -2.04572 0
M  V30 4299 H 415.909 1.80598 -3.65853 0
M  V30 4300 H 414.584 0.738619 -4.09289 0
M  V30 4301 H 413.161 2.21058 -3.00312 0
M  V30 4302 N 415.346 1.54954 0.287554 0
M  V30 4303 C 416.757 1.65732 0.859634 0
M  V30 4304 C 417.108 0.574767 1.87592 0
M  V30 4305 O 416.233 -0.286299 2.14498 0
M  V30 4306 C 416.828 3.00438 1.56597 0
M  V30 4307 C 415.387 3.13292 2.08627 0
M  V30 4308 C 414.534 2.61473 0.923416 0
M  V30 4309 H 417.485 1.5857 0.0642338 0
M  V30 4310 H 417.506 2.92613 2.43224 0
M  V30 4311 H 417.018 3.79207 0.826053 0
M  V30 4312 H 415.119 2.39268 2.85625 0
M  V30 4313 H 415.232 4.19647 2.31157 0
M  V30 4314 H 413.596 2.18264 1.31275 0
M  V30 4315 H 414.379 3.42733 0.197241 0
M  V30 4316 N 416.824 -0.551391 1.4764 0
M  V30 4317 C 417.787 -1.64007 1.60107 0
M  V30 4318 C 418.787 -1.53601 0.47576 0
M  V30 4319 O 419.977 -1.57655 0.740988 0
M  V30 4320 C 417.109 -3.03569 1.55108 0
M  V30 4321 H 418.302 -1.543 2.57161 0
M  V30 4322 H 415.855 -0.771776 1.35917 0
M  V30 4323 H 416.59 -3.18804 0.594519 0
M  V30 4324 H 416.375 -3.12532 2.36783 0
M  V30 4325 H 417.865 -3.82762 1.66982 0
M  V30 4326 N 418.302 -1.35869 -0.798587 0
M  V30 4327 C 419.212 -1.31578 -1.94228 0
M  V30 4328 C 420.228 -0.21939 -1.72611 0
M  V30 4329 O 421.404 -0.450167 -1.96305 0
M  V30 4330 C 418.469 -1.09528 -3.28944 0
M  V30 4331 C 417.53 -2.28556 -3.63402 0
M  V30 4332 C 416.763 -2.07549 -4.9169 0
M  V30 4333 O 416.986 -1.046 -5.60727 0
M  V30 4334 O 415.92 -2.95106 -5.24591 0
M  V30 4335 H 419.746 -2.27847 -2.00796 0
M  V30 4336 H 417.331 -1.16322 -0.937526 0
M  V30 4337 H 419.213 -0.991127 -4.09579 0
M  V30 4338 H 417.888 -0.16315 -3.23289 0
M  V30 4339 H 416.795 -2.44538 -2.83112 0
M  V30 4340 H 418.128 -3.20244 -3.73771 0
M  V30 4341 N 419.78 1.02168 -1.19998 0
M  V30 4342 C 420.713 2.10232 -0.887558 0
M  V30 4343 C 421.691 1.61827 0.158317 0
M  V30 4344 O 422.875 1.88471 0.0330249 0
M  V30 4345 C 420.002 3.37092 -0.32964 0
M  V30 4346 C 419.048 4.0438 -1.3557 0
M  V30 4347 S 419.881 4.48956 -2.91888 0
M  V30 4348 C 421.037 5.79024 -2.37658 0
M  V30 4349 H 421.27 2.36409 -1.80272 0
M  V30 4350 H 418.803 1.15211 -1.0279 0
M  V30 4351 H 420.761 4.10498 -0.0142824 0
M  V30 4352 H 419.422 3.08996 0.563941 0
M  V30 4353 H 418.615 4.95632 -0.9146 0
M  V30 4354 H 418.217 3.37176 -1.61828 0
M  V30 4355 H 420.509 6.53942 -1.77103 0
M  V30 4356 H 421.452 6.27924 -3.27287 0
M  V30 4357 H 421.86 5.35043 -1.79971 0
M  V30 4358 N 421.258 1.00505 1.21394 0
M  V30 4359 C 422.206 0.558623 2.25792 0
M  V30 4360 C 423.2 -0.396848 1.64686 0
M  V30 4361 O 424.406 -0.268035 1.77993 0
M  V30 4362 H 420.781 0.1623 0.734277 0
M  V30 4363 H 422.752 1.4503 2.60785 0
M  V30 4364 C 421.501 -0.0989574 3.47559 0
M  V30 4365 H 420.824 0.627225 3.94849 0
M  V30 4366 H 422.264 -0.3746 4.22342 0
M  V30 4367 C 420.723 -1.33817 3.09184 0
M  V30 4368 O 421.253 -2.43252 3.19674 0
M  V30 4369 N 419.459 -1.21793 2.63846 0
M  V30 4370 H 419.006 -0.32746 2.5551 0
M  V30 4371 H 418.964 -2.04809 2.38539 0
M  V30 4372 N 422.737 -1.36956 0.779787 0
M  V30 4373 C 423.986 -1.98738 0.344405 0
M  V30 4374 C 424.299 -1.62596 -1.08728 0
M  V30 4375 O 425.505 -2.1754 -1.62445 0
M  V30 4376 C 423.961 -3.5544 0.564829 0
M  V30 4377 C 423.569 -4.00514 2.0073 0
M  V30 4378 C 425.313 -4.24059 0.193471 0
M  V30 4379 C 423.22 -5.49957 2.17489 0
M  V30 4380 H 422.15 -0.743561 0.12503 0
M  V30 4381 H 424.801 -1.56381 0.960057 0
M  V30 4382 H 423.183 -3.95817 -0.120397 0
M  V30 4383 H 424.357 -3.71362 2.72814 0
M  V30 4384 H 422.672 -3.44703 2.336 0
M  V30 4385 H 425.269 -5.33874 0.297097 0
M  V30 4386 H 425.612 -4.07378 -0.857263 0
M  V30 4387 H 426.145 -3.89012 0.831556 0
M  V30 4388 H 422.884 -5.71574 3.2091 0
M  V30 4389 H 422.404 -5.80767 1.49899 0
M  V30 4390 H 424.083 -6.16043 1.97738 0
M  V30 4391 N 424.215 -0.530993 -1.48385 0
M  V30 4392 C 425.461 -0.00538653 -2.03399 0
M  V30 4393 C 425.816 1.31899 -1.40073 0
M  V30 4394 O 425.109 1.83901 -0.537676 0
M  V30 4395 C 425.303 0.172742 -3.56982 0
M  V30 4396 C 425.132 -1.13282 -4.35198 0
M  V30 4397 C 423.902 -1.69296 -4.76096 0
M  V30 4398 C 426.1 -2.04367 -4.71952 0
M  V30 4399 N 424.082 -2.9413 -5.38851 0
M  V30 4400 C 425.453 -3.13777 -5.34737 0
M  V30 4401 C 427.508 -2.04681 -4.53883 0
M  V30 4402 C 426.211 -4.23567 -5.81363 0
M  V30 4403 C 428.237 -3.13466 -5.01491 0
M  V30 4404 C 427.599 -4.21595 -5.64302 0
M  V30 4405 H 423.698 -0.0434945 -0.780789 0
M  V30 4406 H 426.282 -0.712495 -1.81195 0
M  V30 4407 H 424.453 0.848937 -3.79009 0
M  V30 4408 H 426.185 0.698046 -3.98634 0
M  V30 4409 H 422.94 -1.23422 -4.57235 0
M  V30 4410 H 423.364 -3.57689 -5.74794 0
M  V30 4411 H 428.006 -1.22378 -4.04702 0
M  V30 4412 H 425.724 -5.06648 -6.2955 0
M  V30 4413 H 429.31 -3.14765 -4.893 0
M  V30 4414 H 428.19 -5.04384 -6.00472 0
M  V30 4415 N 425.693 1.55336 -0.266172 0
M  V30 4416 C 426.623 2.25146 0.618981 0
M  V30 4417 C 427.604 1.23845 1.16604 0
M  V30 4418 O 428.789 1.52544 1.20183 0
M  V30 4419 C 425.919 2.96572 1.80728 0
M  V30 4420 C 424.873 4.04726 1.39215 0
M  V30 4421 C 424.199 4.63678 2.66283 0
M  V30 4422 C 425.499 5.19407 0.548942 0
M  V30 4423 H 427.193 2.99377 0.0368116 0
M  V30 4424 H 424.739 1.43991 0.0162651 0
M  V30 4425 H 426.692 3.44116 2.43232 0
M  V30 4426 H 425.416 2.19861 2.41514 0
M  V30 4427 H 424.075 3.57979 0.790351 0
M  V30 4428 H 423.723 3.83646 3.25308 0
M  V30 4429 H 423.423 5.367 2.39222 0
M  V30 4430 H 424.947 5.13967 3.29651 0
M  V30 4431 H 426.361 5.63059 1.07876 0
M  V30 4432 H 424.758 5.98936 0.373593 0
M  V30 4433 H 425.828 4.8295 -0.434394 0
M  V30 4434 N 427.171 -0.0066808 1.57599 0
M  V30 4435 C 428.582 -0.550379 1.78403 0
M  V30 4436 C 428.933 -1.74339 0.900014 0
M  V30 4437 O 428.058 -2.16166 0.100713 0
M  V30 4438 C 428.653 -1.00523 3.23544 0
M  V30 4439 C 427.212 -1.49428 3.45468 0
M  V30 4440 C 426.359 -0.442444 2.73748 0
M  V30 4441 H 429.31 0.219508 1.57175 0
M  V30 4442 H 429.331 -1.87157 3.31289 0
M  V30 4443 H 428.843 -0.136735 3.87859 0
M  V30 4444 H 426.944 -2.3839 2.86358 0
M  V30 4445 H 427.057 -1.52635 4.54136 0
M  V30 4446 H 425.421 -0.902578 2.38171 0
M  V30 4447 H 426.204 0.416973 3.40758 0
M  V30 4448 N 428.649 -1.55105 -0.279332 0
M  V30 4449 C 430.065 -1.46803 -0.626187 0
M  V30 4450 C 430.265 -0.676939 -1.89789 0
M  V30 4451 O 429.321 -0.19326 -2.51759 0
M  V30 4452 C 430.634 -2.90962 -0.759034 0
M  V30 4453 C 432.182 -3.01138 -0.853504 0
M  V30 4454 C 432.657 -4.46539 -1.01818 0
M  V30 4455 N 434.148 -4.50341 -1.08386 0
M  V30 4456 C 434.883 -5.60053 -1.22996 0
M  V30 4457 N 434.379 -6.79645 -1.34366 0
M  V30 4458 N 436.172 -5.47783 -1.26056 0
M  V30 4459 H 428.323 -2.04996 0.555921 0
M  V30 4460 H 430.586 -0.929325 0.187239 0
M  V30 4461 H 430.292 -3.51544 0.104852 0
M  V30 4462 H 430.166 -3.39619 -1.64131 0
M  V30 4463 H 432.553 -2.40658 -1.70786 0
M  V30 4464 H 432.634 -2.55745 0.0532466 0
M  V30 4465 H 432.278 -5.0762 -0.168504 0
M  V30 4466 H 432.208 -4.89583 -1.93948 0
M  V30 4467 H 434.699 -3.64191 -1.00864 0
M  V30 4468 H 435.012 -7.59012 -1.4533 0
M  V30 4469 H 433.357 -6.82469 -1.31382 0
M  V30 4470 H 436.548 -4.53294 -1.168 0
M  V30 4471 H 436.721 -6.33331 -1.37098 0
M  V30 4472 N 430.127 0.543554 -1.4793 0
M  V30 4473 C 431.059 1.665 -1.57513 0
M  V30 4474 C 432.072 1.56156 -0.460333 0
M  V30 4475 O 433.261 1.62865 -0.730573 0
M  V30 4476 C 430.361 3.05063 -1.47614 0
M  V30 4477 C 429.534 3.41024 -2.739 0
M  V30 4478 C 428.593 4.58809 -2.57645 0
M  V30 4479 O 427.619 4.62707 -3.31498 0
M  V30 4480 N 428.821 5.56149 -1.66368 0
M  V30 4481 H 431.586 1.5872 -2.5422 0
M  V30 4482 H 429.147 0.730517 -1.44482 0
M  V30 4483 H 431.139 3.81712 -1.34455 0
M  V30 4484 H 429.709 3.06994 -0.589359 0
M  V30 4485 H 428.929 2.53687 -3.01723 0
M  V30 4486 H 430.217 3.61831 -3.57709 0
M  V30 4487 H 429.615 5.55767 -1.05543 0
M  V30 4488 H 428.172 6.32071 -1.59154 0
M  V30 4489 N 431.605 1.3629 0.791371 0
M  V30 4490 C 432.552 1.30458 1.90393 0
M  V30 4491 C 433.522 0.173632 1.6519 0
M  V30 4492 O 434.707 0.35983 1.87376 0
M  V30 4493 C 431.847 1.09777 3.27174 0
M  V30 4494 C 430.96 2.31929 3.64462 0
M  V30 4495 C 430.095 2.04276 4.90352 0
M  V30 4496 C 429.134 3.224 5.20312 0
M  V30 4497 N 428.271 2.94424 6.37385 0
M  V30 4498 H 433.111 2.25589 1.94714 0
M  V30 4499 H 430.648 1.12122 0.952216 0
M  V30 4500 H 432.606 0.958133 4.06049 0
M  V30 4501 H 431.236 0.183014 3.22281 0
M  V30 4502 H 430.288 2.56703 2.80727 0
M  V30 4503 H 431.6 3.20085 3.82553 0
M  V30 4504 H 430.754 1.87231 5.77087 0
M  V30 4505 H 429.493 1.13428 4.74326 0
M  V30 4506 H 428.498 3.40005 4.32061 0
M  V30 4507 H 429.723 4.14071 5.38258 0
M  V30 4508 H 427.669 2.06185 6.22755 0
M  V30 4509 H 427.586 3.76118 6.55798 0
M  V30 4510 H 428.854 2.80953 7.27108 0
M  V30 4511 N 433.083 -1.0153 1.20538 0
M  V30 4512 C 434.046 -2.0826 0.957098 0
M  V30 4513 C 435.046 -1.60657 -0.0678655 0
M  V30 4514 O 436.236 -1.73385 0.168332 0
M  V30 4515 C 433.368 -3.38033 0.441188 0
M  V30 4516 H 434.561 -2.31719 1.90384 0
M  V30 4517 H 432.114 -1.1835 1.02093 0
M  V30 4518 H 432.849 -3.20249 -0.510961 0
M  V30 4519 H 432.634 -3.73911 1.18038 0
M  V30 4520 H 434.124 -4.16613 0.287009 0
M  V30 4521 N 434.561 -1.01147 -1.20859 0
M  V30 4522 C 435.491 -0.597663 -2.25722 0
M  V30 4523 C 436.472 0.384744 -1.65692 0
M  V30 4524 O 437.657 0.271303 -1.92296 0
M  V30 4525 C 434.787 0.0700149 -3.47229 0
M  V30 4526 C 433.741 -0.832843 -4.19819 0
M  V30 4527 C 433.067 -0.0312202 -5.34691 0
M  V30 4528 C 434.367 -2.1385 -4.76514 0
M  V30 4529 H 436.061 -1.47423 -2.60589 0
M  V30 4530 H 433.607 -0.710301 -1.25263 0
M  V30 4531 H 435.56 0.37103 -4.19763 0
M  V30 4532 H 434.284 0.981259 -3.11511 0
M  V30 4533 H 432.943 -1.11778 -3.49144 0
M  V30 4534 H 432.591 0.881515 -4.95215 0
M  V30 4535 H 432.291 -0.632434 -5.84187 0
M  V30 4536 H 433.815 0.26346 -6.10031 0
M  V30 4537 H 435.229 -1.9002 -5.40893 0
M  V30 4538 H 433.626 -2.69012 -5.36426 0
M  V30 4539 H 434.696 -2.80495 -3.95538 0
M  V30 4540 N 436.039 1.36541 -0.78704 0
M  V30 4541 C 436.969 2.32659 -0.197992 0
M  V30 4542 C 437.95 1.56533 0.665697 0
M  V30 4543 O 439.135 1.84698 0.60001 0
M  V30 4544 C 436.265 3.40778 0.669901 0
M  V30 4545 C 435.219 4.27897 -0.0937039 0
M  V30 4546 C 434.545 5.27163 0.894629 0
M  V30 4547 C 435.845 5.06334 -1.28154 0
M  V30 4548 H 437.539 2.82171 -1.00099 0
M  V30 4549 H 435.085 1.35665 -0.482793 0
M  V30 4550 H 437.038 4.07008 1.09191 0
M  V30 4551 H 435.762 2.89827 1.50558 0
M  V30 4552 H 434.421 3.6322 -0.49666 0
M  V30 4553 H 434.069 4.72486 1.72527 0
M  V30 4554 H 433.769 5.86317 0.388149 0
M  V30 4555 H 435.293 5.96266 1.31525 0
M  V30 4556 H 436.707 5.65617 -0.93541 0
M  V30 4557 H 435.104 5.74888 -1.72115 0
M  V30 4558 H 436.174 4.38114 -2.07807 0
M  V30 4559 N 437.518 0.538854 1.48102 0
M  V30 4560 C 438.451 -0.266495 2.26639 0
M  V30 4561 C 439.429 -0.93687 1.32897 0
M  V30 4562 O 440.613 -0.959507 1.62252 0
M  V30 4563 C 437.74 -1.37814 3.09394 0
M  V30 4564 C 436.786 -0.818247 4.18577 0
M  V30 4565 S 437.619 0.320848 5.34538 0
M  V30 4566 C 438.775 -0.793059 6.20855 0
M  V30 4567 H 439.008 0.399994 2.94597 0
M  V30 4568 H 436.541 0.324808 1.50945 0
M  V30 4569 H 438.499 -2.01488 3.57649 0
M  V30 4570 H 437.16 -2.01639 2.40833 0
M  V30 4571 H 436.353 -1.65247 4.7614 0
M  V30 4572 H 435.955 -0.258036 3.73109 0
M  V30 4573 H 438.247 -1.68961 6.56093 0
M  V30 4574 H 439.19 -0.255204 7.0764 0
M  V30 4575 H 439.598 -1.07746 5.54122 0
M  V30 4576 N 438.996 -1.55193 0.274407 0
M  V30 4577 C 439.959 -2.212 -0.600279 0
M  V30 4578 C 440.959 -1.18963 -1.08187 0
M  V30 4579 O 442.149 -1.43873 -0.982158 0
M  V30 4580 C 439.281 -2.87739 -1.82809 0
M  V30 4581 H 440.474 -2.9989 -0.0239682 0
M  V30 4582 H 438.027 -1.5628 0.0250192 0
M  V30 4583 H 438.762 -2.13058 -2.44493 0
M  V30 4584 H 438.547 -3.62658 -1.49069 0
M  V30 4585 H 440.037 -3.38171 -2.45011 0
M  V30 4586 N 440.474 -0.00167713 -1.576 0
M  V30 4587 C 441.384 1.00548 -2.1196 0
M  V30 4588 C 442.4 1.3758 -1.06526 0
M  V30 4589 O 443.576 1.46278 -1.38436 0
M  V30 4590 C 440.641 2.27809 -2.6135 0
M  V30 4591 C 439.702 1.97074 -3.81393 0
M  V30 4592 C 438.935 3.18267 -4.28417 0
M  V30 4593 O 439.158 4.30009 -3.74765 0
M  V30 4594 O 438.092 3.02167 -5.20556 0
M  V30 4595 H 441.918 0.573373 -2.98238 0
M  V30 4596 H 439.503 0.217255 -1.47812 0
M  V30 4597 H 441.385 3.02568 -2.93309 0
M  V30 4598 H 440.06 2.70254 -1.78169 0
M  V30 4599 H 438.967 1.19785 -3.54404 0
M  V30 4600 H 440.3 1.59464 -4.65652 0
M  V30 4601 N 441.952 1.55251 0.271103 0
M  V30 4602 C 442.9 1.89054 1.35504 0
M  V30 4603 C 443.894 0.767064 1.51038 0
M  V30 4604 O 445.1 0.951429 1.528 0
M  V30 4605 H 441.475 0.600072 0.45323 0
M  V30 4606 H 443.446 2.79598 1.04247 0
M  V30 4607 C 442.195 2.18068 2.70817 0
M  V30 4608 H 441.518 3.04005 2.59656 0
M  V30 4609 H 442.958 2.4564 3.45597 0
M  V30 4610 C 441.417 0.988901 3.2206 0
M  V30 4611 O 441.947 0.224501 4.01072 0
M  V30 4612 N 440.153 0.786085 2.79766 0
M  V30 4613 H 439.7 1.40937 2.15626 0
M  V30 4614 H 439.658 -0.00969349 3.14399 0
M  V30 4615 N 443.43 -0.535701 1.48216 0
M  V30 4616 C 444.676 -1.29375 1.56173 0
M  V30 4617 C 445.009 -1.92804 0.232429 0
M  V30 4618 O 444.284 -1.78992 -0.761048 0
M  V30 4619 C 444.567 -2.38747 2.69577 0
M  V30 4620 C 444.42 -1.80046 4.12193 0
M  V30 4621 C 445.739 -3.40551 2.78771 0
M  V30 4622 H 442.858 -0.469027 0.568491 0
M  V30 4623 H 445.5 -0.597358 1.80365 0
M  V30 4624 H 443.65 -2.98147 2.4908 0
M  V30 4625 H 445.322 -1.24742 4.44114 0
M  V30 4626 H 443.565 -1.10609 4.19462 0
M  V30 4627 H 444.236 -2.59212 4.87353 0
M  V30 4628 H 446.712 -2.91099 2.97322 0
M  V30 4629 H 445.588 -4.1448 3.59857 0
M  V30 4630 H 445.849 -4.00746 1.86696 0
M  V30 4631 N 444.908 -1.36708 -0.784132 0
M  V30 4632 C 446.154 -1.31426 -1.54451 0
M  V30 4633 C 446.487 0.10476 -1.93917 0
M  V30 4634 O 445.762 1.05934 -1.6312 0
M  V30 4635 C 446.045 -2.24189 -2.818 0
M  V30 4636 C 445.898 -3.74813 -2.48667 0
M  V30 4637 C 447.217 -2.15626 -3.83658 0
M  V30 4638 H 444.336 -0.478739 -0.560337 0
M  V30 4639 H 446.978 -1.67305 -0.900498 0
M  V30 4640 H 445.128 -1.93722 -3.36755 0
M  V30 4641 H 446.8 -4.15823 -1.99722 0
M  V30 4642 H 445.043 -3.93989 -1.81535 0
M  V30 4643 H 445.714 -4.35138 -3.39646 0
M  V30 4644 H 448.19 -2.42456 -3.38163 0
M  V30 4645 H 447.066 -2.82694 -4.70506 0
M  V30 4646 H 447.327 -1.14522 -4.27009 0
M  V30 4647 N 446.386 1.0089 -1.21074 0
M  V30 4648 C 447.634 1.74262 -1.02358 0
M  V30 4649 C 447.955 1.89869 0.444393 0
M  V30 4650 O 447.225 1.44677 1.32081 0
M  V30 4651 H 445.805 0.645615 -0.375754 0
M  V30 4652 H 448.467 1.21596 -1.52317 0
M  V30 4653 H 447.563 2.74328 -1.4883 0
M  V30 4654 N 447.864 1.01787 1.20321 0
M  V30 4655 C 449.092 0.727194 1.937 0
M  V30 4656 C 449.507 -0.712305 1.74848 0
M  V30 4657 O 448.864 -1.48327 1.06327 0
M  V30 4658 C 448.915 1.05497 3.45764 0
M  V30 4659 O 448.636 2.43794 3.64 0
M  V30 4660 C 450.137 0.785534 4.36285 0
M  V30 4661 H 447.357 0.266939 0.615617 0
M  V30 4662 H 449.901 1.35939 1.52777 0
M  V30 4663 H 448.056 0.468158 3.84561 0
M  V30 4664 H 448.47 2.55656 4.57974 0
M  V30 4665 H 449.944 1.06495 5.4163 0
M  V30 4666 H 450.421 -0.280273 4.38305 0
M  V30 4667 H 451.027 1.35456 4.03152 0
M  V30 4668 N 449.342 -1.36122 0.79427 0
M  V30 4669 C 450.272 -2.32551 0.210328 0
M  V30 4670 C 451.253 -1.56884 -0.657386 0
M  V30 4671 O 452.438 -1.85014 -0.590207 0
M  V30 4672 C 449.568 -3.41128 -0.651819 0
M  V30 4673 C 448.522 -4.27842 0.116395 0
M  V30 4674 C 447.848 -5.2763 -0.86666 0
M  V30 4675 C 449.148 -5.05647 1.30837 0
M  V30 4676 H 450.842 -2.81636 1.01594 0
M  V30 4677 H 448.388 -1.35407 0.489981 0
M  V30 4678 H 450.341 -4.07581 -1.07031 0
M  V30 4679 H 449.065 -2.90622 -1.49019 0
M  V30 4680 H 447.724 -3.62952 0.515915 0
M  V30 4681 H 447.372 -4.73395 -1.70019 0
M  V30 4682 H 447.072 -5.86514 -0.35705 0
M  V30 4683 H 448.596 -5.96955 -1.28361 0
M  V30 4684 H 450.01 -5.65113 0.965393 0
M  V30 4685 H 448.407 -5.73967 1.75161 0
M  V30 4686 H 449.477 -4.37006 2.10128 0
M  V30 4687 N 450.82 -0.546701 -1.47814 0
M  V30 4688 C 451.77 0.227042 -2.26867 0
M  V30 4689 C 452.754 0.894844 -1.33721 0
M  V30 4690 O 453.946 0.794887 -1.58147 0
M  V30 4691 C 451.075 1.26299 -3.19223 0
M  V30 4692 C 450.161 0.59913 -4.19847 0
M  V30 4693 N 450.552 -0.324777 -5.04756 0
M  V30 4694 C 448.85 0.854331 -4.37741 0
M  V30 4695 C 449.551 -0.709386 -5.77358 0
M  V30 4696 N 448.527 -0.0666153 -5.43559 0
M  V30 4697 H 452.329 -0.483476 -2.89896 0
M  V30 4698 H 449.843 -0.365893 -1.58224 0
M  V30 4699 H 451.84 1.83116 -3.74532 0
M  V30 4700 H 450.5 1.97471 -2.57751 0
M  V30 4701 H 451.511 -0.698351 -5.1317 0
M  V30 4702 H 448.188 1.55536 -3.87447 0
M  V30 4703 H 449.578 -1.46796 -6.55668 0
M  V30 4704 N 452.299 1.55045 -0.282633 0
M  V30 4705 C 453.247 2.24254 0.617478 0
M  V30 4706 C 454.241 1.24215 1.15183 0
M  V30 4707 O 455.447 1.42123 1.10459 0
M  V30 4708 H 451.822 0.719801 0.217693 0
M  V30 4709 H 453.793 2.98398 0.0110076 0
M  V30 4710 C 452.542 2.98281 1.78672 0
M  V30 4711 H 451.865 3.75053 1.38475 0
M  V30 4712 H 453.305 3.50017 2.393 0
M  V30 4713 C 451.764 2.04184 2.67975 0
M  V30 4714 O 452.294 1.59792 3.6855 0
M  V30 4715 N 450.5 1.70526 2.35307 0
M  V30 4716 H 450.047 2.06821 1.53567 0
M  V30 4717 H 450.005 1.07839 2.95327 0
M  V30 4718 N 453.777 0.010035 1.57597 0
M  V30 4719 C 454.707 -0.976857 2.12084 0
M  V30 4720 C 455.688 -1.35191 1.03235 0
M  V30 4721 O 456.873 -1.43389 1.3097 0
M  V30 4722 C 454.003 -2.26548 2.63236 0
M  V30 4723 C 452.957 -2.03175 3.76701 0
M  V30 4724 C 452.283 -3.38138 4.14206 0
M  V30 4725 C 453.583 -1.38625 5.03568 0
M  V30 4726 H 455.277 -0.523145 2.94794 0
M  V30 4727 H 452.823 -0.250195 1.4181 0
M  V30 4728 H 454.776 -2.95952 2.99984 0
M  V30 4729 H 453.5 -2.74051 1.77661 0
M  V30 4730 H 452.159 -1.36195 3.40362 0
M  V30 4731 H 451.807 -3.83363 3.25641 0
M  V30 4732 H 451.507 -3.23312 4.90656 0
M  V30 4733 H 453.031 -4.08841 4.53521 0
M  V30 4734 H 454.445 -1.98 5.38023 0
M  V30 4735 H 452.842 -1.34256 5.84889 0
M  V30 4736 H 453.912 -0.356722 4.83586 0
M  V30 4737 N 455.255 -1.55392 -0.262866 0
M  V30 4738 C 456.485 -1.80251 -1.00961 0
M  V30 4739 C 456.893 -0.58117 -1.80053 0
M  V30 4740 O 456.236 0.459427 -1.77862 0
M  V30 4741 C 456.298 -2.98207 -2.00781 0
M  V30 4742 C 455.962 -4.34856 -1.40533 0
M  V30 4743 C 456.959 -5.13459 -0.815853 0
M  V30 4744 C 454.644 -4.8153 -1.42948 0
M  V30 4745 C 456.638 -6.36875 -0.258562 0
M  V30 4746 C 454.325 -6.04899 -0.868334 0
M  V30 4747 C 455.323 -6.8241 -0.283884 0
M  V30 4748 O 455.011 -8.03451 0.268644 0
M  V30 4749 H 454.743 -0.604049 -0.303482 0
M  V30 4750 H 457.297 -2.03257 -0.295926 0
M  V30 4751 H 455.527 -2.70917 -2.75936 0
M  V30 4752 H 457.216 -3.10299 -2.61667 0
M  V30 4753 H 457.982 -4.78526 -0.789812 0
M  V30 4754 H 453.861 -4.21201 -1.87378 0
M  V30 4755 H 457.405 -6.97318 0.198257 0
M  V30 4756 H 453.302 -6.39312 -0.891649 0
M  V30 4757 H 454.07 -8.18346 0.158974 0
M  V30 4758 N 456.733 0.527833 -1.48498 0
M  V30 4759 C 457.961 1.30823 -1.6029 0
M  V30 4760 C 458.376 1.86945 -0.263974 0
M  V30 4761 O 457.733 1.6651 0.747034 0
M  V30 4762 C 457.784 2.45756 -2.65116 0
M  V30 4763 O 457.505 1.91946 -3.93813 0
M  V30 4764 C 459.006 3.37543 -2.87367 0
M  V30 4765 H 456.226 0.397763 -0.540394 0
M  V30 4766 H 458.77 0.636529 -1.94341 0
M  V30 4767 H 456.925 3.08806 -2.33917 0
M  V30 4768 H 457.339 2.67195 -4.51339 0
M  V30 4769 H 458.813 4.14532 -3.6451 0
M  V30 4770 H 459.29 3.92905 -1.9627 0
M  V30 4771 H 459.896 2.80283 -3.19878 0
M  V30 4772 N 458.211 1.37122 0.776871 0
M  V30 4773 C 459.141 1.35164 1.90402 0
M  V30 4774 C 460.122 0.221069 1.68657 0
M  V30 4775 O 461.307 0.420642 1.8959 0
M  V30 4776 C 458.437 1.15274 3.27611 0
M  V30 4777 C 457.391 2.25289 3.63908 0
M  V30 4778 C 456.717 1.90527 4.99603 0
M  V30 4779 C 458.017 3.67446 3.71188 0
M  V30 4780 H 459.711 2.29482 1.92297 0
M  V30 4781 H 457.257 1.10465 0.923773 0
M  V30 4782 H 459.21 1.12536 4.06096 0
M  V30 4783 H 457.934 0.174102 3.26136 0
M  V30 4784 H 456.593 2.27174 2.87728 0
M  V30 4785 H 456.241 0.91206 4.94662 0
M  V30 4786 H 455.941 2.64193 5.24858 0
M  V30 4787 H 457.465 1.89367 5.80493 0
M  V30 4788 H 458.879 3.67719 4.39836 0
M  V30 4789 H 457.276 4.40123 4.07936 0
M  V30 4790 H 458.346 4.01443 2.71977 0
M  V30 4791 N 459.689 -1.00246 1.21608 0
M  V30 4792 C 461.105 -1.26435 0.973975 0
M  V30 4793 C 461.305 -1.98642 -0.338143 0
M  V30 4794 O 460.361 -2.29026 -1.06317 0
M  V30 4795 C 461.674 -2.08551 2.16626 0
M  V30 4796 C 463.222 -2.21769 2.20879 0
M  V30 4797 C 463.697 -3.07267 3.39633 0
M  V30 4798 N 465.188 -3.14855 3.39736 0
M  V30 4799 C 465.923 -3.81274 4.28273 0
M  V30 4800 N 465.419 -4.497 5.27012 0
M  V30 4801 N 467.212 -3.7794 4.16074 0
M  V30 4802 H 459.363 -0.518089 2.05984 0
M  V30 4803 H 461.626 -0.291368 0.902113 0
M  V30 4804 H 461.332 -1.62847 3.11727 0
M  V30 4805 H 461.206 -3.09303 2.15897 0
M  V30 4806 H 463.593 -2.66691 1.26332 0
M  V30 4807 H 463.674 -1.20478 2.25652 0
M  V30 4808 H 463.318 -2.63047 4.34475 0
M  V30 4809 H 463.248 -4.08678 3.321 0
M  V30 4810 H 465.739 -2.66147 2.6828 0
M  V30 4811 H 466.052 -4.98092 5.90867 0
M  V30 4812 H 464.397 -4.48479 5.30935 0
M  V30 4813 H 467.588 -3.23638 3.38195 0
M  V30 4814 H 467.761 -4.29424 4.85282 0
M  V30 4815 N 461.167 -1.02423 -1.1978 0
M  V30 4816 C 462.415 -0.716569 -1.8897 0
M  V30 4817 C 462.736 0.756769 -1.79716 0
M  V30 4818 O 462.006 1.5449 -1.20456 0
M  V30 4819 H 460.586 -0.262062 -0.699523 0
M  V30 4820 H 463.248 -1.29747 -1.45436 0
M  V30 4821 H 462.344 -1.00675 -2.95417 0
M  V30 4822 N 462.645 1.35699 -0.801477 0
M  V30 4823 C 463.608 2.28199 -0.213994 0
M  V30 4824 C 464.608 1.49359 0.595691 0
M  V30 4825 O 465.798 1.69186 0.414921 0
M  V30 4826 C 462.93 3.33587 0.702297 0
M  V30 4827 H 464.123 2.81666 -1.02976 0
M  V30 4828 H 461.676 1.45467 -0.571759 0
M  V30 4829 H 462.411 2.85297 1.54195 0
M  V30 4830 H 462.196 3.91906 0.123484 0
M  V30 4831 H 463.686 4.02638 1.10783 0
M  V30 4832 N 464.123 0.554532 1.47522 0
M  V30 4833 C 465.033 -0.197865 2.33764 0
M  V30 4834 C 466.049 -0.914576 1.48025 0
M  V30 4835 O 467.225 -0.884067 1.80959 0
M  V30 4836 C 464.29 -1.21628 3.24665 0
M  V30 4837 C 463.351 -0.507283 4.26292 0
M  V30 4838 C 462.584 -1.47718 5.1285 0
M  V30 4839 O 462.807 -2.7118 5.01814 0
M  V30 4840 O 461.741 -1.00313 5.93482 0
M  V30 4841 H 465.567 0.50949 2.99396 0
M  V30 4842 H 463.152 0.315176 1.46038 0
M  V30 4843 H 465.034 -1.80421 3.80823 0
M  V30 4844 H 463.709 -1.9056 2.61665 0
M  V30 4845 H 462.616 0.121778 3.73902 0
M  V30 4846 H 463.949 0.140544 4.91999 0
M  V30 4847 N 465.601 -1.54893 0.290851 0
M  V30 4848 C 466.847 -2.0023 -0.321867 0
M  V30 4849 C 467.18 -1.179 -1.54316 0
M  V30 4850 O 466.455 -0.25293 -1.92848 0
M  V30 4851 C 466.738 -3.53456 -0.688515 0
M  V30 4852 C 466.591 -4.46532 0.541209 0
M  V30 4853 C 467.91 -4.13057 -1.51895 0
M  V30 4854 H 465.029 -0.727891 -0.115515 0
M  V30 4855 H 467.671 -1.85722 0.400931 0
M  V30 4856 H 465.821 -3.6595 -1.30433 0
M  V30 4857 H 467.493 -4.4596 1.17973 0
M  V30 4858 H 465.736 -4.17545 1.17636 0
M  V30 4859 H 466.407 -5.51475 0.240675 0
M  V30 4860 H 468.883 -4.03937 -0.99872 0
M  V30 4861 H 467.759 -5.20448 -1.74429 0
M  V30 4862 H 468.02 -3.64284 -2.50498 0
M  V30 4863 N 467.08 -0.0183926 -1.57589 0
M  V30 4864 C 468.496 0.337897 -1.55982 0
M  V30 4865 C 468.696 1.73604 -1.02294 0
M  V30 4866 O 467.752 2.43589 -0.664895 0
M  V30 4867 C 469.065 0.196305 -3.00059 0
M  V30 4868 C 470.613 0.269875 -3.11834 0
M  V30 4869 C 471.088 0.157197 -4.5773 0
M  V30 4870 N 472.579 0.214521 -4.62703 0
M  V30 4871 C 473.314 0.150955 -5.73201 0
M  V30 4872 N 472.81 0.0369212 -6.9279 0
M  V30 4873 N 474.603 0.204162 -5.61729 0
M  V30 4874 H 466.754 -0.93279 -1.90821 0
M  V30 4875 H 469.017 -0.359253 -0.877292 0
M  V30 4876 H 468.723 -0.766383 -3.43248 0
M  V30 4877 H 468.597 0.970908 -3.6449 0
M  V30 4878 H 470.984 1.22302 -2.68563 0
M  V30 4879 H 471.065 -0.534918 -2.50144 0
M  V30 4880 H 470.709 -0.792479 -5.01679 0
M  V30 4881 H 470.639 0.980717 -5.17387 0
M  V30 4882 H 473.13 0.303238 -3.76681 0
M  V30 4883 H 473.443 -0.00518321 -7.728 0
M  V30 4884 H 471.788 0.0022886 -6.95 0
M  V30 4885 H 474.979 0.291575 -4.67191 0
M  V30 4886 H 475.152 0.15116 -6.47824 0
M  V30 4887 N 468.558 1.5553 0.254621 0
M  V30 4888 C 469.835 1.6774 1.00611 0
M  V30 4889 C 470.215 0.555993 2.03647 0
M  V30 4890 O 469.563 -0.441583 2.24193 0
M  V30 4891 C 469.773 3.07725 1.6464 0
M  V30 4892 C 471.121 3.66074 2.15116 0
M  V30 4893 O 472.145 3.10476 1.74595 0
M  V30 4894 O 471.004 4.63526 2.89493 0
M  V30 4895 H 468.098 0.681958 0.467828 0
M  V30 4896 H 470.644 1.67863 0.24902 0
M  V30 4897 H 469.416 3.80792 0.900734 0
M  V30 4898 H 469.039 3.1158 2.46989 0
M  V30 4899 N 470.036 -0.519951 1.48776 0
M  V30 4900 C 470.999 -1.60574 1.6355 0
M  V30 4901 C 471.999 -1.52557 0.508234 0
M  V30 4902 O 473.189 -1.56047 0.774262 0
M  V30 4903 C 470.321 -3.00211 1.61512 0
M  V30 4904 H 471.514 -1.4881 2.60376 0
M  V30 4905 H 469.067 -0.742772 1.37523 0
M  V30 4906 H 469.802 -3.17471 0.662009 0
M  V30 4907 H 469.587 -3.07439 2.43359 0
M  V30 4908 H 471.077 -3.79134 1.75064 0
M  V30 4909 N 471.514 -1.37532 -0.769588 0
M  V30 4910 C 472.444 -1.36172 -1.89682 0
M  V30 4911 C 473.425 -0.23001 -1.68538 0
M  V30 4912 O 474.61 -0.43069 -1.89364 0
M  V30 4913 C 471.74 -1.1701 -3.26995 0
M  V30 4914 C 470.694 -2.27216 -3.62708 0
M  V30 4915 C 470.02 -1.93174 -4.98586 0
M  V30 4916 C 471.32 -3.6941 -3.69234 0
M  V30 4917 H 473.014 -2.30499 -1.91078 0
M  V30 4918 H 470.56 -1.10953 -0.917902 0
M  V30 4919 H 472.513 -1.14688 -4.05493 0
M  V30 4920 H 471.237 -0.191395 -3.26039 0
M  V30 4921 H 469.896 -2.28697 -2.86519 0
M  V30 4922 H 469.544 -0.938281 -4.94171 0
M  V30 4923 H 469.244 -2.66973 -5.23449 0
M  V30 4924 H 470.768 -1.92443 -5.79481 0
M  V30 4925 H 472.182 -3.70047 -4.37879 0
M  V30 4926 H 470.579 -4.4228 -4.05597 0
M  V30 4927 H 471.649 -4.0288 -2.69844 0
M  V30 4928 N 472.992 0.995999 -1.22138 0
M  V30 4929 C 474.24 1.73167 -1.042 0
M  V30 4930 C 474.561 1.90329 0.42423 0
M  V30 4931 O 473.831 1.4607 1.30539 0
M  V30 4932 H 472.411 0.641593 -0.38258 0
M  V30 4933 H 475.073 1.19974 -1.53598 0
M  V30 4934 H 474.169 2.72734 -1.51731 0
M  V30 4935 N 474.47 1.03057 1.19235 0
M  V30 4936 C 475.716 0.738841 1.89506 0
M  V30 4937 C 476.071 -0.724807 1.78225 0
M  V30 4938 O 475.364 -1.52118 1.16494 0
M  V30 4939 C 475.558 1.1268 3.39172 0
M  V30 4940 C 475.387 2.62662 3.65019 0
M  V30 4941 C 474.157 3.29658 3.82954 0
M  V30 4942 C 476.355 3.60873 3.66436 0
M  V30 4943 N 474.337 4.68726 3.96446 0
M  V30 4944 C 475.708 4.85566 3.8552 0
M  V30 4945 C 477.763 3.54647 3.49471 0
M  V30 4946 C 476.466 6.04783 3.89397 0
M  V30 4947 C 478.492 4.73281 3.54625 0
M  V30 4948 C 477.854 5.96789 3.74196 0
M  V30 4949 H 473.953 0.322256 0.712513 0
M  V30 4950 H 476.537 1.31822 1.43287 0
M  V30 4951 H 474.708 0.575612 3.84111 0
M  V30 4952 H 476.44 0.787145 3.96971 0
M  V30 4953 H 473.195 2.8007 3.81913 0
M  V30 4954 H 473.619 5.40971 4.07037 0
M  V30 4955 H 478.261 2.60143 3.33295 0
M  V30 4956 H 475.979 6.99654 4.04364 0
M  V30 4957 H 479.565 4.70094 3.42787 0
M  V30 4958 H 478.445 6.87051 3.78061 0
M  V30 4959 N 475.948 -1.35272 0.808662 0
M  V30 4960 C 477.173 -2.03477 0.401475 0
M  V30 4961 C 477.598 -1.60537 -0.980279 0
M  V30 4962 O 476.956 -0.78304 -1.63518 0
M  V30 4963 C 477.004 -3.57181 0.495354 0
M  V30 4964 O 476.108 -4.09474 -0.490397 0
M  V30 4965 H 475.449 -0.642561 0.167366 0
M  V30 4966 H 477.979 -1.72824 1.09512 0
M  V30 4967 H 477.989 -4.06356 0.365912 0
M  V30 4968 H 476.664 -3.87784 1.5032 0
M  V30 4969 H 475.241 -3.71516 -0.321023 0
M  V30 4970 N 477.426 -0.562348 -1.47226 0
M  V30 4971 C 478.373 0.182461 -2.30078 0
M  V30 4972 C 479.343 0.903503 -1.39377 0
M  V30 4973 O 480.528 0.898188 -1.68337 0
M  V30 4974 C 477.668 1.20322 -3.23445 0
M  V30 4975 C 476.781 0.487717 -4.29238 0
M  V30 4976 C 475.916 1.49422 -5.09752 0
M  V30 4977 C 474.955 0.763976 -6.07314 0
M  V30 4978 N 474.092 1.71755 -6.80768 0
M  V30 4979 H 478.932 -0.530169 -2.93246 0
M  V30 4980 H 476.469 -0.273276 -1.44539 0
M  V30 4981 H 478.427 1.80768 -3.76004 0
M  V30 4982 H 477.057 1.88382 -2.6213 0
M  V30 4983 H 476.109 -0.231374 -3.79696 0
M  V30 4984 H 477.421 -0.0841003 -4.98729 0
M  V30 4985 H 476.575 2.17206 -5.66486 0
M  V30 4986 H 475.314 2.09995 -4.40174 0
M  V30 4987 H 474.319 0.0722344 -5.49753 0
M  V30 4988 H 475.544 0.16391 -6.78902 0
M  V30 4989 H 473.49 2.31177 -6.13916 0
M  V30 4990 H 473.407 1.19802 -7.46447 0
M  V30 4991 H 474.675 2.38638 -7.42073 0
M  V30 4992 N 478.904 1.54736 -0.299062 0
M  V30 4993 C 480.134 2.04215 0.312992 0
M  V30 4994 C 480.542 1.17596 1.48215 0
M  V30 4995 O 479.885 0.193835 1.82674 0
M  V30 4996 C 479.947 3.49696 0.833862 0
M  V30 4997 C 479.611 4.56518 -0.20977 0
M  V30 4998 C 480.608 5.09442 -1.03756 0
M  V30 4999 C 478.293 5.01073 -0.35091 0
M  V30 5000 C 480.287 6.05459 -1.99244 0
M  V30 5001 C 477.974 5.9691 -1.30924 0
M  V30 5002 C 478.972 6.48987 -2.1285 0
M  V30 5003 O 478.66 7.42947 -3.07059 0
M  V30 5004 H 478.392 0.672128 0.0722494 0
M  V30 5005 H 480.946 2.00718 -0.436043 0
M  V30 5006 H 479.176 3.5051 1.63339 0
M  V30 5007 H 480.865 3.82381 1.36159 0
M  V30 5008 H 481.631 4.75816 -0.939376 0
M  V30 5009 H 477.51 4.60168 0.276813 0
M  V30 5010 H 481.054 6.46031 -2.63229 0
M  V30 5011 H 476.951 6.29953 -1.40815 0
M  V30 5012 H 477.719 7.60743 -3.02015 0
M  V30 5013 N 480.382 0.0267497 1.57577 0
M  V30 5014 C 481.631 -0.651736 1.9088 0
M  V30 5015 C 481.944 -1.73427 0.904576 0
M  V30 5016 O 483.15 -2.46923 1.12877 0
M  V30 5017 C 481.606 -1.21048 3.38933 0
M  V30 5018 C 481.214 -0.161362 4.47709 0
M  V30 5019 C 482.958 -1.86562 3.81307 0
M  V30 5020 C 480.865 -0.731611 5.86857 0
M  V30 5021 H 479.795 -0.247198 0.712326 0
M  V30 5022 H 482.446 0.0916641 1.83271 0
M  V30 5023 H 480.828 -2.00542 3.41466 0
M  V30 5024 H 482.002 0.61094 4.56732 0
M  V30 5025 H 480.317 0.394877 4.14523 0
M  V30 5026 H 482.914 -2.30178 4.8262 0
M  V30 5027 H 483.257 -2.70735 3.16241 0
M  V30 5028 H 483.79 -1.13762 3.81186 0
M  V30 5029 H 480.529 0.0719329 6.55461 0
M  V30 5030 H 480.049 -1.47245 5.81445 0
M  V30 5031 H 481.728 -1.22208 6.35354 0
M  V30 5032 N 481.861 -1.55662 -0.24637 0
M  V30 5033 C 482.809 -1.91186 -1.3248 0
M  V30 5034 C 483.803 -0.790996 -1.49799 0
M  V30 5035 O 485.009 -0.975617 -1.51267 0
M  V30 5036 H 481.384 -0.607207 -0.443626 0
M  V30 5037 H 483.355 -2.81221 -0.997853 0
M  V30 5038 C 482.104 -2.22349 -2.67313 0
M  V30 5039 H 481.427 -3.08097 -2.54786 0
M  V30 5040 H 482.867 -2.51107 -3.41645 0
M  V30 5041 C 481.326 -1.04001 -3.20446 0
M  V30 5042 O 481.856 -0.28828 -4.00664 0
M  V30 5043 N 480.062 -0.830494 -2.7848 0
M  V30 5044 H 479.609 -1.4435 -2.13356 0
M  V30 5045 H 479.567 -0.0403258 -3.14374 0
M  V30 5046 N 483.339 0.512053 -1.4905 0
M  V30 5047 C 484.271 1.63121 -1.6101 0
M  V30 5048 C 485.284 1.55145 -0.493352 0
M  V30 5049 O 486.473 1.61278 -0.764955 0
M  V30 5050 C 483.573 3.01863 -1.54052 0
M  V30 5051 C 482.746 3.35138 -2.81072 0
M  V30 5052 C 481.805 4.5324 -2.67319 0
M  V30 5053 O 480.831 4.55571 -3.41238 0
M  V30 5054 N 482.033 5.52495 -1.78127 0
M  V30 5055 H 484.798 1.53292 -2.5753 0
M  V30 5056 H 482.359 0.699706 -1.45999 0
M  V30 5057 H 484.351 3.78774 -1.42521 0
M  V30 5058 H 482.921 3.05675 -0.654345 0
M  V30 5059 H 482.141 2.4723 -3.07036 0
M  V30 5060 H 483.429 3.54162 -3.65304 0
M  V30 5061 H 482.827 5.53403 -1.17308 0
M  V30 5062 H 481.384 6.28553 -1.72525 0
M  V30 5063 N 484.817 1.37938 0.762283 0
M  V30 5064 C 485.78 1.34279 1.85747 0
M  V30 5065 C 486.78 0.244969 1.58923 0
M  V30 5066 O 487.97 0.501365 1.66829 0
M  V30 5067 C 485.102 1.08833 3.23061 0
M  V30 5068 H 486.295 2.31705 1.90401 0
M  V30 5069 H 483.848 1.23105 0.963057 0
M  V30 5070 H 484.583 0.119767 3.24079 0
M  V30 5071 H 484.368 1.88306 3.43923 0
M  V30 5072 H 485.858 1.08946 4.03138 0
M  V30 5073 N 486.295 -0.989507 1.22664 0
M  V30 5074 C 487.225 -2.09847 1.02404 0
M  V30 5075 C 488.206 -1.70007 -0.0561303 0
M  V30 5076 O 489.391 -1.93906 0.106748 0
M  V30 5077 C 486.521 -3.41996 0.604663 0
M  V30 5078 C 485.475 -3.95699 1.63115 0
M  V30 5079 C 484.801 -5.23936 1.0675 0
M  V30 5080 C 486.101 -4.25999 3.02196 0
M  V30 5081 H 487.795 -2.27054 1.95158 0
M  V30 5082 H 485.341 -1.09111 0.939727 0
M  V30 5083 H 487.294 -4.1899 0.45002 0
M  V30 5084 H 486.018 -3.24626 -0.35855 0
M  V30 5085 H 484.677 -3.2084 1.77362 0
M  V30 5086 H 484.325 -5.02909 0.0955422 0
M  V30 5087 H 484.025 -5.60833 1.75328 0
M  V30 5088 H 485.549 -6.0356 0.924516 0
M  V30 5089 H 486.963 -4.93777 2.91303 0
M  V30 5090 H 485.36 -4.74076 3.67929 0
M  V30 5091 H 486.43 -3.33636 3.51873 0
M  V30 5092 N 487.773 -1.03688 -1.18687 0
M  V30 5093 C 488.723 -0.595067 -2.20098 0
M  V30 5094 C 489.707 0.360465 -1.5681 0
M  V30 5095 O 490.899 0.180136 -1.76081 0
M  V30 5096 C 488.028 0.0444495 -3.43271 0
M  V30 5097 C 487.114 -0.934002 -4.13687 0
M  V30 5098 N 487.505 -2.09957 -4.60165 0
M  V30 5099 C 485.803 -0.759177 -4.39491 0
M  V30 5100 C 486.504 -2.71735 -5.1433 0
M  V30 5101 N 485.48 -1.99638 -5.05614 0
M  V30 5102 H 489.282 -1.48336 -2.5372 0
M  V30 5103 H 486.796 -0.904949 -1.3485 0
M  V30 5104 H 488.793 0.37864 -4.15177 0
M  V30 5105 H 487.453 0.928325 -3.11147 0
M  V30 5106 H 488.464 -2.47863 -4.54735 0
M  V30 5107 H 485.141 0.0749292 -4.17433 0
M  V30 5108 H 486.531 -3.70492 -5.60523 0
M  V30 5109 N 489.251 1.34841 -0.815825 0
M  V30 5110 C 490.667 1.51543 -0.500697 0
M  V30 5111 C 490.867 1.76261 0.976444 0
M  V30 5112 O 489.923 1.8094 1.76117 0
M  V30 5113 C 491.236 2.68487 -1.35407 0
M  V30 5114 C 492.784 2.82368 -1.35046 0
M  V30 5115 C 493.259 4.02347 -2.18816 0
M  V30 5116 N 494.75 4.09542 -2.16402 0
M  V30 5117 C 495.485 5.01517 -2.77971 0
M  V30 5118 N 494.981 5.98763 -3.48503 0
M  V30 5119 N 496.774 4.94334 -2.67563 0
M  V30 5120 H 488.925 1.17055 -1.77234 0
M  V30 5121 H 491.188 0.573481 -0.754866 0
M  V30 5122 H 490.894 2.56829 -2.40274 0
M  V30 5123 H 490.768 3.63321 -1.01377 0
M  V30 5124 H 493.155 2.93471 -0.309604 0
M  V30 5125 H 493.236 1.88363 -1.73069 0
M  V30 5126 H 492.88 3.92004 -3.22948 0
M  V30 5127 H 492.81 4.95551 -1.78148 0
M  V30 5128 H 495.301 3.39932 -1.65091 0
M  V30 5129 H 495.614 6.6556 -3.92747 0
M  V30 5130 H 493.959 5.98909 -3.52609 0
M  V30 5131 H 497.15 4.1732 -2.12041 0
M  V30 5132 H 497.323 5.6582 -3.15834 0
M  V30 5133 N 490.729 0.570148 1.46925 0
M  V30 5134 C 491.976 0.0509529 2.02436 0
M  V30 5135 C 492.304 -1.30405 1.44308 0
M  V30 5136 O 491.559 -1.86493 0.593198 0
M  V30 5137 C 491.858 -0.0780336 3.57315 0
M  V30 5138 C 491.524 1.20775 4.34424 0
M  V30 5139 C 490.186 1.56004 4.5521 0
M  V30 5140 C 492.538 2.0592 4.78797 0
M  V30 5141 C 489.866 2.76201 5.17619 0
M  V30 5142 C 492.218 3.25332 5.42533 0
M  V30 5143 C 490.882 3.60859 5.61549 0
M  V30 5144 H 490.152 0.018645 0.740765 0
M  V30 5145 H 492.799 0.744262 1.76445 0
M  V30 5146 H 491.104 -0.854394 3.82371 0
M  V30 5147 H 492.801 -0.495312 3.97929 0
M  V30 5148 H 489.391 0.923469 4.18533 0
M  V30 5149 H 493.575 1.80008 4.62505 0
M  V30 5150 H 488.831 3.0388 5.30535 0
M  V30 5151 H 493.005 3.91586 5.75876 0
M  V30 5152 H 490.632 4.54088 6.09678 0
M  V30 5153 N 492.207 -1.54576 0.307264 0
M  V30 5154 C 493.455 -1.99867 -0.299574 0
M  V30 5155 C 493.776 -1.19714 -1.53927 0
M  V30 5156 O 493.046 -0.29472 -1.9367 0
M  V30 5157 H 491.626 -0.738299 -0.113683 0
M  V30 5158 H 494.288 -1.9032 0.420042 0
M  V30 5159 H 493.384 -3.06901 -0.567283 0
M  V30 5160 N 493.685 -0.035106 -1.57561 0
M  V30 5161 C 495.101 0.321334 -1.56332 0
M  V30 5162 C 495.301 1.72509 -1.04129 0
M  V30 5163 O 494.357 2.4287 -0.690694 0
M  V30 5164 C 495.67 0.164469 -3.0025 0
M  V30 5165 C 497.218 0.236786 -3.12103 0
M  V30 5166 C 497.693 0.10864 -4.57871 0
M  V30 5167 N 499.184 0.165433 -4.62904 0
M  V30 5168 C 499.919 0.0901506 -5.73329 0
M  V30 5169 N 499.415 -0.0365606 -6.9279 0
M  V30 5170 N 501.208 0.144572 -5.61914 0
M  V30 5171 H 493.359 -0.952976 -1.89821 0
M  V30 5172 H 495.622 -0.368537 -0.873432 0
M  V30 5173 H 495.328 -0.802746 -3.42416 0
M  V30 5174 H 495.202 0.932194 -3.655 0
M  V30 5175 H 497.589 1.19446 -2.69845 0
M  V30 5176 H 497.67 -0.561419 -2.49563 0
M  V30 5177 H 497.314 -0.845644 -5.00811 0
M  V30 5178 H 497.244 0.925786 -5.18398 0
M  V30 5179 H 499.735 0.263269 -3.76982 0
M  V30 5180 H 500.048 -0.0871487 -7.72751 0
M  V30 5181 H 498.393 -0.0714256 -6.94963 0
M  V30 5182 H 501.584 0.242006 -4.67474 0
M  V30 5183 H 501.757 0.0824413 -6.47948 0
M  V30 5184 N 495.163 1.55791 0.238111 0
M  V30 5185 C 496.095 1.87513 1.31802 0
M  V30 5186 C 497.108 0.762053 1.43863 0
M  V30 5187 O 498.297 1.04024 1.45056 0
M  V30 5188 C 495.397 2.05402 2.69561 0
M  V30 5189 C 494.57 3.3632 2.79656 0
M  V30 5190 C 493.629 3.43844 3.98319 0
M  V30 5191 O 492.655 4.16994 3.87433 0
M  V30 5192 N 493.857 2.73777 5.11885 0
M  V30 5193 H 496.622 2.80734 1.04922 0
M  V30 5194 H 494.183 1.56135 0.428196 0
M  V30 5195 H 496.175 2.07769 3.47296 0
M  V30 5196 H 494.745 1.18884 2.89111 0
M  V30 5197 H 493.965 3.46195 1.88528 0
M  V30 5198 H 495.253 4.22594 2.83358 0
M  V30 5199 H 494.651 2.14094 5.23622 0
M  V30 5200 H 493.208 2.81825 5.87723 0
M  V30 5201 N 496.642 -0.504142 1.49319 0
M  V30 5202 C 497.605 -1.5883 1.65244 0
M  V30 5203 C 498.605 -1.52009 0.524386 0
M  V30 5204 O 499.795 -1.55218 0.79077 0
M  V30 5205 C 496.927 -2.98481 1.64687 0
M  V30 5206 H 498.12 -1.4604 2.61939 0
M  V30 5207 H 495.673 -0.728144 1.38303 0
M  V30 5208 H 496.408 -3.16751 0.695644 0
M  V30 5209 H 496.193 -3.0484 2.46607 0
M  V30 5210 H 497.683 -3.77256 1.79075 0
M  V30 5211 N 498.12 -1.38341 -0.754957 0
M  V30 5212 C 499.03 -1.3769 -1.89944 0
M  V30 5213 C 500.046 -0.274194 -1.71826 0
M  V30 5214 O 501.222 -0.512391 -1.94773 0
M  V30 5215 C 498.287 -1.19938 -3.25293 0
M  V30 5216 C 497.348 -2.40001 -3.55946 0
M  V30 5217 C 496.581 -2.23087 -4.84838 0
M  V30 5218 O 496.804 -1.22386 -5.57116 0
M  V30 5219 O 495.738 -3.11646 -5.14937 0
M  V30 5220 H 499.564 -2.3412 -1.93446 0
M  V30 5221 H 497.149 -1.19246 -0.900044 0
M  V30 5222 H 499.031 -1.12093 -4.06218 0
M  V30 5223 H 497.706 -0.265919 -3.22606 0
M  V30 5224 H 496.613 -2.53421 -2.75188 0
M  V30 5225 H 497.946 -3.31973 -3.63394 0
M  V30 5226 N 499.598 0.982988 -1.23187 0
M  V30 5227 C 500.844 1.72648 -1.06398 0
M  V30 5228 C 501.177 1.90066 0.398561 0
M  V30 5229 O 500.452 1.45105 1.29518 0
M  V30 5230 C 500.735 3.12627 -1.78707 0
M  V30 5231 C 500.588 3.02795 -3.32618 0
M  V30 5232 C 501.907 4.11997 -1.54747 0
M  V30 5233 H 499.026 0.626649 -0.387918 0
M  V30 5234 H 501.668 1.14455 -1.51658 0
M  V30 5235 H 499.818 3.62308 -1.40234 0
M  V30 5236 H 501.49 2.60659 -3.80598 0
M  V30 5237 H 499.733 2.39362 -3.61785 0
M  V30 5238 H 500.404 4.01893 -3.78399 0
M  V30 5239 H 502.88 3.71114 -1.88186 0
M  V30 5240 H 501.756 5.08037 -2.07821 0
M  V30 5241 H 502.017 4.39462 -0.482249 0
M  V30 5242 N 501.076 1.04316 1.18135 0
M  V30 5243 C 502.009 0.580823 2.20685 0
M  V30 5244 C 502.987 -0.385943 1.57953 0
M  V30 5245 O 504.171 -0.299654 1.86103 0
M  V30 5246 C 501.298 -0.151162 3.38363 0
M  V30 5247 C 500.344 0.769247 4.19505 0
M  V30 5248 S 501.177 2.25352 4.85774 0
M  V30 5249 C 502.333 1.53246 6.0685 0
M  V30 5250 H 502.566 1.44968 2.5956 0
M  V30 5251 H 500.099 0.85434 1.28609 0
M  V30 5252 H 502.057 -0.567315 4.06561 0
M  V30 5253 H 500.718 -0.995936 2.97892 0
M  V30 5254 H 499.911 0.203335 5.0359 0
M  V30 5255 H 499.513 1.12436 3.56699 0
M  V30 5256 H 501.805 0.82689 6.72435 0
M  V30 5257 H 502.748 2.35044 6.67952 0
M  V30 5258 H 503.156 1.0237 5.5514 0
M  V30 5259 N 502.554 -1.34406 0.822964 0
M  V30 5260 C 503.801 -1.98284 0.411057 0
M  V30 5261 C 504.129 -1.65245 -1.02588 0
M  V30 5262 O 503.384 -0.91619 -1.72929 0
M  V30 5263 C 503.683 -3.52981 0.560268 0
M  V30 5264 C 503.349 -4.05931 1.96293 0
M  V30 5265 C 502.011 -4.20103 2.34664 0
M  V30 5266 C 504.363 -4.34412 2.87985 0
M  V30 5267 C 501.691 -4.60082 3.64062 0
M  V30 5268 C 504.043 -4.75838 4.16847 0
M  V30 5269 C 502.707 -4.88215 4.55195 0
M  V30 5270 H 501.977 -0.725573 0.150416 0
M  V30 5271 H 504.624 -1.60349 1.04692 0
M  V30 5272 H 502.929 -3.91477 -0.158982 0
M  V30 5273 H 504.626 -4.00385 0.222087 0
M  V30 5274 H 501.216 -3.95363 1.65487 0
M  V30 5275 H 505.4 -4.23001 2.59584 0
M  V30 5276 H 500.656 -4.67856 3.93599 0
M  V30 5277 H 504.83 -4.96834 4.87984 0
M  V30 5278 H 502.457 -5.18952 5.55512 0
M  V30 5279 N 504.032 -0.577932 -1.46621 0
M  V30 5280 C 504.995 0.147805 -2.28723 0
M  V30 5281 C 505.995 0.823325 -1.38123 0
M  V30 5282 O 507.185 0.676011 -1.60548 0
M  V30 5283 C 504.317 1.21853 -3.18378 0
M  V30 5284 H 505.51 -0.573654 -2.94362 0
M  V30 5285 H 503.063 -0.335703 -1.52652 0
M  V30 5286 H 503.798 1.97173 -2.57475 0
M  V30 5287 H 503.583 0.738714 -3.85078 0
M  V30 5288 H 505.073 1.72768 -3.80186 0
M  V30 5289 N 505.51 1.54411 -0.315457 0
M  V30 5290 C 506.756 2.00716 0.289972 0
M  V30 5291 C 507.089 1.2034 1.5242 0
M  V30 5292 O 506.364 0.283579 1.92422 0
M  V30 5293 C 506.647 3.54507 0.632196 0
M  V30 5294 C 506.5 4.45615 -0.61218 0
M  V30 5295 C 507.819 4.15421 1.45305 0
M  V30 5296 H 504.938 0.729637 0.10392 0
M  V30 5297 H 507.58 1.8506 -0.430427 0
M  V30 5298 H 505.73 3.67979 1.24595 0
M  V30 5299 H 507.402 4.44026 -1.25053 0
M  V30 5300 H 505.645 4.15621 -1.24264 0
M  V30 5301 H 506.316 5.51022 -0.328379 0
M  V30 5302 H 508.792 4.05474 0.934331 0
M  V30 5303 H 507.668 5.23157 1.66127 0
M  V30 5304 H 507.929 3.68223 2.44671 0
M  V30 5305 N 506.988 0.0434614 1.5754 0
M  V30 5306 C 507.938 -0.943039 2.07583 0
M  V30 5307 C 508.922 -1.27662 0.979342 0
M  V30 5308 O 510.114 -1.26034 1.24276 0
M  V30 5309 C 507.243 -2.22056 2.61813 0
M  V30 5310 C 506.329 -1.91471 3.78417 0
M  V30 5311 N 506.72 -1.31214 4.88484 0
M  V30 5312 C 505.018 -2.21384 3.87176 0
M  V30 5313 C 505.719 -1.18084 5.69588 0
M  V30 5314 N 504.695 -1.68116 5.16951 0
M  V30 5315 H 508.497 -0.472354 2.90079 0
M  V30 5316 H 506.011 -0.161191 1.61598 0
M  V30 5317 H 508.008 -2.93618 2.95963 0
M  V30 5318 H 506.668 -2.69738 1.80752 0
M  V30 5319 H 507.679 -0.985318 5.08441 0
M  V30 5320 H 504.356 -2.7164 3.17046 0
M  V30 5321 H 505.746 -0.713684 6.68099 0
M  V30 5322 N 508.466 -1.55915 -0.229846 0
M  V30 5323 C 509.414 -1.9258 -1.30444 0
M  V30 5324 C 510.408 -0.806839 -1.48951 0
M  V30 5325 O 511.614 -0.991606 -1.50224 0
M  V30 5326 H 507.989 -0.611878 -0.437161 0
M  V30 5327 H 509.96 -2.82264 -0.96797 0
M  V30 5328 C 508.709 -2.25171 -2.6494 0
M  V30 5329 H 508.032 -3.10782 -2.51504 0
M  V30 5330 H 509.472 -2.54716 -3.38963 0
M  V30 5331 C 507.931 -1.07394 -3.19324 0
M  V30 5332 O 508.461 -0.330759 -4.00336 0
M  V30 5333 N 506.667 -0.859984 -2.77584 0
M  V30 5334 H 506.214 -1.46605 -2.11813 0
M  V30 5335 H 506.172 -0.0736671 -3.14314 0
M  V30 5336 N 509.944 0.496216 -1.49584 0
M  V30 5337 C 511.19 1.24918 -1.60521 0
M  V30 5338 C 511.545 1.90197 -0.290352 0
M  V30 5339 O 510.838 1.77967 0.709813 0
M  V30 5340 C 511.032 2.3359 -2.705 0
M  V30 5341 C 510.861 1.78969 -4.12553 0
M  V30 5342 C 509.631 1.60057 -4.79281 0
M  V30 5343 C 511.829 1.29883 -4.97629 0
M  V30 5344 N 509.811 1.00415 -6.05632 0
M  V30 5345 C 511.182 0.824057 -6.14499 0
M  V30 5346 C 513.237 1.18501 -4.83593 0
M  V30 5347 C 511.94 0.246721 -7.18877 0
M  V30 5348 C 513.966 0.621634 -5.88124 0
M  V30 5349 C 513.328 0.157116 -7.04225 0
M  V30 5350 H 509.427 0.446896 -0.641722 0
M  V30 5351 H 512.011 0.555456 -1.86609 0
M  V30 5352 H 510.182 3.00418 -2.46178 0
M  V30 5353 H 511.914 3.00628 -2.70933 0
M  V30 5354 H 508.669 1.84562 -4.36158 0
M  V30 5355 H 509.093 0.725074 -6.73106 0
M  V30 5356 H 513.735 1.53012 -3.94141 0
M  V30 5357 H 511.453 -0.110651 -8.08024 0
M  V30 5358 H 515.039 0.536279 -5.79323 0
M  V30 5359 H 513.919 -0.272009 -7.83728 0
M  V30 5360 N 511.423 1.38739 0.74761 0
M  V30 5361 C 512.834 1.31507 1.32524 0
M  V30 5362 C 513.185 -0.0263963 1.96182 0
M  V30 5363 O 512.31 -0.92849 1.95469 0
M  V30 5364 C 512.905 2.38162 2.40966 0
M  V30 5365 C 511.464 2.34489 2.94434 0
M  V30 5366 C 510.611 2.20712 1.67873 0
M  V30 5367 H 513.562 1.4901 0.546043 0
M  V30 5368 H 513.583 2.04222 3.21051 0
M  V30 5369 H 513.095 3.35783 1.94605 0
M  V30 5370 H 511.196 1.40467 3.45108 0
M  V30 5371 H 511.309 3.28861 3.48407 0
M  V30 5372 H 509.673 1.67667 1.91729 0
M  V30 5373 H 510.456 3.20285 1.23582 0
M  V30 5374 N 512.901 -0.976442 1.23707 0
M  V30 5375 C 514.317 -1.24341 1.00058 0
M  V30 5376 C 514.517 -1.99315 -0.295932 0
M  V30 5377 O 513.573 -2.3123 -1.01435 0
M  V30 5378 C 514.886 -2.03909 2.21001 0
M  V30 5379 C 516.434 -2.17034 2.25534 0
M  V30 5380 C 516.909 -2.99994 3.46075 0
M  V30 5381 N 518.4 -3.07578 3.46338 0
M  V30 5382 C 519.135 -3.72104 4.36264 0
M  V30 5383 N 518.631 -4.3842 5.36432 0
M  V30 5384 N 520.424 -3.69029 4.23998 0
M  V30 5385 H 512.575 -0.47428 2.07037 0
M  V30 5386 H 514.838 -0.272167 0.908091 0
M  V30 5387 H 514.544 -1.56198 3.15111 0
M  V30 5388 H 514.418 -3.04654 2.22409 0
M  V30 5389 H 516.805 -2.63951 1.31961 0
M  V30 5390 H 516.886 -1.15664 2.28156 0
M  V30 5391 H 516.53 -2.53772 4.39957 0
M  V30 5392 H 516.46 -4.01541 3.40694 0
M  V30 5393 H 518.951 -2.60397 2.73865 0
M  V30 5394 H 519.264 -4.85447 6.013 0
M  V30 5395 H 517.609 -4.37116 5.40328 0
M  V30 5396 H 520.8 -3.16392 3.44984 0
M  V30 5397 H 520.973 -4.19034 4.94282 0
M  V30 5398 N 514.379 -1.04941 -1.1758 0
M  V30 5399 C 515.625 -0.768896 -1.88307 0
M  V30 5400 C 515.98 0.696361 -1.79356 0
M  V30 5401 O 515.273 1.50245 -1.18899 0
M  V30 5402 C 515.467 -1.18062 -3.37337 0
M  V30 5403 C 515.296 -2.68436 -3.60794 0
M  V30 5404 C 514.066 -3.35709 -3.77661 0
M  V30 5405 C 516.264 -3.66657 -3.60649 0
M  V30 5406 N 514.246 -4.74974 -3.88939 0
M  V30 5407 C 515.617 -4.91638 -3.77747 0
M  V30 5408 C 517.672 -3.60162 -3.43785 0
M  V30 5409 C 516.375 -6.10902 -3.79726 0
M  V30 5410 C 518.401 -4.78863 -3.47051 0
M  V30 5411 C 517.763 -6.02666 -3.64654 0
M  V30 5412 H 513.862 -0.33355 -0.707296 0
M  V30 5413 H 516.446 -1.34085 -1.41171 0
M  V30 5414 H 514.617 -0.636648 -3.83147 0
M  V30 5415 H 516.349 -0.8502 -3.95669 0
M  V30 5416 H 513.104 -2.8611 -3.77409 0
M  V30 5417 H 513.528 -5.47378 -3.98379 0
M  V30 5418 H 518.17 -2.65412 -3.29114 0
M  V30 5419 H 515.888 -7.05998 -3.93182 0
M  V30 5420 H 519.474 -4.75488 -3.35265 0
M  V30 5421 H 518.354 -6.92979 -3.67083 0
M  V30 5422 N 515.857 1.33968 -0.830081 0
M  V30 5423 C 517.105 1.97672 -0.420734 0
M  V30 5424 C 517.426 1.66111 1.02138 0
M  V30 5425 O 516.696 0.955503 1.71017 0
M  V30 5426 H 515.276 0.73125 -0.152587 0
M  V30 5427 H 517.938 1.63483 -1.0611 0
M  V30 5428 H 517.034 3.07294 -0.545588 0
M  V30 5429 N 517.335 0.585699 1.46312 0
M  V30 5430 C 518.283 -0.158577 2.32059 0
M  V30 5431 C 519.277 -0.881427 1.44662 0
M  V30 5432 O 520.483 -0.799476 1.61271 0
M  V30 5433 H 516.858 -0.0700066 0.748734 0
M  V30 5434 H 518.829 0.583383 2.92642 0
M  V30 5435 C 517.578 -1.15701 3.27885 0
M  V30 5436 H 516.901 -0.610215 3.95116 0
M  V30 5437 H 518.341 -1.64812 3.90657 0
M  V30 5438 C 516.8 -2.21951 2.53455 0
M  V30 5439 O 517.33 -3.29352 2.29978 0
M  V30 5440 N 515.536 -1.9664 2.13965 0
M  V30 5441 H 515.083 -1.09309 2.33258 0
M  V30 5442 H 515.041 -2.6794 1.64485 0
M  V30 5443 N 518.813 -1.54241 0.323641 0
M  V30 5444 C 519.776 -2.22997 -0.529602 0
M  V30 5445 C 520.776 -1.22345 -1.04347 0
M  V30 5446 O 521.966 -1.46924 -0.935889 0
M  V30 5447 C 519.098 -2.93409 -1.73562 0
M  V30 5448 H 520.291 -2.99815 0.0714518 0
M  V30 5449 H 517.844 -1.56121 0.0747258 0
M  V30 5450 H 518.579 -2.20729 -2.37591 0
M  V30 5451 H 518.364 -3.67217 -1.37456 0
M  V30 5452 H 519.854 -3.45794 -2.34128 0
M  V30 5453 N 520.291 -0.0518155 -1.57515 0
M  V30 5454 C 521.201 0.937539 -2.15052 0
M  V30 5455 C 522.217 1.34121 -1.10849 0
M  V30 5456 O 523.393 1.418 -1.4302 0
M  V30 5457 C 520.458 2.19379 -2.68466 0
M  V30 5458 C 519.519 1.84841 -3.87469 0
M  V30 5459 C 518.752 3.04477 -4.38326 0
M  V30 5460 O 518.975 4.17868 -3.88256 0
M  V30 5461 O 517.909 2.85453 -5.29906 0
M  V30 5462 H 521.735 0.478201 -2.99912 0
M  V30 5463 H 519.32 0.17012 -1.48428 0
M  V30 5464 H 521.202 2.93084 -3.02787 0
M  V30 5465 H 519.877 2.64449 -1.86677 0
M  V30 5466 H 518.784 1.08449 -3.58036 0
M  V30 5467 H 520.117 1.44569 -4.7049 0
M  V30 5468 N 521.769 1.56035 0.221574 0
M  V30 5469 C 523.018 1.78245 0.944016 0
M  V30 5470 C 523.331 0.620371 1.85501 0
M  V30 5471 O 524.537 0.726103 2.6161 0
M  V30 5472 C 522.993 3.15659 1.7288 0
M  V30 5473 C 522.601 4.39591 0.863942 0
M  V30 5474 C 524.345 3.47195 2.44246 0
M  V30 5475 C 522.252 5.6803 1.64607 0
M  V30 5476 H 521.182 0.664547 0.356222 0
M  V30 5477 H 523.833 1.8243 0.197904 0
M  V30 5478 H 522.215 3.0565 2.51781 0
M  V30 5479 H 523.389 4.60655 0.115464 0
M  V30 5480 H 521.704 4.15572 0.262407 0
M  V30 5481 H 524.301 4.40381 3.03263 0
M  V30 5482 H 524.644 2.69693 3.1713 0
M  V30 5483 H 525.177 3.58533 1.72334 0
M  V30 5484 H 521.916 6.48425 0.960507 0
M  V30 5485 H 521.436 5.51027 2.36917 0
M  V30 5486 H 523.115 6.08203 2.20675 0
M  V30 5487 N 523.247 -0.488276 1.49845 0
M  V30 5488 C 524.493 -1.24341 1.6021 0
M  V30 5489 C 524.826 -1.91967 0.293651 0
M  V30 5490 O 524.101 -1.81323 -0.703718 0
M  V30 5491 C 524.384 -2.3005 2.77036 0
M  V30 5492 C 524.237 -1.66842 4.17713 0
M  V30 5493 C 525.556 -3.31509 2.89464 0
M  V30 5494 H 522.675 -0.450704 0.583125 0
M  V30 5495 H 525.317 -0.539673 1.82174 0
M  V30 5496 H 523.467 -2.90071 2.58439 0
M  V30 5497 H 525.139 -1.1055 4.47858 0
M  V30 5498 H 523.382 -0.972079 4.22768 0
M  V30 5499 H 524.053 -2.43576 4.95353 0
M  V30 5500 H 526.529 -2.81493 3.06433 0
M  V30 5501 H 525.405 -4.02822 3.72861 0
M  V30 5502 H 525.666 -3.94603 1.99351 0
M  V30 5503 N 524.725 -1.39134 -0.740242 0
M  V30 5504 C 525.635 -1.39697 -1.88473 0
M  V30 5505 C 526.651 -0.292403 -1.71526 0
M  V30 5506 O 527.827 -0.533021 -1.94219 0
M  V30 5507 C 524.892 -1.23382 -3.24003 0
M  V30 5508 C 523.953 -2.43763 -3.53381 0
M  V30 5509 C 523.186 -2.28216 -4.82445 0
M  V30 5510 O 523.409 -1.28288 -5.55786 0
M  V30 5511 O 522.343 -3.1709 -5.11603 0
M  V30 5512 H 526.169 -2.36159 -1.90952 0
M  V30 5513 H 523.754 -1.20194 -0.887346 0
M  V30 5514 H 525.636 -1.16395 -4.05006 0
M  V30 5515 H 524.311 -0.300121 -3.22306 0
M  V30 5516 H 523.218 -2.56325 -2.72485 0
M  V30 5517 H 524.551 -3.35808 -3.59852 0
M  V30 5518 N 526.204 0.969867 -1.24223 0
M  V30 5519 C 527.45 1.7151 -1.08223 0
M  V30 5520 C 527.783 1.90478 0.37838 0
M  V30 5521 O 527.058 1.4647 1.27971 0
M  V30 5522 C 527.341 3.10714 -1.82013 0
M  V30 5523 C 527.194 2.9925 -3.35811 0
M  V30 5524 C 528.513 4.10332 -1.59108 0
M  V30 5525 H 525.632 0.622499 -0.394543 0
M  V30 5526 H 528.274 1.1284 -1.52863 0
M  V30 5527 H 526.424 3.608 -1.44068 0
M  V30 5528 H 528.096 2.56608 -3.83341 0
M  V30 5529 H 526.339 2.35512 -3.64303 0
M  V30 5530 H 527.01 3.97857 -3.82641 0
M  V30 5531 H 529.486 3.69097 -1.92111 0
M  V30 5532 H 528.362 5.05804 -2.13198 0
M  V30 5533 H 528.623 4.38926 -0.528832 0
M  V30 5534 N 527.682 1.05563 1.17022 0
M  V30 5535 C 528.612 0.681026 2.23348 0
M  V30 5536 C 529.593 -0.322983 1.67005 0
M  V30 5537 O 530.778 -0.199746 1.9317 0
M  V30 5538 C 527.908 0.0589053 3.4725 0
M  V30 5539 C 526.862 0.988082 4.16438 0
M  V30 5540 C 526.188 0.229646 5.34207 0
M  V30 5541 C 527.488 2.31388 4.68249 0
M  V30 5542 H 529.182 1.56993 2.54938 0
M  V30 5543 H 526.728 0.756302 1.2254 0
M  V30 5544 H 528.681 -0.214982 4.20851 0
M  V30 5545 H 527.405 -0.864968 3.14938 0
M  V30 5546 H 526.064 1.24659 3.44754 0
M  V30 5547 H 525.712 -0.697111 4.98146 0
M  V30 5548 H 525.412 0.848815 5.81437 0
M  V30 5549 H 526.936 -0.0368694 6.10589 0
M  V30 5550 H 528.35 2.09964 5.33468 0
M  V30 5551 H 526.747 2.88736 5.26072 0
M  V30 5552 H 527.817 2.94982 3.84855 0
M  V30 5553 N 529.16 -1.33526 0.837174 0
M  V30 5554 C 530.07 -2.33023 0.271568 0
M  V30 5555 C 531.086 -1.63272 -0.601514 0
M  V30 5556 O 532.262 -1.94939 -0.506038 0
M  V30 5557 C 529.327 -3.42382 -0.545448 0
M  V30 5558 C 528.388 -4.27857 0.351709 0
M  V30 5559 C 527.621 -5.31994 -0.426409 0
M  V30 5560 O 527.844 -5.45763 -1.65828 0
M  V30 5561 O 526.778 -6.01572 0.1987 0
M  V30 5562 H 530.604 -2.83256 1.09545 0
M  V30 5563 H 528.189 -1.36837 0.599655 0
M  V30 5564 H 530.071 -4.09122 -1.00979 0
M  V30 5565 H 528.746 -2.94369 -1.34641 0
M  V30 5566 H 527.653 -3.6399 0.863853 0
M  V30 5567 H 528.986 -4.79349 1.1174 0
M  V30 5568 N 530.638 -0.59345 -1.46 0
M  V30 5569 C 531.585 0.133618 -2.30413 0
M  V30 5570 C 532.555 0.873736 -1.41262 0
M  V30 5571 O 533.74 0.862279 -1.70204 0
M  V30 5572 C 530.88 1.13434 -3.25924 0
M  V30 5573 C 529.993 0.39656 -4.30176 0
M  V30 5574 C 529.128 1.38575 -5.12806 0
M  V30 5575 C 528.167 0.634984 -6.08797 0
M  V30 5576 N 527.304 1.57276 -6.84258 0
M  V30 5577 H 532.144 -0.592252 -2.92055 0
M  V30 5578 H 529.681 -0.303874 -1.43927 0
M  V30 5579 H 531.639 1.72752 -3.79753 0
M  V30 5580 H 530.269 1.82779 -2.66067 0
M  V30 5581 H 529.321 -0.311861 -3.79119 0
M  V30 5582 H 530.633 -0.189869 -4.98438 0
M  V30 5583 H 529.787 2.05141 -5.70966 0
M  V30 5584 H 528.526 2.00611 -4.44529 0
M  V30 5585 H 527.531 -0.0443925 -5.49782 0
M  V30 5586 H 528.756 0.0198678 -6.79097 0
M  V30 5587 H 526.702 2.18103 -6.18682 0
M  V30 5588 H 526.619 1.03941 -7.48821 0
M  V30 5589 H 527.887 2.22844 -7.46968 0
M  V30 5590 N 532.116 1.54067 -0.331816 0
M  V30 5591 C 533.048 2.22139 0.564538 0
M  V30 5592 C 534.061 1.22408 1.07332 0
M  V30 5593 O 535.25 1.4883 0.985481 0
M  V30 5594 C 532.35 2.87876 1.78831 0
M  V30 5595 C 531.523 4.13817 1.41682 0
M  V30 5596 C 530.582 4.63072 2.49901 0
M  V30 5597 O 529.608 5.27562 2.13699 0
M  V30 5598 N 530.81 4.38001 3.80967 0
M  V30 5599 H 533.575 2.99694 -0.0183736 0
M  V30 5600 H 531.136 1.61153 -0.155396 0
M  V30 5601 H 533.128 3.17747 2.50637 0
M  V30 5602 H 531.698 2.13977 2.27887 0
M  V30 5603 H 530.918 3.9062 0.530044 0
M  V30 5604 H 532.206 4.95762 1.14443 0
M  V30 5605 H 531.604 3.864 4.13173 0
M  V30 5606 H 530.161 4.72507 4.48977 0
M  V30 5607 N 533.594 0.0601682 1.57485 0
M  V30 5608 C 535.01 -0.296422 1.56823 0
M  V30 5609 C 535.21 -1.70831 1.0686 0
M  V30 5610 O 534.266 -2.4174 0.729245 0
M  V30 5611 C 535.579 -0.116681 3.00474 0
M  V30 5612 C 537.127 -0.187103 3.1244 0
M  V30 5613 C 537.602 -0.035783 4.57986 0
M  V30 5614 N 539.093 -0.0917676 4.63109 0
M  V30 5615 C 539.828 0.00107251 5.734 0
M  V30 5616 N 539.324 0.146773 6.92645 0
M  V30 5617 N 541.117 -0.0551577 5.62073 0
M  V30 5618 H 533.268 0.983055 1.88281 0
M  V30 5619 H 535.531 0.382386 0.867459 0
M  V30 5620 H 535.237 0.85712 3.41096 0
M  V30 5621 H 535.111 -0.873929 3.66936 0
M  V30 5622 H 537.498 -1.15138 2.71712 0
M  V30 5623 H 537.579 0.601052 2.48638 0
M  V30 5624 H 537.223 0.925212 4.99402 0
M  V30 5625 H 537.153 -0.843196 5.19806 0
M  V30 5626 H 539.644 -0.203261 3.77353 0
M  V30 5627 H 539.957 0.210076 7.72514 0
M  V30 5628 H 538.302 0.181979 6.94762 0
M  V30 5629 H 541.493 -0.167605 4.678 0
M  V30 5630 H 541.666 0.020652 6.47997 0
M  V30 5631 N 535.072 -1.5615 -0.213296 0
M  V30 5632 C 536.349 -1.70349 -0.961281 0
M  V30 5633 C 536.729 -0.609791 -2.02101 0
M  V30 5634 O 536.077 0.381987 -2.25285 0
M  V30 5635 C 536.287 -3.11982 -1.56424 0
M  V30 5636 C 537.635 -3.71649 -2.05334 0
M  V30 5637 O 538.659 -3.14995 -1.66302 0
M  V30 5638 O 537.518 -4.71038 -2.77102 0
M  V30 5639 H 534.612 -0.694121 -0.449582 0
M  V30 5640 H 537.158 -1.68464 -0.204426 0
M  V30 5641 H 535.93 -3.83046 -0.799457 0
M  V30 5642 H 535.553 -3.18019 -2.38641 0
M  V30 5643 N 536.55 0.480323 -1.50102 0
M  V30 5644 C 537.48 1.58769 -1.71215 0
M  V30 5645 C 538.461 1.60583 -0.560997 0
M  V30 5646 O 539.646 1.76996 -0.799127 0
M  V30 5647 C 536.776 2.97148 -1.79778 0
M  V30 5648 C 535.73 3.10201 -2.94888 0
M  V30 5649 C 535.056 4.50137 -2.88584 0
M  V30 5650 C 536.356 2.88283 -4.35534 0
M  V30 5651 H 538.05 1.41354 -2.6393 0
M  V30 5652 H 535.596 0.678591 -1.27008 0
M  V30 5653 H 537.549 3.74536 -1.93133 0
M  V30 5654 H 536.273 3.15699 -0.836772 0
M  V30 5655 H 534.932 2.35244 -2.81169 0
M  V30 5656 H 534.58 4.65593 -1.90349 0
M  V30 5657 H 534.28 4.59808 -3.65856 0
M  V30 5658 H 535.804 5.29558 -3.03976 0
M  V30 5659 H 537.218 3.55427 -4.49827 0
M  V30 5660 H 535.615 3.09408 -5.14186 0
M  V30 5661 H 536.685 1.84219 -4.48544 0
M  V30 5662 N 538.028 1.39524 0.732853 0
M  V30 5663 C 539.258 1.3994 1.51988 0
M  V30 5664 C 539.666 -0.00727973 1.89199 0
M  V30 5665 O 539.009 -0.989521 1.54771 0
M  V30 5666 C 539.071 2.21026 2.83527 0
M  V30 5667 C 538.735 3.69633 2.68738 0
M  V30 5668 C 539.732 4.62665 2.37143 0
M  V30 5669 C 537.417 4.13244 2.85542 0
M  V30 5670 C 539.411 5.97291 2.22536 0
M  V30 5671 C 537.098 5.47945 2.70554 0
M  V30 5672 C 538.096 6.39783 2.39097 0
M  V30 5673 O 537.784 7.72002 2.24204 0
M  V30 5674 H 537.516 0.479795 0.476206 0
M  V30 5675 H 540.07 1.8399 0.913054 0
M  V30 5676 H 538.3 1.71728 3.46477 0
M  V30 5677 H 539.989 2.13594 3.45156 0
M  V30 5678 H 540.755 4.30272 2.2381 0
M  V30 5679 H 536.634 3.42094 3.09019 0
M  V30 5680 H 540.178 6.68939 1.97905 0
M  V30 5681 H 536.075 5.79928 2.83466 0
M  V30 5682 H 536.843 7.8275 2.39258 0
M  V30 5683 N 539.506 -0.963266 1.24736 0
M  V30 5684 C 540.754 -1.70343 1.08755 0
M  V30 5685 C 541.075 -1.91387 -0.373619 0
M  V30 5686 O 540.345 -1.4948 -1.2662 0
M  V30 5687 H 538.925 -0.631224 0.399456 0
M  V30 5688 H 541.587 -1.15859 1.56725 0
M  V30 5689 H 540.683 -2.68616 1.58909 0
M  V30 5690 N 540.985 -1.06182 -1.16461 0
M  V30 5691 C 542.215 -0.797425 -1.9059 0
M  V30 5692 C 542.623 0.651845 -1.77616 0
M  V30 5693 O 541.966 1.45788 -1.11766 0
M  V30 5694 C 542.028 -1.11128 -3.41893 0
M  V30 5695 C 541.692 -2.55874 -3.78652 0
M  V30 5696 C 542.689 -3.54104 -3.80665 0
M  V30 5697 C 540.374 -2.91144 -4.09317 0
M  V30 5698 C 542.368 -4.85645 -4.12829 0
M  V30 5699 C 540.055 -4.22885 -4.41148 0
M  V30 5700 C 541.053 -5.19945 -4.42883 0
M  V30 5701 O 540.741 -6.49322 -4.73959 0
M  V30 5702 H 540.473 -0.288709 -0.611247 0
M  V30 5703 H 543.027 -1.41841 -1.4856 0
M  V30 5704 H 541.257 -0.433217 -3.84266 0
M  V30 5705 H 542.946 -0.831306 -3.97296 0
M  V30 5706 H 543.712 -3.28197 -3.57088 0
M  V30 5707 H 539.591 -2.16252 -4.07131 0
M  V30 5708 H 543.135 -5.61398 -4.14099 0
M  V30 5709 H 539.032 -4.48551 -4.6419 0
M  V30 5710 H 539.8 -6.54294 -4.91774 0
M  V30 5711 N 542.463 1.3308 -0.844243 0
M  V30 5712 C 543.393 2.3161 -0.296493 0
M  V30 5713 C 544.374 1.59215 0.598707 0
M  V30 5714 O 545.559 1.87077 0.521134 0
M  V30 5715 C 542.689 3.43313 0.524762 0
M  V30 5716 C 541.643 4.27115 -0.275106 0
M  V30 5717 C 540.969 5.30483 0.670236 0
M  V30 5718 C 542.269 5.00443 -1.49514 0
M  V30 5719 H 543.963 2.77672 -1.11976 0
M  V30 5720 H 541.509 1.33496 -0.539899 0
M  V30 5721 H 543.462 4.11273 0.918298 0
M  V30 5722 H 542.186 2.95952 1.3813 0
M  V30 5723 H 540.845 3.60787 -0.650267 0
M  V30 5724 H 540.493 4.79379 1.52332 0
M  V30 5725 H 540.193 5.87435 0.139123 0
M  V30 5726 H 541.717 6.01308 1.06117 0
M  V30 5727 H 543.131 5.61141 -1.17447 0
M  V30 5728 H 541.528 5.67071 -1.96343 0
M  V30 5729 H 542.598 4.28906 -2.26202 0
M  V30 5730 N 543.941 0.601185 1.45683 0
M  V30 5731 C 544.891 -0.142686 2.27553 0
M  V30 5732 C 545.875 -0.844598 1.3695 0
M  V30 5733 O 547.067 -0.735644 1.60988 0
M  V30 5734 C 544.196 -1.14364 3.23691 0
M  V30 5735 C 543.282 -0.442894 4.21781 0
M  V30 5736 N 543.673 0.51189 5.03203 0
M  V30 5737 C 541.971 -0.691277 4.4061 0
M  V30 5738 C 542.672 0.92318 5.74328 0
M  V30 5739 N 541.648 0.268308 5.42937 0
M  V30 5740 H 545.45 0.590736 2.87902 0
M  V30 5741 H 542.964 0.424365 1.56757 0
M  V30 5742 H 544.961 -1.6909 3.8107 0
M  V30 5743 H 543.621 -1.87768 2.64902 0
M  V30 5744 H 544.632 0.888329 5.10225 0
M  V30 5745 H 541.309 -1.41049 3.92952 0
M  V30 5746 H 542.699 1.71029 6.49768 0
M  V30 5747 N 545.419 -1.53889 0.339982 0
M  V30 5748 C 546.696 -1.93084 -0.312719 0
M  V30 5749 C 547.076 -1.2712 -1.68534 0
M  V30 5750 O 546.424 -0.420835 -2.24591 0
M  V30 5751 C 546.634 -3.4683 -0.388558 0
M  V30 5752 C 547.982 -4.19732 -0.641088 0
M  V30 5753 O 549.006 -3.53075 -0.470818 0
M  V30 5754 O 547.865 -5.3781 -0.970685 0
M  V30 5755 H 544.959 -0.806784 -0.18174 0
M  V30 5756 H 547.505 -1.65137 0.390898 0
M  V30 5757 H 546.277 -3.87055 0.574821 0
M  V30 5758 H 545.9 -3.80933 -1.1391 0
M  V30 5759 N 546.897 -0.0685191 -1.57451 0
M  V30 5760 C 547.829 0.929372 -2.09512 0
M  V30 5761 C 548.842 1.26354 -1.02657 0
M  V30 5762 O 550.031 1.2213 -1.30179 0
M  V30 5763 C 547.131 2.24612 -2.53777 0
M  V30 5764 C 546.304 2.09128 -3.84167 0
M  V30 5765 C 545.363 3.24079 -4.14559 0
M  V30 5766 O 544.389 2.99215 -4.8421 0
M  V30 5767 N 545.591 4.49077 -3.67845 0
M  V30 5768 H 548.356 0.484901 -2.95751 0
M  V30 5769 H 545.917 0.11729 -1.61475 0
M  V30 5770 H 547.909 3.00412 -2.71172 0
M  V30 5771 H 546.479 2.60569 -1.72692 0
M  V30 5772 H 545.699 1.17815 -3.76182 0
M  V30 5773 H 546.987 1.9603 -4.69521 0
M  V30 5774 H 546.385 4.72165 -3.11571 0
M  V30 5775 H 544.942 5.21915 -3.90446 0
M  V30 5776 N 548.375 1.56261 0.205012 0
M  V30 5777 C 549.603 1.84141 0.943386 0
M  V30 5778 C 550.018 0.649772 1.77266 0
M  V30 5779 O 549.375 -0.381612 1.78466 0
M  V30 5780 C 549.426 3.10719 1.84759 0
M  V30 5781 O 549.147 4.25286 1.05181 0
M  V30 5782 C 550.648 3.51706 2.69848 0
M  V30 5783 H 547.868 0.611734 0.275721 0
M  V30 5784 H 550.412 2.03364 0.215253 0
M  V30 5785 H 548.567 2.93422 2.52947 0
M  V30 5786 H 548.981 4.97301 1.66709 0
M  V30 5787 H 550.455 4.43266 3.28967 0
M  V30 5788 H 550.932 2.7423 3.43067 0
M  V30 5789 H 551.538 3.71499 2.07047 0
M  V30 5790 N 549.853 -0.472356 1.50355 0
M  V30 5791 C 550.783 -1.57859 1.72055 0
M  V30 5792 C 551.764 -1.60283 0.569505 0
M  V30 5793 O 552.949 -1.7657 0.808503 0
M  V30 5794 C 550.079 -2.96191 1.81351 0
M  V30 5795 C 549.033 -3.08633 2.96529 0
M  V30 5796 C 548.359 -4.486 2.90968 0
M  V30 5797 C 549.659 -2.85969 4.37057 0
M  V30 5798 H 551.353 -1.39953 2.64676 0
M  V30 5799 H 548.899 -0.671846 1.27367 0
M  V30 5800 H 550.852 -3.73507 1.95117 0
M  V30 5801 H 549.576 -3.15251 0.853502 0
M  V30 5802 H 548.235 -2.33749 2.82413 0
M  V30 5803 H 547.883 -4.64577 1.92815 0
M  V30 5804 H 547.583 -4.57861 3.68289 0
M  V30 5805 H 549.107 -5.27938 3.0678 0
M  V30 5806 H 550.521 -3.53036 4.51706 0
M  V30 5807 H 548.918 -3.06677 5.15819 0
M  V30 5808 H 549.988 -1.81838 4.49514 0
M  V30 5809 N 551.331 -1.39911 -0.725443 0
M  V30 5810 C 552.281 -1.35878 -1.83088 0
M  V30 5811 C 553.265 -0.237989 -1.5913 0
M  V30 5812 O 554.457 -0.476302 -1.70471 0
M  V30 5813 C 551.586 -1.21403 -3.21117 0
M  V30 5814 C 550.672 -2.38223 -3.50871 0
M  V30 5815 N 551.063 -3.63703 -3.51502 0
M  V30 5816 C 549.361 -2.31388 -3.81281 0
M  V30 5817 C 550.062 -4.4101 -3.79322 0
M  V30 5818 N 549.038 -3.7072 -3.97577 0
M  V30 5819 H 552.84 -2.3085 -1.81895 0
M  V30 5820 H 550.354 -1.33543 -0.924125 0
M  V30 5821 H 552.351 -1.16597 -4.00263 0
M  V30 5822 H 551.011 -0.273902 -3.23543 0
M  V30 5823 H 552.022 -3.96998 -3.32586 0
M  V30 5824 H 548.699 -1.45689 -3.91256 0
M  V30 5825 H 550.089 -5.49819 -3.86198 0
M  V30 5826 N 552.809 0.956637 -1.25245 0
M  V30 5827 C 553.739 2.07058 -1.07931 0
M  V30 5828 C 554.72 1.70096 0.0110361 0
M  V30 5829 O 555.905 1.93555 -0.158121 0
M  V30 5830 C 553.035 3.40272 -0.695124 0
M  V30 5831 C 551.989 3.91235 -1.73549 0
M  V30 5832 C 551.315 5.20921 -1.20604 0
M  V30 5833 C 552.615 4.17837 -3.13385 0
M  V30 5834 H 554.309 2.218 -2.01109 0
M  V30 5835 H 551.855 1.06581 -0.968326 0
M  V30 5836 H 553.808 4.1765 -0.560949 0
M  V30 5837 H 552.532 3.25462 0.272355 0
M  V30 5838 H 551.191 3.16025 -1.85807 0
M  V30 5839 H 550.839 5.02479 -0.228846 0
M  V30 5840 H 550.539 5.55987 -1.90136 0
M  V30 5841 H 552.063 6.00897 -1.08421 0
M  V30 5842 H 553.477 4.8588 -3.04292 0
M  V30 5843 H 551.874 4.64154 -3.80369 0
M  V30 5844 H 552.944 3.2419 -3.60595 0
M  V30 5845 N 554.287 1.06798 1.15896 0
M  V30 5846 C 555.25 0.687328 2.18651 0
M  V30 5847 C 556.25 -0.269559 1.58524 0
M  V30 5848 O 557.44 -0.0512627 1.74125 0
M  V30 5849 C 554.572 0.0121642 3.40898 0
M  V30 5850 H 555.765 1.59701 2.53842 0
M  V30 5851 H 553.318 0.863828 1.3026 0
M  V30 5852 H 554.053 -0.910025 3.1127 0
M  V30 5853 H 553.838 0.700309 3.85795 0
M  V30 5854 H 555.328 -0.239703 4.16911 0
M  V30 5855 N 555.766 -1.3263 0.851289 0
M  V30 5856 C 556.714 -2.30882 0.282202 0
M  V30 5857 C 557.708 -1.58697 -0.592589 0
M  V30 5858 O 558.914 -1.73461 -0.480768 0
M  V30 5859 H 555.289 -0.748492 0.0725487 0
M  V30 5860 H 557.26 -2.76374 1.12516 0
M  V30 5861 C 556.009 -3.43828 -0.517449 0
M  V30 5862 H 555.332 -3.99532 0.146392 0
M  V30 5863 H 556.772 -4.1474 -0.88128 0
M  V30 5864 C 555.231 -2.90786 -1.70133 0
M  V30 5865 O 555.761 -2.88 -2.80034 0
M  V30 5866 N 553.967 -2.4723 -1.52728 0
M  V30 5867 H 553.514 -2.49695 -0.633257 0
M  V30 5868 H 553.472 -2.12094 -2.32085 0
M  V30 5869 N 557.244 -0.608902 -1.45362 0
M  V30 5870 C 558.176 0.147318 -2.28726 0
M  V30 5871 C 559.189 0.830468 -1.40025 0
M  V30 5872 O 560.378 0.695636 -1.64387 0
M  V30 5873 C 557.478 1.22968 -3.15804 0
M  V30 5874 C 556.651 0.633391 -4.3279 0
M  V30 5875 C 555.71 1.60682 -5.01067 0
M  V30 5876 O 554.736 1.13261 -5.57818 0
M  V30 5877 N 555.938 2.94123 -5.00472 0
M  V30 5878 H 558.703 -0.568014 -2.94268 0
M  V30 5879 H 556.264 -0.448479 -1.55564 0
M  V30 5880 H 558.256 1.88072 -3.58345 0
M  V30 5881 H 556.826 1.84752 -2.52162 0
M  V30 5882 H 556.046 -0.195762 -3.93714 0
M  V30 5883 H 557.334 0.215255 -5.08344 0
M  V30 5884 H 556.732 3.3525 -4.55657 0
M  V30 5885 H 555.289 3.54646 -5.46872 0
M  V30 5886 N 558.722 1.53707 -0.348139 0
M  V30 5887 C 559.97 2.00591 0.246478 0
M  V30 5888 C 560.291 1.23753 1.50699 0
M  V30 5889 O 559.561 0.345964 1.92821 0
M  V30 5890 H 558.141 0.741053 0.0940679 0
M  V30 5891 H 560.803 1.89139 -0.470354 0
M  V30 5892 H 559.899 3.08297 0.485714 0
M  V30 5893 N 560.2 0.0768682 1.57412 0
M  V30 5894 C 561.446 -0.591961 1.93968 0
M  V30 5895 C 561.779 -1.68954 0.9575 0
M  V30 5896 O 561.054 -1.94496 -0.0124675 0
M  V30 5897 C 561.337 -1.16418 3.40762 0
M  V30 5898 C 561.19 -0.0728933 4.49741 0
M  V30 5899 C 562.509 -2.06814 3.88479 0
M  V30 5900 H 559.628 -0.213716 0.705333 0
M  V30 5901 H 562.27 0.14387 1.89455 0
M  V30 5902 H 560.42 -1.79128 3.4474 0
M  V30 5903 H 562.092 0.560446 4.57883 0
M  V30 5904 H 560.335 0.595859 4.29688 0
M  V30 5905 H 561.006 -0.513755 5.49604 0
M  V30 5906 H 563.482 -1.54033 3.8654 0
M  V30 5907 H 562.358 -2.43785 4.91793 0
M  V30 5908 H 562.619 -2.97844 3.26713 0
M  V30 5909 N 561.678 -1.56367 -0.196722 0
M  V30 5910 C 562.906 -1.84639 -0.933608 0
M  V30 5911 C 563.321 -0.659164 -1.76919 0
M  V30 5912 O 562.678 0.372142 -1.78665 0
M  V30 5913 C 562.729 -3.11694 -1.83109 0
M  V30 5914 O 562.45 -4.25838 -1.02924 0
M  V30 5915 C 563.951 -3.53132 -2.67979 0
M  V30 5916 H 561.171 -0.613188 -0.272473 0
M  V30 5917 H 563.715 -2.03475 -0.204465 0
M  V30 5918 H 561.87 -2.94759 -2.51387 0
M  V30 5919 H 562.284 -4.98178 -1.64069 0
M  V30 5920 H 563.758 -4.45005 -3.26611 0
M  V30 5921 H 564.235 -2.76045 -3.41608 0
M  V30 5922 H 564.841 -3.72592 -2.05074 0
M  V30 5923 N 563.156 0.464375 -1.50603 0
M  V30 5924 C 564.405 1.21277 -1.61167 0
M  V30 5925 C 564.718 1.92953 -0.320704 0
M  V30 5926 O 565.924 2.69778 -0.30534 0
M  V30 5927 C 564.38 2.20403 -2.84518 0
M  V30 5928 C 563.988 1.54499 -4.20516 0
M  V30 5929 C 565.732 2.95843 -3.0443 0
M  V30 5930 C 563.639 2.51951 -5.35047 0
M  V30 5931 H 562.569 0.456367 -0.600204 0
M  V30 5932 H 565.22 0.48254 -1.77042 0
M  V30 5933 H 563.602 2.96746 -2.62217 0
M  V30 5934 H 564.776 0.83899 -4.53098 0
M  V30 5935 H 563.091 0.913152 -4.06264 0
M  V30 5936 H 565.688 3.6879 -3.87167 0
M  V30 5937 H 566.031 3.55622 -2.16423 0
M  V30 5938 H 566.564 2.26611 -3.26944 0
M  V30 5939 H 563.303 1.96901 -6.25228 0
M  V30 5940 H 562.823 3.20683 -5.06875 0
M  V30 5941 H 564.502 3.13643 -5.65895 0
M  V30 5942 N 564.634 1.40294 0.718013 0
M  V30 5943 C 565.882 1.38167 1.47494 0
M  V30 5944 C 566.203 -0.01607 1.94993 0
M  V30 5945 O 565.473 -0.970396 1.70177 0
M  V30 5946 H 564.053 0.508505 0.547203 0
M  V30 5947 H 566.715 1.75324 0.851322 0
M  V30 5948 H 565.811 2.05503 2.34894 0
M  V30 5949 N 566.112 -0.949982 1.2575 0
M  V30 5950 C 567.044 -2.05088 1.02331 0
M  V30 5951 C 568.057 -1.62795 -0.0133247 0
M  V30 5952 O 569.246 -1.77067 0.225759 0
M  V30 5953 C 566.346 -3.34794 0.525924 0
M  V30 5954 C 565.519 -4.05903 1.62978 0
M  V30 5955 C 564.578 -5.1388 1.13196 0
M  V30 5956 O 563.604 -5.39072 1.82729 0
M  V30 5957 N 564.806 -5.80495 -0.0242926 0
M  V30 5958 H 567.571 -2.25747 1.97125 0
M  V30 5959 H 565.132 -1.11886 1.17018 0
M  V30 5960 H 567.124 -4.04312 0.177263 0
M  V30 5961 H 565.694 -3.10872 -0.328202 0
M  V30 5962 H 564.914 -3.3042 2.1498 0
M  V30 5963 H 566.202 -4.50166 2.37124 0
M  V30 5964 H 565.6 -5.62454 -0.605184 0
M  V30 5965 H 564.157 -6.51043 -0.313947 0
M  V30 5966 N 567.59 -1.07411 -1.15328 0
M  V30 5967 C 568.836 -0.798831 -1.86404 0
M  V30 5968 C 569.169 0.673433 -1.8215 0
M  V30 5969 O 568.444 1.49428 -1.24505 0
M  V30 5970 C 568.727 -1.30846 -3.35487 0
M  V30 5971 C 568.58 -2.84532 -3.4837 0
M  V30 5972 C 569.899 -0.925486 -4.30259 0
M  V30 5973 H 567.018 -0.291659 -0.676834 0
M  V30 5974 H 569.66 -1.332 -1.35491 0
M  V30 5975 H 567.81 -0.854916 -3.78977 0
M  V30 5976 H 569.482 -3.3818 -3.13739 0
M  V30 5977 H 567.725 -3.22699 -2.8991 0
M  V30 5978 H 568.396 -3.15259 -4.53118 0
M  V30 5979 H 570.872 -1.3163 -3.94731 0
M  V30 5980 H 569.748 -1.3094 -5.33053 0
M  V30 5981 H 570.009 0.168525 -4.41779 0
M  V30 5982 N 569.068 1.32177 -0.85831 0
M  V30 5983 C 570.018 2.26307 -0.277307 0
M  V30 5984 C 571.002 1.50123 0.578946 0
M  V30 5985 O 572.194 1.71754 0.427731 0
M  V30 5986 C 569.323 3.39181 0.530232 0
M  V30 5987 C 568.409 4.22746 -0.338613 0
M  V30 5988 N 568.8 4.85265 -1.4266 0
M  V30 5989 C 567.098 4.45813 -0.129 0
M  V30 5990 C 567.799 5.47634 -1.96142 0
M  V30 5991 N 566.775 5.28794 -1.26007 0
M  V30 5992 H 570.577 2.72173 -1.10902 0
M  V30 5993 H 568.091 1.46308 -0.704816 0
M  V30 5994 H 570.088 4.05628 0.962904 0
M  V30 5995 H 568.748 2.9486 1.35969 0
M  V30 5996 H 569.759 4.85259 -1.80953 0
M  V30 5997 H 566.436 4.12163 0.665451 0
M  V30 5998 H 567.826 6.0735 -2.8736 0
M  V30 5999 N 570.547 0.616602 1.45037 0
M  V30 6000 C 571.495 -0.109318 2.32343 0
M  V30 6001 C 572.489 -0.850543 1.465 0
M  V30 6002 O 573.695 -0.765088 1.62931 0
M  V30 6003 H 570.07 -0.0541091 0.750051 0
M  V30 6004 H 572.041 0.645326 2.91338 0
M  V30 6005 C 570.79 -1.0872 3.30266 0
M  V30 6006 H 570.113 -0.526267 3.96321 0
M  V30 6007 H 571.553 -1.56489 3.94065 0
M  V30 6008 C 570.012 -2.16525 2.58105 0
M  V30 6009 O 570.542 -3.244 2.36913 0
M  V30 6010 N 568.748 -1.92057 2.18088 0
M  V30 6011 H 568.295 -1.04337 2.35524 0
M  V30 6012 H 568.253 -2.64391 1.70131 0
M  V30 6013 N 572.025 -1.5352 0.356285 0
M  V30 6014 C 573.441 -1.59599 0.00485267 0
M  V30 6015 C 573.641 -1.37179 -1.47595 0
M  V30 6016 O 572.697 -1.17234 -2.23635 0
M  V30 6017 C 574.01 -2.97277 0.452454 0
M  V30 6018 C 575.558 -3.10357 0.405881 0
M  V30 6019 C 576.033 -4.50432 0.829148 0
M  V30 6020 N 577.524 -4.5652 0.783838 0
M  V30 6021 C 578.259 -5.63077 1.08315 0
M  V30 6022 N 577.755 -6.77429 1.45126 0
M  V30 6023 N 579.548 -5.53014 1.00655 0
M  V30 6024 H 571.699 -1.66346 1.32071 0
M  V30 6025 H 573.962 -0.77971 0.539218 0
M  V30 6026 H 573.668 -3.18792 1.48542 0
M  V30 6027 H 573.542 -3.76836 -0.165762 0
M  V30 6028 H 575.929 -2.88558 -0.617934 0
M  V30 6029 H 576.01 -2.32828 1.05947 0
M  V30 6030 H 575.654 -4.72968 1.85103 0
M  V30 6031 H 575.584 -5.26378 0.152906 0
M  V30 6032 H 578.075 -3.74408 0.512513 0
M  V30 6033 H 578.388 -7.54669 1.66415 0
M  V30 6034 H 576.733 -6.78844 1.48983 0
M  V30 6035 H 579.924 -4.62557 0.718215 0
M  V30 6036 H 580.097 -6.35964 1.24315 0
M  V30 6037 N 573.503 -0.0852151 -1.57369 0
M  V30 6038 C 574.433 0.874556 -2.16503 0
M  V30 6039 C 575.414 1.30111 -1.09568 0
M  V30 6040 O 576.599 1.36977 -1.37662 0
M  V30 6041 C 573.729 2.13731 -2.73745 0
M  V30 6042 C 572.683 1.84971 -3.85966 0
M  V30 6043 C 572.009 3.17991 -4.29867 0
M  V30 6044 C 573.309 1.14442 -5.09608 0
M  V30 6045 H 575.003 0.381899 -2.96954 0
M  V30 6046 H 572.549 0.18225 -1.42842 0
M  V30 6047 H 574.502 2.81302 -3.13763 0
M  V30 6048 H 573.226 2.65263 -1.90534 0
M  V30 6049 H 571.885 1.19801 -3.46473 0
M  V30 6050 H 571.533 3.6739 -3.4356 0
M  V30 6051 H 571.233 2.99534 -5.05523 0
M  V30 6052 H 572.757 3.86737 -4.72511 0
M  V30 6053 H 574.171 1.72105 -5.46857 0
M  V30 6054 H 572.568 1.06197 -5.90629 0
M  V30 6055 H 573.638 0.12559 -4.84737 0
M  V30 6056 N 574.981 1.5647 0.188427 0
M  V30 6057 C 576.397 1.50204 0.539532 0
M  V30 6058 C 576.597 0.78644 1.85519 0
M  V30 6059 O 575.653 0.339714 2.50204 0
M  V30 6060 C 576.966 2.94893 0.588103 0
M  V30 6061 C 578.514 3.05602 0.67648 0
M  V30 6062 C 578.989 4.51716 0.756101 0
M  V30 6063 N 580.48 4.55894 0.819451 0
M  V30 6064 C 581.215 5.66272 0.90134 0
M  V30 6065 N 580.711 6.86323 0.945118 0
M  V30 6066 N 582.504 5.54201 0.939043 0
M  V30 6067 H 574.655 2.01406 -0.674493 0
M  V30 6068 H 576.918 0.916828 -0.241103 0
M  V30 6069 H 576.624 3.50334 -0.309633 0
M  V30 6070 H 576.498 3.4861 1.44051 0
M  V30 6071 H 578.885 2.50206 1.56465 0
M  V30 6072 H 578.966 2.54999 -0.202262 0
M  V30 6073 H 578.61 5.07739 -0.12774 0
M  V30 6074 H 578.54 5.00058 1.65074 0
M  V30 6075 H 581.031 3.69452 0.794594 0
M  V30 6076 H 581.344 7.66194 1.0083 0
M  V30 6077 H 579.689 6.88968 0.913683 0
M  V30 6078 H 582.88 4.59333 0.901725 0
M  V30 6079 H 583.053 6.40247 0.999402 0
M  V30 6080 N 576.459 -0.456382 1.50847 0
M  V30 6081 C 577.389 -1.56025 1.73719 0
M  V30 6082 C 578.37 -1.5967 0.586473 0
M  V30 6083 O 579.555 -1.75702 0.827185 0
M  V30 6084 C 576.685 -2.94251 1.84483 0
M  V30 6085 C 575.639 -3.05471 2.99786 0
M  V30 6086 C 574.965 -4.45489 2.95709 0
M  V30 6087 C 576.265 -2.81318 4.40065 0
M  V30 6088 H 577.959 -1.37138 2.66146 0
M  V30 6089 H 575.505 -0.658299 1.28072 0
M  V30 6090 H 577.458 -3.71417 1.99067 0
M  V30 6091 H 576.182 -3.14328 0.886891 0
M  V30 6092 H 574.841 -2.30741 2.84876 0
M  V30 6093 H 574.489 -4.62505 1.97732 0
M  V30 6094 H 574.189 -4.53929 3.73125 0
M  V30 6095 H 575.713 -5.24655 3.12362 0
M  V30 6096 H 577.127 -3.48226 4.55425 0
M  V30 6097 H 575.524 -3.01188 5.19043 0
M  V30 6098 H 576.594 -1.7706 4.51418 0
M  V30 6099 N 577.937 -1.40673 -0.710563 0
M  V30 6100 C 579.348 -1.34975 -1.28991 0
M  V30 6101 C 579.699 -0.0256272 -1.96183 0
M  V30 6102 O 578.824 0.876339 -1.97862 0
M  V30 6103 C 579.419 -2.44467 -2.34567 0
M  V30 6104 C 577.978 -2.42213 -2.88114 0
M  V30 6105 C 577.125 -2.25085 -1.61963 0
M  V30 6106 H 580.076 -1.50406 -0.506343 0
M  V30 6107 H 580.097 -2.12663 -3.15523 0
M  V30 6108 H 579.609 -3.40825 -1.85634 0
M  V30 6109 H 577.71 -1.49568 -3.41263 0
M  V30 6110 H 577.823 -3.37983 -3.39565 0
M  V30 6111 H 576.187 -1.72691 -1.87216 0
M  V30 6112 H 576.97 -3.23449 -1.15047 0
M  V30 6113 N 579.415 0.9433 -1.26252 0
M  V30 6114 C 580.826 1.50404 -1.10614 0
M  V30 6115 C 581.177 1.93666 0.31429 0
M  V30 6116 O 580.302 1.79709 1.20555 0
M  V30 6117 C 580.897 2.73336 -2.00182 0
M  V30 6118 C 579.456 3.25686 -1.88695 0
M  V30 6119 C 578.603 1.98474 -1.93658 0
M  V30 6120 H 581.554 0.759006 -1.39373 0
M  V30 6121 H 581.575 3.47567 -1.54847 0
M  V30 6122 H 581.087 2.41818 -3.03555 0
M  V30 6123 H 579.188 3.61998 -0.882489 0
M  V30 6124 H 579.301 3.92935 -2.74115 0
M  V30 6125 H 577.665 2.14278 -1.37684 0
M  V30 6126 H 578.448 1.6929 -2.98657 0
M  V30 6127 N 580.893 1.08022 1.14757 0
M  V30 6128 C 582.118 0.82895 1.90114 0
M  V30 6129 C 582.543 -0.612772 1.77839 0
M  V30 6130 O 581.901 -1.42895 1.11583 0
M  V30 6131 C 581.949 1.25062 3.38219 0
M  V30 6132 O 581.053 0.400119 4.10454 0
M  V30 6133 H 580.394 0.301412 0.591648 0
M  V30 6134 H 582.924 1.44062 1.45284 0
M  V30 6135 H 582.934 1.22977 3.89025 0
M  V30 6136 H 581.609 2.30067 3.46471 0
M  V30 6137 H 580.186 0.484052 3.69745 0
M  V30 6138 N 582.371 -1.3172 0.865308 0
M  V30 6139 C 583.301 -2.31109 0.333302 0
M  V30 6140 C 584.282 -1.60148 -0.573301 0
M  V30 6141 O 585.467 -1.87882 -0.491305 0
M  V30 6142 C 582.597 -3.44104 -0.470078 0
M  V30 6143 C 581.551 -4.26623 0.343021 0
M  V30 6144 C 580.877 -5.31482 -0.585756 0
M  V30 6145 C 582.177 -4.98001 1.57456 0
M  V30 6146 H 583.871 -2.75855 1.1638 0
M  V30 6147 H 581.417 -1.3262 0.561069 0
M  V30 6148 H 583.37 -4.12682 -0.852752 0
M  V30 6149 H 582.094 -2.98112 -1.33404 0
M  V30 6150 H 580.753 -3.59707 0.707583 0
M  V30 6151 H 580.401 -4.81741 -1.44686 0
M  V30 6152 H 580.101 -5.87582 -0.0456494 0
M  V30 6153 H 581.625 -6.0292 -0.965375 0
M  V30 6154 H 583.039 -5.59201 1.26359 0
M  V30 6155 H 581.436 -5.63876 2.05339 0
M  V30 6156 H 582.506 -4.25253 2.32997 0
M  V30 6157 N 583.85 -0.624285 -1.44708 0
M  V30 6158 C 585.127 -0.0572781 -1.95516 0
M  V30 6159 C 585.507 1.41516 -1.56641 0
M  V30 6160 O 584.855 2.12614 -0.837111 0
M  V30 6161 C 585.065 -0.272944 -3.47931 0
M  V30 6162 C 586.413 -0.162529 -4.24289 0
M  V30 6163 O 587.437 -0.203946 -3.55616 0
M  V30 6164 O 586.296 -0.0616847 -5.46465 0
M  V30 6165 H 583.389 0.0262219 -0.826584 0
M  V30 6166 H 585.936 -0.695512 -1.54793 0
M  V30 6167 H 584.707 -1.29492 -3.69253 0
M  V30 6168 H 584.331 0.399756 -3.95585 0
M  V30 6169 N 585.328 1.53329 -0.364422 0
M  V30 6170 C 586.26 2.23286 0.517293 0
M  V30 6171 C 587.273 1.24657 1.04711 0
M  V30 6172 O 588.462 1.50887 0.95369 0
M  V30 6173 C 585.562 2.91604 1.72685 0
M  V30 6174 C 584.735 4.1673 1.32873 0
M  V30 6175 C 583.794 4.68269 2.40022 0
M  V30 6176 O 582.82 5.31976 2.02461 0
M  V30 6177 N 584.022 4.45983 3.7159 0
M  V30 6178 H 586.787 2.99588 -0.0819391 0
M  V30 6179 H 584.348 1.60787 -0.189544 0
M  V30 6180 H 586.34 3.22992 2.4384 0
M  V30 6181 H 584.91 2.18763 2.23297 0
M  V30 6182 H 584.13 3.91657 0.447069 0
M  V30 6183 H 585.418 4.98078 1.03902 0
M  V30 6184 H 584.816 3.95077 4.04883 0
M  V30 6185 H 583.373 4.81924 4.38854 0
M  V30 6186 N 586.806 0.0935595 1.57322 0
M  V30 6187 C 587.716 -0.880192 2.17462 0
M  V30 6188 C 588.732 -1.31135 1.14366 0
M  V30 6189 O 589.908 -1.37958 1.46729 0
M  V30 6190 C 586.973 -2.12184 2.74188 0
M  V30 6191 C 586.034 -1.74503 3.92234 0
M  V30 6192 C 585.267 -2.92748 4.46245 0
M  V30 6193 O 585.49 -4.07427 3.99198 0
M  V30 6194 O 584.424 -2.71303 5.37288 0
M  V30 6195 H 588.25 -0.398516 3.01074 0
M  V30 6196 H 585.835 -0.130707 1.48827 0
M  V30 6197 H 587.717 -2.84953 3.10451 0
M  V30 6198 H 586.392 -2.59407 1.93623 0
M  V30 6199 H 585.299 -0.989186 3.60785 0
M  V30 6200 H 586.632 -1.32044 4.74157 0
M  V30 6201 N 588.284 -1.56567 -0.180126 0
M  V30 6202 C 589.53 -1.82658 -0.894859 0
M  V30 6203 C 589.885 -0.672826 -1.80252 0
M  V30 6204 O 589.178 0.331227 -1.88715 0
M  V30 6205 C 589.372 -3.1252 -1.73395 0
M  V30 6206 C 589.201 -4.40417 -0.909028 0
M  V30 6207 C 587.971 -5.01872 -0.587562 0
M  V30 6208 C 590.169 -5.13669 -0.254698 0
M  V30 6209 N 588.151 -6.13373 0.254428 0
M  V30 6210 C 589.522 -6.18373 0.448837 0
M  V30 6211 C 591.577 -4.97603 -0.171958 0
M  V30 6212 C 590.28 -7.08753 1.22725 0
M  V30 6213 C 592.306 -5.88418 0.593101 0
M  V30 6214 C 591.668 -6.92579 1.28503 0
M  V30 6215 H 587.767 -0.719493 -0.306356 0
M  V30 6216 H 590.351 -1.94021 -0.16247 0
M  V30 6217 H 588.522 -3.02365 -2.43783 0
M  V30 6218 H 590.254 -3.2664 -2.38931 0
M  V30 6219 H 587.009 -4.64666 -0.915557 0
M  V30 6220 H 587.433 -6.73721 0.665474 0
M  V30 6221 H 592.075 -4.17089 -0.692555 0
M  V30 6222 H 589.793 -7.88718 1.75923 0
M  V30 6223 H 593.379 -5.78059 0.658674 0
M  V30 6224 H 592.259 -7.61638 1.86754 0
M  V30 6225 N 589.762 0.448376 -1.51087 0
M  V30 6226 C 590.992 1.21965 -1.66757 0
M  V30 6227 C 591.4 1.85748 -0.359753 0
M  V30 6228 O 590.743 1.71022 0.670604 0
M  V30 6229 C 590.805 2.35284 -2.71812 0
M  V30 6230 C 590.469 1.91957 -4.1473 0
M  V30 6231 C 591.466 1.42921 -4.9987 0
M  V30 6232 C 589.151 1.99985 -4.60772 0
M  V30 6233 C 591.145 1.02485 -6.29107 0
M  V30 6234 C 588.832 1.5916 -5.90009 0
M  V30 6235 C 589.83 1.10491 -6.74004 0
M  V30 6236 O 589.518 0.702413 -8.00825 0
M  V30 6237 H 589.25 0.374125 -0.563034 0
M  V30 6238 H 591.804 0.538927 -1.98204 0
M  V30 6239 H 590.034 3.06599 -2.35657 0
M  V30 6240 H 591.723 2.97184 -2.76472 0
M  V30 6241 H 592.489 1.36123 -4.65506 0
M  V30 6242 H 588.368 2.36814 -3.95525 0
M  V30 6243 H 591.912 0.644271 -6.94619 0
M  V30 6244 H 587.809 1.65626 -6.2389 0
M  V30 6245 H 588.577 0.829248 -8.14288 0
M  V30 6246 N 591.24 1.41047 0.703093 0
M  V30 6247 C 592.517 1.30493 1.45708 0
M  V30 6248 C 592.897 -0.0709892 2.10981 0
M  V30 6249 O 592.245 -1.08471 2.01113 0
M  V30 6250 C 592.455 2.45287 2.48265 0
M  V30 6251 C 593.803 2.86104 3.13735 0
M  V30 6252 O 594.827 2.44971 2.58587 0
M  V30 6253 O 593.686 3.57206 4.13601 0
M  V30 6254 H 590.78 0.513144 0.648546 0
M  V30 6255 H 593.326 1.52995 0.734208 0
M  V30 6256 H 592.098 3.37135 1.98635 0
M  V30 6257 H 591.721 2.24622 3.28071 0
M  V30 6258 N 592.718 -0.936591 1.26751 0
M  V30 6259 C 594.134 -1.21095 1.03963 0
M  V30 6260 C 594.334 -2.00156 -0.232372 0
M  V30 6261 O 593.39 -2.3434 -0.940274 0
M  V30 6262 C 594.703 -1.96775 2.27377 0
M  V30 6263 C 596.251 -2.09749 2.32324 0
M  V30 6264 C 596.726 -2.88832 3.55443 0
M  V30 6265 N 598.217 -2.96404 3.55948 0
M  V30 6266 C 598.952 -3.58036 4.47881 0
M  V30 6267 N 598.448 -4.21132 5.50109 0
M  V30 6268 N 600.241 -3.55353 4.35523 0
M  V30 6269 H 592.392 -0.408173 2.08441 0
M  V30 6270 H 594.655 -0.243139 0.91629 0
M  V30 6271 H 594.361 -1.46094 3.19921 0
M  V30 6272 H 594.235 -2.97424 2.31989 0
M  V30 6273 H 596.622 -2.5962 1.40291 0
M  V30 6274 H 596.703 -1.08347 2.31721 0
M  V30 6275 H 596.347 -2.39647 4.47808 0
M  V30 6276 H 596.277 -3.90499 3.53296 0
M  V30 6277 H 598.768 -2.51552 2.82011 0
M  V30 6278 H 599.081 -4.66071 6.16439 0
M  V30 6279 H 597.426 -4.19705 5.53961 0
M  V30 6280 H 600.617 -3.05256 3.54875 0
M  V30 6281 H 600.79 -4.03097 5.07363 0
M  V30 6282 N 594.196 -1.08629 -1.14182 0
M  V30 6283 C 595.444 -0.815731 -1.84906 0
M  V30 6284 C 595.765 0.660441 -1.83475 0
M  V30 6285 O 595.035 1.47888 -1.28476 0
M  V30 6286 H 593.615 -0.298773 -0.684648 0
M  V30 6287 H 596.277 -1.37274 -1.38354 0
M  V30 6288 H 595.373 -1.16193 -2.89665 0
M  V30 6289 N 595.674 1.31259 -0.872281 0
M  V30 6290 C 596.904 2.00504 -0.498183 0
M  V30 6291 C 597.312 1.65632 0.914479 0
M  V30 6292 O 596.655 0.882849 1.61095 0
M  V30 6293 C 596.717 3.5482 -0.578194 0
M  V30 6294 C 596.381 4.13172 -1.95289 0
M  V30 6295 C 597.378 4.30107 -2.92069 0
M  V30 6296 C 595.063 4.48846 -2.25483 0
M  V30 6297 C 597.057 4.81908 -4.17185 0
M  V30 6298 C 594.744 5.00349 -3.50847 0
M  V30 6299 C 595.742 5.16831 -4.46514 0
M  V30 6300 O 595.43 5.67228 -5.69656 0
M  V30 6301 H 595.162 0.648055 -0.192354 0
M  V30 6302 H 597.716 1.6841 -1.17589 0
M  V30 6303 H 595.946 3.86383 0.156438 0
M  V30 6304 H 597.635 4.05318 -0.217192 0
M  V30 6305 H 598.401 4.02862 -2.7005 0
M  V30 6306 H 594.28 4.35292 -1.51795 0
M  V30 6307 H 597.824 4.94688 -4.91863 0
M  V30 6308 H 593.721 5.27028 -3.72708 0
M  V30 6309 H 594.489 5.85592 -5.7186 0
M  V30 6310 N 597.152 0.631951 1.44375 0
M  V30 6311 C 598.102 -0.0943862 2.27805 0
M  V30 6312 C 599.086 -0.815359 1.38711 0
M  V30 6313 O 600.278 -0.701331 1.62513 0
M  V30 6314 C 597.407 -1.07472 3.26044 0
M  V30 6315 C 596.493 -0.353329 4.22626 0
M  V30 6316 N 596.884 0.618512 5.02004 0
M  V30 6317 C 595.182 -0.597662 4.41977 0
M  V30 6318 C 595.883 1.0448 5.7224 0
M  V30 6319 N 594.859 0.383413 5.42246 0
M  V30 6320 H 598.661 0.651672 2.86584 0
M  V30 6321 H 596.175 0.45752 1.55822 0
M  V30 6322 H 598.172 -1.60969 3.84571 0
M  V30 6323 H 596.832 -1.82107 2.68825 0
M  V30 6324 H 597.843 0.996356 5.08226 0
M  V30 6325 H 594.52 -1.32682 3.95856 0
M  V30 6326 H 595.91 1.84773 6.45994 0
M  V30 6327 N 598.631 -1.53133 0.372548 0
M  V30 6328 C 599.879 -2.00958 -0.214534 0
M  V30 6329 C 600.2 -1.26135 -1.48711 0
M  V30 6330 O 599.47 -0.376597 -1.92246 0
M  V30 6331 H 598.05 -0.742456 -0.0822664 0
M  V30 6332 H 600.712 -1.88367 0.500385 0
M  V30 6333 H 599.808 -3.09031 -0.436605 0
M  V30 6334 N 600.109 -0.101901 -1.5727 0
M  V30 6335 C 601.334 0.571759 -1.99363 0
M  V30 6336 C 601.759 1.60507 -0.980768 0
M  V30 6337 O 601.117 1.81231 0.0498517 0
M  V30 6338 C 601.165 1.18996 -3.404 0
M  V30 6339 O 600.269 2.30572 -3.41922 0
M  V30 6340 H 599.61 0.144449 -0.648098 0
M  V30 6341 H 602.14 -0.185325 -2.03759 0
M  V30 6342 H 602.15 1.52962 -3.78241 0
M  V30 6343 H 600.825 0.432984 -4.1364 0
M  V30 6344 H 599.402 1.98173 -3.15883 0
M  V30 6345 N 601.587 1.56661 0.17182 0
M  V30 6346 C 602.833 1.82235 0.889845 0
M  V30 6347 C 603.166 0.679673 1.81918 0
M  V30 6348 O 602.441 -0.318404 1.91876 0
M  V30 6349 C 602.724 3.18195 1.68595 0
M  V30 6350 C 602.577 4.42989 0.779773 0
M  V30 6351 C 603.896 3.5109 2.65375 0
M  V30 6352 H 601.015 0.66291 0.322056 0
M  V30 6353 H 603.657 1.89358 0.15608 0
M  V30 6354 H 601.807 3.12253 2.3115 0
M  V30 6355 H 603.479 4.60997 0.16714 0
M  V30 6356 H 601.722 4.33711 0.0877964 0
M  V30 6357 H 602.393 5.3467 1.3723 0
M  V30 6358 H 604.869 3.57482 2.12946 0
M  V30 6359 H 603.745 4.47298 3.18144 0
M  V30 6360 H 604.006 2.75768 3.45549 0
M  V30 6361 N 603.065 -0.440357 1.51323 0
M  V30 6362 C 604.29 -1.21716 1.67928 0
M  V30 6363 C 604.715 -1.84328 0.374826 0
M  V30 6364 O 604.073 -1.68675 -0.664706 0
M  V30 6365 C 604.121 -2.27914 2.79442 0
M  V30 6366 O 603.225 -3.33325 2.42834 0
M  V30 6367 H 602.566 -0.35674 0.560029 0
M  V30 6368 H 605.096 -0.520417 1.97871 0
M  V30 6369 H 605.106 -2.72746 3.03436 0
M  V30 6370 H 603.781 -1.8172 3.741 0
M  V30 6371 H 602.358 -2.9399 2.294 0
M  V30 6372 N 604.543 -1.41418 -0.695603 0
M  V30 6373 C 605.493 -1.39731 -1.80165 0
M  V30 6374 C 606.477 -0.271689 -1.5859 0
M  V30 6375 O 607.669 -0.512354 -1.69422 0
M  V30 6376 C 604.798 -1.28187 -3.1847 0
M  V30 6377 C 603.884 -2.45612 -3.45739 0
M  V30 6378 N 604.275 -3.71077 -3.43708 0
M  V30 6379 C 602.573 -2.39424 -3.76288 0
M  V30 6380 C 603.274 -4.48957 -3.69882 0
M  V30 6381 N 602.25 -3.7907 -3.89624 0
M  V30 6382 H 606.052 -2.34656 -1.76957 0
M  V30 6383 H 603.566 -1.35473 -0.89559 0
M  V30 6384 H 605.563 -1.2506 -3.977 0
M  V30 6385 H 604.223 -0.342468 -3.22889 0
M  V30 6386 H 605.234 -4.03963 -3.2409 0
M  V30 6387 H 601.911 -1.53955 -3.88077 0
M  V30 6388 H 603.301 -5.57887 -3.74448 0
M  V30 6389 N 606.021 0.929856 -1.27246 0
M  V30 6390 C 606.969 2.05151 -1.09616 0
M  V30 6391 C 607.963 1.69388 -0.0198617 0
M  V30 6392 O 609.169 1.79124 -0.177417 0
M  V30 6393 H 605.544 0.671909 -0.337701 0
M  V30 6394 H 607.515 2.17168 -2.04648 0
M  V30 6395 C 606.264 3.3934 -0.757851 0
M  V30 6396 H 605.587 3.67343 -1.57795 0
M  V30 6397 H 607.027 4.18603 -0.674358 0
M  V30 6398 C 605.486 3.32582 0.537658 0
M  V30 6399 O 606.016 3.69633 1.57271 0
M  V30 6400 N 604.222 2.8568 0.532478 0
M  V30 6401 H 603.769 2.55725 -0.310233 0
M  V30 6402 H 603.727 2.81541 1.39936 0
M  V30 6403 N 607.499 1.09233 1.13605 0
M  V30 6404 C 608.462 0.733553 2.17144 0
M  V30 6405 C 609.462 -0.235873 1.59061 0
M  V30 6406 O 610.652 -0.0143167 1.74194 0
M  V30 6407 C 607.784 0.084471 3.40795 0
M  V30 6408 H 608.977 1.65049 2.50397 0
M  V30 6409 H 606.53 0.891264 1.28399 0
M  V30 6410 H 607.265 -0.843795 3.1313 0
M  V30 6411 H 607.05 0.781985 3.84223 0
M  V30 6412 H 608.54 -0.151216 4.17326 0
M  V30 6413 N 608.977 -1.30795 0.87923 0
M  V30 6414 C 610.393 -1.48981 0.57243 0
M  V30 6415 C 610.593 -1.80719 -0.891236 0
M  V30 6416 O 609.649 -1.89136 -1.67283 0
M  V30 6417 C 610.962 -2.61721 1.48063 0
M  V30 6418 C 612.51 -2.75603 1.48365 0
M  V30 6419 C 612.985 -3.91449 2.37763 0
M  V30 6420 N 614.476 -3.98751 2.35695 0
M  V30 6421 C 615.211 -4.87684 3.01583 0
M  V30 6422 N 614.707 -5.81454 3.76674 0
M  V30 6423 N 616.5 -4.81005 2.90844 0
M  V30 6424 H 608.651 -1.08465 1.82617 0
M  V30 6425 H 610.914 -0.536813 0.781368 0
M  V30 6426 H 610.62 -2.45073 2.52254 0
M  V30 6427 H 610.494 -3.58071 1.18596 0
M  V30 6428 H 612.881 -2.9166 0.44927 0
M  V30 6429 H 612.962 -1.79891 1.81859 0
M  V30 6430 H 612.606 -3.76149 3.41283 0
M  V30 6431 H 612.536 -4.86487 2.01589 0
M  V30 6432 H 615.027 -3.31668 1.81121 0
M  V30 6433 H 615.34 -6.46063 4.24054 0
M  V30 6434 H 613.685 -5.81403 3.80782 0
M  V30 6435 H 616.876 -4.06728 2.31711 0
M  V30 6436 H 617.049 -5.50107 3.42471 0
M  V30 6437 N 610.455 -0.639598 -1.44038 0
M  V30 6438 C 611.418 0.0506628 -2.29144 0
M  V30 6439 C 612.418 0.764001 -1.41491 0
M  V30 6440 O 613.608 0.607309 -1.63271 0
M  V30 6441 C 610.74 1.0824 -3.2326 0
M  V30 6442 H 611.933 -0.697987 -2.91664 0
M  V30 6443 H 609.486 -0.400146 -1.51091 0
M  V30 6444 H 610.221 1.86075 -2.65606 0
M  V30 6445 H 610.006 0.574725 -3.87865 0
M  V30 6446 H 611.496 1.56487 -3.87171 0
M  V30 6447 N 611.933 1.52934 -0.380664 0
M  V30 6448 C 613.179 2.01765 0.20458 0
M  V30 6449 C 613.512 1.26696 1.47179 0
M  V30 6450 O 612.787 0.364936 1.91046 0
M  V30 6451 C 613.07 3.56869 0.481269 0
M  V30 6452 C 612.923 4.42617 -0.800629 0
M  V30 6453 C 614.242 4.2121 1.27554 0
M  V30 6454 H 611.361 0.733388 0.0728803 0
M  V30 6455 H 614.003 1.83068 -0.50853 0
M  V30 6456 H 612.153 3.72932 1.08875 0
M  V30 6457 H 613.825 4.38323 -1.43773 0
M  V30 6458 H 612.068 4.09977 -1.4178 0
M  V30 6459 H 612.739 5.49134 -0.561791 0
M  V30 6460 H 615.215 4.09072 0.761514 0
M  V30 6461 H 614.091 5.29732 1.43788 0
M  V30 6462 H 614.352 3.78269 2.28833 0
M  V30 6463 N 613.412 0.11024 1.57214 0
M  V30 6464 C 614.342 -0.840002 2.17867 0
M  V30 6465 C 615.323 -1.28352 1.11624 0
M  V30 6466 O 616.508 -1.3477 1.39824 0
M  V30 6467 C 613.638 -2.09349 2.77111 0
M  V30 6468 C 612.592 -1.78807 3.8886 0
M  V30 6469 C 611.918 -3.11112 4.34872 0
M  V30 6470 C 613.218 -1.0632 5.11364 0
M  V30 6471 H 614.912 -0.334608 2.97524 0
M  V30 6472 H 612.458 -0.159502 1.43114 0
M  V30 6473 H 614.411 -2.76275 3.18198 0
M  V30 6474 H 613.135 -2.62198 1.9473 0
M  V30 6475 H 611.794 -1.14273 3.48335 0
M  V30 6476 H 611.442 -3.61877 3.49362 0
M  V30 6477 H 611.142 -2.91453 5.10224 0
M  V30 6478 H 612.666 -3.79171 4.78604 0
M  V30 6479 H 614.08 -1.63383 5.49526 0
M  V30 6480 H 612.477 -0.967876 5.92243 0
M  V30 6481 H 613.547 -0.0484569 4.84876 0
M  V30 6482 N 614.89 -1.56749 -0.16351 0
M  V30 6483 C 615.838 -1.97939 -1.22159 0
M  V30 6484 C 616.832 -0.869288 -1.45395 0
M  V30 6485 O 618.038 -1.05443 -1.45883 0
M  V30 6486 H 614.413 -0.629869 -0.410815 0
M  V30 6487 H 616.384 -2.86115 -0.847381 0
M  V30 6488 C 615.133 -2.36206 -2.55151 0
M  V30 6489 H 614.456 -3.2117 -2.38097 0
M  V30 6490 H 615.896 -2.68863 -3.27854 0
M  V30 6491 C 614.355 -1.20841 -3.14482 0
M  V30 6492 O 614.885 -0.500258 -3.98573 0
M  V30 6493 N 613.091 -0.976943 -2.73686 0
M  V30 6494 H 612.638 -1.55457 -2.05404 0
M  V30 6495 H 612.596 -0.206912 -3.13718 0
M  V30 6496 N 616.368 0.432326 -1.51554 0
M  V30 6497 C 617.784 0.769195 -1.39841 0
M  V30 6498 C 617.984 1.95584 -0.484675 0
M  V30 6499 O 617.04 2.52433 0.0582829 0
M  V30 6500 C 618.353 1.04487 -2.81963 0
M  V30 6501 C 619.901 1.149 -2.91148 0
M  V30 6502 C 620.376 1.45758 -4.34187 0
M  V30 6503 N 621.867 1.52671 -4.37317 0
M  V30 6504 C 622.602 1.78129 -5.4503 0
M  V30 6505 N 622.098 2.01345 -6.62897 0
M  V30 6506 N 623.891 1.79953 -5.32516 0
M  V30 6507 H 616.042 -0.349122 -2.09511 0
M  V30 6508 H 618.305 -0.0938113 -0.943347 0
M  V30 6509 H 618.011 0.24557 -3.50842 0
M  V30 6510 H 617.885 1.97119 -3.21596 0
M  V30 6511 H 620.272 1.93891 -2.22464 0
M  V30 6512 H 620.353 0.201568 -2.55005 0
M  V30 6513 H 619.997 0.672917 -5.03423 0
M  V30 6514 H 619.927 2.41715 -4.67848 0
M  V30 6515 H 622.418 1.36612 -3.52343 0
M  V30 6516 H 622.731 2.20155 -7.40778 0
M  V30 6517 H 621.076 1.98657 -6.66003 0
M  V30 6518 H 624.267 1.61337 -4.39418 0
M  V30 6519 H 624.44 1.99455 -6.1654 0
M  V30 6520 N 617.846 1.41785 0.688094 0
M  V30 6521 C 619.076 1.44705 1.47459 0
M  V30 6522 C 619.484 0.052916 1.89126 0
M  V30 6523 O 618.827 -0.939781 1.57841 0
M  V30 6524 C 618.889 2.29935 2.76352 0
M  V30 6525 C 618.553 3.77996 2.56843 0
M  V30 6526 C 619.55 4.69976 2.22304 0
M  V30 6527 C 617.235 4.2212 2.7225 0
M  V30 6528 C 619.229 6.04068 2.03421 0
M  V30 6529 C 616.916 5.56275 2.52985 0
M  V30 6530 C 617.914 6.47065 2.18621 0
M  V30 6531 O 617.602 7.78744 1.9953 0
M  V30 6532 H 617.334 0.494703 0.460701 0
M  V30 6533 H 619.888 1.86802 0.854057 0
M  V30 6534 H 618.118 1.82664 3.40839 0
M  V30 6535 H 619.807 2.24467 3.38186 0
M  V30 6536 H 620.573 4.37175 2.10008 0
M  V30 6537 H 616.452 3.51752 2.97979 0
M  V30 6538 H 619.996 6.74897 1.76523 0
M  V30 6539 H 615.893 5.88653 2.64873 0
M  V30 6540 H 616.661 7.89966 2.14234 0
M  V30 6541 N 619.324 -0.923095 1.27737 0
M  V30 6542 C 620.254 -2.04124 1.13383 0
M  V30 6543 C 621.235 -1.70066 0.0340658 0
M  V30 6544 O 622.42 -1.93068 0.209383 0
M  V30 6545 C 619.55 -3.3831 0.785097 0
M  V30 6546 C 618.504 -3.86496 1.8386 0
M  V30 6547 C 617.83 -5.1754 1.34373 0
M  V30 6548 C 619.13 -4.09381 3.24353 0
M  V30 6549 H 620.824 -2.1639 2.06919 0
M  V30 6550 H 618.37 -1.03976 0.996243 0
M  V30 6551 H 620.323 -4.16016 0.671485 0
M  V30 6552 H 619.047 -3.2607 -0.185969 0
M  V30 6553 H 617.706 -3.10987 1.9412 0
M  V30 6554 H 617.354 -5.01696 0.361989 0
M  V30 6555 H 617.054 -5.50751 2.04811 0
M  V30 6556 H 618.578 -5.97811 1.24315 0
M  V30 6557 H 619.992 -4.77641 3.17067 0
M  V30 6558 H 618.389 -4.53906 3.92542 0
M  V30 6559 H 619.459 -3.14515 3.69064 0
M  V30 6560 N 620.802 -1.09834 -1.13024 0
M  V30 6561 C 622.05 -0.835297 -1.8403 0
M  V30 6562 C 622.371 0.640944 -1.84165 0
M  V30 6563 O 621.641 1.46517 -1.30037 0
M  V30 6564 H 620.221 -0.306018 -0.681441 0
M  V30 6565 H 622.883 -1.38734 -1.36891 0
M  V30 6566 H 621.979 -1.19258 -2.88416 0
M  V30 6567 N 622.28 1.30327 -0.886154 0
M  V30 6568 C 623.51 1.99964 -0.519421 0
M  V30 6569 C 623.918 1.66593 0.89686 0
M  V30 6570 O 623.261 0.899886 1.60149 0
M  V30 6571 C 623.323 3.54187 -0.615795 0
M  V30 6572 C 622.987 4.11078 -1.9966 0
M  V30 6573 C 623.984 4.26985 -2.96614 0
M  V30 6574 C 621.669 4.46429 -2.30231 0
M  V30 6575 C 623.663 4.77456 -4.22273 0
M  V30 6576 C 621.35 4.966 -3.56135 0
M  V30 6577 C 622.348 5.12066 -4.5197 0
M  V30 6578 O 622.036 5.61154 -5.7564 0
M  V30 6579 H 621.768 0.645979 -0.199217 0
M  V30 6580 H 624.322 1.67154 -1.19368 0
M  V30 6581 H 622.552 3.86528 0.115448 0
M  V30 6582 H 624.241 4.05065 -0.26017 0
M  V30 6583 H 625.007 3.99975 -2.74308 0
M  V30 6584 H 620.886 4.33658 -1.56404 0
M  V30 6585 H 624.43 4.89444 -4.97082 0
M  V30 6586 H 620.327 5.23045 -3.78277 0
M  V30 6587 H 621.095 5.79494 -5.78039 0
M  V30 6588 N 623.758 0.647228 1.43697 0
M  V30 6589 C 624.988 0.16551 2.05936 0
M  V30 6590 C 625.396 -1.17164 1.48557 0
M  V30 6591 O 624.739 -1.73307 0.60914 0
M  V30 6592 C 624.801 -0.00648082 3.59499 0
M  V30 6593 C 624.465 1.25503 4.39429 0
M  V30 6594 C 625.462 2.18241 4.71876 0
M  V30 6595 C 623.147 1.49494 4.79538 0
M  V30 6596 C 625.141 3.33268 5.43333 0
M  V30 6597 C 622.828 2.64815 5.50742 0
M  V30 6598 C 623.826 3.56528 5.82561 0
M  V30 6599 O 623.514 4.69836 6.52311 0
M  V30 6600 H 623.246 0.0844124 0.670709 0
M  V30 6601 H 625.8 0.88638 1.8529 0
M  V30 6602 H 624.03 -0.782661 3.78697 0
M  V30 6603 H 625.719 -0.444794 4.03456 0
M  V30 6604 H 626.485 2.00946 4.41413 0
M  V30 6605 H 622.364 0.789912 4.54182 0
M  V30 6606 H 625.908 4.04874 5.68087 0
M  V30 6607 H 621.805 2.82047 5.8062 0
M  V30 6608 H 622.573 4.69024 6.70789 0
M  V30 6609 N 625.236 -1.5273 0.388769 0
M  V30 6610 C 626.513 -1.93981 -0.251133 0
M  V30 6611 C 626.893 -1.32418 -1.64404 0
M  V30 6612 O 626.241 -0.492074 -2.23139 0
M  V30 6613 C 626.451 -3.47891 -0.27802 0
M  V30 6614 C 627.799 -4.21559 -0.507229 0
M  V30 6615 O 628.823 -3.54394 -0.358252 0
M  V30 6616 O 627.682 -5.40626 -0.799094 0
M  V30 6617 H 624.776 -0.812157 -0.15598 0
M  V30 6618 H 627.322 -1.63809 0.443237 0
M  V30 6619 H 626.094 -3.8503 0.697669 0
M  V30 6620 H 625.717 -3.84364 -1.01733 0
M  V30 6621 N 626.714 -0.118576 -1.57153 0
M  V30 6622 C 627.962 0.538461 -1.94795 0
M  V30 6623 C 628.283 1.67243 -1.00274 0
M  V30 6624 O 627.553 1.95811 -0.0589692 0
M  V30 6625 H 626.133 0.201904 -0.719197 0
M  V30 6626 H 628.795 -0.187418 -1.93997 0
M  V30 6627 H 627.891 0.933315 -2.97818 0
M  V30 6628 N 628.193 1.56834 0.155195 0
M  V30 6629 C 629.141 1.98584 1.21107 0
M  V30 6630 C 630.135 0.876987 1.44932 0
M  V30 6631 O 631.341 1.06215 1.45322 0
M  V30 6632 H 627.716 0.632039 0.407469 0
M  V30 6633 H 629.687 2.86561 0.832195 0
M  V30 6634 C 628.436 2.37555 2.53895 0
M  V30 6635 H 627.759 3.22428 2.3639 0
M  V30 6636 H 629.199 2.70598 3.26424 0
M  V30 6637 C 627.658 1.22507 3.13837 0
M  V30 6638 O 628.188 0.521388 3.98302 0
M  V30 6639 N 626.394 0.991444 2.73164 0
M  V30 6640 H 625.941 1.56544 2.04577 0
M  V30 6641 H 625.899 0.223546 3.13604 0
M  V30 6642 N 629.671 -0.424282 1.51781 0
M  V30 6643 C 631.082 -1.00368 1.57427 0
M  V30 6644 C 631.433 -1.91962 0.40558 0
M  V30 6645 O 630.558 -2.111 -0.47601 0
M  V30 6646 C 631.153 -1.82707 2.85313 0
M  V30 6647 C 629.712 -2.35675 2.93487 0
M  V30 6648 C 628.859 -1.1524 2.5222 0
M  V30 6649 H 631.81 -0.205064 1.5737 0
M  V30 6650 H 631.831 -2.68294 2.69812 0
M  V30 6651 H 631.343 -1.16017 3.70353 0
M  V30 6652 H 629.444 -3.05781 2.12906 0
M  V30 6653 H 629.557 -2.67578 3.97415 0
M  V30 6654 H 627.921 -1.50174 2.05718 0
M  V30 6655 H 628.704 -0.5014 3.39619 0
M  V30 6656 N 631.149 -1.42148 -0.680565 0
M  V30 6657 C 632.112 -1.4488 -1.77602 0
M  V30 6658 C 633.112 -0.337209 -1.57224 0
M  V30 6659 O 634.302 -0.597778 -1.63622 0
M  V30 6660 C 631.434 -1.27483 -3.16166 0
M  V30 6661 H 632.627 -2.42412 -1.76568 0
M  V30 6662 H 630.18 -1.28511 -0.889645 0
M  V30 6663 H 630.915 -0.30851 -3.22829 0
M  V30 6664 H 630.7 -2.08037 -3.3236 0
M  V30 6665 H 632.19 -1.32265 -3.96101 0
M  V30 6666 N 632.627 0.916307 -1.28225 0
M  V30 6667 C 633.855 1.69901 -1.18073 0
M  V30 6668 C 634.27 1.86988 0.260968 0
M  V30 6669 O 633.627 1.39505 1.17663 0
M  V30 6670 C 633.678 3.09254 -1.87201 0
M  V30 6671 O 633.399 2.92959 -3.2574 0
M  V30 6672 C 634.9 4.0362 -1.83319 0
M  V30 6673 H 632.12 0.531181 -0.409985 0
M  V30 6674 H 634.664 1.14703 -1.69303 0
M  V30 6675 H 632.819 3.61277 -1.39848 0
M  V30 6676 H 633.233 3.81139 -3.60324 0
M  V30 6677 H 634.707 4.98873 -2.36282 0
M  V30 6678 H 635.184 4.3176 -0.805007 0
M  V30 6679 H 635.79 3.57524 -2.3034 0
M  V30 6680 N 634.105 1.10431 1.1244 0
M  V30 6681 C 635.035 0.775143 2.20258 0
M  V30 6682 C 636.016 -0.25186 1.68225 0
M  V30 6683 O 637.201 -0.117637 1.93843 0
M  V30 6684 C 634.331 0.206133 3.46688 0
M  V30 6685 C 633.285 1.16382 4.11873 0
M  V30 6686 C 632.611 0.456014 5.32752 0
M  V30 6687 C 633.911 2.5104 4.58013 0
M  V30 6688 H 635.605 1.67665 2.4805 0
M  V30 6689 H 633.151 0.807595 1.19222 0
M  V30 6690 H 635.104 -0.036291 4.21384 0
M  V30 6691 H 633.828 -0.730614 3.18323 0
M  V30 6692 H 632.487 1.39169 3.39157 0
M  V30 6693 H 632.135 -0.485203 5.00654 0
M  V30 6694 H 631.835 1.09466 5.77314 0
M  V30 6695 H 633.359 0.222135 6.10196 0
M  V30 6696 H 634.773 2.32401 5.24083 0
M  V30 6697 H 633.17 3.10789 5.13352 0
M  V30 6698 H 634.24 3.11039 3.71998 0
M  V30 6699 N 635.583 -1.29855 0.893053 0
M  V30 6700 C 636.86 -1.90694 0.435336 0
M  V30 6701 C 637.24 -1.8111 -1.08454 0
M  V30 6702 O 636.588 -1.23352 -1.92345 0
M  V30 6703 C 636.798 -3.36033 0.942472 0
M  V30 6704 C 638.146 -4.13083 0.982226 0
M  V30 6705 O 639.17 -3.4491 0.889686 0
M  V30 6706 O 638.029 -5.34896 1.12022 0
M  V30 6707 H 635.123 -0.815978 0.134567 0
M  V30 6708 H 637.669 -1.38367 0.982484 0
M  V30 6709 H 636.441 -3.37132 1.9864 0
M  V30 6710 H 636.064 -3.95828 0.374952 0
M  V30 6711 N 637.061 -0.65484 -1.43351 0
M  V30 6712 C 638.472 -0.248506 -1.85039 0
M  V30 6713 C 638.823 1.20526 -1.54816 0
M  V30 6714 O 637.948 1.92016 -0.99794 0
M  V30 6715 C 638.543 -0.444241 -3.35875 0
M  V30 6716 C 637.102 -0.0922108 -3.76287 0
M  V30 6717 C 636.249 -0.746327 -2.67068 0
M  V30 6718 H 639.2 -0.8584 -1.33481 0
M  V30 6719 H 639.221 0.309762 -3.79237 0
M  V30 6720 H 638.733 -1.50239 -3.5784 0
M  V30 6721 H 636.834 0.96328 -3.59933 0
M  V30 6722 H 636.947 -0.518807 -4.76283 0
M  V30 6723 H 635.311 -0.179416 -2.54067 0
M  V30 6724 H 636.094 -1.80754 -2.91861 0
M  V30 6725 N 638.539 1.52521 -0.396863 0
M  V30 6726 C 639.469 2.29582 0.425941 0
M  V30 6727 C 640.45 1.33281 1.05689 0
M  V30 6728 O 641.635 1.62181 1.06823 0
M  V30 6729 C 638.765 3.10821 1.54943 0
M  V30 6730 C 637.719 4.15069 1.04413 0
M  V30 6731 C 637.045 4.84578 2.26028 0
M  V30 6732 C 638.345 5.22191 0.106767 0
M  V30 6733 H 640.039 2.98612 -0.217045 0
M  V30 6734 H 637.585 1.43611 -0.105826 0
M  V30 6735 H 639.538 3.63492 2.13193 0
M  V30 6736 H 638.262 2.39538 2.22011 0
M  V30 6737 H 636.921 3.63389 0.484118 0
M  V30 6738 H 636.569 4.09835 2.91623 0
M  V30 6739 H 636.269 5.55043 1.92876 0
M  V30 6740 H 637.793 5.40056 2.84906 0
M  V30 6741 H 639.207 5.70176 0.597685 0
M  V30 6742 H 637.604 5.99947 -0.135352 0
M  V30 6743 H 638.674 4.77531 -0.842134 0
M  V30 6744 N 640.017 0.126909 1.57088 0
M  V30 6745 C 641.242 -0.53997 2.00248 0
M  V30 6746 C 641.667 -1.58927 1.00618 0
M  V30 6747 O 641.025 -1.81288 -0.0210131 0
M  V30 6748 C 641.073 -1.13565 3.4225 0
M  V30 6749 O 640.177 -2.25103 3.45547 0
M  V30 6750 H 639.518 -0.13412 0.650314 0
M  V30 6751 H 642.048 0.217718 2.03438 0
M  V30 6752 H 642.058 -1.46925 3.80627 0
M  V30 6753 H 640.733 -0.367122 4.14277 0
M  V30 6754 H 639.31 -1.93123 3.18995 0
M  V30 6755 N 641.495 -1.56914 -0.146875 0
M  V30 6756 C 642.906 -1.72799 -0.706928 0
M  V30 6757 C 643.257 -0.741329 -1.81656 0
M  V30 6758 O 642.382 0.0920162 -2.16204 0
M  V30 6759 C 642.977 -3.13317 -1.28911 0
M  V30 6760 C 641.536 -3.30803 -1.79573 0
M  V30 6761 C 640.683 -2.68725 -0.684252 0
M  V30 6762 H 643.634 -1.58504 0.0787931 0
M  V30 6763 H 643.655 -3.13323 -2.15891 0
M  V30 6764 H 643.167 -3.85104 -0.481284 0
M  V30 6765 H 641.268 -2.64012 -2.62923 0
M  V30 6766 H 641.381 -4.38754 -1.92436 0
M  V30 6767 H 639.745 -2.29196 -1.11091 0
M  V30 6768 H 640.528 -3.43117 0.112134 0
M  V30 6769 N 642.974 0.416227 -1.52004 0
M  V30 6770 C 643.884 1.53147 -1.77717 0
M  V30 6771 C 644.9 1.609 -0.662368 0
M  V30 6772 O 646.076 1.77747 -0.946991 0
M  V30 6773 C 643.141 2.88948 -1.91598 0
M  V30 6774 C 642.202 2.9114 -3.15493 0
M  V30 6775 C 641.435 4.20464 -3.28703 0
M  V30 6776 O 641.658 5.13981 -2.47345 0
M  V30 6777 O 640.592 4.29368 -4.21813 0
M  V30 6778 H 644.418 1.34357 -2.72363 0
M  V30 6779 H 642.003 0.601373 -1.36762 0
M  V30 6780 H 643.885 3.69505 -2.02593 0
M  V30 6781 H 642.56 3.07821 -1.00141 0
M  V30 6782 H 641.467 2.09461 -3.09962 0
M  V30 6783 H 642.8 2.77216 -4.06709 0
M  V30 6784 N 644.452 1.42507 0.673017 0
M  V30 6785 C 645.729 1.33554 1.42908 0
M  V30 6786 C 646.109 -0.0262211 2.11084 0
M  V30 6787 O 645.457 -1.04181 2.03368 0
M  V30 6788 C 645.667 2.50498 2.43006 0
M  V30 6789 C 647.015 2.92694 3.07596 0
M  V30 6790 O 648.039 2.50401 2.53333 0
M  V30 6791 O 646.898 3.65899 4.05931 0
M  V30 6792 H 643.992 0.526785 0.637516 0
M  V30 6793 H 646.538 1.54518 0.701591 0
M  V30 6794 H 645.31 3.41272 1.9144 0
M  V30 6795 H 644.933 2.3153 3.23233 0
M  V30 6796 N 645.93 -0.909495 1.28709 0
M  V30 6797 C 647.155 -1.69801 1.1909 0
M  V30 6798 C 647.58 -1.86479 -0.246388 0
M  V30 6799 O 646.938 -1.37802 -1.17815 0
M  V30 6800 C 646.986 -3.06543 1.89904 0
M  V30 6801 O 646.09 -3.94268 1.2094 0
M  V30 6802 H 645.431 -0.519783 0.413185 0
M  V30 6803 H 647.961 -1.13689 1.70106 0
M  V30 6804 H 647.971 -3.56748 1.97977 0
M  V30 6805 H 646.646 -2.93722 2.94449 0
M  V30 6806 H 645.223 -3.52702 1.2106 0
M  V30 6807 N 647.408 -1.11026 -1.11852 0
M  V30 6808 C 648.371 -0.768006 -2.1595 0
M  V30 6809 C 649.371 0.210538 -1.59416 0
M  V30 6810 O 650.561 -0.0133978 -1.74195 0
M  V30 6811 C 647.693 -0.138678 -3.40618 0
M  V30 6812 H 648.886 -1.69012 -2.4774 0
M  V30 6813 H 646.439 -0.911578 -1.26964 0
M  V30 6814 H 647.174 0.793872 -3.14433 0
M  V30 6815 H 646.959 -0.843012 -3.8293 0
M  V30 6816 H 648.449 0.0848039 -4.17514 0
M  V30 6817 N 648.886 1.2938 -0.899927 0
M  V30 6818 C 650.134 1.95164 -0.524924 0
M  V30 6819 C 650.455 1.71292 0.931888 0
M  V30 6820 O 649.725 1.04481 1.65712 0
M  V30 6821 H 648.305 0.722133 -0.191135 0
M  V30 6822 H 650.967 1.57628 -1.14627 0
M  V30 6823 H 650.063 3.0397 -0.707711 0
M  V30 6824 N 650.364 0.662433 1.43002 0
M  V30 6825 C 651.78 0.330835 1.56133 0
M  V30 6826 C 651.98 -1.16454 1.64441 0
M  V30 6827 O 651.036 -1.94964 1.60453 0
M  V30 6828 C 652.349 1.05029 2.81761 0
M  V30 6829 C 653.897 1.03142 2.95518 0
M  V30 6830 C 654.372 1.73196 4.2399 0
M  V30 6831 N 655.863 1.70004 4.30875 0
M  V30 6832 C 656.598 2.21074 5.29069 0
M  V30 6833 N 656.094 2.80473 6.33488 0
M  V30 6834 N 657.887 2.1152 5.20784 0
M  V30 6835 H 650.038 1.63272 1.35853 0
M  V30 6836 H 652.301 0.687149 0.653092 0
M  V30 6837 H 652.007 2.10542 2.81718 0
M  V30 6838 H 651.881 0.607664 3.72273 0
M  V30 6839 H 654.268 -0.0153339 2.95096 0
M  V30 6840 H 654.349 1.51282 2.0627 0
M  V30 6841 H 653.993 2.77833 4.25172 0
M  V30 6842 H 653.923 1.22515 5.1215 0
M  V30 6843 H 656.414 1.26667 3.56039 0
M  V30 6844 H 656.727 3.17094 7.04749 0
M  V30 6845 H 655.072 2.84538 6.34085 0
M  V30 6846 H 658.263 1.64814 4.38126 0
M  V30 6847 H 658.436 2.51629 5.97149 0
M  V30 6848 N 651.842 -1.52309 0.404946 0
M  V30 6849 C 653.072 -2.05886 -0.171569 0
M  V30 6850 C 653.48 -1.27527 -1.39762 0
M  V30 6851 O 652.823 -0.319215 -1.80905 0
M  V30 6852 C 652.885 -3.54609 -0.590983 0
M  V30 6853 C 652.549 -4.53989 0.523757 0
M  V30 6854 C 653.546 -5.01084 1.38604 0
M  V30 6855 C 651.231 -4.97465 0.695255 0
M  V30 6856 C 653.225 -5.90295 2.4048 0
M  V30 6857 C 650.912 -5.86473 1.71733 0
M  V30 6858 C 651.91 -6.32782 2.57051 0
M  V30 6859 O 651.598 -7.20029 3.57509 0
M  V30 6860 H 651.33 -0.675508 -0.0257763 0
M  V30 6861 H 653.884 -1.97238 0.573278 0
M  V30 6862 H 652.114 -3.60929 -1.38805 0
M  V30 6863 H 653.803 -3.90853 -1.09494 0
M  V30 6864 H 654.569 -4.68214 1.26492 0
M  V30 6865 H 650.448 -4.60982 0.0408447 0
M  V30 6866 H 653.992 -6.26363 3.07108 0
M  V30 6867 H 649.889 -6.18756 1.83877 0
M  V30 6868 H 650.657 -7.3813 3.53703 0
M  V30 6869 N 653.32 -0.135238 -1.57019 0
M  V30 6870 C 654.566 0.519563 -1.96032 0
M  V30 6871 C 654.899 1.65284 -1.01955 0
M  V30 6872 O 654.174 1.94408 -0.059727 0
M  V30 6873 C 654.457 1.0369 -3.44848 0
M  V30 6874 C 654.31 -0.0940754 -4.49702 0
M  V30 6875 C 655.629 1.92254 -3.95887 0
M  V30 6876 H 652.748 0.18739 -0.712779 0
M  V30 6877 H 655.39 -0.214086 -1.8879 0
M  V30 6878 H 653.54 1.66209 -3.5115 0
M  V30 6879 H 655.212 -0.73 -4.55487 0
M  V30 6880 H 653.455 -0.754924 -4.27181 0
M  V30 6881 H 654.126 0.309419 -5.51132 0
M  V30 6882 H 656.602 1.39581 -3.9199 0
M  V30 6883 H 655.478 2.25364 -5.00502 0
M  V30 6884 H 655.739 2.85513 -3.37543 0
M  V30 6885 N 654.798 1.5699 0.138552 0
M  V30 6886 C 655.708 2.02174 1.19008 0
M  V30 6887 C 656.724 0.938622 1.46512 0
M  V30 6888 O 657.9 1.24872 1.58016 0
M  V30 6889 C 654.965 2.40045 2.50159 0
M  V30 6890 C 654.026 3.62346 2.30226 0
M  V30 6891 C 653.259 3.98401 3.55123 0
M  V30 6892 O 653.482 3.35019 4.61647 0
M  V30 6893 O 652.416 4.91606 3.47285 0
M  V30 6894 H 656.242 2.91954 0.836452 0
M  V30 6895 H 653.827 1.45293 0.347907 0
M  V30 6896 H 655.709 2.65225 3.27465 0
M  V30 6897 H 654.384 1.53417 2.85035 0
M  V30 6898 H 653.291 3.42341 1.50843 0
M  V30 6899 H 654.624 4.49617 2.00262 0
M  V30 6900 N 656.276 -0.40816 1.52223 0
M  V30 6901 C 657.506 -1.17501 1.69932 0
M  V30 6902 C 657.914 -1.84729 0.408874 0
M  V30 6903 O 657.257 -1.7274 -0.625025 0
M  V30 6904 C 657.319 -2.27994 2.77955 0
M  V30 6905 C 656.983 -1.80894 4.19674 0
M  V30 6906 C 657.98 -1.29618 5.03483 0
M  V30 6907 C 655.665 -1.87698 4.65913 0
M  V30 6908 C 657.659 -0.857695 6.31603 0
M  V30 6909 C 655.346 -1.43461 5.94022 0
M  V30 6910 C 656.344 -0.925822 6.76696 0
M  V30 6911 O 656.032 -0.489841 8.02406 0
M  V30 6912 H 655.764 -0.359065 0.572755 0
M  V30 6913 H 658.318 -0.486188 1.99563 0
M  V30 6914 H 656.548 -3.00243 2.43703 0
M  V30 6915 H 658.237 -2.89749 2.84254 0
M  V30 6916 H 659.003 -1.23733 4.68951 0
M  V30 6917 H 654.882 -2.26244 4.01665 0
M  V30 6918 H 658.426 -0.459879 6.96083 0
M  V30 6919 H 654.323 -1.49026 6.28062 0
M  V30 6920 H 655.091 -0.613062 8.16201 0
M  V30 6921 N 657.755 -1.42862 -0.66545 0
M  V30 6922 C 658.688 -1.41509 -1.79026 0
M  V30 6923 C 659.666 -0.278106 -1.60204 0
M  V30 6924 O 660.85 -0.469792 -1.82552 0
M  V30 6925 C 657.977 -1.21494 -3.1616 0
M  V30 6926 C 657.023 -2.38308 -3.53711 0
M  V30 6927 S 657.856 -4.00852 -3.55075 0
M  V30 6928 C 659.012 -3.83197 -4.94885 0
M  V30 6929 H 659.245 -2.36691 -1.79902 0
M  V30 6930 H 656.778 -1.29746 -0.836977 0
M  V30 6931 H 658.736 -1.10633 -3.95311 0
M  V30 6932 H 657.397 -0.27881 -3.1286 0
M  V30 6933 H 656.59 -2.20076 -4.53412 0
M  V30 6934 H 656.192 -2.45732 -2.81943 0
M  V30 6935 H 658.484 -3.44765 -5.83218 0
M  V30 6936 H 659.427 -4.82607 -5.18166 0
M  V30 6937 H 659.835 -3.15884 -4.67843 0
M  V30 6938 N 659.233 0.902656 -1.29189 0
M  V30 6939 C 660.481 1.6496 -1.16758 0
M  V30 6940 C 660.802 1.92952 0.28188 0
M  V30 6941 O 660.072 1.55351 1.19344 0
M  V30 6942 H 658.652 0.611447 -0.429118 0
M  V30 6943 H 661.314 1.0825 -1.62074 0
M  V30 6944 H 660.41 2.60728 -1.71544 0
M  V30 6945 N 660.711 1.11618 1.11262 0
M  V30 6946 C 661.959 0.864469 1.82678 0
M  V30 6947 C 662.28 -0.611564 1.85162 0
M  V30 6948 O 661.55 -1.44429 1.32352 0
M  V30 6949 H 660.13 0.316821 0.676486 0
M  V30 6950 H 662.792 1.40894 1.34666 0
M  V30 6951 H 661.888 1.23832 2.86482 0
M  V30 6952 N 662.189 -1.289 0.906776 0
M  V30 6953 C 663.152 -2.25777 0.394656 0
M  V30 6954 C 664.152 -1.53621 -0.475119 0
M  V30 6955 O 665.342 -1.71949 -0.279165 0
M  V30 6956 C 662.474 -3.38113 -0.43499 0
M  V30 6957 H 663.667 -2.72592 1.25033 0
M  V30 6958 H 661.22 -1.40463 0.685547 0
M  V30 6959 H 661.955 -2.96648 -1.31036 0
M  V30 6960 H 661.74 -3.91647 0.188334 0
M  V30 6961 H 663.23 -4.10168 -0.784365 0
M  V30 6962 N 663.667 -0.670007 -1.42649 0
M  V30 6963 C 664.577 0.0114788 -2.34597 0
M  V30 6964 C 665.593 0.794055 -1.54825 0
M  V30 6965 O 666.769 0.737472 -1.87412 0
M  V30 6966 C 663.834 0.954436 -3.33304 0
M  V30 6967 C 662.895 0.166925 -4.28975 0
M  V30 6968 C 662.128 1.06497 -5.22967 0
M  V30 6969 O 662.351 2.30446 -5.21777 0
M  V30 6970 O 661.285 0.528347 -5.99577 0
M  V30 6971 H 665.111 -0.745794 -2.944 0
M  V30 6972 H 662.696 -0.430228 -1.43071 0
M  V30 6973 H 664.578 1.49589 -3.93956 0
M  V30 6974 H 663.253 1.69164 -2.7598 0
M  V30 6975 H 662.16 -0.418515 -3.71752 0
M  V30 6976 H 663.493 -0.531067 -4.89327 0
M  V30 6977 N 665.145 1.52092 -0.413018 0
M  V30 6978 C 666.561 1.59471 -0.0640836 0
M  V30 6979 C 666.761 1.42562 1.42402 0
M  V30 6980 O 665.817 1.25453 2.19129 0
M  V30 6981 C 667.13 2.95392 -0.562474 0
M  V30 6982 C 668.678 3.08637 -0.520788 0
M  V30 6983 C 669.153 4.47044 -0.995752 0
M  V30 6984 N 670.644 4.53296 -0.952732 0
M  V30 6985 C 671.379 5.58669 -1.29138 0
M  V30 6986 N 670.875 6.71576 -1.70168 0
M  V30 6987 N 672.668 5.48898 -1.2111 0
M  V30 6988 H 664.819 1.6133 -1.38153 0
M  V30 6989 H 667.082 0.75916 -0.567785 0
M  V30 6990 H 666.788 3.13059 -1.60271 0
M  V30 6991 H 666.662 3.77191 0.0257875 0
M  V30 6992 H 669.049 2.90652 0.510412 0
M  V30 6993 H 669.13 2.28735 -1.14515 0
M  V30 6994 H 668.774 4.65773 -2.0253 0
M  V30 6995 H 668.704 5.25448 -0.348162 0
M  V30 6996 H 671.195 3.72248 -0.651119 0
M  V30 6997 H 671.508 7.47973 -1.9431 0
M  V30 6998 H 669.853 6.72847 -1.74075 0
M  V30 6999 H 673.044 4.59573 -0.889396 0
M  V30 7000 H 673.217 6.30912 -1.47833 0
M  V30 7001 N 666.623 0.143563 1.56945 0
M  V30 7002 C 667.553 -0.7936 2.196 0
M  V30 7003 C 668.534 -1.25955 1.14321 0
M  V30 7004 O 669.719 -1.31773 1.42651 0
M  V30 7005 C 666.849 -2.03424 2.81489 0
M  V30 7006 C 665.803 -1.70519 3.92565 0
M  V30 7007 C 665.129 -3.01817 4.41373 0
M  V30 7008 C 666.429 -0.95449 5.13504 0
M  V30 7009 H 668.123 -0.271423 2.98167 0
M  V30 7010 H 665.669 -0.12911 1.4342 0
M  V30 7011 H 667.622 -2.69463 3.23987 0
M  V30 7012 H 666.346 -2.58008 2.00248 0
M  V30 7013 H 665.005 -1.06859 3.5068 0
M  V30 7014 H 664.653 -3.54386 3.56959 0
M  V30 7015 H 664.353 -2.80565 5.16292 0
M  V30 7016 H 665.877 -3.68934 4.86539 0
M  V30 7017 H 667.291 -1.5169 5.52868 0
M  V30 7018 H 665.688 -0.842035 5.94163 0
M  V30 7019 H 666.758 0.0544033 4.84869 0
M  V30 7020 N 668.101 -1.57061 -0.130224 0
M  V30 7021 C 669.031 -2.02552 -1.16168 0
M  V30 7022 C 670.012 -0.907971 -1.4384 0
M  V30 7023 O 671.197 -1.17693 -1.54473 0
M  V30 7024 C 668.327 -2.42035 -2.49071 0
M  V30 7025 C 667.281 -3.5713 -2.35886 0
M  V30 7026 C 666.607 -3.82478 -3.7365 0
M  V30 7027 C 667.907 -4.89236 -1.8288 0
M  V30 7028 H 669.601 -2.8897 -0.783359 0
M  V30 7029 H 667.147 -1.39021 -0.375376 0
M  V30 7030 H 669.1 -2.72462 -3.21469 0
M  V30 7031 H 667.824 -1.52573 -2.88771 0
M  V30 7032 H 666.483 -3.26895 -1.65938 0
M  V30 7033 H 666.131 -2.9024 -4.10816 0
M  V30 7034 H 665.831 -4.59944 -3.65685 0
M  V30 7035 H 667.355 -4.15347 -4.47571 0
M  V30 7036 H 668.769 -5.18272 -2.45085 0
M  V30 7037 H 667.166 -5.70624 -1.85763 0
M  V30 7038 H 668.236 -4.78494 -0.785571 0
M  V30 7039 N 669.579 0.400081 -1.52437 0
M  V30 7040 C 670.489 1.51253 -1.79331 0
M  V30 7041 C 671.505 1.60188 -0.679396 0
M  V30 7042 O 672.681 1.76733 -0.965791 0
M  V30 7043 C 669.746 2.869 -1.94652 0
M  V30 7044 C 668.807 2.87777 -3.18564 0
M  V30 7045 C 668.04 4.16954 -3.33145 0
M  V30 7046 O 668.263 5.11329 -2.52783 0
M  V30 7047 O 667.197 4.2487 -4.26343 0
M  V30 7048 H 671.023 1.31461 -2.73773 0
M  V30 7049 H 668.608 0.586834 -1.37392 0
M  V30 7050 H 670.49 3.67336 -2.065 0
M  V30 7051 H 669.165 3.06741 -1.034 0
M  V30 7052 H 668.072 2.06162 -3.12167 0
M  V30 7053 H 669.405 2.72886 -4.09627 0
M  V30 7054 N 671.057 1.43213 0.657864 0
M  V30 7055 C 671.989 1.43974 1.78337 0
M  V30 7056 C 673.002 0.336482 1.59285 0
M  V30 7057 O 674.191 0.600631 1.68091 0
M  V30 7058 C 671.291 1.23242 3.15697 0
M  V30 7059 C 670.464 2.46319 3.61449 0
M  V30 7060 C 669.523 2.2088 4.77597 0
M  V30 7061 O 668.549 2.942 4.87273 0
M  V30 7062 N 669.751 1.22251 5.67481 0
M  V30 7063 H 672.516 2.40993 1.78164 0
M  V30 7064 H 670.077 1.3831 0.841549 0
M  V30 7065 H 672.069 1.04113 3.91079 0
M  V30 7066 H 670.639 0.346849 3.1067 0
M  V30 7067 H 669.859 2.80904 2.76563 0
M  V30 7068 H 671.147 3.28239 3.88763 0
M  V30 7069 H 670.545 0.616433 5.62331 0
M  V30 7070 H 669.102 1.09107 6.42603 0
M  V30 7071 N 672.536 -0.895792 1.29666 0
M  V30 7072 C 673.499 -1.98189 1.15124 0
M  V30 7073 C 674.499 -1.60572 0.0855717 0
M  V30 7074 O 675.689 -1.70991 0.332826 0
M  V30 7075 C 672.821 -3.32289 0.761372 0
M  V30 7076 H 674.014 -2.12518 2.11603 0
M  V30 7077 H 671.567 -1.0808 1.12908 0
M  V30 7078 H 672.302 -3.23662 -0.203393 0
M  V30 7079 H 672.087 -3.60958 1.53139 0
M  V30 7080 H 673.577 -4.1198 0.682792 0
M  V30 7081 N 674.014 -1.12206 -1.10668 0
M  V30 7082 C 675.43 -0.857619 -1.346 0
M  V30 7083 C 675.63 0.513542 -1.94846 0
M  V30 7084 O 674.686 1.26273 -2.18658 0
M  V30 7085 C 675.999 -1.97212 -2.26998 0
M  V30 7086 C 677.547 -2.00272 -2.40542 0
M  V30 7087 C 678.022 -3.10948 -3.36267 0
M  V30 7088 N 679.513 -3.10375 -3.43834 0
M  V30 7089 C 680.248 -3.92651 -4.17867 0
M  V30 7090 N 679.744 -4.84911 -4.94807 0
M  V30 7091 N 681.537 -3.80798 -4.1346 0
M  V30 7092 H 673.688 -2.00558 -0.699306 0
M  V30 7093 H 675.951 -0.872612 -0.370477 0
M  V30 7094 H 675.657 -2.96002 -1.89936 0
M  V30 7095 H 675.531 -1.87521 -3.27286 0
M  V30 7096 H 677.918 -1.02103 -2.76874 0
M  V30 7097 H 677.999 -2.14037 -1.40077 0
M  V30 7098 H 677.643 -4.09348 -3.00661 0
M  V30 7099 H 677.573 -2.94421 -4.36605 0
M  V30 7100 H 680.064 -2.43536 -2.88961 0
M  V30 7101 H 680.377 -5.44207 -5.48688 0
M  V30 7102 H 678.722 -4.88926 -4.93939 0
M  V30 7103 H 681.913 -3.08058 -3.52445 0
M  V30 7104 H 682.086 -4.4515 -4.70898 0
M  V30 7105 N 675.492 1.28418 -0.913599 0
M  V30 7106 C 676.455 2.25564 -0.406624 0
M  V30 7107 C 677.455 1.5387 0.466965 0
M  V30 7108 O 678.645 1.72094 0.270042 0
M  V30 7109 C 675.777 3.38339 0.417053 0
M  V30 7110 H 676.97 2.71926 -1.26477 0
M  V30 7111 H 674.523 1.40098 -0.692986 0
M  V30 7112 H 675.258 2.97339 1.29461 0
M  V30 7113 H 675.043 3.91542 -0.209102 0
M  V30 7114 H 676.533 4.10578 0.762602 0
M  V30 7115 N 676.97 0.677563 1.42291 0
M  V30 7116 C 678.195 0.207901 2.06355 0
M  V30 7117 C 678.62 -1.12723 1.50583 0
M  V30 7118 O 677.978 -1.70171 0.62543 0
M  V30 7119 C 678.026 0.156489 3.6026 0
M  V30 7120 O 677.13 -0.874162 4.03029 0
M  V30 7121 H 676.471 0.106056 0.655475 0
M  V30 7122 H 679.001 0.927354 1.82377 0
M  V30 7123 H 679.011 -0.0187258 4.07996 0
M  V30 7124 H 677.686 1.13101 4.00226 0
M  V30 7125 H 676.263 -0.669764 3.66836 0
M  V30 7126 N 678.448 -1.51871 0.421078 0
M  V30 7127 C 679.678 -2.06057 -0.149723 0
M  V30 7128 C 680.086 -1.29002 -1.38402 0
M  V30 7129 O 679.429 -0.338385 -1.80556 0
M  V30 7130 C 679.491 -3.55216 -0.553339 0
M  V30 7131 C 679.155 -4.53408 0.571879 0
M  V30 7132 C 680.152 -4.99586 1.4391 0
M  V30 7133 C 677.837 -4.967 0.747979 0
M  V30 7134 C 679.831 -5.87711 2.46727 0
M  V30 7135 C 677.518 -5.84619 1.77944 0
M  V30 7136 C 678.516 -6.30021 2.63748 0
M  V30 7137 O 678.204 -7.16197 3.65126 0
M  V30 7138 H 677.936 -0.675744 -0.0186102 0
M  V30 7139 H 680.49 -1.96618 0.594166 0
M  V30 7140 H 678.72 -3.62381 -1.34969 0
M  V30 7141 H 680.409 -3.91992 -1.05342 0
M  V30 7142 H 681.175 -4.66846 1.31451 0
M  V30 7143 H 677.054 -4.60913 0.0897357 0
M  V30 7144 H 680.598 -6.2307 3.13734 0
M  V30 7145 H 676.495 -6.16771 1.90429 0
M  V30 7146 H 677.263 -7.34337 3.61512 0
M  V30 7147 N 679.926 -0.151884 -1.56866 0
M  V30 7148 C 680.889 0.771861 -2.15812 0
M  V30 7149 C 681.889 1.17181 -1.10115 0
M  V30 7150 O 683.079 1.09194 -1.35729 0
M  V30 7151 C 680.211 2.04806 -2.7252 0
M  V30 7152 H 681.404 0.259021 -2.98779 0
M  V30 7153 H 678.957 0.097588 -1.55995 0
M  V30 7154 H 679.692 2.60445 -1.93233 0
M  V30 7155 H 679.477 1.77044 -3.49854 0
M  V30 7156 H 680.967 2.70771 -3.1792 0
M  V30 7157 N 681.404 1.57128 0.121893 0
M  V30 7158 C 682.82 1.52357 0.47534 0
M  V30 7159 C 683.02 0.864417 1.82017 0
M  V30 7160 O 682.076 0.445529 2.48538 0
M  V30 7161 C 683.389 2.97122 0.4625 0
M  V30 7162 C 684.937 3.08196 0.546255 0
M  V30 7163 C 685.412 4.54516 0.563833 0
M  V30 7164 N 686.903 4.58959 0.625353 0
M  V30 7165 C 687.638 5.69585 0.660354 0
M  V30 7166 N 687.134 6.89714 0.653175 0
M  V30 7167 N 688.927 5.57685 0.703143 0
M  V30 7168 H 681.078 1.98364 -0.75931 0
M  V30 7169 H 683.341 0.905777 -0.279772 0
M  V30 7170 H 683.047 3.48706 -0.457943 0
M  V30 7171 H 682.921 3.54406 1.29136 0
M  V30 7172 H 685.308 2.56617 1.45712 0
M  V30 7173 H 685.389 2.53912 -0.310234 0
M  V30 7174 H 685.033 5.06741 -0.342974 0
M  V30 7175 H 684.963 5.06609 1.43716 0
M  V30 7176 H 687.454 3.72489 0.637182 0
M  V30 7177 H 687.767 7.69781 0.682425 0
M  V30 7178 H 686.112 6.92223 0.620646 0
M  V30 7179 H 689.303 4.62744 0.706095 0
M  V30 7180 H 689.476 6.43909 0.726952 0
M  V30 7181 N 682.882 -0.391992 1.52647 0
M  V30 7182 C 684.13 -1.13507 1.67214 0
M  V30 7183 C 684.451 -1.90575 0.41304 0
M  V30 7184 O 683.721 -1.87348 -0.572498 0
M  V30 7185 H 682.301 -0.422013 0.616372 0
M  V30 7186 H 684.963 -0.44502 1.89751 0
M  V30 7187 H 684.059 -1.83964 2.52118 0
M  V30 7188 N 684.36 -1.4356 -0.65026 0
M  V30 7189 C 685.27 -1.514 -1.79207 0
M  V30 7190 C 686.286 -0.400895 -1.69319 0
M  V30 7191 O 687.462 -0.655458 -1.90436 0
M  V30 7192 C 684.527 -1.43737 -3.155 0
M  V30 7193 C 683.588 -2.65743 -3.37163 0
M  V30 7194 C 682.821 -2.58436 -4.66954 0
M  V30 7195 O 683.044 -1.63374 -5.46503 0
M  V30 7196 O 681.978 -3.48984 -4.90402 0
M  V30 7197 H 685.804 -2.47825 -1.75547 0
M  V30 7198 H 683.389 -1.25594 -0.809111 0
M  V30 7199 H 685.271 -1.41916 -3.96784 0
M  V30 7200 H 683.946 -0.504488 -3.19745 0
M  V30 7201 H 682.853 -2.73136 -2.55632 0
M  V30 7202 H 684.186 -3.58014 -3.37768 0
M  V30 7203 N 685.838 0.888903 -1.30139 0
M  V30 7204 C 687.068 1.67115 -1.21474 0
M  V30 7205 C 687.476 1.87852 0.225472 0
M  V30 7206 O 686.819 1.42324 1.16145 0
M  V30 7207 C 686.881 3.0713 -1.86846 0
M  V30 7208 C 686.545 3.09582 -3.36167 0
M  V30 7209 C 687.542 2.88929 -4.32222 0
M  V30 7210 C 685.227 3.31304 -3.77549 0
M  V30 7211 C 687.221 2.89949 -5.67634 0
M  V30 7212 C 684.908 3.31954 -5.13079 0
M  V30 7213 C 685.906 3.113 -6.07932 0
M  V30 7214 O 685.594 3.11758 -7.40987 0
M  V30 7215 H 685.326 0.528372 -0.421662 0
M  V30 7216 H 687.88 1.11919 -1.7223 0
M  V30 7217 H 686.11 3.63973 -1.30615 0
M  V30 7218 H 687.799 3.6749 -1.72354 0
M  V30 7219 H 688.565 2.71948 -4.01584 0
M  V30 7220 H 684.444 3.46417 -3.04165 0
M  V30 7221 H 687.988 2.73746 -6.41645 0
M  V30 7222 H 683.885 3.48469 -5.43359 0
M  V30 7223 H 684.653 3.27951 -7.49927 0
M  V30 7224 N 687.317 1.12792 1.10072 0
M  V30 7225 C 688.733 0.864745 1.34143 0
M  V30 7226 C 688.933 -0.503201 1.95116 0
M  V30 7227 O 687.989 -1.25111 2.19325 0
M  V30 7228 C 689.302 1.98413 2.25949 0
M  V30 7229 C 690.85 2.01545 2.39476 0
M  V30 7230 C 691.325 3.12727 3.34613 0
M  V30 7231 N 692.816 3.12194 3.42183 0
M  V30 7232 C 693.551 3.94862 4.15779 0
M  V30 7233 N 693.047 4.87528 4.92228 0
M  V30 7234 N 694.84 3.82985 4.11435 0
M  V30 7235 H 686.991 2.00926 0.68866 0
M  V30 7236 H 689.254 0.874564 0.365844 0
M  V30 7237 H 688.96 2.97005 1.88364 0
M  V30 7238 H 688.834 1.89254 3.26287 0
M  V30 7239 H 691.221 1.0357 2.76328 0
M  V30 7240 H 691.302 2.14777 1.3894 0
M  V30 7241 H 690.946 4.10936 2.98486 0
M  V30 7242 H 690.876 2.96732 4.35037 0
M  V30 7243 H 693.367 2.45065 2.87666 0
M  V30 7244 H 693.68 5.47109 5.45794 0
M  V30 7245 H 692.025 4.91539 4.9134 0
M  V30 7246 H 695.216 3.09923 3.50807 0
M  V30 7247 H 695.389 4.47641 4.68531 0
M  V30 7248 N 688.795 -1.27931 0.920396 0
M  V30 7249 C 690.041 -1.95329 0.5673 0
M  V30 7250 C 690.396 -1.7107 -0.880506 0
M  V30 7251 O 689.689 -1.02497 -1.61879 0
M  V30 7252 C 689.883 -3.47853 0.820558 0
M  V30 7253 C 689.712 -3.86941 2.29143 0
M  V30 7254 C 688.482 -4.10766 2.94278 0
M  V30 7255 C 690.68 -3.97091 3.26838 0
M  V30 7256 N 688.662 -4.36578 4.31594 0
M  V30 7257 C 690.033 -4.27194 4.49339 0
M  V30 7258 C 692.088 -3.79639 3.22147 0
M  V30 7259 C 690.791 -4.41662 5.67739 0
M  V30 7260 C 692.817 -3.95328 4.39852 0
M  V30 7261 C 692.179 -4.2581 5.61128 0
M  V30 7262 H 688.278 -0.73836 0.257583 0
M  V30 7263 H 690.862 -1.54447 1.1855 0
M  V30 7264 H 689.033 -3.87709 0.231571 0
M  V30 7265 H 690.765 -4.024 0.430824 0
M  V30 7266 H 687.52 -4.05318 2.44979 0
M  V30 7267 H 687.944 -4.53555 5.0261 0
M  V30 7268 H 692.586 -3.55119 2.29457 0
M  V30 7269 H 690.304 -4.65011 6.60901 0
M  V30 7270 H 693.89 -3.83253 4.37731 0
M  V30 7271 H 692.77 -4.37691 6.50689 0
M  V30 7272 N 690.273 -0.685099 -1.4193 0
M  V30 7273 C 691.519 -0.211971 -2.01689 0
M  V30 7274 C 691.852 1.18189 -1.54094 0
M  V30 7275 O 691.127 1.79559 -0.747572 0
M  V30 7276 C 691.41 -0.258019 -3.59174 0
M  V30 7277 C 691.263 -1.68807 -4.16922 0
M  V30 7278 C 692.582 0.388044 -4.38386 0
M  V30 7279 H 689.701 -0.0784987 -0.732808 0
M  V30 7280 H 692.343 -0.871837 -1.68816 0
M  V30 7281 H 690.493 0.303832 -3.8731 0
M  V30 7282 H 692.165 -2.30296 -3.99702 0
M  V30 7283 H 690.408 -2.22553 -3.72361 0
M  V30 7284 H 691.079 -1.6719 -5.26072 0
M  V30 7285 H 693.555 -0.0903432 -4.16002 0
M  V30 7286 H 692.431 0.325232 -5.47936 0
M  V30 7287 H 692.692 1.4672 -4.17044 0
M  V30 7288 N 691.751 1.51645 -0.429126 0
M  V30 7289 C 692.997 2.02314 0.140286 0
M  V30 7290 C 693.33 1.31314 1.43074 0
M  V30 7291 O 692.605 0.425531 1.89788 0
M  V30 7292 C 692.888 3.5822 0.36749 0
M  V30 7293 C 692.741 4.39846 -0.941039 0
M  V30 7294 C 694.06 4.25055 1.14089 0
M  V30 7295 H 691.179 0.735335 0.0495112 0
M  V30 7296 H 693.821 1.81358 -0.566514 0
M  V30 7297 H 691.971 3.76207 0.969556 0
M  V30 7298 H 693.643 4.33527 -1.57646 0
M  V30 7299 H 691.886 4.05259 -1.54751 0
M  V30 7300 H 692.557 5.47069 -0.73621 0
M  V30 7301 H 695.033 4.11288 0.630986 0
M  V30 7302 H 693.909 5.34038 1.26863 0
M  V30 7303 H 694.17 3.85358 2.16683 0
M  V30 7304 N 693.229 0.160201 1.56784 0
M  V30 7305 C 694.139 -0.787167 2.21 0
M  V30 7306 C 695.155 -1.26167 1.19825 0
M  V30 7307 O 696.331 -1.31611 1.52448 0
M  V30 7308 C 693.396 -2.00364 2.8294 0
M  V30 7309 C 692.457 -1.5771 3.99282 0
M  V30 7310 C 691.69 -2.73558 4.58259 0
M  V30 7311 O 691.913 -3.90129 4.16119 0
M  V30 7312 O 690.847 -2.48271 5.48311 0
M  V30 7313 H 694.673 -0.270462 3.02493 0
M  V30 7314 H 692.258 -0.0674666 1.49248 0
M  V30 7315 H 694.14 -2.71529 3.22257 0
M  V30 7316 H 692.815 -2.50961 2.04451 0
M  V30 7317 H 691.722 -0.835274 3.64656 0
M  V30 7318 H 693.055 -1.11815 4.79331 0
M  V30 7319 N 694.707 -1.5719 -0.113559 0
M  V30 7320 C 695.953 -1.85412 -0.821597 0
M  V30 7321 C 696.286 -0.746722 -1.7927 0
M  V30 7322 O 695.561 0.246971 -1.92926 0
M  V30 7323 C 695.844 -3.24233 -1.56669 0
M  V30 7324 C 695.697 -4.45578 -0.614823 0
M  V30 7325 C 697.016 -3.60697 -2.52161 0
M  V30 7326 H 694.135 -0.674406 -0.29723 0
M  V30 7327 H 696.777 -1.89807 -0.085694 0
M  V30 7328 H 694.927 -3.20617 -2.19401 0
M  V30 7329 H 696.599 -4.613 0.00407137 0
M  V30 7330 H 694.842 -4.33738 0.0732332 0
M  V30 7331 H 695.513 -5.39395 -1.17292 0
M  V30 7332 H 697.989 -3.65139 -1.99532 0
M  V30 7333 H 696.865 -4.58798 -3.01323 0
M  V30 7334 H 697.126 -2.88403 -3.35076 0
M  V30 7335 N 696.185 0.383891 -1.52853 0
M  V30 7336 C 697.431 1.13009 -1.68395 0
M  V30 7337 C 697.764 1.89488 -0.425195 0
M  V30 7338 O 697.039 1.8574 0.577136 0
M  V30 7339 C 697.322 2.10419 -2.92226 0
M  V30 7340 C 697.175 1.3767 -4.28214 0
M  V30 7341 C 698.494 3.10781 -3.11614 0
M  V30 7342 H 695.613 0.409463 -0.612788 0
M  V30 7343 H 698.255 0.412895 -1.85459 0
M  V30 7344 H 696.405 2.71579 -2.77808 0
M  V30 7345 H 698.077 0.794352 -4.54409 0
M  V30 7346 H 696.32 0.678533 -4.2846 0
M  V30 7347 H 696.991 2.08874 -5.10956 0
M  V30 7348 H 699.467 2.59715 -3.25096 0
M  V30 7349 H 698.343 3.76179 -3.99725 0
M  V30 7350 H 698.604 3.79933 -2.2606 0
M  V30 7351 N 697.663 1.43903 0.642637 0
M  V30 7352 C 698.611 1.50164 1.77634 0
M  V30 7353 C 699.605 0.374294 1.65213 0
M  V30 7354 O 700.811 0.548748 1.71431 0
M  V30 7355 H 697.186 0.470974 0.586249 0
M  V30 7356 H 699.157 2.45603 1.69474 0
M  V30 7357 C 697.906 1.45196 3.15933 0
M  V30 7358 H 697.229 2.31253 3.26132 0
M  V30 7359 H 698.669 1.53638 3.95185 0
M  V30 7360 C 697.128 0.171043 3.36466 0
M  V30 7361 O 697.658 -0.763413 3.94379 0
M  V30 7362 N 695.864 0.077847 2.90496 0
M  V30 7363 H 695.411 0.8391 2.43551 0
M  V30 7364 H 695.369 -0.778473 3.0461 0
M  V30 7365 N 699.141 -0.881989 1.30609 0
M  V30 7366 C 700.557 -1.16576 1.09005 0
M  V30 7367 C 700.757 -2.00961 -0.14727 0
M  V30 7368 O 699.813 -2.38117 -0.840036 0
M  V30 7369 C 701.126 -1.86954 2.35518 0
M  V30 7370 C 702.674 -1.99706 2.41011 0
M  V30 7371 C 703.149 -2.73497 3.67374 0
M  V30 7372 N 704.64 -2.8104 3.68199 0
M  V30 7373 C 705.375 -3.38718 4.62664 0
M  V30 7374 N 704.871 -3.97421 5.67475 0
M  V30 7375 N 706.664 -3.36561 4.50203 0
M  V30 7376 H 698.815 -0.319398 2.09985 0
M  V30 7377 H 701.078 -0.204058 0.925778 0
M  V30 7378 H 700.784 -1.32393 3.2583 0
M  V30 7379 H 700.658 -2.87317 2.44395 0
M  V30 7380 H 703.045 -2.53436 1.51176 0
M  V30 7381 H 703.126 -0.984218 2.36108 0
M  V30 7382 H 702.77 -2.20438 4.57569 0
M  V30 7383 H 702.7 -3.75163 3.6954 0
M  V30 7384 H 705.191 -2.39365 2.92426 0
M  V30 7385 H 705.504 -4.39507 6.35652 0
M  V30 7386 H 703.849 -3.95832 5.71264 0
M  V30 7387 H 707.04 -2.8993 3.67503 0
M  V30 7388 H 707.213 -3.81215 5.24003 0
M  V30 7389 N 700.619 -1.13374 -1.09472 0
M  V30 7390 C 701.549 -0.833268 -2.18126 0
M  V30 7391 C 702.53 0.207169 -1.68834 0
M  V30 7392 O 703.715 0.0662012 -1.94087 0
M  V30 7393 C 700.845 -0.297979 -3.46019 0
M  V30 7394 C 699.799 -1.27261 -4.08642 0
M  V30 7395 C 699.125 -0.597104 -5.31356 0
M  V30 7396 C 700.425 -2.63095 -4.51197 0
M  V30 7397 H 702.119 -1.74182 -2.43518 0
M  V30 7398 H 699.665 -0.838921 -1.17039 0
M  V30 7399 H 701.618 -0.0754444 -4.21332 0
M  V30 7400 H 700.342 0.645959 -3.20148 0
M  V30 7401 H 699.001 -1.48113 -3.35348 0
M  V30 7402 H 698.649 0.352293 -5.01765 0
M  V30 7403 H 698.349 -1.24734 -5.74208 0
M  V30 7404 H 699.873 -0.38384 -6.09392 0
M  V30 7405 H 701.287 -2.46214 -5.17737 0
M  V30 7406 H 699.684 -3.2429 -5.04932 0
M  V30 7407 H 700.754 -3.20793 -3.6362 0
M  V30 7408 N 702.098 1.27442 -0.927168 0
M  V30 7409 C 703.344 1.94679 -0.568164 0
M  V30 7410 C 703.677 1.72697 0.888219 0
M  V30 7411 O 702.952 1.05573 1.63354 0
M  V30 7412 C 703.235 3.4882 -0.894253 0
M  V30 7413 C 703.088 3.80146 -2.40435 0
M  V30 7414 C 704.407 4.38281 -0.399766 0
M  V30 7415 H 701.526 0.707071 -0.207892 0
M  V30 7416 H 704.168 1.50568 -1.15885 0
M  V30 7417 H 702.318 3.86522 -0.391566 0
M  V30 7418 H 703.99 3.52238 -2.97869 0
M  V30 7419 H 702.233 3.26716 -2.85375 0
M  V30 7420 H 702.904 4.87835 -2.58304 0
M  V30 7421 H 705.38 4.07726 -0.83058 0
M  V30 7422 H 704.256 5.44955 -0.656885 0
M  V30 7423 H 704.517 4.36521 0.700153 0
M  V30 7424 N 703.576 0.692616 1.41565 0
M  V30 7425 C 704.823 0.222335 2.01276 0
M  V30 7426 C 705.151 -1.17706 1.5484 0
M  V30 7427 O 704.406 -1.80795 0.749118 0
M  V30 7428 C 704.705 0.225073 3.56691 0
M  V30 7429 C 704.371 1.57158 4.22625 0
M  V30 7430 C 703.033 1.94022 4.40351 0
M  V30 7431 C 705.385 2.45758 4.59622 0
M  V30 7432 C 702.713 3.19076 4.92349 0
M  V30 7433 C 705.065 3.70141 5.13009 0
M  V30 7434 C 703.729 4.07152 5.28946 0
M  V30 7435 H 702.999 0.0813581 0.73652 0
M  V30 7436 H 705.646 0.891123 1.69503 0
M  V30 7437 H 703.951 -0.527259 3.88236 0
M  V30 7438 H 705.648 -0.156283 4.00695 0
M  V30 7439 H 702.238 1.27486 4.09201 0
M  V30 7440 H 706.422 2.18558 4.45585 0
M  V30 7441 H 701.678 3.4775 5.02872 0
M  V30 7442 H 705.852 4.38983 5.40617 0
M  V30 7443 H 703.479 5.04125 5.69001 0
M  V30 7444 N 705.054 -1.51416 0.437162 0
M  V30 7445 C 706.017 -2.26312 -0.362729 0
M  V30 7446 C 707.017 -1.29748 -0.949847 0
M  V30 7447 O 708.207 -1.53462 -0.824325 0
M  V30 7448 C 705.339 -3.05475 -1.5132 0
M  V30 7449 H 706.532 -2.98459 0.29365 0
M  V30 7450 H 704.085 -1.55137 0.190327 0
M  V30 7451 H 704.82 -2.37744 -2.20563 0
M  V30 7452 H 704.605 -3.76401 -1.09838 0
M  V30 7453 H 706.095 -3.62209 -2.07833 0
M  V30 7454 N 706.532 -0.168513 -1.56696 0
M  V30 7455 C 707.442 0.775435 -2.21414 0
M  V30 7456 C 708.458 1.25529 -1.20492 0
M  V30 7457 O 709.634 1.30801 -1.53144 0
M  V30 7458 C 706.699 1.9886 -2.83999 0
M  V30 7459 C 705.76 1.5559 -4.00113 0
M  V30 7460 C 704.993 2.71124 -4.59704 0
M  V30 7461 O 705.216 3.87917 -4.18182 0
M  V30 7462 O 704.15 2.4536 -5.4962 0
M  V30 7463 H 707.976 0.254416 -3.02632 0
M  V30 7464 H 705.561 0.0595507 -1.49281 0
M  V30 7465 H 707.443 2.69816 -3.23693 0
M  V30 7466 H 706.118 2.49874 -2.05779 0
M  V30 7467 H 705.025 0.815924 -3.65094 0
M  V30 7468 H 706.358 1.09271 -4.79917 0
M  V30 7469 N 708.01 1.57248 0.105221 0
M  V30 7470 C 709.421 1.74612 0.660865 0
M  V30 7471 C 709.772 0.789231 1.79626 0
M  V30 7472 O 708.897 -0.0346611 2.16372 0
M  V30 7473 C 709.492 3.16624 1.20559 0
M  V30 7474 C 708.051 3.35447 1.7074 0
M  V30 7475 C 707.198 2.70445 0.612764 0
M  V30 7476 H 710.149 1.5824 -0.12079 0
M  V30 7477 H 710.17 3.18937 2.07508 0
M  V30 7478 H 709.682 3.86245 0.379012 0
M  V30 7479 H 707.783 2.7089 2.5583 0
M  V30 7480 H 707.896 4.43702 1.80736 0
M  V30 7481 H 706.26 2.32061 1.04975 0
M  V30 7482 H 707.043 3.42699 -0.203066 0
M  V30 7483 N 709.488 -0.375779 1.53054 0
M  V30 7484 C 710.765 -1.13453 1.59336 0
M  V30 7485 C 711.145 -2.07379 0.394614 0
M  V30 7486 O 710.493 -2.2004 -0.616 0
M  V30 7487 C 710.703 -1.8826 2.93869 0
M  V30 7488 C 712.051 -2.43155 3.48081 0
M  V30 7489 O 713.075 -1.984 2.95831 0
M  V30 7490 O 711.934 -3.24944 4.39401 0
M  V30 7491 H 709.028 -0.519856 0.643179 0
M  V30 7492 H 711.574 -0.379865 1.65394 0
M  V30 7493 H 710.346 -1.19652 3.72558 0
M  V30 7494 H 709.969 -2.70658 2.91256 0
M  V30 7495 N 710.966 -1.44241 -0.634997 0
M  V30 7496 C 711.914 -1.51103 -1.76835 0
M  V30 7497 C 712.908 -0.383051 -1.65012 0
M  V30 7498 O 714.114 -0.557832 -1.71138 0
M  V30 7499 H 710.489 -0.474076 -0.583743 0
M  V30 7500 H 712.46 -2.46499 -1.68169 0
M  V30 7501 C 711.209 -1.4687 -3.15158 0
M  V30 7502 H 710.532 -2.32979 -3.24901 0
M  V30 7503 H 711.972 -1.55731 -3.94365 0
M  V30 7504 C 710.431 -0.188884 -3.3637 0
M  V30 7505 O 710.961 0.742487 -3.94778 0
M  V30 7506 N 709.167 -0.0932516 -2.9045 0
M  V30 7507 H 708.714 -0.852004 -2.43102 0
M  V30 7508 H 708.672 0.762308 -3.05018 0
M  V30 7509 N 712.444 0.87505 -1.31075 0
M  V30 7510 C 713.86 1.15997 -1.09622 0
M  V30 7511 C 714.06 2.01036 0.136611 0
M  V30 7512 O 713.116 2.38559 0.827397 0
M  V30 7513 C 714.429 1.85702 -2.36506 0
M  V30 7514 C 715.977 1.98425 -2.42067 0
M  V30 7515 C 716.452 2.71544 -3.68819 0
M  V30 7516 N 717.943 2.79084 -3.69684 0
M  V30 7517 C 718.678 3.36259 -4.64454 0
M  V30 7518 N 718.174 3.94406 -5.69575 0
M  V30 7519 N 719.967 3.34169 -4.51982 0
M  V30 7520 H 712.118 0.308258 -2.10151 0
M  V30 7521 H 714.381 0.199145 -0.926847 0
M  V30 7522 H 714.087 1.30663 -3.26527 0
M  V30 7523 H 713.961 2.86017 -2.45915 0
M  V30 7524 H 716.348 2.5263 -1.52518 0
M  V30 7525 H 716.429 0.971682 -2.36626 0
M  V30 7526 H 716.073 2.18008 -4.58732 0
M  V30 7527 H 716.003 3.73198 -3.71525 0
M  V30 7528 H 718.494 2.3781 -2.93691 0
M  V30 7529 H 718.807 4.36129 -6.37974 0
M  V30 7530 H 717.152 3.92797 -5.73355 0
M  V30 7531 H 720.343 2.87977 -3.69035 0
M  V30 7532 H 720.516 3.78431 -5.26017 0
M  V30 7533 N 713.922 1.13953 1.08869 0
M  V30 7534 C 714.885 0.824991 2.13838 0
M  V30 7535 C 715.885 -0.168198 1.59918 0
M  V30 7536 O 717.075 0.0595778 1.74098 0
M  V30 7537 C 714.207 0.228938 3.4013 0
M  V30 7538 H 715.4 1.75521 2.43171 0
M  V30 7539 H 712.953 0.94492 1.24503 0
M  V30 7540 H 713.688 -0.710227 3.16427 0
M  V30 7541 H 713.473 0.944243 3.80561 0
M  V30 7542 H 714.963 0.0259223 4.17592 0
M  V30 7543 N 715.4 -1.26948 0.933913 0
M  V30 7544 C 716.363 -2.24889 0.442457 0
M  V30 7545 C 717.363 -1.54594 -0.442426 0
M  V30 7546 O 718.553 -1.72502 -0.242629 0
M  V30 7547 C 715.685 -3.3896 -0.363173 0
M  V30 7548 H 716.878 -2.69879 1.30787 0
M  V30 7549 H 714.431 -1.38978 0.715187 0
M  V30 7550 H 715.166 -2.99361 -1.24714 0
M  V30 7551 H 714.951 -3.9116 0.271366 0
M  V30 7552 H 716.441 -4.11739 -0.697186 0
M  V30 7553 N 716.879 -0.700114 -1.41195 0
M  V30 7554 C 718.295 -0.372114 -1.55201 0
M  V30 7555 C 718.495 1.12053 -1.6747 0
M  V30 7556 O 717.551 1.90642 -1.65566 0
M  V30 7557 C 718.864 -1.12462 -2.78878 0
M  V30 7558 C 720.412 -1.10941 -2.92679 0
M  V30 7559 C 720.887 -1.84376 -4.19249 0
M  V30 7560 N 722.378 -1.81368 -4.26216 0
M  V30 7561 C 723.113 -2.35024 -5.23021 0
M  V30 7562 N 722.609 -2.9717 -6.25829 0
M  V30 7563 N 724.402 -2.25254 -5.14992 0
M  V30 7564 H 716.553 -1.66816 -1.31477 0
M  V30 7565 H 718.816 -0.704223 -0.634644 0
M  V30 7566 H 718.522 -2.17937 -2.76037 0
M  V30 7567 H 718.396 -0.706152 -3.70531 0
M  V30 7568 H 720.783 -0.062911 -2.95033 0
M  V30 7569 H 720.864 -1.56698 -2.02187 0
M  V30 7570 H 720.508 -2.89008 -4.17656 0
M  V30 7571 H 720.438 -1.3605 -5.08722 0
M  V30 7572 H 722.929 -1.36062 -3.52556 0
M  V30 7573 H 723.242 -3.35668 -6.96094 0
M  V30 7574 H 721.587 -3.01249 -6.26318 0
M  V30 7575 H 724.778 -1.76372 -4.33602 0
M  V30 7576 H 724.951 -2.67373 -5.90268 0
M  V30 7577 N 718.357 1.51182 -0.445186 0
M  V30 7578 C 719.267 2.31692 0.368255 0
M  V30 7579 C 720.283 1.40942 1.02036 0
M  V30 7580 O 721.459 1.74011 1.01401 0
M  V30 7581 C 718.524 3.14903 1.45041 0
M  V30 7582 C 717.585 4.21442 0.817615 0
M  V30 7583 C 716.818 5.00677 1.8482 0
M  V30 7584 O 717.041 4.80644 3.07145 0
M  V30 7585 O 715.975 5.84559 1.43438 0
M  V30 7586 H 719.801 3.0232 -0.289219 0
M  V30 7587 H 717.386 1.47951 -0.207555 0
M  V30 7588 H 719.268 3.66612 2.07783 0
M  V30 7589 H 717.943 2.47031 2.09182 0
M  V30 7590 H 716.85 3.73791 0.151931 0
M  V30 7591 H 718.183 4.9171 0.219564 0
M  V30 7592 N 719.835 0.176821 1.56605 0
M  V30 7593 C 720.765 -0.746841 2.21234 0
M  V30 7594 C 721.746 -1.23502 1.16967 0
M  V30 7595 O 722.931 -1.28718 1.45414 0
M  V30 7596 C 720.061 -1.97407 2.8574 0
M  V30 7597 C 719.015 -1.62153 3.96094 0
M  V30 7598 C 718.341 -2.92387 4.47676 0
M  V30 7599 C 719.641 -0.845353 5.15413 0
M  V30 7600 H 721.335 -0.208116 2.98676 0
M  V30 7601 H 718.881 -0.0986594 1.43662 0
M  V30 7602 H 720.834 -2.62531 3.2963 0
M  V30 7603 H 719.558 -2.53703 2.05676 0
M  V30 7604 H 718.217 -0.993964 3.52868 0
M  V30 7605 H 717.865 -3.46734 3.64396 0
M  V30 7606 H 717.565 -2.69551 5.22127 0
M  V30 7607 H 719.089 -3.5853 4.94255 0
M  V30 7608 H 720.503 -1.39929 5.55961 0
M  V30 7609 H 718.9 -0.715814 5.95815 0
M  V30 7610 H 719.97 0.157239 4.84645 0
M  V30 7611 N 721.313 -1.57302 -0.09688 0
M  V30 7612 C 722.245 -1.98618 -1.14384 0
M  V30 7613 C 723.258 -0.888483 -1.36418 0
M  V30 7614 O 724.447 -1.16661 -1.35101 0
M  V30 7615 C 721.547 -2.28838 -2.49973 0
M  V30 7616 C 720.72 -3.60132 -2.48241 0
M  V30 7617 C 719.779 -3.7831 -3.65743 0
M  V30 7618 O 718.805 -4.50183 -3.48316 0
M  V30 7619 N 720.007 -3.18752 -4.85157 0
M  V30 7620 H 722.772 -2.8904 -0.792202 0
M  V30 7621 H 720.333 -1.59356 -0.285883 0
M  V30 7622 H 722.325 -2.38193 -3.27179 0
M  V30 7623 H 720.895 -1.44431 -2.77233 0
M  V30 7624 H 720.115 -3.61763 -1.56593 0
M  V30 7625 H 721.403 -4.46389 -2.4416 0
M  V30 7626 H 720.801 -2.60368 -5.0222 0
M  V30 7627 H 719.358 -3.33595 -5.59962 0
M  V30 7628 N 722.791 0.367657 -1.53252 0
M  V30 7629 C 723.754 1.43308 -1.78873 0
M  V30 7630 C 724.754 1.46671 -0.659115 0
M  V30 7631 O 725.944 1.47468 -0.927306 0
M  V30 7632 C 723.076 2.82442 -1.90892 0
M  V30 7633 H 724.269 1.21864 -2.74024 0
M  V30 7634 H 721.822 0.600668 -1.44297 0
M  V30 7635 H 722.557 3.09202 -0.978 0
M  V30 7636 H 722.342 2.81399 -2.73051 0
M  V30 7637 H 723.832 3.59601 -2.12314 0
M  V30 7638 N 724.269 1.44576 0.627338 0
M  V30 7639 C 725.546 1.38033 1.38586 0
M  V30 7640 C 725.926 0.0409468 2.1106 0
M  V30 7641 O 725.274 -0.976582 2.0658 0
M  V30 7642 C 725.484 2.58102 2.34913 0
M  V30 7643 C 726.832 3.02332 2.98129 0
M  V30 7644 O 727.856 2.58334 2.45238 0
M  V30 7645 O 726.715 3.78628 3.94085 0
M  V30 7646 H 723.809 0.546801 0.620434 0
M  V30 7647 H 726.355 1.56672 0.652077 0
M  V30 7648 H 725.127 3.4719 1.80485 0
M  V30 7649 H 724.75 2.41696 3.15703 0
M  V30 7650 N 725.747 -0.868086 1.31537 0
M  V30 7651 C 726.71 -1.95703 1.19302 0
M  V30 7652 C 727.71 -1.60355 0.119612 0
M  V30 7653 O 728.9 -1.70247 0.36902 0
M  V30 7654 C 726.032 -3.30599 0.831684 0
M  V30 7655 H 727.225 -2.07982 2.16064 0
M  V30 7656 H 724.778 -1.05661 1.15176 0
M  V30 7657 H 725.513 -3.2402 -0.134694 0
M  V30 7658 H 725.298 -3.57629 1.60761 0
M  V30 7659 H 726.788 -4.10439 0.770026 0
M  V30 7660 N 727.225 -1.14528 -1.08264 0
M  V30 7661 C 728.155 -0.856356 -2.1723 0
M  V30 7662 C 729.136 0.189251 -1.69044 0
M  V30 7663 O 730.321 0.0456119 -1.94146 0
M  V30 7664 C 727.451 -0.334662 -3.45684 0
M  V30 7665 C 726.405 -1.31588 -4.0727 0
M  V30 7666 C 725.731 -0.653428 -5.30692 0
M  V30 7667 C 727.031 -2.67866 -4.48381 0
M  V30 7668 H 728.725 -1.76755 -2.41657 0
M  V30 7669 H 726.271 -0.851287 -1.16143 0
M  V30 7670 H 728.224 -0.120128 -4.21229 0
M  V30 7671 H 726.948 0.611967 -3.20815 0
M  V30 7672 H 725.607 -1.51661 -3.33758 0
M  V30 7673 H 725.255 0.299054 -5.0211 0
M  V30 7674 H 724.955 -1.30817 -5.72853 0
M  V30 7675 H 726.479 -0.448453 -6.08951 0
M  V30 7676 H 727.893 -2.51692 -5.15096 0
M  V30 7677 H 726.29 -3.29627 -5.01464 0
M  V30 7678 H 727.36 -3.24632 -3.60198 0
M  V30 7679 N 728.703 1.26451 -0.940633 0
M  V30 7680 C 729.613 2.30128 -0.455881 0
M  V30 7681 C 730.629 1.67536 0.469867 0
M  V30 7682 O 731.805 1.98344 0.349529 0
M  V30 7683 C 728.87 3.45634 0.271648 0
M  V30 7684 C 727.931 4.23709 -0.690594 0
M  V30 7685 C 727.164 5.337 0.00231047 0
M  V30 7686 O 727.387 5.57215 1.21935 0
M  V30 7687 O 726.321 5.98091 -0.676111 0
M  V30 7688 H 730.147 2.73655 -1.31707 0
M  V30 7689 H 727.732 1.3164 -0.706497 0
M  V30 7690 H 729.614 4.15853 0.681486 0
M  V30 7691 H 728.289 3.04138 1.10824 0
M  V30 7692 H 727.196 3.55974 -1.15037 0
M  V30 7693 H 728.529 4.68953 -1.49478 0
M  V30 7694 N 730.181 0.707592 1.40822 0
M  V30 7695 C 731.113 0.0105968 2.29198 0
M  V30 7696 C 732.126 -0.732035 1.45414 0
M  V30 7697 O 733.315 -0.580741 1.68789 0
M  V30 7698 C 730.415 -1.00921 3.23525 0
M  V30 7699 C 729.588 -0.333747 4.36125 0
M  V30 7700 C 728.647 -1.25783 5.10945 0
M  V30 7701 O 727.673 -0.745646 5.64295 0
M  V30 7702 N 728.875 -2.58947 5.19545 0
M  V30 7703 H 731.64 0.76938 2.89656 0
M  V30 7704 H 729.201 0.554579 1.52105 0
M  V30 7705 H 731.193 -1.6294 3.70449 0
M  V30 7706 H 729.763 -1.66942 2.6429 0
M  V30 7707 H 728.983 0.466518 3.9143 0
M  V30 7708 H 730.271 0.135444 5.0862 0
M  V30 7709 H 729.669 -3.03065 4.7767 0
M  V30 7710 H 728.226 -3.16131 5.70004 0
M  V30 7711 N 731.66 -1.50943 0.453197 0
M  V30 7712 C 732.59 -2.31005 -0.34044 0
M  V30 7713 C 733.571 -1.37112 -1.00669 0
M  V30 7714 O 734.756 -1.66033 -1.0073 0
M  V30 7715 C 731.886 -3.16358 -1.433 0
M  V30 7716 C 730.84 -4.18658 -0.889363 0
M  V30 7717 C 730.166 -4.92633 -2.07887 0
M  V30 7718 C 731.466 -5.22227 0.0871142 0
M  V30 7719 H 733.16 -2.97601 0.327723 0
M  V30 7720 H 730.706 -1.43119 0.159054 0
M  V30 7721 H 732.659 -3.71155 -1.99555 0
M  V30 7722 H 731.383 -2.47613 -2.12968 0
M  V30 7723 H 730.042 -3.64936 -0.348915 0
M  V30 7724 H 729.69 -4.20376 -2.76211 0
M  V30 7725 H 729.39 -5.61819 -1.72143 0
M  V30 7726 H 730.914 -5.50258 -2.64666 0
M  V30 7727 H 732.328 -5.72001 -0.385656 0
M  V30 7728 H 730.725 -5.99032 0.357926 0
M  V30 7729 H 731.795 -4.74077 1.01879 0
M  V30 7730 N 733.138 -0.185124 -1.56509 0
M  V30 7731 C 734.386 0.455357 -1.96903 0
M  V30 7732 C 734.707 1.62839 -1.07277 0
M  V30 7733 O 733.977 1.95385 -0.141966 0
M  V30 7734 H 732.557 0.171218 -0.727113 0
M  V30 7735 H 735.219 -0.26953 -1.93027 0
M  V30 7736 H 734.315 0.80616 -3.01509 0
M  V30 7737 N 734.616 1.57351 0.0885366 0
M  V30 7738 C 735.846 1.90355 0.80303 0
M  V30 7739 C 736.254 0.777678 1.72478 0
M  V30 7740 O 735.597 -0.258908 1.81866 0
M  V30 7741 C 735.659 3.18674 1.66395 0
M  V30 7742 C 735.323 4.4778 0.913327 0
M  V30 7743 C 736.32 5.19345 0.240148 0
M  V30 7744 C 734.005 4.94434 0.885462 0
M  V30 7745 C 735.999 6.35803 -0.450854 0
M  V30 7746 C 733.686 6.10802 0.190679 0
M  V30 7747 C 734.684 6.81337 -0.476295 0
M  V30 7748 O 734.372 7.95488 -1.15992 0
M  V30 7749 H 734.104 0.634035 0.234469 0
M  V30 7750 H 736.658 2.05287 0.0681959 0
M  V30 7751 H 734.888 2.99906 2.44117 0
M  V30 7752 H 736.577 3.37458 2.2556 0
M  V30 7753 H 737.343 4.84339 0.253092 0
M  V30 7754 H 733.222 4.39417 1.39406 0
M  V30 7755 H 736.766 6.90795 -0.972019 0
M  V30 7756 H 732.663 6.45261 0.175603 0
M  V30 7757 H 733.431 8.11509 -1.06749 0
M  V30 7758 N 736.094 -0.359525 1.53444 0
M  V30 7759 C 737.026 -1.46098 1.76602 0
M  V30 7760 C 738.039 -1.49395 0.646912 0
M  V30 7761 O 739.228 -1.52765 0.923307 0
M  V30 7762 C 736.328 -2.84836 1.83635 0
M  V30 7763 C 735.501 -3.05164 3.13358 0
M  V30 7764 C 734.56 -4.24051 3.11556 0
M  V30 7765 O 733.586 -4.18935 3.85334 0
M  V30 7766 N 734.788 -5.31775 2.328 0
M  V30 7767 H 737.553 -1.2661 2.71643 0
M  V30 7768 H 735.114 -0.549294 1.52297 0
M  V30 7769 H 737.106 -3.62516 1.799 0
M  V30 7770 H 735.676 -2.97542 0.958509 0
M  V30 7771 H 734.896 -2.15091 3.30348 0
M  V30 7772 H 736.184 -3.15619 3.99076 0
M  V30 7773 H 735.582 -5.38796 1.7238 0
M  V30 7774 H 734.139 -6.0801 2.34877 0
M  V30 7775 N 737.572 -1.44907 -0.619662 0
M  V30 7776 C 738.535 -1.52282 -1.71297 0
M  V30 7777 C 739.535 -0.40359 -1.55653 0
M  V30 7778 O 740.725 -0.666638 -1.6094 0
M  V30 7779 C 737.857 -1.40778 -3.10474 0
M  V30 7780 H 739.05 -2.49683 -1.66128 0
M  V30 7781 H 736.603 -1.32168 -0.834339 0
M  V30 7782 H 737.338 -0.445156 -3.2123 0
M  V30 7783 H 737.123 -2.21947 -3.23237 0
M  V30 7784 H 738.613 -1.48946 -3.90135 0
M  V30 7785 N 739.05 0.861098 -1.31996 0
M  V30 7786 C 739.96 2.00154 -1.22374 0
M  V30 7787 C 740.976 1.73447 -0.138631 0
M  V30 7788 O 742.152 1.98191 -0.358104 0
M  V30 7789 C 739.217 3.33696 -0.940645 0
M  V30 7790 C 738.278 3.73668 -2.11355 0
M  V30 7791 C 737.511 5.00837 -1.84386 0
M  V30 7792 O 737.734 5.64996 -0.783287 0
M  V30 7793 O 736.668 5.37787 -2.70313 0
M  V30 7794 H 740.494 2.11207 -2.18233 0
M  V30 7795 H 738.079 0.990768 -1.11822 0
M  V30 7796 H 739.961 4.13756 -0.798987 0
M  V30 7797 H 738.636 3.23698 -0.0121636 0
M  V30 7798 H 737.543 2.94211 -2.31065 0
M  V30 7799 H 738.876 3.88303 -3.02459 0
M  V30 7800 N 740.528 1.15101 1.07655 0
M  V30 7801 C 741.476 0.840714 2.16875 0
M  V30 7802 C 742.47 -0.184594 1.68391 0
M  V30 7803 O 743.676 -0.0399315 1.79956 0
M  V30 7804 H 740.051 0.254192 0.707736 0
M  V30 7805 H 742.022 1.76959 2.40266 0
M  V30 7806 C 740.771 0.343018 3.46004 0
M  V30 7807 H 740.094 1.12335 3.83694 0
M  V30 7808 H 741.534 0.16453 4.23681 0
M  V30 7809 C 739.993 -0.934881 3.23669 0
M  V30 7810 O 740.523 -2.00706 3.47965 0
M  V30 7811 N 738.729 -0.873167 2.77172 0
M  V30 7812 H 738.276 -0.000479072 2.576 0
M  V30 7813 H 738.234 -1.72873 2.62607 0
M  V30 7814 N 742.006 -1.2595 0.947325 0
M  V30 7815 C 742.969 -2.24407 0.466285 0
M  V30 7816 C 743.969 -1.55054 -0.426005 0
M  V30 7817 O 745.159 -1.7275 -0.224319 0
M  V30 7818 C 742.291 -3.39326 -0.327201 0
M  V30 7819 H 743.484 -2.68477 1.33642 0
M  V30 7820 H 741.037 -1.38211 0.729887 0
M  V30 7821 H 741.772 -3.00667 -1.21532 0
M  V30 7822 H 741.557 -3.9085 0.312839 0
M  V30 7823 H 743.047 -4.12455 -0.653477 0
M  V30 7824 N 743.484 -0.715051 -1.40445 0
M  V30 7825 C 744.732 -0.253826 -2.005 0
M  V30 7826 C 745.053 1.15681 -1.5698 0
M  V30 7827 O 744.323 1.78414 -0.809027 0
M  V30 7828 H 742.903 -0.0908537 -0.741454 0
M  V30 7829 H 745.565 -0.920561 -1.7179 0
M  V30 7830 H 744.661 -0.286499 -3.10782 0
M  V30 7831 N 744.962 1.50701 -0.461195 0
M  V30 7832 C 746.208 2.03203 0.0895017 0
M  V30 7833 C 746.563 1.33768 1.38289 0
M  V30 7834 O 745.856 0.451304 1.86209 0
M  V30 7835 C 746.05 3.55788 0.33908 0
M  V30 7836 C 745.879 4.40009 -0.928571 0
M  V30 7837 C 744.649 4.83475 -1.46903 0
M  V30 7838 C 746.847 4.80972 -1.82129 0
M  V30 7839 N 744.829 5.51985 -2.68673 0
M  V30 7840 C 746.2 5.48792 -2.88491 0
M  V30 7841 C 748.255 4.62937 -1.83285 0
M  V30 7842 C 746.958 6.00489 -3.95987 0
M  V30 7843 C 748.984 5.15568 -2.89731 0
M  V30 7844 C 748.346 5.83355 -3.94812 0
M  V30 7845 H 744.445 0.781968 -0.00702462 0
M  V30 7846 H 747.029 1.84321 -0.627195 0
M  V30 7847 H 745.2 3.74636 1.02481 0
M  V30 7848 H 746.932 3.94944 0.883242 0
M  V30 7849 H 743.687 4.62495 -1.01959 0
M  V30 7850 H 744.111 5.90854 -3.30486 0
M  V30 7851 H 748.753 4.0997 -1.03366 0
M  V30 7852 H 746.471 6.52499 -4.7673 0
M  V30 7853 H 750.057 5.0345 -2.91597 0
M  V30 7854 H 748.937 6.23347 -4.75824 0
M  V30 7855 N 746.441 0.193421 1.56409 0
M  V30 7856 C 747.857 -0.162447 1.58771 0
M  V30 7857 C 748.057 -1.6116 1.20954 0
M  V30 7858 O 747.113 -2.3469 0.931497 0
M  V30 7859 C 748.426 0.138391 3.00381 0
M  V30 7860 C 749.974 0.0783649 3.12902 0
M  V30 7861 C 750.449 0.352491 4.56642 0
M  V30 7862 N 751.94 0.30105 4.62221 0
M  V30 7863 C 752.675 0.487028 5.71328 0
M  V30 7864 N 752.171 0.733265 6.88909 0
M  V30 7865 N 753.964 0.4214 5.60518 0
M  V30 7866 H 746.115 1.13909 1.79272 0
M  V30 7867 H 748.378 0.454528 0.83193 0
M  V30 7868 H 748.084 1.14312 3.32604 0
M  V30 7869 H 747.958 -0.559804 3.73023 0
M  V30 7870 H 750.345 -0.916963 2.80492 0
M  V30 7871 H 750.426 0.809611 2.4265 0
M  V30 7872 H 750.07 1.34513 4.89764 0
M  V30 7873 H 750 -0.399624 5.25081 0
M  V30 7874 H 752.491 0.117279 3.77718 0
M  V30 7875 H 752.804 0.86403 7.67955 0
M  V30 7876 H 751.149 0.770138 6.9072 0
M  V30 7877 H 754.34 0.229461 4.67537 0
M  V30 7878 H 754.513 0.569758 6.4549 0
M  V30 7879 N 747.919 -1.57396 -0.0801906 0
M  V30 7880 C 748.867 -2.04136 -1.11495 0
M  V30 7881 C 749.861 -0.945137 -1.40583 0
M  V30 7882 O 751.067 -1.13028 -1.40088 0
M  V30 7883 H 747.442 -0.65076 -0.37685 0
M  V30 7884 H 749.413 -2.90205 -0.694526 0
M  V30 7885 C 748.162 -2.49399 -2.42272 0
M  V30 7886 H 747.485 -3.33339 -2.20737 0
M  V30 7887 H 748.925 -2.85864 -3.13142 0
M  V30 7888 C 747.384 -1.37341 -3.07635 0
M  V30 7889 O 747.914 -0.710829 -3.95361 0
M  V30 7890 N 746.12 -1.12064 -2.68123 0
M  V30 7891 H 745.667 -1.66126 -1.96875 0
M  V30 7892 H 745.625 -0.372916 -3.12181 0
M  V30 7893 N 749.397 0.351382 -1.53633 0
M  V30 7894 C 750.622 1.11718 -1.74739 0
M  V30 7895 C 751.047 1.81829 -0.481657 0
M  V30 7896 O 750.405 1.72264 0.565233 0
M  V30 7897 C 750.453 2.11234 -2.92254 0
M  V30 7898 O 749.557 3.186 -2.61855 0
M  V30 7899 H 748.898 0.323482 -0.579875 0
M  V30 7900 H 751.428 0.404167 -2.00568 0
M  V30 7901 H 751.438 2.54591 -3.18822 0
M  V30 7902 H 750.113 1.59599 -3.84058 0
M  V30 7903 H 748.69 2.80115 -2.4615 0
M  V30 7904 N 750.875 1.45233 0.611969 0
M  V30 7905 C 752.105 1.52318 1.39581 0
M  V30 7906 C 752.513 0.153093 1.8858 0
M  V30 7907 O 751.856 -0.854792 1.62601 0
M  V30 7908 C 751.918 2.4426 2.63775 0
M  V30 7909 C 751.582 3.91079 2.36445 0
M  V30 7910 C 752.579 4.81099 1.97079 0
M  V30 7911 C 750.264 4.35958 2.49492 0
M  V30 7912 C 752.258 6.14002 1.71115 0
M  V30 7913 C 749.945 5.68903 2.23142 0
M  V30 7914 C 750.943 6.57744 1.84015 0
M  V30 7915 O 750.631 7.88226 1.5797 0
M  V30 7916 H 750.363 0.518428 0.43383 0
M  V30 7917 H 752.917 1.91067 0.753837 0
M  V30 7918 H 751.147 2.00474 3.30677 0
M  V30 7919 H 752.836 2.42077 3.25812 0
M  V30 7920 H 753.602 4.47692 1.86539 0
M  V30 7921 H 749.481 3.67053 2.78914 0
M  V30 7922 H 753.025 6.83305 1.405 0
M  V30 7923 H 748.922 6.01866 2.33297 0
M  V30 7924 H 749.69 8.00211 1.72058 0
M  V30 7925 N 752.353 -0.854086 1.3245 0
M  V30 7926 C 753.283 -1.97827 1.24044 0
M  V30 7927 C 754.264 -1.69646 0.124166 0
M  V30 7928 O 755.449 -1.91687 0.31143 0
M  V30 7929 C 752.579 -3.33673 0.963324 0
M  V30 7930 C 751.533 -3.76207 2.04089 0
M  V30 7931 C 750.859 -5.0969 1.61618 0
M  V30 7932 C 752.159 -3.91612 3.45597 0
M  V30 7933 H 753.853 -2.05118 2.18099 0
M  V30 7934 H 751.399 -0.985489 1.04996 0
M  V30 7935 H 753.352 -4.11871 0.891061 0
M  V30 7936 H 752.076 -3.26597 -0.0128649 0
M  V30 7937 H 750.735 -3.0026 2.10332 0
M  V30 7938 H 750.383 -4.99072 0.627418 0
M  V30 7939 H 750.083 -5.3912 2.33717 0
M  V30 7940 H 751.607 -5.90381 1.55829 0
M  V30 7941 H 753.021 -4.60163 3.4194 0
M  V30 7942 H 751.418 -4.3246 4.16051 0
M  V30 7943 H 752.488 -2.9451 3.85217 0
M  V30 7944 N 753.831 -1.1567 -1.07043 0
M  V30 7945 C 755.056 -0.957946 -1.83952 0
M  V30 7946 C 755.481 0.488807 -1.81638 0
M  V30 7947 O 754.839 1.34869 -1.21162 0
M  V30 7948 C 754.887 -1.48064 -3.288 0
M  V30 7949 O 753.991 -0.681921 -4.06723 0
M  V30 7950 H 753.332 -0.341453 -0.569479 0
M  V30 7951 H 755.862 -1.53728 -1.35015 0
M  V30 7952 H 755.872 -1.49484 -3.7963 0
M  V30 7953 H 754.547 -2.53388 -3.29799 0
M  V30 7954 H 753.124 -0.737612 -3.65532 0
M  V30 7955 N 755.309 1.25446 -0.953992 0
M  V30 7956 C 756.272 2.24156 -0.478179 0
M  V30 7957 C 757.272 1.55278 0.417776 0
M  V30 7958 O 758.462 1.72866 0.215155 0
M  V30 7959 C 755.594 3.39495 0.309202 0
M  V30 7960 H 756.787 2.67764 -1.35064 0
M  V30 7961 H 754.34 1.37822 -0.737206 0
M  V30 7962 H 755.075 3.01307 1.19936 0
M  V30 7963 H 754.86 3.90679 -0.333562 0
M  V30 7964 H 756.35 4.12796 0.631594 0
M  V30 7965 N 756.787 0.722489 1.40064 0
M  V30 7966 C 757.75 0.0830209 2.2905 0
M  V30 7967 C 758.75 -0.680208 1.45705 0
M  V30 7968 O 759.94 -0.511084 1.66534 0
M  V30 7969 C 757.072 -0.892092 3.29021 0
M  V30 7970 H 758.265 0.866848 2.87099 0
M  V30 7971 H 755.818 0.487556 1.48501 0
M  V30 7972 H 756.553 -1.70273 2.76003 0
M  V30 7973 H 756.338 -0.34761 3.90556 0
M  V30 7974 H 757.828 -1.33648 3.95636 0
M  V30 7975 N 758.265 -1.50454 0.469181 0
M  V30 7976 C 759.495 -2.06429 -0.0840913 0
M  V30 7977 C 759.903 -1.3334 -1.34227 0
M  V30 7978 O 759.246 -0.395656 -1.79389 0
M  V30 7979 C 759.308 -3.56797 -0.440049 0
M  V30 7980 C 758.972 -4.51359 0.715838 0
M  V30 7981 C 759.969 -4.94754 1.59732 0
M  V30 7982 C 757.654 -4.94069 0.905621 0
M  V30 7983 C 759.648 -5.79564 2.653 0
M  V30 7984 C 757.335 -5.78662 1.96453 0
M  V30 7985 C 758.333 -6.21311 2.83658 0
M  V30 7986 O 758.021 -7.04218 3.87727 0
M  V30 7987 H 757.753 -0.675994 0.00289751 0
M  V30 7988 H 760.307 -1.94629 0.656417 0
M  V30 7989 H 758.537 -3.66492 -1.23372 0
M  V30 7990 H 760.226 -3.95145 -0.928181 0
M  V30 7991 H 760.992 -4.62428 1.46237 0
M  V30 7992 H 756.871 -4.60394 0.236326 0
M  V30 7993 H 760.415 -6.12774 3.33398 0
M  V30 7994 H 756.312 -6.10401 2.09955 0
M  V30 7995 H 757.08 -7.22464 3.84692 0
M  V30 7996 N 759.743 -0.201713 -1.56304 0
M  V30 7997 C 760.653 0.728296 -2.23009 0
M  V30 7998 C 761.669 1.22945 -1.23128 0
M  V30 7999 O 762.845 1.27523 -1.55884 0
M  V30 8000 C 759.91 1.92792 -2.88153 0
M  V30 8001 C 758.971 1.47068 -4.03323 0
M  V30 8002 C 758.204 2.61312 -4.65351 0
M  V30 8003 O 758.427 3.7896 -4.26317 0
M  V30 8004 O 757.361 2.33646 -5.54701 0
M  V30 8005 H 761.187 0.190166 -3.03104 0
M  V30 8006 H 758.772 0.0278725 -1.49374 0
M  V30 8007 H 760.654 2.6289 -3.29343 0
M  V30 8008 H 759.329 2.45452 -2.11033 0
M  V30 8009 H 758.236 0.738299 -3.66742 0
M  V30 8010 H 759.569 0.990666 -4.82127 0
M  V30 8011 N 761.222 1.57436 0.0718424 0
M  V30 8012 C 762.152 2.06724 1.08571 0
M  V30 8013 C 763.133 0.960731 1.40371 0
M  V30 8014 O 764.318 1.23345 1.49999 0
M  V30 8015 C 761.448 2.51112 2.39916 0
M  V30 8016 C 760.402 3.65639 2.22469 0
M  V30 8017 C 759.728 3.96082 3.59198 0
M  V30 8018 C 761.028 4.95687 1.64596 0
M  V30 8019 H 762.722 2.91679 0.675569 0
M  V30 8020 H 760.268 1.40319 0.32352 0
M  V30 8021 H 762.221 2.84206 3.11135 0
M  V30 8022 H 760.945 1.63186 2.8291 0
M  V30 8023 H 759.604 3.32828 1.53691 0
M  V30 8024 H 759.252 3.05287 3.99761 0
M  V30 8025 H 758.952 4.73199 3.48362 0
M  V30 8026 H 760.476 4.31672 4.31847 0
M  V30 8027 H 761.89 5.27011 2.25681 0
M  V30 8028 H 760.287 5.77126 1.64457 0
M  V30 8029 H 761.357 4.8108 0.60744 0
M  V30 8030 N 762.7 -0.34323 1.53817 0
M  V30 8031 C 764.116 -0.686355 1.44088 0
M  V30 8032 C 764.316 -1.92426 0.597882 0
M  V30 8033 O 763.372 -2.52343 0.0889918 0
M  V30 8034 C 764.685 -0.878698 2.87575 0
M  V30 8035 C 766.233 -0.977296 2.97352 0
M  V30 8036 C 766.708 -1.20195 4.41947 0
M  V30 8037 N 768.199 -1.26915 4.45474 0
M  V30 8038 C 768.934 -1.46049 5.54488 0
M  V30 8039 N 768.43 -1.62354 6.73508 0
M  V30 8040 N 770.223 -1.48599 5.42102 0
M  V30 8041 H 762.374 0.470679 2.07119 0
M  V30 8042 H 764.637 0.148652 0.936273 0
M  V30 8043 H 764.343 -0.040602 3.51677 0
M  V30 8044 H 764.217 -1.78034 3.32541 0
M  V30 8045 H 766.604 -1.80591 2.3339 0
M  V30 8046 H 766.685 -0.0525498 2.55746 0
M  V30 8047 H 766.329 -0.378262 5.06489 0
M  V30 8048 H 766.259 -2.14027 4.81145 0
M  V30 8049 H 768.75 -1.15837 3.59708 0
M  V30 8050 H 769.063 -1.76591 7.52353 0
M  V30 8051 H 767.408 -1.5949 6.76453 0
M  V30 8052 H 770.599 -1.35443 4.48077 0
M  V30 8053 H 770.772 -1.6317 6.2712 0
M  V30 8054 N 764.178 -1.45556 -0.604258 0
M  V30 8055 C 765.128 -1.50906 -1.70913 0
M  V30 8056 C 766.112 -0.371996 -1.56541 0
M  V30 8057 O 767.304 -0.619064 -1.65821 0
M  V30 8058 C 764.433 -1.48181 -3.09673 0
M  V30 8059 C 763.519 -2.67102 -3.2942 0
M  V30 8060 N 763.91 -3.92184 -3.19414 0
M  V30 8061 C 762.208 -2.6287 -3.60299 0
M  V30 8062 C 762.909 -4.71571 -3.40581 0
M  V30 8063 N 761.885 -4.03081 -3.64728 0
M  V30 8064 H 765.687 -2.45435 -1.61675 0
M  V30 8065 H 763.201 -1.40894 -0.807622 0
M  V30 8066 H 765.198 -1.501 -3.88942 0
M  V30 8067 H 763.858 -0.54712 -3.20057 0
M  V30 8068 H 764.869 -4.23756 -2.97743 0
M  V30 8069 H 761.546 -1.78324 -3.77501 0
M  V30 8070 H 762.936 -5.80571 -3.38211 0
M  V30 8071 N 765.656 0.84705 -1.32902 0
M  V30 8072 C 766.904 1.5986 -1.2365 0
M  V30 8073 C 767.225 1.93974 0.199789 0
M  V30 8074 O 766.495 1.60273 1.12648 0
M  V30 8075 H 765.075 0.592696 -0.454665 0
M  V30 8076 H 767.737 1.01278 -1.66519 0
M  V30 8077 H 766.833 2.53218 -1.82448 0
M  V30 8078 N 767.134 1.16236 1.06428 0
M  V30 8079 C 768.38 0.944431 1.79467 0
M  V30 8080 C 768.713 -0.526558 1.86925 0
M  V30 8081 O 767.988 -1.39061 1.35986 0
M  V30 8082 C 768.271 1.57092 3.24028 0
M  V30 8083 C 768.124 3.11315 3.24658 0
M  V30 8084 C 769.443 1.26447 4.21544 0
M  V30 8085 H 766.562 0.344521 0.651517 0
M  V30 8086 H 769.204 1.43545 1.24478 0
M  V30 8087 H 767.354 1.15337 3.70985 0
M  V30 8088 H 769.026 3.62042 2.85873 0
M  V30 8089 H 767.269 3.44716 2.6335 0
M  V30 8090 H 767.94 3.50269 4.26633 0
M  V30 8091 H 770.416 1.62581 3.83023 0
M  V30 8092 H 769.292 1.72885 5.20963 0
M  V30 8093 H 769.553 0.183068 4.41721 0
M  V30 8094 N 768.612 -1.24939 0.960631 0
M  V30 8095 C 770.023 -1.74701 0.658529 0
M  V30 8096 C 770.374 -1.77967 -0.825959 0
M  V30 8097 O 769.499 -1.40444 -1.64634 0
M  V30 8098 C 770.094 -3.17263 1.18867 0
M  V30 8099 C 768.653 -3.64561 0.936614 0
M  V30 8100 C 767.8 -2.43423 1.32817 0
M  V30 8101 H 770.751 -1.10741 1.13676 0
M  V30 8102 H 770.772 -3.76481 0.551589 0
M  V30 8103 H 770.284 -3.14854 2.26912 0
M  V30 8104 H 768.385 -3.72378 -0.128608 0
M  V30 8105 H 768.498 -4.52392 1.57729 0
M  V30 8106 H 766.862 -2.43513 0.746548 0
M  V30 8107 H 767.645 -2.437 2.41796 0
M  V30 8108 N 770.09 -0.729906 -1.39679 0
M  V30 8109 C 771.506 -0.404951 -1.54377 0
M  V30 8110 C 771.706 1.08476 -1.6981 0
M  V30 8111 O 770.762 1.87087 -1.69572 0
M  V30 8112 C 772.075 -1.18352 -2.76429 0
M  V30 8113 C 773.623 -1.17124 -2.9026 0
M  V30 8114 C 774.098 -1.93227 -4.15244 0
M  V30 8115 N 775.589 -1.90368 -4.22273 0
M  V30 8116 C 776.324 -2.46065 -5.17918 0
M  V30 8117 N 775.82 -3.10378 -6.19385 0
M  V30 8118 N 777.613 -2.36127 -5.10099 0
M  V30 8119 H 769.764 -1.69567 -1.27909 0
M  V30 8120 H 772.027 -0.717527 -0.619564 0
M  V30 8121 H 771.733 -2.23743 -2.71352 0
M  V30 8122 H 771.607 -0.784589 -3.6895 0
M  V30 8123 H 773.994 -0.125478 -2.94833 0
M  V30 8124 H 774.075 -1.60951 -1.98817 0
M  V30 8125 H 773.719 -2.97802 -4.11432 0
M  V30 8126 H 773.649 -1.4681 -5.05722 0
M  V30 8127 H 776.14 -1.4351 -3.4959 0
M  V30 8128 H 776.453 -3.50358 -6.88817 0
M  V30 8129 H 774.798 -3.14467 -6.19787 0
M  V30 8130 H 777.989 -1.85529 -4.29763 0
M  V30 8131 H 778.162 -2.79833 -5.84463 0
M  V30 8132 N 771.568 1.50203 -0.477153 0
M  V30 8133 C 772.845 1.95115 0.137609 0
M  V30 8134 C 773.225 1.41778 1.56404 0
M  V30 8135 O 772.573 0.621333 2.1989 0
M  V30 8136 C 772.783 3.4892 0.0747168 0
M  V30 8137 C 774.131 4.238 0.260585 0
M  V30 8138 O 775.155 3.5588 0.151021 0
M  V30 8139 O 774.014 5.44366 0.482534 0
M  V30 8140 H 771.108 0.81987 0.108364 0
M  V30 8141 H 773.654 1.60946 -0.537989 0
M  V30 8142 H 772.426 3.80308 -0.920966 0
M  V30 8143 H 772.049 3.89642 0.791509 0
M  V30 8144 N 773.046 0.209999 1.56195 0
M  V30 8145 C 773.978 -0.736967 2.17029 0
M  V30 8146 C 774.991 -1.16599 1.13616 0
M  V30 8147 O 776.18 -1.09914 1.40646 0
M  V30 8148 C 773.28 -2.00852 2.72969 0
M  V30 8149 C 772.453 -1.73691 4.01435 0
M  V30 8150 C 771.512 -2.85439 4.42053 0
M  V30 8151 O 770.538 -2.54405 5.09183 0
M  V30 8152 N 771.74 -4.14135 4.06783 0
M  V30 8153 H 774.505 -0.216656 2.98916 0
M  V30 8154 H 772.066 0.0285672 1.61875 0
M  V30 8155 H 774.058 -2.74778 2.97118 0
M  V30 8156 H 772.628 -2.43963 1.95451 0
M  V30 8157 H 771.848 -0.834676 3.85262 0
M  V30 8158 H 773.136 -1.52961 4.85263 0
M  V30 8159 H 772.534 -4.42196 3.52816 0
M  V30 8160 H 771.091 -4.84642 4.35851 0
M  V30 8161 N 774.524 -1.57472 -0.0634922 0
M  V30 8162 C 775.935 -1.76303 -0.614337 0
M  V30 8163 C 776.286 -0.836578 -1.77471 0
M  V30 8164 O 775.411 -0.0227184 -2.16388 0
M  V30 8165 C 776.006 -3.19709 -1.12122 0
M  V30 8166 C 774.565 -3.39856 -1.61786 0
M  V30 8167 C 773.712 -2.71975 -0.540845 0
M  V30 8168 H 776.663 -1.57864 0.162702 0
M  V30 8169 H 776.684 -3.24326 -1.98979 0
M  V30 8170 H 776.196 -3.87114 -0.276472 0
M  V30 8171 H 774.297 -2.77578 -2.48558 0
M  V30 8172 H 774.41 -4.48338 -1.68908 0
M  V30 8173 H 772.774 -2.34763 -0.987854 0
M  V30 8174 H 773.557 -3.4204 0.293856 0
M  V30 8175 N 776.003 0.335068 -1.53997 0
M  V30 8176 C 777.231 1.09418 -1.756 0
M  V30 8177 C 777.646 1.82083 -0.499138 0
M  V30 8178 O 777.003 1.74646 0.529631 0
M  V30 8179 C 777.054 2.10115 -2.94166 0
M  V30 8180 O 776.775 1.40404 -4.14992 0
M  V30 8181 C 778.276 2.98336 -3.27888 0
M  V30 8182 H 775.496 0.32595 -0.586513 0
M  V30 8183 H 778.04 0.384693 -2.00849 0
M  V30 8184 H 776.195 2.76616 -2.71224 0
M  V30 8185 H 776.609 2.07743 -4.81605 0
M  V30 8186 H 778.083 3.6491 -4.1418 0
M  V30 8187 H 778.56 3.64814 -2.44556 0
M  V30 8188 H 779.166 2.37412 -3.52868 0
M  V30 8189 N 777.481 1.45874 0.596531 0
M  V30 8190 C 778.414 1.49889 1.72071 0
M  V30 8191 C 779.392 0.354224 1.58695 0
M  V30 8192 O 780.576 0.556355 1.80103 0
M  V30 8193 C 777.703 1.3644 3.10003 0
M  V30 8194 C 776.749 2.54913 3.41938 0
M  V30 8195 S 777.582 4.17336 3.35545 0
M  V30 8196 C 778.738 4.06372 4.76039 0
M  V30 8197 H 778.971 2.45005 1.68404 0
M  V30 8198 H 776.504 1.33592 0.77412 0
M  V30 8199 H 778.462 1.29368 3.89582 0
M  V30 8200 H 777.123 0.427762 3.11174 0
M  V30 8201 H 776.316 2.41458 4.42396 0
M  V30 8202 H 775.918 2.58904 2.69898 0
M  V30 8203 H 778.21 3.72199 5.66105 0
M  V30 8204 H 779.153 5.0678 4.9455 0
M  V30 8205 H 779.561 3.37846 4.52239 0
M  V30 8206 N 778.959 -0.83999 1.33349 0
M  V30 8207 C 779.906 -1.94972 1.23509 0
M  V30 8208 C 780.876 -1.65709 0.113967 0
M  V30 8209 O 782.061 -1.88552 0.292045 0
M  V30 8210 C 779.201 -3.30919 0.979105 0
M  V30 8211 C 778.314 -3.72587 2.18639 0
M  V30 8212 C 777.449 -4.97397 1.86465 0
M  V30 8213 C 776.488 -5.31597 3.03432 0
M  V30 8214 N 775.625 -6.47584 2.71254 0
M  V30 8215 H 780.465 -2.0272 2.18423 0
M  V30 8216 H 778.002 -0.992017 1.08616 0
M  V30 8217 H 779.96 -4.09239 0.811126 0
M  V30 8218 H 778.59 -3.22731 0.0667099 0
M  V30 8219 H 777.642 -2.89799 2.46416 0
M  V30 8220 H 778.954 -3.93844 3.06086 0
M  V30 8221 H 778.108 -5.83462 1.66305 0
M  V30 8222 H 776.847 -4.78107 0.96254 0
M  V30 8223 H 775.852 -4.44037 3.24208 0
M  V30 8224 H 777.077 -5.52836 3.94397 0
M  V30 8225 H 775.023 -6.29783 1.836 0
M  V30 8226 H 774.94 -6.68931 3.52231 0
M  V30 8227 H 776.208 -7.36764 2.54558 0
M  V30 8228 N 780.437 -1.16799 -1.0581 0
M  V30 8229 C 781.4 -0.881396 -2.11575 0
M  V30 8230 C 782.4 0.12574 -1.60308 0
M  V30 8231 O 783.59 -0.105716 -1.73879 0
M  V30 8232 C 780.722 -0.319037 -3.39404 0
M  V30 8233 H 781.915 -1.81907 -2.38432 0
M  V30 8234 H 779.468 -0.977597 -1.21954 0
M  V30 8235 H 780.203 0.626082 -3.18199 0
M  V30 8236 H 779.988 -1.04481 -3.77923 0
M  V30 8237 H 781.478 -0.13663 -4.17376 0
M  V30 8238 N 781.915 1.24427 -0.967243 0
M  V30 8239 C 783.163 1.92107 -0.627638 0
M  V30 8240 C 783.484 1.75991 0.83978 0
M  V30 8241 O 782.754 1.13118 1.59941 0
M  V30 8242 H 781.334 0.710986 -0.229145 0
M  V30 8243 H 783.996 1.51331 -1.22821 0
M  V30 8244 H 783.092 2.99791 -0.867844 0
M  V30 8245 N 783.393 0.737304 1.3929 0
M  V30 8246 C 784.618 0.295237 2.05288 0
M  V30 8247 C 785.043 -1.06235 1.55228 0
M  V30 8248 O 784.401 -1.67365 0.697043 0
M  V30 8249 C 784.449 0.309146 3.59272 0
M  V30 8250 O 783.553 -0.702437 4.06374 0
M  V30 8251 H 782.894 0.133762 0.650387 0
M  V30 8252 H 785.424 1.00387 1.78279 0
M  V30 8253 H 785.434 0.154336 4.07708 0
M  V30 8254 H 784.109 1.29974 3.95069 0
M  V30 8255 H 782.686 -0.513574 3.69346 0
M  V30 8256 N 784.871 -1.49948 0.485112 0
M  V30 8257 C 785.834 -2.27351 -0.290546 0
M  V30 8258 C 786.834 -1.32704 -0.908087 0
M  V30 8259 O 788.024 -1.56007 -0.775085 0
M  V30 8260 C 785.156 -3.10135 -1.41524 0
M  V30 8261 H 786.349 -2.97374 0.388454 0
M  V30 8262 H 783.902 -1.54453 0.239586 0
M  V30 8263 H 784.637 -2.44641 -2.12888 0
M  V30 8264 H 784.422 -3.79705 -0.978074 0
M  V30 8265 H 785.912 -3.68638 -1.96204 0
M  V30 8266 N 786.349 -0.21828 -1.56081 0
M  V30 8267 C 787.626 0.463143 -1.90038 0
M  V30 8268 C 788.006 1.77982 -1.13515 0
M  V30 8269 O 787.354 2.27199 -0.24345 0
M  V30 8270 C 787.564 0.659292 -3.42716 0
M  V30 8271 C 788.912 0.968203 -4.13414 0
M  V30 8272 O 789.936 0.746195 -3.48296 0
M  V30 8273 O 788.795 1.38936 -5.28544 0
M  V30 8274 H 785.889 0.244435 -0.790051 0
M  V30 8275 H 788.435 -0.260221 -1.67693 0
M  V30 8276 H 787.207 -0.269584 -3.9037 0
M  V30 8277 H 786.83 1.43426 -3.7083 0
M  V30 8278 N 787.827 1.57504 0.0551401 0
M  V30 8279 C 788.79 2.03826 1.04821 0
M  V30 8280 C 789.79 0.937968 1.30609 0
M  V30 8281 O 790.98 1.20237 1.2605 0
M  V30 8282 C 788.112 2.43309 2.38775 0
M  V30 8283 H 789.305 2.92802 0.6486 0
M  V30 8284 H 786.858 1.53368 0.301315 0
M  V30 8285 H 787.593 1.5741 2.83536 0
M  V30 8286 H 787.378 3.23615 2.21395 0
M  V30 8287 H 788.868 2.79666 3.10124 0
M  V30 8288 N 789.305 -0.326896 1.54172 0
M  V30 8289 C 790.235 -1.40741 1.86317 0
M  V30 8290 C 791.216 -1.54125 0.719684 0
M  V30 8291 O 792.401 -1.6806 0.973117 0
M  V30 8292 C 789.531 -2.77557 2.08757 0
M  V30 8293 C 788.485 -2.78965 3.24596 0
M  V30 8294 C 787.811 -4.18824 3.32401 0
M  V30 8295 C 789.111 -2.4301 4.62324 0
M  V30 8296 H 790.805 -1.14088 2.76811 0
M  V30 8297 H 788.351 -0.547389 1.3319 0
M  V30 8298 H 790.304 -3.53209 2.29829 0
M  V30 8299 H 789.028 -3.0568 1.15009 0
M  V30 8300 H 787.687 -2.05767 3.03406 0
M  V30 8301 H 787.335 -4.44083 2.36218 0
M  V30 8302 H 787.035 -4.20673 4.10253 0
M  V30 8303 H 788.559 -4.96294 3.55703 0
M  V30 8304 H 789.973 -3.08375 4.83299 0
M  V30 8305 H 788.37 -2.56116 5.42701 0
M  V30 8306 H 789.44 -1.38165 4.64799 0
M  V30 8307 N 790.784 -1.46188 -0.588786 0
M  V30 8308 C 791.747 -1.55882 -1.68029 0
M  V30 8309 C 792.747 -0.436515 -1.54762 0
M  V30 8310 O 793.937 -0.700626 -1.59489 0
M  V30 8311 C 791.069 -1.47332 -3.07418 0
M  V30 8312 H 792.262 -2.5315 -1.60795 0
M  V30 8313 H 789.815 -1.33908 -0.806116 0
M  V30 8314 H 790.55 -0.513193 -3.20214 0
M  V30 8315 H 790.335 -2.28753 -3.18456 0
M  V30 8316 H 791.825 -1.57187 -3.86887 0
M  V30 8317 N 792.262 0.832906 -1.33792 0
M  V30 8318 C 793.225 1.92471 -1.24449 0
M  V30 8319 C 794.225 1.59981 -0.162085 0
M  V30 8320 O 795.415 1.69208 -0.414029 0
M  V30 8321 C 792.547 3.28278 -0.919044 0
M  V30 8322 H 793.74 2.0218 -2.21502 0
M  V30 8323 H 791.293 1.0257 -1.17936 0
M  V30 8324 H 792.028 3.24263 0.048738 0
M  V30 8325 H 791.813 3.53241 -1.70187 0
M  V30 8326 H 793.303 4.08253 -0.878576 0
M  V30 8327 N 793.74 1.17359 1.05189 0
M  V30 8328 C 794.673 0.833768 2.12423 0
M  V30 8329 C 795.651 -0.19945 1.61372 0
M  V30 8330 O 796.835 -0.080979 1.88326 0
M  V30 8331 C 793.962 0.243745 3.37822 0
M  V30 8332 C 793.008 1.25235 4.07699 0
M  V30 8333 S 793.841 2.80368 4.56239 0
M  V30 8334 C 794.997 2.22846 5.84885 0
M  V30 8335 H 795.23 1.74197 2.40921 0
M  V30 8336 H 792.763 0.998242 1.1779 0
M  V30 8337 H 794.721 -0.0901915 4.10401 0
M  V30 8338 H 793.382 -0.642396 3.07461 0
M  V30 8339 H 792.575 0.788168 4.97799 0
M  V30 8340 H 792.177 1.53194 3.41185 0
M  V30 8341 H 794.469 1.60403 6.58238 0
M  V30 8342 H 795.412 3.112 6.3605 0
M  V30 8343 H 795.82 1.66296 5.39449 0
M  V30 8344 N 795.218 -1.23913 0.973828 0
M  V30 8345 C 796.495 -1.87539 0.555729 0
M  V30 8346 C 796.875 -1.87641 -0.967162 0
M  V30 8347 O 796.223 -1.35335 -1.84111 0
M  V30 8348 C 796.433 -3.29359 1.15427 0
M  V30 8349 C 797.781 -4.06 1.24294 0
M  V30 8350 O 798.805 -3.38554 1.10723 0
M  V30 8351 O 797.664 -5.26689 1.45813 0
M  V30 8352 H 794.758 -0.805769 0.186188 0
M  V30 8353 H 797.304 -1.31838 1.06849 0
M  V30 8354 H 796.076 -3.23817 2.19678 0
M  V30 8355 H 795.699 -3.92642 0.625925 0
M  V30 8356 N 796.696 -0.74468 -1.38897 0
M  V30 8357 C 797.924 -0.307428 -2.04603 0
M  V30 8358 C 798.339 1.06115 -1.56157 0
M  V30 8359 O 797.696 1.67233 -0.730701 0
M  V30 8360 C 797.747 -0.31101 -3.6016 0
M  V30 8361 O 797.468 -1.62557 -4.06825 0
M  V30 8362 C 798.969 0.141213 -4.43075 0
M  V30 8363 H 796.189 -0.132741 -0.657739 0
M  V30 8364 H 798.733 -1.01104 -1.77759 0
M  V30 8365 H 796.888 0.343792 -3.85872 0
M  V30 8366 H 797.302 -1.54569 -5.01207 0
M  V30 8367 H 798.776 0.0875449 -5.51931 0
M  V30 8368 H 799.253 1.18782 -4.22833 0
M  V30 8369 H 799.859 -0.484383 -4.22533 0
M  V30 8370 N 798.174 1.49689 -0.493057 0
M  V30 8371 C 799.422 2.02027 0.0541642 0
M  V30 8372 C 799.743 1.37554 1.38217 0
M  V30 8373 O 799.013 0.528174 1.88646 0
M  V30 8374 H 797.593 0.746646 0.0230069 0
M  V30 8375 H 800.255 1.83795 -0.648489 0
M  V30 8376 H 799.351 3.11523 0.189652 0
M  V30 8377 N 799.652 0.226554 1.55963 0
M  V30 8378 C 800.582 -0.676079 2.23498 0
M  V30 8379 C 801.563 -1.19718 1.20837 0
M  V30 8380 O 802.748 -1.24027 1.49436 0
M  V30 8381 C 799.878 -1.88217 2.91876 0
M  V30 8382 C 798.832 -1.4947 4.01052 0
M  V30 8383 C 798.158 -2.77997 4.56751 0
M  V30 8384 C 799.458 -0.680951 5.17842 0
M  V30 8385 H 801.152 -0.112989 2.99187 0
M  V30 8386 H 798.698 -0.0529046 1.43903 0
M  V30 8387 H 800.651 -2.51911 3.37815 0
M  V30 8388 H 799.375 -2.47031 2.13643 0
M  V30 8389 H 798.034 -0.881199 3.55852 0
M  V30 8390 H 797.682 -3.34966 3.75243 0
M  V30 8391 H 797.382 -2.52803 5.30438 0
M  V30 8392 H 798.906 -3.42625 5.05411 0
M  V30 8393 H 800.32 -1.22171 5.60131 0
M  V30 8394 H 798.717 -0.525898 5.97791 0
M  V30 8395 H 799.787 0.311346 4.83899 0
M  V30 8396 N 801.13 -1.57531 -0.0467866 0
M  V30 8397 C 802.06 -2.08425 -1.05268 0
M  V30 8398 C 803.041 -0.982941 -1.38825 0
M  V30 8399 O 804.226 -1.25716 -1.48018 0
M  V30 8400 C 801.356 -2.54897 -2.35891 0
M  V30 8401 C 800.31 -3.69132 -2.16623 0
M  V30 8402 C 799.636 -4.01747 -3.52851 0
M  V30 8403 C 800.936 -4.98243 -1.56689 0
M  V30 8404 H 802.63 -2.92716 -0.62908 0
M  V30 8405 H 800.176 -1.40816 -0.301156 0
M  V30 8406 H 802.129 -2.8912 -3.06574 0
M  V30 8407 H 800.853 -1.67666 -2.80278 0
M  V30 8408 H 799.512 -3.35231 -1.48377 0
M  V30 8409 H 799.16 -3.11608 -3.94853 0
M  V30 8410 H 798.86 -4.78681 -3.4079 0
M  V30 8411 H 800.384 -4.38487 -4.24925 0
M  V30 8412 H 801.798 -5.30535 -2.17268 0
M  V30 8413 H 800.195 -5.79669 -1.55255 0
M  V30 8414 H 801.265 -4.81986 -0.530827 0
M  V30 8415 N 802.608 0.318715 -1.54344 0
M  V30 8416 C 803.855 1.05608 -1.72781 0
M  V30 8417 C 804.183 1.87854 -0.504083 0
M  V30 8418 O 803.438 1.88826 0.51414 0
M  V30 8419 C 803.737 2.00514 -2.95853 0
M  V30 8420 C 803.403 1.34385 -4.30409 0
M  V30 8421 C 802.065 1.16081 -4.66989 0
M  V30 8422 C 804.417 0.869627 -5.13894 0
M  V30 8423 C 801.745 0.490114 -5.84649 0
M  V30 8424 C 804.097 0.212735 -6.32242 0
M  V30 8425 C 802.761 0.0175882 -6.67498 0
M  V30 8426 H 802.031 0.386449 -0.632249 0
M  V30 8427 H 804.678 0.332729 -1.88587 0
M  V30 8428 H 802.983 2.79317 -2.74753 0
M  V30 8429 H 804.68 2.57605 -3.07312 0
M  V30 8430 H 801.27 1.49634 -4.01631 0
M  V30 8431 H 805.454 0.998809 -4.86146 0
M  V30 8432 H 800.71 0.327767 -6.10521 0
M  V30 8433 H 804.884 -0.162699 -6.9621 0
M  V30 8434 H 802.511 -0.504137 -7.58527 0
M  V30 8435 N 804.086 1.46499 0.581025 0
M  V30 8436 C 805.363 1.42372 1.34125 0
M  V30 8437 C 805.743 0.108073 2.10823 0
M  V30 8438 O 805.091 -0.910366 2.09582 0
M  V30 8439 C 805.301 2.65445 2.26583 0
M  V30 8440 C 806.649 3.11664 2.88359 0
M  V30 8441 O 807.673 2.66006 2.36896 0
M  V30 8442 O 806.532 3.90974 3.81839 0
M  V30 8443 H 803.626 0.566262 0.602724 0
M  V30 8444 H 806.172 1.58667 0.601903 0
M  V30 8445 H 804.944 3.52756 1.69348 0
M  V30 8446 H 804.567 2.51618 3.07854 0
M  V30 8447 N 805.565 -0.825799 1.34232 0
M  V30 8448 C 806.795 -1.61129 1.29309 0
M  V30 8449 C 807.203 -1.88714 -0.135589 0
M  V30 8450 O 806.546 -1.47703 -1.09222 0
M  V30 8451 C 806.608 -2.97866 2.01287 0
M  V30 8452 C 806.272 -2.9319 3.50555 0
M  V30 8453 C 807.269 -2.67978 4.45515 0
M  V30 8454 C 804.954 -3.12913 3.92926 0
M  V30 8455 C 806.948 -2.62536 5.80822 0
M  V30 8456 C 804.635 -3.07096 5.28333 0
M  V30 8457 C 805.633 -2.8194 6.22092 0
M  V30 8458 O 805.321 -2.7605 7.55018 0
M  V30 8459 H 805.053 -0.507652 0.446391 0
M  V30 8460 H 807.607 -1.03575 1.77374 0
M  V30 8461 H 805.837 -3.57327 1.47832 0
M  V30 8462 H 807.526 -3.58848 1.89691 0
M  V30 8463 H 808.292 -2.52478 4.14101 0
M  V30 8464 H 804.171 -3.3151 3.20347 0
M  V30 8465 H 807.715 -2.42821 6.53975 0
M  V30 8466 H 803.612 -3.22148 5.59367 0
M  V30 8467 H 804.38 -2.91798 7.6472 0
M  V30 8468 N 807.043 -1.17915 -1.04565 0
M  V30 8469 C 807.973 -0.925033 -2.14395 0
M  V30 8470 C 808.954 0.135375 -1.6956 0
M  V30 8471 O 810.139 -0.0161774 -1.94193 0
M  V30 8472 C 807.269 -0.444469 -3.44444 0
M  V30 8473 C 806.223 -1.44478 -4.02877 0
M  V30 8474 C 805.549 -0.821933 -5.28345 0
M  V30 8475 C 806.849 -2.81995 -4.39632 0
M  V30 8476 H 808.543 -1.84354 -2.35911 0
M  V30 8477 H 806.089 -0.887806 -1.13375 0
M  V30 8478 H 808.042 -0.254078 -4.20633 0
M  V30 8479 H 806.766 0.509592 -3.226 0
M  V30 8480 H 805.425 -1.62203 -3.28764 0
M  V30 8481 H 805.073 0.139161 -5.02807 0
M  V30 8482 H 804.773 -1.48976 -5.68401 0
M  V30 8483 H 806.297 -0.641959 -6.07216 0
M  V30 8484 H 807.711 -2.67952 -5.06828 0
M  V30 8485 H 806.108 -3.45414 -4.90723 0
M  V30 8486 H 807.178 -3.35927 -3.49687 0
M  V30 8487 N 808.521 1.23394 -0.980386 0
M  V30 8488 C 809.769 1.91431 -0.647978 0
M  V30 8489 C 810.09 1.76871 0.821066 0
M  V30 8490 O 809.36 1.14808 1.58732 0
M  V30 8491 H 807.94 0.708516 -0.236673 0
M  V30 8492 H 810.602 1.50019 -1.2442 0
M  V30 8493 H 809.698 2.98854 -0.899592 0
M  V30 8494 N 809.999 0.752036 1.385 0
M  V30 8495 C 811.245 0.307958 2.00448 0
M  V30 8496 C 811.578 -1.10702 1.59558 0
M  V30 8497 O 810.853 -1.75788 0.832391 0
M  V30 8498 C 811.136 0.429092 3.57534 0
M  V30 8499 C 810.989 1.88507 4.08393 0
M  V30 8500 C 812.308 -0.178442 4.39738 0
M  V30 8501 H 809.427 0.113373 0.728228 0
M  V30 8502 H 812.069 0.951389 1.64465 0
M  V30 8503 H 810.219 -0.118695 3.88319 0
M  V30 8504 H 811.891 2.49104 3.88259 0
M  V30 8505 H 810.134 2.40066 3.61318 0
M  V30 8506 H 810.805 1.92099 5.17496 0
M  V30 8507 H 813.281 0.28872 4.15097 0
M  V30 8508 H 812.157 -0.0634349 5.48863 0
M  V30 8509 H 812.418 -1.26655 4.23569 0
M  V30 8510 N 811.477 -1.49425 0.500989 0
M  V30 8511 C 812.893 -1.58826 0.156951 0
M  V30 8512 C 813.093 -1.50622 -1.33848 0
M  V30 8513 O 812.149 -1.38016 -2.11442 0
M  V30 8514 C 813.462 -2.91611 0.73374 0
M  V30 8515 C 815.01 -3.05076 0.699846 0
M  V30 8516 C 815.485 -4.40479 1.2547 0
M  V30 8517 N 816.976 -4.4697 1.2154 0
M  V30 8518 C 817.711 -5.50189 1.6149 0
M  V30 8519 N 817.207 -6.60512 2.09034 0
M  V30 8520 N 819 -5.40903 1.52907 0
M  V30 8521 H 811.151 -1.53001 1.47324 0
M  V30 8522 H 813.414 -0.724765 0.61108 0
M  V30 8523 H 813.12 -3.03182 1.78251 0
M  V30 8524 H 812.994 -3.767 0.19417 0
M  V30 8525 H 815.381 -2.93134 -0.340085 0
M  V30 8526 H 815.462 -2.2167 1.27656 0
M  V30 8527 H 815.106 -4.53172 2.29341 0
M  V30 8528 H 815.036 -5.22524 0.653921 0
M  V30 8529 H 817.527 -3.67819 0.867043 0
M  V30 8530 H 817.84 -7.35372 2.37588 0
M  V30 8531 H 816.185 -6.61553 2.13008 0
M  V30 8532 H 819.376 -4.53606 1.15583 0
M  V30 8533 H 819.549 -6.21219 1.84365 0
M  V30 8534 N 812.955 -0.234822 -1.55841 0
M  V30 8535 C 813.885 0.664217 -2.23854 0
M  V30 8536 C 814.866 1.19076 -1.2147 0
M  V30 8537 O 816.051 1.23232 -1.50091 0
M  V30 8538 C 813.181 1.86666 -2.9287 0
M  V30 8539 C 812.135 1.47341 -4.01839 0
M  V30 8540 C 811.461 2.75571 -4.58219 0
M  V30 8541 C 812.761 0.653479 -5.18196 0
M  V30 8542 H 814.455 0.0971213 -2.99242 0
M  V30 8543 H 812.001 0.0452724 -1.43929 0
M  V30 8544 H 813.954 2.50116 -3.39146 0
M  V30 8545 H 812.678 2.45894 -2.1495 0
M  V30 8546 H 811.337 0.862314 -3.56314 0
M  V30 8547 H 810.985 3.32971 -3.77014 0
M  V30 8548 H 810.685 2.49987 -5.31771 0
M  V30 8549 H 812.209 3.39939 -5.07221 0
M  V30 8550 H 813.623 1.19198 -5.60771 0
M  V30 8551 H 812.02 0.494188 -5.98062 0
M  V30 8552 H 813.09 -0.337004 -4.83728 0
M  V30 8553 N 814.433 1.57553 0.0384317 0
M  V30 8554 C 815.71 1.79977 0.766002 0
M  V30 8555 C 816.09 0.830625 1.94072 0
M  V30 8556 O 815.438 -0.129243 2.28134 0
M  V30 8557 C 815.648 3.27434 1.20781 0
M  V30 8558 C 816.996 3.92167 1.62758 0
M  V30 8559 O 818.02 3.31527 1.30263 0
M  V30 8560 O 816.879 4.98917 2.23035 0
M  V30 8561 H 813.973 0.739787 0.369654 0
M  V30 8562 H 816.519 1.69693 0.0159312 0
M  V30 8563 H 815.291 3.89558 0.368792 0
M  V30 8564 H 814.914 3.42571 2.01819 0
M  V30 8565 N 815.911 -0.310526 1.54511 0
M  V30 8566 C 816.874 -1.3657 1.84068 0
M  V30 8567 C 817.874 -1.44123 0.713097 0
M  V30 8568 O 819.064 -1.43924 0.981399 0
M  V30 8569 C 816.196 -2.75162 2.01243 0
M  V30 8570 H 817.389 -1.1161 2.78358 0
M  V30 8571 H 814.942 -0.546699 1.46427 0
M  V30 8572 H 815.677 -3.05359 1.09208 0
M  V30 8573 H 815.462 -2.71071 2.83307 0
M  V30 8574 H 816.952 -3.51473 2.25514 0
M  V30 8575 N 817.389 -1.46805 -0.573248 0
M  V30 8576 C 818.637 -1.52302 -1.32847 0
M  V30 8577 C 818.958 -0.180159 -1.94166 0
M  V30 8578 O 818.228 0.794291 -1.79075 0
M  V30 8579 H 816.808 -0.56097 -0.493276 0
M  V30 8580 H 819.47 -1.82998 -0.670642 0
M  V30 8581 H 818.566 -2.28089 -2.13031 0
M  V30 8582 N 818.867 0.818669 -1.34668 0
M  V30 8583 C 819.83 1.9114 -1.26483 0
M  V30 8584 C 820.83 1.598 -0.179044 0
M  V30 8585 O 822.02 1.6876 -0.431952 0
M  V30 8586 C 819.152 3.27285 -0.95381 0
M  V30 8587 H 820.345 1.9982 -2.23634 0
M  V30 8588 H 817.898 1.01314 -1.19018 0
M  V30 8589 H 818.633 3.24297 0.0143428 0
M  V30 8590 H 818.418 3.51416 -1.73924 0
M  V30 8591 H 819.908 4.07299 -0.921827 0
M  V30 8592 N 820.346 1.18468 1.03938 0
M  V30 8593 C 821.309 0.914944 2.10146 0
M  V30 8594 C 822.309 -0.10022 1.60487 0
M  V30 8595 O 823.499 0.133365 1.73689 0
M  V30 8596 C 820.631 0.372993 3.38853 0
M  V30 8597 H 821.824 1.85677 2.35508 0
M  V30 8598 H 819.377 0.996876 1.20383 0
M  V30 8599 H 820.112 -0.57538 3.19155 0
M  V30 8600 H 819.897 1.1048 3.76213 0
M  V30 8601 H 821.387 0.203014 4.17106 0
M  V30 8602 N 821.824 -1.22873 0.986916 0
M  V30 8603 C 822.734 -2.28277 0.540978 0
M  V30 8604 C 823.75 -1.69164 -0.407363 0
M  V30 8605 O 824.926 -1.99504 -0.275674 0
M  V30 8606 C 821.991 -3.46404 -0.143181 0
M  V30 8607 C 821.052 -4.20854 0.847375 0
M  V30 8608 C 820.285 -5.33341 0.19577 0
M  V30 8609 O 820.508 -5.61356 -1.0117 0
M  V30 8610 O 819.442 -5.95169 0.897623 0
M  V30 8611 H 823.268 -2.68578 1.41773 0
M  V30 8612 H 820.853 -1.28927 0.754867 0
M  V30 8613 H 822.735 -4.18096 -0.526676 0
M  V30 8614 H 821.41 -3.08041 -0.994593 0
M  V30 8615 H 820.317 -3.51459 1.28169 0
M  V30 8616 H 821.65 -4.63082 1.6678 0
M  V30 8617 N 823.302 -0.75937 -1.38099 0
M  V30 8618 C 824.55 -0.317485 -1.99591 0
M  V30 8619 C 824.871 1.10628 -1.60581 0
M  V30 8620 O 824.141 1.7575 -0.865378 0
M  V30 8621 H 822.721 -0.114397 -0.738189 0
M  V30 8622 H 825.383 -0.974749 -1.68774 0
M  V30 8623 H 824.479 -0.385227 -3.09713 0
M  V30 8624 N 824.78 1.49157 -0.508906 0
M  V30 8625 C 825.727 2.2927 0.265288 0
M  V30 8626 C 826.697 1.3603 0.953162 0
M  V30 8627 O 827.882 1.64989 0.958291 0
M  V30 8628 C 825.022 3.18897 1.31904 0
M  V30 8629 C 824.135 4.27201 0.642144 0
M  V30 8630 C 823.27 5.04033 1.67701 0
M  V30 8631 C 822.309 6.04165 0.982422 0
M  V30 8632 N 821.446 6.74133 1.96186 0
M  V30 8633 H 826.286 2.94967 -0.424107 0
M  V30 8634 H 823.823 1.45431 -0.220991 0
M  V30 8635 H 825.781 3.69242 1.94206 0
M  V30 8636 H 824.411 2.55168 1.97709 0
M  V30 8637 H 823.463 3.80283 -0.0943395 0
M  V30 8638 H 824.775 4.98708 0.0957507 0
M  V30 8639 H 823.929 5.58287 2.37487 0
M  V30 8640 H 822.668 4.32317 2.25728 0
M  V30 8641 H 821.673 5.49135 0.270378 0
M  V30 8642 H 822.898 6.7787 0.408554 0
M  V30 8643 H 820.844 6.05183 2.53159 0
M  V30 8644 H 820.761 7.41643 1.46634 0
M  V30 8645 H 822.029 7.32987 2.65236 0
M  V30 8646 N 826.258 0.243083 1.55714 0
M  V30 8647 C 827.221 -0.644723 2.19945 0
M  V30 8648 C 828.221 -1.10562 1.16759 0
M  V30 8649 O 829.411 -1.01095 1.41865 0
M  V30 8650 C 826.543 -1.88569 2.83997 0
M  V30 8651 H 827.736 -0.0843839 2.99781 0
M  V30 8652 H 825.289 -0.00647246 1.56299 0
M  V30 8653 H 826.024 -2.48736 2.08089 0
M  V30 8654 H 825.809 -1.56345 3.59581 0
M  V30 8655 H 827.299 -2.51774 3.33166 0
M  V30 8656 N 827.736 -1.57571 -0.0300757 0
M  V30 8657 C 828.666 -2.0953 -1.03051 0
M  V30 8658 C 829.647 -0.99761 -1.37774 0
M  V30 8659 O 830.832 -1.27279 -1.46676 0
M  V30 8660 C 827.962 -2.57385 -2.33174 0
M  V30 8661 C 826.916 -3.71409 -2.12696 0
M  V30 8662 C 826.242 -4.05467 -3.4857 0
M  V30 8663 C 827.542 -4.99877 -1.51396 0
M  V30 8664 H 829.236 -2.93367 -0.597999 0
M  V30 8665 H 826.782 -1.41127 -0.286203 0
M  V30 8666 H 828.735 -2.92355 -3.03491 0
M  V30 8667 H 827.459 -1.70629 -2.78484 0
M  V30 8668 H 826.118 -3.36786 -1.44813 0
M  V30 8669 H 825.766 -3.15779 -3.91526 0
M  V30 8670 H 825.466 -4.82269 -3.35694 0
M  V30 8671 H 826.99 -4.4297 -4.2025 0
M  V30 8672 H 828.404 -5.3281 -2.11629 0
M  V30 8673 H 826.801 -5.81283 -1.49098 0
M  V30 8674 H 827.871 -4.82522 -0.479676 0
M  V30 8675 N 829.214 0.302327 -1.54673 0
M  V30 8676 C 830.439 1.06103 -1.78205 0
M  V30 8677 C 830.864 1.80204 -0.53926 0
M  V30 8678 O 830.222 1.73975 0.510142 0
M  V30 8679 C 830.27 2.01829 -2.98827 0
M  V30 8680 O 829.374 3.10108 -2.71858 0
M  V30 8681 H 828.715 0.30487 -0.589873 0
M  V30 8682 H 831.245 0.340153 -2.01753 0
M  V30 8683 H 831.255 2.44319 -3.2676 0
M  V30 8684 H 829.93 1.473 -3.88942 0
M  V30 8685 H 828.507 2.72142 -2.54937 0
M  V30 8686 N 830.692 1.47107 0.565454 0
M  V30 8687 C 831.941 1.5257 1.31929 0
M  V30 8688 C 832.254 0.189092 1.94684 0
M  V30 8689 O 833.46 0.121657 2.71227 0
M  V30 8690 C 831.916 2.68914 2.39193 0
M  V30 8691 C 831.524 4.09069 1.82665 0
M  V30 8692 C 833.268 2.83663 3.1581 0
M  V30 8693 C 831.175 5.16726 2.87661 0
M  V30 8694 H 830.105 0.567869 0.496025 0
M  V30 8695 H 832.756 1.73361 0.60151 0
M  V30 8696 H 831.138 2.41486 3.13848 0
M  V30 8697 H 832.312 4.46364 1.14438 0
M  V30 8698 H 830.627 3.99135 1.1866 0
M  V30 8699 H 833.224 3.61261 3.94201 0
M  V30 8700 H 833.567 1.91804 3.69482 0
M  V30 8701 H 834.1 3.10821 2.48265 0
M  V30 8702 H 830.839 6.10433 2.38854 0
M  V30 8703 H 830.359 4.83957 3.54324 0
M  V30 8704 H 832.038 5.43319 3.51303 0
M  V30 8705 N 832.17 -0.811516 1.35101 0
M  V30 8706 C 833.118 -1.94449 1.27642 0
M  V30 8707 C 834.112 -1.68522 0.172287 0
M  V30 8708 O 835.318 -1.76799 0.337967 0
M  V30 8709 H 831.693 -0.638776 0.396824 0
M  V30 8710 H 833.664 -1.97861 2.23369 0
M  V30 8711 C 832.413 -3.31139 1.06029 0
M  V30 8712 H 831.736 -3.51644 1.90227 0
M  V30 8713 H 833.176 -4.10831 1.0485 0
M  V30 8714 C 831.635 -3.36072 -0.236039 0
M  V30 8715 O 832.165 -3.82292 -1.23353 0
M  V30 8716 N 830.371 -2.89314 -0.273107 0
M  V30 8717 H 829.918 -2.51893 0.539211 0
M  V30 8718 H 829.876 -2.92996 -1.1402 0
M  V30 8719 N 833.648 -1.19017 -1.03309 0
M  V30 8720 C 834.578 -0.94772 -2.13402 0
M  V30 8721 C 835.559 0.117383 -1.69694 0
M  V30 8722 O 836.744 -0.0367733 -1.94165 0
M  V30 8723 C 833.874 -0.480977 -3.43953 0
M  V30 8724 C 832.828 -1.48743 -4.01322 0
M  V30 8725 C 832.154 -0.877924 -5.27443 0
M  V30 8726 C 833.454 -2.86642 -4.36616 0
M  V30 8727 H 835.148 -1.86846 -2.33942 0
M  V30 8728 H 832.694 -0.899781 -1.12427 0
M  V30 8729 H 834.647 -0.298677 -4.2034 0
M  V30 8730 H 833.371 0.475348 -3.23122 0
M  V30 8731 H 832.03 -1.65681 -3.27025 0
M  V30 8732 H 831.678 0.0858232 -5.02927 0
M  V30 8733 H 831.378 -1.54996 -5.66789 0
M  V30 8734 H 832.902 -0.706326 -6.06501 0
M  V30 8735 H 834.316 -2.73312 -5.03958 0
M  V30 8736 H 832.713 -3.50599 -4.87032 0
M  V30 8737 H 833.783 -3.39617 -3.46105 0
M  V30 8738 N 835.127 1.22348 -0.993418 0
M  V30 8739 C 836.543 1.43222 -0.704238 0
M  V30 8740 C 836.743 1.88009 0.724909 0
M  V30 8741 O 835.799 2.03429 1.49575 0
M  V30 8742 C 837.112 2.47328 -1.71025 0
M  V30 8743 C 838.66 2.61126 -1.72576 0
M  V30 8744 C 839.135 3.68453 -2.72041 0
M  V30 8745 N 840.626 3.75911 -2.70639 0
M  V30 8746 C 841.361 4.58551 -3.44266 0
M  V30 8747 N 840.857 5.45179 -4.27495 0
M  V30 8748 N 842.65 4.52866 -3.32969 0
M  V30 8749 H 834.801 0.915832 -1.91641 0
M  V30 8750 H 837.064 0.464283 -0.826526 0
M  V30 8751 H 836.77 2.21366 -2.73295 0
M  V30 8752 H 836.644 3.45939 -1.50353 0
M  V30 8753 H 839.031 2.86431 -0.710037 0
M  V30 8754 H 839.112 1.62787 -1.97317 0
M  V30 8755 H 838.756 3.43895 -3.73763 0
M  V30 8756 H 838.686 4.66362 -2.4457 0
M  V30 8757 H 841.177 3.14014 -2.10247 0
M  V30 8758 H 841.49 6.0526 -4.80499 0
M  V30 8759 H 839.835 5.44759 -4.31582 0
M  V30 8760 H 843.026 3.84215 -2.67389 0
M  V30 8761 H 843.199 5.17039 -3.90608 0
M  V30 8762 N 836.605 0.766683 1.37694 0
M  V30 8763 C 837.535 0.163432 2.32927 0
M  V30 8764 C 838.516 -0.688861 1.55527 0
M  V30 8765 O 839.701 -0.627363 1.83787 0
M  V30 8766 C 836.831 -0.720416 3.39746 0
M  V30 8767 C 835.785 0.0301718 4.27989 0
M  V30 8768 C 835.111 -0.972788 5.25776 0
M  V30 8769 C 836.411 1.20623 5.0818 0
M  V30 8770 H 838.105 0.958988 2.83626 0
M  V30 8771 H 835.651 0.462601 1.36367 0
M  V30 8772 H 837.604 -1.15221 4.05342 0
M  V30 8773 H 836.328 -1.54844 2.8756 0
M  V30 8774 H 834.987 0.442685 3.63917 0
M  V30 8775 H 834.635 -1.79522 4.69873 0
M  V30 8776 H 834.335 -0.475145 5.85676 0
M  V30 8777 H 835.859 -1.40362 5.94248 0
M  V30 8778 H 837.273 0.851341 5.66944 0
M  V30 8779 H 835.67 1.63561 5.7738 0
M  V30 8780 H 836.74 2.01281 4.41151 0
M  V30 8781 N 838.083 -1.48885 0.516809 0
M  V30 8782 C 839.494 -1.86557 0.0729921 0
M  V30 8783 C 839.845 -1.42767 -1.34581 0
M  V30 8784 O 838.97 -0.812514 -2.00567 0
M  V30 8785 C 839.565 -3.38567 0.125686 0
M  V30 8786 C 838.124 -3.75481 -0.262867 0
M  V30 8787 C 837.271 -2.72913 0.491281 0
M  V30 8788 H 840.222 -1.40978 0.728767 0
M  V30 8789 H 840.243 -3.74629 -0.665831 0
M  V30 8790 H 839.755 -3.70408 1.15842 0
M  V30 8791 H 837.856 -3.49251 -1.29824 0
M  V30 8792 H 837.969 -4.79052 0.067579 0
M  V30 8793 H 836.333 -2.54627 -0.0608525 0
M  V30 8794 H 837.116 -3.07599 1.5244 0
M  V30 8795 N 839.561 -0.251338 -1.55583 0
M  V30 8796 C 840.838 0.422729 -1.90977 0
M  V30 8797 C 841.218 1.75534 -1.17265 0
M  V30 8798 O 840.566 2.26632 -0.291588 0
M  V30 8799 C 840.776 0.586448 -3.44037 0
M  V30 8800 C 842.124 0.880294 -4.15375 0
M  V30 8801 O 843.148 0.672148 -3.49801 0
M  V30 8802 O 842.007 1.27694 -5.31372 0
M  V30 8803 H 839.101 0.227622 -0.795058 0
M  V30 8804 H 841.647 -0.295733 -1.67103 0
M  V30 8805 H 840.419 -0.352327 -3.89711 0
M  V30 8806 H 840.042 1.35528 -3.73789 0
M  V30 8807 N 841.039 1.57585 0.0217189 0
M  V30 8808 C 842.288 1.88786 0.710125 0
M  V30 8809 C 842.601 0.850819 1.76126 0
M  V30 8810 O 843.807 1.0523 2.50277 0
M  V30 8811 C 842.263 3.3505 1.31413 0
M  V30 8812 C 841.871 4.47001 0.298959 0
M  V30 8813 C 843.615 3.7539 1.98199 0
M  V30 8814 C 841.522 5.8433 0.911727 0
M  V30 8815 H 840.452 0.704388 0.268986 0
M  V30 8816 H 843.103 1.83466 -0.0352638 0
M  V30 8817 H 841.485 3.35138 2.10947 0
M  V30 8818 H 842.659 4.58395 -0.470203 0
M  V30 8819 H 840.974 4.15542 -0.267222 0
M  V30 8820 H 843.571 4.75314 2.4491 0
M  V30 8821 H 843.914 3.07766 2.80331 0
M  V30 8822 H 844.447 3.77508 1.2543 0
M  V30 8823 H 841.186 6.55372 0.129659 0
M  V30 8824 H 840.706 5.76643 1.65056 0
M  V30 8825 H 842.385 6.31295 1.41688 0
M  V30 8826 N 842.517 -0.29412 1.54831 0
M  V30 8827 C 843.765 -1.02643 1.74094 0
M  V30 8828 C 844.086 -1.87563 0.533402 0
M  V30 8829 O 843.356 -1.9061 -0.452192 0
M  V30 8830 H 841.936 -0.381959 0.641963 0
M  V30 8831 H 844.598 -0.323444 1.92197 0
M  V30 8832 H 843.694 -1.67558 2.63307 0
M  V30 8833 N 843.995 -1.47404 -0.557645 0
M  V30 8834 C 844.905 -1.62491 -1.69216 0
M  V30 8835 C 845.921 -0.507764 -1.66426 0
M  V30 8836 O 847.097 -0.775241 -1.85882 0
M  V30 8837 C 844.162 -1.63511 -3.05721 0
M  V30 8838 C 843.223 -2.86648 -3.1958 0
M  V30 8839 C 842.456 -2.87609 -4.49574 0
M  V30 8840 O 842.679 -1.97799 -5.35006 0
M  V30 8841 O 841.613 -3.79465 -4.67215 0
M  V30 8842 H 845.439 -2.58487 -1.59431 0
M  V30 8843 H 843.024 -1.30485 -0.7276 0
M  V30 8844 H 844.906 -1.66863 -3.86956 0
M  V30 8845 H 843.581 -0.706812 -3.15889 0
M  V30 8846 H 842.488 -2.8884 -2.37744 0
M  V30 8847 H 843.821 -3.7877 -3.14316 0
M  V30 8848 N 845.473 0.80434 -1.35529 0
M  V30 8849 C 846.421 1.93769 -1.28671 0
M  V30 8850 C 847.415 1.68428 -0.181222 0
M  V30 8851 O 848.621 1.76617 -0.347338 0
M  V30 8852 H 844.996 0.636663 -0.400206 0
M  V30 8853 H 846.967 1.96673 -2.24415 0
M  V30 8854 C 845.716 3.30572 -1.07784 0
M  V30 8855 H 845.039 3.5063 -1.9209 0
M  V30 8856 H 846.479 4.1027 -1.07027 0
M  V30 8857 C 844.938 3.36193 0.218213 0
M  V30 8858 O 845.468 3.82941 1.21323 0
M  V30 8859 N 843.674 2.89455 0.257761 0
M  V30 8860 H 843.221 2.51604 -0.552562 0
M  V30 8861 H 843.179 2.93597 1.12465 0
M  V30 8862 N 846.951 1.19563 1.02676 0
M  V30 8863 C 848.181 1.0234 1.79472 0
M  V30 8864 C 848.589 -0.430891 1.84228 0
M  V30 8865 O 847.932 -1.31106 1.28674 0
M  V30 8866 C 847.994 1.51901 3.25832 0
M  V30 8867 C 847.658 3.00045 3.44706 0
M  V30 8868 C 848.655 3.9779 3.34752 0
M  V30 8869 C 846.34 3.38784 3.70851 0
M  V30 8870 C 848.334 5.32267 3.50672 0
M  V30 8871 C 846.021 4.73419 3.86416 0
M  V30 8872 C 847.019 5.69969 3.7633 0
M  V30 8873 O 846.707 7.02165 3.91432 0
M  V30 8874 H 846.439 0.360936 0.571578 0
M  V30 8875 H 848.993 1.58863 1.30198 0
M  V30 8876 H 847.223 0.897546 3.7614 0
M  V30 8877 H 848.912 1.30853 3.84229 0
M  V30 8878 H 849.678 3.69207 3.14502 0
M  V30 8879 H 845.557 2.64183 3.77794 0
M  V30 8880 H 849.101 6.07612 3.42715 0
M  V30 8881 H 844.998 5.01697 4.06165 0
M  V30 8882 H 845.766 7.09268 4.08511 0
M  V30 8883 N 848.429 -1.21819 0.999893 0
M  V30 8884 C 849.359 -2.26282 0.576096 0
M  V30 8885 C 850.34 -1.65317 -0.400537 0
M  V30 8886 O 851.525 -1.92028 -0.28964 0
M  V30 8887 C 848.655 -3.47147 -0.103145 0
M  V30 8888 C 847.609 -4.20594 0.792745 0
M  V30 8889 C 846.935 -5.34696 -0.0198026 0
M  V30 8890 C 848.235 -4.78533 2.09293 0
M  V30 8891 H 849.929 -2.61984 1.4493 0
M  V30 8892 H 847.475 -1.25935 0.698316 0
M  V30 8893 H 849.428 -4.1939 -0.411068 0
M  V30 8894 H 848.152 -3.1056 -1.01094 0
M  V30 8895 H 846.811 -3.50194 1.08442 0
M  V30 8896 H 846.459 -4.94352 -0.928729 0
M  V30 8897 H 846.159 -5.84764 0.576661 0
M  V30 8898 H 847.683 -6.09752 -0.321659 0
M  V30 8899 H 849.097 -5.42682 1.8485 0
M  V30 8900 H 847.494 -5.38968 2.63881 0
M  V30 8901 H 848.564 -3.98197 2.76708 0
M  V30 8902 N 849.908 -0.773975 -1.37286 0
M  V30 8903 C 850.838 -0.175782 -2.32837 0
M  V30 8904 C 851.819 0.680603 -1.5589 0
M  V30 8905 O 853.004 0.617607 -1.84117 0
M  V30 8906 C 850.134 0.702388 -3.40123 0
M  V30 8907 C 849.088 -0.0528687 -4.27967 0
M  V30 8908 C 848.414 0.944891 -5.26285 0
M  V30 8909 C 849.714 -1.23316 -5.07534 0
M  V30 8910 H 851.408 -0.974016 -2.83114 0
M  V30 8911 H 848.954 -0.469826 -1.3612 0
M  V30 8912 H 850.907 1.13069 -4.05947 0
M  V30 8913 H 849.631 1.53316 -2.88378 0
M  V30 8914 H 848.29 -0.461978 -3.63678 0
M  V30 8915 H 847.938 1.77028 -4.70819 0
M  V30 8916 H 847.638 0.444079 -5.8592 0
M  V30 8917 H 849.162 1.37209 -5.94984 0
M  V30 8918 H 850.576 -0.881395 -5.66484 0
M  V30 8919 H 848.973 -1.66621 -5.76504 0
M  V30 8920 H 850.043 -2.03617 -4.40077 0
M  V30 8921 N 851.386 1.48609 -0.524698 0
M  V30 8922 C 852.296 2.33318 0.244923 0
M  V30 8923 C 853.312 1.46153 0.944214 0
M  V30 8924 O 854.488 1.79141 0.920347 0
M  V30 8925 C 851.553 3.22149 1.28144 0
M  V30 8926 C 850.614 4.25184 0.593068 0
M  V30 8927 C 849.847 5.0977 1.5802 0
M  V30 8928 O 850.07 4.96249 2.81235 0
M  V30 8929 O 849.004 5.9134 1.1225 0
M  V30 8930 H 852.83 3.00362 -0.449066 0
M  V30 8931 H 850.415 1.46643 -0.285689 0
M  V30 8932 H 852.297 3.77111 1.88057 0
M  V30 8933 H 850.972 2.57772 1.95793 0
M  V30 8934 H 849.879 3.74071 -0.0464214 0
M  V30 8935 H 851.212 4.92183 -0.0413893 0
M  V30 8936 N 852.864 0.259585 1.55447 0
M  V30 8937 C 853.794 -0.62852 2.24882 0
M  V30 8938 C 854.775 -1.17128 1.23349 0
M  V30 8939 O 855.96 -1.20829 1.52033 0
M  V30 8940 C 853.09 -1.81983 2.95803 0
M  V30 8941 C 852.044 -1.40929 4.04132 0
M  V30 8942 C 851.37 -2.68246 4.62545 0
M  V30 8943 C 852.67 -0.570956 5.1917 0
M  V30 8944 H 854.364 -0.0495021 2.99359 0
M  V30 8945 H 851.91 -0.0223688 1.43983 0
M  V30 8946 H 853.863 -2.44689 3.43082 0
M  V30 8947 H 852.587 -2.42444 2.18835 0
M  V30 8948 H 851.246 -0.805519 3.57641 0
M  V30 8949 H 850.894 -3.26931 3.82263 0
M  V30 8950 H 850.594 -2.41495 5.35681 0
M  V30 8951 H 852.118 -3.31827 5.12565 0
M  V30 8952 H 853.532 -1.10262 5.62597 0
M  V30 8953 H 851.929 -0.398979 5.98772 0
M  V30 8954 H 852.999 0.413918 4.8313 0
M  V30 8955 N 854.342 -1.57594 -0.0133615 0
M  V30 8956 C 855.289 -2.07574 -1.00905 0
M  V30 8957 C 856.259 -0.968231 -1.34961 0
M  V30 8958 O 857.444 -1.23981 -1.45028 0
M  V30 8959 C 854.584 -2.5728 -2.30002 0
M  V30 8960 C 853.697 -3.81881 -2.01967 0
M  V30 8961 C 852.832 -4.20139 -3.25049 0
M  V30 8962 C 851.871 -5.37614 -2.92639 0
M  V30 8963 N 851.008 -5.71229 -4.08218 0
M  V30 8964 H 855.848 -2.92382 -0.575899 0
M  V30 8965 H 853.385 -1.4455 -0.272722 0
M  V30 8966 H 855.343 -2.84171 -3.05454 0
M  V30 8967 H 853.973 -1.75365 -2.71011 0
M  V30 8968 H 853.025 -3.61979 -1.16942 0
M  V30 8969 H 854.337 -4.67441 -1.74069 0
M  V30 8970 H 853.491 -4.48242 -4.08857 0
M  V30 8971 H 852.23 -3.33262 -3.56073 0
M  V30 8972 H 851.235 -5.09248 -2.07235 0
M  V30 8973 H 852.46 -6.26157 -2.62876 0
M  V30 8974 H 850.406 -4.8731 -4.39164 0
M  V30 8975 H 850.323 -6.51333 -3.83799 0
M  V30 8976 H 851.591 -6.03917 -4.92854 0
M  V30 8977 N 855.82 0.285905 -1.54985 0
M  V30 8978 C 856.768 1.37302 -1.87752 0
M  V30 8979 C 857.762 1.51763 -0.752616 0
M  V30 8980 O 858.968 1.53701 -0.936805 0
M  V30 8981 H 855.343 0.458935 -0.59572 0
M  V30 8982 H 857.314 1.0691 -2.78591 0
M  V30 8983 C 856.063 2.72885 -2.15474 0
M  V30 8984 H 855.386 2.62545 -3.01513 0
M  V30 8985 H 856.826 3.47925 -2.42331 0
M  V30 8986 C 855.285 3.22989 -0.958124 0
M  V30 8987 O 855.815 4.01268 -0.186219 0
M  V30 8988 N 854.021 2.80503 -0.759354 0
M  V30 8989 H 853.568 2.16961 -1.38874 0
M  V30 8990 H 853.526 3.14375 0.0396937 0
M  V30 8991 N 857.298 1.47698 0.54982 0
M  V30 8992 C 858.523 1.58579 1.33669 0
M  V30 8993 C 858.948 0.239049 1.86575 0
M  V30 8994 O 858.306 -0.786256 1.63364 0
M  V30 8995 C 858.354 2.62029 2.47736 0
M  V30 8996 O 857.458 2.17813 3.50188 0
M  V30 8997 H 856.799 0.532447 0.396732 0
M  V30 8998 H 859.329 1.93536 0.6637 0
M  V30 8999 H 859.339 2.82682 2.94202 0
M  V30 9000 H 858.014 3.59812 2.08586 0
M  V30 9001 H 856.591 2.07291 3.09976 0
M  V30 9002 N 858.776 -0.797141 1.35954 0
M  V30 9003 C 859.726 -1.89899 1.26184 0
M  V30 9004 C 860.71 -1.60152 0.155007 0
M  V30 9005 O 861.902 -1.72715 0.387108 0
M  V30 9006 C 859.031 -3.2699 1.04559 0
M  V30 9007 C 858.117 -3.62772 2.19675 0
M  V30 9008 N 858.508 -3.6992 3.44953 0
M  V30 9009 C 856.806 -3.92786 2.1127 0
M  V30 9010 C 857.507 -4.01718 4.20711 0
M  V30 9011 N 856.483 -4.16298 3.49567 0
M  V30 9012 H 860.285 -1.9364 2.2109 0
M  V30 9013 H 857.799 -0.992246 1.28562 0
M  V30 9014 H 859.796 -4.0578 0.956474 0
M  V30 9015 H 858.456 -3.24529 0.105467 0
M  V30 9016 H 859.467 -3.52759 3.79185 0
M  V30 9017 H 856.144 -3.98295 1.25168 0
M  V30 9018 H 857.534 -4.14237 5.29016 0
M  V30 9019 N 860.254 -1.20106 -1.0204 0
M  V30 9020 C 861.184 -0.970301 -2.12385 0
M  V30 9021 C 862.165 0.099378 -1.69809 0
M  V30 9022 O 863.35 -0.057365 -1.94115 0
M  V30 9023 C 860.48 -0.517431 -3.43424 0
M  V30 9024 C 859.434 -1.52992 -3.99722 0
M  V30 9025 C 858.76 -0.933817 -5.26483 0
M  V30 9026 C 860.06 -2.91257 -4.33551 0
M  V30 9027 H 861.754 -1.89316 -2.31948 0
M  V30 9028 H 859.3 -0.911655 -1.11467 0
M  V30 9029 H 861.253 -0.343243 -4.2 0
M  V30 9030 H 859.977 0.441049 -3.23608 0
M  V30 9031 H 858.636 -1.6914 -3.2525 0
M  V30 9032 H 858.284 0.0324763 -5.0299 0
M  V30 9033 H 857.984 -1.60999 -5.65113 0
M  V30 9034 H 859.508 -0.770614 -6.05718 0
M  V30 9035 H 860.922 -2.78642 -5.0103 0
M  V30 9036 H 859.319 -3.55745 -4.83286 0
M  V30 9037 H 860.389 -3.43269 -3.42483 0
M  V30 9038 N 861.732 1.21287 -1.00634 0
M  V30 9039 C 862.68 2.25733 -0.561026 0
M  V30 9040 C 863.674 1.64728 0.395095 0
M  V30 9041 O 864.88 1.78022 0.266141 0
M  V30 9042 H 861.255 0.734104 -0.163081 0
M  V30 9043 H 863.226 2.60631 -1.45307 0
M  V30 9044 C 861.975 3.47569 0.0952587 0
M  V30 9045 H 861.298 3.94782 -0.631427 0
M  V30 9046 H 862.738 4.22382 0.370105 0
M  V30 9047 C 861.197 3.09326 1.33488 0
M  V30 9048 O 861.727 3.19933 2.42912 0
M  V30 9049 N 859.933 2.63976 1.21512 0
M  V30 9050 H 859.48 2.55545 0.324741 0
M  V30 9051 H 859.438 2.38757 2.04555 0
M  V30 9052 N 863.21 0.781244 1.36873 0
M  V30 9053 C 864.158 0.161889 2.32036 0
M  V30 9054 C 865.152 -0.674225 1.55405 0
M  V30 9055 O 866.358 -0.570223 1.70729 0
M  V30 9056 H 862.733 0.0335702 0.75125 0
M  V30 9057 H 864.704 0.980078 2.81846 0
M  V30 9058 C 863.453 -0.695352 3.40676 0
M  V30 9059 H 862.776 -0.0613425 3.99753 0
M  V30 9060 H 864.216 -1.09553 4.09602 0
M  V30 9061 C 862.675 -1.85008 2.81556 0
M  V30 9062 O 863.205 -2.94616 2.73065 0
M  V30 9063 N 861.411 -1.65364 2.38962 0
M  V30 9064 H 860.958 -0.762106 2.46068 0
M  V30 9065 H 860.916 -2.42789 1.99752 0
M  V30 9066 N 864.689 -1.48329 0.532571 0
M  V30 9067 C 865.619 -2.32485 -0.217511 0
M  V30 9068 C 866.6 -1.42255 -0.932598 0
M  V30 9069 O 867.785 -1.7114 -0.917873 0
M  V30 9070 C 864.915 -3.23509 -1.26329 0
M  V30 9071 C 863.869 -4.22784 -0.666191 0
M  V30 9072 C 863.195 -5.0296 -1.81482 0
M  V30 9073 C 864.495 -5.21031 0.363813 0
M  V30 9074 H 866.189 -2.95445 0.485014 0
M  V30 9075 H 863.735 -1.42075 0.234694 0
M  V30 9076 H 865.688 -3.81211 -1.79601 0
M  V30 9077 H 864.412 -2.58554 -1.99543 0
M  V30 9078 H 863.071 -3.66272 -0.15498 0
M  V30 9079 H 862.719 -4.34427 -2.5354 0
M  V30 9080 H 862.419 -5.70154 -1.4212 0
M  V30 9081 H 863.943 -5.63514 -2.35126 0
M  V30 9082 H 865.357 -5.73241 -0.0819079 0
M  V30 9083 H 863.754 -5.96292 0.674956 0
M  V30 9084 H 864.824 -4.6801 1.26865 0
M  V30 9085 N 866.167 -0.267825 -1.55308 0
M  V30 9086 C 867.583 0.0865107 -1.59365 0
M  V30 9087 C 867.783 1.55205 -1.28505 0
M  V30 9088 O 866.839 2.29978 -1.04241 0
M  V30 9089 C 868.152 -0.28155 -2.99379 0
M  V30 9090 C 869.7 -0.227565 -3.12172 0
M  V30 9091 C 870.175 -0.569959 -4.5444 0
M  V30 9092 N 871.666 -0.521238 -4.60258 0
M  V30 9093 C 872.401 -0.759061 -5.68354 0
M  V30 9094 N 871.897 -1.06112 -6.84626 0
M  V30 9095 N 873.69 -0.688351 -5.57869 0
M  V30 9096 H 865.841 -1.22332 -1.73633 0
M  V30 9097 H 868.104 -0.493703 -0.809297 0
M  V30 9098 H 867.81 -1.3005 -3.26772 0
M  V30 9099 H 867.684 0.381192 -3.75269 0
M  V30 9100 H 870.071 0.782093 -2.84548 0
M  V30 9101 H 870.152 -0.924461 -2.38511 0
M  V30 9102 H 869.796 -1.57727 -4.82788 0
M  V30 9103 H 869.726 0.148646 -5.2639 0
M  V30 9104 H 872.217 -0.297359 -3.76728 0
M  V30 9105 H 872.53 -1.22945 -7.62958 0
M  V30 9106 H 870.875 -1.09881 -6.86259 0
M  V30 9107 H 874.066 -0.452268 -4.6591 0
M  V30 9108 H 874.239 -0.877081 -6.42037 0
M  V30 9109 N 867.645 1.57599 0.00500368 0
M  V30 9110 C 868.893 1.89973 0.68953 0
M  V30 9111 C 869.214 0.868531 1.7459 0
M  V30 9112 O 868.484 -0.0947367 1.95671 0
M  V30 9113 H 867.064 0.701153 0.25767 0
M  V30 9114 H 869.726 1.94869 -0.0347392 0
M  V30 9115 H 868.822 2.89584 1.16394 0
M  V30 9116 N 869.123 -0.277682 1.55134 0
M  V30 9117 C 870.369 -1.0114 1.7578 0
M  V30 9118 C 870.702 -1.86109 0.554719 0
M  V30 9119 O 869.977 -1.89275 -0.447813 0
M  V30 9120 C 870.26 -1.89789 3.06027 0
M  V30 9121 C 870.113 -1.07844 4.3668 0
M  V30 9122 C 871.432 -2.88577 3.32282 0
M  V30 9123 H 868.551 -0.366277 0.639539 0
M  V30 9124 H 871.193 -0.284155 1.87863 0
M  V30 9125 H 869.343 -2.51796 2.95856 0
M  V30 9126 H 871.015 -0.479432 4.58802 0
M  V30 9127 H 869.258 -0.381764 4.32117 0
M  V30 9128 H 869.929 -1.73179 5.24131 0
M  V30 9129 H 872.405 -2.36702 3.42215 0
M  V30 9130 H 871.281 -3.47749 4.2469 0
M  V30 9131 H 871.542 -3.63458 2.51696 0
M  V30 9132 N 870.601 -1.47988 -0.541979 0
M  V30 9133 C 871.533 -1.5769 -1.66332 0
M  V30 9134 C 872.546 -0.461994 -1.56107 0
M  V30 9135 O 873.735 -0.732306 -1.62787 0
M  V30 9136 C 870.835 -1.47939 -3.04905 0
M  V30 9137 C 870.008 -2.74263 -3.40733 0
M  V30 9138 C 869.067 -2.58133 -4.58534 0
M  V30 9139 O 868.093 -3.31991 -4.62354 0
M  V30 9140 N 869.295 -1.6696 -5.55972 0
M  V30 9141 H 872.06 -2.54389 -1.5845 0
M  V30 9142 H 869.621 -1.4456 -0.728979 0
M  V30 9143 H 871.613 -1.34861 -3.81569 0
M  V30 9144 H 870.183 -0.592626 -3.06931 0
M  V30 9145 H 869.403 -3.01992 -2.53366 0
M  V30 9146 H 870.691 -3.58094 -3.6145 0
M  V30 9147 H 870.089 -1.06134 -5.55655 0
M  V30 9148 H 868.646 -1.59826 -6.31901 0
M  V30 9149 N 872.079 0.78992 -1.36375 0
M  V30 9150 C 873.304 1.58389 -1.33895 0
M  V30 9151 C 873.729 1.8794 0.0774934 0
M  V30 9152 O 873.087 1.4785 1.0493 0
M  V30 9153 C 873.135 2.88201 -2.16732 0
M  V30 9154 O 872.239 3.81778 -1.55946 0
M  V30 9155 H 871.58 0.480471 -0.458305 0
M  V30 9156 H 874.11 0.979119 -1.79651 0
M  V30 9157 H 874.12 3.37475 -2.29292 0
M  V30 9158 H 872.795 2.66019 -3.19698 0
M  V30 9159 H 871.372 3.40371 -1.52323 0
M  V30 9160 N 873.557 1.20646 1.01402 0
M  V30 9161 C 874.467 0.973385 2.13453 0
M  V30 9162 C 875.483 -0.0715865 1.73853 0
M  V30 9163 O 876.659 0.116438 2.01063 0
M  V30 9164 C 873.724 0.531285 3.42605 0
M  V30 9165 C 872.785 1.64741 3.96433 0
M  V30 9166 C 872.018 1.22631 5.1942 0
M  V30 9167 O 872.241 0.0960891 5.70319 0
M  V30 9168 O 871.175 2.03474 5.66465 0
M  V30 9169 H 875.001 1.91164 2.35987 0
M  V30 9170 H 872.586 0.990553 1.11841 0
M  V30 9171 H 874.468 0.294095 4.20373 0
M  V30 9172 H 873.143 -0.378358 3.21481 0
M  V30 9173 H 872.05 1.93891 3.19933 0
M  V30 9174 H 873.383 2.53415 4.2195 0
M  V30 9175 N 875.035 -1.20752 1.01276 0
M  V30 9176 C 876.312 -1.85676 0.615112 0
M  V30 9177 C 876.692 -1.90623 -0.906976 0
M  V30 9178 O 876.04 -1.41124 -1.79712 0
M  V30 9179 C 876.25 -3.2552 1.25847 0
M  V30 9180 C 877.598 -4.0184 1.37148 0
M  V30 9181 O 878.622 -3.3486 1.21438 0
M  V30 9182 O 877.481 -5.21783 1.62495 0
M  V30 9183 H 874.575 -0.799437 0.211729 0
M  V30 9184 H 877.121 -1.28372 1.10989 0
M  V30 9185 H 875.893 -3.16664 2.29869 0
M  V30 9186 H 875.516 -3.90452 0.750524 0
M  V30 9187 N 876.513 -0.788492 -1.36457 0
M  V30 9188 C 877.476 -0.192209 -2.28393 0
M  V30 9189 C 878.476 0.609916 -1.48784 0
M  V30 9190 O 879.666 0.431046 -1.68783 0
M  V30 9191 C 876.798 0.734096 -3.32902 0
M  V30 9192 H 877.991 -1.00284 -2.82636 0
M  V30 9193 H 875.544 -0.557852 -1.46006 0
M  V30 9194 H 876.279 1.5691 -2.83813 0
M  V30 9195 H 876.064 0.160875 -3.9177 0
M  V30 9196 H 877.554 1.1462 -4.01562 0
M  V30 9197 N 877.991 1.48044 -0.54043 0
M  V30 9198 C 879.239 2.02097 -0.0101367 0
M  V30 9199 C 879.56 1.41881 1.33771 0
M  V30 9200 O 878.83 0.587923 1.8687 0
M  V30 9201 H 877.41 0.747 -0.000758716 0
M  V30 9202 H 880.072 1.81639 -0.706634 0
M  V30 9203 H 879.168 3.11969 0.0904474 0
M  V30 9204 N 879.47 0.276058 1.55163 0
M  V30 9205 C 880.402 -0.644254 2.19959 0
M  V30 9206 C 881.415 -1.11675 1.18459 0
M  V30 9207 O 882.604 -1.0385 1.45181 0
M  V30 9208 C 879.704 -1.89093 2.81242 0
M  V30 9209 C 878.877 -1.56509 4.08441 0
M  V30 9210 C 877.936 -2.66433 4.53762 0
M  V30 9211 O 876.962 -2.32579 5.19515 0
M  V30 9212 N 878.164 -3.96509 4.23982 0
M  V30 9213 H 880.929 -0.0896808 2.99566 0
M  V30 9214 H 878.49 0.0971981 1.61608 0
M  V30 9215 H 880.482 -2.61929 3.08505 0
M  V30 9216 H 879.052 -2.35453 2.05622 0
M  V30 9217 H 878.272 -0.670522 3.88455 0
M  V30 9218 H 879.56 -1.32242 4.91314 0
M  V30 9219 H 878.958 -4.26834 3.71254 0
M  V30 9220 H 877.515 -4.6572 4.56014 0
M  V30 9221 N 880.948 -1.576 0.00335426 0
M  V30 9222 C 882.176 -1.94996 -0.691685 0
M  V30 9223 C 882.591 -0.878405 -1.67121 0
M  V30 9224 O 881.948 0.142343 -1.81944 0
M  V30 9225 C 881.999 -3.32416 -1.42063 0
M  V30 9226 O 881.72 -4.35458 -0.48038 0
M  V30 9227 C 883.221 -3.84291 -2.20987 0
M  V30 9228 H 880.441 -0.642814 -0.192434 0
M  V30 9229 H 882.985 -2.04425 0.0554706 0
M  V30 9230 H 881.14 -3.24285 -2.11939 0
M  V30 9231 H 881.554 -5.14975 -0.995054 0
M  V30 9232 H 883.028 -4.82863 -2.67483 0
M  V30 9233 H 883.505 -3.17174 -3.03805 0
M  V30 9234 H 884.111 -3.95609 -1.56121 0
M  V30 9235 N 882.426 0.269451 -1.5528 0
M  V30 9236 C 883.672 1.00206 -1.76314 0
M  V30 9237 C 884.005 1.85812 -0.564581 0
M  V30 9238 O 883.28 1.89509 0.437769 0
M  V30 9239 C 883.563 1.88163 -3.07029 0
M  V30 9240 C 883.416 1.05527 -4.37246 0
M  V30 9241 C 884.735 2.8681 -3.33808 0
M  V30 9242 H 881.854 0.36288 -0.641473 0
M  V30 9243 H 884.496 0.274188 -1.88011 0
M  V30 9244 H 882.646 2.50224 -2.97187 0
M  V30 9245 H 884.318 0.455094 -4.5905 0
M  V30 9246 H 882.561 0.358842 -4.32313 0
M  V30 9247 H 883.232 1.70397 -5.25042 0
M  V30 9248 H 885.708 2.34884 -3.43466 0
M  V30 9249 H 884.584 3.45492 -4.26528 0
M  V30 9250 H 884.845 3.62118 -2.5362 0
M  V30 9251 N 883.904 1.48273 0.534124 0
M  V30 9252 C 885.129 1.59988 1.31979 0
M  V30 9253 C 885.554 0.258824 1.86311 0
M  V30 9254 O 884.912 -0.768885 1.64188 0
M  V30 9255 C 884.96 2.64642 2.44943 0
M  V30 9256 O 884.064 2.21515 3.47858 0
M  V30 9257 H 883.405 0.536625 0.391063 0
M  V30 9258 H 885.935 1.94229 0.643135 0
M  V30 9259 H 885.945 2.85786 2.91187 0
M  V30 9260 H 884.62 3.62004 2.04758 0
M  V30 9261 H 883.197 2.10567 3.0776 0
M  V30 9262 N 885.382 -0.782676 1.36792 0
M  V30 9263 C 886.631 -1.53605 1.30723 0
M  V30 9264 C 886.944 -1.95294 -0.109296 0
M  V30 9265 O 888.15 -2.69921 -0.292398 0
M  V30 9266 C 886.606 -2.77321 2.29393 0
M  V30 9267 C 886.214 -2.42774 3.76517 0
M  V30 9268 C 887.958 -3.55289 2.32314 0
M  V30 9269 C 885.865 -3.62926 4.66947 0
M  V30 9270 H 884.795 -0.576646 0.485794 0
M  V30 9271 H 887.446 -0.858255 1.62192 0
M  V30 9272 H 885.828 -3.46934 1.90927 0
M  V30 9273 H 887.002 -1.81014 4.23758 0
M  V30 9274 H 885.317 -1.78002 3.76436 0
M  V30 9275 H 887.914 -4.44573 2.97083 0
M  V30 9276 H 888.257 -3.94361 1.3336 0
M  V30 9277 H 888.79 -2.92662 2.69432 0
M  V30 9278 H 885.529 -3.28944 5.66989 0
M  V30 9279 H 885.049 -4.23828 4.24418 0
M  V30 9280 H 886.728 -4.29873 4.83548 0
M  V30 9281 N 886.86 -1.21182 -1.00761 0
M  V30 9282 C 888.137 -0.936297 -1.71735 0
M  V30 9283 C 888.517 0.552585 -2.03739 0
M  V30 9284 O 887.865 1.51672 -1.70903 0
M  V30 9285 C 888.075 -1.81867 -2.97868 0
M  V30 9286 C 889.423 -2.06594 -3.7095 0
M  V30 9287 O 890.447 -1.79194 -3.07844 0
M  V30 9288 O 889.306 -2.5292 -4.84452 0
M  V30 9289 H 886.4 -0.350867 -0.74888 0
M  V30 9290 H 888.946 -1.32098 -1.06527 0
M  V30 9291 H 887.718 -2.82643 -2.70607 0
M  V30 9292 H 887.341 -1.43463 -3.70815 0
M  V30 9293 N 888.338 1.20213 -1.01915 0
M  V30 9294 C 889.754 1.41696 -0.734459 0
M  V30 9295 C 889.954 1.89504 0.684867 0
M  V30 9296 O 889.01 2.06556 1.45227 0
M  V30 9297 C 890.323 2.43644 -1.76233 0
M  V30 9298 C 891.871 2.57406 -1.78076 0
M  V30 9299 C 892.346 3.626 -2.79796 0
M  V30 9300 N 893.837 3.70086 -2.78551 0
M  V30 9301 C 894.572 4.51145 -3.53915 0
M  V30 9302 N 894.068 5.35988 -4.38963 0
M  V30 9303 N 895.861 4.45702 -3.425 0
M  V30 9304 H 888.012 0.874976 -1.93541 0
M  V30 9305 H 890.275 0.446647 -0.836188 0
M  V30 9306 H 889.981 2.15519 -2.77929 0
M  V30 9307 H 889.855 3.42672 -1.57657 0
M  V30 9308 H 892.242 2.8486 -0.770634 0
M  V30 9309 H 892.323 1.58565 -2.00725 0
M  V30 9310 H 891.967 3.35889 -3.80973 0
M  V30 9311 H 891.897 4.61069 -2.54407 0
M  V30 9312 H 894.388 3.09484 -2.1686 0
M  V30 9313 H 894.701 5.94932 -4.9323 0
M  V30 9314 H 893.046 5.35482 -4.4304 0
M  V30 9315 H 896.237 3.78456 -2.75478 0
M  V30 9316 H 896.41 5.08637 -4.01487 0
M  V30 9317 N 889.816 0.795718 1.36037 0
M  V30 9318 C 890.779 0.204318 2.28287 0
M  V30 9319 C 891.779 -0.602017 1.49105 0
M  V30 9320 O 892.969 -0.422089 1.69009 0
M  V30 9321 C 890.101 -0.716431 3.33287 0
M  V30 9322 H 891.294 1.01781 2.821 0
M  V30 9323 H 888.847 0.565588 1.45708 0
M  V30 9324 H 889.582 -1.55403 2.84641 0
M  V30 9325 H 889.367 -0.140096 3.9185 0
M  V30 9326 H 890.857 -1.12488 4.02164 0
M  V30 9327 N 891.294 -1.47756 0.548274 0
M  V30 9328 C 892.571 -1.9555 -0.0443603 0
M  V30 9329 C 892.951 -1.49079 -1.49462 0
M  V30 9330 O 892.299 -0.725538 -2.16675 0
M  V30 9331 C 892.509 -3.48879 0.0918425 0
M  V30 9332 C 893.857 -4.2456 -0.0580879 0
M  V30 9333 O 894.881 -3.56195 0.018946 0
M  V30 9334 O 893.74 -5.46048 -0.222261 0
M  V30 9335 H 890.834 -0.824106 -0.0691235 0
M  V30 9336 H 893.38 -1.58196 0.614166 0
M  V30 9337 H 892.152 -3.7548 1.10137 0
M  V30 9338 H 891.775 -3.92975 -0.604704 0
M  V30 9339 N 892.772 -0.284283 -1.55015 0
M  V30 9340 C 893.702 0.592663 -2.25853 0
M  V30 9341 C 894.683 1.15151 -1.25197 0
M  V30 9342 O 895.868 1.18395 -1.53936 0
M  V30 9343 C 892.998 1.77254 -2.98661 0
M  V30 9344 C 891.952 1.34482 -4.06323 0
M  V30 9345 C 891.278 2.60853 -4.66754 0
M  V30 9346 C 892.578 0.488288 -5.20013 0
M  V30 9347 H 894.272 0.00187041 -2.994 0
M  V30 9348 H 891.818 -0.000540402 -1.44 0
M  V30 9349 H 893.771 2.39199 -3.46932 0
M  V30 9350 H 892.495 2.38931 -2.22664 0
M  V30 9351 H 891.154 0.748519 -3.58877 0
M  V30 9352 H 890.802 3.20808 -3.87416 0
M  V30 9353 H 890.502 2.32942 -5.39455 0
M  V30 9354 H 892.026 3.23631 -5.1778 0
M  V30 9355 H 893.44 1.01298 -5.6428 0
M  V30 9356 H 891.837 0.303669 -5.99331 0
M  V30 9357 H 892.907 -0.490727 -4.8241 0
M  V30 9358 N 894.251 1.57596 -0.0117121 0
M  V30 9359 C 895.199 2.1029 0.994035 0
M  V30 9360 C 896.193 1.02549 1.34833 0
M  V30 9361 O 897.399 1.21003 1.3326 0
M  V30 9362 H 893.774 0.671624 0.338268 0
M  V30 9363 H 895.745 2.93761 0.524147 0
M  V30 9364 C 894.494 2.63099 2.27319 0
M  V30 9365 H 893.817 3.45642 2.00927 0
M  V30 9366 H 895.257 3.03635 2.95942 0
M  V30 9367 C 893.716 1.55044 2.99104 0
M  V30 9368 O 894.246 0.940127 3.90544 0
M  V30 9369 N 892.452 1.27506 2.61133 0
M  V30 9370 H 891.999 1.77322 1.86855 0
M  V30 9371 H 891.957 0.554292 3.09475 0
M  V30 9372 N 895.729 -0.261212 1.5542 0
M  V30 9373 C 897.145 -0.609012 1.47524 0
M  V30 9374 C 897.345 -1.88986 0.699042 0
M  V30 9375 O 896.401 -2.51517 0.222628 0
M  V30 9376 C 897.714 -0.725025 2.91828 0
M  V30 9377 C 899.262 -0.818302 3.02114 0
M  V30 9378 C 899.737 -0.965996 4.47697 0
M  V30 9379 N 901.228 -1.03123 4.51575 0
M  V30 9380 C 901.963 -1.16451 5.6145 0
M  V30 9381 N 901.459 -1.26425 6.81167 0
M  V30 9382 N 903.252 -1.19655 5.49217 0
M  V30 9383 H 895.403 0.579807 2.04333 0
M  V30 9384 H 897.666 0.198072 0.927077 0
M  V30 9385 H 897.372 0.145871 3.51397 0
M  V30 9386 H 897.246 -1.60156 3.41511 0
M  V30 9387 H 899.633 -1.67966 2.42634 0
M  V30 9388 H 899.714 0.0830895 2.55665 0
M  V30 9389 H 899.358 -0.109251 5.07782 0
M  V30 9390 H 899.288 -1.88221 4.91813 0
M  V30 9391 H 901.779 -0.966072 3.65343 0
M  V30 9392 H 902.092 -1.36462 7.60656 0
M  V30 9393 H 900.437 -1.23408 6.83956 0
M  V30 9394 H 903.628 -1.11501 4.54626 0
M  V30 9395 H 903.801 -1.29698 6.34888 0
M  V30 9396 N 897.207 -1.48554 -0.526253 0
M  V30 9397 C 898.137 -1.66252 -1.63959 0
M  V30 9398 C 899.118 -0.511351 -1.62232 0
M  V30 9399 O 900.303 -0.744322 -1.7937 0
M  V30 9400 C 897.433 -1.70556 -3.02536 0
M  V30 9401 C 896.387 -2.8521 -3.19123 0
M  V30 9402 C 895.713 -2.74606 -4.58798 0
M  V30 9403 C 897.013 -4.26463 -3.0154 0
M  V30 9404 H 898.707 -2.59459 -1.49404 0
M  V30 9405 H 896.253 -1.24862 -0.717326 0
M  V30 9406 H 898.206 -1.81524 -3.80298 0
M  V30 9407 H 896.93 -0.739297 -3.18123 0
M  V30 9408 H 895.589 -2.73802 -2.43779 0
M  V30 9409 H 895.237 -1.75941 -4.71226 0
M  V30 9410 H 894.937 -3.51544 -4.70841 0
M  V30 9411 H 896.461 -2.87548 -5.38655 0
M  V30 9412 H 897.875 -4.38685 -3.69091 0
M  V30 9413 H 896.272 -5.04428 -3.25073 0
M  V30 9414 H 897.342 -4.42667 -1.97925 0
M  V30 9415 N 898.685 0.775411 -1.37205 0
M  V30 9416 C 899.615 1.90258 -1.35367 0
M  V30 9417 C 900.596 1.68634 -0.222864 0
M  V30 9418 O 901.781 1.89545 -0.422659 0
M  V30 9419 C 898.911 3.27488 -1.15623 0
M  V30 9420 C 897.865 3.63668 -2.25676 0
M  V30 9421 C 897.191 4.994 -1.91059 0
M  V30 9422 C 898.491 3.70797 -3.67841 0
M  V30 9423 H 900.185 1.92053 -2.29687 0
M  V30 9424 H 897.731 0.922597 -1.10563 0
M  V30 9425 H 899.684 4.05976 -1.12968 0
M  V30 9426 H 898.408 3.26117 -0.177573 0
M  V30 9427 H 897.067 2.87486 -2.2748 0
M  V30 9428 H 896.715 4.94565 -0.917324 0
M  V30 9429 H 896.415 5.24576 -2.64751 0
M  V30 9430 H 897.939 5.80291 -1.89985 0
M  V30 9431 H 899.353 4.39444 -3.68187 0
M  V30 9432 H 897.75 4.07468 -4.40556 0
M  V30 9433 H 898.82 2.71549 -4.01732 0
M  V30 9434 N 900.163 1.21714 1.00117 0
M  V30 9435 C 901.093 1.00397 2.10815 0
M  V30 9436 C 902.074 -0.0723502 1.69946 0
M  V30 9437 O 903.259 0.0882398 1.93999 0
M  V30 9438 C 900.389 0.572001 3.42557 0
M  V30 9439 C 899.343 1.59331 3.97237 0
M  V30 9440 C 898.669 1.01746 5.2493 0
M  V30 9441 C 899.969 2.98117 4.28863 0
M  V30 9442 H 901.663 1.92983 2.28906 0
M  V30 9443 H 899.209 0.929273 1.10002 0
M  V30 9444 H 901.162 0.410018 4.19401 0
M  V30 9445 H 899.886 -0.38951 3.24269 0
M  V30 9446 H 898.545 1.74293 3.22518 0
M  V30 9447 H 898.193 0.0475491 5.02978 0
M  V30 9448 H 897.893 1.69969 5.62481 0
M  V30 9449 H 899.417 0.866881 6.04415 0
M  V30 9450 H 900.831 2.86578 4.96534 0
M  V30 9451 H 899.228 3.63389 4.77565 0
M  V30 9452 H 900.298 3.48674 3.36979 0
M  V30 9453 N 901.641 -1.19671 1.02551 0
M  V30 9454 C 902.588 -2.22773 0.603394 0
M  V30 9455 C 903.558 -1.61669 -0.381081 0
M  V30 9456 O 904.743 -1.88756 -0.278505 0
M  V30 9457 C 901.883 -3.45073 -0.0431034 0
M  V30 9458 C 900.996 -4.20574 0.987006 0
M  V30 9459 C 900.131 -5.30291 0.310626 0
M  V30 9460 C 899.17 -5.97545 1.32688 0
M  V30 9461 N 898.307 -6.98833 0.676542 0
M  V30 9462 H 903.147 -2.58238 1.48719 0
M  V30 9463 H 900.684 -1.26881 0.744286 0
M  V30 9464 H 902.642 -4.14925 -0.435141 0
M  V30 9465 H 901.272 -3.10274 -0.890495 0
M  V30 9466 H 900.324 -3.497 1.49713 0
M  V30 9467 H 901.636 -4.66736 1.75952 0
M  V30 9468 H 900.79 -6.06547 -0.136438 0
M  V30 9469 H 899.529 -4.8519 -0.49412 0
M  V30 9470 H 898.534 -5.20043 1.78424 0
M  V30 9471 H 899.759 -6.4473 2.13306 0
M  V30 9472 H 897.705 -6.55911 -0.108172 0
M  V30 9473 H 897.622 -7.43168 1.38699 0
M  V30 9474 H 898.89 -7.79088 0.253367 0
M  V30 9475 N 903.119 -0.802921 -1.35613 0
M  V30 9476 C 904.029 -0.212177 -2.33639 0
M  V30 9477 C 905.045 0.642871 -1.61689 0
M  V30 9478 O 906.221 0.555485 -1.93588 0
M  V30 9479 C 903.286 0.632406 -3.40883 0
M  V30 9480 C 902.347 -0.242708 -4.28613 0
M  V30 9481 C 901.58 0.56166 -5.30736 0
M  V30 9482 O 901.803 1.79664 -5.41366 0
M  V30 9483 O 900.737 -0.0455387 -6.01883 0
M  V30 9484 H 904.563 -1.023 -2.85952 0
M  V30 9485 H 902.148 -0.564636 -1.38319 0
M  V30 9486 H 904.03 1.11358 -4.0642 0
M  V30 9487 H 902.705 1.42089 -2.90848 0
M  V30 9488 H 901.612 -0.77094 -3.6607 0
M  V30 9489 H 902.945 -0.995046 -4.82037 0
M  V30 9490 N 904.597 1.47463 -0.556102 0
M  V30 9491 C 905.843 2.02775 -0.0316806 0
M  V30 9492 C 906.176 1.42967 1.3143 0
M  V30 9493 O 905.451 0.584847 1.85499 0
M  V30 9494 C 905.734 3.60046 0.0625742 0
M  V30 9495 C 905.587 4.30288 -1.31043 0
M  V30 9496 C 906.906 4.33195 0.776553 0
M  V30 9497 H 904.025 0.736886 -0.0129869 0
M  V30 9498 H 906.667 1.75904 -0.718177 0
M  V30 9499 H 904.817 3.83071 0.647231 0
M  V30 9500 H 906.489 4.18607 -1.9382 0
M  V30 9501 H 904.732 3.90685 -1.8854 0
M  V30 9502 H 905.403 5.38861 -1.1972 0
M  V30 9503 H 907.879 4.15156 0.280147 0
M  V30 9504 H 906.755 5.42869 0.81146 0
M  V30 9505 H 907.016 4.02336 1.83244 0
M  V30 9506 N 906.075 0.2925 1.54862 0
M  V30 9507 C 907.3 -0.32494 2.04839 0
M  V30 9508 C 907.725 -1.47381 1.16877 0
M  V30 9509 O 907.083 -1.80492 0.171028 0
M  V30 9510 C 907.131 -0.76694 3.5235 0
M  V30 9511 O 906.235 -1.87256 3.67436 0
M  V30 9512 H 905.576 -0.0645195 0.660858 0
M  V30 9513 H 908.106 0.431867 1.9999 0
M  V30 9514 H 908.116 -1.05804 3.94043 0
M  V30 9515 H 906.791 0.0735212 4.15835 0
M  V30 9516 H 905.368 -1.58266 3.37648 0
M  V30 9517 N 907.553 -1.57587 0.0200696 0
M  V30 9518 C 908.516 -2.08595 -0.949767 0
M  V30 9519 C 909.516 -0.999215 -1.25985 0
M  V30 9520 O 910.706 -1.26115 -1.2017 0
M  V30 9521 C 907.838 -2.54424 -2.26895 0
M  V30 9522 H 909.031 -2.95563 -0.508161 0
M  V30 9523 H 906.584 -1.54631 -0.227798 0
M  V30 9524 H 907.319 -1.70758 -2.75703 0
M  V30 9525 H 907.104 -3.3381 -2.05702 0
M  V30 9526 H 908.594 -2.94144 -2.96427 0
M  V30 9527 N 909.032 0.252966 -1.55557 0
M  V30 9528 C 910.278 0.983306 -1.77367 0
M  V30 9529 C 910.611 1.85203 -0.584258 0
M  V30 9530 O 909.886 1.89963 0.417644 0
M  V30 9531 C 910.169 1.84896 -3.09007 0
M  V30 9532 C 910.022 1.00883 -4.38341 0
M  V30 9533 C 911.341 2.83254 -3.36831 0
M  V30 9534 H 908.46 0.356056 -0.645286 0
M  V30 9535 H 911.102 0.254232 -1.88291 0
M  V30 9536 H 909.252 2.47058 -2.99825 0
M  V30 9537 H 910.924 0.40638 -4.59507 0
M  V30 9538 H 909.167 0.31297 -4.3267 0
M  V30 9539 H 909.838 1.64818 -5.2682 0
M  V30 9540 H 912.314 2.31228 -3.45937 0
M  V30 9541 H 911.19 3.40949 -4.30169 0
M  V30 9542 H 911.451 3.59407 -2.57447 0
M  V30 9543 N 910.51 1.48831 0.518367 0
M  V30 9544 C 911.926 1.35209 0.847979 0
M  V30 9545 C 912.126 0.371927 1.98038 0
M  V30 9546 O 911.182 -0.202681 2.51685 0
M  V30 9547 C 912.495 2.7552 1.20455 0
M  V30 9548 C 914.043 2.84094 1.31377 0
M  V30 9549 C 914.518 4.25132 1.70372 0
M  V30 9550 N 916.009 4.27861 1.77453 0
M  V30 9551 C 916.744 5.3394 2.09035 0
M  V30 9552 N 916.24 6.50285 2.3896 0
M  V30 9553 N 918.033 5.21343 2.10139 0
M  V30 9554 H 910.184 2.11166 -0.228624 0
M  V30 9555 H 912.447 0.94717 -0.0396599 0
M  V30 9556 H 912.153 3.48861 0.445991 0
M  V30 9557 H 912.027 3.09785 2.15204 0
M  V30 9558 H 914.414 2.11001 2.06307 0
M  V30 9559 H 914.495 2.53433 0.347203 0
M  V30 9560 H 914.139 4.98745 0.959975 0
M  V30 9561 H 914.069 4.53245 2.68098 0
M  V30 9562 H 916.56 3.43945 1.56557 0
M  V30 9563 H 916.873 7.26961 2.62196 0
M  V30 9564 H 915.218 6.5354 2.36454 0
M  V30 9565 H 918.409 4.29462 1.86225 0
M  V30 9566 H 918.582 6.04112 2.34419 0
M  V30 9567 N 911.988 -0.768124 1.37614 0
M  V30 9568 C 912.918 -1.89537 1.36374 0
M  V30 9569 C 913.899 -1.68513 0.231803 0
M  V30 9570 O 915.084 -1.89318 0.432705 0
M  V30 9571 C 912.214 -3.26871 1.17358 0
M  V30 9572 C 911.168 -3.62466 2.27602 0
M  V30 9573 C 910.494 -4.9838 1.93705 0
M  V30 9574 C 911.794 -3.68841 3.69802 0
M  V30 9575 H 913.488 -1.90832 2.30702 0
M  V30 9576 H 911.034 -0.91672 1.11051 0
M  V30 9577 H 912.987 -4.05371 1.15119 0
M  V30 9578 H 911.711 -3.26018 0.194865 0
M  V30 9579 H 910.37 -2.86276 2.29002 0
M  V30 9580 H 910.018 -4.94071 0.943539 0
M  V30 9581 H 909.718 -5.23165 2.6753 0
M  V30 9582 H 911.242 -5.79276 1.93059 0
M  V30 9583 H 912.656 -4.37485 3.70513 0
M  V30 9584 H 911.053 -4.05126 4.42711 0
M  V30 9585 H 912.123 -2.69415 4.03167 0
M  V30 9586 N 913.466 -1.22244 -0.994698 0
M  V30 9587 C 914.712 -1.04746 -1.73655 0
M  V30 9588 C 915.045 0.41668 -1.89677 0
M  V30 9589 O 914.32 1.30897 -1.43862 0
M  V30 9590 C 914.603 -1.75716 -3.14318 0
M  V30 9591 C 914.456 -3.29714 -3.05955 0
M  V30 9592 C 915.775 -1.50809 -4.13455 0
M  V30 9593 H 912.894 -0.381921 -0.630322 0
M  V30 9594 H 915.536 -1.50559 -1.15897 0
M  V30 9595 H 913.686 -1.3677 -3.63629 0
M  V30 9596 H 915.358 -3.78093 -2.64279 0
M  V30 9597 H 913.601 -3.59484 -2.42804 0
M  V30 9598 H 914.272 -3.74547 -4.05485 0
M  V30 9599 H 916.748 -1.84636 -3.72892 0
M  V30 9600 H 915.624 -2.02964 -5.09997 0
M  V30 9601 H 915.885 -0.440292 -4.39902 0
M  V30 9602 N 914.944 1.19125 -1.03184 0
M  V30 9603 C 916.191 1.88883 -0.730029 0
M  V30 9604 C 916.519 1.79807 0.741602 0
M  V30 9605 O 915.774 1.18686 1.55603 0
M  V30 9606 C 916.073 3.39052 -1.13041 0
M  V30 9607 C 915.739 3.68332 -2.60082 0
M  V30 9608 C 914.401 3.76033 -3.00254 0
M  V30 9609 C 916.753 3.81423 -3.55199 0
M  V30 9610 C 914.081 3.94296 -4.34451 0
M  V30 9611 C 916.433 4.012 -4.89103 0
M  V30 9612 C 915.097 4.07134 -5.28959 0
M  V30 9613 H 914.367 0.691172 -0.267137 0
M  V30 9614 H 917.014 1.41053 -1.29523 0
M  V30 9615 H 915.319 3.88801 -0.48386 0
M  V30 9616 H 917.016 3.91351 -0.874368 0
M  V30 9617 H 913.606 3.62948 -2.27961 0
M  V30 9618 H 917.79 3.74814 -3.25313 0
M  V30 9619 H 913.046 3.97131 -4.64863 0
M  V30 9620 H 917.22 4.10271 -5.62717 0
M  V30 9621 H 914.847 4.21038 -6.32954 0
M  V30 9622 N 916.422 0.810101 1.35185 0
M  V30 9623 C 917.332 0.224565 2.33523 0
M  V30 9624 C 918.348 -0.634287 1.62027 0
M  V30 9625 O 919.524 -0.545211 1.9388 0
M  V30 9626 C 916.589 -0.614319 3.41214 0
M  V30 9627 C 915.65 0.265435 4.28479 0
M  V30 9628 C 914.883 -0.533506 5.31027 0
M  V30 9629 O 915.106 -1.7679 5.42311 0
M  V30 9630 O 914.04 0.0774573 6.0185 0
M  V30 9631 H 917.866 1.03815 2.85405 0
M  V30 9632 H 915.451 0.571964 1.38018 0
M  V30 9633 H 917.333 -1.09201 4.07005 0
M  V30 9634 H 916.008 -1.40545 2.91597 0
M  V30 9635 H 914.915 0.790343 3.65656 0
M  V30 9636 H 916.248 1.0206 4.81503 0
M  V30 9637 N 917.9 -1.47166 0.563914 0
M  V30 9638 C 919.148 -2.02056 0.0422873 0
M  V30 9639 C 919.469 -1.43992 -1.31497 0
M  V30 9640 O 918.739 -0.617578 -1.85911 0
M  V30 9641 H 917.319 -0.746893 0.0126427 0
M  V30 9642 H 919.981 -1.80492 0.735441 0
M  V30 9643 H 919.077 -3.12073 -0.0408044 0
M  V30 9644 N 919.378 -0.300708 -1.54705 0
M  V30 9645 C 920.325 0.57552 -2.23509 0
M  V30 9646 C 921.295 1.12979 -1.21758 0
M  V30 9647 O 922.48 1.17437 -1.50377 0
M  V30 9648 C 919.62 1.74167 -2.97926 0
M  V30 9649 C 918.733 1.21882 -4.1445 0
M  V30 9650 C 917.868 2.34881 -4.7645 0
M  V30 9651 C 916.907 1.79729 -5.85119 0
M  V30 9652 N 916.044 2.863 -6.41075 0
M  V30 9653 H 920.884 -0.0178257 -2.97995 0
M  V30 9654 H 918.421 -0.0205666 -1.47086 0
M  V30 9655 H 920.379 2.42753 -3.39303 0
M  V30 9656 H 919.009 2.30665 -2.25817 0
M  V30 9657 H 918.061 0.425227 -3.78016 0
M  V30 9658 H 919.373 0.775065 -4.92741 0
M  V30 9659 H 918.527 3.11415 -5.20678 0
M  V30 9660 H 917.266 2.82584 -3.97489 0
M  V30 9661 H 916.271 1.01684 -5.40315 0
M  V30 9662 H 917.496 1.32931 -6.65963 0
M  V30 9663 H 915.442 3.33337 -5.64998 0
M  V30 9664 H 915.359 2.46419 -7.14712 0
M  V30 9665 H 916.627 3.62732 -6.89961 0
M  V30 9666 N 920.856 1.57574 -0.0284266 0
M  V30 9667 C 921.786 2.1321 0.952039 0
M  V30 9668 C 922.767 1.04806 1.33977 0
M  V30 9669 O 923.952 1.32635 1.41851 0
M  V30 9670 C 921.082 2.65862 2.23461 0
M  V30 9671 C 920.036 3.79047 1.98765 0
M  V30 9672 C 919.362 4.18124 3.33281 0
M  V30 9673 C 920.662 5.05151 1.32739 0
M  V30 9674 H 922.356 2.95385 0.488705 0
M  V30 9675 H 919.902 1.42092 0.233628 0
M  V30 9676 H 921.855 3.03417 2.92431 0
M  V30 9677 H 920.579 1.80848 2.71959 0
M  V30 9678 H 919.238 3.41929 1.32213 0
M  V30 9679 H 918.886 3.30092 3.79537 0
M  V30 9680 H 918.586 4.94396 3.17563 0
M  V30 9681 H 920.11 4.58262 4.0352 0
M  V30 9682 H 921.524 5.40297 1.91708 0
M  V30 9683 H 919.921 5.86416 1.27421 0
M  V30 9684 H 920.991 4.83969 0.300261 0
M  V30 9685 N 922.334 -0.244713 1.55689 0
M  V30 9686 C 923.281 -1.30301 1.905 0
M  V30 9687 C 924.251 -1.4772 0.759478 0
M  V30 9688 O 925.436 -1.61667 1.01333 0
M  V30 9689 C 922.576 -2.653 2.20703 0
M  V30 9690 C 921.689 -2.55872 3.48071 0
M  V30 9691 C 920.824 -3.83238 3.67834 0
M  V30 9692 C 919.863 -3.68436 4.88796 0
M  V30 9693 N 919 -4.877 5.05068 0
M  V30 9694 H 923.84 -0.999143 2.80751 0
M  V30 9695 H 921.377 -0.482099 1.38976 0
M  V30 9696 H 923.335 -3.43884 2.36219 0
M  V30 9697 H 921.965 -2.93831 1.33653 0
M  V30 9698 H 921.017 -1.68846 3.40874 0
M  V30 9699 H 922.329 -2.40845 4.36801 0
M  V30 9700 H 921.483 -4.70266 3.83321 0
M  V30 9701 H 920.222 -4.01165 2.77341 0
M  V30 9702 H 919.227 -2.79793 4.73282 0
M  V30 9703 H 920.452 -3.52003 5.8075 0
M  V30 9704 H 918.398 -5.05983 4.17513 0
M  V30 9705 H 918.315 -4.75312 5.8789 0
M  V30 9706 H 919.583 -5.76219 5.24969 0
M  V30 9707 N 923.813 -1.49104 -0.510467 0
M  V30 9708 C 925.038 -1.62068 -1.29417 0
M  V30 9709 C 925.463 -0.288432 -1.85875 0
M  V30 9710 O 924.821 0.742667 -1.65391 0
M  V30 9711 C 924.869 -2.68506 -2.40701 0
M  V30 9712 O 923.973 -2.27021 -3.4429 0
M  V30 9713 H 923.314 -0.542778 -0.382476 0
M  V30 9714 H 925.844 -1.95228 -0.612154 0
M  V30 9715 H 925.854 -2.90383 -2.86604 0
M  V30 9716 H 924.529 -3.65216 -1.98973 0
M  V30 9717 H 923.106 -2.15436 -3.04371 0
M  V30 9718 N 925.291 0.760815 -1.38019 0
M  V30 9719 C 926.516 1.55513 -1.37224 0
M  V30 9720 C 926.941 1.88062 0.037611 0
M  V30 9721 O 926.299 1.50042 1.0177 0
M  V30 9722 C 926.347 2.83539 -2.22796 0
M  V30 9723 O 925.451 3.78384 -1.64009 0
M  V30 9724 H 924.792 0.470642 -0.468393 0
M  V30 9725 H 927.322 0.940792 -1.81687 0
M  V30 9726 H 927.332 3.32535 -2.36399 0
M  V30 9727 H 926.007 2.59178 -3.25269 0
M  V30 9728 H 924.584 3.37063 -1.59508 0
M  V30 9729 N 926.769 1.22769 0.988202 0
M  V30 9730 C 928.017 1.05301 1.725 0
M  V30 9731 C 928.338 -0.412103 1.90596 0
M  V30 9732 O 927.608 -1.29606 1.46898 0
M  V30 9733 H 926.188 0.386658 0.639144 0
M  V30 9734 H 928.85 1.54359 1.18993 0
M  V30 9735 H 927.946 1.53465 2.71763 0
M  V30 9736 N 928.247 -1.18576 1.03814 0
M  V30 9737 C 929.195 -2.24166 0.620678 0
M  V30 9738 C 930.189 -1.65718 -0.351282 0
M  V30 9739 O 931.395 -1.78665 -0.218848 0
M  V30 9740 H 927.77 -0.729522 0.182487 0
M  V30 9741 H 929.741 -2.56686 1.52166 0
M  V30 9742 C 928.49 -3.477 -0.00307331 0
M  V30 9743 H 927.813 -3.92969 0.735874 0
M  V30 9744 H 929.253 -4.23214 -0.257988 0
M  V30 9745 C 927.712 -3.12757 -1.2524 0
M  V30 9746 O 928.242 -3.26261 -2.34344 0
M  V30 9747 N 926.448 -2.67104 -1.14471 0
M  V30 9748 H 925.995 -2.56316 -0.256873 0
M  V30 9749 H 925.953 -2.44096 -1.98153 0
M  V30 9750 N 929.725 -0.817259 -1.34754 0
M  V30 9751 C 931.136 -0.462215 -1.80888 0
M  V30 9752 C 931.487 1.01685 -1.67794 0
M  V30 9753 O 930.612 1.79094 -1.21468 0
M  V30 9754 C 931.207 -0.832204 -3.2842 0
M  V30 9755 C 929.766 -0.52961 -3.72655 0
M  V30 9756 C 928.913 -1.05214 -2.56564 0
M  V30 9757 H 931.864 -1.00795 -1.22581 0
M  V30 9758 H 931.885 -0.133804 -3.80265 0
M  V30 9759 H 931.397 -1.90873 -3.37919 0
M  V30 9760 H 929.498 0.537743 -3.68699 0
M  V30 9761 H 929.611 -1.06971 -4.67005 0
M  V30 9762 H 927.975 -0.473949 -2.50251 0
M  V30 9763 H 928.758 -2.135 -2.68836 0
M  V30 9764 N 931.203 1.46865 -0.571711 0
M  V30 9765 C 932.133 2.3298 0.155795 0
M  V30 9766 C 933.114 1.44678 0.894553 0
M  V30 9767 O 934.299 1.73513 0.872176 0
M  V30 9768 C 931.429 3.26745 1.17708 0
M  V30 9769 C 930.383 4.24401 0.553863 0
M  V30 9770 C 929.709 5.07595 1.68083 0
M  V30 9771 C 931.009 5.19884 -0.501827 0
M  V30 9772 H 932.703 2.94056 -0.563176 0
M  V30 9773 H 930.249 1.41402 -0.27228 0
M  V30 9774 H 932.202 3.85838 1.6943 0
M  V30 9775 H 930.926 2.63753 1.92618 0
M  V30 9776 H 929.585 3.66554 0.057815 0
M  V30 9777 H 929.233 4.40996 2.41933 0
M  V30 9778 H 928.933 5.73722 1.26953 0
M  V30 9779 H 930.457 5.6955 2.20103 0
M  V30 9780 H 931.871 5.73257 -0.0701057 0
M  V30 9781 H 930.268 5.94293 -0.832815 0
M  V30 9782 H 931.338 4.64482 -1.39229 0
M  V30 9783 N 932.681 0.308908 1.54543 0
M  V30 9784 C 933.611 -0.556657 2.26768 0
M  V30 9785 C 934.592 -1.13145 1.27013 0
M  V30 9786 O 935.777 -1.15931 1.558 0
M  V30 9787 C 932.907 -1.72481 3.01443 0
M  V30 9788 C 931.861 -1.28001 4.08411 0
M  V30 9789 C 931.187 -2.53395 4.70845 0
M  V30 9790 C 932.487 -0.405497 5.20724 0
M  V30 9791 H 934.181 0.0457618 2.99365 0
M  V30 9792 H 931.727 0.0234495 1.43981 0
M  V30 9793 H 933.68 -2.3365 3.50693 0
M  V30 9794 H 932.404 -2.35359 2.26437 0
M  V30 9795 H 931.063 -0.69133 3.60022 0
M  V30 9796 H 930.711 -3.14604 3.92471 0
M  V30 9797 H 930.411 -2.2433 5.43093 0
M  V30 9798 H 931.935 -3.15352 5.22863 0
M  V30 9799 H 933.349 -0.923076 5.6582 0
M  V30 9800 H 931.746 -0.208282 5.99738 0
M  V30 9801 H 932.816 0.567412 4.81569 0
M  V30 9802 N 934.159 -1.57557 0.0367827 0
M  V30 9803 C 935.089 -2.13712 -0.940719 0
M  V30 9804 C 936.07 -1.05515 -1.33419 0
M  V30 9805 O 937.255 -1.33385 -1.41146 0
M  V30 9806 C 934.385 -2.67043 -2.22048 0
M  V30 9807 C 933.339 -3.80096 -1.96752 0
M  V30 9808 C 932.665 -4.19886 -3.31059 0
M  V30 9809 C 933.965 -5.05848 -1.30058 0
M  V30 9810 H 935.659 -2.9564 -0.473033 0
M  V30 9811 H 933.205 -1.42214 -0.226089 0
M  V30 9812 H 935.158 -3.04964 -2.90818 0
M  V30 9813 H 933.882 -1.82287 -2.70996 0
M  V30 9814 H 932.541 -3.42625 -1.30398 0
M  V30 9815 H 932.189 -3.32101 -3.77781 0
M  V30 9816 H 931.889 -4.96073 -3.14937 0
M  V30 9817 H 933.413 -4.60395 -4.01084 0
M  V30 9818 H 934.827 -5.41306 -1.8884 0
M  V30 9819 H 933.224 -5.87084 -1.24309 0
M  V30 9820 H 934.294 -4.84122 -0.274591 0
M  V30 9821 N 935.637 0.236453 -1.55816 0
M  V30 9822 C 936.885 0.96111 -1.77784 0
M  V30 9823 C 937.206 1.85454 -0.602648 0
M  V30 9824 O 936.476 1.92157 0.381137 0
M  V30 9825 H 935.056 0.35787 -0.655697 0
M  V30 9826 H 937.718 0.251888 -1.93265 0
M  V30 9827 H 936.814 1.5767 -2.69345 0
M  V30 9828 N 937.115 1.49373 0.502552 0
M  V30 9829 C 938.047 1.62045 1.62093 0
M  V30 9830 C 939.06 0.503221 1.54827 0
M  V30 9831 O 940.249 0.775208 1.60788 0
M  V30 9832 C 937.349 1.55971 3.00876 0
M  V30 9833 C 936.522 2.832 3.33341 0
M  V30 9834 C 935.581 2.702 4.51529 0
M  V30 9835 O 934.607 3.44132 4.53389 0
M  V30 9836 N 935.809 1.81642 5.5135 0
M  V30 9837 H 938.574 2.58501 1.51649 0
M  V30 9838 H 936.135 1.46442 0.690396 0
M  V30 9839 H 938.127 1.4493 3.77859 0
M  V30 9840 H 936.697 0.673795 3.05252 0
M  V30 9841 H 935.917 3.08604 2.4527 0
M  V30 9842 H 937.205 3.67551 3.51829 0
M  V30 9843 H 936.603 1.20829 5.52645 0
M  V30 9844 H 935.16 1.76524 6.27441 0
M  V30 9845 N 938.594 -0.753485 1.38421 0
M  V30 9846 C 939.524 -1.8808 1.38377 0
M  V30 9847 C 940.505 -1.68258 0.249664 0
M  V30 9848 O 941.69 -1.88848 0.45276 0
M  V30 9849 C 938.82 -3.25608 1.20818 0
M  V30 9850 C 937.774 -3.60032 2.31433 0
M  V30 9851 C 937.1 -4.96297 1.9898 0
M  V30 9852 C 938.4 -3.64898 3.73694 0
M  V30 9853 H 940.094 -1.88375 2.32713 0
M  V30 9854 H 937.64 -0.90489 1.12017 0
M  V30 9855 H 939.593 -4.04127 1.19412 0
M  V30 9856 H 938.317 -3.25793 0.229433 0
M  V30 9857 H 936.976 -2.83831 2.32025 0
M  V30 9858 H 936.624 -4.93043 0.995889 0
M  V30 9859 H 936.324 -5.20298 2.73063 0
M  V30 9860 H 937.848 -5.77196 1.99193 0
M  V30 9861 H 939.262 -4.33531 3.75132 0
M  V30 9862 H 937.659 -4.00407 4.46983 0
M  V30 9863 H 938.729 -2.65124 4.06002 0
M  V30 9864 N 940.072 -1.23292 -0.981677 0
M  V30 9865 C 941.319 -1.06424 -1.72279 0
M  V30 9866 C 941.647 0.399055 -1.90362 0
M  V30 9867 O 940.902 1.31181 -1.45224 0
M  V30 9868 C 941.201 -1.73339 -3.12551 0
M  V30 9869 C 940.867 -3.23256 -3.14351 0
M  V30 9870 C 939.529 -3.64159 -3.14549 0
M  V30 9871 C 941.881 -4.1916 -3.09765 0
M  V30 9872 C 939.209 -4.99428 -3.07877 0
M  V30 9873 C 941.561 -5.54419 -3.04635 0
M  V30 9874 C 940.225 -5.94688 -3.03154 0
M  V30 9875 H 939.495 -0.389434 -0.630415 0
M  V30 9876 H 942.142 -1.53208 -1.1489 0
M  V30 9877 H 940.447 -1.18911 -3.73319 0
M  V30 9878 H 942.144 -1.57767 -3.68661 0
M  V30 9879 H 938.734 -2.90693 -3.14953 0
M  V30 9880 H 942.918 -3.88569 -3.08753 0
M  V30 9881 H 938.174 -5.29844 -3.05083 0
M  V30 9882 H 942.348 -6.28448 -3.00043 0
M  V30 9883 H 939.975 -6.99468 -2.97739 0
M  V30 9884 N 941.55 1.18024 -1.04442 0
M  V30 9885 C 942.798 1.87727 -0.74854 0
M  V30 9886 C 943.119 1.80975 0.726156 0
M  V30 9887 O 942.389 1.23061 1.52423 0
M  V30 9888 H 940.969 0.694974 -0.273897 0
M  V30 9889 H 943.631 1.43213 -1.32197 0
M  V30 9890 H 942.727 2.93665 -1.05674 0
M  V30 9891 N 943.028 0.824394 1.34319 0
M  V30 9892 C 943.961 0.192544 2.27386 0
M  V30 9893 C 944.939 -0.651901 1.4896 0
M  V30 9894 O 946.123 -0.615321 1.78174 0
M  V30 9895 C 943.25 -0.730958 3.30718 0
M  V30 9896 C 942.296 0.0361484 4.26485 0
M  V30 9897 S 943.129 1.3843 5.17298 0
M  V30 9898 C 944.285 0.465713 6.24165 0
M  V30 9899 H 944.518 0.981573 2.80629 0
M  V30 9900 H 942.051 0.620371 1.41389 0
M  V30 9901 H 944.009 -1.25822 3.90742 0
M  V30 9902 H 942.67 -1.49352 2.7632 0
M  V30 9903 H 941.863 -0.665969 4.99581 0
M  V30 9904 H 941.465 0.494011 3.70723 0
M  V30 9905 H 943.757 -0.342157 6.76635 0
M  V30 9906 H 944.7 1.16639 6.98427 0
M  V30 9907 H 945.108 0.0534895 5.64475 0
M  V30 9908 N 944.506 -1.46559 0.579492 0
M  V30 9909 C 945.436 -2.33059 -0.143437 0
M  V30 9910 C 946.417 -1.4515 -0.886868 0
M  V30 9911 O 947.602 -1.73973 -0.862961 0
M  V30 9912 C 944.732 -3.27364 -1.15973 0
M  V30 9913 C 943.686 -4.24689 -0.531348 0
M  V30 9914 C 943.012 -5.08479 -1.65388 0
M  V30 9915 C 944.312 -5.1961 0.529391 0
M  V30 9916 H 946.006 -2.93753 0.578762 0
M  V30 9917 H 943.552 -1.41256 0.279775 0
M  V30 9918 H 945.505 -3.86732 -1.67382 0
M  V30 9919 H 944.229 -2.64771 -1.91217 0
M  V30 9920 H 942.888 -3.6658 -0.0383749 0
M  V30 9921 H 942.536 -4.42273 -2.3959 0
M  V30 9922 H 942.236 -5.74387 -1.23909 0
M  V30 9923 H 943.76 -5.70709 -2.17079 0
M  V30 9924 H 945.174 -5.73212 0.100506 0
M  V30 9925 H 943.571 -5.93843 0.86432 0
M  V30 9926 H 944.641 -4.63737 1.4169 0
M  V30 9927 N 945.984 -0.3171 -1.54377 0
M  V30 9928 C 947.232 0.286842 -2.00054 0
M  V30 9929 C 947.553 1.53161 -1.20692 0
M  V30 9930 O 946.823 1.93479 -0.307045 0
M  V30 9931 H 945.403 0.108979 -0.739008 0
M  V30 9932 H 948.065 -0.432152 -1.90049 0
M  V30 9933 H 947.161 0.547729 -3.07256 0
M  V30 9934 N 947.462 1.57535 -0.0451378 0
M  V30 9935 C 948.739 1.83785 0.669523 0
M  V30 9936 C 949.119 0.932331 1.89396 0
M  V30 9937 O 948.467 -0.00813229 2.28499 0
M  V30 9938 C 948.677 3.33376 1.03255 0
M  V30 9939 C 950.025 4.00243 1.41741 0
M  V30 9940 O 951.049 3.37965 1.12507 0
M  V30 9941 O 949.908 5.10038 1.96275 0
M  V30 9942 H 947.002 0.758342 0.329919 0
M  V30 9943 H 949.548 1.69538 -0.0740415 0
M  V30 9944 H 948.32 3.90965 0.161777 0
M  V30 9945 H 947.943 3.52787 1.83376 0
M  V30 9946 N 948.94 -0.228186 1.55939 0
M  V30 9947 C 950.187 -0.953552 1.78644 0
M  V30 9948 C 950.515 -1.84596 0.61275 0
M  V30 9949 O 949.77 -1.91502 -0.403175 0
M  V30 9950 C 950.069 -1.82924 3.0704 0
M  V30 9951 C 949.735 -1.09062 4.37511 0
M  V30 9952 C 948.397 -0.886565 4.72962 0
M  V30 9953 C 950.749 -0.568533 5.1809 0
M  V30 9954 C 948.077 -0.148413 5.86512 0
M  V30 9955 C 950.429 0.156243 6.32407 0
M  V30 9956 C 949.093 0.371612 6.66465 0
M  V30 9957 H 948.363 -0.348929 0.653704 0
M  V30 9958 H 951.01 -0.222211 1.90206 0
M  V30 9959 H 949.315 -2.62823 2.90571 0
M  V30 9960 H 951.012 -2.3925 3.21808 0
M  V30 9961 H 947.602 -1.25963 4.09672 0
M  V30 9962 H 951.786 -0.713673 4.91142 0
M  V30 9963 H 947.042 0.0287418 6.11393 0
M  V30 9964 H 951.216 0.568333 6.94077 0
M  V30 9965 H 948.843 0.945522 7.54297 0
M  V30 9966 N 950.418 -1.49637 -0.494624 0
M  V30 9967 C 951.695 -1.4995 -1.25596 0
M  V30 9968 C 952.075 -0.230805 -2.09834 0
M  V30 9969 O 951.423 0.786625 -2.14533 0
M  V30 9970 C 951.633 -2.78204 -2.10721 0
M  V30 9971 C 952.981 -3.27946 -2.69698 0
M  V30 9972 O 954.005 -2.79365 -2.20984 0
M  V30 9973 O 952.864 -4.12571 -3.58395 0
M  V30 9974 H 949.958 -0.60044 -0.568684 0
M  V30 9975 H 952.504 -1.61906 -0.508371 0
M  V30 9976 H 951.276 -3.62029 -1.48494 0
M  V30 9977 H 950.899 -2.69139 -2.92661 0
M  V30 9978 N 951.896 0.746133 -1.38819 0
M  V30 9979 C 953.143 1.50545 -1.35434 0
M  V30 9980 C 953.471 1.94427 0.0532669 0
M  V30 9981 O 952.726 1.66285 1.03188 0
M  V30 9982 C 953.025 2.76639 -2.26286 0
M  V30 9983 C 952.691 2.51682 -3.74122 0
M  V30 9984 C 951.353 2.44584 -4.14406 0
M  V30 9985 C 953.705 2.30071 -4.67672 0
M  V30 9986 C 951.033 2.13902 -5.46318 0
M  V30 9987 C 953.385 2.00907 -5.99849 0
M  V30 9988 C 952.049 1.92271 -6.39209 0
M  V30 9989 H 951.319 0.550883 -0.49559 0
M  V30 9990 H 953.966 0.857337 -1.71237 0
M  V30 9991 H 952.271 3.46138 -1.83564 0
M  V30 9992 H 953.968 3.34626 -2.20967 0
M  V30 9993 H 950.558 2.5808 -3.42188 0
M  V30 9994 H 954.742 2.34528 -4.3739 0
M  V30 9995 H 949.998 2.0573 -5.75748 0
M  V30 9996 H 954.172 1.83191 -6.71874 0
M  V30 9997 H 951.799 1.68261 -7.41345 0
M  V30 9998 N 953.375 1.23811 0.975125 0
M  V30 9999 C 954.621 1.08502 1.72043 0
M  V30 10000 C 954.976 -0.373437 1.88741 0
M  V30 10001 O 954.269 -1.27248 1.43243 0
M  V30 10002 C 954.463 1.74994 3.11628 0
M  V30 10003 C 954.292 3.27155 3.08544 0
M  V30 10004 C 953.062 3.96338 3.1344 0
M  V30 10005 C 955.26 4.23851 2.91299 0
M  V30 10006 N 953.242 5.35439 3.00297 0
M  V30 10007 C 954.613 5.499 2.86375 0
M  V30 10008 C 956.668 4.14519 2.75824 0
M  V30 10009 C 955.371 6.67687 2.67558 0
M  V30 10010 C 957.397 5.31975 2.58372 0
M  V30 10011 C 956.759 6.56953 2.5415 0
M  V30 10012 H 952.858 0.451607 0.638416 0
M  V30 10013 H 955.442 1.56617 1.15669 0
M  V30 10014 H 953.613 1.29404 3.66209 0
M  V30 10015 H 955.345 1.52614 3.74822 0
M  V30 10016 H 952.1 3.47453 3.21828 0
M  V30 10017 H 952.524 6.08381 2.96987 0
M  V30 10018 H 957.166 3.18662 2.77874 0
M  V30 10019 H 954.884 7.63673 2.64251 0
M  V30 10020 H 958.47 5.266 2.47354 0
M  V30 10021 H 957.35 7.46309 2.40817 0
M  V30 10022 N 954.853 -1.17469 1.05066 0
M  V30 10023 C 956.1 -1.87698 0.759987 0
M  V30 10024 C 956.428 -1.80964 -0.712902 0
M  V30 10025 O 955.683 -1.21146 -1.53695 0
M  V30 10026 C 955.982 -3.37211 1.18421 0
M  V30 10027 C 955.648 -3.64148 2.65909 0
M  V30 10028 C 954.31 -3.71209 3.06199 0
M  V30 10029 C 956.662 -3.75724 3.61222 0
M  V30 10030 C 953.99 -3.87334 4.40669 0
M  V30 10031 C 956.342 -3.93368 4.95424 0
M  V30 10032 C 955.006 -3.98667 5.3537 0
M  V30 10033 H 954.276 -0.686835 0.278099 0
M  V30 10034 H 956.923 -1.38975 1.31751 0
M  V30 10035 H 955.228 -3.87982 0.545654 0
M  V30 10036 H 956.925 -3.89911 0.936518 0
M  V30 10037 H 953.515 -3.59276 2.33707 0
M  V30 10038 H 957.699 -3.69591 3.31235 0
M  V30 10039 H 952.955 -3.89685 4.71122 0
M  V30 10040 H 957.129 -4.01267 5.69173 0
M  V30 10041 H 954.756 -4.10915 6.39572 0
M  V30 10042 N 956.331 -0.831506 -1.3388 0
M  V30 10043 C 957.608 -0.345907 -1.92517 0
M  V30 10044 C 957.988 1.16784 -1.75854 0
M  V30 10045 O 957.336 1.97889 -1.14245 0
M  V30 10046 C 957.546 -0.784692 -3.40064 0
M  V30 10047 C 958.894 -0.78846 -4.17215 0
M  V30 10048 O 959.918 -0.727823 -3.48685 0
M  V30 10049 O 958.777 -0.869481 -5.39539 0
M  V30 10050 H 955.871 -0.0963568 -0.821367 0
M  V30 10051 H 958.417 -0.916868 -1.42799 0
M  V30 10052 H 957.189 -1.82697 -3.46031 0
M  V30 10053 H 956.812 -0.189897 -3.97146 0
M  V30 10054 N 957.809 1.4625 -0.587256 0
M  V30 10055 C 959.058 2.01571 -0.0722643 0
M  V30 10056 C 959.371 1.46385 1.29733 0
M  V30 10057 O 960.577 1.93554 1.90392 0
M  V30 10058 C 959.033 3.59814 -0.078579 0
M  V30 10059 C 958.641 4.23996 -1.44678 0
M  V30 10060 C 960.385 4.22776 0.382231 0
M  V30 10061 C 958.292 5.74332 -1.41057 0
M  V30 10062 H 957.222 0.753642 -0.0232461 0
M  V30 10063 H 959.873 1.67936 -0.739577 0
M  V30 10064 H 958.255 3.90546 0.654988 0
M  V30 10065 H 959.429 4.04867 -2.20043 0
M  V30 10066 H 957.744 3.73147 -1.84799 0
M  V30 10067 H 960.341 5.32983 0.428182 0
M  V30 10068 H 960.684 3.92027 1.40072 0
M  V30 10069 H 961.217 3.96687 -0.297417 0
M  V30 10070 H 957.956 6.09747 -2.40601 0
M  V30 10071 H 957.476 5.95711 -0.699185 0
M  V30 10072 H 959.155 6.37137 -1.12543 0
M  V30 10073 N 959.287 0.325282 1.54207 0
M  V30 10074 C 960.533 -0.277185 2.00897 0
M  V30 10075 C 960.866 -1.51651 1.21308 0
M  V30 10076 O 960.141 -1.92237 0.295825 0
M  V30 10077 C 960.424 -0.60961 3.54902 0
M  V30 10078 C 960.277 0.640542 4.45216 0
M  V30 10079 C 961.596 -1.42656 4.16338 0
M  V30 10080 H 958.715 -0.0992722 0.730284 0
M  V30 10081 H 961.357 0.442201 1.84783 0
M  V30 10082 H 959.507 -1.22249 3.68765 0
M  V30 10083 H 961.179 1.27878 4.43221 0
M  V30 10084 H 959.422 1.26908 4.14821 0
M  V30 10085 H 960.093 0.363459 5.50802 0
M  V30 10086 H 962.569 -0.908494 4.06061 0
M  V30 10087 H 961.445 -1.62792 5.24204 0
M  V30 10088 H 961.706 -2.42321 3.69774 0
M  V30 10089 N 960.765 -1.57509 0.0534917 0
M  V30 10090 C 961.993 -1.97098 -0.629298 0
M  V30 10091 C 962.408 -0.931128 -1.64242 0
M  V30 10092 O 961.765 0.0843866 -1.82305 0
M  V30 10093 C 961.816 -3.36767 -1.31415 0
M  V30 10094 O 961.537 -4.36766 -0.341599 0
M  V30 10095 C 963.038 -3.91127 -2.08649 0
M  V30 10096 H 960.258 -0.648611 -0.171886 0
M  V30 10097 H 962.802 -2.04145 0.120479 0
M  V30 10098 H 960.957 -3.30863 -2.01515 0
M  V30 10099 H 961.371 -5.1788 -0.830715 0
M  V30 10100 H 962.845 -4.91129 -2.51985 0
M  V30 10101 H 963.322 -3.26679 -2.9356 0
M  V30 10102 H 963.928 -4.00376 -1.43456 0
M  V30 10103 N 962.243 0.219913 -1.56058 0
M  V30 10104 C 963.654 0.786766 -1.69313 0
M  V30 10105 C 964.005 1.84916 -0.655782 0
M  V30 10106 O 963.13 2.1554 0.192772 0
M  V30 10107 C 963.725 1.43387 -3.06962 0
M  V30 10108 C 962.284 1.94809 -3.22066 0
M  V30 10109 C 961.431 0.808863 -2.65241 0
M  V30 10110 H 964.382 -0.00476777 -1.58699 0
M  V30 10111 H 964.403 2.30272 -3.02911 0
M  V30 10112 H 963.915 0.660405 -3.8244 0
M  V30 10113 H 962.016 2.74952 -2.5146 0
M  V30 10114 H 962.129 2.12694 -4.293 0
M  V30 10115 H 960.493 1.21661 -2.23765 0
M  V30 10116 H 961.276 0.0480458 -3.43266 0
M  V30 10117 N 963.721 1.49897 0.486681 0
M  V30 10118 C 964.684 1.67086 1.56891 0
M  V30 10119 C 965.684 0.54209 1.51387 0
M  V30 10120 O 966.874 0.80883 1.54284 0
M  V30 10121 C 964.006 1.68159 2.96539 0
M  V30 10122 H 965.199 2.63626 1.42974 0
M  V30 10123 H 962.752 1.39143 0.711954 0
M  V30 10124 H 963.487 0.732562 3.15918 0
M  V30 10125 H 963.272 2.50147 3.01942 0
M  V30 10126 H 964.762 1.83466 3.7514 0
M  V30 10127 N 965.199 -0.738761 1.39212 0
M  V30 10128 C 966.162 -1.83441 1.37412 0
M  V30 10129 C 967.162 -1.58484 0.271908 0
M  V30 10130 O 968.352 -1.65954 0.529609 0
M  V30 10131 C 965.484 -3.21167 1.143 0
M  V30 10132 H 966.677 -1.86441 2.34904 0
M  V30 10133 H 964.23 -0.942023 1.24722 0
M  V30 10134 H 964.965 -3.23829 0.174756 0
M  V30 10135 H 964.75 -3.40678 1.94116 0
M  V30 10136 H 966.24 -4.01231 1.15773 0
M  V30 10137 N 966.677 -1.24326 -0.968545 0
M  V30 10138 C 967.624 -1.0349 -2.06297 0
M  V30 10139 C 968.594 0.0515333 -1.6602 0
M  V30 10140 O 969.779 -0.102924 -1.90522 0
M  V30 10141 C 966.919 -0.64487 -3.39021 0
M  V30 10142 C 966.032 -1.80469 -3.92498 0
M  V30 10143 C 965.167 -1.36032 -5.13487 0
M  V30 10144 C 964.206 -2.49014 -5.59159 0
M  V30 10145 N 963.343 -2.05451 -6.71367 0
M  V30 10146 H 968.183 -1.97161 -2.23454 0
M  V30 10147 H 965.72 -0.982028 -1.0952 0
M  V30 10148 H 967.678 -0.399771 -4.1528 0
M  V30 10149 H 966.308 0.254845 -3.21792 0
M  V30 10150 H 965.36 -2.16348 -3.12886 0
M  V30 10151 H 966.672 -2.65365 -4.22354 0
M  V30 10152 H 965.826 -1.07405 -5.97117 0
M  V30 10153 H 964.565 -0.481887 -4.85313 0
M  V30 10154 H 963.57 -2.78402 -4.74102 0
M  V30 10155 H 964.795 -3.37413 -5.89346 0
M  V30 10156 H 962.741 -1.20004 -6.4493 0
M  V30 10157 H 962.658 -2.83901 -7.00668 0
M  V30 10158 H 963.926 -1.79962 -7.58442 0
M  V30 10159 N 968.156 1.1691 -1.05688 0
M  V30 10160 C 969.381 1.91745 -0.790478 0
M  V30 10161 C 969.806 1.76568 0.648478 0
M  V30 10162 O 969.164 1.08682 1.45114 0
M  V30 10163 C 969.212 3.4067 -1.18222 0
M  V30 10164 O 968.316 4.11177 -0.317341 0
M  V30 10165 H 967.657 0.5976 -0.28943 0
M  V30 10166 H 970.187 1.48157 -1.41105 0
M  V30 10167 H 970.197 3.91424 -1.15114 0
M  V30 10168 H 968.872 3.51036 -2.2304 0
M  V30 10169 H 967.449 3.70645 -0.409459 0
M  V30 10170 N 969.634 0.838594 1.33437 0
M  V30 10171 C 970.544 0.274048 2.32994 0
M  V30 10172 C 971.56 -0.599776 1.63336 0
M  V30 10173 O 972.736 -0.503963 1.94993 0
M  V30 10174 C 969.801 -0.541804 3.4244 0
M  V30 10175 C 968.862 0.356262 4.27819 0
M  V30 10176 C 968.095 -0.420747 5.32039 0
M  V30 10177 O 968.318 -1.65247 5.45939 0
M  V30 10178 O 967.252 0.205101 6.0155 0
M  V30 10179 H 971.078 1.09846 2.83139 0
M  V30 10180 H 968.663 0.601111 1.36774 0
M  V30 10181 H 970.545 -1.00544 4.0923 0
M  V30 10182 H 969.22 -1.34328 2.94513 0
M  V30 10183 H 968.127 0.867726 3.63897 0
M  V30 10184 H 969.46 1.1225 4.79229 0
M  V30 10185 N 971.112 -1.45937 0.595003 0
M  V30 10186 C 972.36 -2.01921 0.0851368 0
M  V30 10187 C 972.681 -1.46748 -1.28413 0
M  V30 10188 O 971.951 -0.656873 -1.84559 0
M  V30 10189 H 970.531 -0.746457 0.0284826 0
M  V30 10190 H 973.193 -1.78891 0.773561 0
M  V30 10191 H 972.289 -3.1209 0.0254002 0
M  V30 10192 O 972.629 -0.475622 -1.54338 0
M  V30 10193 H 973.32 0.048546 -1.93639 0
M  V30 END ATOM
M  V30 BEGIN BOND
M  V30 END BOND
M  V30 END CTAB
M  END
$$$$
