drugbank_target|K9N638 Replicase polyprotein 1a (DB15796; DB15797)
 OpenBabel12092121283D

  0  0  0     0  0            999 V3000
M  V30 BEGIN CTAB
M  V30 COUNTS 68164 68930 0 0 0
M  V30 BEGIN ATOM
M  V30 1 H -0.908 1.98254 -0.117106 0
M  V30 2 N 0 1.576 0 0
M  V30 3 C 0.933 2.03868 1.02534 0
M  V30 4 C 1.911 0.928543 1.3348 0
M  V30 5 O 3.095 1.19667 1.45644 0
M  V30 6 C 0.222 2.43627 2.35294 0
M  V30 7 C -0.732 3.65373 2.2001 0
M  V30 8 S 0.101 5.13292 1.52614 0
M  V30 9 C 1.257 5.56322 2.86805 0
M  V30 10 H 1.49 2.90518 0.631377 0
M  V30 11 H -0.977 1.52953 0.210867 0
M  V30 12 H 0.981 2.67203 3.11629 0
M  V30 13 H -0.358 1.57376 2.7183 0
M  V30 14 H -1.165 3.90944 3.18086 0
M  V30 15 H -1.563 3.418 1.51819 0
M  V30 16 H 0.729 5.58782 3.83104 0
M  V30 17 H 1.672 6.56266 2.65933 0
M  V30 18 H 2.08 4.83886 2.90714 0
M  V30 19 N 1.4781 -0.272755 1.55222 0
M  V30 20 C 2.7031 -1.02683 1.80197 0
M  V30 21 C 3.1281 -1.79142 0.573551 0
M  V30 22 O 2.4861 -1.74917 -0.476849 0
M  V30 23 C 2.5341 -1.9609 3.02624 0
M  V30 24 O 1.6381 -3.04863 2.77727 0
M  V30 25 H 0.9791 -0.293557 0.595584 0
M  V30 26 H 3.5091 -0.30159 2.02365 0
M  V30 27 H 3.5191 -2.38039 3.31363 0
M  V30 28 H 2.1941 -1.39851 3.91682 0
M  V30 29 H 0.7711 -2.67228 2.60084 0
M  V30 30 N 2.9562 -1.48159 -0.537278 0
M  V30 31 C 4.2032 -1.55804 -1.29349 0
M  V30 32 C 4.5312 -0.228802 -1.9315 0
M  V30 33 O 3.7862 0.780242 -1.79473 0
M  V30 34 C 4.0852 -2.63956 -2.40961 0
M  V30 35 C 3.7512 -4.0662 -1.94861 0
M  V30 36 C 2.4132 -4.45452 -1.82006 0
M  V30 37 C 4.7652 -4.96055 -1.59933 0
M  V30 38 C 2.0932 -5.71531 -1.32547 0
M  V30 39 C 4.4452 -6.22617 -1.11939 0
M  V30 40 C 3.1092 -6.60312 -0.976951 0
M  V30 41 H 2.3792 -0.570129 -0.473322 0
M  V30 42 H 5.0262 -1.81845 -0.600372 0
M  V30 43 H 3.3312 -2.31747 -3.15912 0
M  V30 44 H 5.0282 -2.67089 -2.99107 0
M  V30 45 H 1.6182 -3.75949 -2.05815 0
M  V30 46 H 5.8022 -4.66738 -1.68728 0
M  V30 47 H 1.0582 -5.99468 -1.202 0
M  V30 48 H 5.2322 -6.91318 -0.839811 0
M  V30 49 H 2.8592 -7.57895 -0.591501 0
M  V30 50 N 4.4343 0.785586 -1.36625 0
M  V30 51 C 5.6803 1.54591 -1.31261 0
M  V30 52 C 6.0133 1.93906 0.106823 0
M  V30 53 O 5.2883 1.63007 1.06108 0
M  V30 54 C 5.5713 2.82038 -2.23889 0
M  V30 55 C 5.4243 2.49066 -3.74548 0
M  V30 56 C 6.7433 3.83887 -2.15217 0
M  V30 57 H 3.8623 0.560846 -0.478143 0
M  V30 58 H 6.5043 0.902278 -1.67209 0
M  V30 59 H 4.6543 3.36961 -1.93363 0
M  V30 60 H 6.3263 2.00164 -4.15611 0
M  V30 61 H 4.5693 1.81954 -3.93796 0
M  V30 62 H 5.2403 3.40109 -4.34776 0
M  V30 63 H 7.7163 3.38421 -2.42096 0
M  V30 64 H 6.5923 4.70806 -2.82193 0
M  V30 65 H 6.8533 4.27131 -1.14068 0
M  V30 66 N 5.9124 1.20967 1.01018 0
M  V30 67 C 6.8754 0.965918 2.07853 0
M  V30 68 C 7.8754 -0.0610545 1.60684 0
M  V30 69 O 9.0654 0.175681 1.73312 0
M  V30 70 C 6.1974 0.455513 3.37843 0
M  V30 71 H 7.3904 1.91365 2.3091 0
M  V30 72 H 4.9434 1.02594 1.17916 0
M  V30 73 H 5.6784 -0.497381 3.20463 0
M  V30 74 H 5.4634 1.19622 3.73407 0
M  V30 75 H 6.9534 0.304667 4.16487 0
M  V30 76 N 7.3905 -1.2043 1.01659 0
M  V30 77 C 8.6385 -1.89423 0.704522 0
M  V30 78 C 8.9595 -1.79231 -0.768197 0
M  V30 79 O 8.2295 -1.1947 -1.55254 0
M  V30 80 H 6.8095 -0.701178 0.257602 0
M  V30 81 H 9.4715 -1.4626 1.28818 0
M  V30 82 H 8.5675 -2.96052 0.987916 0
M  V30 83 N 8.8686 -0.792821 -1.36206 0
M  V30 84 C 10.1146 -0.36733 -1.99446 0
M  V30 85 C 10.4476 1.05917 -1.62774 0
M  V30 86 O 9.7226 1.7324 -0.88421 0
M  V30 87 C 10.0056 -0.535044 -3.56103 0
M  V30 88 C 9.8586 -2.00548 -4.02617 0
M  V30 89 C 11.1776 0.0478191 -4.40074 0
M  V30 90 H 8.2966 -0.134941 -0.724541 0
M  V30 91 H 10.9386 -0.999794 -1.61568 0
M  V30 92 H 9.0886 0.00336329 -3.885 0
M  V30 93 H 10.7606 -2.60521 -3.80692 0
M  V30 94 H 9.0036 -2.50686 -3.54032 0
M  V30 95 H 9.6746 -2.07377 -5.11565 0
M  V30 96 H 12.1506 -0.411822 -4.14057 0
M  V30 97 H 11.0266 -0.0995336 -5.4881 0
M  V30 98 H 11.2876 1.14025 -4.27142 0
M  V30 99 N 10.3467 1.47872 -0.545128 0
M  V30 100 C 11.5747 2.06889 -0.021084 0
M  V30 101 C 11.9897 1.39955 1.2672 0
M  V30 102 O 11.3467 0.492036 1.75742 0
M  V30 103 C 11.3977 3.60996 0.190817 0
M  V30 104 O 11.1187 4.25419 -1.04644 0
M  V30 105 C 12.6197 4.36849 0.753521 0
M  V30 106 H 9.8397 0.669785 -0.0403635 0
M  V30 107 H 12.3837 1.90049 -0.755095 0
M  V30 108 H 10.5387 3.77391 0.87492 0
M  V30 109 H 10.9527 5.17785 -0.836611 0
M  V30 110 H 12.4267 5.45399 0.851139 0
M  V30 111 H 12.9037 4.02306 1.762 0
M  V30 112 H 13.5097 4.25169 0.105503 0
M  V30 113 N 11.8248 0.280983 1.55075 0
M  V30 114 C 12.7878 -0.590896 2.21452 0
M  V30 115 C 13.7878 -1.07682 1.19421 0
M  V30 116 O 14.9778 -0.97605 1.44288 0
M  V30 117 C 12.1098 -1.81587 2.88511 0
M  V30 118 H 13.3028 -0.0112554 2.99898 0
M  V30 119 H 10.8558 0.0316438 1.56268 0
M  V30 120 H 11.5908 -2.43587 2.14093 0
M  V30 121 H 11.3758 -1.4753 3.63287 0
M  V30 122 H 12.8658 -2.43575 3.39206 0
M  V30 123 N 13.3029 -1.57598 0.00835791 0
M  V30 124 C 14.2349 -2.05811 -1.00868 0
M  V30 125 C 15.2479 -0.977579 -1.30182 0
M  V30 126 O 16.4369 -1.25421 -1.27011 0
M  V30 127 C 13.5369 -2.45016 -2.34137 0
M  V30 128 C 12.7099 -3.75903 -2.23643 0
M  V30 129 C 11.7689 -4.01884 -3.3967 0
M  V30 130 O 10.7949 -4.72433 -3.17483 0
M  V30 131 N 11.9969 -3.50432 -4.62793 0
M  V30 132 H 14.7619 -2.93684 -0.597458 0
M  V30 133 H 12.3229 -1.60909 -0.178852 0
M  V30 134 H 14.3149 -2.59506 -3.10546 0
M  V30 135 H 12.8849 -1.62618 -2.66972 0
M  V30 136 H 12.1049 -3.7141 -1.32091 0
M  V30 137 H 13.3929 -4.61695 -2.13812 0
M  V30 138 H 12.7909 -2.93317 -4.83716 0
M  V30 139 H 11.3479 -3.70236 -5.3644 0
M  V30 140 N 14.781 0.264519 -1.55364 0
M  V30 141 C 16.029 0.993021 -1.76021 0
M  V30 142 C 16.35 1.86511 -0.569099 0
M  V30 143 O 15.62 1.91438 0.415735 0
M  V30 144 H 14.2 0.369639 -0.649135 0
M  V30 145 H 16.862 0.286707 -1.9278 0
M  V30 146 H 15.958 1.62502 -2.66457 0
M  V30 147 N 16.2591 1.48442 0.529413 0
M  V30 148 C 17.2221 1.62524 1.61612 0
M  V30 149 C 18.2221 0.498509 1.52877 0
M  V30 150 O 19.4121 0.76431 1.56537 0
M  V30 151 C 16.5441 1.59597 3.01233 0
M  V30 152 H 17.7371 2.59423 1.50465 0
M  V30 153 H 15.2901 1.37047 0.751514 0
M  V30 154 H 16.0251 0.641781 3.17886 0
M  V30 155 H 15.8101 2.41397 3.08982 0
M  V30 156 H 17.3001 1.72646 3.80241 0
M  V30 157 N 17.7372 -0.778329 1.37039 0
M  V30 158 C 19.1532 -1.07796 1.17695 0
M  V30 159 C 19.3532 -2.01498 0.00860115 0
M  V30 160 O 18.4092 -2.43901 -0.653352 0
M  V30 161 C 19.7222 -1.68178 2.49272 0
M  V30 162 C 21.2702 -1.80467 2.55735 0
M  V30 163 C 21.7452 -2.44263 3.87427 0
M  V30 164 N 23.2362 -2.51721 3.88833 0
M  V30 165 C 23.9712 -3.01919 4.87476 0
M  V30 166 N 23.4672 -3.5234 5.96513 0
M  V30 167 N 25.2602 -3.00733 4.74885 0
M  V30 168 H 17.4112 -0.156032 2.11826 0
M  V30 169 H 19.6742 -0.131844 0.938787 0
M  V30 170 H 19.3802 -1.06796 3.35093 0
M  V30 171 H 19.2542 -2.67554 2.65885 0
M  V30 172 H 21.6412 -2.40984 1.70325 0
M  V30 173 H 21.7222 -0.798656 2.43013 0
M  V30 174 H 21.3662 -1.84388 4.73248 0
M  V30 175 H 21.2962 -3.45458 3.9745 0
M  V30 176 H 23.7872 -2.1603 3.10063 0
M  V30 177 H 24.1002 -3.89027 6.67741 0
M  V30 178 H 22.4452 -3.50462 6.00168 0
M  V30 179 H 25.6362 -2.60638 3.88826 0
M  V30 180 H 25.8092 -3.39545 5.51918 0
M  V30 181 N 19.2153 -1.21501 -1.00376 0
M  V30 182 C 20.4633 -1.03095 -1.73827 0
M  V30 183 C 20.7843 0.436341 -1.90055 0
M  V30 184 O 20.0543 1.31466 -1.45236 0
M  V30 185 H 18.6343 -0.378487 -0.644016 0
M  V30 186 H 21.2963 -1.52831 -1.20949 0
M  V30 187 H 20.3923 -1.49991 -2.73695 0
M  V30 188 N 20.6934 1.19889 -1.02296 0
M  V30 189 C 21.9214 1.9339 -0.735399 0
M  V30 190 C 22.3364 1.75148 0.704887 0
M  V30 191 O 21.6934 1.06954 1.47875 0
M  V30 192 C 21.7444 3.45313 -1.06962 0
M  V30 193 O 21.4654 3.62964 -2.45334 0
M  V30 194 C 22.9664 4.35948 -0.804021 0
M  V30 195 H 20.1864 0.61448 -0.269546 0
M  V30 196 H 22.7304 1.522 -1.36585 0
M  V30 197 H 20.8854 3.84359 -0.484455 0
M  V30 198 H 21.2994 4.56886 -2.57595 0
M  V30 199 H 22.7734 5.41174 -1.0879 0
M  V30 200 H 23.2504 4.3842 0.261691 0
M  V30 201 H 23.8564 4.02574 -1.37164 0
M  V30 202 N 22.1715 0.800033 1.35784 0
M  V30 203 C 23.4015 0.389041 2.02904 0
M  V30 204 C 23.8095 -1.0027 1.60445 0
M  V30 205 O 23.1525 -1.65633 0.794453 0
M  V30 206 C 23.2145 0.385495 3.57427 0
M  V30 207 C 22.8785 1.72662 4.23127 0
M  V30 208 C 23.8755 2.68385 4.4527 0
M  V30 209 C 21.5605 2.00883 4.60381 0
M  V30 210 C 23.5545 3.90517 5.03761 0
M  V30 211 C 21.2415 3.2328 5.18588 0
M  V30 212 C 22.2395 4.17915 5.40218 0
M  V30 213 O 21.9275 5.38153 5.97199 0
M  V30 214 H 21.6595 0.157032 0.657508 0
M  V30 215 H 24.2135 1.08311 1.74522 0
M  V30 216 H 22.4435 -0.365128 3.84972 0
M  V30 217 H 24.1325 -0.00228296 4.059 0
M  V30 218 H 24.8985 2.47872 4.16874 0
M  V30 219 H 20.7775 1.28037 4.42863 0
M  V30 220 H 24.3215 4.64395 5.2056 0
M  V30 221 H 20.2185 3.43667 5.4641 0
M  V30 222 H 20.9865 5.3936 6.15656 0
M  V30 223 N 23.6496 -1.47581 0.552962 0
M  V30 224 C 25.0656 -1.5818 0.212424 0
M  V30 225 C 25.2656 -1.55213 -1.28496 0
M  V30 226 O 24.3216 -1.45329 -2.06484 0
M  V30 227 C 25.6346 -2.88865 0.835318 0
M  V30 228 C 27.1826 -3.0244 0.806156 0
M  V30 229 C 27.6576 -4.35819 1.40804 0
M  V30 230 N 29.1486 -4.42444 1.37103 0
M  V30 231 C 29.8836 -5.44202 1.80641 0
M  V30 232 N 29.3796 -6.52795 2.32015 0
M  V30 233 N 31.1726 -5.35222 1.71738 0
M  V30 234 H 23.3236 -1.47753 1.52587 0
M  V30 235 H 25.5866 -0.702941 0.636064 0
M  V30 236 H 25.2926 -2.9676 1.88749 0
M  V30 237 H 25.1666 -3.7579 0.325848 0
M  V30 238 H 27.5536 -2.94144 -0.237317 0
M  V30 239 H 27.6346 -2.17068 1.35334 0
M  V30 240 H 27.2786 -4.44871 2.45056 0
M  V30 241 H 27.2086 -5.19916 0.836338 0
M  V30 242 H 29.6996 -3.6456 0.995202 0
M  V30 243 H 30.0126 -7.26609 2.63171 0
M  V30 244 H 28.3576 -6.53696 2.36023 0
M  V30 245 H 31.5486 -4.49284 1.31382 0
M  V30 246 H 31.7216 -6.14389 2.05987 0
M  V30 247 N 25.1277 -0.289203 -1.54924 0
M  V30 248 C 26.0907 0.579144 -2.21762 0
M  V30 249 C 27.0907 1.07047 -1.1999 0
M  V30 250 O 28.2807 0.968384 -1.44803 0
M  V30 251 C 25.4127 1.80055 -2.8947 0
M  V30 252 H 26.6057 -0.00464908 -2.999 0
M  V30 253 H 24.1587 -0.0399306 -1.56249 0
M  V30 254 H 24.8937 2.42449 -2.15381 0
M  V30 255 H 24.6787 1.45602 -3.64064 0
M  V30 256 H 26.1687 2.41773 -3.40493 0
M  V30 257 N 26.6058 1.57591 -0.0167156 0
M  V30 258 C 27.5688 2.08393 0.954204 0
M  V30 259 C 28.5688 0.996531 1.26198 0
M  V30 260 O 29.7588 1.25858 1.20438 0
M  V30 261 C 26.8908 2.5394 2.27436 0
M  V30 262 H 28.0838 2.95455 0.514451 0
M  V30 263 H 25.6368 1.54582 0.231089 0
M  V30 264 H 26.3718 1.70171 2.76066 0
M  V30 265 H 26.1568 3.33371 2.06412 0
M  V30 266 H 27.6468 2.93512 2.97053 0
M  V30 267 N 28.0839 -0.256276 1.55502 0
M  V30 268 C 29.0139 -1.32102 1.92539 0
M  V30 269 C 29.9949 -1.50684 0.789194 0
M  V30 270 O 31.1799 -1.63449 1.04872 0
M  V30 271 C 28.3099 -2.67752 2.21192 0
M  V30 272 C 27.2639 -2.63878 3.36975 0
M  V30 273 C 26.5899 -4.03236 3.51147 0
M  V30 274 C 27.8899 -2.21682 4.72921 0
M  V30 275 H 29.5839 -1.01351 2.81724 0
M  V30 276 H 27.1299 -0.486105 1.35547 0
M  V30 277 H 29.0829 -3.42365 2.45691 0
M  V30 278 H 27.8069 -3.0012 1.28824 0
M  V30 279 H 26.4659 -1.91722 3.12471 0
M  V30 280 H 26.1139 -4.32854 2.56216 0
M  V30 281 H 25.8139 -4.01535 4.29003 0
M  V30 282 H 27.3379 -4.79563 3.77957 0
M  V30 283 H 28.7519 -2.86023 4.96854 0
M  V30 284 H 27.1489 -2.3111 5.53812 0
M  V30 285 H 28.2189 -1.16833 4.70615 0
M  V30 286 N 29.562 -1.4872 -0.521534 0
M  V30 287 C 30.51 -1.64328 -1.64618 0
M  V30 288 C 31.504 -0.50953 -1.61555 0
M  V30 289 O 32.71 -0.688525 -1.66311 0
M  V30 290 H 29.085 -0.517805 -0.545328 0
M  V30 291 H 31.056 -2.58767 -1.48601 0
M  V30 292 C 29.805 -1.70805 -3.02855 0
M  V30 293 H 29.128 -2.5741 -3.05909 0
M  V30 294 H 30.568 -1.85766 -3.81139 0
M  V30 295 C 29.027 -0.448479 -3.33902 0
M  V30 296 O 29.557 0.434928 -3.99339 0
M  V30 297 N 27.763 -0.317616 -2.88859 0
M  V30 298 H 27.31 -1.03748 -2.35784 0
M  V30 299 H 27.268 0.524113 -3.10001 0
M  V30 300 N 31.0401 0.771051 -1.3745 0
M  V30 301 C 32.2651 1.56529 -1.36065 0
M  V30 302 C 32.6901 1.88029 0.0515859 0
M  V30 303 O 32.0481 1.49282 1.02882 0
M  V30 304 C 32.0961 2.85187 -2.20683 0
M  V30 305 O 31.2001 3.79593 -1.61193 0
M  V30 306 H 30.5411 0.47411 -0.464883 0
M  V30 307 H 33.0711 0.954269 -1.80983 0
M  V30 308 H 33.0811 3.34283 -2.33921 0
M  V30 309 H 31.7561 2.61588 -3.23334 0
M  V30 310 H 30.3331 3.38239 -1.56999 0
M  V30 311 N 32.5182 1.22032 0.997298 0
M  V30 312 C 33.4282 1.00271 2.12092 0
M  V30 313 C 34.4442 -0.047621 1.73935 0
M  V30 314 O 35.6202 0.144136 2.00884 0
M  V30 315 C 32.6852 0.578449 3.4184 0
M  V30 316 C 31.7462 1.70189 3.94125 0
M  V30 317 C 30.9792 1.29778 5.17681 0
M  V30 318 O 31.2022 0.174676 5.70132 0
M  V30 319 O 30.1362 2.11261 5.63607 0
M  V30 320 H 33.9622 1.94398 2.3333 0
M  V30 321 H 31.5472 1.00587 1.10465 0
M  V30 322 H 33.4292 0.351998 4.19927 0
M  V30 323 H 32.1042 -0.334019 3.21972 0
M  V30 324 H 31.0112 1.98282 3.1723 0
M  V30 325 H 32.3442 2.59206 4.18417 0
M  V30 326 N 33.9963 -1.19345 1.0293 0
M  V30 327 C 34.9433 -2.2258 0.610464 0
M  V30 328 C 35.9133 -1.6179 -0.375946 0
M  V30 329 O 37.0983 -1.88844 -0.272511 0
M  V30 330 C 34.2383 -3.45085 -0.0321473 0
M  V30 331 C 33.3513 -4.20258 1.00035 0
M  V30 332 C 32.4863 -5.3019 0.32746 0
M  V30 333 C 31.5253 -5.97121 1.34584 0
M  V30 334 N 30.6623 -6.98615 0.698726 0
M  V30 335 H 35.5023 -2.57764 1.49538 0
M  V30 336 H 33.0393 -1.26644 0.748311 0
M  V30 337 H 34.9973 -4.15061 -0.421966 0
M  V30 338 H 33.6273 -3.10555 -0.88064 0
M  V30 339 H 32.6793 -3.49223 1.50823 0
M  V30 340 H 33.9913 -4.66175 1.77433 0
M  V30 341 H 33.1453 -6.06587 -0.11718 0
M  V30 342 H 31.8843 -4.85345 -0.478713 0
M  V30 343 H 30.8893 -5.19474 1.80074 0
M  V30 344 H 32.1143 -6.4405 2.15352 0
M  V30 345 H 30.0603 -6.55942 -0.0873471 0
M  V30 346 H 29.9773 -7.42724 1.41058 0
M  V30 347 H 31.2453 -7.79004 0.278102 0
M  V30 348 N 35.4744 -0.807222 -1.35358 0
M  V30 349 C 36.4244 -0.190706 -2.27201 0
M  V30 350 C 37.4084 0.635838 -1.47804 0
M  V30 351 O 38.6004 0.492991 -1.69996 0
M  V30 352 C 35.7294 0.659337 -3.36909 0
M  V30 353 C 34.8154 -0.176971 -4.23731 0
M  V30 354 N 35.2064 -1.24029 -4.90357 0
M  V30 355 C 33.5044 0.0412953 -4.45981 0
M  V30 356 C 34.2054 -1.75092 -5.54723 0
M  V30 357 N 33.1814 -1.05727 -5.33219 0
M  V30 358 H 36.9834 -1.0043 -2.76208 0
M  V30 359 H 34.4974 -0.648445 -1.48892 0
M  V30 360 H 36.4944 1.11706 -4.01656 0
M  V30 361 H 35.1544 1.47127 -2.89454 0
M  V30 362 H 36.1654 -1.62295 -4.91814 0
M  V30 363 H 32.8424 0.82232 -4.09322 0
M  V30 364 H 34.2324 -2.63963 -6.17878 0
M  V30 365 N 36.9525 1.47285 -0.560781 0
M  V30 366 C 37.8845 2.28118 0.222438 0
M  V30 367 C 38.8975 1.37219 0.876056 0
M  V30 368 O 40.0865 1.62011 0.749307 0
M  V30 369 C 37.1865 3.1159 1.33285 0
M  V30 370 C 36.3595 4.30473 0.77534 0
M  V30 371 C 35.4185 4.95513 1.77069 0
M  V30 372 O 34.4445 5.53792 1.31539 0
M  V30 373 N 35.6465 4.90531 3.10418 0
M  V30 374 H 38.4115 2.95976 -0.470958 0
M  V30 375 H 35.9725 1.56955 -0.39709 0
M  V30 376 H 37.9645 3.51967 1.99752 0
M  V30 377 H 36.5345 2.45951 1.92943 0
M  V30 378 H 35.7545 3.94144 -0.0662113 0
M  V30 379 H 37.0425 5.07362 0.382272 0
M  V30 380 H 36.4405 4.44389 3.5005 0
M  V30 381 H 34.9975 5.34917 3.72434 0
M  V30 382 N 38.4306 0.297415 1.54768 0
M  V30 383 C 39.7076 -0.365847 1.92148 0
M  V30 384 C 40.0876 -1.71975 1.22424 0
M  V30 385 O 39.4356 -2.25666 0.358739 0
M  V30 386 C 39.6456 -0.484056 3.45627 0
M  V30 387 C 40.9936 -0.756594 4.17805 0
M  V30 388 O 42.0176 -0.568007 3.51642 0
M  V30 389 O 40.8766 -1.11863 5.34929 0
M  V30 390 H 37.9706 -0.203919 0.801465 0
M  V30 391 H 40.5166 0.34521 1.66152 0
M  V30 392 H 39.2886 0.467865 3.88493 0
M  V30 393 H 38.9116 -1.24372 3.77647 0
M  V30 394 N 39.9087 -1.5758 0.0250728 0
M  V30 395 C 40.8587 -2.06468 -0.967201 0
M  V30 396 C 41.8427 -0.964376 -1.28797 0
M  V30 397 O 43.0347 -1.22797 -1.27475 0
M  V30 398 C 40.1637 -2.59203 -2.25097 0
M  V30 399 C 39.2497 -3.76157 -1.95874 0
M  V30 400 N 39.6407 -4.86919 -1.36905 0
M  V30 401 C 37.9387 -3.84566 -2.25887 0
M  V30 402 C 38.6397 -5.68172 -1.24724 0
M  V30 403 N 37.6157 -5.14953 -1.74138 0
M  V30 404 H 41.4177 -2.89508 -0.506176 0
M  V30 405 H 38.9317 -1.61399 -0.18004 0
M  V30 406 H 40.9287 -2.92517 -2.97052 0
M  V30 407 H 39.5887 -1.77592 -2.71829 0
M  V30 408 H 40.5997 -5.07256 -1.04459 0
M  V30 409 H 37.2767 -3.13854 -2.75321 0
M  V30 410 H 38.6667 -6.67221 -0.791605 0
M  V30 411 N 41.3868 0.248026 -1.55636 0
M  V30 412 C 42.6328 0.97767 -1.77678 0
M  V30 413 C 42.9658 1.85016 -0.590135 0
M  V30 414 O 42.2408 1.90095 0.411611 0
M  V30 415 C 42.5238 1.83914 -3.09593 0
M  V30 416 C 42.3768 0.99491 -4.38659 0
M  V30 417 C 43.6958 2.82183 -3.37729 0
M  V30 418 H 40.8148 0.354005 -0.646413 0
M  V30 419 H 43.4568 0.248253 -1.88371 0
M  V30 420 H 41.6068 2.46104 -3.00608 0
M  V30 421 H 43.2788 0.391789 -4.59633 0
M  V30 422 H 41.5218 0.299231 -4.32767 0
M  V30 423 H 42.1928 1.63145 -5.2734 0
M  V30 424 H 44.6688 2.30129 -3.4667 0
M  V30 425 H 43.5448 3.39582 -4.31249 0
M  V30 426 H 43.8058 3.58588 -2.58586 0
M  V30 427 N 42.8649 1.48995 0.513639 0
M  V30 428 C 44.0899 1.61792 1.29762 0
M  V30 429 C 44.5149 0.284475 1.85936 0
M  V30 430 O 43.8729 -0.746185 1.65232 0
M  V30 431 C 43.9209 2.67993 2.41272 0
M  V30 432 O 43.0249 2.26287 3.44772 0
M  V30 433 H 42.3659 0.541963 0.38363 0
M  V30 434 H 44.8959 1.95097 0.616307 0
M  V30 435 H 44.9059 2.89772 2.87221 0
M  V30 436 H 43.5809 3.64791 1.9975 0
M  V30 437 H 42.1579 2.14788 3.04829 0
M  V30 438 N 44.343 -0.763751 1.37857 0
M  V30 439 C 45.273 -1.89103 1.36975 0
M  V30 440 C 46.254 -1.68439 0.237152 0
M  V30 441 O 47.439 -1.8918 0.438713 0
M  V30 442 C 44.569 -3.26496 1.18395 0
M  V30 443 C 43.523 -3.61741 2.28751 0
M  V30 444 C 42.849 -4.97762 1.95286 0
M  V30 445 C 44.149 -3.67665 3.70972 0
M  V30 446 H 45.843 -1.90099 2.31307 0
M  V30 447 H 43.389 -0.91319 1.11341 0
M  V30 448 H 45.342 -4.05003 1.16406 0
M  V30 449 H 44.066 -3.25955 0.205215 0
M  V30 450 H 42.725 -2.85547 2.29909 0
M  V30 451 H 42.373 -4.93769 0.959221 0
M  V30 452 H 42.073 -5.22313 2.69189 0
M  V30 453 H 43.597 -5.7866 1.94898 0
M  V30 454 H 45.011 -4.36307 3.719 0
M  V30 455 H 43.408 -4.03718 4.43995 0
M  V30 456 H 44.478 -2.68134 4.0402 0
M  V30 457 N 45.8211 -1.22559 -0.990812 0
M  V30 458 C 47.0491 -1.07779 -1.76611 0
M  V30 459 C 47.4641 0.371513 -1.85109 0
M  V30 460 O 46.8211 1.25737 -1.32274 0
M  V30 461 C 46.8721 -1.68512 -3.19822 0
M  V30 462 O 46.5931 -3.07774 -3.1178 0
M  V30 463 C 48.0941 -1.59035 -4.13791 0
M  V30 464 H 45.3141 -0.377729 -0.554583 0
M  V30 465 H 47.8581 -1.62195 -1.24551 0
M  V30 466 H 46.0131 -1.18154 -3.68942 0
M  V30 467 H 46.4271 -3.37062 -4.01858 0
M  V30 468 H 47.9011 -2.0625 -5.1202 0
M  V30 469 H 48.3781 -0.547273 -4.35777 0
M  V30 470 H 48.9841 -2.08709 -3.70568 0
M  V30 471 N 47.2992 1.18797 -1.03562 0
M  V30 472 C 48.5452 1.8893 -0.737113 0
M  V30 473 C 48.8782 1.79837 0.732956 0
M  V30 474 O 48.1532 1.19525 1.5344 0
M  V30 475 C 48.4362 3.39607 -1.19745 0
M  V30 476 C 48.2892 3.57537 -2.72924 0
M  V30 477 C 49.6082 4.33069 -0.783526 0
M  V30 478 H 46.7272 0.686057 -0.269249 0
M  V30 479 H 49.3692 1.39797 -1.28673 0
M  V30 480 H 47.5192 3.81583 -0.729855 0
M  V30 481 H 49.1912 3.24688 -3.27682 0
M  V30 482 H 47.4342 3.00363 -3.12993 0
M  V30 483 H 48.1052 4.63238 -3.00191 0
M  V30 484 H 50.5812 3.98846 -1.18581 0
M  V30 485 H 49.4572 5.3707 -1.13343 0
M  V30 486 H 49.7182 4.40986 0.313681 0
M  V30 487 N 48.7773 0.814389 1.34928 0
M  V30 488 C 50.1883 0.458364 1.80986 0
M  V30 489 C 50.5393 -1.02042 1.67577 0
M  V30 490 O 49.6643 -1.79352 1.21086 0
M  V30 491 C 50.2593 0.825212 3.28597 0
M  V30 492 C 48.8183 0.521677 3.72767 0
M  V30 493 C 47.9653 1.04668 2.56788 0
M  V30 494 H 50.9163 1.00533 1.22795 0
M  V30 495 H 50.9373 0.12571 3.80292 0
M  V30 496 H 50.4493 1.90154 3.38324 0
M  V30 497 H 48.5503 -0.545589 3.68584 0
M  V30 498 H 48.6633 1.05977 4.67232 0
M  V30 499 H 47.0273 0.468622 2.50352 0
M  V30 500 H 47.8103 2.12927 2.6929 0
M  V30 501 N 50.2554 -1.46986 0.568584 0
M  V30 502 C 51.1854 -2.32946 -0.160753 0
M  V30 503 C 52.1664 -1.44487 -0.897631 0
M  V30 504 O 53.3514 -1.73327 -0.875867 0
M  V30 505 C 50.4814 -3.26494 -1.18403 0
M  V30 506 C 49.4354 -4.24282 -0.562895 0
M  V30 507 C 48.7614 -5.07236 -1.69163 0
M  V30 508 C 50.0614 -5.19989 0.490761 0
M  V30 509 H 51.7554 -2.94175 0.556916 0
M  V30 510 H 49.3014 -1.4146 0.26927 0
M  V30 511 H 51.2544 -3.85477 -1.70251 0
M  V30 512 H 49.9784 -2.63343 -1.93179 0
M  V30 513 H 48.6374 -3.66541 -0.0656164 0
M  V30 514 H 48.2854 -4.4048 -2.42871 0
M  V30 515 H 47.9854 -5.7345 -1.28174 0
M  V30 516 H 49.5094 -5.6908 -2.21314 0
M  V30 517 H 50.9234 -5.73271 0.0579047 0
M  V30 518 H 49.3204 -5.94469 0.820165 0
M  V30 519 H 50.3904 -4.64777 1.3824 0
M  V30 520 N 51.7335 -0.305618 -1.54608 0
M  V30 521 C 52.9735 0.303114 -2.0214 0
M  V30 522 C 53.3375 1.50737 -1.18921 0
M  V30 523 O 54.5385 2.18778 -1.56172 0
M  V30 524 C 52.8095 0.646332 -3.51507 0
M  V30 525 S 54.3685 1.23727 -4.20995 0
M  V30 526 H 51.1865 0.0927643 -0.704923 0
M  V30 527 H 53.7885 -0.434566 -1.90609 0
M  V30 528 H 52.4925 -0.238541 -4.09706 0
M  V30 529 H 52.0235 1.41468 -3.67084 0
M  V30 530 H 54.0385 2.52489 -4.27158 0
M  V30 531 N 53.2116 1.57565 -0.0334293 0
M  V30 532 C 54.4596 1.91598 0.642999 0
M  V30 533 C 54.7806 0.910847 1.7242 0
M  V30 534 O 54.0506 -0.0469931 1.95844 0
M  V30 535 H 52.6306 0.707228 0.240496 0
M  V30 536 H 55.2926 1.94726 -0.0822488 0
M  V30 537 H 54.3886 2.92336 1.09298 0
M  V30 538 N 54.6897 -0.239769 1.55765 0
M  V30 539 C 55.9147 -0.988373 1.82335 0
M  V30 540 C 56.3397 -1.77886 0.611421 0
M  V30 541 O 55.6977 -1.75889 -0.439639 0
M  V30 542 C 55.7457 -1.89627 3.06715 0
M  V30 543 O 54.8497 -2.98904 2.84131 0
M  V30 544 H 54.1907 -0.280858 0.601677 0
M  V30 545 H 56.7207 -0.258597 2.02959 0
M  V30 546 H 56.7307 -2.30957 3.36338 0
M  V30 547 H 55.4057 -1.31511 3.9456 0
M  V30 548 H 53.9827 -2.61651 2.65694 0
M  V30 549 N 56.1678 -1.49265 -0.50573 0
M  V30 550 C 57.4158 -1.582 -1.25766 0
M  V30 551 C 57.7368 -0.268482 -1.93143 0
M  V30 552 O 57.0068 0.711833 -1.8251 0
M  V30 553 H 55.5868 -0.582873 -0.467191 0
M  V30 554 H 58.2488 -1.85865 -0.586525 0
M  V30 555 H 57.3448 -2.37563 -2.02412 0
M  V30 556 N 57.6459 0.756429 -1.3826 0
M  V30 557 C 58.5939 1.89149 -1.35372 0
M  V30 558 C 59.5879 1.67691 -0.24004 0
M  V30 559 O 60.7939 1.75294 -0.408919 0
M  V30 560 H 57.1689 0.622271 -0.422236 0
M  V30 561 H 59.1399 1.88701 -2.31159 0
M  V30 562 C 57.8889 3.26599 -1.19284 0
M  V30 563 H 57.2119 3.43695 -2.0424 0
M  V30 564 H 58.6519 4.06274 -1.21316 0
M  V30 565 C 57.1109 3.3675 0.100454 0
M  V30 566 O 57.6409 3.86951 1.07851 0
M  V30 567 N 55.8469 2.90179 0.15633 0
M  V30 568 H 55.3939 2.49517 -0.640253 0
M  V30 569 H 55.3519 2.97352 1.02123 0
M  V30 570 N 59.124 1.23083 0.984299 0
M  V30 571 C 60.054 1.03292 2.09411 0
M  V30 572 C 61.035 -0.048923 1.7003 0
M  V30 573 O 62.22 0.114967 1.93859 0
M  V30 574 C 59.35 0.619155 3.41736 0
M  V30 575 C 58.304 1.64791 3.95004 0
M  V30 576 C 57.63 1.0897 5.23478 0
M  V30 577 C 58.93 3.03999 4.24714 0
M  V30 578 H 60.624 1.96119 2.26225 0
M  V30 579 H 58.17 0.944344 1.08711 0
M  V30 580 H 60.123 0.467777 4.18796 0
M  V30 581 H 58.847 -0.344786 3.24775 0
M  V30 582 H 57.506 1.78721 3.20085 0
M  V30 583 H 57.154 0.11686 5.02864 0
M  V30 584 H 56.854 1.77704 5.60085 0
M  V30 585 H 58.378 0.950093 6.03163 0
M  V30 586 H 59.792 2.93393 4.92538 0
M  V30 587 H 58.189 3.69936 4.72512 0
M  V30 588 H 59.259 3.53285 3.32142 0
M  V30 589 N 60.6021 -1.18246 1.0419 0
M  V30 590 C 61.8481 -1.88536 0.747122 0
M  V30 591 C 62.1811 -1.80223 -0.723409 0
M  V30 592 O 61.4561 -1.20337 -1.52804 0
M  V30 593 C 61.7391 -3.38968 1.21544 0
M  V30 594 C 61.5921 -3.56084 2.74816 0
M  V30 595 C 62.9111 -4.32648 0.806482 0
M  V30 596 H 60.0301 -0.684619 0.272883 0
M  V30 597 H 62.6721 -1.39113 1.29413 0
M  V30 598 H 60.8221 -3.8119 0.750081 0
M  V30 599 H 62.4941 -3.22946 3.29399 0
M  V30 600 H 60.7371 -2.98699 3.14582 0
M  V30 601 H 61.4081 -4.61639 3.02644 0
M  V30 602 H 63.8841 -3.98211 1.20695 0
M  V30 603 H 62.7601 -5.36462 1.1619 0
M  V30 604 H 63.0211 -4.41146 -0.29029 0
M  V30 605 N 62.0802 -0.821533 -1.34494 0
M  V30 606 C 62.9902 -0.244355 -2.33324 0
M  V30 607 C 64.0062 0.620527 -1.62559 0
M  V30 608 O 65.1822 0.528754 -1.94335 0
M  V30 609 C 62.2472 0.585368 -3.41723 0
M  V30 610 C 61.3082 -0.301752 -4.28238 0
M  V30 611 C 60.5412 0.488466 -5.3146 0
M  V30 612 O 60.7642 1.72186 -5.4379 0
M  V30 613 O 59.6982 -0.12848 -6.01763 0
M  V30 614 H 63.5242 -1.06231 -2.84515 0
M  V30 615 H 61.1092 -0.583645 -1.37528 0
M  V30 616 H 62.9912 1.05747 -4.07916 0
M  V30 617 H 61.6662 1.38068 -2.92778 0
M  V30 618 H 60.5732 -0.821315 -3.64973 0
M  V30 619 H 61.9062 -1.06138 -4.8062 0
M  V30 620 N 63.5583 1.46682 -0.576371 0
M  V30 621 C 64.5053 2.30241 0.160499 0
M  V30 622 C 65.4753 1.40233 0.890162 0
M  V30 623 O 66.6603 1.69186 0.882084 0
M  V30 624 C 63.8003 3.24578 1.1723 0
M  V30 625 C 62.9133 4.29684 0.446736 0
M  V30 626 C 62.0483 5.11154 1.44551 0
M  V30 627 C 61.0873 6.08015 0.70599 0
M  V30 628 N 60.2243 6.82376 1.65251 0
M  V30 629 H 65.0643 2.92727 -0.558127 0
M  V30 630 H 62.6013 1.44272 -0.287056 0
M  V30 631 H 64.5593 3.77711 1.77172 0
M  V30 632 H 63.1893 2.63916 1.85872 0
M  V30 633 H 62.2413 3.79458 -0.267594 0
M  V30 634 H 63.5533 4.98626 -0.131686 0
M  V30 635 H 62.7073 5.68533 2.11791 0
M  V30 636 H 61.4463 4.42158 2.05786 0
M  V30 637 H 60.4513 5.49796 0.0197725 0
M  V30 638 H 61.6763 6.79028 0.09912 0
M  V30 639 H 59.6223 6.16094 2.25308 0
M  V30 640 H 59.5393 7.47556 1.12673 0
M  V30 641 H 60.8073 7.44316 2.31546 0
M  V30 642 N 65.0364 0.313813 1.54444 0
M  V30 643 C 65.9664 -0.549454 2.26943 0
M  V30 644 C 66.9474 -1.12741 1.27372 0
M  V30 645 O 68.1324 -1.15436 1.56167 0
M  V30 646 C 65.2624 -1.71523 3.01989 0
M  V30 647 C 64.2164 -1.26703 4.08816 0
M  V30 648 C 63.5424 -2.51898 4.71647 0
M  V30 649 C 64.8424 -0.388962 5.2085 0
M  V30 650 H 66.5364 0.0552661 2.99349 0
M  V30 651 H 64.0824 0.0280207 1.43973 0
M  V30 652 H 66.0354 -2.32535 3.51433 0
M  V30 653 H 64.7594 -2.34639 2.27183 0
M  V30 654 H 63.4184 -0.679896 3.6024 0
M  V30 655 H 63.0664 -3.13356 3.93468 0
M  V30 656 H 62.7664 -2.22605 5.43802 0
M  V30 657 H 64.2904 -3.1369 5.23861 0
M  V30 658 H 65.7044 -0.905107 5.6611 0
M  V30 659 H 64.1014 -0.18924 5.99802 0
M  V30 660 H 65.1714 0.582699 4.81386 0
M  V30 661 N 66.5145 -1.57545 0.0417849 0
M  V30 662 C 67.7395 -1.97035 -0.647455 0
M  V30 663 C 68.1645 -0.918775 -1.64135 0
M  V30 664 O 67.5225 0.119006 -1.80909 0
M  V30 665 C 67.5705 -3.35609 -1.31905 0
M  V30 666 O 66.6745 -3.3287 -2.43457 0
M  V30 667 H 66.0155 -0.64211 -0.169086 0
M  V30 668 H 68.5455 -2.04318 0.107399 0
M  V30 669 H 68.5555 -3.72126 -1.67291 0
M  V30 670 H 67.2305 -4.11685 -0.590586 0
M  V30 671 H 65.8075 -3.08087 -2.10088 0
M  V30 672 N 67.9926 0.231505 -1.5589 0
M  V30 673 C 69.4036 0.799327 -1.68724 0
M  V30 674 C 69.7546 1.85398 -0.642022 0
M  V30 675 O 68.8796 2.1539 0.208784 0
M  V30 676 C 69.4746 1.45664 -3.05888 0
M  V30 677 C 68.0336 1.97197 -3.20609 0
M  V30 678 C 67.1806 0.828552 -2.64632 0
M  V30 679 H 70.1316 0.00702616 -1.58698 0
M  V30 680 H 70.1526 2.32517 -3.01191 0
M  V30 681 H 69.6646 0.688808 -3.81939 0
M  V30 682 H 67.7656 2.76813 -2.4941 0
M  V30 683 H 67.8786 2.15878 -4.27707 0
M  V30 684 H 66.2426 1.23321 -2.22854 0
M  V30 685 H 67.0256 0.0735544 -3.43221 0
M  V30 686 N 69.4707 1.49531 0.497807 0
M  V30 687 C 70.7167 1.60388 1.25089 0
M  V30 688 C 71.0717 0.288328 1.90227 0
M  V30 689 O 70.3647 -0.711706 1.77891 0
M  V30 690 C 70.5587 2.70252 2.33878 0
M  V30 691 C 70.3877 4.12363 1.79408 0
M  V30 692 C 69.1577 4.7911 1.60566 0
M  V30 693 C 71.3557 4.97491 1.30412 0
M  V30 694 N 69.3377 6.05525 1.01059 0
M  V30 695 C 70.7087 6.14411 0.830595 0
M  V30 696 C 72.7637 4.83466 1.19015 0
M  V30 697 C 71.4667 7.1885 0.254371 0
M  V30 698 C 73.4927 5.88057 0.627892 0
M  V30 699 C 72.8547 7.04208 0.16461 0
M  V30 700 H 68.9537 0.641246 0.447579 0
M  V30 701 H 71.5377 1.86549 0.557441 0
M  V30 702 H 69.7087 2.45858 3.0068 0
M  V30 703 H 71.4407 2.70613 3.00917 0
M  V30 704 H 68.1957 4.35961 1.85026 0
M  V30 705 H 68.6197 6.73028 0.732236 0
M  V30 706 H 73.2617 3.93978 1.53431 0
M  V30 707 H 70.9797 8.08036 -0.102052 0
M  V30 708 H 74.5657 5.79266 0.542444 0
M  V30 709 H 73.4457 7.83757 -0.263669 0
M  V30 710 N 70.9488 -0.749086 1.3866 0
M  V30 711 C 72.1958 -1.50833 1.35114 0
M  V30 712 C 72.5238 -1.94415 -0.0574049 0
M  V30 713 O 71.7788 -1.66065 -1.03541 0
M  V30 714 C 72.0778 -2.7712 2.25697 0
M  V30 715 C 71.7438 -2.52477 3.73585 0
M  V30 716 C 70.4058 -2.45466 4.13884 0
M  V30 717 C 72.7578 -2.31066 4.67181 0
M  V30 718 C 70.0858 -2.15064 5.45861 0
M  V30 719 C 72.4378 -2.02183 5.9942 0
M  V30 720 C 71.1018 -1.93631 6.38798 0
M  V30 721 H 70.3718 -0.551936 0.494416 0
M  V30 722 H 73.0188 -0.860979 1.71054 0
M  V30 723 H 71.3238 -3.46528 1.82827 0
M  V30 724 H 73.0208 -3.35096 2.20254 0
M  V30 725 H 69.6108 -2.58807 3.41638 0
M  V30 726 H 73.7948 -2.35459 4.3689 0
M  V30 727 H 69.0508 -2.06954 5.75308 0
M  V30 728 H 73.2248 -1.8462 6.71482 0
M  V30 729 H 70.8518 -1.69839 7.40985 0
M  V30 730 N 72.4269 -1.23603 -0.977757 0
M  V30 731 C 73.3599 -0.962772 -2.06896 0
M  V30 732 C 74.3379 0.0998743 -1.62293 0
M  V30 733 O 75.5219 -0.0349421 -1.88468 0
M  V30 734 C 72.6489 -0.45095 -3.35685 0
M  V30 735 C 71.6949 -1.50061 -3.99229 0
M  V30 736 S 72.5279 -3.07884 -4.38142 0
M  V30 737 C 73.6839 -2.58378 -5.7008 0
M  V30 738 H 73.9169 -1.88677 -2.29757 0
M  V30 739 H 71.4499 -1.06876 -1.11431 0
M  V30 740 H 73.4079 -0.162261 -4.10179 0
M  V30 741 H 72.0689 0.452179 -3.10828 0
M  V30 742 H 71.2619 -1.09269 -4.92013 0
M  V30 743 H 70.8639 -1.73878 -3.31123 0
M  V30 744 H 73.1559 -2.00563 -6.47133 0
M  V30 745 H 74.0989 -3.49711 -6.15717 0
M  V30 746 H 74.5069 -1.99143 -5.28207 0
M  V30 747 N 73.905 1.17692 -1.04816 0
M  V30 748 C 75.182 1.83768 -0.669963 0
M  V30 749 C 75.562 1.93232 0.849986 0
M  V30 750 O 74.91 1.46397 1.75443 0
M  V30 751 C 75.12 3.21641 -1.35455 0
M  V30 752 C 76.468 3.97592 -1.49017 0
M  V30 753 O 77.492 3.31107 -1.31326 0
M  V30 754 O 76.351 5.16729 -1.77914 0
M  V30 755 H 73.445 0.792799 -0.235368 0
M  V30 756 H 75.991 1.25021 -1.14751 0
M  V30 757 H 74.763 3.097 -2.39168 0
M  V30 758 H 74.386 3.88052 -0.866107 0
M  V30 759 N 75.3831 0.828654 1.34056 0
M  V30 760 C 76.6311 0.41863 1.97717 0
M  V30 761 C 76.9521 -1.02314 1.66002 0
M  V30 762 O 76.2221 -1.71119 0.953683 0
M  V30 763 H 74.8021 0.151809 0.731412 0
M  V30 764 H 77.4641 1.05936 1.63596 0
M  V30 765 H 76.5601 0.542318 3.07352 0
M  V30 766 N 76.8612 -1.46375 0.584142 0
M  V30 767 C 77.7712 -2.34115 -0.150728 0
M  V30 768 C 78.7872 -1.49838 -0.884567 0
M  V30 769 O 79.9632 -1.82704 -0.847429 0
M  V30 770 C 77.0282 -3.2705 -1.15062 0
M  V30 771 C 76.0892 -4.27228 -0.421293 0
M  V30 772 C 75.3222 -5.15722 -1.37355 0
M  V30 773 O 75.5452 -5.07176 -2.61014 0
M  V30 774 O 74.4792 -5.95383 -0.883355 0
M  V30 775 H 78.3052 -2.98309 0.569708 0
M  V30 776 H 75.8902 -1.45373 0.344535 0
M  V30 777 H 77.7722 -3.84381 -1.72712 0
M  V30 778 H 76.4472 -2.65451 -1.8525 0
M  V30 779 H 75.3542 -3.7358 0.197085 0
M  V30 780 H 76.6872 -4.91616 0.239641 0
M  V30 781 N 78.3393 -0.321999 -1.54275 0
M  V30 782 C 79.2873 0.560206 -2.25753 0
M  V30 783 C 80.2813 1.11984 -1.27106 0
M  V30 784 O 81.4873 1.06806 -1.44888 0
M  V30 785 H 77.8623 0.199304 -0.725108 0
M  V30 786 H 79.8333 -0.0649365 -2.98329 0
M  V30 787 C 78.5823 1.71023 -3.02731 0
M  V30 788 H 77.9053 1.28885 -3.78456 0
M  V30 789 H 79.3453 2.30314 -3.55993 0
M  V30 790 C 77.8043 2.62692 -2.10938 0
M  V30 791 O 78.3343 3.64364 -1.6912 0
M  V30 792 N 76.5403 2.30891 -1.76459 0
M  V30 793 H 76.0873 1.48253 -2.10663 0
M  V30 794 H 76.0453 2.92487 -1.1532 0
M  V30 795 N 79.8174 1.5752 -0.0501392 0
M  V30 796 C 80.7804 2.1037 0.909786 0
M  V30 797 C 81.7804 1.02308 1.24056 0
M  V30 798 O 82.9704 1.28385 1.17741 0
M  V30 799 C 80.1024 2.58708 2.21998 0
M  V30 800 H 81.2954 2.96479 0.451665 0
M  V30 801 H 78.8484 1.55038 0.198248 0
M  V30 802 H 79.5834 1.75989 2.72394 0
M  V30 803 H 79.3684 3.37675 1.99295 0
M  V30 804 H 80.8584 2.99747 2.9076 0
M  V30 805 N 81.2955 -0.223234 1.56011 0
M  V30 806 C 82.5255 -0.963413 1.82762 0
M  V30 807 C 82.9335 -1.78516 0.626804 0
M  V30 808 O 82.2765 -1.78974 -0.414014 0
M  V30 809 C 82.3385 -1.93126 3.0322 0
M  V30 810 C 82.0025 -1.2942 4.38291 0
M  V30 811 C 82.9995 -0.684916 5.15369 0
M  V30 812 C 80.6845 -1.30647 4.85012 0
M  V30 813 C 82.6785 -0.0963971 6.37327 0
M  V30 814 C 80.3655 -0.71411 6.06913 0
M  V30 815 C 81.3635 -0.110123 6.82911 0
M  V30 816 O 81.0515 0.47303 8.02507 0
M  V30 817 H 80.7835 -0.288011 0.611576 0
M  V30 818 H 83.3375 -0.244103 2.03944 0
M  V30 819 H 81.5675 -2.68952 2.77852 0
M  V30 820 H 83.2565 -2.53685 3.16857 0
M  V30 821 H 84.0225 -0.667774 4.80381 0
M  V30 822 H 79.9015 -1.76598 4.25833 0
M  V30 823 H 83.4455 0.375657 6.96588 0
M  V30 824 H 79.3425 -0.728659 6.41374 0
M  V30 825 H 80.1105 0.367186 8.17676 0
M  V30 826 N 82.7736 -1.49793 -0.48987 0
M  V30 827 C 83.6836 -1.70036 -1.61632 0
M  V30 828 C 84.6996 -0.583102 -1.63939 0
M  V30 829 O 85.8756 -0.859169 -1.82154 0
M  V30 830 C 82.9406 -1.77277 -2.97949 0
M  V30 831 C 82.0016 -3.00918 -3.06181 0
M  V30 832 C 81.2346 -3.07804 -4.35996 0
M  V30 833 O 81.4576 -2.21982 -5.25433 0
M  V30 834 O 80.3916 -4.00369 -4.49431 0
M  V30 835 H 84.2176 -2.65486 -1.47482 0
M  V30 836 H 81.8026 -1.33666 -0.667362 0
M  V30 837 H 83.6846 -1.84329 -3.78947 0
M  V30 838 H 82.3596 -0.850076 -3.12339 0
M  V30 839 H 81.2666 -2.99377 -2.2433 0
M  V30 840 H 82.5996 -3.92704 -2.96723 0
M  V30 841 N 84.2517 0.741722 -1.39055 0
M  V30 842 C 85.4977 1.50336 -1.36113 0
M  V30 843 C 85.8307 1.94148 0.0450796 0
M  V30 844 O 85.1057 1.66301 1.00868 0
M  V30 845 C 85.3887 2.74773 -2.32749 0
M  V30 846 C 85.2417 2.37023 -3.82283 0
M  V30 847 C 86.5607 3.76846 -2.27322 0
M  V30 848 H 83.6797 0.545351 -0.495743 0
M  V30 849 H 86.3217 0.848624 -1.69995 0
M  V30 850 H 84.4717 3.30639 -2.03986 0
M  V30 851 H 86.1437 1.8684 -4.21768 0
M  V30 852 H 84.3867 1.69334 -3.99385 0
M  V30 853 H 85.0577 3.26104 -4.45376 0
M  V30 854 H 87.5337 3.30548 -2.5274 0
M  V30 855 H 86.4097 4.6159 -2.97028 0
M  V30 856 H 86.6707 4.23286 -1.27599 0
M  V30 857 N 85.7298 1.2412 0.971189 0
M  V30 858 C 86.9758 1.08041 1.71625 0
M  V30 859 C 87.3088 -0.380407 1.90438 0
M  V30 860 O 86.5838 -1.28127 1.46334 0
M  V30 861 C 86.8668 1.81682 3.10908 0
M  V30 862 C 86.7198 3.35493 2.99608 0
M  V30 863 C 88.0388 1.58671 4.10501 0
M  V30 864 H 85.1578 0.39388 0.622919 0
M  V30 865 H 87.7998 1.52743 1.13003 0
M  V30 866 H 85.9498 1.43684 3.60953 0
M  V30 867 H 87.6218 3.83068 2.57015 0
M  V30 868 H 85.8648 3.64052 2.35899 0
M  V30 869 H 86.5358 3.82217 3.98264 0
M  V30 870 H 89.0118 1.91719 3.69301 0
M  V30 871 H 87.8878 2.1266 5.06031 0
M  V30 872 H 88.1488 0.524161 4.38982 0
M  V30 873 N 87.2079 -1.17134 1.05439 0
M  V30 874 C 88.1549 -2.21235 0.657539 0
M  V30 875 C 89.1249 -1.62551 -0.341543 0
M  V30 876 O 90.3099 -1.89379 -0.232393 0
M  V30 877 C 87.4499 -3.45076 0.0410575 0
M  V30 878 C 86.5629 -4.18042 1.08927 0
M  V30 879 C 85.6979 -5.29376 0.439848 0
M  V30 880 C 84.7369 -5.94132 1.4722 0
M  V30 881 N 83.8739 -6.96975 0.846756 0
M  V30 882 H 88.7139 -2.54534 1.54972 0
M  V30 883 H 86.2509 -1.25028 0.775006 0
M  V30 884 H 88.2089 -4.15862 -0.33383 0
M  V30 885 H 86.8389 -3.12353 -0.814568 0
M  V30 886 H 85.8909 -3.45945 1.58196 0
M  V30 887 H 87.2029 -4.62306 1.87282 0
M  V30 888 H 86.3569 -6.06699 0.0115125 0
M  V30 889 H 85.0959 -4.86251 -0.375656 0
M  V30 890 H 84.1009 -5.15538 1.91052 0
M  V30 891 H 85.3259 -6.39337 2.28965 0
M  V30 892 H 83.2719 -6.5598 0.0518075 0
M  V30 893 H 83.1889 -7.39565 1.5678 0
M  V30 894 H 84.4569 -7.78239 0.443277 0
M  V30 895 N 88.686 -0.835752 -1.33615 0
M  V30 896 C 89.649 -0.272 -2.2758 0
M  V30 897 C 90.649 0.557487 -1.50827 0
M  V30 898 O 91.839 0.37173 -1.70188 0
M  V30 899 C 88.971 0.617173 -3.35267 0
M  V30 900 H 90.164 -1.10111 -2.78954 0
M  V30 901 H 87.717 -0.608594 -1.43965 0
M  V30 902 H 88.452 1.46884 -2.89129 0
M  V30 903 H 88.237 0.0237066 -3.92093 0
M  V30 904 H 89.727 1.005 -4.05326 0
M  V30 905 N 90.1641 1.46063 -0.591896 0
M  V30 906 C 91.0971 2.27452 0.184617 0
M  V30 907 C 92.0751 1.36188 0.888351 0
M  V30 908 O 93.2591 1.65606 0.90039 0
M  V30 909 C 90.3861 3.14162 1.26571 0
M  V30 910 C 89.4321 4.21255 0.666814 0
M  V30 911 S 90.2651 5.33034 -0.513345 0
M  V30 912 C 91.4211 6.23311 0.56872 0
M  V30 913 H 91.6541 2.92963 -0.505939 0
M  V30 914 H 89.1871 1.49676 -0.379014 0
M  V30 915 H 91.1451 3.6468 1.88463 0
M  V30 916 H 89.8061 2.47946 1.92826 0
M  V30 917 H 88.9991 4.81788 1.47974 0
M  V30 918 H 88.6011 3.73797 0.123359 0
M  V30 919 H 90.8931 6.61758 1.45198 0
M  V30 920 H 91.8361 7.081 -7.23824e-05 0
M  V30 921 H 92.2441 5.57646 0.876996 0
M  V30 922 N 91.6422 0.330177 1.54103 0
M  V30 923 C 92.5722 -0.525353 2.27513 0
M  V30 924 C 93.5532 -1.11383 1.2856 0
M  V30 925 O 94.7382 -1.13773 1.57383 0
M  V30 926 C 91.8682 -1.6831 3.03791 0
M  V30 927 C 90.8222 -1.2236 4.10137 0
M  V30 928 C 90.1482 -2.46882 4.74293 0
M  V30 929 C 91.4482 -0.333697 5.21233 0
M  V30 930 H 93.1422 0.087013 2.99274 0
M  V30 931 H 90.6882 0.0432893 1.43935 0
M  V30 932 H 92.6412 -2.28795 3.5388 0
M  V30 933 H 91.3652 -2.32216 2.29659 0
M  V30 934 H 90.0242 -0.64165 3.60941 0
M  V30 935 H 89.6722 -3.09165 3.96769 0
M  V30 936 H 89.3722 -2.16825 5.46133 0
M  V30 937 H 90.8962 -3.08117 5.27159 0
M  V30 938 H 92.3102 -0.845013 5.67038 0
M  V30 939 H 90.7072 -0.125612 5.99969 0
M  V30 940 H 91.7772 0.633724 4.80741 0
M  V30 941 N 93.1203 -1.57491 0.0584922 0
M  V30 942 C 94.0503 -2.14988 -0.911178 0
M  V30 943 C 95.0313 -1.07343 -1.31952 0
M  V30 944 O 96.2163 -1.35318 -1.39294 0
M  V30 945 C 93.3463 -2.70078 -2.18347 0
M  V30 946 C 92.3003 -3.82771 -1.91495 0
M  V30 947 C 91.6263 -4.24408 -3.25241 0
M  V30 948 C 92.9263 -5.07592 -1.23075 0
M  V30 949 H 94.6203 -2.96263 -0.432246 0
M  V30 950 H 92.1663 -1.42512 -0.206469 0
M  V30 951 H 94.1193 -3.08943 -2.86587 0
M  V30 952 H 92.8433 -1.86005 -2.68458 0
M  V30 953 H 91.5023 -3.44389 -1.25664 0
M  V30 954 H 91.1503 -3.37275 -3.73168 0
M  V30 955 H 90.8503 -5.00366 -3.08071 0
M  V30 956 H 92.3743 -4.65879 -3.94701 0
M  V30 957 H 93.7883 -5.43857 -1.81362 0
M  V30 958 H 92.1853 -5.88741 -1.16207 0
M  V30 959 H 93.2553 -4.84454 -0.207847 0
M  V30 960 N 94.5984 0.214957 -1.56127 0
M  V30 961 C 95.5454 1.26642 -1.92952 0
M  V30 962 C 96.5154 1.46244 -0.78753 0
M  V30 963 O 97.7004 1.59704 -1.04399 0
M  V30 964 C 94.8404 2.6104 -2.25726 0
M  V30 965 C 93.9534 2.49183 -3.52891 0
M  V30 966 C 93.0884 3.76149 -3.7508 0
M  V30 967 C 92.1274 3.59041 -4.95738 0
M  V30 968 N 91.2644 4.77972 -5.14283 0
M  V30 969 H 96.1044 0.945384 -2.82607 0
M  V30 970 H 93.6414 0.455489 -1.3987 0
M  V30 971 H 95.5994 3.39313 -2.42739 0
M  V30 972 H 94.2294 2.91227 -1.39236 0
M  V30 973 H 93.2814 1.6231 -3.44034 0
M  V30 974 H 94.5934 2.32466 -4.41318 0
M  V30 975 H 93.7474 4.62865 -3.92226 0
M  V30 976 H 92.4864 3.95799 -2.84947 0
M  V30 977 H 91.4914 2.7071 -4.78535 0
M  V30 978 H 92.7164 3.40856 -5.87362 0
M  V30 979 H 90.6624 4.97923 -4.27093 0
M  V30 980 H 90.5794 4.64006 -5.96853 0
M  V30 981 H 91.8474 5.66096 -5.35869 0
M  V30 982 N 96.0765 1.50051 0.48192 0
M  V30 983 C 97.0235 1.68122 1.58125 0
M  V30 984 C 97.9935 0.522545 1.57666 0
M  V30 985 O 99.1785 0.751844 1.75362 0
M  V30 986 C 96.3185 1.77142 2.96167 0
M  V30 987 C 95.4315 3.0444 3.06497 0
M  V30 988 C 94.5665 3.04321 4.35387 0
M  V30 989 C 93.6055 4.26118 4.3942 0
M  V30 990 N 92.7425 4.238 5.59766 0
M  V30 991 H 97.5825 2.6198 1.42022 0
M  V30 992 H 95.1195 1.29877 0.690687 0
M  V30 993 H 97.0775 1.80352 3.76203 0
M  V30 994 H 95.7075 0.867329 3.1093 0
M  V30 995 H 94.7595 3.10752 2.19402 0
M  V30 996 H 96.0715 3.94426 3.05336 0
M  V30 997 H 95.2255 3.062 5.23762 0
M  V30 998 H 93.9645 2.12147 4.39141 0
M  V30 999 H 92.9695 4.24463 3.49444 0
M  V30 1000 H 94.1945 5.19507 4.37366 0
M  V30 1001 H 92.1405 3.34474 5.64326 0
M  V30 1002 H 92.0575 5.07542 5.60301 0
M  V30 1003 H 93.3255 4.2981 6.50295 0
M  V30 1004 N 97.5546 -0.734337 1.39446 0
M  V30 1005 C 98.4646 -1.87879 1.40495 0
M  V30 1006 C 99.4806 -1.714 0.299672 0
M  V30 1007 O 100.657 -1.93991 0.541249 0
M  V30 1008 C 97.7216 -3.23477 1.24754 0
M  V30 1009 C 96.7826 -3.52344 2.45259 0
M  V30 1010 C 96.0156 -4.81473 2.30259 0
M  V30 1011 O 96.2386 -5.55237 1.30643 0
M  V30 1012 O 95.1726 -5.10254 3.19256 0
M  V30 1013 H 98.9986 -1.89949 2.36966 0
M  V30 1014 H 96.5836 -0.882243 1.20569 0
M  V30 1015 H 98.4656 -4.04509 1.18111 0
M  V30 1016 H 97.1406 -3.22176 0.313781 0
M  V30 1017 H 96.0476 -2.71396 2.57478 0
M  V30 1018 H 97.3806 -3.58426 3.37331 0
M  V30 1019 N 99.0327 -1.24633 -0.964593 0
M  V30 1020 C 100.444 -1.08045 -1.5226 0
M  V30 1021 C 100.795 0.347116 -1.93105 0
M  V30 1022 O 99.9197 1.23588 -1.77637 0
M  V30 1023 C 100.515 -1.95514 -2.76695 0
M  V30 1024 C 99.0737 -1.8314 -3.28841 0
M  V30 1025 C 98.2207 -1.90262 -2.01732 0
M  V30 1026 H 101.172 -1.38064 -0.782553 0
M  V30 1027 H 101.193 -1.48925 -3.50145 0
M  V30 1028 H 100.705 -2.99407 -2.46936 0
M  V30 1029 H 98.8057 -0.82092 -3.63444 0
M  V30 1030 H 98.9187 -2.67406 -3.97531 0
M  V30 1031 H 97.2827 -1.34027 -2.16584 0
M  V30 1032 H 98.0657 -2.9574 -1.74334 0
M  V30 1033 N 100.511 1.16574 -1.06058 0
M  V30 1034 C 101.441 2.23057 -0.690488 0
M  V30 1035 C 102.422 1.67141 0.315901 0
M  V30 1036 O 103.607 1.93253 0.191556 0
M  V30 1037 C 100.737 3.47222 -0.073625 0
M  V30 1038 C 99.6908 4.16016 -1.00573 0
M  V30 1039 C 99.0168 5.34104 -0.252289 0
M  V30 1040 C 100.317 4.67264 -2.33371 0
M  V30 1041 H 102.011 2.54271 -1.58072 0
M  V30 1042 H 99.5568 1.22218 -0.76149 0
M  V30 1043 H 101.51 4.20939 0.19714 0
M  V30 1044 H 100.234 3.15302 0.85161 0
M  V30 1045 H 98.8928 3.44223 -1.2612 0
M  V30 1046 H 98.5408 4.98437 0.675988 0
M  V30 1047 H 98.2408 5.81072 -0.873455 0
M  V30 1048 H 99.7648 6.10599 0.0109857 0
M  V30 1049 H 101.179 5.32573 -2.12223 0
M  V30 1050 H 99.5758 5.24843 -2.90963 0
M  V30 1051 H 100.646 3.83602 -2.96611 0
M  V30 1052 N 101.989 0.842826 1.3317 0
M  V30 1053 C 102.919 0.294028 2.31641 0
M  V30 1054 C 103.9 -0.600401 1.59151 0
M  V30 1055 O 105.085 -0.523124 1.87022 0
M  V30 1056 C 102.215 -0.528416 3.43257 0
M  V30 1057 C 101.169 0.27056 4.27144 0
M  V30 1058 C 100.495 -0.675881 5.30411 0
M  V30 1059 C 101.795 1.48981 5.00602 0
M  V30 1060 H 103.489 1.11681 2.77791 0
M  V30 1061 H 101.035 0.538478 1.33553 0
M  V30 1062 H 102.988 -0.922674 4.11175 0
M  V30 1063 H 101.712 -1.38445 2.95805 0
M  V30 1064 H 100.371 0.646427 3.60856 0
M  V30 1065 H 100.019 -1.52842 4.79216 0
M  V30 1066 H 99.7189 -0.145374 5.8742 0
M  V30 1067 H 101.243 -1.06757 6.01195 0
M  V30 1068 H 102.657 1.16849 5.61266 0
M  V30 1069 H 101.054 1.95739 5.6728 0
M  V30 1070 H 102.124 2.25746 4.29147 0
M  V30 1071 N 103.467 -1.45747 0.599634 0
M  V30 1072 C 104.697 -2.06369 0.0977132 0
M  V30 1073 C 105.105 -1.44624 -1.21985 0
M  V30 1074 O 104.448 -0.551831 -1.75216 0
M  V30 1075 C 104.51 -3.59284 -0.124673 0
M  V30 1076 C 104.174 -4.43318 1.10987 0
M  V30 1077 C 105.171 -4.78796 2.02609 0
M  V30 1078 C 102.856 -4.84194 1.33647 0
M  V30 1079 C 104.85 -5.53997 3.15224 0
M  V30 1080 C 102.537 -5.5915 2.46565 0
M  V30 1081 C 103.535 -5.93968 3.37182 0
M  V30 1082 O 103.223 -6.67405 4.48136 0
M  V30 1083 H 102.955 -0.673122 0.0623153 0
M  V30 1084 H 105.509 -1.88104 0.824981 0
M  V30 1085 H 103.739 -3.75919 -0.906745 0
M  V30 1086 H 105.428 -4.01775 -0.577201 0
M  V30 1087 H 106.194 -4.47781 1.86325 0
M  V30 1088 H 102.073 -4.56534 0.64016 0
M  V30 1089 H 105.617 -5.81091 3.85978 0
M  V30 1090 H 101.514 -5.89579 2.62805 0
M  V30 1091 H 102.282 -6.85847 4.46717 0
M  V30 1092 N 104.945 -0.338344 -1.53925 0
M  V30 1093 C 106.191 0.260143 -2.01125 0
M  V30 1094 C 106.524 1.50617 -1.22589 0
M  V30 1095 O 105.799 1.91979 -0.312113 0
M  V30 1096 C 106.082 0.579499 -3.55407 0
M  V30 1097 C 105.935 -0.678264 -4.44657 0
M  V30 1098 C 107.254 1.39122 -4.17532 0
M  V30 1099 H 104.373 0.0930772 -0.731099 0
M  V30 1100 H 107.015 -0.457852 -1.84401 0
M  V30 1101 H 105.165 1.19118 -3.69788 0
M  V30 1102 H 106.837 -1.31631 -4.42121 0
M  V30 1103 H 105.08 -1.3042 -4.13731 0
M  V30 1104 H 105.751 -0.410143 -5.50474 0
M  V30 1105 H 108.227 0.874035 -4.06817 0
M  V30 1106 H 107.103 1.58342 -5.25565 0
M  V30 1107 H 107.364 2.39178 -3.71815 0
M  V30 1108 N 106.423 1.57458 -0.0668435 0
M  V30 1109 C 107.834 1.80776 0.466558 0
M  V30 1110 C 108.185 0.980361 1.69951 0
M  V30 1111 O 107.31 0.201441 2.1546 0
M  V30 1112 C 107.905 3.27881 0.85321 0
M  V30 1113 C 106.464 3.52062 1.3315 0
M  V30 1114 C 105.611 2.75513 0.314264 0
M  V30 1115 H 108.562 1.5598 -0.292588 0
M  V30 1116 H 108.583 3.39659 1.715 0
M  V30 1117 H 108.095 3.88075 -0.0443439 0
M  V30 1118 H 106.196 2.97167 2.24772 0
M  V30 1119 H 106.309 4.60762 1.31285 0
M  V30 1120 H 104.673 2.42123 0.790492 0
M  V30 1121 H 105.456 3.38442 -0.575477 0
M  V30 1122 N 107.901 -0.206675 1.56239 0
M  V30 1123 C 109.15 -0.926964 1.79138 0
M  V30 1124 C 109.463 -1.84901 0.638043 0
M  V30 1125 O 110.669 -2.60906 0.751033 0
M  V30 1126 C 109.125 -1.6986 3.17294 0
M  V30 1127 C 108.733 -0.821956 4.40395 0
M  V30 1128 C 110.477 -2.40922 3.4951 0
M  V30 1129 C 108.384 -1.59179 5.69575 0
M  V30 1130 H 107.314 -0.349864 0.667915 0
M  V30 1131 H 109.965 -0.180487 1.8261 0
M  V30 1132 H 108.347 -2.48853 3.08039 0
M  V30 1133 H 109.521 -0.0715019 4.60745 0
M  V30 1134 H 107.836 -0.222741 4.15804 0
M  V30 1135 H 110.433 -2.99047 4.43255 0
M  V30 1136 H 110.776 -3.14542 2.72707 0
M  V30 1137 H 111.309 -1.68905 3.60161 0
M  V30 1138 H 108.048 -0.898589 6.49312 0
M  V30 1139 H 107.568 -2.31648 5.53262 0
M  V30 1140 H 109.247 -2.14862 6.10281 0
M  V30 1141 N 109.379 -1.50304 -0.473955 0
M  V30 1142 C 110.795 -1.37667 -0.807466 0
M  V30 1143 C 110.995 -0.430555 -1.96846 0
M  V30 1144 O 110.051 0.127874 -2.52176 0
M  V30 1145 C 111.364 -2.78974 -1.12223 0
M  V30 1146 C 112.912 -2.87868 -1.22885 0
M  V30 1147 C 113.387 -4.30003 -1.57676 0
M  V30 1148 N 114.878 -4.3294 -1.64673 0
M  V30 1149 C 115.613 -5.3991 -1.93091 0
M  V30 1150 N 115.109 -6.57092 -2.1955 0
M  V30 1151 N 116.902 -5.27351 -1.94569 0
M  V30 1152 H 109.053 -2.10394 0.291212 0
M  V30 1153 H 111.316 -0.945575 0.0677609 0
M  V30 1154 H 111.022 -3.50031 -0.342229 0
M  V30 1155 H 110.896 -3.16038 -2.05913 0
M  V30 1156 H 113.283 -2.17032 -1.99953 0
M  V30 1157 H 113.364 -2.54352 -0.271814 0
M  V30 1158 H 113.008 -5.01375 -0.81149 0
M  V30 1159 H 112.938 -4.61004 -2.54525 0
M  V30 1160 H 115.429 -3.48441 -1.46277 0
M  V30 1161 H 115.742 -7.34425 -2.405 0
M  V30 1162 H 114.087 -6.60272 -2.16948 0
M  V30 1163 H 117.278 -4.34801 -1.73394 0
M  V30 1164 H 117.451 -6.10805 -2.16381 0
M  V30 1165 N 110.857 0.726932 -1.39834 0
M  V30 1166 C 111.787 1.85405 -1.41941 0
M  V30 1167 C 112.768 1.67751 -0.281728 0
M  V30 1168 O 113.953 1.8795 -0.488717 0
M  V30 1169 C 111.083 3.23243 -1.2701 0
M  V30 1170 C 110.037 3.55549 -2.38262 0
M  V30 1171 C 109.363 4.9241 -2.08415 0
M  V30 1172 C 110.663 3.577 -3.80589 0
M  V30 1173 H 112.357 1.83899 -2.36266 0
M  V30 1174 H 109.903 0.883349 -1.13723 0
M  V30 1175 H 111.856 4.01775 -1.27103 0
M  V30 1176 H 110.58 3.25296 -0.291564 0
M  V30 1177 H 109.239 2.79351 -2.37399 0
M  V30 1178 H 108.887 4.91052 -1.0898 0
M  V30 1179 H 108.587 5.14992 -2.82943 0
M  V30 1180 H 110.111 5.73289 -2.10171 0
M  V30 1181 H 111.525 4.26293 -3.83337 0
M  V30 1182 H 109.922 3.91804 -4.54543 0
M  V30 1183 H 110.992 2.57328 -4.10987 0
M  V30 1184 N 112.336 1.25143 0.95797 0
M  V30 1185 C 113.299 1.05321 2.03569 0
M  V30 1186 C 114.299 0.007152 1.60798 0
M  V30 1187 O 115.489 0.24903 1.72411 0
M  V30 1188 C 112.621 0.598394 3.35607 0
M  V30 1189 H 113.814 2.00986 2.22586 0
M  V30 1190 H 111.367 1.07502 1.13459 0
M  V30 1191 H 112.102 -0.361014 3.22284 0
M  V30 1192 H 111.887 1.35351 3.67998 0
M  V30 1193 H 113.377 0.48104 4.1482 0
M  V30 1194 N 113.814 -1.1601 1.06675 0
M  V30 1195 C 115.062 -1.86264 0.784229 0
M  V30 1196 C 115.383 -1.82328 -0.691488 0
M  V30 1197 O 114.653 -1.25947 -1.50047 0
M  V30 1198 H 113.233 -0.689621 0.28711 0
M  V30 1199 H 115.895 -1.40664 1.34906 0
M  V30 1200 H 114.991 -2.91595 1.11259 0
M  V30 1201 N 115.292 -0.849877 -1.32721 0
M  V30 1202 C 116.242 -0.262892 -2.26479 0
M  V30 1203 C 117.226 0.588493 -1.49752 0
M  V30 1204 O 118.418 0.438659 -1.71478 0
M  V30 1205 C 115.547 0.551818 -3.38836 0
M  V30 1206 C 114.633 -0.311689 -4.22953 0
M  V30 1207 N 115.024 -1.39567 -4.86163 0
M  V30 1208 C 113.322 -0.100611 -4.45887 0
M  V30 1209 C 114.023 -1.92651 -5.48872 0
M  V30 1210 N 112.999 -1.22637 -5.29586 0
M  V30 1211 H 116.801 -1.09166 -2.72873 0
M  V30 1212 H 114.315 -0.695486 -1.46754 0
M  V30 1213 H 116.312 0.988713 -4.05006 0
M  V30 1214 H 114.972 1.37844 -2.93988 0
M  V30 1215 H 115.983 -1.77859 -4.86402 0
M  V30 1216 H 112.66 0.691681 -4.11731 0
M  V30 1217 H 114.05 -2.83487 -6.09167 0
M  V30 1218 N 116.77 1.45427 -0.607355 0
M  V30 1219 C 117.998 2.06614 -0.108814 0
M  V30 1220 C 118.413 1.45204 1.2067 0
M  V30 1221 O 117.77 0.566132 1.73497 0
M  V30 1222 C 117.821 3.61481 0.0375347 0
M  V30 1223 O 117.542 4.20598 -1.22593 0
M  V30 1224 C 119.043 4.39652 0.567561 0
M  V30 1225 H 116.263 0.66747 -0.0687351 0
M  V30 1226 H 118.807 1.86675 -0.835022 0
M  V30 1227 H 116.962 3.80762 0.714068 0
M  V30 1228 H 117.376 5.1377 -1.05547 0
M  V30 1229 H 118.85 5.48518 0.61905 0
M  V30 1230 H 119.327 4.09417 1.58978 0
M  V30 1231 H 119.933 4.25234 -0.0749202 0
M  V30 1232 N 118.248 0.346503 1.53744 0
M  V30 1233 C 119.664 -0.00530975 1.59599 0
M  V30 1234 C 119.864 -1.48465 1.36236 0
M  V30 1235 O 118.92 -2.24376 1.15808 0
M  V30 1236 C 120.233 0.433516 2.97559 0
M  V30 1237 C 121.781 0.386111 3.10609 0
M  V30 1238 C 122.256 0.800451 4.50951 0
M  V30 1239 N 123.747 0.754753 4.5701 0
M  V30 1240 C 124.482 1.04727 5.63755 0
M  V30 1241 N 123.978 1.4081 6.7834 0
M  V30 1242 N 125.771 0.971316 5.53644 0
M  V30 1243 H 117.922 1.31009 1.67184 0
M  V30 1244 H 120.185 0.534242 0.783128 0
M  V30 1245 H 119.891 1.46509 3.19731 0
M  V30 1246 H 119.765 -0.189753 3.76722 0
M  V30 1247 H 122.152 -0.636295 2.88158 0
M  V30 1248 H 122.233 1.04462 2.33498 0
M  V30 1249 H 121.877 1.82088 4.74137 0
M  V30 1250 H 121.807 0.119386 5.26465 0
M  V30 1251 H 124.298 0.488662 3.74727 0
M  V30 1252 H 124.611 1.61607 7.55714 0
M  V30 1253 H 122.956 1.44657 6.79779 0
M  V30 1254 H 126.147 0.688748 4.63005 0
M  V30 1255 H 126.32 1.20263 6.36742 0
M  V30 1256 N 119.726 -1.57421 0.075193 0
M  V30 1257 C 120.676 -2.09441 -0.901025 0
M  V30 1258 C 121.66 -1.00486 -1.25663 0
M  V30 1259 O 122.852 -1.2679 -1.23504 0
M  V30 1260 C 119.981 -2.66233 -2.16737 0
M  V30 1261 C 119.067 -3.82198 -1.83808 0
M  V30 1262 N 119.458 -4.91028 -1.21345 0
M  V30 1263 C 117.756 -3.91558 -2.13538 0
M  V30 1264 C 118.457 -5.71852 -1.06585 0
M  V30 1265 N 117.433 -5.20233 -1.57667 0
M  V30 1266 H 121.235 -2.90972 -0.413815 0
M  V30 1267 H 118.749 -1.6189 -0.128601 0
M  V30 1268 H 120.746 -3.01819 -2.87595 0
M  V30 1269 H 119.406 -1.8615 -2.66042 0
M  V30 1270 H 120.417 -5.10323 -0.88268 0
M  V30 1271 H 117.094 -3.22454 -2.65197 0
M  V30 1272 H 118.484 -6.69401 -0.578933 0
M  V30 1273 N 121.204 0.198386 -1.56346 0
M  V30 1274 C 122.134 1.24865 -1.9731 0
M  V30 1275 C 123.115 1.47651 -0.844576 0
M  V30 1276 O 124.3 1.59444 -1.10866 0
M  V30 1277 C 121.43 2.59358 -2.30977 0
M  V30 1278 C 120.384 2.5119 -3.46537 0
M  V30 1279 C 119.71 3.89926 -3.65871 0
M  V30 1280 C 121.01 2.03977 -4.80823 0
M  V30 1281 H 122.704 0.908252 -2.85291 0
M  V30 1282 H 120.25 0.435462 -1.37258 0
M  V30 1283 H 122.203 3.33011 -2.58228 0
M  V30 1284 H 120.927 2.95132 -1.39874 0
M  V30 1285 H 119.586 1.79993 -3.19371 0
M  V30 1286 H 119.234 4.23046 -2.72105 0
M  V30 1287 H 118.934 3.85336 -4.4361 0
M  V30 1288 H 120.458 4.65205 -3.95495 0
M  V30 1289 H 121.872 2.67386 -5.07127 0
M  V30 1290 H 120.269 2.10397 -5.62008 0
M  V30 1291 H 121.339 0.992861 -4.74626 0
M  V30 1292 N 122.682 1.50554 0.465978 0
M  V30 1293 C 124.093 1.54599 1.04671 0
M  V30 1294 C 124.444 0.352488 1.93008 0
M  V30 1295 O 123.569 -0.534044 2.09707 0
M  V30 1296 C 124.164 2.80166 1.90505 0
M  V30 1297 C 122.723 2.86876 2.43678 0
M  V30 1298 C 121.87 2.48947 1.22151 0
M  V30 1299 H 124.821 1.56744 0.248384 0
M  V30 1300 H 124.842 2.62311 2.75633 0
M  V30 1301 H 124.354 3.67013 1.26186 0
M  V30 1302 H 122.455 2.04393 3.11536 0
M  V30 1303 H 122.568 3.89885 2.78436 0
M  V30 1304 H 120.932 2.01498 1.5579 0
M  V30 1305 H 121.715 3.38107 0.594866 0
M  V30 1306 N 124.16 -0.719506 1.40217 0
M  V30 1307 C 125.408 -1.47641 1.3801 0
M  V30 1308 C 125.729 -1.94992 -0.018145 0
M  V30 1309 O 124.999 -1.70073 -0.972207 0
M  V30 1310 H 123.579 -0.547744 0.507923 0
M  V30 1311 H 126.241 -0.853187 1.75233 0
M  V30 1312 H 125.337 -2.35112 2.05253 0
M  V30 1313 N 125.638 -1.25649 -0.95132 0
M  V30 1314 C 127.049 -1.09654 -1.51106 0
M  V30 1315 C 127.4 0.326615 -1.93462 0
M  V30 1316 O 126.525 1.21697 -1.78938 0
M  V30 1317 C 127.12 -1.98437 -2.74605 0
M  V30 1318 C 125.679 -1.86618 -3.2688 0
M  V30 1319 C 124.826 -1.9239 -1.99703 0
M  V30 1320 H 127.777 -1.38887 -0.767865 0
M  V30 1321 H 127.798 -1.5263 -3.48546 0
M  V30 1322 H 127.31 -3.02009 -2.43746 0
M  V30 1323 H 125.411 -0.859421 -3.62553 0
M  V30 1324 H 125.524 -2.71607 -3.94673 0
M  V30 1325 H 123.888 -1.36317 -2.15151 0
M  V30 1326 H 124.671 -2.97573 -1.71188 0
M  V30 1327 N 127.117 1.15442 -1.07289 0
M  V30 1328 C 128.533 1.38201 -0.798288 0
M  V30 1329 C 128.733 1.92429 0.597769 0
M  V30 1330 O 127.789 2.12962 1.3566 0
M  V30 1331 C 129.102 2.35357 -1.87156 0
M  V30 1332 C 130.65 2.49021 -1.89624 0
M  V30 1333 C 131.125 3.49468 -2.96034 0
M  V30 1334 N 132.616 3.57003 -2.95132 0
M  V30 1335 C 133.351 4.34543 -3.74112 0
M  V30 1336 N 132.847 5.15421 -4.6294 0
M  V30 1337 N 134.64 4.29625 -3.62462 0
M  V30 1338 H 126.791 0.78584 -1.97328 0
M  V30 1339 H 129.054 0.408065 -0.855679 0
M  V30 1340 H 128.76 2.02626 -2.87464 0
M  V30 1341 H 128.634 3.35129 -1.73114 0
M  V30 1342 H 131.021 2.81051 -0.899687 0
M  V30 1343 H 131.102 1.4925 -2.07745 0
M  V30 1344 H 130.746 3.18173 -3.95889 0
M  V30 1345 H 130.676 4.48992 -2.75161 0
M  V30 1346 H 133.167 2.99276 -2.30743 0
M  V30 1347 H 133.48 5.7183 -5.19837 0
M  V30 1348 H 131.825 5.14729 -4.66989 0
M  V30 1349 H 135.016 3.65505 -2.92444 0
M  V30 1350 H 135.189 4.89807 -4.24256 0
M  V30 1351 N 128.595 0.856903 1.32268 0
M  V30 1352 C 129.841 0.462069 1.97466 0
M  V30 1353 C 130.174 -0.980298 1.67642 0
M  V30 1354 O 129.449 -1.68824 0.965858 0
M  V30 1355 C 129.732 0.704336 3.53145 0
M  V30 1356 C 129.585 2.19529 3.9259 0
M  V30 1357 C 130.904 0.1622 4.39801 0
M  V30 1358 H 128.023 0.169357 0.717278 0
M  V30 1359 H 130.665 1.07574 1.56614 0
M  V30 1360 H 128.815 0.181999 3.88073 0
M  V30 1361 H 130.487 2.78387 3.67829 0
M  V30 1362 H 128.73 2.67292 3.41668 0
M  V30 1363 H 129.401 2.31549 5.01088 0
M  V30 1364 H 131.877 0.608905 4.11621 0
M  V30 1365 H 130.753 0.361265 5.4771 0
M  V30 1366 H 131.014 -0.935158 4.32096 0
M  V30 1367 N 130.073 -1.45103 0.615059 0
M  V30 1368 C 131.303 -2.06254 0.119596 0
M  V30 1369 C 131.711 -1.4591 -1.20445 0
M  V30 1370 O 131.054 -0.570384 -1.7462 0
M  V30 1371 C 131.116 -3.59396 -0.0865591 0
M  V30 1372 C 130.78 -4.42116 1.15683 0
M  V30 1373 C 131.777 -4.7662 2.07676 0
M  V30 1374 C 129.462 -4.82749 1.38775 0
M  V30 1375 C 131.456 -5.50622 3.21082 0
M  V30 1376 C 129.143 -5.56504 2.52481 0
M  V30 1377 C 130.141 -5.90358 3.43463 0
M  V30 1378 O 129.829 -6.62615 4.55189 0
M  V30 1379 H 129.561 -0.672423 0.0694512 0
M  V30 1380 H 132.115 -1.87219 0.844885 0
M  V30 1381 H 130.345 -3.76859 -0.866823 0
M  V30 1382 H 132.034 -4.02365 -0.534555 0
M  V30 1383 H 132.8 -4.4578 1.91063 0
M  V30 1384 H 128.679 -4.55829 0.688545 0
M  V30 1385 H 132.223 -5.76965 3.92119 0
M  V30 1386 H 128.12 -5.86759 2.69043 0
M  V30 1387 H 128.888 -6.81071 4.53966 0
M  V30 1388 N 131.551 -0.354651 -1.53558 0
M  V30 1389 C 132.481 0.489091 -2.2832 0
M  V30 1390 C 133.462 1.09324 -1.30316 0
M  V30 1391 O 134.647 1.11255 -1.59173 0
M  V30 1392 C 131.777 1.63456 -3.0643 0
M  V30 1393 C 130.731 1.1582 -4.12031 0
M  V30 1394 C 130.057 2.39305 -4.7816 0
M  V30 1395 C 131.357 0.250731 -5.21698 0
M  V30 1396 H 133.051 -0.134614 -2.99097 0
M  V30 1397 H 130.597 -0.0661826 -1.43848 0
M  V30 1398 H 132.55 2.23136 -3.57475 0
M  V30 1399 H 131.274 2.28533 -2.33325 0
M  V30 1400 H 129.933 0.584146 -3.61916 0
M  V30 1401 H 129.581 3.02814 -4.01637 0
M  V30 1402 H 129.281 2.08109 -5.49513 0
M  V30 1403 H 130.805 2.99691 -5.31994 0
M  V30 1404 H 132.219 0.754695 -5.68311 0
M  V30 1405 H 130.616 0.0301468 -6.00092 0
M  V30 1406 H 131.686 -0.710125 -4.79672 0
M  V30 1407 N 133.029 1.57378 -0.0835403 0
M  V30 1408 C 134.275 1.94217 0.583733 0
M  V30 1409 C 134.608 0.964653 1.68547 0
M  V30 1410 O 133.883 -0.00422258 1.945 0
M  V30 1411 C 134.166 3.41253 1.14972 0
M  V30 1412 C 134.019 4.49768 0.0538277 0
M  V30 1413 C 135.338 3.89352 2.05166 0
M  V30 1414 H 132.457 0.706233 0.210724 0
M  V30 1415 H 135.099 1.89392 -0.1519 0
M  V30 1416 H 133.249 3.45496 1.77665 0
M  V30 1417 H 134.921 4.57641 -0.579851 0
M  V30 1418 H 133.164 4.29432 -0.614068 0
M  V30 1419 H 133.835 5.49817 0.490452 0
M  V30 1420 H 136.311 3.87189 1.52393 0
M  V30 1421 H 135.187 4.92822 2.41698 0
M  V30 1422 H 135.448 3.27973 2.96456 0
M  V30 1423 N 134.507 -0.190092 1.56449 0
M  V30 1424 C 135.417 -1.25591 1.98152 0
M  V30 1425 C 136.433 -1.49519 0.889944 0
M  V30 1426 O 137.609 -1.62036 1.19609 0
M  V30 1427 C 134.674 -2.57916 2.3169 0
M  V30 1428 C 133.735 -2.42015 3.5458 0
M  V30 1429 C 132.968 -3.6803 3.8651 0
M  V30 1430 O 133.191 -4.72413 3.1966 0
M  V30 1431 O 132.125 -3.6326 4.79923 0
M  V30 1432 H 135.951 -0.931988 2.89046 0
M  V30 1433 H 133.536 -0.395488 1.4407 0
M  V30 1434 H 135.418 -3.36008 2.54316 0
M  V30 1435 H 134.093 -2.89925 1.43963 0
M  V30 1436 H 133 -1.62017 3.37196 0
M  V30 1437 H 134.333 -2.14937 4.4279 0
M  V30 1438 N 135.985 -1.50799 -0.457987 0
M  V30 1439 C 137.401 -1.38515 -0.792819 0
M  V30 1440 C 137.601 -0.451409 -1.96379 0
M  V30 1441 O 136.657 0.10112 -2.52297 0
M  V30 1442 C 137.97 -2.80149 -1.09258 0
M  V30 1443 C 139.518 -2.89156 -1.19825 0
M  V30 1444 C 139.993 -4.31651 -1.53106 0
M  V30 1445 N 141.484 -4.34662 -1.60072 0
M  V30 1446 C 142.219 -5.41928 -1.87354 0
M  V30 1447 N 141.715 -6.59384 -2.12568 0
M  V30 1448 N 143.508 -5.29385 -1.88965 0
M  V30 1449 H 135.659 -2.10073 0.313511 0
M  V30 1450 H 137.922 -0.944803 0.0777862 0
M  V30 1451 H 137.628 -3.50374 -0.305084 0
M  V30 1452 H 137.502 -3.18204 -2.02549 0
M  V30 1453 H 139.889 -2.19141 -1.97639 0
M  V30 1454 H 139.97 -2.54626 -0.244821 0
M  V30 1455 H 139.614 -5.02208 -0.758266 0
M  V30 1456 H 139.544 -4.63678 -2.49621 0
M  V30 1457 H 142.035 -3.49973 -1.42573 0
M  V30 1458 H 142.348 -7.36934 -2.32696 0
M  V30 1459 H 140.693 -6.62535 -2.09933 0
M  V30 1460 H 143.884 -4.36616 -1.68772 0
M  V30 1461 H 144.057 -6.13066 -2.09891 0
M  V30 1462 N 137.463 0.71206 -1.40597 0
M  V30 1463 C 138.393 1.83889 -1.43899 0
M  V30 1464 C 139.374 1.67442 -0.299504 0
M  V30 1465 O 140.559 1.87421 -0.508624 0
M  V30 1466 C 137.689 3.21877 -1.30431 0
M  V30 1467 C 136.643 3.53002 -2.42019 0
M  V30 1468 C 135.969 4.90172 -2.13626 0
M  V30 1469 C 137.269 3.53643 -3.84362 0
M  V30 1470 H 138.963 1.81383 -2.38203 0
M  V30 1471 H 136.509 0.871237 -1.14654 0
M  V30 1472 H 138.462 4.00404 -1.31357 0
M  V30 1473 H 137.186 3.24968 -0.326049 0
M  V30 1474 H 135.845 2.76818 -2.40349 0
M  V30 1475 H 135.493 4.89869 -1.14182 0
M  V30 1476 H 135.193 5.11962 -2.88389 0
M  V30 1477 H 136.717 5.71028 -2.1624 0
M  V30 1478 H 138.131 4.22203 -3.87837 0
M  V30 1479 H 136.528 3.86961 -4.58673 0
M  V30 1480 H 137.598 2.52954 -4.13693 0
M  V30 1481 N 138.941 1.26152 0.944643 0
M  V30 1482 C 140.19 1.10883 1.68487 0
M  V30 1483 C 140.503 -0.348153 1.92477 0
M  V30 1484 O 141.709 -0.621459 2.64292 0
M  V30 1485 C 140.165 1.93624 3.03377 0
M  V30 1486 C 139.773 3.43875 2.87148 0
M  V30 1487 C 141.517 1.86954 3.81115 0
M  V30 1488 C 139.424 4.18875 4.1749 0
M  V30 1489 H 138.354 0.41135 0.631907 0
M  V30 1490 H 141.005 1.50433 1.05082 0
M  V30 1491 H 139.387 1.46904 3.67743 0
M  V30 1492 H 140.561 3.98338 2.31653 0
M  V30 1493 H 138.876 3.51744 2.22856 0
M  V30 1494 H 141.473 2.40275 4.77673 0
M  V30 1495 H 141.816 0.839518 4.07747 0
M  V30 1496 H 142.349 2.31477 3.23517 0
M  V30 1497 H 139.088 5.22332 3.96043 0
M  V30 1498 H 138.608 3.69193 4.72712 0
M  V30 1499 H 140.287 4.27134 4.85968 0
M  V30 1500 N 140.419 -1.14872 1.07899 0
M  V30 1501 C 141.382 -2.17986 0.708161 0
M  V30 1502 C 142.382 -1.58775 -0.25442 0
M  V30 1503 O 143.572 -1.74166 -0.034645 0
M  V30 1504 C 140.704 -3.40871 0.0446929 0
M  V30 1505 H 141.897 -2.52306 1.62116 0
M  V30 1506 H 139.45 -1.2943 0.876218 0
M  V30 1507 H 140.185 -3.12124 -0.880281 0
M  V30 1508 H 139.97 -3.8511 0.737091 0
M  V30 1509 H 141.46 -4.17121 -0.19991 0
M  V30 1510 N 141.898 -0.863906 -1.31812 0
M  V30 1511 C 143.138 -0.47825 -1.98726 0
M  V30 1512 C 143.502 0.950397 -1.66828 0
M  V30 1513 O 144.703 1.44109 -2.26905 0
M  V30 1514 C 142.974 -0.721134 -3.50049 0
M  V30 1515 S 144.533 -0.434432 -4.36644 0
M  V30 1516 H 141.351 -0.178773 -0.688158 0
M  V30 1517 H 143.953 -1.11862 -1.60334 0
M  V30 1518 H 142.657 -1.75981 -3.70755 0
M  V30 1519 H 142.188 -0.0675315 -3.93342 0
M  V30 1520 H 144.203 0.735786 -4.90714 0
M  V30 1521 N 143.376 1.44774 -0.622745 0
M  V30 1522 C 144.286 2.34433 0.0886031 0
M  V30 1523 C 145.302 1.52131 0.844529 0
M  V30 1524 O 146.478 1.84886 0.798691 0
M  V30 1525 C 143.543 3.29986 1.0635 0
M  V30 1526 C 142.604 4.28195 0.307873 0
M  V30 1527 C 141.837 5.19183 1.23633 0
M  V30 1528 O 142.06 5.13918 2.47476 0
M  V30 1529 O 140.994 5.97515 0.725189 0
M  V30 1530 H 144.82 2.96693 -0.648599 0
M  V30 1531 H 142.405 1.44408 -0.382957 0
M  V30 1532 H 144.287 3.88825 1.6246 0
M  V30 1533 H 142.962 2.70269 1.78146 0
M  V30 1534 H 141.869 3.72927 -0.296064 0
M  V30 1535 H 143.202 4.90808 -0.3699 0
M  V30 1536 N 144.854 0.36279 1.53368 0
M  V30 1537 C 145.802 -0.500155 2.27159 0
M  V30 1538 C 146.796 -1.08575 1.3003 0
M  V30 1539 O 148.002 -1.02927 1.47668 0
M  V30 1540 H 144.377 -0.180009 0.730138 0
M  V30 1541 H 146.348 0.14401 2.98052 0
M  V30 1542 C 145.097 -1.62937 3.07159 0
M  V30 1543 H 144.42 -1.18806 3.8174 0
M  V30 1544 H 145.86 -2.20795 3.61975 0
M  V30 1545 C 144.319 -2.57007 2.17829 0
M  V30 1546 O 144.849 -3.59752 1.78721 0
M  V30 1547 N 143.055 -2.26131 1.82518 0
M  V30 1548 H 142.602 -1.42616 2.14519 0
M  V30 1549 H 142.56 -2.89327 1.23034 0
M  V30 1550 N 146.332 -1.57332 0.0918853 0
M  V30 1551 C 147.743 -1.81496 -0.437739 0
M  V30 1552 C 148.094 -1.00727 -1.6837 0
M  V30 1553 O 147.219 -0.235694 -2.15113 0
M  V30 1554 C 147.814 -3.29197 -0.800939 0
M  V30 1555 C 146.373 -3.54136 -1.27532 0
M  V30 1556 C 145.52 -2.75979 -0.270392 0
M  V30 1557 H 148.471 -1.55494 0.317366 0
M  V30 1558 H 148.492 -3.42344 -1.66074 0
M  V30 1559 H 148.004 -3.87955 0.106078 0
M  V30 1560 H 146.105 -3.00705 -2.20016 0
M  V30 1561 H 146.218 -4.62792 -1.23938 0
M  V30 1562 H 144.582 -2.43349 -0.751872 0
M  V30 1563 H 145.365 -3.37484 0.629248 0
M  V30 1564 N 147.81 0.181792 -1.56548 0
M  V30 1565 C 149.057 0.900097 -1.81396 0
M  V30 1566 C 149.385 1.82695 -0.667281 0
M  V30 1567 O 148.64 1.92614 0.346146 0
M  V30 1568 C 148.939 1.73728 -3.12335 0
M  V30 1569 C 148.605 0.960255 -4.40556 0
M  V30 1570 C 147.267 0.745766 -4.75386 0
M  V30 1571 C 149.619 0.414477 -5.19549 0
M  V30 1572 C 146.947 -0.0257694 -5.86694 0
M  V30 1573 C 149.299 -0.343916 -6.31664 0
M  V30 1574 C 147.963 -0.569301 -6.65068 0
M  V30 1575 H 147.233 0.329369 -0.663775 0
M  V30 1576 H 149.88 0.165647 -1.90782 0
M  V30 1577 H 148.185 2.54081 -2.98245 0
M  V30 1578 H 149.882 2.29591 -3.28769 0
M  V30 1579 H 146.472 1.13746 -4.13231 0
M  V30 1580 H 150.656 0.567554 -4.93044 0
M  V30 1581 H 145.912 -0.210233 -6.11038 0
M  V30 1582 H 150.086 -0.774133 -6.92084 0
M  V30 1583 H 147.713 -1.16903 -7.51158 0
M  V30 1584 N 149.288 1.51039 0.449983 0
M  V30 1585 C 150.221 1.66105 1.56474 0
M  V30 1586 C 151.199 0.508776 1.54435 0
M  V30 1587 O 152.383 0.731005 1.73749 0
M  V30 1588 C 149.51 1.66304 2.9506 0
M  V30 1589 C 148.556 2.87346 3.15174 0
M  V30 1590 S 149.389 4.4835 2.92818 0
M  V30 1591 C 150.545 4.51274 4.33708 0
M  V30 1592 H 150.778 2.60397 1.43459 0
M  V30 1593 H 148.311 1.40565 0.638805 0
M  V30 1594 H 150.269 1.67103 3.74949 0
M  V30 1595 H 148.93 0.732108 3.05449 0
M  V30 1596 H 148.123 2.83849 4.16468 0
M  V30 1597 H 147.725 2.84223 2.43091 0
M  V30 1598 H 150.017 4.26136 5.26701 0
M  V30 1599 H 150.96 5.53017 4.42242 0
M  V30 1600 H 151.368 3.80738 4.16772 0
M  V30 1601 N 150.766 -0.704594 1.40972 0
M  V30 1602 C 152.012 -1.46675 1.40051 0
M  V30 1603 C 152.345 -1.94199 0.00641102 0
M  V30 1604 O 151.62 -1.68916 -0.964235 0
M  V30 1605 C 151.903 -2.68505 2.39952 0
M  V30 1606 C 151.756 -2.26805 3.88432 0
M  V30 1607 C 153.075 -3.70686 2.37233 0
M  V30 1608 H 150.194 -0.532015 0.510028 0
M  V30 1609 H 152.836 -0.803255 1.72185 0
M  V30 1610 H 150.986 -3.25114 2.1268 0
M  V30 1611 H 152.658 -1.75592 4.26574 0
M  V30 1612 H 150.901 -1.58685 4.03734 0
M  V30 1613 H 151.572 -3.14181 4.53866 0
M  V30 1614 H 154.048 -3.23731 2.61415 0
M  V30 1615 H 152.924 -4.53553 3.09162 0
M  V30 1616 H 153.185 -4.19754 1.38777 0
M  V30 1617 N 152.244 -1.26651 -0.937939 0
M  V30 1618 C 153.192 -1.08308 -2.05845 0
M  V30 1619 C 154.186 -0.0090757 -1.69398 0
M  V30 1620 O 155.392 -0.166007 -1.79233 0
M  V30 1621 H 151.767 -0.333416 -0.674046 0
M  V30 1622 H 153.738 -2.03261 -2.18467 0
M  V30 1623 C 152.487 -0.736229 -3.39816 0
M  V30 1624 H 151.81 -1.55453 -3.6834 0
M  V30 1625 H 153.25 -0.64769 -4.19024 0
M  V30 1626 C 151.709 0.558824 -3.32233 0
M  V30 1627 O 152.239 1.59621 -3.68624 0
M  V30 1628 N 150.445 0.550657 -2.85335 0
M  V30 1629 H 149.992 -0.293943 -2.55917 0
M  V30 1630 H 149.95 1.41726 -2.80644 0
M  V30 1631 N 153.722 1.14298 -1.08507 0
M  V30 1632 C 154.654 2.1907 -0.673859 0
M  V30 1633 C 155.667 1.60381 0.279577 0
M  V30 1634 O 156.856 1.78374 0.0670754 0
M  V30 1635 C 153.956 3.38888 0.0290979 0
M  V30 1636 C 153.129 4.27103 -0.943494 0
M  V30 1637 C 152.188 5.25477 -0.275676 0
M  V30 1638 O 151.214 5.61709 -0.920401 0
M  V30 1639 N 152.416 5.7227 0.974013 0
M  V30 1640 H 155.181 2.54965 -1.57521 0
M  V30 1641 H 152.742 1.29528 -0.971287 0
M  V30 1642 H 154.734 4.01761 0.48683 0
M  V30 1643 H 153.304 3.01309 0.832555 0
M  V30 1644 H 152.524 3.61149 -1.58004 0
M  V30 1645 H 153.812 4.82905 -1.60251 0
M  V30 1646 H 153.21 5.44965 1.51755 0
M  V30 1647 H 151.767 6.37127 1.37522 0
M  V30 1648 N 155.201 0.870884 1.31352 0
M  V30 1649 C 156.131 0.343096 2.30966 0
M  V30 1650 C 157.112 -0.566507 1.60389 0
M  V30 1651 O 158.297 -0.483336 1.88089 0
M  V30 1652 C 155.427 -0.455487 3.443 0
M  V30 1653 C 154.381 0.361103 4.26474 0
M  V30 1654 C 153.707 -0.563221 5.31725 0
M  V30 1655 C 155.007 1.59566 4.97329 0
M  V30 1656 H 156.701 1.17548 2.75359 0
M  V30 1657 H 154.247 0.566686 1.32381 0
M  V30 1658 H 156.2 -0.83525 4.13039 0
M  V30 1659 H 154.924 -1.32139 2.98675 0
M  V30 1660 H 153.583 0.722825 3.59403 0
M  V30 1661 H 153.231 -1.42643 4.82351 0
M  V30 1662 H 152.931 -0.0207409 5.87596 0
M  V30 1663 H 154.455 -0.939808 6.03324 0
M  V30 1664 H 155.869 1.28728 5.58661 0
M  V30 1665 H 154.266 2.07728 5.63 0
M  V30 1666 H 155.336 2.34798 4.24262 0
M  V30 1667 N 156.679 -1.44442 0.630414 0
M  V30 1668 C 157.642 -2.29107 -0.0652523 0
M  V30 1669 C 158.642 -1.41002 -0.772995 0
M  V30 1670 O 159.832 -1.62881 -0.617692 0
M  V30 1671 C 156.964 -3.22564 -1.10296 0
M  V30 1672 H 158.157 -2.92103 0.679401 0
M  V30 1673 H 155.71 -1.51343 0.390517 0
M  V30 1674 H 156.445 -2.64416 -1.87762 0
M  V30 1675 H 156.23 -3.87491 -0.59941 0
M  V30 1676 H 157.72 -3.86167 -1.5895 0
M  V30 1677 N 158.157 -0.370918 -1.53173 0
M  V30 1678 C 159.387 0.217389 -2.05453 0
M  V30 1679 C 159.795 1.42568 -1.24382 0
M  V30 1680 O 159.138 1.81571 -0.278839 0
M  V30 1681 C 159.2 0.669827 -3.53205 0
M  V30 1682 C 158.864 -0.4225 -4.55043 0
M  V30 1683 C 159.861 -1.27407 -5.04047 0
M  V30 1684 C 157.546 -0.58427 -4.9889 0
M  V30 1685 C 159.54 -2.27271 -5.95505 0
M  V30 1686 C 157.227 -1.58627 -5.90153 0
M  V30 1687 C 158.225 -2.42892 -6.38351 0
M  V30 1688 O 157.913 -3.41382 -7.27814 0
M  V30 1689 H 157.645 0.0408171 -0.674767 0
M  V30 1690 H 160.199 -0.5292 -1.98466 0
M  V30 1691 H 158.429 1.4681 -3.57748 0
M  V30 1692 H 160.118 1.18173 -3.88317 0
M  V30 1693 H 160.884 -1.16031 -4.70916 0
M  V30 1694 H 156.763 0.061851 -4.60959 0
M  V30 1695 H 160.307 -2.93079 -6.33049 0
M  V30 1696 H 156.204 -1.70048 -6.22699 0
M  V30 1697 H 156.972 -3.37173 -7.45826 0
M  V30 1698 N 159.635 1.57281 -0.100228 0
M  V30 1699 C 160.86 1.99302 0.573881 0
M  V30 1700 C 161.285 0.979059 1.60611 0
M  V30 1701 O 160.643 -0.0517803 1.81226 0
M  V30 1702 C 160.691 3.40274 1.19358 0
M  V30 1703 O 159.795 3.41676 2.30935 0
M  V30 1704 H 159.136 0.647944 0.145138 0
M  V30 1705 H 161.666 2.03779 -0.183156 0
M  V30 1706 H 161.676 3.78078 1.53365 0
M  V30 1707 H 160.351 4.13594 0.437385 0
M  V30 1708 H 158.928 3.15672 1.98509 0
M  V30 1709 N 161.113 -0.173488 1.56642 0
M  V30 1710 C 162.338 -0.910149 1.86363 0
M  V30 1711 C 162.763 -1.75132 0.686318 0
M  V30 1712 O 162.121 -1.77595 -0.364643 0
M  V30 1713 C 162.169 -1.76447 3.14482 0
M  V30 1714 O 161.273 -2.86584 2.96553 0
M  V30 1715 H 160.614 -0.255086 0.613047 0
M  V30 1716 H 163.144 -0.172283 2.03873 0
M  V30 1717 H 163.154 -2.16483 3.45831 0
M  V30 1718 H 161.829 -1.14658 3.99783 0
M  V30 1719 H 160.406 -2.50146 2.76553 0
M  V30 1720 N 162.591 -1.51276 -0.441967 0
M  V30 1721 C 163.816 -1.67799 -1.21895 0
M  V30 1722 C 164.241 -0.372864 -1.84367 0
M  V30 1723 O 163.599 0.666501 -1.68604 0
M  V30 1724 C 163.647 -2.79199 -2.28211 0
M  V30 1725 O 162.751 -2.42479 -3.33583 0
M  V30 1726 H 162.092 -0.559649 -0.357336 0
M  V30 1727 H 164.622 -1.97815 -0.522522 0
M  V30 1728 H 164.632 -3.03146 -2.73069 0
M  V30 1729 H 163.307 -3.73906 -1.82118 0
M  V30 1730 H 161.884 -2.29087 -2.94234 0
M  V30 1731 N 164.069 0.697108 -1.41344 0
M  V30 1732 C 165.032 1.79281 -1.42797 0
M  V30 1733 C 166.032 1.57607 -0.318837 0
M  V30 1734 O 167.222 1.64309 -0.578642 0
M  V30 1735 C 164.354 3.17632 -1.23785 0
M  V30 1736 H 165.547 1.79385 -2.40335 0
M  V30 1737 H 163.1 0.904582 -1.27464 0
M  V30 1738 H 163.835 3.23167 -0.270814 0
M  V30 1739 H 163.62 3.34765 -2.04144 0
M  V30 1740 H 165.11 3.97617 -1.27633 0
M  V30 1741 N 165.547 1.27147 0.931209 0
M  V30 1742 C 166.495 1.09398 2.05268 0
M  V30 1743 C 167.489 0.0180591 1.6939 0
M  V30 1744 O 168.695 0.17551 1.79142 0
M  V30 1745 H 165.07 0.336986 0.672268 0
M  V30 1746 H 167.041 2.04416 2.17386 0
M  V30 1747 C 165.79 0.75424 3.39421 0
M  V30 1748 H 165.113 1.57404 3.67511 0
M  V30 1749 H 166.553 0.669903 4.18674 0
M  V30 1750 C 165.012 -0.541197 3.32525 0
M  V30 1751 O 165.542 -1.57664 3.69466 0
M  V30 1752 N 163.748 -0.535517 2.85623 0
M  V30 1753 H 163.295 0.307511 2.55758 0
M  V30 1754 H 163.253 -1.40236 2.81392 0
M  V30 1755 N 167.025 -1.13721 1.09112 0
M  V30 1756 C 168.273 -1.84559 0.823562 0
M  V30 1757 C 168.594 -1.83754 -0.652658 0
M  V30 1758 O 167.864 -1.29102 -1.47342 0
M  V30 1759 H 166.444 -0.683376 0.301673 0
M  V30 1760 H 169.106 -1.37771 1.37859 0
M  V30 1761 H 168.202 -2.8917 1.17419 0
M  V30 1762 N 168.503 -0.877838 -1.30888 0
M  V30 1763 C 169.728 -0.506629 -2.01117 0
M  V30 1764 C 170.153 0.895564 -1.65412 0
M  V30 1765 O 169.511 1.5923 -0.866922 0
M  V30 1766 C 169.559 -0.680223 -3.54126 0
M  V30 1767 O 168.663 0.277033 -4.11468 0
M  V30 1768 H 168.004 -0.200518 -0.633 0
M  V30 1769 H 170.534 -1.18342 -1.66902 0
M  V30 1770 H 170.544 -0.5765 -4.03907 0
M  V30 1771 H 169.219 -1.70261 -3.79452 0
M  V30 1772 H 167.796 0.127606 -3.72682 0
M  V30 1773 N 169.982 1.44106 -0.638065 0
M  V30 1774 C 170.912 2.33448 0.0494287 0
M  V30 1775 C 171.893 1.48606 0.827672 0
M  V30 1776 O 173.078 1.77308 0.792173 0
M  V30 1777 C 170.208 3.31771 1.02691 0
M  V30 1778 C 169.162 4.26485 0.359823 0
M  V30 1779 C 168.488 5.14729 1.44769 0
M  V30 1780 C 169.788 5.17056 -0.738296 0
M  V30 1781 H 171.482 2.91183 -0.696636 0
M  V30 1782 H 169.028 1.40014 -0.336456 0
M  V30 1783 H 170.981 3.93161 1.51666 0
M  V30 1784 H 169.705 2.7226 1.80395 0
M  V30 1785 H 168.364 3.66437 -0.10934 0
M  V30 1786 H 168.012 4.51566 2.21578 0
M  V30 1787 H 167.712 5.78913 1.00668 0
M  V30 1788 H 169.236 5.78991 1.93911 0
M  V30 1789 H 170.65 5.72342 -0.331354 0
M  V30 1790 H 169.047 5.89879 -1.10286 0
M  V30 1791 H 170.117 4.57652 -1.60258 0
M  V30 1792 N 171.46 0.379036 1.52974 0
M  V30 1793 C 172.706 -0.206727 2.01744 0
M  V30 1794 C 173.039 -1.47314 1.26539 0
M  V30 1795 O 172.314 -1.91084 0.362903 0
M  V30 1796 C 172.597 -0.485066 3.56818 0
M  V30 1797 C 172.45 0.795919 4.42702 0
M  V30 1798 C 173.769 -1.28003 4.21074 0
M  V30 1799 H 170.888 -0.0736607 0.73331 0
M  V30 1800 H 173.53 0.506581 1.83122 0
M  V30 1801 H 171.68 -1.09272 3.72816 0
M  V30 1802 H 173.352 1.43307 4.38476 0
M  V30 1803 H 171.595 1.41344 4.10127 0
M  V30 1804 H 172.266 0.555947 5.49193 0
M  V30 1805 H 174.742 -0.765867 4.08991 0
M  V30 1806 H 173.618 -1.44352 5.29579 0
M  V30 1807 H 173.879 -2.29236 3.78026 0
M  V30 1808 N 172.938 -1.57226 0.108567 0
M  V30 1809 C 174.186 -1.94448 -0.550853 0
M  V30 1810 C 174.507 -0.992074 -1.67878 0
M  V30 1811 O 173.777 -0.0465 -1.95845 0
M  V30 1812 H 172.357 -0.717897 -0.206479 0
M  V30 1813 H 175.019 -1.94112 0.175062 0
M  V30 1814 H 174.115 -2.97218 -0.952259 0
M  V30 1815 N 174.416 0.165178 -1.56732 0
M  V30 1816 C 175.644 0.896218 -1.86482 0
M  V30 1817 C 176.059 1.75555 -0.694675 0
M  V30 1818 O 175.416 1.79379 0.33607 0
M  V30 1819 C 175.467 1.76792 -3.1532 0
M  V30 1820 O 175.188 0.943239 -4.27825 0
M  V30 1821 C 176.689 2.6081 -3.58459 0
M  V30 1822 H 173.909 0.260064 -0.618553 0
M  V30 1823 H 176.453 0.163428 -2.03846 0
M  V30 1824 H 174.608 2.45398 -2.99764 0
M  V30 1825 H 175.022 1.53998 -5.01383 0
M  V30 1826 H 176.496 3.17579 -4.51495 0
M  V30 1827 H 176.973 3.35977 -2.82872 0
M  V30 1828 H 177.579 1.97526 -3.76648 0
M  V30 1829 N 175.894 1.51508 0.433938 0
M  V30 1830 C 177.122 1.68157 1.20543 0
M  V30 1831 C 177.537 0.380362 1.84929 0
M  V30 1832 O 176.894 -0.641446 1.70856 0
M  V30 1833 C 176.945 2.79965 2.28696 0
M  V30 1834 O 176.666 4.05045 1.66943 0
M  V30 1835 C 178.167 3.07912 3.18912 0
M  V30 1836 H 175.387 0.56421 0.363191 0
M  V30 1837 H 177.931 1.97941 0.513754 0
M  V30 1838 H 176.086 2.5277 2.93574 0
M  V30 1839 H 176.5 4.67165 2.38448 0
M  V30 1840 H 177.974 3.89719 3.90926 0
M  V30 1841 H 178.451 2.20456 3.79863 0
M  V30 1842 H 179.057 3.36779 2.59731 0
M  V30 1843 N 177.372 -0.689602 1.41712 0
M  V30 1844 C 178.302 -1.81577 1.46806 0
M  V30 1845 C 179.283 -1.66945 0.326105 0
M  V30 1846 O 180.468 -1.86588 0.538377 0
M  V30 1847 C 177.598 -3.19762 1.35535 0
M  V30 1848 C 176.552 -3.49107 2.47605 0
M  V30 1849 C 175.878 -4.86711 2.21397 0
M  V30 1850 C 177.178 -3.47483 3.89939 0
M  V30 1851 H 178.872 -1.7757 2.41058 0
M  V30 1852 H 176.418 -0.852887 1.16025 0
M  V30 1853 H 178.371 -3.98263 1.3771 0
M  V30 1854 H 177.095 -3.24409 0.377708 0
M  V30 1855 H 175.754 -2.72959 2.44722 0
M  V30 1856 H 175.402 -4.8799 1.21961 0
M  V30 1857 H 175.102 -5.0731 2.96497 0
M  V30 1858 H 176.626 -5.67515 2.25297 0
M  V30 1859 H 178.04 -4.1598 3.94505 0
M  V30 1860 H 176.437 -3.79615 4.64771 0
M  V30 1861 H 177.507 -2.46341 4.17665 0
M  V30 1862 N 178.85 -1.27639 -0.924453 0
M  V30 1863 C 179.782 -1.06442 -2.02985 0
M  V30 1864 C 180.795 -0.0194771 -1.62788 0
M  V30 1865 O 181.984 -0.261388 -1.76576 0
M  V30 1866 C 179.084 -0.59327 -3.33667 0
M  V30 1867 C 178.257 -1.71123 -4.02537 0
M  V30 1868 C 177.316 -1.23527 -5.11495 0
M  V30 1869 O 176.342 -1.93553 -5.35281 0
M  V30 1870 N 177.544 -0.0926678 -5.80426 0
M  V30 1871 H 180.309 -2.01633 -2.2173 0
M  V30 1872 H 177.87 -1.19248 -1.09505 0
M  V30 1873 H 179.862 -0.258686 -4.03872 0
M  V30 1874 H 178.432 0.265502 -3.1147 0
M  V30 1875 H 177.652 -2.21593 -3.26022 0
M  V30 1876 H 178.94 -2.46145 -4.45298 0
M  V30 1877 H 178.338 0.491741 -5.63559 0
M  V30 1878 H 176.895 0.182714 -6.51544 0
M  V30 1879 N 180.328 1.1314 -1.09713 0
M  V30 1880 C 181.576 1.84119 -0.833338 0
M  V30 1881 C 181.897 1.84097 0.642904 0
M  V30 1882 O 181.167 1.29881 1.46655 0
M  V30 1883 H 179.747 0.681766 -0.305293 0
M  V30 1884 H 182.409 1.37038 -1.38588 0
M  V30 1885 H 181.505 2.88543 -1.18951 0
M  V30 1886 N 181.806 0.884767 1.30421 0
M  V30 1887 C 182.753 0.349642 2.28136 0
M  V30 1888 C 183.723 -0.560061 1.56373 0
M  V30 1889 O 184.908 -0.488524 1.8444 0
M  V30 1890 C 182.048 -0.42999 3.42411 0
M  V30 1891 C 181.161 0.508907 4.28992 0
M  V30 1892 C 180.296 -0.286301 5.30428 0
M  V30 1893 C 179.335 0.648079 6.08659 0
M  V30 1894 N 178.472 -0.111792 7.02011 0
M  V30 1895 H 183.312 1.18807 2.73293 0
M  V30 1896 H 180.849 0.597231 1.3443 0
M  V30 1897 H 182.807 -0.897923 4.07423 0
M  V30 1898 H 181.437 -1.23299 2.98324 0
M  V30 1899 H 180.489 1.09533 3.64289 0
M  V30 1900 H 181.801 1.22475 4.8353 0
M  V30 1901 H 180.955 -0.816098 6.01186 0
M  V30 1902 H 179.694 -1.03536 4.76583 0
M  V30 1903 H 178.699 1.18951 5.36778 0
M  V30 1904 H 179.924 1.39623 6.64592 0
M  V30 1905 H 177.87 -0.843395 6.50556 0
M  V30 1906 H 177.787 0.544429 7.54037 0
M  V30 1907 H 179.055 -0.622339 7.77012 0
M  V30 1908 N 183.284 -1.43765 0.645699 0
M  V30 1909 C 184.695 -1.85193 0.236719 0
M  V30 1910 C 185.046 -1.54045 -1.21509 0
M  V30 1911 O 184.171 -0.985694 -1.92647 0
M  V30 1912 C 184.766 -3.36151 0.422845 0
M  V30 1913 C 183.325 -3.76338 0.0682492 0
M  V30 1914 C 182.472 -2.67538 0.729306 0
M  V30 1915 H 185.423 -1.34025 0.849883 0
M  V30 1916 H 185.444 -3.79032 -0.333904 0
M  V30 1917 H 184.956 -3.5879 1.47958 0
M  V30 1918 H 183.057 -3.59312 -0.986179 0
M  V30 1919 H 183.17 -4.76603 0.488469 0
M  V30 1920 H 181.534 -2.54176 0.163235 0
M  V30 1921 H 182.317 -2.93006 1.78892 0
M  V30 1922 N 184.763 -0.387143 -1.52771 0
M  V30 1923 C 186.012 0.19697 -2.00736 0
M  V30 1924 C 186.325 1.48082 -1.27793 0
M  V30 1925 O 187.531 2.14485 -1.66458 0
M  V30 1926 C 185.987 0.401568 -3.57653 0
M  V30 1927 C 185.595 -0.868907 -4.39493 0
M  V30 1928 C 187.339 0.942164 -4.13912 0
M  V30 1929 C 185.246 -0.632705 -5.88006 0
M  V30 1930 H 184.176 0.0773827 -0.750019 0
M  V30 1931 H 186.827 -0.50921 -1.76293 0
M  V30 1932 H 185.209 1.16954 -3.78335 0
M  V30 1933 H 186.383 -1.64133 -4.30577 0
M  V30 1934 H 184.698 -1.33429 -3.94443 0
M  V30 1935 H 187.295 1.13455 -5.22525 0
M  V30 1936 H 187.638 1.9106 -3.69867 0
M  V30 1937 H 188.171 0.233814 -3.97112 0
M  V30 1938 H 184.91 -1.57208 -6.36369 0
M  V30 1939 H 184.43 0.100825 -5.99715 0
M  V30 1940 H 186.109 -0.26642 -6.46451 0
M  V30 1941 N 186.241 1.57166 -0.116904 0
M  V30 1942 C 187.489 1.94737 0.540533 0
M  V30 1943 C 187.81 1.00096 1.67349 0
M  V30 1944 O 187.08 0.0568854 1.95817 0
M  V30 1945 H 185.66 0.718981 0.202669 0
M  V30 1946 H 188.322 1.94017 -0.185353 0
M  V30 1947 H 187.418 2.97719 0.936483 0
M  V30 1948 N 187.719 -0.156864 1.56817 0
M  V30 1949 C 188.652 -1.22316 1.9265 0
M  V30 1950 C 189.63 -1.42059 0.791076 0
M  V30 1951 O 190.814 -1.56831 1.04576 0
M  V30 1952 C 187.941 -2.58375 2.18998 0
M  V30 1953 C 186.987 -2.55284 3.41661 0
M  V30 1954 S 187.82 -2.02946 4.95553 0
M  V30 1955 C 188.976 -3.40753 5.25013 0
M  V30 1956 H 189.209 -0.917403 2.82791 0
M  V30 1957 H 186.742 -0.362059 1.50095 0
M  V30 1958 H 188.7 -3.36677 2.34859 0
M  V30 1959 H 187.361 -2.86145 1.29538 0
M  V30 1960 H 186.554 -3.55418 3.57343 0
M  V30 1961 H 186.156 -1.85086 3.24991 0
M  V30 1962 H 188.448 -4.36819 5.17876 0
M  V30 1963 H 189.391 -3.29933 6.26538 0
M  V30 1964 H 189.799 -3.37433 4.52548 0
M  V30 1965 N 189.197 -1.51736 -0.425897 0
M  V30 1966 C 190.444 -1.6497 -1.17436 0
M  V30 1967 C 190.772 -0.371445 -1.9092 0
M  V30 1968 O 190.027 0.644963 -1.84767 0
M  V30 1969 C 190.326 -2.81103 -2.20717 0
M  V30 1970 C 189.992 -4.19954 -1.64162 0
M  V30 1971 C 188.654 -4.57725 -1.48462 0
M  V30 1972 C 191.006 -5.06552 -1.22696 0
M  V30 1973 C 188.334 -5.79789 -0.897873 0
M  V30 1974 C 190.686 -6.29205 -0.654464 0
M  V30 1975 C 189.35 -6.6574 -0.484456 0
M  V30 1976 H 188.62 -0.603668 -0.429727 0
M  V30 1977 H 191.267 -1.85798 -0.463829 0
M  V30 1978 H 189.572 -2.54542 -2.97852 0
M  V30 1979 H 191.269 -2.8854 -2.78471 0
M  V30 1980 H 187.859 -3.90181 -1.77361 0
M  V30 1981 H 192.043 -4.77968 -1.33642 0
M  V30 1982 H 187.299 -6.06733 -0.75402 0
M  V30 1983 H 191.473 -6.95643 -0.324694 0
M  V30 1984 H 189.1 -7.60195 -0.0276833 0
M  V30 1985 N 190.675 0.682077 -1.42076 0
M  V30 1986 C 191.922 1.44215 -1.42156 0
M  V30 1987 C 192.25 1.94468 -0.0354186 0
M  V30 1988 O 191.505 1.70816 0.955002 0
M  V30 1989 C 191.804 2.66036 -2.38662 0
M  V30 1990 C 191.47 2.34366 -3.85206 0
M  V30 1991 C 190.132 2.25439 -4.25124 0
M  V30 1992 C 192.484 2.08513 -4.77673 0
M  V30 1993 C 189.812 1.88775 -5.55501 0
M  V30 1994 C 192.164 1.73354 -6.08384 0
M  V30 1995 C 190.828 1.62933 -6.47309 0
M  V30 1996 H 190.098 0.527718 -0.520187 0
M  V30 1997 H 192.745 0.778387 -1.74967 0
M  V30 1998 H 191.05 3.3741 -1.99152 0
M  V30 1999 H 192.747 3.24205 -2.35991 0
M  V30 2000 H 189.337 2.42213 -3.53597 0
M  V30 2001 H 193.521 2.14346 -4.47626 0
M  V30 2002 H 188.777 1.7927 -5.84527 0
M  V30 2003 H 192.951 1.52373 -6.79526 0
M  V30 2004 H 190.578 1.34292 -7.48244 0
M  V30 2005 N 192.153 1.28127 0.917671 0
M  V30 2006 C 193.564 1.13622 1.48145 0
M  V30 2007 C 193.915 -0.275207 1.9426 0
M  V30 2008 O 193.04 -1.1691 1.82102 0
M  V30 2009 C 193.635 2.05648 2.69248 0
M  V30 2010 C 192.194 1.95219 3.21818 0
M  V30 2011 C 191.341 1.97618 1.94532 0
M  V30 2012 H 194.292 1.40874 0.730772 0
M  V30 2013 H 194.313 1.61818 3.44377 0
M  V30 2014 H 193.825 3.08365 2.35653 0
M  V30 2015 H 191.926 0.955244 3.60147 0
M  V30 2016 H 192.039 2.81976 3.87333 0
M  V30 2017 H 190.403 1.41973 2.11461 0
M  V30 2018 H 191.186 3.02007 1.63238 0
M  V30 2019 N 193.631 -1.12557 1.10312 0
M  V30 2020 C 194.861 -1.87592 0.865617 0
M  V30 2021 C 195.269 -1.79851 -0.587389 0
M  V30 2022 O 194.612 -1.16949 -1.41664 0
M  V30 2023 C 194.674 -3.37665 1.23381 0
M  V30 2024 C 194.338 -3.69181 2.69359 0
M  V30 2025 C 195.335 -3.67652 3.67597 0
M  V30 2026 C 193.02 -3.98555 3.05711 0
M  V30 2027 C 195.014 -3.95053 5.00212 0
M  V30 2028 C 192.701 -4.25616 4.38514 0
M  V30 2029 C 193.699 -4.23851 5.35574 0
M  V30 2030 O 193.387 -4.50242 6.65986 0
M  V30 2031 H 193.119 -0.600442 0.310557 0
M  V30 2032 H 195.673 -1.4335 1.47105 0
M  V30 2033 H 193.903 -3.82454 0.571467 0
M  V30 2034 H 195.592 -3.94041 0.973994 0
M  V30 2035 H 196.358 -3.45024 3.40857 0
M  V30 2036 H 192.237 -3.99071 2.30789 0
M  V30 2037 H 195.781 -3.93591 5.75962 0
M  V30 2038 H 191.678 -4.47718 4.64994 0
M  V30 2039 H 192.446 -4.67867 6.71597 0
M  V30 2040 N 195.109 -0.891671 -1.2995 0
M  V30 2041 C 196.386 -0.433307 -1.9074 0
M  V30 2042 C 196.766 1.08646 -1.80995 0
M  V30 2043 O 196.114 1.92476 -1.23147 0
M  V30 2044 C 196.324 -0.938895 -3.36134 0
M  V30 2045 C 197.672 -0.977829 -4.13187 0
M  V30 2046 O 198.696 -0.886015 -3.45005 0
M  V30 2047 O 197.555 -1.11453 -5.35015 0
M  V30 2048 H 194.649 -0.133699 -0.816121 0
M  V30 2049 H 197.195 -0.981011 -1.38471 0
M  V30 2050 H 195.967 -1.98281 -3.37343 0
M  V30 2051 H 195.59 -0.37074 -3.95868 0
M  V30 2052 N 196.587 1.43421 -0.653314 0
M  V30 2053 C 197.836 2.01032 -0.164076 0
M  V30 2054 C 198.149 1.52147 1.22926 0
M  V30 2055 O 199.355 2.02031 1.81371 0
M  V30 2056 C 197.811 3.59082 -0.24252 0
M  V30 2057 C 197.419 4.1696 -1.63855 0
M  V30 2058 C 199.163 4.24079 0.18911 0
M  V30 2059 C 197.07 5.67304 -1.67092 0
M  V30 2060 H 196 0.751798 -0.0575769 0
M  V30 2061 H 198.651 1.6439 -0.815362 0
M  V30 2062 H 197.033 3.93125 0.476276 0
M  V30 2063 H 198.207 3.94416 -2.38271 0
M  V30 2064 H 196.522 3.64335 -2.01616 0
M  V30 2065 H 199.119 5.34381 0.184775 0
M  V30 2066 H 199.462 3.98005 1.22056 0
M  V30 2067 H 199.995 3.94918 -0.477938 0
M  V30 2068 H 196.734 5.98145 -2.68146 0
M  V30 2069 H 196.254 5.91904 -0.970014 0
M  V30 2070 H 197.933 6.31344 -1.4147 0
M  V30 2071 N 198.065 0.39524 1.52563 0
M  V30 2072 C 198.975 -0.444232 2.30356 0
M  V30 2073 C 199.991 -1.06615 1.37511 0
M  V30 2074 O 201.167 -1.07067 1.70583 0
M  V30 2075 C 198.232 -1.55315 3.09964 0
M  V30 2076 C 197.293 -0.955734 4.18526 0
M  V30 2077 C 196.526 -2.01181 4.9433 0
M  V30 2078 O 196.749 -3.22781 4.70285 0
M  V30 2079 O 195.683 -1.62579 5.79527 0
M  V30 2080 H 199.509 0.189667 3.03107 0
M  V30 2081 H 197.094 0.1588 1.48554 0
M  V30 2082 H 198.976 -2.19724 3.59582 0
M  V30 2083 H 197.651 -2.17191 2.4002 0
M  V30 2084 H 196.558 -0.274743 3.7309 0
M  V30 2085 H 197.891 -0.381109 4.90722 0
M  V30 2086 N 199.544 -1.57102 0.125237 0
M  V30 2087 C 200.474 -2.18659 -0.819174 0
M  V30 2088 C 201.455 -1.12843 -1.27281 0
M  V30 2089 O 202.64 -1.41104 -1.33429 0
M  V30 2090 C 199.77 -2.79096 -2.06695 0
M  V30 2091 C 198.724 -3.90548 -1.75088 0
M  V30 2092 C 198.05 -4.37821 -3.06948 0
M  V30 2093 C 199.35 -5.12356 -1.01435 0
M  V30 2094 H 201.044 -2.9783 -0.306202 0
M  V30 2095 H 198.59 -1.4326 -0.145839 0
M  V30 2096 H 200.543 -3.2082 -2.73226 0
M  V30 2097 H 199.267 -1.97223 -2.60328 0
M  V30 2098 H 197.926 -3.49409 -1.10944 0
M  V30 2099 H 197.574 -3.52799 -3.58527 0
M  V30 2100 H 197.274 -5.12982 -2.86571 0
M  V30 2101 H 198.798 -4.822 -3.74587 0
M  V30 2102 H 200.212 -5.5106 -1.58132 0
M  V30 2103 H 198.609 -5.9314 -0.911319 0
M  V30 2104 H 199.679 -4.849 -0.00218681 0
M  V30 2105 N 201.022 0.148545 -1.56898 0
M  V30 2106 C 202.268 0.862694 -1.83536 0
M  V30 2107 C 202.601 1.80889 -0.706604 0
M  V30 2108 O 201.876 1.92328 0.289885 0
M  V30 2109 C 202.159 1.63853 -3.20662 0
M  V30 2110 C 202.012 0.713925 -4.44098 0
M  V30 2111 C 203.331 2.60133 -3.54991 0
M  V30 2112 H 200.45 0.312179 -0.667618 0
M  V30 2113 H 203.092 0.127953 -1.89569 0
M  V30 2114 H 201.242 2.26489 -3.1565 0
M  V30 2115 H 202.914 0.098686 -4.61194 0
M  V30 2116 H 201.157 0.0234019 -4.33794 0
M  V30 2117 H 201.828 1.29278 -5.36648 0
M  V30 2118 H 204.304 2.07616 -3.60603 0
M  V30 2119 H 203.18 3.11468 -4.51972 0
M  V30 2120 H 203.441 3.41417 -2.80868 0
M  V30 2121 N 202.5 1.5196 0.417844 0
M  V30 2122 C 203.728 1.69426 1.18753 0
M  V30 2123 C 204.143 0.399955 1.84515 0
M  V30 2124 O 203.5 -0.623288 1.71527 0
M  V30 2125 C 203.551 2.82375 2.25714 0
M  V30 2126 O 203.272 4.06793 1.62638 0
M  V30 2127 C 204.773 3.11277 3.15628 0
M  V30 2128 H 201.993 0.568031 0.357186 0
M  V30 2129 H 204.537 1.98475 0.49273 0
M  V30 2130 H 202.692 2.5587 2.90877 0
M  V30 2131 H 203.106 4.69667 2.3348 0
M  V30 2132 H 204.58 3.93843 3.86771 0
M  V30 2133 H 205.057 2.24473 3.77503 0
M  V30 2134 H 205.663 3.39515 2.56144 0
M  V30 2135 N 203.978 -0.674533 1.42435 0
M  V30 2136 C 205.226 -1.43175 1.42637 0
M  V30 2137 C 205.547 -1.94951 0.0438992 0
M  V30 2138 O 204.817 -1.7308 -0.917607 0
M  V30 2139 H 203.397 -0.531307 0.525092 0
M  V30 2140 H 206.059 -0.797006 1.77859 0
M  V30 2141 H 205.155 -2.28463 2.12629 0
M  V30 2142 N 205.456 -1.28612 -0.910864 0
M  V30 2143 C 206.403 -1.12786 -2.01365 0
M  V30 2144 C 207.373 -0.024201 -1.66082 0
M  V30 2145 O 208.558 -0.189667 -1.89855 0
M  V30 2146 C 205.698 -0.798743 -3.35729 0
M  V30 2147 C 204.811 -1.98173 -3.83864 0
M  V30 2148 C 203.946 -1.59298 -5.06752 0
M  V30 2149 C 202.985 -2.74245 -5.47226 0
M  V30 2150 N 202.122 -2.35842 -6.61304 0
M  V30 2151 H 206.962 -2.07142 -2.14234 0
M  V30 2152 H 204.499 -1.03093 -1.0493 0
M  V30 2153 H 206.457 -0.588662 -4.13026 0
M  V30 2154 H 205.087 0.10789 -3.2262 0
M  V30 2155 H 204.139 -2.30386 -3.02699 0
M  V30 2156 H 205.451 -2.84343 -4.09818 0
M  V30 2157 H 204.605 -1.34513 -5.916 0
M  V30 2158 H 203.344 -0.702618 -4.82612 0
M  V30 2159 H 202.349 -2.99725 -4.60918 0
M  V30 2160 H 203.574 -3.63928 -5.73353 0
M  V30 2161 H 201.52 -1.49279 -6.38789 0
M  V30 2162 H 201.437 -3.15546 -6.86998 0
M  V30 2163 H 202.705 -2.14348 -7.4945 0
M  V30 2164 N 206.934 1.1197 -1.10907 0
M  V30 2165 C 207.866 2.17592 -0.720175 0
M  V30 2166 C 208.879 1.60938 0.245495 0
M  V30 2167 O 210.068 1.78476 0.0292245 0
M  V30 2168 C 207.168 3.38873 -0.0427917 0
M  V30 2169 C 206.341 4.25006 -1.03388 0
M  V30 2170 C 205.4 5.24774 -0.387075 0
M  V30 2171 O 204.426 5.59631 -1.03934 0
M  V30 2172 N 205.628 5.74208 0.852407 0
M  V30 2173 H 208.393 2.51567 -1.62893 0
M  V30 2174 H 205.954 1.27439 -0.998543 0
M  V30 2175 H 207.946 4.02703 0.401501 0
M  V30 2176 H 206.516 3.03007 0.768456 0
M  V30 2177 H 205.736 3.57716 -1.65629 0
M  V30 2178 H 207.024 4.79397 -1.70458 0
M  V30 2179 H 206.422 5.48062 1.40161 0
M  V30 2180 H 204.979 6.39901 1.23977 0
M  V30 2181 N 208.412 0.89855 1.29475 0
M  V30 2182 C 209.36 0.365253 2.29714 0
M  V30 2183 C 210.354 -0.534993 1.6073 0
M  V30 2184 O 211.56 -0.417921 1.75081 0
M  V30 2185 H 207.935 0.0994853 0.74539 0
M  V30 2186 H 209.906 1.22406 2.72138 0
M  V30 2187 C 208.655 -0.393159 3.4547 0
M  V30 2188 H 207.978 0.290332 3.98744 0
M  V30 2189 H 209.418 -0.731189 4.17648 0
M  V30 2190 C 207.877 -1.59539 2.9673 0
M  V30 2191 O 208.407 -2.69469 2.97908 0
M  V30 2192 N 206.613 -1.43716 2.52575 0
M  V30 2193 H 206.16 -0.542828 2.51816 0
M  V30 2194 H 206.118 -2.24288 2.20323 0
M  V30 2195 N 209.89 -1.43072 0.660911 0
M  V30 2196 C 211.139 -2.00942 0.174735 0
M  V30 2197 C 211.452 -1.52797 -1.22117 0
M  V30 2198 O 212.658 -2.02991 -1.80297 0
M  V30 2199 C 211.114 -3.58948 0.261559 0
M  V30 2200 C 210.722 -4.16085 1.66064 0
M  V30 2201 C 212.466 -4.24173 -0.166617 0
M  V30 2202 C 210.373 -5.6641 1.70098 0
M  V30 2203 H 209.303 -0.751483 0.0615631 0
M  V30 2204 H 211.954 -1.63955 0.824069 0
M  V30 2205 H 210.336 -3.93372 -0.455421 0
M  V30 2206 H 211.51 -3.93147 2.40359 0
M  V30 2207 H 209.825 -3.6326 2.03546 0
M  V30 2208 H 212.422 -5.34471 -0.156433 0
M  V30 2209 H 212.765 -3.98647 -1.19943 0
M  V30 2210 H 213.298 -3.94659 0.498875 0
M  V30 2211 H 210.037 -5.96715 2.71315 0
M  V30 2212 H 209.557 -5.91382 1.00139 0
M  V30 2213 H 211.236 -6.30585 1.44816 0
M  V30 2214 N 211.368 -0.403325 -1.52352 0
M  V30 2215 C 212.298 0.416205 -2.29761 0
M  V30 2216 C 213.279 1.05123 -1.33728 0
M  V30 2217 O 214.464 1.06134 -1.62632 0
M  V30 2218 C 211.594 1.53624 -3.11475 0
M  V30 2219 C 210.548 1.02653 -4.15507 0
M  V30 2220 C 209.874 2.23971 -4.85532 0
M  V30 2221 C 211.174 0.08463 -5.22231 0
M  V30 2222 H 212.868 -0.229701 -2.98518 0
M  V30 2223 H 210.414 -0.111913 -1.43564 0
M  V30 2224 H 212.367 2.1165 -3.64393 0
M  V30 2225 H 211.091 2.20994 -2.40477 0
M  V30 2226 H 209.75 0.46871 -3.63591 0
M  V30 2227 H 209.398 2.89883 -4.11068 0
M  V30 2228 H 209.098 1.90521 -5.55856 0
M  V30 2229 H 210.622 2.82614 -5.41259 0
M  V30 2230 H 212.036 0.573509 -5.70424 0
M  V30 2231 H 210.433 -0.160783 -5.99885 0
M  V30 2232 H 211.503 -0.86237 -4.7717 0
M  V30 2233 N 212.846 1.57033 -0.133567 0
M  V30 2234 C 213.776 2.1909 0.807567 0
M  V30 2235 C 214.757 1.13517 1.26681 0
M  V30 2236 O 215.942 1.41809 1.32679 0
M  V30 2237 C 213.072 2.80188 2.05212 0
M  V30 2238 C 212.026 3.91471 1.73015 0
M  V30 2239 C 211.352 4.39443 3.04622 0
M  V30 2240 C 212.652 5.12886 0.987168 0
M  V30 2241 H 214.346 2.97988 0.290403 0
M  V30 2242 H 211.892 1.43335 0.138239 0
M  V30 2243 H 213.845 3.22264 2.71521 0
M  V30 2244 H 212.569 1.98601 2.59278 0
M  V30 2245 H 211.228 3.49993 1.0909 0
M  V30 2246 H 210.876 3.54695 3.56651 0
M  V30 2247 H 210.576 5.14495 2.83847 0
M  V30 2248 H 212.1 4.8418 3.72024 0
M  V30 2249 H 213.514 5.51891 1.55208 0
M  V30 2250 H 211.911 5.93615 0.87985 0
M  V30 2251 H 212.981 4.84894 -0.0235286 0
M  V30 2252 N 214.325 -0.140222 1.56975 0
M  V30 2253 C 215.741 -0.493088 1.51792 0
M  V30 2254 C 215.941 -1.83013 0.843116 0
M  V30 2255 O 214.997 -2.49041 0.416493 0
M  V30 2256 C 216.31 -0.497144 2.96562 0
M  V30 2257 C 217.858 -0.582186 3.07538 0
M  V30 2258 C 218.333 -0.616838 4.53827 0
M  V30 2259 N 219.824 -0.678873 4.58198 0
M  V30 2260 C 220.559 -0.726782 5.68775 0
M  V30 2261 N 220.055 -0.733623 6.88905 0
M  V30 2262 N 221.848 -0.768179 5.56826 0
M  V30 2263 H 213.999 0.736108 1.99237 0
M  V30 2264 H 216.262 0.269182 0.90898 0
M  V30 2265 H 215.968 0.417217 3.49217 0
M  V30 2266 H 215.842 -1.33263 3.52875 0
M  V30 2267 H 218.229 -1.48697 2.54899 0
M  V30 2268 H 218.31 0.280581 2.54257 0
M  V30 2269 H 217.954 0.283812 5.07106 0
M  V30 2270 H 217.884 -1.49619 5.04898 0
M  V30 2271 H 220.375 -0.68061 3.7172 0
M  V30 2272 H 220.688 -0.772215 7.68932 0
M  V30 2273 H 219.033 -0.701389 6.91452 0
M  V30 2274 H 222.224 -0.760051 4.61888 0
M  V30 2275 H 222.397 -0.80205 6.43017 0
M  V30 2276 N 215.803 -1.52179 -0.40978 0
M  V30 2277 C 216.75 -1.75475 -1.49924 0
M  V30 2278 C 217.72 -0.597175 -1.54994 0
M  V30 2279 O 218.905 -0.834655 -1.71575 0
M  V30 2280 C 216.045 -1.9107 -2.87378 0
M  V30 2281 C 215.158 -3.18717 -2.91622 0
M  V30 2282 C 214.293 -3.24747 -4.20372 0
M  V30 2283 C 213.332 -4.46598 -4.18588 0
M  V30 2284 N 212.469 -4.50025 -5.38908 0
M  V30 2285 H 217.309 -2.68458 -1.29361 0
M  V30 2286 H 214.846 -1.33024 -0.627934 0
M  V30 2287 H 216.804 -1.98096 -3.6717 0
M  V30 2288 H 215.434 -1.01469 -3.06437 0
M  V30 2289 H 214.486 -3.20866 -2.04326 0
M  V30 2290 H 215.798 -4.08544 -2.86169 0
M  V30 2291 H 214.952 -3.30841 -5.08556 0
M  V30 2292 H 213.691 -2.32857 -4.28519 0
M  V30 2293 H 212.696 -4.40652 -3.28794 0
M  V30 2294 H 213.921 -5.39783 -4.12081 0
M  V30 2295 H 211.867 -3.61017 -5.47725 0
M  V30 2296 H 211.784 -5.33697 -5.35447 0
M  V30 2297 H 213.052 -4.60347 -6.29048 0
M  V30 2298 N 217.281 0.66697 -1.42791 0
M  V30 2299 C 218.511 1.45294 -1.46878 0
M  V30 2300 C 218.919 1.89027 -0.0809861 0
M  V30 2301 O 218.262 1.59219 0.916246 0
M  V30 2302 C 218.324 2.72908 -2.34012 0
M  V30 2303 C 217.988 2.51203 -3.81767 0
M  V30 2304 C 218.985 2.15302 -4.73224 0
M  V30 2305 C 216.67 2.65954 -4.26115 0
M  V30 2306 C 218.664 1.94431 -6.07022 0
M  V30 2307 C 216.351 2.44699 -5.59969 0
M  V30 2308 C 217.349 2.08992 -6.5024 0
M  V30 2309 O 217.037 1.87948 -7.81621 0
M  V30 2310 H 216.769 0.453306 -0.501487 0
M  V30 2311 H 219.323 0.826232 -1.88049 0
M  V30 2312 H 217.553 3.38089 -1.87703 0
M  V30 2313 H 219.242 3.34816 -2.29462 0
M  V30 2314 H 220.008 2.03495 -4.40244 0
M  V30 2315 H 215.887 2.92724 -3.56137 0
M  V30 2316 H 219.431 1.66484 -6.77443 0
M  V30 2317 H 215.328 2.56105 -5.9252 0
M  V30 2318 H 216.096 2.02483 -7.93059 0
M  V30 2319 N 218.759 1.29093 0.90403 0
M  V30 2320 C 220.007 1.16583 1.65085 0
M  V30 2321 C 220.328 -0.283933 1.92922 0
M  V30 2322 O 219.598 -1.19509 1.55224 0
M  V30 2323 H 218.178 0.428467 0.611903 0
M  V30 2324 H 220.84 1.61959 1.08422 0
M  V30 2325 H 219.936 1.71266 2.6091 0
M  V30 2326 N 220.237 -1.11381 1.11499 0
M  V30 2327 C 221.653 -1.35143 0.849031 0
M  V30 2328 C 221.853 -1.94515 -0.525938 0
M  V30 2329 O 220.909 -2.1785 -1.27662 0
M  V30 2330 C 222.222 -2.28249 1.95762 0
M  V30 2331 C 223.77 -2.41812 1.98736 0
M  V30 2332 C 224.245 -3.3824 3.088 0
M  V30 2333 N 225.736 -3.45803 3.08179 0
M  V30 2334 C 226.471 -4.20358 3.89982 0
M  V30 2335 N 225.967 -4.97884 4.8175 0
M  V30 2336 N 227.76 -4.15877 3.78157 0
M  V30 2337 H 219.911 -0.712062 2.00109 0
M  V30 2338 H 222.174 -0.376025 0.870235 0
M  V30 2339 H 221.88 -1.91817 2.94787 0
M  V30 2340 H 221.754 -3.28473 1.85433 0
M  V30 2341 H 224.141 -2.77518 1.00338 0
M  V30 2342 H 224.222 -1.41437 2.13141 0
M  V30 2343 H 223.866 -3.03261 4.07425 0
M  V30 2344 H 223.796 -4.38471 2.91635 0
M  V30 2345 H 226.287 -2.90506 2.41691 0
M  V30 2346 H 226.6 -5.52142 5.40702 0
M  V30 2347 H 224.945 -4.97043 4.85771 0
M  V30 2348 H 228.136 -3.544 3.05808 0
M  V30 2349 H 228.309 -4.73723 4.42143 0
M  V30 2350 N 221.715 -0.905404 -1.28997 0
M  V30 2351 C 222.963 -0.533192 -1.9494 0
M  V30 2352 C 223.284 0.924618 -1.71685 0
M  V30 2353 O 222.554 1.65268 -1.05183 0
M  V30 2354 H 221.134 -0.194194 -0.721317 0
M  V30 2355 H 223.796 -1.15294 -1.57141 0
M  V30 2356 H 222.892 -0.72059 -3.03667 0
M  V30 2357 N 223.193 1.4272 -0.668489 0
M  V30 2358 C 224.441 2.01226 -0.187769 0
M  V30 2359 C 224.762 1.53092 1.2078 0
M  V30 2360 O 224.032 0.74993 1.80977 0
M  V30 2361 H 222.612 0.744041 -0.0664272 0
M  V30 2362 H 225.274 1.74723 -0.863583 0
M  V30 2363 H 224.37 3.11556 -0.184166 0
M  V30 2364 N 224.671 0.411399 1.52136 0
M  V30 2365 C 225.901 -0.16284 2.05957 0
M  V30 2366 C 226.309 -1.3922 1.28119 0
M  V30 2367 O 225.652 -1.80768 0.326881 0
M  V30 2368 C 225.714 -0.575946 3.54856 0
M  V30 2369 C 225.378 0.542998 4.53763 0
M  V30 2370 C 226.375 1.40726 5.00492 0
M  V30 2371 C 224.06 0.716337 4.97166 0
M  V30 2372 C 226.054 2.4298 5.8927 0
M  V30 2373 C 223.741 1.74218 5.8574 0
M  V30 2374 C 224.739 2.59731 6.31687 0
M  V30 2375 O 224.427 3.60558 7.18507 0
M  V30 2376 H 224.159 -0.0229125 0.675612 0
M  V30 2377 H 226.713 0.581634 1.96993 0
M  V30 2378 H 224.943 -1.37274 3.61515 0
M  V30 2379 H 226.632 -1.07836 3.91313 0
M  V30 2380 H 227.398 1.28476 4.67674 0
M  V30 2381 H 223.277 0.0603857 4.6096 0
M  V30 2382 H 226.821 3.0976 6.25055 0
M  V30 2383 H 222.718 1.86498 6.17971 0
M  V30 2384 H 223.486 3.56829 7.36624 0
M  V30 2385 N 226.149 -1.5696 0.141893 0
M  V30 2386 C 227.099 -2.13074 -0.811383 0
M  V30 2387 C 228.083 -1.05726 -1.21288 0
M  V30 2388 O 229.275 -1.31914 -1.18015 0
M  V30 2389 C 226.404 -2.75186 -2.0525 0
M  V30 2390 C 225.49 -3.8965 -1.67432 0
M  V30 2391 N 225.881 -4.95733 -1.0041 0
M  V30 2392 C 224.179 -4.00262 -1.96739 0
M  V30 2393 C 224.88 -5.75858 -0.822345 0
M  V30 2394 N 223.856 -5.26452 -1.3546 0
M  V30 2395 H 227.658 -2.92465 -0.290031 0
M  V30 2396 H 225.172 -1.6229 -0.0598218 0
M  V30 2397 H 227.169 -3.13745 -2.74535 0
M  V30 2398 H 225.829 -1.97266 -2.57907 0
M  V30 2399 H 226.84 -5.13607 -0.665441 0
M  V30 2400 H 223.517 -3.33412 -2.51282 0
M  V30 2401 H 224.907 -6.71254 -0.294496 0
M  V30 2402 N 227.627 0.131896 -1.57047 0
M  V30 2403 C 228.857 0.855219 -1.88068 0
M  V30 2404 C 229.265 1.74557 -0.729817 0
M  V30 2405 O 228.608 1.81083 0.308962 0
M  V30 2406 C 228.67 1.75119 -3.13964 0
M  V30 2407 C 228.334 1.03646 -4.45091 0
M  V30 2408 C 229.331 0.383276 -5.18485 0
M  V30 2409 C 227.016 1.02148 -4.91804 0
M  V30 2410 C 229.01 -0.275347 -6.36805 0
M  V30 2411 C 226.697 0.359047 -6.10044 0
M  V30 2412 C 227.695 -0.288222 -6.82392 0
M  V30 2413 O 227.383 -0.94011 -7.98384 0
M  V30 2414 H 227.115 0.251864 -0.627328 0
M  V30 2415 H 229.669 0.124782 -2.05021 0
M  V30 2416 H 227.899 2.52295 -2.9306 0
M  V30 2417 H 229.588 2.3478 -3.31109 0
M  V30 2418 H 230.354 0.386562 -4.83457 0
M  V30 2419 H 226.233 1.5147 -4.35405 0
M  V30 2420 H 229.777 -0.781148 -6.93213 0
M  V30 2421 H 225.674 0.35348 -6.44531 0
M  V30 2422 H 226.442 -0.84329 -8.14144 0
M  V30 2423 N 229.106 1.52395 0.401703 0
M  V30 2424 C 230.334 1.70676 1.16949 0
M  V30 2425 C 230.749 0.419503 1.8408 0
M  V30 2426 O 230.106 -0.605061 1.72178 0
M  V30 2427 C 230.157 2.84753 2.22706 0
M  V30 2428 O 229.878 4.08495 1.58314 0
M  V30 2429 C 231.379 3.14608 3.12309 0
M  V30 2430 H 228.599 0.571787 0.351142 0
M  V30 2431 H 231.143 1.98987 0.471652 0
M  V30 2432 H 229.298 2.58941 2.88147 0
M  V30 2433 H 229.712 4.72117 2.28485 0
M  V30 2434 H 231.186 3.97923 3.82572 0
M  V30 2435 H 231.663 2.28464 3.75101 0
M  V30 2436 H 232.269 3.42212 2.52529 0
M  V30 2437 N 230.584 -0.659388 1.43143 0
M  V30 2438 C 231.995 -1.24041 1.39537 0
M  V30 2439 C 232.346 -1.95963 0.0963364 0
M  V30 2440 O 231.471 -2.00892 -0.804438 0
M  V30 2441 C 232.066 -2.25601 2.52764 0
M  V30 2442 C 230.625 -2.79195 2.52443 0
M  V30 2443 C 229.772 -1.53743 2.30778 0
M  V30 2444 H 232.723 -0.451792 1.52133 0
M  V30 2445 H 232.744 -3.07651 2.23899 0
M  V30 2446 H 232.256 -1.73226 3.47296 0
M  V30 2447 H 230.357 -3.35649 1.61773 0
M  V30 2448 H 230.47 -3.2716 3.50004 0
M  V30 2449 H 228.834 -1.80869 1.79328 0
M  V30 2450 H 229.617 -1.03312 3.27386 0
M  V30 2451 N 232.062 -1.29571 -0.897171 0
M  V30 2452 C 233.309 -1.17689 -1.6479 0
M  V30 2453 C 233.637 0.27107 -1.92602 0
M  V30 2454 O 232.892 1.21193 -1.53658 0
M  V30 2455 C 233.191 -1.9382 -3.00281 0
M  V30 2456 C 232.857 -3.43522 -2.92068 0
M  V30 2457 C 231.519 -3.84348 -2.89535 0
M  V30 2458 C 233.871 -4.38906 -2.81089 0
M  V30 2459 C 231.199 -5.18869 -2.73846 0
M  V30 2460 C 233.551 -5.73521 -2.66939 0
M  V30 2461 C 232.215 -6.13601 -2.62774 0
M  V30 2462 H 231.485 -0.430654 -0.603008 0
M  V30 2463 H 234.132 -1.60536 -1.04404 0
M  V30 2464 H 232.437 -1.4357 -3.64547 0
M  V30 2465 H 234.134 -1.82028 -3.57305 0
M  V30 2466 H 230.724 -3.11072 -2.94842 0
M  V30 2467 H 234.908 -4.08315 -2.82121 0
M  V30 2468 H 230.164 -5.4903 -2.69027 0
M  V30 2469 H 234.338 -6.47078 -2.57416 0
M  V30 2470 H 231.965 -7.17786 -2.50375 0
M  V30 2471 N 233.54 1.10788 -1.12088 0
M  V30 2472 C 234.49 2.15158 -0.754401 0
M  V30 2473 C 235.474 1.59026 0.244846 0
M  V30 2474 O 236.666 1.76927 0.0509097 0
M  V30 2475 C 233.795 3.42677 -0.206657 0
M  V30 2476 C 232.881 4.05751 -1.23398 0
M  V30 2477 N 233.272 4.43582 -2.43041 0
M  V30 2478 C 231.57 4.32764 -1.07848 0
M  V30 2479 C 232.271 4.93085 -3.08613 0
M  V30 2480 N 231.247 4.89664 -2.36072 0
M  V30 2481 H 235.049 2.42195 -1.6649 0
M  V30 2482 H 232.563 1.27872 -1.00112 0
M  V30 2483 H 234.56 4.16834 0.0740646 0
M  V30 2484 H 233.22 3.17101 0.698342 0
M  V30 2485 H 234.231 4.35395 -2.80449 0
M  V30 2486 H 230.908 4.16863 -0.230483 0
M  V30 2487 H 232.298 5.31933 -4.10483 0
M  V30 2488 N 235.018 0.912232 1.28515 0
M  V30 2489 C 236.248 0.559604 1.98877 0
M  V30 2490 C 236.656 -0.863113 1.68366 0
M  V30 2491 O 235.999 -1.58304 0.931969 0
M  V30 2492 C 236.061 0.68703 3.52874 0
M  V30 2493 C 235.725 2.07901 4.06972 0
M  V30 2494 C 236.722 3.05157 4.20922 0
M  V30 2495 C 234.407 2.39178 4.417 0
M  V30 2496 C 236.401 4.31806 4.68852 0
M  V30 2497 C 234.088 3.66068 4.89324 0
M  V30 2498 C 235.086 4.62195 5.02856 0
M  V30 2499 O 234.774 5.86829 5.49442 0
M  V30 2500 H 234.506 0.212191 0.641834 0
M  V30 2501 H 237.06 1.22712 1.64715 0
M  V30 2502 H 235.29 -0.0375486 3.86682 0
M  V30 2503 H 236.979 0.341727 4.04459 0
M  V30 2504 H 237.745 2.82311 3.94367 0
M  V30 2505 H 233.624 1.65109 4.30418 0
M  V30 2506 H 237.168 5.06842 4.79329 0
M  V30 2507 H 233.065 3.88739 5.15318 0
M  V30 2508 H 233.833 5.89597 5.6773 0
M  V30 2509 N 236.496 -1.42363 0.676048 0
M  V30 2510 C 237.406 -2.346 -0.00153389 0
M  V30 2511 C 238.422 -1.5516 -0.787485 0
M  V30 2512 O 239.598 -1.87723 -0.729521 0
M  V30 2513 C 236.663 -3.33705 -0.940298 0
M  V30 2514 C 235.724 -4.29042 -0.148739 0
M  V30 2515 C 234.957 -5.23413 -1.04279 0
M  V30 2516 O 235.18 -5.22749 -2.28232 0
M  V30 2517 O 234.114 -5.99795 -0.502925 0
M  V30 2518 H 237.94 -2.94082 0.758268 0
M  V30 2519 H 235.525 -1.42888 0.436289 0
M  V30 2520 H 237.407 -3.94586 -1.47917 0
M  V30 2521 H 236.082 -2.76695 -1.67993 0
M  V30 2522 H 234.989 -3.71571 0.43427 0
M  V30 2523 H 236.322 -4.89097 0.551805 0
M  V30 2524 N 237.974 -0.419461 -1.51915 0
M  V30 2525 C 239.39 -0.0708431 -1.59443 0
M  V30 2526 C 239.59 1.41796 -1.43164 0
M  V30 2527 O 238.646 2.18596 -1.26381 0
M  V30 2528 C 239.959 -0.574991 -2.95151 0
M  V30 2529 C 241.507 -0.533867 -3.08413 0
M  V30 2530 C 241.982 -1.01469 -4.46618 0
M  V30 2531 N 243.473 -0.971939 -4.52888 0
M  V30 2532 C 244.208 -1.31505 -5.58116 0
M  V30 2533 N 243.704 -1.73014 -6.70849 0
M  V30 2534 N 245.497 -1.23436 -5.48379 0
M  V30 2535 H 237.648 -1.38836 -1.60743 0
M  V30 2536 H 239.911 -0.570998 -0.756747 0
M  V30 2537 H 239.617 -1.61597 -3.12377 0
M  V30 2538 H 239.491 0.00979777 -3.77199 0
M  V30 2539 H 241.878 0.498086 -2.90866 0
M  V30 2540 H 241.959 -1.15484 -2.28248 0
M  V30 2541 H 241.603 -2.04502 -4.6491 0
M  V30 2542 H 241.533 -0.370433 -5.25295 0
M  V30 2543 H 244.024 -0.666893 -3.71969 0
M  V30 2544 H 244.337 -1.97479 -7.47143 0
M  V30 2545 H 242.682 -1.76926 -6.72103 0
M  V30 2546 H 245.873 -0.908869 -4.59192 0
M  V30 2547 H 246.046 -1.50506 -6.30279 0
M  V30 2548 N 239.452 1.56882 -0.150215 0
M  V30 2549 C 240.729 1.87844 0.545327 0
M  V30 2550 C 241.109 1.0567 1.82749 0
M  V30 2551 O 240.457 0.144442 2.28043 0
M  V30 2552 C 240.667 3.39526 0.80767 0
M  V30 2553 C 242.015 4.08814 1.14703 0
M  V30 2554 O 243.039 3.44723 0.896917 0
M  V30 2555 O 241.898 5.22004 1.61784 0
M  V30 2556 H 238.992 0.778677 0.278553 0
M  V30 2557 H 241.538 1.68666 -0.187068 0
M  V30 2558 H 240.31 3.91173 -0.0996096 0
M  V30 2559 H 239.933 3.64243 1.59413 0
M  V30 2560 N 240.93 -0.123565 1.57115 0
M  V30 2561 C 241.878 -1.17082 2.00984 0
M  V30 2562 C 242.872 -1.43136 0.906009 0
M  V30 2563 O 244.078 -1.43152 1.09121 0
M  V30 2564 H 240.453 -0.394653 0.64012 0
M  V30 2565 H 242.424 -0.774292 2.88179 0
M  V30 2566 C 241.173 -2.49057 2.42623 0
M  V30 2567 H 240.496 -2.29846 3.27125 0
M  V30 2568 H 241.936 -3.20906 2.7712 0
M  V30 2569 C 240.395 -3.11305 1.28805 0
M  V30 2570 O 240.925 -3.97171 0.60153 0
M  V30 2571 N 239.131 -2.71111 1.04628 0
M  V30 2572 H 238.678 -2.01382 1.60634 0
M  V30 2573 H 238.636 -3.1309 0.286685 0
M  V30 2574 N 242.408 -1.52605 -0.393616 0
M  V30 2575 C 243.636 -1.71294 -1.16043 0
M  V30 2576 C 244.051 -0.429259 -1.83855 0
M  V30 2577 O 243.408 0.595921 -1.72496 0
M  V30 2578 C 243.459 -2.8593 -2.21193 0
M  V30 2579 O 243.18 -4.09329 -1.56146 0
M  V30 2580 C 244.681 -3.16259 -3.10636 0
M  V30 2581 H 241.901 -0.573641 -0.348104 0
M  V30 2582 H 244.445 -1.99234 -0.461092 0
M  V30 2583 H 242.6 -2.60465 -2.86769 0
M  V30 2584 H 243.014 -4.73323 -2.25978 0
M  V30 2585 H 244.488 -3.99946 -3.80456 0
M  V30 2586 H 244.965 -2.3045 -3.73884 0
M  V30 2587 H 245.571 -3.43547 -2.50711 0
M  V30 2588 N 243.887 0.651787 -1.4349 0
M  V30 2589 C 245.112 1.44434 -1.48841 0
M  V30 2590 C 245.537 1.8779 -0.107955 0
M  V30 2591 O 244.895 1.57464 0.898602 0
M  V30 2592 C 244.943 2.65458 -2.44059 0
M  V30 2593 O 244.047 3.64566 -1.92784 0
M  V30 2594 H 243.388 0.433005 -0.503391 0
M  V30 2595 H 245.918 0.797451 -1.88419 0
M  V30 2596 H 245.928 3.13255 -2.6141 0
M  V30 2597 H 244.603 2.33244 -3.4434 0
M  V30 2598 H 243.18 3.23716 -1.851 0
M  V30 2599 N 245.365 1.30045 0.890287 0
M  V30 2600 C 246.605 1.19839 1.65584 0
M  V30 2601 C 246.969 -0.244175 1.90441 0
M  V30 2602 O 248.17 -0.469378 2.6467 0
M  V30 2603 C 246.441 1.99876 2.96284 0
M  V30 2604 S 248 2.06309 3.87275 0
M  V30 2605 H 244.818 0.427157 0.568382 0
M  V30 2606 H 247.42 1.64453 1.05715 0
M  V30 2607 H 246.124 3.03809 2.75913 0
M  V30 2608 H 245.655 1.55903 3.61189 0
M  V30 2609 H 247.67 1.18661 4.81803 0
M  V30 2610 N 246.843 -1.10192 1.12674 0
M  V30 2611 C 248.254 -1.63707 0.897604 0
M  V30 2612 C 248.605 -1.87812 -0.567546 0
M  V30 2613 O 247.73 -1.62196 -1.43253 0
M  V30 2614 C 248.325 -2.974 1.62292 0
M  V30 2615 C 246.884 -3.47772 1.43986 0
M  V30 2616 C 246.031 -2.22332 1.65722 0
M  V30 2617 H 248.982 -0.936587 1.28116 0
M  V30 2618 H 249.003 -3.64986 1.07541 0
M  V30 2619 H 248.515 -2.79824 2.68924 0
M  V30 2620 H 246.616 -3.70487 0.396206 0
M  V30 2621 H 246.729 -4.25723 2.19765 0
M  V30 2622 H 245.093 -2.30599 1.08149 0
M  V30 2623 H 245.876 -2.07285 2.73657 0
M  V30 2624 N 248.321 -0.919034 -1.28029 0
M  V30 2625 C 249.231 -0.416756 -2.30869 0
M  V30 2626 C 250.247 0.498235 -1.66714 0
M  V30 2627 O 251.423 0.383144 -1.97722 0
M  V30 2628 C 248.488 0.330274 -3.45123 0
M  V30 2629 C 247.549 -0.618578 -4.2482 0
M  V30 2630 C 246.782 0.0928959 -5.33619 0
M  V30 2631 O 247.005 1.31375 -5.55065 0
M  V30 2632 O 245.939 -0.574499 -5.99152 0
M  V30 2633 H 249.765 -1.27043 -2.75851 0
M  V30 2634 H 247.35 -0.684052 -1.3282 0
M  V30 2635 H 249.232 0.751972 -4.14636 0
M  V30 2636 H 247.907 1.1597 -3.02213 0
M  V30 2637 H 246.814 -1.08978 -3.57875 0
M  V30 2638 H 248.147 -1.41497 -4.71423 0
M  V30 2639 N 249.799 1.42003 -0.683588 0
M  V30 2640 C 251.045 2.02223 -0.218536 0
M  V30 2641 C 251.4 1.53126 1.16492 0
M  V30 2642 O 250.693 0.727459 1.77253 0
M  V30 2643 C 250.887 3.56827 -0.202357 0
M  V30 2644 C 250.716 4.20928 -1.5827 0
M  V30 2645 C 249.486 4.5573 -2.18262 0
M  V30 2646 C 251.684 4.47933 -2.52706 0
M  V30 2647 N 249.666 5.05056 -3.48986 0
M  V30 2648 C 251.037 4.98906 -3.68094 0
M  V30 2649 C 253.092 4.29931 -2.51125 0
M  V30 2650 C 251.795 5.33768 -4.82166 0
M  V30 2651 C 253.821 4.65875 -3.643 0
M  V30 2652 C 253.183 5.17008 -4.78417 0
M  V30 2653 H 249.282 0.771931 -0.125088 0
M  V30 2654 H 251.866 1.72729 -0.898479 0
M  V30 2655 H 250.037 3.85819 0.447029 0
M  V30 2656 H 251.769 4.03755 0.276399 0
M  V30 2657 H 248.524 4.41781 -1.70665 0
M  V30 2658 H 248.948 5.34139 -4.15962 0
M  V30 2659 H 253.59 3.89647 -1.6412 0
M  V30 2660 H 251.308 5.72981 -5.6984 0
M  V30 2661 H 254.894 4.53615 -3.64314 0
M  V30 2662 H 253.774 5.44301 -5.64541 0
M  V30 2663 N 251.277 0.427512 1.51691 0
M  V30 2664 C 252.21 -0.433876 2.24037 0
M  V30 2665 C 253.188 -1.03287 1.25581 0
M  V30 2666 O 254.372 -1.07722 1.54688 0
M  V30 2667 C 251.499 -1.60385 2.98319 0
M  V30 2668 C 250.545 -1.12648 4.11355 0
M  V30 2669 S 251.378 -0.076543 5.35445 0
M  V30 2670 C 252.534 -1.25141 6.13262 0
M  V30 2671 H 252.767 0.180367 2.96752 0
M  V30 2672 H 250.3 0.211946 1.52938 0
M  V30 2673 H 252.258 -2.27462 3.41718 0
M  V30 2674 H 250.919 -2.18948 2.25213 0
M  V30 2675 H 250.112 -2.0011 4.62571 0
M  V30 2676 H 249.714 -0.534088 3.70167 0
M  V30 2677 H 252.006 -2.17162 6.41753 0
M  V30 2678 H 252.949 -0.779411 7.03797 0
M  V30 2679 H 253.357 -1.48553 5.44603 0
M  V30 2680 N 252.755 -1.56801 0.158532 0
M  V30 2681 C 254.032 -1.88131 -0.535357 0
M  V30 2682 C 254.412 -1.06638 -1.82186 0
M  V30 2683 O 253.76 -0.156533 -2.27963 0
M  V30 2684 C 253.97 -3.39949 -0.789653 0
M  V30 2685 C 255.318 -4.09416 -1.12533 0
M  V30 2686 O 256.342 -3.45194 -0.878622 0
M  V30 2687 O 255.201 -5.22855 -1.59014 0
M  V30 2688 H 252.295 -0.780143 -0.27442 0
M  V30 2689 H 254.841 -1.68564 0.19601 0
M  V30 2690 H 253.613 -3.91115 0.120353 0
M  V30 2691 H 253.236 -3.65084 -1.57479 0
M  V30 2692 N 254.233 0.115231 -1.57178 0
M  V30 2693 C 255.51 0.852873 -1.76027 0
M  V30 2694 C 255.89 1.97892 -0.73498 0
M  V30 2695 O 255.238 2.27232 0.24036 0
M  V30 2696 C 255.448 1.36608 -3.21153 0
M  V30 2697 C 256.796 1.81692 -3.83762 0
M  V30 2698 O 257.82 1.46278 -3.24779 0
M  V30 2699 O 256.679 2.47104 -4.87444 0
M  V30 2700 H 253.773 0.405296 -0.720877 0
M  V30 2701 H 256.319 0.0986785 -1.69413 0
M  V30 2702 H 255.091 0.558357 -3.87296 0
M  V30 2703 H 254.714 2.18287 -3.3232 0
M  V30 2704 N 255.711 1.52812 0.385517 0
M  V30 2705 C 256.958 1.68026 1.1302 0
M  V30 2706 C 257.286 0.421934 1.89868 0
M  V30 2707 O 256.541 -0.595749 1.86412 0
M  V30 2708 C 256.84 2.86856 2.13187 0
M  V30 2709 C 256.506 4.24159 1.5297 0
M  V30 2710 C 255.168 4.61501 1.36274 0
M  V30 2711 C 257.52 5.09627 1.09223 0
M  V30 2712 C 254.848 5.81966 0.743837 0
M  V30 2713 C 257.2 6.30719 0.487411 0
M  V30 2714 C 255.864 6.6679 0.307777 0
M  V30 2715 H 255.134 0.614849 0.413571 0
M  V30 2716 H 257.781 1.86962 0.414405 0
M  V30 2717 H 256.086 2.6235 2.90998 0
M  V30 2718 H 257.783 2.95821 2.70722 0
M  V30 2719 H 254.373 3.94746 1.66954 0
M  V30 2720 H 258.557 4.81343 1.20922 0
M  V30 2721 H 253.813 6.08519 0.592891 0
M  V30 2722 H 257.987 6.96259 0.140143 0
M  V30 2723 H 255.614 7.60001 -0.173879 0
M  V30 2724 N 257.189 -0.644168 1.43834 0
M  V30 2725 C 258.099 -1.78563 1.52159 0
M  V30 2726 C 259.115 -1.69147 0.408069 0
M  V30 2727 O 260.291 -1.90156 0.663524 0
M  V30 2728 C 257.356 -3.14888 1.45073 0
M  V30 2729 C 256.417 -3.36034 2.6717 0
M  V30 2730 C 255.65 -4.65855 2.60413 0
M  V30 2731 O 255.873 -5.45805 1.65689 0
M  V30 2732 O 254.807 -4.88918 3.5106 0
M  V30 2733 H 258.633 -1.74494 2.48567 0
M  V30 2734 H 256.218 -0.80378 1.25935 0
M  V30 2735 H 258.1 -3.96179 1.43597 0
M  V30 2736 H 256.775 -3.19528 0.518037 0
M  V30 2737 H 255.682 -2.54472 2.74217 0
M  V30 2738 H 257.015 -3.36247 3.59442 0
M  V30 2739 N 258.668 -1.30515 -0.883378 0
M  V30 2740 C 259.631 -1.1701 -1.97082 0
M  V30 2741 C 260.631 -0.10089 -1.60483 0
M  V30 2742 O 261.821 -0.349127 -1.70666 0
M  V30 2743 C 258.953 -0.793045 -3.31547 0
M  V30 2744 H 260.146 -2.13622 -2.10489 0
M  V30 2745 H 257.699 -1.13935 -1.06998 0
M  V30 2746 H 258.434 0.172499 -3.23841 0
M  V30 2747 H 258.219 -1.56576 -3.5948 0
M  V30 2748 H 259.709 -0.722073 -4.1131 0
M  V30 2749 N 260.146 1.09593 -1.13257 0
M  V30 2750 C 261.423 1.78293 -0.804432 0
M  V30 2751 C 261.803 1.99004 0.70431 0
M  V30 2752 O 261.151 1.59007 1.641 0
M  V30 2753 C 261.361 3.10707 -1.5894 0
M  V30 2754 C 262.709 3.85443 -1.78099 0
M  V30 2755 O 263.733 3.20454 -1.55525 0
M  V30 2756 O 262.592 5.02108 -2.15753 0
M  V30 2757 H 259.686 0.773156 -0.293528 0
M  V30 2758 H 262.232 1.16164 -1.23709 0
M  V30 2759 H 261.004 2.91106 -2.61482 0
M  V30 2760 H 260.627 3.80558 -1.15157 0
M  V30 2761 N 261.624 0.925811 1.2754 0
M  V30 2762 C 263.035 0.610102 1.7645 0
M  V30 2763 C 263.386 -0.874723 1.75622 0
M  V30 2764 O 262.511 -1.68444 1.35851 0
M  V30 2765 C 263.106 1.10073 3.20421 0
M  V30 2766 C 261.665 0.835723 3.67005 0
M  V30 2767 C 260.812 1.26054 2.46993 0
M  V30 2768 H 263.763 1.10579 1.13833 0
M  V30 2769 H 263.784 0.447557 3.77859 0
M  V30 2770 H 263.296 2.18143 3.20991 0
M  V30 2771 H 261.397 -0.231249 3.71882 0
M  V30 2772 H 261.51 1.45193 4.56569 0
M  V30 2773 H 259.874 0.679111 2.45479 0
M  V30 2774 H 260.657 2.34984 2.50275 0
M  V30 2775 N 263.102 -1.41638 0.69111 0
M  V30 2776 C 264.049 -2.30789 0.0229705 0
M  V30 2777 C 265.019 -1.46863 -0.775911 0
M  V30 2778 O 266.204 -1.75661 -0.74485 0
M  V30 2779 C 263.344 -3.32868 -0.910666 0
M  V30 2780 C 262.457 -4.31875 -0.103874 0
M  V30 2781 C 261.592 -5.21024 -1.03475 0
M  V30 2782 C 260.631 -6.11702 -0.220598 0
M  V30 2783 N 259.768 -6.93349 -1.10504 0
M  V30 2784 H 264.608 -2.87366 0.788978 0
M  V30 2785 H 262.145 -1.41535 0.400794 0
M  V30 2786 H 264.103 -3.90596 -1.46597 0
M  V30 2787 H 262.733 -2.77851 -1.64312 0
M  V30 2788 H 261.785 -3.76131 0.568285 0
M  V30 2789 H 263.097 -4.96003 0.527504 0
M  V30 2790 H 262.251 -5.83565 -1.65943 0
M  V30 2791 H 260.99 -4.57112 -1.69999 0
M  V30 2792 H 259.995 -5.48215 0.417187 0
M  V30 2793 H 261.22 -6.77668 0.440784 0
M  V30 2794 H 259.166 -6.3205 -1.75638 0
M  V30 2795 H 259.083 -7.54146 -0.529125 0
M  V30 2796 H 260.351 -7.60362 -1.71667 0
M  V30 2797 N 264.58 -0.43555 -1.51462 0
M  V30 2798 C 265.828 0.131254 -2.01673 0
M  V30 2799 C 266.149 1.43368 -1.32177 0
M  V30 2800 O 265.419 1.90524 -0.455769 0
M  V30 2801 H 263.999 0.0514954 -0.745223 0
M  V30 2802 H 266.661 -0.577847 -1.86137 0
M  V30 2803 H 265.757 0.308446 -3.10572 0
M  V30 2804 N 266.058 1.56714 -0.166846 0
M  V30 2805 C 267.005 2.17746 0.765193 0
M  V30 2806 C 267.975 1.11614 1.23011 0
M  V30 2807 O 269.16 1.39745 1.29908 0
M  V30 2808 C 266.3 2.81882 1.9909 0
M  V30 2809 C 265.413 4.02462 1.56997 0
M  V30 2810 C 264.548 4.54537 2.749 0
M  V30 2811 C 263.587 5.67538 2.29275 0
M  V30 2812 N 262.724 6.14142 3.40255 0
M  V30 2813 H 267.564 2.97048 0.237952 0
M  V30 2814 H 265.101 1.4672 0.105725 0
M  V30 2815 H 267.059 3.17221 2.70974 0
M  V30 2816 H 265.689 2.05191 2.49192 0
M  V30 2817 H 264.741 3.72973 0.748037 0
M  V30 2818 H 266.053 4.84273 1.19503 0
M  V30 2819 H 265.207 4.92035 3.54946 0
M  V30 2820 H 263.946 3.71774 3.1565 0
M  V30 2821 H 262.951 5.29597 1.47674 0
M  V30 2822 H 264.176 6.52099 1.89588 0
M  V30 2823 H 262.122 5.3431 3.8059 0
M  V30 2824 H 262.039 6.9093 3.06841 0
M  V30 2825 H 263.307 6.56289 4.206 0
M  V30 2826 N 267.536 -0.106894 1.57237 0
M  V30 2827 C 268.766 -0.825191 1.89405 0
M  V30 2828 C 269.174 -1.73374 0.757496 0
M  V30 2829 O 268.517 -1.81552 -0.280115 0
M  V30 2830 C 268.579 -1.70102 3.1671 0
M  V30 2831 C 268.243 -0.965523 4.46684 0
M  V30 2832 C 269.24 -0.300741 5.19029 0
M  V30 2833 C 266.925 -0.943105 4.93367 0
M  V30 2834 C 268.919 0.376622 6.36286 0
M  V30 2835 C 266.606 -0.261949 6.10538 0
M  V30 2836 C 267.604 0.396748 6.81847 0
M  V30 2837 O 267.292 1.06701 7.96787 0
M  V30 2838 H 267.024 -0.241852 0.631255 0
M  V30 2839 H 269.578 -0.0921491 2.05193 0
M  V30 2840 H 267.808 -2.47601 2.97036 0
M  V30 2841 H 269.497 -2.29483 3.34802 0
M  V30 2842 H 270.263 -0.309599 4.84011 0
M  V30 2843 H 266.142 -1.44524 4.3776 0
M  V30 2844 H 269.686 0.891334 6.91882 0
M  V30 2845 H 265.583 -0.250896 6.45012 0
M  V30 2846 H 266.351 0.972707 8.127 0
M  V30 2847 N 269.014 -1.53014 -0.377408 0
M  V30 2848 C 269.977 -1.77957 -1.44444 0
M  V30 2849 C 270.977 -0.649763 -1.47087 0
M  V30 2850 O 272.167 -0.917897 -1.48055 0
M  V30 2851 C 269.299 -1.89089 -2.83651 0
M  V30 2852 H 270.492 -2.73243 -1.23606 0
M  V30 2853 H 268.045 -1.43912 -0.609844 0
M  V30 2854 H 268.78 -0.958293 -3.09818 0
M  V30 2855 H 268.565 -2.71254 -2.83132 0
M  V30 2856 H 270.055 -2.1002 -3.60945 0
M  V30 2857 N 270.492 0.636531 -1.44174 0
M  V30 2858 C 271.424 1.7618 -1.46606 0
M  V30 2859 C 272.437 1.58768 -0.360091 0
M  V30 2860 O 273.626 1.67181 -0.625518 0
M  V30 2861 C 270.726 3.13833 -1.27915 0
M  V30 2862 C 269.899 3.57753 -2.51658 0
M  V30 2863 C 268.958 4.74265 -2.27945 0
M  V30 2864 O 267.984 4.82852 -3.01401 0
M  V30 2865 N 269.186 5.65604 -1.30662 0
M  V30 2866 H 271.951 1.74567 -2.43612 0
M  V30 2867 H 269.512 0.820924 -1.39544 0
M  V30 2868 H 271.504 3.8949 -1.09907 0
M  V30 2869 H 270.074 3.10121 -0.39293 0
M  V30 2870 H 269.294 2.72362 -2.84978 0
M  V30 2871 H 270.582 3.83847 -3.33974 0
M  V30 2872 H 269.98 5.61354 -0.699844 0
M  V30 2873 H 268.537 6.40913 -1.18634 0
M  V30 2874 N 271.97 1.30982 0.876444 0
M  V30 2875 C 272.918 1.18006 2.00443 0
M  V30 2876 C 273.912 0.0898871 1.69161 0
M  V30 2877 O 275.118 0.251333 1.78237 0
M  V30 2878 H 271.493 0.365196 0.65737 0
M  V30 2879 H 273.464 2.13453 2.0852 0
M  V30 2880 C 272.213 0.897521 3.35916 0
M  V30 2881 H 271.536 1.7285 3.60504 0
M  V30 2882 H 272.976 0.846874 4.15456 0
M  V30 2883 C 271.435 -0.399674 3.34521 0
M  V30 2884 O 271.965 -1.41852 3.7582 0
M  V30 2885 N 270.171 -0.413893 2.87637 0
M  V30 2886 H 269.718 0.41571 2.54224 0
M  V30 2887 H 269.676 -1.28175 2.87086 0
M  V30 2888 N 273.449 -1.08991 1.13837 0
M  V30 2889 C 274.379 -2.17771 0.842507 0
M  V30 2890 C 275.36 -1.6892 -0.20001 0
M  V30 2891 O 276.545 -1.94113 -0.0579731 0
M  V30 2892 C 273.675 -3.4589 0.312644 0
M  V30 2893 C 272.629 -4.08099 1.28992 0
M  V30 2894 C 271.955 -5.31098 0.619623 0
M  V30 2895 C 273.255 -4.50077 2.65005 0
M  V30 2896 H 274.949 -2.42777 1.75213 0
M  V30 2897 H 272.495 -1.16682 0.843875 0
M  V30 2898 H 274.448 -4.21297 0.0933043 0
M  V30 2899 H 273.172 -3.20419 -0.632382 0
M  V30 2900 H 271.831 -3.34717 1.49533 0
M  V30 2901 H 271.479 -5.0191 -0.33102 0
M  V30 2902 H 271.179 -5.73674 1.27167 0
M  V30 2903 H 272.703 -6.09224 0.409669 0
M  V30 2904 H 274.117 -5.16688 2.48407 0
M  V30 2905 H 272.514 -5.03553 3.26427 0
M  V30 2906 H 273.584 -3.62257 3.22332 0
M  V30 2907 N 274.927 -0.932562 -1.27047 0
M  V30 2908 C 275.857 -0.452902 -2.29066 0
M  V30 2909 C 276.838 0.489338 -1.62909 0
M  V30 2910 O 278.023 0.393046 -1.90181 0
M  V30 2911 C 275.153 0.290698 -3.46081 0
M  V30 2912 C 274.107 -0.564168 -4.24265 0
M  V30 2913 C 273.433 0.308886 -5.33807 0
M  V30 2914 C 274.733 -1.83112 -4.89149 0
M  V30 2915 H 276.427 -1.30552 -2.69437 0
M  V30 2916 H 273.973 -0.629201 -1.29526 0
M  V30 2917 H 275.926 0.637233 -4.16554 0
M  V30 2918 H 274.65 1.17738 -3.0464 0
M  V30 2919 H 273.309 -0.893477 -3.55545 0
M  V30 2920 H 272.957 1.19467 -4.88607 0
M  V30 2921 H 272.657 -0.259633 -5.87026 0
M  V30 2922 H 274.181 0.650884 -6.07121 0
M  V30 2923 H 275.595 -1.55236 -5.51883 0
M  V30 2924 H 273.992 -2.34353 -5.52448 0
M  V30 2925 H 275.062 -2.54772 -4.12576 0
M  V30 2926 N 276.405 1.4127 -0.698611 0
M  V30 2927 C 277.352 2.30773 -0.0352094 0
M  V30 2928 C 278.322 1.47273 0.768111 0
M  V30 2929 O 279.507 1.76053 0.735524 0
M  V30 2930 C 276.647 3.33346 0.893 0
M  V30 2931 C 275.76 4.31924 0.0809695 0
M  V30 2932 C 274.895 5.21566 1.0071 0
M  V30 2933 C 273.934 6.11811 0.188155 0
M  V30 2934 N 273.071 6.93926 1.06825 0
M  V30 2935 H 277.911 2.86943 -0.804207 0
M  V30 2936 H 275.448 1.4132 -0.408294 0
M  V30 2937 H 277.406 3.91368 1.44523 0
M  V30 2938 H 276.036 2.78719 1.62836 0
M  V30 2939 H 275.088 3.75825 -0.588224 0
M  V30 2940 H 276.4 4.95716 -0.553801 0
M  V30 2941 H 275.554 5.84437 1.62845 0
M  V30 2942 H 274.293 4.58008 1.67572 0
M  V30 2943 H 273.298 5.47986 -0.446254 0
M  V30 2944 H 274.523 6.77425 -0.476716 0
M  V30 2945 H 272.469 6.32973 1.72283 0
M  V30 2946 H 272.386 7.54416 0.489123 0
M  V30 2947 H 273.654 7.61262 1.67632 0
M  V30 2948 N 277.883 0.443576 1.51229 0
M  V30 2949 C 278.83 -0.364716 2.279 0
M  V30 2950 C 279.8 -1.0114 1.31757 0
M  V30 2951 O 280.985 -1.02912 1.60667 0
M  V30 2952 C 278.125 -1.45644 3.12861 0
M  V30 2953 C 277.238 -0.827269 4.24005 0
M  V30 2954 C 276.373 -1.89456 4.96266 0
M  V30 2955 C 275.412 -1.24416 5.99322 0
M  V30 2956 N 274.549 -2.25309 6.64966 0
M  V30 2957 H 279.389 0.295464 2.96532 0
M  V30 2958 H 276.926 0.157554 1.46254 0
M  V30 2959 H 278.884 -2.10076 3.6045 0
M  V30 2960 H 277.514 -2.08616 2.46331 0
M  V30 2961 H 276.566 -0.0710839 3.80334 0
M  V30 2962 H 277.878 -0.312481 4.9782 0
M  V30 2963 H 277.032 -2.61535 5.47434 0
M  V30 2964 H 275.771 -2.4431 4.22095 0
M  V30 2965 H 274.776 -0.508868 5.4744 0
M  V30 2966 H 276.001 -0.702882 6.75453 0
M  V30 2967 H 273.947 -2.79231 5.93604 0
M  V30 2968 H 273.864 -1.78739 7.34567 0
M  V30 2969 H 275.132 -2.96853 7.20763 0
M  V30 2970 N 279.361 -1.56624 0.175154 0
M  V30 2971 C 280.291 -2.21155 -0.749195 0
M  V30 2972 C 281.272 -1.16836 -1.23626 0
M  V30 2973 O 282.457 -1.45277 -1.28873 0
M  V30 2974 C 279.587 -2.8553 -1.97711 0
M  V30 2975 C 278.541 -3.95921 -1.62575 0
M  V30 2976 C 277.867 -4.47365 -2.92864 0
M  V30 2977 C 279.167 -5.15323 -0.850838 0
M  V30 2978 H 280.861 -2.98653 -0.211295 0
M  V30 2979 H 278.407 -1.43651 -0.100188 0
M  V30 2980 H 280.36 -3.2935 -2.62881 0
M  V30 2981 H 279.084 -2.05406 -2.53921 0
M  V30 2982 H 277.743 -3.52762 -0.997719 0
M  V30 2983 H 277.391 -3.64027 -3.47122 0
M  V30 2984 H 277.091 -5.21839 -2.70106 0
M  V30 2985 H 278.615 -4.93873 -3.59056 0
M  V30 2986 H 280.029 -5.55812 -1.40521 0
M  V30 2987 H 278.426 -5.95739 -0.722154 0
M  V30 2988 H 279.496 -4.84661 0.152082 0
M  V30 2989 N 280.839 0.0985539 -1.57292 0
M  V30 2990 C 282.088 0.801358 -1.85098 0
M  V30 2991 C 282.401 1.80066 -0.763902 0
M  V30 2992 O 283.607 2.55112 -0.928981 0
M  V30 2993 C 282.063 1.47599 -3.28242 0
M  V30 2994 C 281.671 0.516624 -4.45011 0
M  V30 2995 C 283.415 2.16272 -3.65276 0
M  V30 2996 C 281.322 1.19564 -5.79188 0
M  V30 2997 H 280.252 0.303022 -0.69043 0
M  V30 2998 H 282.903 0.0542623 -1.8342 0
M  V30 2999 H 281.285 2.27042 -3.2445 0
M  V30 3000 H 282.459 -0.246065 -4.60143 0
M  V30 3001 H 280.774 -0.064227 -4.1635 0
M  V30 3002 H 283.371 2.67802 -4.62803 0
M  V30 3003 H 283.714 2.95009 -2.93727 0
M  V30 3004 H 284.247 1.43693 -3.70941 0
M  V30 3005 H 280.986 0.449157 -6.53959 0
M  V30 3006 H 280.506 1.92984 -5.67906 0
M  V30 3007 H 282.185 1.7231 -6.23633 0
M  V30 3008 N 282.317 1.53212 0.369288 0
M  V30 3009 C 283.565 1.68881 1.11012 0
M  V30 3010 C 283.886 0.441285 1.89941 0
M  V30 3011 O 283.156 -0.544623 1.88177 0
M  V30 3012 H 281.736 0.622569 0.412816 0
M  V30 3013 H 284.398 1.90391 0.416802 0
M  V30 3014 H 283.494 2.54822 1.80201 0
M  V30 3015 N 283.795 -0.628877 1.44509 0
M  V30 3016 C 285.043 -1.38565 1.4712 0
M  V30 3017 C 285.364 -1.94712 0.105899 0
M  V30 3018 O 284.634 -1.75912 -0.862079 0
M  V30 3019 H 283.214 -0.514333 0.541729 0
M  V30 3020 H 285.876 -0.740018 1.80305 0
M  V30 3021 H 284.972 -2.21583 2.19789 0
M  V30 3022 N 285.273 -1.31445 -0.869486 0
M  V30 3023 C 286.55 -1.11795 -1.60503 0
M  V30 3024 C 286.93 0.327168 -2.08549 0
M  V30 3025 O 286.278 1.32135 -1.8642 0
M  V30 3026 C 286.488 -2.13258 -2.76265 0
M  V30 3027 C 287.836 -2.45805 -3.46215 0
M  V30 3028 O 288.86 -2.11688 -2.86473 0
M  V30 3029 O 287.719 -3.04228 -4.5399 0
M  V30 3030 H 284.813 -0.430421 -0.706163 0
M  V30 3031 H 287.359 -1.42925 -0.914907 0
M  V30 3032 H 286.131 -3.10461 -2.3818 0
M  V30 3033 H 285.754 -1.83035 -3.52964 0
M  V30 3034 N 286.751 1.08385 -1.14413 0
M  V30 3035 C 287.997 1.81044 -0.913834 0
M  V30 3036 C 288.33 1.86004 0.558209 0
M  V30 3037 O 287.605 1.33606 1.4135 0
M  V30 3038 C 287.888 3.26648 -1.51569 0
M  V30 3039 C 287.741 3.29895 -3.0576 0
M  V30 3040 C 289.06 4.23629 -1.19273 0
M  V30 3041 H 286.179 0.65727 -0.333414 0
M  V30 3042 H 288.821 1.26896 -1.41412 0
M  V30 3043 H 286.971 3.72889 -1.09023 0
M  V30 3044 H 288.643 2.91977 -3.57137 0
M  V30 3045 H 286.886 2.69163 -3.40197 0
M  V30 3046 H 287.557 4.32516 -3.42977 0
M  V30 3047 H 290.033 3.85727 -1.56057 0
M  V30 3048 H 288.909 5.23822 -1.64017 0
M  V30 3049 H 289.17 4.41968 -0.108068 0
M  V30 3050 N 288.23 0.939286 1.26551 0
M  V30 3051 C 289.458 0.602536 1.97932 0
M  V30 3052 C 289.873 -0.82206 1.69964 0
M  V30 3053 O 289.23 -1.54789 0.966784 0
M  V30 3054 C 289.281 0.832946 3.51773 0
M  V30 3055 O 289.002 2.20151 3.78768 0
M  V30 3056 C 290.503 0.506483 4.40397 0
M  V30 3057 H 287.723 0.227248 0.631347 0
M  V30 3058 H 290.267 1.25948 1.61113 0
M  V30 3059 H 288.422 0.222644 3.8676 0
M  V30 3060 H 288.836 2.26013 4.73306 0
M  V30 3061 H 290.31 0.718333 5.47306 0
M  V30 3062 H 290.787 -0.558451 4.35635 0
M  V30 3063 H 291.393 1.09543 4.10951 0
M  V30 3064 N 289.708 -1.40897 0.706093 0
M  V30 3065 C 291.119 -1.84023 0.315052 0
M  V30 3066 C 291.47 -1.5906 -1.14866 0
M  V30 3067 O 290.595 -1.06651 -1.88293 0
M  V30 3068 C 291.19 -3.34055 0.565038 0
M  V30 3069 C 289.749 -3.7571 0.227806 0
M  V30 3070 C 288.896 -2.64204 0.842122 0
M  V30 3071 H 291.847 -1.303 0.905963 0
M  V30 3072 H 291.868 -3.80107 -0.172843 0
M  V30 3073 H 291.38 -3.52192 1.63042 0
M  V30 3074 H 289.481 -3.63172 -0.832895 0
M  V30 3075 H 289.594 -4.74103 0.690174 0
M  V30 3076 H 287.958 -2.53255 0.270893 0
M  V30 3077 H 288.741 -2.85155 1.91158 0
M  V30 3078 N 291.186 -0.45159 -1.50991 0
M  V30 3079 C 292.432 0.110237 -2.025 0
M  V30 3080 C 292.765 1.41109 -1.33424 0
M  V30 3081 O 292.04 1.89135 -0.453659 0
M  V30 3082 C 292.323 0.314271 -3.58726 0
M  V30 3083 C 292.176 -1.00623 -4.38401 0
M  V30 3084 C 293.495 1.07767 -4.26702 0
M  V30 3085 H 290.614 0.0385897 -0.735989 0
M  V30 3086 H 293.256 -0.593374 -1.80497 0
M  V30 3087 H 291.406 0.913601 -3.77605 0
M  V30 3088 H 293.078 -1.64064 -4.31139 0
M  V30 3089 H 291.321 -1.6075 -4.02917 0
M  V30 3090 H 291.992 -0.817341 -5.45915 0
M  V30 3091 H 294.468 0.56986 -4.12179 0
M  V30 3092 H 293.344 1.18921 -5.35863 0
M  V30 3093 H 293.605 2.10939 -3.88532 0
M  V30 3094 N 292.664 1.56529 -0.183458 0
M  V30 3095 C 293.941 1.88959 0.50536 0
M  V30 3096 C 294.321 1.09523 1.80466 0
M  V30 3097 O 293.669 0.19278 2.27685 0
M  V30 3098 C 293.879 3.41162 0.73547 0
M  V30 3099 C 295.227 4.11155 1.06005 0
M  V30 3100 O 296.251 3.46548 0.823594 0
M  V30 3101 O 295.11 5.25318 1.50675 0
M  V30 3102 H 292.204 0.78441 0.261973 0
M  V30 3103 H 294.75 1.68231 -0.222802 0
M  V30 3104 H 293.522 3.90874 -0.182561 0
M  V30 3105 H 293.145 3.67543 1.51651 0
M  V30 3106 N 294.142 -0.090211 1.57342 0
M  V30 3107 C 295.074 -1.13541 1.99101 0
M  V30 3108 C 296.087 -1.3604 0.894258 0
M  V30 3109 O 297.276 -1.34606 1.17233 0
M  V30 3110 C 294.376 -2.49001 2.29895 0
M  V30 3111 C 293.549 -2.46712 3.61182 0
M  V30 3112 C 292.608 -3.64136 3.79857 0
M  V30 3113 O 291.634 -3.46405 4.51655 0
M  V30 3114 N 292.836 -4.83802 3.20806 0
M  V30 3115 H 295.601 -0.779942 2.89373 0
M  V30 3116 H 293.162 -0.279125 1.59476 0
M  V30 3117 H 295.154 -3.26166 2.39578 0
M  V30 3118 H 293.724 -2.76619 1.45605 0
M  V30 3119 H 292.944 -1.55058 3.62423 0
M  V30 3120 H 294.232 -2.42265 4.4742 0
M  V30 3121 H 293.63 -5.01112 2.62494 0
M  V30 3122 H 292.187 -5.58543 3.35966 0
M  V30 3123 N 295.62 -1.53406 -0.361157 0
M  V30 3124 C 296.85 -1.73465 -1.1222 0
M  V30 3125 C 297.258 -0.465486 -1.83384 0
M  V30 3126 O 296.601 0.571611 -1.7458 0
M  V30 3127 C 296.663 -2.84834 -2.19339 0
M  V30 3128 C 296.327 -4.25038 -1.67903 0
M  V30 3129 C 297.324 -5.07231 -1.14074 0
M  V30 3130 C 295.009 -4.71464 -1.73282 0
M  V30 3131 C 297.003 -6.33942 -0.663068 0
M  V30 3132 C 294.69 -5.98153 -1.25127 0
M  V30 3133 C 295.688 -6.79223 -0.717296 0
M  V30 3134 O 295.376 -8.03533 -0.242865 0
M  V30 3135 H 295.108 -0.583526 -0.341283 0
M  V30 3136 H 297.662 -2.00964 -0.424591 0
M  V30 3137 H 295.892 -2.5282 -2.92607 0
M  V30 3138 H 297.581 -2.9303 -2.80871 0
M  V30 3139 H 298.347 -4.72534 -1.09254 0
M  V30 3140 H 294.226 -4.08432 -2.13786 0
M  V30 3141 H 297.77 -6.97167 -0.245612 0
M  V30 3142 H 293.667 -6.32347 -1.29642 0
M  V30 3143 H 294.435 -8.177 -0.361786 0
M  V30 3144 N 297.098 0.621204 -1.44841 0
M  V30 3145 C 298.031 1.7459 -1.46947 0
M  V30 3146 C 299.009 1.59273 -0.327238 0
M  V30 3147 O 300.193 1.81021 -0.525706 0
M  V30 3148 C 297.32 3.12274 -1.31159 0
M  V30 3149 C 296.366 3.46216 -2.49072 0
M  V30 3150 S 297.199 3.4258 -4.11581 0
M  V30 3151 C 298.355 4.82867 -3.98233 0
M  V30 3152 H 298.588 1.72538 -2.42111 0
M  V30 3153 H 296.121 0.796683 -1.32259 0
M  V30 3154 H 298.079 3.91722 -1.22737 0
M  V30 3155 H 296.74 3.11855 -0.374885 0
M  V30 3156 H 295.933 4.4643 -2.33915 0
M  V30 3157 H 295.535 2.74253 -2.54286 0
M  V30 3158 H 297.827 5.7234 -3.62537 0
M  V30 3159 H 298.77 5.0308 -4.98313 0
M  V30 3160 H 299.178 4.57908 -3.30121 0
M  V30 3161 N 298.576 1.31904 0.862503 0
M  V30 3162 C 299.816 1.23324 1.63004 0
M  V30 3163 C 300.18 -0.203724 1.90916 0
M  V30 3164 O 301.381 -0.413132 2.65606 0
M  V30 3165 C 299.652 2.06116 2.91978 0
M  V30 3166 S 301.211 2.14478 3.82812 0
M  V30 3167 H 298.029 0.439117 0.559193 0
M  V30 3168 H 300.631 1.66658 1.02202 0
M  V30 3169 H 299.335 3.09593 2.69407 0
M  V30 3170 H 298.866 1.6353 3.57801 0
M  V30 3171 H 300.881 1.28855 4.79177 0
M  V30 3172 N 300.054 -1.07777 1.14986 0
M  V30 3173 C 301.302 -1.79934 0.920235 0
M  V30 3174 C 301.623 -1.86955 -0.554336 0
M  V30 3175 O 300.893 -1.36731 -1.40291 0
M  V30 3176 H 299.473 -0.666424 0.337473 0
M  V30 3177 H 302.135 -1.3027 1.44968 0
M  V30 3178 H 301.231 -2.82539 1.32583 0
M  V30 3179 N 301.532 -0.945985 -1.26051 0
M  V30 3180 C 302.778 -0.597002 -1.93814 0
M  V30 3181 C 303.111 0.862484 -1.73997 0
M  V30 3182 O 302.386 1.61769 -1.07986 0
M  V30 3183 C 302.669 -0.945937 -3.47454 0
M  V30 3184 C 302.522 -2.46052 -3.76535 0
M  V30 3185 C 303.841 -0.464785 -4.37639 0
M  V30 3186 H 300.96 -0.218366 -0.703907 0
M  V30 3187 H 303.602 -1.18107 -1.48831 0
M  V30 3188 H 301.752 -0.448902 -3.85898 0
M  V30 3189 H 303.424 -3.03065 -3.47778 0
M  V30 3190 H 301.667 -2.90194 -3.22444 0
M  V30 3191 H 302.338 -2.65517 -4.83947 0
M  V30 3192 H 304.814 -0.891016 -4.06448 0
M  V30 3193 H 303.69 -0.737712 -5.4392 0
M  V30 3194 H 303.951 0.635274 -4.37512 0
M  V30 3195 N 303.011 1.40521 -0.713556 0
M  V30 3196 C 304.288 1.94775 -0.17943 0
M  V30 3197 C 304.668 1.65184 1.31444 0
M  V30 3198 O 304.016 0.968429 2.06963 0
M  V30 3199 C 304.226 3.45543 -0.489986 0
M  V30 3200 C 305.574 4.22442 -0.427536 0
M  V30 3201 O 306.598 3.53644 -0.425929 0
M  V30 3202 O 305.457 5.4501 -0.403292 0
M  V30 3203 H 302.551 0.826606 -0.0255192 0
M  V30 3204 H 305.097 1.5014 -0.790949 0
M  V30 3205 H 303.869 3.60432 -1.5233 0
M  V30 3206 H 303.492 3.97311 0.151598 0
M  V30 3207 N 304.489 0.459591 1.5075 0
M  V30 3208 C 305.737 -0.0991532 2.01857 0
M  V30 3209 C 306.058 -1.41247 1.34441 0
M  V30 3210 O 305.328 -1.89775 0.486022 0
M  V30 3211 H 303.908 -0.039633 0.745948 0
M  V30 3212 H 306.57 0.607387 1.85194 0
M  V30 3213 H 305.666 -0.258998 3.11023 0
M  V30 3214 N 305.967 -1.56429 0.191757 0
M  V30 3215 C 306.914 -2.18936 -0.730454 0
M  V30 3216 C 307.884 -1.13557 -1.21219 0
M  V30 3217 O 309.069 -1.41794 -1.27668 0
M  V30 3218 C 306.209 -2.85013 -1.9458 0
M  V30 3219 C 305.322 -4.04909 -1.50574 0
M  V30 3220 C 304.457 -4.58853 -2.67634 0
M  V30 3221 C 303.496 -5.71114 -2.20217 0
M  V30 3222 N 302.633 -6.19478 -3.30442 0
M  V30 3223 H 307.473 -2.97389 -0.190664 0
M  V30 3224 H 305.01 -1.46869 -0.0823694 0
M  V30 3225 H 306.968 -3.21492 -2.65893 0
M  V30 3226 H 305.598 -2.09129 -2.45896 0
M  V30 3227 H 304.65 -3.74115 -0.688605 0
M  V30 3228 H 305.962 -4.86113 -1.11784 0
M  V30 3229 H 305.116 -4.97619 -3.47074 0
M  V30 3230 H 303.855 -3.76749 -3.09696 0
M  V30 3231 H 302.86 -5.31879 -1.3923 0
M  V30 3232 H 304.085 -6.55033 -1.79189 0
M  V30 3233 H 302.031 -5.40297 -3.72041 0
M  V30 3234 H 301.948 -6.95725 -2.9581 0
M  V30 3235 H 303.216 -6.62898 -4.10106 0
M  V30 3236 N 307.445 0.0818655 -1.57387 0
M  V30 3237 C 308.856 0.634871 -1.75574 0
M  V30 3238 C 309.207 1.78435 -0.815809 0
M  V30 3239 O 308.332 2.164 0.0025366 0
M  V30 3240 C 308.927 1.15845 -3.18379 0
M  V30 3241 C 307.486 1.65741 -3.37945 0
M  V30 3242 C 306.633 0.572549 -2.71325 0
M  V30 3243 H 309.584 -0.144268 -1.58043 0
M  V30 3244 H 309.605 2.02751 -3.21982 0
M  V30 3245 H 309.117 0.321631 -3.86765 0
M  V30 3246 H 307.218 2.51781 -2.74658 0
M  V30 3247 H 307.331 1.74129 -4.46336 0
M  V30 3248 H 305.695 1.01518 -2.33594 0
M  V30 3249 H 306.478 -0.253918 -3.4236 0
M  V30 3250 N 308.923 1.53595 0.353017 0
M  V30 3251 C 310.172 1.69603 1.09168 0
M  V30 3252 C 310.485 0.460925 1.90092 0
M  V30 3253 O 311.691 0.501774 2.66823 0
M  V30 3254 C 310.147 2.99872 1.9901 0
M  V30 3255 C 309.755 4.30687 1.23339 0
M  V30 3256 C 311.499 3.25246 2.72792 0
M  V30 3257 C 309.406 5.52036 2.12156 0
M  V30 3258 H 308.336 0.631966 0.411261 0
M  V30 3259 H 310.987 1.80096 0.351802 0
M  V30 3260 H 309.369 2.83212 2.7678 0
M  V30 3261 H 310.543 4.58019 0.505456 0
M  V30 3262 H 308.858 4.11853 0.613663 0
M  V30 3263 H 311.455 4.13095 3.39495 0
M  V30 3264 H 311.798 2.41846 3.38846 0
M  V30 3265 H 312.331 3.42638 2.021 0
M  V30 3266 H 309.07 6.37951 1.50659 0
M  V30 3267 H 308.59 5.28966 2.82764 0
M  V30 3268 H 310.269 5.87313 2.71427 0
M  V30 3269 N 310.401 -0.613514 1.45168 0
M  V30 3270 C 311.626 -1.40437 1.52618 0
M  V30 3271 C 312.051 -1.87438 0.157707 0
M  V30 3272 O 311.409 -1.59791 -0.856537 0
M  V30 3273 C 311.457 -2.58894 2.51011 0
M  V30 3274 O 310.561 -3.59326 2.02382 0
M  V30 3275 H 309.902 -0.419506 0.514695 0
M  V30 3276 H 312.432 -0.747215 1.90467 0
M  V30 3277 H 312.442 -3.06214 2.69624 0
M  V30 3278 H 311.117 -2.24032 3.50403 0
M  V30 3279 H 309.694 -3.18695 1.93618 0
M  V30 3280 N 311.879 -1.3236 -0.855495 0
M  V30 3281 C 312.842 -1.21164 -1.94556 0
M  V30 3282 C 313.842 -0.134908 -1.60233 0
M  V30 3283 O 315.032 -0.385249 -1.69887 0
M  V30 3284 C 312.164 -0.863192 -3.29791 0
M  V30 3285 H 313.357 -2.18038 -2.05911 0
M  V30 3286 H 310.91 -1.16179 -1.04557 0
M  V30 3287 H 311.645 0.103769 -3.24134 0
M  V30 3288 H 311.43 -1.64166 -3.56078 0
M  V30 3289 H 312.92 -0.809156 -4.09686 0
M  V30 3290 N 313.357 1.07166 -1.15556 0
M  V30 3291 C 314.587 1.83248 -0.954133 0
M  V30 3292 C 314.995 1.82449 0.500911 0
M  V30 3293 O 314.338 1.23575 1.35923 0
M  V30 3294 C 314.4 3.31393 -1.39351 0
M  V30 3295 C 314.064 3.5591 -2.86666 0
M  V30 3296 C 315.061 3.49695 -3.8472 0
M  V30 3297 C 312.746 3.83515 -3.24379 0
M  V30 3298 C 314.74 3.70737 -5.18491 0
M  V30 3299 C 312.427 4.04209 -4.58321 0
M  V30 3300 C 313.425 3.97815 -5.55186 0
M  V30 3301 O 313.113 4.17954 -6.86709 0
M  V30 3302 H 312.845 0.584941 -0.338851 0
M  V30 3303 H 315.399 1.36169 -1.53777 0
M  V30 3304 H 313.629 3.79292 -0.75329 0
M  V30 3305 H 315.318 3.88945 -1.16089 0
M  V30 3306 H 316.084 3.28368 -3.56931 0
M  V30 3307 H 311.963 3.87605 -2.49567 0
M  V30 3308 H 315.507 3.65663 -5.94085 0
M  V30 3309 H 311.404 4.25023 -4.85825 0
M  V30 3310 H 312.172 4.35291 -6.93155 0
M  V30 3311 N 314.835 0.952656 1.25548 0
M  V30 3312 C 315.798 0.475794 2.24207 0
M  V30 3313 C 316.798 -0.419428 1.55234 0
M  V30 3314 O 317.988 -0.216994 1.72843 0
M  V30 3315 C 315.12 -0.312814 3.39462 0
M  V30 3316 H 316.313 1.34779 2.67908 0
M  V30 3317 H 313.866 0.735739 1.37901 0
M  V30 3318 H 314.601 -1.20257 3.01179 0
M  V30 3319 H 314.386 0.329404 3.90714 0
M  V30 3320 H 315.876 -0.635986 4.12729 0
M  V30 3321 N 316.313 -1.40141 0.720998 0
M  V30 3322 C 317.56 -2.00787 0.262842 0
M  V30 3323 C 317.888 -1.5718 -1.14563 0
M  V30 3324 O 317.143 -0.785391 -1.79249 0
M  V30 3325 C 317.442 -3.56165 0.296892 0
M  V30 3326 C 317.108 -4.19373 1.65641 0
M  V30 3327 C 315.77 -4.36352 2.02855 0
M  V30 3328 C 318.122 -4.54578 2.54968 0
M  V30 3329 C 315.45 -4.8582 3.28931 0
M  V30 3330 C 317.802 -5.05447 3.80402 0
M  V30 3331 C 316.466 -5.20635 4.17726 0
M  V30 3332 H 315.736 -0.734731 0.0961807 0
M  V30 3333 H 318.383 -1.67673 0.925093 0
M  V30 3334 H 316.688 -3.8922 -0.448932 0
M  V30 3335 H 318.385 -4.00929 -0.0755208 0
M  V30 3336 H 314.975 -4.06549 1.35704 0
M  V30 3337 H 319.159 -4.41091 2.27491 0
M  V30 3338 H 314.415 -4.95764 3.57811 0
M  V30 3339 H 318.589 -5.31663 4.49786 0
M  V30 3340 H 316.216 -5.58728 5.15487 0
M  V30 3341 N 317.792 -0.46758 -1.50504 0
M  V30 3342 C 318.722 0.318381 -2.31319 0
M  V30 3343 C 319.703 0.993564 -1.38066 0
M  V30 3344 O 320.888 0.991411 -1.66987 0
M  V30 3345 C 318.018 1.40275 -3.17711 0
M  V30 3346 C 316.972 0.849373 -4.19487 0
M  V30 3347 C 316.298 2.03177 -4.94594 0
M  V30 3348 C 317.598 -0.136942 -5.2212 0
M  V30 3349 H 319.292 -0.356106 -2.97275 0
M  V30 3350 H 316.838 -0.172703 -1.42961 0
M  V30 3351 H 318.791 1.96004 -3.73042 0
M  V30 3352 H 317.515 2.10596 -2.49634 0
M  V30 3353 H 316.174 0.314076 -3.65252 0
M  V30 3354 H 315.822 2.72187 -4.22993 0
M  V30 3355 H 315.522 1.66774 -5.63436 0
M  V30 3356 H 317.046 2.59403 -5.52759 0
M  V30 3357 H 318.46 0.331056 -5.72343 0
M  V30 3358 H 316.857 -0.41507 -5.98663 0
M  V30 3359 H 317.927 -1.06398 -4.73083 0
M  V30 3360 N 319.27 1.56325 -0.20005 0
M  V30 3361 C 320.203 2.15234 0.758267 0
M  V30 3362 C 321.181 1.09046 1.20614 0
M  V30 3363 O 322.365 1.37186 1.29276 0
M  V30 3364 C 319.492 2.71524 2.02466 0
M  V30 3365 C 318.538 3.90345 1.71852 0
M  V30 3366 S 319.371 5.28513 0.862249 0
M  V30 3367 C 320.527 5.88227 2.13868 0
M  V30 3368 H 320.76 2.96183 0.2575 0
M  V30 3369 H 318.293 1.54393 0.0150099 0
M  V30 3370 H 320.251 3.04598 2.75191 0
M  V30 3371 H 318.912 1.90607 2.49655 0
M  V30 3372 H 318.105 4.28158 2.65888 0
M  V30 3373 H 317.707 3.58306 1.07205 0
M  V30 3374 H 319.999 6.02891 3.09076 0
M  V30 3375 H 320.942 6.84714 1.80479 0
M  V30 3376 H 321.35 5.16874 2.2694 0
M  V30 3377 N 320.748 -0.0735177 1.57428 0
M  V30 3378 C 321.711 -1.07192 2.02589 0
M  V30 3379 C 322.711 -1.31695 0.922661 0
M  V30 3380 O 323.901 -1.27445 1.18758 0
M  V30 3381 C 321.033 -2.41599 2.40506 0
M  V30 3382 H 322.226 -0.682727 2.92025 0
M  V30 3383 H 319.779 -0.319193 1.53006 0
M  V30 3384 H 320.514 -2.85354 1.5409 0
M  V30 3385 H 320.299 -2.25156 3.21009 0
M  V30 3386 H 321.789 -3.13367 2.76027 0
M  V30 3387 N 322.226 -1.5378 -0.344866 0
M  V30 3388 C 323.173 -1.81676 -1.42346 0
M  V30 3389 C 324.143 -0.662376 -1.52321 0
M  V30 3390 O 325.328 -0.906675 -1.67881 0
M  V30 3391 C 322.468 -2.03087 -2.79015 0
M  V30 3392 C 321.581 -3.30799 -2.77842 0
M  V30 3393 C 320.716 -3.42285 -4.0622 0
M  V30 3394 C 319.755 -4.6395 -3.9927 0
M  V30 3395 N 318.892 -4.72477 -5.19336 0
M  V30 3396 H 323.732 -2.73703 -1.17858 0
M  V30 3397 H 321.269 -1.35568 -0.570949 0
M  V30 3398 H 323.227 -2.1349 -3.58438 0
M  V30 3399 H 321.857 -1.14375 -3.01858 0
M  V30 3400 H 320.909 -3.29244 -1.90533 0
M  V30 3401 H 322.221 -4.20314 -2.68584 0
M  V30 3402 H 321.375 -3.52113 -4.94066 0
M  V30 3403 H 320.114 -2.50823 -4.18258 0
M  V30 3404 H 319.119 -4.54201 -3.09809 0
M  V30 3405 H 320.344 -5.56775 -3.88817 0
M  V30 3406 H 318.29 -3.83924 -5.3192 0
M  V30 3407 H 318.207 -5.55927 -5.12329 0
M  V30 3408 H 319.475 -4.86613 -6.08957 0
M  V30 3409 N 323.704 0.605807 -1.45491 0
M  V30 3410 C 324.981 1.36522 -1.40075 0
M  V30 3411 C 325.361 2.10976 -0.0722744 0
M  V30 3412 O 324.709 2.08007 0.945808 0
M  V30 3413 C 324.919 2.31056 -2.61561 0
M  V30 3414 C 326.267 2.93608 -3.06724 0
M  V30 3415 O 327.291 2.41376 -2.61946 0
M  V30 3416 O 326.15 3.88421 -3.84437 0
M  V30 3417 H 323.244 0.612248 -0.555951 0
M  V30 3418 H 325.79 0.628747 -1.57623 0
M  V30 3419 H 324.562 1.75311 -3.49831 0
M  V30 3420 H 324.185 3.12081 -2.46356 0
M  V30 3421 N 325.182 1.32811 0.848464 0
M  V30 3422 C 326.43 1.23479 1.59991 0
M  V30 3423 C 326.751 -0.201853 1.93952 0
M  V30 3424 O 326.021 -1.12818 1.60153 0
M  V30 3425 H 324.601 0.454034 0.593179 0
M  V30 3426 H 327.263 1.66412 1.01455 0
M  V30 3427 H 326.359 1.82178 2.53412 0
M  V30 3428 N 326.66 -1.06551 1.16123 0
M  V30 3429 C 327.909 -1.78687 0.935622 0
M  V30 3430 C 328.222 -1.88056 -0.538001 0
M  V30 3431 O 329.428 -2.56794 -0.88143 0
M  V30 3432 C 327.884 -3.21143 1.62466 0
M  V30 3433 C 327.492 -3.19949 3.13587 0
M  V30 3434 C 329.236 -3.9783 1.48092 0
M  V30 3435 C 327.143 -4.57108 3.75241 0
M  V30 3436 H 326.073 -0.669712 0.346412 0
M  V30 3437 H 328.724 -1.19534 1.39226 0
M  V30 3438 H 327.106 -3.80539 1.09572 0
M  V30 3439 H 328.28 -2.70151 3.73303 0
M  V30 3440 H 326.595 -2.5676 3.27816 0
M  V30 3441 H 329.192 -4.99217 1.91538 0
M  V30 3442 H 329.535 -4.14078 0.429507 0
M  V30 3443 H 330.068 -3.4495 1.98127 0
M  V30 3444 H 326.807 -4.46065 4.80319 0
M  V30 3445 H 326.327 -5.07111 3.20309 0
M  V30 3446 H 328.006 -5.26069 3.76644 0
M  V30 3447 N 328.138 -0.959301 -1.25041 0
M  V30 3448 C 329.366 -0.633949 -1.96948 0
M  V30 3449 C 329.781 0.794916 -1.7125 0
M  V30 3450 O 329.138 1.53231 -0.991287 0
M  V30 3451 C 329.189 -0.888805 -3.50403 0
M  V30 3452 O 328.91 -2.26149 -3.75218 0
M  V30 3453 C 330.411 -0.576482 -4.39536 0
M  V30 3454 H 327.631 -0.237263 -0.627652 0
M  V30 3455 H 330.175 -1.28495 -1.59089 0
M  V30 3456 H 328.33 -0.284145 -3.86357 0
M  V30 3457 H 328.744 -2.33514 -4.6965 0
M  V30 3458 H 330.218 -0.805314 -5.46094 0
M  V30 3459 H 330.695 0.489075 -4.36468 0
M  V30 3460 H 331.301 -1.16067 -4.09156 0
M  V30 3461 N 329.616 1.39756 -0.72842 0
M  V30 3462 C 330.563 2.30647 -0.0841519 0
M  V30 3463 C 331.533 1.48869 0.7367 0
M  V30 3464 O 332.718 1.77574 0.698015 0
M  V30 3465 C 329.858 3.35165 0.822091 0
M  V30 3466 C 328.971 4.31999 -0.0106663 0
M  V30 3467 C 328.106 5.23585 0.896241 0
M  V30 3468 C 327.145 6.12072 0.0583381 0
M  V30 3469 N 326.282 6.96035 0.920818 0
M  V30 3470 H 331.122 2.85173 -0.864891 0
M  V30 3471 H 328.659 1.40422 -0.438179 0
M  V30 3472 H 330.617 3.94345 1.36189 0
M  V30 3473 H 329.247 2.8211 1.56888 0
M  V30 3474 H 328.299 3.74492 -0.66781 0
M  V30 3475 H 329.611 4.9443 -0.658825 0
M  V30 3476 H 328.765 5.87759 1.50412 0
M  V30 3477 H 327.504 4.61459 1.57819 0
M  V30 3478 H 326.509 5.46916 -0.562389 0
M  V30 3479 H 327.734 6.76261 -0.6203 0
M  V30 3480 H 325.68 6.36485 1.58818 0
M  V30 3481 H 325.597 7.55284 0.32899 0
M  V30 3482 H 326.865 7.64646 1.51447 0
M  V30 3483 N 331.094 0.475555 1.50254 0
M  V30 3484 C 332.024 -0.30611 2.31485 0
M  V30 3485 C 333.005 -0.986228 1.38591 0
M  V30 3486 O 334.19 -0.982541 1.67511 0
M  V30 3487 C 331.32 -1.38588 3.1845 0
M  V30 3488 C 330.274 -0.827115 4.19932 0
M  V30 3489 C 329.6 -2.00551 4.95665 0
M  V30 3490 C 330.9 0.16463 5.2204 0
M  V30 3491 H 332.594 0.371866 2.97082 0
M  V30 3492 H 330.14 0.180282 1.42867 0
M  V30 3493 H 332.093 -1.94023 3.74076 0
M  V30 3494 H 330.817 -2.09269 2.50747 0
M  V30 3495 H 329.476 -0.294702 3.65414 0
M  V30 3496 H 329.124 -2.6994 4.2443 0
M  V30 3497 H 328.824 -1.63784 5.64313 0
M  V30 3498 H 330.348 -2.56468 5.54127 0
M  V30 3499 H 331.762 -0.300699 5.72511 0
M  V30 3500 H 330.159 0.446813 5.98434 0
M  V30 3501 H 331.229 1.08905 4.72512 0
M  V30 3502 N 332.573 -1.56217 0.208337 0
M  V30 3503 C 333.536 -2.18455 -0.693557 0
M  V30 3504 C 334.536 -1.14268 -1.13135 0
M  V30 3505 O 335.726 -1.39577 -1.0423 0
M  V30 3506 C 332.858 -2.79727 -1.94848 0
M  V30 3507 H 334.051 -2.99519 -0.15114 0
M  V30 3508 H 331.604 -1.56245 -0.041287 0
M  V30 3509 H 332.339 -2.02497 -2.53309 0
M  V30 3510 H 332.124 -3.56009 -1.64316 0
M  V30 3511 H 333.614 -3.27475 -2.59133 0
M  V30 3512 N 334.051 0.0651679 -1.57465 0
M  V30 3513 C 335.328 0.79644 -1.78651 0
M  V30 3514 C 335.708 1.95454 -0.797566 0
M  V30 3515 O 335.056 2.27882 0.167946 0
M  V30 3516 C 335.266 1.26322 -3.25337 0
M  V30 3517 C 336.614 1.6939 -3.89348 0
M  V30 3518 O 337.638 1.35872 -3.29268 0
M  V30 3519 O 336.497 2.31471 -4.95059 0
M  V30 3520 H 333.591 0.382157 -0.733407 0
M  V30 3521 H 336.137 0.0447311 -1.69641 0
M  V30 3522 H 334.909 0.434859 -3.88876 0
M  V30 3523 H 334.532 2.07604 -3.39096 0
M  V30 3524 N 335.529 1.53961 0.336706 0
M  V30 3525 C 336.775 1.7179 1.07777 0
M  V30 3526 C 337.108 0.483263 1.88091 0
M  V30 3527 O 336.383 -0.519747 1.87427 0
M  V30 3528 C 336.666 2.98558 2.01334 0
M  V30 3529 C 336.519 4.32245 1.24437 0
M  V30 3530 C 337.838 3.21023 3.01052 0
M  V30 3531 H 334.957 0.625089 0.390426 0
M  V30 3532 H 337.599 1.86641 0.35567 0
M  V30 3533 H 335.749 2.86028 2.62908 0
M  V30 3534 H 337.421 4.56637 0.654243 0
M  V30 3535 H 335.664 4.30344 0.546458 0
M  V30 3536 H 336.335 5.17137 1.93063 0
M  V30 3537 H 338.811 3.32929 2.49595 0
M  V30 3538 H 337.687 4.11104 3.6371 0
M  V30 3539 H 337.948 2.37637 3.72802 0
M  V30 3540 N 337.007 -0.598083 1.45811 0
M  V30 3541 C 337.917 -1.73632 1.57763 0
M  V30 3542 C 338.933 -1.67763 0.461676 0
M  V30 3543 O 340.109 -1.87949 0.723685 0
M  V30 3544 C 337.174 -3.10114 1.55018 0
M  V30 3545 C 336.235 -3.27364 2.77726 0
M  V30 3546 C 335.468 -4.57334 2.75102 0
M  V30 3547 O 335.691 -5.40258 1.8297 0
M  V30 3548 O 334.625 -4.77502 3.66437 0
M  V30 3549 H 338.451 -1.66498 2.53992 0
M  V30 3550 H 336.036 -0.763308 1.28429 0
M  V30 3551 H 337.918 -3.9141 1.56129 0
M  V30 3552 H 336.593 -3.17718 0.619431 0
M  V30 3553 H 335.5 -2.45619 2.82174 0
M  V30 3554 H 336.833 -3.24641 3.69958 0
M  V30 3555 N 338.485 -1.33259 -0.841409 0
M  V30 3556 C 339.448 -1.23221 -1.9326 0
M  V30 3557 C 340.448 -0.151895 -1.60081 0
M  V30 3558 O 341.638 -0.403246 -1.69468 0
M  V30 3559 C 338.77 -0.898123 -3.28856 0
M  V30 3560 H 339.963 -2.2021 -2.03587 0
M  V30 3561 H 337.516 -1.17281 -1.03319 0
M  V30 3562 H 338.251 0.0693841 -3.24226 0
M  V30 3563 H 338.036 -1.67934 -3.54317 0
M  V30 3564 H 339.526 -0.852563 -4.08805 0
M  V30 3565 N 339.963 1.05934 -1.16686 0
M  V30 3566 C 341.24 1.75643 -0.860747 0
M  V30 3567 C 341.62 2.01144 0.640641 0
M  V30 3568 O 340.968 1.64147 1.58959 0
M  V30 3569 C 341.178 3.05493 -1.68745 0
M  V30 3570 C 342.526 3.79581 -1.90271 0
M  V30 3571 O 343.55 3.15344 -1.65641 0
M  V30 3572 O 342.409 4.9499 -2.31618 0
M  V30 3573 H 339.503 0.763426 -0.317977 0
M  V30 3574 H 342.049 1.1217 -1.27342 0
M  V30 3575 H 340.821 2.8264 -2.70611 0
M  V30 3576 H 340.444 3.76702 -1.27206 0
M  V30 3577 N 341.441 0.965919 1.2453 0
M  V30 3578 C 342.687 0.62776 1.92839 0
M  V30 3579 C 343.02 -0.834694 1.75347 0
M  V30 3580 O 342.295 -1.60031 1.10546 0
M  V30 3581 C 342.578 1.00109 3.45905 0
M  V30 3582 C 342.431 2.52011 3.72573 0
M  V30 3583 C 343.75 0.53435 4.36844 0
M  V30 3584 H 340.869 0.229537 0.700344 0
M  V30 3585 H 343.511 1.2046 1.46933 0
M  V30 3586 H 341.661 0.510238 3.85135 0
M  V30 3587 H 343.333 3.08559 3.42912 0
M  V30 3588 H 341.576 2.95287 3.17786 0
M  V30 3589 H 342.247 2.73183 4.79661 0
M  V30 3590 H 344.723 0.955565 4.04979 0
M  V30 3591 H 343.599 0.824152 5.42678 0
M  V30 3592 H 343.86 -0.565589 4.38467 0
M  V30 3593 N 342.919 -1.39368 0.735821 0
M  V30 3594 C 343.882 -2.2896 0.104874 0
M  V30 3595 C 344.882 -1.46347 -0.666274 0
M  V30 3596 O 346.072 -1.67014 -0.49517 0
M  V30 3597 C 343.204 -3.29857 -0.860656 0
M  V30 3598 H 344.397 -2.86259 0.894205 0
M  V30 3599 H 341.95 -1.48029 0.501704 0
M  V30 3600 H 342.685 -2.77615 -1.67631 0
M  V30 3601 H 342.47 -3.9087 -0.310327 0
M  V30 3602 H 343.96 -3.96893 -1.29867 0
M  V30 3603 N 344.397 -0.483516 -1.5 0
M  V30 3604 C 345.36 0.292965 -2.2732 0
M  V30 3605 C 346.36 0.909499 -1.32608 0
M  V30 3606 O 347.55 0.776745 -1.55924 0
M  V30 3607 C 344.682 1.41854 -3.09984 0
M  V30 3608 H 345.875 -0.385289 -2.97415 0
M  V30 3609 H 343.428 -0.237942 -1.54478 0
M  V30 3610 H 344.163 2.13148 -2.44414 0
M  V30 3611 H 343.948 0.982114 -3.79601 0
M  V30 3612 H 345.438 1.96597 -3.68429 0
M  V30 3613 N 345.875 1.56104 -0.216619 0
M  V30 3614 C 347.291 1.58995 0.13886 0
M  V30 3615 C 347.491 1.23333 1.59346 0
M  V30 3616 O 346.547 0.966234 2.33281 0
M  V30 3617 C 347.86 3.00143 -0.182968 0
M  V30 3618 C 349.408 3.12751 -0.124807 0
M  V30 3619 C 349.883 4.56068 -0.420241 0
M  V30 3620 N 351.374 4.61723 -0.369634 0
M  V30 3621 C 352.109 5.70542 -0.571789 0
M  V30 3622 N 351.605 6.87744 -0.835453 0
M  V30 3623 N 353.398 5.59831 -0.504563 0
M  V30 3624 H 345.549 1.77562 -1.16557 0
M  V30 3625 H 347.812 0.825091 -0.466828 0
M  V30 3626 H 347.518 3.30871 -1.19237 0
M  V30 3627 H 347.392 3.73813 0.504367 0
M  V30 3628 H 349.779 2.81822 0.875223 0
M  V30 3629 H 349.86 2.41421 -0.845544 0
M  V30 3630 H 349.504 4.87713 -1.41769 0
M  V30 3631 H 349.434 5.25617 0.321631 0
M  V30 3632 H 351.925 3.77502 -0.173338 0
M  V30 3633 H 352.238 7.66587 -0.977938 0
M  V30 3634 H 350.583 6.895 -0.872592 0
M  V30 3635 H 353.774 4.67145 -0.298842 0
M  V30 3636 H 353.947 6.44573 -0.665519 0
M  V30 3637 N 347.353 -0.0568162 1.57498 0
M  V30 3638 C 348.316 -1.05038 2.03715 0
M  V30 3639 C 349.316 -1.30709 0.936577 0
M  V30 3640 O 350.506 -1.26178 1.20103 0
M  V30 3641 C 347.638 -2.39034 2.43055 0
M  V30 3642 H 348.831 -0.651715 2.92733 0
M  V30 3643 H 346.384 -0.302947 1.53336 0
M  V30 3644 H 347.119 -2.83703 1.57108 0
M  V30 3645 H 346.904 -2.21739 3.2338 0
M  V30 3646 H 348.394 -3.10421 2.79336 0
M  V30 3647 N 348.832 -1.54138 -0.328536 0
M  V30 3648 C 350.109 -1.62749 -1.08499 0
M  V30 3649 C 350.489 -0.458198 -2.06067 0
M  V30 3650 O 349.837 0.548046 -2.2183 0
M  V30 3651 C 350.047 -2.99519 -1.79135 0
M  V30 3652 C 351.395 -3.55394 -2.32337 0
M  V30 3653 O 352.419 -3.01792 -1.89209 0
M  V30 3654 O 351.278 -4.49186 -3.11279 0
M  V30 3655 H 348.372 -0.65886 -0.499832 0
M  V30 3656 H 350.918 -1.66484 -0.328826 0
M  V30 3657 H 349.69 -3.76061 -1.08139 0
M  V30 3658 H 349.313 -2.99441 -2.61574 0
M  V30 3659 N 350.31 0.590341 -1.46126 0
M  V30 3660 C 351.587 1.35029 -1.41515 0
M  V30 3661 C 351.967 2.10888 -0.0946472 0
M  V30 3662 O 351.315 2.08998 0.923693 0
M  V30 3663 C 351.525 2.28269 -2.63997 0
M  V30 3664 C 352.873 2.90338 -3.09821 0
M  V30 3665 O 353.897 2.38585 -2.64492 0
M  V30 3666 O 352.756 3.84321 -3.88535 0
M  V30 3667 H 349.85 0.606317 -0.562413 0
M  V30 3668 H 352.396 0.611994 -1.58281 0
M  V30 3669 H 351.168 1.71591 -3.51671 0
M  V30 3670 H 350.791 3.0945 -2.49652 0
M  V30 3671 N 351.788 1.33704 0.83433 0
M  V30 3672 C 352.698 1.26382 1.97648 0
M  V30 3673 C 353.714 0.173548 1.73132 0
M  V30 3674 O 354.89 0.397962 1.97429 0
M  V30 3675 C 351.955 1.00769 3.31733 0
M  V30 3676 C 351.016 2.1884 3.69334 0
M  V30 3677 C 350.249 1.9444 4.9702 0
M  V30 3678 O 350.472 0.896961 5.63303 0
M  V30 3679 O 349.406 2.81093 5.32231 0
M  V30 3680 H 353.232 2.22444 2.06767 0
M  V30 3681 H 350.817 1.13795 0.968037 0
M  V30 3682 H 352.699 0.882186 4.12062 0
M  V30 3683 H 351.374 0.0773783 3.23608 0
M  V30 3684 H 350.281 2.36946 2.89495 0
M  V30 3685 H 351.614 3.10221 3.82131 0
M  V30 3686 N 353.266 -1.05314 1.17247 0
M  V30 3687 C 354.514 -1.77941 0.958194 0
M  V30 3688 C 354.835 -1.88089 -0.514556 0
M  V30 3689 O 354.105 -1.39676 -1.37359 0
M  V30 3690 H 352.685 -0.659116 0.351533 0
M  V30 3691 H 355.347 -1.27166 1.47699 0
M  V30 3692 H 354.443 -2.79663 1.38546 0
M  V30 3693 N 354.744 -0.972509 -1.24016 0
M  V30 3694 C 355.991 -0.637034 -1.92219 0
M  V30 3695 C 356.319 0.828418 -1.75976 0
M  V30 3696 O 355.574 1.61206 -1.10955 0
M  V30 3697 C 355.873 -0.963694 -3.44162 0
M  V30 3698 C 355.539 -2.41807 -3.80579 0
M  V30 3699 C 354.201 -2.81556 -3.9023 0
M  V30 3700 C 356.553 -3.36172 -3.98293 0
M  V30 3701 C 353.881 -4.14702 -4.15017 0
M  V30 3702 C 356.233 -4.68952 -4.24578 0
M  V30 3703 C 354.897 -5.08472 -4.32449 0
M  V30 3704 H 354.167 -0.233107 -0.703379 0
M  V30 3705 H 356.814 -1.2249 -1.47202 0
M  V30 3706 H 355.119 -0.29365 -3.90698 0
M  V30 3707 H 356.816 -0.682449 -3.9515 0
M  V30 3708 H 353.406 -2.09988 -3.73635 0
M  V30 3709 H 357.59 -3.06644 -3.90234 0
M  V30 3710 H 352.846 -4.4494 -4.19331 0
M  V30 3711 H 357.02 -5.42037 -4.37229 0
M  V30 3712 H 354.647 -6.11665 -4.51409 0
M  V30 3713 N 356.222 1.38976 -0.743202 0
M  V30 3714 C 357.471 1.99581 -0.291592 0
M  V30 3715 C 357.784 1.59656 1.13001 0
M  V30 3716 O 358.99 2.13157 1.68156 0
M  V30 3717 C 357.446 3.56813 -0.470391 0
M  V30 3718 C 357.054 4.05695 -1.90041 0
M  V30 3719 C 358.798 4.24423 -0.0809709 0
M  V30 3720 C 356.705 5.5553 -2.02832 0
M  V30 3721 H 355.635 0.746615 -0.105272 0
M  V30 3722 H 358.286 1.58872 -0.918258 0
M  V30 3723 H 356.668 3.95359 0.225299 0
M  V30 3724 H 357.842 3.78464 -2.62872 0
M  V30 3725 H 356.157 3.50775 -2.24379 0
M  V30 3726 H 358.754 5.34474 -0.155445 0
M  V30 3727 H 359.097 4.04962 0.96497 0
M  V30 3728 H 359.63 3.9108 -0.728124 0
M  V30 3729 H 356.369 5.79881 -3.05643 0
M  V30 3730 H 355.889 5.84537 -1.34448 0
M  V30 3731 H 357.568 6.21069 -1.81335 0
M  V30 3732 N 357.7 0.491464 1.49741 0
M  V30 3733 C 358.928 -0.0535151 2.06831 0
M  V30 3734 C 359.343 -1.31683 1.35296 0
M  V30 3735 O 358.7 -1.77402 0.42836 0
M  V30 3736 C 358.751 -0.320835 3.60073 0
M  V30 3737 O 358.472 0.892394 4.28915 0
M  V30 3738 C 359.973 -0.910519 4.33848 0
M  V30 3739 H 357.193 0.0161909 0.670805 0
M  V30 3740 H 359.737 0.68609 1.92647 0
M  V30 3741 H 357.892 -1.0104 3.73991 0
M  V30 3742 H 358.306 0.649401 5.20464 0
M  V30 3743 H 359.78 -1.04721 5.41976 0
M  V30 3744 H 360.257 -1.90589 3.95692 0
M  V30 3745 H 360.863 -0.258712 4.24512 0
M  V30 3746 N 359.178 -1.55987 0.224894 0
M  V30 3747 C 360.108 -2.23426 -0.678457 0
M  V30 3748 C 361.089 -1.20709 -1.19847 0
M  V30 3749 O 362.274 -1.49304 -1.24186 0
M  V30 3750 C 359.404 -2.91676 -1.88527 0
M  V30 3751 C 358.358 -4.00893 -1.49896 0
M  V30 3752 C 357.684 -4.56455 -2.78483 0
M  V30 3753 C 358.984 -5.17769 -0.686461 0
M  V30 3754 H 360.678 -2.99175 -0.116173 0
M  V30 3755 H 358.224 -1.43897 -0.054436 0
M  V30 3756 H 360.177 -3.37547 -2.5227 0
M  V30 3757 H 358.901 -2.1338 -2.47258 0
M  V30 3758 H 357.56 -3.55758 -0.884985 0
M  V30 3759 H 357.208 -3.74886 -3.35365 0
M  V30 3760 H 356.908 -5.30169 -2.53368 0
M  V30 3761 H 358.432 -5.05047 -3.43162 0
M  V30 3762 H 359.846 -5.60001 -1.22767 0
M  V30 3763 H 358.243 -5.97735 -0.532259 0
M  V30 3764 H 359.313 -4.83932 0.306196 0
M  V30 3765 N 360.656 0.0484629 -1.57525 0
M  V30 3766 C 361.603 1.05504 -2.05275 0
M  V30 3767 C 362.573 1.37084 -0.937927 0
M  V30 3768 O 363.758 1.47754 -1.2072 0
M  V30 3769 C 360.898 2.35676 -2.52093 0
M  V30 3770 C 360.011 2.10423 -3.77288 0
M  V30 3771 C 359.146 3.34327 -4.12794 0
M  V30 3772 C 358.185 3.04542 -5.30962 0
M  V30 3773 N 357.322 4.20841 -5.61994 0
M  V30 3774 H 362.162 0.640885 -2.91027 0
M  V30 3775 H 359.699 0.304854 -1.43906 0
M  V30 3776 H 361.657 3.11709 -2.77297 0
M  V30 3777 H 360.287 2.7485 -1.69285 0
M  V30 3778 H 359.339 1.24976 -3.59284 0
M  V30 3779 H 360.651 1.84438 -4.63448 0
M  V30 3780 H 359.805 4.1874 -4.39024 0
M  V30 3781 H 358.544 3.63408 -3.25247 0
M  V30 3782 H 357.549 2.18528 -5.04505 0
M  V30 3783 H 358.774 2.76758 -6.20146 0
M  V30 3784 H 356.72 4.4991 -4.77406 0
M  V30 3785 H 356.637 3.98212 -6.42622 0
M  V30 3786 H 357.905 5.06184 -5.92789 0
M  V30 3787 N 362.134 1.5431 0.320358 0
M  V30 3788 C 363.082 1.84647 1.4145 0
M  V30 3789 C 364.076 0.718624 1.53402 0
M  V30 3790 O 365.282 0.902335 1.5575 0
M  V30 3791 H 361.657 0.585349 0.472091 0
M  V30 3792 H 363.628 2.7614 1.13089 0
M  V30 3793 C 362.377 2.09341 2.77617 0
M  V30 3794 H 361.7 2.9559 2.69196 0
M  V30 3795 H 363.14 2.3452 3.53237 0
M  V30 3796 C 361.599 0.885939 3.25043 0
M  V30 3797 O 362.129 0.0967891 4.01583 0
M  V30 3798 N 360.335 0.696682 2.82125 0
M  V30 3799 H 359.882 1.34006 2.2 0
M  V30 3800 H 359.84 -0.109712 3.14209 0
M  V30 3801 N 363.613 -0.582584 1.46437 0
M  V30 3802 C 364.561 -1.71272 1.5738 0
M  V30 3803 C 365.555 -1.63524 0.44229 0
M  V30 3804 O 366.761 -1.69016 0.619166 0
M  V30 3805 H 363.136 -0.566273 0.494813 0
M  V30 3806 H 365.107 -1.59174 2.52401 0
M  V30 3807 C 363.856 -3.09658 1.58136 0
M  V30 3808 H 363.179 -3.16291 2.44541 0
M  V30 3809 H 364.619 -3.88494 1.69847 0
M  V30 3810 C 363.078 -3.3547 0.310026 0
M  V30 3811 O 363.608 -3.97199 -0.599683 0
M  V30 3812 N 361.814 -2.89925 0.197901 0
M  V30 3813 H 361.361 -2.39873 0.93909 0
M  V30 3814 H 361.319 -3.07568 -0.65185 0
M  V30 3815 N 365.091 -1.34144 -0.827227 0
M  V30 3816 C 366.021 -1.28005 -1.95287 0
M  V30 3817 C 367.002 -0.158321 -1.69362 0
M  V30 3818 O 368.187 -0.349987 -1.9102 0
M  V30 3819 C 365.317 -1.03036 -3.31664 0
M  V30 3820 C 364.271 -2.11628 -3.72019 0
M  V30 3821 C 363.597 -1.71854 -5.0633 0
M  V30 3822 C 364.897 -3.53417 -3.8457 0
M  V30 3823 H 366.591 -2.22187 -2.00682 0
M  V30 3824 H 364.137 -1.0696 -0.964135 0
M  V30 3825 H 366.09 -0.973863 -4.09993 0
M  V30 3826 H 364.814 -0.0529391 -3.26557 0
M  V30 3827 H 363.473 -2.16339 -2.95961 0
M  V30 3828 H 363.121 -0.727841 -4.97706 0
M  V30 3829 H 362.821 -2.44531 -5.34302 0
M  V30 3830 H 364.345 -1.67692 -5.87122 0
M  V30 3831 H 365.759 -3.51142 -4.5318 0
M  V30 3832 H 364.156 -4.24679 -4.2399 0
M  V30 3833 H 365.226 -3.91072 -2.86689 0
M  V30 3834 N 366.569 1.04691 -1.17803 0
M  V30 3835 C 367.799 1.81183 -0.992788 0
M  V30 3836 C 368.207 1.8347 0.462098 0
M  V30 3837 O 367.55 1.2643 1.33271 0
M  V30 3838 C 367.612 3.28363 -1.46349 0
M  V30 3839 C 367.276 3.49749 -2.94151 0
M  V30 3840 C 368.273 3.41456 -3.92051 0
M  V30 3841 C 365.958 3.76548 -3.32441 0
M  V30 3842 C 367.952 3.59656 -5.26238 0
M  V30 3843 C 365.639 3.94396 -4.66792 0
M  V30 3844 C 366.637 3.8595 -5.635 0
M  V30 3845 O 366.325 4.03294 -6.9542 0
M  V30 3846 H 366.057 0.577622 -0.351182 0
M  V30 3847 H 368.611 1.32876 -1.5663 0
M  V30 3848 H 366.841 3.77609 -0.833574 0
M  V30 3849 H 368.53 3.86395 -1.24313 0
M  V30 3850 H 369.296 3.20723 -3.63815 0
M  V30 3851 H 365.175 3.82224 -2.57732 0
M  V30 3852 H 368.719 3.52979 -6.01707 0
M  V30 3853 H 364.616 4.14622 -4.94731 0
M  V30 3854 H 365.384 4.2049 -7.02232 0
M  V30 3855 N 368.047 0.979072 1.23499 0
M  V30 3856 C 369.463 0.687475 1.44034 0
M  V30 3857 C 369.663 -0.746801 1.8715 0
M  V30 3858 O 368.719 -1.51939 2.0167 0
M  V30 3859 C 370.032 1.68127 2.49307 0
M  V30 3860 C 371.58 1.69516 2.63122 0
M  V30 3861 C 372.055 2.67723 3.71603 0
M  V30 3862 N 373.546 2.66233 3.79044 0
M  V30 3863 C 374.281 3.38891 4.62537 0
M  V30 3864 N 373.777 4.21103 5.50131 0
M  V30 3865 N 375.57 3.27661 4.56721 0
M  V30 3866 H 367.721 1.90559 0.938135 0
M  V30 3867 H 369.984 0.821051 0.473897 0
M  V30 3868 H 369.69 2.70693 2.2454 0
M  V30 3869 H 369.564 1.46306 3.4767 0
M  V30 3870 H 371.951 0.676561 2.8724 0
M  V30 3871 H 372.032 1.95404 1.65079 0
M  V30 3872 H 371.676 3.69724 3.48233 0
M  V30 3873 H 371.606 2.39111 4.69184 0
M  V30 3874 H 374.097 2.06568 3.16446 0
M  V30 3875 H 374.41 4.73403 6.10827 0
M  V30 3876 H 372.755 4.25195 5.49759 0
M  V30 3877 H 375.946 2.62887 3.87309 0
M  V30 3878 H 376.119 3.84547 5.21562 0
M  V30 3879 N 369.525 -1.3858 0.750561 0
M  V30 3880 C 370.455 -2.33102 0.136237 0
M  V30 3881 C 371.436 -1.54713 -0.706965 0
M  V30 3882 O 372.621 -1.83043 -0.648769 0
M  V30 3883 C 369.751 -3.38882 -0.760017 0
M  V30 3884 C 368.705 -4.27995 -0.0197785 0
M  V30 3885 C 368.031 -5.24605 -1.03408 0
M  V30 3886 C 369.331 -5.09554 1.14684 0
M  V30 3887 H 371.025 -2.84726 0.925822 0
M  V30 3888 H 368.571 -1.36898 0.446654 0
M  V30 3889 H 370.524 -4.0397 -1.19943 0
M  V30 3890 H 369.248 -2.85734 -1.58189 0
M  V30 3891 H 367.907 -3.64409 0.400184 0
M  V30 3892 H 367.555 -4.67746 -1.84994 0
M  V30 3893 H 367.255 -5.85081 -0.543464 0
M  V30 3894 H 368.779 -5.9257 -1.47288 0
M  V30 3895 H 370.193 -5.67899 0.785118 0
M  V30 3896 H 368.59 -5.7925 1.56812 0
M  V30 3897 H 369.66 -4.4347 1.96118 0
M  V30 3898 N 371.003 -0.499398 -1.49478 0
M  V30 3899 C 372.249 0.0457576 -2.02748 0
M  V30 3900 C 372.582 1.36793 -1.37846 0
M  V30 3901 O 371.857 1.87596 -0.513601 0
M  V30 3902 C 372.14 0.199986 -3.59544 0
M  V30 3903 C 371.993 -1.1452 -4.34977 0
M  V30 3904 C 373.312 0.94137 -4.29914 0
M  V30 3905 H 370.431 0.0151552 -0.736844 0
M  V30 3906 H 373.073 -0.650498 -1.78518 0
M  V30 3907 H 371.223 0.793007 -3.8032 0
M  V30 3908 H 372.895 -1.77697 -4.25701 0
M  V30 3909 H 371.138 -1.73488 -3.97598 0
M  V30 3910 H 371.809 -0.990607 -5.43039 0
M  V30 3911 H 374.285 0.43844 -4.13784 0
M  V30 3912 H 373.161 1.01812 -5.39375 0
M  V30 3913 H 373.422 1.98471 -3.95046 0
M  V30 3914 N 372.481 1.55866 -0.233164 0
M  V30 3915 C 373.727 1.99643 0.389148 0
M  V30 3916 C 374.082 1.11836 1.56558 0
M  V30 3917 O 373.375 0.170848 1.90837 0
M  V30 3918 C 373.569 3.46856 0.861724 0
M  V30 3919 C 373.398 4.48904 -0.267376 0
M  V30 3920 C 372.168 4.99888 -0.737577 0
M  V30 3921 C 374.366 5.02624 -1.08966 0
M  V30 3922 N 372.348 5.8566 -1.84052 0
M  V30 3923 C 373.719 5.85434 -2.04125 0
M  V30 3924 C 375.774 4.84959 -1.12779 0
M  V30 3925 C 374.477 6.52466 -3.02789 0
M  V30 3926 C 376.503 5.52759 -2.10266 0
M  V30 3927 C 375.865 6.35346 -3.04162 0
M  V30 3928 H 371.964 0.774402 0.108742 0
M  V30 3929 H 374.548 1.91572 -0.347596 0
M  V30 3930 H 372.719 3.55352 1.5678 0
M  V30 3931 H 374.451 3.77531 1.45783 0
M  V30 3932 H 371.206 4.7249 -0.324122 0
M  V30 3933 H 371.63 6.33246 -2.39434 0
M  V30 3934 H 376.272 4.20751 -0.415749 0
M  V30 3935 H 373.99 7.15849 -3.74948 0
M  V30 3936 H 377.576 5.41051 -2.13905 0
M  V30 3937 H 376.456 6.86883 -3.78366 0
M  V30 3938 N 373.959 -0.0401083 1.57549 0
M  V30 3939 C 374.909 -1.05175 2.02292 0
M  V30 3940 C 375.893 -1.32674 0.910294 0
M  V30 3941 O 377.085 -1.32444 1.17421 0
M  V30 3942 C 374.214 -2.35622 2.49674 0
M  V30 3943 C 373.3 -2.11261 3.67736 0
M  V30 3944 N 373.691 -1.56923 4.80842 0
M  V30 3945 C 371.989 -2.41596 3.74897 0
M  V30 3946 C 372.69 -1.48111 5.62528 0
M  V30 3947 N 371.666 -1.95282 5.07312 0
M  V30 3948 H 375.468 -0.625455 2.87168 0
M  V30 3949 H 372.982 -0.246624 1.60516 0
M  V30 3950 H 374.979 -3.08893 2.79983 0
M  V30 3951 H 373.639 -2.7894 1.662 0
M  V30 3952 H 374.65 -1.25345 5.02503 0
M  V30 3953 H 371.327 -2.88064 3.02201 0
M  V30 3954 H 372.717 -1.06683 6.63377 0
M  V30 3955 N 375.437 -1.54477 -0.31217 0
M  V30 3956 C 376.683 -1.73483 -1.0503 0
M  V30 3957 C 377.016 -0.513125 -1.87298 0
M  V30 3958 O 376.291 0.489864 -1.8823 0
M  V30 3959 C 376.574 -3.01723 -1.96558 0
M  V30 3960 C 376.427 -4.3417 -1.17545 0
M  V30 3961 C 377.746 -3.25772 -2.95907 0
M  V30 3962 H 374.865 -0.631222 -0.380432 0
M  V30 3963 H 377.507 -1.87184 -0.325932 0
M  V30 3964 H 375.657 -2.90174 -2.58324 0
M  V30 3965 H 377.329 -4.5762 -0.581513 0
M  V30 3966 H 375.572 -4.31159 -0.477925 0
M  V30 3967 H 376.243 -5.20143 -1.84811 0
M  V30 3968 H 378.719 -3.36857 -2.44267 0
M  V30 3969 H 377.595 -4.16838 -3.57123 0
M  V30 3970 H 377.856 -2.43537 -3.68974 0
M  V30 3971 N 376.915 0.57481 -1.46744 0
M  V30 3972 C 377.825 1.711 -1.60505 0
M  V30 3973 C 378.841 1.67008 -0.488307 0
M  V30 3974 O 380.017 1.86774 -0.753495 0
M  V30 3975 C 377.082 3.07608 -1.59932 0
M  V30 3976 C 376.143 3.22904 -2.82898 0
M  V30 3977 C 375.376 4.529 -2.82343 0
M  V30 3978 O 375.599 5.37278 -1.91542 0
M  V30 3979 O 374.533 4.71611 -3.73987 0
M  V30 3980 H 378.359 1.62436 -2.56609 0
M  V30 3981 H 375.944 0.742779 -1.29627 0
M  V30 3982 H 377.826 3.88877 -1.62336 0
M  V30 3983 H 376.501 3.16692 -0.669898 0
M  V30 3984 H 375.408 2.41099 -2.86046 0
M  V30 3985 H 376.741 3.18715 -3.75076 0
M  V30 3986 N 378.394 1.34581 0.820102 0
M  V30 3987 C 379.81 1.14325 1.11364 0
M  V30 3988 C 380.01 -0.0533648 2.01429 0
M  V30 3989 O 379.066 -0.728044 2.41776 0
M  V30 3990 C 380.379 2.43983 1.75764 0
M  V30 3991 C 381.927 2.50065 1.88246 0
M  V30 3992 C 382.402 3.79732 2.56061 0
M  V30 3993 N 383.893 3.80908 2.63558 0
M  V30 3994 C 384.628 4.77961 3.16766 0
M  V30 3995 N 384.124 5.85397 3.70517 0
M  V30 3996 N 385.917 4.65413 3.15194 0
M  V30 3997 H 378.068 2.11246 0.221096 0
M  V30 3998 H 380.331 0.934289 0.160649 0
M  V30 3999 H 380.037 3.31651 1.1705 0
M  V30 4000 H 379.911 2.57531 2.75604 0
M  V30 4001 H 382.298 1.62834 2.46108 0
M  V30 4002 H 382.379 2.40442 0.873006 0
M  V30 4003 H 382.023 4.67354 1.98853 0
M  V30 4004 H 381.953 3.86639 3.57516 0
M  V30 4005 H 384.444 3.03274 2.25463 0
M  V30 4006 H 384.757 6.55463 4.09376 0
M  V30 4007 H 383.102 5.89107 3.68752 0
M  V30 4008 H 386.293 3.80627 2.72471 0
M  V30 4009 H 386.466 5.41216 3.56356 0
M  V30 4010 N 379.872 -1.04064 1.18357 0
M  V30 4011 C 380.819 -2.12077 0.910603 0
M  V30 4012 C 381.789 -1.65421 -0.15 0
M  V30 4013 O 382.974 -1.90797 -0.0103614 0
M  V30 4014 C 380.114 -3.42252 0.442472 0
M  V30 4015 C 379.227 -4.0252 1.5685 0
M  V30 4016 C 378.362 -5.20657 1.05309 0
M  V30 4017 C 377.401 -5.72955 2.1538 0
M  V30 4018 N 376.538 -6.8238 1.65233 0
M  V30 4019 H 381.378 -2.34764 1.83548 0
M  V30 4020 H 378.915 -1.15157 0.915279 0
M  V30 4021 H 380.873 -4.16921 0.152534 0
M  V30 4022 H 379.503 -3.19712 -0.445428 0
M  V30 4023 H 378.555 -3.25178 1.97391 0
M  V30 4024 H 379.867 -4.37362 2.39824 0
M  V30 4025 H 379.021 -6.0244 0.717677 0
M  V30 4026 H 377.76 -4.87318 0.19293 0
M  V30 4027 H 376.765 -4.89793 2.49766 0
M  V30 4028 H 377.99 -6.08337 3.01832 0
M  V30 4029 H 375.936 -6.50917 0.815064 0
M  V30 4030 H 375.853 -7.16286 2.41805 0
M  V30 4031 H 377.121 -7.67788 1.34619 0
M  V30 4032 N 381.35 -0.985608 -1.22978 0
M  V30 4033 C 382.627 -0.573599 -1.87001 0
M  V30 4034 C 383.007 0.949213 -1.88555 0
M  V30 4035 O 382.355 1.82811 -1.37086 0
M  V30 4036 C 382.565 -1.18564 -3.28243 0
M  V30 4037 C 383.913 -1.28163 -4.04796 0
M  V30 4038 O 384.937 -1.13949 -3.37482 0
M  V30 4039 O 383.796 -1.50832 -5.25273 0
M  V30 4040 H 380.89 -0.193868 -0.803955 0
M  V30 4041 H 383.436 -1.08102 -1.30813 0
M  V30 4042 H 382.208 -2.22758 -3.21706 0
M  V30 4043 H 381.831 -0.663363 -3.92027 0
M  V30 4044 N 382.828 1.3818 -0.7579 0
M  V30 4045 C 384.074 2.00316 -0.316453 0
M  V30 4046 C 384.407 1.60026 1.10025 0
M  V30 4047 O 383.682 0.839835 1.75434 0
M  V30 4048 C 383.965 3.57349 -0.444245 0
M  V30 4049 C 383.818 4.07591 -1.90236 0
M  V30 4050 C 385.137 4.3981 0.1598 0
M  V30 4051 H 382.256 0.727741 -0.116459 0
M  V30 4052 H 384.898 1.6406 -0.958352 0
M  V30 4053 H 383.048 3.88365 0.102233 0
M  V30 4054 H 384.72 3.87199 -2.50748 0
M  V30 4055 H 382.963 3.60297 -2.41595 0
M  V30 4056 H 383.634 5.16677 -1.94291 0
M  V30 4057 H 386.11 4.14971 -0.306314 0
M  V30 4058 H 384.986 5.48885 0.0401675 0
M  V30 4059 H 385.247 4.24102 1.24859 0
M  V30 4060 N 384.306 0.507319 1.49211 0
M  V30 4061 C 385.717 0.0611118 1.866 0
M  V30 4062 C 386.068 -1.35488 1.41907 0
M  V30 4063 O 385.193 -2.0108 0.799726 0
M  V30 4064 C 385.788 0.104125 3.3864 0
M  V30 4065 C 384.347 -0.28677 3.75306 0
M  V30 4066 C 383.494 0.473893 2.73221 0
M  V30 4067 H 386.445 0.719775 1.41439 0
M  V30 4068 H 386.466 -0.689672 3.74198 0
M  V30 4069 H 385.978 1.13482 3.71138 0
M  V30 4070 H 384.079 -1.32046 3.48417 0
M  V30 4071 H 384.192 0.0370745 4.79086 0
M  V30 4072 H 382.556 -0.0770644 2.54583 0
M  V30 4073 H 383.339 1.50478 3.08563 0
M  V30 4074 N 385.784 -1.5574 0.241426 0
M  V30 4075 C 387.014 -2.02913 -0.38857 0
M  V30 4076 C 387.422 -1.12014 -1.52478 0
M  V30 4077 O 386.765 -0.125903 -1.83268 0
M  V30 4078 C 386.827 -3.4636 -0.963075 0
M  V30 4079 C 386.491 -4.56982 0.0401916 0
M  V30 4080 C 387.488 -5.12941 0.847766 0
M  V30 4081 C 385.173 -5.0203 0.164699 0
M  V30 4082 C 387.167 -6.12437 1.76636 0
M  V30 4083 C 384.854 -6.01358 1.0868 0
M  V30 4084 C 385.852 -6.5644 1.88616 0
M  V30 4085 O 385.54 -7.53831 2.79273 0
M  V30 4086 H 385.272 -0.668983 -0.0971452 0
M  V30 4087 H 387.826 -2.02198 0.361248 0
M  V30 4088 H 386.056 -3.44206 -1.76235 0
M  V30 4089 H 387.745 -3.77065 -1.50257 0
M  V30 4090 H 388.511 -4.78974 0.762133 0
M  V30 4091 H 384.39 -4.58824 -0.447411 0
M  V30 4092 H 387.934 -6.55355 2.39071 0
M  V30 4093 H 383.831 -6.34746 1.17338 0
M  V30 4094 H 384.599 -7.71428 2.73572 0
M  V30 4095 N 387.262 0.0317525 -1.57568 0
M  V30 4096 C 388.673 0.578692 -1.77505 0
M  V30 4097 C 389.024 1.75749 -0.872164 0
M  V30 4098 O 388.149 2.16298 -0.0663106 0
M  V30 4099 C 388.744 1.05658 -3.21904 0
M  V30 4100 C 387.303 1.54906 -3.43047 0
M  V30 4101 C 386.45 0.485939 -2.73009 0
M  V30 4102 H 389.401 -0.194475 -1.57504 0
M  V30 4103 H 389.422 1.92404 -3.28269 0
M  V30 4104 H 388.934 0.198422 -3.87592 0
M  V30 4105 H 387.035 2.42915 -2.82529 0
M  V30 4106 H 387.148 1.59841 -4.5165 0
M  V30 4107 H 385.512 0.940354 -2.36705 0
M  V30 4108 H 386.295 -0.362709 -3.41379 0
M  V30 4109 N 388.74 1.54641 0.303973 0
M  V30 4110 C 389.687 1.85386 1.37479 0
M  V30 4111 C 390.657 0.702528 1.50512 0
M  V30 4112 O 391.842 0.950867 1.65418 0
M  V30 4113 C 388.982 2.10413 2.73533 0
M  V30 4114 C 388.095 3.38049 2.68974 0
M  V30 4115 C 387.23 3.52934 3.97002 0
M  V30 4116 C 386.269 4.74373 3.86829 0
M  V30 4117 N 385.406 4.8608 5.06627 0
M  V30 4118 H 390.246 2.76732 1.1056 0
M  V30 4119 H 387.783 1.37034 0.534805 0
M  V30 4120 H 389.741 2.22919 3.52652 0
M  V30 4121 H 388.371 1.22338 2.98719 0
M  V30 4122 H 387.423 3.3418 1.81736 0
M  V30 4123 H 388.735 4.27288 2.57346 0
M  V30 4124 H 387.889 3.65088 4.84557 0
M  V30 4125 H 386.628 2.61824 4.1146 0
M  V30 4126 H 385.633 4.62255 2.97658 0
M  V30 4127 H 386.858 5.66888 3.73918 0
M  V30 4128 H 384.804 3.97891 5.21554 0
M  V30 4129 H 384.721 5.69315 4.9741 0
M  V30 4130 H 385.989 5.02587 5.95841 0
M  V30 4131 N 390.218 -0.567019 1.47046 0
M  V30 4132 C 391.15 -1.68985 1.54844 0
M  V30 4133 C 392.163 -1.56869 0.435431 0
M  V30 4134 O 393.352 -1.64006 0.70457 0
M  V30 4135 C 390.452 -3.07373 1.42742 0
M  V30 4136 C 389.625 -3.45339 2.6844 0
M  V30 4137 C 388.684 -4.62849 2.50314 0
M  V30 4138 O 387.71 -4.67922 3.24095 0
M  V30 4139 N 388.912 -5.58726 1.57499 0
M  V30 4140 H 391.677 -1.62745 2.51663 0
M  V30 4141 H 389.238 -0.753411 1.43302 0
M  V30 4142 H 391.23 -3.83803 1.28365 0
M  V30 4143 H 389.8 -3.07893 0.540445 0
M  V30 4144 H 389.02 -2.58455 2.97648 0
M  V30 4145 H 390.308 -3.67476 3.51907 0
M  V30 4146 H 389.706 -5.57376 0.966876 0
M  V30 4147 H 388.263 -6.34523 1.49078 0
M  V30 4148 N 391.696 -1.35014 -0.812953 0
M  V30 4149 C 392.921 -1.31187 -1.60639 0
M  V30 4150 C 393.346 0.109382 -1.87782 0
M  V30 4151 O 392.704 1.07424 -1.46047 0
M  V30 4152 C 392.752 -2.11809 -2.91838 0
M  V30 4153 O 391.856 -1.49444 -3.8437 0
M  V30 4154 H 391.197 -0.450084 -0.488181 0
M  V30 4155 H 393.727 -1.77963 -1.00947 0
M  V30 4156 H 393.737 -2.23531 -3.41318 0
M  V30 4157 H 392.412 -3.15137 -2.71407 0
M  V30 4158 H 390.989 -1.46524 -3.42907 0
M  V30 4159 N 393.175 1.03435 -1.18907 0
M  V30 4160 C 394.424 1.76143 -0.982669 0
M  V30 4161 C 394.737 1.89416 0.487953 0
M  V30 4162 O 395.943 2.59041 0.813036 0
M  V30 4163 C 394.399 3.16722 -1.70924 0
M  V30 4164 C 394.007 3.11522 -3.21959 0
M  V30 4165 C 395.751 3.93764 -1.58588 0
M  V30 4166 C 393.658 4.46999 -3.87228 0
M  V30 4167 H 392.588 0.660292 -0.364047 0
M  V30 4168 H 395.239 1.158 -1.42347 0
M  V30 4169 H 393.621 3.775 -1.19623 0
M  V30 4170 H 394.795 2.60158 -3.80335 0
M  V30 4171 H 393.11 2.47978 -3.34508 0
M  V30 4172 H 395.707 4.93963 -2.04707 0
M  V30 4173 H 396.05 4.12794 -0.539142 0
M  V30 4174 H 396.583 3.39576 -2.07203 0
M  V30 4175 H 393.322 4.33174 -4.91976 0
M  V30 4176 H 392.842 4.98441 -3.33642 0
M  V30 4177 H 394.521 5.15898 -3.90459 0
M  V30 4178 N 394.653 0.992116 1.22453 0
M  V30 4179 C 395.9 0.667534 1.91181 0
M  V30 4180 C 396.228 -0.800317 1.77271 0
M  V30 4181 O 395.483 -1.59421 1.13505 0
M  V30 4182 C 395.782 1.01832 3.42586 0
M  V30 4183 C 395.448 2.47831 3.76684 0
M  V30 4184 C 394.11 2.87729 3.85701 0
M  V30 4185 C 396.462 3.42466 3.92895 0
M  V30 4186 C 393.79 4.21252 4.08367 0
M  V30 4187 C 396.142 4.75648 4.17064 0
M  V30 4188 C 394.806 5.15288 4.24305 0
M  V30 4189 H 394.076 0.244268 0.699581 0
M  V30 4190 H 396.723 1.24816 1.45235 0
M  V30 4191 H 395.028 0.355769 3.90181 0
M  V30 4192 H 396.725 0.745228 3.94014 0
M  V30 4193 H 393.315 2.15905 3.70247 0
M  V30 4194 H 397.499 3.12814 3.85307 0
M  V30 4195 H 392.755 4.51554 4.122 0
M  V30 4196 H 396.929 5.48924 4.2855 0
M  V30 4197 H 394.556 6.18769 4.41621 0
M  V30 4198 N 396.131 -1.37776 0.765217 0
M  V30 4199 C 397.359 -2.04124 0.337767 0
M  V30 4200 C 397.774 -1.57715 -1.03785 0
M  V30 4201 O 397.131 -0.755447 -1.6613 0
M  V30 4202 C 397.182 -3.59658 0.364442 0
M  V30 4203 O 396.903 -4.04367 1.68579 0
M  V30 4204 C 398.404 -4.43236 -0.0754221 0
M  V30 4205 H 395.624 -0.655696 0.142491 0
M  V30 4206 H 398.168 -1.76238 1.03732 0
M  V30 4207 H 396.323 -3.86339 -0.286471 0
M  V30 4208 H 396.737 -4.98857 1.61993 0
M  V30 4209 H 398.211 -5.52 -0.00560067 0
M  V30 4210 H 398.688 -4.2455 -1.12491 0
M  V30 4211 H 399.294 -4.21767 0.547055 0
M  V30 4212 N 397.609 -0.515225 -1.4894 0
M  V30 4213 C 398.858 0.0261361 -2.01683 0
M  V30 4214 C 399.171 1.36719 -1.39883 0
M  V30 4215 O 400.377 1.99606 -1.84037 0
M  V30 4216 C 398.833 0.0970111 -3.59769 0
M  V30 4217 C 398.441 -1.23825 -4.30548 0
M  V30 4218 C 400.185 0.587981 -4.20408 0
M  V30 4219 C 398.092 -1.12877 -5.80528 0
M  V30 4220 H 397.022 0.0135398 -0.753878 0
M  V30 4221 H 399.673 -0.656787 -1.71343 0
M  V30 4222 H 398.055 0.844694 -3.86886 0
M  V30 4223 H 399.229 -2.00034 -4.15118 0
M  V30 4224 H 397.544 -1.66379 -3.81716 0
M  V30 4225 H 400.141 0.68763 -5.3026 0
M  V30 4226 H 400.484 1.59026 -3.84729 0
M  V30 4227 H 401.017 -0.103582 -3.97665 0
M  V30 4228 H 397.756 -2.10575 -6.20756 0
M  V30 4229 H 397.276 -0.407799 -5.98412 0
M  V30 4230 H 398.955 -0.813332 -6.41868 0
M  V30 4231 N 399.087 1.5561 -0.249682 0
M  V30 4232 C 400.035 2.22894 0.664906 0
M  V30 4233 C 401.029 1.21743 1.17792 0
M  V30 4234 O 402.235 1.39748 1.13449 0
M  V30 4235 H 398.61 0.715022 0.232912 0
M  V30 4236 H 400.581 2.98307 0.0742998 0
M  V30 4237 C 399.33 2.94424 1.84959 0
M  V30 4238 H 398.653 3.72031 1.46399 0
M  V30 4239 H 400.093 3.44862 2.4667 0
M  V30 4240 C 398.552 1.98454 2.72245 0
M  V30 4241 O 399.082 1.51939 3.71857 0
M  V30 4242 N 397.288 1.65496 2.38871 0
M  V30 4243 H 396.835 2.03517 1.57919 0
M  V30 4244 H 396.793 1.0155 2.97548 0
M  V30 4245 N 400.565 -0.0233959 1.57583 0
M  V30 4246 C 401.79 -0.728376 1.94189 0
M  V30 4247 C 402.215 -1.67793 0.850119 0
M  V30 4248 O 401.573 -1.80262 -0.19371 0
M  V30 4249 C 401.621 -1.45669 3.29868 0
M  V30 4250 O 400.725 -2.57013 3.22518 0
M  V30 4251 H 400.066 -0.195493 0.63457 0
M  V30 4252 H 402.596 0.0228214 2.04587 0
M  V30 4253 H 402.606 -1.82535 3.6489 0
M  V30 4254 H 401.281 -0.760314 4.08891 0
M  V30 4255 H 399.858 -2.22648 2.99136 0
M  V30 4256 N 402.043 -1.548 -0.295768 0
M  V30 4257 C 403.289 -1.74588 -1.03184 0
M  V30 4258 C 403.622 -0.532962 -1.86744 0
M  V30 4259 O 402.897 0.469872 -1.88739 0
M  V30 4260 C 403.18 -3.03791 -1.93347 0
M  V30 4261 C 403.033 -4.35392 -1.12933 0
M  V30 4262 C 404.352 -3.28892 -2.92435 0
M  V30 4263 H 401.471 -0.635221 -0.373715 0
M  V30 4264 H 404.113 -1.87519 -0.30606 0
M  V30 4265 H 402.263 -2.92898 -2.55232 0
M  V30 4266 H 403.935 -4.58211 -0.532943 0
M  V30 4267 H 402.178 -4.31642 -0.432168 0
M  V30 4268 H 402.849 -5.22074 -1.79284 0
M  V30 4269 H 405.325 -3.39429 -2.4068 0
M  V30 4270 H 404.201 -4.20603 -3.52682 0
M  V30 4271 H 404.462 -2.47437 -3.6637 0
M  V30 4272 N 403.521 0.559213 -1.47345 0
M  V30 4273 C 404.767 1.31843 -1.54095 0
M  V30 4274 C 405.1 1.93149 -0.201726 0
M  V30 4275 O 404.375 1.77759 0.789428 0
M  V30 4276 C 404.658 2.43006 -2.65744 0
M  V30 4277 C 404.511 1.86581 -4.09277 0
M  V30 4278 C 405.83 3.44943 -2.73318 0
M  V30 4279 H 402.949 0.478012 -0.560957 0
M  V30 4280 H 405.591 0.625977 -1.79392 0
M  V30 4281 H 403.741 3.02072 -2.44305 0
M  V30 4282 H 405.413 1.31792 -4.42073 0
M  V30 4283 H 403.656 1.17268 -4.17649 0
M  V30 4284 H 404.327 2.66933 -4.83168 0
M  V30 4285 H 406.803 2.95793 -2.92653 0
M  V30 4286 H 405.679 4.20153 -3.53218 0
M  V30 4287 H 405.94 4.03665 -1.80296 0
M  V30 4288 N 404.999 1.35443 0.805782 0
M  V30 4289 C 405.931 1.24285 1.92577 0
M  V30 4290 C 406.944 0.165962 1.61952 0
M  V30 4291 O 408.133 0.419303 1.73505 0
M  V30 4292 C 405.233 0.891272 3.2697 0
M  V30 4293 C 404.406 2.06669 3.85495 0
M  V30 4294 C 403.465 1.69077 4.98297 0
M  V30 4295 O 402.491 2.4096 5.15681 0
M  V30 4296 N 403.693 0.614869 5.77234 0
M  V30 4297 H 406.458 2.20777 2.02676 0
M  V30 4298 H 404.019 1.28623 0.983243 0
M  V30 4299 H 406.011 0.621256 3.99903 0
M  V30 4300 H 404.581 0.016004 3.12596 0
M  V30 4301 H 403.801 2.50046 3.04747 0
M  V30 4302 H 405.089 2.85237 4.21328 0
M  V30 4303 H 404.487 0.017648 5.65697 0
M  V30 4304 H 403.044 0.404636 6.50543 0
M  V30 4305 N 406.477 -1.02803 1.19454 0
M  V30 4306 C 407.424 -2.11099 0.933046 0
M  V30 4307 C 408.394 -1.65571 -0.132447 0
M  V30 4308 O 409.579 -1.90797 0.00987576 0
M  V30 4309 C 406.719 -3.41763 0.478747 0
M  V30 4310 C 405.832 -4.00833 1.6111 0
M  V30 4311 C 404.967 -5.19511 1.10825 0
M  V30 4312 C 404.006 -5.70639 2.21445 0
M  V30 4313 N 403.143 -6.80589 1.72461 0
M  V30 4314 H 407.983 -2.32804 1.86028 0
M  V30 4315 H 405.52 -1.14179 0.927441 0
M  V30 4316 H 407.478 -4.16736 0.196745 0
M  V30 4317 H 406.108 -3.20166 -0.411493 0
M  V30 4318 H 405.16 -3.23066 2.00829 0
M  V30 4319 H 406.472 -4.34794 2.4445 0
M  V30 4320 H 405.626 -6.01645 0.781533 0
M  V30 4321 H 404.365 -4.87086 0.244606 0
M  V30 4322 H 403.37 -4.87116 2.54947 0
M  V30 4323 H 404.595 -6.05102 3.08267 0
M  V30 4324 H 402.541 -6.50016 0.884056 0
M  V30 4325 H 402.458 -7.13681 2.49389 0
M  V30 4326 H 403.726 -7.66317 1.42755 0
M  V30 4327 N 407.956 -0.998596 -1.21925 0
M  V30 4328 C 409.233 -0.593401 -1.86382 0
M  V30 4329 C 409.613 0.92916 -1.89552 0
M  V30 4330 O 408.961 1.81347 -1.39017 0
M  V30 4331 C 409.171 -1.22039 -3.26967 0
M  V30 4332 C 410.519 -1.32449 -4.03413 0
M  V30 4333 O 411.543 -1.17522 -3.36254 0
M  V30 4334 O 410.402 -1.56395 -5.23644 0
M  V30 4335 H 407.496 -0.202385 -0.801854 0
M  V30 4336 H 410.042 -1.09484 -1.29659 0
M  V30 4337 H 408.814 -2.26158 -3.19325 0
M  V30 4338 H 408.437 -0.704906 -3.91301 0
M  V30 4339 N 409.434 1.37368 -0.772513 0
M  V30 4340 C 410.682 1.99279 -0.336516 0
M  V30 4341 C 411.003 1.6163 1.09091 0
M  V30 4342 O 410.273 0.882109 1.74916 0
M  V30 4343 H 408.853 0.737063 -0.121435 0
M  V30 4344 H 411.515 1.67836 -0.990809 0
M  V30 4345 H 410.611 3.09332 -0.414763 0
M  V30 4346 N 410.912 0.523116 1.48665 0
M  V30 4347 C 412.158 -0.0134963 2.02796 0
M  V30 4348 C 412.491 -1.34582 1.40004 0
M  V30 4349 O 411.766 -1.86756 0.543381 0
M  V30 4350 C 412.049 -0.14276 3.59817 0
M  V30 4351 C 411.902 1.21425 4.331 0
M  V30 4352 C 413.221 -0.872856 4.31357 0
M  V30 4353 H 410.34 -0.00343074 0.736992 0
M  V30 4354 H 412.982 0.678816 1.7746 0
M  V30 4355 H 411.132 -0.732401 3.81534 0
M  V30 4356 H 412.804 1.84447 4.2282 0
M  V30 4357 H 411.047 1.79791 3.94788 0
M  V30 4358 H 411.718 1.07687 5.41394 0
M  V30 4359 H 414.194 -0.372555 4.14429 0
M  V30 4360 H 413.07 -0.932185 5.40927 0
M  V30 4361 H 413.331 -1.92161 3.98154 0
M  V30 4362 N 412.39 -1.55475 0.257931 0
M  V30 4363 C 413.3 -2.2549 -0.647425 0
M  V30 4364 C 414.316 -1.2748 -1.18427 0
M  V30 4365 O 415.492 -1.6038 -1.2182 0
M  V30 4366 C 412.557 -2.94916 -1.82278 0
M  V30 4367 C 411.618 -4.08363 -1.32432 0
M  V30 4368 C 410.851 -4.74469 -2.44366 0
M  V30 4369 O 411.074 -4.39701 -3.63344 0
M  V30 4370 O 410.008 -5.62763 -2.13497 0
M  V30 4371 H 413.834 -3.03593 -0.0807707 0
M  V30 4372 H 411.419 -1.49377 0.0259962 0
M  V30 4373 H 413.301 -3.38606 -2.50846 0
M  V30 4374 H 411.976 -2.19744 -2.37685 0
M  V30 4375 H 410.883 -3.69166 -0.605605 0
M  V30 4376 H 412.216 -4.85385 -0.816211 0
M  V30 4377 N 413.868 0.0150385 -1.57593 0
M  V30 4378 C 414.816 1.02958 -2.08572 0
M  V30 4379 C 415.81 1.36554 -1.00246 0
M  V30 4380 O 417.016 1.35295 -1.18724 0
M  V30 4381 H 413.391 0.349619 -0.665786 0
M  V30 4382 H 415.362 0.573932 -2.92829 0
M  V30 4383 C 414.111 2.31752 -2.59203 0
M  V30 4384 H 413.434 2.06765 -3.42182 0
M  V30 4385 H 414.874 3.01053 -2.98568 0
M  V30 4386 C 413.333 3.01692 -1.49945 0
M  V30 4387 O 413.863 3.92083 -0.873704 0
M  V30 4388 N 412.069 2.6326 -1.23056 0
M  V30 4389 H 411.616 1.89838 -1.74125 0
M  V30 4390 H 411.574 3.10372 -0.501685 0
M  V30 4391 N 415.346 1.54954 0.287554 0
M  V30 4392 C 416.574 1.78881 1.03967 0
M  V30 4393 C 416.989 0.554894 1.80462 0
M  V30 4394 O 416.346 -0.475676 1.76192 0
M  V30 4395 C 416.397 3.00488 2.0097 0
M  V30 4396 O 416.118 4.19113 1.27577 0
M  V30 4397 C 417.619 3.36907 2.88112 0
M  V30 4398 H 414.839 0.596259 0.307761 0
M  V30 4399 H 417.383 2.01937 0.322749 0
M  V30 4400 H 415.538 2.79601 2.68145 0
M  V30 4401 H 415.952 4.87765 1.92835 0
M  V30 4402 H 417.426 4.25205 3.52001 0
M  V30 4403 H 417.903 2.55659 3.57121 0
M  V30 4404 H 418.509 3.60001 2.26449 0
M  V30 4405 N 416.824 -0.551391 1.4764 0
M  V30 4406 C 418.235 -1.13349 1.48354 0
M  V30 4407 C 418.586 -1.94709 0.241432 0
M  V30 4408 O 417.711 -2.06306 -0.653205 0
M  V30 4409 C 418.306 -2.0623 2.68802 0
M  V30 4410 C 416.865 -2.597 2.72457 0
M  V30 4411 C 416.012 -1.36201 2.41546 0
M  V30 4412 H 418.963 -0.337698 1.55065 0
M  V30 4413 H 418.984 -2.90196 2.46103 0
M  V30 4414 H 418.496 -1.46987 3.59188 0
M  V30 4415 H 416.597 -3.22724 1.86225 0
M  V30 4416 H 416.71 -3.00296 3.73308 0
M  V30 4417 H 415.074 -1.67068 1.9225 0
M  V30 4418 H 415.857 -0.787425 3.34147 0
M  V30 4419 N 418.302 -1.35869 -0.798587 0
M  V30 4420 C 419.713 -1.26498 -1.37314 0
M  V30 4421 C 420.064 0.0991899 -1.95949 0
M  V30 4422 O 419.189 1.0004 -1.91888 0
M  V30 4423 C 419.784 -2.29054 -2.49639 0
M  V30 4424 C 418.343 -2.234 -3.02935 0
M  V30 4425 C 417.49 -2.14329 -1.75949 0
M  V30 4426 H 420.441 -1.46881 -0.600971 0
M  V30 4427 H 420.462 -1.92166 -3.28409 0
M  V30 4428 H 419.974 -3.2833 -2.06933 0
M  V30 4429 H 418.075 -1.27562 -3.50084 0
M  V30 4430 H 418.188 -3.15703 -3.60372 0
M  V30 4431 H 416.552 -1.60435 -1.9782 0
M  V30 4432 H 417.335 -3.15477 -1.35384 0
M  V30 4433 N 419.78 1.02168 -1.19998 0
M  V30 4434 C 420.73 2.08969 -0.911921 0
M  V30 4435 C 421.714 1.60404 0.12621 0
M  V30 4436 O 422.906 1.76817 -0.0804706 0
M  V30 4437 C 420.035 3.402 -0.460277 0
M  V30 4438 C 419.121 3.9548 -1.53155 0
M  V30 4439 N 419.512 4.24332 -2.75275 0
M  V30 4440 C 417.81 4.23572 -1.39653 0
M  V30 4441 C 418.511 4.68834 -3.44339 0
M  V30 4442 N 417.487 4.70804 -2.71744 0
M  V30 4443 H 421.289 2.29178 -1.83997 0
M  V30 4444 H 418.803 1.20094 -1.09322 0
M  V30 4445 H 420.8 4.16235 -0.235337 0
M  V30 4446 H 419.46 3.21408 0.4612 0
M  V30 4447 H 420.471 4.13393 -3.11973 0
M  V30 4448 H 417.148 4.14005 -0.539067 0
M  V30 4449 H 418.538 5.00019 -4.4881 0
M  V30 4450 N 421.258 1.00505 1.21394 0
M  V30 4451 C 422.488 0.705584 1.94178 0
M  V30 4452 C 422.896 -0.735846 1.74304 0
M  V30 4453 O 422.239 -1.50954 1.04683 0
M  V30 4454 C 422.301 0.94689 3.46806 0
M  V30 4455 C 421.965 2.37517 3.90429 0
M  V30 4456 C 422.962 3.35539 3.97127 0
M  V30 4457 C 420.647 2.71284 4.22742 0
M  V30 4458 C 422.641 4.65395 4.3553 0
M  V30 4459 C 420.328 4.01356 4.60822 0
M  V30 4460 C 421.326 4.98223 4.67186 0
M  V30 4461 O 421.014 6.25969 5.04399 0
M  V30 4462 H 420.746 0.259216 0.624326 0
M  V30 4463 H 423.3 1.34592 1.55159 0
M  V30 4464 H 421.53 0.249386 3.85895 0
M  V30 4465 H 423.219 0.640804 4.0081 0
M  V30 4466 H 423.985 3.10786 3.7234 0
M  V30 4467 H 419.864 1.96581 4.16985 0
M  V30 4468 H 423.408 5.41002 4.40412 0
M  V30 4469 H 419.305 4.25893 4.85063 0
M  V30 4470 H 420.073 6.30085 5.22431 0
M  V30 4471 N 422.737 -1.36956 0.779787 0
M  V30 4472 C 423.984 -1.99491 0.347766 0
M  V30 4473 C 424.312 -1.61898 -1.07793 0
M  V30 4474 O 423.567 -0.86071 -1.75756 0
M  V30 4475 C 423.866 -3.54585 0.447686 0
M  V30 4476 C 423.532 -4.1197 1.83279 0
M  V30 4477 C 422.194 -4.27356 2.2118 0
M  V30 4478 C 424.546 -4.43354 2.74019 0
M  V30 4479 C 421.874 -4.71432 3.4924 0
M  V30 4480 C 424.226 -4.88858 4.01497 0
M  V30 4481 C 422.89 -5.0245 4.39432 0
M  V30 4482 H 422.16 -0.729991 0.127257 0
M  V30 4483 H 424.807 -1.63599 0.995376 0
M  V30 4484 H 423.112 -3.90773 -0.283447 0
M  V30 4485 H 424.809 -4.00888 0.0945948 0
M  V30 4486 H 421.399 -4.00428 1.52825 0
M  V30 4487 H 425.583 -4.31045 2.45995 0
M  V30 4488 H 420.839 -4.80141 3.78516 0
M  V30 4489 H 425.013 -5.12108 4.71931 0
M  V30 4490 H 422.64 -5.36362 5.38721 0
M  V30 4491 N 424.215 -0.530993 -1.48385 0
M  V30 4492 C 425.443 -0.00134122 -2.069 0
M  V30 4493 C 425.858 1.2805 -1.3874 0
M  V30 4494 O 425.215 1.76204 -0.475244 0
M  V30 4495 C 425.266 0.225256 -3.60798 0
M  V30 4496 O 424.987 -1.0058 -4.26398 0
M  V30 4497 C 426.488 0.795172 -4.3611 0
M  V30 4498 H 423.708 -0.0339704 -0.67014 0
M  V30 4499 H 426.252 -0.736926 -1.90761 0
M  V30 4500 H 424.407 0.910891 -3.76539 0
M  V30 4501 H 424.821 -0.787165 -5.1856 0
M  V30 4502 H 426.295 0.903143 -5.44562 0
M  V30 4503 H 426.772 1.80031 -4.00606 0
M  V30 4504 H 427.378 0.146069 -4.25049 0
M  V30 4505 N 425.693 1.55336 -0.266172 0
M  V30 4506 C 426.623 2.25146 0.618981 0
M  V30 4507 C 427.604 1.23845 1.16604 0
M  V30 4508 O 428.789 1.52544 1.20183 0
M  V30 4509 C 425.919 2.96572 1.80728 0
M  V30 4510 C 424.873 4.04726 1.39215 0
M  V30 4511 C 424.199 4.63678 2.66283 0
M  V30 4512 C 425.499 5.19407 0.548942 0
M  V30 4513 H 427.193 2.99377 0.0368116 0
M  V30 4514 H 424.739 1.43991 0.0162651 0
M  V30 4515 H 426.692 3.44116 2.43232 0
M  V30 4516 H 425.416 2.19861 2.41514 0
M  V30 4517 H 424.075 3.57979 0.790351 0
M  V30 4518 H 423.723 3.83646 3.25308 0
M  V30 4519 H 423.423 5.367 2.39222 0
M  V30 4520 H 424.947 5.13967 3.29651 0
M  V30 4521 H 426.361 5.63059 1.07876 0
M  V30 4522 H 424.758 5.98936 0.373593 0
M  V30 4523 H 425.828 4.8295 -0.434394 0
M  V30 4524 N 427.171 -0.0066808 1.57599 0
M  V30 4525 C 428.419 -0.691552 1.899 0
M  V30 4526 C 428.74 -1.74682 0.866672 0
M  V30 4527 O 428.01 -1.95661 -0.0968189 0
M  V30 4528 H 426.59 -0.258416 0.700878 0
M  V30 4529 H 429.252 0.0326655 1.94873 0
M  V30 4530 H 428.348 -1.16702 2.8946 0
M  V30 4531 N 428.649 -1.55105 -0.279332 0
M  V30 4532 C 429.889 -1.7716 -1.01949 0
M  V30 4533 C 430.253 -0.557511 -1.83728 0
M  V30 4534 O 431.454 -0.656198 -2.60667 0
M  V30 4535 C 429.725 -3.0372 -1.88385 0
M  V30 4536 S 431.284 -3.46868 -2.68752 0
M  V30 4537 H 428.102 -0.62253 -0.343478 0
M  V30 4538 H 430.704 -1.93329 -0.290572 0
M  V30 4539 H 429.408 -3.90184 -1.2722 0
M  V30 4540 H 428.939 -2.902 -2.65608 0
M  V30 4541 H 430.954 -3.05643 -3.90892 0
M  V30 4542 N 430.127 0.543554 -1.4793 0
M  V30 4543 C 431.074 1.64942 -1.6144 0
M  V30 4544 C 432.044 1.59692 -0.456903 0
M  V30 4545 O 433.229 1.78321 -0.678688 0
M  V30 4546 C 430.369 3.03238 -1.64744 0
M  V30 4547 C 429.482 3.18823 -2.91506 0
M  V30 4548 C 428.617 4.47599 -2.86057 0
M  V30 4549 C 427.656 4.56664 -4.07584 0
M  V30 4550 N 426.793 5.76811 -4.00292 0
M  V30 4551 H 431.633 1.52733 -2.55884 0
M  V30 4552 H 429.17 0.7438 -1.2691 0
M  V30 4553 H 431.128 3.83339 -1.64641 0
M  V30 4554 H 429.758 3.1425 -0.738017 0
M  V30 4555 H 428.81 2.32064 -3.01414 0
M  V30 4556 H 430.122 3.21384 -3.81463 0
M  V30 4557 H 429.276 5.35975 -2.84281 0
M  V30 4558 H 428.015 4.47538 -1.93807 0
M  V30 4559 H 427.02 3.66697 -4.09651 0
M  V30 4560 H 428.245 4.58474 -5.00978 0
M  V30 4561 H 426.191 5.77673 -3.10853 0
M  V30 4562 H 426.108 5.80808 -4.8394 0
M  V30 4563 H 427.376 6.67512 -4.02553 0
M  V30 4564 N 431.605 1.3629 0.791371 0
M  V30 4565 C 432.854 1.29742 1.54434 0
M  V30 4566 C 433.167 -0.121729 1.95221 0
M  V30 4567 O 434.373 -0.309579 2.69729 0
M  V30 4568 C 432.829 2.27623 2.78776 0
M  V30 4569 C 432.437 3.74963 2.45166 0
M  V30 4570 C 434.181 2.30047 3.56761 0
M  V30 4571 C 432.088 4.64626 3.65891 0
M  V30 4572 H 431.018 0.482113 0.579727 0
M  V30 4573 H 433.669 1.61642 0.868565 0
M  V30 4574 H 432.051 1.88714 3.48142 0
M  V30 4575 H 433.225 4.22596 1.83709 0
M  V30 4576 H 431.54 3.75295 1.80396 0
M  V30 4577 H 434.137 2.94247 4.46456 0
M  V30 4578 H 434.48 1.30846 3.95203 0
M  V30 4579 H 435.013 2.67563 2.94372 0
M  V30 4580 H 431.752 5.64883 3.32547 0
M  V30 4581 H 431.272 4.2171 4.26521 0
M  V30 4582 H 432.951 4.80801 4.32943 0
M  V30 4583 N 433.083 -1.0153 1.20538 0
M  V30 4584 C 434.013 -2.11972 0.979295 0
M  V30 4585 C 434.994 -1.6985 -0.0921787 0
M  V30 4586 O 436.179 -1.94089 0.0655932 0
M  V30 4587 C 433.309 -3.43201 0.531984 0
M  V30 4588 C 432.263 -3.9907 1.54685 0
M  V30 4589 C 431.589 -5.26082 0.956127 0
M  V30 4590 C 432.889 -4.32313 2.93092 0
M  V30 4591 H 434.583 -2.31143 1.90298 0
M  V30 4592 H 432.129 -1.11079 0.916372 0
M  V30 4593 H 434.082 -4.1985 0.361044 0
M  V30 4594 H 432.806 -3.23792 -0.427327 0
M  V30 4595 H 431.465 -3.2453 1.70517 0
M  V30 4596 H 431.113 -5.02999 -0.0111538 0
M  V30 4597 H 430.813 -5.64426 1.63393 0
M  V30 4598 H 432.337 -6.05386 0.796284 0
M  V30 4599 H 433.751 -4.99845 2.80763 0
M  V30 4600 H 432.148 -4.81774 3.57791 0
M  V30 4601 H 433.218 -3.41025 3.44717 0
M  V30 4602 N 434.561 -1.01147 -1.20859 0
M  V30 4603 C 435.789 -0.716911 -1.94082 0
M  V30 4604 C 436.204 0.721568 -1.74467 0
M  V30 4605 O 435.561 1.48889 -1.05539 0
M  V30 4606 C 435.612 -1.03662 -3.46318 0
M  V30 4607 O 435.333 -2.4186 -3.65288 0
M  V30 4608 C 436.834 -0.762386 -4.36695 0
M  V30 4609 H 434.054 -0.26367 -0.617024 0
M  V30 4610 H 436.598 -1.35127 -1.53496 0
M  V30 4611 H 434.753 -0.447757 -3.84804 0
M  V30 4612 H 435.167 -2.53224 -4.59323 0
M  V30 4613 H 436.641 -1.03621 -5.42187 0
M  V30 4614 H 437.118 0.303514 -4.3815 0
M  V30 4615 H 437.724 -1.33316 -4.03865 0
M  V30 4616 N 436.039 1.36541 -0.78704 0
M  V30 4617 C 436.969 2.32659 -0.197992 0
M  V30 4618 C 437.95 1.56533 0.665697 0
M  V30 4619 O 439.135 1.84698 0.60001 0
M  V30 4620 C 436.265 3.40778 0.669901 0
M  V30 4621 C 435.219 4.27897 -0.0937039 0
M  V30 4622 C 434.545 5.27163 0.894629 0
M  V30 4623 C 435.845 5.06334 -1.28154 0
M  V30 4624 H 437.539 2.82171 -1.00099 0
M  V30 4625 H 435.085 1.35665 -0.482793 0
M  V30 4626 H 437.038 4.07008 1.09191 0
M  V30 4627 H 435.762 2.89827 1.50558 0
M  V30 4628 H 434.421 3.6322 -0.49666 0
M  V30 4629 H 434.069 4.72486 1.72527 0
M  V30 4630 H 433.769 5.86317 0.388149 0
M  V30 4631 H 435.293 5.96266 1.31525 0
M  V30 4632 H 436.707 5.65617 -0.93541 0
M  V30 4633 H 435.104 5.74888 -1.72115 0
M  V30 4634 H 436.174 4.38114 -2.07807 0
M  V30 4635 N 437.518 0.538854 1.48102 0
M  V30 4636 C 438.746 0.0123136 2.06896 0
M  V30 4637 C 439.161 -1.27312 1.39417 0
M  V30 4638 O 438.518 -1.75949 0.484582 0
M  V30 4639 C 438.569 -0.206118 3.60912 0
M  V30 4640 O 438.29 1.0284 4.25859 0
M  V30 4641 C 439.791 -0.772033 4.36526 0
M  V30 4642 H 437.011 0.0375239 0.66995 0
M  V30 4643 H 439.555 0.747032 1.90367 0
M  V30 4644 H 437.71 -0.89091 3.77017 0
M  V30 4645 H 438.124 0.814654 5.18135 0
M  V30 4646 H 439.598 -0.874251 5.45033 0
M  V30 4647 H 440.075 -1.77904 4.01555 0
M  V30 4648 H 440.681 -0.123526 4.25121 0
M  V30 4649 N 438.996 -1.55193 0.274407 0
M  V30 4650 C 440.407 -1.85358 -0.223488 0
M  V30 4651 C 440.758 -1.19642 -1.555 0
M  V30 4652 O 439.883 -0.484498 -2.10907 0
M  V30 4653 C 440.478 -3.36282 -0.412285 0
M  V30 4654 C 439.037 -3.66574 -0.854413 0
M  V30 4655 C 438.184 -2.7725 0.0527056 0
M  V30 4656 H 441.135 -1.50743 0.496215 0
M  V30 4657 H 441.156 -3.59349 -1.25094 0
M  V30 4658 H 440.668 -3.84083 0.556965 0
M  V30 4659 H 438.769 -3.24273 -1.83516 0
M  V30 4660 H 438.882 -4.74073 -0.692226 0
M  V30 4661 H 437.246 -2.50447 -0.463484 0
M  V30 4662 H 438.029 -3.27865 1.01783 0
M  V30 4663 N 440.474 -0.00167713 -1.576 0
M  V30 4664 C 441.89 0.354422 -1.55615 0
M  V30 4665 C 442.09 1.74679 -1.00447 0
M  V30 4666 O 441.146 2.4428 -0.639022 0
M  V30 4667 C 442.459 0.22812 -2.99833 0
M  V30 4668 C 444.007 0.302934 -3.11531 0
M  V30 4669 C 444.482 0.205737 -4.57538 0
M  V30 4670 N 445.973 0.263584 -4.62449 0
M  V30 4671 C 446.708 0.211742 -5.73009 0
M  V30 4672 N 446.204 0.110399 -6.92712 0
M  V30 4673 N 447.997 0.263729 -5.61481 0
M  V30 4674 H 440.148 -0.912498 -1.918 0
M  V30 4675 H 442.411 -0.349928 -0.881053 0
M  V30 4676 H 442.117 -0.729934 -3.44042 0
M  V30 4677 H 441.991 1.00951 -3.6344 0
M  V30 4678 H 444.378 1.25143 -2.67251 0
M  V30 4679 H 444.459 -0.508357 -2.50698 0
M  V30 4680 H 444.103 -0.739225 -5.02492 0
M  V30 4681 H 444.033 1.03554 -5.16318 0
M  V30 4682 H 446.524 0.343173 -3.76339 0
M  V30 4683 H 446.837 0.0767828 -7.72762 0
M  V30 4684 H 445.182 0.0760025 -6.94958 0
M  V30 4685 H 448.373 0.34111 -4.66855 0
M  V30 4686 H 448.546 0.219862 -6.47627 0
M  V30 4687 N 441.952 1.55251 0.271103 0
M  V30 4688 C 442.9 1.89054 1.35504 0
M  V30 4689 C 443.894 0.767064 1.51038 0
M  V30 4690 O 445.1 0.951429 1.528 0
M  V30 4691 H 441.475 0.600072 0.45323 0
M  V30 4692 H 443.446 2.79598 1.04247 0
M  V30 4693 C 442.195 2.18068 2.70817 0
M  V30 4694 H 441.518 3.04005 2.59656 0
M  V30 4695 H 442.958 2.4564 3.45597 0
M  V30 4696 C 441.417 0.988901 3.2206 0
M  V30 4697 O 441.947 0.224501 4.01072 0
M  V30 4698 N 440.153 0.786085 2.79766 0
M  V30 4699 H 439.7 1.40937 2.15626 0
M  V30 4700 H 439.658 -0.00969349 3.14399 0
M  V30 4701 N 443.43 -0.535701 1.48216 0
M  V30 4702 C 444.377 -1.64083 1.62312 0
M  V30 4703 C 445.347 -1.59448 0.465365 0
M  V30 4704 O 446.532 -1.77959 0.688135 0
M  V30 4705 C 443.672 -3.0236 1.66349 0
M  V30 4706 C 442.785 -3.17273 2.93193 0
M  V30 4707 C 441.92 -4.46075 2.88427 0
M  V30 4708 C 440.959 -4.54496 4.1 0
M  V30 4709 N 440.096 -5.7468 4.03345 0
M  V30 4710 H 444.936 -1.51374 2.5669 0
M  V30 4711 H 442.473 -0.737059 1.27302 0
M  V30 4712 H 444.431 -3.82461 1.66672 0
M  V30 4713 H 443.061 -3.13854 0.754672 0
M  V30 4714 H 442.113 -2.30462 3.02641 0
M  V30 4715 H 443.425 -3.19357 3.83162 0
M  V30 4716 H 442.579 -5.3446 2.87119 0
M  V30 4717 H 441.318 -4.46504 1.96177 0
M  V30 4718 H 440.323 -3.64519 4.11589 0
M  V30 4719 H 441.548 -4.5581 5.03402 0
M  V30 4720 H 439.494 -5.76017 3.13912 0
M  V30 4721 H 439.411 -5.78234 4.87013 0
M  V30 4722 H 440.679 -6.65367 4.06087 0
M  V30 4723 N 444.908 -1.36708 -0.784132 0
M  V30 4724 C 446.154 -1.32433 -1.54379 0
M  V30 4725 C 446.509 0.0941816 -1.92169 0
M  V30 4726 O 445.802 1.04997 -1.60269 0
M  V30 4727 C 445.996 -2.18571 -2.82774 0
M  V30 4728 C 445.825 -3.68656 -2.57533 0
M  V30 4729 C 444.595 -4.37813 -2.52286 0
M  V30 4730 C 446.793 -4.61802 -2.2637 0
M  V30 4731 N 444.775 -5.7351 -2.18997 0
M  V30 4732 C 446.146 -5.85785 -2.03115 0
M  V30 4733 C 448.201 -4.50313 -2.12421 0
M  V30 4734 C 446.904 -6.99569 -1.67321 0
M  V30 4735 C 448.93 -5.63969 -1.78026 0
M  V30 4736 C 448.292 -6.86994 -1.55622 0
M  V30 4737 H 444.391 -0.539886 -0.565727 0
M  V30 4738 H 446.975 -1.71812 -0.915908 0
M  V30 4739 H 445.146 -1.81429 -3.43421 0
M  V30 4740 H 446.878 -2.05646 -3.48557 0
M  V30 4741 H 443.633 -3.90674 -2.67714 0
M  V30 4742 H 444.057 -6.45189 -2.05084 0
M  V30 4743 H 448.699 -3.55781 -2.28429 0
M  V30 4744 H 446.417 -7.94047 -1.5005 0
M  V30 4745 H 450.003 -5.57044 -1.67909 0
M  V30 4746 H 448.883 -7.7345 -1.294 0
M  V30 4747 N 446.386 1.0089 -1.21074 0
M  V30 4748 C 447.611 1.78727 -1.05221 0
M  V30 4749 C 448.036 1.83932 0.393795 0
M  V30 4750 O 447.394 1.28004 1.28393 0
M  V30 4751 C 447.442 3.20665 -1.64944 0
M  V30 4752 O 446.546 4.02632 -0.892273 0
M  V30 4753 H 445.887 0.550973 -0.370574 0
M  V30 4754 H 448.417 1.26847 -1.60534 0
M  V30 4755 H 448.427 3.71352 -1.69002 0
M  V30 4756 H 447.102 3.16191 -2.70177 0
M  V30 4757 H 445.679 3.61207 -0.926492 0
M  V30 4758 N 447.864 1.01787 1.20321 0
M  V30 4759 C 449.112 0.706538 1.89347 0
M  V30 4760 C 449.433 -0.766289 1.79313 0
M  V30 4761 O 448.703 -1.55126 1.19635 0
M  V30 4762 H 447.283 0.258348 0.700903 0
M  V30 4763 H 449.945 1.28974 1.46122 0
M  V30 4764 H 449.041 0.991066 2.95946 0
M  V30 4765 N 449.342 -1.36122 0.79427 0
M  V30 4766 C 450.588 -1.99406 0.369452 0
M  V30 4767 C 450.921 -1.62886 -1.05743 0
M  V30 4768 O 450.196 -0.886053 -1.73145 0
M  V30 4769 C 450.479 -3.56046 0.538833 0
M  V30 4770 C 450.332 -4.02404 2.00976 0
M  V30 4771 C 451.651 -4.40079 -0.0431359 0
M  V30 4772 H 448.77 -0.724397 0.135712 0
M  V30 4773 H 451.412 -1.61461 1.00151 0
M  V30 4774 H 449.562 -3.885 0.000771004 0
M  V30 4775 H 451.234 -3.80415 2.60926 0
M  V30 4776 H 449.477 -3.53765 2.51063 0
M  V30 4777 H 450.148 -5.11344 2.07922 0
M  V30 4778 H 452.624 -4.14013 0.416228 0
M  V30 4779 H 451.5 -5.48799 0.105374 0
M  V30 4780 H 451.761 -4.27264 -1.13571 0
M  V30 4781 N 450.82 -0.546701 -1.47814 0
M  V30 4782 C 452.045 -0.021268 -2.07389 0
M  V30 4783 C 452.47 1.25822 -1.39822 0
M  V30 4784 O 451.828 1.75111 -0.46968 0
M  V30 4785 C 451.876 0.168502 -3.60206 0
M  V30 4786 O 450.98 1.23347 -3.93522 0
M  V30 4787 H 450.321 -0.0466108 -0.662362 0
M  V30 4788 H 452.851 -0.759387 -1.89985 0
M  V30 4789 H 452.861 0.385982 -4.0617 0
M  V30 4790 H 451.536 -0.766075 -4.08784 0
M  V30 4791 H 450.113 0.997319 -3.59316 0
M  V30 4792 N 452.299 1.55045 -0.282633 0
M  V30 4793 C 453.576 1.9179 0.384166 0
M  V30 4794 C 453.956 1.20778 1.73136 0
M  V30 4795 O 453.304 0.33719 2.25998 0
M  V30 4796 C 453.514 3.45149 0.517014 0
M  V30 4797 C 454.862 4.17064 0.796427 0
M  V30 4798 O 455.886 3.51084 0.601535 0
M  V30 4799 O 454.745 5.33837 1.16962 0
M  V30 4800 H 451.839 0.799483 0.211558 0
M  V30 4801 H 454.385 1.66474 -0.32934 0
M  V30 4802 H 453.157 3.88922 -0.430772 0
M  V30 4803 H 452.78 3.76443 1.2797 0
M  V30 4804 N 453.777 0.010035 1.57597 0
M  V30 4805 C 454.707 -0.976857 2.12084 0
M  V30 4806 C 455.688 -1.35191 1.03235 0
M  V30 4807 O 456.873 -1.43389 1.3097 0
M  V30 4808 C 454.003 -2.26548 2.63236 0
M  V30 4809 C 452.957 -2.03175 3.76701 0
M  V30 4810 C 452.283 -3.38138 4.14206 0
M  V30 4811 C 453.583 -1.38625 5.03568 0
M  V30 4812 H 455.277 -0.523145 2.94794 0
M  V30 4813 H 452.823 -0.250195 1.4181 0
M  V30 4814 H 454.776 -2.95952 2.99984 0
M  V30 4815 H 453.5 -2.74051 1.77661 0
M  V30 4816 H 452.159 -1.36195 3.40362 0
M  V30 4817 H 451.807 -3.83363 3.25641 0
M  V30 4818 H 451.507 -3.23312 4.90656 0
M  V30 4819 H 453.031 -4.08841 4.53521 0
M  V30 4820 H 454.445 -1.98 5.38023 0
M  V30 4821 H 452.842 -1.34256 5.84889 0
M  V30 4822 H 453.912 -0.356722 4.83586 0
M  V30 4823 N 455.255 -1.55392 -0.262866 0
M  V30 4824 C 456.48 -1.80847 -1.01533 0
M  V30 4825 C 456.905 -0.584946 -1.78774 0
M  V30 4826 O 456.263 0.465701 -1.75217 0
M  V30 4827 C 456.311 -3.03866 -1.94159 0
M  V30 4828 O 455.415 -2.79662 -3.03089 0
M  V30 4829 H 454.756 -0.597441 -0.289759 0
M  V30 4830 H 457.286 -2.02553 -0.288698 0
M  V30 4831 H 457.296 -3.32872 -2.35924 0
M  V30 4832 H 455.971 -3.92564 -1.37354 0
M  V30 4833 H 454.548 -2.61781 -2.65566 0
M  V30 4834 N 456.733 0.527833 -1.48498 0
M  V30 4835 C 457.663 1.64136 -1.66077 0
M  V30 4836 C 458.644 1.62286 -0.509625 0
M  V30 4837 O 459.829 1.79449 -0.742413 0
M  V30 4838 C 456.959 3.02717 -1.70234 0
M  V30 4839 C 455.913 3.19426 -2.8487 0
M  V30 4840 C 455.239 4.5909 -2.74118 0
M  V30 4841 C 456.539 3.01993 -4.26142 0
M  V30 4842 H 458.233 1.4968 -2.593 0
M  V30 4843 H 455.779 0.718654 -1.24785 0
M  V30 4844 H 457.732 3.80491 -1.8112 0
M  V30 4845 H 456.456 3.18201 -0.735911 0
M  V30 4846 H 455.115 2.4407 -2.73542 0
M  V30 4847 H 454.763 4.71413 -1.7544 0
M  V30 4848 H 454.463 4.71214 -3.51042 0
M  V30 4849 H 455.987 5.3896 -2.86974 0
M  V30 4850 H 457.401 3.69558 -4.38292 0
M  V30 4851 H 455.798 3.2561 -5.04082 0
M  V30 4852 H 456.868 1.98396 -4.42456 0
M  V30 4853 N 458.211 1.37122 0.776871 0
M  V30 4854 C 459.158 1.3247 1.88998 0
M  V30 4855 C 460.128 0.191143 1.64997 0
M  V30 4856 O 461.313 0.379683 1.86984 0
M  V30 4857 C 458.453 1.13241 3.25992 0
M  V30 4858 C 457.566 2.35782 3.61982 0
M  V30 4859 C 456.701 2.09465 4.88158 0
M  V30 4860 C 455.74 3.279 5.16864 0
M  V30 4861 N 454.877 3.01167 6.34226 0
M  V30 4862 H 459.717 2.27642 1.9231 0
M  V30 4863 H 457.254 1.13125 0.94027 0
M  V30 4864 H 459.212 1.00115 4.0501 0
M  V30 4865 H 457.842 0.217186 3.22069 0
M  V30 4866 H 456.894 2.59666 2.77989 0
M  V30 4867 H 458.206 3.24125 3.79137 0
M  V30 4868 H 457.36 1.93341 5.75069 0
M  V30 4869 H 456.099 1.18452 4.73097 0
M  V30 4870 H 455.104 3.44569 4.2843 0
M  V30 4871 H 456.329 4.19757 5.33836 0
M  V30 4872 H 454.275 2.12779 6.20533 0
M  V30 4873 H 454.192 3.83052 6.51772 0
M  V30 4874 H 455.46 2.88649 7.24087 0
M  V30 4875 N 459.689 -1.00246 1.21608 0
M  V30 4876 C 460.621 -2.09244 0.935401 0
M  V30 4877 C 461.634 -1.62592 -0.0823594 0
M  V30 4878 O 462.823 -1.77865 0.150456 0
M  V30 4879 C 459.923 -3.36724 0.383453 0
M  V30 4880 C 459.096 -4.1245 1.45615 0
M  V30 4881 C 458.155 -5.18219 0.912991 0
M  V30 4882 O 457.181 -5.46337 1.59701 0
M  V30 4883 N 458.383 -5.7987 -0.270478 0
M  V30 4884 H 461.148 -2.33905 1.87373 0
M  V30 4885 H 458.709 -1.16748 1.12167 0
M  V30 4886 H 460.701 -4.047 0.00562157 0
M  V30 4887 H 459.271 -3.09201 -0.459758 0
M  V30 4888 H 458.491 -3.39241 2.00772 0
M  V30 4889 H 459.779 -4.59819 2.17817 0
M  V30 4890 H 459.177 -5.59381 -0.843195 0
M  V30 4891 H 457.734 -6.49126 -0.589794 0
M  V30 4892 N 461.167 -1.02423 -1.1978 0
M  V30 4893 C 462.114 -0.601023 -2.22837 0
M  V30 4894 C 463.084 0.382801 -1.61629 0
M  V30 4895 O 464.269 0.280514 -1.88727 0
M  V30 4896 C 461.409 0.0467755 -3.45068 0
M  V30 4897 C 460.522 -0.98253 -4.20678 0
M  V30 4898 C 459.657 -0.304982 -5.30324 0
M  V30 4899 C 458.696 -1.32052 -5.97686 0
M  V30 4900 N 457.833 -0.669105 -6.98904 0
M  V30 4901 H 462.673 -1.48444 -2.58396 0
M  V30 4902 H 460.21 -0.742936 -1.2696 0
M  V30 4903 H 462.168 0.439556 -4.14878 0
M  V30 4904 H 460.798 0.893796 -3.10179 0
M  V30 4905 H 459.85 -1.49341 -3.49859 0
M  V30 4906 H 461.162 -1.75455 -4.66923 0
M  V30 4907 H 460.316 0.142893 -6.06532 0
M  V30 4908 H 459.055 0.499283 -4.85138 0
M  V30 4909 H 458.06 -1.7787 -5.20233 0
M  V30 4910 H 459.285 -2.1262 -6.44957 0
M  V30 4911 H 457.231 0.115152 -6.55899 0
M  V30 4912 H 457.148 -1.37908 -7.43315 0
M  V30 4913 H 458.416 -0.245076 -7.79115 0
M  V30 4914 N 462.645 1.35699 -0.801477 0
M  V30 4915 C 463.575 2.32436 -0.222658 0
M  V30 4916 C 464.556 1.5723 0.649057 0
M  V30 4917 O 465.741 1.85324 0.580387 0
M  V30 4918 C 462.871 3.41469 0.633719 0
M  V30 4919 C 461.825 4.27774 -0.139083 0
M  V30 4920 C 461.151 5.28082 0.838666 0
M  V30 4921 C 462.451 5.04946 -1.33517 0
M  V30 4922 H 464.145 2.81094 -1.03086 0
M  V30 4923 H 461.691 1.35146 -0.497155 0
M  V30 4924 H 463.644 4.08143 1.04868 0
M  V30 4925 H 462.368 2.91408 1.47475 0
M  V30 4926 H 461.027 3.62673 -0.535156 0
M  V30 4927 H 460.675 4.7429 1.67506 0
M  V30 4928 H 460.375 5.86695 0.32594 0
M  V30 4929 H 461.899 5.97628 1.25194 0
M  V30 4930 H 463.313 5.64593 -0.995349 0
M  V30 4931 H 461.71 5.7303 -1.78202 0
M  V30 4932 H 462.78 4.35886 -2.12442 0
M  V30 4933 N 464.123 0.554532 1.47522 0
M  V30 4934 C 465.053 -0.182974 2.32782 0
M  V30 4935 C 466.034 -0.911377 1.43624 0
M  V30 4936 O 467.219 -0.892366 1.72483 0
M  V30 4937 C 464.349 -1.21513 3.25349 0
M  V30 4938 C 463.303 -0.603355 4.23726 0
M  V30 4939 C 462.629 -1.73995 5.05598 0
M  V30 4940 C 463.929 0.441121 5.20434 0
M  V30 4941 H 465.623 0.52882 2.94693 0
M  V30 4942 H 463.169 0.255759 1.41711 0
M  V30 4943 H 465.122 -1.73922 3.83835 0
M  V30 4944 H 463.846 -1.95683 2.61487 0
M  V30 4945 H 462.505 -0.10059 3.66462 0
M  V30 4946 H 462.153 -2.47063 4.38143 0
M  V30 4947 H 461.853 -1.3364 5.72201 0
M  V30 4948 H 463.377 -2.26735 5.66942 0
M  V30 4949 H 464.791 0.00319931 5.733 0
M  V30 4950 H 463.188 0.763402 5.95224 0
M  V30 4951 H 464.258 1.33799 4.66075 0
M  V30 4952 N 465.601 -1.54893 0.290851 0
M  V30 4953 C 466.831 -2.04047 -0.323818 0
M  V30 4954 C 467.239 -1.16809 -1.48837 0
M  V30 4955 O 466.582 -0.184145 -1.82775 0
M  V30 4956 C 466.644 -3.49248 -0.852395 0
M  V30 4957 C 466.308 -4.56623 0.185557 0
M  V30 4958 C 467.305 -5.09985 1.01053 0
M  V30 4959 C 464.99 -5.01252 0.324332 0
M  V30 4960 C 466.984 -6.06507 1.96031 0
M  V30 4961 C 464.671 -5.97596 1.27757 0
M  V30 4962 C 465.669 -6.50107 2.09405 0
M  V30 4963 O 465.357 -7.44565 3.03114 0
M  V30 4964 H 465.089 -0.671735 -0.0758129 0
M  V30 4965 H 467.643 -2.00947 0.425393 0
M  V30 4966 H 465.873 -3.49639 -1.65195 0
M  V30 4967 H 467.562 -3.81654 -1.38185 0
M  V30 4968 H 468.328 -4.76307 0.914129 0
M  V30 4969 H 464.207 -4.60015 -0.301213 0
M  V30 4970 H 467.751 -6.47418 2.598 0
M  V30 4971 H 463.648 -6.30691 1.37473 0
M  V30 4972 H 464.416 -7.62334 2.97976 0
M  V30 4973 N 467.08 -0.0183926 -1.57589 0
M  V30 4974 C 468.308 0.673046 -1.95647 0
M  V30 4975 C 468.723 1.66275 -0.894312 0
M  V30 4976 O 468.08 1.82072 0.124975 0
M  V30 4977 C 468.131 1.38884 -3.33756 0
M  V30 4978 O 467.852 0.438806 -4.35897 0
M  V30 4979 C 469.353 2.1731 -3.86383 0
M  V30 4980 H 466.573 0.186292 -0.644621 0
M  V30 4981 H 469.117 -0.0749748 -2.04363 0
M  V30 4982 H 467.272 2.08835 -3.26293 0
M  V30 4983 H 467.686 0.945869 -5.15901 0
M  V30 4984 H 469.16 2.62863 -4.85394 0
M  V30 4985 H 469.637 3.00764 -3.20059 0
M  V30 4986 H 470.243 1.52339 -3.97081 0
M  V30 4987 N 468.558 1.5553 0.254621 0
M  V30 4988 C 469.805 1.77 0.983736 0
M  V30 4989 C 470.133 0.58133 1.85609 0
M  V30 4990 O 469.388 -0.435621 1.9079 0
M  V30 4991 C 469.687 3.03891 1.88109 0
M  V30 4992 C 469.353 4.35597 1.16472 0
M  V30 4993 C 468.015 4.7139 0.966714 0
M  V30 4994 C 470.367 5.1705 0.656387 0
M  V30 4995 C 467.695 5.86176 0.247942 0
M  V30 4996 C 470.047 6.32581 -0.0488807 0
M  V30 4997 C 468.711 6.67 -0.258438 0
M  V30 4998 H 467.981 0.647688 0.359974 0
M  V30 4999 H 470.628 1.89802 0.254463 0
M  V30 5000 H 468.933 2.86068 2.67717 0
M  V30 5001 H 470.63 3.17701 2.44677 0
M  V30 5002 H 467.22 4.07475 1.32899 0
M  V30 5003 H 471.404 4.8986 0.796933 0
M  V30 5004 H 466.66 6.11354 0.075035 0
M  V30 5005 H 470.834 6.94942 -0.450444 0
M  V30 5006 H 468.461 7.55793 -0.817358 0
M  V30 5007 N 470.036 -0.519951 1.48776 0
M  V30 5008 C 471.266 -1.29783 1.60748 0
M  V30 5009 C 471.674 -1.87253 0.27072 0
M  V30 5010 O 471.017 -1.67628 -0.751438 0
M  V30 5011 C 471.079 -2.47984 2.60277 0
M  V30 5012 C 470.743 -2.11526 4.051 0
M  V30 5013 C 471.74 -1.66608 4.92481 0
M  V30 5014 C 469.425 -2.21742 4.50706 0
M  V30 5015 C 471.419 -1.32384 6.23501 0
M  V30 5016 C 469.106 -1.87129 5.81744 0
M  V30 5017 C 470.104 -1.42523 6.67964 0
M  V30 5018 O 469.792 -1.0837 7.96562 0
M  V30 5019 H 469.524 -0.400562 0.544542 0
M  V30 5020 H 472.078 -0.632879 1.95407 0
M  V30 5021 H 470.308 -3.17493 2.2076 0
M  V30 5022 H 471.997 -3.10036 2.61978 0
M  V30 5023 H 472.763 -1.58178 4.58481 0
M  V30 5024 H 468.642 -2.55415 3.83776 0
M  V30 5025 H 472.186 -0.974949 6.90754 0
M  V30 5026 H 468.083 -1.95204 6.15277 0
M  V30 5027 H 468.851 -1.21681 8.09405 0
M  V30 5028 N 471.514 -1.37532 -0.769588 0
M  V30 5029 C 472.762 -1.32597 -1.5252 0
M  V30 5030 C 473.083 0.0884294 -1.94799 0
M  V30 5031 O 472.353 1.03289 -1.66458 0
M  V30 5032 H 470.933 -0.487846 -0.565699 0
M  V30 5033 H 473.595 -1.72044 -0.915806 0
M  V30 5034 H 472.691 -1.96643 -2.42359 0
M  V30 5035 N 472.992 0.995999 -1.22138 0
M  V30 5036 C 473.939 2.08551 -0.988687 0
M  V30 5037 C 474.909 1.65864 0.0885021 0
M  V30 5038 O 476.094 1.90704 -0.0604589 0
M  V30 5039 C 473.234 3.40374 -0.569191 0
M  V30 5040 C 472.347 3.96421 -1.71681 0
M  V30 5041 C 471.482 5.1639 -1.2456 0
M  V30 5042 C 470.521 5.64567 -2.36497 0
M  V30 5043 N 469.658 6.75777 -1.90445 0
M  V30 5044 H 474.498 2.2779 -1.92135 0
M  V30 5045 H 472.035 1.1168 -0.957388 0
M  V30 5046 H 473.993 4.16068 -0.307166 0
M  V30 5047 H 472.623 3.21145 0.326462 0
M  V30 5048 H 471.675 3.17628 -2.09324 0
M  V30 5049 H 472.987 4.2816 -2.55891 0
M  V30 5050 H 472.141 5.99362 -0.940774 0
M  V30 5051 H 470.88 4.86266 -0.373662 0
M  V30 5052 H 469.885 4.80185 -2.67772 0
M  V30 5053 H 471.11 5.96716 -3.24202 0
M  V30 5054 H 469.056 6.47443 -1.05609 0
M  V30 5055 H 468.973 7.06818 -2.68223 0
M  V30 5056 H 470.241 7.62262 -1.63022 0
M  V30 5057 N 474.47 1.03057 1.19235 0
M  V30 5058 C 475.38 0.622922 2.26179 0
M  V30 5059 C 476.396 -0.346113 1.70523 0
M  V30 5060 O 477.572 -0.203572 2.00369 0
M  V30 5061 C 474.637 -0.0182063 3.46695 0
M  V30 5062 C 473.698 0.998546 4.17526 0
M  V30 5063 C 472.931 0.387917 5.32288 0
M  V30 5064 O 473.154 -0.808668 5.64639 0
M  V30 5065 O 472.088 1.1116 5.91546 0
M  V30 5066 H 475.914 1.51363 2.63292 0
M  V30 5067 H 473.499 0.800856 1.26122 0
M  V30 5068 H 475.381 -0.375606 4.19723 0
M  V30 5069 H 474.056 -0.882895 3.11427 0
M  V30 5070 H 472.963 1.40756 3.4661 0
M  V30 5071 H 474.296 1.83366 4.56769 0
M  V30 5072 N 475.948 -1.35272 0.808662 0
M  V30 5073 C 477.173 -2.03477 0.401475 0
M  V30 5074 C 477.598 -1.60537 -0.980279 0
M  V30 5075 O 476.956 -0.78304 -1.63518 0
M  V30 5076 C 477.004 -3.57181 0.495354 0
M  V30 5077 O 476.108 -4.09474 -0.490397 0
M  V30 5078 H 475.449 -0.642561 0.167366 0
M  V30 5079 H 477.979 -1.72824 1.09512 0
M  V30 5080 H 477.989 -4.06356 0.365912 0
M  V30 5081 H 476.664 -3.87784 1.5032 0
M  V30 5082 H 475.241 -3.71516 -0.321023 0
M  V30 5083 N 477.426 -0.562348 -1.47226 0
M  V30 5084 C 478.356 0.170627 -2.32876 0
M  V30 5085 C 479.337 0.903748 -1.44106 0
M  V30 5086 O 480.522 0.883206 -1.72954 0
M  V30 5087 C 477.652 1.19786 -3.25989 0
M  V30 5088 C 476.606 0.580875 -4.2404 0
M  V30 5089 C 475.932 1.71311 -5.06514 0
M  V30 5090 C 477.232 -0.468714 -5.20193 0
M  V30 5091 H 478.926 -0.544441 -2.94408 0
M  V30 5092 H 476.472 -0.263271 -1.41573 0
M  V30 5093 H 478.425 1.71884 -3.84752 0
M  V30 5094 H 477.149 1.94294 -2.62521 0
M  V30 5095 H 475.808 0.0811538 -3.6651 0
M  V30 5096 H 475.456 2.44736 -4.39447 0
M  V30 5097 H 475.156 1.30604 -5.72902 0
M  V30 5098 H 476.68 2.23725 -5.68137 0
M  V30 5099 H 478.094 -0.0336028 -5.7329 0
M  V30 5100 H 476.491 -0.794957 -5.94811 0
M  V30 5101 H 477.561 -1.36269 -4.65359 0
M  V30 5102 N 478.904 1.54736 -0.299062 0
M  V30 5103 C 479.814 2.27127 0.587413 0
M  V30 5104 C 480.83 1.30575 1.15005 0
M  V30 5105 O 482.006 1.63554 1.17525 0
M  V30 5106 C 479.071 2.99645 1.74395 0
M  V30 5107 C 478.132 4.11731 1.21559 0
M  V30 5108 C 477.365 4.80781 2.317 0
M  V30 5109 O 477.588 4.4918 3.51558 0
M  V30 5110 O 476.522 5.68226 1.98501 0
M  V30 5111 H 480.348 3.037 0.000250109 0
M  V30 5112 H 477.933 1.49256 -0.0655919 0
M  V30 5113 H 479.815 3.45138 2.4178 0
M  V30 5114 H 478.49 2.25969 2.31775 0
M  V30 5115 H 477.397 3.70641 0.507514 0
M  V30 5116 H 478.73 4.87379 0.687233 0
M  V30 5117 N 480.382 0.0267497 1.57577 0
M  V30 5118 C 481.33 -0.973923 2.11229 0
M  V30 5119 C 482.324 -1.33849 1.03831 0
M  V30 5120 O 483.53 -1.321 1.22269 0
M  V30 5121 H 479.905 -0.331844 0.674821 0
M  V30 5122 H 481.876 -0.496092 2.94247 0
M  V30 5123 C 480.625 -2.24798 2.65257 0
M  V30 5124 H 479.948 -1.9762 3.47543 0
M  V30 5125 H 481.388 -2.93031 3.06445 0
M  V30 5126 C 479.847 -2.97611 1.57891 0
M  V30 5127 O 480.377 -3.89629 0.97735 0
M  V30 5128 N 478.583 -2.59905 1.29992 0
M  V30 5129 H 478.13 -1.85154 1.79097 0
M  V30 5130 H 478.088 -3.08932 0.583798 0
M  V30 5131 N 481.861 -1.55662 -0.24637 0
M  V30 5132 C 483.272 -1.67953 -0.81539 0
M  V30 5133 C 483.623 -0.624302 -1.86002 0
M  V30 5134 O 482.748 0.229328 -2.15181 0
M  V30 5135 C 483.343 -3.04484 -1.48576 0
M  V30 5136 C 481.902 -3.18713 -2.00248 0
M  V30 5137 C 481.049 -2.6383 -0.853766 0
M  V30 5138 H 484 -1.58685 -0.0221692 0
M  V30 5139 H 484.021 -2.98959 -2.3538 0
M  V30 5140 H 483.533 -3.81264 -0.725222 0
M  V30 5141 H 481.634 -2.46757 -2.79181 0
M  V30 5142 H 481.747 -4.25628 -2.1995 0
M  V30 5143 H 480.111 -2.21667 -1.25442 0
M  V30 5144 H 480.894 -3.43135 -0.106302 0
M  V30 5145 N 483.339 0.512053 -1.4905 0
M  V30 5146 C 484.567 1.29116 -1.61669 0
M  V30 5147 C 484.982 1.86655 -0.283787 0
M  V30 5148 O 484.339 1.67293 0.729331 0
M  V30 5149 C 484.39 2.4293 -2.67707 0
M  V30 5150 O 484.111 1.87758 -3.95826 0
M  V30 5151 C 485.612 3.34476 -2.90931 0
M  V30 5152 H 482.832 0.392009 -0.544583 0
M  V30 5153 H 485.376 0.615881 -1.95006 0
M  V30 5154 H 483.531 3.06308 -2.37179 0
M  V30 5155 H 483.945 2.62393 -4.54148 0
M  V30 5156 H 485.419 4.10642 -3.68886 0
M  V30 5157 H 485.896 3.90801 -2.00427 0
M  V30 5158 H 486.502 2.76874 -3.22832 0
M  V30 5159 N 484.817 1.37938 0.762283 0
M  V30 5160 C 486.047 1.36685 1.54922 0
M  V30 5161 C 486.455 -0.0474099 1.89141 0
M  V30 5162 O 485.798 -1.02213 1.52638 0
M  V30 5163 C 485.86 2.14963 2.88152 0
M  V30 5164 C 485.524 3.6385 2.76518 0
M  V30 5165 C 486.521 4.57531 2.46904 0
M  V30 5166 C 484.206 4.07095 2.94243 0
M  V30 5167 C 486.2 5.92436 2.35156 0
M  V30 5168 C 483.887 5.42083 2.82116 0
M  V30 5169 C 484.885 6.34567 2.52614 0
M  V30 5170 O 484.573 7.67073 2.40529 0
M  V30 5171 H 484.305 0.469586 0.486276 0
M  V30 5172 H 486.859 1.82012 0.951876 0
M  V30 5173 H 485.089 1.6434 3.50042 0
M  V30 5174 H 486.778 2.06224 3.49609 0
M  V30 5175 H 487.544 4.25428 2.32886 0
M  V30 5176 H 483.423 3.35462 3.16206 0
M  V30 5177 H 486.967 6.64591 2.12049 0
M  V30 5178 H 482.864 5.73785 2.95704 0
M  V30 5179 H 483.632 7.77499 2.55807 0
M  V30 5180 N 486.295 -0.989507 1.22664 0
M  V30 5181 C 487.544 -1.72375 1.04737 0
M  V30 5182 C 487.857 -1.91096 -0.417316 0
M  V30 5183 O 489.063 -2.6188 -0.716334 0
M  V30 5184 C 487.519 -3.10161 1.82561 0
M  V30 5185 C 487.127 -2.99358 3.333 0
M  V30 5186 C 488.871 -3.87607 1.73093 0
M  V30 5187 C 486.778 -4.32319 4.03552 0
M  V30 5188 H 485.708 -0.646326 0.388302 0
M  V30 5189 H 488.359 -1.10437 1.46546 0
M  V30 5190 H 486.741 -3.728 1.33552 0
M  V30 5191 H 487.915 -2.45863 3.89728 0
M  V30 5192 H 486.23 -2.35392 3.43481 0
M  V30 5193 H 488.827 -4.86025 2.22899 0
M  V30 5194 H 489.17 -4.10509 0.691976 0
M  V30 5195 H 489.703 -3.31652 2.19663 0
M  V30 5196 H 486.442 -4.14616 5.07714 0
M  V30 5197 H 485.962 -4.85714 3.51911 0
M  V30 5198 H 487.641 -5.01051 4.09337 0
M  V30 5199 N 487.773 -1.03688 -1.18687 0
M  V30 5200 C 489.003 -0.756819 -1.92239 0
M  V30 5201 C 489.411 0.689374 -1.76194 0
M  V30 5202 O 488.754 1.48126 -1.08648 0
M  V30 5203 C 488.816 -1.03851 -3.44173 0
M  V30 5204 C 488.48 -2.47785 -3.83994 0
M  V30 5205 C 489.477 -3.4595 -3.88091 0
M  V30 5206 C 487.162 -2.82397 -4.154 0
M  V30 5207 C 489.156 -4.76779 -4.23038 0
M  V30 5208 C 486.843 -4.13433 -4.50018 0
M  V30 5209 C 487.841 -5.10434 -4.53813 0
M  V30 5210 O 487.529 -6.39122 -4.87625 0
M  V30 5211 H 487.261 -0.275678 -0.617234 0
M  V30 5212 H 489.815 -1.38658 -1.51536 0
M  V30 5213 H 488.045 -0.351612 -3.85098 0
M  V30 5214 H 489.734 -0.746846 -3.9897 0
M  V30 5215 H 490.5 -3.20549 -3.63969 0
M  V30 5216 H 486.379 -2.07568 -4.11627 0
M  V30 5217 H 489.923 -5.52488 -4.25914 0
M  V30 5218 H 485.82 -4.38604 -4.736 0
M  V30 5219 H 486.588 -6.43715 -5.05542 0
M  V30 5220 N 489.251 1.34841 -0.815825 0
M  V30 5221 C 490.201 2.27075 -0.205169 0
M  V30 5222 C 491.185 1.48205 0.626414 0
M  V30 5223 O 492.377 1.70306 0.482157 0
M  V30 5224 C 489.506 3.37322 0.637871 0
M  V30 5225 C 488.592 4.23609 -0.203948 0
M  V30 5226 N 488.983 4.89558 -1.27149 0
M  V30 5227 C 487.281 4.45998 0.0128971 0
M  V30 5228 C 487.982 5.53597 -1.7862 0
M  V30 5229 N 486.958 5.32535 -1.0912 0
M  V30 5230 H 490.76 2.75563 -1.02187 0
M  V30 5231 H 488.274 1.48477 -0.657912 0
M  V30 5232 H 490.271 4.02359 1.09146 0
M  V30 5233 H 488.931 2.90385 1.45281 0
M  V30 5234 H 489.942 4.9077 -1.65423 0
M  V30 5235 H 486.619 4.09837 0.79624 0
M  V30 5236 H 488.009 6.16184 -2.67892 0
M  V30 5237 N 490.729 0.570148 1.46925 0
M  V30 5238 C 491.954 0.0542592 2.07329 0
M  V30 5239 C 492.379 -1.23582 1.41806 0
M  V30 5240 O 491.737 -1.74341 0.497479 0
M  V30 5241 C 491.785 -0.111175 3.60429 0
M  V30 5242 O 490.889 -1.17071 3.95434 0
M  V30 5243 H 490.23 0.0571425 0.661537 0
M  V30 5244 H 492.76 0.789516 1.88753 0
M  V30 5245 H 492.77 -0.321315 4.06733 0
M  V30 5246 H 491.445 0.831012 4.07513 0
M  V30 5247 H 490.022 -0.940029 3.60857 0
M  V30 5248 N 492.207 -1.54576 0.307264 0
M  V30 5249 C 493.17 -2.22423 -0.553224 0
M  V30 5250 C 494.17 -1.21231 -1.05639 0
M  V30 5251 O 495.36 -1.45923 -0.951419 0
M  V30 5252 C 492.492 -2.91552 -1.76664 0
M  V30 5253 H 493.685 -2.99874 0.0396484 0
M  V30 5254 H 491.238 -1.56192 0.0581629 0
M  V30 5255 H 491.973 -2.18196 -2.39918 0
M  V30 5256 H 491.758 -3.65738 -1.41343 0
M  V30 5257 H 493.248 -3.43292 -2.37783 0
M  V30 5258 N 493.685 -0.035106 -1.57561 0
M  V30 5259 C 494.932 0.642229 -1.92046 0
M  V30 5260 C 495.26 1.7179 -0.91206 0
M  V30 5261 O 494.515 1.95544 0.0781153 0
M  V30 5262 C 494.814 1.29149 -3.3325 0
M  V30 5263 C 494.48 0.345604 -4.49574 0
M  V30 5264 C 493.142 0.0852775 -4.81124 0
M  V30 5265 C 495.494 -0.303569 -5.20315 0
M  V30 5266 C 492.822 -0.831927 -5.80772 0
M  V30 5267 C 495.174 -1.20886 -6.20942 0
M  V30 5268 C 493.838 -1.47802 -6.50931 0
M  V30 5269 H 493.108 0.235008 -0.702746 0
M  V30 5270 H 495.755 -0.0981529 -1.91248 0
M  V30 5271 H 494.06 2.10676 -3.30337 0
M  V30 5272 H 495.757 1.82223 -3.57205 0
M  V30 5273 H 492.347 0.558683 -4.24943 0
M  V30 5274 H 496.531 -0.115515 -4.96166 0
M  V30 5275 H 491.787 -1.0481 -6.02349 0
M  V30 5276 H 495.961 -1.71804 -6.74875 0
M  V30 5277 H 493.588 -2.19039 -7.2796 0
M  V30 5278 N 495.163 1.55791 0.238111 0
M  V30 5279 C 496.412 1.77234 0.962868 0
M  V30 5280 C 496.725 0.600661 1.86149 0
M  V30 5281 O 497.931 0.698315 2.62366 0
M  V30 5282 C 496.387 3.13808 1.76218 0
M  V30 5283 C 495.995 4.3865 0.910518 0
M  V30 5284 C 497.739 3.44585 2.47914 0
M  V30 5285 C 495.646 5.66252 1.70623 0
M  V30 5286 H 494.576 0.660731 0.36325 0
M  V30 5287 H 497.227 1.8221 0.217242 0
M  V30 5288 H 495.609 3.02963 2.55009 0
M  V30 5289 H 496.783 4.60507 0.164316 0
M  V30 5290 H 495.098 4.15271 0.30647 0
M  V30 5291 H 497.695 4.3714 3.07917 0
M  V30 5292 H 498.038 2.66314 3.19973 0
M  V30 5293 H 498.571 3.56685 1.76127 0
M  V30 5294 H 495.31 6.47369 1.02923 0
M  V30 5295 H 494.83 5.48483 2.42748 0
M  V30 5296 H 496.509 6.05829 2.27114 0
M  V30 5297 N 496.642 -0.504142 1.49319 0
M  V30 5298 C 497.552 -1.63248 1.68486 0
M  V30 5299 C 498.568 -1.64488 0.567432 0
M  V30 5300 O 499.744 -1.82966 0.841749 0
M  V30 5301 C 496.809 -2.99627 1.74426 0
M  V30 5302 C 495.87 -3.09039 2.97982 0
M  V30 5303 C 495.103 -4.38913 3.0363 0
M  V30 5304 O 495.326 -5.27528 2.16958 0
M  V30 5305 O 494.26 -4.53231 3.96062 0
M  V30 5306 H 498.086 -1.50008 2.64067 0
M  V30 5307 H 495.671 -0.680086 1.33023 0
M  V30 5308 H 497.553 -3.80689 1.80705 0
M  V30 5309 H 496.228 -3.13136 0.820233 0
M  V30 5310 H 495.135 -2.27177 2.97223 0
M  V30 5311 H 496.468 -3.00456 3.89855 0
M  V30 5312 N 498.12 -1.38341 -0.754957 0
M  V30 5313 C 499.36 -1.35888 -1.52689 0
M  V30 5314 C 499.724 0.0513682 -1.91931 0
M  V30 5315 O 500.925 0.200761 -2.68049 0
M  V30 5316 C 499.196 -2.28666 -2.74676 0
M  V30 5317 S 500.755 -2.4422 -3.64558 0
M  V30 5318 H 497.573 -0.482165 -0.522531 0
M  V30 5319 H 500.175 -1.74253 -0.886358 0
M  V30 5320 H 498.879 -3.30023 -2.43953 0
M  V30 5321 H 498.41 -1.91445 -3.43675 0
M  V30 5322 H 500.425 -1.66525 -4.67423 0
M  V30 5323 N 499.598 0.982988 -1.23187 0
M  V30 5324 C 500.846 1.72052 -1.06031 0
M  V30 5325 C 501.167 1.90769 0.404019 0
M  V30 5326 O 500.437 1.47446 1.28982 0
M  V30 5327 H 499.017 0.637499 -0.389363 0
M  V30 5328 H 501.679 1.18338 -1.54862 0
M  V30 5329 H 500.775 2.7111 -1.54615 0
M  V30 5330 N 501.076 1.04316 1.18135 0
M  V30 5331 C 502.301 0.768047 1.92655 0
M  V30 5332 C 502.726 -0.66904 1.758 0
M  V30 5333 O 502.084 -1.46372 1.06981 0
M  V30 5334 C 502.132 1.14239 3.42026 0
M  V30 5335 O 501.236 0.269333 4.1152 0
M  V30 5336 H 500.577 0.282436 0.600937 0
M  V30 5337 H 503.107 1.39367 1.49793 0
M  V30 5338 H 503.117 1.10538 3.92741 0
M  V30 5339 H 501.792 2.18928 3.53615 0
M  V30 5340 H 500.369 0.366175 3.71098 0
M  V30 5341 N 502.554 -1.34406 0.822964 0
M  V30 5342 C 503.794 -2.00103 0.416915 0
M  V30 5343 C 504.158 -1.63826 -1.00125 0
M  V30 5344 O 505.359 -2.22367 -1.51018 0
M  V30 5345 C 503.63 -3.52101 0.613151 0
M  V30 5346 S 505.189 -4.37774 0.299956 0
M  V30 5347 H 502.007 -0.69333 0.157527 0
M  V30 5348 H 504.609 -1.63698 1.06879 0
M  V30 5349 H 503.313 -3.75991 1.64496 0
M  V30 5350 H 502.844 -3.93364 -0.0534554 0
M  V30 5351 H 504.859 -4.8822 -0.886336 0
M  V30 5352 N 504.032 -0.577932 -1.46621 0
M  V30 5353 C 505.28 -0.061566 -2.02006 0
M  V30 5354 C 505.601 1.30117 -1.4524 0
M  V30 5355 O 504.871 1.85313 -0.63529 0
M  V30 5356 H 503.451 -0.0197692 -0.746738 0
M  V30 5357 H 506.113 -0.752631 -1.79782 0
M  V30 5358 H 505.209 0.0110238 -3.12098 0
M  V30 5359 N 505.51 1.54411 -0.315457 0
M  V30 5360 C 506.458 2.25514 0.569771 0
M  V30 5361 C 507.452 1.2663 1.12522 0
M  V30 5362 O 508.658 1.44434 1.07419 0
M  V30 5363 H 505.033 0.724257 0.202376 0
M  V30 5364 H 507.004 2.98354 -0.0522895 0
M  V30 5365 C 505.753 3.02004 1.72305 0
M  V30 5366 H 505.076 3.77906 1.30488 0
M  V30 5367 H 506.516 3.55014 2.31821 0
M  V30 5368 C 504.975 2.09822 2.63583 0
M  V30 5369 O 505.505 1.67574 3.65078 0
M  V30 5370 N 503.711 1.75478 2.31637 0
M  V30 5371 H 503.258 2.10032 1.49145 0
M  V30 5372 H 503.216 1.14079 2.92973 0
M  V30 5373 N 506.988 0.0434614 1.5754 0
M  V30 5374 C 508.265 -0.671479 1.83713 0
M  V30 5375 C 508.645 -1.89495 0.930315 0
M  V30 5376 O 507.993 -2.28498 -0.0105639 0
M  V30 5377 C 508.203 -1.0361 3.33266 0
M  V30 5378 C 509.551 -1.42167 4.00092 0
M  V30 5379 O 510.575 -1.12866 3.37846 0
M  V30 5380 O 509.434 -1.96817 5.09829 0
M  V30 5381 H 506.528 -0.330726 0.75799 0
M  V30 5382 H 509.074 0.0722373 1.69546 0
M  V30 5383 H 507.846 -0.165938 3.90948 0
M  V30 5384 H 507.469 -1.83751 3.52592 0
M  V30 5385 N 508.466 -1.55915 -0.229846 0
M  V30 5386 C 509.691 -1.8296 -0.976743 0
M  V30 5387 C 510.116 -0.622735 -1.77493 0
M  V30 5388 O 509.474 0.428431 -1.76165 0
M  V30 5389 C 509.522 -3.07916 -1.8767 0
M  V30 5390 O 508.626 -2.86028 -2.97088 0
M  V30 5391 H 507.967 -0.603453 -0.277021 0
M  V30 5392 H 510.497 -2.0312 -0.245669 0
M  V30 5393 H 510.507 -3.37802 -2.2881 0
M  V30 5394 H 509.182 -3.95389 -1.28996 0
M  V30 5395 H 507.759 -2.67355 -2.59954 0
M  V30 5396 N 509.944 0.496216 -1.49584 0
M  V30 5397 C 511.19 1.24918 -1.60521 0
M  V30 5398 C 511.545 1.90197 -0.290352 0
M  V30 5399 O 510.838 1.77967 0.709813 0
M  V30 5400 C 511.032 2.3359 -2.705 0
M  V30 5401 C 510.861 1.78969 -4.12553 0
M  V30 5402 C 509.631 1.60057 -4.79281 0
M  V30 5403 C 511.829 1.29883 -4.97629 0
M  V30 5404 N 509.811 1.00415 -6.05632 0
M  V30 5405 C 511.182 0.824057 -6.14499 0
M  V30 5406 C 513.237 1.18501 -4.83593 0
M  V30 5407 C 511.94 0.246721 -7.18877 0
M  V30 5408 C 513.966 0.621634 -5.88124 0
M  V30 5409 C 513.328 0.157116 -7.04225 0
M  V30 5410 H 509.427 0.446896 -0.641722 0
M  V30 5411 H 512.011 0.555456 -1.86609 0
M  V30 5412 H 510.182 3.00418 -2.46178 0
M  V30 5413 H 511.914 3.00628 -2.70933 0
M  V30 5414 H 508.669 1.84562 -4.36158 0
M  V30 5415 H 509.093 0.725074 -6.73106 0
M  V30 5416 H 513.735 1.53012 -3.94141 0
M  V30 5417 H 511.453 -0.110651 -8.08024 0
M  V30 5418 H 515.039 0.536279 -5.79323 0
M  V30 5419 H 513.919 -0.272009 -7.83728 0
M  V30 5420 N 511.423 1.38739 0.74761 0
M  V30 5421 C 512.353 1.39173 1.87492 0
M  V30 5422 C 513.334 0.256794 1.6815 0
M  V30 5423 O 514.519 0.460762 1.88655 0
M  V30 5424 C 511.649 1.22197 3.25093 0
M  V30 5425 C 510.603 2.32957 3.59047 0
M  V30 5426 C 509.929 2.01082 4.95449 0
M  V30 5427 C 511.229 3.75237 3.6331 0
M  V30 5428 H 512.923 2.3351 1.87386 0
M  V30 5429 H 510.469 1.12399 0.900134 0
M  V30 5430 H 512.422 1.21124 4.03617 0
M  V30 5431 H 511.146 0.243241 3.25693 0
M  V30 5432 H 509.805 2.33226 2.82845 0
M  V30 5433 H 509.453 1.01678 4.92616 0
M  V30 5434 H 509.153 2.75267 5.19136 0
M  V30 5435 H 510.677 2.01638 5.76346 0
M  V30 5436 H 512.091 3.76966 4.31937 0
M  V30 5437 H 510.488 4.48677 3.98509 0
M  V30 5438 H 511.558 4.07122 2.634 0
M  V30 5439 N 512.901 -0.976442 1.23707 0
M  V30 5440 C 514.129 -1.75341 1.09833 0
M  V30 5441 C 514.544 -1.8553 -0.349885 0
M  V30 5442 O 513.901 -1.33732 -1.24185 0
M  V30 5443 C 513.952 -3.17833 1.72233 0
M  V30 5444 O 513.673 -3.08167 3.11391 0
M  V30 5445 C 515.174 -4.11906 1.63853 0
M  V30 5446 H 512.394 -0.550137 0.384175 0
M  V30 5447 H 514.938 -1.2265 1.63638 0
M  V30 5448 H 513.093 -3.67538 1.22452 0
M  V30 5449 H 513.507 -3.97897 3.41729 0
M  V30 5450 H 514.981 -5.09579 2.12211 0
M  V30 5451 H 515.458 -4.35109 0.598092 0
M  V30 5452 H 516.064 -3.68107 2.13019 0
M  V30 5453 N 514.379 -1.04941 -1.1758 0
M  V30 5454 C 515.627 -0.756492 -1.87408 0
M  V30 5455 C 515.948 0.718478 -1.81281 0
M  V30 5456 O 515.218 1.519 -1.23706 0
M  V30 5457 H 513.798 -0.276841 -0.693807 0
M  V30 5458 H 516.46 -1.32803 -1.42652 0
M  V30 5459 H 515.556 -1.06918 -2.93215 0
M  V30 5460 N 515.857 1.33968 -0.830081 0
M  V30 5461 C 516.805 2.31301 -0.245435 0
M  V30 5462 C 517.799 1.57734 0.617762 0
M  V30 5463 O 519.005 1.72674 0.508303 0
M  V30 5464 H 515.38 0.749552 -0.0606316 0
M  V30 5465 H 517.351 2.78129 -1.08105 0
M  V30 5466 C 516.1 3.42961 0.572084 0
M  V30 5467 H 515.423 3.99714 -0.0828118 0
M  V30 5468 H 516.863 4.13286 0.94715 0
M  V30 5469 C 515.322 2.88043 1.74737 0
M  V30 5470 O 515.852 2.83508 2.8458 0
M  V30 5471 N 514.058 2.44768 1.56642 0
M  V30 5472 H 513.605 2.48656 0.672901 0
M  V30 5473 H 513.563 2.08375 2.3543 0
M  V30 5474 N 517.335 0.585699 1.46312 0
M  V30 5475 C 518.298 -0.135673 2.28798 0
M  V30 5476 C 519.298 -0.815988 1.38558 0
M  V30 5477 O 520.488 -0.667487 1.60904 0
M  V30 5478 C 517.62 -1.20163 3.1902 0
M  V30 5479 H 518.813 0.589257 2.94054 0
M  V30 5480 H 516.366 0.343794 1.52472 0
M  V30 5481 H 517.101 -1.95804 2.58517 0
M  V30 5482 H 516.886 -0.718282 3.85465 0
M  V30 5483 H 518.376 -1.70749 3.81096 0
M  V30 5484 N 518.813 -1.54241 0.323641 0
M  V30 5485 C 520.062 -1.9975 -0.279806 0
M  V30 5486 C 520.375 -1.2156 -1.5324 0
M  V30 5487 O 521.581 -1.57447 -2.21185 0
M  V30 5488 C 520.037 -3.55686 -0.549115 0
M  V30 5489 C 519.645 -4.4271 0.686432 0
M  V30 5490 C 521.389 -4.09663 -1.11251 0
M  V30 5491 C 519.296 -5.90119 0.389022 0
M  V30 5492 H 518.226 -0.746177 -0.10833 0
M  V30 5493 H 520.877 -1.78248 0.435877 0
M  V30 5494 H 519.259 -3.73176 -1.32499 0
M  V30 5495 H 520.433 -4.36996 1.46188 0
M  V30 5496 H 518.748 -3.99623 1.17005 0
M  V30 5497 H 521.345 -5.17386 -1.34965 0
M  V30 5498 H 521.688 -3.61651 -2.06191 0
M  V30 5499 H 522.221 -3.95806 -0.39782 0
M  V30 5500 H 518.96 -6.42326 1.30759 0
M  V30 5501 H 518.48 -5.98785 -0.348722 0
M  V30 5502 H 520.159 -6.47 -0.0011164 0
M  V30 5503 N 520.291 -0.0518155 -1.57515 0
M  V30 5504 C 521.223 0.951542 -2.08515 0
M  V30 5505 C 522.236 1.27436 -1.01311 0
M  V30 5506 O 523.425 1.23504 -1.28876 0
M  V30 5507 C 520.525 2.27291 -2.5138 0
M  V30 5508 C 519.698 2.13191 -3.81927 0
M  V30 5509 C 518.757 3.28458 -4.11098 0
M  V30 5510 O 517.783 3.04334 -4.81009 0
M  V30 5511 N 518.985 4.52954 -3.63061 0
M  V30 5512 H 521.75 0.516242 -2.9522 0
M  V30 5513 H 519.311 0.13441 -1.61341 0
M  V30 5514 H 521.303 3.03272 -2.67971 0
M  V30 5515 H 519.873 2.62386 -1.69919 0
M  V30 5516 H 519.093 1.21798 -3.74912 0
M  V30 5517 H 520.381 2.00999 -4.67415 0
M  V30 5518 H 519.779 4.75444 -3.06545 0
M  V30 5519 H 518.336 5.26026 -3.84889 0
M  V30 5520 N 521.769 1.56035 0.221574 0
M  V30 5521 C 523.017 1.78693 0.944102 0
M  V30 5522 C 523.338 0.620317 1.8487 0
M  V30 5523 O 522.608 -0.362784 1.92512 0
M  V30 5524 H 521.188 0.659082 0.351597 0
M  V30 5525 H 523.85 1.93497 0.233435 0
M  V30 5526 H 522.946 2.70837 1.55093 0
M  V30 5527 N 523.247 -0.488276 1.49845 0
M  V30 5528 C 524.494 -1.24157 1.59973 0
M  V30 5529 C 524.822 -1.92293 0.292182 0
M  V30 5530 O 524.077 -1.81942 -0.720813 0
M  V30 5531 C 524.376 -2.32152 2.71735 0
M  V30 5532 C 524.042 -1.81387 4.12807 0
M  V30 5533 C 522.704 -1.67262 4.51195 0
M  V30 5534 C 525.056 -1.43537 5.01045 0
M  V30 5535 C 522.384 -1.13685 5.7558 0
M  V30 5536 C 524.736 -0.914081 6.25961 0
M  V30 5537 C 523.4 -0.759327 6.63167 0
M  V30 5538 H 522.67 -0.454322 0.585383 0
M  V30 5539 H 525.317 -0.540261 1.83721 0
M  V30 5540 H 523.622 -3.08122 2.42008 0
M  V30 5541 H 525.319 -2.90164 2.76778 0
M  V30 5542 H 521.909 -1.93344 3.82513 0
M  V30 5543 H 526.093 -1.53292 4.72033 0
M  V30 5544 H 521.349 -1.00426 6.03096 0
M  V30 5545 H 525.523 -0.612066 6.93705 0
M  V30 5546 H 523.15 -0.342002 7.5943 0
M  V30 5547 N 524.725 -1.39134 -0.740242 0
M  V30 5548 C 525.688 -1.37217 -1.83587 0
M  V30 5549 C 526.688 -0.270221 -1.58513 0
M  V30 5550 O 527.878 -0.527843 -1.6601 0
M  V30 5551 C 525.01 -1.13959 -3.21288 0
M  V30 5552 H 526.203 -2.34705 -1.86691 0
M  V30 5553 H 523.756 -1.24622 -0.94335 0
M  V30 5554 H 524.491 -0.17131 -3.23847 0
M  V30 5555 H 524.276 -1.93754 -3.40884 0
M  V30 5556 H 525.766 -1.15346 -4.01354 0
M  V30 5557 N 526.204 0.969867 -1.24223 0
M  V30 5558 C 527.444 1.72754 -1.0925 0
M  V30 5559 C 527.808 1.88541 0.362787 0
M  V30 5560 O 529.009 2.61217 0.633969 0
M  V30 5561 C 527.28 3.08204 -1.80957 0
M  V30 5562 S 528.839 3.99418 -1.81688 0
M  V30 5563 H 525.657 0.593981 -0.390778 0
M  V30 5564 H 528.259 1.15792 -1.5752 0
M  V30 5565 H 526.963 2.94372 -2.85961 0
M  V30 5566 H 526.494 3.70232 -1.33012 0
M  V30 5567 H 528.509 4.8828 -0.883001 0
M  V30 5568 N 527.682 1.05563 1.17022 0
M  V30 5569 C 528.93 0.76642 1.87004 0
M  V30 5570 C 529.251 -0.708854 1.8166 0
M  V30 5571 O 528.521 -1.51242 1.2451 0
M  V30 5572 H 527.101 0.280516 0.692329 0
M  V30 5573 H 529.763 1.33557 1.41945 0
M  V30 5574 H 528.859 1.08472 2.92644 0
M  V30 5575 N 529.16 -1.33526 0.837174 0
M  V30 5576 C 530.4 -1.99649 0.438115 0
M  V30 5577 C 530.764 -1.64879 -0.983816 0
M  V30 5578 O 531.965 -2.23956 -1.48651 0
M  V30 5579 C 530.236 -3.51431 0.650461 0
M  V30 5580 S 531.795 -4.37431 0.346371 0
M  V30 5581 H 528.613 -0.69162 0.164872 0
M  V30 5582 H 531.215 -1.62556 1.08609 0
M  V30 5583 H 529.919 -3.74225 1.68475 0
M  V30 5584 H 529.45 -3.93398 -0.0117309 0
M  V30 5585 H 531.465 -4.89132 -0.834504 0
M  V30 5586 N 530.638 -0.59345 -1.46 0
M  V30 5587 C 531.886 -0.082988 -2.0193 0
M  V30 5588 C 532.207 1.28569 -1.46612 0
M  V30 5589 O 531.477 1.84629 -0.654909 0
M  V30 5590 H 530.057 -0.0276882 -0.746487 0
M  V30 5591 H 532.719 -0.771657 -1.78973 0
M  V30 5592 H 531.815 -0.022079 -3.12092 0
M  V30 5593 N 532.116 1.54067 -0.331816 0
M  V30 5594 C 533.079 2.23275 0.517768 0
M  V30 5595 C 534.079 1.22897 1.03697 0
M  V30 5596 O 535.269 1.47419 0.928084 0
M  V30 5597 C 532.401 2.94326 1.72004 0
M  V30 5598 H 533.594 2.99773 -0.0873507 0
M  V30 5599 H 531.147 1.56079 -0.0830042 0
M  V30 5600 H 531.882 2.21986 2.36417 0
M  V30 5601 H 531.667 3.67941 1.35507 0
M  V30 5602 H 533.157 3.47031 2.32291 0
M  V30 5603 N 533.594 0.0601682 1.57485 0
M  V30 5604 C 534.819 -0.624416 1.97777 0
M  V30 5605 C 535.244 -1.63051 0.937867 0
M  V30 5606 O 534.602 -1.81036 -0.0978845 0
M  V30 5607 C 534.65 -1.27979 3.37126 0
M  V30 5608 O 533.754 -2.39556 3.35688 0
M  V30 5609 H 533.095 -0.161581 0.64404 0
M  V30 5610 H 535.625 0.131237 2.04179 0
M  V30 5611 H 535.635 -1.62937 3.74053 0
M  V30 5612 H 534.31 -0.542501 4.12347 0
M  V30 5613 H 532.887 -2.06478 3.10517 0
M  V30 5614 N 535.072 -1.5615 -0.213296 0
M  V30 5615 C 536.302 -1.83372 -0.951757 0
M  V30 5616 C 536.71 -0.638158 -1.78113 0
M  V30 5617 O 536.053 0.402609 -1.79234 0
M  V30 5618 C 536.115 -3.04444 -1.91192 0
M  V30 5619 C 535.779 -4.39107 -1.26627 0
M  V30 5620 C 536.776 -5.15794 -0.652087 0
M  V30 5621 C 534.461 -4.85834 -1.27556 0
M  V30 5622 C 536.455 -6.37376 -0.055814 0
M  V30 5623 C 534.142 -6.07356 -0.675451 0
M  V30 5624 C 535.14 -6.82967 -0.0666367 0
M  V30 5625 O 534.828 -8.0219 0.524119 0
M  V30 5626 H 534.56 -0.613398 -0.284111 0
M  V30 5627 H 537.114 -2.04096 -0.231112 0
M  V30 5628 H 535.344 -2.79559 -2.67178 0
M  V30 5629 H 537.033 -3.18466 -2.51662 0
M  V30 5630 H 537.799 -4.80796 -0.637172 0
M  V30 5631 H 533.678 -4.26949 -1.73883 0
M  V30 5632 H 537.222 -6.96334 0.420004 0
M  V30 5633 H 533.119 -6.41825 -0.687806 0
M  V30 5634 H 533.887 -8.17426 0.419243 0
M  V30 5635 N 536.55 0.480323 -1.50102 0
M  V30 5636 C 537.778 1.25657 -1.64371 0
M  V30 5637 C 538.193 1.86011 -0.323316 0
M  V30 5638 O 537.55 1.68803 0.693682 0
M  V30 5639 C 537.601 2.37197 -2.728 0
M  V30 5640 O 537.322 1.7932 -3.9972 0
M  V30 5641 C 538.823 3.2823 -2.9796 0
M  V30 5642 H 536.043 0.380369 -0.552775 0
M  V30 5643 H 538.587 0.574379 -1.96268 0
M  V30 5644 H 536.742 3.01208 -2.43623 0
M  V30 5645 H 537.156 2.52701 -4.59611 0
M  V30 5646 H 538.63 4.02725 -3.77513 0
M  V30 5647 H 539.107 3.86462 -2.08671 0
M  V30 5648 H 539.713 2.69964 -3.28633 0
M  V30 5649 N 538.028 1.39524 0.732853 0
M  V30 5650 C 538.991 1.38189 1.82857 0
M  V30 5651 C 539.991 0.278624 1.58368 0
M  V30 5652 O 541.181 0.536639 1.65728 0
M  V30 5653 C 538.313 1.15661 3.2068 0
M  V30 5654 H 539.506 2.35692 1.85444 0
M  V30 5655 H 537.059 1.2512 0.936728 0
M  V30 5656 H 537.794 0.188482 3.23752 0
M  V30 5657 H 537.579 1.95559 3.39852 0
M  V30 5658 H 539.069 1.17472 4.00737 0
M  V30 5659 N 539.506 -0.963266 1.24736 0
M  V30 5660 C 540.454 -2.07985 1.04139 0
M  V30 5661 C 541.448 -1.69381 -0.0250556 0
M  V30 5662 O 542.654 -1.79531 0.129863 0
M  V30 5663 H 539.029 -0.680627 0.319768 0
M  V30 5664 H 541 -2.22517 1.98818 0
M  V30 5665 C 539.749 -3.4123 0.667615 0
M  V30 5666 H 539.072 -3.71397 1.48 0
M  V30 5667 H 540.512 -4.20244 0.563136 0
M  V30 5668 C 538.971 -3.3104 -0.625647 0
M  V30 5669 O 539.501 -3.65334 -1.67016 0
M  V30 5670 N 537.707 -2.84168 -0.608033 0
M  V30 5671 H 537.254 -2.56458 0.242323 0
M  V30 5672 H 537.212 -2.77732 -1.47352 0
M  V30 5673 N 540.985 -1.06182 -1.16461 0
M  V30 5674 C 542.262 -0.691364 -1.82974 0
M  V30 5675 C 542.642 0.827377 -1.9421 0
M  V30 5676 O 541.99 1.73723 -1.48434 0
M  V30 5677 C 542.2 -1.39199 -3.20038 0
M  V30 5678 C 543.548 -1.53647 -3.95825 0
M  V30 5679 O 544.572 -1.35181 -3.29552 0
M  V30 5680 O 543.431 -1.83932 -5.14618 0
M  V30 5681 H 540.525 -0.244605 -0.789998 0
M  V30 5682 H 543.071 -1.16203 -1.23673 0
M  V30 5683 H 541.843 -2.42766 -3.06888 0
M  V30 5684 H 541.466 -0.911335 -3.87015 0
M  V30 5685 N 542.463 1.3308 -0.844243 0
M  V30 5686 C 543.709 1.97898 -0.443206 0
M  V30 5687 C 544.042 1.66699 0.99625 0
M  V30 5688 O 543.317 0.949704 1.69738 0
M  V30 5689 C 543.6 3.53801 -0.670606 0
M  V30 5690 C 543.453 3.94667 -2.15772 0
M  V30 5691 C 544.772 4.39936 -0.120226 0
M  V30 5692 H 541.891 0.718861 -0.162504 0
M  V30 5693 H 544.533 1.57633 -1.06075 0
M  V30 5694 H 542.683 3.88229 -0.14496 0
M  V30 5695 H 544.355 3.70469 -2.74865 0
M  V30 5696 H 542.598 3.44203 -2.6402 0
M  V30 5697 H 543.269 5.03275 -2.26757 0
M  V30 5698 H 545.745 4.12183 -0.5696 0
M  V30 5699 H 544.621 5.4803 -0.308984 0
M  V30 5700 H 544.882 4.31184 0.976347 0
M  V30 5701 N 543.941 0.601185 1.45683 0
M  V30 5702 C 544.851 -0.123395 2.34275 0
M  V30 5703 C 545.867 -0.86702 1.5086 0
M  V30 5704 O 547.043 -0.826049 1.8368 0
M  V30 5705 C 544.108 -1.11237 3.2837 0
M  V30 5706 C 543.169 -0.371405 4.2769 0
M  V30 5707 C 542.402 -1.31327 5.1729 0
M  V30 5708 O 542.625 -2.55078 5.10188 0
M  V30 5709 O 541.559 -0.813811 5.96373 0
M  V30 5710 H 545.385 0.604483 2.97623 0
M  V30 5711 H 542.97 0.361477 1.44961 0
M  V30 5712 H 544.852 -1.68214 3.8637 0
M  V30 5713 H 543.527 -1.82139 2.67595 0
M  V30 5714 H 542.434 0.24067 3.73325 0
M  V30 5715 H 543.767 0.296998 4.91303 0
M  V30 5716 N 545.419 -1.53889 0.339982 0
M  V30 5717 C 546.665 -2.01152 -0.258003 0
M  V30 5718 C 546.998 -1.22749 -1.50487 0
M  V30 5719 O 546.273 -0.314156 -1.91946 0
M  V30 5720 C 546.556 -3.55468 -0.575717 0
M  V30 5721 C 546.409 -4.44584 0.682996 0
M  V30 5722 C 547.728 -4.1768 -1.38677 0
M  V30 5723 H 544.847 -0.731198 -0.0922992 0
M  V30 5724 H 547.489 -1.84352 0.459814 0
M  V30 5725 H 545.639 -3.69914 -1.18725 0
M  V30 5726 H 547.311 -4.41981 1.32102 0
M  V30 5727 H 545.554 -4.13592 1.3086 0
M  V30 5728 H 546.225 -5.5043 0.416001 0
M  V30 5729 H 548.701 -4.0691 -0.869705 0
M  V30 5730 H 547.577 -5.25734 -1.57783 0
M  V30 5731 H 547.838 -3.72069 -2.38782 0
M  V30 5732 N 546.897 -0.0685191 -1.57451 0
M  V30 5733 C 547.829 0.929372 -2.09512 0
M  V30 5734 C 548.842 1.26354 -1.02657 0
M  V30 5735 O 550.031 1.2213 -1.30179 0
M  V30 5736 C 547.131 2.24612 -2.53777 0
M  V30 5737 C 546.304 2.09128 -3.84167 0
M  V30 5738 C 545.363 3.24079 -4.14559 0
M  V30 5739 O 544.389 2.99215 -4.8421 0
M  V30 5740 N 545.591 4.49077 -3.67845 0
M  V30 5741 H 548.356 0.484901 -2.95751 0
M  V30 5742 H 545.917 0.11729 -1.61475 0
M  V30 5743 H 547.909 3.00412 -2.71172 0
M  V30 5744 H 546.479 2.60569 -1.72692 0
M  V30 5745 H 545.699 1.17815 -3.76182 0
M  V30 5746 H 546.987 1.9603 -4.69521 0
M  V30 5747 H 546.385 4.72165 -3.11571 0
M  V30 5748 H 544.942 5.21915 -3.90446 0
M  V30 5749 N 548.375 1.56261 0.205012 0
M  V30 5750 C 549.6 1.84491 0.947512 0
M  V30 5751 C 550.025 0.650894 1.76479 0
M  V30 5752 O 549.383 -0.40035 1.76824 0
M  V30 5753 C 549.431 3.10863 1.82747 0
M  V30 5754 O 548.535 2.90719 2.925 0
M  V30 5755 H 547.876 0.607783 0.267386 0
M  V30 5756 H 550.406 2.03485 0.213323 0
M  V30 5757 H 550.416 3.41399 2.23407 0
M  V30 5758 H 549.091 3.97392 1.2269 0
M  V30 5759 H 547.668 2.71457 2.55667 0
M  V30 5760 N 549.853 -0.472356 1.50355 0
M  V30 5761 C 551.078 -1.25251 1.65309 0
M  V30 5762 C 551.503 -1.85081 0.335643 0
M  V30 5763 O 550.861 -1.67227 -0.700335 0
M  V30 5764 C 550.909 -2.3379 2.74544 0
M  V30 5765 O 550.013 -3.38401 2.35709 0
M  V30 5766 H 549.354 -0.368539 0.552336 0
M  V30 5767 H 551.884 -0.562271 1.96722 0
M  V30 5768 H 551.894 -2.79121 2.97583 0
M  V30 5769 H 550.569 -1.89614 3.70161 0
M  V30 5770 H 549.146 -2.9879 2.23112 0
M  V30 5771 N 551.331 -1.39911 -0.725443 0
M  V30 5772 C 552.579 -1.37382 -1.48224 0
M  V30 5773 C 552.9 0.0264107 -1.94982 0
M  V30 5774 O 552.17 0.979408 -1.6966 0
M  V30 5775 H 550.75 -0.505596 -0.549892 0
M  V30 5776 H 553.412 -1.7487 -0.860608 0
M  V30 5777 H 552.508 -2.04254 -2.3598 0
M  V30 5778 N 552.809 0.956637 -1.25245 0
M  V30 5779 C 553.742 2.05232 -0.99775 0
M  V30 5780 C 554.72 1.62439 0.0723137 0
M  V30 5781 O 555.904 1.88381 -0.066926 0
M  V30 5782 C 553.031 3.34871 -0.507861 0
M  V30 5783 C 552.077 3.96625 -1.56815 0
M  V30 5784 S 552.91 4.32853 -3.15276 0
M  V30 5785 C 554.066 5.65613 -2.68017 0
M  V30 5786 H 554.299 2.26521 -1.9255 0
M  V30 5787 H 551.832 1.09601 -1.08752 0
M  V30 5788 H 553.79 4.09845 -0.231858 0
M  V30 5789 H 552.451 3.11551 0.399356 0
M  V30 5790 H 551.644 4.90087 -1.17604 0
M  V30 5791 H 551.246 3.28124 -1.79473 0
M  V30 5792 H 553.538 6.43635 -2.11518 0
M  V30 5793 H 554.481 6.09693 -3.60112 0
M  V30 5794 H 554.889 5.24751 -2.0808 0
M  V30 5795 N 554.287 1.06798 1.15896 0
M  V30 5796 C 555.536 0.782796 1.8589 0
M  V30 5797 C 555.849 -0.693498 1.82893 0
M  V30 5798 O 557.055 -1.09325 2.48516 0
M  V30 5799 C 555.511 1.3502 3.33613 0
M  V30 5800 C 555.119 2.8571 3.45071 0
M  V30 5801 C 556.863 1.14278 4.08829 0
M  V30 5802 C 554.77 3.35669 4.86909 0
M  V30 5803 H 553.7 0.289149 0.696354 0
M  V30 5804 H 556.351 1.28734 1.30766 0
M  V30 5805 H 554.733 0.773407 3.88374 0
M  V30 5806 H 555.907 3.49385 3.00445 0
M  V30 5807 H 554.222 3.05178 2.83294 0
M  V30 5808 H 556.819 1.49087 5.13495 0
M  V30 5809 H 557.162 0.0814575 4.1622 0
M  V30 5810 H 557.695 1.68563 3.60321 0
M  V30 5811 H 554.434 4.41302 4.84698 0
M  V30 5812 H 553.954 2.76745 5.32139 0
M  V30 5813 H 555.633 3.31296 5.55745 0
M  V30 5814 N 555.766 -1.3263 0.851289 0
M  V30 5815 C 556.713 -2.28952 0.291469 0
M  V30 5816 C 557.683 -1.54897 -0.599676 0
M  V30 5817 O 558.868 -1.83137 -0.535305 0
M  V30 5818 C 556.008 -3.41206 -0.516992 0
M  V30 5819 C 555.121 -4.30148 0.399566 0
M  V30 5820 C 554.256 -5.29527 -0.4212 0
M  V30 5821 C 553.295 -6.10112 0.492969 0
M  V30 5822 N 552.432 -7.01499 -0.290414 0
M  V30 5823 H 557.272 -2.76228 1.11813 0
M  V30 5824 H 554.809 -1.35907 0.562826 0
M  V30 5825 H 556.767 -4.05005 -1.00132 0
M  V30 5826 H 555.397 -2.9509 -1.30851 0
M  V30 5827 H 554.449 -3.66959 1.00227 0
M  V30 5828 H 555.761 -4.8649 1.1013 0
M  V30 5829 H 554.915 -5.98914 -0.968832 0
M  V30 5830 H 553.654 -4.73794 -1.15632 0
M  V30 5831 H 552.659 -5.39632 1.05251 0
M  V30 5832 H 553.884 -6.6793 1.22664 0
M  V30 5833 H 551.83 -6.48199 -1.00868 0
M  V30 5834 H 551.747 -7.55178 0.352354 0
M  V30 5835 H 553.015 -7.75176 -0.819882 0
M  V30 5836 N 557.244 -0.608902 -1.45362 0
M  V30 5837 C 558.655 -0.189511 -1.85736 0
M  V30 5838 C 559.006 1.2539 -1.50903 0
M  V30 5839 O 558.131 1.95094 -0.936347 0
M  V30 5840 C 558.726 -0.33716 -3.37118 0
M  V30 5841 C 557.285 0.0275487 -3.7639 0
M  V30 5842 C 556.432 -0.660983 -2.69307 0
M  V30 5843 H 559.383 -0.815499 -1.36144 0
M  V30 5844 H 559.404 0.430257 -3.7806 0
M  V30 5845 H 558.916 -1.38779 -3.62439 0
M  V30 5846 H 557.017 1.0773 -3.56686 0
M  V30 5847 H 557.13 -0.367018 -4.77692 0
M  V30 5848 H 555.494 -0.0984958 -2.54509 0
M  V30 5849 H 556.277 -1.71377 -2.97464 0
M  V30 5850 N 558.722 1.53707 -0.348139 0
M  V30 5851 C 559.67 2.26671 0.521808 0
M  V30 5852 C 560.664 1.28988 1.09811 0
M  V30 5853 O 561.87 1.4668 1.04332 0
M  V30 5854 H 558.245 0.728387 0.186968 0
M  V30 5855 H 560.216 2.98176 -0.115563 0
M  V30 5856 C 558.965 3.05591 1.6586 0
M  V30 5857 H 558.288 3.80589 1.22443 0
M  V30 5858 H 559.728 3.59851 2.24239 0
M  V30 5859 C 558.187 2.15366 2.59073 0
M  V30 5860 O 558.717 1.7528 3.61441 0
M  V30 5861 N 556.923 1.80352 2.27863 0
M  V30 5862 H 556.47 2.13149 1.44656 0
M  V30 5863 H 556.428 1.20268 2.90488 0
M  V30 5864 N 560.2 0.0768682 1.57412 0
M  V30 5865 C 561.163 -0.873949 2.11884 0
M  V30 5866 C 562.163 -1.22301 1.04398 0
M  V30 5867 O 563.353 -1.15545 1.30365 0
M  V30 5868 C 560.485 -2.17575 2.62438 0
M  V30 5869 H 561.678 -0.401278 2.97203 0
M  V30 5870 H 559.231 -0.171904 1.55352 0
M  V30 5871 H 559.966 -2.69368 1.80587 0
M  V30 5872 H 559.751 -1.93534 3.41009 0
M  V30 5873 H 561.241 -2.85631 3.04639 0
M  V30 5874 N 561.678 -1.56367 -0.196722 0
M  V30 5875 C 562.608 -1.97442 -1.24655 0
M  V30 5876 C 563.589 -0.846147 -1.47561 0
M  V30 5877 O 564.774 -1.11035 -1.59326 0
M  V30 5878 C 561.904 -2.31253 -2.59112 0
M  V30 5879 C 560.858 -3.46804 -2.50821 0
M  V30 5880 C 560.184 -3.66286 -3.89536 0
M  V30 5881 C 561.484 -4.8104 -2.03465 0
M  V30 5882 H 563.178 -2.85388 -0.905216 0
M  V30 5883 H 560.724 -1.37304 -0.434002 0
M  V30 5884 H 562.677 -2.58583 -3.32736 0
M  V30 5885 H 561.401 -1.40188 -2.94983 0
M  V30 5886 H 560.06 -3.19563 -1.79653 0
M  V30 5887 H 559.708 -2.72555 -4.22756 0
M  V30 5888 H 559.408 -4.4402 -3.84864 0
M  V30 5889 H 560.932 -3.9599 -4.64784 0
M  V30 5890 H 562.346 -5.07411 -2.66846 0
M  V30 5891 H 560.743 -5.62232 -2.09798 0
M  V30 5892 H 561.813 -4.74732 -0.98781 0
M  V30 5893 N 563.156 0.464375 -1.50603 0
M  V30 5894 C 564.086 1.56944 -1.72889 0
M  V30 5895 C 565.067 1.59979 -0.577997 0
M  V30 5896 O 566.252 1.76138 -0.817855 0
M  V30 5897 C 563.382 2.95225 -1.8292 0
M  V30 5898 C 562.336 3.07056 -2.98162 0
M  V30 5899 C 561.662 4.47051 -2.93343 0
M  V30 5900 C 562.962 2.83648 -4.38567 0
M  V30 5901 H 564.656 1.38547 -2.65415 0
M  V30 5902 H 562.202 0.665082 -1.27721 0
M  V30 5903 H 564.155 3.72467 -1.97095 0
M  V30 5904 H 562.879 3.14793 -0.870209 0
M  V30 5905 H 561.538 2.32248 -2.83648 0
M  V30 5906 H 561.186 4.63547 -1.95276 0
M  V30 5907 H 560.886 4.55902 -3.70712 0
M  V30 5908 H 562.41 5.26304 -3.09575 0
M  V30 5909 H 563.824 3.50636 -4.53572 0
M  V30 5910 H 562.221 3.03937 -5.17438 0
M  V30 5911 H 563.291 1.79451 -4.50472 0
M  V30 5912 N 564.634 1.40294 0.718013 0
M  V30 5913 C 565.874 1.39888 1.49032 0
M  V30 5914 C 566.238 -0.000462935 1.92 0
M  V30 5915 O 567.439 -0.129622 2.68487 0
M  V30 5916 C 565.71 2.35868 2.68516 0
M  V30 5917 S 567.269 2.53799 3.57954 0
M  V30 5918 H 564.087 0.495849 0.509563 0
M  V30 5919 H 566.689 1.76541 0.839846 0
M  V30 5920 H 565.393 3.36375 2.35117 0
M  V30 5921 H 564.924 2.0049 3.38478 0
M  V30 5922 H 566.939 1.78859 4.62843 0
M  V30 5923 N 566.112 -0.949982 1.2575 0
M  V30 5924 C 567.075 -2.02894 1.06615 0
M  V30 5925 C 568.075 -1.60791 0.0173905 0
M  V30 5926 O 569.265 -1.72249 0.260003 0
M  V30 5927 C 566.397 -3.35219 0.619751 0
M  V30 5928 H 567.59 -2.21302 2.02399 0
M  V30 5929 H 565.143 -1.12772 1.08223 0
M  V30 5930 H 565.878 -3.22508 -0.340486 0
M  V30 5931 H 565.663 -3.67129 1.37692 0
M  V30 5932 H 567.153 -4.14505 0.507443 0
M  V30 5933 N 567.59 -1.07411 -1.15328 0
M  V30 5934 C 568.818 -0.818782 -1.90009 0
M  V30 5935 C 569.233 0.628072 -1.78047 0
M  V30 5936 O 568.59 1.43085 -1.13282 0
M  V30 5937 C 568.641 -1.21874 -3.40337 0
M  V30 5938 O 568.362 -2.60883 -3.51954 0
M  V30 5939 C 569.863 -0.992796 -4.3204 0
M  V30 5940 H 567.083 -0.296007 -0.60218 0
M  V30 5941 H 569.627 -1.43073 -1.46117 0
M  V30 5942 H 567.782 -0.651103 -3.81889 0
M  V30 5943 H 568.196 -2.77216 -4.45255 0
M  V30 5944 H 569.67 -1.32215 -5.35932 0
M  V30 5945 H 570.147 0.0708331 -4.39143 0
M  V30 5946 H 570.753 -1.54537 -3.9623 0
M  V30 5947 N 569.068 1.32177 -0.85831 0
M  V30 5948 C 570.308 1.98927 -0.469822 0
M  V30 5949 C 570.672 1.66423 0.95746 0
M  V30 5950 O 571.873 2.26293 1.45069 0
M  V30 5951 C 570.144 3.50352 -0.706288 0
M  V30 5952 S 571.703 4.36824 -0.415918 0
M  V30 5953 H 568.521 0.688909 -0.175855 0
M  V30 5954 H 571.123 1.60807 -1.11181 0
M  V30 5955 H 569.827 3.71497 -1.74407 0
M  V30 5956 H 569.358 3.93367 -0.0508568 0
M  V30 5957 H 571.373 4.90398 0.756581 0
M  V30 5958 N 570.547 0.616602 1.45037 0
M  V30 5959 C 571.958 0.199359 1.85633 0
M  V30 5960 C 572.309 -1.24588 1.51566 0
M  V30 5961 O 571.434 -1.94594 0.94668 0
M  V30 5962 C 572.029 0.355033 3.36935 0
M  V30 5963 C 570.588 -0.00758748 3.76399 0
M  V30 5964 C 569.735 0.675256 2.68953 0
M  V30 5965 H 572.686 0.822708 1.3571 0
M  V30 5966 H 572.707 -0.410201 3.78282 0
M  V30 5967 H 572.219 1.40699 3.61698 0
M  V30 5968 H 570.32 -1.05837 3.57252 0
M  V30 5969 H 570.433 0.392346 4.77491 0
M  V30 5970 H 568.797 0.111992 2.54454 0
M  V30 5971 H 569.58 1.72952 2.96551 0
M  V30 5972 N 572.025 -1.5352 0.356285 0
M  V30 5973 C 573.272 -2.01117 -0.236303 0
M  V30 5974 C 573.6 -1.24381 -1.49531 0
M  V30 5975 O 572.855 -0.323057 -1.93015 0
M  V30 5976 C 573.154 -3.52607 -0.583369 0
M  V30 5977 C 572.82 -4.47151 0.58023 0
M  V30 5978 C 571.482 -4.72718 0.899528 0
M  V30 5979 C 573.834 -5.03137 1.36024 0
M  V30 5980 C 571.162 -5.51523 2.00098 0
M  V30 5981 C 573.514 -5.83145 2.45204 0
M  V30 5982 C 572.178 -6.07001 2.77679 0
M  V30 5983 H 571.448 -0.735938 -0.0864695 0
M  V30 5984 H 574.095 -1.85209 0.48683 0
M  V30 5985 H 572.4 -3.66413 -1.38739 0
M  V30 5986 H 574.097 -3.86901 -1.05397 0
M  V30 5987 H 570.687 -4.27394 0.321322 0
M  V30 5988 H 574.871 -4.83339 1.12682 0
M  V30 5989 H 570.127 -5.68229 2.25668 0
M  V30 5990 H 574.301 -6.25537 3.06067 0
M  V30 5991 H 571.928 -6.67851 3.63151 0
M  V30 5992 N 573.503 -0.0852151 -1.57369 0
M  V30 5993 C 574.466 0.8627 -2.12344 0
M  V30 5994 C 575.466 1.21746 -1.05046 0
M  V30 5995 O 576.656 1.14852 -1.30976 0
M  V30 5996 C 573.788 2.1618 -2.63589 0
M  V30 5997 H 574.981 0.385511 -2.97412 0
M  V30 5998 H 572.534 0.163663 -1.55441 0
M  V30 5999 H 573.269 2.68406 -1.82013 0
M  V30 6000 H 573.054 1.91723 -3.4203 0
M  V30 6001 H 574.544 2.84011 -3.06149 0
M  V30 6002 N 574.981 1.5647 0.188427 0
M  V30 6003 C 575.928 1.95073 1.23349 0
M  V30 6004 C 576.898 0.812238 1.44886 0
M  V30 6005 O 578.083 1.07095 1.57909 0
M  V30 6006 C 575.223 2.30124 2.57171 0
M  V30 6007 C 574.336 3.57069 2.43157 0
M  V30 6008 C 573.471 3.81411 3.69729 0
M  V30 6009 C 572.51 5.0176 3.50575 0
M  V30 6010 N 571.647 5.22321 4.69175 0
M  V30 6011 H 576.487 2.84171 0.89728 0
M  V30 6012 H 574.024 1.40623 0.431683 0
M  V30 6013 H 575.982 2.48463 3.35145 0
M  V30 6014 H 574.612 1.44159 2.88822 0
M  V30 6015 H 573.664 3.4674 1.56447 0
M  V30 6016 H 574.976 4.452 2.24942 0
M  V30 6017 H 574.13 4.00026 4.56141 0
M  V30 6018 H 572.869 2.91624 3.90905 0
M  V30 6019 H 571.874 4.83061 2.62549 0
M  V30 6020 H 573.099 5.93063 3.30837 0
M  V30 6021 H 571.045 4.35483 4.90602 0
M  V30 6022 H 570.962 6.04643 4.53809 0
M  V30 6023 H 572.23 5.45401 5.56919 0
M  V30 6024 N 576.459 -0.456382 1.50847 0
M  V30 6025 C 577.707 -1.20497 1.62249 0
M  V30 6026 C 578.028 -1.92156 0.331839 0
M  V30 6027 O 577.298 -1.84751 -0.651443 0
M  V30 6028 H 575.878 -0.447775 0.597918 0
M  V30 6029 H 578.54 -0.525099 1.87693 0
M  V30 6030 H 577.636 -1.94492 2.44089 0
M  V30 6031 N 577.937 -1.40673 -0.710563 0
M  V30 6032 C 579.214 -1.29718 -1.46398 0
M  V30 6033 C 579.594 0.082177 -2.1094 0
M  V30 6034 O 578.942 1.09536 -2.00534 0
M  V30 6035 C 579.152 -2.43967 -2.49562 0
M  V30 6036 C 580.5 -2.84436 -3.15248 0
M  V30 6037 O 581.524 -2.43597 -2.59883 0
M  V30 6038 O 580.383 -3.55008 -4.1549 0
M  V30 6039 H 577.477 -0.509697 -0.651258 0
M  V30 6040 H 580.023 -1.52603 -0.742312 0
M  V30 6041 H 578.795 -3.36076 -2.0042 0
M  V30 6042 H 578.418 -2.22879 -3.29258 0
M  V30 6043 N 579.415 0.9433 -1.26252 0
M  V30 6044 C 580.64 1.72898 -1.14547 0
M  V30 6045 C 581.065 1.85761 0.295743 0
M  V30 6046 O 580.423 1.3463 1.21427 0
M  V30 6047 C 580.471 3.11471 -1.8171 0
M  V30 6048 O 579.575 3.97336 -1.10445 0
M  V30 6049 H 578.916 0.530555 -0.399259 0
M  V30 6050 H 581.446 1.18159 -1.67032 0
M  V30 6051 H 581.456 3.61872 -1.88449 0
M  V30 6052 H 580.131 3.01425 -2.86558 0
M  V30 6053 H 578.708 3.55788 -1.11666 0
M  V30 6054 N 580.893 1.08022 1.14757 0
M  V30 6055 C 582.133 0.816959 1.87364 0
M  V30 6056 C 582.497 -0.645407 1.80827 0
M  V30 6057 O 583.698 -1.024 2.48531 0
M  V30 6058 C 581.969 1.31961 3.32146 0
M  V30 6059 S 583.528 1.18806 4.2241 0
M  V30 6060 H 580.346 0.295862 0.646519 0
M  V30 6061 H 582.948 1.3807 1.38408 0
M  V30 6062 H 581.652 2.37847 3.3445 0
M  V30 6063 H 581.183 0.751371 3.86158 0
M  V30 6064 H 583.198 0.129865 4.9603 0
M  V30 6065 N 582.371 -1.3172 0.865308 0
M  V30 6066 C 583.596 -2.01591 0.487415 0
M  V30 6067 C 584.021 -1.6455 -0.911307 0
M  V30 6068 O 583.379 -0.851689 -1.6005 0
M  V30 6069 C 583.427 -3.54759 0.646401 0
M  V30 6070 O 582.531 -4.11185 -0.316284 0
M  V30 6071 H 581.872 -0.634884 0.194468 0
M  V30 6072 H 584.402 -1.68024 1.16744 0
M  V30 6073 H 584.412 -4.04438 0.537932 0
M  V30 6074 H 583.087 -3.8106 1.66632 0
M  V30 6075 H 581.664 -3.72543 -0.163162 0
M  V30 6076 N 583.85 -0.624285 -1.44708 0
M  V30 6077 C 585.075 -0.131171 -2.06985 0
M  V30 6078 C 585.5 1.18234 -1.46295 0
M  V30 6079 O 584.858 1.72375 -0.561842 0
M  V30 6080 C 584.906 -0.0226724 -3.60593 0
M  V30 6081 O 584.01 1.02314 -3.99507 0
M  V30 6082 H 583.351 -0.0816556 -0.65896 0
M  V30 6083 H 585.88 -0.859027 -1.85693 0
M  V30 6084 H 585.891 0.170138 -4.07645 0
M  V30 6085 H 584.566 -0.981685 -4.04148 0
M  V30 6086 H 583.143 0.805452 -3.64097 0
M  V30 6087 N 585.328 1.53329 -0.364422 0
M  V30 6088 C 586.276 2.27212 0.497737 0
M  V30 6089 C 587.27 1.30146 1.08437 0
M  V30 6090 O 588.476 1.47778 1.0277 0
M  V30 6091 H 584.851 0.730329 0.179232 0
M  V30 6092 H 586.822 2.98037 -0.147182 0
M  V30 6093 C 585.571 3.07333 1.6261 0
M  V30 6094 H 584.894 3.81866 1.184 0
M  V30 6095 H 586.334 3.62209 2.20409 0
M  V30 6096 C 584.793 2.18102 2.56775 0
M  V30 6097 O 585.323 1.79104 3.59562 0
M  V30 6098 N 583.529 1.82759 2.25937 0
M  V30 6099 H 583.076 2.14671 1.42387 0
M  V30 6100 H 583.034 1.23342 2.89196 0
M  V30 6101 N 586.806 0.0935595 1.57322 0
M  V30 6102 C 588.046 -0.573901 1.96178 0
M  V30 6103 C 588.41 -1.65445 0.97426 0
M  V30 6104 O 589.611 -2.37901 1.25126 0
M  V30 6105 C 587.882 -1.11612 3.39526 0
M  V30 6106 S 589.441 -1.79566 4.00377 0
M  V30 6107 H 586.259 -0.187315 0.685882 0
M  V30 6108 H 588.861 0.172597 1.94737 0
M  V30 6109 H 587.565 -0.31815 4.09165 0
M  V30 6110 H 587.096 -1.89848 3.4456 0
M  V30 6111 H 589.111 -3.07978 3.89056 0
M  V30 6112 N 588.284 -1.56567 -0.180126 0
M  V30 6113 C 589.231 -1.95725 -1.22313 0
M  V30 6114 C 590.201 -0.819911 -1.44453 0
M  V30 6115 O 591.386 -1.07931 -1.57339 0
M  V30 6116 C 588.526 -2.31484 -2.55947 0
M  V30 6117 C 587.639 -3.58354 -2.4126 0
M  V30 6118 C 586.774 -3.83366 -3.67701 0
M  V30 6119 C 585.813 -5.03612 -3.47909 0
M  V30 6120 N 584.95 -5.24802 -4.66398 0
M  V30 6121 H 589.79 -2.84642 -0.882198 0
M  V30 6122 H 587.327 -1.4085 -0.42422 0
M  V30 6123 H 589.285 -2.50237 -3.33822 0
M  V30 6124 H 587.915 -1.45689 -2.88053 0
M  V30 6125 H 586.967 -3.47565 -1.54606 0
M  V30 6126 H 588.279 -4.46386 -2.22577 0
M  V30 6127 H 587.433 -4.02439 -4.54013 0
M  V30 6128 H 586.172 -2.93692 -3.89353 0
M  V30 6129 H 585.177 -4.84447 -2.59983 0
M  V30 6130 H 586.402 -5.94809 -3.27688 0
M  V30 6131 H 584.348 -4.38079 -4.88286 0
M  V30 6132 H 584.265 -6.07041 -4.50596 0
M  V30 6133 H 585.533 -5.48346 -5.54019 0
M  V30 6134 N 589.762 0.448376 -1.51087 0
M  V30 6135 C 590.712 1.54156 -1.67988 0
M  V30 6136 C 591.696 1.5178 -0.534015 0
M  V30 6137 O 592.888 1.58419 -0.789448 0
M  V30 6138 C 590.017 2.92437 -1.79822 0
M  V30 6139 C 589.103 2.99611 -3.00157 0
M  V30 6140 N 589.494 2.7655 -4.23502 0
M  V30 6141 C 587.792 3.30764 -2.99184 0
M  V30 6142 C 588.493 2.89281 -5.0467 0
M  V30 6143 N 587.469 3.20473 -4.39088 0
M  V30 6144 H 591.271 1.35061 -2.61028 0
M  V30 6145 H 588.785 0.655504 -1.48583 0
M  V30 6146 H 590.782 3.71068 -1.90037 0
M  V30 6147 H 589.442 3.1256 -0.879554 0
M  V30 6148 H 590.453 2.5169 -4.52628 0
M  V30 6149 H 587.13 3.56732 -2.16907 0
M  V30 6150 H 588.52 2.75499 -6.12821 0
M  V30 6151 N 591.24 1.41047 0.703093 0
M  V30 6152 C 592.465 1.43537 1.49706 0
M  V30 6153 C 592.89 0.0401853 1.88057 0
M  V30 6154 O 592.248 -0.954785 1.54122 0
M  V30 6155 C 592.296 2.3433 2.74084 0
M  V30 6156 O 591.4 1.79515 3.71279 0
M  V30 6157 H 590.741 0.487454 0.450871 0
M  V30 6158 H 593.271 1.85422 0.86486 0
M  V30 6159 H 593.281 2.49947 3.22476 0
M  V30 6160 H 591.956 3.35708 2.45506 0
M  V30 6161 H 590.533 1.7331 3.30179 0
M  V30 6162 N 592.718 -0.936591 1.26751 0
M  V30 6163 C 593.964 -1.6858 1.12733 0
M  V30 6164 C 594.297 -1.91414 -0.327745 0
M  V30 6165 O 593.572 -1.49812 -1.24043 0
M  V30 6166 C 593.855 -3.05779 1.90187 0
M  V30 6167 C 593.708 -2.90242 3.43627 0
M  V30 6168 C 595.027 -4.0597 1.69931 0
M  V30 6169 H 592.146 -0.61182 0.410908 0
M  V30 6170 H 594.788 -1.08747 1.55801 0
M  V30 6171 H 592.938 -3.56853 1.53584 0
M  V30 6172 H 594.61 -2.46354 3.9001 0
M  V30 6173 H 592.853 -2.2577 3.70419 0
M  V30 6174 H 593.524 -3.87572 3.93055 0
M  V30 6175 H 596 -3.63874 2.0183 0
M  V30 6176 H 594.876 -4.99974 2.26534 0
M  V30 6177 H 595.137 -4.37369 0.64502 0
M  V30 6178 N 594.196 -1.08629 -1.14182 0
M  V30 6179 C 595.159 -0.722027 -2.1753 0
M  V30 6180 C 596.159 0.244305 -1.58933 0
M  V30 6181 O 597.349 0.0235545 -1.74184 0
M  V30 6182 C 594.481 -0.0663966 -3.40835 0
M  V30 6183 H 595.674 -1.63719 -2.51269 0
M  V30 6184 H 593.227 -0.884442 -1.28869 0
M  V30 6185 H 593.962 0.860389 -3.12678 0
M  V30 6186 H 593.747 -0.761598 -3.84632 0
M  V30 6187 H 595.237 0.173346 -4.1724 0
M  V30 6188 N 595.674 1.31259 -0.872281 0
M  V30 6189 C 596.606 2.27396 -0.28697 0
M  V30 6190 C 597.619 1.53181 0.551297 0
M  V30 6191 O 598.808 1.74561 0.372914 0
M  V30 6192 C 595.908 3.33335 0.611617 0
M  V30 6193 C 595.081 4.36966 -0.194729 0
M  V30 6194 C 594.14 5.22387 0.632358 0
M  V30 6195 O 593.166 5.69169 0.0595691 0
M  V30 6196 N 594.368 5.46985 1.94391 0
M  V30 6197 H 597.133 2.78261 -1.11314 0
M  V30 6198 H 594.694 1.44306 -0.733994 0
M  V30 6199 H 596.686 3.87398 1.17068 0
M  V30 6200 H 595.256 2.82496 1.33846 0
M  V30 6201 H 594.476 3.82945 -0.935241 0
M  V30 6202 H 595.764 5.03273 -0.747935 0
M  V30 6203 H 595.162 5.10737 2.43237 0
M  V30 6204 H 593.719 6.03973 2.45071 0
M  V30 6205 N 597.152 0.631951 1.44375 0
M  V30 6206 C 598.082 -0.0593243 2.33425 0
M  V30 6207 C 599.063 -0.833964 1.48253 0
M  V30 6208 O 600.248 -0.799682 1.76971 0
M  V30 6209 C 597.378 -1.04096 3.31333 0
M  V30 6210 C 596.332 -0.377899 4.26328 0
M  V30 6211 C 595.658 -1.4695 5.14111 0
M  V30 6212 C 596.958 0.716371 5.17364 0
M  V30 6213 H 598.652 0.684287 2.91475 0
M  V30 6214 H 596.198 0.330518 1.40156 0
M  V30 6215 H 598.151 -1.53331 3.92514 0
M  V30 6216 H 596.875 -1.81547 2.71493 0
M  V30 6217 H 595.534 0.0938054 3.6648 0
M  V30 6218 H 595.182 -2.2349 4.50623 0
M  V30 6219 H 594.882 -1.03121 5.78481 0
M  V30 6220 H 596.406 -1.96363 5.78164 0
M  V30 6221 H 597.82 0.307089 5.72477 0
M  V30 6222 H 596.217 1.07784 5.90341 0
M  V30 6223 H 597.287 1.58316 4.58327 0
M  V30 6224 N 598.631 -1.53133 0.372548 0
M  V30 6225 C 599.877 -2.01654 -0.215277 0
M  V30 6226 C 600.21 -1.25914 -1.47849 0
M  V30 6227 O 599.485 -0.3548 -1.91237 0
M  V30 6228 C 599.768 -3.56609 -0.500187 0
M  V30 6229 C 599.621 -4.43036 0.777145 0
M  V30 6230 C 600.94 -4.20528 -1.29786 0
M  V30 6231 H 598.059 -0.732991 -0.0767686 0
M  V30 6232 H 600.701 -1.83335 0.498814 0
M  V30 6233 H 598.851 -3.7235 -1.10852 0
M  V30 6234 H 600.523 -4.39079 1.41447 0
M  V30 6235 H 598.766 -4.10723 1.39604 0
M  V30 6236 H 599.437 -5.49424 0.532662 0
M  V30 6237 H 601.913 -4.08663 -0.783198 0
M  V30 6238 H 600.789 -5.28962 -1.46596 0
M  V30 6239 H 601.05 -3.77051 -2.30836 0
M  V30 6240 N 600.109 -0.101901 -1.5727 0
M  V30 6241 C 601.334 0.571759 -1.99363 0
M  V30 6242 C 601.759 1.60507 -0.980768 0
M  V30 6243 O 601.117 1.81231 0.0498517 0
M  V30 6244 C 601.165 1.18996 -3.404 0
M  V30 6245 O 600.269 2.30572 -3.41922 0
M  V30 6246 H 599.61 0.144449 -0.648098 0
M  V30 6247 H 602.14 -0.185325 -2.03759 0
M  V30 6248 H 602.15 1.52962 -3.78241 0
M  V30 6249 H 600.825 0.432984 -4.1364 0
M  V30 6250 H 599.402 1.98173 -3.15883 0
M  V30 6251 N 601.587 1.56661 0.17182 0
M  V30 6252 C 602.817 1.85831 0.902804 0
M  V30 6253 C 603.225 0.685157 1.76358 0
M  V30 6254 O 602.568 -0.354947 1.80238 0
M  V30 6255 C 602.63 3.09406 1.83053 0
M  V30 6256 C 602.294 4.4231 1.1494 0
M  V30 6257 C 603.291 5.17342 0.515104 0
M  V30 6258 C 600.976 4.89045 1.14631 0
M  V30 6259 C 602.97 6.37299 -0.113194 0
M  V30 6260 C 600.657 6.08933 0.514184 0
M  V30 6261 C 601.655 6.82904 -0.114463 0
M  V30 6262 O 601.343 8.00518 -0.736622 0
M  V30 6263 H 601.075 0.620715 0.267748 0
M  V30 6264 H 603.629 2.04637 0.176918 0
M  V30 6265 H 601.859 2.86544 2.59672 0
M  V30 6266 H 603.548 3.25027 2.4313 0
M  V30 6267 H 604.314 4.82317 0.509474 0
M  V30 6268 H 600.193 4.31409 1.62502 0
M  V30 6269 H 603.737 6.94976 -0.604477 0
M  V30 6270 H 599.634 6.43423 0.517395 0
M  V30 6271 H 600.402 8.16027 -0.635822 0
M  V30 6272 N 603.065 -0.440357 1.51323 0
M  V30 6273 C 603.995 -1.54174 1.75364 0
M  V30 6274 C 604.976 -1.59039 0.603375 0
M  V30 6275 O 606.161 -1.74815 0.845774 0
M  V30 6276 C 603.291 -2.92277 1.87593 0
M  V30 6277 C 602.245 -3.02274 3.03009 0
M  V30 6278 C 601.571 -4.42327 3.00418 0
M  V30 6279 C 602.871 -2.76634 4.43024 0
M  V30 6280 H 604.565 -1.34307 2.67585 0
M  V30 6281 H 602.111 -0.644678 1.28763 0
M  V30 6282 H 604.064 -3.69284 2.02995 0
M  V30 6283 H 602.788 -3.13369 0.920179 0
M  V30 6284 H 601.447 -2.27706 2.87307 0
M  V30 6285 H 601.095 -4.60382 2.02626 0
M  V30 6286 H 600.795 -4.49946 3.77918 0
M  V30 6287 H 602.319 -5.21312 3.17909 0
M  V30 6288 H 603.733 -3.43376 4.59093 0
M  V30 6289 H 602.13 -2.95666 5.22208 0
M  V30 6290 H 603.2 -1.72262 4.5327 0
M  V30 6291 N 604.543 -1.41418 -0.695603 0
M  V30 6292 C 605.768 -1.44329 -1.48942 0
M  V30 6293 C 606.193 -0.0501579 -1.88033 0
M  V30 6294 O 605.551 0.946598 -1.54626 0
M  V30 6295 C 605.599 -2.3578 -2.72837 0
M  V30 6296 O 604.703 -1.81482 -3.70322 0
M  V30 6297 H 604.044 -0.489838 -0.44828 0
M  V30 6298 H 606.574 -1.85878 -0.855014 0
M  V30 6299 H 606.584 -2.51654 -3.21145 0
M  V30 6300 H 605.259 -3.37005 -2.43722 0
M  V30 6301 H 603.836 -1.75058 -3.29255 0
M  V30 6302 N 606.021 0.929856 -1.27246 0
M  V30 6303 C 606.931 2.0636 -1.11592 0
M  V30 6304 C 607.947 1.73938 -0.046496 0
M  V30 6305 O 609.123 1.9981 -0.252544 0
M  V30 6306 C 606.188 3.38213 -0.762437 0
M  V30 6307 C 605.249 3.84346 -1.9125 0
M  V30 6308 C 604.482 5.09906 -1.57579 0
M  V30 6309 O 604.705 5.68354 -0.482694 0
M  V30 6310 O 603.639 5.51359 -2.41426 0
M  V30 6311 H 607.465 2.22478 -2.0673 0
M  V30 6312 H 605.05 1.04865 -1.06413 0
M  V30 6313 H 606.932 4.1741 -0.57854 0
M  V30 6314 H 605.607 3.23307 0.159439 0
M  V30 6315 H 604.514 3.06045 -2.15144 0
M  V30 6316 H 605.847 4.0379 -2.81451 0
M  V30 6317 N 607.499 1.09233 1.13605 0
M  V30 6318 C 608.915 0.82163 1.36826 0
M  V30 6319 C 609.115 -0.565021 1.93416 0
M  V30 6320 O 608.171 -1.32026 2.15234 0
M  V30 6321 C 609.484 1.91124 2.32147 0
M  V30 6322 C 611.032 1.93824 2.45767 0
M  V30 6323 C 611.507 3.01923 3.44393 0
M  V30 6324 N 612.998 3.01149 3.51942 0
M  V30 6325 C 613.733 3.81434 4.2813 0
M  V30 6326 N 613.229 4.71621 5.07489 0
M  V30 6327 N 615.022 3.69702 4.23411 0
M  V30 6328 H 607.173 1.98633 0.752234 0
M  V30 6329 H 609.436 0.862482 0.393482 0
M  V30 6330 H 609.142 2.90862 1.97717 0
M  V30 6331 H 609.016 1.78777 3.32142 0
M  V30 6332 H 611.403 0.94726 2.79483 0
M  V30 6333 H 611.484 2.10248 1.45703 0
M  V30 6334 H 611.128 4.01232 3.11408 0
M  V30 6335 H 611.058 2.82742 4.44257 0
M  V30 6336 H 613.549 2.35789 2.95317 0
M  V30 6337 H 613.862 5.29468 5.62924 0
M  V30 6338 H 612.207 4.75658 5.06729 0
M  V30 6339 H 615.398 2.98606 3.60489 0
M  V30 6340 H 615.571 4.32509 4.82535 0
M  V30 6341 N 608.977 -1.30795 0.87923 0
M  V30 6342 C 610.217 -1.98155 0.50141 0
M  V30 6343 C 610.581 -1.67925 -0.930863 0
M  V30 6344 O 611.782 -2.28572 -1.41451 0
M  V30 6345 C 610.053 -3.49184 0.761937 0
M  V30 6346 S 611.612 -4.36107 0.485361 0
M  V30 6347 H 608.43 -0.686025 0.186792 0
M  V30 6348 H 611.032 -1.59018 1.13726 0
M  V30 6349 H 609.736 -3.68676 1.80295 0
M  V30 6350 H 609.267 -3.93236 0.113432 0
M  V30 6351 H 611.282 -4.9154 -0.678467 0
M  V30 6352 N 610.455 -0.639598 -1.44038 0
M  V30 6353 C 611.403 0.0723409 -2.32487 0
M  V30 6354 C 612.397 0.827129 -1.47834 0
M  V30 6355 O 613.603 0.73907 -1.64127 0
M  V30 6356 H 609.978 0.0421696 -0.750817 0
M  V30 6357 H 611.949 -0.691593 -2.90275 0
M  V30 6358 C 610.698 1.03452 -3.31953 0
M  V30 6359 H 610.021 0.46315 -3.97108 0
M  V30 6360 H 611.461 1.502 -3.96505 0
M  V30 6361 C 609.92 2.12392 -2.61518 0
M  V30 6362 O 610.45 3.2059 -2.42044 0
M  V30 6363 N 608.656 1.88563 -2.21116 0
M  V30 6364 H 608.203 1.00577 -2.37154 0
M  V30 6365 H 608.161 2.61651 -1.74316 0
M  V30 6366 N 611.933 1.52934 -0.380664 0
M  V30 6367 C 613.179 2.01765 0.20458 0
M  V30 6368 C 613.512 1.26696 1.47179 0
M  V30 6369 O 612.787 0.364936 1.91046 0
M  V30 6370 C 613.07 3.56869 0.481269 0
M  V30 6371 C 612.923 4.42617 -0.800629 0
M  V30 6372 C 614.242 4.2121 1.27554 0
M  V30 6373 H 611.361 0.733388 0.0728803 0
M  V30 6374 H 614.003 1.83068 -0.50853 0
M  V30 6375 H 612.153 3.72932 1.08875 0
M  V30 6376 H 613.825 4.38323 -1.43773 0
M  V30 6377 H 612.068 4.09977 -1.4178 0
M  V30 6378 H 612.739 5.49134 -0.561791 0
M  V30 6379 H 615.215 4.09072 0.761514 0
M  V30 6380 H 614.091 5.29732 1.43788 0
M  V30 6381 H 614.352 3.78269 2.28833 0
M  V30 6382 N 613.412 0.11024 1.57214 0
M  V30 6383 C 614.661 -0.549638 1.94067 0
M  V30 6384 C 614.974 -1.68388 0.995234 0
M  V30 6385 O 616.18 -2.40593 1.25807 0
M  V30 6386 C 614.636 -1.02912 3.44873 0
M  V30 6387 C 614.244 0.0761861 4.47935 0
M  V30 6388 C 615.988 -1.66087 3.9066 0
M  V30 6389 C 613.895 -0.419502 5.8991 0
M  V30 6390 H 612.825 -0.209092 0.724428 0
M  V30 6391 H 615.476 0.188683 1.82527 0
M  V30 6392 H 613.858 -1.82159 3.51616 0
M  V30 6393 H 615.032 0.852185 4.52851 0
M  V30 6394 H 613.347 0.614052 4.11847 0
M  V30 6395 H 615.944 -2.04272 4.94143 0
M  V30 6396 H 616.287 -2.53591 3.30148 0
M  V30 6397 H 616.82 -0.933959 3.86681 0
M  V30 6398 H 613.559 0.419277 6.54158 0
M  V30 6399 H 613.079 -1.16217 5.88433 0
M  V30 6400 H 614.758 -0.883577 6.40938 0
M  V30 6401 N 614.89 -1.56749 -0.16351 0
M  V30 6402 C 615.853 -1.96121 -1.18613 0
M  V30 6403 C 616.853 -0.845765 -1.36761 0
M  V30 6404 O 618.043 -1.11268 -1.34033 0
M  V30 6405 C 615.175 -2.26282 -2.54969 0
M  V30 6406 H 616.368 -2.87639 -0.848764 0
M  V30 6407 H 613.921 -1.50928 -0.406251 0
M  V30 6408 H 614.656 -1.37504 -2.93706 0
M  V30 6409 H 614.441 -3.07595 -2.43162 0
M  V30 6410 H 615.931 -2.57638 -3.28653 0
M  V30 6411 N 616.368 0.432326 -1.51554 0
M  V30 6412 C 617.645 1.19288 -1.55015 0
M  V30 6413 C 618.025 2.08701 -0.317375 0
M  V30 6414 O 617.373 2.17602 0.697243 0
M  V30 6415 C 617.583 1.99037 -2.86679 0
M  V30 6416 C 618.931 2.55907 -3.38817 0
M  V30 6417 O 619.955 2.09243 -2.88263 0
M  V30 6418 O 618.814 3.41029 -4.27038 0
M  V30 6419 H 615.908 0.543369 -0.623441 0
M  V30 6420 H 618.454 0.440988 -1.6387 0
M  V30 6421 H 617.226 1.33397 -3.6786 0
M  V30 6422 H 616.849 2.81281 -2.8101 0
M  V30 6423 N 617.846 1.41785 0.688094 0
M  V30 6424 C 619.071 1.45117 1.48175 0
M  V30 6425 C 619.496 0.060129 1.88004 0
M  V30 6426 O 618.854 -0.938385 1.55126 0
M  V30 6427 C 618.902 2.37224 2.71583 0
M  V30 6428 O 618.006 1.83443 3.69354 0
M  V30 6429 H 617.347 0.492208 0.445676 0
M  V30 6430 H 619.877 1.86329 0.845145 0
M  V30 6431 H 619.887 2.53353 3.19806 0
M  V30 6432 H 618.562 3.38293 2.41931 0
M  V30 6433 H 617.139 1.76802 3.28322 0
M  V30 6434 N 619.324 -0.923095 1.27737 0
M  V30 6435 C 620.271 -2.02432 1.1086 0
M  V30 6436 C 621.241 -1.66098 0.00835195 0
M  V30 6437 O 622.426 -1.90027 0.171542 0
M  V30 6438 C 619.566 -3.36476 0.766671 0
M  V30 6439 C 618.679 -3.85737 1.94501 0
M  V30 6440 C 617.814 -5.08249 1.54455 0
M  V30 6441 C 616.853 -5.49818 2.6901 0
M  V30 6442 N 615.99 -6.63524 2.29521 0
M  V30 6443 H 620.83 -2.16201 2.05089 0
M  V30 6444 H 618.367 -1.05909 1.02087 0
M  V30 6445 H 620.325 -4.13569 0.549223 0
M  V30 6446 H 618.955 -3.22502 -0.13867 0
M  V30 6447 H 618.007 -3.04883 2.27487 0
M  V30 6448 H 619.319 -4.12513 2.80419 0
M  V30 6449 H 618.473 -5.92857 1.28862 0
M  V30 6450 H 617.212 -4.83261 0.656534 0
M  V30 6451 H 616.217 -4.63757 2.95313 0
M  V30 6452 H 617.442 -5.76799 3.5844 0
M  V30 6453 H 615.388 -6.40185 1.43177 0
M  V30 6454 H 615.305 -6.89978 3.08977 0
M  V30 6455 H 616.573 -7.51461 2.07187 0
M  V30 6456 N 620.802 -1.09834 -1.13024 0
M  V30 6457 C 622.027 -0.85909 -1.88771 0
M  V30 6458 C 622.452 0.584402 -1.78791 0
M  V30 6459 O 621.81 1.41101 -1.13842 0
M  V30 6460 C 621.858 -1.30427 -3.36186 0
M  V30 6461 O 620.962 -0.465368 -4.09766 0
M  V30 6462 H 620.303 -0.310786 -0.586778 0
M  V30 6463 H 622.833 -1.46355 -1.42973 0
M  V30 6464 H 622.843 -1.2915 -3.8702 0
M  V30 6465 H 621.518 -2.3555 -3.42767 0
M  V30 6466 H 620.095 -0.542814 -3.68928 0
M  V30 6467 N 622.28 1.30327 -0.886154 0
M  V30 6468 C 623.527 1.96097 -0.505192 0
M  V30 6469 C 623.855 1.69952 0.945868 0
M  V30 6470 O 623.11 0.997653 1.68361 0
M  V30 6471 C 623.409 3.49906 -0.728042 0
M  V30 6472 C 623.075 3.96103 -2.15437 0
M  V30 6473 C 621.737 4.08428 -2.5444 0
M  V30 6474 C 624.089 4.20177 -3.08384 0
M  V30 6475 C 621.417 4.42189 -3.85598 0
M  V30 6476 C 623.769 4.55407 -4.39075 0
M  V30 6477 C 622.433 4.65941 -4.7797 0
M  V30 6478 H 621.703 0.71757 -0.184863 0
M  V30 6479 H 624.35 1.55171 -1.12223 0
M  V30 6480 H 622.655 3.9179 -0.027978 0
M  V30 6481 H 624.352 3.98869 -0.412862 0
M  V30 6482 H 620.942 3.87017 -1.84162 0
M  V30 6483 H 625.126 4.10134 -2.7947 0
M  V30 6484 H 620.382 4.48544 -4.15473 0
M  V30 6485 H 624.556 4.72986 -5.11133 0
M  V30 6486 H 622.183 4.91856 -5.79639 0
M  V30 6487 N 623.758 0.647228 1.43697 0
M  V30 6488 C 624.986 0.16575 2.06235 0
M  V30 6489 C 625.401 -1.1662 1.48476 0
M  V30 6490 O 624.758 -1.7187 0.613762 0
M  V30 6491 C 624.809 0.0621651 3.61447 0
M  V30 6492 O 624.53 1.34146 4.17057 0
M  V30 6493 C 626.031 -0.446102 4.4105 0
M  V30 6494 H 623.251 0.0871158 0.665321 0
M  V30 6495 H 625.795 0.886183 1.84301 0
M  V30 6496 H 623.95 -0.608794 3.82587 0
M  V30 6497 H 624.364 1.19675 5.10664 0
M  V30 6498 H 625.838 -0.46755 5.50016 0
M  V30 6499 H 626.315 -1.47627 4.13646 0
M  V30 6500 H 626.921 0.192159 4.24866 0
M  V30 6501 N 625.236 -1.5273 0.388769 0
M  V30 6502 C 626.166 -2.29353 -0.438111 0
M  V30 6503 C 627.147 -1.32719 -1.06394 0
M  V30 6504 O 628.332 -1.61612 -1.07681 0
M  V30 6505 C 625.462 -3.09995 -1.56589 0
M  V30 6506 C 624.416 -4.14509 -1.06613 0
M  V30 6507 C 623.742 -4.83372 -2.28594 0
M  V30 6508 C 625.042 -5.22127 -0.134459 0
M  V30 6509 H 626.736 -2.98723 0.201206 0
M  V30 6510 H 624.282 -1.43665 0.0982089 0
M  V30 6511 H 626.235 -3.62357 -2.15118 0
M  V30 6512 H 624.959 -2.38357 -2.23279 0
M  V30 6513 H 623.618 -3.63128 -0.503383 0
M  V30 6514 H 623.266 -4.08283 -2.93792 0
M  V30 6515 H 622.966 -5.54012 -1.95817 0
M  V30 6516 H 624.49 -5.38538 -2.87766 0
M  V30 6517 H 625.904 -5.69851 -0.627914 0
M  V30 6518 H 624.301 -6.00011 0.103534 0
M  V30 6519 H 625.371 -4.77971 0.816798 0
M  V30 6520 N 626.714 -0.118576 -1.57153 0
M  V30 6521 C 627.963 0.539339 -1.94355 0
M  V30 6522 C 628.276 1.67858 -1.00415 0
M  V30 6523 O 629.482 2.39922 -1.27081 0
M  V30 6524 C 627.938 1.01082 -3.45414 0
M  V30 6525 C 627.546 -0.0999402 -4.47889 0
M  V30 6526 C 629.29 1.64013 -3.91535 0
M  V30 6527 C 627.197 0.388212 -5.90124 0
M  V30 6528 H 626.127 0.205247 -0.725527 0
M  V30 6529 H 628.778 -0.19836 -1.82425 0
M  V30 6530 H 627.16 1.80292 -3.52577 0
M  V30 6531 H 628.334 -0.876189 -4.52393 0
M  V30 6532 H 626.649 -0.635885 -4.11516 0
M  V30 6533 H 629.246 2.01649 -4.95219 0
M  V30 6534 H 629.589 2.51836 -3.31488 0
M  V30 6535 H 630.122 0.913439 -3.87171 0
M  V30 6536 H 626.861 -0.453963 -6.53926 0
M  V30 6537 H 626.381 1.13095 -5.89041 0
M  V30 6538 H 628.06 0.849574 -6.41398 0
M  V30 6539 N 628.193 1.56834 0.155195 0
M  V30 6540 C 629.44 1.82898 0.869179 0
M  V30 6541 C 629.768 0.698194 1.81537 0
M  V30 6542 O 629.023 -0.313404 1.93174 0
M  V30 6543 C 629.322 3.15239 1.68402 0
M  V30 6544 C 628.988 4.42123 0.885341 0
M  V30 6545 C 627.65 4.76583 0.664971 0
M  V30 6546 C 630.002 5.20178 0.326234 0
M  V30 6547 C 627.33 5.86566 -0.125346 0
M  V30 6548 C 629.682 6.3099 -0.45108 0
M  V30 6549 C 628.346 6.64006 -0.682102 0
M  V30 6550 H 627.616 0.66927 0.318055 0
M  V30 6551 H 630.263 1.91036 0.133241 0
M  V30 6552 H 628.568 3.02515 2.48982 0
M  V30 6553 H 630.265 3.32618 2.23978 0
M  V30 6554 H 626.855 4.15102 1.06716 0
M  V30 6555 H 631.039 4.93936 0.483787 0
M  V30 6556 H 626.295 6.10594 -0.313915 0
M  V30 6557 H 630.469 6.9067 -0.89149 0
M  V30 6558 H 628.096 7.49065 -1.29636 0
M  V30 6559 N 629.671 -0.424282 1.51781 0
M  V30 6560 C 630.919 -1.17028 1.64769 0
M  V30 6561 C 631.24 -1.91409 0.372523 0
M  V30 6562 O 630.51 -1.86091 -0.612108 0
M  V30 6563 H 629.09 -0.434992 0.607282 0
M  V30 6564 H 631.752 -0.485169 1.88765 0
M  V30 6565 H 630.848 -1.8927 2.4816 0
M  V30 6566 N 631.149 -1.42148 -0.680565 0
M  V30 6567 C 632.397 -1.42029 -1.43779 0
M  V30 6568 C 632.718 -0.0356347 -1.94967 0
M  V30 6569 O 631.988 0.924936 -1.7269 0
M  V30 6570 H 630.568 -0.522835 -0.533529 0
M  V30 6571 H 633.23 -1.7752 -0.804538 0
M  V30 6572 H 632.326 -2.11658 -2.29363 0
M  V30 6573 N 632.627 0.916307 -1.28225 0
M  V30 6574 C 633.873 1.66765 -1.154 0
M  V30 6575 C 634.206 1.91912 0.297251 0
M  V30 6576 O 633.481 1.51766 1.21644 0
M  V30 6577 C 633.764 3.02715 -1.95028 0
M  V30 6578 C 633.617 2.84738 -3.48201 0
M  V30 6579 C 634.936 4.03215 -1.76369 0
M  V30 6580 H 632.055 0.605205 -0.42059 0
M  V30 6581 H 634.697 1.06255 -1.57512 0
M  V30 6582 H 632.847 3.54365 -1.59242 0
M  V30 6583 H 634.519 2.40118 -3.9388 0
M  V30 6584 H 632.762 2.19848 -3.73964 0
M  V30 6585 H 633.433 3.8127 -3.99171 0
M  V30 6586 H 635.909 3.60617 -2.07593 0
M  V30 6587 H 634.785 4.96306 -2.34459 0
M  V30 6588 H 635.046 4.36288 -0.71452 0
M  V30 6589 N 634.105 1.10431 1.1244 0
M  V30 6590 C 635.068 0.756542 2.16354 0
M  V30 6591 C 636.068 -0.21899 1.59302 0
M  V30 6592 O 637.258 0.00415969 1.742 0
M  V30 6593 C 634.39 0.120612 3.40687 0
M  V30 6594 H 635.583 1.67696 2.48632 0
M  V30 6595 H 633.136 0.904832 1.27446 0
M  V30 6596 H 633.871 -0.810536 3.14008 0
M  V30 6597 H 633.656 0.822693 3.83372 0
M  V30 6598 H 635.146 -0.106945 4.17463 0
M  V30 6599 N 635.583 -1.29855 0.893053 0
M  V30 6600 C 636.813 -1.99686 0.530019 0
M  V30 6601 C 637.221 -1.67066 -0.888012 0
M  V30 6602 O 636.564 -0.908366 -1.5967 0
M  V30 6603 C 636.626 -3.53855 0.63457 0
M  V30 6604 C 636.29 -4.10013 2.01837 0
M  V30 6605 C 637.287 -4.25406 2.98874 0
M  V30 6606 C 634.972 -4.45202 2.32595 0
M  V30 6607 C 636.966 -4.7521 4.24799 0
M  V30 6608 C 634.653 -4.94704 3.58763 0
M  V30 6609 C 635.651 -5.09662 4.5468 0
M  V30 6610 O 635.339 -5.58093 5.78608 0
M  V30 6611 H 635.071 -0.644913 0.20264 0
M  V30 6612 H 637.625 -1.66518 1.20253 0
M  V30 6613 H 635.855 -3.86583 -0.0949477 0
M  V30 6614 H 637.544 -4.04922 0.281648 0
M  V30 6615 H 638.31 -3.98515 2.76425 0
M  V30 6616 H 634.189 -4.32822 1.58701 0
M  V30 6617 H 637.733 -4.86801 4.99671 0
M  V30 6618 H 633.63 -5.21032 3.81046 0
M  V30 6619 H 634.398 -5.7642 5.81104 0
M  V30 6620 N 637.061 -0.65484 -1.43351 0
M  V30 6621 C 638.024 0.0263562 -2.29185 0
M  V30 6622 C 639.024 0.748951 -1.42293 0
M  V30 6623 O 640.214 0.589957 -1.63906 0
M  V30 6624 C 637.346 1.04806 -3.2439 0
M  V30 6625 H 638.539 -0.728883 -2.90908 0
M  V30 6626 H 636.092 -0.416149 -1.50658 0
M  V30 6627 H 636.827 1.83247 -2.67565 0
M  V30 6628 H 636.612 0.533554 -3.88453 0
M  V30 6629 H 638.102 1.52372 -3.88809 0
M  V30 6630 N 638.539 1.52521 -0.396863 0
M  V30 6631 C 639.769 2.05792 0.182485 0
M  V30 6632 C 640.177 1.26784 1.40436 0
M  V30 6633 O 639.52 0.309617 1.81072 0
M  V30 6634 C 639.582 3.54291 0.609781 0
M  V30 6635 C 639.246 4.5426 -0.499674 0
M  V30 6636 C 640.243 5.01812 -1.35944 0
M  V30 6637 C 637.928 4.97827 -0.668864 0
M  V30 6638 C 639.922 5.91562 -2.37346 0
M  V30 6639 C 637.609 5.87376 -1.68621 0
M  V30 6640 C 638.607 6.34137 -2.53692 0
M  V30 6641 O 638.295 7.21915 -3.53686 0
M  V30 6642 H 638.027 0.675362 0.0293583 0
M  V30 6643 H 640.581 1.97539 -0.56281 0
M  V30 6644 H 638.811 3.60188 1.40717 0
M  V30 6645 H 640.5 3.90267 1.11565 0
M  V30 6646 H 641.266 4.68879 -1.24008 0
M  V30 6647 H 637.145 4.60997 -0.0163971 0
M  V30 6648 H 640.689 6.27983 -3.03782 0
M  V30 6649 H 636.586 6.19723 -1.80593 0
M  V30 6650 H 637.354 7.39996 -3.49784 0
M  V30 6651 N 640.017 0.126909 1.57088 0
M  V30 6652 C 641.264 -0.529168 1.95464 0
M  V30 6653 C 641.592 -1.6618 1.01067 0
M  V30 6654 O 640.847 -1.95667 0.0360254 0
M  V30 6655 C 641.146 -1.095 3.40212 0
M  V30 6656 C 640.812 -0.0829015 4.50824 0
M  V30 6657 C 639.474 0.195377 4.80803 0
M  V30 6658 C 641.826 0.606411 5.1766 0
M  V30 6659 C 639.154 1.16912 5.74933 0
M  V30 6660 C 641.506 1.56884 6.12838 0
M  V30 6661 C 640.17 1.85502 6.41206 0
M  V30 6662 H 639.44 -0.193636 0.715252 0
M  V30 6663 H 642.087 0.209489 1.90351 0
M  V30 6664 H 640.392 -1.91058 3.42059 0
M  V30 6665 H 642.089 -1.61087 3.67222 0
M  V30 6666 H 638.679 -0.309979 4.27478 0
M  V30 6667 H 642.863 0.404597 4.94648 0
M  V30 6668 H 638.119 1.3975 5.95214 0
M  V30 6669 H 642.293 2.10859 6.6371 0
M  V30 6670 H 639.92 2.61109 7.13951 0
M  V30 6671 N 641.495 -1.56914 -0.146875 0
M  V30 6672 C 642.743 -1.82994 -0.85777 0
M  V30 6673 C 643.064 -0.707814 -1.817 0
M  V30 6674 O 642.334 0.270521 -1.94023 0
M  V30 6675 H 640.914 -0.675106 -0.319751 0
M  V30 6676 H 643.576 -1.9439 -0.140849 0
M  V30 6677 H 642.672 -2.77928 -1.41994 0
M  V30 6678 N 642.974 0.416227 -1.52004 0
M  V30 6679 C 644.214 1.17307 -1.67387 0
M  V30 6680 C 644.578 1.87959 -0.39183 0
M  V30 6681 O 645.779 2.65472 -0.421671 0
M  V30 6682 C 644.05 2.14661 -2.85754 0
M  V30 6683 S 645.609 2.98549 -3.21581 0
M  V30 6684 H 642.427 0.397505 -0.5895 0
M  V30 6685 H 645.029 0.461431 -1.89976 0
M  V30 6686 H 643.733 1.61431 -3.77317 0
M  V30 6687 H 643.264 2.90375 -2.65417 0
M  V30 6688 H 645.279 4.16536 -2.69652 0
M  V30 6689 N 644.452 1.42507 0.673017 0
M  V30 6690 C 645.362 1.4853 1.81593 0
M  V30 6691 C 646.378 0.373907 1.69935 0
M  V30 6692 O 647.554 0.625078 1.91454 0
M  V30 6693 C 644.619 1.387 3.17747 0
M  V30 6694 C 643.68 2.60346 3.41348 0
M  V30 6695 C 642.913 2.50975 4.71007 0
M  V30 6696 O 643.136 1.54659 5.49033 0
M  V30 6697 O 642.07 3.41138 4.95892 0
M  V30 6698 H 645.896 2.45001 1.79467 0
M  V30 6699 H 643.481 1.2429 0.82899 0
M  V30 6700 H 645.363 1.35586 3.98992 0
M  V30 6701 H 644.038 0.453555 3.20507 0
M  V30 6702 H 642.945 2.69034 2.59945 0
M  V30 6703 H 644.278 3.52595 3.43421 0
M  V30 6704 N 645.93 -0.909495 1.28709 0
M  V30 6705 C 646.84 -2.04558 1.14861 0
M  V30 6706 C 647.856 -1.73842 0.0741621 0
M  V30 6707 O 649.032 -1.99383 0.2843 0
M  V30 6708 C 646.097 -3.36957 0.816148 0
M  V30 6709 C 645.158 -3.81255 1.97341 0
M  V30 6710 C 644.391 -5.07335 1.65671 0
M  V30 6711 O 644.614 -5.67514 0.573053 0
M  V30 6712 O 643.548 -5.47449 2.50167 0
M  V30 6713 H 647.374 -2.19161 2.10243 0
M  V30 6714 H 644.959 -1.03159 1.08068 0
M  V30 6715 H 646.841 -4.16436 0.644873 0
M  V30 6716 H 645.516 -3.2352 -0.107983 0
M  V30 6717 H 644.423 -3.02584 2.19986 0
M  V30 6718 H 645.756 -3.99261 2.87839 0
M  V30 6719 N 647.408 -1.11026 -1.11852 0
M  V30 6720 C 648.656 -0.854769 -1.83134 0
M  V30 6721 C 648.977 0.621375 -1.84835 0
M  V30 6722 O 648.247 1.45129 -1.31584 0
M  V30 6723 H 646.827 -0.313229 -0.678157 0
M  V30 6724 H 649.489 -1.40178 -1.35411 0
M  V30 6725 H 648.585 -1.22311 -2.87135 0
M  V30 6726 N 648.886 1.2938 -0.899927 0
M  V30 6727 C 650.114 1.99691 -0.541386 0
M  V30 6728 C 650.529 1.67355 0.873936 0
M  V30 6729 O 649.886 0.918728 1.57688 0
M  V30 6730 C 649.937 3.54168 -0.72438 0
M  V30 6731 O 649.658 3.85359 -2.08399 0
M  V30 6732 C 651.159 4.41746 -0.370819 0
M  V30 6733 H 648.379 0.638037 -0.207726 0
M  V30 6734 H 650.923 1.6491 -1.20934 0
M  V30 6735 H 649.078 3.87261 -0.103607 0
M  V30 6736 H 649.492 4.80032 -2.11352 0
M  V30 6737 H 650.966 5.49256 -0.549693 0
M  V30 6738 H 651.443 4.33712 0.692148 0
M  V30 6739 H 652.049 4.14125 -0.968543 0
M  V30 6740 N 650.364 0.662433 1.43002 0
M  V30 6741 C 651.297 -0.073459 2.28082 0
M  V30 6742 C 652.275 -0.820869 1.40358 0
M  V30 6743 O 653.459 -0.818545 1.698 0
M  V30 6744 C 650.586 -1.11097 3.19961 0
M  V30 6745 C 649.632 -0.460557 4.24006 0
M  V30 6746 S 650.465 0.772717 5.29896 0
M  V30 6747 C 651.621 -0.264028 6.25343 0
M  V30 6748 H 651.854 0.648227 2.90147 0
M  V30 6749 H 649.387 0.451566 1.47649 0
M  V30 6750 H 651.345 -1.70452 3.73439 0
M  V30 6751 H 650.006 -1.80503 2.57056 0
M  V30 6752 H 649.199 -1.24299 4.88432 0
M  V30 6753 H 648.801 0.0591038 3.73953 0
M  V30 6754 H 651.093 -1.12748 6.68052 0
M  V30 6755 H 652.036 0.345443 7.07257 0
M  V30 6756 H 652.444 -0.603964 5.6126 0
M  V30 6757 N 651.842 -1.52309 0.404946 0
M  V30 6758 C 653.072 -2.05886 -0.171569 0
M  V30 6759 C 653.48 -1.27527 -1.39762 0
M  V30 6760 O 652.823 -0.319215 -1.80905 0
M  V30 6761 C 652.885 -3.54609 -0.590983 0
M  V30 6762 C 652.549 -4.53989 0.523757 0
M  V30 6763 C 653.546 -5.01084 1.38604 0
M  V30 6764 C 651.231 -4.97465 0.695255 0
M  V30 6765 C 653.225 -5.90295 2.4048 0
M  V30 6766 C 650.912 -5.86473 1.71733 0
M  V30 6767 C 651.91 -6.32782 2.57051 0
M  V30 6768 O 651.598 -7.20029 3.57509 0
M  V30 6769 H 651.33 -0.675508 -0.0257763 0
M  V30 6770 H 653.884 -1.97238 0.573278 0
M  V30 6771 H 652.114 -3.60929 -1.38805 0
M  V30 6772 H 653.803 -3.90853 -1.09494 0
M  V30 6773 H 654.569 -4.68214 1.26492 0
M  V30 6774 H 650.448 -4.60982 0.0408447 0
M  V30 6775 H 653.992 -6.26363 3.07108 0
M  V30 6776 H 649.889 -6.18756 1.83877 0
M  V30 6777 H 650.657 -7.3813 3.53703 0
M  V30 6778 N 653.32 -0.135238 -1.57019 0
M  V30 6779 C 654.567 0.518794 -1.95742 0
M  V30 6780 C 654.895 1.65642 -1.01947 0
M  V30 6781 O 654.15 1.95645 -0.0464016 0
M  V30 6782 C 654.449 1.07694 -3.40788 0
M  V30 6783 C 654.115 0.058992 -4.50861 0
M  V30 6784 C 652.777 -0.220872 -4.80693 0
M  V30 6785 C 655.129 -0.633856 -5.17331 0
M  V30 6786 C 652.457 -1.19959 -5.74305 0
M  V30 6787 C 654.809 -1.60131 -6.11997 0
M  V30 6788 C 653.473 -1.889 -6.40213 0
M  V30 6789 H 652.743 0.18984 -0.716269 0
M  V30 6790 H 655.39 -0.219581 -1.90237 0
M  V30 6791 H 653.695 1.89241 -3.43067 0
M  V30 6792 H 655.392 1.59137 -3.68071 0
M  V30 6793 H 651.982 0.287304 -4.27636 0
M  V30 6794 H 656.166 -0.430823 -4.94427 0
M  V30 6795 H 651.422 -1.42905 -5.94465 0
M  V30 6796 H 655.596 -2.14376 -6.62583 0
M  V30 6797 H 653.223 -2.64891 -7.12556 0
M  V30 6798 N 654.798 1.5699 0.138552 0
M  V30 6799 C 656.044 1.84081 0.85099 0
M  V30 6800 C 656.377 0.718107 1.80435 0
M  V30 6801 O 655.652 -0.277633 1.92508 0
M  V30 6802 C 655.935 3.21699 1.61808 0
M  V30 6803 C 655.788 4.44544 0.685633 0
M  V30 6804 C 657.107 3.5664 2.57868 0
M  V30 6805 H 654.226 0.669592 0.307922 0
M  V30 6806 H 656.868 1.89646 0.11588 0
M  V30 6807 H 655.018 3.17086 2.24474 0
M  V30 6808 H 656.69 4.61248 0.0693179 0
M  V30 6809 H 654.933 4.338 -0.00421993 0
M  V30 6810 H 655.604 5.3746 1.25858 0
M  V30 6811 H 658.08 3.61918 2.05316 0
M  V30 6812 H 656.956 4.53946 3.08584 0
M  V30 6813 H 657.217 2.83036 3.39622 0
M  V30 6814 N 656.276 -0.40816 1.52223 0
M  V30 6815 C 657.687 -0.986929 1.58482 0
M  V30 6816 C 658.038 -1.91521 0.425917 0
M  V30 6817 O 657.163 -2.11593 -0.453593 0
M  V30 6818 C 657.758 -1.7967 2.87235 0
M  V30 6819 C 656.317 -2.32549 2.9597 0
M  V30 6820 C 655.464 -1.12558 2.53428 0
M  V30 6821 H 658.415 -0.188362 1.57578 0
M  V30 6822 H 658.436 -2.65417 2.72642 0
M  V30 6823 H 657.948 -1.12082 3.71563 0
M  V30 6824 H 656.049 -3.03505 2.16137 0
M  V30 6825 H 656.162 -2.63348 4.00231 0
M  V30 6826 H 654.526 -1.47984 2.07299 0
M  V30 6827 H 655.309 -0.465351 3.40131 0
M  V30 6828 N 657.755 -1.42862 -0.66545 0
M  V30 6829 C 659.171 -1.25993 -0.979687 0
M  V30 6830 C 659.371 -0.170831 -2.00775 0
M  V30 6831 O 658.427 0.454827 -2.4837 0
M  V30 6832 C 659.74 -2.62005 -1.47559 0
M  V30 6833 C 661.288 -2.69437 -1.59288 0
M  V30 6834 C 661.763 -4.05838 -2.12272 0
M  V30 6835 N 663.254 -4.0784 -2.19592 0
M  V30 6836 C 663.989 -5.10205 -2.61684 0
M  V30 6837 N 663.485 -6.22949 -3.03161 0
M  V30 6838 N 665.278 -4.9756 -2.61516 0
M  V30 6839 H 657.429 -2.12395 0.0150493 0
M  V30 6840 H 659.692 -0.946355 -0.0558187 0
M  V30 6841 H 659.398 -3.42605 -0.794654 0
M  V30 6842 H 659.272 -2.86566 -2.45275 0
M  V30 6843 H 661.659 -1.89178 -2.26486 0
M  V30 6844 H 661.74 -2.48655 -0.600374 0
M  V30 6845 H 661.384 -4.86559 -1.4568 0
M  V30 6846 H 661.314 -4.23977 -3.12331 0
M  V30 6847 H 663.805 -3.26452 -1.90361 0
M  V30 6848 H 664.118 -6.96899 -3.33993 0
M  V30 6849 H 662.463 -6.2644 -3.00995 0
M  V30 6850 H 665.654 -4.08551 -2.28481 0
M  V30 6851 H 665.827 -5.77468 -2.93999 0
M  V30 6852 N 659.233 0.902656 -1.29189 0
M  V30 6853 C 660.196 1.98797 -1.14071 0
M  V30 6854 C 661.196 1.60615 -0.0770549 0
M  V30 6855 O 662.386 1.71165 -0.323753 0
M  V30 6856 C 659.518 3.32688 -0.743739 0
M  V30 6857 H 660.711 2.13637 -2.10473 0
M  V30 6858 H 658.264 1.08678 -1.12334 0
M  V30 6859 H 658.999 3.23549 0.220554 0
M  V30 6860 H 658.784 3.61765 -1.51223 0
M  V30 6861 H 660.274 4.12337 -0.660935 0
M  V30 6862 N 660.711 1.11618 1.11262 0
M  V30 6863 C 661.658 0.7762 2.17356 0
M  V30 6864 C 662.628 -0.253152 1.6416 0
M  V30 6865 O 663.813 -0.129655 1.90359 0
M  V30 6866 C 660.953 0.227581 3.44349 0
M  V30 6867 C 660.066 1.31372 4.1154 0
M  V30 6868 C 659.201 0.72544 5.26223 0
M  V30 6869 C 658.24 1.7913 5.85302 0
M  V30 6870 N 657.377 1.22237 6.91377 0
M  V30 6871 H 662.217 1.68508 2.45783 0
M  V30 6872 H 659.754 0.841475 1.20655 0
M  V30 6873 H 661.712 -0.108483 4.17059 0
M  V30 6874 H 660.342 -0.644486 3.16301 0
M  V30 6875 H 659.394 1.7667 3.36885 0
M  V30 6876 H 660.706 2.12005 4.51504 0
M  V30 6877 H 659.86 0.339541 6.05749 0
M  V30 6878 H 658.599 -0.112188 4.87571 0
M  V30 6879 H 657.604 2.18648 5.04453 0
M  V30 6880 H 658.829 2.63199 6.26022 0
M  V30 6881 H 656.775 0.406423 6.5474 0
M  V30 6882 H 656.692 1.9654 7.30006 0
M  V30 6883 H 657.96 0.863426 7.74703 0
M  V30 6884 N 662.189 -1.289 0.906776 0
M  V30 6885 C 663.414 -1.99939 0.551303 0
M  V30 6886 C 663.839 -1.67366 -0.858496 0
M  V30 6887 O 663.197 -0.902176 -1.57259 0
M  V30 6888 C 663.245 -3.52523 0.758937 0
M  V30 6889 O 662.349 -4.11983 -0.185308 0
M  V30 6890 H 661.69 -0.628376 0.214568 0
M  V30 6891 H 664.22 -1.64225 1.2203 0
M  V30 6892 H 664.23 -4.02522 0.666329 0
M  V30 6893 H 662.905 -3.75566 1.78671 0
M  V30 6894 H 661.482 -3.72873 -0.0445577 0
M  V30 6895 N 663.667 -0.670007 -1.42649 0
M  V30 6896 C 664.913 -0.190568 -2.01903 0
M  V30 6897 C 665.246 1.19817 -1.52832 0
M  V30 6898 O 664.521 1.80342 -0.728485 0
M  V30 6899 C 664.804 -0.21991 -3.59428 0
M  V30 6900 C 664.657 -1.64376 -4.18689 0
M  V30 6901 C 665.976 0.434519 -4.3795 0
M  V30 6902 H 663.095 -0.0707219 -0.733599 0
M  V30 6903 H 665.737 -0.853883 -1.69732 0
M  V30 6904 H 663.887 0.344894 -3.86966 0
M  V30 6905 H 665.559 -2.26044 -4.02122 0
M  V30 6906 H 663.802 -2.18591 -3.747 0
M  V30 6907 H 664.473 -1.61601 -5.27815 0
M  V30 6908 H 666.949 -0.0462156 -4.16074 0
M  V30 6909 H 665.825 0.38333 -5.4756 0
M  V30 6910 H 666.086 1.51135 -4.15464 0
M  V30 6911 N 665.145 1.52092 -0.413018 0
M  V30 6912 C 666.391 2.02154 0.161737 0
M  V30 6913 C 666.724 1.29789 1.44459 0
M  V30 6914 O 665.999 0.405378 1.90229 0
M  V30 6915 C 666.282 3.5781 0.405463 0
M  V30 6916 C 666.135 4.40819 -0.894335 0
M  V30 6917 C 667.454 4.23821 1.18591 0
M  V30 6918 H 664.573 0.734769 0.0573077 0
M  V30 6919 H 667.215 1.81948 -0.547247 0
M  V30 6920 H 665.365 3.75158 1.0094 0
M  V30 6921 H 667.037 4.35175 -1.53039 0
M  V30 6922 H 665.28 4.06877 -1.50444 0
M  V30 6923 H 665.951 5.47819 -0.678144 0
M  V30 6924 H 668.427 4.10596 0.674573 0
M  V30 6925 H 667.303 5.32663 1.3252 0
M  V30 6926 H 667.564 3.83038 2.20758 0
M  V30 6927 N 666.623 0.143563 1.56945 0
M  V30 6928 C 667.848 -0.518701 2.00809 0
M  V30 6929 C 668.273 -1.5785 1.02298 0
M  V30 6930 O 667.631 -1.813 -0.0017839 0
M  V30 6931 C 667.679 -1.09929 3.43436 0
M  V30 6932 O 666.783 -2.21425 3.47915 0
M  V30 6933 H 666.124 -0.127215 0.6517 0
M  V30 6934 H 668.654 0.239283 2.03196 0
M  V30 6935 H 668.664 -1.4288 3.82164 0
M  V30 6936 H 667.339 -0.323162 4.14643 0
M  V30 6937 H 665.916 -1.89728 3.21026 0
M  V30 6938 N 668.101 -1.57061 -0.130224 0
M  V30 6939 C 669.517 -1.52103 -0.483413 0
M  V30 6940 C 669.717 -0.854752 -1.82473 0
M  V30 6941 O 668.773 -0.432342 -2.48771 0
M  V30 6942 C 670.086 -2.96872 -0.47825 0
M  V30 6943 C 671.634 -3.07902 -0.562592 0
M  V30 6944 C 672.109 -4.54211 -0.587929 0
M  V30 6945 N 673.6 -4.58621 -0.649684 0
M  V30 6946 C 674.335 -5.69227 -0.690551 0
M  V30 6947 N 673.831 -6.89358 -0.689743 0
M  V30 6948 N 675.624 -5.57304 -0.732708 0
M  V30 6949 H 667.775 -1.98764 0.748779 0
M  V30 6950 H 670.038 -0.907248 0.274965 0
M  V30 6951 H 669.744 -3.48944 0.439444 0
M  V30 6952 H 669.618 -3.53716 -1.31013 0
M  V30 6953 H 672.005 -2.5584 -1.47071 0
M  V30 6954 H 672.086 -2.54073 0.296764 0
M  V30 6955 H 671.73 -5.06915 0.316096 0
M  V30 6956 H 671.66 -5.0584 -1.46401 0
M  V30 6957 H 674.151 -3.72146 -0.656927 0
M  V30 6958 H 674.464 -7.69408 -0.723239 0
M  V30 6959 H 672.809 -6.91884 -0.657347 0
M  V30 6960 H 676 -4.62363 -0.730625 0
M  V30 6961 H 676.173 -6.43515 -0.76109 0
M  V30 6962 N 669.579 0.400081 -1.52437 0
M  V30 6963 C 670.828 1.14332 -1.66166 0
M  V30 6964 C 671.141 1.91419 -0.402253 0
M  V30 6965 O 672.347 2.6824 -0.419487 0
M  V30 6966 C 670.803 2.08137 -2.9361 0
M  V30 6967 C 670.411 1.36524 -4.26691 0
M  V30 6968 C 672.155 2.82664 -3.16703 0
M  V30 6969 C 670.062 2.29031 -5.45251 0
M  V30 6970 H 668.992 0.430499 -0.61902 0
M  V30 6971 H 671.643 0.407017 -1.78929 0
M  V30 6972 H 670.025 2.85358 -2.74567 0
M  V30 6973 H 671.199 0.646061 -4.56249 0
M  V30 6974 H 669.514 0.74002 -4.09771 0
M  V30 6975 H 672.111 3.52037 -4.0246 0
M  V30 6976 H 672.454 3.46122 -2.31312 0
M  V30 6977 H 672.987 2.12541 -3.36261 0
M  V30 6978 H 669.726 1.70206 -6.33017 0
M  V30 6979 H 669.246 2.98896 -5.2002 0
M  V30 6980 H 670.925 2.89359 -5.78689 0
M  V30 6981 N 671.057 1.43213 0.657864 0
M  V30 6982 C 672.305 1.44298 1.41501 0
M  V30 6983 C 672.626 0.0666478 1.94886 0
M  V30 6984 O 671.896 -0.897345 1.74139 0
M  V30 6985 H 670.476 0.531257 0.525143 0
M  V30 6986 H 673.138 1.78777 0.776195 0
M  V30 6987 H 672.234 2.1528 2.25966 0
M  V30 6988 N 672.536 -0.895792 1.29666 0
M  V30 6989 C 673.813 -1.62723 1.08538 0
M  V30 6990 C 674.193 -2.07848 -0.369119 0
M  V30 6991 O 673.541 -1.8372 -1.35864 0
M  V30 6992 C 673.751 -2.80505 2.07648 0
M  V30 6993 C 675.099 -3.51098 2.3878 0
M  V30 6994 O 676.123 -2.90679 2.05874 0
M  V30 6995 O 674.982 -4.60028 2.9502 0
M  V30 6996 H 672.076 -0.714692 0.416106 0
M  V30 6997 H 674.622 -0.943517 1.41053 0
M  V30 6998 H 673.394 -2.44386 3.05599 0
M  V30 6999 H 673.017 -3.5658 1.75887 0
M  V30 7000 N 674.014 -1.12206 -1.10668 0
M  V30 7001 C 675.239 -0.898938 -1.86906 0
M  V30 7002 C 675.664 0.546346 -1.79991 0
M  V30 7003 O 675.022 1.38655 -1.1681 0
M  V30 7004 C 675.07 -1.37529 -3.33344 0
M  V30 7005 O 674.174 -0.55218 -4.08687 0
M  V30 7006 H 673.515 -0.323163 -0.580053 0
M  V30 7007 H 676.045 -1.49355 -1.39837 0
M  V30 7008 H 676.055 -1.3733 -3.84193 0
M  V30 7009 H 674.73 -2.42767 -3.37693 0
M  V30 7010 H 673.307 -0.620947 -3.67694 0
M  V30 7011 N 675.492 1.28418 -0.913599 0
M  V30 7012 C 676.741 1.94265 -0.542572 0
M  V30 7013 C 677.054 1.72709 0.918207 0
M  V30 7014 O 678.26 2.32778 1.39738 0
M  V30 7015 C 676.716 3.47956 -0.919507 0
M  V30 7016 C 676.324 3.78291 -2.4 0
M  V30 7017 C 678.068 4.19962 -0.619057 0
M  V30 7018 C 675.975 5.2529 -2.71707 0
M  V30 7019 H 674.905 0.727213 -0.199192 0
M  V30 7020 H 677.556 1.45931 -1.11249 0
M  V30 7021 H 675.938 3.9502 -0.278372 0
M  V30 7022 H 677.112 3.42035 -3.08786 0
M  V30 7023 H 675.427 3.19456 -2.67089 0
M  V30 7024 H 678.024 5.28178 -0.832623 0
M  V30 7025 H 678.367 4.13935 0.443126 0
M  V30 7026 H 678.9 3.78674 -1.21865 0
M  V30 7027 H 675.639 5.36394 -3.76778 0
M  V30 7028 H 675.159 5.62743 -2.07559 0
M  V30 7029 H 676.838 5.93027 -2.58703 0
M  V30 7030 N 676.97 0.677563 1.42291 0
M  V30 7031 C 678.217 0.200975 2.015 0
M  V30 7032 C 678.545 -1.19342 1.53583 0
M  V30 7033 O 677.8 -1.81579 0.7299 0
M  V30 7034 C 678.099 0.187229 3.56909 0
M  V30 7035 C 677.765 1.52667 4.24268 0
M  V30 7036 C 676.427 1.89341 4.42384 0
M  V30 7037 C 678.779 2.40869 4.62203 0
M  V30 7038 C 676.107 3.13836 4.95705 0
M  V30 7039 C 678.459 3.64679 5.16906 0
M  V30 7040 C 677.123 4.01519 5.33234 0
M  V30 7041 H 676.393 0.0735418 0.737342 0
M  V30 7042 H 679.04 0.873095 1.70439 0
M  V30 7043 H 677.345 -0.568407 3.87655 0
M  V30 7044 H 679.042 -0.198773 4.00507 0
M  V30 7045 H 675.632 1.23138 4.1053 0
M  V30 7046 H 679.816 2.1382 4.47878 0
M  V30 7047 H 675.072 3.42396 5.06532 0
M  V30 7048 H 679.246 4.33224 5.45243 0
M  V30 7049 H 676.873 4.98062 5.74316 0
M  V30 7050 N 678.448 -1.51871 0.421078 0
M  V30 7051 C 679.676 -2.06356 -0.14994 0
M  V30 7052 C 680.091 -1.29006 -1.37851 0
M  V30 7053 O 679.448 -0.345139 -1.79207 0
M  V30 7054 C 679.499 -3.58185 -0.488454 0
M  V30 7055 O 679.22 -4.32611 0.691341 0
M  V30 7056 C 680.721 -4.29129 -1.11191 0
M  V30 7057 H 677.941 -0.67083 -0.0151186 0
M  V30 7058 H 680.485 -1.95638 0.595476 0
M  V30 7059 H 678.64 -3.68871 -1.18376 0
M  V30 7060 H 679.054 -5.22927 0.405906 0
M  V30 7061 H 680.528 -5.36501 -1.29889 0
M  V30 7062 H 681.005 -3.86371 -2.0884 0
M  V30 7063 H 681.611 -4.22843 -0.456458 0
M  V30 7064 N 679.926 -0.151884 -1.56866 0
M  V30 7065 C 681.174 0.497021 -1.95893 0
M  V30 7066 C 681.495 1.65078 -1.03799 0
M  V30 7067 O 680.765 1.95642 -0.10049 0
M  V30 7068 H 679.345 0.186603 -0.723318 0
M  V30 7069 H 682.007 -0.228525 -1.93556 0
M  V30 7070 H 681.103 0.869933 -2.99731 0
M  V30 7071 N 681.404 1.57128 0.121893 0
M  V30 7072 C 682.644 1.86517 0.836113 0
M  V30 7073 C 683.008 0.739497 1.77188 0
M  V30 7074 O 684.209 0.91508 2.52744 0
M  V30 7075 C 682.48 3.21129 1.56878 0
M  V30 7076 S 684.039 3.72143 2.32497 0
M  V30 7077 H 680.857 0.653923 0.279115 0
M  V30 7078 H 683.459 1.95271 0.0946254 0
M  V30 7079 H 682.163 4.01002 0.873255 0
M  V30 7080 H 681.694 3.15446 2.35069 0
M  V30 7081 H 683.709 3.43413 3.58164 0
M  V30 7082 N 682.882 -0.391992 1.52647 0
M  V30 7083 C 684.11 -1.1586 1.71418 0
M  V30 7084 C 684.525 -1.8381 0.431216 0
M  V30 7085 O 683.882 -1.7256 -0.594085 0
M  V30 7086 C 683.933 -2.20888 2.86165 0
M  V30 7087 O 683.654 -1.5571 4.09495 0
M  V30 7088 C 685.155 -3.103 3.1659 0
M  V30 7089 H 682.375 -0.347494 0.574011 0
M  V30 7090 H 684.919 -0.458972 1.99283 0
M  V30 7091 H 683.074 -2.86492 2.6077 0
M  V30 7092 H 683.488 -2.25474 4.73563 0
M  V30 7093 H 684.962 -3.8003 4.00351 0
M  V30 7094 H 685.439 -3.73639 2.30848 0
M  V30 7095 H 686.045 -2.50345 3.43813 0
M  V30 7096 N 684.36 -1.4356 -0.65026 0
M  V30 7097 C 685.608 -1.45046 -1.40734 0
M  V30 7098 C 685.929 -0.0769822 -1.94848 0
M  V30 7099 O 685.199 0.888098 -1.74613 0
M  V30 7100 H 683.779 -0.534034 -0.522318 0
M  V30 7101 H 686.441 -1.79186 -0.766703 0
M  V30 7102 H 685.537 -2.16476 -2.24822 0
M  V30 7103 N 685.838 0.888903 -1.30139 0
M  V30 7104 C 687.063 1.67884 -1.21777 0
M  V30 7105 C 687.488 1.86848 0.216689 0
M  V30 7106 O 686.846 1.39659 1.15608 0
M  V30 7107 C 686.894 3.03483 -1.94757 0
M  V30 7108 O 685.998 3.92294 -1.27198 0
M  V30 7109 H 685.339 0.513144 -0.421402 0
M  V30 7110 H 687.869 1.10968 -1.71893 0
M  V30 7111 H 687.879 3.53553 -2.03627 0
M  V30 7112 H 686.554 2.89 -2.99085 0
M  V30 7113 H 685.131 3.50732 -1.26655 0
M  V30 7114 N 687.317 1.12792 1.10072 0
M  V30 7115 C 688.563 0.89679 1.82563 0
M  V30 7116 C 688.918 -0.571152 1.83727 0
M  V30 7117 O 688.211 -1.41697 1.28967 0
M  V30 7118 C 688.405 1.4102 3.28403 0
M  V30 7119 C 688.234 2.92652 3.41445 0
M  V30 7120 C 687.004 3.60928 3.53637 0
M  V30 7121 C 689.202 3.9063 3.34534 0
M  V30 7122 N 687.184 5.00638 3.55295 0
M  V30 7123 C 688.555 5.16492 3.42981 0
M  V30 7124 C 690.61 3.82989 3.18157 0
M  V30 7125 C 689.313 6.35609 3.3674 0
M  V30 7126 C 691.339 5.01633 3.13239 0
M  V30 7127 C 690.701 6.26355 3.22272 0
M  V30 7128 H 686.8 0.381482 0.682638 0
M  V30 7129 H 689.384 1.43491 1.31599 0
M  V30 7130 H 687.555 0.899077 3.77851 0
M  V30 7131 H 689.287 1.12075 3.88872 0
M  V30 7132 H 686.042 3.11429 3.56803 0
M  V30 7133 H 686.466 5.73521 3.59725 0
M  V30 7134 H 691.108 2.87454 3.10049 0
M  V30 7135 H 688.826 7.31407 3.43613 0
M  V30 7136 H 692.412 4.97454 3.01713 0
M  V30 7137 H 691.292 7.1662 3.18473 0
M  V30 7138 N 688.795 -1.27931 0.920396 0
M  V30 7139 C 689.743 -2.29061 0.404191 0
M  V30 7140 C 690.737 -1.61615 -0.507634 0
M  V30 7141 O 691.943 -1.75765 -0.388144 0
M  V30 7142 H 688.318 -0.743594 0.112123 0
M  V30 7143 H 690.289 -2.70021 1.27008 0
M  V30 7144 C 689.038 -3.46088 -0.334466 0
M  V30 7145 H 688.361 -3.98194 0.35797 0
M  V30 7146 H 689.801 -4.18829 -0.660196 0
M  V30 7147 C 688.26 -2.99396 -1.54479 0
M  V30 7148 O 688.79 -3.02439 -2.64374 0
M  V30 7149 N 686.996 -2.54978 -1.39408 0
M  V30 7150 H 686.543 -2.52701 -0.500009 0
M  V30 7151 H 686.501 -2.24098 -2.20516 0
M  V30 7152 N 690.273 -0.685099 -1.4193 0
M  V30 7153 C 691.22 -0.0131869 -2.30796 0
M  V30 7154 C 692.19 0.782129 -1.46533 0
M  V30 7155 O 693.375 0.75229 -1.75343 0
M  V30 7156 C 690.515 0.924768 -3.32479 0
M  V30 7157 C 689.628 0.122181 -4.31827 0
M  V30 7158 C 688.763 1.05682 -5.20581 0
M  V30 7159 C 687.802 0.246526 -6.11603 0
M  V30 7160 N 686.939 1.13442 -6.92875 0
M  V30 7161 H 691.779 -0.776789 -2.87698 0
M  V30 7162 H 689.316 -0.394791 -1.41703 0
M  V30 7163 H 691.274 1.48251 -3.89971 0
M  V30 7164 H 689.904 1.65488 -2.77152 0
M  V30 7165 H 688.956 -0.552335 -3.76369 0
M  V30 7166 H 690.268 -0.506473 -4.96222 0
M  V30 7167 H 689.422 1.68415 -5.82856 0
M  V30 7168 H 688.161 1.71935 -4.56388 0
M  V30 7169 H 687.166 -0.393944 -5.48387 0
M  V30 7170 H 688.391 -0.412053 -6.77849 0
M  V30 7171 H 686.337 1.78316 -6.313 0
M  V30 7172 H 686.254 0.561089 -7.53915 0
M  V30 7173 H 687.522 1.74889 -7.59628 0
M  V30 7174 N 691.751 1.51645 -0.429126 0
M  V30 7175 C 692.997 2.02314 0.140286 0
M  V30 7176 C 693.33 1.31314 1.43074 0
M  V30 7177 O 692.605 0.425531 1.89788 0
M  V30 7178 C 692.888 3.5822 0.36749 0
M  V30 7179 C 692.741 4.39846 -0.941039 0
M  V30 7180 C 694.06 4.25055 1.14089 0
M  V30 7181 H 691.179 0.735335 0.0495112 0
M  V30 7182 H 693.821 1.81358 -0.566514 0
M  V30 7183 H 691.971 3.76207 0.969556 0
M  V30 7184 H 693.643 4.33527 -1.57646 0
M  V30 7185 H 691.886 4.05259 -1.54751 0
M  V30 7186 H 692.557 5.47069 -0.73621 0
M  V30 7187 H 695.033 4.11288 0.630986 0
M  V30 7188 H 693.909 5.34038 1.26863 0
M  V30 7189 H 694.17 3.85358 2.16683 0
M  V30 7190 N 693.229 0.160201 1.56784 0
M  V30 7191 C 694.457 -0.494165 2.00912 0
M  V30 7192 C 694.872 -1.57548 1.04038 0
M  V30 7193 O 694.229 -1.82457 0.0394581 0
M  V30 7194 C 694.28 -1.08271 3.44905 0
M  V30 7195 O 694.001 -0.0445704 4.38077 0
M  V30 7196 C 695.502 -1.8164 4.04378 0
M  V30 7197 H 692.722 -0.127498 0.658776 0
M  V30 7198 H 695.266 0.258665 2.02858 0
M  V30 7199 H 693.421 -1.78609 3.4377 0
M  V30 7200 H 693.835 -0.477544 5.22322 0
M  V30 7201 H 695.309 -2.18094 5.07089 0
M  V30 7202 H 695.786 -2.70727 3.45838 0
M  V30 7203 H 696.392 -1.15969 4.09184 0
M  V30 7204 N 694.707 -1.5719 -0.113559 0
M  V30 7205 C 695.639 -1.97393 -1.16484 0
M  V30 7206 C 696.652 -0.873964 -1.37352 0
M  V30 7207 O 697.841 -1.15222 -1.36331 0
M  V30 7208 C 694.941 -2.26174 -2.52386 0
M  V30 7209 C 694.114 -3.57479 -2.52046 0
M  V30 7210 C 693.173 -3.74409 -3.69735 0
M  V30 7211 O 692.199 -4.46463 -3.53071 0
M  V30 7212 N 693.401 -3.13588 -4.88511 0
M  V30 7213 H 696.166 -2.88184 -0.822814 0
M  V30 7214 H 693.727 -1.59044 -0.302769 0
M  V30 7215 H 695.719 -2.3471 -3.29687 0
M  V30 7216 H 694.289 -1.41483 -2.7875 0
M  V30 7217 H 693.509 -3.60081 -1.60421 0
M  V30 7218 H 694.797 -4.43775 -2.48881 0
M  V30 7219 H 694.195 -2.55026 -5.04953 0
M  V30 7220 H 692.752 -3.27637 -5.63469 0
M  V30 7221 N 696.185 0.383891 -1.52853 0
M  V30 7222 C 697.434 1.12563 -1.67369 0
M  V30 7223 C 697.747 1.90982 -0.422533 0
M  V30 7224 O 698.953 2.6778 -0.447914 0
M  V30 7225 C 697.409 2.05011 -2.95801 0
M  V30 7226 C 697.017 1.31991 -4.28115 0
M  V30 7227 C 698.761 2.79289 -3.19684 0
M  V30 7228 C 696.668 2.23235 -5.4765 0
M  V30 7229 H 695.598 0.42391 -0.623552 0
M  V30 7230 H 698.249 0.388016 -1.79351 0
M  V30 7231 H 696.631 2.82429 -2.77578 0
M  V30 7232 H 697.805 0.597633 -4.56908 0
M  V30 7233 H 696.12 0.696517 -4.10533 0
M  V30 7234 H 698.717 3.47749 -4.06171 0
M  V30 7235 H 699.06 3.43649 -2.3497 0
M  V30 7236 H 699.593 2.08962 -3.38496 0
M  V30 7237 H 696.332 1.63482 -6.34786 0
M  V30 7238 H 695.852 2.93364 -5.23161 0
M  V30 7239 H 697.531 2.83205 -5.81725 0
M  V30 7240 N 697.663 1.43903 0.642637 0
M  V30 7241 C 698.626 1.49538 1.73698 0
M  V30 7242 C 699.626 0.378776 1.56275 0
M  V30 7243 O 700.816 0.64095 1.6198 0
M  V30 7244 C 697.948 1.35821 3.12675 0
M  V30 7245 H 699.141 2.47008 1.70079 0
M  V30 7246 H 696.694 1.30824 0.85526 0
M  V30 7247 H 697.429 0.393994 3.21898 0
M  V30 7248 H 697.214 2.16776 3.26727 0
M  V30 7249 H 698.704 1.4272 3.92455 0
M  V30 7250 N 699.141 -0.881989 1.30609 0
M  V30 7251 C 700.089 -2.00942 1.17155 0
M  V30 7252 C 701.083 -1.69198 0.0827154 0
M  V30 7253 O 702.289 -1.78342 0.243775 0
M  V30 7254 H 698.664 -0.658913 0.362406 0
M  V30 7255 H 700.635 -2.09423 2.12567 0
M  V30 7256 C 699.384 -3.36294 0.883273 0
M  V30 7257 H 698.707 -3.61233 1.7132 0
M  V30 7258 H 700.147 -4.15812 0.829255 0
M  V30 7259 C 698.606 -3.34348 -0.413851 0
M  V30 7260 O 699.136 -3.75216 -1.43444 0
M  V30 7261 N 697.342 -2.87459 -0.426082 0
M  V30 7262 H 696.889 -2.54397 0.40493 0
M  V30 7263 H 696.847 -2.8654 -1.29391 0
M  V30 7264 N 700.619 -1.13374 -1.09472 0
M  V30 7265 C 701.552 -0.754354 -2.15371 0
M  V30 7266 C 702.53 0.259205 -1.60521 0
M  V30 7267 O 703.714 0.150819 -1.87896 0
M  V30 7268 C 700.841 -0.118197 -3.38494 0
M  V30 7269 C 699.887 -1.10017 -4.12066 0
M  V30 7270 S 700.72 -2.63242 -4.6633 0
M  V30 7271 C 701.876 -2.00984 -5.92753 0
M  V30 7272 H 702.109 -1.65135 -2.4722 0
M  V30 7273 H 699.642 -0.953838 -1.21414 0
M  V30 7274 H 701.6 0.242447 -4.09783 0
M  V30 7275 H 700.261 0.756065 -3.04865 0
M  V30 7276 H 699.454 -0.60287 -5.00381 0
M  V30 7277 H 699.056 -1.40426 -3.46636 0
M  V30 7278 H 701.348 -1.35863 -6.63738 0
M  V30 7279 H 702.291 -2.8738 -6.47162 0
M  V30 7280 H 702.699 -1.46161 -5.4525 0
M  V30 7281 N 702.098 1.27442 -0.927168 0
M  V30 7282 C 703.345 1.94391 -0.567324 0
M  V30 7283 C 703.673 1.72875 0.891321 0
M  V30 7284 O 702.928 1.05071 1.65102 0
M  V30 7285 C 703.227 3.47413 -0.838994 0
M  V30 7286 C 702.893 3.89049 -2.2793 0
M  V30 7287 C 701.555 4.00127 -2.67305 0
M  V30 7288 C 703.907 4.10154 -3.21595 0
M  V30 7289 C 701.235 4.29697 -3.99471 0
M  V30 7290 C 703.587 4.41208 -4.53341 0
M  V30 7291 C 702.251 4.50499 -4.92551 0
M  V30 7292 H 701.521 0.711325 -0.207598 0
M  V30 7293 H 704.168 1.51523 -1.17103 0
M  V30 7294 H 702.473 3.91503 -0.152609 0
M  V30 7295 H 704.17 3.97354 -0.53955 0
M  V30 7296 H 700.76 3.80962 -1.96381 0
M  V30 7297 H 704.944 4.01036 -2.92377 0
M  V30 7298 H 700.2 4.35099 -4.29533 0
M  V30 7299 H 704.374 4.56486 -5.25922 0
M  V30 7300 H 702.001 4.73167 -5.94994 0
M  V30 7301 N 703.576 0.692616 1.41565 0
M  V30 7302 C 704.506 0.0397325 2.33466 0
M  V30 7303 C 705.487 -0.770334 1.51657 0
M  V30 7304 O 706.672 -0.723903 1.80203 0
M  V30 7305 C 703.802 -0.899495 3.3545 0
M  V30 7306 C 702.756 -0.196738 4.27548 0
M  V30 7307 C 702.082 -1.25012 5.19881 0
M  V30 7308 C 703.382 0.935158 5.1386 0
M  V30 7309 H 705.076 0.807296 2.88311 0
M  V30 7310 H 702.622 0.389665 1.38628 0
M  V30 7311 H 704.575 -1.36545 3.98665 0
M  V30 7312 H 703.299 -1.69869 2.78948 0
M  V30 7313 H 701.958 0.249158 3.65752 0
M  V30 7314 H 701.606 -2.04177 4.59696 0
M  V30 7315 H 701.306 -0.784931 5.82334 0
M  V30 7316 H 702.83 -1.71665 5.85972 0
M  V30 7317 H 704.244 0.549619 5.70659 0
M  V30 7318 H 702.641 1.32726 5.85238 0
M  V30 7319 H 703.711 1.77613 4.512 0
M  V30 7320 N 705.054 -1.51416 0.437162 0
M  V30 7321 C 705.964 -2.31493 -0.380537 0
M  V30 7322 C 706.98 -1.40399 -1.02782 0
M  V30 7323 O 708.156 -1.73471 -1.02323 0
M  V30 7324 C 705.221 -3.1413 -1.46709 0
M  V30 7325 C 704.282 -4.21003 -0.839953 0
M  V30 7326 C 703.515 -4.9969 -1.87473 0
M  V30 7327 O 703.738 -4.79008 -3.09689 0
M  V30 7328 O 702.672 -5.8379 -1.46536 0
M  V30 7329 H 706.498 -3.02469 0.273183 0
M  V30 7330 H 704.083 -1.48059 0.199706 0
M  V30 7331 H 705.965 -3.65505 -2.09724 0
M  V30 7332 H 704.64 -2.45919 -2.10489 0
M  V30 7333 H 703.547 -3.73706 -0.171752 0
M  V30 7334 H 704.88 -4.91587 -0.245638 0
M  V30 7335 N 706.532 -0.168513 -1.56696 0
M  V30 7336 C 707.464 0.794249 -2.14998 0
M  V30 7337 C 708.477 1.1957 -1.10485 0
M  V30 7338 O 709.666 1.13604 -1.37682 0
M  V30 7339 C 706.766 2.08018 -2.67547 0
M  V30 7340 C 705.939 1.84274 -3.96689 0
M  V30 7341 C 704.998 2.97059 -4.3433 0
M  V30 7342 O 704.024 2.67815 -5.02259 0
M  V30 7343 N 705.226 4.24775 -3.9566 0
M  V30 7344 H 707.991 0.295832 -2.98236 0
M  V30 7345 H 705.552 0.0143611 -1.61894 0
M  V30 7346 H 707.544 2.82559 -2.89729 0
M  V30 7347 H 706.114 2.49059 -1.88914 0
M  V30 7348 H 705.334 0.936528 -3.82914 0
M  V30 7349 H 706.622 1.65773 -4.81037 0
M  V30 7350 H 706.02 4.51395 -3.40968 0
M  V30 7351 H 704.577 4.96027 -4.22848 0
M  V30 7352 N 708.01 1.57248 0.105221 0
M  V30 7353 C 709.238 1.89768 0.82437 0
M  V30 7354 C 709.653 0.761192 1.72775 0
M  V30 7355 O 709.01 -0.267342 1.80531 0
M  V30 7356 C 709.061 3.2184 1.64625 0
M  V30 7357 O 708.782 4.31115 0.779217 0
M  V30 7358 C 710.283 3.68155 2.46935 0
M  V30 7359 H 707.503 0.628031 0.236259 0
M  V30 7360 H 710.047 2.04321 0.085485 0
M  V30 7361 H 708.202 3.08915 2.33775 0
M  V30 7362 H 708.616 5.06897 1.34745 0
M  V30 7363 H 710.09 4.6329 3.00111 0
M  V30 7364 H 710.567 2.95492 3.24932 0
M  V30 7365 H 711.173 3.83914 1.83002 0
M  V30 7366 N 709.488 -0.375779 1.53054 0
M  V30 7367 C 710.42 -1.47963 1.75042 0
M  V30 7368 C 711.433 -1.50073 0.631031 0
M  V30 7369 O 712.622 -1.53736 0.907052 0
M  V30 7370 C 709.722 -2.86767 1.80604 0
M  V30 7371 C 708.895 -3.08471 3.10104 0
M  V30 7372 C 707.954 -4.27332 3.07041 0
M  V30 7373 O 706.98 -4.22998 3.80869 0
M  V30 7374 N 708.182 -5.34214 2.27147 0
M  V30 7375 H 710.947 -1.29484 2.70285 0
M  V30 7376 H 708.508 -0.565416 1.51706 0
M  V30 7377 H 710.5 -3.64404 1.76045 0
M  V30 7378 H 709.07 -2.98542 0.926897 0
M  V30 7379 H 708.29 -2.18583 3.28048 0
M  V30 7380 H 709.578 -3.19834 3.95706 0
M  V30 7381 H 708.976 -5.40594 1.66656 0
M  V30 7382 H 707.533 -6.10467 2.28415 0
M  V30 7383 N 710.966 -1.44241 -0.634997 0
M  V30 7384 C 711.916 -1.47247 -1.74076 0
M  V30 7385 C 712.9 -0.338708 -1.57295 0
M  V30 7386 O 714.092 -0.583751 -1.67097 0
M  V30 7387 C 711.221 -1.41579 -3.12746 0
M  V30 7388 C 710.307 -2.60055 -3.35011 0
M  V30 7389 N 710.698 -3.85321 -3.27661 0
M  V30 7390 C 708.996 -2.55168 -3.65794 0
M  V30 7391 C 709.697 -4.64241 -3.50508 0
M  V30 7392 N 708.673 -3.95254 -3.73196 0
M  V30 7393 H 712.475 -2.4195 -1.66845 0
M  V30 7394 H 709.989 -1.3915 -0.837326 0
M  V30 7395 H 711.986 -1.41816 -3.92038 0
M  V30 7396 H 710.646 -0.479108 -3.21146 0
M  V30 7397 H 711.657 -4.17345 -3.06665 0
M  V30 7398 H 708.334 -1.70276 -3.81198 0
M  V30 7399 H 709.724 -5.73267 -3.50449 0
M  V30 7400 N 712.444 0.87505 -1.31075 0
M  V30 7401 C 713.669 1.66583 -1.23551 0
M  V30 7402 C 714.094 1.87067 0.19686 0
M  V30 7403 O 713.452 1.40877 1.1412 0
M  V30 7404 C 713.5 3.01401 -1.97965 0
M  V30 7405 O 712.604 3.90923 -1.31351 0
M  V30 7406 H 711.945 0.508645 -0.426821 0
M  V30 7407 H 714.475 1.09139 -1.7306 0
M  V30 7408 H 714.485 3.51374 -2.07366 0
M  V30 7409 H 713.16 2.85812 -3.02133 0
M  V30 7410 H 711.737 3.49369 -1.30368 0
M  V30 7411 N 713.922 1.13953 1.08869 0
M  V30 7412 C 714.852 0.844824 2.17681 0
M  V30 7413 C 715.833 -0.198213 1.68941 0
M  V30 7414 O 717.018 -0.0559073 1.9412 0
M  V30 7415 C 714.148 0.316325 3.45856 0
M  V30 7416 C 713.102 1.29426 4.07962 0
M  V30 7417 C 712.428 0.625275 5.31031 0
M  V30 7418 C 713.728 2.65484 4.49795 0
M  V30 7419 H 715.422 1.75471 2.42591 0
M  V30 7420 H 712.968 0.845116 1.16592 0
M  V30 7421 H 714.921 0.0977876 4.21287 0
M  V30 7422 H 713.645 -0.628972 3.20486 0
M  V30 7423 H 712.304 1.49889 3.34558 0
M  V30 7424 H 711.952 -0.325678 5.01945 0
M  V30 7425 H 711.652 1.27777 5.73539 0
M  V30 7426 H 713.176 0.416152 6.0918 0
M  V30 7427 H 714.59 2.48957 5.16424 0
M  V30 7428 H 712.987 3.26963 5.03205 0
M  V30 7429 H 714.057 3.22717 3.61914 0
M  V30 7430 N 715.4 -1.26948 0.933913 0
M  V30 7431 C 716.348 -2.2862 0.428463 0
M  V30 7432 C 717.342 -1.62144 -0.490464 0
M  V30 7433 O 718.548 -1.76167 -0.36948 0
M  V30 7434 H 714.923 -0.742363 0.120003 0
M  V30 7435 H 716.894 -2.68659 1.29865 0
M  V30 7436 C 715.643 -3.46423 -0.29774 0
M  V30 7437 H 714.966 -3.97792 0.400183 0
M  V30 7438 H 716.406 -4.19505 -0.615736 0
M  V30 7439 C 714.865 -3.01017 -1.51295 0
M  V30 7440 O 715.395 -3.05226 -2.61151 0
M  V30 7441 N 713.601 -2.56442 -1.36696 0
M  V30 7442 H 713.148 -2.53217 -0.473178 0
M  V30 7443 H 713.106 -2.26424 -2.18127 0
M  V30 7444 N 716.879 -0.700114 -1.41195 0
M  V30 7445 C 718.126 -0.233006 -2.01155 0
M  V30 7446 C 718.454 1.16883 -1.55462 0
M  V30 7447 O 717.709 1.80395 -0.758695 0
M  V30 7448 C 718.008 -0.243986 -3.56566 0
M  V30 7449 C 717.674 -1.59397 -4.21786 0
M  V30 7450 C 716.336 -1.96355 -4.39316 0
M  V30 7451 C 718.688 -2.48192 -4.58312 0
M  V30 7452 C 716.016 -3.21683 -4.9065 0
M  V30 7453 C 718.368 -3.72857 -5.11039 0
M  V30 7454 C 717.032 -4.09951 -5.26779 0
M  V30 7455 H 716.302 -0.085263 -0.736078 0
M  V30 7456 H 718.949 -0.9001 -1.69028 0
M  V30 7457 H 717.254 0.506663 -3.8851 0
M  V30 7458 H 718.951 0.135031 -4.00773 0
M  V30 7459 H 715.541 -1.29654 -4.08519 0
M  V30 7460 H 719.725 -2.20918 -4.4442 0
M  V30 7461 H 714.981 -3.50412 -5.01021 0
M  V30 7462 H 719.155 -4.41844 -5.38282 0
M  V30 7463 H 716.782 -5.07136 -5.66319 0
M  V30 7464 N 718.357 1.51182 -0.445186 0
M  V30 7465 C 719.603 2.02452 0.11882 0
M  V30 7466 C 719.936 1.32824 1.41673 0
M  V30 7467 O 719.211 0.445637 1.89326 0
M  V30 7468 C 719.494 3.5859 0.329475 0
M  V30 7469 C 719.347 4.38823 -0.987638 0
M  V30 7470 C 720.666 4.26241 1.09575 0
M  V30 7471 H 717.785 0.735819 0.0417092 0
M  V30 7472 H 720.427 1.80747 -0.585718 0
M  V30 7473 H 718.577 3.77214 0.9296 0
M  V30 7474 H 720.249 4.3183 -1.62235 0
M  V30 7475 H 718.492 4.03594 -1.59041 0
M  V30 7476 H 719.163 5.46257 -0.794192 0
M  V30 7477 H 721.639 4.11934 0.587328 0
M  V30 7478 H 720.515 5.35354 1.21191 0
M  V30 7479 H 720.776 3.87635 2.12584 0
M  V30 7480 N 719.835 0.176821 1.56605 0
M  V30 7481 C 721.083 -0.465793 1.96659 0
M  V30 7482 C 721.404 -1.63406 1.06412 0
M  V30 7483 O 720.674 -1.95457 0.131603 0
M  V30 7484 H 719.254 -0.175072 0.726195 0
M  V30 7485 H 721.916 0.25929 1.93168 0
M  V30 7486 H 721.012 -0.822138 3.01077 0
M  V30 7487 N 721.313 -1.57302 -0.09688 0
M  V30 7488 C 722.223 -2.05258 -1.13606 0
M  V30 7489 C 723.239 -0.977137 -1.43972 0
M  V30 7490 O 724.415 -1.29018 -1.54649 0
M  V30 7491 C 721.48 -2.46593 -2.43706 0
M  V30 7492 C 720.541 -3.68322 -2.20538 0
M  V30 7493 C 719.774 -4.07676 -3.44435 0
M  V30 7494 O 719.997 -3.47141 -4.52603 0
M  V30 7495 O 718.931 -5.00641 -3.34129 0
M  V30 7496 H 722.757 -2.94069 -0.758752 0
M  V30 7497 H 720.342 -1.46164 -0.309263 0
M  V30 7498 H 722.224 -2.73814 -3.20318 0
M  V30 7499 H 720.899 -1.6092 -2.80867 0
M  V30 7500 H 719.806 -3.4622 -1.41713 0
M  V30 7501 H 721.139 -4.54769 -1.88271 0
M  V30 7502 N 722.791 0.367657 -1.53252 0
M  V30 7503 C 724.038 1.11052 -1.69333 0
M  V30 7504 C 724.366 1.89363 -0.444064 0
M  V30 7505 O 723.621 1.87094 0.573953 0
M  V30 7506 C 723.92 2.09825 -2.89324 0
M  V30 7507 C 723.586 1.4801 -4.25915 0
M  V30 7508 C 722.248 1.30879 -4.6306 0
M  V30 7509 C 724.6 1.03268 -5.10867 0
M  V30 7510 C 721.928 0.675868 -5.82794 0
M  V30 7511 C 724.28 0.41377 -6.31245 0
M  V30 7512 C 722.944 0.229939 -6.67104 0
M  V30 7513 H 722.214 0.406367 -0.619634 0
M  V30 7514 H 724.861 0.392558 -1.87433 0
M  V30 7515 H 723.166 2.87917 -2.65728 0
M  V30 7516 H 724.863 2.67252 -2.98961 0
M  V30 7517 H 721.453 1.62336 -3.96667 0
M  V30 7518 H 725.637 1.15297 -4.82722 0
M  V30 7519 H 720.893 0.521833 -6.09169 0
M  V30 7520 H 725.067 0.0588768 -6.96375 0
M  V30 7521 H 722.694 -0.262562 -7.59746 0
M  V30 7522 N 724.269 1.44576 0.627338 0
M  V30 7523 C 725.515 1.47777 1.38888 0
M  V30 7524 C 725.848 0.111406 1.9388 0
M  V30 7525 O 725.123 -0.87149 1.73883 0
M  V30 7526 C 725.406 2.54119 2.55138 0
M  V30 7527 C 725.259 4.00128 2.0547 0
M  V30 7528 C 726.578 2.56929 3.57317 0
M  V30 7529 H 723.697 0.538048 0.50366 0
M  V30 7530 H 726.339 1.76277 0.708978 0
M  V30 7531 H 724.489 2.29948 3.13139 0
M  V30 7532 H 726.161 4.35444 1.5227 0
M  V30 7533 H 724.404 4.11724 1.36623 0
M  V30 7534 H 725.075 4.7019 2.89181 0
M  V30 7535 H 727.551 2.78536 3.09122 0
M  V30 7536 H 726.427 3.33234 4.36173 0
M  V30 7537 H 726.688 1.6127 4.11636 0
M  V30 7538 N 725.747 -0.868086 1.31537 0
M  V30 7539 C 726.993 -1.62367 1.2151 0
M  V30 7540 C 727.326 -1.92883 -0.225819 0
M  V30 7541 O 726.601 -1.56176 -1.15927 0
M  V30 7542 C 726.884 -2.95268 2.06129 0
M  V30 7543 C 726.737 -2.71619 3.58529 0
M  V30 7544 C 728.056 -3.96391 1.91212 0
M  V30 7545 H 725.175 -0.589178 0.442762 0
M  V30 7546 H 727.817 -1.00336 1.61347 0
M  V30 7547 H 725.967 -3.4821 1.72284 0
M  V30 7548 H 727.639 -2.25334 4.0252 0
M  V30 7549 H 725.882 -2.05817 3.81866 0
M  V30 7550 H 726.553 -3.66192 4.13047 0
M  V30 7551 H 729.029 -3.52663 2.20834 0
M  V30 7552 H 727.905 -4.87263 2.52718 0
M  V30 7553 H 728.166 -4.33335 0.875953 0
M  V30 7554 N 727.225 -1.14528 -1.08264 0
M  V30 7555 C 728.173 -0.829201 -2.17318 0
M  V30 7556 C 729.167 0.193521 -1.68291 0
M  V30 7557 O 730.373 0.0494744 -1.79932 0
M  V30 7558 H 726.748 -0.250435 -0.709074 0
M  V30 7559 H 728.719 -1.75683 -2.41201 0
M  V30 7560 C 727.468 -0.324663 -3.46181 0
M  V30 7561 H 726.791 -1.10299 -3.84284 0
M  V30 7562 H 728.231 -0.142059 -4.23762 0
M  V30 7563 C 726.69 0.952033 -3.23169 0
M  V30 7564 O 727.22 2.02549 -3.46896 0
M  V30 7565 N 725.426 0.887854 -2.76705 0
M  V30 7566 H 724.973 0.0141402 -2.57596 0
M  V30 7567 H 724.931 1.74263 -2.61686 0
M  V30 7568 N 728.703 1.26451 -0.940633 0
M  V30 7569 C 729.98 1.88947 -0.505811 0
M  V30 7570 C 730.36 1.85011 1.01657 0
M  V30 7571 O 729.708 1.30406 1.87634 0
M  V30 7572 C 729.918 3.32304 -1.06654 0
M  V30 7573 C 731.266 4.09153 -1.13486 0
M  V30 7574 O 732.29 3.41371 -1.01708 0
M  V30 7575 O 731.149 5.30369 -1.31797 0
M  V30 7576 H 728.243 0.810422 -0.164759 0
M  V30 7577 H 730.789 1.34625 -1.03316 0
M  V30 7578 H 729.561 3.29527 -2.11015 0
M  V30 7579 H 729.184 3.94164 -0.521603 0
M  V30 7580 N 730.181 0.707592 1.40822 0
M  V30 7581 C 731.427 0.244031 2.01326 0
M  V30 7582 C 731.76 -1.15722 1.55955 0
M  V30 7583 O 731.035 -1.78347 0.776044 0
M  V30 7584 C 731.318 0.315128 3.58718 0
M  V30 7585 C 731.171 1.75419 4.14184 0
M  V30 7586 C 732.49 -0.318251 4.38948 0
M  V30 7587 H 729.609 0.0901471 0.731466 0
M  V30 7588 H 732.251 0.898584 1.67408 0
M  V30 7589 H 730.401 -0.242176 3.87744 0
M  V30 7590 H 732.073 2.36626 3.95987 0
M  V30 7591 H 730.316 2.28449 3.68773 0
M  V30 7592 H 730.987 1.75538 5.23345 0
M  V30 7593 H 733.463 0.156514 4.15806 0
M  V30 7594 H 732.339 -0.238019 5.48384 0
M  V30 7595 H 732.6 -1.40067 4.19325 0
M  V30 7596 N 731.66 -1.50943 0.453197 0
M  V30 7597 C 732.906 -2.02512 -0.108082 0
M  V30 7598 C 733.239 -1.33574 -1.40967 0
M  V30 7599 O 732.514 -0.455671 -1.89087 0
M  V30 7600 C 732.797 -3.58759 -0.310453 0
M  V30 7601 C 732.65 -4.38293 1.0109 0
M  V30 7602 C 733.969 -4.26816 -1.07313 0
M  V30 7603 H 731.088 -0.73603 -0.0378064 0
M  V30 7604 H 733.73 -1.80433 0.595295 0
M  V30 7605 H 731.88 -3.77702 -0.909582 0
M  V30 7606 H 733.552 -4.30964 1.64523 0
M  V30 7607 H 731.795 -4.02745 1.61179 0
M  V30 7608 H 732.466 -5.45828 0.82315 0
M  V30 7609 H 734.942 -4.1224 -0.565473 0
M  V30 7610 H 733.818 -5.35989 -1.1835 0
M  V30 7611 H 734.079 -3.88757 -2.10525 0
M  V30 7612 N 733.138 -0.185124 -1.56509 0
M  V30 7613 C 734.068 0.735098 -2.21627 0
M  V30 7614 C 735.049 1.2288 -1.1762 0
M  V30 7615 O 736.234 1.27945 -1.46095 0
M  V30 7616 C 733.364 1.95889 -2.86783 0
M  V30 7617 C 732.318 1.6005 -3.96948 0
M  V30 7618 C 731.644 2.90009 -4.4922 0
M  V30 7619 C 732.944 0.818008 -5.15855 0
M  V30 7620 H 734.638 0.192274 -2.98782 0
M  V30 7621 H 732.184 0.0910393 -1.43712 0
M  V30 7622 H 734.137 2.60779 -3.31017 0
M  V30 7623 H 732.861 2.52608 -2.07018 0
M  V30 7624 H 731.52 0.975237 -3.5339 0
M  V30 7625 H 731.168 3.44797 -3.6623 0
M  V30 7626 H 730.868 2.66778 -5.23549 0
M  V30 7627 H 732.392 3.55904 -4.9615 0
M  V30 7628 H 733.806 1.36979 -5.56695 0
M  V30 7629 H 732.203 0.684207 -5.96187 0
M  V30 7630 H 733.273 -0.182939 -4.84555 0
M  V30 7631 N 734.616 1.57351 0.0885366 0
M  V30 7632 C 735.579 2.01557 1.09121 0
M  V30 7633 C 736.579 0.910052 1.3257 0
M  V30 7634 O 737.769 1.17537 1.28572 0
M  V30 7635 C 734.901 2.38189 2.43883 0
M  V30 7636 H 736.094 2.91361 0.710562 0
M  V30 7637 H 733.647 1.52694 0.333779 0
M  V30 7638 H 734.382 1.5136 2.86811 0
M  V30 7639 H 734.167 3.18846 2.28209 0
M  V30 7640 H 735.657 2.73025 3.15986 0
M  V30 7641 N 736.094 -0.359525 1.53444 0
M  V30 7642 C 737.343 -1.09886 1.69139 0
M  V30 7643 C 737.656 -1.90285 0.452863 0
M  V30 7644 O 738.862 -2.67033 0.490459 0
M  V30 7645 C 737.318 -2.0028 2.99025 0
M  V30 7646 C 736.926 -1.25164 4.30161 0
M  V30 7647 C 738.67 -2.74168 3.24086 0
M  V30 7648 C 736.577 -2.14494 5.51132 0
M  V30 7649 H 735.507 -0.413936 0.630217 0
M  V30 7650 H 738.158 -0.359434 1.79945 0
M  V30 7651 H 736.54 -2.77978 2.82036 0
M  V30 7652 H 737.714 -0.524867 4.57801 0
M  V30 7653 H 736.029 -0.631116 4.11589 0
M  V30 7654 H 738.626 -3.41243 4.11652 0
M  V30 7655 H 738.969 -3.39868 2.40407 0
M  V30 7656 H 739.502 -2.0355 3.41778 0
M  V30 7657 H 736.241 -1.53362 6.37307 0
M  V30 7658 H 735.761 -2.85004 5.27762 0
M  V30 7659 H 737.44 -2.73914 5.86157 0
M  V30 7660 N 737.572 -1.44907 -0.619662 0
M  V30 7661 C 738.502 -1.55488 -1.742 0
M  V30 7662 C 739.483 -0.407143 -1.65156 0
M  V30 7663 O 740.668 -0.628743 -1.8374 0
M  V30 7664 C 737.798 -1.5097 -3.1277 0
M  V30 7665 C 736.752 -2.64337 -3.36615 0
M  V30 7666 C 736.078 -2.44872 -4.75333 0
M  V30 7667 C 737.378 -4.06423 -3.28051 0
M  V30 7668 H 739.072 -2.49432 -1.65602 0
M  V30 7669 H 736.618 -1.20047 -0.795281 0
M  V30 7670 H 738.571 -1.56971 -3.91073 0
M  V30 7671 H 737.295 -0.535486 -3.2218 0
M  V30 7672 H 735.954 -2.57744 -2.60698 0
M  V30 7673 H 735.602 -1.45617 -4.81461 0
M  V30 7674 H 735.302 -3.20888 -4.92244 0
M  V30 7675 H 736.826 -2.52709 -5.55851 0
M  V30 7676 H 738.24 -4.14324 -3.96243 0
M  V30 7677 H 736.637 -4.82733 -3.56495 0
M  V30 7678 H 737.707 -4.29183 -2.25676 0
M  V30 7679 N 739.05 0.861098 -1.31996 0
M  V30 7680 C 740.275 1.65264 -1.2531 0
M  V30 7681 C 740.7 1.87265 0.177007 0
M  V30 7682 O 740.058 1.4208 1.12619 0
M  V30 7683 C 740.106 2.99284 -2.0115 0
M  V30 7684 O 739.21 3.89508 -1.3549 0
M  V30 7685 H 738.551 0.50409 -0.432192 0
M  V30 7686 H 741.081 1.07297 -1.74208 0
M  V30 7687 H 741.091 3.49154 -2.11081 0
M  V30 7688 H 739.766 2.82591 -3.05148 0
M  V30 7689 H 738.343 3.47966 -1.34066 0
M  V30 7690 N 740.528 1.15101 1.07655 0
M  V30 7691 C 741.776 0.922149 1.79836 0
M  V30 7692 C 742.097 -0.552346 1.87014 0
M  V30 7693 O 741.367 -1.40145 1.3688 0
M  V30 7694 H 739.947 0.338182 0.666064 0
M  V30 7695 H 742.609 1.45107 1.30115 0
M  V30 7696 H 741.705 1.32883 2.82398 0
M  V30 7697 N 742.006 -1.2595 0.947325 0
M  V30 7698 C 743.234 -1.97544 0.615127 0
M  V30 7699 C 743.649 -1.70484 -0.811221 0
M  V30 7700 O 743.006 -0.97662 -1.5417 0
M  V30 7701 C 743.057 -3.51236 0.855328 0
M  V30 7702 O 742.778 -3.77359 2.22558 0
M  V30 7703 C 744.279 -4.40066 0.534515 0
M  V30 7704 H 741.499 -0.629888 0.231263 0
M  V30 7705 H 744.043 -1.60308 1.26971 0
M  V30 7706 H 742.198 -3.8661 0.247266 0
M  V30 7707 H 742.612 -4.71857 2.29022 0
M  V30 7708 H 744.086 -5.46838 0.753168 0
M  V30 7709 H 744.563 -4.35982 -0.530701 0
M  V30 7710 H 745.169 -4.10245 1.12158 0
M  V30 7711 N 743.484 -0.715051 -1.40445 0
M  V30 7712 C 744.712 -0.263959 -2.05209 0
M  V30 7713 C 745.127 1.09403 -1.53871 0
M  V30 7714 O 744.484 1.68746 -0.695064 0
M  V30 7715 C 744.535 -0.234545 -3.60738 0
M  V30 7716 O 744.256 -1.53891 -4.10182 0
M  V30 7717 C 745.757 0.235164 -4.42676 0
M  V30 7718 H 742.977 -0.11876 -0.660407 0
M  V30 7719 H 745.521 -0.973107 -1.79864 0
M  V30 7720 H 743.676 0.425563 -3.85055 0
M  V30 7721 H 744.09 -1.43903 -5.04373 0
M  V30 7722 H 745.564 0.204598 -5.51621 0
M  V30 7723 H 746.041 1.27724 -4.20218 0
M  V30 7724 H 746.647 -0.394649 -4.23465 0
M  V30 7725 N 744.962 1.50701 -0.461195 0
M  V30 7726 C 746.19 2.06681 0.0951756 0
M  V30 7727 C 746.605 1.32615 1.34382 0
M  V30 7728 O 745.962 0.392531 1.78229 0
M  V30 7729 C 746.013 3.59354 0.393316 0
M  V30 7730 O 745.734 4.30626 -0.805797 0
M  V30 7731 C 747.235 4.31926 0.997744 0
M  V30 7732 H 744.455 0.670995 -0.00267259 0
M  V30 7733 H 746.999 1.93991 -0.647137 0
M  V30 7734 H 745.154 3.7188 1.08555 0
M  V30 7735 H 745.568 5.21667 -0.544409 0
M  V30 7736 H 747.042 5.39756 1.15619 0
M  V30 7737 H 747.519 3.91772 1.98523 0
M  V30 7738 H 748.125 4.23905 0.344188 0
M  V30 7739 N 746.441 0.193421 1.56409 0
M  V30 7740 C 747.389 -0.744829 2.20352 0
M  V30 7741 C 748.383 -1.22104 1.17418 0
M  V30 7742 O 749.589 -1.18413 1.35567 0
M  V30 7743 H 745.964 -0.258538 0.70616 0
M  V30 7744 H 747.935 -0.181794 2.97846 0
M  V30 7745 C 746.684 -1.95453 2.87565 0
M  V30 7746 H 746.007 -1.59716 3.66512 0
M  V30 7747 H 747.447 -2.58942 3.35745 0
M  V30 7748 C 745.906 -2.79223 1.8851 0
M  V30 7749 O 746.436 -3.77093 1.38434 0
M  V30 7750 N 744.642 -2.44682 1.56777 0
M  V30 7751 H 744.189 -1.65153 1.97692 0
M  V30 7752 H 744.147 -3.01016 0.907573 0
M  V30 7753 N 747.919 -1.57396 -0.0801906 0
M  V30 7754 C 749.165 -1.87113 -0.782083 0
M  V30 7755 C 749.498 -0.78458 -1.77646 0
M  V30 7756 O 748.773 0.205993 -1.93406 0
M  V30 7757 C 749.056 -3.27483 -1.49756 0
M  V30 7758 C 748.909 -4.46782 -0.520171 0
M  V30 7759 C 750.228 -3.65965 -2.44454 0
M  V30 7760 H 747.347 -0.680559 -0.282858 0
M  V30 7761 H 749.989 -1.89946 -0.0454139 0
M  V30 7762 H 748.139 -3.25199 -2.12551 0
M  V30 7763 H 749.811 -4.61187 0.101919 0
M  V30 7764 H 748.054 -4.33485 0.165219 0
M  V30 7765 H 748.725 -5.41761 -1.05824 0
M  V30 7766 H 751.201 -3.69289 -1.91742 0
M  V30 7767 H 750.077 -4.65086 -2.91524 0
M  V30 7768 H 750.338 -2.95446 -3.28883 0
M  V30 7769 N 749.397 0.351382 -1.53633 0
M  V30 7770 C 750.674 1.10903 -1.6112 0
M  V30 7771 C 751.054 2.06725 -0.427556 0
M  V30 7772 O 750.402 2.20992 0.580916 0
M  V30 7773 C 750.612 1.83561 -2.96827 0
M  V30 7774 C 751.96 2.37587 -3.51906 0
M  V30 7775 O 752.984 1.93669 -2.9895 0
M  V30 7776 O 751.843 3.17913 -4.44515 0
M  V30 7777 H 748.937 0.509558 -0.651368 0
M  V30 7778 H 751.483 0.353504 -1.65977 0
M  V30 7779 H 750.255 1.1371 -3.74414 0
M  V30 7780 H 749.878 2.6599 -2.95525 0
M  V30 7781 N 750.875 1.45233 0.611969 0
M  V30 7782 C 751.822 1.5357 1.72293 0
M  V30 7783 C 752.792 0.381912 1.6165 0
M  V30 7784 O 753.977 0.594765 1.81293 0
M  V30 7785 C 751.117 1.50419 3.10593 0
M  V30 7786 C 750.23 2.76316 3.32074 0
M  V30 7787 C 749.365 2.64866 4.60456 0
M  V30 7788 C 748.404 3.85838 4.7518 0
M  V30 7789 N 747.541 3.72949 5.94856 0
M  V30 7790 H 752.381 2.4848 1.64504 0
M  V30 7791 H 749.918 1.23302 0.802191 0
M  V30 7792 H 751.876 1.4658 3.90602 0
M  V30 7793 H 750.506 0.590621 3.17351 0
M  V30 7794 H 749.558 2.90261 2.45872 0
M  V30 7795 H 750.87 3.66055 3.38829 0
M  V30 7796 H 750.024 2.58969 5.48653 0
M  V30 7797 H 748.763 1.72719 4.56092 0
M  V30 7798 H 747.768 3.92099 3.85407 0
M  V30 7799 H 748.993 4.79045 4.81344 0
M  V30 7800 H 746.939 2.83567 5.91545 0
M  V30 7801 H 746.856 4.56319 6.02751 0
M  V30 7802 H 748.124 3.70976 6.85563 0
M  V30 7803 N 752.353 -0.854086 1.3245 0
M  V30 7804 C 753.602 -1.60318 1.22397 0
M  V30 7805 C 753.915 -1.9444 -0.212664 0
M  V30 7806 O 755.121 -2.67991 -0.435066 0
M  V30 7807 C 753.577 -2.8909 2.1437 0
M  V30 7808 C 753.185 -2.62391 3.63119 0
M  V30 7809 C 754.929 -3.67104 2.13155 0
M  V30 7810 C 752.836 -3.87167 4.47052 0
M  V30 7811 H 751.766 -0.601586 0.454544 0
M  V30 7812 H 754.417 -0.943023 1.57415 0
M  V30 7813 H 752.799 -3.56567 1.72268 0
M  V30 7814 H 753.973 -2.03222 4.13567 0
M  V30 7815 H 752.288 -1.97706 3.66471 0
M  V30 7816 H 754.885 -4.59696 2.731 0
M  V30 7817 H 755.228 -4.00876 1.12268 0
M  V30 7818 H 755.761 -3.06533 2.5354 0
M  V30 7819 H 752.5 -3.58536 5.48755 0
M  V30 7820 H 752.02 -4.45729 4.01355 0
M  V30 7821 H 753.699 -4.549 4.60081 0
M  V30 7822 N 753.831 -1.1567 -1.07043 0
M  V30 7823 C 755.247 -0.900006 -1.31803 0
M  V30 7824 C 755.447 0.451293 -1.96381 0
M  V30 7825 O 754.503 1.19252 -2.22565 0
M  V30 7826 C 755.816 -2.04334 -2.20609 0
M  V30 7827 C 757.364 -2.07823 -2.34048 0
M  V30 7828 C 757.839 -3.21488 -3.26204 0
M  V30 7829 N 759.33 -3.21156 -3.33786 0
M  V30 7830 C 760.065 -4.05746 -4.05163 0
M  V30 7831 N 759.561 -5.00407 -4.79129 0
M  V30 7832 N 761.354 -3.93759 -4.01136 0
M  V30 7833 H 753.505 -2.02681 -0.635146 0
M  V30 7834 H 755.768 -0.883956 -0.342528 0
M  V30 7835 H 755.474 -3.01895 -1.80423 0
M  V30 7836 H 755.348 -1.97838 -3.21154 0
M  V30 7837 H 757.735 -1.1086 -2.73485 0
M  V30 7838 H 757.816 -2.18386 -1.33197 0
M  V30 7839 H 757.46 -4.18706 -2.87485 0
M  V30 7840 H 757.39 -3.08162 -4.27017 0
M  V30 7841 H 759.881 -2.52606 -2.81067 0
M  V30 7842 H 760.194 -5.61387 -5.31097 0
M  V30 7843 H 758.539 -5.04393 -4.78135 0
M  V30 7844 H 761.73 -3.19115 -3.42466 0
M  V30 7845 H 761.903 -4.59906 -4.56498 0
M  V30 7846 N 755.309 1.25446 -0.953992 0
M  V30 7847 C 756.241 2.25111 -0.431004 0
M  V30 7848 C 757.254 1.56377 0.452764 0
M  V30 7849 O 758.443 1.76579 0.261144 0
M  V30 7850 C 755.543 3.3655 0.39839 0
M  V30 7851 C 754.716 4.34843 -0.472229 0
M  V30 7852 C 753.775 5.25351 0.29886 0
M  V30 7853 O 752.801 5.68396 -0.302522 0
M  V30 7854 N 754.003 5.5824 1.59211 0
M  V30 7855 H 756.768 2.70619 -1.28785 0
M  V30 7856 H 754.329 1.39346 -0.824281 0
M  V30 7857 H 756.321 3.94059 0.921941 0
M  V30 7858 H 754.891 2.90436 1.15609 0
M  V30 7859 H 754.111 3.76222 -1.17689 0
M  V30 7860 H 755.399 4.97497 -1.06648 0
M  V30 7861 H 754.797 5.25172 2.10264 0
M  V30 7862 H 753.354 6.18336 2.06164 0
M  V30 7863 N 756.787 0.722489 1.40064 0
M  V30 7864 C 757.717 0.0892452 2.33329 0
M  V30 7865 C 758.698 -0.737992 1.53257 0
M  V30 7866 O 759.883 -0.685516 1.81698 0
M  V30 7867 C 757.013 -0.828139 3.37282 0
M  V30 7868 C 755.967 -0.106005 4.27869 0
M  V30 7869 C 755.293 -1.13957 5.22415 0
M  V30 7870 C 756.593 1.04395 5.11761 0
M  V30 7871 H 758.287 0.868269 2.86534 0
M  V30 7872 H 755.833 0.418982 1.3777 0
M  V30 7873 H 757.786 -1.28058 4.01471 0
M  V30 7874 H 756.51 -1.63914 2.82489 0
M  V30 7875 H 755.169 0.326683 3.65142 0
M  V30 7876 H 754.817 -1.9438 4.63924 0
M  V30 7877 H 754.517 -0.661233 5.83868 0
M  V30 7878 H 756.041 -1.59197 5.89482 0
M  V30 7879 H 757.455 0.670541 5.69365 0
M  V30 7880 H 755.852 1.4511 5.82291 0
M  V30 7881 H 756.922 1.87144 4.47331 0
M  V30 7882 N 758.265 -1.50454 0.469181 0
M  V30 7883 C 759.195 -2.31353 -0.31592 0
M  V30 7884 C 760.176 -1.38172 -0.992094 0
M  V30 7885 O 761.361 -1.67093 -0.989633 0
M  V30 7886 C 758.491 -3.1786 -1.39937 0
M  V30 7887 C 757.445 -4.19578 -0.844909 0
M  V30 7888 C 756.771 -4.9481 -2.0265 0
M  V30 7889 C 758.071 -5.22106 0.142499 0
M  V30 7890 H 759.765 -2.97237 0.359269 0
M  V30 7891 H 757.311 -1.42942 0.174224 0
M  V30 7892 H 759.264 -3.7325 -1.95607 0
M  V30 7893 H 757.988 -2.49858 -2.1033 0
M  V30 7894 H 756.647 -3.65285 -0.310189 0
M  V30 7895 H 756.295 -4.23282 -2.71737 0
M  V30 7896 H 755.995 -5.63613 -1.66174 0
M  V30 7897 H 757.519 -5.53035 -2.58815 0
M  V30 7898 H 758.933 -5.72378 -0.324966 0
M  V30 7899 H 757.33 -5.98618 0.421441 0
M  V30 7900 H 758.4 -4.7297 1.06901 0
M  V30 7901 N 759.743 -0.201713 -1.56304 0
M  V30 7902 C 760.69 0.716499 -2.19397 0
M  V30 7903 C 761.66 1.20494 -1.14326 0
M  V30 7904 O 762.845 1.26763 -1.42604 0
M  V30 7905 C 759.985 1.92762 -2.86246 0
M  V30 7906 C 759.098 1.47993 -4.0586 0
M  V30 7907 C 758.233 2.64706 -4.60547 0
M  V30 7908 C 757.272 2.16576 -5.72504 0
M  V30 7909 N 756.409 3.26491 -6.21569 0
M  V30 7910 H 761.249 0.171724 -2.97505 0
M  V30 7911 H 758.786 0.073016 -1.46919 0
M  V30 7912 H 760.744 2.6384 -3.23178 0
M  V30 7913 H 759.374 2.44559 -2.10691 0
M  V30 7914 H 758.426 0.66477 -3.74546 0
M  V30 7915 H 759.738 1.08686 -4.86815 0
M  V30 7916 H 758.892 3.43898 -4.99819 0
M  V30 7917 H 757.631 3.0729 -3.78713 0
M  V30 7918 H 756.636 1.3584 -5.32755 0
M  V30 7919 H 757.861 1.75015 -6.56161 0
M  V30 7920 H 755.807 3.68594 -5.42655 0
M  V30 7921 H 755.724 2.91374 -6.97594 0
M  V30 7922 H 756.992 4.05877 -6.65495 0
M  V30 7923 N 761.222 1.57436 0.0718424 0
M  V30 7924 C 762.47 1.86878 0.769484 0
M  V30 7925 C 762.791 0.7937 1.78116 0
M  V30 7926 O 762.061 -0.177642 1.95093 0
M  V30 7927 H 760.641 0.689593 0.287177 0
M  V30 7928 H 763.303 1.94841 0.0479427 0
M  V30 7929 H 762.399 2.84387 1.28572 0
M  V30 7930 N 762.7 -0.34323 1.53817 0
M  V30 7931 C 763.946 -1.08504 1.71332 0
M  V30 7932 C 764.279 -1.88294 0.475285 0
M  V30 7933 O 763.554 -1.87205 -0.527688 0
M  V30 7934 C 763.837 -2.02597 2.97702 0
M  V30 7935 C 763.69 -1.26268 4.31713 0
M  V30 7936 C 765.009 -3.0241 3.19744 0
M  V30 7937 H 762.128 -0.393072 0.623429 0
M  V30 7938 H 764.77 -0.363579 1.86489 0
M  V30 7939 H 762.92 -2.64118 2.8491 0
M  V30 7940 H 764.592 -0.673594 4.56356 0
M  V30 7941 H 762.835 -0.564696 4.30109 0
M  V30 7942 H 763.506 -1.95253 5.16314 0
M  V30 7943 H 765.982 -2.51004 3.31868 0
M  V30 7944 H 764.858 -3.65449 4.09558 0
M  V30 7945 H 765.119 -3.73806 2.36054 0
M  V30 7946 N 764.178 -1.45556 -0.604258 0
M  V30 7947 C 765.406 -1.53278 -1.38973 0
M  V30 7948 C 765.821 -0.166509 -1.88064 0
M  V30 7949 O 765.178 0.832519 -1.62405 0
M  V30 7950 C 765.229 -2.51992 -2.59195 0
M  V30 7951 O 764.95 -3.8331 -2.12143 0
M  V30 7952 C 766.451 -2.69445 -3.52015 0
M  V30 7953 H 763.671 -0.519003 -0.425297 0
M  V30 7954 H 766.215 -1.90773 -0.736621 0
M  V30 7955 H 764.37 -2.17561 -3.2054 0
M  V30 7956 H 764.784 -4.3685 -2.90279 0
M  V30 7957 H 766.258 -3.42485 -4.32907 0
M  V30 7958 H 766.735 -1.75596 -4.0257 0
M  V30 7959 H 767.341 -3.04886 -2.9652 0
M  V30 7960 N 765.656 0.84705 -1.32902 0
M  V30 7961 C 766.586 1.97166 -1.25091 0
M  V30 7962 C 767.567 1.69578 -0.133161 0
M  V30 7963 O 768.752 1.91519 -0.321591 0
M  V30 7964 C 765.882 3.33157 -0.981006 0
M  V30 7965 C 764.836 3.75119 -2.06082 0
M  V30 7966 C 764.162 5.08826 -1.64318 0
M  V30 7967 C 765.462 3.89774 -3.47669 0
M  V30 7968 H 767.156 2.03958 -2.19184 0
M  V30 7969 H 764.702 0.979907 -1.05517 0
M  V30 7970 H 766.655 4.11393 -0.912891 0
M  V30 7971 H 765.379 3.266 -0.00445559 0
M  V30 7972 H 764.038 2.9914 -2.11921 0
M  V30 7973 H 763.686 4.98732 -0.653876 0
M  V30 7974 H 763.386 5.37873 -2.36572 0
M  V30 7975 H 764.91 5.89546 -1.58958 0
M  V30 7976 H 766.324 4.58343 -3.44376 0
M  V30 7977 H 764.721 4.30248 -4.18338 0
M  V30 7978 H 765.791 2.92463 -3.86773 0
M  V30 7979 N 767.134 1.16236 1.06428 0
M  V30 7980 C 768.411 0.853294 1.76006 0
M  V30 7981 C 768.791 -0.649162 2.00871 0
M  V30 7982 O 768.139 -1.59653 1.63472 0
M  V30 7983 C 768.349 1.67448 3.06206 0
M  V30 7984 C 769.697 1.8866 3.80385 0
M  V30 7985 O 770.721 1.64303 3.16043 0
M  V30 7986 O 769.58 2.29518 4.95968 0
M  V30 7987 H 766.674 0.314737 0.764767 0
M  V30 7988 H 769.22 1.26865 1.12709 0
M  V30 7989 H 767.992 2.69411 2.83784 0
M  V30 7990 H 767.615 1.25608 3.77238 0
M  V30 7991 N 768.612 -1.24939 0.960631 0
M  V30 7992 C 769.559 -2.25658 0.484459 0
M  V30 7993 C 770.529 -1.59422 -0.466242 0
M  V30 7994 O 771.714 -1.87015 -0.378169 0
M  V30 7995 C 768.854 -3.44359 -0.225958 0
M  V30 7996 C 767.967 -4.25214 0.762682 0
M  V30 7997 C 767.102 -5.31192 0.0290931 0
M  V30 7998 C 766.141 -6.03739 1.00827 0
M  V30 7999 N 765.278 -7.01437 0.305155 0
M  V30 8000 H 770.118 -2.65758 1.34821 0
M  V30 8001 H 767.655 -1.30648 0.675983 0
M  V30 8002 H 769.613 -4.12035 -0.654472 0
M  V30 8003 H 768.243 -3.05118 -1.05371 0
M  V30 8004 H 767.295 -3.57144 1.30966 0
M  V30 8005 H 768.607 -4.75406 1.50964 0
M  V30 8006 H 767.761 -6.04971 -0.457763 0
M  V30 8007 H 766.5 -4.81889 -0.750614 0
M  V30 8008 H 765.505 -5.2877 1.50607 0
M  V30 8009 H 766.73 -6.55131 1.7883 0
M  V30 8010 H 764.676 -6.54415 -0.455704 0
M  V30 8011 H 764.593 -7.49475 0.991104 0
M  V30 8012 H 765.861 -7.79336 -0.159966 0
M  V30 8013 N 770.09 -0.729906 -1.39679 0
M  V30 8014 C 771.02 -0.101618 -2.33279 0
M  V30 8015 C 772.001 0.729854 -1.53646 0
M  V30 8016 O 773.186 0.67587 -1.82059 0
M  V30 8017 C 770.316 0.81024 -3.37716 0
M  V30 8018 C 769.27 0.0833126 -4.27919 0
M  V30 8019 C 768.596 1.11185 -5.23012 0
M  V30 8020 C 769.896 -1.07107 -5.112 0
M  V30 8021 H 771.59 -0.883452 -2.86069 0
M  V30 8022 H 769.136 -0.426283 -1.37546 0
M  V30 8023 H 771.089 1.25927 -4.02145 0
M  V30 8024 H 769.813 1.62413 -2.83354 0
M  V30 8025 H 768.472 -0.346043 -3.64963 0
M  V30 8026 H 768.12 1.91917 -4.64948 0
M  V30 8027 H 767.82 0.63026 -5.8421 0
M  V30 8028 H 769.344 1.56068 -5.90318 0
M  V30 8029 H 770.758 -0.700726 -5.69002 0
M  V30 8030 H 769.155 -1.48196 -5.81514 0
M  V30 8031 H 770.225 -1.89513 -4.46332 0
M  V30 8032 N 771.568 1.50203 -0.477153 0
M  V30 8033 C 772.984 1.59056 -0.131663 0
M  V30 8034 C 773.184 1.48473 1.36227 0
M  V30 8035 O 772.24 1.34635 2.13611 0
M  V30 8036 C 773.553 2.92741 -0.687254 0
M  V30 8037 C 775.101 3.0615 -0.651223 0
M  V30 8038 C 775.576 4.42419 -1.18446 0
M  V30 8039 N 777.067 4.48847 -1.14413 0
M  V30 8040 C 777.802 5.52689 -1.52717 0
M  V30 8041 N 777.298 6.63754 -1.98499 0
M  V30 8042 N 779.091 5.43267 -1.44282 0
M  V30 8043 H 771.242 1.55325 -1.44872 0
M  V30 8044 H 773.505 0.734395 -0.599473 0
M  V30 8045 H 773.211 3.0598 -1.73405 0
M  V30 8046 H 773.085 3.76961 -0.134215 0
M  V30 8047 H 775.472 2.92556 0.386677 0
M  V30 8048 H 775.553 2.23673 -1.24114 0
M  V30 8049 H 775.197 4.56763 -2.22103 0
M  V30 8050 H 775.127 5.23498 -0.570709 0
M  V30 8051 H 777.618 3.69152 -0.808416 0
M  V30 8052 H 777.931 7.39059 -2.25859 0
M  V30 8053 H 776.276 6.64858 -2.02456 0
M  V30 8054 H 779.467 4.55387 -1.08352 0
M  V30 8055 H 779.64 6.24074 -1.74459 0
M  V30 8056 N 773.046 0.209999 1.56195 0
M  V30 8057 C 774.323 -0.473214 1.89789 0
M  V30 8058 C 774.703 -1.78581 1.1257 0
M  V30 8059 O 774.051 -2.27325 0.231398 0
M  V30 8060 C 774.261 -0.677458 3.42362 0
M  V30 8061 C 775.609 -0.990114 4.12895 0
M  V30 8062 O 776.633 -0.764655 3.47896 0
M  V30 8063 O 775.492 -1.41737 5.278 0
M  V30 8064 H 772.586 -0.248622 0.788743 0
M  V30 8065 H 775.132 0.251324 1.67829 0
M  V30 8066 H 773.904 0.248878 3.90508 0
M  V30 8067 H 773.527 -1.45391 3.70064 0
M  V30 8068 N 774.524 -1.57472 -0.0634922 0
M  V30 8069 C 775.754 -1.91608 -0.772645 0
M  V30 8070 C 776.162 -0.805019 -1.71219 0
M  V30 8071 O 775.505 0.229941 -1.82255 0
M  V30 8072 C 775.567 -3.21281 -1.61304 0
M  V30 8073 C 775.231 -4.49177 -0.841973 0
M  V30 8074 C 776.228 -5.19661 -0.157494 0
M  V30 8075 C 773.913 -4.9578 -0.80669 0
M  V30 8076 C 775.907 -6.35006 0.551948 0
M  V30 8077 C 773.594 -6.11028 -0.0934812 0
M  V30 8078 C 774.592 -6.80493 0.58463 0
M  V30 8079 O 774.28 -7.93542 1.28633 0
M  V30 8080 H 774.012 -0.637685 -0.224352 0
M  V30 8081 H 776.566 -2.05369 -0.0355279 0
M  V30 8082 H 774.796 -3.03752 -2.39315 0
M  V30 8083 H 776.485 -3.41003 -2.20162 0
M  V30 8084 H 777.251 -4.84681 -0.176006 0
M  V30 8085 H 773.13 -4.41579 -1.32397 0
M  V30 8086 H 776.674 -6.89161 1.0818 0
M  V30 8087 H 772.571 -6.45459 -0.0729258 0
M  V30 8088 H 773.339 -8.09708 1.19646 0
M  V30 8089 N 776.003 0.335068 -1.53997 0
M  V30 8090 C 776.933 1.41727 -1.85568 0
M  V30 8091 C 777.914 1.54505 -0.7115 0
M  V30 8092 O 779.099 1.68573 -0.964191 0
M  V30 8093 C 776.229 2.7866 -2.07282 0
M  V30 8094 C 775.183 2.80682 -3.23112 0
M  V30 8095 C 774.509 4.20581 -3.30175 0
M  V30 8096 C 775.809 2.45458 -4.61029 0
M  V30 8097 H 777.503 1.15555 -2.76202 0
M  V30 8098 H 775.049 0.554445 -1.32898 0
M  V30 8099 H 777.002 3.54423 -2.27952 0
M  V30 8100 H 775.726 3.06286 -1.13387 0
M  V30 8101 H 774.385 2.07373 -3.02311 0
M  V30 8102 H 774.033 4.4533 -2.33859 0
M  V30 8103 H 773.733 4.22843 -4.08016 0
M  V30 8104 H 775.257 4.98174 -3.53066 0
M  V30 8105 H 776.671 3.10934 -4.81656 0
M  V30 8106 H 775.068 2.5899 -5.41336 0
M  V30 8107 H 776.138 1.40628 -4.6406 0
M  V30 8108 N 777.481 1.45874 0.596531 0
M  V30 8109 C 778.444 1.54988 1.68853 0
M  V30 8110 C 779.444 0.428302 1.54991 0
M  V30 8111 O 780.634 0.692158 1.59859 0
M  V30 8112 C 777.766 1.457 3.08195 0
M  V30 8113 H 778.959 2.52294 1.62135 0
M  V30 8114 H 776.512 1.33479 0.813206 0
M  V30 8115 H 777.247 0.496204 3.20481 0
M  V30 8116 H 777.032 2.27061 3.19665 0
M  V30 8117 H 778.522 1.55133 3.87716 0
M  V30 8118 N 778.959 -0.83999 1.33349 0
M  V30 8119 C 780.236 -1.57973 1.15342 0
M  V30 8120 C 780.616 -2.09226 -0.280632 0
M  V30 8121 O 779.964 -1.89317 -1.2795 0
M  V30 8122 C 780.174 -2.71446 2.19359 0
M  V30 8123 C 781.522 -3.40654 2.53456 0
M  V30 8124 O 782.546 -2.81686 2.18017 0
M  V30 8125 O 781.405 -4.47101 3.14266 0
M  V30 8126 H 778.499 -0.6964 0.446044 0
M  V30 8127 H 781.045 -0.882843 1.44927 0
M  V30 8128 H 779.817 -2.31205 3.1569 0
M  V30 8129 H 779.44 -3.488 1.90852 0
M  V30 8130 N 780.437 -1.16799 -1.0581 0
M  V30 8131 C 781.667 -0.975454 -1.82122 0
M  V30 8132 C 782.075 0.479584 -1.83021 0
M  V30 8133 O 781.418 1.34471 -1.25153 0
M  V30 8134 C 781.48 -1.43209 -3.29744 0
M  V30 8135 C 781.144 -2.908 -3.5254 0
M  V30 8136 C 782.141 -3.88775 -3.45181 0
M  V30 8137 C 779.826 -3.28832 -3.79703 0
M  V30 8138 C 781.82 -5.22782 -3.64661 0
M  V30 8139 C 779.507 -4.63007 -3.98832 0
M  V30 8140 C 780.505 -5.59791 -3.91309 0
M  V30 8141 O 780.193 -6.9154 -4.09911 0
M  V30 8142 H 779.925 -0.345655 -0.580947 0
M  V30 8143 H 782.479 -1.55355 -1.34365 0
M  V30 8144 H 780.709 -0.797504 -3.78387 0
M  V30 8145 H 782.398 -1.2062 -3.87564 0
M  V30 8146 H 783.164 -3.60738 -3.2418 0
M  V30 8147 H 779.043 -2.54073 -3.84666 0
M  V30 8148 H 782.587 -5.98312 -3.58705 0
M  V30 8149 H 778.484 -4.90752 -4.19324 0
M  V30 8150 H 779.252 -6.98188 -4.27172 0
M  V30 8151 N 781.915 1.24427 -0.967243 0
M  V30 8152 C 783.192 1.87831 -0.545776 0
M  V30 8153 C 783.572 1.87126 0.977099 0
M  V30 8154 O 782.92 1.34357 1.84826 0
M  V30 8155 C 783.13 3.29967 -1.13679 0
M  V30 8156 C 784.478 4.06654 -1.22139 0
M  V30 8157 O 785.502 3.39136 -1.08926 0
M  V30 8158 O 784.361 5.27455 -1.43017 0
M  V30 8159 H 781.455 0.806745 -0.181912 0
M  V30 8160 H 784.001 1.32403 -1.06148 0
M  V30 8161 H 782.773 3.24977 -2.17958 0
M  V30 8162 H 782.396 3.92969 -0.605093 0
M  V30 8163 N 783.393 0.737304 1.3929 0
M  V30 8164 C 784.639 0.286681 2.00763 0
M  V30 8165 C 784.972 -1.12388 1.58375 0
M  V30 8166 O 784.247 -1.76661 0.813699 0
M  V30 8167 C 784.53 0.391147 3.57969 0
M  V30 8168 C 784.383 1.84165 4.1037 0
M  V30 8169 C 785.702 -0.225072 4.39524 0
M  V30 8170 H 782.821 0.105642 0.729389 0
M  V30 8171 H 785.463 0.933892 1.65464 0
M  V30 8172 H 783.613 -0.159875 3.88171 0
M  V30 8173 H 785.285 2.44972 3.90879 0
M  V30 8174 H 783.528 2.3622 3.63844 0
M  V30 8175 H 784.199 1.866 5.19504 0
M  V30 8176 H 786.675 0.244677 4.1538 0
M  V30 8177 H 785.551 -0.121646 5.48765 0
M  V30 8178 H 785.812 -1.31141 4.22202 0
M  V30 8179 N 784.871 -1.49948 0.485112 0
M  V30 8180 C 785.834 -2.27351 -0.290546 0
M  V30 8181 C 786.834 -1.32704 -0.908087 0
M  V30 8182 O 788.024 -1.56007 -0.775085 0
M  V30 8183 C 785.156 -3.10135 -1.41524 0
M  V30 8184 H 786.349 -2.97374 0.388454 0
M  V30 8185 H 783.902 -1.54453 0.239586 0
M  V30 8186 H 784.637 -2.44641 -2.12888 0
M  V30 8187 H 784.422 -3.79705 -0.978074 0
M  V30 8188 H 785.912 -3.68638 -1.96204 0
M  V30 8189 N 786.349 -0.21828 -1.56081 0
M  V30 8190 C 787.595 0.414921 -1.9851 0
M  V30 8191 C 787.928 1.59648 -1.10573 0
M  V30 8192 O 787.203 1.93818 -0.162695 0
M  V30 8193 C 787.486 0.852647 -3.4986 0
M  V30 8194 C 787.339 -0.33232 -4.48571 0
M  V30 8195 C 788.658 1.70998 -4.05521 0
M  V30 8196 H 785.777 0.149344 -0.72171 0
M  V30 8197 H 788.419 -0.313858 -1.8739 0
M  V30 8198 H 786.569 1.47362 -3.59467 0
M  V30 8199 H 788.241 -0.970418 -4.50977 0
M  V30 8200 H 786.484 -0.980302 -4.22578 0
M  V30 8201 H 787.155 0.0168407 -5.51997 0
M  V30 8202 H 789.631 1.18606 -3.98838 0
M  V30 8203 H 788.507 1.98517 -5.11744 0
M  V30 8204 H 788.768 2.67219 -3.52202 0
M  V30 8205 N 787.827 1.57504 0.0551401 0
M  V30 8206 C 789.055 1.92294 0.76358 0
M  V30 8207 C 789.47 0.815774 1.70266 0
M  V30 8208 O 788.827 -0.209772 1.8129 0
M  V30 8209 C 788.878 3.26914 1.54302 0
M  V30 8210 O 788.599 4.33375 0.641666 0
M  V30 8211 C 790.1 3.75825 2.35097 0
M  V30 8212 H 787.32 0.635229 0.216159 0
M  V30 8213 H 789.864 2.0449 0.0204385 0
M  V30 8214 H 788.019 3.16196 2.23828 0
M  V30 8215 H 788.433 5.10927 1.1855 0
M  V30 8216 H 789.907 4.72603 2.8522 0
M  V30 8217 H 790.384 3.0568 3.15367 0
M  V30 8218 H 790.99 3.89542 1.70696 0
M  V30 8219 N 789.305 -0.326896 1.54172 0
M  V30 8220 C 790.268 -1.38515 1.8261 0
M  V30 8221 C 791.268 -1.44872 0.697771 0
M  V30 8222 O 792.458 -1.44957 0.966078 0
M  V30 8223 C 789.59 -2.77281 1.98313 0
M  V30 8224 H 790.783 -1.14556 2.77159 0
M  V30 8225 H 788.336 -0.562199 1.45839 0
M  V30 8226 H 789.071 -3.065 1.05964 0
M  V30 8227 H 788.856 -2.74061 2.80416 0
M  V30 8228 H 790.346 -3.53845 2.21773 0
M  V30 8229 N 790.784 -1.46188 -0.588786 0
M  V30 8230 C 792.032 -1.50885 -1.34455 0
M  V30 8231 C 792.353 -0.159555 -1.94346 0
M  V30 8232 O 791.623 0.813239 -1.78222 0
M  V30 8233 H 790.203 -0.555707 -0.499198 0
M  V30 8234 H 792.865 -1.82277 -0.690014 0
M  V30 8235 H 791.961 -2.25816 -2.15438 0
M  V30 8236 N 792.262 0.832906 -1.33792 0
M  V30 8237 C 793.673 1.40489 -1.22963 0
M  V30 8238 C 794.024 1.95633 0.149026 0
M  V30 8239 O 793.149 1.8928 1.04891 0
M  V30 8240 C 793.744 2.55387 -2.22627 0
M  V30 8241 C 792.303 3.08522 -2.15618 0
M  V30 8242 C 791.45 1.81347 -2.09782 0
M  V30 8243 H 794.401 0.638156 -1.45304 0
M  V30 8244 H 794.422 3.33193 -1.83746 0
M  V30 8245 H 793.934 2.15222 -3.22957 0
M  V30 8246 H 792.035 3.53217 -1.18611 0
M  V30 8247 H 792.148 3.6829 -3.0643 0
M  V30 8248 H 790.512 2.01839 -1.55349 0
M  V30 8249 H 791.295 1.43369 -3.1193 0
M  V30 8250 N 793.74 1.17359 1.05189 0
M  V30 8251 C 794.987 0.961987 1.78191 0
M  V30 8252 C 795.315 -0.509363 1.87712 0
M  V30 8253 O 794.57 -1.39425 1.37329 0
M  V30 8254 C 794.869 1.54821 3.22126 0
M  V30 8255 C 794.535 3.04378 3.32663 0
M  V30 8256 C 793.197 3.45201 3.35246 0
M  V30 8257 C 795.549 4.00387 3.33677 0
M  V30 8258 C 792.877 4.80629 3.36471 0
M  V30 8259 C 795.229 5.35715 3.36441 0
M  V30 8260 C 793.893 5.76002 3.37311 0
M  V30 8261 H 793.163 0.352016 0.652047 0
M  V30 8262 H 795.81 1.46249 1.23627 0
M  V30 8263 H 794.115 0.969432 3.79617 0
M  V30 8264 H 795.812 1.36004 3.77232 0
M  V30 8265 H 792.402 2.71836 3.31366 0
M  V30 8266 H 796.586 3.69906 3.30882 0
M  V30 8267 H 791.842 5.11155 3.35455 0
M  V30 8268 H 796.016 6.09886 3.36173 0
M  V30 8269 H 793.643 6.80919 3.38013 0
M  V30 8270 N 795.218 -1.23913 0.973828 0
M  V30 8271 C 796.151 -2.23647 0.45355 0
M  V30 8272 C 797.129 -1.55485 -0.475724 0
M  V30 8273 O 798.313 -1.84083 -0.405689 0
M  V30 8274 C 795.44 -3.36942 -0.344594 0
M  V30 8275 C 794.486 -4.23221 0.527859 0
M  V30 8276 S 795.319 -4.97877 1.97177 0
M  V30 8277 C 796.475 -6.14627 1.18258 0
M  V30 8278 H 796.708 -2.67433 1.29873 0
M  V30 8279 H 794.241 -1.33289 0.779322 0
M  V30 8280 H 796.199 -4.02647 -0.799103 0
M  V30 8281 H 794.86 -2.91703 -1.16482 0
M  V30 8282 H 794.053 -5.03928 -0.0852555 0
M  V30 8283 H 793.655 -3.6255 0.918344 0
M  V30 8284 H 795.947 -6.76066 0.440629 0
M  V30 8285 H 796.89 -6.80311 1.96425 0
M  V30 8286 H 797.298 -5.6009 0.704256 0
M  V30 8287 N 796.696 -0.74468 -1.38897 0
M  V30 8288 C 797.973 -0.222773 -1.94327 0
M  V30 8289 C 798.353 1.27731 -1.68071 0
M  V30 8290 O 797.701 2.04754 -1.01429 0
M  V30 8291 C 797.911 -0.566836 -3.44366 0
M  V30 8292 C 799.259 -0.521531 -4.21385 0
M  V30 8293 O 800.283 -0.504599 -3.52608 0
M  V30 8294 O 799.142 -0.524595 -5.43976 0
M  V30 8295 H 796.236 -0.0439259 -0.825833 0
M  V30 8296 H 798.782 -0.824197 -1.48341 0
M  V30 8297 H 797.554 -1.60321 -3.56949 0
M  V30 8298 H 797.177 0.0630577 -3.9755 0
M  V30 8299 N 798.174 1.49689 -0.493057 0
M  V30 8300 C 799.122 2.30613 0.303383 0
M  V30 8301 C 800.116 1.38867 0.970165 0
M  V30 8302 O 801.322 1.55956 0.898761 0
M  V30 8303 H 797.697 0.742891 0.116691 0
M  V30 8304 H 799.668 2.95717 -0.39924 0
M  V30 8305 C 798.417 3.20008 1.35978 0
M  V30 8306 H 797.74 3.90526 0.856103 0
M  V30 8307 H 799.18 3.79586 1.88919 0
M  V30 8308 C 797.639 2.39079 2.37367 0
M  V30 8309 O 798.169 2.08933 3.43089 0
M  V30 8310 N 796.375 2.0125 2.09635 0
M  V30 8311 H 795.922 2.25966 1.23682 0
M  V30 8312 H 795.88 1.47408 2.77702 0
M  V30 8313 N 799.652 0.226554 1.55963 0
M  V30 8314 C 800.615 -0.668015 2.19249 0
M  V30 8315 C 801.615 -1.11794 1.1558 0
M  V30 8316 O 802.805 -1.02593 1.40784 0
M  V30 8317 C 799.937 -1.91571 2.81981 0
M  V30 8318 H 801.13 -0.116175 2.99675 0
M  V30 8319 H 798.683 -0.0230497 1.56283 0
M  V30 8320 H 799.418 -2.50929 2.05439 0
M  V30 8321 H 799.203 -1.6015 3.57903 0
M  V30 8322 H 800.693 -2.55294 3.30477 0
M  V30 8323 N 801.13 -1.57531 -0.0467866 0
M  V30 8324 C 802.379 -1.87632 -0.740069 0
M  V30 8325 C 802.692 -0.822691 -1.77457 0
M  V30 8326 O 803.898 -1.01235 -2.5192 0
M  V30 8327 C 802.354 -3.32917 -1.36727 0
M  V30 8328 C 801.962 -4.46469 -0.370035 0
M  V30 8329 C 803.706 -3.72189 -2.04146 0
M  V30 8330 C 801.613 -5.82806 -1.00457 0
M  V30 8331 H 800.543 -0.70002 -0.280158 0
M  V30 8332 H 803.194 -1.83499 0.00607151 0
M  V30 8333 H 801.576 -3.31739 -2.16252 0
M  V30 8334 H 802.75 -4.59085 0.397217 0
M  V30 8335 H 801.065 -4.15914 0.201079 0
M  V30 8336 H 803.662 -4.71357 -2.52441 0
M  V30 8337 H 804.005 -3.03268 -2.85192 0
M  V30 8338 H 804.538 -3.75465 -1.3142 0
M  V30 8339 H 801.277 -6.55083 -0.233907 0
M  V30 8340 H 800.797 -5.73944 -1.74209 0
M  V30 8341 H 802.476 -6.28961 -1.51713 0
M  V30 8342 N 802.608 0.318715 -1.54344 0
M  V30 8343 C 803.556 1.41254 -1.84798 0
M  V30 8344 C 804.55 1.53325 -0.720256 0
M  V30 8345 O 805.756 1.55653 -0.903992 0
M  V30 8346 H 802.131 0.471468 -0.585851 0
M  V30 8347 H 804.102 1.12795 -2.7626 0
M  V30 8348 C 802.851 2.77395 -2.09637 0
M  V30 8349 H 802.174 2.68881 -2.95876 0
M  V30 8350 H 803.614 3.52987 -2.34896 0
M  V30 8351 C 802.073 3.24948 -0.889398 0
M  V30 8352 O 802.603 4.01573 -0.101063 0
M  V30 8353 N 800.809 2.82051 -0.699684 0
M  V30 8354 H 800.356 2.19858 -1.3424 0
M  V30 8355 H 800.314 3.1422 0.106368 0
M  V30 8356 N 804.086 1.46499 0.581025 0
M  V30 8357 C 805.332 1.52121 1.34116 0
M  V30 8358 C 805.665 0.173031 1.93428 0
M  V30 8359 O 804.94 -0.815729 1.76568 0
M  V30 8360 C 805.223 2.62108 2.46924 0
M  V30 8361 C 805.076 4.06462 1.92636 0
M  V30 8362 C 806.395 2.68167 3.48962 0
M  V30 8363 H 803.514 0.5538 0.486287 0
M  V30 8364 H 806.156 1.78443 0.652538 0
M  V30 8365 H 804.306 2.39794 3.05665 0
M  V30 8366 H 805.978 4.40068 1.3834 0
M  V30 8367 H 804.221 4.15862 1.23455 0
M  V30 8368 H 804.892 4.79152 2.74076 0
M  V30 8369 H 807.368 2.8823 3.00104 0
M  V30 8370 H 806.244 3.46942 4.2535 0
M  V30 8371 H 806.505 1.74284 4.06297 0
M  V30 8372 N 805.565 -0.825799 1.34232 0
M  V30 8373 C 806.813 -1.57873 1.26177 0
M  V30 8374 C 807.134 -1.94267 -0.168904 0
M  V30 8375 O 806.404 -1.62045 -1.10084 0
M  V30 8376 H 804.984 -0.585388 0.464037 0
M  V30 8377 H 807.646 -0.986163 1.6811 0
M  V30 8378 H 806.742 -2.50283 1.86453 0
M  V30 8379 N 807.043 -1.17915 -1.04565 0
M  V30 8380 C 808.291 -0.969505 -1.77327 0
M  V30 8381 C 808.612 0.502569 -1.88412 0
M  V30 8382 O 807.882 1.36467 -1.40547 0
M  V30 8383 H 806.462 -0.355723 -0.656864 0
M  V30 8384 H 809.124 -1.48506 -1.26223 0
M  V30 8385 H 808.22 -1.40324 -2.78775 0
M  V30 8386 N 808.521 1.23394 -0.980386 0
M  V30 8387 C 809.749 1.95844 -0.667286 0
M  V30 8388 C 810.164 1.72574 0.765735 0
M  V30 8389 O 809.521 1.01715 1.51526 0
M  V30 8390 C 809.572 3.48844 -0.948151 0
M  V30 8391 O 809.293 3.71325 -2.32485 0
M  V30 8392 C 810.794 4.38494 -0.651002 0
M  V30 8393 H 808.014 0.623535 -0.247882 0
M  V30 8394 H 810.558 1.56885 -1.31176 0
M  V30 8395 H 808.713 3.85819 -0.349681 0
M  V30 8396 H 809.127 4.65619 -2.41452 0
M  V30 8397 H 810.601 5.44648 -0.897887 0
M  V30 8398 H 811.078 4.37236 0.414922 0
M  V30 8399 H 811.684 4.07127 -1.22995 0
M  V30 8400 N 809.999 0.752036 1.385 0
M  V30 8401 C 811.247 0.306895 1.99756 0
M  V30 8402 C 811.568 -1.11478 1.59992 0
M  V30 8403 O 810.838 -1.76206 0.856045 0
M  V30 8404 H 809.418 0.11048 0.738785 0
M  V30 8405 H 812.08 0.965785 1.69289 0
M  V30 8406 H 811.176 0.368797 3.09913 0
M  V30 8407 N 811.477 -1.49425 0.500989 0
M  V30 8408 C 812.407 -2.31971 -0.266775 0
M  V30 8409 C 813.388 -1.40245 -0.962563 0
M  V30 8410 O 814.573 -1.69154 -0.953968 0
M  V30 8411 C 811.703 -3.20757 -1.33163 0
M  V30 8412 C 810.657 -4.21275 -0.75572 0
M  V30 8413 C 809.983 -4.98997 -1.92109 0
M  V30 8414 C 811.283 -5.21686 0.253213 0
M  V30 8415 H 812.977 -2.96408 0.422237 0
M  V30 8416 H 810.523 -1.4254 0.204505 0
M  V30 8417 H 812.476 -3.77315 -1.87646 0
M  V30 8418 H 811.2 -2.54263 -2.04983 0
M  V30 8419 H 809.859 -3.65861 -0.232637 0
M  V30 8420 H 809.507 -4.28951 -2.62698 0
M  V30 8421 H 809.207 -5.67011 -1.54182 0
M  V30 8422 H 810.731 -5.584 -2.47026 0
M  V30 8423 H 812.145 -5.72939 -0.203483 0
M  V30 8424 H 810.542 -5.9759 0.548322 0
M  V30 8425 H 811.612 -4.70596 1.16909 0
M  V30 8426 N 812.955 -0.234822 -1.55841 0
M  V30 8427 C 813.887 0.702346 -2.18174 0
M  V30 8428 C 814.9 1.14776 -1.15457 0
M  V30 8429 O 816.089 1.07662 -1.42377 0
M  V30 8430 C 813.189 1.96483 -2.76129 0
M  V30 8431 C 812.362 1.67283 -4.04148 0
M  V30 8432 C 811.421 2.7837 -4.46539 0
M  V30 8433 O 810.447 2.46272 -5.13166 0
M  V30 8434 N 811.649 4.07611 -4.1332 0
M  V30 8435 H 814.414 0.169074 -2.99223 0
M  V30 8436 H 811.975 -0.0543164 -1.61809 0
M  V30 8437 H 813.967 2.70016 -3.01452 0
M  V30 8438 H 812.537 2.40822 -1.99307 0
M  V30 8439 H 811.757 0.773278 -3.86541 0
M  V30 8440 H 813.045 1.45222 -4.87635 0
M  V30 8441 H 812.443 4.36527 -3.59806 0
M  V30 8442 H 811 4.77646 -4.43506 0
M  V30 8443 N 814.433 1.57553 0.0384317 0
M  V30 8444 C 815.663 1.92813 0.742064 0
M  V30 8445 C 816.071 0.832157 1.69917 0
M  V30 8446 O 815.414 -0.200917 1.82598 0
M  V30 8447 C 815.476 3.23806 1.56172 0
M  V30 8448 C 815.14 4.50459 0.770407 0
M  V30 8449 C 816.137 5.19846 0.0748006 0
M  V30 8450 C 813.822 4.97001 0.727714 0
M  V30 8451 C 815.816 6.34047 -0.652902 0
M  V30 8452 C 813.503 6.111 -0.00373992 0
M  V30 8453 C 814.501 6.79477 -0.692816 0
M  V30 8454 O 814.189 7.91395 -1.41241 0
M  V30 8455 H 813.921 0.641174 0.214179 0
M  V30 8456 H 816.475 2.054 0.00285095 0
M  V30 8457 H 814.705 3.0752 2.34453 0
M  V30 8458 H 816.394 3.44463 2.14709 0
M  V30 8459 H 817.16 4.84899 0.098875 0
M  V30 8460 H 813.039 4.43629 1.25355 0
M  V30 8461 H 816.583 6.87353 -1.1913 0
M  V30 8462 H 812.48 6.45493 -0.0297703 0
M  V30 8463 H 813.248 8.07702 -1.32512 0
M  V30 8464 N 815.911 -0.310526 1.54511 0
M  V30 8465 C 816.874 -1.3657 1.84068 0
M  V30 8466 C 817.874 -1.44123 0.713097 0
M  V30 8467 O 819.064 -1.43924 0.981399 0
M  V30 8468 C 816.196 -2.75162 2.01243 0
M  V30 8469 H 817.389 -1.1161 2.78358 0
M  V30 8470 H 814.942 -0.546699 1.46427 0
M  V30 8471 H 815.677 -3.05359 1.09208 0
M  V30 8472 H 815.462 -2.71071 2.83307 0
M  V30 8473 H 816.952 -3.51473 2.25514 0
M  V30 8474 N 817.389 -1.46805 -0.573248 0
M  V30 8475 C 818.352 -1.57655 -1.66366 0
M  V30 8476 C 819.352 -0.452905 -1.5429 0
M  V30 8477 O 820.542 -0.717502 -1.58737 0
M  V30 8478 C 817.674 -1.50584 -3.05839 0
M  V30 8479 H 818.867 -2.54842 -1.581 0
M  V30 8480 H 816.42 -1.34756 -0.791868 0
M  V30 8481 H 817.155 -0.547127 -3.19651 0
M  V30 8482 H 816.94 -2.32118 -3.16012 0
M  V30 8483 H 818.43 -1.61282 -3.85199 0
M  V30 8484 N 818.867 0.818669 -1.34668 0
M  V30 8485 C 820.116 1.57017 -1.26604 0
M  V30 8486 C 820.429 1.94936 0.161036 0
M  V30 8487 O 821.635 2.69051 0.36386 0
M  V30 8488 C 820.091 2.83305 -2.2196 0
M  V30 8489 C 819.699 2.52671 -3.69948 0
M  V30 8490 C 821.443 3.61324 -2.22813 0
M  V30 8491 C 819.35 3.75178 -4.5716 0
M  V30 8492 H 818.28 0.589323 -0.470335 0
M  V30 8493 H 820.931 0.900956 -1.59859 0
M  V30 8494 H 819.313 3.51874 -1.81661 0
M  V30 8495 H 820.487 1.92186 -4.18809 0
M  V30 8496 H 818.802 1.8792 -3.71584 0
M  V30 8497 H 821.399 4.52294 -2.85192 0
M  V30 8498 H 821.742 3.97759 -1.22857 0
M  V30 8499 H 822.275 2.99703 -2.61578 0
M  V30 8500 H 819.014 3.43861 -5.58068 0
M  V30 8501 H 818.534 4.34931 -4.13031 0
M  V30 8502 H 820.213 4.42542 -4.71981 0
M  V30 8503 N 820.346 1.18468 1.03938 0
M  V30 8504 C 821.574 1.00576 1.80809 0
M  V30 8505 C 821.989 -0.445786 1.83462 0
M  V30 8506 O 821.346 -1.30964 1.27101 0
M  V30 8507 C 821.397 1.55491 3.26351 0
M  V30 8508 O 821.118 2.94963 3.23926 0
M  V30 8509 C 822.619 1.42236 4.19862 0
M  V30 8510 H 819.839 0.35508 0.56935 0
M  V30 8511 H 822.383 1.57046 1.30984 0
M  V30 8512 H 820.538 1.03195 3.73403 0
M  V30 8513 H 820.952 3.20598 4.15111 0
M  V30 8514 H 822.426 1.85455 5.19914 0
M  V30 8515 H 822.903 0.371267 4.37628 0
M  V30 8516 H 823.509 1.9361 3.78675 0
M  V30 8517 N 821.824 -1.22873 0.986916 0
M  V30 8518 C 822.787 -2.2281 0.537442 0
M  V30 8519 C 823.787 -1.56331 -0.37646 0
M  V30 8520 O 824.977 -1.73376 -0.169247 0
M  V30 8521 C 822.109 -3.40195 -0.219082 0
M  V30 8522 H 823.302 -2.64089 1.42116 0
M  V30 8523 H 820.855 -1.35819 0.773488 0
M  V30 8524 H 821.59 -3.04381 -1.11905 0
M  V30 8525 H 821.375 -3.89657 0.437026 0
M  V30 8526 H 822.865 -4.14326 -0.521926 0
M  V30 8527 N 823.302 -0.75937 -1.38099 0
M  V30 8528 C 824.713 -0.385078 -1.82686 0
M  V30 8529 C 825.064 1.0871 -1.6333 0
M  V30 8530 O 824.189 1.84084 -1.13762 0
M  V30 8531 C 824.784 -0.692161 -3.31654 0
M  V30 8532 C 823.343 -0.371077 -3.74566 0
M  V30 8533 C 822.49 -0.942375 -2.60796 0
M  V30 8534 H 825.441 -0.955048 -1.26746 0
M  V30 8535 H 825.462 0.0276001 -3.8049 0
M  V30 8536 H 824.974 -1.76369 -3.4571 0
M  V30 8537 H 823.075 0.693637 -3.66087 0
M  V30 8538 H 823.188 -0.870672 -4.71122 0
M  V30 8539 H 821.552 -0.367383 -2.52036 0
M  V30 8540 H 822.335 -2.01905 -2.77649 0
M  V30 8541 N 824.78 1.49157 -0.508906 0
M  V30 8542 C 826.01 2.06579 0.0293308 0
M  V30 8543 C 826.418 1.36852 1.30645 0
M  V30 8544 O 825.761 0.443079 1.78276 0
M  V30 8545 C 825.823 3.57838 0.345296 0
M  V30 8546 C 825.487 4.49302 -0.835256 0
M  V30 8547 C 826.484 4.90345 -1.72793 0
M  V30 8548 C 824.169 4.91494 -1.0363 0
M  V30 8549 C 826.163 5.72327 -2.80573 0
M  V30 8550 C 823.85 5.7325 -2.11726 0
M  V30 8551 C 824.848 6.13572 -3.00032 0
M  V30 8552 O 824.536 6.93691 -4.06261 0
M  V30 8553 H 824.268 0.675679 -0.0208193 0
M  V30 8554 H 826.822 1.9282 -0.707789 0
M  V30 8555 H 825.052 3.69634 1.13612 0
M  V30 8556 H 826.741 3.97467 0.823089 0
M  V30 8557 H 827.507 4.58388 -1.58446 0
M  V30 8558 H 823.386 4.59605 -0.358308 0
M  V30 8559 H 826.93 6.03719 -3.49527 0
M  V30 8560 H 822.827 6.0462 -2.26065 0
M  V30 8561 H 823.595 7.12011 -4.03711 0
M  V30 8562 N 826.258 0.243083 1.55714 0
M  V30 8563 C 827.504 -0.383287 1.99145 0
M  V30 8564 C 827.837 -1.57868 1.13098 0
M  V30 8565 O 827.112 -1.93535 0.193509 0
M  V30 8566 C 827.395 -0.796879 3.51172 0
M  V30 8567 C 827.248 0.403642 4.47985 0
M  V30 8568 C 828.567 -1.64525 4.08191 0
M  V30 8569 H 825.686 -0.137843 0.723995 0
M  V30 8570 H 828.328 0.343631 1.86867 0
M  V30 8571 H 826.478 -1.41625 3.61766 0
M  V30 8572 H 828.15 1.04204 4.49376 0
M  V30 8573 H 826.393 1.04741 4.20965 0
M  V30 8574 H 827.064 0.0709794 5.51954 0
M  V30 8575 H 829.54 -1.12246 4.00674 0
M  V30 8576 H 828.416 -1.9035 5.14838 0
M  V30 8577 H 828.677 -2.61582 3.56409 0
M  V30 8578 N 827.736 -1.57571 -0.0300757 0
M  V30 8579 C 828.982 -1.89506 -0.722159 0
M  V30 8580 C 829.315 -0.840699 -1.7506 0
M  V30 8581 O 828.59 0.144358 -1.93964 0
M  V30 8582 C 828.873 -3.32081 -1.39262 0
M  V30 8583 C 828.726 -4.48211 -0.377768 0
M  V30 8584 C 830.045 -3.73557 -2.32687 0
M  V30 8585 H 827.164 -0.689213 -0.261064 0
M  V30 8586 H 829.806 -1.89994 0.0150388 0
M  V30 8587 H 827.956 -3.31796 -2.02098 0
M  V30 8588 H 829.628 -4.6063 0.248591 0
M  V30 8589 H 827.871 -4.3274 0.303045 0
M  V30 8590 H 828.542 -5.44854 -0.885347 0
M  V30 8591 H 831.018 -3.75202 -1.79896 0
M  V30 8592 H 829.894 -4.74125 -2.7658 0
M  V30 8593 H 830.155 -3.05759 -3.19317 0
M  V30 8594 N 829.214 0.302327 -1.54673 0
M  V30 8595 C 830.144 1.37759 -1.88533 0
M  V30 8596 C 831.125 1.52961 -0.744113 0
M  V30 8597 O 832.31 1.6649 -0.999731 0
M  V30 8598 C 829.44 2.74201 -2.13146 0
M  V30 8599 C 828.394 2.73765 -3.28993 0
M  V30 8600 C 827.72 4.13483 -3.39022 0
M  V30 8601 C 829.02 2.35624 -4.66132 0
M  V30 8602 H 830.714 1.0967 -2.78591 0
M  V30 8603 H 828.26 0.52613 -1.34044 0
M  V30 8604 H 830.213 3.49508 -2.35419 0
M  V30 8605 H 828.937 3.03812 -1.19858 0
M  V30 8606 H 827.596 2.00914 -3.06642 0
M  V30 8607 H 827.244 4.40269 -2.43253 0
M  V30 8608 H 826.944 4.14093 -4.16894 0
M  V30 8609 H 828.468 4.90572 -3.63553 0
M  V30 8610 H 829.882 3.00647 -4.88143 0
M  V30 8611 H 828.279 2.47449 -5.46707 0
M  V30 8612 H 829.349 1.30753 -4.66939 0
M  V30 8613 N 830.692 1.47107 0.565454 0
M  V30 8614 C 831.92 1.56909 1.3486 0
M  V30 8615 C 832.335 0.216312 1.87557 0
M  V30 8616 O 831.692 -0.789168 1.64555 0
M  V30 8617 C 831.743 2.58776 2.52423 0
M  V30 8618 O 831.464 3.888 2.01906 0
M  V30 8619 C 832.965 2.78683 3.44747 0
M  V30 8620 H 830.185 0.530096 0.411387 0
M  V30 8621 H 832.729 1.92658 0.685782 0
M  V30 8622 H 830.884 2.25983 3.1466 0
M  V30 8623 H 831.298 4.44393 2.78595 0
M  V30 8624 H 832.772 3.53842 4.23674 0
M  V30 8625 H 833.249 1.86208 3.97773 0
M  V30 8626 H 833.855 3.12641 2.88333 0
M  V30 8627 N 832.17 -0.811516 1.35101 0
M  V30 8628 C 833.418 -1.56525 1.27845 0
M  V30 8629 C 833.739 -1.94435 -0.14829 0
M  V30 8630 O 833.009 -1.63203 -1.08359 0
M  V30 8631 H 831.589 -0.580433 0.47022 0
M  V30 8632 H 834.251 -0.968277 1.69146 0
M  V30 8633 H 833.347 -2.48291 1.89097 0
M  V30 8634 N 833.648 -1.19017 -1.03309 0
M  V30 8635 C 834.578 -0.94772 -2.13402 0
M  V30 8636 C 835.559 0.117383 -1.69694 0
M  V30 8637 O 836.744 -0.0367733 -1.94165 0
M  V30 8638 C 833.874 -0.480977 -3.43953 0
M  V30 8639 C 832.828 -1.48743 -4.01322 0
M  V30 8640 C 832.154 -0.877924 -5.27443 0
M  V30 8641 C 833.454 -2.86642 -4.36616 0
M  V30 8642 H 835.148 -1.86846 -2.33942 0
M  V30 8643 H 832.694 -0.899781 -1.12427 0
M  V30 8644 H 834.647 -0.298677 -4.2034 0
M  V30 8645 H 833.371 0.475348 -3.23122 0
M  V30 8646 H 832.03 -1.65681 -3.27025 0
M  V30 8647 H 831.678 0.0858232 -5.02927 0
M  V30 8648 H 831.378 -1.54996 -5.66789 0
M  V30 8649 H 832.902 -0.706326 -6.06501 0
M  V30 8650 H 834.316 -2.73312 -5.03958 0
M  V30 8651 H 832.713 -3.50599 -4.87032 0
M  V30 8652 H 833.783 -3.39617 -3.46105 0
M  V30 8653 N 835.127 1.22348 -0.993418 0
M  V30 8654 C 836.375 1.90733 -0.668246 0
M  V30 8655 C 836.696 1.77732 0.802261 0
M  V30 8656 O 835.966 1.16486 1.57505 0
M  V30 8657 H 834.546 0.705966 -0.244174 0
M  V30 8658 H 837.208 1.48691 -1.26004 0
M  V30 8659 H 836.304 2.97883 -0.931239 0
M  V30 8660 N 836.605 0.766683 1.37694 0
M  V30 8661 C 837.515 0.150158 2.34119 0
M  V30 8662 C 838.531 -0.685513 1.59927 0
M  V30 8663 O 839.707 -0.606616 1.92047 0
M  V30 8664 C 836.772 -0.722562 3.39087 0
M  V30 8665 C 835.833 0.128983 4.29106 0
M  V30 8666 C 835.066 -0.702178 5.29061 0
M  V30 8667 O 835.289 -1.93954 5.36412 0
M  V30 8668 O 834.223 -0.114056 6.01792 0
M  V30 8669 H 838.049 0.946829 2.88563 0
M  V30 8670 H 835.634 0.527765 1.39768 0
M  V30 8671 H 837.516 -1.22095 4.03325 0
M  V30 8672 H 836.191 -1.49751 2.86978 0
M  V30 8673 H 835.098 0.673612 3.67985 0
M  V30 8674 H 836.431 0.866892 4.84506 0
M  V30 8675 N 838.083 -1.48885 0.516809 0
M  V30 8676 C 839.308 -2.0739 -0.0205201 0
M  V30 8677 C 839.733 -1.37259 -1.28614 0
M  V30 8678 O 839.091 -0.434304 -1.76021 0
M  V30 8679 C 839.139 -3.59793 -0.24104 0
M  V30 8680 O 838.243 -3.90957 -1.31251 0
M  V30 8681 H 837.584 -0.663167 0.0332564 0
M  V30 8682 H 840.114 -1.91477 0.720956 0
M  V30 8683 H 840.124 -4.0531 -0.467737 0
M  V30 8684 H 838.799 -4.10244 0.68356 0
M  V30 8685 H 837.376 -3.57234 -1.06951 0
M  V30 8686 N 839.561 -0.251338 -1.55583 0
M  V30 8687 C 840.808 0.372169 -1.99051 0
M  V30 8688 C 841.136 1.57623 -1.13953 0
M  V30 8689 O 840.391 1.94762 -0.191398 0
M  V30 8690 C 840.69 0.821186 -3.47838 0
M  V30 8691 C 840.356 -0.275608 -4.50057 0
M  V30 8692 C 839.018 -0.57683 -4.7773 0
M  V30 8693 C 841.37 -1.01585 -5.11204 0
M  V30 8694 C 838.698 -1.62229 -5.63825 0
M  V30 8695 C 841.05 -2.05087 -5.98433 0
M  V30 8696 C 839.714 -2.35869 -6.24437 0
M  V30 8697 H 838.984 0.136186 -0.728378 0
M  V30 8698 H 841.631 -0.360089 -1.88084 0
M  V30 8699 H 839.936 1.63272 -3.56159 0
M  V30 8700 H 841.633 1.31396 -3.78861 0
M  V30 8701 H 838.223 -0.030697 -4.28589 0
M  V30 8702 H 842.407 -0.79639 -4.89869 0
M  V30 8703 H 837.663 -1.86607 -5.82226 0
M  V30 8704 H 841.837 -2.62934 -6.44855 0
M  V30 8705 H 839.464 -3.17017 -6.90944 0
M  V30 8706 N 841.039 1.57585 0.0217189 0
M  V30 8707 C 841.986 2.07036 1.02004 0
M  V30 8708 C 842.956 0.96106 1.35473 0
M  V30 8709 O 844.141 1.23211 1.45684 0
M  V30 8710 C 841.281 2.56056 2.31364 0
M  V30 8711 C 840.394 3.80805 2.03989 0
M  V30 8712 C 839.529 4.18409 3.27272 0
M  V30 8713 C 838.568 5.36055 2.95486 0
M  V30 8714 N 837.705 5.69056 4.11242 0
M  V30 8715 H 842.545 2.92073 0.591396 0
M  V30 8716 H 840.082 1.44403 0.280384 0
M  V30 8717 H 842.04 2.82548 3.06957 0
M  V30 8718 H 840.67 1.73925 2.71937 0
M  V30 8719 H 839.722 3.61354 1.1886 0
M  V30 8720 H 841.034 4.66512 1.76546 0
M  V30 8721 H 840.188 4.46068 4.11228 0
M  V30 8722 H 838.927 3.31369 3.57835 0
M  V30 8723 H 837.932 5.08142 2.09933 0
M  V30 8724 H 839.157 6.24755 2.66193 0
M  V30 8725 H 837.103 4.84974 4.41742 0
M  V30 8726 H 837.02 6.49288 3.87247 0
M  V30 8727 H 838.288 6.01295 4.96049 0
M  V30 8728 N 842.517 -0.29412 1.54831 0
M  V30 8729 C 843.464 -1.36296 1.86258 0
M  V30 8730 C 844.434 -1.50061 0.712097 0
M  V30 8731 O 845.619 -1.64809 0.961381 0
M  V30 8732 C 842.759 -2.72187 2.12151 0
M  V30 8733 C 841.872 -2.66816 3.39755 0
M  V30 8734 C 841.007 -3.94747 3.55455 0
M  V30 8735 C 840.046 -3.838 4.76827 0
M  V30 8736 N 839.183 -5.03521 4.89296 0
M  V30 8737 H 844.023 -1.08796 2.7743 0
M  V30 8738 H 841.56 -0.526069 1.37371 0
M  V30 8739 H 843.518 -3.51225 2.25159 0
M  V30 8740 H 842.148 -2.97934 1.24237 0
M  V30 8741 H 841.2 -1.79605 3.3533 0
M  V30 8742 H 842.512 -2.5462 4.28917 0
M  V30 8743 H 841.666 -4.82223 3.68166 0
M  V30 8744 H 840.405 -4.09785 2.64438 0
M  V30 8745 H 839.41 -2.94708 4.64141 0
M  V30 8746 H 840.635 -3.70301 5.69258 0
M  V30 8747 H 838.581 -5.1901 4.01204 0
M  V30 8748 H 838.498 -4.93775 5.72471 0
M  V30 8749 H 839.766 -5.92629 5.06371 0
M  V30 8750 N 843.995 -1.47404 -0.557645 0
M  V30 8751 C 845.241 -1.54235 -1.31679 0
M  V30 8752 C 845.574 -0.203782 -1.93128 0
M  V30 8753 O 844.849 0.787536 -1.77843 0
M  V30 8754 C 845.132 -2.66003 -2.42723 0
M  V30 8755 C 844.985 -4.09475 -1.86145 0
M  V30 8756 C 846.304 -2.73685 -3.44652 0
M  V30 8757 H 843.423 -0.561466 -0.477415 0
M  V30 8758 H 846.065 -1.79459 -0.624067 0
M  V30 8759 H 844.215 -2.44627 -3.01811 0
M  V30 8760 H 845.887 -4.42213 -1.31321 0
M  V30 8761 H 844.13 -4.17774 -1.16823 0
M  V30 8762 H 844.801 -4.83451 -2.66418 0
M  V30 8763 H 847.277 -2.92968 -2.95481 0
M  V30 8764 H 846.153 -3.53665 -4.19777 0
M  V30 8765 H 846.414 -1.80726 -4.03473 0
M  V30 8766 N 845.473 0.80434 -1.35529 0
M  V30 8767 C 846.436 1.89788 -1.28503 0
M  V30 8768 C 847.436 1.59601 -0.195983 0
M  V30 8769 O 848.626 1.68292 -0.449827 0
M  V30 8770 C 845.758 3.26255 -0.98847 0
M  V30 8771 H 846.951 1.97436 -2.25741 0
M  V30 8772 H 844.504 1.00046 -1.20086 0
M  V30 8773 H 845.239 3.24294 -0.0200541 0
M  V30 8774 H 845.024 3.49551 -1.77641 0
M  V30 8775 H 846.514 4.06298 -0.964975 0
M  V30 8776 N 846.951 1.19563 1.02676 0
M  V30 8777 C 848.179 1.02488 1.79732 0
M  V30 8778 C 848.594 -0.426302 1.83924 0
M  V30 8779 O 847.951 -1.29609 1.28483 0
M  V30 8780 C 848.002 1.58944 3.24683 0
M  V30 8781 O 847.723 2.98382 3.2078 0
M  V30 8782 C 849.224 1.46681 4.1833 0
M  V30 8783 H 846.444 0.361098 0.565552 0
M  V30 8784 H 848.988 1.58426 1.29311 0
M  V30 8785 H 847.143 1.0715 3.72287 0
M  V30 8786 H 847.557 3.24983 4.11687 0
M  V30 8787 H 849.031 1.90959 5.17918 0
M  V30 8788 H 849.508 0.417663 4.3721 0
M  V30 8789 H 850.114 1.97616 3.76601 0
M  V30 8790 N 848.429 -1.21819 0.999893 0
M  V30 8791 C 849.678 -1.90066 0.675108 0
M  V30 8792 C 849.991 -1.78624 -0.79705 0
M  V30 8793 O 851.197 -2.41851 -1.23371 0
M  V30 8794 C 849.653 -3.40795 1.15702 0
M  V30 8795 C 849.261 -3.60859 2.6549 0
M  V30 8796 C 851.005 -4.147 0.906889 0
M  V30 8797 C 848.912 -5.05324 3.07248 0
M  V30 8798 H 847.842 -0.711763 0.248815 0
M  V30 8799 H 850.493 -1.3792 1.21038 0
M  V30 8800 H 848.875 -3.92164 0.549832 0
M  V30 8801 H 850.049 -3.19951 3.31614 0
M  V30 8802 H 848.364 -3.00298 2.88461 0
M  V30 8803 H 850.961 -5.21187 1.1945 0
M  V30 8804 H 851.304 -4.16004 -0.156923 0
M  V30 8805 H 851.837 -3.69379 1.47662 0
M  V30 8806 H 848.576 -5.09164 4.12834 0
M  V30 8807 H 848.096 -5.47108 2.45832 0
M  V30 8808 H 849.775 -5.73797 2.98941 0
M  V30 8809 N 849.908 -0.773975 -1.37286 0
M  V30 8810 C 851.319 -0.404433 -1.82267 0
M  V30 8811 C 851.67 1.06971 -1.64474 0
M  V30 8812 O 850.795 1.82867 -1.15708 0
M  V30 8813 C 851.39 -0.727298 -3.30902 0
M  V30 8814 C 849.949 -0.410784 -3.74152 0
M  V30 8815 C 849.096 -0.969983 -2.59782 0
M  V30 8816 H 852.047 -0.968437 -1.25726 0
M  V30 8817 H 852.068 -0.0127575 -3.80498 0
M  V30 8818 H 851.58 -1.80026 -3.4382 0
M  V30 8819 H 849.681 0.65477 -3.66802 0
M  V30 8820 H 849.794 -0.920592 -4.70172 0
M  V30 8821 H 848.158 -0.394094 -2.51633 0
M  V30 8822 H 848.941 -2.04839 -2.75492 0
M  V30 8823 N 851.386 1.48609 -0.524698 0
M  V30 8824 C 852.616 2.06599 0.00741868 0
M  V30 8825 C 853.024 1.3823 1.29186 0
M  V30 8826 O 852.367 0.461962 1.77797 0
M  V30 8827 C 852.429 3.58184 0.307324 0
M  V30 8828 C 852.093 4.48391 -0.882864 0
M  V30 8829 C 853.09 4.88485 -1.77984 0
M  V30 8830 C 850.775 4.90367 -1.08837 0
M  V30 8831 C 852.769 5.69319 -2.86627 0
M  V30 8832 C 850.456 5.70972 -2.17794 0
M  V30 8833 C 851.454 6.10355 -3.06523 0
M  V30 8834 O 851.142 6.89343 -4.13596 0
M  V30 8835 H 850.874 0.675421 -0.0279846 0
M  V30 8836 H 853.428 1.92058 -0.7282 0
M  V30 8837 H 851.658 3.70818 1.09685 0
M  V30 8838 H 853.347 3.98318 0.780886 0
M  V30 8839 H 854.113 4.56682 -1.63299 0
M  V30 8840 H 849.992 4.592 -0.407035 0
M  V30 8841 H 853.536 5.99978 -3.55911 0
M  V30 8842 H 849.433 6.02188 -2.32465 0
M  V30 8843 H 850.201 7.07689 -4.1124 0
M  V30 8844 N 852.864 0.259585 1.55447 0
M  V30 8845 C 853.811 -0.634578 2.21905 0
M  V30 8846 C 854.781 -1.16168 1.18719 0
M  V30 8847 O 855.966 -1.21383 1.4721 0
M  V30 8848 C 853.106 -1.82005 2.93203 0
M  V30 8849 C 852.219 -1.32828 4.11073 0
M  V30 8850 C 851.354 -2.47431 4.70055 0
M  V30 8851 C 850.393 -1.95179 5.80148 0
M  V30 8852 N 849.53 -3.03197 6.33258 0
M  V30 8853 H 854.37 -0.0611886 2.97937 0
M  V30 8854 H 851.907 -0.0184378 1.47088 0
M  V30 8855 H 853.865 -2.51664 3.32748 0
M  V30 8856 H 852.495 -2.36571 2.19622 0
M  V30 8857 H 851.547 -0.525301 3.76756 0
M  V30 8858 H 852.859 -0.905435 4.90513 0
M  V30 8859 H 852.013 -3.25111 5.12238 0
M  V30 8860 H 850.752 -2.93023 3.89857 0
M  V30 8861 H 849.757 -1.15974 5.37429 0
M  V30 8862 H 850.982 -1.50541 6.62204 0
M  V30 8863 H 848.928 -3.48199 5.55961 0
M  V30 8864 H 848.845 -2.65282 7.07928 0
M  V30 8865 H 850.113 -3.80898 6.80101 0
M  V30 8866 N 854.342 -1.57594 -0.0133615 0
M  V30 8867 C 855.588 -1.90262 -0.702019 0
M  V30 8868 C 855.921 -0.859219 -1.74158 0
M  V30 8869 O 855.196 0.123778 -1.94106 0
M  V30 8870 C 855.479 -3.3354 -1.35732 0
M  V30 8871 C 855.332 -4.48586 -0.330208 0
M  V30 8872 C 856.651 -3.76004 -2.28712 0
M  V30 8873 H 853.77 -0.691943 -0.253739 0
M  V30 8874 H 856.412 -1.89967 0.0351894 0
M  V30 8875 H 854.562 -3.33921 -1.98567 0
M  V30 8876 H 856.234 -4.6034 0.297433 0
M  V30 8877 H 854.477 -4.32394 0.348926 0
M  V30 8878 H 855.148 -5.45762 -0.827508 0
M  V30 8879 H 857.624 -3.77089 -1.75906 0
M  V30 8880 H 856.5 -4.77032 -2.71535 0
M  V30 8881 H 856.761 -3.09129 -3.16056 0
M  V30 8882 N 855.82 0.285905 -1.54985 0
M  V30 8883 C 857.06 1.02699 -1.76726 0
M  V30 8884 C 857.424 1.83962 -0.549717 0
M  V30 8885 O 858.625 2.60943 -0.645142 0
M  V30 8886 C 856.896 1.89671 -3.02919 0
M  V30 8887 S 858.455 2.7022 -3.45726 0
M  V30 8888 H 855.273 0.346114 -0.621068 0
M  V30 8889 H 857.875 0.298764 -1.93204 0
M  V30 8890 H 856.579 1.28873 -3.89641 0
M  V30 8891 H 856.11 2.66836 -2.89071 0
M  V30 8892 H 858.125 3.92184 -3.03983 0
M  V30 8893 N 857.298 1.47698 0.54982 0
M  V30 8894 C 858.246 1.61156 1.67724 0
M  V30 8895 C 859.24 0.478606 1.62498 0
M  V30 8896 O 860.446 0.656661 1.67595 0
M  V30 8897 H 856.821 0.507304 0.55511 0
M  V30 8898 H 858.792 2.55884 1.53512 0
M  V30 8899 C 857.541 1.64994 3.06059 0
M  V30 8900 H 856.864 2.51525 3.10765 0
M  V30 8901 H 858.304 1.78459 3.84615 0
M  V30 8902 C 856.763 0.384677 3.34697 0
M  V30 8903 O 857.293 -0.511057 3.98436 0
M  V30 8904 N 855.499 0.262434 2.89413 0
M  V30 8905 H 855.046 0.99229 2.37721 0
M  V30 8906 H 855.004 -0.583177 3.08944 0
M  V30 8907 N 858.776 -0.797141 1.35954 0
M  V30 8908 C 860.001 -1.59097 1.33053 0
M  V30 8909 C 860.426 -1.87897 -0.0874592 0
M  V30 8910 O 859.784 -1.47291 -1.05712 0
M  V30 8911 C 859.832 -2.89346 2.152 0
M  V30 8912 O 858.936 -3.826 1.5392 0
M  V30 8913 H 858.277 -0.482895 0.45575 0
M  V30 8914 H 860.807 -0.988633 1.79129 0
M  V30 8915 H 860.817 -3.38686 2.27499 0
M  V30 8916 H 859.492 -2.6771 3.18283 0
M  V30 8917 H 858.069 -3.41174 1.50516 0
M  V30 8918 N 860.254 -1.20106 -1.0204 0
M  V30 8919 C 861.5 -1.01039 -1.75838 0
M  V30 8920 C 861.833 0.456819 -1.88751 0
M  V30 8921 O 861.108 1.33919 -1.41053 0
M  V30 8922 C 861.391 -1.69009 -3.17975 0
M  V30 8923 C 861.244 -3.2315 -3.1288 0
M  V30 8924 C 862.563 -1.42005 -4.16561 0
M  V30 8925 H 859.682 -0.368465 -0.638281 0
M  V30 8926 H 862.324 -1.48066 -1.19064 0
M  V30 8927 H 860.474 -1.29026 -3.66449 0
M  V30 8928 H 862.146 -3.72402 -2.72239 0
M  V30 8929 H 860.389 -3.54253 -2.50374 0
M  V30 8930 H 861.06 -3.65862 -4.13339 0
M  V30 8931 H 863.536 -1.76685 -3.76725 0
M  V30 8932 H 862.412 -1.92101 -5.14187 0
M  V30 8933 H 862.673 -0.346884 -4.40737 0
M  V30 8934 N 861.732 1.21287 -1.00634 0
M  V30 8935 C 862.679 2.23705 -0.567876 0
M  V30 8936 C 863.649 1.61043 0.406753 0
M  V30 8937 O 864.834 1.88289 0.308499 0
M  V30 8938 C 861.974 3.44961 0.097996 0
M  V30 8939 C 861.087 4.22091 -0.919972 0
M  V30 8940 C 860.222 5.30718 -0.226222 0
M  V30 8941 C 859.261 5.99581 -1.23165 0
M  V30 8942 N 858.398 6.99821 -0.565278 0
M  V30 8943 H 863.238 2.60571 -1.44592 0
M  V30 8944 H 860.775 1.28049 -0.724006 0
M  V30 8945 H 862.733 4.1418 0.501097 0
M  V30 8946 H 861.363 3.08818 0.939744 0
M  V30 8947 H 860.415 3.52038 -1.44131 0
M  V30 8948 H 861.727 4.69476 -1.68505 0
M  V30 8949 H 860.881 6.06253 0.232917 0
M  V30 8950 H 859.62 4.84343 0.571247 0
M  V30 8951 H 858.625 5.22816 -1.70128 0
M  V30 8952 H 859.85 6.48042 -2.03022 0
M  V30 8953 H 857.796 6.55656 0.212508 0
M  V30 8954 H 857.713 7.4528 -1.26858 0
M  V30 8955 H 858.981 7.79393 -0.129389 0
M  V30 8956 N 863.21 0.781244 1.36873 0
M  V30 8957 C 864.487 0.274217 1.93668 0
M  V30 8958 C 864.867 -1.2323 1.71399 0
M  V30 8959 O 864.215 -2.01993 1.06822 0
M  V30 8960 C 864.425 0.657939 3.42742 0
M  V30 8961 C 865.773 0.63307 4.19854 0
M  V30 8962 O 866.797 0.597909 3.51146 0
M  V30 8963 O 865.656 0.668636 5.42394 0
M  V30 8964 H 862.75 0.0658059 0.824378 0
M  V30 8965 H 865.296 0.863238 1.46104 0
M  V30 8966 H 864.068 1.69728 3.52573 0
M  V30 8967 H 863.691 0.0423678 3.97577 0
M  V30 8968 N 864.689 -1.48329 0.532571 0
M  V30 8969 C 865.917 -2.069 0.00354299 0
M  V30 8970 C 866.332 -1.38876 -1.27902 0
M  V30 8971 O 865.689 -0.477119 -1.76153 0
M  V30 8972 C 865.74 -3.60821 -0.221416 0
M  V30 8973 O 865.461 -4.26291 1.01034 0
M  V30 8974 C 866.962 -4.36194 -0.790531 0
M  V30 8975 H 864.182 -0.670103 0.0346836 0
M  V30 8976 H 866.726 -1.90682 0.738955 0
M  V30 8977 H 864.881 -3.76636 -0.906884 0
M  V30 8978 H 865.295 -5.18475 0.792683 0
M  V30 8979 H 866.769 -5.44657 -0.897347 0
M  V30 8980 H 867.246 -4.00798 -1.79605 0
M  V30 8981 H 867.852 -4.25064 -0.141546 0
M  V30 8982 N 866.167 -0.267825 -1.55308 0
M  V30 8983 C 867.097 0.616585 -2.25212 0
M  V30 8984 C 868.078 1.16472 -1.23969 0
M  V30 8985 O 869.263 1.20021 -1.52672 0
M  V30 8986 C 866.393 1.80412 -2.96764 0
M  V30 8987 C 865.347 1.38784 -4.04874 0
M  V30 8988 C 864.673 2.65789 -4.63961 0
M  V30 8989 C 865.973 0.543415 -5.19465 0
M  V30 8990 H 867.667 0.0336257 -2.99381 0
M  V30 8991 H 865.213 0.0147328 -1.43992 0
M  V30 8992 H 867.166 2.42866 -3.44375 0
M  V30 8993 H 865.89 2.4128 -2.20118 0
M  V30 8994 H 864.549 0.786541 -3.58063 0
M  V30 8995 H 864.197 3.24899 -3.83992 0
M  V30 8996 H 863.897 2.38651 -5.36954 0
M  V30 8997 H 865.421 3.29104 -5.14318 0
M  V30 8998 H 866.835 1.07277 -5.63174 0
M  V30 8999 H 865.232 0.367219 -5.98975 0
M  V30 9000 H 866.302 -0.439534 -4.82904 0
M  V30 9001 N 867.645 1.57599 0.00500368 0
M  V30 9002 C 868.873 1.94626 0.702016 0
M  V30 9003 C 869.288 0.86953 1.67585 0
M  V30 9004 O 868.645 -0.15199 1.81866 0
M  V30 9005 C 868.696 3.31658 1.43824 0
M  V30 9006 O 868.417 4.35197 0.503467 0
M  V30 9007 C 869.918 3.83114 2.23021 0
M  V30 9008 H 867.138 0.641785 0.195841 0
M  V30 9009 H 869.682 2.04451 -0.0446287 0
M  V30 9010 H 867.837 3.23156 2.13655 0
M  V30 9011 H 868.251 5.1444 1.02235 0
M  V30 9012 H 869.725 4.81438 2.7004 0
M  V30 9013 H 870.202 3.15559 3.05482 0
M  V30 9014 H 870.808 3.94775 1.58216 0
M  V30 9015 N 869.123 -0.277682 1.55134 0
M  V30 9016 C 870.353 -1.02677 1.79279 0
M  V30 9017 C 870.761 -1.80599 0.563962 0
M  V30 9018 O 870.104 -1.77416 -0.476378 0
M  V30 9019 C 870.166 -2.03617 2.96277 0
M  V30 9020 C 869.83 -1.44676 4.33495 0
M  V30 9021 C 870.827 -0.864811 5.12657 0
M  V30 9022 C 868.512 -1.47537 4.80144 0
M  V30 9023 C 870.506 -0.319322 6.366 0
M  V30 9024 C 868.193 -0.926016 6.04043 0
M  V30 9025 C 869.191 -0.348988 6.82108 0
M  V30 9026 O 868.879 0.191964 8.03671 0
M  V30 9027 H 868.611 -0.309232 0.601125 0
M  V30 9028 H 871.165 -0.315308 2.02965 0
M  V30 9029 H 869.395 -2.78509 2.68272 0
M  V30 9030 H 871.084 -2.64616 3.07788 0
M  V30 9031 H 871.85 -0.835438 4.7775 0
M  V30 9032 H 867.729 -1.91389 4.19394 0
M  V30 9033 H 871.273 0.131709 6.97476 0
M  V30 9034 H 867.17 -0.952613 6.38432 0
M  V30 9035 H 867.938 0.0808779 8.1846 0
M  V30 9036 N 870.601 -1.47988 -0.541979 0
M  V30 9037 C 871.831 -1.58804 -1.32155 0
M  V30 9038 C 872.239 -0.242893 -1.87634 0
M  V30 9039 O 871.582 0.776239 -1.66494 0
M  V30 9040 C 871.644 -2.56567 -2.51821 0
M  V30 9041 C 871.308 -4.01915 -2.17517 0
M  V30 9042 C 872.305 -4.89954 -1.73901 0
M  V30 9043 C 869.99 -4.47365 -2.28408 0
M  V30 9044 C 871.984 -6.21467 -1.41625 0
M  V30 9045 C 869.671 -5.78902 -1.95745 0
M  V30 9046 C 870.669 -6.65775 -1.52423 0
M  V30 9047 O 870.357 -7.94866 -1.20183 0
M  V30 9048 H 870.089 -0.538536 -0.408601 0
M  V30 9049 H 872.643 -1.94446 -0.661818 0
M  V30 9050 H 870.873 -2.16023 -3.20735 0
M  V30 9051 H 872.562 -2.57347 -3.13891 0
M  V30 9052 H 873.328 -4.56082 -1.64966 0
M  V30 9053 H 869.207 -3.79942 -2.61084 0
M  V30 9054 H 872.751 -6.8923 -1.07738 0
M  V30 9055 H 868.648 -6.12311 -2.04316 0
M  V30 9056 H 869.416 -8.07509 -1.33683 0
M  V30 9057 N 872.079 0.78992 -1.36375 0
M  V30 9058 C 873.042 1.88414 -1.30509 0
M  V30 9059 C 874.042 1.59384 -0.2129 0
M  V30 9060 O 875.232 1.67805 -0.467651 0
M  V30 9061 C 872.364 3.25188 -1.02302 0
M  V30 9062 H 873.557 1.95031 -2.27822 0
M  V30 9063 H 871.11 0.987664 -1.2114 0
M  V30 9064 H 871.845 3.24254 -0.0544486 0
M  V30 9065 H 871.63 3.47647 -1.81338 0
M  V30 9066 H 873.12 4.05252 -1.00801 0
M  V30 9067 N 873.557 1.20646 1.01402 0
M  V30 9068 C 874.507 0.925209 2.08384 0
M  V30 9069 C 875.491 -0.115994 1.60481 0
M  V30 9070 O 876.683 0.0917276 1.76762 0
M  V30 9071 C 873.812 0.48193 3.399 0
M  V30 9072 C 872.898 1.5567 3.94497 0
M  V30 9073 N 873.289 2.77971 4.2257 0
M  V30 9074 C 871.587 1.42347 4.22674 0
M  V30 9075 C 872.288 3.47317 4.66632 0
M  V30 9076 N 871.264 2.74736 4.69064 0
M  V30 9077 H 875.066 1.85452 2.28002 0
M  V30 9078 H 872.58 1.10084 1.19395 0
M  V30 9079 H 874.577 0.261835 4.16077 0
M  V30 9080 H 873.237 -0.440725 3.21695 0
M  V30 9081 H 874.248 3.14598 4.11398 0
M  V30 9082 H 870.925 0.565417 4.13654 0
M  V30 9083 H 872.315 4.51985 4.97151 0
M  V30 9084 N 875.035 -1.20752 1.01276 0
M  V30 9085 C 876.26 -1.94547 0.718769 0
M  V30 9086 C 876.685 -1.7404 -0.713563 0
M  V30 9087 O 876.043 -1.03221 -1.49047 0
M  V30 9088 C 876.091 -3.44823 1.05497 0
M  V30 9089 O 875.195 -4.12072 0.164516 0
M  V30 9090 H 874.536 -0.607931 0.267051 0
M  V30 9091 H 877.066 -1.53292 1.35509 0
M  V30 9092 H 877.076 -3.95427 1.00507 0
M  V30 9093 H 875.751 -3.59072 2.09858 0
M  V30 9094 H 874.328 -3.71909 0.271615 0
M  V30 9095 N 876.513 -0.788492 -1.36457 0
M  V30 9096 C 877.759 -0.360995 -1.99561 0
M  V30 9097 C 878.092 1.06433 -1.62437 0
M  V30 9098 O 877.367 1.7352 -0.878705 0
M  V30 9099 C 877.65 -0.523735 -3.56271 0
M  V30 9100 C 877.503 -1.99268 -4.03252 0
M  V30 9101 C 878.822 0.0617908 -4.40057 0
M  V30 9102 H 875.941 -0.13264 -0.724966 0
M  V30 9103 H 878.583 -0.994659 -1.61884 0
M  V30 9104 H 876.733 0.0156979 -3.88497 0
M  V30 9105 H 878.405 -2.59311 -3.81518 0
M  V30 9106 H 876.648 -2.49561 -3.54826 0
M  V30 9107 H 877.319 -2.05752 -5.12221 0
M  V30 9108 H 879.795 -0.398674 -4.14186 0
M  V30 9109 H 878.671 -0.0821089 -5.48839 0
M  V30 9110 H 878.932 1.15381 -4.26778 0
M  V30 9111 N 877.991 1.48044 -0.54043 0
M  V30 9112 C 878.921 2.32597 0.205178 0
M  V30 9113 C 879.902 1.42748 0.925041 0
M  V30 9114 O 881.087 1.71624 0.908784 0
M  V30 9115 C 878.217 3.24175 1.24612 0
M  V30 9116 C 877.171 4.23131 0.64376 0
M  V30 9117 C 876.497 5.03915 1.78812 0
M  V30 9118 C 877.797 5.20831 -0.39144 0
M  V30 9119 H 879.491 2.95184 -0.500676 0
M  V30 9120 H 877.037 1.41948 -0.242225 0
M  V30 9121 H 878.99 3.82158 1.77576 0
M  V30 9122 H 877.714 2.59608 1.98169 0
M  V30 9123 H 876.373 3.66349 0.135554 0
M  V30 9124 H 876.021 4.35765 2.51232 0
M  V30 9125 H 875.721 5.709 1.39094 0
M  V30 9126 H 877.245 5.64753 2.32134 0
M  V30 9127 H 878.659 5.73277 0.0515064 0
M  V30 9128 H 877.056 5.95926 -0.706569 0
M  V30 9129 H 878.126 4.6733 -1.29345 0
M  V30 9130 N 879.47 0.276058 1.55163 0
M  V30 9131 C 880.7 -0.343274 2.03728 0
M  V30 9132 C 881.108 -1.49945 1.15383 0
M  V30 9133 O 880.451 -1.82942 0.166696 0
M  V30 9134 C 880.513 -0.885683 3.48419 0
M  V30 9135 C 880.177 0.141976 4.56779 0
M  V30 9136 C 881.174 0.961816 5.10926 0
M  V30 9137 C 878.859 0.276487 5.01538 0
M  V30 9138 C 880.853 1.90234 6.0835 0
M  V30 9139 C 878.54 1.22049 5.98788 0
M  V30 9140 C 879.538 2.03192 6.52075 0
M  V30 9141 O 879.226 2.95996 7.47423 0
M  V30 9142 H 878.958 -0.0822192 0.670981 0
M  V30 9143 H 881.512 0.406199 2.01343 0
M  V30 9144 H 879.742 -1.68524 3.48047 0
M  V30 9145 H 881.431 -1.4182 3.80318 0
M  V30 9146 H 882.197 0.868637 4.77158 0
M  V30 9147 H 878.076 -0.345095 4.59707 0
M  V30 9148 H 881.62 2.5361 6.49867 0
M  V30 9149 H 877.517 1.31448 6.31974 0
M  V30 9150 H 878.285 2.90688 7.65142 0
M  V30 9151 N 880.948 -1.576 0.00335426 0
M  V30 9152 C 882.364 -1.55653 -0.352766 0
M  V30 9153 C 882.564 -1.00632 -1.74572 0
M  V30 9154 O 881.62 -0.641621 -2.44212 0
M  V30 9155 C 882.933 -2.99858 -0.224929 0
M  V30 9156 C 884.481 -3.11563 -0.299619 0
M  V30 9157 C 884.956 -4.57559 -0.200868 0
M  V30 9158 N 886.447 -4.62477 -0.258663 0
M  V30 9159 C 887.182 -5.73031 -0.205644 0
M  V30 9160 N 886.678 -6.92723 -0.103027 0
M  V30 9161 N 888.471 -5.61509 -0.257754 0
M  V30 9162 H 880.622 -1.91703 0.914539 0
M  V30 9163 H 882.885 -0.88068 0.350865 0
M  V30 9164 H 882.591 -3.43964 0.733595 0
M  V30 9165 H 882.465 -3.63547 -1.00564 0
M  V30 9166 H 884.852 -2.67384 -1.24859 0
M  V30 9167 H 884.933 -2.50644 0.511025 0
M  V30 9168 H 884.577 -5.02413 0.744572 0
M  V30 9169 H 884.507 -5.16428 -1.03004 0
M  V30 9170 H 886.998 -3.76375 -0.339168 0
M  V30 9171 H 887.311 -7.7277 -0.0685593 0
M  V30 9172 H 885.656 -6.94966 -0.0686069 0
M  V30 9173 H 888.847 -4.66892 -0.336142 0
M  V30 9174 H 889.02 -6.4765 -0.21297 0
M  V30 9175 N 882.426 0.269451 -1.5528 0
M  V30 9176 C 883.672 1.00206 -1.76314 0
M  V30 9177 C 884.005 1.85812 -0.564581 0
M  V30 9178 O 883.28 1.89509 0.437769 0
M  V30 9179 C 883.563 1.88163 -3.07029 0
M  V30 9180 C 883.416 1.05527 -4.37246 0
M  V30 9181 C 884.735 2.8681 -3.33808 0
M  V30 9182 H 881.854 0.36288 -0.641473 0
M  V30 9183 H 884.496 0.274188 -1.88011 0
M  V30 9184 H 882.646 2.50224 -2.97187 0
M  V30 9185 H 884.318 0.455094 -4.5905 0
M  V30 9186 H 882.561 0.358842 -4.32313 0
M  V30 9187 H 883.232 1.70397 -5.25042 0
M  V30 9188 H 885.708 2.34884 -3.43466 0
M  V30 9189 H 884.584 3.45492 -4.26528 0
M  V30 9190 H 884.845 3.62118 -2.5362 0
M  V30 9191 N 883.904 1.48273 0.534124 0
M  V30 9192 C 885.151 1.56079 1.29017 0
M  V30 9193 C 885.479 0.232912 1.931 0
M  V30 9194 O 884.734 -0.77642 1.79639 0
M  V30 9195 C 885.033 2.64468 2.40398 0
M  V30 9196 C 884.699 4.07034 1.93995 0
M  V30 9197 C 883.361 4.45838 1.81058 0
M  V30 9198 C 885.713 4.96395 1.58877 0
M  V30 9199 C 883.041 5.71812 1.31331 0
M  V30 9200 C 885.393 6.22854 1.10614 0
M  V30 9201 C 884.057 6.60518 0.962895 0
M  V30 9202 H 883.327 0.571135 0.472108 0
M  V30 9203 H 885.974 1.81973 0.5965 0
M  V30 9204 H 884.279 2.32419 3.15418 0
M  V30 9205 H 885.976 2.67725 2.98537 0
M  V30 9206 H 882.566 3.76387 2.05015 0
M  V30 9207 H 886.75 4.67096 1.67734 0
M  V30 9208 H 882.006 5.99722 1.18924 0
M  V30 9209 H 886.18 6.91495 0.825095 0
M  V30 9210 H 883.807 7.58019 0.575369 0
M  V30 9211 N 885.382 -0.782676 1.36792 0
M  V30 9212 C 886.793 -1.35828 1.28092 0
M  V30 9213 C 887.144 -1.96052 -0.076315 0
M  V30 9214 O 886.269 -1.93042 -0.977935 0
M  V30 9215 C 886.864 -2.46949 2.31952 0
M  V30 9216 C 885.423 -3.00307 2.2692 0
M  V30 9217 C 884.57 -1.73436 2.16368 0
M  V30 9218 H 887.521 -0.583788 1.47572 0
M  V30 9219 H 887.542 -3.26144 1.95986 0
M  V30 9220 H 887.054 -2.03087 3.30722 0
M  V30 9221 H 885.155 -3.48571 1.31639 0
M  V30 9222 H 885.268 -3.56663 3.19887 0
M  V30 9223 H 883.632 -1.95934 1.62733 0
M  V30 9224 H 884.415 -1.31693 3.17036 0
M  V30 9225 N 886.86 -1.21182 -1.00761 0
M  V30 9226 C 888.09 -1.05182 -1.77821 0
M  V30 9227 C 888.498 0.401527 -1.8489 0
M  V30 9228 O 887.841 1.29042 -1.30743 0
M  V30 9229 C 887.903 -1.57066 -3.23374 0
M  V30 9230 C 887.567 -3.05491 -3.39889 0
M  V30 9231 C 888.564 -4.03065 -3.28381 0
M  V30 9232 C 886.249 -3.44641 -3.65415 0
M  V30 9233 C 888.243 -5.37778 -3.4216 0
M  V30 9234 C 885.93 -4.79507 -3.78836 0
M  V30 9235 C 886.928 -5.75884 -3.67214 0
M  V30 9236 O 886.616 -7.08304 -3.80212 0
M  V30 9237 H 886.348 -0.369983 -0.565763 0
M  V30 9238 H 888.902 -1.60914 -1.27655 0
M  V30 9239 H 887.132 -0.957273 -3.74664 0
M  V30 9240 H 888.821 -1.36949 -3.82099 0
M  V30 9241 H 889.587 -3.74163 -3.08588 0
M  V30 9242 H 885.466 -2.7016 -3.73544 0
M  V30 9243 H 889.01 -6.12987 -3.33005 0
M  V30 9244 H 884.907 -5.08096 -3.98132 0
M  V30 9245 H 885.675 -7.15677 -3.97175 0
M  V30 9246 N 888.338 1.20213 -1.01915 0
M  V30 9247 C 889.615 1.85348 -0.62495 0
M  V30 9248 C 889.995 1.91101 0.896854 0
M  V30 9249 O 889.343 1.42075 1.78961 0
M  V30 9250 C 889.553 3.24849 -1.27571 0
M  V30 9251 C 890.901 4.01107 -1.39277 0
M  V30 9252 O 891.925 3.34211 -1.23212 0
M  V30 9253 O 890.784 5.20914 -1.6526 0
M  V30 9254 H 887.878 0.798303 -0.215965 0
M  V30 9255 H 890.424 1.27782 -1.11669 0
M  V30 9256 H 889.196 3.1544 -2.31545 0
M  V30 9257 H 888.819 3.90049 -0.77122 0
M  V30 9258 N 889.816 0.795718 1.36037 0
M  V30 9259 C 890.749 0.144269 2.27744 0
M  V30 9260 C 891.727 -0.683351 1.47543 0
M  V30 9261 O 892.911 -0.652976 1.76829 0
M  V30 9262 C 890.038 -0.800944 3.29094 0
M  V30 9263 C 889.084 -0.0543234 4.26465 0
M  V30 9264 S 889.917 1.27426 5.20118 0
M  V30 9265 C 891.073 0.333213 6.25012 0
M  V30 9266 H 891.306 0.921827 2.82648 0
M  V30 9267 H 888.839 0.590241 1.42673 0
M  V30 9268 H 890.797 -1.34082 3.87985 0
M  V30 9269 H 889.458 -1.5518 2.7309 0
M  V30 9270 H 888.651 -0.771788 4.98056 0
M  V30 9271 H 888.253 0.415264 3.71687 0
M  V30 9272 H 890.545 -0.485604 6.75757 0
M  V30 9273 H 891.488 1.01798 7.00744 0
M  V30 9274 H 891.896 -0.066256 5.64461 0
M  V30 9275 N 891.294 -1.47756 0.548274 0
M  V30 9276 C 892.571 -1.9555 -0.0443603 0
M  V30 9277 C 892.951 -1.49079 -1.49462 0
M  V30 9278 O 892.299 -0.725538 -2.16675 0
M  V30 9279 C 892.509 -3.48879 0.0918425 0
M  V30 9280 C 893.857 -4.2456 -0.0580879 0
M  V30 9281 O 894.881 -3.56195 0.018946 0
M  V30 9282 O 893.74 -5.46048 -0.222261 0
M  V30 9283 H 890.834 -0.824106 -0.0691235 0
M  V30 9284 H 893.38 -1.58196 0.614166 0
M  V30 9285 H 892.152 -3.7548 1.10137 0
M  V30 9286 H 891.775 -3.92975 -0.604704 0
M  V30 9287 N 892.772 -0.284283 -1.55015 0
M  V30 9288 C 893.997 0.335799 -2.04664 0
M  V30 9289 C 894.422 1.47999 -1.16094 0
M  V30 9290 O 893.78 1.8058 -0.161454 0
M  V30 9291 C 893.828 0.785615 -3.51938 0
M  V30 9292 O 892.932 1.89202 -3.66437 0
M  V30 9293 H 892.273 0.0680233 -0.660506 0
M  V30 9294 H 894.803 -0.421255 -2.00216 0
M  V30 9295 H 894.813 1.07892 -3.93476 0
M  V30 9296 H 893.488 -0.0514675 -4.15868 0
M  V30 9297 H 892.065 1.60055 -3.36804 0
M  V30 9298 N 894.251 1.57596 -0.0117121 0
M  V30 9299 C 895.499 1.90694 0.669342 0
M  V30 9300 C 895.82 0.886999 1.73659 0
M  V30 9301 O 895.09 -0.0739779 1.9576 0
M  V30 9302 H 893.67 0.703846 0.250219 0
M  V30 9303 H 896.332 1.94821 -0.0554057 0
M  V30 9304 H 895.428 2.90802 1.13316 0
M  V30 9305 N 895.729 -0.261212 1.5542 0
M  V30 9306 C 896.975 -0.992699 1.76843 0
M  V30 9307 C 897.308 -1.8551 0.574428 0
M  V30 9308 O 896.583 -1.89739 -0.427713 0
M  V30 9309 C 896.866 -1.86532 3.08022 0
M  V30 9310 C 896.719 -1.03206 4.378 0
M  V30 9311 C 898.038 -2.85036 3.35324 0
M  V30 9312 H 895.157 -0.359473 0.643388 0
M  V30 9313 H 897.799 -0.264214 1.88154 0
M  V30 9314 H 895.949 -2.48644 2.9851 0
M  V30 9315 H 897.621 -0.430743 4.59285 0
M  V30 9316 H 895.864 -0.335911 4.32497 0
M  V30 9317 H 896.535 -1.6761 5.25938 0
M  V30 9318 H 899.011 -2.3306 3.44706 0
M  V30 9319 H 897.887 -3.43226 4.28354 0
M  V30 9320 H 898.148 -3.60768 2.55537 0
M  V30 9321 N 897.207 -1.48554 -0.526253 0
M  V30 9322 C 898.432 -1.60686 -1.31129 0
M  V30 9323 C 898.857 -0.268701 -1.86171 0
M  V30 9324 O 898.215 0.760167 -1.64594 0
M  V30 9325 C 898.263 -2.65938 -2.43536 0
M  V30 9326 O 897.367 -2.23356 -3.46678 0
M  V30 9327 H 896.708 -0.538691 -0.388211 0
M  V30 9328 H 899.238 -1.94567 -0.632826 0
M  V30 9329 H 899.248 -2.87327 -2.89668 0
M  V30 9330 H 897.923 -3.63085 -2.02835 0
M  V30 9331 H 896.5 -2.12196 -3.06639 0
M  V30 9332 N 898.685 0.775411 -1.37205 0
M  V30 9333 C 899.91 1.5696 -1.35567 0
M  V30 9334 C 900.335 1.88012 0.0575554 0
M  V30 9335 O 899.693 1.48954 1.03355 0
M  V30 9336 C 899.741 2.85886 -2.19776 0
M  V30 9337 O 898.845 3.80103 -1.59987 0
M  V30 9338 H 898.186 0.475583 -0.463375 0
M  V30 9339 H 900.716 0.96001 -1.80679 0
M  V30 9340 H 900.726 3.35024 -2.32859 0
M  V30 9341 H 899.401 2.62613 -3.22502 0
M  V30 9342 H 897.978 3.38736 -1.55924 0
M  V30 9343 N 900.163 1.21714 1.00117 0
M  V30 9344 C 901.41 1.0367 1.73951 0
M  V30 9345 C 901.738 -0.429289 1.89703 0
M  V30 9346 O 900.993 -1.33475 1.43119 0
M  V30 9347 C 901.292 1.68345 3.15269 0
M  V30 9348 C 900.958 3.18214 3.19454 0
M  V30 9349 C 899.62 3.59109 3.20303 0
M  V30 9350 C 901.972 4.14179 3.16394 0
M  V30 9351 C 899.3 4.94467 3.15783 0
M  V30 9352 C 901.652 5.49502 3.13416 0
M  V30 9353 C 900.316 5.8979 3.12577 0
M  V30 9354 H 899.586 0.379355 0.63653 0
M  V30 9355 H 902.233 1.51361 1.17312 0
M  V30 9356 H 900.538 1.12957 3.75164 0
M  V30 9357 H 902.235 1.51882 3.71124 0
M  V30 9358 H 898.825 2.85646 3.19538 0
M  V30 9359 H 903.009 3.83607 3.14895 0
M  V30 9360 H 898.265 5.24923 3.13473 0
M  V30 9361 H 902.439 6.23595 3.10003 0
M  V30 9362 H 900.066 6.94643 3.08829 0
M  V30 9363 N 901.641 -1.19671 1.02551 0
M  V30 9364 C 902.866 -1.93774 0.739363 0
M  V30 9365 C 903.291 -1.74787 -0.695064 0
M  V30 9366 O 902.649 -1.04796 -1.47944 0
M  V30 9367 C 902.697 -3.43684 1.09149 0
M  V30 9368 O 901.801 -4.11874 0.208213 0
M  V30 9369 H 901.142 -0.605064 0.273484 0
M  V30 9370 H 903.672 -1.51846 1.37128 0
M  V30 9371 H 903.682 -3.94339 1.04695 0
M  V30 9372 H 902.357 -3.56826 2.13654 0
M  V30 9373 H 900.934 -3.716 0.311045 0
M  V30 9374 N 903.119 -0.802921 -1.35613 0
M  V30 9375 C 904.029 -0.212177 -2.33639 0
M  V30 9376 C 905.045 0.642871 -1.61689 0
M  V30 9377 O 906.221 0.555485 -1.93588 0
M  V30 9378 C 903.286 0.632406 -3.40883 0
M  V30 9379 C 902.347 -0.242708 -4.28613 0
M  V30 9380 C 901.58 0.56166 -5.30736 0
M  V30 9381 O 901.803 1.79664 -5.41366 0
M  V30 9382 O 900.737 -0.0455387 -6.01883 0
M  V30 9383 H 904.563 -1.023 -2.85952 0
M  V30 9384 H 902.148 -0.564636 -1.38319 0
M  V30 9385 H 904.03 1.11358 -4.0642 0
M  V30 9386 H 902.705 1.42089 -2.90848 0
M  V30 9387 H 901.612 -0.77094 -3.6607 0
M  V30 9388 H 902.945 -0.995046 -4.82037 0
M  V30 9389 N 904.597 1.47463 -0.556102 0
M  V30 9390 C 905.527 2.32801 0.180497 0
M  V30 9391 C 906.508 1.43721 0.909848 0
M  V30 9392 O 907.693 1.72578 0.89053 0
M  V30 9393 C 904.823 3.25478 1.21167 0
M  V30 9394 C 903.777 4.2379 0.598846 0
M  V30 9395 C 903.103 5.05783 1.73457 0
M  V30 9396 C 904.403 5.20387 -0.446659 0
M  V30 9397 H 906.097 2.94636 -0.531956 0
M  V30 9398 H 903.643 1.41683 -0.257267 0
M  V30 9399 H 905.596 3.8402 1.73513 0
M  V30 9400 H 904.32 2.61695 1.95405 0
M  V30 9401 H 902.979 3.66472 0.0966897 0
M  V30 9402 H 902.627 4.38405 2.46596 0
M  V30 9403 H 902.327 5.72343 1.33031 0
M  V30 9404 H 903.851 5.67183 2.26131 0
M  V30 9405 H 905.265 5.73299 -0.00930019 0
M  V30 9406 H 903.662 5.95143 -0.769735 0
M  V30 9407 H 904.732 4.65932 -1.34295 0
M  V30 9408 N 906.075 0.2925 1.54862 0
M  V30 9409 C 907.005 -0.580677 2.26165 0
M  V30 9410 C 907.986 -1.14485 1.25806 0
M  V30 9411 O 909.171 -1.17577 1.54562 0
M  V30 9412 C 906.301 -1.75668 2.99596 0
M  V30 9413 C 905.255 -1.32325 4.07031 0
M  V30 9414 C 904.581 -2.58374 4.68131 0
M  V30 9415 C 905.881 -0.460703 5.20264 0
M  V30 9416 H 907.575 0.0140075 2.99397 0
M  V30 9417 H 905.121 0.00817706 1.43998 0
M  V30 9418 H 907.074 -2.37356 3.48195 0
M  V30 9419 H 905.798 -2.37747 2.23928 0
M  V30 9420 H 904.457 -0.729477 3.59269 0
M  V30 9421 H 904.105 -3.18749 3.89112 0
M  V30 9422 H 903.805 -2.30078 5.40683 0
M  V30 9423 H 905.329 -3.2088 5.19489 0
M  V30 9424 H 906.743 -0.983037 5.64809 0
M  V30 9425 H 905.14 -0.271881 5.99484 0
M  V30 9426 H 906.21 0.516304 4.82143 0
M  V30 9427 N 907.553 -1.57587 0.0200696 0
M  V30 9428 C 908.8 -1.91424 -0.660525 0
M  V30 9429 C 909.128 -0.895626 -1.72652 0
M  V30 9430 O 908.383 0.096771 -1.95461 0
M  V30 9431 C 908.682 -3.32002 -1.32323 0
M  V30 9432 C 908.348 -4.49223 -0.388487 0
M  V30 9433 C 907.01 -4.81021 -0.131184 0
M  V30 9434 C 909.362 -5.20581 0.253906 0
M  V30 9435 C 906.69 -5.81539 0.776471 0
M  V30 9436 C 909.042 -6.22067 1.14956 0
M  V30 9437 C 907.706 -6.52311 1.41584 0
M  V30 9438 H 906.976 -0.700472 -0.241703 0
M  V30 9439 H 909.623 -1.91333 0.0798991 0
M  V30 9440 H 907.928 -3.28312 -2.13819 0
M  V30 9441 H 909.625 -3.5545 -1.85623 0
M  V30 9442 H 906.215 -4.24391 -0.599207 0
M  V30 9443 H 910.399 -4.96253 0.068164 0
M  V30 9444 H 905.655 -6.03322 0.990575 0
M  V30 9445 H 909.829 -6.76484 1.65357 0
M  V30 9446 H 907.456 -7.30017 2.12083 0
M  V30 9447 N 909.032 0.252966 -1.55557 0
M  V30 9448 C 910.309 1.00432 -1.67847 0
M  V30 9449 C 910.689 2.03587 -0.55816 0
M  V30 9450 O 910.037 2.24239 0.439197 0
M  V30 9451 C 910.247 1.64313 -3.079 0
M  V30 9452 C 911.595 2.14726 -3.66303 0
M  V30 9453 O 912.619 1.74264 -3.10661 0
M  V30 9454 O 911.478 2.89 -4.63833 0
M  V30 9455 H 908.572 0.467102 -0.682455 0
M  V30 9456 H 911.118 0.247233 -1.67889 0
M  V30 9457 H 909.89 0.896681 -3.80888 0
M  V30 9458 H 909.513 2.46657 -3.11843 0
M  V30 9459 N 910.51 1.48831 0.518367 0
M  V30 9460 C 911.75 1.59045 1.28391 0
M  V30 9461 C 912.114 0.263443 1.90184 0
M  V30 9462 O 913.315 0.24064 2.67721 0
M  V30 9463 C 911.586 2.70536 2.33548 0
M  V30 9464 S 913.145 3.00591 3.19673 0
M  V30 9465 H 909.963 0.561182 0.436573 0
M  V30 9466 H 912.565 1.86409 0.589222 0
M  V30 9467 H 911.269 3.65499 1.86652 0
M  V30 9468 H 910.8 2.4511 3.07708 0
M  V30 9469 H 912.815 2.40779 4.33866 0
M  V30 9470 N 911.988 -0.768124 1.37614 0
M  V30 9471 C 913.234 -1.52907 1.33219 0
M  V30 9472 C 913.567 -1.94026 -0.0821218 0
M  V30 9473 O 912.842 -1.64345 -1.04023 0
M  V30 9474 C 913.125 -2.79164 2.27463 0
M  V30 9475 C 912.978 -2.44276 3.7769 0
M  V30 9476 C 914.297 -3.81115 2.20089 0
M  V30 9477 H 911.416 -0.554712 0.485246 0
M  V30 9478 H 914.058 -0.880911 1.68345 0
M  V30 9479 H 912.208 -3.34472 1.97639 0
M  V30 9480 H 913.88 -1.94855 4.18126 0
M  V30 9481 H 912.123 -1.76925 3.96081 0
M  V30 9482 H 912.794 -3.34544 4.39072 0
M  V30 9483 H 915.27 -3.35311 2.46386 0
M  V30 9484 H 914.146 -4.67174 2.88166 0
M  V30 9485 H 914.407 -4.25644 1.19498 0
M  V30 9486 N 913.466 -1.22244 -0.994698 0
M  V30 9487 C 914.743 -0.954459 -1.70732 0
M  V30 9488 C 915.123 0.530945 -2.04314 0
M  V30 9489 O 914.471 1.49851 -1.72502 0
M  V30 9490 C 914.681 -1.85016 -2.95922 0
M  V30 9491 C 916.029 -2.10517 -3.68738 0
M  V30 9492 O 917.053 -1.82449 -3.05926 0
M  V30 9493 O 915.912 -2.58044 -4.81742 0
M  V30 9494 H 913.006 -0.35879 -0.745116 0
M  V30 9495 H 915.552 -1.33221 -1.0512 0
M  V30 9496 H 914.324 -2.85498 -2.67594 0
M  V30 9497 H 913.947 -1.47388 -3.69273 0
M  V30 9498 N 914.944 1.19125 -1.03184 0
M  V30 9499 C 915.874 2.24675 -0.635889 0
M  V30 9500 C 916.855 1.66321 0.356565 0
M  V30 9501 O 918.04 1.92728 0.238625 0
M  V30 9502 C 915.17 3.47298 0.011069 0
M  V30 9503 C 914.124 4.18345 -0.903979 0
M  V30 9504 C 913.45 5.34561 -0.12197 0
M  V30 9505 C 914.75 4.72816 -2.21907 0
M  V30 9506 H 916.444 2.5805 -1.51825 0
M  V30 9507 H 913.99 1.24039 -0.73146 0
M  V30 9508 H 915.943 4.20333 0.299729 0
M  V30 9509 H 914.667 3.13131 0.928245 0
M  V30 9510 H 913.326 3.47196 -1.17688 0
M  V30 9511 H 912.974 4.9664 0.797334 0
M  V30 9512 H 912.674 5.83029 -0.731498 0
M  V30 9513 H 914.198 6.10391 0.159881 0
M  V30 9514 H 915.612 5.3759 -1.99173 0
M  V30 9515 H 914.009 5.31782 -2.78078 0
M  V30 9516 H 915.079 3.9072 -2.87168 0
M  V30 9517 N 916.422 0.810101 1.35185 0
M  V30 9518 C 917.647 0.40364 2.03434 0
M  V30 9519 C 918.072 -0.97857 1.60641 0
M  V30 9520 O 917.43 -1.63435 0.784779 0
M  V30 9521 C 917.478 0.499154 3.57129 0
M  V30 9522 O 916.582 -0.486039 4.09526 0
M  V30 9523 H 915.923 0.168049 0.642383 0
M  V30 9524 H 918.453 1.09696 1.72708 0
M  V30 9525 H 918.463 0.370236 4.06317 0
M  V30 9526 H 917.138 1.50733 3.87624 0
M  V30 9527 H 915.715 -0.31707 3.7155 0
M  V30 9528 N 917.9 -1.47166 0.563914 0
M  V30 9529 C 919.146 -2.02756 0.0424338 0
M  V30 9530 C 919.479 -1.43662 -1.3067 0
M  V30 9531 O 918.754 -0.594676 -1.85186 0
M  V30 9532 C 919.037 -3.60074 -0.0434793 0
M  V30 9533 C 918.89 -4.29587 1.33323 0
M  V30 9534 C 920.209 -4.336 -0.753568 0
M  V30 9535 H 917.328 -0.736806 0.0168946 0
M  V30 9536 H 919.97 -1.75521 0.727496 0
M  V30 9537 H 918.12 -3.83409 -0.626906 0
M  V30 9538 H 919.792 -4.17573 1.96037 0
M  V30 9539 H 918.035 -3.8968 1.9061 0
M  V30 9540 H 918.706 -5.38218 1.22576 0
M  V30 9541 H 921.182 -4.15299 -0.258126 0
M  V30 9542 H 920.058 -5.43291 -0.782659 0
M  V30 9543 H 920.319 -4.03302 -1.81108 0
M  V30 9544 N 919.378 -0.300708 -1.54705 0
M  V30 9545 C 920.341 0.562648 -2.22187 0
M  V30 9546 C 921.341 1.06152 -1.20782 0
M  V30 9547 O 922.531 0.957596 -1.45519 0
M  V30 9548 C 919.663 1.77899 -2.908 0
M  V30 9549 H 920.856 -0.0269361 -2.99888 0
M  V30 9550 H 918.409 -0.0515412 -1.56215 0
M  V30 9551 H 919.144 2.40841 -2.17177 0
M  V30 9552 H 918.929 1.42892 -3.65136 0
M  V30 9553 H 920.419 2.39236 -3.42281 0
M  V30 9554 N 920.856 1.57574 -0.0284266 0
M  V30 9555 C 922.081 1.96479 0.664137 0
M  V30 9556 C 922.506 0.904826 1.64908 0
M  V30 9557 O 921.864 -0.134339 1.80802 0
M  V30 9558 C 921.912 3.34479 1.34745 0
M  V30 9559 O 921.016 3.30794 2.46271 0
M  V30 9560 H 920.357 0.640654 0.174524 0
M  V30 9561 H 922.887 2.04402 -0.0900729 0
M  V30 9562 H 922.897 3.70694 1.7044 0
M  V30 9563 H 921.572 4.1117 0.625468 0
M  V30 9564 H 920.149 3.06294 2.12693 0
M  V30 9565 N 922.334 -0.244713 1.55689 0
M  V30 9566 C 923.562 -0.989944 1.8168 0
M  V30 9567 C 923.977 -1.78863 0.604449 0
M  V30 9568 O 923.334 -1.77437 -0.426907 0
M  V30 9569 C 923.385 -1.92607 3.05916 0
M  V30 9570 O 923.106 -1.1597 4.22472 0
M  V30 9571 C 924.607 -2.78711 3.44724 0
M  V30 9572 H 921.827 -0.2912 0.604519 0
M  V30 9573 H 924.371 -0.266938 2.0275 0
M  V30 9574 H 922.526 -2.60333 2.8689 0
M  V30 9575 H 922.94 -1.79311 4.92898 0
M  V30 9576 H 924.414 -3.40141 4.34751 0
M  V30 9577 H 924.891 -3.49935 2.6541 0
M  V30 9578 H 925.497 -2.16435 3.66109 0
M  V30 9579 N 923.813 -1.49104 -0.510467 0
M  V30 9580 C 925.043 -1.61571 -1.28757 0
M  V30 9581 C 925.451 -0.282638 -1.87077 0
M  V30 9582 O 924.794 0.740749 -1.68103 0
M  V30 9583 C 924.856 -2.61851 -2.46322 0
M  V30 9584 C 924.52 -4.06438 -2.08942 0
M  V30 9585 C 925.517 -4.93532 -1.63469 0
M  V30 9586 C 923.202 -4.52109 -2.18867 0
M  V30 9587 C 925.196 -6.24331 -1.28411 0
M  V30 9588 C 922.883 -5.82924 -1.83421 0
M  V30 9589 C 923.881 -6.68858 -1.38267 0
M  V30 9590 O 923.569 -7.97236 -1.03296 0
M  V30 9591 H 923.301 -0.547082 -0.397086 0
M  V30 9592 H 925.855 -1.95806 -0.620424 0
M  V30 9593 H 924.085 -2.22777 -3.16081 0
M  V30 9594 H 925.774 -2.63947 -3.08362 0
M  V30 9595 H 926.54 -4.59479 -1.55255 0
M  V30 9596 H 922.419 -3.85395 -2.52966 0
M  V30 9597 H 925.963 -6.9136 -0.930946 0
M  V30 9598 H 921.86 -6.16507 -1.91282 0
M  V30 9599 H 922.628 -8.10163 -1.16525 0
M  V30 9600 N 925.291 0.760815 -1.38019 0
M  V30 9601 C 926.538 1.51973 -1.3383 0
M  V30 9602 C 926.866 1.9436 0.0738855 0
M  V30 9603 O 926.121 1.65181 1.04946 0
M  V30 9604 C 926.42 2.79024 -2.23339 0
M  V30 9605 C 926.086 2.55636 -3.71431 0
M  V30 9606 C 924.748 2.48966 -4.11788 0
M  V30 9607 C 927.1 2.35018 -4.65205 0
M  V30 9608 C 924.428 2.19684 -5.44018 0
M  V30 9609 C 926.78 2.07258 -5.97685 0
M  V30 9610 C 925.444 1.9904 -6.37134 0
M  V30 9611 H 924.714 0.556108 -0.489719 0
M  V30 9612 H 927.361 0.87545 -1.70318 0
M  V30 9613 H 925.666 3.48065 -1.79883 0
M  V30 9614 H 927.363 3.36951 -2.17405 0
M  V30 9615 H 923.953 2.61695 -3.39432 0
M  V30 9616 H 928.137 2.39154 -4.34878 0
M  V30 9617 H 923.393 2.11825 -5.73533 0
M  V30 9618 H 927.567 1.90307 -6.69893 0
M  V30 9619 H 925.194 1.76115 -7.39519 0
M  V30 9620 N 926.769 1.22769 0.988202 0
M  V30 9621 C 927.699 1.02627 2.09738 0
M  V30 9622 C 928.68 -0.0543211 1.70013 0
M  V30 9623 O 929.865 0.108811 1.93895 0
M  V30 9624 C 926.995 0.608302 3.41931 0
M  V30 9625 C 925.949 1.63536 3.95525 0
M  V30 9626 C 925.275 1.07308 5.23822 0
M  V30 9627 C 926.575 3.02649 4.25677 0
M  V30 9628 H 928.269 1.954 2.26847 0
M  V30 9629 H 925.815 0.940888 1.09011 0
M  V30 9630 H 927.768 0.454478 4.18942 0
M  V30 9631 H 926.492 -0.355095 3.24664 0
M  V30 9632 H 925.151 1.77704 3.20651 0
M  V30 9633 H 924.799 0.100894 5.02899 0
M  V30 9634 H 924.499 1.75925 5.60646 0
M  V30 9635 H 926.023 0.930938 6.03462 0
M  V30 9636 H 927.437 2.91828 4.93467 0
M  V30 9637 H 925.834 3.68434 4.73684 0
M  V30 9638 H 926.904 3.52228 3.33262 0
M  V30 9639 N 928.247 -1.18576 1.03814 0
M  V30 9640 C 929.493 -1.88773 0.741132 0
M  V30 9641 C 929.826 -1.79993 -0.729127 0
M  V30 9642 O 929.101 -1.19851 -1.53186 0
M  V30 9643 C 929.384 -3.39352 1.20468 0
M  V30 9644 C 929.237 -3.56955 2.73684 0
M  V30 9645 C 930.556 -4.32901 0.792741 0
M  V30 9646 H 927.675 -0.685482 0.270708 0
M  V30 9647 H 930.317 -1.39523 1.2897 0
M  V30 9648 H 928.467 -3.81427 0.737974 0
M  V30 9649 H 930.139 -3.2399 3.28372 0
M  V30 9650 H 928.382 -2.99696 3.13632 0
M  V30 9651 H 929.053 -4.62598 3.01176 0
M  V30 9652 H 931.529 -3.98592 1.1943 0
M  V30 9653 H 930.405 -5.36828 1.14486 0
M  V30 9654 H 930.666 -4.41052 -0.304295 0
M  V30 9655 N 929.725 -0.817259 -1.34754 0
M  V30 9656 C 931.141 -0.502309 -1.51489 0
M  V30 9657 C 931.341 0.974568 -1.76364 0
M  V30 9658 O 930.397 1.75924 -1.81127 0
M  V30 9659 C 931.71 -1.35693 -2.68343 0
M  V30 9660 C 933.258 -1.35347 -2.82224 0
M  V30 9661 C 933.733 -2.19244 -4.02114 0
M  V30 9662 N 935.224 -2.16837 -4.09311 0
M  V30 9663 C 935.959 -2.78505 -5.01221 0
M  V30 9664 N 935.455 -3.4914 -5.98392 0
M  V30 9665 N 937.248 -2.68089 -4.94049 0
M  V30 9666 H 929.399 -1.77359 -1.16866 0
M  V30 9667 H 931.662 -0.755476 -0.572678 0
M  V30 9668 H 931.368 -2.40548 -2.56573 0
M  V30 9669 H 931.242 -1.01764 -3.63213 0
M  V30 9670 H 933.629 -0.312727 -2.93438 0
M  V30 9671 H 933.71 -1.7327 -1.88179 0
M  V30 9672 H 933.354 -3.23365 -3.9166 0
M  V30 9673 H 933.284 -1.78675 -4.95361 0
M  V30 9674 H 935.775 -1.65452 -3.39756 0
M  V30 9675 H 936.088 -3.93455 -6.65141 0
M  V30 9676 H 934.433 -3.53246 -5.98533 0
M  V30 9677 H 937.624 -2.12485 -4.17094 0
M  V30 9678 H 937.797 -3.16436 -5.65484 0
M  V30 9679 N 931.203 1.46865 -0.571711 0
M  V30 9680 C 932.133 2.3298 0.155795 0
M  V30 9681 C 933.114 1.44678 0.894553 0
M  V30 9682 O 934.299 1.73513 0.872176 0
M  V30 9683 C 931.429 3.26745 1.17708 0
M  V30 9684 C 930.383 4.24401 0.553863 0
M  V30 9685 C 929.709 5.07595 1.68083 0
M  V30 9686 C 931.009 5.19884 -0.501827 0
M  V30 9687 H 932.703 2.94056 -0.563176 0
M  V30 9688 H 930.249 1.41402 -0.27228 0
M  V30 9689 H 932.202 3.85838 1.6943 0
M  V30 9690 H 930.926 2.63753 1.92618 0
M  V30 9691 H 929.585 3.66554 0.057815 0
M  V30 9692 H 929.233 4.40996 2.41933 0
M  V30 9693 H 928.933 5.73722 1.26953 0
M  V30 9694 H 930.457 5.6955 2.20103 0
M  V30 9695 H 931.871 5.73257 -0.0701057 0
M  V30 9696 H 930.268 5.94293 -0.832815 0
M  V30 9697 H 931.338 4.64482 -1.39229 0
M  V30 9698 N 932.681 0.308908 1.54543 0
M  V30 9699 C 933.611 -0.556657 2.26768 0
M  V30 9700 C 934.592 -1.13145 1.27013 0
M  V30 9701 O 935.777 -1.15931 1.558 0
M  V30 9702 C 932.907 -1.72481 3.01443 0
M  V30 9703 C 931.861 -1.28001 4.08411 0
M  V30 9704 C 931.187 -2.53395 4.70845 0
M  V30 9705 C 932.487 -0.405497 5.20724 0
M  V30 9706 H 934.181 0.0457618 2.99365 0
M  V30 9707 H 931.727 0.0234495 1.43981 0
M  V30 9708 H 933.68 -2.3365 3.50693 0
M  V30 9709 H 932.404 -2.35359 2.26437 0
M  V30 9710 H 931.063 -0.69133 3.60022 0
M  V30 9711 H 930.711 -3.14604 3.92471 0
M  V30 9712 H 930.411 -2.2433 5.43093 0
M  V30 9713 H 931.935 -3.15352 5.22863 0
M  V30 9714 H 933.349 -0.923076 5.6582 0
M  V30 9715 H 931.746 -0.208282 5.99738 0
M  V30 9716 H 932.816 0.567412 4.81569 0
M  V30 9717 N 934.159 -1.57557 0.0367827 0
M  V30 9718 C 935.091 -2.07597 -0.971395 0
M  V30 9719 C 936.104 -1.0009 -1.28397 0
M  V30 9720 O 937.293 -1.27692 -1.24728 0
M  V30 9721 C 934.393 -2.492 -2.2968 0
M  V30 9722 C 933.566 -3.79875 -2.16826 0
M  V30 9723 C 932.625 -4.07946 -3.32366 0
M  V30 9724 O 931.651 -4.78083 -3.0891 0
M  V30 9725 N 932.853 -3.58722 -4.56397 0
M  V30 9726 H 935.618 -2.94714 -0.544389 0
M  V30 9727 H 933.179 -1.61205 -0.1498 0
M  V30 9728 H 935.171 -2.65065 -3.05815 0
M  V30 9729 H 933.741 -1.67407 -2.63995 0
M  V30 9730 H 932.961 -3.73732 -1.2537 0
M  V30 9731 H 934.249 -4.65476 -2.0545 0
M  V30 9732 H 933.647 -3.01994 -4.78347 0
M  V30 9733 H 932.204 -3.79852 -5.29675 0
M  V30 9734 N 935.637 0.236453 -1.55816 0
M  V30 9735 C 936.914 0.986463 -1.68903 0
M  V30 9736 C 937.294 2.02984 -0.579722 0
M  V30 9737 O 936.642 2.24693 0.415389 0
M  V30 9738 C 936.852 1.61038 -3.09625 0
M  V30 9739 C 938.2 2.10829 -3.6856 0
M  V30 9740 O 939.224 1.7096 -3.12492 0
M  V30 9741 O 938.083 2.84064 -4.66873 0
M  V30 9742 H 935.177 0.459837 -0.687371 0
M  V30 9743 H 937.723 0.229412 -1.68142 0
M  V30 9744 H 936.495 0.856232 -3.81817 0
M  V30 9745 H 936.118 2.43336 -3.14441 0
M  V30 9746 N 937.115 1.49373 0.502552 0
M  V30 9747 C 938.062 1.65927 1.60427 0
M  V30 9748 C 939.032 0.500768 1.58371 0
M  V30 9749 O 940.217 0.727606 1.76382 0
M  V30 9750 C 937.357 1.73043 2.9858 0
M  V30 9751 C 936.47 3.00187 3.10663 0
M  V30 9752 C 935.605 2.98292 4.3954 0
M  V30 9753 C 934.644 4.20022 4.4525 0
M  V30 9754 N 933.781 4.16046 5.65553 0
M  V30 9755 H 938.621 2.59998 1.45619 0
M  V30 9756 H 936.158 1.28912 0.708519 0
M  V30 9757 H 938.116 1.7515 3.78653 0
M  V30 9758 H 936.746 0.824397 3.12095 0
M  V30 9759 H 935.798 3.07699 2.23663 0
M  V30 9760 H 937.11 3.9018 3.10742 0
M  V30 9761 H 936.264 2.98953 5.27932 0
M  V30 9762 H 935.003 2.06075 4.42023 0
M  V30 9763 H 934.008 4.19607 3.5526 0
M  V30 9764 H 935.233 5.13431 4.44484 0
M  V30 9765 H 933.179 3.26665 5.68881 0
M  V30 9766 H 933.096 4.99773 5.67242 0
M  V30 9767 H 934.364 4.20807 6.56156 0
M  V30 9768 N 938.594 -0.753485 1.38421 0
M  V30 9769 C 939.822 -1.54272 1.37868 0
M  V30 9770 C 940.237 -1.88774 -0.0315155 0
M  V30 9771 O 939.594 -1.52785 -0.998148 0
M  V30 9772 C 939.645 -2.84179 2.23438 0
M  V30 9773 O 939.366 -2.51149 3.58965 0
M  V30 9774 C 940.867 -3.78316 2.31067 0
M  V30 9775 H 938.087 -0.47735 0.47157 0
M  V30 9776 H 940.631 -0.932509 1.82001 0
M  V30 9777 H 938.786 -3.41577 1.82767 0
M  V30 9778 H 939.2 -3.34466 4.04021 0
M  V30 9779 H 940.674 -4.66418 2.95226 0
M  V30 9780 H 941.151 -4.18757 1.32436 0
M  V30 9781 H 941.757 -3.26842 2.72129 0
M  V30 9782 N 940.072 -1.23292 -0.981677 0
M  V30 9783 C 941.32 -1.06214 -1.71939 0
M  V30 9784 C 941.641 0.401989 -1.90812 0
M  V30 9785 O 940.911 1.28825 -1.47584 0
M  V30 9786 H 939.491 -0.390042 -0.637084 0
M  V30 9787 H 942.153 -1.54988 -1.18173 0
M  V30 9788 H 941.249 -1.54904 -2.70945 0
M  V30 9789 N 941.55 1.18024 -1.04442 0
M  V30 9790 C 942.827 1.8398 -0.664125 0
M  V30 9791 C 943.207 1.92961 0.856116 0
M  V30 9792 O 942.555 1.45839 1.75907 0
M  V30 9793 C 942.765 3.22069 -1.34433 0
M  V30 9794 C 944.113 3.98063 -1.47754 0
M  V30 9795 O 945.137 3.31523 -1.30274 0
M  V30 9796 O 943.996 5.17291 -1.76272 0
M  V30 9797 H 941.09 0.793543 -0.23285 0
M  V30 9798 H 943.636 1.25385 -1.14354 0
M  V30 9799 H 942.408 3.10458 -2.38184 0
M  V30 9800 H 942.031 3.88325 -0.853782 0
M  V30 9801 N 943.028 0.824394 1.34319 0
M  V30 9802 C 944.275 0.413167 1.9824 0
M  V30 9803 C 944.603 -1.02412 1.65354 0
M  V30 9804 O 943.858 -1.72831 0.91803 0
M  V30 9805 C 944.157 0.564024 3.52921 0
M  V30 9806 C 943.823 1.96725 4.05722 0
M  V30 9807 C 942.485 2.35111 4.19853 0
M  V30 9808 C 944.837 2.88447 4.34106 0
M  V30 9809 C 942.165 3.64551 4.59695 0
M  V30 9810 C 944.517 4.17353 4.75394 0
M  V30 9811 C 943.181 4.55714 4.8773 0
M  V30 9812 H 942.451 0.151188 0.725412 0
M  V30 9813 H 945.098 1.04863 1.60238 0
M  V30 9814 H 943.403 -0.154816 3.91494 0
M  V30 9815 H 945.1 0.226347 4.00361 0
M  V30 9816 H 941.69 1.65908 3.95187 0
M  V30 9817 H 945.874 2.60034 4.22725 0
M  V30 9818 H 941.13 3.94097 4.67437 0
M  V30 9819 H 945.304 4.88512 4.96315 0
M  V30 9820 H 942.931 5.56064 5.1836 0
M  V30 9821 N 944.506 -1.46559 0.579492 0
M  V30 9822 C 945.439 -2.27287 -0.203894 0
M  V30 9823 C 946.417 -1.3543 -0.899865 0
M  V30 9824 O 947.601 -1.64836 -0.914398 0
M  V30 9825 C 944.728 -3.13077 -1.2923 0
M  V30 9826 C 943.774 -4.20675 -0.702505 0
M  V30 9827 S 944.607 -5.3345 0.468136 0
M  V30 9828 C 945.763 -6.22806 -0.621544 0
M  V30 9829 H 945.996 -2.93382 0.481083 0
M  V30 9830 H 943.529 -1.49992 0.366311 0
M  V30 9831 H 945.487 -3.63069 -1.91548 0
M  V30 9832 H 944.148 -2.46302 -1.94921 0
M  V30 9833 H 943.341 -4.80516 -1.52053 0
M  V30 9834 H 942.943 -3.73678 -0.155046 0
M  V30 9835 H 945.235 -6.60503 -1.50803 0
M  V30 9836 H 946.178 -7.08075 -0.059961 0
M  V30 9837 H 946.586 -5.56882 -0.924242 0
M  V30 9838 N 945.984 -0.3171 -1.54377 0
M  V30 9839 C 947.209 0.292311 -2.0533 0
M  V30 9840 C 947.634 1.45503 -1.19207 0
M  V30 9841 O 946.992 1.80197 -0.199721 0
M  V30 9842 C 947.04 0.710787 -3.53525 0
M  V30 9843 O 946.144 1.81387 -3.70368 0
M  V30 9844 H 945.485 0.0539976 -0.661801 0
M  V30 9845 H 948.015 -0.463629 -1.99278 0
M  V30 9846 H 948.025 0.995216 -3.95676 0
M  V30 9847 H 946.7 -0.139668 -4.15665 0
M  V30 9848 H 945.277 1.52875 -3.40123 0
M  V30 9849 N 947.462 1.57535 -0.0451378 0
M  V30 9850 C 948.69 1.96761 0.639742 0
M  V30 9851 C 949.105 0.922405 1.64734 0
M  V30 9852 O 948.462 -0.0940535 1.82257 0
M  V30 9853 C 948.513 3.36066 1.33199 0
M  V30 9854 O 948.234 4.36579 0.364757 0
M  V30 9855 C 949.735 3.90015 2.1072 0
M  V30 9856 H 946.955 0.64769 0.175324 0
M  V30 9857 H 949.499 2.04206 -0.109651 0
M  V30 9858 H 947.654 3.2979 2.03266 0
M  V30 9859 H 948.068 5.17432 0.858168 0
M  V30 9860 H 949.542 4.89785 2.54586 0
M  V30 9861 H 950.019 3.25117 2.95288 0
M  V30 9862 H 950.625 3.99609 1.45577 0
M  V30 9863 N 948.94 -0.228186 1.55939 0
M  V30 9864 C 950.189 -0.951563 1.77843 0
M  V30 9865 C 950.502 -1.85763 0.612501 0
M  V30 9866 O 951.708 -2.61916 0.715006 0
M  V30 9867 C 950.164 -1.74216 3.14923 0
M  V30 9868 C 949.772 -0.882569 4.39221 0
M  V30 9869 C 951.516 -2.45715 3.46156 0
M  V30 9870 C 949.423 -1.67014 5.67327 0
M  V30 9871 H 948.353 -0.359035 0.663031 0
M  V30 9872 H 951.004 -0.205636 1.82344 0
M  V30 9873 H 949.386 -2.53075 3.0458 0
M  V30 9874 H 950.56 -0.13499 4.60602 0
M  V30 9875 H 948.875 -0.280022 4.15457 0
M  V30 9876 H 951.472 -3.05127 4.39092 0
M  V30 9877 H 951.815 -3.1827 2.68346 0
M  V30 9878 H 952.348 -1.73852 3.57799 0
M  V30 9879 H 949.087 -0.987985 6.48012 0
M  V30 9880 H 948.607 -2.3925 5.50018 0
M  V30 9881 H 950.286 -2.23252 6.07262 0
M  V30 9882 N 950.418 -1.49637 -0.494624 0
M  V30 9883 C 951.667 -1.58691 -1.24499 0
M  V30 9884 C 951.98 -0.281763 -1.9356 0
M  V30 9885 O 953.186 -0.250925 -2.70338 0
M  V30 9886 C 951.642 -2.8002 -2.26091 0
M  V30 9887 C 951.25 -4.17318 -1.6294 0
M  V30 9888 C 952.994 -2.98407 -3.01916 0
M  V30 9889 C 950.901 -5.29862 -2.62679 0
M  V30 9890 H 949.831 -0.590888 -0.468367 0
M  V30 9891 H 952.482 -1.76034 -0.518112 0
M  V30 9892 H 950.864 -2.56185 -3.01969 0
M  V30 9893 H 952.038 -4.51315 -0.930108 0
M  V30 9894 H 950.353 -4.04342 -0.994819 0
M  V30 9895 H 952.95 -3.79658 -3.76516 0
M  V30 9896 H 953.293 -2.09214 -3.5991 0
M  V30 9897 H 953.826 -3.22312 -2.33152 0
M  V30 9898 H 950.565 -6.21134 -2.09458 0
M  V30 9899 H 950.085 -5.00311 -3.3083 0
M  V30 9900 H 951.764 -5.59461 -3.2498 0
M  V30 9901 N 951.896 0.746133 -1.38819 0
M  V30 9902 C 953.124 1.53539 -1.38685 0
M  V30 9903 C 953.539 1.88788 0.0215039 0
M  V30 9904 O 952.896 1.53312 0.990031 0
M  V30 9905 C 952.947 2.8299 -2.24942 0
M  V30 9906 O 952.668 2.49242 -3.60292 0
M  V30 9907 C 954.169 3.77085 -2.3307 0
M  V30 9908 H 951.389 0.474842 -0.474095 0
M  V30 9909 H 953.933 0.922844 -1.82493 0
M  V30 9910 H 952.088 3.40603 -1.84576 0
M  V30 9911 H 952.502 3.32319 -4.05789 0
M  V30 9912 H 953.976 4.64845 -2.97696 0
M  V30 9913 H 954.453 4.18049 -1.34655 0
M  V30 9914 H 955.059 3.25394 -2.73859 0
M  V30 9915 N 953.375 1.23811 0.975125 0
M  V30 9916 C 954.6 1.10109 1.75757 0
M  V30 9917 C 955.025 -0.342922 1.84948 0
M  V30 9918 O 954.383 -1.24814 1.31496 0
M  V30 9919 C 954.431 1.73724 3.15994 0
M  V30 9920 O 953.535 1.00297 4.00018 0
M  V30 9921 H 952.876 0.385627 0.540544 0
M  V30 9922 H 955.406 1.63971 1.22372 0
M  V30 9923 H 955.416 1.79178 3.6655 0
M  V30 9924 H 954.091 2.78794 3.0862 0
M  V30 9925 H 952.668 1.02575 3.58515 0
M  V30 9926 N 954.853 -1.17469 1.05066 0
M  V30 9927 C 956.093 -1.89382 0.769012 0
M  V30 9928 C 956.457 -1.79126 -0.691217 0
M  V30 9929 O 957.658 -2.45845 -1.08692 0
M  V30 9930 C 955.929 -3.35397 1.23465 0
M  V30 9931 S 957.488 -4.25297 1.08018 0
M  V30 9932 H 954.306 -0.653839 0.279312 0
M  V30 9933 H 956.908 -1.41877 1.34503 0
M  V30 9934 H 955.612 -3.40395 2.29258 0
M  V30 9935 H 955.143 -3.87945 0.652853 0
M  V30 9936 H 957.158 -4.962 0.00358573 0
M  V30 9937 N 956.331 -0.831506 -1.3388 0
M  V30 9938 C 957.263 -0.216908 -2.28171 0
M  V30 9939 C 958.276 0.598141 -1.51414 0
M  V30 9940 O 959.465 0.426416 -1.73332 0
M  V30 9941 C 956.565 0.713831 -3.31297 0
M  V30 9942 C 955.738 -0.0602673 -4.37358 0
M  V30 9943 C 954.797 0.792696 -5.20195 0
M  V30 9944 O 953.823 0.234564 -5.68716 0
M  V30 9945 N 955.025 2.11119 -5.40748 0
M  V30 9946 H 957.79 -1.02704 -2.81553 0
M  V30 9947 H 955.351 -0.689272 -1.46495 0
M  V30 9948 H 957.343 1.28925 -3.83615 0
M  V30 9949 H 955.913 1.42469 -2.78247 0
M  V30 9950 H 955.133 -0.817041 -3.8564 0
M  V30 9951 H 956.421 -0.592822 -5.05335 0
M  V30 9952 H 955.819 2.58828 -5.03016 0
M  V30 9953 H 954.376 2.63527 -5.96151 0
M  V30 9954 N 957.809 1.4625 -0.587256 0
M  V30 9955 C 959.037 2.06744 -0.08033 0
M  V30 9956 C 959.452 1.43527 1.2266 0
M  V30 9957 O 958.809 0.542168 1.74261 0
M  V30 9958 C 958.86 3.61394 0.0873469 0
M  V30 9959 O 958.581 4.22247 -1.16785 0
M  V30 9960 C 960.082 4.38828 0.628095 0
M  V30 9961 H 957.302 0.668354 -0.0595301 0
M  V30 9962 H 959.846 1.87808 -0.809217 0
M  V30 9963 H 958.001 3.79742 0.766473 0
M  V30 9964 H 958.415 5.15176 -0.984565 0
M  V30 9965 H 959.889 5.47613 0.694583 0
M  V30 9966 H 960.366 4.07188 1.64606 0
M  V30 9967 H 960.972 4.25297 -0.0163115 0
M  V30 9968 N 959.287 0.325282 1.54207 0
M  V30 9969 C 960.25 -0.527228 2.23054 0
M  V30 9970 C 961.25 -1.04217 1.22456 0
M  V30 9971 O 962.44 -0.934325 1.47024 0
M  V30 9972 C 959.572 -1.7325 2.93594 0
M  V30 9973 H 960.765 0.0746423 2.99807 0
M  V30 9974 H 958.318 0.0763872 1.56113 0
M  V30 9975 H 959.053 -2.37356 2.20981 0
M  V30 9976 H 958.838 -1.37065 3.67363 0
M  V30 9977 H 960.328 -2.3376 3.46043 0
M  V30 9978 N 960.765 -1.57509 0.0534917 0
M  V30 9979 C 962.011 -1.93068 -0.62069 0
M  V30 9980 C 962.344 -0.932313 -1.70357 0
M  V30 9981 O 961.619 0.0413393 -1.94456 0
M  V30 9982 C 961.902 -3.38997 -1.21463 0
M  V30 9983 C 961.755 -4.49583 -0.13965 0
M  V30 9984 C 963.074 -3.85366 -2.12558 0
M  V30 9985 H 960.193 -0.702083 -0.224163 0
M  V30 9986 H 962.835 -1.89647 0.115729 0
M  V30 9987 H 960.985 -3.42043 -1.84226 0
M  V30 9988 H 962.657 -4.58664 0.492411 0
M  V30 9989 H 960.9 -4.30525 0.532006 0
M  V30 9990 H 961.571 -5.48781 -0.595287 0
M  V30 9991 H 964.047 -3.8421 -1.59755 0
M  V30 9992 H 962.923 -4.8812 -2.51058 0
M  V30 9993 H 963.184 -3.22256 -3.02661 0
M  V30 9994 N 962.243 0.219913 -1.56058 0
M  V30 9995 C 963.468 0.965073 -1.83579 0
M  V30 9996 C 963.893 1.77092 -0.634024 0
M  V30 9997 O 963.251 1.76434 0.417205 0
M  V30 9998 C 963.299 1.85705 -3.09105 0
M  V30 9999 O 962.403 2.95261 -2.87914 0
M  V30 10000 H 961.744 0.273173 -0.605204 0
M  V30 10001 H 964.274 0.23273 -2.03272 0
M  V30 10002 H 964.284 2.26655 -3.39252 0
M  V30 10003 H 962.959 1.26476 -3.96203 0
M  V30 10004 H 961.536 2.58246 -2.69005 0
M  V30 10005 N 963.721 1.49897 0.486681 0
M  V30 10006 C 964.668 1.67619 1.58658 0
M  V30 10007 C 965.638 0.517537 1.57831 0
M  V30 10008 O 966.823 0.746272 1.756 0
M  V30 10009 C 963.963 1.762 2.96728 0
M  V30 10010 C 963.076 3.03465 3.07462 0
M  V30 10011 C 962.211 3.02937 4.36351 0
M  V30 10012 C 961.25 4.24721 4.4077 0
M  V30 10013 N 960.387 4.22021 5.61108 0
M  V30 10014 H 965.227 2.61528 1.42853 0
M  V30 10015 H 962.764 1.29657 0.694807 0
M  V30 10016 H 964.722 1.79156 3.76774 0
M  V30 10017 H 963.352 0.857452 3.11203 0
M  V30 10018 H 962.404 3.10054 2.20387 0
M  V30 10019 H 963.716 3.93454 3.06586 0
M  V30 10020 H 962.87 3.04536 5.24731 0
M  V30 10021 H 961.609 2.10751 4.39813 0
M  V30 10022 H 960.614 4.23352 3.5079 0
M  V30 10023 H 961.839 5.18116 4.39013 0
M  V30 10024 H 959.785 3.3268 5.65385 0
M  V30 10025 H 959.702 5.05761 5.61909 0
M  V30 10026 H 960.97 4.27743 6.51656 0
M  V30 10027 N 965.199 -0.738761 1.39212 0
M  V30 10028 C 966.129 -1.86602 1.40364 0
M  V30 10029 C 967.11 -1.67984 0.267495 0
M  V30 10030 O 968.295 -1.88358 0.472765 0
M  V30 10031 C 965.425 -3.24308 1.24265 0
M  V30 10032 C 964.379 -3.57557 2.35239 0
M  V30 10033 C 963.705 -4.94159 2.04233 0
M  V30 10034 C 965.005 -3.60914 3.77543 0
M  V30 10035 H 966.699 -1.85896 2.34698 0
M  V30 10036 H 964.245 -0.892959 1.1297 0
M  V30 10037 H 966.198 -4.02838 1.23692 0
M  V30 10038 H 964.922 -3.25531 0.263974 0
M  V30 10039 H 963.581 -2.81354 2.35022 0
M  V30 10040 H 963.229 -4.91959 1.04813 0
M  V30 10041 H 962.929 -5.17373 2.78567 0
M  V30 10042 H 964.453 -5.7505 2.05303 0
M  V30 10043 H 965.867 -4.29528 3.79709 0
M  V30 10044 H 964.264 -3.95644 4.51205 0
M  V30 10045 H 965.334 -2.60803 4.08791 0
M  V30 10046 N 966.677 -1.24326 -0.968545 0
M  V30 10047 C 967.607 -1.05951 -2.08079 0
M  V30 10048 C 968.588 0.0272666 -1.70078 0
M  V30 10049 O 969.773 -0.139644 -1.93697 0
M  V30 10050 C 966.903 -0.662623 -3.4092 0
M  V30 10051 C 965.857 -1.69807 -3.92873 0
M  V30 10052 C 965.183 -1.15628 -5.22048 0
M  V30 10053 C 966.483 -3.09383 -4.20808 0
M  V30 10054 H 968.177 -1.98984 -2.23709 0
M  V30 10055 H 965.723 -0.958112 -1.075 0
M  V30 10056 H 967.676 -0.521071 -4.18166 0
M  V30 10057 H 966.4 0.303399 -3.25188 0
M  V30 10058 H 965.059 -1.82783 -3.17783 0
M  V30 10059 H 964.707 -0.180888 -5.02675 0
M  V30 10060 H 964.407 -1.84822 -5.57776 0
M  V30 10061 H 965.931 -1.02683 -6.01904 0
M  V30 10062 H 967.345 -2.99642 -4.88761 0
M  V30 10063 H 965.742 -3.75923 -4.67763 0
M  V30 10064 H 966.812 -3.57486 -3.27616 0
M  V30 10065 N 968.156 1.1691 -1.05688 0
M  V30 10066 C 969.433 1.83266 -0.683601 0
M  V30 10067 C 969.813 1.93858 0.835602 0
M  V30 10068 O 969.161 1.47696 1.7435 0
M  V30 10069 C 969.371 3.20625 -1.37842 0
M  V30 10070 C 970.719 3.96473 -1.51967 0
M  V30 10071 O 971.743 3.30122 -1.33783 0
M  V30 10072 O 970.602 5.15393 -1.81749 0
M  V30 10073 H 967.696 0.791028 -0.241254 0
M  V30 10074 H 970.242 1.24165 -1.15677 0
M  V30 10075 H 969.014 3.07914 -2.41463 0
M  V30 10076 H 968.637 3.87398 -0.894921 0
M  V30 10077 N 969.634 0.838594 1.33437 0
M  V30 10078 C 970.862 0.447644 2.01999 0
M  V30 10079 C 971.277 -0.951053 1.63096 0
M  V30 10080 O 970.634 -1.61802 0.844169 0
M  V30 10081 C 970.685 0.558378 3.57162 0
M  V30 10082 O 970.406 1.90196 3.94661 0
M  V30 10083 C 971.907 0.164348 4.42995 0
M  V30 10084 H 969.127 0.177736 0.647032 0
M  V30 10085 H 971.671 1.13109 1.70372 0
M  V30 10086 H 969.826 -0.0771563 3.87323 0
M  V30 10087 H 970.24 1.88729 4.89369 0
M  V30 10088 H 971.714 0.292876 5.51222 0
M  V30 10089 H 972.191 -0.893713 4.30011 0
M  V30 10090 H 972.797 0.774306 4.18192 0
M  V30 10091 N 971.112 -1.45937 0.595003 0
M  V30 10092 C 972.352 -2.0421 0.0881479 0
M  V30 10093 C 972.716 -1.45498 -1.25277 0
M  V30 10094 O 973.917 -1.95047 -1.8496 0
M  V30 10095 C 972.188 -3.57382 0.0362346 0
M  V30 10096 S 973.747 -4.36869 -0.41126 0
M  V30 10097 H 970.565 -0.709672 0.0434424 0
M  V30 10098 H 973.167 -1.78815 0.790273 0
M  V30 10099 H 971.871 -3.97628 1.0159 0
M  V30 10100 H 971.402 -3.87332 -0.688278 0
M  V30 10101 H 973.417 -4.67486 -1.66347 0
M  V30 10102 N 972.59 -0.333456 -1.54032 0
M  V30 10103 C 973.837 0.266133 -2.00744 0
M  V30 10104 C 974.165 1.51361 -1.22148 0
M  V30 10105 O 973.42 1.93473 -0.294368 0
M  V30 10106 C 973.719 0.63565 -3.51702 0
M  V30 10107 C 973.385 -0.513786 -4.47963 0
M  V30 10108 C 972.047 -0.829253 -4.74001 0
M  V30 10109 C 974.399 -1.2854 -5.05101 0
M  V30 10110 C 971.727 -1.91888 -5.54433 0
M  V30 10111 C 974.079 -2.3652 -5.86721 0
M  V30 10112 C 972.743 -2.68637 -6.11057 0
M  V30 10113 H 972.013 0.097385 -0.734573 0
M  V30 10114 H 974.66 -0.459282 -1.85911 0
M  V30 10115 H 972.965 1.44163 -3.64313 0
M  V30 10116 H 974.662 1.11129 -3.85294 0
M  V30 10117 H 971.252 -0.25784 -4.27824 0
M  V30 10118 H 975.436 -1.05494 -4.84958 0
M  V30 10119 H 970.692 -2.17208 -5.71516 0
M  V30 10120 H 974.866 -2.96747 -6.30011 0
M  V30 10121 H 972.493 -3.53197 -6.73169 0
M  V30 10122 N 974.068 1.57479 -0.061844 0
M  V30 10123 C 974.978 2.15645 0.923826 0
M  V30 10124 C 975.994 1.117 1.33413 0
M  V30 10125 O 977.17 1.4392 1.40887 0
M  V30 10126 C 974.235 2.69857 2.17665 0
M  V30 10127 C 973.296 3.88638 1.8237 0
M  V30 10128 C 972.529 4.40256 3.01679 0
M  V30 10129 O 972.752 3.90908 4.15388 0
M  V30 10130 O 971.686 5.31713 2.82073 0
M  V30 10131 H 975.512 3.0021 0.459094 0
M  V30 10132 H 973.097 1.48534 0.160665 0
M  V30 10133 H 974.979 3.04647 2.9115 0
M  V30 10134 H 973.654 1.88357 2.63255 0
M  V30 10135 H 972.561 3.58719 1.06167 0
M  V30 10136 H 973.894 4.71401 1.4157 0
M  V30 10137 N 975.546 -0.211634 1.56173 0
M  V30 10138 C 976.509 -1.24588 1.92381 0
M  V30 10139 C 977.509 -1.39297 0.803311 0
M  V30 10140 O 978.699 -1.37392 1.07094 0
M  V30 10141 C 975.831 -2.61807 2.18335 0
M  V30 10142 H 977.024 -0.936814 2.84893 0
M  V30 10143 H 974.577 -0.452471 1.49607 0
M  V30 10144 H 975.312 -2.97795 1.28407 0
M  V30 10145 H 975.097 -2.52506 2.99972 0
M  V30 10146 H 976.587 -3.3642 2.4741 0
M  V30 10147 N 977.024 -1.50153 -0.478725 0
M  V30 10148 C 978.252 -1.64505 -1.25482 0
M  V30 10149 C 978.667 -0.325295 -1.85977 0
M  V30 10150 O 978.024 0.691885 -1.68876 0
M  V30 10151 C 978.075 -2.73052 -2.36906 0
M  V30 10152 O 977.796 -3.99911 -1.78894 0
M  V30 10153 C 979.297 -2.98309 -3.27912 0
M  V30 10154 H 976.517 -0.55318 -0.379781 0
M  V30 10155 H 979.061 -1.96329 -0.57229 0
M  V30 10156 H 977.216 -2.43944 -3.00949 0
M  V30 10157 H 977.63 -4.5988 -2.52211 0
M  V30 10158 H 979.104 -3.77942 -4.02323 0
M  V30 10159 H 979.581 -2.09082 -3.8624 0
M  V30 10160 H 980.187 -3.2892 -2.69614 0
M  V30 10161 N 978.502 0.731368 -1.39602 0
M  V30 10162 C 979.412 1.87579 -1.40894 0
M  V30 10163 C 980.428 1.71336 -0.303319 0
M  V30 10164 O 981.604 1.93875 -0.545377 0
M  V30 10165 C 978.669 3.23211 -1.25442 0
M  V30 10166 C 977.73 3.51822 -2.46008 0
M  V30 10167 C 976.963 4.80982 -2.31284 0
M  V30 10168 O 977.186 5.54958 -1.31824 0
M  V30 10169 O 976.12 5.09574 -3.20341 0
M  V30 10170 H 979.946 1.89444 -2.3737 0
M  V30 10171 H 977.531 0.879675 -1.20756 0
M  V30 10172 H 979.413 4.04257 -1.18972 0
M  V30 10173 H 978.088 3.22108 -0.320637 0
M  V30 10174 H 976.995 2.70847 -2.58055 0
M  V30 10175 H 978.328 3.57707 -3.38093 0
M  V30 10176 N 979.98 1.24838 0.961938 0
M  V30 10177 C 980.943 1.04674 2.03902 0
M  V30 10178 C 981.943 0.00204674 1.608 0
M  V30 10179 O 983.133 0.243555 1.72489 0
M  V30 10180 C 980.265 0.587736 3.35795 0
M  V30 10181 H 981.458 2.00278 2.23223 0
M  V30 10182 H 979.011 1.07142 1.138 0
M  V30 10183 H 979.746 -0.371244 3.22168 0
M  V30 10184 H 979.531 1.34182 3.68426 0
M  V30 10185 H 981.021 0.467867 4.14971 0
M  V30 10186 N 981.458 -1.16348 1.06306 0
M  V30 10187 C 982.686 -1.90782 0.800614 0
M  V30 10188 C 983.101 -1.77439 -0.645033 0
M  V30 10189 O 982.458 -1.11912 -1.4416 0
M  V30 10190 C 982.509 -3.41484 1.18621 0
M  V30 10191 O 982.23 -3.54428 2.57512 0
M  V30 10192 C 983.731 -4.32968 0.951525 0
M  V30 10193 H 980.951 -0.604977 0.290247 0
M  V30 10194 H 983.495 -1.47476 1.41672 0
M  V30 10195 H 981.65 -3.82493 0.614633 0
M  V30 10196 H 982.064 -4.4788 2.72954 0
M  V30 10197 H 983.538 -5.37169 1.27095 0
M  V30 10198 H 984.015 -4.39055 -0.112734 0
M  V30 10199 H 984.621 -3.97687 1.50749 0
M  V30 10200 N 982.937 -0.845659 -1.3299 0
M  V30 10201 C 984.184 -0.444653 -1.97558 0
M  V30 10202 C 984.512 0.997682 -1.66963 0
M  V30 10203 O 983.767 1.71349 -0.94541 0
M  V30 10204 C 984.066 -0.6201 -3.51979 0
M  V30 10205 C 983.732 -2.03155 -4.02541 0
M  V30 10206 C 982.394 -2.4176 -4.16059 0
M  V30 10207 C 984.746 -2.95317 -4.29462 0
M  V30 10208 C 982.074 -3.71818 -4.53837 0
M  V30 10209 C 984.426 -4.24863 -4.68694 0
M  V30 10210 C 983.09 -4.63416 -4.80419 0
M  V30 10211 H 982.36 -0.16271 -0.722915 0
M  V30 10212 H 985.007 -1.07399 -1.58549 0
M  V30 10213 H 983.312 0.092513 -3.91691 0
M  V30 10214 H 985.009 -0.290012 -3.9995 0
M  V30 10215 H 981.599 -1.72174 -3.92497 0
M  V30 10216 H 985.783 -2.66726 -4.18534 0
M  V30 10217 H 981.039 -4.01484 -4.61108 0
M  V30 10218 H 985.213 -4.96347 -4.8848 0
M  V30 10219 H 982.84 -5.6424 -5.09448 0
M  V30 10220 N 984.415 1.45619 -0.602734 0
M  V30 10221 C 985.363 2.32228 0.131484 0
M  V30 10222 C 986.357 1.45681 0.864484 0
M  V30 10223 O 987.563 1.62193 0.7806 0
M  V30 10224 H 983.938 0.7495 0.0612638 0
M  V30 10225 H 985.909 2.91941 -0.617496 0
M  V30 10226 C 984.658 3.29213 1.11866 0
M  V30 10227 H 983.981 3.95801 0.564061 0
M  V30 10228 H 985.421 3.92554 1.60242 0
M  V30 10229 C 983.88 2.56028 2.18978 0
M  V30 10230 O 984.41 2.33806 3.26646 0
M  V30 10231 N 982.616 2.16245 1.94129 0
M  V30 10232 H 982.163 2.34518 1.06579 0
M  V30 10233 H 982.121 1.67601 2.66003 0
M  V30 10234 N 985.893 0.34162 1.53853 0
M  V30 10235 C 987.14 -0.255484 2.00882 0
M  V30 10236 C 987.468 -1.50711 1.22949 0
M  V30 10237 O 986.723 -1.93315 0.304625 0
M  V30 10238 C 987.022 -0.616989 3.52034 0
M  V30 10239 C 986.688 0.537536 4.47684 0
M  V30 10240 C 985.35 0.854379 4.73554 0
M  V30 10241 C 987.702 1.31217 5.04412 0
M  V30 10242 C 985.03 1.94826 5.53407 0
M  V30 10243 C 987.382 2.39628 5.85458 0
M  V30 10244 C 986.046 2.71874 6.09623 0
M  V30 10245 H 985.316 -0.0934881 0.735079 0
M  V30 10246 H 987.963 0.469135 1.85665 0
M  V30 10247 H 986.268 -1.42229 3.65073 0
M  V30 10248 H 987.965 -1.09084 3.85878 0
M  V30 10249 H 984.555 0.280524 4.27681 0
M  V30 10250 H 988.739 1.08064 4.84392 0
M  V30 10251 H 983.995 2.20235 5.70356 0
M  V30 10252 H 988.169 3.00084 6.28429 0
M  V30 10253 H 985.796 3.56762 6.71286 0
M  V30 10254 N 987.371 -1.57444 0.0701946 0
M  V30 10255 C 988.301 -2.15659 -0.895176 0
M  V30 10256 C 989.282 -1.08321 -1.31151 0
M  V30 10257 O 990.467 -1.36349 -1.38284 0
M  V30 10258 C 987.597 -2.71693 -2.16334 0
M  V30 10259 C 986.551 -3.84183 -1.88645 0
M  V30 10260 C 985.877 -4.26814 -3.22078 0
M  V30 10261 C 987.177 -5.08493 -1.19299 0
M  V30 10262 H 988.871 -2.96576 -0.410217 0
M  V30 10263 H 986.417 -1.42662 -0.195872 0
M  V30 10264 H 988.37 -3.11064 -2.84284 0
M  V30 10265 H 987.094 -1.87994 -2.67069 0
M  V30 10266 H 985.753 -3.45314 -1.23101 0
M  V30 10267 H 985.401 -3.40039 -3.70651 0
M  V30 10268 H 985.101 -5.02642 -3.04344 0
M  V30 10269 H 986.625 -4.68799 -3.91228 0
M  V30 10270 H 988.039 -5.4519 -1.77316 0
M  V30 10271 H 986.436 -5.89588 -1.11828 0
M  V30 10272 H 987.506 -4.84595 -0.171839 0
M  V30 10273 N 988.849 0.203349 -1.56283 0
M  V30 10274 C 989.779 1.2549 -1.96912 0
M  V30 10275 C 990.76 1.47919 -0.839884 0
M  V30 10276 O 991.945 1.59795 -1.10359 0
M  V30 10277 C 989.075 2.6009 -2.30153 0
M  V30 10278 C 988.029 2.52289 -3.45738 0
M  V30 10279 C 987.355 3.91086 -3.64632 0
M  V30 10280 C 988.655 2.05503 -4.80173 0
M  V30 10281 H 990.349 0.917306 -2.85002 0
M  V30 10282 H 987.895 0.439818 -1.37119 0
M  V30 10283 H 989.848 3.33829 -2.5717 0
M  V30 10284 H 988.572 2.95574 -1.38937 0
M  V30 10285 H 987.231 1.81006 -3.18798 0
M  V30 10286 H 986.879 4.23908 -2.7076 0
M  V30 10287 H 986.579 3.86742 -4.42385 0
M  V30 10288 H 988.103 4.66459 -3.94016 0
M  V30 10289 H 989.517 2.68995 -5.06275 0
M  V30 10290 H 987.914 2.1218 -5.61337 0
M  V30 10291 H 988.984 1.00793 -4.74309 0
M  V30 10292 N 990.327 1.50405 0.470755 0
M  V30 10293 C 991.604 1.51929 1.23195 0
M  V30 10294 C 991.984 0.264159 2.09441 0
M  V30 10295 O 991.332 -0.752395 2.15757 0
M  V30 10296 C 991.542 2.81521 2.06269 0
M  V30 10297 C 992.89 3.32195 2.64446 0
M  V30 10298 O 993.914 2.82845 2.16511 0
M  V30 10299 O 992.773 4.18221 3.51786 0
M  V30 10300 H 989.867 0.609411 0.559059 0
M  V30 10301 H 992.413 1.62695 0.482549 0
M  V30 10302 H 991.185 3.64346 1.42715 0
M  V30 10303 H 990.808 2.7376 2.88342 0
M  V30 10304 N 991.805 -0.723954 1.39988 0
M  V30 10305 C 992.735 -1.85103 1.42335 0
M  V30 10306 C 993.716 -1.6769 0.285297 0
M  V30 10307 O 994.901 -1.87846 0.492716 0
M  V30 10308 C 992.031 -3.22972 1.27697 0
M  V30 10309 C 990.985 -3.55041 2.39018 0
M  V30 10310 C 990.311 -4.91965 2.09462 0
M  V30 10311 C 991.611 -3.56889 3.8135 0
M  V30 10312 H 993.305 -1.83396 2.36656 0
M  V30 10313 H 990.851 -0.880926 1.13911 0
M  V30 10314 H 992.804 -4.01503 1.27958 0
M  V30 10315 H 991.528 -3.25233 0.298487 0
M  V30 10316 H 990.187 -2.78845 2.37993 0
M  V30 10317 H 989.835 -4.90819 1.10025 0
M  V30 10318 H 989.535 -5.14389 2.84038 0
M  V30 10319 H 991.059 -5.7284 2.11391 0
M  V30 10320 H 992.473 -4.25476 3.84243 0
M  V30 10321 H 990.87 -3.90836 4.55376 0
M  V30 10322 H 991.94 -2.56452 4.11534 0
M  V30 10323 N 993.283 -1.25346 -0.955304 0
M  V30 10324 C 994.246 -1.05754 -2.03344 0
M  V30 10325 C 995.246 -0.0105743 -1.60797 0
M  V30 10326 O 996.436 -0.252699 -1.72357 0
M  V30 10327 C 993.568 -0.605536 -3.35479 0
M  V30 10328 H 994.761 -2.01459 -2.22158 0
M  V30 10329 H 992.314 -1.07744 -1.1323 0
M  V30 10330 H 993.049 0.354154 -3.2236 0
M  V30 10331 H 992.834 -1.36134 -3.67709 0
M  V30 10332 H 994.324 -0.489867 -4.14717 0
M  V30 10333 N 994.761 1.15782 -1.06922 0
M  V30 10334 C 996.009 1.86097 -0.788192 0
M  V30 10335 C 996.33 1.82475 0.687606 0
M  V30 10336 O 995.6 1.26266 1.49778 0
M  V30 10337 H 994.18 0.689008 -0.288577 0
M  V30 10338 H 996.842 1.40377 -1.35205 0
M  V30 10339 H 995.938 2.91358 -1.1188 0
M  V30 10340 N 996.239 0.8527 1.3254 0
M  V30 10341 C 997.169 0.311234 2.31416 0
M  V30 10342 C 998.15 -0.588557 1.59593 0
M  V30 10343 O 999.335 -0.509211 1.87405 0
M  V30 10344 C 996.465 -0.502892 3.4364 0
M  V30 10345 C 995.419 0.302296 4.26931 0
M  V30 10346 C 994.745 -0.636445 5.30899 0
M  V30 10347 C 996.045 1.52697 4.99481 0
M  V30 10348 H 997.739 1.13742 2.76953 0
M  V30 10349 H 995.285 0.548389 1.33149 0
M  V30 10350 H 997.238 -0.892092 4.11849 0
M  V30 10351 H 995.962 -1.36242 2.96826 0
M  V30 10352 H 994.621 0.673226 3.60365 0
M  V30 10353 H 994.269 -1.49277 4.80339 0
M  V30 10354 H 993.969 -0.101716 5.87512 0
M  V30 10355 H 995.493 -1.02286 6.01972 0
M  V30 10356 H 996.907 1.21017 5.60382 0
M  V30 10357 H 995.304 1.9995 5.65809 0
M  V30 10358 H 996.374 2.28929 4.27457 0
M  V30 10359 N 997.718 -1.45297 0.610449 0
M  V30 10360 C 998.965 -2.02218 0.106759 0
M  V30 10361 C 999.293 -1.47849 -1.26376 0
M  V30 10362 O 998.548 -0.644402 -1.84786 0
M  V30 10363 C 998.847 -3.57394 0.0205329 0
M  V30 10364 C 998.513 -4.30928 1.32709 0
M  V30 10365 C 997.175 -4.50735 1.68498 0
M  V30 10366 C 999.527 -4.72936 2.19046 0
M  V30 10367 C 996.855 -5.09806 2.90371 0
M  V30 10368 C 999.207 -5.33355 3.40169 0
M  V30 10369 C 997.871 -5.51384 3.76207 0
M  V30 10370 H 997.141 -0.739969 0.039066 0
M  V30 10371 H 999.788 -1.74326 0.792638 0
M  V30 10372 H 998.093 -3.84581 -0.748623 0
M  V30 10373 H 999.79 -3.99144 -0.385386 0
M  V30 10374 H 996.38 -4.15827 1.03854 0
M  V30 10375 H 1000.56 -4.57365 1.92695 0
M  V30 10376 H 995.82 -5.21953 3.18395 0
M  V30 10377 H 999.994 -5.64859 4.07318 0
M  V30 10378 H 997.621 -5.96924 4.70729 0
M  V30 10379 N 999.196 -0.349774 -1.5367 0
M  V30 10380 C 1000.61 0.00191293 -1.596 0
M  V30 10381 C 1000.81 1.48175 -1.36552 0
M  V30 10382 O 999.868 2.24129 -1.16285 0
M  V30 10383 C 1001.18 -0.439848 -2.97466 0
M  V30 10384 C 1002.73 -0.392721 -3.10526 0
M  V30 10385 C 1003.2 -0.810047 -4.5078 0
M  V30 10386 N 1004.69 -0.764478 -4.56848 0
M  V30 10387 C 1005.43 -1.05927 -5.63531 0
M  V30 10388 N 1004.93 -1.42253 -6.78038 0
M  V30 10389 N 1006.72 -0.983098 -5.53436 0
M  V30 10390 H 998.87 -1.31364 -1.66905 0
M  V30 10391 H 1001.13 -0.535908 -0.781989 0
M  V30 10392 H 1000.84 -1.47189 -3.19419 0
M  V30 10393 H 1000.71 0.181735 -3.76762 0
M  V30 10394 H 1003.1 0.630161 -2.88293 0
M  V30 10395 H 1003.18 -1.04959 -2.33275 0
M  V30 10396 H 1002.82 -1.83097 -4.73749 0
M  V30 10397 H 1002.75 -0.130591 -5.26438 0
M  V30 10398 H 1005.25 -0.496637 -3.74622 0
M  V30 10399 H 1005.56 -1.63215 -7.55368 0
M  V30 10400 H 1003.9 -1.46104 -6.79469 0
M  V30 10401 H 1007.09 -0.698601 -4.62858 0
M  V30 10402 H 1007.27 -1.21618 -6.36485 0
M  V30 10403 N 1000.67 1.57404 -0.0785433 0
M  V30 10404 C 1001.92 1.9292 0.588626 0
M  V30 10405 C 1002.24 0.961106 1.70359 0
M  V30 10406 O 1003.44 1.20934 2.43079 0
M  V30 10407 C 1001.9 3.42729 1.09839 0
M  V30 10408 C 1001.51 4.47998 0.0140773 0
M  V30 10409 C 1003.25 3.87235 1.73924 0
M  V30 10410 C 1001.16 5.88945 0.538269 0
M  V30 10411 H 1000.09 0.720069 0.223645 0
M  V30 10412 H 1002.74 1.8287 -0.15187 0
M  V30 10413 H 1001.12 3.47875 1.89207 0
M  V30 10414 H 1002.29 4.54476 -0.760773 0
M  V30 10415 H 1000.61 4.13001 -0.53095 0
M  V30 10416 H 1003.21 4.89927 2.14186 0
M  V30 10417 H 1003.55 3.24971 2.60191 0
M  V30 10418 H 1004.08 3.84721 1.01168 0
M  V30 10419 H 1000.82 6.5487 -0.287395 0
M  V30 10420 H 1000.34 5.85972 1.28049 0
M  V30 10421 H 1002.02 6.39028 1.01253 0
M  V30 10422 N 1002.15 -0.195058 1.56388 0
M  V30 10423 C 1003.4 -0.915444 1.80626 0
M  V30 10424 C 1003.73 -1.83255 0.651768 0
M  V30 10425 O 1002.98 -1.92314 -0.362464 0
M  V30 10426 C 1003.28 -1.7637 3.10851 0
M  V30 10427 C 1002.95 -0.997572 4.39726 0
M  V30 10428 C 1001.61 -0.786043 4.74737 0
M  V30 10429 C 1003.96 -0.45851 5.19179 0
M  V30 10430 C 1001.29 -0.023972 5.86695 0
M  V30 10431 C 1003.64 0.29035 6.31933 0
M  V30 10432 C 1002.3 0.512895 6.65527 0
M  V30 10433 H 1001.57 -0.334985 0.660959 0
M  V30 10434 H 1004.22 -0.181815 1.90635 0
M  V30 10435 H 1002.53 -2.566 2.9608 0
M  V30 10436 H 1004.22 -2.3237 3.26811 0
M  V30 10437 H 1000.81 -1.17245 4.12252 0
M  V30 10438 H 1005 -0.609334 4.92545 0
M  V30 10439 H 1000.25 0.158421 6.11195 0
M  V30 10440 H 1004.43 0.715429 6.92715 0
M  V30 10441 H 1002.05 1.10531 7.52122 0
M  V30 10442 N 1003.63 -1.50653 -0.462772 0
M  V30 10443 C 1004.56 -1.73056 -1.5676 0
M  V30 10444 C 1005.54 -0.579699 -1.59917 0
M  V30 10445 O 1006.73 -0.819729 -1.76051 0
M  V30 10446 C 1003.86 -1.83234 -2.9503 0
M  V30 10447 C 1002.81 -2.98488 -3.06739 0
M  V30 10448 C 1002.14 -2.93818 -4.46738 0
M  V30 10449 C 1003.44 -4.38869 -2.83181 0
M  V30 10450 H 1005.13 -2.65562 -1.38265 0
M  V30 10451 H 1002.68 -1.27792 -0.663722 0
M  V30 10452 H 1004.63 -1.97491 -3.72257 0
M  V30 10453 H 1003.35 -0.873558 -3.14701 0
M  V30 10454 H 1002.01 -2.83895 -2.31946 0
M  V30 10455 H 1001.66 -1.95769 -4.63339 0
M  V30 10456 H 1001.36 -3.71197 -4.55507 0
M  V30 10457 H 1002.88 -3.10135 -5.25974 0
M  V30 10458 H 1004.3 -4.53945 -3.50153 0
M  V30 10459 H 1002.69 -5.17762 -3.03386 0
M  V30 10460 H 1003.76 -4.50663 -1.78972 0
M  V30 10461 N 1005.11 0.71652 -1.4037 0
M  V30 10462 C 1006.52 1.02447 -1.22379 0
M  V30 10463 C 1006.72 2.0126 -0.0983394 0
M  V30 10464 O 1005.78 2.46569 0.544071 0
M  V30 10465 C 1007.09 1.56909 -2.56515 0
M  V30 10466 C 1008.64 1.68898 -2.6352 0
M  V30 10467 C 1009.12 2.26765 -3.97922 0
M  V30 10468 N 1010.61 2.34152 -3.99658 0
M  V30 10469 C 1011.34 2.79907 -5.00439 0
M  V30 10470 N 1010.84 3.25422 -6.11615 0
M  V30 10471 N 1012.63 2.79283 -4.87809 0
M  V30 10472 H 1004.78 0.0615306 -2.12311 0
M  V30 10473 H 1007.05 0.0898994 -0.943728 0
M  V30 10474 H 1006.75 0.917649 -3.39517 0
M  V30 10475 H 1006.63 2.55446 -2.77538 0
M  V30 10476 H 1009.01 2.33159 -1.8089 0
M  V30 10477 H 1009.09 0.689626 -2.46329 0
M  V30 10478 H 1008.74 1.63126 -4.80991 0
M  V30 10479 H 1008.67 3.27413 -4.12442 0
M  V30 10480 H 1011.16 2.02006 -3.19378 0
M  V30 10481 H 1011.47 3.58899 -6.84406 0
M  V30 10482 H 1009.82 3.23383 -6.15181 0
M  V30 10483 H 1013.01 2.43061 -4.00049 0
M  V30 10484 H 1013.18 3.14626 -5.66493 0
M  V30 10485 N 1006.59 1.25851 0.948643 0
M  V30 10486 C 1007.53 1.06559 2.06756 0
M  V30 10487 C 1008.53 -0.00528632 1.69399 0
M  V30 10488 O 1009.73 0.150806 1.79367 0
M  V30 10489 H 1006.11 0.327689 0.676848 0
M  V30 10490 H 1008.08 2.01401 2.20182 0
M  V30 10491 C 1006.83 0.707392 3.40428 0
M  V30 10492 H 1006.15 1.52324 3.69645 0
M  V30 10493 H 1007.59 0.612142 4.19558 0
M  V30 10494 C 1006.05 -0.58697 3.31747 0
M  V30 10495 O 1006.58 -1.62741 3.67258 0
M  V30 10496 N 1004.79 -0.574828 2.84858 0
M  V30 10497 H 1004.33 0.272236 2.56157 0
M  V30 10498 H 1004.29 -1.441 2.79432 0
M  V30 10499 N 1008.06 -1.15214 1.07534 0
M  V30 10500 C 1009.03 -2.18209 0.701237 0
M  V30 10501 C 1010.03 -1.58693 -0.25946 0
M  V30 10502 O 1011.22 -1.74154 -0.0401744 0
M  V30 10503 C 1008.35 -3.40883 0.0338703 0
M  V30 10504 H 1009.54 -2.5282 1.61314 0
M  V30 10505 H 1007.1 -1.29707 0.872105 0
M  V30 10506 H 1007.83 -3.11843 -0.890187 0
M  V30 10507 H 1007.62 -3.85342 0.72486 0
M  V30 10508 H 1009.11 -4.17056 -0.213152 0
M  V30 10509 N 1009.54 -0.859717 -1.32086 0
M  V30 10510 C 1010.77 -0.479028 -2.0097 0
M  V30 10511 C 1011.18 0.930242 -1.64752 0
M  V30 10512 O 1010.52 1.6193 -0.867437 0
M  V30 10513 C 1010.59 -0.54431 -3.55355 0
M  V30 10514 C 1010.25 -1.91337 -4.15017 0
M  V30 10515 C 1011.25 -2.87951 -4.32874 0
M  V30 10516 C 1008.93 -2.21189 -4.50977 0
M  V30 10517 C 1010.93 -4.12567 -4.85867 0
M  V30 10518 C 1008.61 -3.46057 -5.03674 0
M  V30 10519 C 1009.61 -4.41562 -5.21068 0
M  V30 10520 O 1009.3 -5.64218 -5.72637 0
M  V30 10521 H 1009.03 -0.186161 -0.649861 0
M  V30 10522 H 1011.58 -1.15976 -1.69525 0
M  V30 10523 H 1009.81 0.1933 -3.86217 0
M  V30 10524 H 1011.5 -0.178506 -4.05507 0
M  V30 10525 H 1012.27 -2.66194 -4.05421 0
M  V30 10526 H 1008.15 -1.47635 -4.36721 0
M  V30 10527 H 1011.69 -4.8712 -4.99359 0
M  V30 10528 H 1007.59 -3.67662 -5.30561 0
M  V30 10529 H 1008.36 -5.66246 -5.91023 0
M  V30 10530 N 1011.02 1.44971 -0.618145 0
M  V30 10531 C 1012.27 2.02458 -0.117656 0
M  V30 10532 C 1012.6 1.48413 1.25248 0
M  V30 10533 O 1011.87 0.662997 1.82851 0
M  V30 10534 C 1012.16 3.59987 -0.0901897 0
M  V30 10535 C 1012.01 4.24343 -1.49175 0
M  V30 10536 C 1013.33 4.36099 0.592121 0
M  V30 10537 H 1010.45 0.735672 -0.0442291 0
M  V30 10538 H 1013.09 1.727 -0.792138 0
M  V30 10539 H 1011.24 3.85471 0.484175 0
M  V30 10540 H 1012.91 4.10009 -2.114 0
M  V30 10541 H 1011.16 3.82337 -2.04941 0
M  V30 10542 H 1011.83 5.33298 -1.42468 0
M  V30 10543 H 1014.3 4.1597 0.103813 0
M  V30 10544 H 1013.18 5.45822 0.580481 0
M  V30 10545 H 1013.44 4.09746 1.66015 0
M  V30 10546 N 1012.5 0.357919 1.53482 0
M  V30 10547 C 1013.73 -0.234799 2.05261 0
M  V30 10548 C 1014.14 -1.43618 1.23169 0
M  V30 10549 O 1013.48 -1.81801 0.263435 0
M  V30 10550 C 1013.54 -0.699748 3.52624 0
M  V30 10551 C 1013.21 0.383905 4.55385 0
M  V30 10552 C 1014.2 1.23129 5.05109 0
M  V30 10553 C 1011.89 0.541953 4.99368 0
M  V30 10554 C 1013.88 2.22214 5.97411 0
M  V30 10555 C 1011.57 1.53618 5.91477 0
M  V30 10556 C 1012.57 2.37471 6.40388 0
M  V30 10557 O 1012.25 3.35199 7.30682 0
M  V30 10558 H 1011.99 -0.0465364 0.674396 0
M  V30 10559 H 1014.54 0.512355 1.98907 0
M  V30 10560 H 1012.77 -1.49838 3.5649 0
M  V30 10561 H 1014.46 -1.21461 3.87301 0
M  V30 10562 H 1015.23 1.12035 4.71883 0
M  V30 10563 H 1011.1 -0.100929 4.6089 0
M  V30 10564 H 1014.65 2.87702 6.35511 0
M  V30 10565 H 1010.55 1.64763 6.24118 0
M  V30 10566 H 1011.31 3.30838 7.48658 0
M  V30 10567 N 1013.98 -1.5736 0.0868897 0
M  V30 10568 C 1015.2 -1.98388 -0.587349 0
M  V30 10569 C 1015.62 -0.965757 -1.6223 0
M  V30 10570 O 1014.98 0.0456981 -1.82443 0
M  V30 10571 C 1015.03 -3.39479 -1.24242 0
M  V30 10572 O 1014.75 -4.37393 -0.248878 0
M  V30 10573 C 1016.25 -3.95465 -2.00305 0
M  V30 10574 H 1013.47 -0.652111 -0.15809 0
M  V30 10575 H 1016.01 -2.03843 0.163754 0
M  V30 10576 H 1014.17 -3.35063 -1.94451 0
M  V30 10577 H 1014.58 -5.19525 -0.720678 0
M  V30 10578 H 1016.06 -4.96363 -2.41511 0
M  V30 10579 H 1016.53 -3.32832 -2.86565 0
M  V30 10580 H 1017.14 -4.03328 -1.34931 0
M  V30 10581 N 1015.45 0.186762 -1.56489 0
M  V30 10582 C 1016.68 0.925916 -1.85584 0
M  V30 10583 C 1017.1 1.75708 -0.671446 0
M  V30 10584 O 1016.46 1.7728 0.379687 0
M  V30 10585 C 1016.51 1.79107 -3.12975 0
M  V30 10586 O 1015.61 2.89088 -2.94112 0
M  V30 10587 H 1014.96 0.260275 -0.610863 0
M  V30 10588 H 1017.49 0.189561 -2.0372 0
M  V30 10589 H 1017.5 2.19408 -3.43983 0
M  V30 10590 H 1016.17 1.18044 -3.98796 0
M  V30 10591 H 1014.75 2.52482 -2.74422 0
M  V30 10592 N 1016.93 1.50896 0.454776 0
M  V30 10593 C 1017.86 1.6712 1.56855 0
M  V30 10594 C 1018.88 0.552223 1.53148 0
M  V30 10595 O 1020.07 0.825969 1.5824 0
M  V30 10596 C 1017.17 1.65464 2.95762 0
M  V30 10597 C 1016.34 2.93662 3.24163 0
M  V30 10598 C 1015.4 2.84428 4.42704 0
M  V30 10599 O 1014.42 3.58382 4.42211 0
M  V30 10600 N 1015.63 1.9909 5.45292 0
M  V30 10601 H 1018.39 2.63194 1.43349 0
M  V30 10602 H 1015.95 1.48564 0.643457 0
M  V30 10603 H 1017.94 1.56878 3.73057 0
M  V30 10604 H 1016.51 0.770568 3.02954 0
M  V30 10605 H 1015.73 3.16251 2.35328 0
M  V30 10606 H 1017.02 3.78558 3.39957 0
M  V30 10607 H 1016.42 1.3835 5.48521 0
M  V30 10608 H 1014.98 1.96396 6.21508 0
M  V30 10609 N 1018.41 -0.709066 1.40748 0
M  V30 10610 C 1019.66 -1.46611 1.39103 0
M  V30 10611 C 1019.98 -1.95 -0.00365366 0
M  V30 10612 O 1019.25 -1.70791 -0.959541 0
M  V30 10613 H 1017.83 -0.543954 0.511979 0
M  V30 10614 H 1020.49 -0.840141 1.75863 0
M  V30 10615 H 1019.59 -2.33581 2.06994 0
M  V30 10616 N 1019.89 -1.26353 -0.941956 0
M  V30 10617 C 1021.14 -1.11851 -1.68806 0
M  V30 10618 C 1021.46 0.33829 -1.91535 0
M  V30 10619 O 1020.72 1.26495 -1.49324 0
M  V30 10620 C 1021.02 -1.83195 -3.06879 0
M  V30 10621 C 1020.68 -3.33093 -3.03908 0
M  V30 10622 C 1019.35 -3.73982 -3.02805 0
M  V30 10623 C 1021.7 -4.28803 -2.96273 0
M  V30 10624 C 1019.03 -5.08971 -2.91832 0
M  V30 10625 C 1021.38 -5.6383 -2.86842 0
M  V30 10626 C 1020.04 -6.04032 -2.84081 0
M  V30 10627 H 1019.31 -0.409293 -0.617706 0
M  V30 10628 H 1021.96 -1.56785 -1.09957 0
M  V30 10629 H 1020.26 -1.30728 -3.69347 0
M  V30 10630 H 1021.96 -1.69416 -3.63455 0
M  V30 10631 H 1018.55 -3.00566 -3.05546 0
M  V30 10632 H 1022.74 -3.98195 -2.96234 0
M  V30 10633 H 1017.99 -5.39282 -2.88072 0
M  V30 10634 H 1022.17 -6.37676 -2.79898 0
M  V30 10635 H 1019.79 -7.08586 -2.75335 0
M  V30 10636 N 1021.37 1.14642 -1.08144 0
M  V30 10637 C 1022.61 1.85892 -0.810683 0
M  V30 10638 C 1022.95 1.82575 0.661821 0
M  V30 10639 O 1022.22 1.25454 1.48632 0
M  V30 10640 C 1022.5 3.34647 -1.32979 0
M  V30 10641 C 1022.36 3.46551 -2.86744 0
M  V30 10642 C 1023.68 4.29661 -0.952864 0
M  V30 10643 H 1020.8 0.674963 -0.295963 0
M  V30 10644 H 1023.44 1.3464 -1.3406 0
M  V30 10645 H 1021.59 3.78425 -0.87903 0
M  V30 10646 H 1023.26 3.11579 -3.40171 0
M  V30 10647 H 1021.5 2.87849 -3.24539 0
M  V30 10648 H 1022.17 4.51101 -3.18138 0
M  V30 10649 H 1024.65 3.93885 -1.34141 0
M  V30 10650 H 1023.53 5.32209 -1.34331 0
M  V30 10651 H 1023.79 4.41877 0.140392 0
M  V30 10652 N 1022.85 0.866709 1.31628 0
M  V30 10653 C 1024.09 0.476731 1.97117 0
M  V30 10654 C 1024.42 -0.967813 1.68366 0
M  V30 10655 O 1023.7 -1.68101 0.978377 0
M  V30 10656 C 1023.98 0.730561 3.52611 0
M  V30 10657 C 1023.84 2.2244 3.90948 0
M  V30 10658 C 1025.15 0.19488 4.39668 0
M  V30 10659 H 1022.27 0.174682 0.715999 0
M  V30 10660 H 1024.92 1.08735 1.5581 0
M  V30 10661 H 1023.07 0.210834 3.87927 0
M  V30 10662 H 1024.74 2.81113 3.6575 0
M  V30 10663 H 1022.98 2.69824 3.39673 0
M  V30 10664 H 1023.65 2.35266 4.99353 0
M  V30 10665 H 1026.13 0.639478 4.11157 0
M  V30 10666 H 1025 0.401958 5.47426 0
M  V30 10667 H 1025.26 -0.90302 4.32779 0
M  V30 10668 N 1024.32 -1.44642 0.625825 0
M  V30 10669 C 1025.57 -2.02393 0.128391 0
M  V30 10670 C 1025.9 -1.49075 -1.2446 0
M  V30 10671 O 1025.18 -0.672684 -1.82497 0
M  V30 10672 C 1025.46 -3.59934 0.109279 0
M  V30 10673 C 1025.31 -4.23546 1.51423 0
M  V30 10674 C 1026.63 -4.36406 -0.568985 0
M  V30 10675 H 1023.75 -0.735427 0.0481299 0
M  V30 10676 H 1026.39 -1.72277 0.801286 0
M  V30 10677 H 1024.54 -3.85722 -0.463726 0
M  V30 10678 H 1026.22 -4.08882 2.13572 0
M  V30 10679 H 1024.46 -3.81245 2.06966 0
M  V30 10680 H 1025.13 -5.32535 1.45294 0
M  V30 10681 H 1027.61 -4.1602 -0.0817516 0
M  V30 10682 H 1026.48 -5.46122 -0.551527 0
M  V30 10683 H 1026.74 -4.1062 -1.6384 0
M  V30 10684 N 1025.8 -0.366053 -1.5329 0
M  V30 10685 C 1026.75 0.495319 -2.27265 0
M  V30 10686 C 1027.74 1.08298 -1.30261 0
M  V30 10687 O 1028.95 1.02613 -1.47887 0
M  V30 10688 H 1025.32 0.178454 -0.730519 0
M  V30 10689 H 1027.3 -0.150354 -2.98021 0
M  V30 10690 C 1026.04 1.62283 -3.07505 0
M  V30 10691 H 1025.37 1.17993 -3.81992 0
M  V30 10692 H 1026.81 2.20024 -3.62444 0
M  V30 10693 C 1025.27 2.56542 -2.18375 0
M  V30 10694 O 1025.8 3.59371 -1.79486 0
M  V30 10695 N 1024 2.25742 -1.82999 0
M  V30 10696 H 1023.55 1.42159 -2.14822 0
M  V30 10697 H 1023.51 2.89064 -1.2365 0
M  V30 10698 N 1027.28 1.57312 -0.0952337 0
M  V30 10699 C 1028.53 1.93974 0.567319 0
M  V30 10700 C 1028.85 0.977805 1.68713 0
M  V30 10701 O 1028.12 0.0298944 1.95877 0
M  V30 10702 H 1026.7 0.71612 0.212558 0
M  V30 10703 H 1029.36 1.94254 -0.158598 0
M  V30 10704 H 1028.46 2.964 0.977423 0
M  V30 10705 N 1028.76 -0.17846 1.56586 0
M  V30 10706 C 1029.7 -1.22104 1.95855 0
M  V30 10707 C 1030.67 -1.44366 0.821447 0
M  V30 10708 O 1031.86 -1.57224 1.08098 0
M  V30 10709 C 1029 -2.55701 2.31757 0
M  V30 10710 C 1028.11 -2.40879 3.5861 0
M  V30 10711 C 1027.25 -3.67293 3.83757 0
M  V30 10712 C 1026.29 -3.47373 5.03982 0
M  V30 10713 N 1025.42 -4.65839 5.25298 0
M  V30 10714 H 1030.26 -0.879168 2.84736 0
M  V30 10715 H 1027.8 -0.422721 1.40895 0
M  V30 10716 H 1029.76 -3.33556 2.50592 0
M  V30 10717 H 1028.39 -2.87898 1.45995 0
M  V30 10718 H 1027.44 -1.54236 3.47729 0
M  V30 10719 H 1028.75 -2.22102 4.46623 0
M  V30 10720 H 1027.91 -4.53584 4.02922 0
M  V30 10721 H 1026.65 -3.89041 2.94107 0
M  V30 10722 H 1025.65 -2.59467 4.84723 0
M  V30 10723 H 1026.88 -3.27055 5.95157 0
M  V30 10724 H 1024.82 -4.8782 4.38598 0
M  V30 10725 H 1024.74 -4.4995 6.0752 0
M  V30 10726 H 1026.01 -5.53435 5.48936 0
M  V30 10727 N 1030.24 -1.51135 -0.446768 0
M  V30 10728 C 1031.48 -1.63578 -1.19875 0
M  V30 10729 C 1031.81 -0.346478 -1.91084 0
M  V30 10730 O 1031.09 0.653447 -1.83195 0
M  V30 10731 C 1031.37 -2.83275 -2.22323 0
M  V30 10732 C 1031.23 -4.22155 -1.55259 0
M  V30 10733 C 1032.54 -2.98496 -3.23401 0
M  V30 10734 H 1029.66 -0.595333 -0.434452 0
M  V30 10735 H 1032.31 -1.83593 -0.48923 0
M  V30 10736 H 1030.46 -2.6634 -2.82834 0
M  V30 10737 H 1032.13 -4.50736 -0.981571 0
M  V30 10738 H 1030.37 -4.25288 -0.855122 0
M  V30 10739 H 1031.04 -5.01882 -2.29823 0
M  V30 10740 H 1033.52 -3.14079 -2.72935 0
M  V30 10741 H 1032.39 -3.83828 -3.92386 0
M  V30 10742 H 1032.65 -2.10157 -3.88956 0
M  V30 10743 N 1031.71 0.701592 -1.41122 0
M  V30 10744 C 1032.94 1.49553 -1.43696 0
M  V30 10745 C 1033.36 1.88053 -0.0421865 0
M  V30 10746 O 1032.72 1.54223 0.953144 0
M  V30 10747 C 1032.77 2.73834 -2.34622 0
M  V30 10748 O 1031.87 3.71088 -1.7991 0
M  V30 10749 H 1031.21 0.450352 -0.487933 0
M  V30 10750 H 1033.74 0.862886 -1.85514 0
M  V30 10751 H 1033.75 3.22209 -2.5029 0
M  V30 10752 H 1032.43 2.45149 -3.35969 0
M  V30 10753 H 1031.01 3.29994 -1.73661 0
M  V30 10754 N 1033.19 1.2685 0.935242 0
M  V30 10755 C 1034.42 1.15538 1.71635 0
M  V30 10756 C 1034.83 -0.288698 1.8658 0
M  V30 10757 O 1034.19 -1.19721 1.37743 0
M  V30 10758 C 1034.24 1.8259 3.11999 0
M  V30 10759 O 1033.96 3.21355 2.97763 0
M  V30 10760 C 1035.46 1.77307 4.06297 0
M  V30 10761 H 1032.68 0.402055 0.537208 0
M  V30 10762 H 1035.23 1.67582 1.17203 0
M  V30 10763 H 1033.38 1.3447 3.63313 0
M  V30 10764 H 1033.8 3.54626 3.86446 0
M  V30 10765 H 1035.27 2.28851 5.02326 0
M  V30 10766 H 1035.75 0.740823 4.32907 0
M  V30 10767 H 1036.35 2.25007 3.60904 0
M  V30 10768 N 1034.67 -1.14067 1.0875 0
M  V30 10769 C 1035.6 -2.21385 0.74236 0
M  V30 10770 C 1036.58 -1.67833 -0.276805 0
M  V30 10771 O 1037.77 -1.93647 -0.1464 0
M  V30 10772 C 1034.9 -3.46956 0.154644 0
M  V30 10773 C 1033.85 -4.13555 1.10255 0
M  V30 10774 C 1033.18 -5.3337 0.376877 0
M  V30 10775 C 1034.48 -4.6169 2.44213 0
M  V30 10776 H 1036.17 -2.50512 1.63964 0
M  V30 10777 H 1033.72 -1.20408 0.789807 0
M  V30 10778 H 1035.67 -4.21284 -0.0988419 0
M  V30 10779 H 1034.39 -3.17203 -0.777789 0
M  V30 10780 H 1033.05 -3.41186 1.34119 0
M  V30 10781 H 1032.7 -4.99879 -0.559472 0
M  V30 10782 H 1032.4 -5.78875 1.00884 0
M  V30 10783 H 1033.92 -6.10458 0.131527 0
M  V30 10784 H 1035.34 -5.27475 2.24595 0
M  V30 10785 H 1033.74 -5.17909 3.03134 0
M  V30 10786 H 1034.81 -3.76574 3.05483 0
M  V30 10787 N 1036.15 -0.873678 -1.31166 0
M  V30 10788 C 1037.39 -0.487178 -1.96861 0
M  V30 10789 C 1037.73 0.95887 -1.68877 0
M  V30 10790 O 1037 1.6758 -0.987279 0
M  V30 10791 C 1037.29 -0.74925 -3.52219 0
M  V30 10792 C 1037.14 -2.2451 -3.89763 0
M  V30 10793 C 1038.46 -0.218194 -4.39559 0
M  V30 10794 H 1035.58 -0.178477 -0.715063 0
M  V30 10795 H 1038.22 -1.0956 -1.55231 0
M  V30 10796 H 1036.37 -0.231403 -3.8781 0
M  V30 10797 H 1038.04 -2.83049 -3.64254 0
M  V30 10798 H 1036.28 -2.71621 -3.38237 0
M  V30 10799 H 1036.95 -2.37911 -4.98099 0
M  V30 10800 H 1039.43 -0.661274 -4.10812 0
M  V30 10801 H 1038.31 -0.430983 -5.47205 0
M  V30 10802 H 1038.57 0.880056 -4.33252 0
M  V30 10803 N 1037.63 1.44308 -0.633487 0
M  V30 10804 C 1038.57 2.30694 0.0700257 0
M  V30 10805 C 1039.54 1.43618 0.834447 0
M  V30 10806 O 1040.73 1.72517 0.815014 0
M  V30 10807 C 1037.87 3.28929 1.04403 0
M  V30 10808 C 1036.98 4.31106 0.277779 0
M  V30 10809 C 1036.12 5.16433 1.24381 0
M  V30 10810 C 1035.16 6.10317 0.466855 0
M  V30 10811 N 1034.29 6.88335 1.38347 0
M  V30 10812 H 1039.13 2.90311 -0.672567 0
M  V30 10813 H 1036.67 1.43034 -0.343449 0
M  V30 10814 H 1038.63 3.84373 1.62214 0
M  V30 10815 H 1037.26 2.71006 1.75372 0
M  V30 10816 H 1036.31 3.78115 -0.416292 0
M  V30 10817 H 1037.62 4.97725 -0.327251 0
M  V30 10818 H 1036.78 5.76406 1.89318 0
M  V30 10819 H 1035.51 4.49893 1.88276 0
M  V30 10820 H 1034.52 5.49451 -0.195989 0
M  V30 10821 H 1035.74 6.78894 -0.167414 0
M  V30 10822 H 1033.69 6.24461 2.00959 0
M  V30 10823 H 1033.61 7.51402 0.832517 0
M  V30 10824 H 1034.88 7.52829 2.0216 0
M  V30 10825 N 1039.1 0.374177 1.53094 0
M  V30 10826 C 1040.04 -0.503065 2.23611 0
M  V30 10827 C 1041.05 -1.03915 1.25321 0
M  V30 10828 O 1042.24 -0.944064 1.51492 0
M  V30 10829 C 1039.34 -1.70825 2.92698 0
M  V30 10830 C 1038.51 -1.30217 4.17567 0
M  V30 10831 C 1037.57 -2.37036 4.69788 0
M  V30 10832 O 1036.6 -1.99069 5.33254 0
M  V30 10833 N 1037.8 -3.68743 4.4834 0
M  V30 10834 H 1040.56 0.101013 2.9953 0
M  V30 10835 H 1038.12 0.199778 1.60663 0
M  V30 10836 H 1040.12 -2.41779 3.24538 0
M  V30 10837 H 1038.69 -2.219 2.2018 0
M  V30 10838 H 1037.91 -0.422121 3.91933 0
M  V30 10839 H 1039.19 -1.00728 4.9873 0
M  V30 10840 H 1038.59 -4.0236 3.97647 0
M  V30 10841 H 1037.15 -4.35776 4.84709 0
M  V30 10842 N 1040.58 -1.57259 0.103575 0
M  V30 10843 C 1041.83 -1.94945 -0.558953 0
M  V30 10844 C 1042.16 -0.986038 -1.67305 0
M  V30 10845 O 1041.44 -0.0205464 -1.94489 0
M  V30 10846 C 1041.72 -3.42689 -1.10617 0
M  V30 10847 C 1041.57 -4.498 0.00345246 0
M  V30 10848 C 1042.89 -3.91933 -2.00191 0
M  V30 10849 H 1040.01 -0.708859 -0.201713 0
M  V30 10850 H 1042.65 -1.89183 0.176006 0
M  V30 10851 H 1040.8 -3.4773 -1.73251 0
M  V30 10852 H 1042.47 -4.56866 0.638082 0
M  V30 10853 H 1040.72 -4.28615 0.668705 0
M  V30 10854 H 1041.39 -5.50397 -0.420396 0
M  V30 10855 H 1043.86 -3.89098 -1.4745 0
M  V30 10856 H 1042.74 -4.9586 -2.35402 0
M  V30 10857 H 1043 -3.31722 -2.92255 0
M  V30 10858 N 1042.06 0.170153 -1.56679 0
M  V30 10859 C 1042.99 1.21285 -1.9953 0
M  V30 10860 C 1043.97 1.46104 -0.871071 0
M  V30 10861 O 1045.16 1.57419 -1.13724 0
M  V30 10862 C 1042.29 2.5515 -2.35618 0
M  V30 10863 C 1041.24 2.44898 -3.51011 0
M  V30 10864 C 1040.57 3.83263 -3.72845 0
M  V30 10865 C 1041.87 1.95271 -4.84424 0
M  V30 10866 H 1043.56 0.856646 -2.86883 0
M  V30 10867 H 1041.11 0.410634 -1.38021 0
M  V30 10868 H 1043.06 3.28299 -2.64193 0
M  V30 10869 H 1041.78 2.92561 -1.45175 0
M  V30 10870 H 1040.44 1.74203 -3.22566 0
M  V30 10871 H 1040.09 4.18069 -2.79691 0
M  V30 10872 H 1039.79 3.77272 -4.50488 0
M  V30 10873 H 1041.31 4.57996 -4.03822 0
M  V30 10874 H 1042.73 2.58195 -5.11867 0
M  V30 10875 H 1041.13 2.00225 -5.65712 0
M  V30 10876 H 1042.2 0.90709 -4.7634 0
M  V30 10877 N 1043.54 1.5137 0.438746 0
M  V30 10878 C 1044.82 1.54508 1.19944 0
M  V30 10879 C 1045.2 0.308525 2.08833 0
M  V30 10880 O 1044.54 -0.706461 2.17305 0
M  V30 10881 C 1044.75 2.85833 2.00251 0
M  V30 10882 C 1046.1 3.37729 2.5734 0
M  V30 10883 O 1047.13 2.87374 2.10463 0
M  V30 10884 O 1045.98 4.25589 3.42836 0
M  V30 10885 H 1043.08 0.621132 0.546007 0
M  V30 10886 H 1045.62 1.63682 0.447931 0
M  V30 10887 H 1044.4 3.67291 1.34955 0
M  V30 10888 H 1044.02 2.79815 2.8247 0
M  V30 10889 N 1045.02 -0.694098 1.41492 0
M  V30 10890 C 1045.95 -1.82042 1.46229 0
M  V30 10891 C 1046.93 -1.67047 0.320803 0
M  V30 10892 O 1048.11 -1.86758 0.53245 0
M  V30 10893 C 1045.24 -3.2019 1.34519 0
M  V30 10894 C 1044.2 -3.49892 2.46495 0
M  V30 10895 C 1043.52 -4.87411 2.1985 0
M  V30 10896 C 1044.82 -3.4872 3.88834 0
M  V30 10897 H 1046.52 -1.78335 2.40493 0
M  V30 10898 H 1044.06 -0.856566 1.15754 0
M  V30 10899 H 1046.02 -3.98699 1.36445 0
M  V30 10900 H 1044.74 -3.24527 0.367406 0
M  V30 10901 H 1043.4 -2.73734 2.43854 0
M  V30 10902 H 1043.05 -4.88375 1.20411 0
M  V30 10903 H 1042.75 -5.08248 2.94885 0
M  V30 10904 H 1044.27 -5.68228 2.23494 0
M  V30 10905 H 1045.68 -4.1723 3.93182 0
M  V30 10906 H 1044.08 -3.81089 4.63564 0
M  V30 10907 H 1045.15 -2.47665 4.16881 0
M  V30 10908 N 1046.49 -1.27344 -0.928501 0
M  V30 10909 C 1047.42 -1.12517 -2.04602 0
M  V30 10910 C 1048.41 -0.0268563 -1.70079 0
M  V30 10911 O 1049.59 -0.201197 -1.93155 0
M  V30 10912 C 1046.72 -0.770749 -3.3864 0
M  V30 10913 C 1045.67 -1.8222 -3.87272 0
M  V30 10914 C 1045 -1.32178 -5.18105 0
M  V30 10915 C 1046.3 -3.22614 -4.10752 0
M  V30 10916 H 1047.99 -2.06 -2.17265 0
M  V30 10917 H 1045.54 -0.991827 -1.04397 0
M  V30 10918 H 1047.49 -0.653843 -4.16297 0
M  V30 10919 H 1046.22 0.19979 -3.25988 0
M  V30 10920 H 1044.88 -1.928 -3.11807 0
M  V30 10921 H 1044.52 -0.340719 -5.01845 0
M  V30 10922 H 1044.22 -2.02474 -5.51614 0
M  V30 10923 H 1045.75 -1.2178 -5.98333 0
M  V30 10924 H 1047.16 -3.1504 -4.78981 0
M  V30 10925 H 1045.56 -3.90614 -4.55566 0
M  V30 10926 H 1046.63 -3.67727 -3.16077 0
M  V30 10927 N 1047.97 1.13488 -1.09353 0
M  V30 10928 C 1048.92 2.20949 -0.726923 0
M  V30 10929 C 1049.91 1.67205 0.271816 0
M  V30 10930 O 1051.12 1.79505 0.133356 0
M  V30 10931 H 1047.5 0.719985 -0.217086 0
M  V30 10932 H 1049.47 2.49134 -1.6424 0
M  V30 10933 C 1048.22 3.47319 -0.162822 0
M  V30 10934 H 1047.54 3.89011 -0.922527 0
M  V30 10935 H 1048.98 4.23963 0.0557734 0
M  V30 10936 C 1047.44 3.18376 1.10175 0
M  V30 10937 O 1047.97 3.3707 2.18511 0
M  V30 10938 N 1046.17 2.72262 1.01597 0
M  V30 10939 H 1045.72 2.5725 0.134289 0
M  V30 10940 H 1045.68 2.53272 1.86281 0
M  V30 10941 N 1049.45 0.880621 1.30701 0
M  V30 10942 C 1050.4 0.342397 2.28246 0
M  V30 10943 C 1051.37 -0.565023 1.56194 0
M  V30 10944 O 1052.55 -0.494377 1.84284 0
M  V30 10945 C 1049.69 -0.440859 3.42272 0
M  V30 10946 C 1048.81 0.495284 4.29151 0
M  V30 10947 C 1047.94 -0.303141 5.30334 0
M  V30 10948 C 1046.98 0.628751 6.08862 0
M  V30 10949 N 1046.12 -0.13408 7.01972 0
M  V30 10950 H 1050.96 1.17938 2.73669 0
M  V30 10951 H 1048.49 0.59296 1.34619 0
M  V30 10952 H 1050.45 -0.910854 4.07135 0
M  V30 10953 H 1049.08 -1.24245 2.97931 0
M  V30 10954 H 1048.13 1.08376 3.64635 0
M  V30 10955 H 1049.45 1.2094 4.83916 0
M  V30 10956 H 1048.6 -0.835181 6.00924 0
M  V30 10957 H 1047.34 -1.05049 4.76252 0
M  V30 10958 H 1046.34 1.17246 5.37153 0
M  V30 10959 H 1047.57 1.37512 6.65032 0
M  V30 10960 H 1045.52 -0.864046 6.50285 0
M  V30 10961 H 1045.43 0.520486 7.54206 0
M  V30 10962 H 1046.7 -0.647005 7.7681 0
M  V30 10963 N 1050.93 -1.4397 0.641131 0
M  V30 10964 C 1052.18 -2.01548 0.149333 0
M  V30 10965 C 1052.5 -1.50759 -1.23679 0
M  V30 10966 O 1051.77 -0.715257 -1.82376 0
M  V30 10967 H 1050.35 -0.745173 0.0522161 0
M  V30 10968 H 1053.01 -1.7634 0.830082 0
M  V30 10969 H 1052.11 -3.11851 0.124676 0
M  V30 10970 N 1052.41 -0.382291 -1.52893 0
M  V30 10971 C 1053.34 0.500194 -2.22651 0
M  V30 10972 C 1054.32 1.06969 -1.22459 0
M  V30 10973 O 1055.5 1.12267 -1.51422 0
M  V30 10974 C 1052.63 1.6917 -2.93427 0
M  V30 10975 C 1051.68 1.24811 -4.07829 0
M  V30 10976 S 1052.51 0.235466 -5.34982 0
M  V30 10977 C 1053.66 1.43292 -6.09277 0
M  V30 10978 H 1053.9 -0.0921913 -2.97157 0
M  V30 10979 H 1051.43 -0.16645 -1.535 0
M  V30 10980 H 1053.39 2.37507 -3.34815 0
M  V30 10981 H 1052.05 2.25537 -2.18613 0
M  V30 10982 H 1051.24 2.13754 -4.56426 0
M  V30 10983 H 1050.84 0.643744 -3.68418 0
M  V30 10984 H 1053.14 2.36118 -6.35023 0
M  V30 10985 H 1054.08 0.988003 -7.01173 0
M  V30 10986 H 1054.49 1.64655 -5.39953 0
M  V30 10987 N 1053.89 1.57202 -0.111913 0
M  V30 10988 C 1054.82 2.11995 0.871242 0
M  V30 10989 C 1055.83 1.06102 1.23475 0
M  V30 10990 O 1057.02 1.33497 1.18494 0
M  V30 10991 C 1054.12 2.59874 2.17528 0
M  V30 10992 C 1053.29 3.89788 1.98455 0
M  V30 10993 C 1052.35 4.23339 3.12523 0
M  V30 10994 O 1051.38 4.92277 2.85748 0
M  V30 10995 N 1052.58 3.80089 4.38762 0
M  V30 10996 H 1055.34 2.96976 0.403157 0
M  V30 10997 H 1052.91 1.61737 0.0727159 0
M  V30 10998 H 1054.9 2.79354 2.9282 0
M  V30 10999 H 1053.47 1.79812 2.55707 0
M  V30 11000 H 1052.69 3.79288 1.07396 0
M  V30 11001 H 1053.98 4.74748 1.83007 0
M  V30 11002 H 1053.37 3.24473 4.63394 0
M  V30 11003 H 1051.93 4.04691 5.10949 0
M  V30 11004 N 1055.36 -0.161842 1.56767 0
M  V30 11005 C 1056.29 -1.20226 2.0017 0
M  V30 11006 C 1057.27 -1.4564 0.878807 0
M  V30 11007 O 1058.46 -1.56813 1.14557 0
M  V30 11008 C 1055.59 -2.53897 2.36968 0
M  V30 11009 C 1054.54 -2.43033 3.52305 0
M  V30 11010 C 1053.87 -3.81281 3.74872 0
M  V30 11011 C 1055.17 -1.927 4.85453 0
M  V30 11012 H 1056.86 -0.84142 2.87333 0
M  V30 11013 H 1054.41 -0.403309 1.38237 0
M  V30 11014 H 1056.36 -3.26893 2.6593 0
M  V30 11015 H 1055.09 -2.91787 1.46724 0
M  V30 11016 H 1053.75 -1.7249 3.23485 0
M  V30 11017 H 1053.39 -4.1658 2.81904 0
M  V30 11018 H 1053.09 -3.74877 4.52483 0
M  V30 11019 H 1054.62 -4.55848 4.06245 0
M  V30 11020 H 1056.03 -2.55477 5.13229 0
M  V30 11021 H 1054.43 -1.97222 5.66766 0
M  V30 11022 H 1055.5 -0.881816 4.76814 0
M  V30 11023 N 1056.84 -1.516 -0.430713 0
M  V30 11024 C 1057.77 -1.76342 -1.53054 0
M  V30 11025 C 1058.75 -0.61349 -1.58652 0
M  V30 11026 O 1059.94 -0.856888 -1.74273 0
M  V30 11027 C 1057.07 -1.8945 -2.91077 0
M  V30 11028 C 1056.02 -3.04928 -3.00339 0
M  V30 11029 C 1055.35 -3.03228 -4.40405 0
M  V30 11030 C 1056.65 -4.44777 -2.73808 0
M  V30 11031 H 1058.34 -2.68435 -1.326 0
M  V30 11032 H 1055.89 -1.29171 -0.636466 0
M  V30 11033 H 1057.84 -2.05343 -3.67984 0
M  V30 11034 H 1056.56 -0.940114 -3.12777 0
M  V30 11035 H 1055.22 -2.88751 -2.25872 0
M  V30 11036 H 1054.87 -2.05553 -4.59083 0
M  V30 11037 H 1054.57 -3.80776 -4.47531 0
M  V30 11038 H 1056.1 -3.21222 -5.19277 0
M  V30 11039 H 1057.51 -4.6127 -3.40445 0
M  V30 11040 H 1055.91 -5.2408 -2.92335 0
M  V30 11041 H 1056.98 -4.54358 -1.69372 0
M  V30 11042 N 1058.32 0.686584 -1.41858 0
M  V30 11043 C 1059.27 1.79271 -1.40875 0
M  V30 11044 C 1060.25 1.58413 -0.281782 0
M  V30 11045 O 1061.45 1.69093 -0.523132 0
M  V30 11046 C 1058.57 3.17647 -1.30213 0
M  V30 11047 C 1057.66 3.44168 -2.47808 0
M  V30 11048 N 1058.05 3.41339 -3.73258 0
M  V30 11049 C 1056.35 3.74755 -2.41815 0
M  V30 11050 C 1057.05 3.67016 -4.51303 0
M  V30 11051 N 1056.03 3.87203 -3.81543 0
M  V30 11052 H 1059.83 1.75459 -2.35778 0
M  V30 11053 H 1057.34 0.886946 -1.36041 0
M  V30 11054 H 1059.34 3.96896 -1.2759 0
M  V30 11055 H 1058 3.22664 -0.363021 0
M  V30 11056 H 1059.01 3.21511 -4.06018 0
M  V30 11057 H 1055.69 3.87089 -1.56423 0
M  V30 11058 H 1057.08 3.70888 -5.6026 0
M  V30 11059 N 1059.8 1.27835 0.921735 0
M  V30 11060 C 1061.03 1.17352 1.704 0
M  V30 11061 C 1061.44 -0.268892 1.86875 0
M  V30 11062 O 1060.8 -1.18253 1.39005 0
M  V30 11063 C 1060.85 1.85889 3.10045 0
M  V30 11064 O 1060.57 3.24495 2.94338 0
M  V30 11065 C 1062.07 1.81607 4.04393 0
M  V30 11066 H 1059.29 0.40773 0.532914 0
M  V30 11067 H 1061.83 1.68815 1.15419 0
M  V30 11068 H 1059.99 1.38316 3.61867 0
M  V30 11069 H 1060.4 3.58705 3.82663 0
M  V30 11070 H 1061.88 2.34165 4.99871 0
M  V30 11071 H 1062.35 0.786697 4.32097 0
M  V30 11072 H 1062.96 2.28822 3.58498 0
M  V30 11073 N 1061.28 -1.12907 1.09954 0
M  V30 11074 C 1062.22 -2.18485 0.743848 0
M  V30 11075 C 1063.19 -1.63766 -0.277494 0
M  V30 11076 O 1064.38 -1.90146 -0.157899 0
M  V30 11077 C 1061.52 -3.44649 0.176437 0
M  V30 11078 C 1060.63 -4.13445 1.25248 0
M  V30 11079 C 1059.77 -5.27242 0.647242 0
M  V30 11080 C 1058.8 -5.87897 1.70421 0
M  V30 11081 N 1057.94 -6.93116 1.1196 0
M  V30 11082 H 1062.78 -2.48257 1.64841 0
M  V30 11083 H 1060.32 -1.21891 0.823471 0
M  V30 11084 H 1062.28 -4.16852 -0.170384 0
M  V30 11085 H 1060.91 -3.15309 -0.69137 0
M  V30 11086 H 1059.96 -3.39471 1.7165 0
M  V30 11087 H 1061.27 -4.54601 2.05279 0
M  V30 11088 H 1060.42 -6.06186 0.249579 0
M  V30 11089 H 1059.16 -4.87351 -0.184556 0
M  V30 11090 H 1058.17 -5.07643 2.11136 0
M  V30 11091 H 1059.39 -6.2986 2.53877 0
M  V30 11092 H 1057.34 -6.55271 0.309181 0
M  V30 11093 H 1057.26 -7.32843 1.85681 0
M  V30 11094 H 1058.52 -7.759 0.748326 0
M  V30 11095 N 1062.75 -0.88754 -1.30232 0
M  V30 11096 C 1064 -0.508031 -1.96334 0
M  V30 11097 C 1064.33 0.940905 -1.69884 0
M  V30 11098 O 1063.61 1.66523 -1.005 0
M  V30 11099 C 1063.89 -0.786566 -3.51405 0
M  V30 11100 C 1063.74 -2.28632 -3.8736 0
M  V30 11101 C 1065.06 -0.264803 -4.39303 0
M  V30 11102 H 1062.18 -0.186051 -0.71313 0
M  V30 11103 H 1064.82 -1.112 -1.5406 0
M  V30 11104 H 1062.97 -0.272523 -3.87543 0
M  V30 11105 H 1064.65 -2.86896 -3.61231 0
M  V30 11106 H 1062.89 -2.75194 -3.35337 0
M  V30 11107 H 1063.56 -2.43181 -4.95547 0
M  V30 11108 H 1066.04 -0.704809 -4.10087 0
M  V30 11109 H 1064.91 -0.488998 -5.46717 0
M  V30 11110 H 1065.17 0.834055 -4.34161 0
M  V30 11111 N 1064.23 1.43628 -0.648757 0
M  V30 11112 C 1065.46 2.06732 -0.166284 0
M  V30 11113 C 1065.88 1.48281 1.15734 0
M  V30 11114 O 1065.24 0.591018 1.71396 0
M  V30 11115 C 1065.29 3.60502 -0.0838732 0
M  V30 11116 O 1064.39 4.01186 0.955185 0
M  V30 11117 H 1063.73 0.657479 -0.0928285 0
M  V30 11118 H 1066.26 1.84208 -0.890421 0
M  V30 11119 H 1066.27 4.07875 0.100923 0
M  V30 11120 H 1064.95 4.02424 -1.05014 0
M  V30 11121 H 1063.53 3.65412 0.743537 0
M  V30 11122 N 1065.71 0.390394 1.52688 0
M  V30 11123 C 1066.96 -0.184195 2.02564 0
M  V30 11124 C 1067.31 -1.44379 1.27171 0
M  V30 11125 O 1066.6 -1.88112 0.36395 0
M  V30 11126 C 1066.8 -0.50468 3.53819 0
M  V30 11127 C 1066.63 0.722304 4.43861 0
M  V30 11128 C 1065.4 1.24189 4.89801 0
M  V30 11129 C 1067.6 1.59494 4.88944 0
M  V30 11130 N 1065.58 2.42631 5.63918 0
M  V30 11131 C 1066.95 2.62577 5.61652 0
M  V30 11132 C 1069 1.61491 4.70983 0
M  V30 11133 C 1067.71 3.67544 6.18307 0
M  V30 11134 C 1069.73 2.65365 5.28522 0
M  V30 11135 C 1069.09 3.6717 6.01137 0
M  V30 11136 H 1065.19 -0.0294605 0.781445 0
M  V30 11137 H 1067.78 0.54053 1.87046 0
M  V30 11138 H 1065.95 -1.19846 3.69448 0
M  V30 11139 H 1067.68 -1.06652 3.90394 0
M  V30 11140 H 1064.44 0.802731 4.66747 0
M  V30 11141 H 1064.86 3.02564 6.05627 0
M  V30 11142 H 1069.5 0.841291 4.14345 0
M  V30 11143 H 1067.22 4.45773 6.74027 0
M  V30 11144 H 1070.81 2.67795 5.16505 0
M  V30 11145 H 1069.69 4.46228 6.44864 0
M  V30 11146 N 1067.19 -1.57141 0.120249 0
M  V30 11147 C 1068.15 -2.14213 -0.815185 0
M  V30 11148 C 1069.15 -1.07731 -1.19376 0
M  V30 11149 O 1070.34 -1.33502 -1.11906 0
M  V30 11150 C 1067.47 -2.68339 -2.10255 0
M  V30 11151 H 1068.67 -2.98197 -0.319166 0
M  V30 11152 H 1066.22 -1.55767 -0.128997 0
M  V30 11153 H 1066.95 -1.87946 -2.64285 0
M  V30 11154 H 1066.74 -3.46216 -1.84057 0
M  V30 11155 H 1068.23 -3.124 -2.77121 0
M  V30 11156 N 1068.67 0.153526 -1.5685 0
M  V30 11157 C 1069.91 0.865519 -1.82629 0
M  V30 11158 C 1070.24 1.81999 -0.700105 0
M  V30 11159 O 1069.51 1.93907 0.278744 0
M  V30 11160 H 1068.09 0.32261 -0.673745 0
M  V30 11161 H 1070.75 0.149088 -1.94329 0
M  V30 11162 H 1069.84 1.43171 -2.77324 0
M  V30 11163 N 1070.14 1.51827 0.422667 0
M  V30 11164 C 1071.37 1.69337 1.19748 0
M  V30 11165 C 1071.79 0.396312 1.83878 0
M  V30 11166 O 1071.15 -0.644976 1.6944 0
M  V30 11167 C 1071.2 2.82082 2.24637 0
M  V30 11168 O 1070.3 2.46708 3.30468 0
M  V30 11169 H 1069.65 0.564154 0.35018 0
M  V30 11170 H 1072.18 1.98465 0.497289 0
M  V30 11171 H 1072.19 3.06599 2.69186 0
M  V30 11172 H 1070.86 3.76195 1.77341 0
M  V30 11173 H 1069.44 2.32815 2.91293 0
M  V30 11174 N 1071.62 -0.679052 1.4222 0
M  V30 11175 C 1072.57 -1.81398 1.45594 0
M  V30 11176 C 1073.56 -1.66112 0.332127 0
M  V30 11177 O 1074.77 -1.72772 0.504942 0
M  V30 11178 H 1071.15 -0.598045 0.455902 0
M  V30 11179 H 1073.12 -1.7567 2.41211 0
M  V30 11180 C 1071.87 -3.19525 1.37109 0
M  V30 11181 H 1071.19 -3.31912 2.22878 0
M  V30 11182 H 1072.63 -3.98967 1.43531 0
M  V30 11183 C 1071.09 -3.36792 0.0853593 0
M  V30 11184 O 1071.62 -3.92309 -0.863532 0
M  V30 11185 N 1069.82 -2.906 0.00389229 0
M  V30 11186 H 1069.37 -2.45607 0.776846 0
M  V30 11187 H 1069.33 -3.0253 -0.855742 0
M  V30 11188 N 1073.1 -1.28322 -0.914942 0
M  V30 11189 C 1074.35 -1.14785 -1.65853 0
M  V30 11190 C 1074.66 0.303135 -1.93237 0
M  V30 11191 O 1075.87 0.559606 -2.6567 0
M  V30 11192 C 1074.32 -2.00652 -2.98776 0
M  V30 11193 C 1073.93 -3.50483 -2.79044 0
M  V30 11194 C 1075.68 -1.95798 -3.76648 0
M  V30 11195 C 1073.58 -4.28505 -4.076 0
M  V30 11196 H 1072.51 -0.425987 -0.622135 0
M  V30 11197 H 1075.16 -1.52844 -1.01543 0
M  V30 11198 H 1073.55 -1.55447 -3.64214 0
M  V30 11199 H 1074.72 -4.03636 -2.22293 0
M  V30 11200 H 1073.04 -3.5685 -2.14586 0
M  V30 11201 H 1075.63 -2.51359 -4.71935 0
M  V30 11202 H 1075.98 -0.934455 -4.05677 0
M  V30 11203 H 1076.51 -2.38965 -3.18026 0
M  V30 11204 H 1073.25 -5.31433 -3.83744 0
M  V30 11205 H 1072.77 -3.80125 -4.63966 0
M  V30 11206 H 1074.45 -4.3836 -4.75867 0
M  V30 11207 N 1074.58 1.12322 -1.10551 0
M  V30 11208 C 1075.8 1.8822 -0.871093 0
M  V30 11209 C 1076.23 1.7916 0.573005 0
M  V30 11210 O 1075.59 1.14738 1.40374 0
M  V30 11211 C 1075.63 3.35349 -1.32565 0
M  V30 11212 O 1074.74 4.09461 -0.49145 0
M  V30 11213 H 1074.08 0.584787 -0.314516 0
M  V30 11214 H 1076.61 1.42039 -1.47262 0
M  V30 11215 H 1076.62 3.86189 -1.31612 0
M  V30 11216 H 1075.29 3.4126 -2.37728 0
M  V30 11217 H 1073.87 3.68575 -0.566294 0
M  V30 11218 N 1076.06 0.894434 1.2976 0
M  V30 11219 C 1077.02 0.373094 2.26143 0
M  V30 11220 C 1078.02 -0.489756 1.5316 0
M  V30 11221 O 1079.21 -0.29556 1.71674 0
M  V30 11222 C 1076.34 -0.467234 3.37683 0
M  V30 11223 H 1077.53 1.22427 2.73773 0
M  V30 11224 H 1075.09 0.672112 1.41111 0
M  V30 11225 H 1075.82 -1.33861 2.95384 0
M  V30 11226 H 1075.61 0.150954 3.91809 0
M  V30 11227 H 1077.1 -0.823469 4.094 0
M  V30 11228 N 1077.53 -1.43282 0.656365 0
M  V30 11229 C 1078.78 -2.02075 0.171293 0
M  V30 11230 C 1079.11 -1.51682 -1.21269 0
M  V30 11231 O 1078.39 -0.711243 -1.81029 0
M  V30 11232 C 1078.67 -3.59621 0.185602 0
M  V30 11233 C 1078.52 -4.20239 1.60373 0
M  V30 11234 C 1079.84 -4.37515 -0.476289 0
M  V30 11235 H 1076.96 -0.73424 0.0637185 0
M  V30 11236 H 1079.6 -1.70539 0.837648 0
M  V30 11237 H 1077.75 -3.86619 -0.381804 0
M  V30 11238 H 1079.43 -4.0426 2.22197 0
M  V30 11239 H 1077.67 -3.76769 2.15006 0
M  V30 11240 H 1078.34 -5.29333 1.56557 0
M  V30 11241 H 1080.82 -4.16099 0.00651073 0
M  V30 11242 H 1079.69 -5.47169 -0.435562 0
M  V30 11243 H 1079.95 -4.14003 -1.55093 0
M  V30 11244 N 1079.01 -0.398486 -1.52479 0
M  V30 11245 C 1080.26 0.182046 -2.00877 0
M  V30 11246 C 1080.58 1.47128 -1.2889 0
M  V30 11247 O 1081.78 2.13242 -1.68048 0
M  V30 11248 C 1080.24 0.374978 -3.57941 0
M  V30 11249 C 1079.85 -0.901544 -4.38835 0
M  V30 11250 C 1081.59 0.911378 -4.14601 0
M  V30 11251 C 1079.5 -0.676385 -5.87519 0
M  V30 11252 H 1078.43 0.0718068 -0.750573 0
M  V30 11253 H 1081.08 -0.522297 -1.7591 0
M  V30 11254 H 1079.46 1.14139 -3.79194 0
M  V30 11255 H 1080.63 -1.67329 -4.29346 0
M  V30 11256 H 1078.95 -1.36357 -3.93441 0
M  V30 11257 H 1081.55 1.09569 -5.23353 0
M  V30 11258 H 1081.89 1.88306 -3.71277 0
M  V30 11259 H 1082.42 0.204296 -3.97275 0
M  V30 11260 H 1079.16 -1.61933 -6.35184 0
M  V30 11261 H 1078.68 0.0562542 -5.99774 0
M  V30 11262 H 1080.36 -0.314454 -6.46235 0
M  V30 11263 N 1080.49 1.57075 -0.12858 0
M  V30 11264 C 1081.72 1.99586 0.533769 0
M  V30 11265 C 1082.13 1.00737 1.60152 0
M  V30 11266 O 1081.47 -0.00647783 1.83699 0
M  V30 11267 C 1081.53 3.3852 1.21014 0
M  V30 11268 C 1081.2 4.56084 0.289191 0
M  V30 11269 C 1082.2 5.17717 -0.475963 0
M  V30 11270 C 1079.88 5.01912 0.197467 0
M  V30 11271 C 1081.87 6.23572 -1.32048 0
M  V30 11272 C 1079.56 6.07626 -0.65067 0
M  V30 11273 C 1080.56 6.68324 -1.40826 0
M  V30 11274 O 1080.25 7.71995 -2.2423 0
M  V30 11275 H 1079.98 0.660245 0.145096 0
M  V30 11276 H 1082.53 2.04276 -0.214615 0
M  V30 11277 H 1080.76 3.30613 2.00579 0
M  V30 11278 H 1082.45 3.65258 1.77036 0
M  V30 11279 H 1083.22 4.83221 -0.415027 0
M  V30 11280 H 1079.1 4.54407 0.776853 0
M  V30 11281 H 1082.64 6.70878 -1.91228 0
M  V30 11282 H 1078.54 6.41551 -0.712965 0
M  V30 11283 H 1079.31 7.89135 -2.17276 0
M  V30 11284 N 1081.97 -0.145205 1.5693 0
M  V30 11285 C 1083.19 -0.876386 1.87974 0
M  V30 11286 C 1083.62 -1.73866 0.717795 0
M  V30 11287 O 1082.98 -1.78224 -0.332551 0
M  V30 11288 C 1083.03 -1.70746 3.17613 0
M  V30 11289 O 1082.13 -2.81188 3.01674 0
M  V30 11290 H 1081.47 -0.243987 0.617549 0
M  V30 11291 H 1084 -0.135482 2.04151 0
M  V30 11292 H 1084.01 -2.1021 3.49679 0
M  V30 11293 H 1082.69 -1.07429 4.01786 0
M  V30 11294 H 1081.26 -2.45117 2.81019 0
M  V30 11295 N 1083.45 -1.52049 -0.414609 0
M  V30 11296 C 1084.7 -1.65511 -1.15977 0
M  V30 11297 C 1085.02 -0.384703 -1.91168 0
M  V30 11298 O 1084.29 0.600247 -1.86477 0
M  V30 11299 H 1082.87 -0.610039 -0.431116 0
M  V30 11300 H 1085.53 -1.8907 -0.473139 0
M  V30 11301 H 1084.62 -2.4936 -1.87686 0
M  V30 11302 N 1084.93 0.6715 -1.42579 0
M  V30 11303 C 1086.34 0.985019 -1.25577 0
M  V30 11304 C 1086.54 2.00845 -0.162319 0
M  V30 11305 O 1085.6 2.48175 0.465352 0
M  V30 11306 C 1086.91 1.48668 -2.61377 0
M  V30 11307 C 1088.46 1.60429 -2.68759 0
M  V30 11308 C 1088.93 2.13991 -4.04935 0
M  V30 11309 N 1090.42 2.21319 -4.06906 0
M  V30 11310 C 1091.16 2.63845 -5.09091 0
M  V30 11311 N 1090.66 3.05799 -6.21658 0
M  V30 11312 N 1092.45 2.63623 -4.96447 0
M  V30 11313 H 1084.6 -0.00604561 -2.12399 0
M  V30 11314 H 1086.86 0.0598299 -0.94611 0
M  V30 11315 H 1086.57 0.80917 -3.42265 0
M  V30 11316 H 1086.44 2.46487 -2.85524 0
M  V30 11317 H 1088.83 2.27286 -1.88216 0
M  V30 11318 H 1088.91 0.610909 -2.48398 0
M  V30 11319 H 1088.55 1.47741 -4.85937 0
M  V30 11320 H 1088.48 3.14126 -4.2265 0
M  V30 11321 H 1090.98 1.91743 -3.25643 0
M  V30 11322 H 1091.29 3.36944 -6.95477 0
M  V30 11323 H 1089.63 3.03648 -6.25158 0
M  V30 11324 H 1092.82 2.30211 -4.07579 0
M  V30 11325 H 1093 2.96444 -5.76216 0
M  V30 11326 N 1086.4 1.28806 0.908124 0
M  V30 11327 C 1087.31 1.15079 2.04436 0
M  V30 11328 C 1088.33 0.076012 1.73834 0
M  V30 11329 O 1089.51 0.286421 1.99353 0
M  V30 11330 C 1086.57 0.819733 3.3687 0
M  V30 11331 C 1085.63 1.97746 3.81045 0
M  V30 11332 C 1084.86 1.66211 5.07158 0
M  V30 11333 O 1085.09 0.579092 5.67453 0
M  V30 11334 O 1084.02 2.5075 5.47182 0
M  V30 11335 H 1087.85 2.10477 2.18937 0
M  V30 11336 H 1085.43 1.08177 1.03044 0
M  V30 11337 H 1087.31 0.649304 4.16368 0
M  V30 11338 H 1085.99 -0.10454 3.23531 0
M  V30 11339 H 1084.9 2.20308 3.02349 0
M  V30 11340 H 1086.23 2.88264 3.98955 0
M  V30 11341 N 1087.88 -1.11734 1.11145 0
M  V30 11342 C 1089.11 -1.87755 0.881062 0
M  V30 11343 C 1089.53 -1.79461 -0.563496 0
M  V30 11344 O 1088.89 -1.15481 -1.39763 0
M  V30 11345 C 1088.94 -3.34641 1.34342 0
M  V30 11346 O 1088.04 -4.09195 0.513157 0
M  V30 11347 H 1087.38 -0.583111 0.317613 0
M  V30 11348 H 1089.91 -1.41256 1.48013 0
M  V30 11349 H 1089.92 -3.85486 1.33658 0
M  V30 11350 H 1088.6 -3.39994 2.39534 0
M  V30 11351 H 1087.17 -3.68269 0.585833 0
M  V30 11352 N 1089.36 -0.901303 -1.29284 0
M  V30 11353 C 1090.29 -0.396909 -2.30102 0
M  V30 11354 C 1091.27 0.528919 -1.61668 0
M  V30 11355 O 1092.46 0.439306 -1.89166 0
M  V30 11356 C 1089.59 0.375006 -3.45269 0
M  V30 11357 C 1088.54 -0.46054 -4.25515 0
M  V30 11358 C 1087.87 0.438967 -5.32895 0
M  V30 11359 C 1089.17 -1.7113 -4.93469 0
M  V30 11360 H 1090.86 -1.23943 -2.72541 0
M  V30 11361 H 1088.41 -0.597428 -1.31022 0
M  V30 11362 H 1090.36 0.738622 -4.14876 0
M  V30 11363 H 1089.08 1.25132 -3.01678 0
M  V30 11364 H 1087.74 -0.80651 -3.57618 0
M  V30 11365 H 1087.39 1.31346 -4.85548 0
M  V30 11366 H 1087.09 -0.116406 -5.87485 0
M  V30 11367 H 1088.61 0.79874 -6.05353 0
M  V30 11368 H 1090.03 -1.41732 -5.55504 0
M  V30 11369 H 1088.42 -2.20811 -5.57999 0
M  V30 11370 H 1089.49 -2.44636 -4.18666 0
M  V30 11371 N 1090.84 1.42931 -0.663954 0
M  V30 11372 C 1092.09 2.00904 -0.179011 0
M  V30 11373 C 1092.4 1.53056 1.21791 0
M  V30 11374 O 1093.61 2.03374 1.79865 0
M  V30 11375 C 1092.06 3.58892 -0.269198 0
M  V30 11376 C 1091.67 4.15731 -1.66949 0
M  V30 11377 C 1093.41 4.24207 0.157589 0
M  V30 11378 C 1091.32 5.66047 -1.71303 0
M  V30 11379 H 1090.25 0.75135 -0.0631623 0
M  V30 11380 H 1092.9 1.6378 -0.827556 0
M  V30 11381 H 1091.28 3.93469 0.447048 0
M  V30 11382 H 1092.46 3.92634 -2.41195 0
M  V30 11383 H 1090.77 3.62826 -2.04318 0
M  V30 11384 H 1093.37 5.34503 0.145057 0
M  V30 11385 H 1093.71 3.98901 1.19095 0
M  V30 11386 H 1094.25 3.94552 -0.507274 0
M  V30 11387 H 1090.98 5.96136 -2.72584 0
M  V30 11388 H 1090.5 5.91167 -1.01398 0
M  V30 11389 H 1092.18 6.30275 -1.46158 0
M  V30 11390 N 1092.32 0.406567 1.52266 0
M  V30 11391 C 1093.56 -0.170053 2.01785 0
M  V30 11392 C 1093.89 -1.45361 1.2923 0
M  V30 11393 O 1093.15 -1.91849 0.386342 0
M  V30 11394 C 1093.44 -0.467124 3.54334 0
M  V30 11395 C 1093.11 0.72693 4.45002 0
M  V30 11396 C 1091.77 1.05446 4.69505 0
M  V30 11397 C 1094.12 1.52493 4.98393 0
M  V30 11398 C 1091.45 2.18123 5.44646 0
M  V30 11399 C 1093.8 2.64244 5.74768 0
M  V30 11400 C 1092.47 2.97486 5.97544 0
M  V30 11401 H 1091.74 -0.0622267 0.738383 0
M  V30 11402 H 1094.39 0.54746 1.83508 0
M  V30 11403 H 1092.69 -1.26617 3.70777 0
M  V30 11404 H 1094.39 -0.926194 3.90157 0
M  V30 11405 H 1090.98 0.461666 4.26106 0
M  V30 11406 H 1095.16 1.28512 4.79373 0
M  V30 11407 H 1090.42 2.44228 5.60502 0
M  V30 11408 H 1094.59 3.26468 6.15136 0
M  V30 11409 H 1092.22 3.84913 6.5555 0
M  V30 11410 N 1093.79 -1.57004 0.136909 0
M  V30 11411 C 1095.21 -1.82675 -0.385577 0
M  V30 11412 C 1095.56 -1.05508 -1.65416 0
M  V30 11413 O 1094.68 -0.297207 -2.14349 0
M  V30 11414 C 1095.28 -3.31356 -0.706326 0
M  V30 11415 C 1093.84 -3.57644 -1.17337 0
M  V30 11416 C 1092.98 -2.7664 -0.191239 0
M  V30 11417 H 1095.93 -1.54522 0.36177 0
M  V30 11418 H 1095.95 -3.4696 -1.56201 0
M  V30 11419 H 1095.47 -3.87492 0.217147 0
M  V30 11420 H 1093.57 -3.06883 -2.11313 0
M  V30 11421 H 1093.68 -4.66152 -1.10632 0
M  V30 11422 H 1092.04 -2.45403 -0.681867 0
M  V30 11423 H 1092.83 -3.35543 0.725647 0
M  V30 11424 N 1095.27 0.136881 -1.57004 0
M  V30 11425 C 1096.5 0.866405 -1.88436 0
M  V30 11426 C 1096.92 1.73483 -0.727006 0
M  V30 11427 O 1096.28 1.78398 0.323094 0
M  V30 11428 C 1096.33 1.69059 -3.18514 0
M  V30 11429 O 1095.43 2.79584 -3.03161 0
M  V30 11430 H 1094.77 0.240709 -0.618834 0
M  V30 11431 H 1097.3 0.124653 -2.0422 0
M  V30 11432 H 1097.31 2.08353 -3.50789 0
M  V30 11433 H 1095.99 1.05296 -4.0235 0
M  V30 11434 H 1094.57 2.43623 -2.82315 0
M  V30 11435 N 1096.75 1.52266 0.40654 0
M  V30 11436 C 1098 1.66123 1.15097 0
M  V30 11437 C 1098.32 0.394836 1.90961 0
M  V30 11438 O 1097.59 -0.590349 1.86793 0
M  V30 11439 H 1096.17 0.612317 0.427875 0
M  V30 11440 H 1098.83 1.89318 0.463106 0
M  V30 11441 H 1097.93 2.50351 1.86361 0
M  V30 11442 N 1098.23 -0.663929 1.42933 0
M  V30 11443 C 1099.46 -1.45192 1.474 0
M  V30 11444 C 1099.87 -1.88592 0.0886014 0
M  V30 11445 O 1099.23 -1.58824 -0.898962 0
M  V30 11446 C 1099.28 -2.69394 2.41059 0
M  V30 11447 O 1099 -2.27812 3.7421 0
M  V30 11448 C 1100.5 -3.62855 2.54659 0
M  V30 11449 H 1097.72 -0.446394 0.500973 0
M  V30 11450 H 1100.27 -0.814875 1.87563 0
M  V30 11451 H 1098.42 -3.29262 2.0412 0
M  V30 11452 H 1098.83 -3.08095 4.24474 0
M  V30 11453 H 1100.31 -4.46698 3.24291 0
M  V30 11454 H 1100.79 -4.09487 1.58799 0
M  V30 11455 H 1101.39 -3.08874 2.92364 0
M  V30 11456 N 1099.71 -1.29285 -0.901281 0
M  V30 11457 C 1100.94 -1.19874 -1.68267 0
M  V30 11458 C 1101.34 0.243387 -1.87628 0
M  V30 11459 O 1100.69 1.17497 -1.41209 0
M  V30 11460 C 1100.75 -1.83907 -3.08899 0
M  V30 11461 C 1100.41 -3.33198 -3.12775 0
M  V30 11462 C 1101.41 -4.29446 -2.9304 0
M  V30 11463 C 1099.1 -3.7437 -3.34892 0
M  V30 11464 C 1101.09 -5.64842 -2.95352 0
M  V30 11465 C 1098.78 -5.09888 -3.36834 0
M  V30 11466 C 1099.77 -6.04934 -3.17087 0
M  V30 11467 O 1099.46 -7.37979 -3.18815 0
M  V30 11468 H 1099.19 -0.416601 -0.532372 0
M  V30 11469 H 1101.75 -1.71154 -1.13558 0
M  V30 11470 H 1099.98 -1.27136 -3.65203 0
M  V30 11471 H 1101.67 -1.6884 -3.69118 0
M  V30 11472 H 1102.43 -3.9897 -2.75767 0
M  V30 11473 H 1098.31 -3.00846 -3.49303 0
M  V30 11474 H 1101.86 -6.39004 -2.79856 0
M  V30 11475 H 1097.75 -5.40009 -3.53638 0
M  V30 11476 H 1098.52 -7.46763 -3.35092 0
M  V30 11477 N 1101.18 1.11143 -1.11736 0
M  V30 11478 C 1102.41 1.86474 -0.889435 0
M  V30 11479 C 1102.82 1.80584 0.564438 0
M  V30 11480 O 1102.17 1.18743 1.40163 0
M  V30 11481 C 1102.23 3.36066 -1.27671 0
M  V30 11482 C 1101.89 3.65721 -2.74038 0
M  V30 11483 C 1102.89 3.62941 -3.7225 0
M  V30 11484 C 1100.57 3.94629 -3.10762 0
M  V30 11485 C 1102.57 3.88651 -5.05202 0
M  V30 11486 C 1100.25 4.19997 -4.43899 0
M  V30 11487 C 1101.25 4.16996 -5.40928 0
M  V30 11488 O 1100.94 4.41724 -6.71666 0
M  V30 11489 H 1100.67 0.596438 -0.318178 0
M  V30 11490 H 1103.23 1.41465 -1.48918 0
M  V30 11491 H 1101.46 3.81695 -0.620124 0
M  V30 11492 H 1103.15 3.92769 -1.02409 0
M  V30 11493 H 1103.91 3.40655 -3.45223 0
M  V30 11494 H 1099.79 3.96099 -2.35853 0
M  V30 11495 H 1103.33 3.86224 -5.80927 0
M  V30 11496 H 1099.23 4.4176 -4.70657 0
M  V30 11497 H 1100 4.59276 -6.77501 0
M  V30 11498 N 1102.66 0.908147 1.28804 0
M  V30 11499 C 1103.9 0.545425 1.96989 0
M  V30 11500 C 1104.27 -0.893226 1.69957 0
M  V30 11501 O 1105.47 -1.36324 2.31666 0
M  V30 11502 C 1103.74 0.83953 3.474 0
M  V30 11503 S 1105.3 0.582385 4.34918 0
M  V30 11504 H 1102.12 0.202027 0.681693 0
M  V30 11505 H 1104.72 1.1724 1.56445 0
M  V30 11506 H 1103.42 1.88463 3.64568 0
M  V30 11507 H 1102.95 0.200999 3.92886 0
M  V30 11508 H 1104.97 -0.568807 4.92929 0
M  V30 11509 N 1104.14 -1.42577 0.671525 0
M  V30 11510 C 1105.39 -2.01882 0.192716 0
M  V30 11511 C 1105.72 -1.52959 -1.19654 0
M  V30 11512 O 1104.99 -0.730404 -1.80265 0
M  V30 11513 C 1105.28 -3.59404 0.223734 0
M  V30 11514 C 1105.13 -4.18514 1.64821 0
M  V30 11515 C 1106.45 -4.37996 -0.429858 0
M  V30 11516 H 1103.57 -0.733523 0.0715026 0
M  V30 11517 H 1106.21 -1.69641 0.855689 0
M  V30 11518 H 1104.36 -3.87003 -0.340776 0
M  V30 11519 H 1106.03 -4.01881 2.26472 0
M  V30 11520 H 1104.28 -3.74467 2.1899 0
M  V30 11521 H 1104.95 -5.27643 1.62162 0
M  V30 11522 H 1107.42 -4.16069 0.0506433 0
M  V30 11523 H 1106.3 -5.476 -0.377503 0
M  V30 11524 H 1106.56 -4.15625 -1.50693 0
M  V30 11525 N 1105.62 -0.414636 -1.52048 0
M  V30 11526 C 1106.85 0.158686 -2.06291 0
M  V30 11527 C 1107.26 1.38397 -1.2842 0
M  V30 11528 O 1106.62 1.79351 -0.337539 0
M  V30 11529 C 1106.67 0.503634 -3.57975 0
M  V30 11530 O 1106.39 -0.672996 -4.329 0
M  V30 11531 C 1107.89 1.13009 -4.28653 0
M  V30 11532 H 1105.11 0.0179622 -0.67076 0
M  V30 11533 H 1107.66 -0.587177 -1.95889 0
M  V30 11534 H 1105.81 1.19939 -3.68366 0
M  V30 11535 H 1106.22 -0.383735 -5.23094 0
M  V30 11536 H 1107.7 1.32162 -5.35945 0
M  V30 11537 H 1108.18 2.10476 -3.85482 0
M  V30 11538 H 1108.78 0.474379 -4.22646 0
M  V30 11539 N 1107.1 1.56929 -0.145233 0
M  V30 11540 C 1108.32 2.00431 0.513314 0
M  V30 11541 C 1108.74 1.0253 1.58534 0
M  V30 11542 O 1108.1 0.0220459 1.82487 0
M  V30 11543 C 1108.15 3.43856 1.11557 0
M  V30 11544 O 1107.87 4.38015 0.0863707 0
M  V30 11545 C 1109.37 4.02627 1.8549 0
M  V30 11546 H 1106.59 0.657529 0.133778 0
M  V30 11547 H 1109.13 2.03095 -0.239296 0
M  V30 11548 H 1107.29 3.4205 1.81881 0
M  V30 11549 H 1107.7 5.21842 0.527363 0
M  V30 11550 H 1109.18 5.04985 2.22923 0
M  V30 11551 H 1109.65 3.43239 2.74014 0
M  V30 11552 H 1110.26 4.08058 1.19869 0
M  V30 11553 N 1108.58 -0.128553 1.57075 0
M  V30 11554 C 1109.52 -1.15812 1.9964 0
M  V30 11555 C 1110.49 -1.41679 0.86696 0
M  V30 11556 O 1111.68 -1.53705 1.13046 0
M  V30 11557 C 1108.82 -2.48198 2.39774 0
M  V30 11558 C 1107.93 -2.29348 3.66092 0
M  V30 11559 C 1107.07 -3.54898 3.95248 0
M  V30 11560 C 1106.1 -3.31164 5.14779 0
M  V30 11561 N 1105.24 -4.48891 5.39853 0
M  V30 11562 H 1110.08 -0.788136 2.87389 0
M  V30 11563 H 1107.62 -0.377682 1.42169 0
M  V30 11564 H 1109.58 -3.25414 2.61077 0
M  V30 11565 H 1108.21 -2.83108 1.5508 0
M  V30 11566 H 1107.26 -1.43095 3.5246 0
M  V30 11567 H 1108.57 -2.07781 4.53463 0
M  V30 11568 H 1107.72 -4.40536 4.17148 0
M  V30 11569 H 1106.46 -3.79487 3.06335 0
M  V30 11570 H 1105.47 -2.43915 4.92733 0
M  V30 11571 H 1106.69 -3.07954 6.05261 0
M  V30 11572 H 1104.64 -4.73619 4.53895 0
M  V30 11573 H 1104.56 -4.30394 6.21528 0
M  V30 11574 H 1105.82 -5.35691 5.66265 0
M  V30 11575 N 1110.05 -1.5248 -0.398459 0
M  V30 11576 C 1111.02 -1.75949 -1.46883 0
M  V30 11577 C 1112.02 -0.629431 -1.47969 0
M  V30 11578 O 1113.21 -0.897407 -1.49306 0
M  V30 11579 C 1110.34 -1.85162 -2.8623 0
M  V30 11580 H 1111.53 -2.71513 -1.2736 0
M  V30 11581 H 1109.08 -1.43058 -0.629619 0
M  V30 11582 H 1109.82 -0.915505 -3.11109 0
M  V30 11583 H 1109.6 -2.67326 -2.86844 0
M  V30 11584 H 1111.09 -2.05025 -3.63805 0
M  V30 11585 N 1111.53 0.65634 -1.43283 0
M  V30 11586 C 1112.48 1.76934 -1.48199 0
M  V30 11587 C 1113.45 1.62748 -0.332023 0
M  V30 11588 O 1114.63 1.83036 -0.538735 0
M  V30 11589 C 1111.77 3.15072 -1.40797 0
M  V30 11590 C 1110.89 3.40414 -2.65974 0
M  V30 11591 C 1110.02 4.68383 -2.50582 0
M  V30 11592 C 1109.06 4.8682 -3.71043 0
M  V30 11593 N 1108.2 6.06043 -3.5448 0
M  V30 11594 H 1113.04 1.72067 -2.43304 0
M  V30 11595 H 1110.57 0.839728 -1.20777 0
M  V30 11596 H 1112.53 3.94925 -1.345 0
M  V30 11597 H 1111.16 3.19017 -0.492754 0
M  V30 11598 H 1110.21 2.54681 -2.82563 0
M  V30 11599 H 1111.53 3.49925 -3.55463 0
M  V30 11600 H 1110.68 5.56357 -2.41975 0
M  V30 11601 H 1109.42 4.61187 -1.58612 0
M  V30 11602 H 1108.42 3.97282 -3.80062 0
M  V30 11603 H 1109.65 4.95847 -4.64017 0
M  V30 11604 H 1107.6 5.99985 -2.65242 0
M  V30 11605 H 1107.51 6.16498 -4.37568 0
M  V30 11606 H 1108.78 6.96647 -3.49719 0
M  V30 11607 N 1113.01 1.29761 0.894412 0
M  V30 11608 C 1114.23 1.21064 1.68399 0
M  V30 11609 C 1114.66 -0.224608 1.86754 0
M  V30 11610 O 1114.02 -1.16199 1.39167 0
M  V30 11611 C 1114.07 1.93468 3.04306 0
M  V30 11612 O 1113.17 1.25533 3.9283 0
M  V30 11613 H 1112.51 0.419223 0.514925 0
M  V30 11614 H 1115.04 1.71421 1.11696 0
M  V30 11615 H 1115.05 2.02127 3.54413 0
M  V30 11616 H 1113.73 2.97857 2.90265 0
M  V30 11617 H 1112.3 1.25168 3.51266 0
M  V30 11618 N 1114.49 -1.10549 1.12324 0
M  V30 11619 C 1115.73 -1.82755 0.879117 0
M  V30 11620 C 1116.07 -1.84905 -0.593604 0
M  V30 11621 O 1115.34 -1.30884 -1.43873 0
M  V30 11622 C 1115.62 -3.29481 1.45308 0
M  V30 11623 C 1115.48 -3.3567 2.99408 0
M  V30 11624 C 1116.8 -4.25828 1.11167 0
M  V30 11625 H 1113.92 -0.663513 0.32081 0
M  V30 11626 H 1116.56 -1.29572 1.38965 0
M  V30 11627 H 1114.71 -3.74902 1.01887 0
M  V30 11628 H 1116.38 -2.98739 3.515 0
M  V30 11629 H 1114.62 -2.75606 3.34998 0
M  V30 11630 H 1115.29 -4.38983 3.34661 0
M  V30 11631 H 1117.77 -3.88635 1.48667 0
M  V30 11632 H 1116.65 -5.26857 1.53991 0
M  V30 11633 H 1116.91 -4.42094 0.0237046 0
M  V30 11634 N 1115.97 -0.914965 -1.28321 0
M  V30 11635 C 1116.9 -0.361578 -2.2633 0
M  V30 11636 C 1117.91 0.500637 -1.54911 0
M  V30 11637 O 1119.1 0.31532 -1.75693 0
M  V30 11638 C 1116.2 0.501693 -3.35166 0
M  V30 11639 C 1115.37 -0.338289 -4.3609 0
M  V30 11640 C 1114.43 0.460267 -5.24183 0
M  V30 11641 O 1113.46 -0.127594 -5.69057 0
M  V30 11642 N 1114.66 1.76302 -5.5308 0
M  V30 11643 H 1117.42 -1.20402 -2.74451 0
M  V30 11644 H 1114.99 -0.781042 -1.41814 0
M  V30 11645 H 1116.98 1.04268 -3.91037 0
M  V30 11646 H 1115.55 1.24485 -2.86744 0
M  V30 11647 H 1114.77 -1.06064 -3.79663 0
M  V30 11648 H 1116.06 -0.912996 -5.00542 0
M  V30 11649 H 1115.45 2.26314 -5.18458 0
M  V30 11650 H 1114.01 2.25081 -6.11704 0
M  V30 11651 N 1117.44 1.42219 -0.679077 0
M  V30 11652 C 1118.38 2.29172 0.035583 0
M  V30 11653 C 1119.39 1.43909 0.761183 0
M  V30 11654 O 1120.58 1.67584 0.61463 0
M  V30 11655 C 1117.68 3.21426 1.07419 0
M  V30 11656 C 1116.85 4.35364 0.421547 0
M  V30 11657 C 1115.91 5.08307 1.36051 0
M  V30 11658 O 1114.94 5.62678 0.859186 0
M  V30 11659 N 1116.14 5.14222 2.69362 0
M  V30 11660 H 1118.9 2.91147 -0.710865 0
M  V30 11661 H 1116.46 1.53192 -0.523821 0
M  V30 11662 H 1118.46 3.67091 1.70371 0
M  V30 11663 H 1117.03 2.60873 1.72233 0
M  V30 11664 H 1116.25 3.9229 -0.387559 0
M  V30 11665 H 1117.53 5.08789 -0.0329421 0
M  V30 11666 H 1116.93 4.71467 3.12627 0
M  V30 11667 H 1115.49 5.63519 3.27551 0
M  V30 11668 N 1118.92 0.422693 1.51826 0
M  V30 11669 C 1120.2 -0.20786 1.94492 0
M  V30 11670 C 1120.58 -1.61414 1.36047 0
M  V30 11671 O 1119.93 -2.21987 0.541657 0
M  V30 11672 C 1120.14 -0.200457 3.48424 0
M  V30 11673 C 1121.48 -0.413199 4.22585 0
M  V30 11674 O 1122.51 -0.27922 3.55104 0
M  V30 11675 O 1121.37 -0.678469 5.42272 0
M  V30 11676 H 1118.46 -0.137851 0.81543 0
M  V30 11677 H 1121.01 0.479617 1.62781 0
M  V30 11678 H 1119.78 0.783263 3.83381 0
M  V30 11679 H 1119.4 -0.931464 3.86535 0
M  V30 11680 N 1120.4 -1.5685 0.153553 0
M  V30 11681 C 1121.33 -2.20101 -0.779601 0
M  V30 11682 C 1122.31 -1.15121 -1.25225 0
M  V30 11683 O 1123.5 -1.43487 -1.30862 0
M  V30 11684 C 1120.63 -2.82778 -2.01628 0
M  V30 11685 C 1119.58 -3.93643 -1.68015 0
M  V30 11686 C 1118.91 -4.43286 -2.99001 0
M  V30 11687 C 1120.21 -5.14102 -0.921774 0
M  V30 11688 H 1121.9 -2.98334 -0.252432 0
M  V30 11689 H 1119.45 -1.43499 -0.119975 0
M  V30 11690 H 1121.4 -3.25696 -2.67395 0
M  V30 11691 H 1120.12 -2.01887 -2.56728 0
M  V30 11692 H 1118.78 -3.51354 -1.04624 0
M  V30 11693 H 1118.43 -3.59208 -3.52106 0
M  V30 11694 H 1118.13 -5.18068 -2.77272 0
M  V30 11695 H 1119.65 -4.88878 -3.65828 0
M  V30 11696 H 1121.07 -5.53823 -1.48167 0
M  V30 11697 H 1119.46 -5.94687 -0.804185 0
M  V30 11698 H 1120.53 -4.84825 0.0852757 0
M  V30 11699 N 1121.88 0.120221 -1.57141 0
M  V30 11700 C 1123.15 0.858458 -1.75755 0
M  V30 11701 C 1123.53 1.98124 -0.728693 0
M  V30 11702 O 1122.88 2.27155 0.247573 0
M  V30 11703 C 1123.09 1.37627 -3.20718 0
M  V30 11704 C 1124.44 1.82909 -3.83183 0
M  V30 11705 O 1125.46 1.47309 -3.24312 0
M  V30 11706 O 1124.32 2.4865 -4.86657 0
M  V30 11707 H 1121.42 0.407583 -0.719587 0
M  V30 11708 H 1123.96 0.104057 -1.69381 0
M  V30 11709 H 1122.74 0.570651 -3.87117 0
M  V30 11710 H 1122.36 2.19341 -3.31625 0
M  V30 11711 N 1123.36 1.52689 0.390367 0
M  V30 11712 C 1124.6 1.67914 1.13722 0
M  V30 11713 C 1124.94 0.417159 1.89667 0
M  V30 11714 O 1124.21 -0.585005 1.85494 0
M  V30 11715 C 1124.49 2.91331 2.11656 0
M  V30 11716 C 1124.35 4.27626 1.39484 0
M  V30 11717 C 1125.67 3.10293 3.12099 0
M  V30 11718 H 1122.78 0.611047 0.412057 0
M  V30 11719 H 1125.43 1.85283 0.420753 0
M  V30 11720 H 1123.58 2.76654 2.72754 0
M  V30 11721 H 1125.25 4.54068 0.813607 0
M  V30 11722 H 1123.49 4.28169 0.69669 0
M  V30 11723 H 1124.16 5.10066 2.11038 0
M  V30 11724 H 1126.64 3.23992 2.6109 0
M  V30 11725 H 1125.51 3.98127 3.7787 0
M  V30 11726 H 1125.78 2.24448 3.80888 0
M  V30 11727 N 1124.83 -0.648732 1.43629 0
M  V30 11728 C 1126.08 -1.40446 1.44768 0
M  V30 11729 C 1126.4 -1.95447 0.0773445 0
M  V30 11730 O 1127.6 -2.71479 -0.0337942 0
M  V30 11731 C 1126.06 -2.54194 2.54781 0
M  V30 11732 C 1125.67 -2.05781 3.97942 0
M  V30 11733 C 1127.41 -3.31529 2.65121 0
M  V30 11734 C 1125.32 -3.16767 4.99412 0
M  V30 11735 H 1124.25 -0.527717 0.538545 0
M  V30 11736 H 1126.9 -0.699756 1.69634 0
M  V30 11737 H 1125.28 -3.27156 2.23125 0
M  V30 11738 H 1126.45 -1.398 4.39081 0
M  V30 11739 H 1124.77 -1.41312 3.91688 0
M  V30 11740 H 1127.37 -4.14233 3.38105 0
M  V30 11741 H 1127.71 -3.79855 1.70341 0
M  V30 11742 H 1128.24 -2.65649 2.961 0
M  V30 11743 H 1124.98 -2.73404 5.9576 0
M  V30 11744 H 1124.5 -3.81445 4.62882 0
M  V30 11745 H 1126.18 -3.81827 5.22319 0
M  V30 11746 N 1126.31 -1.30234 -0.887518 0
M  V30 11747 C 1127.24 -1.18969 -2.00919 0
M  V30 11748 C 1128.22 -0.080952 -1.69907 0
M  V30 11749 O 1129.41 -0.262546 -1.92417 0
M  V30 11750 C 1126.54 -0.878094 -3.36016 0
M  V30 11751 C 1125.49 -1.94449 -3.81279 0
M  V30 11752 C 1124.82 -1.48594 -5.13638 0
M  V30 11753 C 1126.12 -3.35519 -4.00281 0
M  V30 11754 H 1127.81 -2.12808 -2.10602 0
M  V30 11755 H 1125.36 -1.02454 -1.01189 0
M  V30 11756 H 1127.31 -0.785954 -4.14006 0
M  V30 11757 H 1126.04 0.0959779 -3.26459 0
M  V30 11758 H 1124.69 -2.02622 -3.05516 0
M  V30 11759 H 1124.34 -0.500204 -5.00507 0
M  V30 11760 H 1124.04 -2.19921 -5.44893 0
M  V30 11761 H 1125.57 -1.40754 -5.94156 0
M  V30 11762 H 1126.98 -3.30119 -4.68716 0
M  V30 11763 H 1125.38 -4.0491 -4.42909 0
M  V30 11764 H 1126.45 -3.77597 -3.04218 0
M  V30 11765 N 1127.79 1.09952 -1.12909 0
M  V30 11766 C 1129.2 1.63516 -0.901087 0
M  V30 11767 C 1129.55 1.87932 0.563547 0
M  V30 11768 O 1128.68 1.625 1.42908 0
M  V30 11769 C 1129.27 2.97054 -1.62924 0
M  V30 11770 C 1127.83 3.47464 -1.44725 0
M  V30 11771 C 1126.98 2.21979 -1.66194 0
M  V30 11772 H 1129.93 0.933858 -1.28315 0
M  V30 11773 H 1129.95 3.64757 -1.08318 0
M  V30 11774 H 1129.46 2.79251 -2.69519 0
M  V30 11775 H 1127.56 3.70402 -0.40409 0
M  V30 11776 H 1127.68 4.25254 -2.20671 0
M  V30 11777 H 1126.04 2.30368 -1.0864 0
M  V30 11778 H 1126.82 2.06702 -2.74097 0
M  V30 11779 N 1129.27 0.921757 1.27833 0
M  V30 11780 C 1130.52 0.557974 1.94245 0
M  V30 11781 C 1130.84 -0.90268 1.72849 0
M  V30 11782 O 1130.11 -1.63915 1.07279 0
M  V30 11783 H 1128.69 0.203364 0.718785 0
M  V30 11784 H 1131.35 1.17286 1.5566 0
M  V30 11785 H 1130.45 0.759202 3.02725 0
M  V30 11786 N 1130.75 -1.41857 0.686609 0
M  V30 11787 C 1131.66 -2.34595 0.0159005 0
M  V30 11788 C 1132.67 -1.55741 -0.775933 0
M  V30 11789 O 1133.85 -1.8826 -0.71555 0
M  V30 11790 C 1130.91 -3.34395 -0.915473 0
M  V30 11791 C 1129.97 -4.29141 -0.116851 0
M  V30 11792 C 1129.21 -5.24174 -1.00386 0
M  V30 11793 O 1129.43 -5.24431 -2.2434 0
M  V30 11794 O 1128.36 -6.00152 -0.458337 0
M  V30 11795 H 1132.19 -2.9351 0.780101 0
M  V30 11796 H 1129.78 -1.42559 0.446896 0
M  V30 11797 H 1131.66 -3.95675 -1.44981 0
M  V30 11798 H 1130.33 -2.77936 -1.65932 0
M  V30 11799 H 1129.24 -3.71238 0.461871 0
M  V30 11800 H 1130.57 -4.88673 0.588138 0
M  V30 11801 N 1132.22 -0.430739 -1.51599 0
M  V30 11802 C 1133.47 0.137929 -2.0203 0
M  V30 11803 C 1133.8 1.43287 -1.31526 0
M  V30 11804 O 1133.05 1.9121 -0.416814 0
M  V30 11805 C 1133.35 0.410694 -3.55032 0
M  V30 11806 C 1133.02 -0.797634 -4.43789 0
M  V30 11807 C 1131.68 -1.12902 -4.67768 0
M  V30 11808 C 1134.03 -1.60403 -4.95904 0
M  V30 11809 C 1131.36 -2.2676 -5.41107 0
M  V30 11810 C 1133.71 -2.73354 -5.70491 0
M  V30 11811 C 1132.38 -3.06955 -5.92735 0
M  V30 11812 H 1131.65 0.0504718 -0.739279 0
M  V30 11813 H 1134.29 -0.576585 -1.82614 0
M  V30 11814 H 1132.6 1.20703 -3.72744 0
M  V30 11815 H 1134.3 0.864006 -3.91581 0
M  V30 11816 H 1130.89 -0.529397 -4.25318 0
M  V30 11817 H 1135.07 -1.36122 -4.77268 0
M  V30 11818 H 1130.33 -2.53114 -5.56546 0
M  V30 11819 H 1134.5 -3.36213 -6.09864 0
M  V30 11820 H 1132.13 -3.95293 -6.49344 0
M  V30 11821 N 1133.7 1.56767 -0.161869 0
M  V30 11822 C 1134.93 2.01401 0.49523 0
M  V30 11823 C 1135.35 1.04133 1.56646 0
M  V30 11824 O 1134.71 0.0193747 1.8129 0
M  V30 11825 C 1134.76 3.44695 1.05913 0
M  V30 11826 O 1133.86 3.50475 2.1735 0
M  V30 11827 H 1133.2 0.65314 0.1196 0
M  V30 11828 H 1135.73 2.02903 -0.26298 0
M  V30 11829 H 1135.74 3.83805 1.3841 0
M  V30 11830 H 1134.42 4.14991 0.274749 0
M  V30 11831 H 1133 3.23218 1.85969 0
M  V30 11832 N 1135.18 -0.111886 1.57202 0
M  V30 11833 C 1136.13 -1.13688 2.00858 0
M  V30 11834 C 1137.1 -1.40752 0.881939 0
M  V30 11835 O 1138.28 -1.52498 1.14669 0
M  V30 11836 C 1135.42 -2.45641 2.42393 0
M  V30 11837 C 1134.54 -2.25452 3.68504 0
M  V30 11838 C 1133.67 -3.50686 3.9899 0
M  V30 11839 C 1132.71 -3.25685 5.18262 0
M  V30 11840 N 1131.85 -4.4314 5.44583 0
M  V30 11841 H 1136.69 -0.757611 2.88209 0
M  V30 11842 H 1134.22 -0.362582 1.42561 0
M  V30 11843 H 1136.18 -3.22627 2.64514 0
M  V30 11844 H 1134.81 -2.81447 1.58074 0
M  V30 11845 H 1133.86 -1.39349 3.53958 0
M  V30 11846 H 1135.18 -2.0296 4.55641 0
M  V30 11847 H 1134.33 -4.36087 4.21797 0
M  V30 11848 H 1133.07 -3.76216 3.10343 0
M  V30 11849 H 1132.07 -2.38675 4.95292 0
M  V30 11850 H 1133.3 -3.01518 6.08493 0
M  V30 11851 H 1131.24 -4.68778 4.58893 0
M  V30 11852 H 1131.16 -4.23778 6.26058 0
M  V30 11853 H 1132.43 -5.29654 5.71915 0
M  V30 11854 N 1136.66 -1.52894 -0.382264 0
M  V30 11855 C 1137.61 -1.78151 -1.46734 0
M  V30 11856 C 1138.58 -0.625034 -1.53891 0
M  V30 11857 O 1139.76 -0.865467 -1.70042 0
M  V30 11858 C 1136.9 -1.96223 -2.83885 0
M  V30 11859 C 1136.01 -3.23925 -2.85826 0
M  V30 11860 C 1135.15 -3.32277 -4.14446 0
M  V30 11861 C 1134.19 -4.54076 -4.10465 0
M  V30 11862 N 1133.32 -4.59672 -5.30703 0
M  V30 11863 H 1138.16 -2.70748 -1.24497 0
M  V30 11864 H 1135.7 -1.34135 -0.603838 0
M  V30 11865 H 1137.66 -2.04686 -3.63537 0
M  V30 11866 H 1136.29 -1.0698 -3.04557 0
M  V30 11867 H 1135.34 -3.245 -1.98505 0
M  V30 11868 H 1136.65 -4.1364 -2.78754 0
M  V30 11869 H 1135.81 -3.3996 -5.02506 0
M  V30 11870 H 1134.55 -2.40548 -4.2425 0
M  V30 11871 H 1133.55 -4.46511 -3.20793 0
M  V30 11872 H 1134.78 -5.47128 -4.02278 0
M  V30 11873 H 1132.72 -3.70838 -5.41124 0
M  V30 11874 H 1132.64 -5.43268 -5.25734 0
M  V30 11875 H 1133.91 -4.71618 -6.20642 0
M  V30 11876 N 1138.14 0.641106 -1.43971 0
M  V30 11877 C 1139.07 1.76645 -1.46046 0
M  V30 11878 C 1140.08 1.58881 -0.355049 0
M  V30 11879 O 1141.27 1.67379 -0.620207 0
M  V30 11880 C 1138.37 3.14237 -1.26918 0
M  V30 11881 C 1137.54 3.5855 -2.50521 0
M  V30 11882 C 1136.6 4.74986 -2.26438 0
M  V30 11883 O 1135.63 4.83807 -2.99866 0
M  V30 11884 N 1136.83 5.66016 -1.28866 0
M  V30 11885 H 1139.6 1.75339 -2.43056 0
M  V30 11886 H 1137.16 0.82535 -1.39282 0
M  V30 11887 H 1139.15 3.89837 -1.0867 0
M  V30 11888 H 1137.72 3.10244 -0.383082 0
M  V30 11889 H 1136.94 2.73265 -2.84112 0
M  V30 11890 H 1138.23 3.84906 -3.32754 0
M  V30 11891 H 1137.63 5.61574 -0.682018 0
M  V30 11892 H 1136.18 6.41286 -1.16599 0
M  V30 11893 N 1139.62 1.30703 0.880598 0
M  V30 11894 C 1140.55 1.20033 2.00286 0
M  V30 11895 C 1141.53 0.0899614 1.69862 0
M  V30 11896 O 1142.71 0.272747 1.92275 0
M  V30 11897 C 1139.84 0.895902 3.35546 0
M  V30 11898 C 1138.8 1.96468 3.80242 0
M  V30 11899 C 1138.12 1.51316 5.12843 0
M  V30 11900 C 1139.42 3.37637 3.98496 0
M  V30 11901 H 1141.12 2.13922 2.0947 0
M  V30 11902 H 1138.66 1.02989 1.00644 0
M  V30 11903 H 1140.61 0.807899 4.13583 0
M  V30 11904 H 1139.34 -0.0786636 3.26505 0
M  V30 11905 H 1138 2.0424 3.04437 0
M  V30 11906 H 1137.65 0.52674 5.00234 0
M  V30 11907 H 1137.35 2.22807 5.43719 0
M  V30 11908 H 1138.87 1.43903 5.93401 0
M  V30 11909 H 1140.28 3.326 4.66959 0
M  V30 11910 H 1138.68 4.07253 4.40755 0
M  V30 11911 H 1139.75 3.79205 3.02211 0
M  V30 11912 N 1141.09 -1.09351 1.1349 0
M  V30 11913 C 1142.34 -1.81185 0.89535 0
M  V30 11914 C 1142.66 -1.86173 -0.580048 0
M  V30 11915 O 1141.93 -1.34784 -1.42162 0
M  V30 11916 H 1140.51 -0.671011 0.328257 0
M  V30 11917 H 1143.17 -1.32255 1.43159 0
M  V30 11918 H 1142.27 -2.84339 1.28676 0
M  V30 11919 N 1142.57 -0.928524 -1.27343 0
M  V30 11920 C 1143.5 -0.445627 -2.29208 0
M  V30 11921 C 1144.48 0.494508 -1.62753 0
M  V30 11922 O 1145.67 0.399082 -1.90055 0
M  V30 11923 C 1142.8 0.301684 -3.45987 0
M  V30 11924 C 1141.75 -0.550695 -4.24442 0
M  V30 11925 C 1141.08 0.325833 -5.33706 0
M  V30 11926 C 1142.38 -1.81559 -4.89728 0
M  V30 11927 H 1144.07 -1.29696 -2.69851 0
M  V30 11928 H 1141.62 -0.625085 -1.29725 0
M  V30 11929 H 1143.57 0.650455 -4.1635 0
M  V30 11930 H 1142.29 1.18705 -3.04264 0
M  V30 11931 H 1140.95 -0.882185 -3.55827 0
M  V30 11932 H 1140.6 1.21018 -4.88225 0
M  V30 11933 H 1140.3 -0.240994 -5.87106 0
M  V30 11934 H 1141.83 0.670156 -6.06911 0
M  V30 11935 H 1143.24 -1.53483 -5.52373 0
M  V30 11936 H 1141.64 -2.32598 -5.53189 0
M  V30 11937 H 1142.71 -2.53461 -4.13383 0
M  V30 11938 N 1144.05 1.41491 -0.694123 0
M  V30 11939 C 1144.98 2.33462 -0.0422169 0
M  V30 11940 C 1145.96 1.51739 0.76872 0
M  V30 11941 O 1147.15 1.8028 0.721985 0
M  V30 11942 C 1144.28 3.35545 0.895925 0
M  V30 11943 C 1143.23 4.27568 0.192188 0
M  V30 11944 C 1142.56 5.20014 1.24459 0
M  V30 11945 C 1143.86 5.1376 -0.940626 0
M  V30 11946 H 1145.55 2.88225 -0.810363 0
M  V30 11947 H 1143.1 1.38586 -0.39114 0
M  V30 11948 H 1145.05 3.9881 1.36121 0
M  V30 11949 H 1143.77 2.79129 1.69572 0
M  V30 11950 H 1142.43 3.65726 -0.25305 0
M  V30 11951 H 1142.08 4.59913 2.03687 0
M  V30 11952 H 1141.78 5.82417 0.778734 0
M  V30 11953 H 1143.3 5.86155 1.71041 0
M  V30 11954 H 1144.72 5.70601 -0.555692 0
M  V30 11955 H 1143.11 5.85097 -1.33349 0
M  V30 11956 H 1144.18 4.51011 -1.78093 0
M  V30 11957 N 1145.53 0.438773 1.51369 0
M  V30 11958 C 1146.46 -0.407771 2.25543 0
M  V30 11959 C 1147.47 -0.985065 1.29616 0
M  V30 11960 O 1148.66 -0.878961 1.55359 0
M  V30 11961 C 1145.76 -1.58257 2.9968 0
M  V30 11962 C 1144.93 -1.12389 4.22714 0
M  V30 11963 C 1143.99 -2.16897 4.79418 0
M  V30 11964 O 1143.02 -1.76273 5.41218 0
M  V30 11965 N 1144.22 -3.49396 4.63576 0
M  V30 11966 H 1146.99 0.227963 2.98832 0
M  V30 11967 H 1144.55 0.267741 1.59671 0
M  V30 11968 H 1146.54 -2.27796 3.34501 0
M  V30 11969 H 1145.11 -2.12362 2.29393 0
M  V30 11970 H 1144.33 -0.255509 3.93371 0
M  V30 11971 H 1145.62 -0.794848 5.02553 0
M  V30 11972 H 1145.02 -3.85132 4.14355 0
M  V30 11973 H 1143.57 -4.14826 5.02755 0
M  V30 11974 N 1147.01 -1.56678 0.170181 0
M  V30 11975 C 1148.42 -1.83452 -0.346742 0
M  V30 11976 C 1148.77 -1.08993 -1.63141 0
M  V30 11977 O 1147.89 -0.342607 -2.13671 0
M  V30 11978 C 1148.49 -3.32779 -0.635882 0
M  V30 11979 C 1147.05 -3.60052 -1.09725 0
M  V30 11980 C 1146.19 -2.76983 -0.132516 0
M  V30 11981 H 1149.14 -1.53719 0.394465 0
M  V30 11982 H 1149.17 -3.50195 -1.48806 0
M  V30 11983 H 1148.68 -3.86944 0.299291 0
M  V30 11984 H 1146.78 -3.11297 -2.04756 0
M  V30 11985 H 1146.89 -4.68393 -1.00719 0
M  V30 11986 H 1145.26 -2.46794 -0.62966 0
M  V30 11987 H 1146.04 -3.33929 0.796658 0
M  V30 11988 N 1148.48 0.103547 -1.57259 0
M  V30 11989 C 1149.71 0.82235 -1.89855 0
M  V30 11990 C 1150.13 1.72694 -0.76303 0
M  V30 11991 O 1149.48 1.8056 0.265421 0
M  V30 11992 C 1149.53 1.64282 -3.22015 0
M  V30 11993 O 1149.26 0.774628 -4.31197 0
M  V30 11994 C 1150.76 2.46543 -3.68418 0
M  V30 11995 H 1147.98 0.235591 -0.628282 0
M  V30 11996 H 1150.52 0.0833106 -2.0433 0
M  V30 11997 H 1148.68 2.33446 -3.09163 0
M  V30 11998 H 1149.09 1.34205 -5.0704 0
M  V30 11999 H 1150.56 2.99618 -4.63609 0
M  V30 12000 H 1151.04 3.24618 -2.95838 0
M  V30 12001 H 1151.65 1.82594 -3.84109 0
M  V30 12002 N 1149.96 1.53094 0.37415 0
M  V30 12003 C 1151.24 1.59456 1.13283 0
M  V30 12004 C 1151.62 0.396821 2.07337 0
M  V30 12005 O 1150.97 -0.613659 2.20106 0
M  V30 12006 C 1151.18 2.94069 1.87948 0
M  V30 12007 C 1152.52 3.4834 2.42785 0
M  V30 12008 O 1153.55 2.96042 1.98085 0
M  V30 12009 O 1152.41 4.39747 3.24477 0
M  V30 12010 H 1149.5 0.643731 0.519171 0
M  V30 12011 H 1152.05 1.65434 0.378105 0
M  V30 12012 H 1150.82 3.72685 1.19255 0
M  V30 12013 H 1150.44 2.91544 2.70348 0
M  V30 12014 N 1151.44 -0.633461 1.44309 0
M  V30 12015 C 1152.39 -1.76674 1.51292 0
M  V30 12016 C 1153.38 -1.64972 0.384807 0
M  V30 12017 O 1154.59 -1.71079 0.559653 0
M  V30 12018 H 1150.96 -0.583238 0.474697 0
M  V30 12019 H 1152.93 -1.67907 2.46678 0
M  V30 12020 C 1151.68 -3.15002 1.47205 0
M  V30 12021 H 1151.01 -3.24653 2.33325 0
M  V30 12022 H 1152.45 -3.94199 1.56151 0
M  V30 12023 C 1150.9 -3.3635 0.192464 0
M  V30 12024 O 1151.43 -3.94857 -0.738285 0
M  V30 12025 N 1149.64 -2.9044 0.0963424 0
M  V30 12026 H 1149.19 -2.43011 0.85459 0
M  V30 12027 H 1149.15 -3.05099 -0.759061 0
M  V30 12028 N 1152.92 -1.31168 -0.873655 0
M  V30 12029 C 1154.14 -1.23728 -1.66452 0
M  V30 12030 C 1154.57 0.194869 -1.87088 0
M  V30 12031 O 1153.93 1.1397 -1.40998 0
M  V30 12032 C 1153.97 -1.98285 -3.0119 0
M  V30 12033 O 1153.08 -1.31767 -3.90783 0
M  V30 12034 H 1152.42 -0.427362 -0.508191 0
M  V30 12035 H 1154.95 -1.73176 -1.08955 0
M  V30 12036 H 1154.96 -2.0774 -3.51153 0
M  V30 12037 H 1153.63 -3.02437 -2.8549 0
M  V30 12038 H 1152.21 -1.3074 -3.4923 0
M  V30 12039 N 1154.4 1.08748 -1.14068 0
M  V30 12040 C 1155.62 1.84814 -0.930138 0
M  V30 12041 C 1156.04 1.81461 0.521267 0
M  V30 12042 O 1155.4 1.21577 1.36108 0
M  V30 12043 C 1155.45 3.32501 -1.41863 0
M  V30 12044 O 1155.17 3.35846 -2.81317 0
M  V30 12045 C 1156.67 4.25384 -1.24753 0
M  V30 12046 H 1153.89 0.583546 -0.331233 0
M  V30 12047 H 1156.43 1.37366 -1.51495 0
M  V30 12048 H 1154.59 3.7735 -0.876664 0
M  V30 12049 H 1155 4.28013 -3.03159 0
M  V30 12050 H 1156.48 5.27138 -1.63798 0
M  V30 12051 H 1156.95 4.38789 -0.18999 0
M  V30 12052 H 1157.56 3.86357 -1.77787 0
M  V30 12053 N 1155.87 0.935264 1.26849 0
M  V30 12054 C 1157.1 0.596249 1.98122 0
M  V30 12055 C 1157.52 -0.827452 1.69702 0
M  V30 12056 O 1156.87 -1.55095 0.961864 0
M  V30 12057 C 1156.93 0.821773 3.52036 0
M  V30 12058 O 1156.65 2.18947 3.79465 0
M  V30 12059 C 1158.15 0.492498 4.40556 0
M  V30 12060 H 1155.37 0.225242 0.632066 0
M  V30 12061 H 1157.91 1.25435 1.61512 0
M  V30 12062 H 1156.07 0.210363 3.86828 0
M  V30 12063 H 1156.48 2.24509 4.74021 0
M  V30 12064 H 1157.95 0.700953 5.47531 0
M  V30 12065 H 1158.43 -0.57228 4.35456 0
M  V30 12066 H 1159.04 1.08238 4.11296 0
M  V30 12067 N 1157.35 -1.41121 0.701616 0
M  V30 12068 C 1158.6 -2.01428 0.235495 0
M  V30 12069 C 1158.93 -1.55463 -1.16382 0
M  V30 12070 O 1158.21 -0.768477 -1.78675 0
M  V30 12071 C 1158.49 -3.58849 0.299919 0
M  V30 12072 C 1158.34 -4.14924 1.73661 0
M  V30 12073 C 1159.66 -4.38809 -0.336856 0
M  V30 12074 H 1156.78 -0.731842 0.0870456 0
M  V30 12075 H 1159.42 -1.67787 0.891479 0
M  V30 12076 H 1157.57 -3.87638 -0.258611 0
M  V30 12077 H 1159.24 -3.96987 2.34945 0
M  V30 12078 H 1157.49 -3.69738 2.26884 0
M  V30 12079 H 1158.16 -5.24085 1.73318 0
M  V30 12080 H 1160.63 -4.15868 0.138886 0
M  V30 12081 H 1159.51 -5.48278 -0.261264 0
M  V30 12082 H 1159.77 -4.18728 -1.41843 0
M  V30 12083 N 1158.83 -0.446794 -1.51134 0
M  V30 12084 C 1160.06 0.117242 -2.07068 0
M  V30 12085 C 1160.48 1.34877 -1.3111 0
M  V30 12086 O 1159.84 1.77856 -0.35172 0
M  V30 12087 C 1159.89 0.408616 -3.58277 0
M  V30 12088 O 1158.99 1.49345 -3.84408 0
M  V30 12089 H 1158.33 -0.00228458 -0.663996 0
M  V30 12090 H 1160.86 -0.63085 -1.94632 0
M  V30 12091 H 1160.87 0.656298 -4.02687 0
M  V30 12092 H 1159.55 -0.491444 -4.12986 0
M  V30 12093 H 1158.12 1.23499 -3.51856 0
M  V30 12094 N 1160.31 1.56586 -0.178487 0
M  V30 12095 C 1161.55 1.9739 0.465306 0
M  V30 12096 C 1161.89 1.06474 1.6241 0
M  V30 12097 O 1161.16 0.113316 1.9417 0
M  V30 12098 C 1161.45 3.47577 0.941408 0
M  V30 12099 C 1161.3 4.49271 -0.218054 0
M  V30 12100 C 1162.62 4.01038 1.81263 0
M  V30 12101 H 1159.74 0.717676 0.167663 0
M  V30 12102 H 1162.38 1.88128 -0.266067 0
M  V30 12103 H 1160.53 3.556 1.56463 0
M  V30 12104 H 1162.2 4.53301 -0.855332 0
M  V30 12105 H 1160.44 4.24936 -0.872441 0
M  V30 12106 H 1161.11 5.51776 0.157315 0
M  V30 12107 H 1163.59 3.9569 1.28718 0
M  V30 12108 H 1162.47 5.06526 2.11476 0
M  V30 12109 H 1162.73 3.45288 2.76096 0
M  V30 12110 N 1161.79 -0.095206 1.57312 0
M  V30 12111 C 1163.01 -0.81227 1.90289 0
M  V30 12112 C 1163.43 -1.72287 0.772178 0
M  V30 12113 O 1162.79 -1.80698 -0.255841 0
M  V30 12114 C 1162.84 -1.62572 3.22882 0
M  V30 12115 O 1162.56 -0.75175 4.31602 0
M  V30 12116 C 1164.06 -2.44585 3.6972 0
M  V30 12117 H 1161.28 -0.232256 0.629522 0
M  V30 12118 H 1163.82 -0.0724733 2.04372 0
M  V30 12119 H 1161.98 -2.31803 3.10397 0
M  V30 12120 H 1162.39 -1.31514 5.07744 0
M  V30 12121 H 1163.87 -2.97155 4.65191 0
M  V30 12122 H 1164.34 -3.23044 2.97555 0
M  V30 12123 H 1164.95 -1.80554 3.85072 0
M  V30 12124 N 1163.26 -1.53291 -0.366026 0
M  V30 12125 C 1164.51 -1.69702 -1.11036 0
M  V30 12126 C 1164.84 -0.44728 -1.88979 0
M  V30 12127 O 1164.12 0.55542 -1.86401 0
M  V30 12128 C 1164.4 -2.94661 -2.06995 0
M  V30 12129 C 1164.25 -4.29791 -1.32663 0
M  V30 12130 C 1165.57 -3.15219 -3.07123 0
M  V30 12131 H 1162.69 -0.617525 -0.402284 0
M  V30 12132 H 1165.33 -1.85929 -0.391223 0
M  V30 12133 H 1163.48 -2.80958 -2.68318 0
M  V30 12134 H 1165.16 -4.55305 -0.741266 0
M  V30 12135 H 1163.4 -4.29223 -0.628484 0
M  V30 12136 H 1164.07 -5.13359 -2.02896 0
M  V30 12137 H 1166.55 -3.28105 -2.55903 0
M  V30 12138 H 1165.42 -4.04088 -3.71489 0
M  V30 12139 H 1165.68 -2.30479 -3.77269 0
M  V30 12140 N 1164.74 0.6258 -1.44643 0
M  V30 12141 C 1165.97 1.41726 -1.51422 0
M  V30 12142 C 1166.39 1.87565 -0.14181 0
M  V30 12143 O 1165.75 1.59059 0.870054 0
M  V30 12144 C 1165.8 2.61012 -2.48807 0
M  V30 12145 O 1164.9 3.61029 -1.99328 0
M  V30 12146 H 1164.24 0.423855 -0.511119 0
M  V30 12147 H 1166.77 0.763336 -1.89827 0
M  V30 12148 H 1166.78 3.08489 -2.67018 0
M  V30 12149 H 1165.46 2.26995 -3.48491 0
M  V30 12150 H 1164.04 3.20325 -1.90909 0
M  V30 12151 N 1166.22 1.31629 0.866686 0
M  V30 12152 C 1167.45 1.24609 1.65793 0
M  V30 12153 C 1167.87 -0.184944 1.87189 0
M  V30 12154 O 1167.23 -1.1322 1.41601 0
M  V30 12155 C 1167.28 1.9988 3.00134 0
M  V30 12156 O 1166.38 1.33838 3.90079 0
M  V30 12157 H 1165.72 0.430051 0.505917 0
M  V30 12158 H 1168.25 1.73752 1.08035 0
M  V30 12159 H 1168.26 2.09599 3.50046 0
M  V30 12160 H 1166.94 3.03947 2.83882 0
M  V30 12161 H 1165.51 1.3259 3.48532 0
M  V30 12162 N 1167.7 -1.08142 1.14644 0
M  V30 12163 C 1168.65 -2.17229 0.831513 0
M  V30 12164 C 1169.64 -1.68311 -0.19173 0
M  V30 12165 O 1170.85 -1.79937 -0.0475596 0
M  V30 12166 H 1167.22 -0.708807 0.25119 0
M  V30 12167 H 1169.19 -2.41014 1.75939 0
M  V30 12168 C 1167.94 -3.46146 0.328347 0
M  V30 12169 H 1167.27 -3.84166 1.10708 0
M  V30 12170 H 1168.71 -4.23747 0.146568 0
M  V30 12171 C 1167.16 -3.2327 -0.948594 0
M  V30 12172 O 1167.69 -3.47111 -2.0218 0
M  V30 12173 N 1165.9 -2.76799 -0.884909 0
M  V30 12174 H 1165.45 -2.57597 -0.011399 0
M  V30 12175 H 1165.41 -2.61871 -1.73985 0
M  V30 12176 N 1169.18 -0.941978 -1.26351 0
M  V30 12177 C 1170.11 -0.396486 -2.24729 0
M  V30 12178 C 1171.09 0.51514 -1.54224 0
M  V30 12179 O 1172.27 0.452405 -1.82991 0
M  V30 12180 C 1169.4 0.430232 -3.35956 0
M  V30 12181 C 1168.45 -0.419981 -4.24427 0
M  V30 12182 S 1169.28 -1.84442 -5.02734 0
M  V30 12183 C 1170.43 -1.02578 -6.17437 0
M  V30 12184 H 1170.67 -1.23025 -2.70651 0
M  V30 12185 H 1168.2 -0.745148 -1.35229 0
M  V30 12186 H 1170.16 0.901315 -4.00483 0
M  V30 12187 H 1168.82 1.23868 -2.88644 0
M  V30 12188 H 1168.01 0.213475 -5.03548 0
M  V30 12189 H 1167.61 -0.82578 -3.6477 0
M  V30 12190 H 1169.91 -0.268431 -6.76968 0
M  V30 12191 H 1170.85 -1.79047 -6.85089 0
M  V30 12192 H 1171.26 -0.561488 -5.61701 0
M  V30 12193 N 1170.66 1.40747 -0.709091 0
M  V30 12194 C 1171.9 2.013 -0.246174 0
M  V30 12195 C 1172.23 1.56078 1.15556 0
M  V30 12196 O 1171.51 0.777941 1.78265 0
M  V30 12197 C 1171.79 3.58685 -0.318945 0
M  V30 12198 C 1171.65 4.13997 -1.75859 0
M  V30 12199 C 1172.96 4.38981 0.31358 0
M  V30 12200 H 1170.08 0.73137 -0.0909255 0
M  V30 12201 H 1172.73 1.67312 -0.900365 0
M  V30 12202 H 1170.88 3.8777 0.23805 0
M  V30 12203 H 1172.55 3.95735 -2.37047 0
M  V30 12204 H 1170.79 3.6853 -2.28841 0
M  V30 12205 H 1171.46 5.23158 -1.76095 0
M  V30 12206 H 1173.94 4.15789 -0.160939 0
M  V30 12207 H 1172.81 5.48409 0.232184 0
M  V30 12208 H 1173.07 4.19474 1.39621 0
M  V30 12209 N 1172.13 0.454803 1.50895 0
M  V30 12210 C 1173.04 -0.353495 2.31921 0
M  V30 12211 C 1174.06 -1.01136 1.41589 0
M  V30 12212 O 1175.24 -1.00291 1.74653 0
M  V30 12213 C 1172.3 -1.43032 3.15821 0
M  V30 12214 C 1171.36 -0.790763 4.21954 0
M  V30 12215 C 1170.59 -1.81628 5.01843 0
M  V30 12216 O 1170.82 -3.04078 4.8259 0
M  V30 12217 O 1169.75 -1.39713 5.8546 0
M  V30 12218 H 1173.58 0.308463 3.02129 0
M  V30 12219 H 1171.16 0.216971 1.47816 0
M  V30 12220 H 1173.04 -2.05444 3.67927 0
M  V30 12221 H 1171.72 -2.07605 2.48358 0
M  V30 12222 H 1170.63 -0.128127 3.73881 0
M  V30 12223 H 1171.96 -0.188251 4.9184 0
M  V30 12224 N 1173.61 -1.56489 0.186789 0
M  V30 12225 C 1174.84 -2.01722 -0.459993 0
M  V30 12226 C 1175.25 -1.06697 -1.5576 0
M  V30 12227 O 1174.61 -0.0704212 -1.82364 0
M  V30 12228 C 1174.66 -3.46693 -1.02401 0
M  V30 12229 O 1174.38 -4.3809 0.0297916 0
M  V30 12230 C 1175.88 -4.07403 -1.7475 0
M  V30 12231 H 1173.1 -0.660845 -0.116298 0
M  V30 12232 H 1175.65 -2.02389 0.293059 0
M  V30 12233 H 1173.8 -3.46752 -1.72749 0
M  V30 12234 H 1174.22 -5.23057 -0.388821 0
M  V30 12235 H 1175.69 -5.10718 -2.09455 0
M  V30 12236 H 1176.17 -3.50383 -2.64818 0
M  V30 12237 H 1176.77 -4.11093 -1.09007 0
M  V30 12238 N 1175.09 0.086862 -1.5736 0
M  V30 12239 C 1176.34 0.790008 -1.8678 0
M  V30 12240 C 1176.67 1.77977 -0.777042 0
M  V30 12241 O 1175.94 1.93317 0.21419 0
M  V30 12242 C 1176.23 1.51143 -3.26845 0
M  V30 12243 C 1176.08 0.539106 -4.46558 0
M  V30 12244 C 1177.4 2.46003 -3.64926 0
M  V30 12245 H 1174.52 0.285741 -0.679354 0
M  V30 12246 H 1177.16 0.0534655 -1.89925 0
M  V30 12247 H 1175.31 2.13928 -3.24295 0
M  V30 12248 H 1176.98 -0.0823679 -4.61226 0
M  V30 12249 H 1175.22 -0.146842 -4.33551 0
M  V30 12250 H 1175.9 1.0812 -5.41308 0
M  V30 12251 H 1178.37 1.93306 -3.68473 0
M  V30 12252 H 1177.25 2.93493 -4.63846 0
M  V30 12253 H 1177.51 3.30133 -2.94049 0
M  V30 12254 N 1176.57 1.53483 0.357892 0
M  V30 12255 C 1177.81 1.70289 1.10134 0
M  V30 12256 C 1178.15 0.457296 1.88739 0
M  V30 12257 O 1177.42 -0.545527 1.86693 0
M  V30 12258 C 1177.7 2.95755 2.05429 0
M  V30 12259 C 1177.56 4.30489 1.30382 0
M  V30 12260 C 1178.88 3.16844 3.05447 0
M  V30 12261 H 1176 0.61965 0.399003 0
M  V30 12262 H 1178.64 1.86133 0.381357 0
M  V30 12263 H 1176.79 2.82377 2.66825 0
M  V30 12264 H 1178.46 4.55692 0.71711 0
M  V30 12265 H 1176.7 4.2955 0.605712 0
M  V30 12266 H 1177.37 5.14427 2.00171 0
M  V30 12267 H 1179.85 3.29458 2.54159 0
M  V30 12268 H 1178.73 4.06053 3.69341 0
M  V30 12269 H 1178.99 2.32476 3.76041 0
M  V30 12270 N 1178.05 -0.61812 1.44973 0
M  V30 12271 C 1179.29 -1.37468 1.48145 0
M  V30 12272 C 1179.61 -1.94628 0.120366 0
M  V30 12273 O 1178.88 -1.76548 -0.848982 0
M  V30 12274 H 1177.46 -0.510293 0.545536 0
M  V30 12275 H 1180.13 -0.726598 1.8085 0
M  V30 12276 H 1179.22 -2.19944 2.2143 0
M  V30 12277 N 1179.52 -1.32087 -0.859693 0
M  V30 12278 C 1180.46 -1.16426 -1.97428 0
M  V30 12279 C 1181.47 -0.100582 -1.62489 0
M  V30 12280 O 1182.66 -0.349063 -1.75054 0
M  V30 12281 C 1179.76 -0.758822 -3.30295 0
M  V30 12282 C 1178.93 -1.90971 -3.93508 0
M  V30 12283 C 1177.99 -1.48865 -5.04704 0
M  V30 12284 O 1177.02 -2.1999 -5.2497 0
M  V30 12285 N 1178.22 -0.38182 -5.79243 0
M  V30 12286 H 1180.98 -2.12433 -2.11406 0
M  V30 12287 H 1178.54 -1.24558 -1.03426 0
M  V30 12288 H 1180.54 -0.459643 -4.02081 0
M  V30 12289 H 1179.11 0.109944 -3.12407 0
M  V30 12290 H 1178.33 -2.37566 -3.14573 0
M  V30 12291 H 1179.61 -2.68032 -4.32477 0
M  V30 12292 H 1179.01 0.210268 -5.65309 0
M  V30 12293 H 1177.57 -0.142224 -6.51645 0
M  V30 12294 N 1181 1.07532 -1.15215 0
M  V30 12295 C 1181.93 2.1668 -0.870171 0
M  V30 12296 C 1182.91 1.69161 0.178483 0
M  V30 12297 O 1184.1 1.94172 0.0332489 0
M  V30 12298 C 1181.23 3.45464 -0.356666 0
M  V30 12299 C 1180.18 4.06424 -1.34179 0
M  V30 12300 C 1179.51 5.30266 -0.687206 0
M  V30 12301 C 1180.81 4.46666 -2.70715 0
M  V30 12302 H 1182.5 2.40526 -1.7829 0
M  V30 12303 H 1180.05 1.15598 -0.858665 0
M  V30 12304 H 1182 4.21144 -0.146947 0
M  V30 12305 H 1180.72 3.21199 0.591527 0
M  V30 12306 H 1179.38 3.32786 -1.53783 0
M  V30 12307 H 1179.03 5.0229 0.267077 0
M  V30 12308 H 1178.73 5.72009 -1.34462 0
M  V30 12309 H 1180.26 6.08653 -0.487218 0
M  V30 12310 H 1181.67 5.13483 -2.54966 0
M  V30 12311 H 1180.07 4.99355 -3.32813 0
M  V30 12312 H 1181.14 3.58123 -3.26919 0
M  V30 12313 N 1182.48 0.948665 1.2585 0
M  V30 12314 C 1183.39 0.470525 2.29833 0
M  V30 12315 C 1184.41 -0.45919 1.67832 0
M  V30 12316 O 1185.58 -0.336893 1.98562 0
M  V30 12317 C 1182.65 -0.249635 3.458 0
M  V30 12318 C 1181.71 0.717559 4.23261 0
M  V30 12319 C 1180.94 0.0316724 5.33691 0
M  V30 12320 O 1181.16 -1.18384 5.5798 0
M  V30 12321 O 1180.1 0.71418 5.97648 0
M  V30 12322 H 1183.92 1.33447 2.72811 0
M  V30 12323 H 1181.51 0.714864 1.31187 0
M  V30 12324 H 1183.39 -0.654993 4.16279 0
M  V30 12325 H 1182.07 -1.08885 3.04837 0
M  V30 12326 H 1180.97 1.17301 3.55234 0
M  V30 12327 H 1182.31 1.52461 4.67992 0
M  V30 12328 N 1183.96 -1.40369 0.716545 0
M  V30 12329 C 1184.89 -2.29186 0.0251905 0
M  V30 12330 C 1185.9 -1.45877 -0.722761 0
M  V30 12331 O 1187.09 -1.69155 -0.569982 0
M  V30 12332 C 1184.19 -3.24161 -0.988589 0
M  V30 12333 C 1183.37 -4.36329 -0.30597 0
M  V30 12334 C 1182.42 -5.11736 -1.22527 0
M  V30 12335 O 1181.45 -5.64758 -0.7097 0
M  V30 12336 N 1182.65 -5.21183 -2.55634 0
M  V30 12337 H 1185.42 -2.8916 0.787808 0
M  V30 12338 H 1182.98 -1.51749 0.564253 0
M  V30 12339 H 1184.97 -3.71479 -1.60578 0
M  V30 12340 H 1183.54 -2.65347 -1.65256 0
M  V30 12341 H 1182.76 -3.91125 0.491432 0
M  V30 12342 H 1184.05 -5.08523 0.167827 0
M  V30 12343 H 1183.45 -4.7959 -3.00017 0
M  V30 12344 H 1182 -5.72005 -3.12495 0
M  V30 12345 N 1185.44 -0.462799 -1.50652 0
M  V30 12346 C 1186.66 0.0929761 -2.06691 0
M  V30 12347 C 1187.08 1.34241 -1.32758 0
M  V30 12348 O 1186.44 1.78187 -0.394427 0
M  V30 12349 C 1186.49 0.389492 -3.59396 0
M  V30 12350 O 1186.21 -0.810379 -4.3054 0
M  V30 12351 C 1187.71 0.993147 -4.32032 0
M  V30 12352 H 1184.93 -0.00338664 -0.670991 0
M  V30 12353 H 1187.47 -0.649201 -1.93922 0
M  V30 12354 H 1185.63 1.08159 -3.71995 0
M  V30 12355 H 1186.04 -0.54996 -5.21609 0
M  V30 12356 H 1187.52 1.15044 -5.39878 0
M  V30 12357 H 1187.99 1.98106 -3.91983 0
M  V30 12358 H 1188.6 0.339677 -4.23941 0
M  V30 12359 N 1186.91 1.56388 -0.195085 0
M  V30 12360 C 1187.86 2.20431 0.742484 0
M  V30 12361 C 1188.86 1.17548 1.21979 0
M  V30 12362 O 1190.06 1.35693 1.18269 0
M  V30 12363 H 1186.44 0.706435 0.257786 0
M  V30 12364 H 1188.41 2.97865 0.178624 0
M  V30 12365 C 1187.16 2.87772 1.95147 0
M  V30 12366 H 1186.48 3.66681 1.59326 0
M  V30 12367 H 1187.92 3.36021 2.58585 0
M  V30 12368 C 1186.38 1.88807 2.79022 0
M  V30 12369 O 1186.91 1.38836 3.76945 0
M  V30 12370 N 1185.12 1.57037 2.44515 0
M  V30 12371 H 1184.66 1.97868 1.64943 0
M  V30 12372 H 1184.62 0.910776 3.00919 0
M  V30 12373 N 1188.39 -0.0785156 1.57404 0
M  V30 12374 C 1189.33 -1.12563 1.98506 0
M  V30 12375 C 1190.3 -1.3794 0.860891 0
M  V30 12376 O 1191.49 -1.51425 1.12262 0
M  V30 12377 C 1188.61 -2.47139 2.31603 0
M  V30 12378 C 1187.66 -2.3794 3.53959 0
M  V30 12379 S 1188.49 -1.77997 5.05052 0
M  V30 12380 C 1189.65 -3.14164 5.41342 0
M  V30 12381 H 1189.88 -0.775328 2.87012 0
M  V30 12382 H 1187.42 -0.286806 1.51713 0
M  V30 12383 H 1189.37 -3.24554 2.51346 0
M  V30 12384 H 1188.03 -2.79333 1.43638 0
M  V30 12385 H 1187.23 -3.37168 3.74612 0
M  V30 12386 H 1186.83 -1.68659 3.33812 0
M  V30 12387 H 1189.12 -4.10467 5.39002 0
M  V30 12388 H 1190.06 -2.98298 6.42202 0
M  V30 12389 H 1190.47 -3.1446 4.68802 0
M  V30 12390 N 1189.87 -1.5367 -0.349747 0
M  V30 12391 C 1190.82 -1.77604 -1.42972 0
M  V30 12392 C 1191.8 -0.631036 -1.48009 0
M  V30 12393 O 1193 -0.890228 -1.52983 0
M  V30 12394 C 1190.13 -1.98354 -2.80198 0
M  V30 12395 C 1189.21 -3.18901 -2.79576 0
M  V30 12396 N 1189.6 -4.40497 -2.48589 0
M  V30 12397 C 1187.9 -3.19945 -3.10727 0
M  V30 12398 C 1188.6 -5.22318 -2.56045 0
M  V30 12399 N 1187.58 -4.5889 -2.91412 0
M  V30 12400 H 1191.38 -2.69215 -1.17901 0
M  V30 12401 H 1188.89 -1.5251 -0.558062 0
M  V30 12402 H 1190.89 -2.13632 -3.58004 0
M  V30 12403 H 1189.55 -1.07981 -3.06219 0
M  V30 12404 H 1190.56 -4.67955 -2.21898 0
M  V30 12405 H 1187.24 -2.39519 -3.41961 0
M  V30 12406 H 1188.63 -6.29352 -2.35299 0
M  V30 12407 N 1191.35 0.610423 -1.45298 0
M  V30 12408 C 1192.57 1.40112 -1.52917 0
M  V30 12409 C 1193 1.87404 -0.161696 0
M  V30 12410 O 1192.36 1.59973 0.853135 0
M  V30 12411 C 1192.4 2.58359 -2.51561 0
M  V30 12412 O 1191.51 3.58895 -2.03146 0
M  V30 12413 H 1190.85 0.41841 -0.515586 0
M  V30 12414 H 1193.38 0.743159 -1.90626 0
M  V30 12415 H 1193.39 3.0564 -2.70275 0
M  V30 12416 H 1192.06 2.23286 -3.50879 0
M  V30 12417 H 1190.64 3.18282 -1.94296 0
M  V30 12418 N 1192.83 1.32541 0.852676 0
M  V30 12419 C 1194.24 1.20863 1.42299 0
M  V30 12420 C 1194.59 -0.178051 1.9539 0
M  V30 12421 O 1193.71 -1.07689 1.87702 0
M  V30 12422 C 1194.31 2.18811 2.58664 0
M  V30 12423 C 1192.87 2.11015 3.11689 0
M  V30 12424 C 1192.01 2.07067 1.84441 0
M  V30 12425 H 1194.97 1.44341 0.659657 0
M  V30 12426 H 1194.99 1.78779 3.35884 0
M  V30 12427 H 1194.5 3.19726 2.19993 0
M  V30 12428 H 1192.6 1.13354 3.54939 0
M  V30 12429 H 1192.71 3.00929 3.72799 0
M  V30 12430 H 1191.08 1.52335 2.04123 0
M  V30 12431 H 1191.86 3.09767 1.47984 0
M  V30 12432 N 1194.3 -1.0692 1.15784 0
M  V30 12433 C 1195.58 -1.76367 0.845825 0
M  V30 12434 C 1195.96 -2.00594 -0.657672 0
M  V30 12435 O 1195.31 -1.62794 -1.60345 0
M  V30 12436 C 1195.52 -3.06913 1.66149 0
M  V30 12437 C 1196.87 -3.81181 1.87046 0
M  V30 12438 O 1197.89 -3.16737 1.62961 0
M  V30 12439 O 1196.75 -4.96936 2.27413 0
M  V30 12440 H 1193.84 -0.766095 0.311493 0
M  V30 12441 H 1196.39 -1.13246 1.26386 0
M  V30 12442 H 1195.16 -2.84924 2.68205 0
M  V30 12443 H 1194.79 -3.77767 1.24007 0
M  V30 12444 N 1195.78 -0.955326 -1.25345 0
M  V30 12445 C 1197.03 -0.611388 -1.93365 0
M  V30 12446 C 1197.36 0.84953 -1.74633 0
M  V30 12447 O 1196.64 1.60962 -1.09185 0
M  V30 12448 C 1196.92 -0.971732 -3.46741 0
M  V30 12449 C 1196.77 -2.48843 -3.74696 0
M  V30 12450 C 1198.09 -0.497295 -4.37281 0
M  V30 12451 H 1195.21 -0.223591 -0.702265 0
M  V30 12452 H 1197.85 -1.1921 -1.47949 0
M  V30 12453 H 1196 -0.477568 -3.85554 0
M  V30 12454 H 1197.67 -3.05641 -3.45516 0
M  V30 12455 H 1195.92 -2.92582 -3.20278 0
M  V30 12456 H 1196.59 -2.69107 -4.8196 0
M  V30 12457 H 1199.06 -0.921196 -4.05775 0
M  V30 12458 H 1197.94 -0.778113 -5.43357 0
M  V30 12459 H 1198.2 0.602743 -4.37972 0
M  V30 12460 N 1197.26 1.39987 -0.723979 0
M  V30 12461 C 1198.51 1.99964 -0.26406 0
M  V30 12462 C 1198.82 1.58084 1.1519 0
M  V30 12463 O 1200.03 2.10819 1.71077 0
M  V30 12464 C 1198.49 3.57427 -0.421174 0
M  V30 12465 C 1198.09 4.08276 -1.84432 0
M  V30 12466 C 1199.84 4.24494 -0.0224734 0
M  V30 12467 C 1197.74 5.58272 -1.95157 0
M  V30 12468 H 1196.67 0.747995 -0.0949728 0
M  V30 12469 H 1199.33 1.60122 -0.896276 0
M  V30 12470 H 1197.71 3.95011 0.279762 0
M  V30 12471 H 1198.88 3.82051 -2.57631 0
M  V30 12472 H 1197.2 3.53834 -2.19523 0
M  V30 12473 H 1199.79 5.34637 -0.0817744 0
M  V30 12474 H 1200.14 4.03593 1.02069 0
M  V30 12475 H 1200.67 3.92046 -0.67416 0
M  V30 12476 H 1197.41 5.84038 -2.97623 0
M  V30 12477 H 1196.93 5.86335 -1.2638 0
M  V30 12478 H 1198.61 6.23509 -1.72759 0
M  V30 12479 N 1198.74 0.470782 1.50404 0
M  V30 12480 C 1199.99 -0.0844409 2.02624 0
M  V30 12481 C 1200.32 -1.39398 1.3521 0
M  V30 12482 O 1199.59 -1.88542 0.477707 0
M  V30 12483 C 1199.88 -0.268563 3.59097 0
M  V30 12484 C 1199.73 1.06198 4.37084 0
M  V30 12485 C 1201.05 -1.02324 4.28039 0
M  V30 12486 H 1198.17 -0.0292141 0.736421 0
M  V30 12487 H 1200.81 0.616312 1.79726 0
M  V30 12488 H 1198.96 -0.865441 3.78738 0
M  V30 12489 H 1200.63 1.69541 4.29015 0
M  V30 12490 H 1198.87 1.65868 4.00837 0
M  V30 12491 H 1199.55 0.886795 5.4483 0
M  V30 12492 H 1202.02 -0.517325 4.12872 0
M  V30 12493 H 1200.9 -1.12087 5.37334 0
M  V30 12494 H 1201.16 -2.05974 3.91187 0
M  V30 12495 N 1200.22 -1.56282 0.203376 0
M  V30 12496 C 1201.47 -1.97421 -0.432346 0
M  V30 12497 C 1201.79 -1.0917 -1.61576 0
M  V30 12498 O 1201.06 -0.164759 -1.95206 0
M  V30 12499 H 1199.64 -0.729062 -0.162721 0
M  V30 12500 H 1202.3 -1.927 0.292039 0
M  V30 12501 H 1201.39 -3.02429 -0.770918 0
M  V30 12502 N 1201.7 0.070167 -1.57444 0
M  V30 12503 C 1202.97 0.802108 -1.78397 0
M  V30 12504 C 1203.35 1.95706 -0.791356 0
M  V30 12505 O 1202.7 2.27827 0.17518 0
M  V30 12506 C 1202.91 1.27354 -3.24934 0
M  V30 12507 C 1204.26 1.70626 -3.88808 0
M  V30 12508 O 1205.28 1.36916 -3.28835 0
M  V30 12509 O 1204.14 2.33041 -4.94322 0
M  V30 12510 H 1201.24 0.384483 -0.73219 0
M  V30 12511 H 1203.78 0.0501168 -1.69626 0
M  V30 12512 H 1202.55 0.447204 -3.88736 0
M  V30 12513 H 1202.18 2.0868 -3.38435 0
M  V30 12514 N 1203.17 1.53854 0.341593 0
M  V30 12515 C 1204.4 1.7488 1.10002 0
M  V30 12516 C 1204.81 0.488802 1.82777 0
M  V30 12517 O 1204.15 -0.549333 1.75294 0
M  V30 12518 C 1204.22 2.87604 2.15694 0
M  V30 12519 C 1203.88 4.27142 1.62477 0
M  V30 12520 C 1204.88 5.08642 1.07606 0
M  V30 12521 C 1202.56 4.73633 1.67265 0
M  V30 12522 C 1204.56 6.34735 0.582284 0
M  V30 12523 C 1202.24 5.99697 1.175 0
M  V30 12524 C 1203.24 6.80081 0.630742 0
M  V30 12525 O 1202.93 8.03777 0.140519 0
M  V30 12526 H 1202.66 0.587824 0.333824 0
M  V30 12527 H 1205.22 2.01488 0.398965 0
M  V30 12528 H 1203.45 2.56526 2.89364 0
M  V30 12529 H 1205.13 2.96583 2.77117 0
M  V30 12530 H 1205.9 4.73887 1.03227 0
M  V30 12531 H 1201.78 4.11121 2.08567 0
M  V30 12532 H 1205.32 6.97424 0.156811 0
M  V30 12533 H 1201.22 6.33947 1.21579 0
M  V30 12534 H 1201.99 8.18094 0.257626 0
M  V30 12535 N 1204.65 -0.602709 1.4562 0
M  V30 12536 C 1205.9 -1.36359 1.50113 0
M  V30 12537 C 1206.23 -1.93663 0.144297 0
M  V30 12538 O 1205.51 -1.75337 -0.841851 0
M  V30 12539 C 1205.79 -2.50788 2.58413 0
M  V30 12540 C 1205.64 -1.98649 4.03557 0
M  V30 12541 C 1206.96 -3.52905 2.62957 0
M  V30 12542 H 1204.08 -0.494455 0.54652 0
M  V30 12543 H 1206.72 -0.678957 1.77455 0
M  V30 12544 H 1204.87 -3.09191 2.3523 0
M  V30 12545 H 1206.54 -1.44857 4.37966 0
M  V30 12546 H 1204.79 -1.29615 4.13984 0
M  V30 12547 H 1205.46 -2.81159 4.7503 0
M  V30 12548 H 1207.93 -3.0435 2.83743 0
M  V30 12549 H 1206.81 -4.30454 3.40589 0
M  V30 12550 H 1207.07 -4.0884 1.68233 0
M  V30 12551 N 1206.13 -1.32992 -0.845635 0
M  V30 12552 C 1207.38 -1.23415 -1.59536 0
M  V30 12553 C 1207.69 0.200278 -1.94572 0
M  V30 12554 O 1208.9 0.417993 -2.68263 0
M  V30 12555 C 1207.35 -2.16207 -2.8772 0
M  V30 12556 C 1206.96 -3.64782 -2.60073 0
M  V30 12557 C 1208.71 -2.15488 -3.65739 0
M  V30 12558 C 1206.61 -4.49508 -3.84313 0
M  V30 12559 H 1205.54 -0.458366 -0.598679 0
M  V30 12560 H 1208.19 -1.58012 -0.932981 0
M  V30 12561 H 1206.58 -1.74535 -3.55462 0
M  V30 12562 H 1207.75 -4.14852 -2.00585 0
M  V30 12563 H 1206.06 -3.67723 -1.95369 0
M  V30 12564 H 1208.66 -2.76021 -4.57948 0
M  V30 12565 H 1209 -1.14818 -4.00153 0
M  V30 12566 H 1209.54 -2.55487 -3.04912 0
M  V30 12567 H 1206.28 -5.51027 -3.55035 0
M  V30 12568 H 1205.8 -4.04185 -4.43165 0
M  V30 12569 H 1207.48 -4.62969 -4.51961 0
M  V30 12570 N 1207.61 1.06304 -1.1635 0
M  V30 12571 C 1208.86 1.78487 -0.939423 0
M  V30 12572 C 1209.17 1.8817 0.533998 0
M  V30 12573 O 1210.38 2.56981 0.875962 0
M  V30 12574 C 1208.83 3.20796 -1.63149 0
M  V30 12575 C 1208.44 3.19281 -3.14267 0
M  V30 12576 C 1210.18 3.97514 -1.48938 0
M  V30 12577 C 1208.09 4.56309 -3.76213 0
M  V30 12578 H 1207.02 0.668973 -0.347837 0
M  V30 12579 H 1209.67 1.19237 -1.3948 0
M  V30 12580 H 1208.05 3.80305 -1.10382 0
M  V30 12581 H 1209.23 2.69356 -3.73877 0
M  V30 12582 H 1207.54 2.56062 -3.28362 0
M  V30 12583 H 1210.14 4.98808 -1.926 0
M  V30 12584 H 1210.48 4.13986 -0.438319 0
M  V30 12585 H 1211.02 3.44528 -1.98861 0
M  V30 12586 H 1207.75 4.45042 -4.81267 0
M  V30 12587 H 1207.27 5.06429 -3.21388 0
M  V30 12588 H 1208.95 5.25266 -3.77762 0
M  V30 12589 N 1209.09 0.96196 1.24836 0
M  V30 12590 C 1210.31 0.637709 1.97353 0
M  V30 12591 C 1210.74 -0.784919 1.7094 0
M  V30 12592 O 1210.09 -1.53188 0.969694 0
M  V30 12593 C 1210.14 0.911485 3.4889 0
M  V30 12594 O 1209.25 -0.00601668 4.124 0
M  V30 12595 H 1208.59 0.241685 0.618453 0
M  V30 12596 H 1211.12 1.29055 1.58764 0
M  V30 12597 H 1211.13 0.840702 3.99245 0
M  V30 12598 H 1209.8 1.9483 3.67442 0
M  V30 12599 H 1208.38 0.117597 3.72715 0
M  V30 12600 N 1210.56 -1.39601 0.731392 0
M  V30 12601 C 1211.47 -2.34425 0.090527 0
M  V30 12602 C 1212.49 -1.58131 -0.725992 0
M  V30 12603 O 1213.67 -1.90441 -0.655294 0
M  V30 12604 C 1210.73 -3.37138 -0.808624 0
M  V30 12605 C 1209.79 -4.29295 0.0197365 0
M  V30 12606 C 1209.02 -5.27102 -0.836593 0
M  V30 12607 O 1209.25 -5.31302 -2.07543 0
M  V30 12608 O 1208.18 -6.01307 -0.267172 0
M  V30 12609 H 1212.01 -2.9088 0.873084 0
M  V30 12610 H 1209.59 -1.41066 0.492024 0
M  V30 12611 H 1211.47 -4.00087 -1.32319 0
M  V30 12612 H 1210.15 -2.83074 -1.57006 0
M  V30 12613 H 1209.06 -3.69581 0.579744 0
M  V30 12614 H 1210.39 -4.86555 0.743308 0
M  V30 12615 N 1212.04 -0.478751 -1.50152 0
M  V30 12616 C 1212.99 0.311426 -2.28689 0
M  V30 12617 C 1213.96 0.980375 -1.34082 0
M  V30 12618 O 1215.14 0.991337 -1.63025 0
M  V30 12619 C 1212.28 1.38302 -3.16175 0
M  V30 12620 C 1211.4 0.728084 -4.2582 0
M  V30 12621 C 1210.53 1.77822 -5.00552 0
M  V30 12622 C 1209.57 1.10395 -6.02063 0
M  V30 12623 N 1208.71 2.09728 -6.70044 0
M  V30 12624 H 1213.55 -0.364592 -2.95761 0
M  V30 12625 H 1211.09 -0.191645 -1.45846 0
M  V30 12626 H 1213.04 2.01606 -3.65255 0
M  V30 12627 H 1211.67 2.0281 -2.51133 0
M  V30 12628 H 1210.73 -0.0177026 -3.80396 0
M  V30 12629 H 1212.04 0.196209 -4.98414 0
M  V30 12630 H 1211.19 2.48687 -5.53389 0
M  V30 12631 H 1209.93 2.34392 -4.27682 0
M  V30 12632 H 1208.94 0.38096 -5.48479 0
M  V30 12633 H 1210.16 0.545045 -6.76909 0
M  V30 12634 H 1208.11 2.65301 -5.9996 0
M  V30 12635 H 1208.02 1.61546 -7.38538 0
M  V30 12636 H 1209.29 2.7995 -7.27495 0
M  V30 12637 N 1213.52 1.56172 -0.211661 0
M  V30 12638 C 1214.45 2.22843 0.697375 0
M  V30 12639 C 1215.43 1.19689 1.20866 0
M  V30 12640 O 1216.62 1.48245 1.25447 0
M  V30 12641 C 1213.75 2.90067 1.90993 0
M  V30 12642 C 1212.7 3.99608 1.5329 0
M  V30 12643 C 1212.03 4.54078 2.82343 0
M  V30 12644 C 1213.33 5.17169 0.730333 0
M  V30 12645 H 1215.02 2.99065 0.141533 0
M  V30 12646 H 1212.57 1.43846 0.0666337 0
M  V30 12647 H 1214.52 3.35396 2.55123 0
M  V30 12648 H 1213.24 2.11276 2.49058 0
M  V30 12649 H 1211.9 3.54995 0.915115 0
M  V30 12650 H 1211.55 3.72029 3.38531 0
M  V30 12651 H 1211.25 5.28001 2.57853 0
M  V30 12652 H 1212.77 5.02119 3.47432 0
M  V30 12653 H 1214.19 5.5894 1.2751 0
M  V30 12654 H 1212.59 5.97262 0.582916 0
M  V30 12655 H 1213.66 4.84174 -0.265157 0
M  V30 12656 N 1215 -0.0618163 1.57479 0
M  V30 12657 C 1216.25 -0.759069 1.87735 0
M  V30 12658 C 1216.57 -1.77071 0.804732 0
M  V30 12659 O 1215.83 -1.94694 -0.198173 0
M  V30 12660 C 1216.13 -1.4939 3.2468 0
M  V30 12661 C 1215.79 -0.621312 4.46599 0
M  V30 12662 C 1214.46 -0.380873 4.7969 0
M  V30 12663 C 1216.81 -0.0168537 5.21197 0
M  V30 12664 C 1214.14 0.473341 5.84787 0
M  V30 12665 C 1216.49 0.824872 6.27199 0
M  V30 12666 C 1215.15 1.07509 6.58785 0
M  V30 12667 H 1214.42 -0.277763 0.686971 0
M  V30 12668 H 1217.07 -0.0195971 1.9149 0
M  V30 12669 H 1215.37 -2.30584 3.16762 0
M  V30 12670 H 1217.07 -2.03837 3.45328 0
M  V30 12671 H 1213.66 -0.818848 4.20705 0
M  V30 12672 H 1217.84 -0.189707 4.95937 0
M  V30 12673 H 1213.1 0.675842 6.07653 0
M  V30 12674 H 1217.27 1.29993 6.8416 0
M  V30 12675 H 1214.9 1.73876 7.40048 0
M  V30 12676 N 1216.48 -1.54033 -0.333429 0
M  V30 12677 C 1217.72 -1.72019 -1.07411 0
M  V30 12678 C 1218.06 -0.487265 -1.87988 0
M  V30 12679 O 1217.33 0.515757 -1.87537 0
M  V30 12680 C 1217.61 -2.98986 -2.00698 0
M  V30 12681 C 1217.47 -4.32509 -1.23517 0
M  V30 12682 C 1218.79 -3.21663 -3.00368 0
M  V30 12683 H 1215.9 -0.625919 -0.389094 0
M  V30 12684 H 1218.55 -1.86717 -0.351697 0
M  V30 12685 H 1216.7 -2.86586 -2.62298 0
M  V30 12686 H 1218.37 -4.56775 -0.644522 0
M  V30 12687 H 1216.61 -4.3046 -0.537298 0
M  V30 12688 H 1217.28 -5.17547 -1.91962 0
M  V30 12689 H 1219.76 -3.33459 -2.48886 0
M  V30 12690 H 1218.63 -4.11877 -3.62834 0
M  V30 12691 H 1218.9 -2.3843 -3.72295 0
M  V30 12692 N 1217.95 0.594978 -1.45938 0
M  V30 12693 C 1219.37 0.917069 -1.30622 0
M  V30 12694 C 1219.57 1.99702 -0.268554 0
M  V30 12695 O 1218.63 2.50293 0.333146 0
M  V30 12696 C 1219.94 1.34604 -2.68891 0
M  V30 12697 C 1221.49 1.45957 -2.76886 0
M  V30 12698 C 1221.96 1.92225 -4.15708 0
M  V30 12699 N 1223.45 1.99439 -4.18065 0
M  V30 12700 C 1224.19 2.36488 -5.22361 0
M  V30 12701 N 1223.68 2.72416 -6.36994 0
M  V30 12702 N 1225.48 2.36936 -5.09723 0
M  V30 12703 H 1217.63 -0.118625 -2.12068 0
M  V30 12704 H 1219.89 0.00959453 -0.947951 0
M  V30 12705 H 1219.6 0.626605 -3.46073 0
M  V30 12706 H 1219.47 2.31006 -2.98188 0
M  V30 12707 H 1221.86 2.16989 -1.99999 0
M  V30 12708 H 1221.94 0.47838 -2.51287 0
M  V30 12709 H 1221.58 1.21775 -4.93085 0
M  V30 12710 H 1221.51 2.9128 -4.38707 0
M  V30 12711 H 1224 1.74212 -3.35349 0
M  V30 12712 H 1224.32 2.99604 -7.1236 0
M  V30 12713 H 1222.66 2.70083 -6.40375 0
M  V30 12714 H 1225.85 2.08282 -4.19209 0
M  V30 12715 H 1226.03 2.65483 -5.9112 0
M  V30 12716 N 1219.43 1.33438 0.838571 0
M  V30 12717 C 1220.66 1.28097 1.63113 0
M  V30 12718 C 1221.08 -0.145197 1.87539 0
M  V30 12719 O 1220.44 -1.10191 1.43971 0
M  V30 12720 C 1220.49 2.06201 2.95827 0
M  V30 12721 O 1219.59 1.42082 3.87152 0
M  V30 12722 H 1218.93 0.440685 0.496681 0
M  V30 12723 H 1221.46 1.76004 1.04325 0
M  V30 12724 H 1221.47 2.16977 3.45521 0
M  V30 12725 H 1220.15 3.099 2.77371 0
M  V30 12726 H 1218.73 1.39953 3.45641 0
M  V30 12727 N 1220.91 -1.05686 1.16912 0
M  V30 12728 C 1221.86 -2.13312 0.88129 0
M  V30 12729 C 1222.83 -1.65199 -0.172783 0
M  V30 12730 O 1224.01 -1.90765 -0.0366542 0
M  V30 12731 C 1221.15 -3.42829 0.395264 0
M  V30 12732 C 1220.27 -4.04643 1.51288 0
M  V30 12733 C 1219.4 -5.22059 0.981238 0
M  V30 12734 C 1218.44 -5.75869 2.07464 0
M  V30 12735 N 1217.58 -6.84592 1.55813 0
M  V30 12736 H 1222.42 -2.37271 1.80295 0
M  V30 12737 H 1219.95 -1.16407 0.899322 0
M  V30 12738 H 1221.91 -4.17092 0.0950633 0
M  V30 12739 H 1220.54 -3.19068 -0.489445 0
M  V30 12740 H 1219.59 -3.27867 1.92891 0
M  V30 12741 H 1220.91 -4.40626 2.33774 0
M  V30 12742 H 1220.06 -6.03372 0.634586 0
M  V30 12743 H 1218.8 -4.87538 0.125754 0
M  V30 12744 H 1217.8 -4.93188 2.42992 0
M  V30 12745 H 1219.03 -6.12439 2.93419 0
M  V30 12746 H 1216.97 -6.51978 0.725283 0
M  V30 12747 H 1216.89 -7.19551 2.31911 0
M  V30 12748 H 1218.16 -7.6957 1.24025 0
M  V30 12749 N 1222.39 -0.968567 -1.24324 0
M  V30 12750 C 1223.3 -0.50703 -2.29055 0
M  V30 12751 C 1224.31 0.432431 -1.68541 0
M  V30 12752 O 1225.49 0.30526 -1.99073 0
M  V30 12753 C 1222.56 0.194589 -3.46153 0
M  V30 12754 C 1221.62 -0.784805 -4.22066 0
M  V30 12755 C 1220.85 -0.116574 -5.33573 0
M  V30 12756 O 1221.07 1.09492 -5.59792 0
M  V30 12757 O 1220.01 -0.809171 -5.96436 0
M  V30 12758 H 1223.83 -1.3777 -2.70653 0
M  V30 12759 H 1221.42 -0.735645 -1.30033 0
M  V30 12760 H 1223.3 0.588684 -4.17268 0
M  V30 12761 H 1221.97 1.04021 -3.06531 0
M  V30 12762 H 1220.88 -1.22938 -3.53323 0
M  V30 12763 H 1222.21 -1.59887 -4.65507 0
M  V30 12764 N 1223.87 1.39211 -0.738786 0
M  V30 12765 C 1224.78 2.34374 -0.102958 0
M  V30 12766 C 1225.79 1.58514 0.717596 0
M  V30 12767 O 1226.97 1.90786 0.645186 0
M  V30 12768 C 1224.03 3.37562 0.790733 0
M  V30 12769 C 1223.09 4.29279 -0.0425028 0
M  V30 12770 C 1222.33 5.27539 0.808628 0
M  V30 12771 O 1222.55 5.32396 2.04722 0
M  V30 12772 O 1221.48 6.0144 0.235279 0
M  V30 12773 H 1225.31 2.90412 -0.888498 0
M  V30 12774 H 1222.9 1.40803 -0.499498 0
M  V30 12775 H 1224.78 4.00783 1.30196 0
M  V30 12776 H 1223.45 2.83903 1.55502 0
M  V30 12777 H 1222.36 3.69268 -0.599335 0
M  V30 12778 H 1223.69 4.86154 -0.7691 0
M  V30 12779 N 1225.34 0.486708 1.49896 0
M  V30 12780 C 1226.62 -0.125183 1.95199 0
M  V30 12781 C 1227 -1.55498 1.42771 0
M  V30 12782 O 1226.35 -2.1949 0.635322 0
M  V30 12783 C 1226.56 -0.0524982 3.48961 0
M  V30 12784 C 1227.91 -0.233595 4.23957 0
M  V30 12785 O 1228.93 -0.128357 3.55969 0
M  V30 12786 O 1227.79 -0.447862 5.44662 0
M  V30 12787 H 1224.88 -0.103141 0.820543 0
M  V30 12788 H 1227.43 0.548226 1.60601 0
M  V30 12789 H 1226.2 0.945163 3.79714 0
M  V30 12790 H 1225.83 -0.766683 3.90138 0
M  V30 12791 N 1226.82 -1.56058 0.219941 0
M  V30 12792 C 1228.07 -1.97869 -0.411383 0
M  V30 12793 C 1228.39 -1.10878 -1.60409 0
M  V30 12794 O 1227.66 -0.185454 -1.9502 0
M  V30 12795 H 1226.24 -0.730747 -0.154979 0
M  V30 12796 H 1228.9 -1.92379 0.312461 0
M  V30 12797 H 1228 -3.0323 -0.738798 0
M  V30 12798 N 1228.3 0.053464 -1.57509 0
M  V30 12799 C 1229.55 0.749102 -1.88135 0
M  V30 12800 C 1229.88 1.76642 -0.814111 0
M  V30 12801 O 1229.13 1.94796 0.187845 0
M  V30 12802 C 1229.43 1.47666 -3.25468 0
M  V30 12803 C 1229.1 0.597619 -4.46922 0
M  V30 12804 C 1227.76 0.355429 -4.79886 0
M  V30 12805 C 1230.11 -0.0107869 -5.21199 0
M  V30 12806 C 1227.44 -0.504347 -5.84528 0
M  V30 12807 C 1229.79 -0.858123 -6.26753 0
M  V30 12808 C 1228.45 -1.11001 -6.58206 0
M  V30 12809 H 1227.72 0.274116 -0.688434 0
M  V30 12810 H 1230.37 0.00944162 -1.91498 0
M  V30 12811 H 1228.68 2.28901 -3.1798 0
M  V30 12812 H 1230.37 2.02002 -3.46404 0
M  V30 12813 H 1226.96 0.796526 -4.21134 0
M  V30 12814 H 1231.15 0.163404 -4.96031 0
M  V30 12815 H 1226.4 -0.708057 -6.07286 0
M  V30 12816 H 1230.58 -1.3362 -6.83461 0
M  V30 12817 H 1228.2 -1.77798 -7.39116 0
M  V30 12818 N 1229.78 1.54207 0.325255 0
M  V30 12819 C 1230.74 1.82757 1.38321 0
M  V30 12820 C 1231.74 0.699312 1.44797 0
M  V30 12821 O 1232.93 0.96762 1.44854 0
M  V30 12822 C 1230.06 1.98608 2.7707 0
M  V30 12823 H 1231.26 2.7728 1.14261 0
M  V30 12824 H 1228.81 1.45899 0.560647 0
M  V30 12825 H 1229.55 1.0629 3.06387 0
M  V30 12826 H 1229.33 2.80707 2.73763 0
M  V30 12827 H 1230.82 2.2215 3.53609 0
M  V30 12828 N 1231.26 -0.58723 1.46251 0
M  V30 12829 C 1232.5 -1.3456 1.51327 0
M  V30 12830 C 1232.83 -1.93815 0.163146 0
M  V30 12831 O 1232.09 -1.76723 -0.840677 0
M  V30 12832 C 1232.39 -2.49776 2.5563 0
M  V30 12833 C 1232.05 -2.08543 3.99776 0
M  V30 12834 C 1230.71 -1.97013 4.39021 0
M  V30 12835 C 1233.07 -1.76669 4.90344 0
M  V30 12836 C 1230.39 -1.5186 5.66706 0
M  V30 12837 C 1232.75 -1.32996 6.18462 0
M  V30 12838 C 1231.41 -1.20039 6.56618 0
M  V30 12839 H 1230.68 -0.492391 0.553744 0
M  V30 12840 H 1233.33 -0.661715 1.79704 0
M  V30 12841 H 1231.63 -3.23592 2.20897 0
M  V30 12842 H 1233.33 -3.07995 2.56788 0
M  V30 12843 H 1229.92 -2.18451 3.68751 0
M  V30 12844 H 1234.1 -1.84465 4.60746 0
M  V30 12845 H 1229.36 -1.40467 5.95045 0
M  V30 12846 H 1233.53 -1.07385 6.88071 0
M  V30 12847 H 1231.16 -0.848268 7.55452 0
M  V30 12848 N 1232.74 -1.33881 -0.831482 0
M  V30 12849 C 1233.97 -1.28625 -1.61676 0
M  V30 12850 C 1234.37 0.143588 -1.88654 0
M  V30 12851 O 1233.72 1.09847 -1.47239 0
M  V30 12852 C 1233.78 -2.00022 -2.98716 0
M  V30 12853 C 1233.44 -3.49309 -2.94674 0
M  V30 12854 C 1234.44 -4.44375 -2.69864 0
M  V30 12855 C 1232.12 -3.91596 -3.14576 0
M  V30 12856 C 1234.12 -5.79703 -2.64996 0
M  V30 12857 C 1231.81 -5.27026 -3.09333 0
M  V30 12858 C 1232.8 -6.20892 -2.84575 0
M  V30 12859 O 1232.49 -7.53841 -2.79248 0
M  V30 12860 H 1232.22 -0.444235 -0.50954 0
M  V30 12861 H 1234.78 -1.76933 -1.04326 0
M  V30 12862 H 1233.01 -1.46316 -3.57951 0
M  V30 12863 H 1234.7 -1.88168 -3.59649 0
M  V30 12864 H 1235.46 -4.13027 -2.54231 0
M  V30 12865 H 1231.34 -3.18938 -3.32865 0
M  V30 12866 H 1234.89 -6.5294 -2.45591 0
M  V30 12867 H 1230.78 -5.57996 -3.24516 0
M  V30 12868 H 1231.55 -7.63476 -2.95037 0
M  V30 12869 N 1234.21 1.05064 -1.1747 0
M  V30 12870 C 1235.62 1.59547 -0.969628 0
M  V30 12871 C 1235.98 1.90153 0.483332 0
M  V30 12872 O 1235.1 1.68415 1.35887 0
M  V30 12873 C 1235.7 2.89877 -1.75377 0
M  V30 12874 C 1234.25 3.41013 -1.59332 0
M  V30 12875 C 1233.4 2.1473 -1.7546 0
M  V30 12876 H 1236.35 0.878595 -1.3216 0
M  V30 12877 H 1236.37 3.59834 -1.23691 0
M  V30 12878 H 1235.89 2.67569 -2.8112 0
M  V30 12879 H 1233.99 3.68355 -0.560827 0
M  V30 12880 H 1234.1 4.15512 -2.38509 0
M  V30 12881 H 1232.46 2.25553 -1.18313 0
M  V30 12882 H 1233.25 1.9489 -2.82618 0
M  V30 12883 N 1235.69 0.975146 1.23809 0
M  V30 12884 C 1236.65 0.516157 2.23312 0
M  V30 12885 C 1237.65 -0.39136 1.55965 0
M  V30 12886 O 1238.84 -0.185783 1.73206 0
M  V30 12887 C 1235.98 -0.251534 3.39971 0
M  V30 12888 H 1237.17 1.3959 2.65433 0
M  V30 12889 H 1234.72 0.760493 1.36551 0
M  V30 12890 H 1235.46 -1.14805 3.03299 0
M  V30 12891 H 1235.24 0.399825 3.90056 0
M  V30 12892 H 1236.73 -0.561438 4.13809 0
M  V30 12893 N 1237.17 -1.38817 0.746158 0
M  V30 12894 C 1238.41 -2.02129 0.303843 0
M  V30 12895 C 1238.77 -1.57943 -1.0917 0
M  V30 12896 O 1239.97 -2.13532 -1.63272 0
M  V30 12897 C 1238.25 -3.5499 0.414379 0
M  V30 12898 S 1239.8 -4.38767 0.0535495 0
M  V30 12899 H 1236.62 -0.701084 0.118329 0
M  V30 12900 H 1239.22 -1.69444 0.975137 0
M  V30 12901 H 1237.93 -3.84638 1.43114 0
M  V30 12902 H 1237.46 -3.92442 -0.274355 0
M  V30 12903 H 1239.47 -4.82469 -1.15921 0
M  V30 12904 N 1238.65 -0.49465 -1.49636 0
M  V30 12905 C 1239.88 0.0491129 -2.06842 0
M  V30 12906 C 1240.29 1.31395 -1.35576 0
M  V30 12907 O 1239.65 1.7731 -0.432135 0
M  V30 12908 C 1239.7 0.313171 -3.60141 0
M  V30 12909 O 1239.42 -0.90152 -4.28724 0
M  V30 12910 C 1240.92 0.901284 -4.34041 0
M  V30 12911 H 1238.14 -0.0176186 -0.670769 0
M  V30 12912 H 1240.68 -0.690188 -1.92501 0
M  V30 12913 H 1238.84 1.00244 -3.74206 0
M  V30 12914 H 1239.25 -0.660477 -5.20325 0
M  V30 12915 H 1240.73 1.03567 -5.42197 0
M  V30 12916 H 1241.2 1.89746 -3.96097 0
M  V30 12917 H 1241.81 0.249677 -4.24566 0
M  V30 12918 N 1240.13 1.55939 -0.228214 0
M  V30 12919 C 1241.07 2.21957 0.69556 0
M  V30 12920 C 1242.07 1.20109 1.19458 0
M  V30 12921 O 1243.27 1.38171 1.15364 0
M  V30 12922 H 1239.65 0.711744 0.242744 0
M  V30 12923 H 1241.62 2.98177 0.115403 0
M  V30 12924 C 1240.37 2.91847 1.88999 0
M  V30 12925 H 1239.69 3.69978 1.51512 0
M  V30 12926 H 1241.13 3.4143 2.51399 0
M  V30 12927 C 1239.59 1.94683 2.74954 0
M  V30 12928 O 1240.12 1.468 3.73915 0
M  V30 12929 N 1238.33 1.62188 2.41129 0
M  V30 12930 H 1237.87 2.01322 1.60709 0
M  V30 12931 H 1237.83 0.9744 2.98919 0
M  V30 12932 N 1241.6 -0.0451101 1.57535 0
M  V30 12933 C 1242.85 -0.737654 1.88157 0
M  V30 12934 C 1243.17 -1.76743 0.823817 0
M  V30 12935 O 1242.44 -1.95366 -0.144503 0
M  V30 12936 H 1241.02 -0.275431 0.694368 0
M  V30 12937 H 1243.69 -0.0148651 1.94894 0
M  V30 12938 H 1242.78 -1.23726 2.86528 0
M  V30 12939 N 1243.08 -1.54377 -0.317073 0
M  V30 12940 C 1244.03 -1.80597 -1.39172 0
M  V30 12941 C 1245.02 -0.662289 -1.46637 0
M  V30 12942 O 1246.21 -0.922477 -1.51061 0
M  V30 12943 C 1243.34 -2.04252 -2.75927 0
M  V30 12944 C 1242.42 -3.2476 -2.72749 0
M  V30 12945 N 1242.81 -4.45671 -2.39189 0
M  V30 12946 C 1241.11 -3.26464 -3.03871 0
M  V30 12947 C 1241.81 -5.27631 -2.44908 0
M  V30 12948 N 1240.79 -4.64968 -2.81613 0
M  V30 12949 H 1244.59 -2.71655 -1.12164 0
M  V30 12950 H 1242.11 -1.5366 -0.525586 0
M  V30 12951 H 1244.1 -2.21178 -3.53392 0
M  V30 12952 H 1242.76 -1.14452 -3.0386 0
M  V30 12953 H 1243.77 -4.72556 -2.11922 0
M  V30 12954 H 1240.45 -2.46718 -3.36803 0
M  V30 12955 H 1241.84 -6.34202 -2.21896 0
M  V30 12956 N 1244.56 0.579466 -1.4656 0
M  V30 12957 C 1245.52 1.67033 -1.56948 0
M  V30 12958 C 1246.52 1.54481 -0.446361 0
M  V30 12959 O 1247.71 1.5904 -0.710767 0
M  V30 12960 C 1244.85 3.06474 -1.49286 0
M  V30 12961 H 1246.04 1.59179 -2.54169 0
M  V30 12962 H 1243.59 0.797573 -1.34419 0
M  V30 12963 H 1244.33 3.1988 -0.533572 0
M  V30 12964 H 1244.11 3.16993 -2.30776 0
M  V30 12965 H 1245.6 3.85879 -1.59648 0
M  V30 12966 N 1246.04 1.3432 0.824371 0
M  V30 12967 C 1247.28 1.26783 1.58284 0
M  V30 12968 C 1247.62 -0.162282 1.93521 0
M  V30 12969 O 1246.89 -1.1073 1.59903 0
M  V30 12970 C 1247.18 2.15725 2.88331 0
M  V30 12971 C 1247.03 3.67266 2.59684 0
M  V30 12972 C 1248.35 2.04141 3.8989 0
M  V30 12973 H 1245.47 0.461893 0.574303 0
M  V30 12974 H 1248.11 1.64558 0.949769 0
M  V30 12975 H 1246.26 1.83639 3.42358 0
M  V30 12976 H 1247.93 4.09711 2.11978 0
M  V30 12977 H 1246.17 3.88426 1.93151 0
M  V30 12978 H 1246.84 4.24863 3.52414 0
M  V30 12979 H 1249.32 2.3231 3.45212 0
M  V30 12980 H 1248.2 2.68601 4.7869 0
M  V30 12981 H 1248.46 1.01795 4.30221 0
M  V30 12982 N 1247.52 -1.0444 1.18026 0
M  V30 12983 C 1248.93 -1.5903 0.978076 0
M  V30 12984 C 1249.28 -1.90407 -0.473241 0
M  V30 12985 O 1248.4 -1.69133 -1.34992 0
M  V30 12986 C 1249 -2.88942 1.76912 0
M  V30 12987 C 1247.56 -3.40164 1.61139 0
M  V30 12988 C 1246.7 -2.13797 1.76596 0
M  V30 12989 H 1249.66 -0.871574 1.32625 0
M  V30 12990 H 1249.68 -3.59173 1.25598 0
M  V30 12991 H 1249.19 -2.66074 2.82535 0
M  V30 12992 H 1247.29 -3.68053 0.580353 0
M  V30 12993 H 1247.4 -4.14241 2.40709 0
M  V30 12994 H 1245.77 -2.24922 1.19507 0
M  V30 12995 H 1246.55 -1.93389 2.83647 0
M  V30 12996 N 1248.99 -0.981699 -1.2329 0
M  V30 12997 C 1250.22 -0.66937 -1.95773 0
M  V30 12998 C 1250.64 0.763898 -1.72656 0
M  V30 12999 O 1249.99 1.51418 -1.01876 0
M  V30 13000 C 1250.05 -0.951863 -3.48743 0
M  V30 13001 O 1249.77 -2.3288 -3.71078 0
M  V30 13002 C 1251.27 -0.655668 -4.38424 0
M  V30 13003 H 1248.49 -0.248545 -0.623271 0
M  V30 13004 H 1251.03 -1.31343 -1.56746 0
M  V30 13005 H 1249.19 -0.353787 -3.85781 0
M  V30 13006 H 1249.6 -2.41948 -4.65362 0
M  V30 13007 H 1251.07 -0.903683 -5.44553 0
M  V30 13008 H 1251.55 0.410269 -4.3728 0
M  V30 13009 H 1252.16 -1.23428 -4.06996 0
M  V30 13010 N 1250.47 1.3842 -0.753509 0
M  V30 13011 C 1251.4 2.33073 -0.141198 0
M  V30 13012 C 1252.38 1.54863 0.70367 0
M  V30 13013 O 1253.57 1.8318 0.644872 0
M  V30 13014 C 1250.7 3.39043 0.752802 0
M  V30 13015 C 1249.65 4.27999 0.0106692 0
M  V30 13016 C 1248.98 5.24824 1.02291 0
M  V30 13017 C 1250.28 5.09308 -1.15768 0
M  V30 13018 H 1251.97 2.84528 -0.93188 0
M  V30 13019 H 1249.52 1.36802 -0.449567 0
M  V30 13020 H 1251.47 4.04224 1.19083 0
M  V30 13021 H 1250.2 2.8607 1.57581 0
M  V30 13022 H 1248.85 3.64323 -0.407939 0
M  V30 13023 H 1248.5 4.68139 1.83998 0
M  V30 13024 H 1248.2 5.85196 0.53101 0
M  V30 13025 H 1249.73 5.92882 1.46026 0
M  V30 13026 H 1251.14 5.6773 -0.797203 0
M  V30 13027 H 1249.54 5.78914 -1.58044 0
M  V30 13028 H 1250.61 4.43051 -1.97062 0
M  V30 13029 N 1251.95 0.502579 1.49372 0
M  V30 13030 C 1253.2 -0.041381 2.02458 0
M  V30 13031 C 1253.53 -1.36848 1.38213 0
M  V30 13032 O 1252.78 -1.89003 0.507568 0
M  V30 13033 C 1253.08 -0.240835 3.56588 0
M  V30 13034 C 1252.75 1.00846 4.39478 0
M  V30 13035 C 1251.41 1.35091 4.61848 0
M  V30 13036 C 1253.76 1.8388 4.87686 0
M  V30 13037 C 1251.09 2.52318 5.29672 0
M  V30 13038 C 1253.44 3.00262 5.56799 0
M  V30 13039 C 1252.1 3.34885 5.77415 0
M  V30 13040 H 1251.37 -0.0151424 0.740845 0
M  V30 13041 H 1254.02 0.663056 1.79655 0
M  V30 13042 H 1252.33 -1.02781 3.78078 0
M  V30 13043 H 1254.02 -0.676194 3.95258 0
M  V30 13044 H 1250.61 0.731719 4.22308 0
M  V30 13045 H 1254.8 1.58738 4.7023 0
M  V30 13046 H 1250.05 2.79379 5.43836 0
M  V30 13047 H 1254.23 3.64927 5.93128 0
M  V30 13048 H 1251.85 4.25824 6.29744 0
M  V30 13049 N 1253.43 -1.55816 0.23648 0
M  V30 13050 C 1254.84 -1.59159 -0.118601 0
M  V30 13051 C 1255.04 -1.25352 -1.57763 0
M  V30 13052 O 1254.1 -0.995863 -2.32032 0
M  V30 13053 C 1255.41 -2.99885 0.221175 0
M  V30 13054 C 1256.96 -3.12567 0.164624 0
M  V30 13055 C 1257.44 -4.55496 0.478285 0
M  V30 13056 N 1258.93 -4.61215 0.428402 0
M  V30 13057 C 1259.66 -5.69768 0.644398 0
M  V30 13058 N 1259.16 -6.86624 0.922966 0
M  V30 13059 N 1260.95 -5.59143 0.575814 0
M  V30 13060 H 1253.1 -1.76063 1.18809 0
M  V30 13061 H 1255.37 -0.819079 0.477297 0
M  V30 13062 H 1255.07 -3.29326 1.2344 0
M  V30 13063 H 1254.95 -3.74425 -0.456723 0
M  V30 13064 H 1257.33 -2.82914 -0.839263 0
M  V30 13065 H 1257.41 -2.40325 0.876219 0
M  V30 13066 H 1257.06 -4.85868 1.47968 0
M  V30 13067 H 1256.99 -5.25984 -0.254671 0
M  V30 13068 H 1259.48 -3.77251 0.221398 0
M  V30 13069 H 1259.79 -7.6528 1.07548 0
M  V30 13070 H 1258.14 -6.88333 0.960325 0
M  V30 13071 H 1261.33 -4.66727 0.358307 0
M  V30 13072 H 1261.5 -6.43674 0.747548 0
M  V30 13073 N 1254.91 0.036755 -1.57557 0
M  V30 13074 C 1255.84 1.03939 -2.09091 0
M  V30 13075 C 1256.82 1.38196 -0.991761 0
M  V30 13076 O 1258 1.47214 -1.26656 0
M  V30 13077 C 1255.13 2.34263 -2.56394 0
M  V30 13078 C 1254.09 2.14269 -3.70504 0
M  V30 13079 C 1253.41 3.50286 -4.03985 0
M  V30 13080 C 1254.71 1.53514 -4.9923 0
M  V30 13081 H 1256.41 0.610429 -2.93111 0
M  V30 13082 H 1253.95 0.292183 -1.41005 0
M  V30 13083 H 1255.91 3.04727 -2.91066 0
M  V30 13084 H 1254.63 2.79205 -1.69447 0
M  V30 13085 H 1253.29 1.46239 -3.36169 0
M  V30 13086 H 1252.94 3.92861 -3.14116 0
M  V30 13087 H 1252.64 3.37735 -4.80842 0
M  V30 13088 H 1254.16 4.22124 -4.41184 0
M  V30 13089 H 1255.57 2.13885 -5.31908 0
M  V30 13090 H 1253.97 1.51561 -5.80646 0
M  V30 13091 H 1255.04 0.500126 -4.82314 0
M  V30 13092 N 1256.39 1.54543 0.308881 0
M  V30 13093 C 1257.33 1.84949 1.38067 0
M  V30 13094 C 1258.3 0.697746 1.50734 0
M  V30 13095 O 1259.49 0.94561 1.65719 0
M  V30 13096 C 1256.63 2.09544 2.74199 0
M  V30 13097 C 1255.74 3.37193 2.70046 0
M  V30 13098 C 1254.88 3.51672 3.98121 0
M  V30 13099 C 1253.91 4.73143 3.88333 0
M  V30 13100 N 1253.05 4.84469 5.08167 0
M  V30 13101 H 1257.89 2.76379 1.11438 0
M  V30 13102 H 1255.43 1.36863 0.539153 0
M  V30 13103 H 1257.39 2.21798 3.53358 0
M  V30 13104 H 1256.02 1.21389 2.99106 0
M  V30 13105 H 1255.07 3.33601 1.82796 0
M  V30 13106 H 1256.38 4.26468 2.58701 0
M  V30 13107 H 1255.53 3.63548 4.85714 0
M  V30 13108 H 1254.27 2.60516 4.1229 0
M  V30 13109 H 1253.28 4.61308 2.99124 0
M  V30 13110 H 1254.5 5.65698 3.75716 0
M  V30 13111 H 1252.45 3.96234 5.22814 0
M  V30 13112 H 1252.37 5.67733 4.99215 0
M  V30 13113 H 1253.63 5.00693 5.97434 0
M  V30 13114 N 1257.86 -0.571685 1.46866 0
M  V30 13115 C 1259.11 -1.32685 1.52444 0
M  V30 13116 C 1259.43 -1.94147 0.182225 0
M  V30 13117 O 1258.7 -1.79159 -0.792385 0
M  V30 13118 H 1257.28 -0.492679 0.561495 0
M  V30 13119 H 1259.94 -0.668694 1.8307 0
M  V30 13120 H 1259.04 -2.12788 2.28315 0
M  V30 13121 N 1259.34 -1.34755 -0.817236 0
M  V30 13122 C 1260.59 -1.2718 -1.57066 0
M  V30 13123 C 1260.91 0.156531 -1.94371 0
M  V30 13124 O 1260.18 1.09049 -1.62742 0
M  V30 13125 H 1258.76 -0.467755 -0.582421 0
M  V30 13126 H 1261.42 -1.68734 -0.975438 0
M  V30 13127 H 1260.52 -1.88043 -2.49091 0
M  V30 13128 N 1260.82 1.03812 -1.18578 0
M  V30 13129 C 1261.78 2.10049 -0.91718 0
M  V30 13130 C 1262.78 1.60498 0.0985122 0
M  V30 13131 O 1263.97 1.73674 -0.135213 0
M  V30 13132 C 1261.1 3.38813 -0.376599 0
M  V30 13133 H 1262.3 2.3531 -1.85927 0
M  V30 13134 H 1259.85 1.20277 -0.998156 0
M  V30 13135 H 1260.59 3.19216 0.571983 0
M  V30 13136 H 1260.37 3.76096 -1.10881 0
M  V30 13137 H 1261.86 4.17084 -0.207453 0
M  V30 13138 N 1262.3 0.988223 1.22768 0
M  V30 13139 C 1263.71 0.697281 1.7319 0
M  V30 13140 C 1264.06 -0.786111 1.79763 0
M  V30 13141 O 1263.18 -1.61465 1.44077 0
M  V30 13142 C 1263.78 1.25905 3.14537 0
M  V30 13143 C 1262.34 1.01759 3.62384 0
M  V30 13144 C 1261.49 1.38207 2.40404 0
M  V30 13145 H 1264.44 1.16114 1.08181 0
M  V30 13146 H 1264.46 0.635315 3.75159 0
M  V30 13147 H 1263.97 2.33869 3.09721 0
M  V30 13148 H 1262.07 -0.045627 3.72572 0
M  V30 13149 H 1262.18 1.67767 4.48766 0
M  V30 13150 H 1260.55 0.800607 2.4179 0
M  V30 13151 H 1261.33 2.47165 2.38253 0
M  V30 13152 N 1263.78 -1.38018 0.760839 0
M  V30 13153 C 1265.02 -2.00248 0.320716 0
M  V30 13154 C 1265.35 -1.60259 -1.09684 0
M  V30 13155 O 1264.63 -0.843567 -1.75255 0
M  V30 13156 C 1264.91 -3.57254 0.451849 0
M  V30 13157 C 1264.77 -4.07185 1.91103 0
M  V30 13158 C 1266.08 -4.39843 -0.150439 0
M  V30 13159 H 1263.2 -0.727491 0.118007 0
M  V30 13160 H 1265.85 -1.63855 0.961842 0
M  V30 13161 H 1264 -3.88386 -0.0939672 0
M  V30 13162 H 1265.67 -3.86665 2.51571 0
M  V30 13163 H 1263.91 -3.59782 2.42362 0
M  V30 13164 H 1264.58 -5.16262 1.9539 0
M  V30 13165 H 1267.06 -4.14905 0.315145 0
M  V30 13166 H 1265.93 -5.48893 -0.0284853 0
M  V30 13167 H 1266.19 -4.24367 -1.23956 0
M  V30 13168 N 1265.25 -0.510493 -1.49103 0
M  V30 13169 C 1266.2 0.262848 -2.29298 0
M  V30 13170 C 1267.17 0.951714 -1.36131 0
M  V30 13171 O 1268.36 0.956534 -1.65091 0
M  V30 13172 C 1265.5 1.31565 -3.19037 0
M  V30 13173 C 1264.61 0.637598 -4.27269 0
M  V30 13174 C 1263.74 1.67165 -5.04212 0
M  V30 13175 C 1262.78 0.975992 -6.04269 0
M  V30 13176 N 1261.92 1.95468 -6.74342 0
M  V30 13177 H 1266.76 -0.427246 -2.94921 0
M  V30 13178 H 1264.3 -0.222538 -1.45407 0
M  V30 13179 H 1266.25 1.93813 -3.69449 0
M  V30 13180 H 1264.88 1.97438 -2.55379 0
M  V30 13181 H 1263.94 -0.0983863 -3.80273 0
M  V30 13182 H 1265.25 0.0904435 -4.98718 0
M  V30 13183 H 1264.4 2.36893 -5.5854 0
M  V30 13184 H 1263.14 2.25267 -4.32557 0
M  V30 13185 H 1262.15 0.264534 -5.49163 0
M  V30 13186 H 1263.37 0.40134 -6.77913 0
M  V30 13187 H 1261.32 2.52515 -6.05452 0
M  V30 13188 H 1261.23 1.45845 -7.41799 0
M  V30 13189 H 1262.5 2.64455 -7.33269 0
M  V30 13190 N 1266.73 1.55688 -0.24474 0
M  V30 13191 C 1267.68 2.21289 0.655723 0
M  V30 13192 C 1268.65 1.17606 1.17295 0
M  V30 13193 O 1269.83 1.46045 1.22782 0
M  V30 13194 C 1266.97 2.91453 1.84794 0
M  V30 13195 C 1266.09 4.09787 1.36744 0
M  V30 13196 C 1265.22 4.67672 2.51905 0
M  V30 13197 C 1264.26 5.78259 2.00706 0
M  V30 13198 N 1263.4 6.30336 3.09225 0
M  V30 13199 H 1268.24 2.97865 0.0896156 0
M  V30 13200 H 1265.77 1.47064 0.0324725 0
M  V30 13201 H 1267.73 3.30331 2.54828 0
M  V30 13202 H 1266.36 2.17355 2.38656 0
M  V30 13203 H 1265.41 3.76237 0.561228 0
M  V30 13204 H 1266.73 4.89627 0.952199 0
M  V30 13205 H 1265.88 5.09113 3.29984 0
M  V30 13206 H 1264.62 3.87044 2.9673 0
M  V30 13207 H 1263.62 5.36298 1.21097 0
M  V30 13208 H 1264.85 6.60737 1.56853 0
M  V30 13209 H 1262.8 5.52614 3.53489 0
M  V30 13210 H 1262.71 7.05364 2.72025 0
M  V30 13211 H 1263.98 6.76435 3.8737 0
M  V30 13212 N 1268.21 -0.0283989 1.57574 0
M  V30 13213 C 1269.46 -0.720142 1.89583 0
M  V30 13214 C 1269.79 -1.7497 0.842562 0
M  V30 13215 O 1269.06 -1.93979 -0.142294 0
M  V30 13216 C 1269.35 -1.38909 3.32229 0
M  V30 13217 C 1269.2 -0.372998 4.48251 0
M  V30 13218 C 1270.52 -2.32289 3.73804 0
M  V30 13219 H 1267.64 -0.26033 0.689491 0
M  V30 13220 H 1270.28 0.0170607 1.89992 0
M  V30 13221 H 1268.43 -2.01744 3.32011 0
M  V30 13222 H 1270.1 0.253492 4.60603 0
M  V30 13223 H 1268.34 0.30765 4.32708 0
M  V30 13224 H 1269.02 -0.879549 5.44948 0
M  V30 13225 H 1271.49 -1.79497 3.75393 0
M  V30 13226 H 1270.37 -2.76075 4.74419 0
M  V30 13227 H 1270.63 -3.18992 3.06099 0
M  V30 13228 N 1269.69 -1.54705 -0.300681 0
M  V30 13229 C 1270.65 -1.84934 -1.35395 0
M  V30 13230 C 1271.65 -0.72226 -1.43666 0
M  V30 13231 O 1272.84 -0.990543 -1.43296 0
M  V30 13232 C 1269.97 -2.02991 -2.73875 0
M  V30 13233 H 1271.17 -2.79063 -1.09835 0
M  V30 13234 H 1268.72 -1.46772 -0.537365 0
M  V30 13235 H 1269.45 -1.11151 -3.04657 0
M  V30 13236 H 1269.24 -2.85027 -2.69262 0
M  V30 13237 H 1270.73 -2.27747 -3.5003 0
M  V30 13238 N 1271.17 0.563888 -1.47167 0
M  V30 13239 C 1272.41 1.32136 -1.53448 0
M  V30 13240 C 1272.74 1.9353 -0.19396 0
M  V30 13241 O 1272 1.78038 0.812456 0
M  V30 13242 C 1272.3 2.45678 -2.59571 0
M  V30 13243 C 1271.96 2.02157 -4.03043 0
M  V30 13244 C 1270.62 1.90003 -4.421 0
M  V30 13245 C 1272.98 1.68846 -4.93093 0
M  V30 13246 C 1270.3 1.42825 -5.6905 0
M  V30 13247 C 1272.66 1.2314 -6.20499 0
M  V30 13248 C 1271.32 1.09578 -6.58444 0
M  V30 13249 H 1270.59 0.483519 -0.561507 0
M  V30 13250 H 1273.24 0.633042 -1.80734 0
M  V30 13251 H 1271.54 3.20037 -2.26017 0
M  V30 13252 H 1273.24 3.03871 -2.61655 0
M  V30 13253 H 1269.83 2.12557 -3.7218 0
M  V30 13254 H 1274.01 1.77111 -4.63622 0
M  V30 13255 H 1269.27 1.30983 -5.97205 0
M  V30 13256 H 1273.44 0.964247 -6.89692 0
M  V30 13257 H 1271.07 0.727975 -7.56706 0
M  V30 13258 N 1272.64 1.35187 0.810078 0
M  V30 13259 C 1273.89 1.28011 1.56389 0
M  V30 13260 C 1274.21 -0.14622 1.94451 0
M  V30 13261 O 1273.48 -1.08185 1.63318 0
M  V30 13262 H 1272.06 0.470837 0.579932 0
M  V30 13263 H 1274.73 1.69249 0.966476 0
M  V30 13264 H 1273.82 1.89362 2.4809 0
M  V30 13265 N 1274.12 -1.03182 1.19127 0
M  V30 13266 C 1275.37 -1.76184 0.990134 0
M  V30 13267 C 1275.69 -1.88986 -0.480546 0
M  V30 13268 O 1274.96 -1.4213 -1.34817 0
M  V30 13269 H 1273.54 -0.652668 0.363364 0
M  V30 13270 H 1276.2 -1.24481 1.49968 0
M  V30 13271 H 1275.3 -2.77119 1.43568 0
M  V30 13272 N 1275.6 -0.99472 -1.22242 0
M  V30 13273 C 1276.88 -0.587481 -1.86569 0
M  V30 13274 C 1277.26 0.935174 -1.89256 0
M  V30 13275 O 1276.61 1.81787 -1.3844 0
M  V30 13276 C 1276.82 -1.21001 -3.27353 0
M  V30 13277 C 1278.16 -1.31167 -4.03832 0
M  V30 13278 O 1279.19 -1.16454 -3.36626 0
M  V30 13279 O 1278.05 -1.54731 -5.24138 0
M  V30 13280 H 1275.14 -0.199838 -0.802492 0
M  V30 13281 H 1277.69 -1.09071 -1.30006 0
M  V30 13282 H 1276.46 -2.25143 -3.20041 0
M  V30 13283 H 1276.08 -0.692479 -3.91523 0
M  V30 13284 N 1277.08 1.37613 -0.768148 0
M  V30 13285 C 1278.01 2.28935 -0.110234 0
M  V30 13286 C 1279.02 1.48459 0.668122 0
M  V30 13287 O 1280.21 1.71154 0.506808 0
M  V30 13288 C 1277.31 3.27606 0.867598 0
M  V30 13289 C 1276.49 4.37163 0.143819 0
M  V30 13290 C 1275.54 5.15931 1.03449 0
M  V30 13291 O 1274.57 5.67003 0.499605 0
M  V30 13292 N 1275.77 5.30311 2.36114 0
M  V30 13293 H 1278.54 2.86037 -0.894585 0
M  V30 13294 H 1276.1 1.4955 -0.620185 0
M  V30 13295 H 1278.09 3.77183 1.4668 0
M  V30 13296 H 1276.66 2.71298 1.55294 0
M  V30 13297 H 1275.88 3.89031 -0.636257 0
M  V30 13298 H 1277.17 5.0755 -0.356446 0
M  V30 13299 H 1276.57 4.90394 2.82011 0
M  V30 13300 H 1275.12 5.83209 2.9105 0
M  V30 13301 N 1278.56 0.518393 1.4883 0
M  V30 13302 C 1279.8 -0.0199348 2.0279 0
M  V30 13303 C 1280.14 -1.35026 1.39576 0
M  V30 13304 O 1279.41 -1.86927 0.537449 0
M  V30 13305 C 1279.69 -0.154184 3.5977 0
M  V30 13306 C 1279.55 1.2005 4.33484 0
M  V30 13307 C 1280.87 -0.886547 4.31078 0
M  V30 13308 H 1277.98 -0.00577061 0.736977 0
M  V30 13309 H 1280.63 0.673178 1.77675 0
M  V30 13310 H 1278.78 -0.74451 3.81299 0
M  V30 13311 H 1280.45 1.83104 4.23404 0
M  V30 13312 H 1278.69 1.78537 3.95357 0
M  V30 13313 H 1279.36 1.05968 5.41733 0
M  V30 13314 H 1281.84 -0.385711 4.14308 0
M  V30 13315 H 1280.71 -0.949355 5.40628 0
M  V30 13316 H 1280.98 -1.93424 3.97542 0
M  V30 13317 N 1280.03 -1.55556 0.252993 0
M  V30 13318 C 1280.98 -2.18298 -0.658028 0
M  V30 13319 C 1281.97 -1.14072 -1.13474 0
M  V30 13320 O 1283.16 -1.39962 -1.0835 0
M  V30 13321 C 1280.29 -2.89067 -1.8519 0
M  V30 13322 C 1279.38 -4.00556 -1.3934 0
M  V30 13323 N 1279.77 -5.01612 -0.649538 0
M  V30 13324 C 1278.06 -4.13222 -1.67819 0
M  V30 13325 C 1278.77 -5.80244 -0.411347 0
M  V30 13326 N 1277.74 -5.34742 -0.977342 0
M  V30 13327 H 1281.54 -2.93787 -0.0816162 0
M  V30 13328 H 1279.06 -1.62305 0.0555728 0
M  V30 13329 H 1281.05 -3.32448 -2.51563 0
M  V30 13330 H 1279.71 -2.15082 -2.43248 0
M  V30 13331 H 1280.73 -5.17036 -0.299043 0
M  V30 13332 H 1277.4 -3.50414 -2.26972 0
M  V30 13333 H 1278.79 -6.71651 0.182911 0
M  V30 13334 N 1281.51 0.0200419 -1.57587 0
M  V30 13335 C 1282.42 1.0346 -2.10555 0
M  V30 13336 C 1283.44 1.39035 -1.0462 0
M  V30 13337 O 1284.61 1.48172 -1.36407 0
M  V30 13338 C 1281.68 2.31389 -2.58186 0
M  V30 13339 C 1280.74 2.02311 -3.7864 0
M  V30 13340 C 1279.97 3.24141 -4.23991 0
M  V30 13341 O 1280.2 4.35132 -3.68803 0
M  V30 13342 O 1279.13 3.09312 -5.16342 0
M  V30 13343 H 1282.96 0.614419 -2.9742 0
M  V30 13344 H 1280.54 0.237604 -1.47498 0
M  V30 13345 H 1282.42 3.06582 -2.89112 0
M  V30 13346 H 1281.1 2.72684 -1.74428 0
M  V30 13347 H 1280.01 1.24658 -3.5272 0
M  V30 13348 H 1281.34 1.65866 -4.6341 0
M  V30 13349 N 1282.99 1.54862 0.292472 0
M  V30 13350 C 1284.24 1.74807 1.02813 0
M  V30 13351 C 1284.57 0.536935 1.8663 0
M  V30 13352 O 1283.84 -0.465854 1.88839 0
M  V30 13353 C 1284.13 3.04202 1.927 0
M  V30 13354 C 1283.98 4.35631 1.12006 0
M  V30 13355 C 1285.3 3.29514 2.91734 0
M  V30 13356 H 1282.42 0.636015 0.372362 0
M  V30 13357 H 1285.06 1.87583 0.302069 0
M  V30 13358 H 1283.21 2.9344 2.54608 0
M  V30 13359 H 1284.88 4.58323 0.52319 0
M  V30 13360 H 1283.13 4.31733 0.42298 0
M  V30 13361 H 1283.8 5.22454 1.78172 0
M  V30 13362 H 1286.27 3.39941 2.39957 0
M  V30 13363 H 1285.15 4.21352 3.51786 0
M  V30 13364 H 1285.41 2.48216 3.65843 0
M  V30 13365 N 1284.47 -0.556076 1.47464 0
M  V30 13366 C 1285.43 -1.64515 1.59586 0
M  V30 13367 C 1286.43 -1.53751 0.470881 0
M  V30 13368 O 1287.62 -1.57889 0.735979 0
M  V30 13369 C 1284.75 -3.0406 1.54143 0
M  V30 13370 H 1285.95 -1.55116 2.56669 0
M  V30 13371 H 1283.5 -0.776087 1.35671 0
M  V30 13372 H 1284.23 -3.18991 0.584395 0
M  V30 13373 H 1284.02 -3.13282 2.3579 0
M  V30 13374 H 1285.51 -3.8329 1.65766 0
M  V30 13375 N 1285.95 -1.35615 -0.802897 0
M  V30 13376 C 1286.91 -1.28705 -1.89651 0
M  V30 13377 C 1287.91 -0.197681 -1.5958 0
M  V30 13378 O 1289.1 -0.451618 -1.68244 0
M  V30 13379 C 1286.23 -0.991941 -3.26149 0
M  V30 13380 H 1287.43 -2.25951 -1.97196 0
M  V30 13381 H 1284.98 -1.20192 -0.999179 0
M  V30 13382 H 1285.71 -0.0235051 -3.24291 0
M  V30 13383 H 1285.5 -1.78013 -3.49362 0
M  V30 13384 H 1286.99 -0.969298 -4.06195 0
M  V30 13385 N 1287.43 1.02549 -1.19673 0
M  V30 13386 C 1288.67 1.76265 -1.00293 0
M  V30 13387 C 1289 1.88555 0.464816 0
M  V30 13388 O 1288.28 1.40484 1.34515 0
M  V30 13389 C 1288.56 3.18688 -1.6766 0
M  V30 13390 C 1288.42 3.14247 -3.21821 0
M  V30 13391 C 1289.73 4.17159 -1.40238 0
M  V30 13392 H 1286.85 0.639837 -0.365756 0
M  V30 13393 H 1289.5 1.19691 -1.4756 0
M  V30 13394 H 1287.65 3.66992 -1.27472 0
M  V30 13395 H 1289.32 2.73815 -3.71245 0
M  V30 13396 H 1287.56 2.51874 -3.53188 0
M  V30 13397 H 1288.23 4.14886 -3.64107 0
M  V30 13398 H 1290.71 3.77471 -1.75086 0
M  V30 13399 H 1289.58 5.14997 -1.89919 0
M  V30 13400 H 1289.84 4.4088 -0.328197 0
M  V30 13401 N 1288.9 1.00119 1.21713 0
M  V30 13402 C 1290.32 0.713343 1.42771 0
M  V30 13403 C 1290.52 -0.712923 1.88467 0
M  V30 13404 O 1289.58 -1.48277 2.04378 0
M  V30 13405 C 1290.89 1.72596 2.46234 0
M  V30 13406 C 1292.44 1.74235 2.60022 0
M  V30 13407 C 1292.91 2.74382 3.66713 0
M  V30 13408 N 1294.4 2.73027 3.7418 0
M  V30 13409 C 1295.14 3.47178 4.56349 0
M  V30 13410 N 1294.63 4.30958 5.42446 0
M  V30 13411 N 1296.43 3.35846 4.50737 0
M  V30 13412 H 1288.58 1.9222 0.903611 0
M  V30 13413 H 1290.84 0.829466 0.459011 0
M  V30 13414 H 1290.55 2.74699 2.19621 0
M  V30 13415 H 1290.42 1.52553 3.44975 0
M  V30 13416 H 1292.81 0.728261 2.85973 0
M  V30 13417 H 1292.89 1.98349 1.61528 0
M  V30 13418 H 1292.53 3.75945 3.41508 0
M  V30 13419 H 1292.46 2.47534 4.64795 0
M  V30 13420 H 1294.95 2.12242 3.12669 0
M  V30 13421 H 1295.27 4.84344 6.02189 0
M  V30 13422 H 1293.61 4.35042 5.42 0
M  V30 13423 H 1296.8 2.6983 3.82504 0
M  V30 13424 H 1296.98 3.93892 5.14541 0
M  V30 13425 N 1290.38 -1.37203 0.775435 0
M  V30 13426 C 1291.61 -2.04396 0.351737 0
M  V30 13427 C 1292.03 -1.58099 -1.01913 0
M  V30 13428 O 1291.39 -0.742932 -1.65379 0
M  V30 13429 C 1291.44 -3.58283 0.408105 0
M  V30 13430 O 1290.54 -4.08156 -0.590104 0
M  V30 13431 H 1289.88 -0.646451 0.151647 0
M  V30 13432 H 1292.41 -1.75443 1.05265 0
M  V30 13433 H 1292.42 -4.07127 0.266711 0
M  V30 13434 H 1291.1 -3.91335 1.40819 0
M  V30 13435 H 1289.67 -3.70622 -0.411524 0
M  V30 13436 N 1291.86 -0.526279 -1.48553 0
M  V30 13437 C 1293.11 0.00918008 -2.02798 0
M  V30 13438 C 1293.44 1.34284 -1.4029 0
M  V30 13439 O 1292.71 1.86639 -0.547355 0
M  V30 13440 C 1293 0.135102 -3.59846 0
M  V30 13441 C 1292.85 -1.22347 -4.32841 0
M  V30 13442 C 1294.17 0.863673 -4.31542 0
M  V30 13443 H 1291.29 0.00186216 -0.736998 0
M  V30 13444 H 1293.93 -0.682591 -1.77315 0
M  V30 13445 H 1292.08 0.724279 -3.81689 0
M  V30 13446 H 1293.75 -1.85347 -4.22427 0
M  V30 13447 H 1291.99 -1.80631 -3.94405 0
M  V30 13448 H 1292.67 -1.08839 -5.41164 0
M  V30 13449 H 1295.14 0.363734 -4.14507 0
M  V30 13450 H 1294.02 0.92067 -5.41124 0
M  V30 13451 H 1294.28 1.91313 -3.98562 0
M  V30 13452 N 1293.34 1.5542 -0.261239 0
M  V30 13453 C 1294.57 2.03687 0.363225 0
M  V30 13454 C 1294.98 1.14007 1.50492 0
M  V30 13455 O 1294.34 0.157349 1.8182 0
M  V30 13456 C 1294.39 3.51184 0.857435 0
M  V30 13457 O 1294.11 4.37449 -0.238776 0
M  V30 13458 C 1295.61 4.15277 1.55113 0
M  V30 13459 H 1292.83 0.665641 0.0846356 0
M  V30 13460 H 1295.37 2.00761 -0.389288 0
M  V30 13461 H 1293.53 3.54599 1.56008 0
M  V30 13462 H 1293.94 5.24316 0.138821 0
M  V30 13463 H 1295.42 5.20129 1.8485 0
M  V30 13464 H 1295.89 3.62619 2.47799 0
M  V30 13465 H 1296.5 4.15826 0.892695 0
M  V30 13466 N 1294.82 -0.0116844 1.57596 0
M  V30 13467 C 1296.06 -0.699994 1.90336 0
M  V30 13468 C 1296.39 -1.74067 0.861072 0
M  V30 13469 O 1295.67 -1.94119 -0.121712 0
M  V30 13470 C 1295.95 -1.35377 3.33684 0
M  V30 13471 C 1295.81 -0.325434 4.48621 0
M  V30 13472 C 1297.12 -2.28312 3.76247 0
M  V30 13473 H 1294.24 -0.253002 0.692213 0
M  V30 13474 H 1296.89 0.037211 1.89964 0
M  V30 13475 H 1295.04 -1.98212 3.34132 0
M  V30 13476 H 1296.71 0.302331 4.60308 0
M  V30 13477 H 1294.95 0.353527 4.32357 0
M  V30 13478 H 1295.62 -0.8217 5.4585 0
M  V30 13479 H 1298.1 -1.75505 3.77276 0
M  V30 13480 H 1296.97 -2.71028 4.77321 0
M  V30 13481 H 1297.23 -3.15727 3.09465 0
M  V30 13482 N 1296.29 -1.55015 -0.284256 0
M  V30 13483 C 1297.2 -1.90203 -1.37332 0
M  V30 13484 C 1298.22 -0.797994 -1.54622 0
M  V30 13485 O 1299.4 -1.09602 -1.68965 0
M  V30 13486 C 1296.46 -2.15687 -2.71441 0
M  V30 13487 C 1295.52 -3.39313 -2.62993 0
M  V30 13488 C 1294.75 -3.63571 -3.90707 0
M  V30 13489 O 1294.98 -2.90538 -4.9086 0
M  V30 13490 O 1293.91 -4.57102 -3.91589 0
M  V30 13491 H 1297.74 -2.82888 -1.1049 0
M  V30 13492 H 1295.32 -1.41418 -0.481798 0
M  V30 13493 H 1297.2 -2.33553 -3.50758 0
M  V30 13494 H 1295.88 -1.26185 -2.98092 0
M  V30 13495 H 1294.79 -3.26793 -1.82091 0
M  V30 13496 H 1296.12 -4.28997 -2.41293 0
M  V30 13497 N 1297.77 0.548248 -1.47757 0
M  V30 13498 C 1299 1.32827 -1.58242 0
M  V30 13499 C 1299.41 1.87736 -0.234936 0
M  V30 13500 O 1298.75 1.66163 0.78329 0
M  V30 13501 C 1298.81 2.52906 -2.55497 0
M  V30 13502 C 1298.48 2.19218 -4.00989 0
M  V30 13503 C 1299.48 1.75976 -4.89212 0
M  V30 13504 C 1297.16 2.30302 -4.46392 0
M  V30 13505 C 1299.15 1.44258 -6.20861 0
M  V30 13506 C 1296.84 1.98197 -5.78067 0
M  V30 13507 C 1297.84 1.55244 -6.65123 0
M  V30 13508 O 1297.53 1.23551 -7.94349 0
M  V30 13509 H 1297.26 0.41088 -0.536799 0
M  V30 13510 H 1299.81 0.670055 -1.94163 0
M  V30 13511 H 1298.04 3.21648 -2.14661 0
M  V30 13512 H 1299.73 3.14979 -2.56014 0
M  V30 13513 H 1300.5 1.66898 -4.55379 0
M  V30 13514 H 1296.38 2.62693 -3.78832 0
M  V30 13515 H 1299.92 1.10659 -6.88767 0
M  V30 13516 H 1295.82 2.0691 -6.1144 0
M  V30 13517 H 1296.59 1.37105 -8.06935 0
M  V30 13518 N 1299.25 1.36039 0.795694 0
M  V30 13519 C 1300.2 1.29902 1.92946 0
M  V30 13520 C 1301.19 0.191943 1.68309 0
M  V30 13521 O 1302.4 0.358577 1.76392 0
M  V30 13522 H 1298.77 0.404252 0.634101 0
M  V30 13523 H 1300.74 2.25663 1.95241 0
M  V30 13524 C 1299.49 1.09887 3.29879 0
M  V30 13525 H 1298.82 1.94318 3.494 0
M  V30 13526 H 1300.26 1.09638 4.0958 0
M  V30 13527 C 1298.71 -0.196802 3.36325 0
M  V30 13528 O 1299.24 -1.18883 3.83705 0
M  V30 13529 N 1297.45 -0.239325 2.89613 0
M  V30 13530 H 1297 0.568571 2.51247 0
M  V30 13531 H 1296.96 -1.10593 2.94307 0
M  V30 13532 N 1300.73 -1.01913 1.20215 0
M  V30 13533 C 1301.98 -1.74878 1.00502 0
M  V30 13534 C 1302.29 -1.90022 -0.463792 0
M  V30 13535 O 1303.5 -2.60055 -0.779982 0
M  V30 13536 C 1301.95 -3.1452 1.74943 0
M  V30 13537 C 1301.56 -3.07397 3.259 0
M  V30 13538 C 1303.3 -3.91713 1.63589 0
M  V30 13539 C 1301.21 -4.42032 3.92889 0
M  V30 13540 H 1300.14 -0.655603 0.372426 0
M  V30 13541 H 1302.79 -1.13978 1.4381 0
M  V30 13542 H 1301.17 -3.75946 1.24421 0
M  V30 13543 H 1302.35 -2.55294 3.83617 0
M  V30 13544 H 1300.66 -2.43698 3.37639 0
M  V30 13545 H 1303.26 -4.91316 2.1098 0
M  V30 13546 H 1303.6 -4.12074 0.591665 0
M  V30 13547 H 1304.14 -3.3691 2.11511 0
M  V30 13548 H 1300.88 -4.26874 4.97453 0
M  V30 13549 H 1300.4 -4.94151 3.39962 0
M  V30 13550 H 1302.07 -5.10884 3.96997 0
M  V30 13551 N 1302.21 -1.00763 -1.2118 0
M  V30 13552 C 1303.16 -0.541218 -2.21483 0
M  V30 13553 C 1304.14 0.398597 -1.55885 0
M  V30 13554 O 1305.33 0.22302 -1.75589 0
M  V30 13555 C 1302.46 0.128145 -3.43061 0
M  V30 13556 C 1301.55 -0.832845 -4.15842 0
M  V30 13557 N 1301.94 -1.98673 -4.65148 0
M  V30 13558 C 1300.24 -0.651779 -4.41212 0
M  V30 13559 C 1300.94 -2.59112 -5.20803 0
M  V30 13560 N 1299.91 -1.87249 -5.10332 0
M  V30 13561 H 1303.72 -1.42105 -2.57262 0
M  V30 13562 H 1301.23 -0.871796 -1.37016 0
M  V30 13563 H 1303.23 0.479771 -4.1413 0
M  V30 13564 H 1301.89 1.00392 -3.0879 0
M  V30 13565 H 1302.9 -2.36701 -4.60644 0
M  V30 13566 H 1299.57 0.1767 -4.17126 0
M  V30 13567 H 1300.96 -3.56713 -5.69391 0
M  V30 13568 N 1303.68 1.3679 -0.7827 0
M  V30 13569 C 1304.65 2.28472 -0.182525 0
M  V30 13570 C 1305.65 1.48524 0.616217 0
M  V30 13571 O 1306.84 1.68599 0.438197 0
M  V30 13572 C 1303.97 3.32588 0.748202 0
M  V30 13573 H 1305.16 2.83059 -0.99085 0
M  V30 13574 H 1302.72 1.46241 -0.551658 0
M  V30 13575 H 1303.45 2.83145 1.58112 0
M  V30 13576 H 1303.24 3.91698 0.177481 0
M  V30 13577 H 1304.73 4.01073 1.16321 0
M  V30 13578 N 1305.16 0.53415 1.48272 0
M  V30 13579 C 1306.41 0.00157492 2.028 0
M  V30 13580 C 1306.74 -1.33538 1.41001 0
M  V30 13581 O 1306.02 -1.86347 0.557245 0
M  V30 13582 C 1306.3 -0.116016 3.59913 0
M  V30 13583 C 1306.15 1.2464 4.32186 0
M  V30 13584 C 1307.47 -0.840775 4.31994 0
M  V30 13585 H 1304.59 0.00204634 0.736997 0
M  V30 13586 H 1307.23 0.691985 1.76951 0
M  V30 13587 H 1305.38 -0.704027 3.82068 0
M  V30 13588 H 1307.05 1.87584 4.21438 0
M  V30 13589 H 1305.3 1.8272 3.93441 0
M  V30 13590 H 1305.97 1.11708 5.40579 0
M  V30 13591 H 1308.44 -0.341746 4.14694 0
M  V30 13592 H 1307.32 -0.89196 5.41604 0
M  V30 13593 H 1307.58 -1.89197 3.99571 0
M  V30 13594 N 1306.64 -1.55279 0.269478 0
M  V30 13595 C 1307.57 -2.25278 -0.614188 0
M  V30 13596 C 1308.55 -1.24092 -1.1634 0
M  V30 13597 O 1309.74 -1.52799 -1.19858 0
M  V30 13598 C 1306.87 -2.96956 -1.80096 0
M  V30 13599 C 1305.82 -4.05021 -1.38353 0
M  V30 13600 C 1305.15 -4.64244 -2.65295 0
M  V30 13601 C 1306.45 -5.19523 -0.537886 0
M  V30 13602 H 1308.14 -2.99385 -0.0304397 0
M  V30 13603 H 1305.69 -1.43994 -0.0132004 0
M  V30 13604 H 1307.64 -3.44633 -2.42499 0
M  V30 13605 H 1306.36 -2.20374 -2.41045 0
M  V30 13606 H 1305.02 -3.58146 -0.78273 0
M  V30 13607 H 1304.67 -3.84337 -3.2449 0
M  V30 13608 H 1304.37 -5.37208 -2.38079 0
M  V30 13609 H 1305.89 -5.14668 -3.28557 0
M  V30 13610 H 1307.31 -5.63287 -1.06677 0
M  V30 13611 H 1305.71 -5.99014 -0.360845 0
M  V30 13612 H 1306.78 -4.82857 0.444672 0
M  V30 13613 N 1308.12 0.00332656 -1.576 0
M  V30 13614 C 1309.4 0.725722 -1.81639 0
M  V30 13615 C 1309.78 1.92173 -0.87365 0
M  V30 13616 O 1309.12 2.28365 0.0783931 0
M  V30 13617 C 1309.33 1.13458 -3.30043 0
M  V30 13618 C 1310.68 1.53982 -3.95695 0
M  V30 13619 O 1311.71 1.22846 -3.34346 0
M  V30 13620 O 1310.56 2.11866 -5.03761 0
M  V30 13621 H 1307.66 0.353083 -0.747838 0
M  V30 13622 H 1310.2 -0.0218724 -1.69686 0
M  V30 13623 H 1308.98 0.281925 -3.90283 0
M  V30 13624 H 1308.6 1.94138 -3.46982 0
M  V30 13625 N 1309.6 1.55164 0.276031 0
M  V30 13626 C 1310.82 1.79649 1.02635 0
M  V30 13627 C 1311.24 0.568289 1.80044 0
M  V30 13628 O 1310.6 -0.462569 1.7654 0
M  V30 13629 C 1310.65 3.01974 1.98731 0
M  V30 13630 O 1310.37 4.2005 1.24459 0
M  V30 13631 C 1311.87 3.39039 2.856 0
M  V30 13632 H 1309.09 0.598529 0.303321 0
M  V30 13633 H 1311.63 2.02171 0.307733 0
M  V30 13634 H 1309.79 2.81586 2.6606 0
M  V30 13635 H 1310.2 4.89185 1.89205 0
M  V30 13636 H 1311.68 4.27809 3.48831 0
M  V30 13637 H 1312.15 2.58306 3.55211 0
M  V30 13638 H 1312.76 3.61674 2.23767 0
M  V30 13639 N 1311.07 -0.540404 1.48045 0
M  V30 13640 C 1312 -1.65538 1.6468 0
M  V30 13641 C 1312.99 -1.62713 0.495847 0
M  V30 13642 O 1314.17 -1.80072 0.727172 0
M  V30 13643 C 1311.3 -3.0415 1.67661 0
M  V30 13644 C 1310.25 -3.2183 2.82152 0
M  V30 13645 C 1309.58 -4.61397 2.70216 0
M  V30 13646 C 1310.88 -3.05596 4.23567 0
M  V30 13647 H 1312.57 -1.51873 2.58021 0
M  V30 13648 H 1310.12 -0.729208 1.24171 0
M  V30 13649 H 1312.07 -3.82013 1.77887 0
M  V30 13650 H 1310.8 -3.18814 0.708907 0
M  V30 13651 H 1309.46 -2.4638 2.71463 0
M  V30 13652 H 1309.1 -4.72883 1.71437 0
M  V30 13653 H 1308.8 -4.74174 3.47035 0
M  V30 13654 H 1310.33 -5.41374 2.82395 0
M  V30 13655 H 1311.74 -3.73261 4.35143 0
M  V30 13656 H 1310.14 -3.29871 5.01303 0
M  V30 13657 H 1311.21 -2.0214 4.40758 0
M  V30 13658 N 1312.55 -1.36459 -0.788468 0
M  V30 13659 C 1313.48 -1.33545 -1.91541 0
M  V30 13660 C 1314.46 -0.206762 -1.68839 0
M  V30 13661 O 1315.65 -0.404553 -1.89939 0
M  V30 13662 C 1312.78 -1.12492 -3.28577 0
M  V30 13663 C 1311.73 -2.22196 -3.65805 0
M  V30 13664 C 1311.06 -1.86285 -5.01201 0
M  V30 13665 C 1312.36 -3.64286 -3.7429 0
M  V30 13666 H 1314.05 -2.27844 -1.94236 0
M  V30 13667 H 1311.6 -1.09677 -0.933105 0
M  V30 13668 H 1313.55 -1.09089 -4.07035 0
M  V30 13669 H 1312.28 -0.146446 -3.26272 0
M  V30 13670 H 1310.93 -2.24727 -2.89644 0
M  V30 13671 H 1310.58 -0.87009 -4.95417 0
M  V30 13672 H 1310.28 -2.59734 -5.27079 0
M  V30 13673 H 1311.81 -1.84439 -5.82078 0
M  V30 13674 H 1313.22 -3.63977 -4.42937 0
M  V30 13675 H 1311.62 -4.36648 -4.11653 0
M  V30 13676 H 1312.69 -3.99123 -2.75371 0
M  V30 13677 N 1314.03 1.01274 -1.20754 0
M  V30 13678 C 1314.99 2.08056 -0.961528 0
M  V30 13679 C 1315.99 1.60671 0.0644461 0
M  V30 13680 O 1317.18 1.73349 -0.172022 0
M  V30 13681 C 1314.32 3.37938 -0.448381 0
M  V30 13682 H 1315.51 2.31314 -1.90877 0
M  V30 13683 H 1313.06 1.18133 -1.02344 0
M  V30 13684 H 1313.8 3.20357 0.504144 0
M  V30 13685 H 1313.58 3.73659 -1.18833 0
M  V30 13686 H 1315.07 4.16551 -0.295876 0
M  V30 13687 N 1315.51 1.01404 1.20644 0
M  V30 13688 C 1316.73 0.720839 1.9447 0
M  V30 13689 C 1317.16 -0.711711 1.74116 0
M  V30 13690 O 1316.52 -1.48938 1.03379 0
M  V30 13691 C 1316.57 1.05864 3.4471 0
M  V30 13692 O 1315.67 0.168901 4.12054 0
M  V30 13693 H 1315.01 0.267698 0.607646 0
M  V30 13694 H 1317.54 1.35672 1.53147 0
M  V30 13695 H 1317.55 1.00928 3.9532 0
M  V30 13696 H 1316.23 2.1024 3.58848 0
M  V30 13697 H 1314.8 0.275572 3.7188 0
M  V30 13698 N 1316.99 -1.36373 0.789944 0
M  V30 13699 C 1318.21 -2.04011 0.373396 0
M  V30 13700 C 1318.64 -1.59171 -1.00231 0
M  V30 13701 O 1318 -0.760431 -1.64582 0
M  V30 13702 C 1318.04 -3.5783 0.446083 0
M  V30 13703 O 1317.15 -4.08759 -0.54678 0
M  V30 13704 H 1316.49 -0.644807 0.158495 0
M  V30 13705 H 1319.02 -1.74317 1.0712 0
M  V30 13706 H 1319.03 -4.06822 0.309877 0
M  V30 13707 H 1317.7 -3.89819 1.44962 0
M  V30 13708 H 1316.28 -3.71038 -0.372192 0
M  V30 13709 N 1318.47 -0.542005 -1.47987 0
M  V30 13710 C 1319.69 -0.0146835 -2.07395 0
M  V30 13711 C 1320.12 1.26266 -1.39422 0
M  V30 13712 O 1319.47 1.75259 -0.464118 0
M  V30 13713 C 1319.52 0.179937 -3.60151 0
M  V30 13714 O 1318.63 1.24596 -3.93128 0
M  V30 13715 H 1317.97 -0.0445076 -0.662507 0
M  V30 13716 H 1320.5 -0.753352 -1.90226 0
M  V30 13717 H 1320.51 0.398876 -4.06046 0
M  V30 13718 H 1319.18 -0.753093 -4.09025 0
M  V30 13719 H 1317.76 1.00872 -3.58997 0
M  V30 13720 N 1319.94 1.55134 -0.277709 0
M  V30 13721 C 1320.87 2.256 0.602232 0
M  V30 13722 C 1321.85 1.24708 1.15681 0
M  V30 13723 O 1323.04 1.53433 1.19046 0
M  V30 13724 C 1320.17 2.97907 1.78519 0
M  V30 13725 C 1319.12 4.0575 1.36203 0
M  V30 13726 C 1318.45 4.65644 2.62829 0
M  V30 13727 C 1319.75 5.19801 0.510327 0
M  V30 13728 H 1321.44 2.99396 0.0145622 0
M  V30 13729 H 1318.99 1.43999 0.00556389 0
M  V30 13730 H 1320.94 3.45915 2.40668 0
M  V30 13731 H 1319.67 2.21649 2.39873 0
M  V30 13732 H 1318.33 3.58557 0.763726 0
M  V30 13733 H 1317.97 3.86053 3.22447 0
M  V30 13734 H 1317.67 5.38463 2.35227 0
M  V30 13735 H 1319.2 5.16403 3.25823 0
M  V30 13736 H 1320.61 5.63845 1.03689 0
M  V30 13737 H 1319.01 5.99197 0.329073 0
M  V30 13738 H 1320.08 4.82614 -0.470273 0
M  V30 13739 N 1321.42 0.00503138 1.57599 0
M  V30 13740 C 1322.84 -0.351109 1.5569 0
M  V30 13741 C 1323.04 -1.74465 1.00818 0
M  V30 13742 O 1322.09 -2.44144 0.64422 0
M  V30 13743 C 1323.41 -0.221738 2.99881 0
M  V30 13744 C 1324.95 -0.296303 3.11594 0
M  V30 13745 C 1325.43 -0.195998 4.5758 0
M  V30 13746 N 1326.92 -0.253741 4.62504 0
M  V30 13747 C 1327.66 -0.199546 5.73053 0
M  V30 13748 N 1327.15 -0.0956553 6.92734 0
M  V30 13749 N 1328.94 -0.251779 5.61536 0
M  V30 13750 H 1321.1 0.916578 1.91605 0
M  V30 13751 H 1323.36 0.351802 0.880306 0
M  V30 13752 H 1323.06 0.737255 3.43886 0
M  V30 13753 H 1322.94 -1.00178 3.63654 0
M  V30 13754 H 1325.33 -1.24574 2.67517 0
M  V30 13755 H 1325.41 0.513692 2.50589 0
M  V30 13756 H 1325.05 0.749918 5.02333 0
M  V30 13757 H 1324.98 -1.02455 5.16537 0
M  V30 13758 H 1327.47 -0.335163 3.76411 0
M  V30 13759 H 1327.78 -0.0603357 7.72776 0
M  V30 13760 H 1326.13 -0.0612113 6.94973 0
M  V30 13761 H 1329.32 -0.331173 4.66927 0
M  V30 13762 H 1329.49 -0.206078 6.47672 0
M  V30 13763 N 1322.9 -1.55308 -0.267798 0
M  V30 13764 C 1324.13 -1.80191 -1.01681 0
M  V30 13765 C 1324.54 -0.57783 -1.7974 0
M  V30 13766 O 1323.9 0.4532 -1.76783 0
M  V30 13767 C 1323.95 -3.03023 -1.97127 0
M  V30 13768 O 1323.67 -4.20704 -1.22229 0
M  V30 13769 C 1325.17 -3.40549 -2.83798 0
M  V30 13770 H 1322.39 -0.60013 -0.300142 0
M  V30 13771 H 1324.94 -2.02332 -0.297007 0
M  V30 13772 H 1323.09 -2.82993 -2.64563 0
M  V30 13773 H 1323.51 -4.90181 -1.86608 0
M  V30 13774 H 1324.98 -4.29653 -3.46557 0
M  V30 13775 H 1325.46 -2.60186 -3.53836 0
M  V30 13776 H 1326.06 -3.62856 -2.21846 0
M  V30 13777 N 1324.38 0.532545 -1.4833 0
M  V30 13778 C 1325.62 1.28851 -1.56217 0
M  V30 13779 C 1325.95 1.93076 -0.234967 0
M  V30 13780 O 1325.21 1.79722 0.774508 0
M  V30 13781 C 1325.51 2.40117 -2.64724 0
M  V30 13782 C 1325.17 1.93562 -4.0724 0
M  V30 13783 C 1323.83 1.80583 -4.46031 0
M  V30 13784 C 1326.19 1.58349 -4.96563 0
M  V30 13785 C 1323.51 1.30722 -5.71952 0
M  V30 13786 C 1325.87 1.09951 -6.22972 0
M  V30 13787 C 1324.53 0.955866 -6.60621 0
M  V30 13788 H 1323.8 0.4715 -0.571637 0
M  V30 13789 H 1326.45 0.594564 -1.82036 0
M  V30 13790 H 1324.75 3.15171 -2.32754 0
M  V30 13791 H 1326.45 2.98252 -2.68042 0
M  V30 13792 H 1323.04 2.04614 -3.76605 0
M  V30 13793 H 1327.22 1.67237 -4.67274 0
M  V30 13794 H 1322.48 1.18286 -5.99849 0
M  V30 13795 H 1326.65 0.817736 -6.91582 0
M  V30 13796 H 1324.28 0.567302 -7.5808 0
M  V30 13797 N 1325.86 1.36875 0.78122 0
M  V30 13798 C 1327.1 1.31754 1.54171 0
M  V30 13799 C 1327.43 -0.100632 1.93939 0
M  V30 13800 O 1326.71 -1.05587 1.63345 0
M  V30 13801 C 1326.99 2.24789 2.81322 0
M  V30 13802 C 1326.85 3.75342 2.47868 0
M  V30 13803 C 1328.16 2.16442 3.83198 0
M  V30 13804 H 1325.28 0.479931 0.559317 0
M  V30 13805 H 1327.93 1.67497 0.896935 0
M  V30 13806 H 1326.08 1.94438 3.36342 0
M  V30 13807 H 1327.75 4.16247 1.98836 0
M  V30 13808 H 1325.99 3.94375 1.80696 0
M  V30 13809 H 1326.66 4.3586 3.38719 0
M  V30 13810 H 1329.14 2.43175 3.37647 0
M  V30 13811 H 1328.01 2.83695 4.69903 0
M  V30 13812 H 1328.27 1.15431 4.26765 0
M  V30 13813 N 1327.33 -1.00632 1.21289 0
M  V30 13814 C 1328.58 -1.74647 1.03084 0
M  V30 13815 C 1328.91 -1.89271 -0.43476 0
M  V30 13816 O 1328.19 -1.42607 -1.32263 0
M  V30 13817 C 1328.47 -3.15981 1.72709 0
M  V30 13818 C 1328.32 -3.09088 3.2678 0
M  V30 13819 C 1329.64 -4.14875 1.46857 0
M  V30 13820 H 1326.76 -0.633938 0.375889 0
M  V30 13821 H 1329.4 -1.17328 1.49446 0
M  V30 13822 H 1327.55 -3.64918 1.33294 0
M  V30 13823 H 1329.23 -2.67875 3.75554 0
M  V30 13824 H 1327.47 -2.46223 3.57151 0
M  V30 13825 H 1328.14 -4.09041 3.70661 0
M  V30 13826 H 1330.62 -3.74637 1.81069 0
M  V30 13827 H 1329.49 -5.1191 1.98088 0
M  V30 13828 H 1329.75 -4.40302 0.398296 0
M  V30 13829 N 1328.81 -1.02043 -1.20104 0
M  V30 13830 C 1330.09 -0.626922 -1.85281 0
M  V30 13831 C 1330.47 0.894819 -1.91197 0
M  V30 13832 O 1329.82 1.7881 -1.42265 0
M  V30 13833 C 1330.03 -1.27917 -3.24713 0
M  V30 13834 C 1331.37 -1.39704 -4.00959 0
M  V30 13835 O 1332.4 -1.23568 -3.3408 0
M  V30 13836 O 1331.26 -1.65814 -5.20738 0
M  V30 13837 H 1328.35 -0.216815 -0.798073 0
M  V30 13838 H 1330.9 -1.11804 -1.27663 0
M  V30 13839 H 1329.67 -2.3188 -3.15194 0
M  V30 13840 H 1329.29 -0.775371 -3.89966 0
M  V30 13841 N 1330.29 1.35952 -0.797165 0
M  V30 13842 C 1331.24 2.29941 -0.198995 0
M  V30 13843 C 1332.21 1.52355 0.661592 0
M  V30 13844 O 1333.39 1.80832 0.60865 0
M  V30 13845 C 1330.53 3.38846 0.654033 0
M  V30 13846 C 1329.65 4.31409 -0.225949 0
M  V30 13847 C 1328.78 5.27401 0.634188 0
M  V30 13848 C 1327.82 6.11602 -0.246773 0
M  V30 13849 N 1326.96 6.9976 0.57279 0
M  V30 13850 H 1331.8 2.80508 -1.00594 0
M  V30 13851 H 1329.33 1.38064 -0.507617 0
M  V30 13852 H 1331.29 4.00643 1.16367 0
M  V30 13853 H 1329.92 2.89578 1.42633 0
M  V30 13854 H 1328.97 3.70699 -0.853616 0
M  V30 13855 H 1330.29 4.90532 -0.904416 0
M  V30 13856 H 1329.44 5.94525 1.20933 0
M  V30 13857 H 1328.18 4.68751 1.34625 0
M  V30 13858 H 1327.18 5.43434 -0.834258 0
M  V30 13859 H 1328.41 6.72329 -0.956559 0
M  V30 13860 H 1326.35 6.43609 1.26901 0
M  V30 13861 H 1326.27 7.55985 -0.0478303 0
M  V30 13862 H 1327.54 7.71244 1.13151 0
M  V30 13863 N 1331.77 0.549846 1.47697 0
M  V30 13864 C 1332.99 0.0256819 2.07384 0
M  V30 13865 C 1333.42 -1.25525 1.4009 0
M  V30 13866 O 1332.78 -1.7501 0.473406 0
M  V30 13867 C 1332.82 -0.160835 3.60241 0
M  V30 13868 O 1331.93 -1.22509 3.93783 0
M  V30 13869 H 1331.27 0.0480204 0.662261 0
M  V30 13870 H 1333.8 0.763429 1.89823 0
M  V30 13871 H 1333.81 -0.377337 4.06251 0
M  V30 13872 H 1332.48 0.774774 4.0862 0
M  V30 13873 H 1331.06 -0.98967 3.59527 0
M  V30 13874 N 1333.25 -1.54984 0.285932 0
M  V30 13875 C 1334.18 -2.25916 -0.590259 0
M  V30 13876 C 1335.16 -1.25319 -1.15018 0
M  V30 13877 O 1336.34 -1.54062 -1.18231 0
M  V30 13878 C 1333.47 -2.98849 -1.76936 0
M  V30 13879 C 1332.43 -4.06466 -1.3405 0
M  V30 13880 C 1331.75 -4.67032 -2.60356 0
M  V30 13881 C 1333.05 -5.20064 -0.482754 0
M  V30 13882 H 1334.75 -2.994 0.00131571 0
M  V30 13883 H 1332.29 -1.44 0.00207281 0
M  V30 13884 H 1334.25 -3.47186 -2.3883 0
M  V30 13885 H 1332.97 -2.22918 -2.38694 0
M  V30 13886 H 1331.63 -3.58957 -0.7447 0
M  V30 13887 H 1331.28 -3.87757 -3.20396 0
M  V30 13888 H 1330.98 -5.39703 -2.32368 0
M  V30 13889 H 1332.5 -5.18124 -3.23079 0
M  V30 13890 H 1333.91 -5.64387 -1.00697 0
M  V30 13891 H 1332.31 -5.99363 -0.297291 0
M  V30 13892 H 1333.38 -4.82358 0.495861 0
M  V30 13893 N 1334.72 -0.0133892 -1.57594 0
M  V30 13894 C 1335.95 0.682855 -1.95836 0
M  V30 13895 C 1336.37 1.65763 -0.889049 0
M  V30 13896 O 1335.73 1.80665 0.151585 0
M  V30 13897 C 1335.78 1.37931 -3.33178 0
M  V30 13898 O 1334.88 2.49416 -3.28429 0
M  V30 13899 H 1334.23 0.180629 -0.638959 0
M  V30 13900 H 1336.76 -0.0705644 -2.04478 0
M  V30 13901 H 1336.77 1.73969 -3.69051 0
M  V30 13902 H 1335.44 0.664675 -4.10554 0
M  V30 13903 H 1334.02 2.15606 -3.04251 0
M  V30 13904 N 1336.2 1.55448 0.259558 0
M  V30 13905 C 1337.45 1.7589 0.987201 0
M  V30 13906 C 1337.76 0.574951 1.86959 0
M  V30 13907 O 1338.97 0.662091 2.63303 0
M  V30 13908 C 1337.43 3.11349 1.80526 0
M  V30 13909 C 1337.03 4.37353 0.970882 0
M  V30 13910 C 1338.78 3.41136 2.5264 0
M  V30 13911 C 1336.69 5.63847 1.7841 0
M  V30 13912 H 1335.62 0.655662 0.372321 0
M  V30 13913 H 1338.27 1.81893 0.242332 0
M  V30 13914 H 1336.65 2.9942 2.5916 0
M  V30 13915 H 1337.82 4.60237 0.227763 0
M  V30 13916 H 1336.14 4.14809 0.363669 0
M  V30 13917 H 1338.73 4.32855 3.13912 0
M  V30 13918 H 1339.08 2.61879 3.23612 0
M  V30 13919 H 1339.61 3.54224 1.81026 0
M  V30 13920 H 1336.35 6.4589 1.11834 0
M  V30 13921 H 1335.87 5.45086 2.50283 0
M  V30 13922 H 1337.55 6.02641 2.35441 0
M  V30 13923 N 1337.68 -0.524672 1.4861 0
M  V30 13924 C 1338.59 -1.65554 1.6622 0
M  V30 13925 C 1339.61 -1.65254 0.54471 0
M  V30 13926 O 1340.78 -1.84109 0.816454 0
M  V30 13927 C 1337.85 -3.02003 1.7028 0
M  V30 13928 C 1336.91 -3.13116 2.93695 0
M  V30 13929 C 1336.14 -4.43055 2.97553 0
M  V30 13930 O 1336.36 -5.30468 2.09667 0
M  V30 13931 O 1335.3 -4.58646 3.89779 0
M  V30 13932 H 1339.12 -1.53633 2.61974 0
M  V30 13933 H 1336.71 -0.698354 1.32073 0
M  V30 13934 H 1338.59 -3.83143 1.75441 0
M  V30 13935 H 1337.27 -3.14236 0.777002 0
M  V30 13936 H 1336.17 -2.31251 2.94064 0
M  V30 13937 H 1337.51 -3.058 3.85677 0
M  V30 13938 N 1339.16 -1.37287 -0.77395 0
M  V30 13939 C 1340.07 -1.35059 -1.91823 0
M  V30 13940 C 1341.08 -0.250489 -1.72188 0
M  V30 13941 O 1342.26 -0.485501 -1.95461 0
M  V30 13942 C 1339.33 -1.15444 -3.26915 0
M  V30 13943 C 1338.39 -2.35073 -3.5922 0
M  V30 13944 C 1337.62 -2.16384 -4.87867 0
M  V30 13945 O 1337.84 -1.14696 -5.58749 0
M  V30 13946 O 1336.78 -3.0452 -5.19183 0
M  V30 13947 H 1340.6 -2.31432 -1.96654 0
M  V30 13948 H 1338.19 -1.17994 -0.916392 0
M  V30 13949 H 1340.07 -1.06484 -4.07724 0
M  V30 13950 H 1338.74 -0.221435 -3.22942 0
M  V30 13951 H 1337.65 -2.49604 -2.78655 0
M  V30 13952 H 1338.98 -3.26933 -3.67934 0
M  V30 13953 N 1340.64 0.999871 -1.21821 0
M  V30 13954 C 1341.88 1.7384 -1.03855 0
M  V30 13955 C 1342.21 1.89749 0.42727 0
M  V30 13956 O 1341.47 1.43261 1.33323 0
M  V30 13957 C 1341.77 3.1509 -1.6868 0
M  V30 13958 C 1341.43 3.19115 -3.18554 0
M  V30 13959 C 1340.09 3.19921 -3.5945 0
M  V30 13960 C 1342.45 3.15954 -4.14515 0
M  V30 13961 C 1339.77 3.15257 -4.94803 0
M  V30 13962 C 1342.13 3.12831 -5.49836 0
M  V30 13963 C 1340.79 3.11949 -5.90122 0
M  V30 13964 H 1340.06 0.636126 -0.380032 0
M  V30 13965 H 1342.71 1.17151 -1.51485 0
M  V30 13966 H 1341.01 3.75044 -1.13356 0
M  V30 13967 H 1342.71 3.70962 -1.52277 0
M  V30 13968 H 1339.3 3.19234 -2.85986 0
M  V30 13969 H 1343.48 3.14487 -3.83942 0
M  V30 13970 H 1338.74 3.12915 -5.25256 0
M  V30 13971 H 1342.91 3.09339 -6.23925 0
M  V30 13972 H 1340.54 3.0809 -6.94971 0
M  V30 13973 N 1342.11 1.02678 1.19562 0
M  V30 13974 C 1343.08 0.610407 2.20922 0
M  V30 13975 C 1344.08 -0.324858 1.57484 0
M  V30 13976 O 1345.27 -0.112153 1.73839 0
M  V30 13977 C 1342.4 -0.107115 3.40732 0
M  V30 13978 H 1343.59 1.50722 2.59274 0
M  V30 13979 H 1341.15 0.817725 1.33203 0
M  V30 13980 H 1341.88 -1.01837 3.07896 0
M  V30 13981 H 1341.67 0.564901 3.88009 0
M  V30 13982 H 1343.16 -0.385423 4.15818 0
M  V30 13983 N 1343.59 -1.35528 0.804364 0
M  V30 13984 C 1344.87 -1.93175 0.307049 0
M  V30 13985 C 1345.25 -1.73466 -1.20303 0
M  V30 13986 O 1344.6 -1.10235 -2.00151 0
M  V30 13987 C 1344.81 -3.41576 0.716018 0
M  V30 13988 C 1346.16 -4.18719 0.704242 0
M  V30 13989 O 1347.18 -3.50081 0.657423 0
M  V30 13990 O 1346.04 -5.41181 0.760601 0
M  V30 13991 H 1343.13 -0.823142 0.0797888 0
M  V30 13992 H 1345.68 -1.44617 0.887912 0
M  V30 13993 H 1344.45 -3.49642 1.75688 0
M  V30 13994 H 1344.07 -3.97448 0.109843 0
M  V30 13995 N 1345.07 -0.557671 -1.47404 0
M  V30 13996 C 1346.32 -0.0338384 -2.02772 0
M  V30 13997 C 1346.65 1.31278 -1.43107 0
M  V30 13998 O 1345.93 1.85436 -0.58682 0
M  V30 13999 C 1346.21 0.0587427 -3.60052 0
M  V30 14000 C 1346.06 -1.315 -4.30148 0
M  V30 14001 C 1347.38 0.771942 -4.33277 0
M  V30 14002 H 1344.5 -0.0137711 -0.736871 0
M  V30 14003 H 1347.14 -0.720049 -1.75827 0
M  V30 14004 H 1345.29 0.643154 -3.83139 0
M  V30 14005 H 1346.96 -1.94265 -4.184 0
M  V30 14006 H 1345.21 -1.88956 -3.90484 0
M  V30 14007 H 1345.88 -1.20294 -5.38733 0
M  V30 14008 H 1348.35 0.275729 -4.15185 0
M  V30 14009 H 1347.23 0.805683 -5.42955 0
M  V30 14010 H 1347.49 1.82816 -4.0253 0
M  V30 14011 N 1346.55 1.54831 -0.294147 0
M  V30 14012 C 1347.8 2.00298 0.317605 0
M  V30 14013 C 1348.13 1.18228 1.54064 0
M  V30 14014 O 1347.4 0.257034 1.92794 0
M  V30 14015 C 1347.69 3.53602 0.680991 0
M  V30 14016 C 1347.54 4.46416 -0.550711 0
M  V30 14017 C 1348.86 4.13379 1.51016 0
M  V30 14018 H 1345.98 0.728135 0.113965 0
M  V30 14019 H 1348.62 1.85636 -0.404883 0
M  V30 14020 H 1346.77 3.66227 1.29654 0
M  V30 14021 H 1348.44 4.45707 -1.18922 0
M  V30 14022 H 1346.68 4.17294 -1.18524 0
M  V30 14023 H 1347.36 5.51423 -0.252412 0
M  V30 14024 H 1349.83 4.04148 0.99012 0
M  V30 14025 H 1348.71 5.20818 1.73321 0
M  V30 14026 H 1348.97 3.64817 2.49722 0
M  V30 14027 N 1348.03 0.0217466 1.57585 0
M  V30 14028 C 1348.97 -0.962559 2.0977 0
M  V30 14029 C 1349.94 -1.32771 0.998053 0
M  V30 14030 O 1351.13 -1.42231 1.27181 0
M  V30 14031 C 1348.27 -2.24214 2.62339 0
M  V30 14032 C 1347.38 -1.9341 3.86286 0
M  V30 14033 C 1346.52 -3.15609 4.27275 0
M  V30 14034 C 1345.56 -2.8059 5.43999 0
M  V30 14035 N 1344.69 -3.95392 5.8018 0
M  V30 14036 H 1349.53 -0.510626 2.93593 0
M  V30 14037 H 1347.07 -0.240456 1.45121 0
M  V30 14038 H 1349.03 -2.99049 2.90905 0
M  V30 14039 H 1347.66 -2.67037 1.81358 0
M  V30 14040 H 1346.71 -1.08849 3.64494 0
M  V30 14041 H 1348.02 -1.63614 4.71203 0
M  V30 14042 H 1347.18 -3.9877 4.57239 0
M  V30 14043 H 1345.92 -3.48561 3.41111 0
M  V30 14044 H 1344.92 -1.9584 5.13738 0
M  V30 14045 H 1346.15 -2.48863 6.31858 0
M  V30 14046 H 1344.09 -4.282 4.96971 0
M  V30 14047 H 1344.01 -3.69195 6.59721 0
M  V30 14048 H 1345.28 -4.79279 6.14746 0
M  V30 14049 N 1349.51 -1.55583 -0.251311 0
M  V30 14050 C 1350.42 -1.93073 -1.33266 0
M  V30 14051 C 1351.43 -0.830612 -1.52895 0
M  V30 14052 O 1352.61 -1.13162 -1.66602 0
M  V30 14053 C 1349.67 -2.21396 -2.66805 0
M  V30 14054 C 1348.73 -3.44815 -2.55737 0
M  V30 14055 C 1347.97 -3.71777 -3.82907 0
M  V30 14056 O 1348.19 -3.00884 -4.84587 0
M  V30 14057 O 1347.12 -4.65305 -3.81805 0
M  V30 14058 H 1350.95 -2.85168 -1.04465 0
M  V30 14059 H 1348.53 -1.42408 -0.451693 0
M  V30 14060 H 1350.42 -2.4094 -3.45725 0
M  V30 14061 H 1349.09 -1.3248 -2.95348 0
M  V30 14062 H 1348 -3.30582 -1.75118 0
M  V30 14063 H 1349.33 -4.34019 -2.32139 0
M  V30 14064 N 1350.98 0.516783 -1.48886 0
M  V30 14065 C 1351.92 1.63632 -1.60491 0
M  V30 14066 C 1352.93 1.55301 -0.488424 0
M  V30 14067 O 1354.12 1.6152 -0.75983 0
M  V30 14068 C 1351.22 3.02351 -1.53093 0
M  V30 14069 C 1350.39 3.36028 -2.80006 0
M  V30 14070 C 1349.45 4.54087 -2.65879 0
M  V30 14071 O 1348.48 4.56652 -3.3979 0
M  V30 14072 N 1349.68 5.53058 -1.76372 0
M  V30 14073 H 1352.44 1.54109 -2.57042 0
M  V30 14074 H 1350 0.704338 -1.45776 0
M  V30 14075 H 1352 3.79225 -1.41318 0
M  V30 14076 H 1350.57 3.05881 -0.644637 0
M  V30 14077 H 1349.79 2.48204 -3.06249 0
M  V30 14078 H 1351.07 3.5532 -3.64177 0
M  V30 14079 H 1350.47 5.53773 -1.1555 0
M  V30 14080 H 1349.03 6.29097 -1.70529 0
M  V30 14081 N 1352.46 1.37696 0.766659 0
M  V30 14082 C 1353.71 1.33382 1.52765 0
M  V30 14083 C 1354.04 -0.0800569 1.94035 0
M  V30 14084 O 1353.32 -1.03848 1.64456 0
M  V30 14085 C 1353.6 2.2776 2.78922 0
M  V30 14086 C 1353.45 3.77949 2.43874 0
M  V30 14087 C 1354.77 2.20494 3.80881 0
M  V30 14088 H 1351.89 0.485836 0.554195 0
M  V30 14089 H 1354.53 1.68438 0.879119 0
M  V30 14090 H 1352.68 1.97994 3.34261 0
M  V30 14091 H 1354.35 4.18333 1.9441 0
M  V30 14092 H 1352.6 3.96269 1.76503 0
M  V30 14093 H 1353.27 4.39428 3.34077 0
M  V30 14094 H 1355.74 2.46742 3.35048 0
M  V30 14095 H 1354.62 2.88663 4.66867 0
M  V30 14096 H 1354.88 1.19951 4.25516 0
M  V30 14097 N 1353.94 -0.993397 1.22349 0
M  V30 14098 C 1355.16 -1.77373 1.07488 0
M  V30 14099 C 1355.59 -1.84418 -0.37034 0
M  V30 14100 O 1354.95 -1.29629 -1.26752 0
M  V30 14101 C 1355 -3.18538 1.69014 0
M  V30 14102 O 1354.1 -4.01463 0.943474 0
M  V30 14103 H 1353.44 -0.546209 0.37756 0
M  V30 14104 H 1355.97 -1.24792 1.62136 0
M  V30 14105 H 1355.98 -3.6917 1.73717 0
M  V30 14106 H 1354.66 -3.12725 2.74182 0
M  V30 14107 H 1353.23 -3.59998 0.972415 0
M  V30 14108 N 1355.42 -1.03311 -1.19015 0
M  V30 14109 C 1356.69 -0.646539 -1.84606 0
M  V30 14110 C 1357.07 0.87449 -1.92135 0
M  V30 14111 O 1356.42 1.77291 -1.44154 0
M  V30 14112 C 1356.63 -1.31354 -3.23338 0
M  V30 14113 C 1357.98 -1.43949 -3.99455 0
M  V30 14114 O 1359 -1.27104 -3.32751 0
M  V30 14115 O 1357.86 -1.71328 -5.1895 0
M  V30 14116 H 1354.96 -0.225267 -0.795728 0
M  V30 14117 H 1357.5 -1.13152 -1.2647 0
M  V30 14118 H 1356.28 -2.3521 -3.12717 0
M  V30 14119 H 1355.9 -0.816688 -3.89122 0
M  V30 14120 N 1356.9 1.35099 -0.81154 0
M  V30 14121 C 1357.83 2.32264 -0.239925 0
M  V30 14122 C 1358.81 1.57708 0.637354 0
M  V30 14123 O 1359.99 1.85751 0.566598 0
M  V30 14124 C 1357.12 3.41931 0.608325 0
M  V30 14125 C 1356.08 4.27659 -0.170869 0
M  V30 14126 C 1355.4 5.28691 0.799398 0
M  V30 14127 C 1356.7 5.0394 -1.37266 0
M  V30 14128 H 1358.4 2.8032 -1.05172 0
M  V30 14129 H 1355.94 1.34773 -0.507185 0
M  V30 14130 H 1357.89 4.08911 1.01832 0
M  V30 14131 H 1356.62 2.92496 1.45306 0
M  V30 14132 H 1355.28 3.62265 -0.562094 0
M  V30 14133 H 1354.93 4.75521 1.63977 0
M  V30 14134 H 1354.63 5.86921 0.282331 0
M  V30 14135 H 1356.15 5.98542 1.20749 0
M  V30 14136 H 1357.56 5.63838 -1.03728 0
M  V30 14137 H 1355.96 5.7169 -1.82456 0
M  V30 14138 H 1357.03 4.34295 -2.15676 0
M  V30 14139 N 1358.37 0.56548 1.47106 0
M  V30 14140 C 1359.3 -0.16567 2.32912 0
M  V30 14141 C 1360.28 -0.900678 1.44298 0
M  V30 14142 O 1361.47 -0.879523 1.73142 0
M  V30 14143 C 1358.6 -1.19092 3.26243 0
M  V30 14144 C 1357.55 -0.571849 4.24163 0
M  V30 14145 C 1356.88 -1.70233 5.06878 0
M  V30 14146 C 1358.18 0.479785 5.20092 0
M  V30 14147 H 1359.87 0.550705 2.94292 0
M  V30 14148 H 1357.42 0.266284 1.41517 0
M  V30 14149 H 1359.37 -1.71064 3.85117 0
M  V30 14150 H 1358.1 -1.93734 2.62934 0
M  V30 14151 H 1356.76 -0.073353 3.66527 0
M  V30 14152 H 1356.4 -2.438 4.39967 0
M  V30 14153 H 1356.1 -1.29384 5.73178 0
M  V30 14154 H 1357.63 -2.22515 5.68612 0
M  V30 14155 H 1359.04 0.0458042 5.73282 0
M  V30 14156 H 1357.44 0.807615 5.94641 0
M  V30 14157 H 1358.51 1.37259 4.65068 0
M  V30 14158 N 1359.85 -1.54672 0.302354 0
M  V30 14159 C 1361.1 -2.00463 -0.306978 0
M  V30 14160 C 1361.43 -1.19043 -1.53435 0
M  V30 14161 O 1360.71 -0.267255 -1.92655 0
M  V30 14162 C 1360.99 -3.53958 -0.662229 0
M  V30 14163 C 1360.84 -4.46118 0.574378 0
M  V30 14164 C 1362.16 -4.14174 -1.48821 0
M  V30 14165 H 1359.28 -0.728729 -0.110102 0
M  V30 14166 H 1361.92 -1.85419 0.414722 0
M  V30 14167 H 1360.07 -3.66909 -1.2771 0
M  V30 14168 H 1361.74 -4.45071 1.21284 0
M  V30 14169 H 1359.99 -4.1666 1.20736 0
M  V30 14170 H 1360.66 -5.51281 0.281651 0
M  V30 14171 H 1363.13 -4.04668 -0.968674 0
M  V30 14172 H 1362.01 -5.2173 -1.70556 0
M  V30 14173 H 1362.27 -3.66136 -2.47784 0
M  V30 14174 N 1361.33 -0.0301034 -1.57571 0
M  V30 14175 C 1362.28 0.951421 -2.10277 0
M  V30 14176 C 1363.25 1.3224 -1.00508 0
M  V30 14177 O 1364.43 1.41554 -1.27934 0
M  V30 14178 C 1361.57 2.2282 -2.63525 0
M  V30 14179 C 1360.69 1.91359 -3.87306 0
M  V30 14180 C 1359.82 3.13339 -4.28943 0
M  V30 14181 C 1358.86 2.77701 -5.4548 0
M  V30 14182 N 1358 3.9231 -5.82269 0
M  V30 14183 H 1362.84 0.495049 -2.93859 0
M  V30 14184 H 1360.37 0.232756 -1.45247 0
M  V30 14185 H 1362.33 2.97502 -2.92487 0
M  V30 14186 H 1360.96 2.66072 -1.82772 0
M  V30 14187 H 1360.01 1.06915 -3.65066 0
M  V30 14188 H 1361.33 1.61112 -4.72064 0
M  V30 14189 H 1360.48 3.9634 -4.59347 0
M  V30 14190 H 1359.22 3.46747 -3.42954 0
M  V30 14191 H 1358.22 1.93113 -5.14769 0
M  V30 14192 H 1359.45 2.45508 -6.33169 0
M  V30 14193 H 1357.39 4.25559 -4.99235 0
M  V30 14194 H 1357.31 3.65691 -6.61669 0
M  V30 14195 H 1358.58 4.76012 -6.17279 0
M  V30 14196 N 1362.81 1.55714 0.243056 0
M  V30 14197 C 1363.74 1.93655 1.30461 0
M  V30 14198 C 1364.72 0.801968 1.50008 0
M  V30 14199 O 1365.9 1.06256 1.62552 0
M  V30 14200 C 1363.03 2.23459 2.65863 0
M  V30 14201 C 1361.99 3.39205 2.61006 0
M  V30 14202 C 1361.31 3.5456 4.00239 0
M  V30 14203 C 1362.61 4.74787 2.17656 0
M  V30 14204 H 1364.31 2.82575 0.98954 0
M  V30 14205 H 1361.85 1.35955 0.474572 0
M  V30 14206 H 1363.81 2.48591 3.40266 0
M  V30 14207 H 1362.53 1.31369 2.99014 0
M  V30 14208 H 1361.19 3.14088 1.89061 0
M  V30 14209 H 1360.84 2.59884 4.30661 0
M  V30 14210 H 1360.54 4.32399 3.97876 0
M  V30 14211 H 1362.06 3.82017 4.76335 0
M  V30 14212 H 1363.48 4.99266 2.81792 0
M  V30 14213 H 1361.87 5.55756 2.26397 0
M  V30 14214 H 1362.94 4.7159 1.12831 0
M  V30 14215 N 1364.29 -0.50888 1.49158 0
M  V30 14216 C 1365.22 -1.62008 1.68154 0
M  V30 14217 C 1366.2 -1.61624 0.53025 0
M  V30 14218 O 1367.38 -1.78489 0.765205 0
M  V30 14219 C 1364.51 -3.00525 1.74075 0
M  V30 14220 C 1363.47 -3.15773 2.88915 0
M  V30 14221 C 1362.79 -4.55562 2.79942 0
M  V30 14222 C 1364.09 -2.96542 4.29953 0
M  V30 14223 H 1365.79 -1.46365 2.61185 0
M  V30 14224 H 1363.33 -0.702705 1.2569 0
M  V30 14225 H 1365.29 -3.78154 1.8595 0
M  V30 14226 H 1364.01 -3.17238 0.776373 0
M  V30 14227 H 1362.67 -2.40567 2.76628 0
M  V30 14228 H 1362.32 -4.6914 1.81429 0
M  V30 14229 H 1362.02 -4.66706 3.57015 0
M  V30 14230 H 1363.54 -5.35262 2.93814 0
M  V30 14231 H 1364.95 -3.63947 4.42963 0
M  V30 14232 H 1363.35 -3.19164 5.08187 0
M  V30 14233 H 1364.42 -1.92745 4.44946 0
M  V30 14234 N 1365.76 -1.381 -0.759346 0
M  V30 14235 C 1367.18 -1.19171 -1.06162 0
M  V30 14236 C 1367.38 -0.0364043 -2.01467 0
M  V30 14237 O 1366.44 0.619635 -2.44779 0
M  V30 14238 C 1367.75 -2.51569 -1.64723 0
M  V30 14239 C 1369.3 -2.58201 -1.76921 0
M  V30 14240 C 1369.77 -3.9076 -2.38894 0
M  V30 14241 N 1371.26 -3.92269 -2.46331 0
M  V30 14242 C 1372 -4.91595 -2.95164 0
M  V30 14243 N 1371.49 -6.01318 -3.44075 0
M  V30 14244 N 1373.29 -4.7899 -2.94152 0
M  V30 14245 H 1365.44 -2.12021 -0.126788 0
M  V30 14246 H 1367.7 -0.940517 -0.118877 0
M  V30 14247 H 1367.41 -3.36535 -1.02162 0
M  V30 14248 H 1367.28 -2.69551 -2.6386 0
M  V30 14249 H 1369.67 -1.73634 -2.38611 0
M  V30 14250 H 1369.75 -2.44092 -0.765047 0
M  V30 14251 H 1369.39 -4.75747 -1.7784 0
M  V30 14252 H 1369.32 -4.02179 -3.39941 0
M  V30 14253 H 1371.81 -3.13015 -2.11731 0
M  V30 14254 H 1372.13 -6.73046 -3.79776 0
M  V30 14255 H 1370.47 -6.04946 -3.42148 0
M  V30 14256 H 1373.66 -3.92385 -2.55248 0
M  V30 14257 H 1373.84 -5.5655 -3.31897 0
M  V30 14258 N 1367.24 0.986894 -1.22875 0
M  V30 14259 C 1368.49 1.72388 -1.05484 0
M  V30 14260 C 1368.81 1.90639 0.410074 0
M  V30 14261 O 1368.08 1.47036 1.2945 0
M  V30 14262 H 1366.66 0.638732 -0.387337 0
M  V30 14263 H 1369.32 1.18829 -1.54485 0
M  V30 14264 H 1368.42 2.71599 -1.53754 0
M  V30 14265 N 1368.72 1.0394 1.18466 0
M  V30 14266 C 1369.65 0.573814 2.20868 0
M  V30 14267 C 1370.63 -0.390956 1.5783 0
M  V30 14268 O 1371.82 -0.305561 1.86007 0
M  V30 14269 C 1368.94 -0.161904 3.38313 0
M  V30 14270 C 1367.99 0.755924 4.19748 0
M  V30 14271 S 1368.82 2.23809 4.86487 0
M  V30 14272 C 1369.98 1.51318 6.07333 0
M  V30 14273 H 1370.21 1.44143 2.60019 0
M  V30 14274 H 1367.74 0.850252 1.2888 0
M  V30 14275 H 1369.7 -0.58022 4.06379 0
M  V30 14276 H 1368.36 -1.00539 2.97575 0
M  V30 14277 H 1367.56 0.187345 5.03652 0
M  V30 14278 H 1367.16 1.11303 3.57054 0
M  V30 14279 H 1369.45 0.805536 6.72694 0
M  V30 14280 H 1370.39 2.32922 6.68695 0
M  V30 14281 H 1370.8 1.00607 5.55462 0
M  V30 14282 N 1370.2 -1.34667 0.818693 0
M  V30 14283 C 1371.61 -1.80839 0.46414 0
M  V30 14284 C 1371.96 -1.67902 -1.01506 0
M  V30 14285 O 1371.09 -1.21658 -1.78964 0
M  V30 14286 C 1371.68 -3.28331 0.835698 0
M  V30 14287 C 1370.24 -3.72599 0.533575 0
M  V30 14288 C 1369.39 -2.56452 1.05487 0
M  V30 14289 H 1372.34 -1.22474 1.00925 0
M  V30 14290 H 1372.36 -3.8025 0.13785 0
M  V30 14291 H 1371.87 -3.37715 1.91233 0
M  V30 14292 H 1369.97 -3.68756 -0.533819 0
M  V30 14293 H 1370.08 -4.66891 1.07468 0
M  V30 14294 H 1368.45 -2.50201 0.476612 0
M  V30 14295 H 1369.23 -2.68608 2.13786 0
M  V30 14296 N 1371.68 -0.573274 -1.46804 0
M  V30 14297 C 1372.93 -0.0530267 -2.0163 0
M  V30 14298 C 1373.24 1.31124 -1.45141 0
M  V30 14299 O 1374.44 1.92231 -1.91728 0
M  V30 14300 C 1372.9 -0.0442411 -3.59873 0
M  V30 14301 C 1372.51 -1.40625 -4.25357 0
M  V30 14302 C 1374.25 0.422556 -4.22392 0
M  V30 14303 C 1372.16 -1.3557 -5.75652 0
M  V30 14304 H 1371.09 -0.0160537 -0.753829 0
M  V30 14305 H 1373.74 -0.723518 -1.68634 0
M  V30 14306 H 1372.12 0.692225 -3.89903 0
M  V30 14307 H 1373.3 -2.1617 -4.06949 0
M  V30 14308 H 1371.61 -1.81229 -3.74893 0
M  V30 14309 H 1374.21 0.479021 -5.3255 0
M  V30 14310 H 1374.55 1.43806 -3.90673 0
M  V30 14311 H 1375.08 -0.259551 -3.96952 0
M  V30 14312 H 1371.82 -2.34772 -6.12015 0
M  V30 14313 H 1371.34 -0.642309 -5.96351 0
M  V30 14314 H 1373.02 -1.06458 -6.38182 0
M  V30 14315 N 1373.15 1.5451 -0.310553 0
M  V30 14316 C 1374.57 1.85829 0.180166 0
M  V30 14317 C 1374.92 1.23239 1.52665 0
M  V30 14318 O 1374.04 0.53359 2.09718 0
M  V30 14319 C 1374.64 3.37153 0.333687 0
M  V30 14320 C 1373.2 3.68469 0.768625 0
M  V30 14321 C 1372.34 2.77051 -0.117399 0
M  V30 14322 H 1375.29 1.49544 -0.531262 0
M  V30 14323 H 1375.31 3.62171 1.16673 0
M  V30 14324 H 1374.83 3.82678 -0.646455 0
M  V30 14325 H 1372.93 3.28467 1.75898 0
M  V30 14326 H 1373.04 4.75559 0.581392 0
M  V30 14327 H 1371.4 2.51461 0.404905 0
M  V30 14328 H 1372.19 3.254 -1.09407 0
M  V30 14329 N 1374.63 0.0384594 1.57553 0
M  V30 14330 C 1375.91 -0.677308 1.83499 0
M  V30 14331 C 1376.29 -1.89789 0.924294 0
M  V30 14332 O 1375.64 -2.28493 -0.0178185 0
M  V30 14333 C 1375.85 -1.04667 3.32935 0
M  V30 14334 C 1377.2 -1.43436 3.99639 0
M  V30 14335 O 1378.22 -1.13938 3.37486 0
M  V30 14336 O 1377.08 -1.98435 5.09201 0
M  V30 14337 H 1374.17 -0.333131 0.756936 0
M  V30 14338 H 1376.72 0.066854 1.69568 0
M  V30 14339 H 1375.49 -0.178349 3.90893 0
M  V30 14340 H 1375.11 -1.8487 3.52007 0
M  V30 14341 N 1376.11 -1.55841 -0.234795 0
M  V30 14342 C 1377.36 -1.78238 -0.961116 0
M  V30 14343 C 1377.69 -0.604919 -1.84854 0
M  V30 14344 O 1376.94 0.411289 -1.91329 0
M  V30 14345 C 1377.24 -3.06262 -1.84223 0
M  V30 14346 C 1376.91 -4.37045 -1.10916 0
M  V30 14347 C 1375.57 -4.72582 -0.906606 0
M  V30 14348 C 1377.92 -5.17844 -0.59049 0
M  V30 14349 C 1375.25 -5.86444 -0.173275 0
M  V30 14350 C 1377.6 -6.32468 0.129433 0
M  V30 14351 C 1376.26 -6.66616 0.343357 0
M  V30 14352 H 1375.53 -0.652219 -0.351697 0
M  V30 14353 H 1378.18 -1.9011 -0.230272 0
M  V30 14354 H 1376.49 -2.89454 -2.64052 0
M  V30 14355 H 1378.18 -3.20791 -2.40612 0
M  V30 14356 H 1374.77 -4.09134 -1.27699 0
M  V30 14357 H 1378.96 -4.90835 -0.734487 0
M  V30 14358 H 1374.21 -6.114 0.00282409 0
M  V30 14359 H 1378.39 -6.94312 0.538905 0
M  V30 14360 H 1376.01 -7.54691 0.913538 0
M  V30 14361 N 1377.59 0.500963 -1.49426 0
M  V30 14362 C 1378.87 1.26231 -1.49416 0
M  V30 14363 C 1379.25 2.0993 -0.221908 0
M  V30 14364 O 1378.59 2.14198 0.795712 0
M  V30 14365 C 1378.8 2.11899 -2.77308 0
M  V30 14366 C 1380.15 2.71086 -3.26799 0
M  V30 14367 O 1381.18 2.22166 -2.78425 0
M  V30 14368 O 1380.04 3.60141 -4.11049 0
M  V30 14369 H 1377.13 0.571224 -0.598024 0
M  V30 14370 H 1379.68 0.51523 -1.61689 0
M  V30 14371 H 1378.45 1.50027 -3.61397 0
M  V30 14372 H 1378.07 2.93799 -2.67896 0
M  V30 14373 N 1379.07 1.38501 0.752011 0
M  V30 14374 C 1380 1.38577 1.87933 0
M  V30 14375 C 1380.98 0.251454 1.68231 0
M  V30 14376 O 1382.16 0.45477 1.888 0
M  V30 14377 C 1379.29 1.21164 3.25479 0
M  V30 14378 C 1378.25 2.31816 3.59785 0
M  V30 14379 C 1377.57 1.99508 4.96085 0
M  V30 14380 C 1378.87 3.74082 3.645 0
M  V30 14381 H 1380.57 2.32913 1.88127 0
M  V30 14382 H 1378.11 1.12113 0.903698 0
M  V30 14383 H 1380.07 1.19842 4.04 0
M  V30 14384 H 1378.79 0.232899 3.25769 0
M  V30 14385 H 1377.45 2.32327 2.83584 0
M  V30 14386 H 1377.1 1.00114 4.92936 0
M  V30 14387 H 1376.8 2.73617 5.20007 0
M  V30 14388 H 1378.32 1.99807 5.76983 0
M  V30 14389 H 1379.74 3.75593 4.33131 0
M  V30 14390 H 1378.13 4.47409 3.99931 0
M  V30 14391 H 1379.2 4.06284 2.64692 0
M  V30 14392 N 1380.55 -0.980364 1.23396 0
M  V30 14393 C 1381.82 -1.69607 0.974319 0
M  V30 14394 C 1382.2 -2.0492 -0.507064 0
M  V30 14395 O 1381.55 -1.74239 -1.47827 0
M  V30 14396 C 1381.76 -2.93743 1.88457 0
M  V30 14397 C 1383.11 -3.66256 2.14806 0
M  V30 14398 O 1384.13 -3.03776 1.86007 0
M  V30 14399 O 1382.99 -4.78698 2.63648 0
M  V30 14400 H 1380.09 -0.740878 0.367462 0
M  V30 14401 H 1382.63 -1.03558 1.34439 0
M  V30 14402 H 1381.4 -2.64244 2.88601 0
M  V30 14403 H 1381.03 -3.67528 1.51688 0
M  V30 14404 N 1382.02 -1.04567 -1.17913 0
M  V30 14405 C 1383.3 -0.666082 -1.8391 0
M  V30 14406 C 1383.68 0.854062 -1.93052 0
M  V30 14407 O 1383.03 1.75752 -1.46026 0
M  V30 14408 C 1383.24 -1.34776 -3.21926 0
M  V30 14409 C 1384.59 -1.48177 -3.97905 0
M  V30 14410 O 1385.61 -1.30627 -3.31384 0
M  V30 14411 O 1384.47 -1.76822 -5.17104 0
M  V30 14412 H 1381.56 -0.233694 -0.793294 0
M  V30 14413 H 1384.11 -1.14487 -1.25263 0
M  V30 14414 H 1382.88 -2.38514 -3.10204 0
M  V30 14415 H 1382.5 -0.857914 -3.88234 0
M  V30 14416 N 1383.5 1.34231 -0.825823 0
M  V30 14417 C 1384.75 1.98196 -0.415276 0
M  V30 14418 C 1385.08 1.65463 1.02236 0
M  V30 14419 O 1384.33 0.919868 1.72734 0
M  V30 14420 C 1384.63 3.52861 -0.56778 0
M  V30 14421 C 1384.3 4.05512 -1.97157 0
M  V30 14422 C 1382.96 4.19602 -2.35557 0
M  V30 14423 C 1385.31 4.33798 -2.88909 0
M  V30 14424 C 1382.64 4.59307 -3.6504 0
M  V30 14425 C 1384.99 4.74949 -4.17859 0
M  V30 14426 C 1383.65 4.87245 -4.56233 0
M  V30 14427 H 1382.92 0.725251 -0.15196 0
M  V30 14428 H 1385.57 1.60126 -1.05033 0
M  V30 14429 H 1383.88 3.9151 0.15065 0
M  V30 14430 H 1385.57 4.00336 -0.230608 0
M  V30 14431 H 1382.16 3.9501 -1.66328 0
M  V30 14432 H 1386.35 4.22448 -2.60483 0
M  V30 14433 H 1381.6 4.67017 -3.94594 0
M  V30 14434 H 1385.78 4.95795 -4.8904 0
M  V30 14435 H 1383.4 5.17768 -5.56615 0
M  V30 14436 N 1384.98 0.581051 1.46498 0
M  V30 14437 C 1386.23 0.0637189 2.01599 0
M  V30 14438 C 1386.54 -1.30353 1.45834 0
M  V30 14439 O 1387.75 -1.91211 1.92745 0
M  V30 14440 C 1386.2 0.0633254 3.59844 0
M  V30 14441 C 1385.81 1.42879 4.24605 0
M  V30 14442 C 1387.56 -0.400149 4.2261 0
M  V30 14443 C 1385.46 1.38621 5.74924 0
M  V30 14444 H 1384.39 0.0200512 0.753733 0
M  V30 14445 H 1387.04 0.732451 1.68248 0
M  V30 14446 H 1385.43 -0.671538 3.90264 0
M  V30 14447 H 1386.6 2.18325 4.05796 0
M  V30 14448 H 1384.91 1.83215 3.73927 0
M  V30 14449 H 1387.51 -0.450771 5.32797 0
M  V30 14450 H 1387.85 -1.41733 3.9143 0
M  V30 14451 H 1388.39 0.280598 3.96809 0
M  V30 14452 H 1385.13 2.38014 6.10761 0
M  V30 14453 H 1384.65 0.673926 5.96002 0
M  V30 14454 H 1386.33 1.09841 6.37608 0
M  V30 14455 N 1386.46 -1.54343 0.318742 0
M  V30 14456 C 1387.73 -1.92635 -0.339299 0
M  V30 14457 C 1388.11 -1.24786 -1.7027 0
M  V30 14458 O 1387.46 -0.389844 -2.2515 0
M  V30 14459 C 1387.67 -3.46262 -0.436318 0
M  V30 14460 C 1389.02 -4.18809 -0.698871 0
M  V30 14461 O 1390.04 -3.52392 -0.519431 0
M  V30 14462 O 1388.9 -5.36422 -1.04471 0
M  V30 14463 H 1386 -0.804202 -0.192841 0
M  V30 14464 H 1388.54 -1.6566 0.368104 0
M  V30 14465 H 1387.32 -3.8781 0.521427 0
M  V30 14466 H 1386.94 -3.79327 -1.19149 0
M  V30 14467 N 1387.94 -0.0468143 -1.5753 0
M  V30 14468 C 1388.9 0.914225 -2.10177 0
M  V30 14469 C 1389.9 1.24271 -1.02045 0
M  V30 14470 O 1391.09 1.18012 -1.28136 0
M  V30 14471 C 1388.22 2.22544 -2.58238 0
M  V30 14472 H 1389.41 0.457922 -2.96383 0
M  V30 14473 H 1386.97 0.20152 -1.54995 0
M  V30 14474 H 1387.7 2.72765 -1.75413 0
M  V30 14475 H 1387.49 2.00007 -3.37253 0
M  V30 14476 H 1388.98 2.91392 -2.99133 0
M  V30 14477 N 1389.41 1.55964 0.226527 0
M  V30 14478 C 1390.83 1.68978 0.793936 0
M  V30 14479 C 1391.18 0.647938 1.85192 0
M  V30 14480 O 1390.3 -0.201907 2.15456 0
M  V30 14481 C 1390.9 3.06351 1.44687 0
M  V30 14482 C 1389.46 3.21237 1.96173 0
M  V30 14483 C 1388.6 2.64896 0.8201 0
M  V30 14484 H 1391.55 1.587 0.00195967 0
M  V30 14485 H 1391.57 3.01932 2.31554 0
M  V30 14486 H 1391.09 3.82156 0.676611 0
M  V30 14487 H 1389.19 2.50292 2.76016 0
M  V30 14488 H 1389.3 4.28394 2.14512 0
M  V30 14489 H 1387.66 2.23247 1.22609 0
M  V30 14490 H 1388.45 3.43243 0.0625967 0
M  V30 14491 N 1390.89 -0.493031 1.4969 0
M  V30 14492 C 1392.13 -1.25673 1.61201 0
M  V30 14493 C 1392.5 -1.8971 0.295685 0
M  V30 14494 O 1393.7 -2.67274 0.286046 0
M  V30 14495 C 1391.97 -2.28923 2.74462 0
M  V30 14496 S 1393.53 -3.14525 3.05973 0
M  V30 14497 H 1390.35 -0.426985 0.568511 0
M  V30 14498 H 1392.95 -0.557497 1.87383 0
M  V30 14499 H 1391.65 -1.80421 3.68614 0
M  V30 14500 H 1391.18 -3.03504 2.50298 0
M  V30 14501 H 1393.2 -4.29717 2.48108 0
M  V30 14502 N 1392.37 -1.38898 -0.744656 0
M  V30 14503 C 1393.6 -1.38647 -1.53169 0
M  V30 14504 C 1394.01 0.0233199 -1.89186 0
M  V30 14505 O 1393.35 1.00261 -1.53927 0
M  V30 14506 C 1393.41 -2.18615 -2.85391 0
M  V30 14507 C 1393.08 -3.67342 -2.71862 0
M  V30 14508 C 1394.07 -4.60638 -2.41057 0
M  V30 14509 C 1391.76 -4.10809 -2.89035 0
M  V30 14510 C 1393.75 -5.95383 -2.27592 0
M  V30 14511 C 1391.44 -5.45632 -2.7519 0
M  V30 14512 C 1392.44 -6.37733 -2.44512 0
M  V30 14513 O 1392.13 -7.70074 -2.30741 0
M  V30 14514 H 1391.86 -0.475741 -0.480257 0
M  V30 14515 H 1394.41 -1.8321 -0.928621 0
M  V30 14516 H 1392.64 -1.68784 -3.47921 0
M  V30 14517 H 1394.33 -2.1066 -3.46954 0
M  V30 14518 H 1395.1 -4.28359 -2.2745 0
M  V30 14519 H 1390.98 -3.39462 -3.11908 0
M  V30 14520 H 1394.52 -6.67237 -2.03569 0
M  V30 14521 H 1390.42 -5.77504 -2.88373 0
M  V30 14522 H 1391.19 -7.80694 -2.45885 0
M  V30 14523 N 1393.85 0.973806 -1.23914 0
M  V30 14524 C 1395.09 1.731 -1.08701 0
M  V30 14525 C 1395.45 1.88425 0.368772 0
M  V30 14526 O 1396.65 2.61014 0.642259 0
M  V30 14527 C 1394.92 3.08777 -1.79977 0
M  V30 14528 S 1396.48 3.99993 -1.80419 0
M  V30 14529 H 1393.3 0.595219 -0.38889 0
M  V30 14530 H 1395.9 1.16291 -1.57152 0
M  V30 14531 H 1394.61 2.95278 -2.85024 0
M  V30 14532 H 1394.14 3.70652 -1.31835 0
M  V30 14533 H 1396.15 4.88558 -0.867494 0
M  V30 14534 N 1395.33 1.05191 1.17357 0
M  V30 14535 C 1396.57 0.761984 1.87617 0
M  V30 14536 C 1396.9 -0.710976 1.8104 0
M  V30 14537 O 1396.16 -1.53566 1.21309 0
M  V30 14538 C 1396.46 1.18779 3.37085 0
M  V30 14539 C 1396.12 2.66296 3.63864 0
M  V30 14540 C 1394.78 3.06594 3.70882 0
M  V30 14541 C 1397.14 3.61622 3.75339 0
M  V30 14542 C 1394.46 4.41081 3.86865 0
M  V30 14543 C 1396.82 4.95842 3.9284 0
M  V30 14544 C 1395.48 5.35793 3.98097 0
M  V30 14545 H 1394.75 0.27883 0.686538 0
M  V30 14546 H 1397.4 1.31899 1.38834 0
M  V30 14547 H 1395.7 0.549782 3.87923 0
M  V30 14548 H 1397.4 0.940667 3.89811 0
M  V30 14549 H 1393.99 2.34089 3.59027 0
M  V30 14550 H 1398.17 3.31628 3.69238 0
M  V30 14551 H 1393.43 4.71536 3.89183 0
M  V30 14552 H 1397.6 5.696 4.00661 0
M  V30 14553 H 1395.23 6.40009 4.10234 0
M  V30 14554 N 1396.8 -1.33791 0.83293 0
M  V30 14555 C 1397.75 -2.31249 0.250357 0
M  V30 14556 C 1398.75 -1.57865 -0.614403 0
M  V30 14557 O 1399.95 -1.72782 -0.504627 0
M  V30 14558 H 1396.33 -0.749421 0.0622268 0
M  V30 14559 H 1398.3 -2.77899 1.08697 0
M  V30 14560 C 1397.05 -3.43082 -0.564783 0
M  V30 14561 H 1396.37 -3.99696 0.0913189 0
M  V30 14562 H 1397.81 -4.13486 -0.938351 0
M  V30 14563 C 1396.27 -2.88414 -1.74124 0
M  V30 14564 O 1396.8 -2.84113 -2.83976 0
M  V30 14565 N 1395.01 -2.45101 -1.56121 0
M  V30 14566 H 1394.55 -2.48799 -0.667607 0
M  V30 14567 H 1394.51 -2.08875 -2.34986 0
M  V30 14568 N 1398.28 -0.588812 -1.46187 0
M  V30 14569 C 1399.25 0.130803 -2.28826 0
M  V30 14570 C 1400.25 0.813037 -1.38731 0
M  V30 14571 O 1401.44 0.664061 -1.61046 0
M  V30 14572 C 1398.57 1.19484 -3.19275 0
M  V30 14573 H 1399.76 -0.595514 -2.93928 0
M  V30 14574 H 1397.31 -0.347038 -1.52399 0
M  V30 14575 H 1398.05 1.95254 -2.58933 0
M  V30 14576 H 1397.83 0.710077 -3.85617 0
M  V30 14577 H 1399.32 1.69938 -3.81459 0
M  V30 14578 N 1399.76 1.54172 -0.326923 0
M  V30 14579 C 1400.67 2.28149 0.546351 0
M  V30 14580 C 1401.69 1.32628 1.12631 0
M  V30 14581 O 1402.86 1.65647 1.14556 0
M  V30 14582 C 1399.93 3.02742 1.68962 0
M  V30 14583 C 1398.99 4.13856 1.14112 0
M  V30 14584 C 1398.22 4.84882 2.2299 0
M  V30 14585 O 1398.44 4.55448 3.43399 0
M  V30 14586 O 1397.38 5.71714 1.8822 0
M  V30 14587 H 1401.2 3.03651 -0.0545288 0
M  V30 14588 H 1398.79 1.49113 -0.0925027 0
M  V30 14589 H 1400.67 3.49443 2.35515 0
M  V30 14590 H 1399.35 2.30113 2.27662 0
M  V30 14591 H 1398.25 3.71497 0.440579 0
M  V30 14592 H 1399.59 4.88539 0.599211 0
M  V30 14593 N 1401.24 0.0551678 1.57503 0
M  V30 14594 C 1402.49 -0.6165 1.92467 0
M  V30 14595 C 1402.81 -1.71147 0.934552 0
M  V30 14596 O 1402.08 -1.9589 -0.0199649 0
M  V30 14597 H 1400.66 -0.230714 0.710479 0
M  V30 14598 H 1403.32 0.109111 1.94594 0
M  V30 14599 H 1402.42 -1.05254 2.93816 0
M  V30 14600 N 1402.72 -1.56081 -0.218252 0
M  V30 14601 C 1403.99 -1.70043 -0.966684 0
M  V30 14602 C 1404.37 -0.603372 -2.02293 0
M  V30 14603 O 1403.72 0.389138 -2.25162 0
M  V30 14604 C 1403.93 -3.11484 -1.57413 0
M  V30 14605 C 1405.28 -3.70995 -2.06513 0
M  V30 14606 O 1406.3 -3.14466 -1.67301 0
M  V30 14607 O 1405.16 -4.70156 -2.78596 0
M  V30 14608 H 1402.26 -0.692691 -0.451784 0
M  V30 14609 H 1404.8 -1.68398 -0.209774 0
M  V30 14610 H 1403.57 -3.8279 -0.811614 0
M  V30 14611 H 1403.2 -3.1726 -2.3965 0
M  V30 14612 N 1404.2 0.485086 -1.49949 0
M  V30 14613 C 1405.16 1.56713 -1.67253 0
M  V30 14614 C 1406.16 1.51329 -0.543701 0
M  V30 14615 O 1407.35 1.54198 -0.810472 0
M  V30 14616 C 1404.48 2.9636 -1.68475 0
M  V30 14617 H 1405.67 1.42693 -2.63778 0
M  V30 14618 H 1403.23 0.710473 -1.39219 0
M  V30 14619 H 1403.96 3.1584 -0.735924 0
M  V30 14620 H 1403.75 3.01675 -2.50469 0
M  V30 14621 H 1405.24 3.74945 -1.83865 0
M  V30 14622 N 1405.67 1.39291 0.737279 0
M  V30 14623 C 1406.9 1.39844 1.53162 0
M  V30 14624 C 1407.32 -0.00568546 1.88099 0
M  V30 14625 O 1406.68 -0.992085 1.51748 0
M  V30 14626 C 1406.73 2.27577 2.79716 0
M  V30 14627 O 1405.83 1.70408 3.75546 0
M  V30 14628 H 1405.17 0.476314 0.462624 0
M  V30 14629 H 1407.7 1.83258 0.909819 0
M  V30 14630 H 1407.71 2.42009 3.28475 0
M  V30 14631 H 1406.39 3.29621 2.53619 0
M  V30 14632 H 1404.97 1.65206 3.34307 0
M  V30 14633 N 1407.15 -0.967221 1.24429 0
M  V30 14634 C 1408.4 -1.71349 1.09596 0
M  V30 14635 C 1408.75 -1.88975 -0.361411 0
M  V30 14636 O 1408.05 -1.4405 -1.26333 0
M  V30 14637 C 1408.24 -3.10507 1.76975 0
M  V30 14638 C 1408.07 -3.06455 3.29113 0
M  V30 14639 C 1406.84 -3.1091 3.98326 0
M  V30 14640 C 1409.04 -2.88594 4.25697 0
M  V30 14641 N 1407.02 -2.96882 5.3734 0
M  V30 14642 C 1408.39 -2.82867 5.51712 0
M  V30 14643 C 1410.44 -2.73179 4.16267 0
M  V30 14644 C 1409.15 -2.63301 6.69377 0
M  V30 14645 C 1411.17 -2.5498 5.3361 0
M  V30 14646 C 1410.54 -2.49962 6.58558 0
M  V30 14647 H 1406.63 -0.635528 0.455663 0
M  V30 14648 H 1409.22 -1.14669 1.5735 0
M  V30 14649 H 1407.39 -3.65378 1.31733 0
M  V30 14650 H 1409.12 -3.73842 1.54997 0
M  V30 14651 H 1405.88 -3.19609 3.49495 0
M  V30 14652 H 1406.3 -2.93107 6.1026 0
M  V30 14653 H 1410.94 -2.7584 3.20425 0
M  V30 14654 H 1408.66 -2.59383 7.65341 0
M  V30 14655 H 1412.25 -2.43995 5.28164 0
M  V30 14656 H 1411.13 -2.3606 7.47827 0
M  V30 14657 N 1408.63 -1.05812 -1.16797 0
M  V30 14658 C 1409.85 -0.792518 -1.91661 0
M  V30 14659 C 1410.28 0.646598 -1.76637 0
M  V30 14660 O 1409.64 1.44998 -1.08836 0
M  V30 14661 C 1409.69 -1.18585 -3.40544 0
M  V30 14662 O 1408.79 -0.321716 -4.11143 0
M  V30 14663 H 1408.13 -0.290066 -0.597292 0
M  V30 14664 H 1410.66 -1.41263 -1.48007 0
M  V30 14665 H 1410.67 -1.1553 -3.91301 0
M  V30 14666 H 1409.35 -2.23413 -3.50798 0
M  V30 14667 H 1407.92 -0.413403 -3.70601 0
M  V30 14668 N 1410.11 1.33347 -0.840014 0
M  V30 14669 C 1411.33 2.02485 -0.448856 0
M  V30 14670 C 1411.76 1.62781 0.942543 0
M  V30 14671 O 1411.12 0.82099 1.61646 0
M  V30 14672 C 1411.16 3.55928 -0.578582 0
M  V30 14673 O 1410.27 4.10507 0.394695 0
M  V30 14674 H 1409.61 0.63848 -0.182317 0
M  V30 14675 H 1412.14 1.70221 -1.13516 0
M  V30 14676 H 1412.15 4.05391 -0.460653 0
M  V30 14677 H 1410.82 3.8417 -1.5933 0
M  V30 14678 H 1409.4 3.72164 0.234227 0
M  V30 14679 N 1411.59 0.596556 1.45873 0
M  V30 14680 C 1412.81 0.0934926 2.06689 0
M  V30 14681 C 1413.23 -1.21743 1.44305 0
M  V30 14682 O 1412.59 -1.73912 0.553253 0
M  V30 14683 C 1412.64 -0.0643337 3.61443 0
M  V30 14684 O 1412.36 1.19472 4.21495 0
M  V30 14685 C 1413.86 -0.600141 4.39219 0
M  V30 14686 H 1411.08 0.0637846 0.667961 0
M  V30 14687 H 1413.62 0.821159 1.87289 0
M  V30 14688 H 1411.78 -0.742278 3.80222 0
M  V30 14689 H 1412.19 1.01735 5.14539 0
M  V30 14690 H 1413.67 -0.6597 5.48044 0
M  V30 14691 H 1414.14 -1.62009 4.08227 0
M  V30 14692 H 1414.75 0.0433915 4.25278 0
M  V30 14693 N 1413.06 -1.53996 0.335095 0
M  V30 14694 C 1414 -2.21007 -0.568424 0
M  V30 14695 C 1414.97 -1.19112 -1.10685 0
M  V30 14696 O 1416.16 -1.47898 -1.1687 0
M  V30 14697 C 1413.29 -2.88086 -1.78113 0
M  V30 14698 C 1412.33 -4.03798 -1.37292 0
M  V30 14699 S 1413.16 -5.34005 -0.399865 0
M  V30 14700 C 1414.32 -6.04582 -1.6196 0
M  V30 14701 H 1414.55 -2.973 0.000770174 0
M  V30 14702 H 1412.09 -1.53939 0.119169 0
M  V30 14703 H 1414.04 -3.27353 -2.4769 0
M  V30 14704 H 1412.71 -2.11575 -2.32153 0
M  V30 14705 H 1411.9 -4.49637 -2.27689 0
M  V30 14706 H 1411.5 -3.66264 -0.75673 0
M  V30 14707 H 1413.79 -6.27462 -2.55534 0
M  V30 14708 H 1414.74 -6.97804 -1.20315 0
M  V30 14709 H 1415.14 -5.34634 -1.81181 0
M  V30 14710 N 1414.54 -0.0635198 -1.57472 0
M  V30 14711 C 1415.79 0.607008 -1.92349 0
M  V30 14712 C 1416.1 1.71268 -0.944806 0
M  V30 14713 O 1417.31 2.44221 -1.18609 0
M  V30 14714 C 1415.77 1.13105 -3.41666 0
M  V30 14715 C 1415.37 0.0568256 -4.47964 0
M  V30 14716 C 1417.12 1.77611 -3.85557 0
M  V30 14717 C 1415.02 0.594443 -5.88405 0
M  V30 14718 H 1413.95 0.230506 -0.717902 0
M  V30 14719 H 1416.61 -0.134413 -1.83007 0
M  V30 14720 H 1414.99 1.92517 -3.46054 0
M  V30 14721 H 1416.16 -0.717371 -4.55182 0
M  V30 14722 H 1414.48 -0.491517 -4.13489 0
M  V30 14723 H 1417.07 2.18852 -4.87861 0
M  V30 14724 H 1417.42 2.6328 -3.22474 0
M  V30 14725 H 1417.95 1.04834 -3.83738 0
M  V30 14726 H 1414.69 -0.224893 -6.55114 0
M  V30 14727 H 1414.21 1.33635 -5.84724 0
M  V30 14728 H 1415.89 1.07346 -6.38033 0
M  V30 14729 N 1416.02 1.56195 0.209972 0
M  V30 14730 C 1417.27 1.79745 0.932638 0
M  V30 14731 C 1417.59 0.634252 1.83868 0
M  V30 14732 O 1416.85 -0.380798 1.91959 0
M  V30 14733 C 1417.15 3.09154 1.79328 0
M  V30 14734 C 1416.81 4.38754 1.03949 0
M  V30 14735 C 1415.48 4.73965 0.831308 0
M  V30 14736 C 1417.83 5.18718 0.508031 0
M  V30 14737 C 1415.16 5.86646 0.0799547 0
M  V30 14738 C 1417.51 6.32182 -0.230037 0
M  V30 14739 C 1416.17 6.65986 -0.449366 0
M  V30 14740 H 1415.44 0.657732 0.341276 0
M  V30 14741 H 1418.09 1.90453 0.199998 0
M  V30 14742 H 1416.39 2.93618 2.59414 0
M  V30 14743 H 1418.09 3.24578 2.35478 0
M  V30 14744 H 1414.68 4.11114 1.21174 0
M  V30 14745 H 1418.87 4.91941 0.656306 0
M  V30 14746 H 1414.12 6.11318 -0.100092 0
M  V30 14747 H 1418.3 6.93367 -0.649296 0
M  V30 14748 H 1415.92 7.53142 -1.03349 0
M  V30 14749 N 1417.5 -0.477127 1.50204 0
M  V30 14750 C 1418.72 -1.25775 1.6491 0
M  V30 14751 C 1419.15 -1.85187 0.329765 0
M  V30 14752 O 1418.51 -1.67004 -0.705641 0
M  V30 14753 C 1418.55 -2.3466 2.73801 0
M  V30 14754 O 1417.66 -3.39147 2.34634 0
M  V30 14755 H 1417 -0.370291 0.551163 0
M  V30 14756 H 1419.53 -0.568514 1.96543 0
M  V30 14757 H 1419.54 -2.80065 2.96695 0
M  V30 14758 H 1418.21 -1.90788 3.69557 0
M  V30 14759 H 1416.79 -2.99496 2.22163 0
M  V30 14760 N 1418.98 -1.3968 -0.729882 0
M  V30 14761 C 1419.91 -1.41549 -1.85704 0
M  V30 14762 C 1420.89 -0.278186 -1.6781 0
M  V30 14763 O 1422.07 -0.484749 -1.88053 0
M  V30 14764 C 1419.2 -1.26327 -3.2351 0
M  V30 14765 C 1418.16 -2.37511 -3.56051 0
M  V30 14766 C 1417.48 -2.07375 -4.92849 0
M  V30 14767 C 1418.78 -3.79833 -3.58502 0
M  V30 14768 H 1420.48 -2.35877 -1.84398 0
M  V30 14769 H 1418.02 -1.13536 -0.885747 0
M  V30 14770 H 1419.98 -1.26254 -4.02042 0
M  V30 14771 H 1418.7 -0.284697 -3.25357 0
M  V30 14772 H 1417.36 -2.36809 -2.79852 0
M  V30 14773 H 1417.01 -1.07943 -4.91281 0
M  V30 14774 H 1416.71 -2.81855 -5.15588 0
M  V30 14775 H 1418.23 -2.08961 -5.73731 0
M  V30 14776 H 1419.64 -3.82436 -4.27101 0
M  V30 14777 H 1418.04 -4.53715 -3.92763 0
M  V30 14778 H 1419.11 -4.10443 -2.58195 0
M  V30 14779 N 1420.45 0.960609 -1.2494 0
M  V30 14780 C 1421.4 2.04164 -1.01493 0
M  V30 14781 C 1422.39 1.60834 0.0461124 0
M  V30 14782 O 1423.58 1.76196 -0.168491 0
M  V30 14783 C 1420.71 3.37484 -0.629251 0
M  V30 14784 C 1419.8 3.87356 -1.72674 0
M  V30 14785 N 1420.19 4.10085 -2.9608 0
M  V30 14786 C 1418.48 4.16086 -1.60589 0
M  V30 14787 C 1419.19 4.51091 -3.67276 0
M  V30 14788 N 1418.16 4.56676 -2.9487 0
M  V30 14789 H 1421.96 2.19723 -1.95189 0
M  V30 14790 H 1419.48 1.14496 -1.15171 0
M  V30 14791 H 1421.47 4.14545 -0.442484 0
M  V30 14792 H 1420.13 3.23307 0.300446 0
M  V30 14793 H 1421.15 3.97331 -3.32187 0
M  V30 14794 H 1417.82 4.10804 -0.744725 0
M  V30 14795 H 1419.21 4.77031 -4.73172 0
M  V30 14796 N 1421.93 1.0643 1.16234 0
M  V30 14797 C 1423.34 0.806012 1.68405 0
M  V30 14798 C 1423.69 -0.670197 1.84398 0
M  V30 14799 O 1422.82 -1.51975 1.54054 0
M  V30 14800 C 1423.41 1.45654 3.05893 0
M  V30 14801 C 1421.97 1.24599 3.55179 0
M  V30 14802 C 1421.12 1.53216 2.31128 0
M  V30 14803 H 1424.07 1.22759 1.00578 0
M  V30 14804 H 1424.09 0.872616 3.70359 0
M  V30 14805 H 1423.6 2.53092 2.94221 0
M  V30 14806 H 1421.71 0.191407 3.72108 0
M  V30 14807 H 1421.82 1.95967 4.37188 0
M  V30 14808 H 1420.18 0.952755 2.36209 0
M  V30 14809 H 1420.97 2.61816 2.22052 0
M  V30 14810 N 1423.41 -1.329 0.847073 0
M  V30 14811 C 1424.66 -1.97803 0.447417 0
M  V30 14812 C 1424.99 -1.6691 -0.9927 0
M  V30 14813 O 1424.26 -0.953315 -1.69535 0
M  V30 14814 C 1424.55 -3.53657 0.678135 0
M  V30 14815 C 1424.4 -3.94207 2.16612 0
M  V30 14816 C 1425.72 -4.39909 0.129589 0
M  V30 14817 H 1422.84 -0.718514 0.164034 0
M  V30 14818 H 1425.48 -1.57407 1.0641 0
M  V30 14819 H 1423.63 -3.88198 0.153222 0
M  V30 14820 H 1425.3 -3.69883 2.75653 0
M  V30 14821 H 1423.55 -3.43641 2.64752 0
M  V30 14822 H 1424.22 -5.02791 2.27827 0
M  V30 14823 H 1426.69 -4.12061 0.578371 0
M  V30 14824 H 1425.57 -5.47963 0.320648 0
M  V30 14825 H 1425.83 -4.31391 -0.967167 0
M  V30 14826 N 1424.89 -0.604284 -1.45555 0
M  V30 14827 C 1425.8 0.118409 -2.34301 0
M  V30 14828 C 1426.81 0.863807 -1.51044 0
M  V30 14829 O 1427.99 0.822138 -1.83856 0
M  V30 14830 C 1425.06 1.10538 -3.28606 0
M  V30 14831 C 1424.12 0.362301 -4.27768 0
M  V30 14832 C 1423.35 1.30226 -5.17568 0
M  V30 14833 O 1423.57 2.53991 -5.10729 0
M  V30 14834 O 1422.51 0.801116 -5.96545 0
M  V30 14835 H 1426.33 -0.610816 -2.97494 0
M  V30 14836 H 1423.92 -0.364562 -1.44884 0
M  V30 14837 H 1425.8 1.67392 -3.86727 0
M  V30 14838 H 1424.47 1.81569 -2.67982 0
M  V30 14839 H 1423.38 -0.248616 -3.73273 0
M  V30 14840 H 1424.71 -0.307454 -4.91239 0
M  V30 14841 N 1426.37 1.53816 -0.343257 0
M  V30 14842 C 1427.61 2.0282 0.253695 0
M  V30 14843 C 1427.97 1.22564 1.47791 0
M  V30 14844 O 1429.17 1.61464 2.14902 0
M  V30 14845 C 1427.44 3.5298 0.560361 0
M  V30 14846 S 1429 4.23889 1.13416 0
M  V30 14847 H 1425.82 0.706976 0.0755344 0
M  V30 14848 H 1428.42 1.89492 -0.480951 0
M  V30 14849 H 1427.13 4.09002 -0.338451 0
M  V30 14850 H 1426.66 3.70426 1.32468 0
M  V30 14851 H 1428.67 4.33192 2.4199 0
M  V30 14852 N 1427.84 0.0718701 1.57436 0
M  V30 14853 C 1429.12 -0.638233 1.84894 0
M  V30 14854 C 1429.5 -1.87786 0.964343 0
M  V30 14855 O 1428.85 -2.28479 0.0306523 0
M  V30 14856 C 1429.06 -0.975817 3.3508 0
M  V30 14857 C 1430.41 -1.34927 4.02591 0
M  V30 14858 O 1431.43 -1.06754 3.39826 0
M  V30 14859 O 1430.29 -1.87589 5.13296 0
M  V30 14860 H 1427.38 -0.317 0.763832 0
M  V30 14861 H 1429.93 0.102807 1.69388 0
M  V30 14862 H 1428.7 -0.0953948 3.91184 0
M  V30 14863 H 1428.33 -1.77362 3.55849 0
M  V30 14864 N 1429.32 -1.56304 -0.201686 0
M  V30 14865 C 1430.23 -1.97215 -1.27057 0
M  V30 14866 C 1431.25 -0.878834 -1.50175 0
M  V30 14867 O 1432.42 -1.18405 -1.62918 0
M  V30 14868 C 1429.49 -2.29772 -2.59626 0
M  V30 14869 C 1428.55 -3.52776 -2.44637 0
M  V30 14870 C 1427.78 -3.83771 -3.70885 0
M  V30 14871 O 1428.01 -3.16149 -4.7477 0
M  V30 14872 O 1426.94 -4.77216 -3.66808 0
M  V30 14873 H 1430.77 -2.88347 -0.953393 0
M  V30 14874 H 1428.35 -1.43773 -0.406158 0
M  V30 14875 H 1430.23 -2.51817 -3.37885 0
M  V30 14876 H 1428.91 -1.41809 -2.90984 0
M  V30 14877 H 1427.82 -3.35986 -1.64512 0
M  V30 14878 H 1429.15 -4.41184 -2.18214 0
M  V30 14879 N 1430.8 0.469154 -1.50455 0
M  V30 14880 C 1431.71 1.59271 -1.7225 0
M  V30 14881 C 1432.73 1.63119 -0.605668 0
M  V30 14882 O 1433.9 1.80952 -0.884222 0
M  V30 14883 C 1430.97 2.95475 -1.81372 0
M  V30 14884 C 1430.03 3.02 -3.05114 0
M  V30 14885 C 1429.26 4.31707 -3.13791 0
M  V30 14886 O 1429.48 5.2232 -2.29211 0
M  V30 14887 O 1428.42 4.43864 -4.06532 0
M  V30 14888 H 1432.24 1.43804 -2.67496 0
M  V30 14889 H 1429.83 0.648855 -1.34574 0
M  V30 14890 H 1431.71 3.76367 -1.89541 0
M  V30 14891 H 1430.39 3.11136 -0.893094 0
M  V30 14892 H 1429.29 2.20178 -3.02444 0
M  V30 14893 H 1430.63 2.91275 -3.96761 0
M  V30 14894 N 1432.28 1.40065 0.722464 0
M  V30 14895 C 1433.52 1.39414 1.49476 0
M  V30 14896 C 1433.88 -0.00655879 1.91999 0
M  V30 14897 O 1435.08 -0.138145 2.68445 0
M  V30 14898 C 1433.35 2.35014 2.69264 0
M  V30 14899 S 1434.91 2.52662 3.58758 0
M  V30 14900 H 1431.73 0.494229 0.511135 0
M  V30 14901 H 1434.33 1.76274 0.845447 0
M  V30 14902 H 1433.04 3.35627 2.36184 0
M  V30 14903 H 1432.57 1.99414 3.39113 0
M  V30 14904 H 1434.58 1.77389 4.63409 0
M  V30 14905 N 1433.76 -0.95397 1.25448 0
M  V30 14906 C 1434.98 -1.73863 1.13077 0
M  V30 14907 C 1435.41 -1.85503 -0.311481 0
M  V30 14908 O 1434.77 -1.33596 -1.22564 0
M  V30 14909 C 1434.81 -3.13 1.79062 0
M  V30 14910 O 1433.92 -3.98258 1.07072 0
M  V30 14911 H 1433.26 -0.533921 0.394746 0
M  V30 14912 H 1435.79 -1.19571 1.66024 0
M  V30 14913 H 1435.8 -3.63456 1.85374 0
M  V30 14914 H 1434.47 -3.03844 2.83992 0
M  V30 14915 H 1433.05 -3.56722 1.08645 0
M  V30 14916 N 1435.24 -1.07045 -1.15668 0
M  V30 14917 C 1436.15 -0.699332 -2.23934 0
M  V30 14918 C 1437.16 0.288036 -1.71599 0
M  V30 14919 O 1438.34 0.135447 -2.00944 0
M  V30 14920 C 1435.4 -0.0994775 -3.46557 0
M  V30 14921 C 1434.46 -1.13968 -4.13896 0
M  V30 14922 C 1433.7 -0.56836 -5.30665 0
M  V30 14923 O 1433.92 0.616556 -5.67058 0
M  V30 14924 O 1432.85 -1.31174 -5.87432 0
M  V30 14925 H 1436.68 -1.60212 -2.58003 0
M  V30 14926 H 1434.26 -0.843202 -1.23331 0
M  V30 14927 H 1436.15 0.23293 -4.20756 0
M  V30 14928 H 1434.82 0.776684 -3.14244 0
M  V30 14929 H 1433.73 -1.5244 -3.41633 0
M  V30 14930 H 1435.06 -1.98764 -4.50282 0
M  V30 14931 N 1436.71 1.32449 -0.85411 0
M  V30 14932 C 1437.96 1.97563 -0.4579 0
M  V30 14933 C 1438.29 1.67435 0.983835 0
M  V30 14934 O 1437.57 0.962292 1.69027 0
M  V30 14935 C 1437.85 3.53292 -0.69688 0
M  V30 14936 C 1437.7 3.93053 -2.18699 0
M  V30 14937 C 1439.02 4.39834 -0.152917 0
M  V30 14938 H 1436.14 0.717634 -0.167842 0
M  V30 14939 H 1438.78 1.5684 -1.07243 0
M  V30 14940 H 1436.93 3.88111 -0.173807 0
M  V30 14941 H 1438.61 3.68416 -2.7761 0
M  V30 14942 H 1436.85 3.42232 -2.6657 0
M  V30 14943 H 1437.52 5.01576 -2.3049 0
M  V30 14944 H 1440 4.11748 -0.600216 0
M  V30 14945 H 1438.87 5.47785 -0.349703 0
M  V30 14946 H 1439.13 4.31898 0.944276 0
M  V30 14947 N 1438.19 0.611994 1.45232 0
M  V30 14948 C 1439.1 -0.105981 2.3436 0
M  V30 14949 C 1440.12 -0.855785 1.515 0
M  V30 14950 O 1441.29 -0.812376 1.84289 0
M  V30 14951 C 1438.36 -1.08794 3.29188 0
M  V30 14952 C 1437.42 -0.339611 4.27955 0
M  V30 14953 C 1436.65 -1.27479 5.18252 0
M  V30 14954 O 1436.88 -2.51279 5.12069 0
M  V30 14955 O 1435.81 -0.769469 5.96961 0
M  V30 14956 H 1439.64 0.626584 2.97166 0
M  V30 14957 H 1437.22 0.37224 1.44688 0
M  V30 14958 H 1439.1 -1.65338 3.8761 0
M  V30 14959 H 1437.78 -1.80145 2.68941 0
M  V30 14960 H 1436.68 0.268408 3.73136 0
M  V30 14961 H 1438.02 0.333501 4.91069 0
M  V30 14962 N 1439.67 -1.53632 0.351409 0
M  V30 14963 C 1440.63 -2.23916 -0.489293 0
M  V30 14964 C 1441.63 -1.24207 -1.02124 0
M  V30 14965 O 1442.82 -1.48589 -0.909235 0
M  V30 14966 C 1439.95 -2.96492 -1.68242 0
M  V30 14967 H 1441.15 -2.99637 0.125518 0
M  V30 14968 H 1438.7 -1.55961 0.102874 0
M  V30 14969 H 1439.44 -2.24978 -2.33571 0
M  V30 14970 H 1439.22 -3.69637 -1.3081 0
M  V30 14971 H 1440.71 -3.49961 -2.27853 0
M  V30 14972 N 1441.15 -0.0802183 -1.57396 0
M  V30 14973 C 1442.37 0.599179 -1.98556 0
M  V30 14974 C 1442.8 1.61844 -0.958555 0
M  V30 14975 O 1442.16 1.81146 0.0748226 0
M  V30 14976 C 1442.2 1.23675 -3.38728 0
M  V30 14977 O 1441.31 2.35262 -3.38712 0
M  V30 14978 H 1440.65 0.153366 -0.646045 0
M  V30 14979 H 1443.18 -0.157227 -2.03995 0
M  V30 14980 H 1443.19 1.5816 -3.76098 0
M  V30 14981 H 1441.86 0.489946 -4.13004 0
M  V30 14982 H 1440.44 2.02507 -3.13122 0
M  V30 14983 N 1442.63 1.56409 0.193394 0
M  V30 14984 C 1443.9 1.71559 0.93951 0
M  V30 14985 C 1444.28 0.635478 2.01308 0
M  V30 14986 O 1443.63 -0.353267 2.25753 0
M  V30 14987 C 1443.84 3.13948 1.52438 0
M  V30 14988 C 1445.19 3.74234 2.00585 0
M  V30 14989 O 1446.21 3.17088 1.62277 0
M  V30 14990 O 1445.07 4.74529 2.71081 0
M  V30 14991 H 1442.17 0.69979 0.440707 0
M  V30 14992 H 1444.71 1.68711 0.182957 0
M  V30 14993 H 1443.48 3.84033 0.750613 0
M  V30 14994 H 1443.11 3.21032 2.34572 0
M  V30 14995 N 1444.1 -0.461169 1.50702 0
M  V30 14996 C 1445.03 -1.56576 1.73223 0
M  V30 14997 C 1446.01 -1.59855 0.581401 0
M  V30 14998 O 1447.2 -1.75964 0.821602 0
M  V30 14999 C 1444.33 -2.94835 1.83548 0
M  V30 15000 C 1443.28 -3.06421 2.98815 0
M  V30 15001 C 1442.61 -4.46425 2.94293 0
M  V30 15002 C 1443.91 -2.82714 4.3917 0
M  V30 15003 H 1445.6 -1.37982 2.65709 0
M  V30 15004 H 1443.15 -0.662362 1.27862 0
M  V30 15005 H 1445.1 -3.72047 1.97887 0
M  V30 15006 H 1443.83 -3.14608 0.876906 0
M  V30 15007 H 1442.49 -2.31644 2.84142 0
M  V30 15008 H 1442.13 -4.63131 1.96262 0
M  V30 15009 H 1441.83 -4.55111 3.71682 0
M  V30 15010 H 1443.36 -5.25644 3.10695 0
M  V30 15011 H 1444.77 -3.4967 4.54317 0
M  V30 15012 H 1443.17 -3.02835 5.18084 0
M  V30 15013 H 1444.24 -1.78492 4.50853 0
M  V30 15014 N 1445.58 -1.40446 -0.715026 0
M  V30 15015 C 1446.49 -1.43074 -1.85922 0
M  V30 15016 C 1447.51 -0.323294 -1.7097 0
M  V30 15017 O 1448.68 -0.567966 -1.93226 0
M  V30 15018 C 1445.75 -1.29206 -3.21725 0
M  V30 15019 C 1444.81 -2.50097 -3.48927 0
M  V30 15020 C 1444.04 -2.36881 -4.7825 0
M  V30 15021 O 1444.27 -1.38292 -5.53382 0
M  V30 15022 O 1443.2 -3.26266 -5.058 0
M  V30 15023 H 1447.03 -2.39565 -1.86661 0
M  V30 15024 H 1444.61 -1.21775 -0.865522 0
M  V30 15025 H 1446.49 -1.23681 -4.02841 0
M  V30 15026 H 1445.17 -0.358207 -3.21712 0
M  V30 15027 H 1444.07 -2.61199 -2.67817 0
M  V30 15028 H 1445.41 -3.42244 -3.53737 0
M  V30 15029 N 1447.06 0.947303 -1.25952 0
M  V30 15030 C 1447.97 2.07878 -1.08738 0
M  V30 15031 C 1448.99 1.73985 -0.0225212 0
M  V30 15032 O 1450.16 2.00139 -0.224984 0
M  V30 15033 C 1447.23 3.39231 -0.715756 0
M  V30 15034 C 1446.29 3.86945 -1.85935 0
M  V30 15035 C 1445.52 5.1203 -1.50537 0
M  V30 15036 O 1445.74 5.68965 -0.404323 0
M  V30 15037 O 1444.68 5.54634 -2.33805 0
M  V30 15038 H 1448.5 2.25305 -2.03645 0
M  V30 15039 H 1446.09 1.06321 -1.04958 0
M  V30 15040 H 1447.97 4.18167 -0.520962 0
M  V30 15041 H 1446.65 3.23057 0.203978 0
M  V30 15042 H 1445.55 3.08981 -2.10906 0
M  V30 15043 H 1446.89 4.0763 -2.75859 0
M  V30 15044 N 1448.54 1.07657 1.15099 0
M  V30 15045 C 1449.79 0.800025 1.85591 0
M  V30 15046 C 1450.11 -0.675973 1.82909 0
M  V30 15047 O 1449.38 -1.48971 1.27218 0
M  V30 15048 H 1447.96 0.292958 0.687157 0
M  V30 15049 H 1450.62 1.36096 1.39513 0
M  V30 15050 H 1449.72 1.13733 2.90639 0
M  V30 15051 N 1450.02 -1.31994 0.861122 0
M  V30 15052 C 1450.93 -2.32495 0.313555 0
M  V30 15053 C 1451.94 -1.64331 -0.571966 0
M  V30 15054 O 1453.12 -1.9582 -0.470794 0
M  V30 15055 C 1450.18 -3.43311 -0.483603 0
M  V30 15056 C 1449.24 -4.27153 0.428825 0
M  V30 15057 C 1448.48 -5.32676 -0.330383 0
M  V30 15058 O 1448.7 -5.48665 -1.55957 0
M  V30 15059 O 1447.63 -6.01116 0.307174 0
M  V30 15060 H 1451.46 -2.81234 1.14636 0
M  V30 15061 H 1449.05 -1.35734 0.624239 0
M  V30 15062 H 1450.93 -4.10877 -0.935831 0
M  V30 15063 H 1449.6 -2.9675 -1.2931 0
M  V30 15064 H 1448.51 -3.62372 0.929366 0
M  V30 15065 H 1449.84 -4.77255 1.20368 0
M  V30 15066 N 1451.49 -0.619688 -1.44906 0
M  V30 15067 C 1452.72 -0.124598 -2.07025 0
M  V30 15068 C 1453.14 1.18698 -1.45919 0
M  V30 15069 O 1452.5 1.72552 -0.556366 0
M  V30 15070 C 1452.55 -0.0112238 -3.60598 0
M  V30 15071 O 1451.65 1.03582 -3.9918 0
M  V30 15072 H 1451 -0.0795631 -0.659216 0
M  V30 15073 H 1453.53 -0.853127 -1.85965 0
M  V30 15074 H 1453.54 0.183079 -4.07589 0
M  V30 15075 H 1452.21 -0.968849 -4.04458 0
M  V30 15076 H 1450.79 0.817008 -3.6384 0
M  V30 15077 N 1452.97 1.53444 -0.359552 0
M  V30 15078 C 1453.88 2.29257 0.497834 0
M  V30 15079 C 1454.9 1.34987 1.09793 0
M  V30 15080 O 1456.07 1.68039 1.11017 0
M  V30 15081 C 1453.14 3.06258 1.62502 0
M  V30 15082 C 1452.2 4.16183 1.05308 0
M  V30 15083 C 1451.43 4.89503 2.12655 0
M  V30 15084 O 1451.66 4.6263 3.33661 0
M  V30 15085 O 1450.59 5.75578 1.76051 0
M  V30 15086 H 1454.42 3.03467 -0.118925 0
M  V30 15087 H 1452 1.48884 -0.124111 0
M  V30 15088 H 1453.88 3.5436 2.2805 0
M  V30 15089 H 1452.56 2.3489 2.22729 0
M  V30 15090 H 1451.47 3.72348 0.361679 0
M  V30 15091 H 1452.8 4.897 0.49545 0
M  V30 15092 N 1454.45 0.0885642 1.57351 0
M  V30 15093 C 1455.69 -0.580127 1.95995 0
M  V30 15094 C 1456.05 -1.65754 0.969003 0
M  V30 15095 O 1457.26 -2.38297 1.2437 0
M  V30 15096 C 1455.53 -1.12689 3.3917 0
M  V30 15097 S 1457.09 -1.80836 3.99805 0
M  V30 15098 H 1453.9 -0.189492 0.685284 0
M  V30 15099 H 1456.51 0.166414 1.9479 0
M  V30 15100 H 1455.21 -0.331139 4.09062 0
M  V30 15101 H 1454.74 -1.90941 3.43955 0
M  V30 15102 H 1456.76 -3.09211 3.88076 0
M  V30 15103 N 1455.93 -1.56509 -0.185096 0
M  V30 15104 C 1457.18 -1.804 -0.902158 0
M  V30 15105 C 1457.49 -0.663496 -1.84003 0
M  V30 15106 O 1458.7 -0.786963 -2.59844 0
M  V30 15107 C 1457.15 -3.19608 -1.65466 0
M  V30 15108 C 1456.76 -4.41487 -0.761109 0
M  V30 15109 C 1458.5 -3.52801 -2.36076 0
M  V30 15110 C 1456.41 -5.71717 -1.51305 0
M  V30 15111 H 1455.34 -0.67268 -0.340614 0
M  V30 15112 H 1457.99 -1.82842 -0.155273 0
M  V30 15113 H 1456.37 -3.11443 -2.44579 0
M  V30 15114 H 1457.55 -4.60799 -0.00791878 0
M  V30 15115 H 1455.86 -4.16072 -0.165344 0
M  V30 15116 H 1458.46 -4.47339 -2.92902 0
M  V30 15117 H 1458.8 -2.77021 -3.10749 0
M  V30 15118 H 1459.34 -3.62457 -1.63919 0
M  V30 15119 H 1456.08 -6.5049 -0.808907 0
M  V30 15120 H 1455.6 -5.56406 -2.23992 0
M  V30 15121 H 1457.27 -6.13188 -2.0642 0
M  V30 15122 N 1457.41 0.45317 -1.50944 0
M  V30 15123 C 1458.63 1.23136 -1.6689 0
M  V30 15124 C 1459.06 1.84639 -0.359185 0
M  V30 15125 O 1458.41 1.68106 0.678983 0
M  V30 15126 C 1458.46 2.30275 -2.77499 0
M  V30 15127 O 1457.57 3.35371 -2.39999 0
M  V30 15128 H 1456.91 0.361475 -0.556984 0
M  V30 15129 H 1459.44 0.537174 -1.97422 0
M  V30 15130 H 1459.45 2.75309 -3.01113 0
M  V30 15131 H 1458.12 1.84885 -3.72546 0
M  V30 15132 H 1456.7 2.95924 -2.26899 0
M  V30 15133 N 1458.88 1.40823 0.707568 0
M  V30 15134 C 1459.79 1.44058 1.85161 0
M  V30 15135 C 1460.81 0.332357 1.70796 0
M  V30 15136 O 1461.99 0.578205 1.92922 0
M  V30 15137 C 1459.05 1.3091 3.21035 0
M  V30 15138 C 1458.11 2.51944 3.47595 0
M  V30 15139 C 1457.35 2.39414 4.76987 0
M  V30 15140 O 1457.57 1.41224 5.52641 0
M  V30 15141 O 1456.5 3.28944 5.04063 0
M  V30 15142 H 1460.33 2.40551 1.85388 0
M  V30 15143 H 1457.91 1.22232 0.859052 0
M  V30 15144 H 1459.8 1.25816 4.02179 0
M  V30 15145 H 1458.47 0.375263 3.21517 0
M  V30 15146 H 1457.38 2.62615 2.66428 0
M  V30 15147 H 1458.71 3.44115 3.51917 0
M  V30 15148 N 1460.36 -0.94061 1.26453 0
M  V30 15149 C 1461.59 -1.72123 1.1481 0
M  V30 15150 C 1462.01 -1.86456 -0.296604 0
M  V30 15151 O 1461.36 -1.37234 -1.20304 0
M  V30 15152 C 1461.41 -3.1277 1.81266 0
M  V30 15153 O 1461.13 -2.99122 3.2009 0
M  V30 15154 C 1462.64 -4.07045 1.75584 0
M  V30 15155 H 1459.86 -0.538908 0.399774 0
M  V30 15156 H 1462.4 -1.17913 1.67083 0
M  V30 15157 H 1460.55 -3.6388 1.32928 0
M  V30 15158 H 1460.97 -3.87946 3.52984 0
M  V30 15159 H 1462.44 -5.03292 2.26719 0
M  V30 15160 H 1462.92 -4.33217 0.722466 0
M  V30 15161 H 1463.53 -3.61855 2.23475 0
M  V30 15162 N 1461.84 -1.08266 -1.14527 0
M  V30 15163 C 1463.07 -0.832994 -1.89937 0
M  V30 15164 C 1463.49 0.608985 -1.77969 0
M  V30 15165 O 1462.85 1.42657 -1.11887 0
M  V30 15166 C 1462.9 -1.25782 -3.37952 0
M  V30 15167 O 1462 -0.408853 -4.10368 0
M  V30 15168 H 1461.34 -0.30267 -0.591005 0
M  V30 15169 H 1463.87 -1.44371 -1.44977 0
M  V30 15170 H 1463.88 -1.23804 -3.88763 0
M  V30 15171 H 1462.56 -2.30804 -3.4598 0
M  V30 15172 H 1461.13 -0.49192 -3.69641 0
M  V30 15173 N 1463.32 1.31536 -0.86811 0
M  V30 15174 C 1464.55 2.00952 -0.492529 0
M  V30 15175 C 1464.96 1.65174 0.914487 0
M  V30 15176 O 1464.32 0.880002 1.59882 0
M  V30 15177 C 1464.37 3.55829 -0.637798 0
M  V30 15178 O 1464.09 3.90326 -1.9894 0
M  V30 15179 C 1465.59 4.42519 -0.262986 0
M  V30 15180 H 1462.81 0.642913 -0.192105 0
M  V30 15181 H 1465.36 1.6781 -1.16876 0
M  V30 15182 H 1463.51 3.87399 -0.0091406 0
M  V30 15183 H 1463.93 4.85043 -1.99583 0
M  V30 15184 H 1465.4 5.50433 -0.415591 0
M  V30 15185 H 1465.88 4.31895 0.797705 0
M  V30 15186 H 1466.48 4.16363 -0.867268 0
M  V30 15187 N 1464.8 0.627364 1.44575 0
M  V30 15188 C 1465.71 -0.0811184 2.3446 0
M  V30 15189 C 1466.72 -0.839668 1.52399 0
M  V30 15190 O 1467.9 -0.792784 1.8514 0
M  V30 15191 C 1464.96 -1.05296 3.30323 0
M  V30 15192 C 1464.03 -0.294201 4.28291 0
M  V30 15193 C 1463.26 -1.21975 5.19575 0
M  V30 15194 O 1463.48 -2.45834 5.14706 0
M  V30 15195 O 1462.42 -0.70611 5.97744 0
M  V30 15196 H 1466.24 0.658067 2.96485 0
M  V30 15197 H 1463.83 0.387565 1.44285 0
M  V30 15198 H 1465.71 -1.61218 3.89341 0
M  V30 15199 H 1464.38 -1.77283 2.70837 0
M  V30 15200 H 1463.29 0.307969 3.7283 0
M  V30 15201 H 1464.62 0.385567 4.90687 0
M  V30 15202 N 1466.28 -1.53251 0.367684 0
M  V30 15203 C 1467.21 -2.23396 -0.512539 0
M  V30 15204 C 1468.22 -1.2488 -1.04446 0
M  V30 15205 O 1469.41 -1.5109 -0.950477 0
M  V30 15206 C 1466.51 -2.91971 -1.72064 0
M  V30 15207 C 1465.68 -4.17011 -1.31986 0
M  V30 15208 C 1464.74 -4.68779 -2.39025 0
M  V30 15209 O 1463.77 -5.32405 -2.01328 0
M  V30 15210 N 1464.97 -4.46773 -3.7064 0
M  V30 15211 H 1467.73 -2.9957 0.0883152 0
M  V30 15212 H 1465.3 -1.60746 0.192966 0
M  V30 15213 H 1467.29 -3.23511 -2.43152 0
M  V30 15214 H 1465.86 -2.19237 -2.22831 0
M  V30 15215 H 1465.08 -3.91751 -0.438732 0
M  V30 15216 H 1466.37 -4.98298 -1.02842 0
M  V30 15217 H 1465.76 -3.95938 -4.04042 0
M  V30 15218 H 1464.32 -4.82857 -4.37827 0
M  V30 15219 N 1467.75 -0.0969077 -1.57302 0
M  V30 15220 C 1469 0.567212 -1.94706 0
M  V30 15221 C 1469.33 1.67721 -0.978937 0
M  V30 15222 O 1468.61 1.94496 -0.0123016 0
M  V30 15223 C 1468.89 1.12069 -3.42217 0
M  V30 15224 C 1468.74 0.015615 -4.49797 0
M  V30 15225 C 1470.06 2.0185 -3.91081 0
M  V30 15226 H 1467.18 0.204716 -0.707997 0
M  V30 15227 H 1469.82 -0.167984 -1.89256 0
M  V30 15228 H 1467.97 1.74723 -3.46993 0
M  V30 15229 H 1469.65 -0.61871 -4.57132 0
M  V30 15230 H 1467.89 -0.650529 -4.28895 0
M  V30 15231 H 1468.56 0.443724 -5.50214 0
M  V30 15232 H 1471.04 1.49098 -3.8847 0
M  V30 15233 H 1469.91 2.37502 -4.94858 0
M  V30 15234 H 1470.17 2.93659 -3.3048 0
M  V30 15235 N 1469.23 1.56605 0.176793 0
M  V30 15236 C 1470.51 1.72546 0.921261 0
M  V30 15237 C 1470.89 0.656794 2.00623 0
M  V30 15238 O 1470.24 -0.329303 2.26115 0
M  V30 15239 C 1470.45 3.15548 1.491 0
M  V30 15240 C 1471.79 3.7634 1.96604 0
M  V30 15241 O 1472.82 3.18791 1.58905 0
M  V30 15242 O 1471.68 4.77377 2.66033 0
M  V30 15243 H 1468.77 0.704425 0.43326 0
M  V30 15244 H 1471.32 1.68895 0.165052 0
M  V30 15245 H 1470.09 3.84808 0.709839 0
M  V30 15246 H 1469.71 3.23502 2.31154 0
M  V30 15247 N 1470.71 -0.445159 1.51182 0
M  V30 15248 C 1471.96 -1.19701 1.63705 0
M  V30 15249 C 1472.29 -1.91047 0.348511 0
M  V30 15250 O 1471.56 -1.83264 -0.651497 0
M  V30 15251 C 1471.85 -2.22021 2.83511 0
M  V30 15252 C 1471.7 -1.54809 4.2232 0
M  V30 15253 C 1473.02 -3.23083 2.9884 0
M  V30 15254 H 1470.14 -0.433818 0.595795 0
M  V30 15255 H 1472.78 -0.487276 1.83645 0
M  V30 15256 H 1470.93 -2.82551 2.66641 0
M  V30 15257 H 1472.6 -0.976774 4.5084 0
M  V30 15258 H 1470.84 -0.850596 4.25379 0
M  V30 15259 H 1471.52 -2.29289 5.02126 0
M  V30 15260 H 1473.99 -2.72601 3.14369 0
M  V30 15261 H 1472.87 -3.91978 3.84246 0
M  V30 15262 H 1473.13 -3.88732 2.1057 0
M  V30 15263 N 1472.19 -1.41197 -0.700089 0
M  V30 15264 C 1473.41 -1.43856 -1.494 0
M  V30 15265 C 1473.84 -0.0441877 -1.88048 0
M  V30 15266 O 1473.2 0.951503 -1.54325 0
M  V30 15267 C 1473.24 -2.34913 -2.73584 0
M  V30 15268 O 1472.35 -1.80305 -3.70896 0
M  V30 15269 H 1471.69 -0.488412 -0.449833 0
M  V30 15270 H 1474.22 -1.85606 -0.860911 0
M  V30 15271 H 1474.23 -2.50633 -3.21943 0
M  V30 15272 H 1472.9 -3.36229 -2.44791 0
M  V30 15273 H 1471.48 -1.74012 -3.29809 0
M  V30 15274 N 1473.67 0.933891 -1.2695 0
M  V30 15275 C 1474.62 2.01966 -1.05801 0
M  V30 15276 C 1475.6 1.60896 0.0119868 0
M  V30 15277 O 1476.79 1.75799 -0.205827 0
M  V30 15278 C 1473.92 3.36073 -0.700695 0
M  V30 15279 C 1473.01 3.83606 -1.80852 0
M  V30 15280 N 1473.4 4.03713 -3.04712 0
M  V30 15281 C 1471.7 4.12586 -1.69378 0
M  V30 15282 C 1472.4 4.43199 -3.76762 0
M  V30 15283 N 1471.37 4.50319 -3.0449 0
M  V30 15284 H 1475.17 2.15534 -1.99806 0
M  V30 15285 H 1472.69 1.12027 -1.17574 0
M  V30 15286 H 1474.69 4.13513 -0.530316 0
M  V30 15287 H 1473.35 3.23872 0.231801 0
M  V30 15288 H 1474.36 3.90196 -3.4054 0
M  V30 15289 H 1471.03 4.09132 -0.831695 0
M  V30 15290 H 1472.42 4.66887 -4.83184 0
M  V30 15291 N 1475.14 1.08871 1.13951 0
M  V30 15292 C 1476.05 0.734869 2.22793 0
M  V30 15293 C 1477.07 -0.260699 1.72036 0
M  V30 15294 O 1478.25 -0.103461 2.01134 0
M  V30 15295 C 1475.31 0.154599 3.46355 0
M  V30 15296 C 1474.37 1.20539 4.1203 0
M  V30 15297 C 1473.6 0.652712 5.29694 0
M  V30 15298 O 1473.83 -0.526264 5.67967 0
M  V30 15299 O 1472.76 1.40503 5.85271 0
M  V30 15300 H 1476.59 1.64297 2.55422 0
M  V30 15301 H 1474.17 0.862716 1.21974 0
M  V30 15302 H 1476.05 -0.165962 4.21073 0
M  V30 15303 H 1474.73 -0.726592 3.1544 0
M  V30 15304 H 1473.64 1.57855 3.39164 0
M  V30 15305 H 1474.97 2.05902 4.47063 0
M  V30 15306 N 1476.62 -1.31073 0.875073 0
M  V30 15307 C 1477.87 -1.95791 0.484661 0
M  V30 15308 C 1478.18 -1.69907 -0.969074 0
M  V30 15309 O 1479.39 -2.28527 -1.46587 0
M  V30 15310 C 1477.85 -3.50532 0.815804 0
M  V30 15311 C 1477.45 -3.85249 2.28664 0
M  V30 15312 C 1479.2 -4.21615 0.494111 0
M  V30 15313 C 1477.1 -5.33124 2.55993 0
M  V30 15314 H 1476.03 -0.732806 0.177516 0
M  V30 15315 H 1478.69 -1.49169 1.06868 0
M  V30 15316 H 1477.07 -3.95673 0.16098 0
M  V30 15317 H 1478.24 -3.51051 2.98496 0
M  V30 15318 H 1476.56 -3.27244 2.57488 0
M  V30 15319 H 1479.15 -5.30417 0.675456 0
M  V30 15320 H 1479.5 -4.12437 -0.565815 0
M  V30 15321 H 1480.03 -3.82125 1.1057 0
M  V30 15322 H 1476.77 -5.47343 3.60688 0
M  V30 15323 H 1476.29 -5.68657 1.90761 0
M  V30 15324 H 1477.97 -6.00446 2.40984 0
M  V30 15325 N 1478.1 -0.635022 -1.4424 0
M  V30 15326 C 1479.33 -0.146549 -2.06882 0
M  V30 15327 C 1479.75 1.17143 -1.4717 0
M  V30 15328 O 1479.11 1.71952 -0.574636 0
M  V30 15329 C 1479.16 -0.0494694 -3.60566 0
M  V30 15330 O 1478.26 0.993423 -4.00256 0
M  V30 15331 H 1477.6 -0.0865505 -0.658335 0
M  V30 15332 H 1480.13 -0.872803 -1.85049 0
M  V30 15333 H 1480.14 0.139839 -4.0776 0
M  V30 15334 H 1478.82 -1.01169 -4.03407 0
M  V30 15335 H 1477.39 0.778372 -3.64686 0
M  V30 15336 N 1479.58 1.53054 -0.375806 0
M  V30 15337 C 1480.86 1.93761 0.26757 0
M  V30 15338 C 1481.24 1.31019 1.65521 0
M  V30 15339 O 1480.58 0.473138 2.23548 0
M  V30 15340 C 1480.79 3.47643 0.307505 0
M  V30 15341 C 1482.14 4.21114 0.542951 0
M  V30 15342 O 1483.17 3.54077 0.388285 0
M  V30 15343 O 1482.02 5.39929 0.8449 0
M  V30 15344 H 1479.12 0.810805 0.16286 0
M  V30 15345 H 1481.66 1.64179 -0.429334 0
M  V30 15346 H 1480.44 3.85608 -0.665001 0
M  V30 15347 H 1480.06 3.83488 1.04988 0
M  V30 15348 N 1481.06 0.105248 1.57248 0
M  V30 15349 C 1482.33 -0.598871 1.86207 0
M  V30 15350 C 1482.71 -1.85698 1.00396 0
M  V30 15351 O 1482.06 -2.28363 0.0791093 0
M  V30 15352 C 1482.27 -0.904522 3.37075 0
M  V30 15353 C 1483.62 -1.26357 4.05363 0
M  V30 15354 O 1484.64 -0.99522 3.42014 0
M  V30 15355 O 1483.5 -1.76659 5.17159 0
M  V30 15356 H 1480.6 -0.300727 0.770384 0
M  V30 15357 H 1483.14 0.138713 1.69132 0
M  V30 15358 H 1481.91 -0.0123974 3.91298 0
M  V30 15359 H 1481.54 -1.69774 3.59531 0
M  V30 15360 N 1482.53 -1.56697 -0.168486 0
M  V30 15361 C 1483.44 -1.99866 -1.22845 0
M  V30 15362 C 1484.46 -0.910491 -1.48277 0
M  V30 15363 O 1485.64 -1.21834 -1.6037 0
M  V30 15364 C 1482.7 -2.35227 -2.54694 0
M  V30 15365 C 1481.76 -3.57886 -2.37099 0
M  V30 15366 C 1481 -3.91551 -3.62661 0
M  V30 15367 O 1481.22 -3.26148 -4.67957 0
M  V30 15368 O 1480.15 -4.8489 -3.56603 0
M  V30 15369 H 1483.98 -2.90305 -0.892015 0
M  V30 15370 H 1481.56 -1.44602 -0.375571 0
M  V30 15371 H 1483.45 -2.58928 -3.32467 0
M  V30 15372 H 1482.12 -1.4795 -2.87911 0
M  V30 15373 H 1481.03 -3.394 -1.57348 0
M  V30 15374 H 1482.36 -4.45714 -2.08806 0
M  V30 15375 N 1484.01 0.437135 -1.51416 0
M  V30 15376 C 1485.26 1.18523 -1.653 0
M  V30 15377 C 1485.61 1.88911 -0.364764 0
M  V30 15378 O 1484.91 1.80615 0.63943 0
M  V30 15379 C 1485.1 2.22795 -2.79458 0
M  V30 15380 C 1484.93 1.62642 -4.19259 0
M  V30 15381 C 1483.7 1.41126 -4.85192 0
M  V30 15382 C 1485.9 1.10255 -5.02343 0
M  V30 15383 N 1483.88 0.765717 -6.09106 0
M  V30 15384 C 1485.25 0.582285 -6.1726 0
M  V30 15385 C 1487.31 0.994325 -4.8787 0
M  V30 15386 C 1486.01 -0.0355648 -7.19291 0
M  V30 15387 C 1488.03 0.390369 -5.9011 0
M  V30 15388 C 1487.4 -0.11935 -7.04299 0
M  V30 15389 H 1483.5 0.42137 -0.658765 0
M  V30 15390 H 1486.08 0.4818 -1.88645 0
M  V30 15391 H 1484.25 2.90526 -2.57777 0
M  V30 15392 H 1485.98 2.89765 -2.82521 0
M  V30 15393 H 1482.74 1.67305 -4.43064 0
M  V30 15394 H 1483.16 0.460381 -6.75433 0
M  V30 15395 H 1487.8 1.37428 -3.99842 0
M  V30 15396 H 1485.52 -0.427644 -8.06968 0
M  V30 15397 H 1489.11 0.308533 -5.80981 0
M  V30 15398 H 1487.99 -0.579344 -7.82057 0
M  V30 15399 N 1485.49 1.41566 0.692592 0
M  V30 15400 C 1486.45 1.43369 1.78824 0
M  V30 15401 C 1487.45 0.323867 1.57505 0
M  V30 15402 O 1488.64 0.583885 1.64123 0
M  V30 15403 C 1485.78 1.24798 3.17235 0
M  V30 15404 H 1486.97 2.40906 1.78617 0
M  V30 15405 H 1484.52 1.27752 0.900508 0
M  V30 15406 H 1485.26 0.281129 3.23079 0
M  V30 15407 H 1485.04 2.05212 3.34111 0
M  V30 15408 H 1486.53 1.28902 3.97208 0
M  V30 15409 N 1486.97 -0.927146 1.27443 0
M  V30 15410 C 1487.93 -2.00938 1.10257 0
M  V30 15411 C 1488.93 -1.60733 0.0463898 0
M  V30 15412 O 1490.12 -1.71752 0.291029 0
M  V30 15413 C 1487.25 -3.34047 0.680115 0
M  V30 15414 H 1488.45 -2.17615 2.06358 0
M  V30 15415 H 1486 -1.10802 1.10239 0
M  V30 15416 H 1486.73 -3.23069 -0.282259 0
M  V30 15417 H 1486.52 -3.64585 1.44291 0
M  V30 15418 H 1488.01 -4.13523 0.582126 0
M  V30 15419 N 1488.45 -1.09474 -1.13372 0
M  V30 15420 C 1489.41 -0.738173 -2.16988 0
M  V30 15421 C 1490.41 0.232488 -1.5911 0
M  V30 15422 O 1491.6 0.0106093 -1.74197 0
M  V30 15423 C 1488.73 -0.091724 -3.40777 0
M  V30 15424 H 1489.92 -1.65582 -2.50045 0
M  V30 15425 H 1487.48 -0.893994 -1.28209 0
M  V30 15426 H 1488.21 0.837129 -3.13309 0
M  V30 15427 H 1488 -0.790161 -3.84056 0
M  V30 15428 H 1489.49 0.142334 -4.17357 0
M  V30 15429 N 1489.92 1.30607 -0.882012 0
M  V30 15430 C 1491.17 1.96547 -0.499703 0
M  V30 15431 C 1491.5 1.69484 0.948098 0
M  V30 15432 O 1490.78 0.997929 1.66948 0
M  V30 15433 C 1491.06 3.51735 -0.771662 0
M  V30 15434 C 1490.91 3.88326 -2.26987 0
M  V30 15435 C 1492.23 4.39411 -0.246178 0
M  V30 15436 H 1489.35 0.713912 -0.183026 0
M  V30 15437 H 1491.99 1.5453 -1.10546 0
M  V30 15438 H 1490.14 3.87655 -0.256092 0
M  V30 15439 H 1491.82 3.62444 -2.85362 0
M  V30 15440 H 1490.06 3.36501 -2.7377 0
M  V30 15441 H 1490.73 4.96574 -2.41078 0
M  V30 15442 H 1493.21 4.10382 -0.687419 0
M  V30 15443 H 1492.08 5.4692 -0.465817 0
M  V30 15444 H 1492.34 4.33804 0.852452 0
M  V30 15445 N 1491.4 0.642663 1.43901 0
M  V30 15446 C 1492.68 0.0821715 1.95427 0
M  V30 15447 C 1493.06 -1.3951 1.58431 0
M  V30 15448 O 1492.41 -2.11531 0.864118 0
M  V30 15449 C 1492.62 0.317229 3.47555 0
M  V30 15450 C 1493.97 0.216547 4.24047 0
M  V30 15451 O 1494.99 0.249216 3.55327 0
M  V30 15452 O 1493.85 0.131269 5.46342 0
M  V30 15453 H 1490.94 -0.0156936 0.826851 0
M  V30 15454 H 1493.49 0.715168 1.53894 0
M  V30 15455 H 1492.26 1.34184 3.67574 0
M  V30 15456 H 1491.88 -0.349348 3.96062 0
M  V30 15457 N 1492.88 -1.52852 0.383918 0
M  V30 15458 C 1493.79 -2.3002 -0.461298 0
M  V30 15459 C 1494.81 -1.36717 -1.07631 0
M  V30 15460 O 1495.98 -1.69784 -1.08329 0
M  V30 15461 C 1493.05 -3.08804 -1.57609 0
M  V30 15462 C 1492.11 -4.17806 -0.986737 0
M  V30 15463 C 1491.34 -4.92825 -2.04841 0
M  V30 15464 O 1491.57 -4.67879 -3.26259 0
M  V30 15465 O 1490.5 -5.78306 -1.66871 0
M  V30 15466 H 1494.33 -3.03239 0.167189 0
M  V30 15467 H 1491.91 -1.48667 0.147781 0
M  V30 15468 H 1493.79 -3.57943 -2.22384 0
M  V30 15469 H 1492.47 -2.38404 -2.18964 0
M  V30 15470 H 1491.37 -3.72876 -0.302396 0
M  V30 15471 H 1492.71 -4.90426 -0.417481 0
M  V30 15472 N 1494.36 -0.113586 -1.5719 0
M  V30 15473 C 1495.32 0.824258 -2.13866 0
M  V30 15474 C 1496.32 1.19831 -1.07224 0
M  V30 15475 O 1497.51 1.12471 -1.33026 0
M  V30 15476 C 1494.64 2.11391 -2.67445 0
M  V30 15477 H 1495.84 0.331803 -2.98059 0
M  V30 15478 H 1493.39 0.135599 -1.55711 0
M  V30 15479 H 1494.13 2.65079 -1.86824 0
M  V30 15480 H 1493.91 1.85523 -3.45433 0
M  V30 15481 H 1495.4 2.78443 -3.11222 0
M  V30 15482 N 1495.84 1.56784 0.160173 0
M  V30 15483 C 1497.08 1.82621 0.874982 0
M  V30 15484 C 1497.41 0.692427 1.81757 0
M  V30 15485 O 1496.67 -0.319535 1.93074 0
M  V30 15486 C 1496.97 3.14703 1.69402 0
M  V30 15487 C 1496.63 4.41839 0.899373 0
M  V30 15488 C 1495.29 4.7637 0.680099 0
M  V30 15489 C 1497.65 5.20072 0.342747 0
M  V30 15490 C 1494.97 5.86603 -0.106723 0
M  V30 15491 C 1497.33 6.3113 -0.431044 0
M  V30 15492 C 1495.99 6.64219 -0.661017 0
M  V30 15493 H 1495.26 0.668256 0.320178 0
M  V30 15494 H 1497.91 1.90993 0.139305 0
M  V30 15495 H 1496.21 3.01723 2.49941 0
M  V30 15496 H 1497.91 3.31906 2.25032 0
M  V30 15497 H 1494.5 4.14761 1.08033 0
M  V30 15498 H 1498.68 4.9378 0.499467 0
M  V30 15499 H 1493.94 6.1069 -0.294528 0
M  V30 15500 H 1498.11 6.9095 -0.869557 0
M  V30 15501 H 1495.74 7.49473 -1.27257 0
M  V30 15502 N 1497.32 -0.429099 1.51646 0
M  V30 15503 C 1498.73 -1.00868 1.57107 0
M  V30 15504 C 1499.08 -1.9209 0.399483 0
M  V30 15505 O 1498.2 -2.10948 -0.482709 0
M  V30 15506 C 1498.8 -1.83612 2.84732 0
M  V30 15507 C 1497.36 -2.36605 2.92737 0
M  V30 15508 C 1496.5 -1.1604 2.51853 0
M  V30 15509 H 1499.45 -0.21006 1.57304 0
M  V30 15510 H 1499.48 -2.69149 2.68959 0
M  V30 15511 H 1498.99 -1.17192 3.69983 0
M  V30 15512 H 1497.09 -3.06455 2.11934 0
M  V30 15513 H 1497.2 -2.68838 3.96564 0
M  V30 15514 H 1495.57 -1.50826 2.0524 0
M  V30 15515 H 1496.35 -0.51218 3.39458 0
M  V30 15516 N 1498.79 -1.41931 -0.685074 0
M  V30 15517 C 1499.72 -1.47385 -1.81107 0
M  V30 15518 C 1500.7 -0.331433 -1.6684 0
M  V30 15519 O 1501.89 -0.544331 -1.86415 0
M  V30 15520 C 1499.02 -1.36555 -3.19327 0
M  V30 15521 C 1497.97 -2.48718 -3.48315 0
M  V30 15522 C 1497.3 -2.2295 -4.86002 0
M  V30 15523 C 1498.6 -3.91047 -3.46237 0
M  V30 15524 H 1500.29 -2.41624 -1.768 0
M  V30 15525 H 1497.84 -1.16297 -0.849178 0
M  V30 15526 H 1499.79 -1.38981 -3.97822 0
M  V30 15527 H 1498.52 -0.388063 -3.24286 0
M  V30 15528 H 1497.18 -2.45592 -2.72176 0
M  V30 15529 H 1496.82 -1.23518 -4.87598 0
M  V30 15530 H 1496.52 -2.98116 -5.0636 0
M  V30 15531 H 1498.05 -2.27108 -5.66793 0
M  V30 15532 H 1499.46 -3.95831 -4.14718 0
M  V30 15533 H 1497.86 -4.65981 -3.7813 0
M  V30 15534 H 1498.93 -4.1845 -2.45006 0
M  V30 15535 N 1500.27 0.920374 -1.27933 0
M  V30 15536 C 1501.55 1.64765 -1.05413 0
M  V30 15537 C 1501.93 2.07106 0.408717 0
M  V30 15538 O 1501.28 1.81094 1.39346 0
M  V30 15539 C 1501.49 2.84417 -2.02257 0
M  V30 15540 C 1502.83 3.5559 -2.32036 0
M  V30 15541 O 1503.86 2.94555 -2.00289 0
M  V30 15542 O 1502.72 4.65574 -2.86187 0
M  V30 15543 H 1499.81 0.722503 -0.402391 0
M  V30 15544 H 1502.36 0.970263 -1.39226 0
M  V30 15545 H 1501.13 2.50174 -3.0088 0
M  V30 15546 H 1500.75 3.59872 -1.6905 0
M  V30 15547 N 1501.75 1.10074 1.1279 0
M  V30 15548 C 1502.66 0.758458 2.22001 0
M  V30 15549 C 1503.68 -0.242438 1.72303 0
M  V30 15550 O 1504.85 -0.0821223 2.01233 0
M  V30 15551 C 1501.92 0.191326 3.46172 0
M  V30 15552 C 1500.98 1.24902 4.10729 0
M  V30 15553 C 1500.21 0.708857 5.28972 0
M  V30 15554 O 1500.43 -0.465993 5.68493 0
M  V30 15555 O 1499.37 1.46703 5.83748 0
M  V30 15556 H 1503.19 1.66997 2.53665 0
M  V30 15557 H 1500.78 0.875604 1.21052 0
M  V30 15558 H 1502.66 -0.121292 4.21225 0
M  V30 15559 H 1501.34 -0.693094 3.16193 0
M  V30 15560 H 1500.24 1.61444 3.37471 0
M  V30 15561 H 1501.58 2.10632 4.44854 0
M  V30 15562 N 1503.23 -1.30138 0.888926 0
M  V30 15563 C 1504.19 -2.26299 0.363504 0
M  V30 15564 C 1505.19 -1.52951 -0.496244 0
M  V30 15565 O 1506.38 -1.71548 -0.302834 0
M  V30 15566 C 1503.51 -3.37482 -0.481544 0
M  V30 15567 H 1504.71 -2.7429 1.21265 0
M  V30 15568 H 1502.26 -1.41395 0.666124 0
M  V30 15569 H 1502.99 -2.94814 -1.35112 0
M  V30 15570 H 1502.78 -3.9187 0.134344 0
M  V30 15571 H 1504.27 -4.09048 -0.840816 0
M  V30 15572 N 1504.71 -0.650285 -1.43559 0
M  V30 15573 C 1505.62 0.0438076 -2.34559 0
M  V30 15574 C 1506.63 0.815316 -1.53716 0
M  V30 15575 O 1507.81 0.76323 -1.86378 0
M  V30 15576 C 1504.87 1.00028 -3.31957 0
M  V30 15577 C 1503.93 0.226027 -4.28705 0
M  V30 15578 C 1503.17 1.13694 -5.21449 0
M  V30 15579 O 1503.39 2.37614 -5.18551 0
M  V30 15580 O 1502.32 0.610924 -5.98792 0
M  V30 15581 H 1506.15 -0.705152 -2.954 0
M  V30 15582 H 1503.73 -0.410471 -1.43651 0
M  V30 15583 H 1505.62 1.55004 -3.91857 0
M  V30 15584 H 1504.29 1.72952 -2.73623 0
M  V30 15585 H 1503.2 -0.367244 -3.72293 0
M  V30 15586 H 1504.53 -0.463582 -4.90012 0
M  V30 15587 N 1506.18 1.52647 -0.392018 0
M  V30 15588 C 1507.46 1.94034 0.247004 0
M  V30 15589 C 1507.84 1.32767 1.64122 0
M  V30 15590 O 1507.19 0.496822 2.23033 0
M  V30 15591 C 1507.4 3.47949 0.270615 0
M  V30 15592 C 1508.75 4.21666 0.498256 0
M  V30 15593 O 1509.77 3.54469 0.350708 0
M  V30 15594 O 1508.63 5.40795 0.787586 0
M  V30 15595 H 1505.72 0.812487 0.154251 0
M  V30 15596 H 1508.27 1.63715 -0.446723 0
M  V30 15597 H 1507.04 3.84881 -0.705862 0
M  V30 15598 H 1506.66 3.8458 1.00915 0
M  V30 15599 N 1507.66 0.121921 1.57128 0
M  V30 15600 C 1508.91 -0.536164 1.95584 0
M  V30 15601 C 1509.24 -1.66143 1.0055 0
M  V30 15602 O 1508.52 -1.94452 0.0432427 0
M  V30 15603 C 1508.8 -1.0661 3.43957 0
M  V30 15604 C 1508.65 0.0559458 4.49765 0
M  V30 15605 C 1509.97 -1.95603 3.94243 0
M  V30 15606 H 1507.09 -0.193427 0.711165 0
M  V30 15607 H 1509.73 0.198072 1.88965 0
M  V30 15608 H 1507.88 -1.69181 3.49729 0
M  V30 15609 H 1509.55 0.691357 4.5609 0
M  V30 15610 H 1507.8 0.71868 4.27805 0
M  V30 15611 H 1508.47 -0.356133 5.5085 0
M  V30 15612 H 1510.94 -1.42899 3.90793 0
M  V30 15613 H 1509.82 -2.29599 4.98573 0
M  V30 15614 H 1510.08 -2.88364 3.3511 0
M  V30 15615 N 1509.14 -1.56867 -0.151857 0
M  V30 15616 C 1510.37 -1.87237 -0.880343 0
M  V30 15617 C 1510.78 -0.709565 -1.74959 0
M  V30 15618 O 1510.14 0.320818 -1.79658 0
M  V30 15619 C 1510.19 -3.16811 -1.74107 0
M  V30 15620 O 1509.91 -4.28611 -0.906858 0
M  V30 15621 C 1511.41 -3.60662 -2.57755 0
M  V30 15622 H 1508.63 -0.62074 -0.254799 0
M  V30 15623 H 1511.18 -2.03977 -0.146104 0
M  V30 15624 H 1509.33 -3.01838 -2.42842 0
M  V30 15625 H 1509.75 -5.02673 -1.49733 0
M  V30 15626 H 1511.22 -4.54176 -3.13732 0
M  V30 15627 H 1511.7 -2.85716 -3.33561 0
M  V30 15628 H 1512.3 -3.78312 -1.94319 0
M  V30 15629 N 1510.62 0.421051 -1.51871 0
M  V30 15630 C 1511.53 1.5371 -1.7723 0
M  V30 15631 C 1512.54 1.61109 -0.657256 0
M  V30 15632 O 1513.72 1.78047 -0.941343 0
M  V30 15633 C 1510.79 2.89555 -1.9068 0
M  V30 15634 C 1509.85 2.9214 -3.14567 0
M  V30 15635 C 1509.08 4.21505 -3.27367 0
M  V30 15636 O 1509.3 5.14764 -2.45712 0
M  V30 15637 O 1508.24 4.30706 -4.20448 0
M  V30 15638 H 1512.06 1.35221 -2.71935 0
M  V30 15639 H 1509.65 0.605712 -1.3657 0
M  V30 15640 H 1511.53 3.70147 -2.01418 0
M  V30 15641 H 1510.2 3.08137 -0.991627 0
M  V30 15642 H 1509.11 2.10444 -3.09296 0
M  V30 15643 H 1510.44 2.78505 -4.05827 0
M  V30 15644 N 1512.1 1.42293 0.677538 0
M  V30 15645 C 1513.32 1.46214 1.47092 0
M  V30 15646 C 1513.75 0.0740989 1.87954 0
M  V30 15647 O 1513.1 -0.926831 1.55819 0
M  V30 15648 C 1513.15 2.39236 2.69812 0
M  V30 15649 O 1512.26 1.86183 3.6798 0
M  V30 15650 H 1511.6 0.495507 0.442006 0
M  V30 15651 H 1514.13 1.86952 0.831274 0
M  V30 15652 H 1514.14 2.55723 3.17915 0
M  V30 15653 H 1512.81 3.40081 2.39411 0
M  V30 15654 H 1511.39 1.79237 3.26999 0
M  V30 15655 N 1513.57 -0.913576 1.28419 0
M  V30 15656 C 1514.82 -1.66519 1.15755 0
M  V30 15657 C 1515.15 -1.91974 -0.293166 0
M  V30 15658 O 1514.43 -1.52025 -1.21321 0
M  V30 15659 C 1514.71 -3.02299 1.95672 0
M  V30 15660 C 1514.56 -2.83996 3.48807 0
M  V30 15661 C 1515.88 -4.02838 1.77226 0
M  V30 15662 H 1513 -0.604309 0.421877 0
M  V30 15663 H 1515.64 -1.05919 1.57737 0
M  V30 15664 H 1513.79 -3.54025 1.59995 0
M  V30 15665 H 1515.47 -2.39279 3.9439 0
M  V30 15666 H 1513.71 -2.19052 3.74431 0
M  V30 15667 H 1514.38 -3.80419 3.99982 0
M  V30 15668 H 1516.86 -3.60174 2.0836 0
M  V30 15669 H 1515.73 -4.95806 2.35515 0
M  V30 15670 H 1515.99 -4.36135 0.723804 0
M  V30 15671 N 1515.05 -1.1067 -1.12204 0
M  V30 15672 C 1515.98 -0.715581 -2.17743 0
M  V30 15673 C 1517 0.248892 -1.60886 0
M  V30 15674 O 1518.19 0.0329917 -1.7847 0
M  V30 15675 C 1515.29 -0.0356388 -3.38881 0
M  V30 15676 C 1514.46 -1.0249 -4.25223 0
M  V30 15677 C 1513.52 -0.375998 -5.24855 0
M  V30 15678 O 1512.54 -1.02753 -5.59849 0
M  V30 15679 N 1513.75 0.864525 -5.74026 0
M  V30 15680 H 1516.51 -1.62362 -2.5191 0
M  V30 15681 H 1514.07 -0.995851 -1.2765 0
M  V30 15682 H 1516.06 0.41 -4.02618 0
M  V30 15683 H 1514.63 0.77485 -3.02845 0
M  V30 15684 H 1513.85 -1.64874 -3.58065 0
M  V30 15685 H 1515.14 -1.69446 -4.79756 0
M  V30 15686 H 1514.54 1.41317 -5.47764 0
M  V30 15687 H 1513.1 1.25327 -6.39638 0
M  V30 15688 N 1516.53 1.29665 -0.895815 0
M  V30 15689 C 1517.44 2.31582 -0.375086 0
M  V30 15690 C 1518.46 1.65789 0.528196 0
M  V30 15691 O 1519.63 1.96999 0.41871 0
M  V30 15692 C 1516.7 3.44472 0.39241 0
M  V30 15693 C 1515.76 4.25866 -0.541926 0
M  V30 15694 C 1514.99 5.33365 0.189037 0
M  V30 15695 O 1515.21 5.52607 1.41355 0
M  V30 15696 O 1514.15 6.0009 -0.466441 0
M  V30 15697 H 1517.97 2.78095 -1.22052 0
M  V30 15698 H 1515.56 1.34031 -0.660007 0
M  V30 15699 H 1517.44 4.13214 0.826565 0
M  V30 15700 H 1516.12 3.00074 1.21397 0
M  V30 15701 H 1515.02 3.59781 -1.02512 0
M  V30 15702 H 1516.36 4.73896 -1.32979 0
M  V30 15703 N 1518.01 0.657889 1.43212 0
M  V30 15704 C 1518.92 -0.0313677 2.34579 0
M  V30 15705 C 1519.93 -0.807153 1.54146 0
M  V30 15706 O 1521.11 -0.753335 1.8678 0
M  V30 15707 C 1518.18 -0.982659 3.32483 0
M  V30 15708 C 1517.24 -0.203288 4.28818 0
M  V30 15709 C 1516.47 -1.10927 5.22045 0
M  V30 15710 O 1516.69 -2.34861 5.19804 0
M  V30 15711 O 1515.63 -0.57916 5.99107 0
M  V30 15712 H 1519.45 0.720808 2.95022 0
M  V30 15713 H 1517.04 0.418083 1.43431 0
M  V30 15714 H 1518.92 -1.52923 3.92673 0
M  V30 15715 H 1517.59 -1.71498 2.74536 0
M  V30 15716 H 1516.5 0.386982 3.72093 0
M  V30 15717 H 1517.83 0.489562 4.89759 0
M  V30 15718 N 1519.49 -1.52437 0.400108 0
M  V30 15719 C 1520.45 -2.2536 -0.417808 0
M  V30 15720 C 1521.45 -1.27393 -0.981204 0
M  V30 15721 O 1522.64 -1.51406 -0.861503 0
M  V30 15722 C 1519.77 -3.01695 -1.58724 0
M  V30 15723 H 1520.96 -2.99086 0.220782 0
M  V30 15724 H 1518.52 -1.55555 0.152439 0
M  V30 15725 H 1519.25 -2.32295 -2.26295 0
M  V30 15726 H 1519.04 -3.73611 -1.18984 0
M  V30 15727 H 1520.53 -3.57033 -2.16604 0
M  V30 15728 N 1520.96 -0.130252 -1.57061 0
M  V30 15729 C 1521.9 0.846442 -2.12998 0
M  V30 15730 C 1522.91 1.22229 -1.07536 0
M  V30 15731 O 1524.1 1.16928 -1.34871 0
M  V30 15732 C 1521.2 2.14481 -2.62395 0
M  V30 15733 C 1520.37 1.93892 -3.92077 0
M  V30 15734 C 1519.43 3.07562 -4.26957 0
M  V30 15735 O 1518.46 2.79983 -4.95578 0
M  V30 15736 N 1519.66 4.34297 -3.85184 0
M  V30 15737 H 1522.42 0.368471 -2.97426 0
M  V30 15738 H 1519.98 0.0538355 -1.6181 0
M  V30 15739 H 1521.98 2.8954 -2.82752 0
M  V30 15740 H 1520.55 2.53592 -1.82784 0
M  V30 15741 H 1519.77 1.02962 -3.80516 0
M  V30 15742 H 1521.05 1.77454 -4.76852 0
M  V30 15743 H 1520.45 4.59575 -3.29859 0
M  V30 15744 H 1519.01 5.06191 -4.10626 0
M  V30 15745 N 1522.44 1.56945 0.143535 0
M  V30 15746 C 1523.85 1.72949 0.703249 0
M  V30 15747 C 1524.21 0.745193 1.81497 0
M  V30 15748 O 1523.33 -0.0874144 2.16223 0
M  V30 15749 C 1523.93 3.1359 1.28244 0
M  V30 15750 C 1522.48 3.31184 1.78869 0
M  V30 15751 C 1521.63 2.6887 0.678531 0
M  V30 15752 H 1524.58 1.58487 -0.0821664 0
M  V30 15753 H 1524.6 3.13782 2.15224 0
M  V30 15754 H 1524.12 3.85206 0.473087 0
M  V30 15755 H 1522.22 2.64571 2.6236 0
M  V30 15756 H 1522.33 4.39163 1.91502 0
M  V30 15757 H 1520.69 2.29432 1.10603 0
M  V30 15758 H 1521.48 3.43092 -0.119437 0
M  V30 15759 N 1523.92 -0.412991 1.52093 0
M  V30 15760 C 1525.17 -1.16202 1.66208 0
M  V30 15761 C 1525.5 -1.90265 0.388957 0
M  V30 15762 O 1524.78 -1.84605 -0.612477 0
M  V30 15763 C 1525.06 -2.15958 2.88157 0
M  V30 15764 C 1524.91 -1.45817 4.25509 0
M  V30 15765 C 1526.23 -3.16671 3.05626 0
M  V30 15766 H 1523.35 -0.421083 0.604862 0
M  V30 15767 H 1525.99 -0.448212 1.84638 0
M  V30 15768 H 1524.14 -2.76831 2.72574 0
M  V30 15769 H 1525.81 -0.880925 4.52811 0
M  V30 15770 H 1524.06 -0.760175 4.27088 0
M  V30 15771 H 1524.73 -2.18587 5.06877 0
M  V30 15772 H 1527.2 -2.65871 3.20081 0
M  V30 15773 H 1526.08 -3.83739 3.92474 0
M  V30 15774 H 1526.34 -3.84178 2.18769 0
M  V30 15775 N 1525.4 -1.4265 -0.669982 0
M  V30 15776 C 1526.31 -1.48916 -1.81276 0
M  V30 15777 C 1527.33 -0.377523 -1.69855 0
M  V30 15778 O 1528.5 -0.629151 -1.91321 0
M  V30 15779 C 1525.57 -1.39376 -3.17451 0
M  V30 15780 C 1524.63 -2.61072 -3.40793 0
M  V30 15781 C 1523.86 -2.51976 -4.70472 0
M  V30 15782 O 1524.08 -1.55827 -5.48702 0
M  V30 15783 O 1523.02 -3.42193 -4.95164 0
M  V30 15784 H 1526.84 -2.45382 -1.78945 0
M  V30 15785 H 1524.43 -1.24467 -0.826342 0
M  V30 15786 H 1526.31 -1.36435 -3.98702 0
M  V30 15787 H 1524.99 -0.460376 -3.20409 0
M  V30 15788 H 1523.89 -2.69587 -2.59372 0
M  V30 15789 H 1525.23 -3.53325 -3.42669 0
M  V30 15790 N 1526.88 0.906753 -1.28902 0
M  V30 15791 C 1528.12 1.65903 -1.16636 0
M  V30 15792 C 1528.46 1.92127 0.282981 0
M  V30 15793 O 1527.73 1.52666 1.20513 0
M  V30 15794 C 1528.01 3.01257 -1.97272 0
M  V30 15795 C 1527.87 2.82143 -3.50308 0
M  V30 15796 C 1529.19 4.01893 -1.7936 0
M  V30 15797 H 1526.31 0.602063 -0.425076 0
M  V30 15798 H 1528.95 1.05081 -1.58297 0
M  V30 15799 H 1527.1 3.53172 -1.61871 0
M  V30 15800 H 1528.77 2.37184 -3.95653 0
M  V30 15801 H 1527.01 2.17063 -3.75588 0
M  V30 15802 H 1527.68 3.78293 -4.01993 0
M  V30 15803 H 1530.16 3.59064 -2.10267 0
M  V30 15804 H 1529.04 4.9455 -2.38141 0
M  V30 15805 H 1529.3 4.35745 -0.746923 0
M  V30 15806 N 1528.36 1.11264 1.11616 0
M  V30 15807 C 1529.77 0.876713 1.64835 0
M  V30 15808 C 1530.12 -0.591384 1.87075 0
M  V30 15809 O 1529.24 -1.45304 1.60361 0
M  V30 15810 C 1529.84 1.58496 2.9944 0
M  V30 15811 C 1528.4 1.39551 3.49575 0
M  V30 15812 C 1527.54 1.62881 2.24422 0
M  V30 15813 H 1530.49 1.26915 0.952804 0
M  V30 15814 H 1530.52 1.02891 3.66325 0
M  V30 15815 H 1530.03 2.65344 2.83221 0
M  V30 15816 H 1528.13 0.349059 3.70961 0
M  V30 15817 H 1528.24 2.14334 4.28483 0
M  V30 15818 H 1526.61 1.05208 2.31955 0
M  V30 15819 H 1527.39 2.70999 2.10748 0
M  V30 15820 N 1529.83 -1.29188 0.902679 0
M  V30 15821 C 1531.08 -1.95727 0.530909 0
M  V30 15822 C 1531.41 -1.70971 -0.921014 0
M  V30 15823 O 1530.69 -1.02436 -1.65339 0
M  V30 15824 C 1530.97 -3.50463 0.827523 0
M  V30 15825 C 1530.82 -3.84665 2.33137 0
M  V30 15826 C 1532.14 -4.38964 0.316053 0
M  V30 15827 H 1529.26 -0.71091 0.194361 0
M  V30 15828 H 1531.9 -1.52752 1.1299 0
M  V30 15829 H 1530.05 -3.87199 0.317732 0
M  V30 15830 H 1531.73 -3.57859 2.91093 0
M  V30 15831 H 1529.97 -3.32102 2.79088 0
M  V30 15832 H 1530.64 -4.92676 2.48947 0
M  V30 15833 H 1533.12 -4.09237 0.75262 0
M  V30 15834 H 1531.99 -5.4611 0.552769 0
M  V30 15835 H 1532.25 -4.35105 -0.783329 0
M  V30 15836 N 1531.31 -0.665475 -1.42861 0
M  V30 15837 C 1532.22 0.018927 -2.34592 0
M  V30 15838 C 1533.24 0.798967 -1.54572 0
M  V30 15839 O 1534.41 0.743419 -1.87177 0
M  V30 15840 C 1531.48 0.965013 -3.32999 0
M  V30 15841 C 1530.54 0.180544 -4.2892 0
M  V30 15842 C 1529.77 1.08157 -5.22626 0
M  V30 15843 O 1530 2.32101 -5.21043 0
M  V30 15844 O 1528.93 0.54738 -5.99406 0
M  V30 15845 H 1532.76 -0.736444 -2.94636 0
M  V30 15846 H 1530.34 -0.425684 -1.43207 0
M  V30 15847 H 1532.22 1.50839 -3.93479 0
M  V30 15848 H 1530.9 1.7004 -2.75442 0
M  V30 15849 H 1529.8 -0.40671 -3.71883 0
M  V30 15850 H 1531.14 -0.515529 -4.89493 0
M  V30 15851 N 1532.79 1.52222 -0.408187 0
M  V30 15852 C 1534.07 1.94285 0.22641 0
M  V30 15853 C 1534.45 1.34501 1.62705 0
M  V30 15854 O 1533.79 0.52045 2.22494 0
M  V30 15855 C 1534 3.48217 0.233695 0
M  V30 15856 C 1535.35 4.22171 0.453504 0
M  V30 15857 O 1536.38 3.54821 0.313093 0
M  V30 15858 O 1535.24 5.416 0.730183 0
M  V30 15859 H 1532.33 0.814078 0.145625 0
M  V30 15860 H 1534.88 1.63232 -0.464062 0
M  V30 15861 H 1533.65 3.84111 -0.746644 0
M  V30 15862 H 1533.27 3.85629 0.968305 0
M  V30 15863 N 1534.27 0.138579 1.5699 0
M  V30 15864 C 1535.52 -0.514545 1.95026 0
M  V30 15865 C 1535.83 -1.66565 1.02544 0
M  V30 15866 O 1537.04 -2.38284 1.30126 0
M  V30 15867 C 1535.49 -0.966746 3.46673 0
M  V30 15868 C 1535.1 0.156969 4.47725 0
M  V30 15869 C 1536.84 -1.59014 3.93592 0
M  V30 15870 C 1534.75 -0.313031 5.90571 0
M  V30 15871 H 1533.68 -0.195991 0.728082 0
M  V30 15872 H 1536.33 0.221575 1.82157 0
M  V30 15873 H 1534.71 -1.75788 3.54845 0
M  V30 15874 H 1535.89 0.933728 4.51241 0
M  V30 15875 H 1534.2 0.688238 4.10673 0
M  V30 15876 H 1536.8 -1.95326 4.97747 0
M  V30 15877 H 1537.14 -2.47595 3.34668 0
M  V30 15878 H 1537.68 -0.864061 3.88302 0
M  V30 15879 H 1534.41 0.5372 6.53295 0
M  V30 15880 H 1533.93 -1.05585 5.90434 0
M  V30 15881 H 1535.61 -0.767826 6.42428 0
M  V30 15882 N 1535.75 -1.57019 -0.13521 0
M  V30 15883 C 1536.71 -1.98229 -1.15056 0
M  V30 15884 C 1537.71 -0.870295 -1.35213 0
M  V30 15885 O 1538.9 -1.13668 -1.32005 0
M  V30 15886 C 1536.03 -2.30844 -2.50846 0
M  V30 15887 H 1537.22 -2.89123 -0.796744 0
M  V30 15888 H 1534.78 -1.51636 -0.378962 0
M  V30 15889 H 1535.51 -1.42779 -2.91178 0
M  V30 15890 H 1535.3 -3.11931 -2.37574 0
M  V30 15891 H 1536.79 -2.63524 -3.23952 0
M  V30 15892 N 1537.22 0.404919 -1.52309 0
M  V30 15893 C 1538.16 1.51276 -1.72186 0
M  V30 15894 C 1539.17 1.5125 -0.602276 0
M  V30 15895 O 1540.36 1.55439 -0.877549 0
M  V30 15896 C 1537.46 2.90162 -1.75099 0
M  V30 15897 C 1536.63 3.14333 -3.04161 0
M  V30 15898 C 1535.69 4.33113 -2.9883 0
M  V30 15899 O 1534.72 4.30189 -3.72728 0
M  V30 15900 N 1535.92 5.38451 -2.16911 0
M  V30 15901 H 1538.68 1.34618 -2.67765 0
M  V30 15902 H 1536.24 0.594264 -1.50599 0
M  V30 15903 H 1538.24 3.67697 -1.69058 0
M  V30 15904 H 1536.81 3.00257 -0.869756 0
M  V30 15905 H 1536.03 2.24803 -3.23817 0
M  V30 15906 H 1537.31 3.27327 -3.89531 0
M  V30 15907 H 1536.71 5.43676 -1.56309 0
M  V30 15908 H 1535.27 6.14715 -2.16724 0
M  V30 15909 N 1538.7 1.43003 0.662408 0
M  V30 15910 C 1539.95 1.44346 1.4245 0
M  V30 15911 C 1540.28 0.064094 1.94094 0
M  V30 15912 O 1539.56 -0.913633 1.71706 0
M  V30 15913 C 1539.84 2.47822 2.61259 0
M  V30 15914 C 1539.69 3.94998 2.15166 0
M  V30 15915 C 1541.01 2.48139 3.63476 0
M  V30 15916 H 1538.13 0.525606 0.51663 0
M  V30 15917 H 1540.77 1.74495 0.751754 0
M  V30 15918 H 1538.92 2.22244 3.18653 0
M  V30 15919 H 1540.59 4.31601 1.62843 0
M  V30 15920 H 1538.84 4.0827 1.46622 0
M  V30 15921 H 1539.51 4.62998 3.00561 0
M  V30 15922 H 1541.98 2.70916 3.15823 0
M  V30 15923 H 1540.86 3.22498 4.44169 0
M  V30 15924 H 1541.12 1.51184 4.15447 0
M  V30 15925 N 1540.18 -0.899904 1.29381 0
M  V30 15926 C 1541.43 -1.65282 1.17515 0
M  V30 15927 C 1541.76 -1.92275 -0.272788 0
M  V30 15928 O 1541.03 -1.53303 -1.19701 0
M  V30 15929 C 1541.32 -3.00207 1.98867 0
M  V30 15930 C 1541.17 -2.80281 3.51799 0
M  V30 15931 C 1542.49 -4.00936 1.81489 0
M  V30 15932 H 1539.61 -0.5998 0.428263 0
M  V30 15933 H 1542.25 -1.04241 1.58852 0
M  V30 15934 H 1540.4 -3.52308 1.63741 0
M  V30 15935 H 1542.07 -2.35082 3.96905 0
M  V30 15936 H 1540.32 -2.15068 3.76733 0
M  V30 15937 H 1540.99 -3.76155 4.03994 0
M  V30 15938 H 1543.46 -3.57944 2.12169 0
M  V30 15939 H 1542.34 -4.9328 2.4076 0
M  V30 15940 H 1542.6 -4.35342 0.770021 0
M  V30 15941 N 1541.66 -1.11854 -1.11024 0
M  V30 15942 C 1542.91 -0.864814 -1.82219 0
M  V30 15943 C 1543.22 0.611349 -1.85801 0
M  V30 15944 O 1544.43 0.981475 -2.53139 0
M  V30 15945 C 1542.88 -1.49745 -3.27268 0
M  V30 15946 C 1542.49 -3.00796 -3.32003 0
M  V30 15947 C 1544.23 -1.32374 -4.03333 0
M  V30 15948 C 1542.14 -3.57023 -4.71475 0
M  V30 15949 H 1541.07 -0.319877 -0.682784 0
M  V30 15950 H 1543.72 -1.34431 -1.24903 0
M  V30 15951 H 1542.1 -0.94562 -3.84544 0
M  V30 15952 H 1543.28 -3.6242 -2.84585 0
M  V30 15953 H 1541.59 -3.17493 -2.6942 0
M  V30 15954 H 1544.19 -1.7181 -5.06345 0
M  V30 15955 H 1544.53 -0.26676 -4.15444 0
M  V30 15956 H 1545.07 -1.84444 -3.52456 0
M  V30 15957 H 1541.81 -4.62453 -4.64562 0
M  V30 15958 H 1541.33 -3.00172 -5.19285 0
M  V30 15959 H 1543 -3.5572 -5.40437 0
M  V30 15960 N 1543.14 1.28707 -0.909517 0
M  V30 15961 C 1544.1 2.25692 -0.39946 0
M  V30 15962 C 1545.1 1.53721 0.471848 0
M  V30 15963 O 1546.29 1.72008 0.275504 0
M  V30 15964 C 1543.42 3.38205 0.427793 0
M  V30 15965 H 1544.61 2.72326 -1.25613 0
M  V30 15966 H 1542.17 1.40317 -0.688535 0
M  V30 15967 H 1542.9 2.96926 1.30404 0
M  V30 15968 H 1542.69 3.91606 -0.19667 0
M  V30 15969 H 1544.18 4.10334 0.775634 0
M  V30 15970 N 1544.61 0.673042 1.42506 0
M  V30 15971 C 1545.89 0.123606 1.95209 0
M  V30 15972 C 1546.27 -1.36118 1.61354 0
M  V30 15973 O 1545.62 -2.0965 0.908793 0
M  V30 15974 C 1545.83 0.39088 3.46804 0
M  V30 15975 C 1547.18 0.306445 4.23493 0
M  V30 15976 O 1548.2 0.32453 3.54719 0
M  V30 15977 O 1547.06 0.247127 5.45941 0
M  V30 15978 H 1544.15 0.00184868 0.826998 0
M  V30 15979 H 1546.7 0.74765 1.52343 0
M  V30 15980 H 1545.47 1.41951 3.64645 0
M  V30 15981 H 1545.1 -0.265259 3.96714 0
M  V30 15982 N 1546.09 -1.52004 0.416254 0
M  V30 15983 C 1547.32 -2.06307 -0.156491 0
M  V30 15984 C 1547.74 -1.28567 -1.3826 0
M  V30 15985 O 1547.09 -0.339447 -1.79315 0
M  V30 15986 C 1547.14 -3.58028 -0.499824 0
M  V30 15987 O 1546.86 -4.32828 0.677602 0
M  V30 15988 C 1548.37 -4.28773 -1.12553 0
M  V30 15989 H 1545.59 -0.670778 -0.0172483 0
M  V30 15990 H 1548.13 -1.95826 0.589262 0
M  V30 15991 H 1546.28 -3.68493 -1.19547 0
M  V30 15992 H 1546.7 -5.23053 0.389302 0
M  V30 15993 H 1548.17 -5.36085 -1.31592 0
M  V30 15994 H 1548.65 -3.85706 -2.10066 0
M  V30 15995 H 1549.26 -4.22696 -0.469881 0
M  V30 15996 N 1547.57 -0.146903 -1.56914 0
M  V30 15997 C 1548.5 0.788924 -2.19769 0
M  V30 15998 C 1549.48 1.25712 -1.14589 0
M  V30 15999 O 1550.67 1.3147 -1.42931 0
M  V30 16000 C 1547.8 2.02824 -2.81921 0
M  V30 16001 C 1546.75 1.69683 -3.92927 0
M  V30 16002 C 1546.08 3.00877 -4.42015 0
M  V30 16003 C 1547.38 0.943559 -5.13706 0
M  V30 16004 H 1549.07 0.265076 -2.98224 0
M  V30 16005 H 1546.62 0.126057 -1.43447 0
M  V30 16006 H 1548.57 2.68773 -3.2456 0
M  V30 16007 H 1547.29 2.57581 -2.00797 0
M  V30 16008 H 1545.95 1.06112 -3.50907 0
M  V30 16009 H 1545.6 3.53625 -3.57713 0
M  V30 16010 H 1545.3 2.79466 -5.16888 0
M  V30 16011 H 1546.82 3.67897 -4.87323 0
M  V30 16012 H 1548.24 1.50513 -5.5319 0
M  V30 16013 H 1546.64 0.829387 -5.94341 0
M  V30 16014 H 1547.71 -0.0647228 -4.84857 0
M  V30 16015 N 1549.05 1.57088 0.126881 0
M  V30 16016 C 1549.98 1.96399 1.18153 0
M  V30 16017 C 1550.99 0.862288 1.38089 0
M  V30 16018 O 1552.18 1.14062 1.37303 0
M  V30 16019 C 1549.28 2.24026 2.54295 0
M  V30 16020 C 1548.46 3.5533 2.55068 0
M  V30 16021 C 1547.51 3.71261 3.72896 0
M  V30 16022 O 1546.54 4.43454 3.56844 0
M  V30 16023 N 1547.74 3.09435 4.91152 0
M  V30 16024 H 1550.51 2.87476 0.847217 0
M  V30 16025 H 1548.07 1.58781 0.316242 0
M  V30 16026 H 1550.06 2.31906 3.31665 0
M  V30 16027 H 1548.63 1.39114 2.79939 0
M  V30 16028 H 1547.85 3.58708 1.63468 0
M  V30 16029 H 1549.14 4.41649 2.52634 0
M  V30 16030 H 1548.54 2.50736 5.07097 0
M  V30 16031 H 1547.09 3.22848 5.66226 0
M  V30 16032 N 1550.53 -0.396836 1.52522 0
M  V30 16033 C 1551.44 -1.50871 1.79653 0
M  V30 16034 C 1552.45 -1.60043 0.682804 0
M  V30 16035 O 1553.63 -1.76527 0.96955 0
M  V30 16036 C 1550.69 -2.86485 1.95263 0
M  V30 16037 C 1549.75 -2.87099 3.19175 0
M  V30 16038 C 1548.99 -4.16244 3.34031 0
M  V30 16039 O 1549.21 -5.1079 2.5387 0
M  V30 16040 O 1548.14 -4.23962 4.27247 0
M  V30 16041 H 1551.97 -1.30878 2.74052 0
M  V30 16042 H 1549.56 -0.583908 1.37517 0
M  V30 16043 H 1551.44 -3.66895 2.07282 0
M  V30 16044 H 1550.11 -3.0652 1.04052 0
M  V30 16045 H 1549.02 -2.05497 3.12605 0
M  V30 16046 H 1550.35 -2.72014 4.10206 0
M  V30 16047 N 1552.01 -1.43353 -0.654814 0
M  V30 16048 C 1553.23 -1.48322 -1.4425 0
M  V30 16049 C 1553.65 -0.100608 -1.88532 0
M  V30 16050 O 1553.01 0.888831 -1.59393 0
M  V30 16051 C 1553.06 -2.42769 -2.67853 0
M  V30 16052 O 1552.78 -3.75653 -2.25424 0
M  V30 16053 C 1554.28 -2.56964 -3.61226 0
M  V30 16054 H 1551.5 -0.503805 -0.443195 0
M  V30 16055 H 1554.04 -1.88078 -0.802916 0
M  V30 16056 H 1552.2 -2.06212 -3.27956 0
M  V30 16057 H 1552.61 -4.26427 -3.05386 0
M  V30 16058 H 1554.09 -3.27129 -4.44624 0
M  V30 16059 H 1554.56 -1.61404 -4.08467 0
M  V30 16060 H 1555.17 -2.94325 -3.07006 0
M  V30 16061 N 1553.48 0.89303 -1.29857 0
M  V30 16062 C 1554.89 1.45948 -1.16431 0
M  V30 16063 C 1555.25 1.94751 0.238051 0
M  V30 16064 O 1554.37 1.84302 1.1341 0
M  V30 16065 C 1554.97 2.6527 -2.10754 0
M  V30 16066 C 1553.52 3.1803 -2.0133 0
M  V30 16067 C 1552.67 1.90721 -2.01297 0
M  V30 16068 H 1555.62 0.70373 -1.42244 0
M  V30 16069 H 1555.64 3.41223 -1.68366 0
M  V30 16070 H 1555.16 2.2972 -3.1281 0
M  V30 16071 H 1553.26 3.58257 -1.02386 0
M  V30 16072 H 1553.37 3.81876 -2.89323 0
M  V30 16073 H 1551.73 2.0871 -1.45987 0
M  V30 16074 H 1552.52 1.5744 -3.0507 0
M  V30 16075 N 1554.96 1.12442 1.10429 0
M  V30 16076 C 1556.21 0.881062 1.82661 0
M  V30 16077 C 1556.54 -0.591636 1.84968 0
M  V30 16078 O 1555.82 -1.43734 1.31037 0
M  V30 16079 C 1556.1 1.45658 3.29326 0
M  V30 16080 C 1555.95 2.99766 3.35352 0
M  V30 16081 C 1557.27 1.1162 4.2571 0
M  V30 16082 H 1554.39 0.321516 0.663172 0
M  V30 16083 H 1557.03 1.39102 1.29424 0
M  V30 16084 H 1555.18 1.02286 3.74793 0
M  V30 16085 H 1556.85 3.51818 2.98365 0
M  V30 16086 H 1555.1 3.35292 2.75249 0
M  V30 16087 H 1555.77 3.35128 4.38627 0
M  V30 16088 H 1558.24 1.49081 3.88477 0
M  V30 16089 H 1557.12 1.54552 5.26692 0
M  V30 16090 H 1557.38 0.0284093 4.42091 0
M  V30 16091 N 1556.44 -1.28223 0.91633 0
M  V30 16092 C 1557.69 -1.95153 0.551639 0
M  V30 16093 C 1558.02 -1.71938 -0.902829 0
M  V30 16094 O 1557.29 -1.04184 -1.64243 0
M  V30 16095 C 1557.58 -3.49565 0.864647 0
M  V30 16096 C 1557.43 -3.82171 2.37203 0
M  V30 16097 C 1558.75 -4.38604 0.362593 0
M  V30 16098 H 1555.87 -0.708808 0.20189 0
M  V30 16099 H 1558.51 -1.51545 1.14604 0
M  V30 16100 H 1556.66 -3.8684 0.358782 0
M  V30 16101 H 1558.33 -3.54751 2.94872 0
M  V30 16102 H 1556.57 -3.29124 2.82595 0
M  V30 16103 H 1557.25 -4.90007 2.54159 0
M  V30 16104 H 1559.72 -4.08416 0.795983 0
M  V30 16105 H 1558.6 -5.45493 0.61066 0
M  V30 16106 H 1558.86 -4.35911 -0.737137 0
M  V30 16107 N 1557.92 -0.68059 -1.42147 0
M  V30 16108 C 1559.14 -0.212293 -2.06311 0
M  V30 16109 C 1559.57 1.12402 -1.50822 0
M  V30 16110 O 1558.93 1.70037 -0.629051 0
M  V30 16111 C 1558.97 -0.164156 -3.60226 0
M  V30 16112 O 1558.08 0.865582 -4.03214 0
M  V30 16113 H 1557.42 -0.107451 -0.655248 0
M  V30 16114 H 1559.95 -0.931233 -1.82179 0
M  V30 16115 H 1559.96 0.0100422 -4.07999 0
M  V30 16116 H 1558.63 -1.13952 -3.99985 0
M  V30 16117 H 1557.21 0.661955 -3.66978 0
M  V30 16118 N 1559.4 1.51781 -0.424309 0
M  V30 16119 C 1560.67 1.94514 0.205791 0
M  V30 16120 C 1561.05 1.36219 1.61269 0
M  V30 16121 O 1560.4 0.544019 2.21929 0
M  V30 16122 C 1560.61 3.48445 0.196749 0
M  V30 16123 C 1561.96 4.22628 0.408702 0
M  V30 16124 O 1562.98 3.55133 0.275441 0
M  V30 16125 O 1561.84 5.42344 0.672698 0
M  V30 16126 H 1558.94 0.815576 0.136983 0
M  V30 16127 H 1561.48 1.6273 -0.481349 0
M  V30 16128 H 1560.25 3.83297 -0.787342 0
M  V30 16129 H 1559.88 3.86634 0.92735 0
M  V30 16130 N 1560.87 0.155222 1.56834 0
M  V30 16131 C 1562.1 -0.500542 2.00754 0
M  V30 16132 C 1562.52 -1.57878 1.03538 0
M  V30 16133 O 1561.87 -1.82469 0.0336651 0
M  V30 16134 C 1561.92 -1.09366 3.4456 0
M  V30 16135 O 1561.65 -0.0584788 4.38061 0
M  V30 16136 C 1563.15 -1.82923 4.038 0
M  V30 16137 H 1560.37 -0.129589 0.658368 0
M  V30 16138 H 1562.91 0.252223 2.02939 0
M  V30 16139 H 1561.07 -1.797 3.43201 0
M  V30 16140 H 1561.48 -0.494125 5.22167 0
M  V30 16141 H 1562.95 -2.19703 5.06394 0
M  V30 16142 H 1563.43 -2.71823 3.44976 0
M  V30 16143 H 1564.04 -1.17268 4.08813 0
M  V30 16144 N 1562.35 -1.57153 -0.118549 0
M  V30 16145 C 1563.6 -1.8515 -0.82748 0
M  V30 16146 C 1563.93 -0.741026 -1.79506 0
M  V30 16147 O 1563.21 0.253095 -1.92846 0
M  V30 16148 C 1563.49 -3.23734 -1.57698 0
M  V30 16149 C 1563.34 -4.45381 -0.628967 0
M  V30 16150 C 1564.66 -3.59895 -2.53305 0
M  V30 16151 H 1561.78 -0.673459 -0.29937 0
M  V30 16152 H 1564.42 -1.89778 -0.0917198 0
M  V30 16153 H 1562.57 -3.19919 -2.20418 0
M  V30 16154 H 1564.24 -4.61299 -0.0105746 0
M  V30 16155 H 1562.49 -4.33759 0.059462 0
M  V30 16156 H 1563.16 -5.3902 -1.19004 0
M  V30 16157 H 1565.63 -3.64503 -2.0069 0
M  V30 16158 H 1564.51 -4.57839 -3.02778 0
M  V30 16159 H 1564.77 -2.87338 -3.3599 0
M  V30 16160 N 1563.83 0.388742 -1.5273 0
M  V30 16161 C 1564.74 1.49916 -1.8045 0
M  V30 16162 C 1565.76 1.59679 -0.691282 0
M  V30 16163 O 1566.93 1.7601 -0.978898 0
M  V30 16164 C 1564 2.85445 -1.96779 0
M  V30 16165 C 1563.06 2.85402 -3.20693 0
M  V30 16166 C 1562.29 4.14466 -3.36234 0
M  V30 16167 O 1562.51 5.09436 -2.56576 0
M  V30 16168 O 1561.45 4.2169 -4.29489 0
M  V30 16169 H 1565.27 1.29423 -2.74743 0
M  V30 16170 H 1562.86 0.576607 -1.37825 0
M  V30 16171 H 1564.74 3.65791 -2.09224 0
M  V30 16172 H 1563.42 3.05964 -1.05676 0
M  V30 16173 H 1562.32 2.03836 -3.1369 0
M  V30 16174 H 1563.66 2.69835 -4.11643 0
M  V30 16175 N 1565.31 1.43698 0.647203 0
M  V30 16176 C 1566.55 1.45849 1.40911 0
M  V30 16177 C 1566.89 0.0846767 1.94015 0
M  V30 16178 O 1566.16 -0.89537 1.72665 0
M  V30 16179 C 1566.44 2.50579 2.58616 0
M  V30 16180 C 1566.3 3.97258 2.10965 0
M  V30 16181 C 1567.62 2.51981 3.60824 0
M  V30 16182 H 1564.74 0.531056 0.511027 0
M  V30 16183 H 1567.38 1.75283 0.733204 0
M  V30 16184 H 1565.53 2.25611 3.16278 0
M  V30 16185 H 1567.2 4.33304 1.58257 0
M  V30 16186 H 1565.44 4.09802 1.42284 0
M  V30 16187 H 1566.11 4.6616 2.95633 0
M  V30 16188 H 1568.59 2.7425 3.12932 0
M  V30 16189 H 1567.47 3.27191 4.40723 0
M  V30 16190 H 1567.73 1.55582 4.1382 0
M  V30 16191 N 1566.79 -0.886131 1.30328 0
M  V30 16192 C 1568.2 -1.45328 1.17203 0
M  V30 16193 C 1568.55 -1.94874 -0.227719 0
M  V30 16194 O 1567.67 -1.84901 -1.12431 0
M  V30 16195 C 1568.27 -2.64149 2.12157 0
M  V30 16196 C 1566.83 -3.16958 2.03014 0
M  V30 16197 C 1565.97 -1.89651 2.02306 0
M  V30 16198 H 1568.93 -0.696177 1.42615 0
M  V30 16199 H 1568.95 -3.40325 1.70173 0
M  V30 16200 H 1568.46 -2.28058 3.14024 0
M  V30 16201 H 1566.56 -3.57709 1.04285 0
M  V30 16202 H 1566.67 -3.80336 2.91344 0
M  V30 16203 H 1565.04 -2.07933 1.47091 0
M  V30 16204 H 1565.82 -1.5582 3.05901 0
M  V30 16205 N 1568.26 -1.13026 -1.09832 0
M  V30 16206 C 1569.68 -0.902826 -1.6342 0
M  V30 16207 C 1570.03 0.561547 -1.87992 0
M  V30 16208 O 1569.15 1.42735 -1.62652 0
M  V30 16209 C 1569.75 -1.6324 -2.96881 0
M  V30 16210 C 1568.31 -1.45095 -3.4731 0
M  V30 16211 C 1567.45 -1.66431 -2.21802 0
M  V30 16212 H 1570.4 -1.28414 -0.932492 0
M  V30 16213 H 1570.42 -1.08706 -3.64641 0
M  V30 16214 H 1569.94 -2.69816 -2.78964 0
M  V30 16215 H 1568.04 -0.408031 -3.70359 0
M  V30 16216 H 1568.15 -2.21123 -4.25019 0
M  V30 16217 H 1566.51 -1.08885 -2.30252 0
M  V30 16218 H 1567.3 -2.74317 -2.0641 0
M  V30 16219 N 1569.74 1.27735 -0.923117 0
M  V30 16220 C 1570.67 2.26095 -0.375982 0
M  V30 16221 C 1571.69 1.55227 0.490763 0
M  V30 16222 O 1572.88 1.7589 0.304127 0
M  V30 16223 C 1569.98 3.35479 0.480342 0
M  V30 16224 C 1569.15 4.35866 -0.36605 0
M  V30 16225 C 1568.21 5.24466 0.42688 0
M  V30 16226 O 1567.23 5.68964 -0.163825 0
M  V30 16227 N 1568.44 5.54192 1.72777 0
M  V30 16228 H 1571.2 2.73679 -1.22147 0
M  V30 16229 H 1568.76 1.41314 -0.790056 0
M  V30 16230 H 1570.75 3.91693 1.01776 0
M  V30 16231 H 1569.32 2.87531 1.22657 0
M  V30 16232 H 1568.54 3.7898 -1.08479 0
M  V30 16233 H 1569.83 4.9995 -0.944849 0
M  V30 16234 H 1569.23 5.19888 2.23008 0
M  V30 16235 H 1567.79 6.13125 2.21181 0
M  V30 16236 N 1571.22 0.688118 1.41784 0
M  V30 16237 C 1572.47 0.216263 2.01644 0
M  V30 16238 C 1572.8 -1.17861 1.54345 0
M  V30 16239 O 1572.07 -1.794 0.751392 0
M  V30 16240 C 1572.36 0.265663 3.59119 0
M  V30 16241 C 1572.21 1.69694 4.16562 0
M  V30 16242 C 1573.53 -0.378713 4.38468 0
M  V30 16243 H 1570.65 0.0800582 0.732639 0
M  V30 16244 H 1573.29 0.875428 1.68631 0
M  V30 16245 H 1571.44 -0.295588 3.87374 0
M  V30 16246 H 1573.11 2.31146 3.9921 0
M  V30 16247 H 1571.36 2.23345 3.71886 0
M  V30 16248 H 1572.03 1.68309 5.25715 0
M  V30 16249 H 1574.5 0.0991969 4.15982 0
M  V30 16250 H 1573.38 -0.31357 5.48004 0
M  V30 16251 H 1573.64 -1.45832 4.17355 0
M  V30 16252 N 1572.7 -1.51554 0.432352 0
M  V30 16253 C 1573.94 -2.02344 -0.13598 0
M  V30 16254 C 1574.28 -1.31619 -1.42794 0
M  V30 16255 O 1573.55 -0.42957 -1.89697 0
M  V30 16256 C 1573.84 -3.58297 -0.359865 0
M  V30 16257 C 1573.69 -4.39645 0.950399 0
M  V30 16258 C 1575.01 -4.25297 -1.13184 0
M  V30 16259 H 1572.13 -0.735439 -0.0479461 0
M  V30 16260 H 1574.77 -1.81237 0.570373 0
M  V30 16261 H 1572.92 -3.76413 -0.961547 0
M  V30 16262 H 1574.59 -4.3319 1.58568 0
M  V30 16263 H 1572.83 -4.04928 1.55614 0
M  V30 16264 H 1573.5 -5.46911 0.747852 0
M  V30 16265 H 1575.98 -4.11421 -0.622231 0
M  V30 16266 H 1574.86 -5.34307 -1.25726 0
M  V30 16267 H 1575.12 -3.85818 -2.15862 0
M  V30 16268 N 1574.18 -0.163538 -1.56749 0
M  V30 16269 C 1575.12 0.769787 -2.17584 0
M  V30 16270 C 1576.09 1.23246 -1.11354 0
M  V30 16271 O 1577.28 1.30203 -1.3947 0
M  V30 16272 C 1574.42 1.99685 -2.81461 0
M  V30 16273 C 1573.53 1.57846 -4.0213 0
M  V30 16274 C 1572.67 2.75858 -4.53955 0
M  V30 16275 C 1571.71 2.30473 -5.67053 0
M  V30 16276 N 1570.84 3.41551 -6.13423 0
M  V30 16277 H 1575.68 0.244221 -2.96998 0
M  V30 16278 H 1573.22 0.108821 -1.46697 0
M  V30 16279 H 1575.18 2.71643 -3.16648 0
M  V30 16280 H 1573.81 2.49624 -2.04664 0
M  V30 16281 H 1572.86 0.755907 -3.72814 0
M  V30 16282 H 1574.17 1.20525 -4.8402 0
M  V30 16283 H 1573.33 3.55984 -4.91284 0
M  V30 16284 H 1572.06 3.16434 -3.71107 0
M  V30 16285 H 1571.07 1.48791 -5.29284 0
M  V30 16286 H 1572.29 1.90964 -6.51698 0
M  V30 16287 H 1570.24 3.81717 -5.33506 0
M  V30 16288 H 1570.16 3.08298 -6.90281 0
M  V30 16289 H 1571.43 4.21985 -6.554 0
M  V30 16290 N 1575.65 1.57214 0.110213 0
M  V30 16291 C 1576.58 2.04015 1.13579 0
M  V30 16292 C 1577.57 0.926215 1.42672 0
M  V30 16293 O 1578.75 1.19651 1.52962 0
M  V30 16294 C 1575.88 2.45187 2.45969 0
M  V30 16295 C 1574.83 3.60105 2.31319 0
M  V30 16296 C 1574.16 3.87205 3.68749 0
M  V30 16297 C 1575.46 4.91526 1.76635 0
M  V30 16298 H 1577.15 2.89944 0.746496 0
M  V30 16299 H 1574.7 1.39488 0.357642 0
M  V30 16300 H 1576.65 2.76534 3.17973 0
M  V30 16301 H 1575.38 1.56238 2.86805 0
M  V30 16302 H 1574.04 3.28981 1.61762 0
M  V30 16303 H 1573.68 2.95448 4.07087 0
M  V30 16304 H 1573.38 4.64563 3.59798 0
M  V30 16305 H 1574.91 4.21013 4.42245 0
M  V30 16306 H 1576.32 5.21351 2.38465 0
M  V30 16307 H 1574.72 5.72944 1.78482 0
M  V30 16308 H 1575.79 4.79456 0.724573 0
M  V30 16309 N 1577.13 -0.380637 1.52934 0
M  V30 16310 C 1578.54 -0.958182 1.60237 0
M  V30 16311 C 1578.89 -1.90722 0.460393 0
M  V30 16312 O 1578.02 -2.12376 -0.415354 0
M  V30 16313 C 1578.61 -1.7446 2.90429 0
M  V30 16314 C 1577.17 -2.27172 3.00116 0
M  V30 16315 C 1576.32 -1.07969 2.55417 0
M  V30 16316 H 1579.27 -0.159908 1.57892 0
M  V30 16317 H 1579.29 -2.60456 2.77385 0
M  V30 16318 H 1578.8 -1.05362 3.73524 0
M  V30 16319 H 1576.91 -2.99557 2.21577 0
M  V30 16320 H 1577.02 -2.56086 4.04916 0
M  V30 16321 H 1575.38 -1.4422 2.09935 0
M  V30 16322 H 1576.17 -0.403925 3.40915 0
M  V30 16323 N 1578.61 -1.44039 -0.639573 0
M  V30 16324 C 1579.84 -1.50063 -1.43164 0
M  V30 16325 C 1580.26 -0.123906 -1.87691 0
M  V30 16326 O 1579.62 0.885192 -1.58221 0
M  V30 16327 C 1579.67 -2.46305 -2.63375 0
M  V30 16328 O 1578.77 -1.95874 -3.62915 0
M  V30 16329 H 1578.11 -0.507052 -0.428713 0
M  V30 16330 H 1580.64 -1.8909 -0.781415 0
M  V30 16331 H 1580.65 -2.64062 -3.11023 0
M  V30 16332 H 1579.33 -3.46309 -2.3031 0
M  V30 16333 H 1577.9 -1.87844 -3.22132 0
M  V30 16334 N 1580.09 0.879207 -1.30796 0
M  V30 16335 C 1581 2.01822 -1.19604 0
M  V30 16336 C 1582.01 1.73621 -0.114715 0
M  V30 16337 O 1583.19 1.98665 -0.330757 0
M  V30 16338 C 1580.26 3.3496 -0.894569 0
M  V30 16339 C 1579.32 3.76545 -2.06185 0
M  V30 16340 C 1578.55 5.0333 -1.77467 0
M  V30 16341 O 1578.77 5.66022 -0.70535 0
M  V30 16342 O 1577.71 5.41461 -2.62876 0
M  V30 16343 H 1581.53 2.14194 -2.15301 0
M  V30 16344 H 1579.12 1.00608 -1.10446 0
M  V30 16345 H 1581 4.14818 -0.741891 0
M  V30 16346 H 1579.67 3.23684 0.0324464 0
M  V30 16347 H 1578.58 2.97367 -2.26988 0
M  V30 16348 H 1579.91 3.92434 -2.97079 0
M  V30 16349 N 1581.57 1.13606 1.09231 0
M  V30 16350 C 1582.98 0.91148 1.62938 0
M  V30 16351 C 1583.33 -0.55157 1.88287 0
M  V30 16352 O 1582.45 -1.4187 1.63407 0
M  V30 16353 C 1583.05 1.64812 2.96011 0
M  V30 16354 C 1581.61 1.46935 3.46536 0
M  V30 16355 C 1580.76 1.67605 2.20916 0
M  V30 16356 H 1583.71 1.28907 0.925669 0
M  V30 16357 H 1583.73 1.10638 3.6406 0
M  V30 16358 H 1583.24 2.71291 2.77529 0
M  V30 16359 H 1581.34 0.427667 3.70138 0
M  V30 16360 H 1581.45 2.23374 4.2384 0
M  V30 16361 H 1579.82 1.10105 2.29672 0
M  V30 16362 H 1580.6 2.75408 2.04952 0
M  V30 16363 N 1583.05 -1.27244 0.929878 0
M  V30 16364 C 1583.98 -2.25893 0.387967 0
M  V30 16365 C 1584.99 -1.55485 -0.482524 0
M  V30 16366 O 1586.18 -1.76049 -0.294795 0
M  V30 16367 C 1583.28 -3.35729 -0.462544 0
M  V30 16368 C 1582.45 -4.35665 0.38916 0
M  V30 16369 C 1581.51 -5.24685 -0.399061 0
M  V30 16370 O 1580.54 -5.68869 0.193996 0
M  V30 16371 N 1581.74 -5.551 -1.69836 0
M  V30 16372 H 1584.5 -2.73027 1.23597 0
M  V30 16373 H 1582.07 -1.40893 0.797539 0
M  V30 16374 H 1584.06 -3.92228 -0.996974 0
M  V30 16375 H 1582.63 -2.88177 -1.2113 0
M  V30 16376 H 1581.85 -3.78399 1.10488 0
M  V30 16377 H 1583.14 -4.99442 0.971349 0
M  V30 16378 H 1582.53 -5.21064 -2.20248 0
M  V30 16379 H 1581.09 -6.14289 -2.17927 0
M  V30 16380 N 1584.52 -0.695628 -1.41417 0
M  V30 16381 C 1585.75 -0.235654 -2.05554 0
M  V30 16382 C 1586.17 1.11513 -1.52349 0
M  V30 16383 O 1585.52 1.69688 -0.671743 0
M  V30 16384 C 1585.57 -0.184809 -3.61027 0
M  V30 16385 O 1585.3 -1.48224 -4.12264 0
M  V30 16386 C 1586.8 0.296147 -4.4231 0
M  V30 16387 H 1584.02 -0.109648 -0.661981 0
M  V30 16388 H 1586.56 -0.948227 -1.81187 0
M  V30 16389 H 1584.72 0.478588 -3.84432 0
M  V30 16390 H 1585.13 -1.36939 -5.06308 0
M  V30 16391 H 1586.6 0.280597 -5.51286 0
M  V30 16392 H 1587.08 1.33503 -4.18418 0
M  V30 16393 H 1587.69 -0.336253 -4.23969 0
M  V30 16394 N 1586 1.51322 -0.440383 0
M  V30 16395 C 1587.25 2.01302 0.126581 0
M  V30 16396 C 1587.56 1.32898 1.43518 0
M  V30 16397 O 1588.77 1.73864 2.08527 0
M  V30 16398 C 1587.23 3.58839 0.276126 0
M  V30 16399 C 1586.83 4.36182 -1.02222 0
M  V30 16400 C 1588.58 4.16957 0.796697 0
M  V30 16401 C 1586.48 5.85431 -0.838148 0
M  V30 16402 H 1585.41 0.752268 0.0510809 0
M  V30 16403 H 1588.07 1.74403 -0.570609 0
M  V30 16404 H 1586.45 3.82198 1.03639 0
M  V30 16405 H 1587.62 4.24568 -1.79105 0
M  V30 16406 H 1585.94 3.89531 -1.47155 0
M  V30 16407 H 1588.53 5.26176 0.95095 0
M  V30 16408 H 1588.88 3.76329 1.77996 0
M  V30 16409 H 1589.41 3.97687 0.0946613 0
M  V30 16410 H 1586.15 6.30476 -1.79387 0
M  V30 16411 H 1585.67 5.99701 -0.109167 0
M  V30 16412 H 1587.35 6.45122 -0.492547 0
M  V30 16413 N 1587.48 0.171848 1.5666 0
M  V30 16414 C 1588.41 -0.789671 2.15167 0
M  V30 16415 C 1589.42 -1.19335 1.10739 0
M  V30 16416 O 1590.61 -1.13311 1.37924 0
M  V30 16417 C 1587.71 -2.07448 2.6799 0
M  V30 16418 C 1586.89 -1.83429 3.9708 0
M  V30 16419 C 1585.95 -2.96134 4.34961 0
M  V30 16420 O 1584.97 -2.66746 5.02827 0
M  V30 16421 N 1586.17 -4.23932 3.96563 0
M  V30 16422 H 1588.94 -0.289484 2.98299 0
M  V30 16423 H 1586.5 -0.0109154 1.61896 0
M  V30 16424 H 1588.49 -2.81941 2.90329 0
M  V30 16425 H 1587.06 -2.48656 1.89444 0
M  V30 16426 H 1586.28 -0.928376 3.83112 0
M  V30 16427 H 1587.57 -1.64749 4.81389 0
M  V30 16428 H 1586.97 -4.50668 3.41928 0
M  V30 16429 H 1585.52 -4.95126 4.23903 0
M  V30 16430 N 1588.96 -1.5727 -0.101874 0
M  V30 16431 C 1590.37 -1.74753 -0.657147 0
M  V30 16432 C 1590.72 -0.793052 -1.79458 0
M  V30 16433 O 1589.84 0.0300559 -2.16379 0
M  V30 16434 C 1590.44 -3.1688 -1.19885 0
M  V30 16435 C 1589 -3.3581 -1.70025 0
M  V30 16436 C 1588.15 -2.70575 -0.607007 0
M  V30 16437 H 1591.1 -1.58214 0.124158 0
M  V30 16438 H 1591.12 -3.19378 -2.06829 0
M  V30 16439 H 1590.63 -3.86325 -0.37079 0
M  V30 16440 H 1588.73 -2.71434 -2.55253 0
M  V30 16441 H 1588.84 -4.44086 -1.79791 0
M  V30 16442 H 1587.21 -2.32284 -1.04481 0
M  V30 16443 H 1587.99 -3.42655 0.21036 0
M  V30 16444 N 1590.44 0.372521 -1.53134 0
M  V30 16445 C 1591.35 1.47994 -1.8203 0
M  V30 16446 C 1592.36 1.58937 -0.708179 0
M  V30 16447 O 1593.54 1.74962 -0.997511 0
M  V30 16448 C 1590.6 2.83342 -1.99796 0
M  V30 16449 C 1589.66 2.81984 -3.23702 0
M  V30 16450 C 1588.9 4.10877 -3.40611 0
M  V30 16451 O 1589.12 5.06686 -2.61964 0
M  V30 16452 O 1588.05 4.17111 -4.33938 0
M  V30 16453 H 1591.88 1.26501 -2.761 0
M  V30 16454 H 1589.46 0.561957 -1.38428 0
M  V30 16455 H 1591.35 3.63551 -2.13092 0
M  V30 16456 H 1590.02 3.04826 -1.08916 0
M  V30 16457 H 1588.93 2.00498 -3.15834 0
M  V30 16458 H 1590.26 2.65453 -4.14482 0
M  V30 16459 N 1591.91 1.44376 0.631925 0
M  V30 16460 C 1593.16 1.47335 1.39356 0
M  V30 16461 C 1593.49 0.10525 1.93915 0
M  V30 16462 O 1592.77 -0.877006 1.73605 0
M  V30 16463 C 1593.05 2.53308 2.55943 0
M  V30 16464 C 1592.9 3.99473 2.06739 0
M  V30 16465 C 1594.22 2.55794 3.58131 0
M  V30 16466 H 1591.34 0.536447 0.505365 0
M  V30 16467 H 1593.98 1.76051 0.714572 0
M  V30 16468 H 1592.13 2.28953 3.13868 0
M  V30 16469 H 1593.81 4.34958 1.53652 0
M  V30 16470 H 1592.05 4.11288 1.37929 0
M  V30 16471 H 1592.72 4.69269 2.90672 0
M  V30 16472 H 1595.2 2.77554 3.10005 0
M  V30 16473 H 1594.07 3.31847 4.37228 0
M  V30 16474 H 1594.33 1.59962 4.12146 0
M  V30 16475 N 1593.39 -0.872258 1.31261 0
M  V30 16476 C 1594.34 -1.97926 1.18718 0
M  V30 16477 C 1595.31 -1.65937 0.0735242 0
M  V30 16478 O 1596.49 -1.89208 0.245979 0
M  V30 16479 C 1593.63 -3.33208 0.898117 0
M  V30 16480 C 1592.75 -3.77808 2.09488 0
M  V30 16481 C 1591.88 -5.01796 1.74281 0
M  V30 16482 C 1590.92 -5.38838 2.90379 0
M  V30 16483 N 1590.06 -6.54007 2.55382 0
M  V30 16484 H 1594.9 -2.07986 2.13415 0
M  V30 16485 H 1592.43 -1.01821 1.06165 0
M  V30 16486 H 1594.39 -4.11095 0.711089 0
M  V30 16487 H 1593.02 -3.22798 -0.0120097 0
M  V30 16488 H 1592.07 -2.95722 2.39276 0
M  V30 16489 H 1593.39 -4.01191 2.96391 0
M  V30 16490 H 1592.54 -5.87344 1.52027 0
M  V30 16491 H 1591.28 -4.80312 0.845665 0
M  V30 16492 H 1590.28 -4.51811 3.13284 0
M  V30 16493 H 1591.51 -5.62289 3.80799 0
M  V30 16494 H 1589.46 -6.34073 1.68188 0
M  V30 16495 H 1589.37 -6.77322 3.35814 0
M  V30 16496 H 1590.64 -7.42752 2.36516 0
M  V30 16497 N 1594.87 -1.14184 -1.08627 0
M  V30 16498 C 1595.78 -0.84033 -2.19033 0
M  V30 16499 C 1596.8 0.178322 -1.73084 0
M  V30 16500 O 1597.97 0.00737963 -2.01399 0
M  V30 16501 C 1595.04 -0.319674 -3.45223 0
M  V30 16502 C 1594.1 -1.4006 -4.0581 0
M  V30 16503 C 1593.33 -0.904693 -5.25976 0
M  V30 16504 O 1593.55 0.25468 -5.69831 0
M  V30 16505 O 1592.49 -1.68267 -5.77901 0
M  V30 16506 H 1596.31 -1.76296 -2.47292 0
M  V30 16507 H 1593.9 -0.919929 -1.17719 0
M  V30 16508 H 1595.78 -0.0351268 -4.21385 0
M  V30 16509 H 1594.46 0.575264 -3.18547 0
M  V30 16510 H 1593.36 -1.73858 -3.31247 0
M  V30 16511 H 1594.7 -2.26998 -4.3673 0
M  V30 16512 N 1596.35 1.26749 -0.936613 0
M  V30 16513 C 1597.59 1.94251 -0.582616 0
M  V30 16514 C 1597.93 1.73352 0.875361 0
M  V30 16515 O 1597.2 1.06784 1.62565 0
M  V30 16516 C 1597.49 3.48145 -0.920151 0
M  V30 16517 C 1597.34 3.78349 -2.43253 0
M  V30 16518 C 1598.66 4.37971 -0.432326 0
M  V30 16519 H 1595.78 0.705507 -0.213141 0
M  V30 16520 H 1598.42 1.49703 -1.17001 0
M  V30 16521 H 1596.57 3.8622 -0.420279 0
M  V30 16522 H 1598.24 3.50015 -3.00478 0
M  V30 16523 H 1596.48 3.24586 -2.87795 0
M  V30 16524 H 1597.15 4.85902 -2.61922 0
M  V30 16525 H 1599.63 4.07098 -0.860857 0
M  V30 16526 H 1598.51 5.44452 -0.697366 0
M  V30 16527 H 1598.77 4.37029 0.667694 0
M  V30 16528 N 1597.83 0.703118 1.41046 0
M  V30 16529 C 1598.79 0.0514476 2.29142 0
M  V30 16530 C 1599.79 -0.700223 1.44753 0
M  V30 16531 O 1600.98 -0.533985 1.65814 0
M  V30 16532 C 1598.11 -0.93735 3.2776 0
M  V30 16533 H 1599.3 0.827201 2.88266 0
M  V30 16534 H 1596.86 0.467045 1.49159 0
M  V30 16535 H 1597.59 -1.7406 2.7363 0
M  V30 16536 H 1597.38 -0.4014 3.9004 0
M  V30 16537 H 1598.87 -1.39088 3.93757 0
M  V30 16538 N 1599.3 -1.51086 0.448402 0
M  V30 16539 C 1600.72 -1.86696 -0.0121264 0
M  V30 16540 C 1601.07 -1.36483 -1.40949 0
M  V30 16541 O 1600.19 -0.72024 -2.04062 0
M  V30 16542 C 1600.79 -3.38788 -0.0287814 0
M  V30 16543 C 1599.35 -3.73892 -0.433758 0
M  V30 16544 C 1598.49 -2.74869 0.366362 0
M  V30 16545 H 1601.44 -1.44153 0.663744 0
M  V30 16546 H 1601.46 -3.71204 -0.835915 0
M  V30 16547 H 1600.98 -3.75304 0.988368 0
M  V30 16548 H 1599.08 -3.4297 -1.4561 0
M  V30 16549 H 1599.19 -4.78862 -0.150869 0
M  V30 16550 H 1597.55 -2.54085 -0.176862 0
M  V30 16551 H 1598.34 -3.14228 1.3826 0
M  V30 16552 N 1600.78 -0.180154 -1.56567 0
M  V30 16553 C 1602.03 0.463205 -1.97439 0
M  V30 16554 C 1602.36 1.62296 -1.06647 0
M  V30 16555 O 1601.64 1.94157 -0.115382 0
M  V30 16556 C 1601.92 0.937709 -3.47677 0
M  V30 16557 C 1601.77 -0.222835 -4.49248 0
M  V30 16558 C 1603.09 1.80836 -4.01231 0
M  V30 16559 H 1600.21 0.166899 -0.717854 0
M  V30 16560 H 1602.85 -0.268069 -1.88099 0
M  V30 16561 H 1601 1.56084 -3.55767 0
M  V30 16562 H 1602.67 -0.860155 -4.5321 0
M  V30 16563 H 1600.92 -0.876962 -4.24843 0
M  V30 16564 H 1601.59 0.151444 -5.51792 0
M  V30 16565 H 1604.06 1.28297 -3.95827 0
M  V30 16566 H 1602.94 2.10937 -5.06751 0
M  V30 16567 H 1603.2 2.75728 -3.45581 0
M  V30 16568 N 1602.26 1.57322 0.0935319 0
M  V30 16569 C 1603.49 1.90099 0.80907 0
M  V30 16570 C 1603.9 0.772198 1.72724 0
M  V30 16571 O 1603.24 -0.26468 1.81783 0
M  V30 16572 C 1603.3 3.18144 1.67405 0
M  V30 16573 C 1602.97 4.47488 0.927539 0
M  V30 16574 C 1603.96 5.19266 0.256635 0
M  V30 16575 C 1601.65 4.9415 0.901156 0
M  V30 16576 C 1603.64 6.35943 -0.430665 0
M  V30 16577 C 1601.33 6.10739 0.21007 0
M  V30 16578 C 1602.33 6.81485 -0.454661 0
M  V30 16579 O 1602.02 7.95852 -1.13466 0
M  V30 16580 H 1601.75 0.633287 0.236481 0
M  V30 16581 H 1604.3 2.05264 0.0747132 0
M  V30 16582 H 1602.53 2.99129 2.45068 0
M  V30 16583 H 1604.22 3.3674 2.2663 0
M  V30 16584 H 1604.99 4.84256 0.268468 0
M  V30 16585 H 1600.87 4.38972 1.408 0
M  V30 16586 H 1604.41 6.911 -0.950082 0
M  V30 16587 H 1600.31 6.45202 0.196089 0
M  V30 16588 H 1601.08 8.11844 -1.04172 0
M  V30 16589 N 1603.74 -0.364395 1.53329 0
M  V30 16590 C 1604.65 -1.47027 1.82812 0
M  V30 16591 C 1605.66 -1.58559 0.716598 0
M  V30 16592 O 1606.84 -1.7443 1.00678 0
M  V30 16593 C 1603.91 -2.82278 2.01295 0
M  V30 16594 C 1602.97 -2.80264 3.25193 0
M  V30 16595 C 1602.2 -4.09065 3.42785 0
M  V30 16596 O 1602.42 -5.0529 2.64648 0
M  V30 16597 O 1601.36 -4.14804 4.36144 0
M  V30 16598 H 1605.18 -1.25035 2.76767 0
M  V30 16599 H 1602.77 -0.554608 1.38724 0
M  V30 16600 H 1604.65 -3.62416 2.15017 0
M  V30 16601 H 1603.32 -3.04244 1.10531 0
M  V30 16602 H 1602.23 -1.9882 3.16893 0
M  V30 16603 H 1603.56 -2.63252 4.15884 0
M  V30 16604 N 1605.22 -1.44709 -0.62426 0
M  V30 16605 C 1606.18 -1.51738 -1.7178 0
M  V30 16606 C 1607.18 -0.398646 -1.5578 0
M  V30 16607 O 1608.37 -0.661525 -1.61151 0
M  V30 16608 C 1605.5 -1.39792 -3.1092 0
M  V30 16609 H 1606.69 -2.49154 -1.6692 0
M  V30 16610 H 1604.25 -1.31903 -0.838531 0
M  V30 16611 H 1604.98 -0.434955 -3.2137 0
M  V30 16612 H 1604.77 -2.20919 -3.2394 0
M  V30 16613 H 1606.26 -1.47706 -3.90606 0
M  V30 16614 N 1606.69 0.865285 -1.31722 0
M  V30 16615 C 1607.97 1.60146 -1.12306 0
M  V30 16616 C 1608.35 2.08653 0.320508 0
M  V30 16617 O 1607.7 1.86841 1.31539 0
M  V30 16618 C 1607.91 2.75583 -2.14138 0
M  V30 16619 C 1609.26 3.45429 -2.46909 0
M  V30 16620 O 1610.28 2.85795 -2.12602 0
M  V30 16621 O 1609.14 4.53017 -3.05676 0
M  V30 16622 H 1606.23 0.704786 -0.432673 0
M  V30 16623 H 1608.78 0.910339 -1.43216 0
M  V30 16624 H 1607.55 2.37187 -3.1122 0
M  V30 16625 H 1607.18 3.52378 -1.84161 0
M  V30 16626 N 1608.17 1.14759 1.0802 0
M  V30 16627 C 1609.4 0.941887 1.84218 0
M  V30 16628 C 1609.82 -0.509702 1.8179 0
M  V30 16629 O 1609.17 -1.35331 1.22441 0
M  V30 16630 C 1609.22 1.43978 3.31591 0
M  V30 16631 O 1608.94 2.83449 3.34048 0
M  V30 16632 C 1610.45 1.27459 4.24581 0
M  V30 16633 H 1607.67 0.334942 0.581425 0
M  V30 16634 H 1610.21 1.52367 1.36399 0
M  V30 16635 H 1608.36 0.900674 3.76785 0
M  V30 16636 H 1608.78 3.05878 4.26073 0
M  V30 16637 H 1610.25 1.67151 5.26084 0
M  V30 16638 H 1610.73 0.217925 4.38659 0
M  V30 16639 H 1611.34 1.80243 3.85217 0
M  V30 16640 N 1609.65 -1.26251 0.943322 0
M  V30 16641 C 1610.56 -2.3003 0.460778 0
M  V30 16642 C 1611.58 -1.67635 -0.4663 0
M  V30 16643 O 1612.75 -1.98418 -0.345307 0
M  V30 16644 C 1609.82 -3.45691 -0.264291 0
M  V30 16645 C 1608.88 -4.23561 0.69961 0
M  V30 16646 C 1608.11 -5.33699 0.00904846 0
M  V30 16647 O 1608.33 -5.57473 -1.20748 0
M  V30 16648 O 1607.27 -5.97945 0.688839 0
M  V30 16649 H 1611.09 -2.73374 1.32289 0
M  V30 16650 H 1608.68 -1.31489 0.709297 0
M  V30 16651 H 1610.56 -4.15997 -0.672634 0
M  V30 16652 H 1609.24 -3.04373 -1.10176 0
M  V30 16653 H 1608.14 -3.55728 1.15794 0
M  V30 16654 H 1609.48 -4.68634 1.50476 0
M  V30 16655 N 1611.13 -0.710588 -1.40671 0
M  V30 16656 C 1612.06 -0.0154749 -2.29195 0
M  V30 16657 C 1613.07 0.728938 -1.45569 0
M  V30 16658 O 1614.26 0.577147 -1.68912 0
M  V30 16659 C 1611.36 1.00232 -3.23739 0
M  V30 16660 C 1610.54 0.324464 -4.36195 0
M  V30 16661 C 1609.6 1.24695 -5.11212 0
M  V30 16662 O 1608.62 0.733634 -5.64452 0
M  V30 16663 N 1609.82 2.57841 -5.20094 0
M  V30 16664 H 1612.59 -0.775543 -2.89492 0
M  V30 16665 H 1610.15 -0.557815 -1.51987 0
M  V30 16666 H 1612.14 1.62151 -3.70795 0
M  V30 16667 H 1610.71 1.66379 -2.64644 0
M  V30 16668 H 1609.93 -0.474847 -3.9133 0
M  V30 16669 H 1611.22 -0.146269 -5.0859 0
M  V30 16670 H 1610.62 3.02047 -4.78314 0
M  V30 16671 H 1609.17 3.14917 -5.70676 0
M  V30 16672 N 1612.61 1.50847 -0.456408 0
M  V30 16673 C 1613.84 2.0665 0.101737 0
M  V30 16674 C 1614.25 1.32188 1.34803 0
M  V30 16675 O 1613.61 0.38687 1.78352 0
M  V30 16676 C 1613.66 3.59227 0.404724 0
M  V30 16677 O 1613.38 4.30879 -0.79212 0
M  V30 16678 C 1614.88 4.31607 1.01145 0
M  V30 16679 H 1612.1 0.671 -0.000542219 0
M  V30 16680 H 1614.64 1.94195 -0.640974 0
M  V30 16681 H 1612.8 3.71533 1.09735 0
M  V30 16682 H 1613.21 5.21837 -0.527843 0
M  V30 16683 H 1614.69 5.39386 1.17332 0
M  V30 16684 H 1615.16 3.9114 1.99765 0
M  V30 16685 H 1615.77 4.23794 0.357645 0
M  V30 16686 N 1614.09 0.188454 1.56469 0
M  V30 16687 C 1615.02 -0.766806 2.15992 0
M  V30 16688 C 1616.03 -1.18153 1.11998 0
M  V30 16689 O 1617.22 -1.11842 1.39118 0
M  V30 16690 C 1614.32 -2.04594 2.70175 0
M  V30 16691 C 1613.49 -1.79207 3.99003 0
M  V30 16692 C 1612.55 -2.91504 4.38078 0
M  V30 16693 O 1611.58 -2.61397 5.05628 0
M  V30 16694 N 1612.78 -4.19702 4.01037 0
M  V30 16695 H 1615.54 -0.257829 2.98589 0
M  V30 16696 H 1613.11 0.00625645 1.61899 0
M  V30 16697 H 1615.1 -2.78846 2.93303 0
M  V30 16698 H 1613.67 -2.46633 1.9207 0
M  V30 16699 H 1612.89 -0.88769 3.84075 0
M  V30 16700 H 1614.18 -1.59634 4.83109 0
M  V30 16701 H 1613.57 -4.47016 3.46689 0
M  V30 16702 H 1612.13 -4.90602 4.2913 0
M  V30 16703 N 1615.56 -1.5737 -0.0851874 0
M  V30 16704 C 1616.79 -1.91183 -0.803983 0
M  V30 16705 C 1617.21 -0.78365 -1.70999 0
M  V30 16706 O 1616.57 0.264266 -1.79364 0
M  V30 16707 C 1616.62 -3.239 -1.58496 0
M  V30 16708 O 1615.72 -3.12189 -2.69466 0
M  V30 16709 H 1615.06 -0.626413 -0.220233 0
M  V30 16710 H 1617.59 -2.04519 -0.0574426 0
M  V30 16711 H 1617.6 -3.5745 -1.96707 0
M  V30 16712 H 1616.28 -4.05594 -0.920111 0
M  V30 16713 H 1614.86 -2.90173 -2.3421 0
M  V30 16714 N 1617.04 0.356258 -1.53521 0
M  V30 16715 C 1618.29 1.09953 -1.70406 0
M  V30 16716 C 1618.62 1.8869 -0.459304 0
M  V30 16717 O 1617.9 1.86751 0.54354 0
M  V30 16718 C 1618.18 2.05114 -2.95973 0
M  V30 16719 C 1618.03 1.29924 -4.30627 0
M  V30 16720 C 1619.35 3.0511 -3.17168 0
M  V30 16721 H 1616.47 0.398343 -0.620074 0
M  V30 16722 H 1619.11 0.379376 -1.86174 0
M  V30 16723 H 1617.26 2.66524 -2.82661 0
M  V30 16724 H 1618.93 0.71226 -4.55768 0
M  V30 16725 H 1617.18 0.601141 -4.29615 0
M  V30 16726 H 1617.85 1.99624 -5.1464 0
M  V30 16727 H 1620.32 2.53809 -3.29728 0
M  V30 16728 H 1619.2 3.68908 -4.06445 0
M  V30 16729 H 1619.46 3.75794 -2.32876 0
M  V30 16730 N 1618.52 1.45038 0.616577 0
M  V30 16731 C 1619.75 1.52094 1.40267 0
M  V30 16732 C 1620.16 0.150558 1.88199 0
M  V30 16733 O 1619.52 -0.846258 1.61693 0
M  V30 16734 C 1619.57 2.49786 2.61322 0
M  V30 16735 O 1619.29 3.81498 2.15385 0
M  V30 16736 C 1620.79 2.66451 3.54286 0
M  V30 16737 H 1618.01 0.515378 0.429681 0
M  V30 16738 H 1620.56 1.90141 0.752768 0
M  V30 16739 H 1618.71 2.14835 3.22373 0
M  V30 16740 H 1619.13 4.34374 2.93972 0
M  V30 16741 H 1620.6 3.38802 4.35795 0
M  V30 16742 H 1621.08 1.72177 4.04044 0
M  V30 16743 H 1621.68 3.02362 2.99095 0
M  V30 16744 N 1620 -0.858287 1.32179 0
M  V30 16745 C 1621.24 -1.6146 1.22713 0
M  V30 16746 C 1621.58 -1.93045 -0.211479 0
M  V30 16747 O 1620.85 -1.57034 -1.14764 0
M  V30 16748 C 1621.13 -2.93728 2.08317 0
M  V30 16749 C 1620.99 -2.68947 3.60538 0
M  V30 16750 C 1622.31 -3.94959 1.94153 0
M  V30 16751 H 1619.43 -0.585872 0.447128 0
M  V30 16752 H 1622.07 -0.99134 1.62088 0
M  V30 16753 H 1620.22 -3.4692 1.74867 0
M  V30 16754 H 1621.89 -2.22336 4.04183 0
M  V30 16755 H 1620.13 -2.02974 3.83385 0
M  V30 16756 H 1620.8 -3.63112 4.15756 0
M  V30 16757 H 1623.28 -3.51013 2.23449 0
M  V30 16758 H 1622.16 -4.85371 2.56332 0
M  V30 16759 H 1622.42 -4.32672 0.908132 0
M  V30 16760 N 1621.48 -1.1533 -1.07409 0
M  V30 16761 C 1622.42 -0.849527 -2.14597 0
M  V30 16762 C 1623.39 0.197288 -1.64924 0
M  V30 16763 O 1624.58 0.0649694 -1.90689 0
M  V30 16764 C 1621.72 -0.344327 -3.43378 0
M  V30 16765 C 1620.83 -1.45264 -4.06844 0
M  V30 16766 C 1619.97 -0.90363 -5.23458 0
M  V30 16767 C 1619 -1.98892 -5.78885 0
M  V30 16768 N 1618.14 -1.45633 -6.8683 0
M  V30 16769 H 1622.98 -1.76753 -2.39922 0
M  V30 16770 H 1620.52 -0.881942 -1.17729 0
M  V30 16771 H 1622.48 -0.0331352 -4.17187 0
M  V30 16772 H 1621.11 0.536757 -3.18306 0
M  V30 16773 H 1620.16 -1.88003 -3.30695 0
M  V30 16774 H 1621.47 -2.27207 -4.44048 0
M  V30 16775 H 1620.62 -0.544945 -6.04248 0
M  V30 16776 H 1619.36 -0.0533648 -4.87671 0
M  V30 16777 H 1618.37 -2.35644 -4.96741 0
M  V30 16778 H 1619.59 -2.84295 -6.16728 0
M  V30 16779 H 1617.54 -0.628417 -6.52983 0
M  V30 16780 H 1617.46 -2.21204 -7.22914 0
M  V30 16781 H 1618.72 -1.12587 -7.71326 0
M  V30 16782 N 1622.95 1.25748 -0.950004 0
M  V30 16783 C 1624.36 1.75253 -0.643694 0
M  V30 16784 C 1624.72 1.77261 0.841017 0
M  V30 16785 O 1623.84 1.39043 1.65819 0
M  V30 16786 C 1624.44 3.1826 -1.16173 0
M  V30 16787 C 1622.99 3.65342 -0.905672 0
M  V30 16788 C 1622.14 2.4454 -1.30749 0
M  V30 16789 H 1625.09 1.117 -1.12733 0
M  V30 16790 H 1625.11 3.76935 -0.519651 0
M  V30 16791 H 1624.63 3.16766 -2.24234 0
M  V30 16792 H 1622.73 3.72256 0.160174 0
M  V30 16793 H 1622.84 4.53713 -1.53888 0
M  V30 16794 H 1621.2 2.44138 -0.725876 0
M  V30 16795 H 1621.99 2.45741 -2.39721 0
M  V30 16796 N 1624.43 0.718038 1.40292 0
M  V30 16797 C 1625.38 0.0670495 2.30703 0
M  V30 16798 C 1626.35 -0.747716 1.48319 0
M  V30 16799 O 1627.53 -0.711161 1.77051 0
M  V30 16800 C 1624.67 -0.846918 3.34546 0
M  V30 16801 C 1623.79 -0.0213622 4.31995 0
M  V30 16802 C 1622.92 -0.935035 5.22906 0
M  V30 16803 C 1621.96 -0.103715 6.12012 0
M  V30 16804 N 1621.1 -0.972397 6.95334 0
M  V30 16805 H 1625.94 0.843724 2.85806 0
M  V30 16806 H 1623.47 0.427756 1.40743 0
M  V30 16807 H 1625.43 -1.39109 3.93325 0
M  V30 16808 H 1624.06 -1.58975 2.80939 0
M  V30 16809 H 1623.11 0.640026 3.74977 0
M  V30 16810 H 1624.43 0.62215 4.94905 0
M  V30 16811 H 1623.58 -1.54766 5.86628 0
M  V30 16812 H 1622.32 -1.61236 4.60276 0
M  V30 16813 H 1621.32 0.521826 5.47318 0
M  V30 16814 H 1622.55 0.570146 6.76702 0
M  V30 16815 H 1620.5 -1.63533 6.3529 0
M  V30 16816 H 1620.41 -0.384977 7.55019 0
M  V30 16817 H 1621.68 -1.57112 7.63503 0
M  V30 16818 N 1625.91 -1.50602 0.464402 0
M  V30 16819 C 1627.33 -1.59162 0.118173 0
M  V30 16820 C 1627.53 -1.47313 -1.37481 0
M  V30 16821 O 1626.58 -1.32819 -2.14745 0
M  V30 16822 C 1627.9 -2.93313 0.662411 0
M  V30 16823 C 1629.44 -3.06692 0.625244 0
M  V30 16824 C 1629.92 -4.43407 1.14691 0
M  V30 16825 N 1631.41 -4.49801 1.10604 0
M  V30 16826 C 1632.14 -5.53964 1.48026 0
M  V30 16827 N 1631.64 -6.65413 1.92865 0
M  V30 16828 N 1633.43 -5.44471 1.39671 0
M  V30 16829 H 1625.58 -1.56548 1.4355 0
M  V30 16830 H 1627.85 -0.739451 0.593225 0
M  V30 16831 H 1627.55 -3.07439 1.70805 0
M  V30 16832 H 1627.43 -3.77061 0.102251 0
M  V30 16833 H 1629.81 -2.92217 -0.411466 0
M  V30 16834 H 1629.9 -2.24717 1.22213 0
M  V30 16835 H 1629.54 -4.5863 2.18222 0
M  V30 16836 H 1629.47 -5.23963 0.526306 0
M  V30 16837 H 1631.96 -3.69824 0.77709 0
M  V30 16838 H 1632.27 -7.40947 2.19585 0
M  V30 16839 H 1630.62 -6.66551 1.96812 0
M  V30 16840 H 1633.81 -4.56289 1.04487 0
M  V30 16841 H 1633.98 -6.25531 1.69161 0
M  V30 16842 N 1627.39 -0.19675 -1.56367 0
M  V30 16843 C 1628.32 0.718607 -2.22167 0
M  V30 16844 C 1629.3 1.22002 -1.1853 0
M  V30 16845 O 1630.48 1.26856 -1.47042 0
M  V30 16846 C 1627.61 1.93753 -2.88231 0
M  V30 16847 C 1626.57 1.57096 -3.98127 0
M  V30 16848 C 1625.89 2.86663 -4.51363 0
M  V30 16849 C 1627.19 0.779649 -5.16448 0
M  V30 16850 H 1628.89 0.170064 -2.98917 0
M  V30 16851 H 1626.43 0.0803568 -1.43776 0
M  V30 16852 H 1628.39 2.58312 -3.32946 0
M  V30 16853 H 1627.11 2.51063 -2.0889 0
M  V30 16854 H 1625.77 0.948947 -3.54105 0
M  V30 16855 H 1625.42 3.42066 -3.68782 0
M  V30 16856 H 1625.12 2.6288 -5.25517 0
M  V30 16857 H 1626.64 3.52207 -4.98781 0
M  V30 16858 H 1628.06 1.32838 -5.57698 0
M  V30 16859 H 1626.45 0.639882 -5.96679 0
M  V30 16860 H 1627.52 -0.218944 -4.84405 0
M  V30 16861 N 1628.87 1.57413 0.0768405 0
M  V30 16862 C 1630.28 1.53656 0.431508 0
M  V30 16863 C 1630.48 0.916194 1.79466 0
M  V30 16864 O 1629.54 0.516529 2.4716 0
M  V30 16865 C 1630.85 2.98325 0.377212 0
M  V30 16866 C 1632.4 3.09635 0.457761 0
M  V30 16867 C 1632.87 4.55945 0.433425 0
M  V30 16868 N 1634.37 4.60562 0.493647 0
M  V30 16869 C 1635.1 5.71242 0.496949 0
M  V30 16870 N 1634.6 6.91302 0.455368 0
M  V30 16871 N 1636.39 5.5947 0.543129 0
M  V30 16872 H 1628.54 1.96108 -0.815811 0
M  V30 16873 H 1630.8 0.897392 -0.3056 0
M  V30 16874 H 1630.51 3.47251 -0.557628 0
M  V30 16875 H 1630.38 3.57959 1.18932 0
M  V30 16876 H 1632.77 2.60685 1.38302 0
M  V30 16877 H 1632.85 2.52919 -0.382829 0
M  V30 16878 H 1632.5 5.0555 -0.487968 0
M  V30 16879 H 1632.43 5.10518 1.29148 0
M  V30 16880 H 1634.92 3.74162 0.530237 0
M  V30 16881 H 1635.23 7.7142 0.461674 0
M  V30 16882 H 1633.57 6.93717 0.422133 0
M  V30 16883 H 1636.77 4.64576 0.573272 0
M  V30 16884 H 1636.94 6.45727 0.542234 0
M  V30 16885 N 1630.34 -0.348112 1.53707 0
M  V30 16886 C 1631.29 -1.42729 1.81375 0
M  V30 16887 C 1632.26 -1.52461 0.659159 0
M  V30 16888 O 1633.45 -1.68072 0.903129 0
M  V30 16889 C 1630.59 -2.79443 2.02498 0
M  V30 16890 C 1629.7 -2.7854 3.30211 0
M  V30 16891 C 1628.83 -4.06942 3.41426 0
M  V30 16892 C 1627.87 -4.00248 4.63106 0
M  V30 16893 N 1627.01 -5.20332 4.7138 0
M  V30 16894 H 1631.85 -1.18436 2.73454 0
M  V30 16895 H 1629.39 -0.573809 1.35447 0
M  V30 16896 H 1631.35 -3.58888 2.12733 0
M  V30 16897 H 1629.98 -3.02099 1.13737 0
M  V30 16898 H 1629.03 -1.91227 3.28841 0
M  V30 16899 H 1630.34 -2.69471 4.19746 0
M  V30 16900 H 1629.49 -4.94808 3.51069 0
M  V30 16901 H 1628.23 -4.18786 2.49939 0
M  V30 16902 H 1627.24 -3.10767 4.53546 0
M  V30 16903 H 1628.46 -3.89991 5.55953 0
M  V30 16904 H 1626.41 -5.32729 3.828 0
M  V30 16905 H 1626.33 -5.13502 5.54844 0
M  V30 16906 H 1627.59 -6.09982 4.85326 0
M  V30 16907 N 1631.82 -1.45363 -0.608876 0
M  V30 16908 C 1632.77 -1.53936 -1.71966 0
M  V30 16909 C 1633.74 -0.385352 -1.61568 0
M  V30 16910 O 1634.92 -0.598622 -1.81166 0
M  V30 16911 C 1632.06 -1.51079 -3.10272 0
M  V30 16912 C 1631.18 -2.77022 -3.31486 0
M  V30 16913 C 1630.31 -2.65846 -4.59891 0
M  V30 16914 C 1629.35 -3.86848 -4.74357 0
M  V30 16915 N 1628.49 -3.74214 -5.94061 0
M  V30 16916 H 1633.33 -2.4883 -1.63974 0
M  V30 16917 H 1630.87 -1.23472 -0.799565 0
M  V30 16918 H 1632.82 -1.47411 -3.90289 0
M  V30 16919 H 1631.45 -0.597374 -3.17224 0
M  V30 16920 H 1630.51 -2.90783 -2.45253 0
M  V30 16921 H 1631.82 -3.66776 -3.38049 0
M  V30 16922 H 1630.97 -2.60136 -5.48101 0
M  V30 16923 H 1629.71 -1.73689 -4.55723 0
M  V30 16924 H 1628.72 -3.92918 -3.84572 0
M  V30 16925 H 1629.94 -4.80069 -4.80324 0
M  V30 16926 H 1627.89 -2.84825 -5.9094 0
M  V30 16927 H 1627.8 -4.57601 -6.01779 0
M  V30 16928 H 1629.07 -3.72434 -6.84772 0
M  V30 16929 N 1633.3 0.851265 -1.32632 0
M  V30 16930 C 1634.72 1.14 -1.11696 0
M  V30 16931 C 1634.92 2.0125 0.100327 0
M  V30 16932 O 1633.97 2.40013 0.784233 0
M  V30 16933 C 1635.29 1.81406 -2.39817 0
M  V30 16934 C 1636.83 1.94027 -2.45607 0
M  V30 16935 C 1637.31 2.64848 -3.73657 0
M  V30 16936 N 1638.8 2.7237 -3.74658 0
M  V30 16937 C 1639.53 3.27827 -4.70443 0
M  V30 16938 N 1639.03 3.84068 -5.76596 0
M  V30 16939 N 1640.82 3.25962 -4.57936 0
M  V30 16940 H 1632.97 0.270302 -2.10673 0
M  V30 16941 H 1635.24 0.182395 -0.930288 0
M  V30 16942 H 1634.94 1.24753 -3.28831 0
M  V30 16943 H 1634.82 2.81535 -2.51034 0
M  V30 16944 H 1637.2 2.49838 -1.5705 0
M  V30 16945 H 1637.29 0.928844 -2.3834 0
M  V30 16946 H 1636.93 2.09699 -4.62589 0
M  V30 16947 H 1636.86 3.66436 -3.78196 0
M  V30 16948 H 1639.35 2.32474 -2.97933 0
M  V30 16949 H 1639.66 4.24551 -6.45737 0
M  V30 16950 H 1638.01 3.82391 -5.80347 0
M  V30 16951 H 1641.2 2.81274 -3.74169 0
M  V30 16952 H 1641.37 3.68881 -5.32758 0
M  V30 16953 N 1634.78 1.15898 1.06796 0
M  V30 16954 C 1635.73 0.856808 2.16244 0
M  V30 16955 C 1636.72 -0.172075 1.68524 0
M  V30 16956 O 1637.93 -0.0265569 1.7998 0
M  V30 16957 H 1634.3 0.259445 0.705827 0
M  V30 16958 H 1636.27 1.7874 2.38945 0
M  V30 16959 C 1635.02 0.368721 3.45739 0
M  V30 16960 H 1634.34 1.15184 3.82848 0
M  V30 16961 H 1635.78 0.196012 4.23547 0
M  V30 16962 C 1634.24 -0.910802 3.24355 0
M  V30 16963 O 1634.77 -1.98115 3.49447 0
M  V30 16964 N 1632.98 -0.852545 2.77813 0
M  V30 16965 H 1632.53 0.0186646 2.57593 0
M  V30 16966 H 1632.48 -1.70917 2.63884 0
M  V30 16967 N 1636.26 -1.25243 0.956659 0
M  V30 16968 C 1637.5 -1.93299 0.613446 0
M  V30 16969 C 1637.84 -1.74723 -0.847671 0
M  V30 16970 O 1637.11 -1.09357 -1.60846 0
M  V30 16971 C 1637.39 -3.46637 0.975421 0
M  V30 16972 C 1637.25 -3.74431 2.49242 0
M  V30 16973 C 1638.57 -4.37228 0.501948 0
M  V30 16974 H 1635.68 -0.702027 0.224338 0
M  V30 16975 H 1638.33 -1.47822 1.19368 0
M  V30 16976 H 1636.48 -3.85503 0.48167 0
M  V30 16977 H 1638.15 -3.4519 3.06009 0
M  V30 16978 H 1636.39 -3.19967 2.92923 0
M  V30 16979 H 1637.06 -4.81674 2.69619 0
M  V30 16980 H 1639.54 -4.05677 0.925514 0
M  V30 16981 H 1638.41 -5.43274 0.783895 0
M  V30 16982 H 1638.68 -4.38036 -0.598082 0
M  V30 16983 N 1637.73 -0.725468 -1.3991 0
M  V30 16984 C 1639.01 -0.195971 -1.94616 0
M  V30 16985 C 1639.39 1.30035 -1.66295 0
M  V30 16986 O 1638.74 2.06133 -0.985977 0
M  V30 16987 C 1638.95 -0.519325 -3.45115 0
M  V30 16988 C 1640.3 -0.46341 -4.22064 0
M  V30 16989 O 1641.32 -0.455958 -3.5327 0
M  V30 16990 O 1640.18 -0.449579 -5.44648 0
M  V30 16991 H 1637.27 -0.0325409 -0.82636 0
M  V30 16992 H 1639.82 -0.803676 -1.49463 0
M  V30 16993 H 1638.59 -1.55386 -3.59125 0
M  V30 16994 H 1638.22 0.117838 -3.97425 0
M  V30 16995 N 1639.21 1.50354 -0.472382 0
M  V30 16996 C 1640.62 1.86692 -0.0175768 0
M  V30 16997 C 1640.97 1.38708 1.3876 0
M  V30 16998 O 1640.1 0.752614 2.02891 0
M  V30 16999 C 1640.69 3.38791 -0.0251205 0
M  V30 17000 C 1639.25 3.74535 0.37422 0
M  V30 17001 C 1638.4 2.74252 -0.410045 0
M  V30 17002 H 1641.35 1.43079 -0.686593 0
M  V30 17003 H 1641.37 3.72487 0.776754 0
M  V30 17004 H 1640.88 3.73684 -1.04795 0
M  V30 17005 H 1638.99 3.45243 1.40135 0
M  V30 17006 H 1639.1 4.79042 0.0746666 0
M  V30 17007 H 1637.46 2.54334 0.136417 0
M  V30 17008 H 1638.25 3.11989 -1.43241 0
M  V30 17009 N 1640.69 0.205039 1.56261 0
M  V30 17010 C 1641.62 -0.706815 2.22545 0
M  V30 17011 C 1642.6 -1.21372 1.19176 0
M  V30 17012 O 1643.79 -1.26074 1.47712 0
M  V30 17013 C 1640.92 -1.92221 2.89255 0
M  V30 17014 C 1639.87 -1.54982 3.98954 0
M  V30 17015 C 1639.2 -2.84265 4.52877 0
M  V30 17016 C 1640.5 -0.75225 5.16854 0
M  V30 17017 H 1642.19 -0.15421 2.99003 0
M  V30 17018 H 1639.74 -0.0727309 1.43816 0
M  V30 17019 H 1641.69 -2.56542 3.34311 0
M  V30 17020 H 1640.41 -2.49952 2.10218 0
M  V30 17021 H 1639.07 -0.930155 3.54604 0
M  V30 17022 H 1638.72 -3.40105 3.70591 0
M  V30 17023 H 1638.42 -2.60089 5.26904 0
M  V30 17024 H 1639.95 -3.49557 5.00642 0
M  V30 17025 H 1641.36 -1.29878 5.58395 0
M  V30 17026 H 1639.76 -0.60823 5.9701 0
M  V30 17027 H 1640.83 0.24463 4.84283 0
M  V30 17028 N 1642.17 -1.57451 -0.0684915 0
M  V30 17029 C 1643.39 -1.92025 -0.78366 0
M  V30 17030 C 1643.82 -0.801743 -1.70158 0
M  V30 17031 O 1643.18 0.245227 -1.79634 0
M  V30 17032 C 1643.23 -3.25563 -1.55051 0
M  V30 17033 O 1642.33 -3.15029 -2.6614 0
M  V30 17034 H 1641.67 -0.628714 -0.213576 0
M  V30 17035 H 1644.2 -2.04569 -0.0357474 0
M  V30 17036 H 1644.21 -3.59516 -1.92905 0
M  V30 17037 H 1642.89 -4.06547 -0.87704 0
M  V30 17038 H 1641.46 -2.9264 -2.31119 0
M  V30 17039 N 1643.65 0.339955 -1.5389 0
M  V30 17040 C 1644.6 1.43787 -1.82833 0
M  V30 17041 C 1645.59 1.54303 -0.699058 0
M  V30 17042 O 1646.8 1.56884 -0.882455 0
M  V30 17043 H 1643.17 0.479497 -0.579298 0
M  V30 17044 H 1645.14 1.16592 -2.7468 0
M  V30 17045 C 1643.89 2.80257 -2.05794 0
M  V30 17046 H 1643.21 2.72933 -2.92143 0
M  V30 17047 H 1644.65 3.56191 -2.30009 0
M  V30 17048 C 1643.11 3.26143 -0.844532 0
M  V30 17049 O 1643.64 4.01674 -0.0457121 0
M  V30 17050 N 1641.85 2.82988 -0.660748 0
M  V30 17051 H 1641.4 2.21687 -1.31198 0
M  V30 17052 H 1641.35 3.14044 0.149661 0
M  V30 17053 N 1645.13 1.45684 0.601159 0
M  V30 17054 C 1646.37 1.50036 1.35998 0
M  V30 17055 C 1646.7 0.144645 1.93961 0
M  V30 17056 O 1645.96 -0.857502 1.75913 0
M  V30 17057 C 1646.25 2.53235 2.52204 0
M  V30 17058 C 1645.92 3.97767 2.12348 0
M  V30 17059 C 1644.58 4.37121 2.01193 0
M  V30 17060 C 1646.93 4.88636 1.8134 0
M  V30 17061 C 1644.26 5.65231 1.5726 0
M  V30 17062 C 1646.61 6.17164 1.38892 0
M  V30 17063 C 1645.28 6.55442 1.26299 0
M  V30 17064 H 1644.55 0.54902 0.497652 0
M  V30 17065 H 1647.2 1.79065 0.678833 0
M  V30 17066 H 1645.5 2.17799 3.25685 0
M  V30 17067 H 1647.2 2.53837 3.10431 0
M  V30 17068 H 1643.79 3.6665 2.21959 0
M  V30 17069 H 1647.97 4.58964 1.88853 0
M  V30 17070 H 1643.23 5.93678 1.46139 0
M  V30 17071 H 1647.4 6.87015 1.13946 0
M  V30 17072 H 1645.03 7.54609 0.920316 0
M  V30 17073 N 1646.6 -0.84422 1.33082 0
M  V30 17074 C 1647.51 -1.9858 1.24913 0
M  V30 17075 C 1648.53 -1.73256 0.160708 0
M  V30 17076 O 1649.71 -1.97719 0.383313 0
M  V30 17077 C 1646.77 -3.32471 0.983063 0
M  V30 17078 C 1645.83 -3.70946 2.16096 0
M  V30 17079 C 1645.06 -4.98448 1.90749 0
M  V30 17080 O 1645.29 -5.63953 0.855173 0
M  V30 17081 O 1644.22 -5.34301 2.7714 0
M  V30 17082 H 1648.05 -2.0841 2.20905 0
M  V30 17083 H 1645.63 -0.976447 1.13075 0
M  V30 17084 H 1647.51 -4.12705 0.851612 0
M  V30 17085 H 1646.19 -3.23656 0.053384 0
M  V30 17086 H 1645.1 -2.91244 2.34793 0
M  V30 17087 H 1646.43 -3.8442 3.07379 0
M  V30 17088 N 1648.08 -1.16463 -1.0618 0
M  V30 17089 C 1649.03 -0.840506 -2.11942 0
M  V30 17090 C 1650.02 0.180553 -1.59884 0
M  V30 17091 O 1651.21 -0.0204411 -1.76988 0
M  V30 17092 C 1648.34 -0.344603 -3.41566 0
M  V30 17093 C 1647.42 -1.39651 -4.00448 0
M  V30 17094 N 1647.81 -2.60722 -4.33426 0
M  V30 17095 C 1646.11 -1.25203 -4.28066 0
M  V30 17096 C 1646.81 -3.28236 -4.80246 0
M  V30 17097 N 1645.79 -2.55616 -4.79751 0
M  V30 17098 H 1649.59 -1.76116 -2.35288 0
M  V30 17099 H 1647.1 -1.05185 -1.23733 0
M  V30 17100 H 1649.1 -0.0939984 -4.16794 0
M  V30 17101 H 1647.76 0.569968 -3.19658 0
M  V30 17102 H 1648.77 -2.97769 -4.23738 0
M  V30 17103 H 1645.45 -0.39831 -4.15596 0
M  V30 17104 H 1646.84 -4.31589 -5.14957 0
M  V30 17105 N 1649.56 1.24734 -0.963288 0
M  V30 17106 C 1650.51 2.25555 -0.48926 0
M  V30 17107 C 1651.48 1.59521 0.462848 0
M  V30 17108 O 1652.66 1.87095 0.374188 0
M  V30 17109 C 1649.8 3.44407 0.218629 0
M  V30 17110 C 1648.91 4.25051 -0.77173 0
M  V30 17111 C 1648.05 5.31185 -0.0403986 0
M  V30 17112 C 1647.09 6.03523 -1.02112 0
M  V30 17113 N 1646.23 7.0137 -0.320083 0
M  V30 17114 H 1651.07 2.6547 -1.35386 0
M  V30 17115 H 1648.6 1.30504 -0.678762 0
M  V30 17116 H 1650.56 4.12173 0.645701 0
M  V30 17117 H 1649.19 3.05341 1.04722 0
M  V30 17118 H 1648.24 3.56865 -1.31726 0
M  V30 17119 H 1649.55 4.75084 -1.51976 0
M  V30 17120 H 1648.71 6.05067 0.444886 0
M  V30 17121 H 1647.45 4.82048 0.740356 0
M  V30 17122 H 1646.45 5.28448 -1.51732 0
M  V30 17123 H 1647.68 6.54749 -1.80224 0
M  V30 17124 H 1645.62 6.54511 0.441775 0
M  V30 17125 H 1645.54 7.49263 -1.00705 0
M  V30 17126 H 1646.81 7.79368 0.143379 0
M  V30 17127 N 1651.04 0.732878 1.39523 0
M  V30 17128 C 1652.28 0.280305 2.00854 0
M  V30 17129 C 1652.62 -1.12891 1.58017 0
M  V30 17130 O 1651.89 -1.76919 0.808086 0
M  V30 17131 C 1652.17 0.37978 3.58092 0
M  V30 17132 C 1652.03 1.82861 4.10953 0
M  V30 17133 C 1653.35 -0.239026 4.3945 0
M  V30 17134 H 1650.47 0.103326 0.729721 0
M  V30 17135 H 1653.11 0.928634 1.6576 0
M  V30 17136 H 1651.26 -0.172198 3.88118 0
M  V30 17137 H 1652.93 2.4373 3.91655 0
M  V30 17138 H 1651.17 2.35064 3.64592 0
M  V30 17139 H 1651.84 1.84949 5.20094 0
M  V30 17140 H 1654.32 0.231488 4.15456 0
M  V30 17141 H 1653.2 -0.139068 5.48724 0
M  V30 17142 H 1653.46 -1.32481 4.21783 0
M  V30 17143 N 1652.52 -1.50101 0.480349 0
M  V30 17144 C 1653.76 -2.01567 -0.073165 0
M  V30 17145 C 1654.08 -1.36657 -1.39944 0
M  V30 17146 O 1655.28 -1.79332 -2.03844 0
M  V30 17147 C 1653.74 -3.59445 -0.180889 0
M  V30 17148 C 1653.35 -4.33318 1.1375 0
M  V30 17149 C 1655.09 -4.18923 -0.685868 0
M  V30 17150 C 1653 -5.83003 0.99307 0
M  V30 17151 H 1651.93 -0.753358 -0.0311179 0
M  V30 17152 H 1654.58 -1.72829 0.616648 0
M  V30 17153 H 1652.96 -3.84811 -0.934693 0
M  V30 17154 H 1654.14 -4.1967 1.90299 0
M  V30 17155 H 1652.45 -3.85492 1.57431 0
M  V30 17156 H 1655.05 -5.28512 -0.811109 0
M  V30 17157 H 1655.39 -3.80916 -1.67955 0
M  V30 17158 H 1655.92 -3.97799 0.0108117 0
M  V30 17159 H 1652.66 -6.25499 1.9604 0
M  V30 17160 H 1652.18 -5.992 0.268128 0
M  V30 17161 H 1653.86 -6.4359 0.663417 0
M  V30 17162 N 1653.99 -0.213323 -1.5615 0
M  V30 17163 C 1655.22 0.425688 -2.02473 0
M  V30 17164 C 1655.64 1.53926 -1.09326 0
M  V30 17165 O 1654.99 1.82218 -0.101364 0
M  V30 17166 C 1655.04 0.965021 -3.48381 0
M  V30 17167 O 1654.77 -0.104145 -4.37976 0
M  V30 17168 C 1656.27 1.6781 -4.10311 0
M  V30 17169 H 1653.49 0.105064 -0.662724 0
M  V30 17170 H 1656.03 -0.327369 -2.01863 0
M  V30 17171 H 1654.19 1.66838 -3.49634 0
M  V30 17172 H 1654.6 0.299985 -5.23641 0
M  V30 17173 H 1656.07 2.00757 -5.14199 0
M  V30 17174 H 1656.55 2.58833 -3.54827 0
M  V30 17175 H 1657.16 1.02014 -4.12884 0
M  V30 17176 N 1655.47 1.57485 0.0601405 0
M  V30 17177 C 1656.38 2.07853 1.08785 0
M  V30 17178 C 1657.4 1.01047 1.41653 0
M  V30 17179 O 1658.57 1.32592 1.51596 0
M  V30 17180 C 1655.64 2.52214 2.37885 0
M  V30 17181 C 1654.7 3.73369 2.11882 0
M  V30 17182 C 1653.93 4.15604 3.34827 0
M  V30 17183 O 1654.16 3.5761 4.44377 0
M  V30 17184 O 1653.09 5.08303 3.22353 0
M  V30 17185 H 1656.92 2.9576 0.689912 0
M  V30 17186 H 1654.5 1.46846 0.275065 0
M  V30 17187 H 1656.38 2.81216 3.1384 0
M  V30 17188 H 1655.06 1.67432 2.77035 0
M  V30 17189 H 1653.97 3.49433 1.33594 0
M  V30 17190 H 1655.3 4.59039 1.77606 0
M  V30 17191 N 1656.95 -0.331789 1.54068 0
M  V30 17192 C 1658.19 -1.07901 1.736 0
M  V30 17193 C 1658.55 -1.85513 0.494862 0
M  V30 17194 O 1659.76 -2.62743 0.567392 0
M  V30 17195 C 1658.03 -1.9858 2.97154 0
M  V30 17196 S 1659.59 -2.80365 3.37552 0
M  V30 17197 H 1656.4 -0.364399 0.61052 0
M  V30 17198 H 1659.01 -0.355989 1.92232 0
M  V30 17199 H 1657.71 -1.40383 3.85643 0
M  V30 17200 H 1657.24 -2.753 2.81022 0
M  V30 17201 H 1659.26 -4.01036 2.92207 0
M  V30 17202 N 1658.43 -1.46001 -0.593424 0
M  V30 17203 C 1659.67 -1.50978 -1.35401 0
M  V30 17204 C 1660.01 -0.156626 -1.93567 0
M  V30 17205 O 1659.28 0.83067 -1.7587 0
M  V30 17206 C 1659.57 -2.60005 -2.49137 0
M  V30 17207 C 1659.42 -4.04814 -1.96075 0
M  V30 17208 C 1660.74 -2.65199 -3.51223 0
M  V30 17209 H 1657.86 -0.549657 -0.490965 0
M  V30 17210 H 1660.5 -1.77883 -0.667644 0
M  V30 17211 H 1658.65 -2.37194 -3.07687 0
M  V30 17212 H 1660.32 -4.38879 -1.42066 0
M  V30 17213 H 1658.56 -4.148 -1.26976 0
M  V30 17214 H 1659.23 -4.76811 -2.78128 0
M  V30 17215 H 1661.71 -2.85675 -3.02537 0
M  V30 17216 H 1660.59 -3.43323 -4.28276 0
M  V30 17217 H 1660.85 -1.70833 -4.0776 0
M  V30 17218 N 1659.91 0.83715 -1.33527 0
M  V30 17219 C 1661.13 1.62456 -1.28124 0
M  V30 17220 C 1661.55 1.88223 0.147499 0
M  V30 17221 O 1660.91 1.4636 1.09018 0
M  V30 17222 C 1660.96 2.97376 -2.05547 0
M  V30 17223 O 1660.68 2.7274 -3.42847 0
M  V30 17224 C 1662.18 3.91805 -2.07374 0
M  V30 17225 H 1659.4 0.505436 -0.441334 0
M  V30 17226 H 1661.94 1.04263 -1.75925 0
M  V30 17227 H 1660.1 3.52166 -1.61424 0
M  V30 17228 H 1660.51 3.58669 -3.82696 0
M  V30 17229 H 1661.99 4.83684 -2.65996 0
M  V30 17230 H 1662.46 4.26106 -1.06444 0
M  V30 17231 H 1663.07 3.42952 -2.51523 0
M  V30 17232 N 1661.38 1.17024 1.05561 0
M  V30 17233 C 1662.63 0.950769 1.77886 0
M  V30 17234 C 1662.95 -0.522005 1.88506 0
M  V30 17235 O 1664.15 -0.859582 2.57533 0
M  V30 17236 C 1662.61 1.65189 3.19751 0
M  V30 17237 C 1662.22 3.16294 3.17273 0
M  V30 17238 C 1663.96 1.51466 3.96558 0
M  V30 17239 C 1661.87 3.79111 4.53904 0
M  V30 17240 H 1660.8 0.352089 0.666745 0
M  V30 17241 H 1663.45 1.40237 1.18346 0
M  V30 17242 H 1661.83 1.12801 3.79594 0
M  V30 17243 H 1663 3.75585 2.66969 0
M  V30 17244 H 1661.32 3.29986 2.53966 0
M  V30 17245 H 1663.92 1.95772 4.97571 0
M  V30 17246 H 1664.26 0.46467 4.13699 0
M  V30 17247 H 1664.79 2.0105 3.43254 0
M  V30 17248 H 1661.53 4.84091 4.41969 0
M  V30 17249 H 1661.05 3.24606 5.04372 0
M  V30 17250 H 1662.73 3.81099 5.2285 0
M  V30 17251 N 1662.86 -1.24221 0.969889 0
M  V30 17252 C 1664.11 -1.92638 0.633913 0
M  V30 17253 C 1664.44 -1.75612 -0.829092 0
M  V30 17254 O 1663.72 -1.11057 -1.59677 0
M  V30 17255 C 1664 -3.45583 1.01213 0
M  V30 17256 C 1663.85 -3.71766 2.53199 0
M  V30 17257 C 1665.17 -4.36671 0.548294 0
M  V30 17258 H 1662.29 -0.699608 0.231772 0
M  V30 17259 H 1664.93 -1.46548 1.20929 0
M  V30 17260 H 1663.08 -3.8497 0.522531 0
M  V30 17261 H 1664.75 -3.41925 3.09653 0
M  V30 17262 H 1663 -3.16842 2.963 0
M  V30 17263 H 1663.67 -4.78787 2.74713 0
M  V30 17264 H 1666.14 -4.04672 0.968489 0
M  V30 17265 H 1665.02 -5.42412 0.841472 0
M  V30 17266 H 1665.28 -4.38646 -0.551588 0
M  V30 17267 N 1664.34 -0.740267 -1.39132 0
M  V30 17268 C 1665.27 -0.118951 -2.33197 0
M  V30 17269 C 1666.25 0.718416 -1.54184 0
M  V30 17270 O 1667.44 0.662322 -1.82557 0
M  V30 17271 C 1664.57 0.78512 -3.38309 0
M  V30 17272 C 1663.52 0.0515093 -4.27969 0
M  V30 17273 C 1662.85 1.07295 -5.23824 0
M  V30 17274 C 1664.15 -1.10903 -5.1039 0
M  V30 17275 H 1665.84 -0.904687 -2.85405 0
M  V30 17276 H 1663.39 -0.436493 -1.37225 0
M  V30 17277 H 1665.34 1.22935 -4.03069 0
M  V30 17278 H 1664.06 1.60303 -2.84553 0
M  V30 17279 H 1662.72 -0.373156 -3.64696 0
M  V30 17280 H 1662.37 1.88456 -4.66362 0
M  V30 17281 H 1662.07 0.586827 -5.84662 0
M  V30 17282 H 1663.59 1.51677 -5.91461 0
M  V30 17283 H 1665.01 -0.742993 -5.68465 0
M  V30 17284 H 1663.41 -1.52513 -5.80396 0
M  V30 17285 H 1664.48 -1.92825 -4.44912 0
M  V30 17286 N 1665.82 1.49844 -0.488302 0
M  V30 17287 C 1667.07 2.02009 0.0605782 0
M  V30 17288 C 1667.39 1.37114 1.38653 0
M  V30 17289 O 1666.66 0.522182 1.88812 0
M  V30 17290 H 1665.24 0.746569 0.0253773 0
M  V30 17291 H 1667.9 1.84 -0.64265 0
M  V30 17292 H 1667 3.11461 0.199542 0
M  V30 17293 N 1667.3 0.221601 1.56034 0
M  V30 17294 C 1668.57 -0.459097 1.90136 0
M  V30 17295 C 1668.95 -1.7774 1.13894 0
M  V30 17296 O 1668.3 -2.27147 0.248285 0
M  V30 17297 C 1668.51 -0.651996 3.42856 0
M  V30 17298 C 1669.86 -0.959402 4.13619 0
M  V30 17299 O 1670.88 -0.73878 3.48454 0
M  V30 17300 O 1669.74 -1.37811 5.28839 0
M  V30 17301 H 1666.84 -0.242753 0.790569 0
M  V30 17302 H 1669.38 0.263789 1.67637 0
M  V30 17303 H 1668.15 0.277892 3.90312 0
M  V30 17304 H 1667.78 -1.42637 3.71134 0
M  V30 17305 N 1668.77 -1.57515 -0.0517878 0
M  V30 17306 C 1669.74 -2.04049 -1.04387 0
M  V30 17307 C 1670.74 -0.940745 -1.30409 0
M  V30 17308 O 1671.93 -1.20505 -1.25794 0
M  V30 17309 C 1669.06 -2.43816 -2.38257 0
M  V30 17310 H 1670.25 -2.9294 -0.642367 0
M  V30 17311 H 1667.81 -1.53432 -0.29805 0
M  V30 17312 H 1668.54 -1.58013 -2.832 0
M  V30 17313 H 1668.33 -3.24086 -2.20705 0
M  V30 17314 H 1669.82 -2.80325 -3.09528 0
M  V30 17315 N 1670.25 0.323614 -1.54242 0
M  V30 17316 C 1671.5 1.05909 -1.71657 0
M  V30 17317 C 1671.82 1.89177 -0.497151 0
M  V30 17318 O 1673.02 2.65816 -0.552649 0
M  V30 17319 C 1671.48 1.93246 -3.03618 0
M  V30 17320 C 1671.09 1.1509 -4.32965 0
M  V30 17321 C 1672.83 2.6653 -3.30397 0
M  V30 17322 C 1670.74 2.01573 -5.55988 0
M  V30 17323 H 1669.67 0.399114 -0.639706 0
M  V30 17324 H 1672.32 0.317338 -1.80735 0
M  V30 17325 H 1670.7 2.71319 -2.88447 0
M  V30 17326 H 1671.87 0.417877 -4.58901 0
M  V30 17327 H 1670.19 0.534882 -4.1295 0
M  V30 17328 H 1672.79 3.31542 -4.19504 0
M  V30 17329 H 1673.13 3.34164 -2.48274 0
M  V30 17330 H 1673.66 1.95518 -3.46435 0
M  V30 17331 H 1670.4 1.38446 -6.40713 0
M  V30 17332 H 1669.92 2.72609 -5.3427 0
M  V30 17333 H 1671.6 2.60159 -5.9239 0
M  V30 17334 N 1671.73 1.46313 0.585673 0
M  V30 17335 C 1672.66 1.52683 1.7094 0
M  V30 17336 C 1673.68 0.415447 1.5741 0
M  V30 17337 O 1674.87 0.683657 1.64889 0
M  V30 17338 C 1671.97 1.38822 3.09163 0
M  V30 17339 C 1671.14 2.64027 3.48724 0
M  V30 17340 C 1670.2 2.44407 4.65995 0
M  V30 17341 O 1669.22 3.18118 4.72006 0
M  V30 17342 N 1670.43 1.50381 5.60683 0
M  V30 17343 H 1673.19 2.49573 1.65932 0
M  V30 17344 H 1670.75 1.42332 0.771573 0
M  V30 17345 H 1672.74 1.23474 3.85404 0
M  V30 17346 H 1671.31 0.501247 3.08555 0
M  V30 17347 H 1670.53 2.94338 2.62219 0
M  V30 17348 H 1671.82 3.47206 3.71921 0
M  V30 17349 H 1671.22 0.895917 5.5856 0
M  V30 17350 H 1669.78 1.40997 6.36367 0
M  V30 17351 N 1673.21 -0.830057 1.33969 0
M  V30 17352 C 1674.46 -1.58821 1.26111 0
M  V30 17353 C 1674.79 -1.9345 -0.170484 0
M  V30 17354 O 1674.06 -1.59433 -1.11407 0
M  V30 17355 C 1674.35 -2.89243 2.14501 0
M  V30 17356 C 1674.2 -2.61239 3.66162 0
M  V30 17357 C 1675.52 -3.90752 2.02487 0
M  V30 17358 H 1672.64 -0.576255 0.459455 0
M  V30 17359 H 1675.28 -0.956736 1.64154 0
M  V30 17360 H 1673.43 -3.43133 1.82186 0
M  V30 17361 H 1675.1 -2.13713 4.08809 0
M  V30 17362 H 1673.34 -1.94796 3.87604 0
M  V30 17363 H 1674.02 -3.54212 4.23365 0
M  V30 17364 H 1676.49 -3.46194 2.30844 0
M  V30 17365 H 1675.37 -4.79825 2.6657 0
M  V30 17366 H 1675.63 -4.30649 0.999704 0
M  V30 17367 N 1674.69 -1.17582 -1.04939 0
M  V30 17368 C 1675.65 -0.897095 -2.10914 0
M  V30 17369 C 1676.65 0.113823 -1.60397 0
M  V30 17370 O 1677.84 -0.118635 -1.73796 0
M  V30 17371 C 1674.97 -0.344251 -3.39157 0
M  V30 17372 H 1676.17 -1.83674 -2.37074 0
M  V30 17373 H 1673.72 -0.986634 -1.21224 0
M  V30 17374 H 1674.45 0.602417 -3.18656 0
M  V30 17375 H 1674.24 -1.07287 -3.77137 0
M  V30 17376 H 1675.73 -0.167644 -4.17263 0
M  V30 17377 N 1676.17 1.23705 -0.976463 0
M  V30 17378 C 1677.11 2.25023 -0.513156 0
M  V30 17379 C 1678.08 1.60003 0.445903 0
M  V30 17380 O 1679.27 1.87481 0.354323 0
M  V30 17381 C 1676.41 3.44619 0.182088 0
M  V30 17382 C 1675.52 4.24209 -0.816769 0
M  V30 17383 C 1674.66 5.31112 -0.0967355 0
M  V30 17384 C 1673.69 6.02406 -1.08507 0
M  V30 17385 N 1672.83 7.00991 -0.394455 0
M  V30 17386 H 1677.67 2.64019 -1.38194 0
M  V30 17387 H 1675.21 1.29777 -0.692566 0
M  V30 17388 H 1677.17 4.12835 0.601948 0
M  V30 17389 H 1675.8 3.06435 1.01477 0
M  V30 17390 H 1674.85 3.55448 -1.35503 0
M  V30 17391 H 1676.16 4.73445 -1.57006 0
M  V30 17392 H 1675.31 6.05504 0.380686 0
M  V30 17393 H 1674.05 4.82806 0.689187 0
M  V30 17394 H 1673.06 5.26809 -1.57328 0
M  V30 17395 H 1674.28 6.528 -1.87159 0
M  V30 17396 H 1672.23 6.54943 0.372331 0
M  V30 17397 H 1672.15 7.48152 -1.08647 0
M  V30 17398 H 1673.41 7.79476 0.0607087 0
M  V30 17399 N 1677.64 0.747635 1.38738 0
M  V30 17400 C 1678.88 0.305993 2.02097 0
M  V30 17401 C 1679.25 -1.09002 1.58059 0
M  V30 17402 O 1680.45 -1.63044 2.13705 0
M  V30 17403 C 1678.72 0.418156 3.54945 0
M  V30 17404 S 1680.28 0.0582187 4.38761 0
M  V30 17405 H 1677.1 0.119075 0.700958 0
M  V30 17406 H 1679.7 0.97694 1.6934 0
M  V30 17407 H 1678.4 1.43524 3.84486 0
M  V30 17408 H 1677.93 -0.270178 3.92471 0
M  V30 17409 H 1679.95 -1.15407 4.82593 0
M  V30 17410 N 1679.12 -1.49583 0.496242 0
M  V30 17411 C 1680.35 -2.06547 -0.0468437 0
M  V30 17412 C 1680.76 -1.3574 -1.31801 0
M  V30 17413 O 1680.1 -0.427948 -1.78646 0
M  V30 17414 C 1680.16 -3.57532 -0.375622 0
M  V30 17415 C 1679.83 -4.49994 0.797134 0
M  V30 17416 C 1680.83 -4.91793 1.6863 0
M  V30 17417 C 1678.51 -4.92355 0.99459 0
M  V30 17418 C 1680.5 -5.74685 2.7571 0
M  V30 17419 C 1678.19 -5.75024 2.06859 0
M  V30 17420 C 1679.19 -6.16093 2.94819 0
M  V30 17421 O 1678.88 -6.9711 4.00366 0
M  V30 17422 H 1678.61 -0.675832 0.0150901 0
M  V30 17423 H 1681.16 -1.93413 0.691416 0
M  V30 17424 H 1679.39 -3.68658 -1.16741 0
M  V30 17425 H 1681.08 -3.96755 -0.856757 0
M  V30 17426 H 1681.85 -4.59715 1.54554 0
M  V30 17427 H 1677.73 -4.59893 0.31933 0
M  V30 17428 H 1681.27 -6.06661 3.44396 0
M  V30 17429 H 1677.17 -6.06514 2.20931 0
M  V30 17430 H 1677.94 -7.15408 3.9766 0
M  V30 17431 N 1680.6 -0.229873 -1.55915 0
M  V30 17432 C 1681.85 0.398775 -1.98127 0
M  V30 17433 C 1682.17 1.597 -1.11897 0
M  V30 17434 O 1681.44 1.94898 -0.197868 0
M  V30 17435 H 1680.02 0.150323 -0.731719 0
M  V30 17436 H 1682.68 -0.324704 -1.92176 0
M  V30 17437 H 1681.78 0.719475 -3.03694 0
M  V30 17438 N 1682.08 1.5754 0.0434337 0
M  V30 17439 C 1682.99 2.08996 1.06574 0
M  V30 17440 C 1684 1.02544 1.40573 0
M  V30 17441 O 1685.18 1.34192 1.50181 0
M  V30 17442 C 1682.24 2.54723 2.35196 0
M  V30 17443 C 1681.31 3.75595 2.0791 0
M  V30 17444 C 1680.54 4.19132 3.304 0
M  V30 17445 O 1680.76 3.62303 4.40559 0
M  V30 17446 O 1679.7 5.11694 3.16944 0
M  V30 17447 H 1683.52 2.96475 0.658503 0
M  V30 17448 H 1681.11 1.47129 0.259475 0
M  V30 17449 H 1682.99 2.84529 3.1084 0
M  V30 17450 H 1681.66 1.70361 2.75243 0
M  V30 17451 H 1680.57 3.5083 1.2988 0
M  V30 17452 H 1681.9 4.60897 1.72727 0
M  V30 17453 N 1683.56 -0.31543 1.54411 0
M  V30 17454 C 1684.78 -1.0761 1.77299 0
M  V30 17455 C 1685.21 -1.80655 0.523963 0
M  V30 17456 O 1684.56 -1.73536 -0.524874 0
M  V30 17457 C 1684.61 -2.04355 2.97105 0
M  V30 17458 O 1683.72 -3.12401 2.69219 0
M  V30 17459 H 1683.06 -0.30986 0.587267 0
M  V30 17460 H 1685.59 -0.357246 2.01457 0
M  V30 17461 H 1685.6 -2.47081 3.24677 0
M  V30 17462 H 1684.27 -1.50592 3.87679 0
M  V30 17463 H 1682.85 -2.74294 2.52621 0
M  V30 17464 N 1685.03 -1.46622 -0.577906 0
M  V30 17465 C 1686.28 -1.52406 -1.33792 0
M  V30 17466 C 1686.61 -0.177147 -1.9339 0
M  V30 17467 O 1685.89 0.81197 -1.76741 0
M  V30 17468 C 1686.17 -2.62633 -2.46366 0
M  V30 17469 C 1686.02 -4.06871 -1.91771 0
M  V30 17470 C 1687.34 -2.68909 -3.4839 0
M  V30 17471 H 1684.46 -0.554833 -0.485107 0
M  V30 17472 H 1687.1 -1.78582 -0.648739 0
M  V30 17473 H 1685.25 -2.40444 -3.05154 0
M  V30 17474 H 1686.93 -4.40361 -1.37403 0
M  V30 17475 H 1685.17 -4.16124 -1.2257 0
M  V30 17476 H 1685.84 -4.79734 -2.73056 0
M  V30 17477 H 1688.32 -2.88868 -2.9949 0
M  V30 17478 H 1687.19 -3.47846 -4.24611 0
M  V30 17479 H 1687.45 -1.75148 -4.05925 0
M  V30 17480 N 1686.51 0.822941 -1.34408 0
M  V30 17481 C 1687.44 1.94878 -1.28627 0
M  V30 17482 C 1688.42 1.6931 -0.163727 0
M  V30 17483 O 1689.61 1.90908 -0.356083 0
M  V30 17484 C 1686.74 3.31333 -1.04094 0
M  V30 17485 C 1685.69 3.71341 -2.12814 0
M  V30 17486 C 1685.02 5.05779 -1.73469 0
M  V30 17487 C 1686.32 3.83439 -3.54643 0
M  V30 17488 H 1688.01 1.99972 -2.22827 0
M  V30 17489 H 1685.56 0.960715 -1.07267 0
M  V30 17490 H 1687.51 4.0968 -0.986947 0
M  V30 17491 H 1686.24 3.26539 -0.0633642 0
M  V30 17492 H 1684.89 2.95269 -2.17282 0
M  V30 17493 H 1684.54 4.97471 -0.743727 0
M  V30 17494 H 1684.24 5.33518 -2.46236 0
M  V30 17495 H 1685.77 5.86583 -1.69566 0
M  V30 17496 H 1687.18 4.52057 -3.52587 0
M  V30 17497 H 1685.58 4.22632 -4.2603 0
M  V30 17498 H 1686.65 2.85439 -3.91986 0
M  V30 17499 N 1687.99 1.18137 1.04314 0
M  V30 17500 C 1689.24 0.976648 1.77734 0
M  V30 17501 C 1689.57 -0.492756 1.87844 0
M  V30 17502 O 1688.84 -1.36586 1.38472 0
M  V30 17503 C 1689.13 1.62911 3.21142 0
M  V30 17504 C 1688.98 3.1712 3.1899 0
M  V30 17505 C 1690.3 1.34029 4.19195 0
M  V30 17506 H 1687.42 0.356217 0.645197 0
M  V30 17507 H 1690.06 1.45767 1.21868 0
M  V30 17508 H 1688.21 1.22009 3.68844 0
M  V30 17509 H 1689.88 3.67139 2.79296 0
M  V30 17510 H 1688.13 3.4941 2.57089 0
M  V30 17511 H 1688.8 3.57907 4.20245 0
M  V30 17512 H 1691.27 1.69463 3.80028 0
M  V30 17513 H 1690.15 1.82253 5.1776 0
M  V30 17514 H 1690.41 0.262712 4.41319 0
M  V30 17515 N 1689.47 -1.23186 0.98301 0
M  V30 17516 C 1690.42 -2.26762 0.517846 0
M  V30 17517 C 1691.41 -1.63944 -0.426459 0
M  V30 17518 O 1692.62 -1.77481 -0.300065 0
M  V30 17519 H 1688.99 -0.737082 0.149042 0
M  V30 17520 H 1690.96 -2.63356 1.40307 0
M  V30 17521 C 1689.71 -3.47324 -0.16157 0
M  V30 17522 H 1689.03 -3.95915 0.555973 0
M  V30 17523 H 1690.47 -4.21598 -0.450644 0
M  V30 17524 C 1688.93 -3.06722 -1.39366 0
M  V30 17525 O 1689.46 -3.15239 -2.48973 0
M  V30 17526 N 1687.67 -2.61609 -1.26528 0
M  V30 17527 H 1687.22 -2.54879 -0.373449 0
M  V30 17528 H 1687.17 -2.34809 -2.09074 0
M  V30 17529 N 1690.95 -0.754982 -1.38339 0
M  V30 17530 C 1691.91 -0.136457 -2.28793 0
M  V30 17531 C 1692.91 0.646016 -1.47252 0
M  V30 17532 O 1694.1 0.472077 -1.67681 0
M  V30 17533 C 1691.23 0.815058 -3.31013 0
M  V30 17534 H 1692.42 -0.933619 -2.84997 0
M  V30 17535 H 1689.98 -0.522082 -1.47323 0
M  V30 17536 H 1690.71 1.63785 -2.79902 0
M  V30 17537 H 1690.5 0.256363 -3.91261 0
M  V30 17538 H 1691.99 1.24378 -3.98648 0
M  V30 17539 N 1692.42 1.49318 -0.504168 0
M  V30 17540 C 1693.39 2.27703 0.26157 0
M  V30 17541 C 1694.39 1.3385 0.891114 0
M  V30 17542 O 1695.58 1.56981 0.755156 0
M  V30 17543 C 1692.71 3.11912 1.37564 0
M  V30 17544 H 1693.9 2.96855 -0.426292 0
M  V30 17545 H 1691.46 1.54135 -0.259236 0
M  V30 17546 H 1692.19 2.47332 2.09755 0
M  V30 17547 H 1691.98 3.8092 0.929641 0
M  V30 17548 H 1693.47 3.71106 1.91494 0
M  V30 17549 N 1693.9 0.238138 1.5579 0
M  V30 17550 C 1694.85 -0.681413 2.22395 0
M  V30 17551 C 1695.84 -1.18691 1.20867 0
M  V30 17552 O 1697.05 -1.14482 1.38903 0
M  V30 17553 H 1693.43 -0.238207 0.713275 0
M  V30 17554 H 1695.4 -0.0964141 2.98244 0
M  V30 17555 C 1694.15 -1.87137 2.93045 0
M  V30 17556 H 1693.47 -1.49153 3.70936 0
M  V30 17557 H 1694.91 -2.4922 3.43024 0
M  V30 17558 C 1693.37 -2.73709 1.9643 0
M  V30 17559 O 1693.9 -3.72973 1.49178 0
M  V30 17560 N 1692.1 -2.40092 1.6372 0
M  V30 17561 H 1691.65 -1.59423 2.02341 0
M  V30 17562 H 1691.61 -2.98293 0.993414 0
M  V30 17563 N 1695.38 -1.57561 -0.0350783 0
M  V30 17564 C 1696.61 -1.93251 -0.73903 0
M  V30 17565 C 1697.02 -0.83739 -1.69214 0
M  V30 17566 O 1696.38 0.186669 -1.81543 0
M  V30 17567 C 1696.43 -3.28853 -1.50127 0
M  V30 17568 O 1696.15 -4.34157 -0.586426 0
M  V30 17569 C 1697.65 -3.78788 -2.30292 0
M  V30 17570 H 1694.87 -0.63793 -0.208053 0
M  V30 17571 H 1697.42 -2.04499 0.00560398 0
M  V30 17572 H 1695.57 -3.1902 -2.19784 0
M  V30 17573 H 1695.99 -5.12395 -1.12034 0
M  V30 17574 H 1697.46 -4.76197 -2.79178 0
M  V30 17575 H 1697.94 -3.09671 -3.11449 0
M  V30 17576 H 1698.54 -3.91684 -1.65721 0
M  V30 17577 N 1696.86 0.307236 -1.54576 0
M  V30 17578 C 1697.81 1.38019 -1.81479 0
M  V30 17579 C 1698.79 1.46213 -0.671612 0
M  V30 17580 O 1699.98 1.5047 -0.932077 0
M  V30 17581 C 1697.11 2.74621 -2.06005 0
M  V30 17582 C 1696.2 2.70675 -3.2649 0
M  V30 17583 N 1696.59 2.36346 -4.47185 0
M  V30 17584 C 1694.89 3.01786 -3.28392 0
M  V30 17585 C 1695.59 2.41543 -5.2918 0
M  V30 17586 N 1694.57 2.78646 -4.66752 0
M  V30 17587 H 1698.37 1.10432 -2.72364 0
M  V30 17588 H 1695.88 0.515792 -1.53991 0
M  V30 17589 H 1697.88 3.51977 -2.23424 0
M  V30 17590 H 1696.54 3.03125 -1.16384 0
M  V30 17591 H 1697.55 2.08908 -4.73896 0
M  V30 17592 H 1694.23 3.35225 -2.48858 0
M  V30 17593 H 1695.62 2.17854 -6.35602 0
M  V30 17594 N 1698.34 1.46926 0.570122 0
M  V30 17595 C 1699.27 1.61311 1.68822 0
M  V30 17596 C 1700.25 0.462964 1.63678 0
M  V30 17597 O 1701.43 0.690745 1.815 0
M  V30 17598 C 1698.56 1.61499 3.07466 0
M  V30 17599 C 1697.52 2.7561 3.27449 0
M  V30 17600 C 1696.84 2.60865 4.66748 0
M  V30 17601 C 1698.14 4.17324 3.14067 0
M  V30 17602 H 1699.84 2.54909 1.5704 0
M  V30 17603 H 1697.38 1.22677 0.754077 0
M  V30 17604 H 1699.34 1.70155 3.8552 0
M  V30 17605 H 1698.06 0.64453 3.20177 0
M  V30 17606 H 1696.72 2.66444 2.51799 0
M  V30 17607 H 1696.37 1.61875 4.76241 0
M  V30 17608 H 1696.07 3.37411 4.81069 0
M  V30 17609 H 1697.59 2.7143 5.46954 0
M  V30 17610 H 1699 4.27534 3.81952 0
M  V30 17611 H 1697.4 4.94555 3.39905 0
M  V30 17612 H 1698.47 4.36596 2.10979 0
M  V30 17613 N 1699.82 -0.815801 1.34842 0
M  V30 17614 C 1700.76 -1.92713 1.27006 0
M  V30 17615 C 1701.73 -1.65476 0.143838 0
M  V30 17616 O 1702.92 -1.87994 0.326007 0
M  V30 17617 C 1700.06 -3.29099 1.03863 0
M  V30 17618 C 1699.17 -3.68583 2.25324 0
M  V30 17619 C 1698.31 -4.93953 1.95407 0
M  V30 17620 C 1697.34 -5.26037 3.12971 0
M  V30 17621 N 1696.48 -6.42586 2.82891 0
M  V30 17622 H 1701.32 -1.98747 2.22044 0
M  V30 17623 H 1698.86 -0.972265 1.10388 0
M  V30 17624 H 1700.82 -4.07709 0.884809 0
M  V30 17625 H 1699.45 -3.22558 0.124911 0
M  V30 17626 H 1698.5 -2.85307 2.51603 0
M  V30 17627 H 1699.81 -3.88259 3.1314 0
M  V30 17628 H 1698.96 -5.80367 1.76801 0
M  V30 17629 H 1697.7 -4.76293 1.04862 0
M  V30 17630 H 1696.71 -4.38117 3.32165 0
M  V30 17631 H 1697.93 -5.45632 4.04305 0
M  V30 17632 H 1695.88 -6.26369 1.9493 0
M  V30 17633 H 1695.8 -6.62469 3.64239 0
M  V30 17634 H 1697.06 -7.32052 2.67805 0
M  V30 17635 N 1701.29 -1.18689 -1.03686 0
M  V30 17636 C 1702.24 -0.885273 -2.10112 0
M  V30 17637 C 1703.23 0.146598 -1.60231 0
M  V30 17638 O 1704.42 -0.0579783 -1.76905 0
M  V30 17639 C 1701.55 -0.416977 -3.40758 0
M  V30 17640 C 1700.63 -1.48114 -3.97396 0
M  V30 17641 N 1701.03 -2.69857 -4.27798 0
M  V30 17642 C 1699.32 -1.34255 -4.25314 0
M  V30 17643 C 1700.02 -3.38349 -4.73175 0
M  V30 17644 N 1699 -2.65735 -4.74222 0
M  V30 17645 H 1702.8 -1.81067 -2.31499 0
M  V30 17646 H 1700.32 -1.07786 -1.21474 0
M  V30 17647 H 1702.31 -0.182385 -4.16501 0
M  V30 17648 H 1700.97 0.502036 -3.20795 0
M  V30 17649 H 1701.98 -3.0669 -4.17327 0
M  V30 17650 H 1698.66 -0.486374 -4.14657 0
M  V30 17651 H 1700.05 -4.42415 -5.05686 0
M  V30 17652 N 1702.77 1.22662 -0.989529 0
M  V30 17653 C 1704.02 1.90944 -0.662187 0
M  V30 17654 C 1704.34 1.77477 0.807899 0
M  V30 17655 O 1703.61 1.15985 1.57874 0
M  V30 17656 H 1702.19 0.706738 -0.241932 0
M  V30 17657 H 1704.85 1.49091 -1.25531 0
M  V30 17658 H 1703.95 2.98177 -0.921777 0
M  V30 17659 N 1704.25 0.762308 1.37937 0
M  V30 17660 C 1705.5 0.321732 1.99523 0
M  V30 17661 C 1705.82 -1.10286 1.60816 0
M  V30 17662 O 1705.09 -1.75565 0.869117 0
M  V30 17663 H 1703.67 0.115967 0.737943 0
M  V30 17664 H 1706.33 0.978339 1.68566 0
M  V30 17665 H 1705.43 0.391818 3.09631 0
M  V30 17666 N 1705.73 -1.49049 0.51208 0
M  V30 17667 C 1706.98 -2.0208 -0.0284326 0
M  V30 17668 C 1707.3 -1.39303 -1.36454 0
M  V30 17669 O 1706.57 -0.552155 -1.87958 0
M  V30 17670 H 1705.15 -0.746878 -0.0134968 0
M  V30 17671 H 1707.81 -1.82954 0.671842 0
M  V30 17672 H 1706.9 -3.11739 -0.149966 0
M  V30 17673 N 1707.21 -0.246397 -1.55662 0
M  V30 17674 C 1708.45 0.378973 -1.98108 0
M  V30 17675 C 1708.77 1.59106 -1.13775 0
M  V30 17676 O 1709.97 2.28754 -1.46232 0
M  V30 17677 C 1708.43 0.725634 -3.52509 0
M  V30 17678 C 1708.04 -0.465024 -4.4558 0
M  V30 17679 C 1709.78 1.31522 -4.03611 0
M  V30 17680 C 1707.69 -0.0945447 -5.91324 0
M  V30 17681 H 1706.62 0.14537 -0.739854 0
M  V30 17682 H 1709.27 -0.346533 -1.80198 0
M  V30 17683 H 1707.65 1.50925 -3.66111 0
M  V30 17684 H 1708.83 -1.24236 -4.43736 0
M  V30 17685 H 1707.14 -0.969507 -4.04956 0
M  V30 17686 H 1709.74 1.60573 -5.1002 0
M  V30 17687 H 1710.08 2.23952 -3.50929 0
M  V30 17688 H 1710.61 0.594515 -3.93332 0
M  V30 17689 H 1707.35 -0.985965 -6.48042 0
M  V30 17690 H 1706.87 0.646601 -5.96305 0
M  V30 17691 H 1708.55 0.323447 -6.46191 0
M  V30 17692 N 1708.68 1.57577 0.026722 0
M  V30 17693 C 1709.65 2.05684 1.01127 0
M  V30 17694 C 1710.65 0.961373 1.28896 0
M  V30 17695 O 1711.84 1.22491 1.23861 0
M  V30 17696 C 1708.97 2.47576 2.34348 0
M  V30 17697 H 1710.16 2.93925 0.595681 0
M  V30 17698 H 1707.71 1.53887 0.273603 0
M  V30 17699 H 1708.45 1.62498 2.80651 0
M  V30 17700 H 1708.23 3.27556 2.15521 0
M  V30 17701 H 1709.72 2.85214 3.05029 0
M  V30 17702 N 1710.16 -0.299034 1.54737 0
M  V30 17703 C 1711.41 -1.03195 1.73767 0
M  V30 17704 C 1711.73 -1.87731 0.527445 0
M  V30 17705 O 1711 -1.90465 -0.458242 0
M  V30 17706 H 1709.58 -0.383996 0.640747 0
M  V30 17707 H 1712.24 -0.329544 1.92094 0
M  V30 17708 H 1711.34 -1.68393 2.62774 0
M  V30 17709 N 1711.64 -1.47227 -0.562322 0
M  V30 17710 C 1712.6 -1.58887 -1.6519 0
M  V30 17711 C 1713.6 -0.464359 -1.53949 0
M  V30 17712 O 1714.79 -0.729279 -1.582 0
M  V30 17713 C 1711.92 -1.52853 -3.04711 0
M  V30 17714 H 1713.12 -2.5601 -1.56202 0
M  V30 17715 H 1710.67 -1.35341 -0.781832 0
M  V30 17716 H 1711.41 -0.570867 -3.19236 0
M  V30 17717 H 1711.19 -2.3446 -3.14279 0
M  V30 17718 H 1712.68 -1.6414 -3.83989 0
M  V30 17719 N 1713.12 0.808639 -1.35273 0
M  V30 17720 C 1714.37 1.56071 -1.27768 0
M  V30 17721 C 1714.68 1.9505 0.146545 0
M  V30 17722 O 1715.89 2.69314 0.343855 0
M  V30 17723 C 1714.34 2.81648 -2.24059 0
M  V30 17724 C 1713.95 2.49915 -3.71815 0
M  V30 17725 C 1715.69 3.59658 -2.25492 0
M  V30 17726 C 1713.6 3.7177 -4.59936 0
M  V30 17727 H 1712.53 0.585811 -0.474701 0
M  V30 17728 H 1715.18 0.889051 -1.60525 0
M  V30 17729 H 1713.56 3.50514 -1.84271 0
M  V30 17730 H 1714.74 1.89068 -4.20226 0
M  V30 17731 H 1713.05 1.85154 -3.72971 0
M  V30 17732 H 1715.65 4.50162 -2.88545 0
M  V30 17733 H 1715.99 3.96835 -1.2581 0
M  V30 17734 H 1716.53 2.97751 -2.63798 0
M  V30 17735 H 1713.26 3.39704 -5.60608 0
M  V30 17736 H 1712.78 4.3185 -4.16252 0
M  V30 17737 H 1714.46 4.39022 -4.75256 0
M  V30 17738 N 1714.6 1.19237 1.03055 0
M  V30 17739 C 1715.54 0.925171 2.13409 0
M  V30 17740 C 1716.54 -0.118373 1.68986 0
M  V30 17741 O 1717.74 0.0307159 1.79974 0
M  V30 17742 H 1714.12 0.281769 0.697216 0
M  V30 17743 H 1716.09 1.86252 2.33137 0
M  V30 17744 C 1714.84 0.478529 3.44391 0
M  V30 17745 H 1714.16 1.27305 3.7899 0
M  V30 17746 H 1715.6 0.330661 4.22709 0
M  V30 17747 C 1714.06 -0.80715 3.27088 0
M  V30 17748 O 1714.59 -1.86897 3.55573 0
M  V30 17749 N 1712.8 -0.76373 2.80385 0
M  V30 17750 H 1712.34 0.100606 2.57403 0
M  V30 17751 H 1712.3 -1.62435 2.69188 0
M  V30 17752 N 1716.07 -1.22136 0.99602 0
M  V30 17753 C 1717.04 -2.22404 0.553986 0
M  V30 17754 C 1718.04 -1.56607 -0.364832 0
M  V30 17755 O 1719.23 -1.73497 -0.156358 0
M  V30 17756 C 1716.36 -3.40349 -0.193794 0
M  V30 17757 H 1717.55 -2.63026 1.44075 0
M  V30 17758 H 1715.11 -1.35241 0.78356 0
M  V30 17759 H 1715.84 -3.05204 -1.0964 0
M  V30 17760 H 1715.63 -3.89321 0.465972 0
M  V30 17761 H 1717.12 -4.14702 -0.491121 0
M  V30 17762 N 1717.55 -0.769612 -1.37531 0
M  V30 17763 C 1718.52 -0.160716 -2.28636 0
M  V30 17764 C 1719.52 0.630362 -1.47929 0
M  V30 17765 O 1720.71 0.454265 -1.68173 0
M  V30 17766 C 1717.84 0.779904 -3.31859 0
M  V30 17767 H 1719.03 -0.963794 -2.83991 0
M  V30 17768 H 1716.58 -0.537678 -1.46761 0
M  V30 17769 H 1717.32 1.60807 -2.81623 0
M  V30 17770 H 1717.1 0.21485 -3.91511 0
M  V30 17771 H 1718.59 1.20143 -3.99944 0
M  V30 17772 N 1719.03 1.48775 -0.519977 0
M  V30 17773 C 1720.26 2.07394 0.0161061 0
M  V30 17774 C 1720.68 1.37532 1.28322 0
M  V30 17775 O 1720.04 0.438049 1.75928 0
M  V30 17776 C 1720.09 3.59844 0.233382 0
M  V30 17777 O 1719.19 3.91235 1.30418 0
M  V30 17778 H 1718.53 0.663094 -0.0346678 0
M  V30 17779 H 1721.06 1.91323 -0.725029 0
M  V30 17780 H 1721.07 4.05409 0.45911 0
M  V30 17781 H 1719.75 4.10098 -0.69229 0
M  V30 17782 H 1718.32 3.5746 1.0619 0
M  V30 17783 N 1720.51 0.254649 1.55529 0
M  V30 17784 C 1721.46 -0.64162 2.21702 0
M  V30 17785 C 1722.43 -1.16544 1.1835 0
M  V30 17786 O 1723.61 -1.2185 1.46824 0
M  V30 17787 C 1720.75 -1.82935 2.92624 0
M  V30 17788 C 1719.86 -1.34132 4.10649 0
M  V30 17789 C 1719 -2.48922 4.69267 0
M  V30 17790 C 1718.04 -1.9702 5.79525 0
M  V30 17791 N 1717.17 -3.05206 6.32293 0
M  V30 17792 H 1722.01 -0.0706476 2.97916 0
M  V30 17793 H 1719.55 -0.0231077 1.47082 0
M  V30 17794 H 1721.51 -2.52719 3.31947 0
M  V30 17795 H 1720.14 -2.37267 2.1887 0
M  V30 17796 H 1719.19 -0.53726 3.76587 0
M  V30 17797 H 1720.5 -0.921003 4.90223 0
M  V30 17798 H 1719.66 -3.26735 5.11203 0
M  V30 17799 H 1718.4 -2.94259 3.88925 0
M  V30 17800 H 1717.4 -1.17679 5.37058 0
M  V30 17801 H 1718.63 -1.52643 6.61723 0
M  V30 17802 H 1716.57 -3.49963 5.54853 0
M  V30 17803 H 1716.49 -2.67528 7.07082 0
M  V30 17804 H 1717.76 -3.83055 6.78888 0
M  V30 17805 N 1721.99 -1.57589 -0.0183649 0
M  V30 17806 C 1723.23 -1.89382 -0.705612 0
M  V30 17807 C 1723.56 -0.853698 -1.7532 0
M  V30 17808 O 1722.83 0.111322 -1.95583 0
M  V30 17809 H 1721.41 -0.698943 -0.263605 0
M  V30 17810 H 1724.07 -1.94891 0.0182168 0
M  V30 17811 H 1723.16 -2.88587 -1.18845 0
M  V30 17812 N 1723.46 0.290824 -1.54893 0
M  V30 17813 C 1724.43 1.34215 -1.85793 0
M  V30 17814 C 1725.43 1.43204 -0.731393 0
M  V30 17815 O 1726.62 1.42663 -0.999647 0
M  V30 17816 C 1723.75 2.72577 -2.0473 0
M  V30 17817 H 1724.94 1.08056 -2.79757 0
M  V30 17818 H 1722.5 0.528008 -1.47111 0
M  V30 17819 H 1723.23 3.03943 -1.13088 0
M  V30 17820 H 1723.02 2.67442 -2.86736 0
M  V30 17821 H 1724.51 3.48573 -2.29971 0
M  V30 17822 N 1724.94 1.47523 0.554506 0
M  V30 17823 C 1726.19 1.54515 1.3135 0
M  V30 17824 C 1726.52 0.207892 1.93084 0
M  V30 17825 O 1725.8 -0.783749 1.7801 0
M  V30 17826 C 1726.08 2.66519 2.42156 0
M  V30 17827 C 1725.93 4.0987 1.85274 0
M  V30 17828 C 1727.25 2.74418 3.44068 0
M  V30 17829 H 1724.37 0.562481 0.476219 0
M  V30 17830 H 1727.01 1.79591 0.620246 0
M  V30 17831 H 1725.16 2.45268 3.0129 0
M  V30 17832 H 1726.83 4.42492 1.3038 0
M  V30 17833 H 1725.08 4.18021 1.15934 0
M  V30 17834 H 1725.75 4.84017 2.65389 0
M  V30 17835 H 1728.22 2.93596 2.94857 0
M  V30 17836 H 1727.1 3.54557 4.19023 0
M  V30 17837 H 1727.36 1.81584 4.03088 0
M  V30 17838 N 1726.42 -0.801453 1.357 0
M  V30 17839 C 1727.35 -1.92179 1.24899 0
M  V30 17840 C 1728.37 -1.61898 0.171131 0
M  V30 17841 O 1729.55 -1.73371 0.42484 0
M  V30 17842 C 1726.65 -3.26684 0.901706 0
M  V30 17843 C 1725.83 -3.84833 2.07899 0
M  V30 17844 C 1724.89 -4.97754 1.70667 0
M  V30 17845 O 1723.91 -5.14909 2.42605 0
M  V30 17846 N 1725.11 -5.77035 0.633294 0
M  V30 17847 H 1727.88 -2.0197 2.21423 0
M  V30 17848 H 1725.44 -0.979132 1.28936 0
M  V30 17849 H 1727.43 -3.99703 0.63402 0
M  V30 17850 H 1726 -3.12589 0.0259836 0
M  V30 17851 H 1725.22 -3.03947 2.51018 0
M  V30 17852 H 1726.51 -4.20415 2.86581 0
M  V30 17853 H 1725.91 -5.65689 0.0357078 0
M  V30 17854 H 1724.47 -6.5041 0.425402 0
M  V30 17855 N 1727.9 -1.19782 -1.02421 0
M  V30 17856 C 1728.85 -0.93978 -2.108 0
M  V30 17857 C 1729.82 0.12716 -1.65613 0
M  V30 17858 O 1731 -0.0159669 -1.90793 0
M  V30 17859 C 1728.14 -0.489656 -3.41609 0
M  V30 17860 C 1727.25 -1.62389 -4.00317 0
M  V30 17861 C 1726.39 -1.12483 -5.19154 0
M  V30 17862 C 1725.43 -2.23266 -5.69929 0
M  V30 17863 N 1724.56 -1.74633 -6.80035 0
M  V30 17864 H 1729.4 -1.8677 -2.32209 0
M  V30 17865 H 1726.94 -0.931082 -1.13883 0
M  V30 17866 H 1728.9 -0.210049 -4.16671 0
M  V30 17867 H 1727.53 0.40127 -3.20296 0
M  V30 17868 H 1726.58 -2.0186 -3.22423 0
M  V30 17869 H 1727.89 -2.45836 -4.34011 0
M  V30 17870 H 1727.05 -0.800737 -6.01393 0
M  V30 17871 H 1725.79 -0.260155 -4.87006 0
M  V30 17872 H 1724.79 -2.56501 -4.863 0
M  V30 17873 H 1726.02 -3.10197 -6.04115 0
M  V30 17874 H 1723.96 -0.904804 -6.4973 0
M  V30 17875 H 1723.88 -2.51666 -7.12882 0
M  V30 17876 H 1725.15 -1.45201 -7.65857 0
M  V30 17877 N 1729.38 1.21606 -1.00248 0
M  V30 17878 C 1730.29 2.2757 -0.570004 0
M  V30 17879 C 1731.3 1.69669 0.385788 0
M  V30 17880 O 1732.48 1.99839 0.250246 0
M  V30 17881 C 1729.54 3.46558 0.0990566 0
M  V30 17882 C 1728.61 4.19741 -0.9009 0
M  V30 17883 C 1727.84 5.33048 -0.263673 0
M  V30 17884 O 1728.06 5.62599 0.940131 0
M  V30 17885 O 1727 5.93978 -0.973342 0
M  V30 17886 H 1730.82 2.66751 -1.45182 0
M  V30 17887 H 1728.41 1.27955 -0.771224 0
M  V30 17888 H 1730.29 4.18733 0.47339 0
M  V30 17889 H 1728.96 3.09283 0.955285 0
M  V30 17890 H 1727.87 3.49798 -1.32634 0
M  V30 17891 H 1729.2 4.60921 -1.72664 0
M  V30 17892 N 1730.86 0.776895 1.37121 0
M  V30 17893 C 1732.08 0.353911 2.04358 0
M  V30 17894 C 1732.51 -1.01745 1.58207 0
M  V30 17895 O 1731.86 -1.653 0.744691 0
M  V30 17896 C 1731.91 0.411918 3.5824 0
M  V30 17897 O 1731.02 -0.58576 4.08219 0
M  V30 17898 H 1730.36 0.152335 0.64629 0
M  V30 17899 H 1732.89 1.05452 1.75331 0
M  V30 17900 H 1732.9 0.271043 4.07099 0
M  V30 17901 H 1731.57 1.41236 3.91185 0
M  V30 17902 H 1730.15 -0.40758 3.70666 0
M  V30 17903 N 1732.33 -1.48497 0.527859 0
M  V30 17904 C 1733.61 -1.9547 -0.0713049 0
M  V30 17905 C 1733.99 -1.47005 -1.51502 0
M  V30 17906 O 1733.34 -0.695609 -2.17655 0
M  V30 17907 C 1733.55 -3.48973 0.0437547 0
M  V30 17908 C 1734.9 -4.2444 -0.116591 0
M  V30 17909 O 1735.92 -3.56187 -0.0301431 0
M  V30 17910 O 1734.78 -5.4569 -0.297491 0
M  V30 17911 H 1731.87 -0.823075 -0.080474 0
M  V30 17912 H 1734.42 -1.59028 0.592307 0
M  V30 17913 H 1733.19 -3.76963 1.04952 0
M  V30 17914 H 1732.81 -3.92104 -0.658803 0
M  V30 17915 N 1733.81 -0.262893 -1.55392 0
M  V30 17916 C 1734.72 0.640223 -2.25695 0
M  V30 17917 C 1735.74 1.18019 -1.27857 0
M  V30 17918 O 1736.91 1.21308 -1.60768 0
M  V30 17919 C 1733.98 1.81336 -2.95497 0
M  V30 17920 C 1733.04 1.31128 -4.08784 0
M  V30 17921 C 1732.27 2.4285 -4.75247 0
M  V30 17922 O 1732.5 3.61939 -4.40859 0
M  V30 17923 O 1731.43 2.11699 -5.63442 0
M  V30 17924 H 1735.26 0.0710781 -3.03617 0
M  V30 17925 H 1732.84 -0.030765 -1.49368 0
M  V30 17926 H 1734.72 2.49764 -3.39406 0
M  V30 17927 H 1733.4 2.36982 -2.20502 0
M  V30 17928 H 1732.3 0.593816 -3.69357 0
M  V30 17929 H 1733.64 0.800711 -4.85643 0
M  V30 17930 N 1735.29 1.57597 0.0100073 0
M  V30 17931 C 1736.52 1.9412 0.707165 0
M  V30 17932 C 1736.93 0.862669 1.68388 0
M  V30 17933 O 1736.27 -0.167949 1.82931 0
M  V30 17934 C 1736.33 3.26571 1.50306 0
M  V30 17935 C 1736 4.51776 0.689031 0
M  V30 17936 C 1736.99 5.19897 -0.018977 0
M  V30 17937 C 1734.68 4.98232 0.637951 0
M  V30 17938 C 1736.67 6.32766 -0.76716 0
M  V30 17939 C 1734.36 6.10994 -0.113964 0
M  V30 17940 C 1735.36 6.78117 -0.815262 0
M  V30 17941 O 1735.05 7.88719 -1.55493 0
M  V30 17942 H 1734.78 0.644932 0.202579 0
M  V30 17943 H 1737.33 2.05372 -0.0341978 0
M  V30 17944 H 1735.56 3.11699 2.28868 0
M  V30 17945 H 1737.25 3.4828 2.08461 0
M  V30 17946 H 1738.02 4.84999 0.0113968 0
M  V30 17947 H 1733.9 4.45818 1.17333 0
M  V30 17948 H 1737.44 6.85092 -1.31508 0
M  V30 17949 H 1733.34 6.45334 -0.146194 0
M  V30 17950 H 1734.1 8.05181 -1.47059 0
M  V30 17951 N 1736.77 -0.282606 1.55045 0
M  V30 17952 C 1738.02 -1.0132 1.74405 0
M  V30 17953 C 1738.33 -1.87792 0.547133 0
M  V30 17954 O 1739.54 -2.64257 0.622931 0
M  V30 17955 C 1737.99 -1.85128 3.08635 0
M  V30 17956 C 1737.6 -1.0357 4.35864 0
M  V30 17957 C 1739.34 -2.57676 3.37347 0
M  V30 17958 C 1737.25 -1.86761 5.61137 0
M  V30 17959 H 1736.18 -0.382013 0.650063 0
M  V30 17960 H 1738.83 -0.269307 1.81513 0
M  V30 17961 H 1737.21 -2.63576 2.95539 0
M  V30 17962 H 1738.39 -0.296061 4.59848 0
M  V30 17963 H 1736.7 -0.425208 4.14223 0
M  V30 17964 H 1739.3 -3.20303 4.28147 0
M  V30 17965 H 1739.64 -3.27464 2.57046 0
M  V30 17966 H 1740.18 -1.86264 3.51497 0
M  V30 17967 H 1736.91 -1.2141 6.44158 0
M  V30 17968 H 1736.43 -2.58348 5.4131 0
M  V30 17969 H 1738.11 -2.44361 5.9908 0
M  V30 17970 N 1738.25 -1.47815 -0.546675 0
M  V30 17971 C 1739.18 -1.63976 -1.66235 0
M  V30 17972 C 1740.16 -0.488945 -1.62921 0
M  V30 17973 O 1741.34 -0.719532 -1.80378 0
M  V30 17974 C 1738.47 -1.6637 -3.04858 0
M  V30 17975 C 1737.43 -2.80785 -3.23023 0
M  V30 17976 C 1736.75 -2.68257 -4.62539 0
M  V30 17977 C 1738.05 -4.22267 -3.07388 0
M  V30 17978 H 1739.75 -2.57375 -1.52965 0
M  V30 17979 H 1737.29 -1.23861 -0.734465 0
M  V30 17980 H 1739.24 -1.76266 -3.82764 0
M  V30 17981 H 1737.97 -0.695386 -3.19111 0
M  V30 17982 H 1736.63 -2.70417 -2.47529 0
M  V30 17983 H 1736.28 -1.69431 -4.73606 0
M  V30 17984 H 1735.98 -3.45022 -4.75641 0
M  V30 17985 H 1737.5 -2.80097 -5.42566 0
M  V30 17986 H 1738.91 -4.33557 -3.75102 0
M  V30 17987 H 1737.31 -4.999 -3.31994 0
M  V30 17988 H 1738.38 -4.39897 -2.04006 0
M  V30 17989 N 1739.72 0.794246 -1.36123 0
M  V30 17990 C 1740.69 1.88828 -1.2991 0
M  V30 17991 C 1741.69 1.59451 -0.207839 0
M  V30 17992 O 1742.88 1.67953 -0.462321 0
M  V30 17993 C 1740.01 3.25511 -1.01269 0
M  V30 17994 H 1741.2 1.95753 -2.27202 0
M  V30 17995 H 1738.75 0.991505 -1.20826 0
M  V30 17996 H 1739.49 3.2427 -0.0441535 0
M  V30 17997 H 1739.27 3.48221 -1.80234 0
M  V30 17998 H 1740.76 4.0557 -0.995142 0
M  V30 17999 N 1741.2 1.20323 1.01785 0
M  V30 18000 C 1742.15 0.950946 2.10299 0
M  V30 18001 C 1743.12 -0.118376 1.65678 0
M  V30 18002 O 1744.3 0.0260849 1.90782 0
M  V30 18003 C 1741.44 0.507765 3.41344 0
M  V30 18004 C 1740.56 1.6451 3.9945 0
M  V30 18005 C 1739.69 1.15235 5.1855 0
M  V30 18006 C 1738.73 2.26285 5.68737 0
M  V30 18007 N 1737.87 1.78237 6.79099 0
M  V30 18008 H 1742.71 1.87999 2.31215 0
M  V30 18009 H 1740.24 0.937108 1.13387 0
M  V30 18010 H 1742.2 0.232143 4.16554 0
M  V30 18011 H 1740.83 -0.384278 3.20505 0
M  V30 18012 H 1739.88 2.03567 3.21348 0
M  V30 18013 H 1741.2 2.48135 4.32702 0
M  V30 18014 H 1740.35 0.832619 6.0096 0
M  V30 18015 H 1739.09 0.285978 4.86861 0
M  V30 18016 H 1738.09 2.59076 4.84933 0
M  V30 18017 H 1739.32 3.13397 6.02461 0
M  V30 18018 H 1737.27 0.939248 6.49241 0
M  V30 18019 H 1737.18 2.55443 7.11537 0
M  V30 18020 H 1738.45 1.4926 7.65076 0
M  V30 18021 N 1742.68 -1.21073 1.00892 0
M  V30 18022 C 1743.93 -1.89866 0.69248 0
M  V30 18023 C 1744.25 -1.7874 -0.779562 0
M  V30 18024 O 1743.52 -1.18482 -1.56009 0
M  V30 18025 H 1742.1 -0.702799 0.253145 0
M  V30 18026 H 1744.76 -1.47075 1.27887 0
M  V30 18027 H 1743.86 -2.96673 0.969098 0
M  V30 18028 N 1744.16 -0.784156 -1.36707 0
M  V30 18029 C 1745.57 -0.417967 -1.81961 0
M  V30 18030 C 1745.92 1.05746 -1.65264 0
M  V30 18031 O 1745.05 1.82003 -1.17064 0
M  V30 18032 C 1745.64 -0.751869 -3.30352 0
M  V30 18033 C 1744.2 -0.438578 -3.73836 0
M  V30 18034 C 1743.35 -0.989262 -2.59054 0
M  V30 18035 H 1746.3 -0.977754 -1.25003 0
M  V30 18036 H 1746.32 -0.041034 -3.80478 0
M  V30 18037 H 1745.83 -1.82576 -3.42473 0
M  V30 18038 H 1743.93 0.627493 -3.67278 0
M  V30 18039 H 1744.04 -0.955508 -4.69475 0
M  V30 18040 H 1742.41 -0.412783 -2.51333 0
M  V30 18041 H 1743.19 -2.06881 -2.73962 0
M  V30 18042 N 1745.64 1.48215 -0.535727 0
M  V30 18043 C 1746.57 2.3253 0.212562 0
M  V30 18044 C 1747.55 1.42454 0.929568 0
M  V30 18045 O 1748.73 1.71334 0.914228 0
M  V30 18046 C 1745.86 3.23777 1.25641 0
M  V30 18047 C 1744.82 4.22924 0.657191 0
M  V30 18048 C 1744.14 5.03345 1.80411 0
M  V30 18049 C 1745.44 5.20953 -0.374902 0
M  V30 18050 H 1747.14 2.95341 -0.491301 0
M  V30 18051 H 1744.68 1.42024 -0.237718 0
M  V30 18052 H 1746.64 3.81592 1.78789 0
M  V30 18053 H 1745.36 2.58978 1.98993 0
M  V30 18054 H 1744.02 3.66304 0.147184 0
M  V30 18055 H 1743.67 4.34965 2.52615 0
M  V30 18056 H 1743.37 5.70455 1.40906 0
M  V30 18057 H 1744.89 5.64013 2.33926 0
M  V30 18058 H 1746.3 5.73258 0.0697072 0
M  V30 18059 H 1744.7 5.96147 -0.687646 0
M  V30 18060 H 1745.77 4.67739 -1.27861 0
M  V30 18061 N 1747.11 0.27113 1.5525 0
M  V30 18062 C 1748.05 -0.651235 2.19753 0
M  V30 18063 C 1749.06 -1.12051 1.18104 0
M  V30 18064 O 1750.25 -1.0431 1.44851 0
M  V30 18065 C 1747.35 -1.89985 2.8064 0
M  V30 18066 C 1746.52 -1.57805 4.07942 0
M  V30 18067 C 1745.58 -2.67872 4.52914 0
M  V30 18068 O 1744.61 -2.34228 5.18774 0
M  V30 18069 N 1745.81 -3.97854 4.22721 0
M  V30 18070 H 1748.57 -0.0991913 2.99536 0
M  V30 18071 H 1746.13 0.0920667 1.61638 0
M  V30 18072 H 1748.13 -2.62907 3.07672 0
M  V30 18073 H 1746.7 -2.36105 2.04874 0
M  V30 18074 H 1745.92 -0.682852 3.88241 0
M  V30 18075 H 1747.2 -1.33801 4.90892 0
M  V30 18076 H 1746.6 -4.28011 3.69897 0
M  V30 18077 H 1745.16 -4.67165 4.54533 0
M  V30 18078 N 1748.59 -1.576 -0.00164943 0
M  V30 18079 C 1749.84 -1.90778 -0.68786 0
M  V30 18080 C 1750.17 -0.872138 -1.73515 0
M  V30 18081 O 1749.45 0.109349 -1.94192 0
M  V30 18082 C 1749.73 -3.34539 -1.3325 0
M  V30 18083 C 1749.58 -4.48819 -0.296862 0
M  V30 18084 C 1750.9 -3.77693 -2.25911 0
M  V30 18085 H 1748.02 -0.69381 -0.24859 0
M  V30 18086 H 1750.66 -1.89936 0.0493059 0
M  V30 18087 H 1748.81 -3.35388 -1.9608 0
M  V30 18088 H 1750.48 -4.60106 0.331635 0
M  V30 18089 H 1748.73 -4.32123 0.38105 0
M  V30 18090 H 1749.4 -5.46362 -0.786927 0
M  V30 18091 H 1751.87 -3.78386 -1.73099 0
M  V30 18092 H 1750.75 -4.79037 -2.67983 0
M  V30 18093 H 1751.01 -3.11469 -3.1375 0
M  V30 18094 N 1750.07 0.274379 -1.55193 0
M  V30 18095 C 1751.32 1.00418 -1.75387 0
M  V30 18096 C 1751.64 1.86868 -0.557244 0
M  V30 18097 O 1750.91 1.9117 0.427883 0
M  V30 18098 H 1749.49 0.373753 -0.646775 0
M  V30 18099 H 1752.15 0.298942 -1.92594 0
M  V30 18100 H 1751.25 1.64191 -2.6542 0
M  V30 18101 N 1751.55 1.48103 0.538828 0
M  V30 18102 C 1752.83 1.46155 1.29992 0
M  V30 18103 C 1753.21 0.16841 2.10427 0
M  V30 18104 O 1752.55 -0.849967 2.12103 0
M  V30 18105 C 1752.76 2.71826 2.18888 0
M  V30 18106 C 1754.11 3.19794 2.79315 0
M  V30 18107 O 1755.14 2.72681 2.2918 0
M  V30 18108 O 1753.99 4.0175 3.70485 0
M  V30 18109 H 1751.09 0.583293 0.586258 0
M  V30 18110 H 1753.63 1.60326 0.556212 0
M  V30 18111 H 1752.41 3.57462 1.59176 0
M  V30 18112 H 1752.03 2.60332 3.00521 0
M  V30 18113 N 1753.03 -0.787016 1.36542 0
M  V30 18114 C 1754.25 -1.58103 1.34231 0
M  V30 18115 C 1754.68 -1.87956 -0.0734932 0
M  V30 18116 O 1754.03 -1.48073 -1.04615 0
M  V30 18117 C 1754.08 -2.87739 2.17345 0
M  V30 18118 O 1753.19 -3.81445 1.56759 0
M  V30 18119 H 1752.53 -0.479495 0.459326 0
M  V30 18120 H 1755.06 -0.975294 1.79859 0
M  V30 18121 H 1755.07 -3.36986 2.3001 0
M  V30 18122 H 1753.74 -2.65338 3.20264 0
M  V30 18123 H 1752.32 -3.40046 1.53047 0
M  V30 18124 N 1754.5 -1.20861 -1.01145 0
M  V30 18125 C 1755.75 -1.02343 -1.75082 0
M  V30 18126 C 1756.08 0.44278 -1.89085 0
M  V30 18127 O 1755.36 1.32867 -1.42045 0
M  V30 18128 C 1755.64 -1.71368 -3.1671 0
M  V30 18129 C 1755.49 -3.25466 -3.1047 0
M  V30 18130 C 1756.81 -1.45097 -4.15494 0
M  V30 18131 H 1753.93 -0.373198 -0.635525 0
M  V30 18132 H 1756.57 -1.48947 -1.17961 0
M  V30 18133 H 1754.72 -1.31746 -3.6548 0
M  V30 18134 H 1756.4 -3.74415 -2.69464 0
M  V30 18135 H 1754.64 -3.56104 -2.47735 0
M  V30 18136 H 1755.31 -3.68924 -4.10608 0
M  V30 18137 H 1757.79 -1.7948 -3.75401 0
M  V30 18138 H 1756.66 -1.95917 -5.12745 0
M  V30 18139 H 1756.92 -0.379628 -4.40467 0
M  V30 18140 N 1755.98 1.20536 -1.01532 0
M  V30 18141 C 1756.91 2.2553 -0.604866 0
M  V30 18142 C 1757.89 1.65814 0.379452 0
M  V30 18143 O 1759.08 1.92381 0.265162 0
M  V30 18144 C 1756.21 3.4725 0.0589292 0
M  V30 18145 C 1755.16 4.19551 -0.846241 0
M  V30 18146 C 1754.49 5.34678 -0.0482901 0
M  V30 18147 C 1755.79 4.75829 -2.1537 0
M  V30 18148 H 1757.48 2.60117 -1.48254 0
M  V30 18149 H 1755.03 1.25035 -0.714297 0
M  V30 18150 H 1756.98 4.1988 0.357627 0
M  V30 18151 H 1755.71 3.11822 0.97131 0
M  V30 18152 H 1754.36 3.48785 -1.12892 0
M  V30 18153 H 1754.01 4.95494 0.8657 0
M  V30 18154 H 1753.71 5.83982 -0.651081 0
M  V30 18155 H 1755.24 6.10112 0.243983 0
M  V30 18156 H 1756.65 5.40284 -1.91745 0
M  V30 18157 H 1755.05 5.35564 -2.70723 0
M  V30 18158 H 1756.12 3.94641 -2.81756 0
M  V30 18159 N 1757.46 0.791395 1.36289 0
M  V30 18160 C 1758.39 0.205419 2.32595 0
M  V30 18161 C 1759.37 -0.660696 1.56744 0
M  V30 18162 O 1760.56 -0.594111 1.84889 0
M  V30 18163 C 1757.69 -0.659018 3.4099 0
M  V30 18164 C 1756.64 0.107364 4.27865 0
M  V30 18165 C 1755.97 -0.877795 5.27446 0
M  V30 18166 C 1757.27 1.29769 5.05922 0
M  V30 18167 H 1758.96 1.00999 2.8185 0
M  V30 18168 H 1756.51 0.487122 1.35511 0
M  V30 18169 H 1758.46 -1.07891 4.07354 0
M  V30 18170 H 1757.18 -1.49632 2.90307 0
M  V30 18171 H 1755.84 0.508253 3.6306 0
M  V30 18172 H 1755.49 -1.71018 4.73035 0
M  V30 18173 H 1755.19 -0.369429 5.86438 0
M  V30 18174 H 1756.71 -1.29621 5.96683 0
M  V30 18175 H 1758.13 0.953463 5.65316 0
M  V30 18176 H 1756.53 1.73949 5.74336 0
M  V30 18177 H 1757.6 2.09205 4.37449 0
M  V30 18178 N 1758.94 -1.47929 0.54358 0
M  V30 18179 C 1759.87 -2.27843 -0.249005 0
M  V30 18180 C 1760.88 -1.36189 -0.891987 0
M  V30 18181 O 1762.07 -1.61127 -0.768135 0
M  V30 18182 C 1759.17 -3.10016 -1.36906 0
M  V30 18183 C 1758.35 -4.29541 -0.82545 0
M  V30 18184 C 1757.41 -4.93416 -1.82831 0
M  V30 18185 O 1756.43 -5.52222 -1.37984 0
M  V30 18186 N 1757.63 -4.86881 -3.16113 0
M  V30 18187 H 1760.4 -2.96505 0.436436 0
M  V30 18188 H 1757.96 -1.57407 0.378774 0
M  V30 18189 H 1759.95 -3.49616 -2.0384 0
M  V30 18190 H 1758.52 -2.43686 -1.95796 0
M  V30 18191 H 1757.74 -3.94195 0.0202776 0
M  V30 18192 H 1759.03 -5.06882 -0.441368 0
M  V30 18193 H 1758.43 -4.4028 -3.55205 0
M  V30 18194 H 1756.98 -5.30541 -3.78642 0
M  V30 18195 N 1760.42 -0.27936 -1.55104 0
M  V30 18196 C 1761.67 0.335541 -1.99295 0
M  V30 18197 C 1761.99 1.56059 -1.16921 0
M  V30 18198 O 1761.26 1.9417 -0.259773 0
M  V30 18199 H 1759.84 0.126968 -0.736131 0
M  V30 18200 H 1762.5 -0.385679 -1.91046 0
M  V30 18201 H 1761.59 0.622493 -3.05829 0
M  V30 18202 N 1761.9 1.57599 -0.0067085 0
M  V30 18203 C 1762.85 2.05327 0.991194 0
M  V30 18204 C 1763.83 0.949302 1.29912 0
M  V30 18205 O 1765.02 1.21303 1.28898 0
M  V30 18206 C 1762.15 2.56563 2.28102 0
M  V30 18207 C 1761.24 3.73849 2.00244 0
M  V30 18208 N 1761.63 4.85291 1.4257 0
M  V30 18209 C 1759.93 3.81908 2.30353 0
M  V30 18210 C 1760.63 5.6668 1.31336 0
M  V30 18211 N 1759.6 5.12889 1.80127 0
M  V30 18212 H 1763.4 2.88899 0.539877 0
M  V30 18213 H 1760.92 1.61178 0.198835 0
M  V30 18214 H 1762.92 2.89035 3.0044 0
M  V30 18215 H 1761.58 1.74412 2.7388 0
M  V30 18216 H 1762.59 5.06004 1.10363 0
M  V30 18217 H 1759.26 3.10624 2.7896 0
M  V30 18218 H 1760.65 6.66253 0.869302 0
M  V30 18219 N 1763.37 -0.266145 1.55336 0
M  V30 18220 C 1764.6 -1.01915 1.80633 0
M  V30 18221 C 1765.02 -1.78897 0.581172 0
M  V30 18222 O 1764.38 -1.75118 -0.469399 0
M  V30 18223 C 1764.43 -1.948 3.03456 0
M  V30 18224 O 1763.53 -3.03678 2.79022 0
M  V30 18225 H 1762.87 -0.29102 0.596828 0
M  V30 18226 H 1765.4 -0.292973 2.02492 0
M  V30 18227 H 1765.41 -2.36626 3.32373 0
M  V30 18228 H 1764.09 -1.38182 3.92273 0
M  V30 18229 H 1762.67 -2.66118 2.61219 0
M  V30 18230 N 1764.85 -1.48386 -0.530967 0
M  V30 18231 C 1765.78 -1.6573 -1.64486 0
M  V30 18232 C 1766.76 -0.506198 -1.62393 0
M  V30 18233 O 1767.95 -0.738623 -1.79605 0
M  V30 18234 C 1765.08 -1.69594 -3.03076 0
M  V30 18235 C 1764.03 -2.84195 -3.20027 0
M  V30 18236 C 1763.36 -2.73148 -4.59668 0
M  V30 18237 C 1764.66 -4.25504 -3.02892 0
M  V30 18238 H 1766.35 -2.58983 -1.50227 0
M  V30 18239 H 1763.9 -1.24633 -0.721286 0
M  V30 18240 H 1765.85 -1.80316 -3.80873 0
M  V30 18241 H 1764.57 -0.729193 -3.18356 0
M  V30 18242 H 1763.23 -2.73027 -2.44647 0
M  V30 18243 H 1762.88 -1.74444 -4.71782 0
M  V30 18244 H 1762.58 -3.50047 -4.71954 0
M  V30 18245 H 1764.11 -2.85836 -5.39565 0
M  V30 18246 H 1765.52 -4.37511 -3.70482 0
M  V30 18247 H 1763.92 -5.03393 -3.26673 0
M  V30 18248 H 1764.99 -4.42036 -1.99329 0
M  V30 18249 N 1766.33 0.779763 -1.36958 0
M  V30 18250 C 1767.29 1.87439 -1.31906 0
M  V30 18251 C 1768.29 1.59222 -0.224739 0
M  V30 18252 O 1769.48 1.67453 -0.480109 0
M  V30 18253 C 1766.61 3.24419 -1.04716 0
M  V30 18254 H 1767.81 1.93333 -2.29265 0
M  V30 18255 H 1765.36 0.978634 -1.21871 0
M  V30 18256 H 1766.1 3.24205 -0.0785442 0
M  V30 18257 H 1765.88 3.4629 -1.83917 0
M  V30 18258 H 1767.37 4.04491 -1.0381 0
M  V30 18259 N 1767.81 1.21396 1.00503 0
M  V30 18260 C 1768.75 0.973198 2.09279 0
M  V30 18261 C 1769.72 -0.100797 1.65794 0
M  V30 18262 O 1770.91 0.0463185 1.90744 0
M  V30 18263 C 1768.05 0.543941 3.40786 0
M  V30 18264 C 1767.16 1.68737 3.97683 0
M  V30 18265 C 1766.3 1.20728 5.17299 0
M  V30 18266 C 1765.34 2.32305 5.66305 0
M  V30 18267 N 1764.47 1.8543 6.77171 0
M  V30 18268 H 1769.31 1.90441 2.29208 0
M  V30 18269 H 1766.85 0.949082 1.12387 0
M  V30 18270 H 1768.81 0.276311 4.16284 0
M  V30 18271 H 1767.44 -0.350263 3.20894 0
M  V30 18272 H 1766.49 2.06964 3.19171 0
M  V30 18273 H 1767.8 2.5271 4.30045 0
M  V30 18274 H 1766.96 0.896312 6.00043 0
M  V30 18275 H 1765.7 0.3376 4.8653 0
M  V30 18276 H 1764.7 2.64205 4.82158 0
M  V30 18277 H 1765.93 3.19769 5.99103 0
M  V30 18278 H 1763.87 1.00806 6.48208 0
M  V30 18279 H 1763.79 2.62976 7.08788 0
M  V30 18280 H 1765.06 1.57366 7.6345 0
M  V30 18281 N 1769.29 -1.19996 1.0217 0
M  V30 18282 C 1770.23 -2.25 0.589726 0
M  V30 18283 C 1771.23 -1.65218 -0.374086 0
M  V30 18284 O 1772.43 -1.78346 -0.243449 0
M  V30 18285 H 1768.81 -0.731968 0.172416 0
M  V30 18286 H 1770.78 -2.58759 1.48615 0
M  V30 18287 C 1769.53 -3.47663 -0.0509896 0
M  V30 18288 H 1768.85 -3.93946 0.681649 0
M  V30 18289 H 1770.29 -4.22819 -0.316287 0
M  V30 18290 C 1768.75 -3.11001 -1.29538 0
M  V30 18291 O 1769.28 -3.23 -2.38818 0
M  V30 18292 N 1767.49 -2.65502 -1.18141 0
M  V30 18293 H 1767.03 -2.55938 -0.292172 0
M  V30 18294 H 1766.99 -2.41342 -2.01498 0
M  V30 18295 N 1770.76 -0.798611 -1.35867 0
M  V30 18296 C 1772.01 -0.371795 -1.98244 0
M  V30 18297 C 1772.33 1.06474 -1.64081 0
M  V30 18298 O 1773.53 1.59428 -2.19761 0
M  V30 18299 C 1771.99 -0.613821 -3.54627 0
M  V30 18300 C 1771.6 -2.06237 -3.97706 0
M  V30 18301 C 1773.34 -0.251966 -4.23752 0
M  V30 18302 C 1771.25 -2.25057 -5.46903 0
M  V30 18303 H 1770.18 -0.135278 -0.741765 0
M  V30 18304 H 1772.83 -0.981544 -1.55042 0
M  V30 18305 H 1771.21 0.0657688 -3.95945 0
M  V30 18306 H 1772.38 -2.77912 -3.67562 0
M  V30 18307 H 1770.7 -2.38334 -3.41447 0
M  V30 18308 H 1773.3 -0.370736 -5.33413 0
M  V30 18309 H 1773.64 0.800968 -4.08522 0
M  V30 18310 H 1774.17 -0.885155 -3.87827 0
M  V30 18311 H 1770.91 -3.28767 -5.67091 0
M  V30 18312 H 1770.43 -1.57898 -5.78643 0
M  V30 18313 H 1772.11 -2.06219 -6.13256 0
M  V30 18314 N 1772.24 1.47639 -0.551417 0
M  V30 18315 C 1773.17 2.32743 0.187887 0
M  V30 18316 C 1774.15 1.43432 0.914407 0
M  V30 18317 O 1775.34 1.72295 0.896005 0
M  V30 18318 C 1772.47 3.25092 1.22199 0
M  V30 18319 C 1771.42 4.23598 0.612298 0
M  V30 18320 C 1770.75 5.0523 1.75062 0
M  V30 18321 C 1772.05 5.20526 -0.430135 0
M  V30 18322 H 1773.74 2.94804 -0.522598 0
M  V30 18323 H 1771.29 1.41764 -0.252768 0
M  V30 18324 H 1773.24 3.83467 1.74731 0
M  V30 18325 H 1771.96 2.61074 1.96235 0
M  V30 18326 H 1770.62 3.6644 0.108324 0
M  V30 18327 H 1770.27 4.3762 2.47987 0
M  V30 18328 H 1769.97 5.71918 1.34848 0
M  V30 18329 H 1771.5 5.66463 2.27931 0
M  V30 18330 H 1772.91 5.73299 0.00890168 0
M  V30 18331 H 1771.31 5.95384 -0.750836 0
M  V30 18332 H 1772.38 4.66356 -1.32815 0
M  V30 18333 N 1773.72 0.287581 1.54954 0
M  V30 18334 C 1774.67 -0.609238 2.1971 0
M  V30 18335 C 1775.65 -1.10905 1.16571 0
M  V30 18336 O 1776.85 -1.05206 1.4234 0
M  V30 18337 C 1773.98 -1.78705 2.9312 0
M  V30 18338 C 1773.06 -1.30383 4.0356 0
M  V30 18339 N 1773.45 -0.537641 5.02934 0
M  V30 18340 C 1771.75 -1.58573 4.16858 0
M  V30 18341 C 1772.45 -0.281993 5.81016 0
M  V30 18342 N 1771.43 -0.857984 5.36786 0
M  V30 18343 H 1775.23 -0.0161538 2.93896 0
M  V30 18344 H 1772.74 0.0917131 1.62141 0
M  V30 18345 H 1774.74 -2.44095 3.37969 0
M  V30 18346 H 1773.4 -2.38397 2.20448 0
M  V30 18347 H 1774.41 -0.183797 5.17574 0
M  V30 18348 H 1771.09 -2.1911 3.55383 0
M  V30 18349 H 1772.48 0.332479 6.71077 0
M  V30 18350 N 1775.2 -1.57593 0.0150662 0
M  V30 18351 C 1776.44 -1.91497 -0.667587 0
M  V30 18352 C 1776.78 -0.890493 -1.7258 0
M  V30 18353 O 1776.05 0.0887462 -1.94297 0
M  V30 18354 C 1776.34 -3.35934 -1.29694 0
M  V30 18355 C 1776.19 -4.49109 -0.249242 0
M  V30 18356 C 1777.51 -3.80068 -2.21893 0
M  V30 18357 H 1774.63 -0.696408 -0.241217 0
M  V30 18358 H 1777.27 -1.89873 0.0694484 0
M  V30 18359 H 1775.42 -3.37448 -1.92512 0
M  V30 18360 H 1777.09 -4.59729 0.380417 0
M  V30 18361 H 1775.33 -4.31695 0.426861 0
M  V30 18362 H 1776 -5.47166 -0.728934 0
M  V30 18363 H 1778.48 -3.80201 -1.69076 0
M  V30 18364 H 1777.36 -4.81852 -2.62887 0
M  V30 18365 H 1777.62 -3.1478 -3.10429 0
M  V30 18366 N 1776.68 0.257904 -1.55475 0
M  V30 18367 C 1777.92 0.988933 -1.77054 0
M  V30 18368 C 1778.26 1.85387 -0.578375 0
M  V30 18369 O 1777.53 1.8983 0.423673 0
M  V30 18370 C 1777.81 1.85876 -3.08419 0
M  V30 18371 C 1777.67 1.02274 -4.38018 0
M  V30 18372 C 1778.99 2.84322 -3.3593 0
M  V30 18373 H 1776.1 0.358103 -0.644152 0
M  V30 18374 H 1778.75 0.260209 -1.8821 0
M  V30 18375 H 1776.9 2.48008 -2.99039 0
M  V30 18376 H 1778.57 0.420967 -4.59375 0
M  V30 18377 H 1776.81 0.326705 -4.32568 0
M  V30 18378 H 1777.48 1.6649 -5.26294 0
M  V30 18379 H 1779.96 2.32325 -3.45202 0
M  V30 18380 H 1778.83 3.42313 -4.29084 0
M  V30 18381 H 1779.1 3.60223 -2.56304 0
M  V30 18382 N 1778.15 1.48666 0.52309 0
M  V30 18383 C 1779.4 1.56724 1.27601 0
M  V30 18384 C 1779.72 0.245958 1.93443 0
M  V30 18385 O 1778.99 -0.733053 1.81668 0
M  V30 18386 H 1777.57 0.57739 0.473952 0
M  V30 18387 H 1780.24 1.85169 0.608144 0
M  V30 18388 H 1779.33 2.35188 2.05166 0
M  V30 18389 N 1779.63 -0.772489 1.37369 0
M  V30 18390 C 1781.04 -1.34873 1.29098 0
M  V30 18391 C 1781.39 -1.96103 -0.0617433 0
M  V30 18392 O 1780.52 -1.93764 -0.963562 0
M  V30 18393 C 1781.11 -2.45218 2.33781 0
M  V30 18394 C 1779.67 -2.98612 2.29146 0
M  V30 18395 C 1778.82 -1.71823 2.17651 0
M  V30 18396 H 1781.77 -0.572805 1.48002 0
M  V30 18397 H 1781.79 -3.24679 1.98404 0
M  V30 18398 H 1781.3 -2.00624 3.32222 0
M  V30 18399 H 1779.41 -3.47583 1.34225 0
M  V30 18400 H 1779.52 -3.54276 3.22529 0
M  V30 18401 H 1777.88 -1.94719 1.64185 0
M  V30 18402 H 1778.67 -1.29334 3.18006 0
M  V30 18403 N 1781.11 -1.21927 -0.998575 0
M  V30 18404 C 1782.39 -0.949034 -1.71034 0
M  V30 18405 C 1782.77 0.537429 -2.04144 0
M  V30 18406 O 1782.12 1.50398 -1.72026 0
M  V30 18407 C 1782.33 -1.84076 -2.96508 0
M  V30 18408 C 1783.67 -2.09345 -3.69405 0
M  V30 18409 O 1784.7 -1.81477 -3.06504 0
M  V30 18410 O 1783.56 -2.56513 -4.82559 0
M  V30 18411 H 1780.65 -0.356423 -0.746252 0
M  V30 18412 H 1783.2 -1.32886 -1.05543 0
M  V30 18413 H 1781.97 -2.84647 -2.68499 0
M  V30 18414 H 1781.59 -1.46215 -3.69739 0
M  V30 18415 N 1782.59 1.19452 -1.02805 0
M  V30 18416 C 1783.55 2.20857 -0.612757 0
M  V30 18417 C 1784.55 1.57519 0.323182 0
M  V30 18418 O 1785.74 1.7385 0.110303 0
M  V30 18419 C 1782.87 3.40743 0.103488 0
M  V30 18420 H 1784.07 2.59113 -1.50998 0
M  V30 18421 H 1781.62 1.33116 -0.819142 0
M  V30 18422 H 1782.35 3.08004 1.0151 0
M  V30 18423 H 1782.14 3.87949 -0.56903 0
M  V30 18424 H 1783.63 4.15858 0.380998 0
M  V30 18425 N 1784.07 0.805805 1.35442 0
M  V30 18426 C 1785.48 0.489448 1.5191 0
M  V30 18427 C 1785.68 -0.989485 1.75532 0
M  V30 18428 O 1784.74 -1.77453 1.79629 0
M  V30 18429 C 1786.05 1.33413 2.69484 0
M  V30 18430 C 1787.6 1.32949 2.83361 0
M  V30 18431 C 1788.07 2.15827 4.03959 0
M  V30 18432 N 1789.57 2.13359 4.11135 0
M  V30 18433 C 1790.3 2.74245 5.03564 0
M  V30 18434 N 1789.8 3.44055 6.0133 0
M  V30 18435 N 1791.59 2.63891 4.96304 0
M  V30 18436 H 1783.74 1.76361 1.18366 0
M  V30 18437 H 1786 0.750594 0.579062 0
M  V30 18438 H 1785.71 2.38364 2.58603 0
M  V30 18439 H 1785.58 0.986809 3.64063 0
M  V30 18440 H 1787.97 0.287837 2.93693 0
M  V30 18441 H 1788.05 1.71668 1.89641 0
M  V30 18442 H 1787.7 3.20033 3.94388 0
M  V30 18443 H 1787.63 1.74469 4.96858 0
M  V30 18444 H 1790.12 1.62566 3.41146 0
M  V30 18445 H 1790.43 3.87802 6.68453 0
M  V30 18446 H 1788.77 3.48159 6.01507 0
M  V30 18447 H 1791.97 2.08941 4.18881 0
M  V30 18448 H 1792.14 3.11631 5.68146 0
M  V30 18449 N 1785.54 -1.47344 0.559239 0
M  V30 18450 C 1786.51 -2.28516 -0.17688 0
M  V30 18451 C 1787.51 -1.37065 -0.840823 0
M  V30 18452 O 1788.7 -1.59676 -0.696373 0
M  V30 18453 C 1785.83 -3.16803 -1.25892 0
M  V30 18454 H 1787.02 -2.95068 0.536174 0
M  V30 18455 H 1784.58 -1.53067 0.316263 0
M  V30 18456 H 1785.31 -2.54947 -2.00431 0
M  V30 18457 H 1785.1 -3.84108 -0.787625 0
M  V30 18458 H 1786.59 -3.77958 -1.77589 0
M  V30 18459 N 1787.02 -0.295795 -1.54799 0
M  V30 18460 C 1787.97 0.582614 -2.23325 0
M  V30 18461 C 1788.94 1.13365 -1.21398 0
M  V30 18462 O 1790.12 1.17914 -1.50003 0
M  V30 18463 C 1787.26 1.75112 -2.97371 0
M  V30 18464 C 1786.38 1.23197 -4.14061 0
M  V30 18465 C 1785.51 2.36393 -4.75701 0
M  V30 18466 C 1784.55 1.81585 -5.84545 0
M  V30 18467 N 1783.69 2.88334 -6.40162 0
M  V30 18468 H 1788.53 -0.00836451 -2.97999 0
M  V30 18469 H 1786.07 -0.0158966 -1.47091 0
M  V30 18470 H 1788.02 2.4383 -3.38531 0
M  V30 18471 H 1786.65 2.31381 -2.25084 0
M  V30 18472 H 1785.71 0.437226 -3.77879 0
M  V30 18473 H 1787.02 0.790706 -4.92493 0
M  V30 18474 H 1786.17 3.13067 -5.19687 0
M  V30 18475 H 1784.91 2.83844 -3.9659 0
M  V30 18476 H 1783.92 1.03399 -5.3999 0
M  V30 18477 H 1785.14 1.35045 -6.65537 0
M  V30 18478 H 1783.09 3.35129 -5.63937 0
M  V30 18479 H 1783 2.48687 -7.13926 0
M  V30 18480 H 1784.27 3.64921 -6.88805 0
M  V30 18481 N 1788.5 1.57583 -0.0234236 0
M  V30 18482 C 1789.43 2.06766 0.988961 0
M  V30 18483 C 1790.45 0.98998 1.29241 0
M  V30 18484 O 1791.64 1.2663 1.25806 0
M  V30 18485 C 1788.74 2.47244 2.31784 0
M  V30 18486 C 1787.91 3.78023 2.20039 0
M  V30 18487 C 1786.97 4.05113 3.35812 0
M  V30 18488 O 1785.99 4.75447 3.12952 0
M  V30 18489 N 1787.2 3.5484 4.59422 0
M  V30 18490 H 1789.96 2.94242 0.569355 0
M  V30 18491 H 1787.52 1.61073 0.163461 0
M  V30 18492 H 1789.51 2.62463 3.08051 0
M  V30 18493 H 1788.08 1.65163 2.65405 0
M  V30 18494 H 1787.3 3.72656 1.28534 0
M  V30 18495 H 1788.59 4.63717 2.09389 0
M  V30 18496 H 1787.99 2.97928 4.8089 0
M  V30 18497 H 1786.55 3.75348 5.32877 0
M  V30 18498 N 1789.98 -0.249655 1.5561 0
M  V30 18499 C 1791.26 -1.00075 1.68061 0
M  V30 18500 C 1791.64 -2.03468 0.562492 0
M  V30 18501 O 1790.98 -2.24332 -0.434424 0
M  V30 18502 C 1791.19 -1.63657 3.08249 0
M  V30 18503 C 1792.54 -2.13946 3.66759 0
M  V30 18504 O 1793.57 -1.73603 3.11031 0
M  V30 18505 O 1792.43 -2.88012 4.64447 0
M  V30 18506 H 1789.52 -0.465648 0.683448 0
M  V30 18507 H 1792.07 -0.243659 1.67942 0
M  V30 18508 H 1790.84 -0.888572 3.81078 0
M  V30 18509 H 1790.46 -2.45993 3.12367 0
M  V30 18510 N 1791.46 -1.48941 -0.515198 0
M  V30 18511 C 1792.7 -1.57943 -1.27207 0
M  V30 18512 C 1793.04 -0.259011 -1.92465 0
M  V30 18513 O 1792.31 0.736277 -1.80026 0
M  V30 18514 C 1792.59 -2.72846 -2.35005 0
M  V30 18515 C 1792.45 -4.14639 -1.74341 0
M  V30 18516 C 1793.77 -2.83444 -3.36672 0
M  V30 18517 H 1790.89 -0.574909 -0.461138 0
M  V30 18518 H 1793.53 -1.81172 -0.572413 0
M  V30 18519 H 1791.68 -2.5317 -2.94681 0
M  V30 18520 H 1793.35 -4.45793 -1.18602 0
M  V30 18521 H 1791.59 -4.20948 -1.0481 0
M  V30 18522 H 1792.26 -4.90883 -2.52463 0
M  V30 18523 H 1794.74 -3.01311 -2.86969 0
M  V30 18524 H 1793.62 -3.65542 -4.09475 0
M  V30 18525 H 1793.88 -1.92208 -3.98131 0
M  V30 18526 N 1792.94 0.765193 -1.37777 0
M  V30 18527 C 1794.16 1.55948 -1.3673 0
M  V30 18528 C 1794.59 1.8805 0.0435817 0
M  V30 18529 O 1793.94 1.49718 1.02246 0
M  V30 18530 C 1793.99 2.84245 -2.21895 0
M  V30 18531 O 1793.1 3.78903 -1.62807 0
M  V30 18532 H 1792.44 0.472127 -0.466897 0
M  V30 18533 H 1794.97 0.946556 -1.81388 0
M  V30 18534 H 1794.98 3.33284 -2.35342 0
M  V30 18535 H 1793.65 2.60209 -3.24444 0
M  V30 18536 H 1792.23 3.37568 -1.58437 0
M  V30 18537 N 1794.41 1.22455 0.992094 0
M  V30 18538 C 1795.34 1.01961 2.10063 0
M  V30 18539 C 1796.32 -0.0597186 1.69995 0
M  V30 18540 O 1797.51 0.102655 1.93928 0
M  V30 18541 C 1794.64 0.597442 3.42123 0
M  V30 18542 C 1793.59 1.62279 3.96042 0
M  V30 18543 C 1792.92 1.05644 5.2416 0
M  V30 18544 C 1794.22 3.01296 4.26635 0
M  V30 18545 H 1795.91 1.94678 2.27466 0
M  V30 18546 H 1793.46 0.937422 1.09309 0
M  V30 18547 H 1795.41 0.441175 4.19084 0
M  V30 18548 H 1794.14 -0.365401 3.24549 0
M  V30 18549 H 1792.8 1.76685 3.21213 0
M  V30 18550 H 1792.44 0.0849267 5.02928 0
M  V30 18551 H 1792.14 1.74144 5.61202 0
M  V30 18552 H 1793.67 0.911774 6.03754 0
M  V30 18553 H 1795.08 2.9026 4.94391 0
M  V30 18554 H 1793.48 3.66928 4.74852 0
M  V30 18555 H 1794.55 3.51168 3.34378 0
M  V30 18556 N 1795.89 -1.18905 1.03437 0
M  V30 18557 C 1796.82 -2.24539 0.640669 0
M  V30 18558 C 1797.8 -1.66396 -0.353024 0
M  V30 18559 O 1798.99 -1.92779 -0.234522 0
M  V30 18560 C 1796.12 -3.473 -0.00367731 0
M  V30 18561 C 1795.07 -4.18151 0.912881 0
M  V30 18562 C 1794.4 -5.34534 0.133347 0
M  V30 18563 C 1795.7 -4.72342 2.22913 0
M  V30 18564 H 1797.39 -2.57726 1.52374 0
M  V30 18565 H 1794.94 -1.23883 0.734098 0
M  V30 18566 H 1796.89 -4.20396 -0.290783 0
M  V30 18567 H 1795.61 -3.13328 -0.921578 0
M  V30 18568 H 1794.27 -3.46945 1.18427 0
M  V30 18569 H 1793.92 -4.96809 -0.786762 0
M  V30 18570 H 1793.62 -5.82872 0.743905 0
M  V30 18571 H 1795.15 -6.10423 -0.146889 0
M  V30 18572 H 1796.56 -5.37165 2.00317 0
M  V30 18573 H 1794.96 -5.31189 2.79209 0
M  V30 18574 H 1796.03 -3.90108 2.87999 0
M  V30 18575 N 1797.37 -0.812977 -1.35013 0
M  V30 18576 C 1798.59 -0.407969 -2.03348 0
M  V30 18577 C 1799.02 0.975148 -1.60849 0
M  V30 18578 O 1798.38 1.63267 -0.788256 0
M  V30 18579 C 1798.43 -0.506754 -3.57022 0
M  V30 18580 O 1797.53 0.477322 -4.09628 0
M  V30 18581 H 1796.87 -0.169416 -0.642023 0
M  V30 18582 H 1799.4 -1.10064 -1.72474 0
M  V30 18583 H 1799.41 -0.378883 -4.06237 0
M  V30 18584 H 1798.09 -1.51557 -3.87302 0
M  V30 18585 H 1796.66 0.309161 -3.71616 0
M  V30 18586 N 1798.85 1.47045 -0.567045 0
M  V30 18587 C 1799.79 2.30135 0.175115 0
M  V30 18588 C 1800.76 1.39665 0.899049 0
M  V30 18589 O 1801.95 1.68623 0.892809 0
M  V30 18590 C 1799.09 3.23827 1.19289 0
M  V30 18591 C 1798.2 4.29392 0.474011 0
M  V30 18592 C 1797.34 5.10226 1.47793 0
M  V30 18593 C 1796.38 6.07554 0.744584 0
M  V30 18594 N 1795.51 6.81313 1.69581 0
M  V30 18595 H 1800.35 2.93075 -0.539529 0
M  V30 18596 H 1797.89 1.44451 -0.277889 0
M  V30 18597 H 1799.85 3.76579 1.79567 0
M  V30 18598 H 1798.48 2.6273 1.87544 0
M  V30 18599 H 1797.53 3.7962 -0.243494 0
M  V30 18600 H 1798.84 4.987 -0.100022 0
M  V30 18601 H 1798 5.67176 2.15397 0
M  V30 18602 H 1796.74 4.40842 2.08589 0
M  V30 18603 H 1795.74 5.49773 0.0546832 0
M  V30 18604 H 1796.97 6.78951 0.142235 0
M  V30 18605 H 1794.91 6.14651 2.29216 0
M  V30 18606 H 1794.83 7.46826 1.17418 0
M  V30 18607 H 1796.1 7.42831 2.36268 0
M  V30 18608 N 1800.33 0.304 1.5464 0
M  V30 18609 C 1801.57 -0.305229 2.02108 0
M  V30 18610 C 1801.93 -1.50862 1.18763 0
M  V30 18611 O 1803.13 -2.18941 1.55943 0
M  V30 18612 C 1801.4 -0.65001 3.51439 0
M  V30 18613 S 1802.96 -1.24167 4.20866 0
M  V30 18614 H 1799.78 -0.0935021 0.704825 0
M  V30 18615 H 1802.38 0.432571 1.90654 0
M  V30 18616 H 1801.08 0.234253 4.09731 0
M  V30 18617 H 1800.62 -1.41852 3.66935 0
M  V30 18618 H 1802.63 -2.52936 4.26893 0
M  V30 18619 N 1801.8 -1.57568 0.0317802 0
M  V30 18620 C 1803.03 -1.95927 -0.655449 0
M  V30 18621 C 1803.44 -0.907011 -1.66042 0
M  V30 18622 O 1802.78 0.119389 -1.83312 0
M  V30 18623 C 1802.85 -3.30441 -1.41595 0
M  V30 18624 C 1802.51 -4.53444 -0.569009 0
M  V30 18625 C 1803.51 -5.19663 0.156812 0
M  V30 18626 C 1801.19 -4.99749 -0.505629 0
M  V30 18627 C 1803.19 -6.3051 0.934657 0
M  V30 18628 C 1800.87 -6.10477 0.275919 0
M  V30 18629 C 1801.87 -6.75717 0.994766 0
M  V30 18630 O 1801.56 -7.84319 1.7635 0
M  V30 18631 H 1801.29 -0.650077 -0.185408 0
M  V30 18632 H 1803.85 -2.05209 0.0886364 0
M  V30 18633 H 1802.08 -3.17658 -2.20523 0
M  V30 18634 H 1803.76 -3.53684 -1.99154 0
M  V30 18635 H 1804.53 -4.84858 0.117196 0
M  V30 18636 H 1800.41 -4.48772 -1.05472 0
M  V30 18637 H 1803.95 -6.81365 1.49626 0
M  V30 18638 H 1799.85 -6.4472 0.317242 0
M  V30 18639 H 1800.62 -8.00999 1.68355 0
M  V30 18640 N 1803.28 0.241399 -1.5574 0
M  V30 18641 C 1804.23 1.29896 -1.90777 0
M  V30 18642 C 1805.2 1.47558 -0.76262 0
M  V30 18643 O 1806.38 1.61451 -1.01677 0
M  V30 18644 C 1803.52 2.6483 -2.21267 0
M  V30 18645 C 1802.64 2.5513 -3.48615 0
M  V30 18646 C 1801.77 3.82455 -3.68649 0
M  V30 18647 C 1800.81 3.67395 -4.89579 0
M  V30 18648 N 1799.95 4.86624 -5.06105 0
M  V30 18649 H 1804.79 0.993166 -2.80963 0
M  V30 18650 H 1802.33 0.47914 -1.39078 0
M  V30 18651 H 1804.28 3.4338 -2.36951 0
M  V30 18652 H 1802.91 2.93546 -1.34278 0
M  V30 18653 H 1801.97 1.6812 -3.41233 0
M  V30 18654 H 1803.28 2.39915 -4.37312 0
M  V30 18655 H 1802.43 4.69449 -3.84321 0
M  V30 18656 H 1801.17 4.00573 -2.78195 0
M  V30 18657 H 1800.18 2.78785 -4.73877 0
M  V30 18658 H 1801.4 3.50766 -5.81498 0
M  V30 18659 H 1799.35 5.05093 -4.18589 0
M  V30 18660 H 1799.26 4.7406 -5.889 0
M  V30 18661 H 1800.53 5.751 -5.26194 0
M  V30 18662 N 1804.76 1.49212 0.507292 0
M  V30 18663 C 1805.72 1.64908 1.59179 0
M  V30 18664 C 1806.72 0.521176 1.5212 0
M  V30 18665 O 1807.91 0.787492 1.55384 0
M  V30 18666 C 1805.05 1.64057 2.98828 0
M  V30 18667 H 1806.24 2.6163 1.46593 0
M  V30 18668 H 1803.79 1.38149 0.731062 0
M  V30 18669 H 1804.53 0.688956 3.16897 0
M  V30 18670 H 1804.31 2.45963 3.0536 0
M  V30 18671 H 1805.8 1.78279 3.77633 0
M  V30 18672 N 1806.24 -0.757876 1.38181 0
M  V30 18673 C 1807.17 -1.87937 1.29441 0
M  V30 18674 C 1808.15 -1.61685 0.172246 0
M  V30 18675 O 1809.33 -1.85244 0.348836 0
M  V30 18676 C 1806.46 -3.23459 1.00459 0
M  V30 18677 C 1805.51 -3.68604 2.14554 0
M  V30 18678 S 1806.34 -3.80645 3.76656 0
M  V30 18679 C 1807.5 -5.18993 3.49853 0
M  V30 18680 H 1807.73 -1.95064 2.2436 0
M  V30 18681 H 1805.26 -0.920415 1.23967 0
M  V30 18682 H 1807.22 -4.01725 0.844209 0
M  V30 18683 H 1805.88 -3.14016 0.0726505 0
M  V30 18684 H 1805.07 -4.66892 1.8981 0
M  V30 18685 H 1804.68 -2.97479 2.26677 0
M  V30 18686 H 1806.97 -6.0461 3.05701 0
M  V30 18687 H 1807.91 -5.48755 4.47519 0
M  V30 18688 H 1808.32 -4.87587 2.84463 0
M  V30 18689 N 1807.72 -1.22979 -0.985586 0
M  V30 18690 C 1808.66 -1.00374 -2.09828 0
M  V30 18691 C 1809.66 0.0555734 -1.69309 0
M  V30 18692 O 1810.86 -0.0974909 -1.79736 0
M  V30 18693 H 1807.24 -0.307451 -0.686278 0
M  V30 18694 H 1809.21 -1.94776 -2.26064 0
M  V30 18695 C 1807.96 -0.606018 -3.42378 0
M  V30 18696 H 1807.28 -1.41284 -3.74004 0
M  V30 18697 H 1808.72 -0.487318 -4.2119 0
M  V30 18698 C 1807.18 0.685197 -3.29859 0
M  V30 18699 O 1807.71 1.73572 -3.62265 0
M  V30 18700 N 1805.92 0.65914 -2.83026 0
M  V30 18701 H 1805.46 -0.196071 -2.56853 0
M  V30 18702 H 1805.42 1.52332 -2.75031 0
M  V30 18703 N 1809.19 1.18355 -1.04066 0
M  V30 18704 C 1810.16 2.20195 -0.636148 0
M  V30 18705 C 1811.16 1.57853 0.306457 0
M  V30 18706 O 1812.35 1.73958 0.0918576 0
M  V30 18707 C 1809.48 3.40833 0.0673423 0
M  V30 18708 H 1810.67 2.57497 -1.53738 0
M  V30 18709 H 1808.23 1.32239 -0.833214 0
M  V30 18710 H 1808.96 3.09063 0.982371 0
M  V30 18711 H 1808.75 3.87324 -0.610145 0
M  V30 18712 H 1810.24 4.16239 0.336869 0
M  V30 18713 N 1810.67 0.820125 1.3458 0
M  V30 18714 C 1811.9 0.419155 2.02303 0
M  V30 18715 C 1812.31 -0.978742 1.61918 0
M  V30 18716 O 1811.65 -1.64433 0.818983 0
M  V30 18717 C 1811.72 0.438576 3.56815 0
M  V30 18718 C 1811.38 1.78932 4.20514 0
M  V30 18719 C 1812.38 2.74974 4.41232 0
M  V30 18720 C 1810.06 2.07704 4.57345 0
M  V30 18721 C 1812.06 3.97961 4.97901 0
M  V30 18722 C 1809.74 3.30952 5.13726 0
M  V30 18723 C 1810.74 4.25898 5.33947 0
M  V30 18724 O 1810.43 5.46969 5.89135 0
M  V30 18725 H 1810.16 0.166787 0.655102 0
M  V30 18726 H 1812.71 1.10892 1.72893 0
M  V30 18727 H 1810.94 -0.307871 3.85472 0
M  V30 18728 H 1812.63 0.0580448 4.05858 0
M  V30 18729 H 1813.4 2.54041 4.13144 0
M  V30 18730 H 1809.28 1.34605 4.40911 0
M  V30 18731 H 1812.82 4.72081 5.136 0
M  V30 18732 H 1808.72 3.5175 5.41242 0
M  V30 18733 H 1809.49 5.48451 6.07572 0
M  V30 18734 N 1812.15 -1.46743 0.574835 0
M  V30 18735 C 1813.56 -1.86127 0.146143 0
M  V30 18736 C 1813.91 -1.47938 -1.28875 0
M  V30 18737 O 1813.04 -0.890593 -1.97224 0
M  V30 18738 C 1813.63 -3.37813 0.258447 0
M  V30 18739 C 1812.19 -3.76223 -0.115322 0
M  V30 18740 C 1811.34 -2.70775 0.597997 0
M  V30 18741 H 1814.29 -1.38009 0.783526 0
M  V30 18742 H 1814.31 -3.76953 -0.51831 0
M  V30 18743 H 1813.82 -3.65577 1.30288 0
M  V30 18744 H 1811.92 -3.54077 -1.16019 0
M  V30 18745 H 1812.04 -4.78418 0.255513 0
M  V30 18746 H 1810.4 -2.5467 0.039113 0
M  V30 18747 H 1811.18 -3.0138 1.64393 0
M  V30 18748 N 1813.63 -0.312197 -1.54477 0
M  V30 18749 C 1814.56 0.551829 -2.26886 0
M  V30 18750 C 1815.54 1.12874 -1.27254 0
M  V30 18751 O 1816.72 1.15599 -1.56046 0
M  V30 18752 C 1813.85 1.71839 -3.01809 0
M  V30 18753 C 1812.81 1.27131 -4.08683 0
M  V30 18754 C 1812.13 2.52392 -4.71384 0
M  V30 18755 C 1813.43 0.394413 -5.20809 0
M  V30 18756 H 1815.13 -0.0521331 -2.99355 0
M  V30 18757 H 1812.67 -0.0265138 -1.43976 0
M  V30 18758 H 1814.63 2.32903 -3.5119 0
M  V30 18759 H 1813.35 2.34876 -2.26938 0
M  V30 18760 H 1812.01 0.683666 -3.60169 0
M  V30 18761 H 1811.66 3.13768 -3.93139 0
M  V30 18762 H 1811.36 2.23174 -5.43569 0
M  V30 18763 H 1812.88 3.14239 -5.23533 0
M  V30 18764 H 1814.3 0.911031 -5.66015 0
M  V30 18765 H 1812.69 0.195517 -5.99781 0
M  V30 18766 H 1813.76 -0.577661 -4.81447 0
M  V30 18767 N 1815.11 1.57549 -0.040136 0
M  V30 18768 C 1816.35 1.92535 0.637037 0
M  V30 18769 C 1816.69 0.917836 1.71141 0
M  V30 18770 O 1815.96 -0.057824 1.94414 0
M  V30 18771 C 1816.24 3.37955 1.24333 0
M  V30 18772 C 1816.1 4.49449 0.177761 0
M  V30 18773 C 1817.42 3.8355 2.15818 0
M  V30 18774 H 1814.53 0.700157 0.230107 0
M  V30 18775 H 1817.18 1.89739 -0.0996468 0
M  V30 18776 H 1815.33 3.40468 1.87119 0
M  V30 18777 H 1817 4.59065 -0.453507 0
M  V30 18778 H 1815.24 4.30961 -0.495486 0
M  V30 18779 H 1815.91 5.48256 0.641792 0
M  V30 18780 H 1818.39 3.82842 1.63006 0
M  V30 18781 H 1817.26 4.85974 2.55188 0
M  V30 18782 H 1817.53 3.19678 3.05382 0
M  V30 18783 N 1816.58 -0.233136 1.55866 0
M  V30 18784 C 1817.83 -0.96064 1.78604 0
M  V30 18785 C 1818.16 -1.84444 0.607795 0
M  V30 18786 O 1817.44 -1.9048 -0.39342 0
M  V30 18787 C 1817.72 -1.80946 3.11337 0
M  V30 18788 C 1817.57 -0.952929 4.3959 0
M  V30 18789 C 1818.89 -2.78941 3.40411 0
M  V30 18790 H 1816.01 -0.347809 0.649767 0
M  V30 18791 H 1818.65 -0.230233 1.886 0
M  V30 18792 H 1816.8 -2.43219 3.02946 0
M  V30 18793 H 1818.48 -0.347831 4.59987 0
M  V30 18794 H 1816.72 -0.257846 4.33033 0
M  V30 18795 H 1817.39 -1.58096 5.28876 0
M  V30 18796 H 1819.87 -2.26804 3.48854 0
M  V30 18797 H 1818.74 -3.35443 4.34475 0
M  V30 18798 H 1819 -3.561 2.62003 0
M  V30 18799 N 1818.06 -1.49479 -0.499372 0
M  V30 18800 C 1819.29 -1.6276 -1.27738 0
M  V30 18801 C 1819.71 -0.299635 -1.86407 0
M  V30 18802 O 1819.06 0.715092 -1.67907 0
M  V30 18803 C 1819.11 -2.69762 -2.40647 0
M  V30 18804 O 1818.84 -3.97407 -1.84388 0
M  V30 18805 C 1820.34 -2.93762 -3.31992 0
M  V30 18806 H 1817.56 -0.547893 -0.387368 0
M  V30 18807 H 1820.1 -1.95522 -0.599292 0
M  V30 18808 H 1818.26 -2.39773 -3.04282 0
M  V30 18809 H 1818.67 -4.56361 -2.58525 0
M  V30 18810 H 1820.14 -3.72361 -4.07494 0
M  V30 18811 H 1820.62 -2.0374 -3.89085 0
M  V30 18812 H 1821.23 -3.25173 -2.74122 0
M  V30 18813 N 1819.54 0.750537 -1.38581 0
M  V30 18814 C 1820.95 1.32802 -1.31227 0
M  V30 18815 C 1821.3 1.96176 0.0305372 0
M  V30 18816 O 1820.43 1.95272 0.932614 0
M  V30 18817 C 1821.02 2.41468 -2.37652 0
M  V30 18818 C 1819.58 2.94929 -2.33867 0
M  V30 18819 C 1818.73 1.68339 -2.20357 0
M  V30 18820 H 1821.68 0.549187 -1.48895 0
M  V30 18821 H 1821.7 3.21481 -2.03544 0
M  V30 18822 H 1821.21 1.95313 -3.35372 0
M  V30 18823 H 1819.31 3.45404 -1.39738 0
M  V30 18824 H 1819.43 3.491 -3.28125 0
M  V30 18825 H 1817.79 1.92082 -1.67262 0
M  V30 18826 H 1818.57 1.24258 -3.20023 0
M  V30 18827 N 1821.02 1.235 0.979051 0
M  V30 18828 C 1821.95 1.04183 2.08969 0
M  V30 18829 C 1822.93 -0.041685 1.70049 0
M  V30 18830 O 1824.12 0.123217 1.93809 0
M  V30 18831 C 1821.25 0.633696 3.4147 0
M  V30 18832 C 1820.2 1.66471 3.94299 0
M  V30 18833 C 1819.53 1.11198 5.2301 0
M  V30 18834 C 1820.83 3.05804 4.23416 0
M  V30 18835 H 1822.52 1.9708 2.25388 0
M  V30 18836 H 1820.07 0.948963 1.08308 0
M  V30 18837 H 1822.02 0.485599 4.18593 0
M  V30 18838 H 1820.74 -0.330958 3.24919 0
M  V30 18839 H 1819.4 1.80082 3.19321 0
M  V30 18840 H 1819.05 0.138264 5.0281 0
M  V30 18841 H 1818.75 1.80087 5.59323 0
M  V30 18842 H 1820.27 0.975759 6.02753 0
M  V30 18843 H 1821.69 2.95487 4.91284 0
M  V30 18844 H 1820.08 3.71944 4.70933 0
M  V30 18845 H 1821.15 3.54695 3.30635 0
M  V30 18846 N 1822.5 -1.17802 1.04693 0
M  V30 18847 C 1823.74 -1.88217 0.755141 0
M  V30 18848 C 1824.08 -1.8053 -0.715731 0
M  V30 18849 O 1823.35 -1.20987 -1.52291 0
M  V30 18850 C 1823.63 -3.38447 1.22986 0
M  V30 18851 C 1823.49 -3.54911 2.7633 0
M  V30 18852 C 1824.81 -4.323 0.824891 0
M  V30 18853 H 1821.93 -0.683452 0.275795 0
M  V30 18854 H 1824.57 -1.38561 1.30004 0
M  V30 18855 H 1822.72 -3.80868 0.7663 0
M  V30 18856 H 1824.39 -3.2154 3.30771 0
M  V30 18857 H 1822.63 -2.97357 3.1585 0
M  V30 18858 H 1823.3 -4.60347 3.04606 0
M  V30 18859 H 1825.78 -3.97694 1.22389 0
M  V30 18860 H 1824.66 -5.35962 1.18472 0
M  V30 18861 H 1824.92 -4.41265 -0.27151 0
M  V30 18862 N 1823.98 -0.827251 -1.34143 0
M  V30 18863 C 1825.2 -0.429514 -2.02904 0
M  V30 18864 C 1825.63 0.958033 -1.61874 0
M  V30 18865 O 1824.98 1.62422 -0.805528 0
M  V30 18866 C 1825.03 -0.544592 -3.56464 0
M  V30 18867 O 1824.14 0.433849 -4.10112 0
M  V30 18868 H 1823.48 -0.176216 -0.64019 0
M  V30 18869 H 1826.01 -1.11887 -1.71297 0
M  V30 18870 H 1826.02 -0.421949 -4.05812 0
M  V30 18871 H 1824.69 -1.55657 -3.85673 0
M  V30 18872 H 1823.27 0.269729 -3.71923 0
M  V30 18873 N 1825.45 1.46436 -0.582609 0
M  V30 18874 C 1826.42 2.28769 0.140502 0
M  V30 18875 C 1827.42 1.38385 0.818911 0
M  V30 18876 O 1828.61 1.60763 0.670882 0
M  V30 18877 C 1825.74 3.18765 1.20836 0
M  V30 18878 H 1826.93 2.94178 -0.583049 0
M  V30 18879 H 1824.48 1.52544 -0.340575 0
M  V30 18880 H 1825.22 2.58103 1.9635 0
M  V30 18881 H 1825 3.85312 0.726417 0
M  V30 18882 H 1826.49 3.80735 1.71553 0
M  V30 18883 N 1826.93 0.320385 1.54309 0
M  V30 18884 C 1828.18 -0.282584 2.00115 0
M  V30 18885 C 1828.5 -1.52904 1.21018 0
M  V30 18886 O 1827.77 -1.93413 0.311163 0
M  V30 18887 H 1826.35 -0.107406 0.739238 0
M  V30 18888 H 1829.01 0.436196 1.89956 0
M  V30 18889 H 1828.11 -0.541189 3.07372 0
M  V30 18890 N 1828.41 -1.57525 0.0484906 0
M  V30 18891 C 1829.66 -1.91761 -0.625335 0
M  V30 18892 C 1829.97 -0.928421 -1.72162 0
M  V30 18893 O 1831.18 -1.16273 -2.45342 0
M  V30 18894 C 1829.63 -3.40571 -1.1636 0
M  V30 18895 C 1829.24 -4.47889 -0.0995687 0
M  V30 18896 C 1830.99 -3.83845 -1.81282 0
M  V30 18897 C 1828.89 -5.87811 -0.650563 0
M  V30 18898 H 1827.82 -0.71567 -0.237346 0
M  V30 18899 H 1830.47 -1.83127 0.116944 0
M  V30 18900 H 1828.86 -3.44201 -1.95811 0
M  V30 18901 H 1830.03 -4.55846 0.673904 0
M  V30 18902 H 1828.34 -4.13939 0.452038 0
M  V30 18903 H 1830.94 -4.8575 -2.23497 0
M  V30 18904 H 1831.28 -3.19947 -2.66345 0
M  V30 18905 H 1831.82 -3.8272 -1.08491 0
M  V30 18906 H 1828.56 -6.55299 0.162371 0
M  V30 18907 H 1828.08 -5.83422 -1.39208 0
M  V30 18908 H 1829.76 -6.36979 -1.1343 0
M  V30 18909 N 1829.89 0.224867 -1.55988 0
M  V30 18910 C 1831.13 0.949747 -1.78846 0
M  V30 18911 C 1831.46 1.84465 -0.616678 0
M  V30 18912 O 1830.72 1.91587 0.399098 0
M  V30 18913 C 1831.02 1.8227 -3.07429 0
M  V30 18914 C 1830.68 1.08131 -4.37743 0
M  V30 18915 C 1829.34 0.876497 -4.7315 0
M  V30 18916 C 1831.7 0.557505 -5.1821 0
M  V30 18917 C 1829.02 0.13593 -5.86543 0
M  V30 18918 C 1831.38 -0.169702 -6.32372 0
M  V30 18919 C 1830.04 -0.385796 -6.66384 0
M  V30 18920 H 1829.31 0.347537 -0.654446 0
M  V30 18921 H 1831.96 0.218162 -1.90253 0
M  V30 18922 H 1830.26 2.62204 -2.91129 0
M  V30 18923 H 1831.96 2.38564 -3.22317 0
M  V30 18924 H 1828.55 1.25091 -4.09939 0
M  V30 18925 H 1832.73 0.703218 -4.91293 0
M  V30 18926 H 1827.99 -0.0417543 -6.11386 0
M  V30 18927 H 1832.16 -0.583104 -6.93955 0
M  V30 18928 H 1829.79 -0.961574 -7.54094 0
M  V30 18929 N 1831.37 1.49742 0.491438 0
M  V30 18930 C 1832.61 1.59395 1.24248 0
M  V30 18931 C 1832.93 0.286934 1.92877 0
M  V30 18932 O 1832.2 -0.694353 1.83182 0
M  V30 18933 H 1830.78 0.587313 0.461598 0
M  V30 18934 H 1833.45 1.86417 0.56873 0
M  V30 18935 H 1832.54 2.39487 2.00131 0
M  V30 18936 N 1832.84 -0.743177 1.38977 0
M  V30 18937 C 1834.09 -1.50479 1.35956 0
M  V30 18938 C 1834.42 -1.94143 -0.0471116 0
M  V30 18939 O 1833.7 -1.66195 -1.01042 0
M  V30 18940 C 1833.98 -2.75016 2.32461 0
M  V30 18941 C 1833.83 -2.37423 3.82034 0
M  V30 18942 C 1835.15 -3.77084 2.26927 0
M  V30 18943 H 1832.27 -0.545869 0.495172 0
M  V30 18944 H 1834.91 -0.850403 1.69906 0
M  V30 18945 H 1833.06 -3.30852 2.03639 0
M  V30 18946 H 1834.74 -1.87282 4.21572 0
M  V30 18947 H 1832.98 -1.69752 3.99208 0
M  V30 18948 H 1833.65 -3.2657 4.45035 0
M  V30 18949 H 1836.13 -3.30812 2.52394 0
M  V30 18950 H 1835 -4.61901 2.96545 0
M  V30 18951 H 1835.26 -4.23419 1.27156 0
M  V30 18952 N 1834.32 -1.24018 -0.972487 0
M  V30 18953 C 1835.27 -1.02834 -2.06625 0
M  V30 18954 C 1836.24 0.056804 -1.66003 0
M  V30 18955 O 1837.42 -0.0968745 -1.90554 0
M  V30 18956 C 1834.56 -0.634103 -3.39224 0
M  V30 18957 C 1833.68 -1.79222 -3.93069 0
M  V30 18958 C 1832.81 -1.34401 -5.13916 0
M  V30 18959 C 1831.85 -2.47238 -5.59946 0
M  V30 18960 N 1830.99 -2.03319 -6.72016 0
M  V30 18961 H 1835.83 -1.96451 -2.24078 0
M  V30 18962 H 1833.37 -0.978545 -1.09831 0
M  V30 18963 H 1835.32 -0.386584 -4.15405 0
M  V30 18964 H 1833.95 0.26506 -3.2171 0
M  V30 18965 H 1833.01 -2.15353 -3.13572 0
M  V30 18966 H 1834.32 -2.64023 -4.23194 0
M  V30 18967 H 1833.47 -1.05509 -5.97455 0
M  V30 18968 H 1832.21 -0.466476 -4.85464 0
M  V30 18969 H 1831.22 -2.76895 -4.74983 0
M  V30 18970 H 1832.44 -3.35541 -5.90415 0
M  V30 18971 H 1830.39 -1.17956 -6.45308 0
M  V30 18972 H 1830.3 -2.81675 -7.01566 0
M  V30 18973 H 1831.57 -1.77553 -7.59009 0
M  V30 18974 N 1835.8 1.17245 -1.05316 0
M  V30 18975 C 1837.21 1.69167 -0.789906 0
M  V30 18976 C 1837.56 1.83751 0.687762 0
M  V30 18977 O 1836.69 1.52596 1.53438 0
M  V30 18978 C 1837.28 3.07269 -1.42728 0
M  V30 18979 C 1835.84 3.56352 -1.21204 0
M  V30 18980 C 1834.99 2.3258 -1.51003 0
M  V30 18981 H 1837.94 1.01744 -1.21794 0
M  V30 18982 H 1837.96 3.71175 -0.837236 0
M  V30 18983 H 1837.47 2.96622 -2.50273 0
M  V30 18984 H 1835.57 3.72274 -0.155891 0
M  V30 18985 H 1835.69 4.39038 -1.91787 0
M  V30 18986 H 1834.05 2.37107 -0.930172 0
M  V30 18987 H 1834.83 2.2454 -2.59685 0
M  V30 18988 N 1837.28 0.834353 1.33702 0
M  V30 18989 C 1838.24 0.269618 2.27609 0
M  V30 18990 C 1839.24 -0.559065 1.50768 0
M  V30 18991 O 1840.43 -0.373511 1.70149 0
M  V30 18992 C 1837.56 -0.620682 3.35202 0
M  V30 18993 H 1838.76 1.09819 2.79069 0
M  V30 18994 H 1836.31 0.607087 1.44028 0
M  V30 18995 H 1837.04 -1.47187 2.88975 0
M  V30 18996 H 1836.83 -0.0278102 3.9209 0
M  V30 18997 H 1838.32 -1.00924 4.05221 0
M  V30 18998 N 1838.76 -1.46125 0.590367 0
M  V30 18999 C 1840 -2.02646 0.0789983 0
M  V30 19000 C 1840.34 -1.45996 -1.28058 0
M  V30 19001 O 1839.61 -0.627981 -1.84083 0
M  V30 19002 C 1839.89 -3.60094 0.0214749 0
M  V30 19003 C 1839.75 -4.27112 1.41049 0
M  V30 19004 C 1841.07 -4.34889 -0.675236 0
M  V30 19005 H 1838.18 -0.736382 0.0301818 0
M  V30 19006 H 1840.83 -1.7418 0.759037 0
M  V30 19007 H 1838.98 -3.84477 -0.557648 0
M  V30 19008 H 1840.65 -4.13969 2.03537 0
M  V30 19009 H 1838.89 -3.86178 1.97607 0
M  V30 19010 H 1839.56 -5.3592 1.32264 0
M  V30 19011 H 1842.04 -4.15697 -0.183176 0
M  V30 19012 H 1840.91 -5.44615 -0.684538 0
M  V30 19013 H 1841.18 -4.06503 -1.73804 0
M  V30 19014 N 1840.23 -0.328564 -1.54137 0
M  V30 19015 C 1841.46 0.277044 -2.05541 0
M  V30 19016 C 1841.88 1.44613 -1.20285 0
M  V30 19017 O 1841.24 1.80043 -0.213107 0
M  V30 19018 C 1841.29 0.684495 -3.54044 0
M  V30 19019 O 1840.39 1.78629 -3.71706 0
M  V30 19020 H 1839.74 0.049078 -0.662184 0
M  V30 19021 H 1842.27 -0.478426 -1.98928 0
M  V30 19022 H 1842.28 0.965784 -3.96405 0
M  V30 19023 H 1840.95 -0.170554 -4.1555 0
M  V30 19024 H 1839.53 1.50343 -3.4125 0
M  V30 19025 N 1841.71 1.57497 -0.0568439 0
M  V30 19026 C 1842.96 1.92914 0.615668 0
M  V30 19027 C 1843.29 0.935677 1.70515 0
M  V30 19028 O 1842.54 -0.0511255 1.95633 0
M  V30 19029 C 1842.84 3.35 1.24538 0
M  V30 19030 C 1842.51 4.50008 0.283536 0
M  V30 19031 C 1841.17 4.81196 0.0188809 0
M  V30 19032 C 1843.52 5.19847 -0.375336 0
M  V30 19033 C 1840.85 5.79569 -0.911986 0
M  V30 19034 C 1843.2 6.19215 -1.29443 0
M  V30 19035 C 1841.87 6.48829 -1.5677 0
M  V30 19036 H 1841.14 0.705922 0.225289 0
M  V30 19037 H 1843.78 1.91095 -0.124533 0
M  V30 19038 H 1842.09 3.33213 2.06098 0
M  V30 19039 H 1843.78 3.59686 1.77277 0
M  V30 19040 H 1840.37 4.25674 0.499994 0
M  V30 19041 H 1844.56 4.95959 -0.183967 0
M  V30 19042 H 1839.81 6.00846 -1.13112 0
M  V30 19043 H 1843.99 6.7244 -1.811 0
M  V30 19044 H 1841.62 7.24868 -2.29063 0
M  V30 19045 N 1843.19 -0.216591 1.56105 0
M  V30 19046 C 1844.47 -0.964874 1.70146 0
M  V30 19047 C 1844.85 -2.02229 0.605524 0
M  V30 19048 O 1844.2 -2.25203 -0.386742 0
M  V30 19049 C 1844.41 -1.57082 3.11651 0
M  V30 19050 C 1845.75 -2.06118 3.71215 0
M  V30 19051 O 1846.78 -1.66966 3.14644 0
M  V30 19052 O 1845.64 -2.78095 4.70452 0
M  V30 19053 H 1842.73 -0.451047 0.693171 0
M  V30 19054 H 1845.28 -0.207982 1.68421 0
M  V30 19055 H 1844.05 -0.80754 3.82877 0
M  V30 19056 H 1843.67 -2.39312 3.17515 0
M  V30 19057 N 1844.67 -1.5 -0.48349 0
M  V30 19058 C 1845.9 -1.63867 -1.25821 0
M  V30 19059 C 1846.31 -0.316335 -1.86537 0
M  V30 19060 O 1845.65 0.710307 -1.69412 0
M  V30 19061 C 1845.71 -2.66251 -2.41559 0
M  V30 19062 C 1845.38 -4.10141 -2.01577 0
M  V30 19063 C 1846.37 -4.964 -1.5454 0
M  V30 19064 C 1844.06 -4.55983 -2.10677 0
M  V30 19065 C 1846.05 -6.26546 -1.17129 0
M  V30 19066 C 1843.74 -5.86137 -1.72877 0
M  V30 19067 C 1844.74 -6.71243 -1.2618 0
M  V30 19068 O 1844.42 -7.98969 -0.888988 0
M  V30 19069 H 1844.16 -0.554155 -0.387154 0
M  V30 19070 H 1846.71 -1.96893 -0.585005 0
M  V30 19071 H 1844.94 -2.28442 -3.12011 0
M  V30 19072 H 1846.63 -2.69466 -3.03551 0
M  V30 19073 H 1847.4 -4.62205 -1.46942 0
M  V30 19074 H 1843.27 -3.89895 -2.45974 0
M  V30 19075 H 1846.82 -6.92927 -0.806093 0
M  V30 19076 H 1842.72 -6.19857 -1.80131 0
M  V30 19077 H 1843.48 -8.12133 -1.01893 0
M  V30 19078 N 1846.15 0.735796 -1.39369 0
M  V30 19079 C 1847.08 1.86303 -1.4076 0
M  V30 19080 C 1848.06 1.67926 -0.27107 0
M  V30 19081 O 1849.24 1.88257 -0.476773 0
M  V30 19082 C 1846.37 3.24043 -1.24955 0
M  V30 19083 C 1845.33 3.57055 -2.35999 0
M  V30 19084 C 1844.65 4.93723 -2.05284 0
M  V30 19085 C 1845.95 3.60109 -3.7831 0
M  V30 19086 H 1847.65 1.85396 -2.35093 0
M  V30 19087 H 1845.19 0.890552 -1.1316 0
M  V30 19088 H 1847.15 4.02574 -1.24549 0
M  V30 19089 H 1845.87 3.25475 -0.270902 0
M  V30 19090 H 1844.53 2.80853 -2.35621 0
M  V30 19091 H 1844.18 4.91734 -1.05859 0
M  V30 19092 H 1843.88 5.16779 -2.79667 0
M  V30 19093 H 1845.4 5.74612 -2.06527 0
M  V30 19094 H 1846.81 4.28718 -3.80622 0
M  V30 19095 H 1845.21 3.94683 -4.52046 0
M  V30 19096 H 1846.28 2.59932 -4.09345 0
M  V30 19097 N 1847.63 1.24532 0.965897 0
M  V30 19098 C 1848.87 1.0801 1.70343 0
M  V30 19099 C 1849.19 -0.380738 1.91859 0
M  V30 19100 O 1850.39 -0.666181 2.632 0
M  V30 19101 C 1848.85 1.88452 3.06617 0
M  V30 19102 C 1848.46 3.38957 2.92937 0
M  V30 19103 C 1850.2 1.80465 3.8423 0
M  V30 19104 C 1848.11 4.11736 4.24532 0
M  V30 19105 H 1847.04 0.400577 0.638791 0
M  V30 19106 H 1849.69 1.48629 1.07618 0
M  V30 19107 H 1848.07 1.40648 3.70181 0
M  V30 19108 H 1849.25 3.94353 2.38374 0
M  V30 19109 H 1847.56 3.47915 2.28788 0
M  V30 19110 H 1850.16 2.32142 4.81679 0
M  V30 19111 H 1850.5 0.770262 4.09112 0
M  V30 19112 H 1851.03 2.25958 3.27395 0
M  V30 19113 H 1847.77 5.15541 4.04842 0
M  V30 19114 H 1847.29 3.61125 4.78904 0
M  V30 19115 H 1848.97 4.18833 4.93141 0
M  V30 19116 N 1849.1 -1.16685 1.05936 0
M  V30 19117 C 1850.52 -1.39122 0.78213 0
M  V30 19118 C 1850.72 -1.9172 -0.620152 0
M  V30 19119 O 1849.78 -2.11366 -1.38132 0
M  V30 19120 C 1851.09 -2.37522 1.84401 0
M  V30 19121 C 1852.64 -2.51214 1.8671 0
M  V30 19122 C 1853.11 -3.52894 2.91942 0
M  V30 19123 N 1854.6 -3.60418 2.90952 0
M  V30 19124 C 1855.34 -4.38873 3.69023 0
M  V30 19125 N 1854.83 -5.20781 4.56902 0
M  V30 19126 N 1856.63 -4.3382 3.57431 0
M  V30 19127 H 1848.78 -0.808781 1.96399 0
M  V30 19128 H 1851.04 -0.418008 0.850866 0
M  V30 19129 H 1850.75 -2.05962 2.85084 0
M  V30 19130 H 1850.62 -3.37123 1.69197 0
M  V30 19131 H 1853.01 -2.8208 0.866875 0
M  V30 19132 H 1853.09 -1.51661 2.05992 0
M  V30 19133 H 1852.73 -3.22765 3.92155 0
M  V30 19134 H 1852.66 -4.52168 2.6991 0
M  V30 19135 H 1855.15 -3.01945 2.27239 0
M  V30 19136 H 1855.47 -5.77848 5.13138 0
M  V30 19137 H 1853.81 -5.20136 4.60959 0
M  V30 19138 H 1857 -3.68888 2.88165 0
M  V30 19139 H 1857.18 -4.94717 4.1852 0
M  V30 19140 N 1850.58 -0.841432 -1.33258 0
M  V30 19141 C 1851.49 -0.279006 -2.32935 0
M  V30 19142 C 1852.51 0.596298 -1.63463 0
M  V30 19143 O 1853.68 0.499812 -1.951 0
M  V30 19144 C 1850.75 0.534514 -3.42555 0
M  V30 19145 C 1849.81 -0.365366 -4.27742 0
M  V30 19146 C 1849.04 0.409423 -5.32127 0
M  V30 19147 O 1849.27 1.64085 -5.4629 0
M  V30 19148 O 1848.2 -0.217904 -6.01505 0
M  V30 19149 H 1852.03 -1.10448 -2.82904 0
M  V30 19150 H 1849.61 -0.60402 -1.36645 0
M  V30 19151 H 1851.49 0.996723 -4.09443 0
M  V30 19152 H 1850.17 1.33701 -2.94798 0
M  V30 19153 H 1849.07 -0.875469 -3.63712 0
M  V30 19154 H 1850.41 -1.1327 -4.78989 0
M  V30 19155 N 1852.06 1.4581 -0.598108 0
M  V30 19156 C 1853.02 2.28905 0.11623 0
M  V30 19157 C 1854.02 1.39246 0.804187 0
M  V30 19158 O 1855.21 1.61466 0.653793 0
M  V30 19159 C 1852.34 3.20029 1.17449 0
M  V30 19160 H 1853.54 2.93543 -0.614217 0
M  V30 19161 H 1851.09 1.52175 -0.356735 0
M  V30 19162 H 1851.83 2.60171 1.93601 0
M  V30 19163 H 1851.61 3.86061 0.685508 0
M  V30 19164 H 1853.1 3.82533 1.67505 0
M  V30 19165 N 1853.54 0.336733 1.53961 0
M  V30 19166 C 1854.48 -0.523198 2.24792 0
M  V30 19167 C 1855.45 -1.10107 1.24361 0
M  V30 19168 O 1856.64 -1.13895 1.53077 0
M  V30 19169 C 1853.78 -1.67166 3.0191 0
M  V30 19170 C 1852.89 -1.12176 4.17182 0
M  V30 19171 C 1852.03 -2.23697 4.81802 0
M  V30 19172 C 1851.07 -1.66023 5.89154 0
M  V30 19173 N 1850.2 -2.7126 6.47582 0
M  V30 19174 H 1855.04 0.0873707 2.97872 0
M  V30 19175 H 1852.58 0.0548897 1.46998 0
M  V30 19176 H 1854.54 -2.34768 3.44876 0
M  V30 19177 H 1853.17 -2.25332 2.31139 0
M  V30 19178 H 1852.22 -0.336885 3.78905 0
M  V30 19179 H 1853.53 -0.659852 4.94416 0
M  V30 19180 H 1852.69 -2.99178 5.27804 0
M  V30 19181 H 1851.43 -2.7323 4.03976 0
M  V30 19182 H 1850.43 -0.890457 5.42541 0
M  V30 19183 H 1851.66 -1.17352 6.68884 0
M  V30 19184 H 1849.6 -3.20059 5.72624 0
M  V30 19185 H 1849.52 -2.29671 7.20269 0
M  V30 19186 H 1850.79 -3.4653 6.98239 0
M  V30 19187 N 1855.02 -1.57465 0.0651956 0
M  V30 19188 C 1856.24 -1.9756 -0.614633 0
M  V30 19189 C 1856.66 -0.943308 -1.63546 0
M  V30 19190 O 1856.02 0.0708362 -1.82362 0
M  V30 19191 C 1856.07 -3.37735 -1.28909 0
M  V30 19192 O 1855.79 -4.37008 -0.309131 0
M  V30 19193 C 1857.29 -3.92667 -2.05736 0
M  V30 19194 H 1854.51 -0.64987 -0.167061 0
M  V30 19195 H 1857.05 -2.0405 0.135647 0
M  V30 19196 H 1855.21 -3.32352 -1.9905 0
M  V30 19197 H 1855.62 -5.18483 -0.792206 0
M  V30 19198 H 1857.1 -4.92988 -2.48329 0
M  V30 19199 H 1857.57 -3.28851 -2.91124 0
M  V30 19200 H 1858.18 -4.01431 -1.40476 0
M  V30 19201 N 1856.49 0.20831 -1.56217 0
M  V30 19202 C 1857.91 0.55859 -1.49506 0
M  V30 19203 C 1858.11 1.86504 -0.762784 0
M  V30 19204 O 1857.17 2.50616 -0.307868 0
M  V30 19205 C 1858.48 0.625557 -2.94121 0
M  V30 19206 C 1860.03 0.715289 -3.04717 0
M  V30 19207 C 1860.5 0.813485 -4.50718 0
M  V30 19208 N 1861.99 0.87736 -4.54815 0
M  V30 19209 C 1862.73 0.973279 -5.65079 0
M  V30 19210 N 1862.22 1.03232 -6.85066 0
M  V30 19211 N 1864.02 1.00944 -5.52962 0
M  V30 19212 H 1856.17 -0.648826 -2.02247 0
M  V30 19213 H 1858.43 -0.229425 -0.91982 0
M  V30 19214 H 1858.14 -0.265056 -3.507 0
M  V30 19215 H 1858.01 1.48473 -3.4675 0
M  V30 19216 H 1860.4 1.59634 -2.48196 0
M  V30 19217 H 1860.48 -0.169818 -2.55236 0
M  V30 19218 H 1860.12 -0.0631602 -5.07861 0
M  V30 19219 H 1860.05 1.7142 -4.97918 0
M  V30 19220 H 1862.54 0.841513 -3.68411 0
M  V30 19221 H 1862.86 1.10566 -7.6485 0
M  V30 19222 H 1861.2 1.00122 -6.8775 0
M  V30 19223 H 1864.39 0.960065 -4.58149 0
M  V30 19224 H 1864.57 1.08074 -6.38924 0
M  V30 19225 N 1857.97 1.50255 0.475528 0
M  V30 19226 C 1859.22 1.61261 1.22975 0
M  V30 19227 C 1859.55 0.309949 1.91711 0
M  V30 19228 O 1858.83 -0.688288 1.81914 0
M  V30 19229 C 1859.11 2.7898 2.27688 0
M  V30 19230 C 1858.96 4.19115 1.63287 0
M  V30 19231 C 1860.28 2.9227 3.29038 0
M  V30 19232 H 1857.4 0.586933 0.445734 0
M  V30 19233 H 1860.04 1.82626 0.524177 0
M  V30 19234 H 1858.19 2.60894 2.87865 0
M  V30 19235 H 1859.86 4.48781 1.06741 0
M  V30 19236 H 1858.11 4.23579 0.936127 0
M  V30 19237 H 1858.78 4.97405 2.39359 0
M  V30 19238 H 1861.25 3.08813 2.78879 0
M  V30 19239 H 1860.13 3.7627 3.9964 0
M  V30 19240 H 1860.39 2.02696 3.92895 0
M  V30 19241 N 1859.45 -0.728395 1.39758 0
M  V30 19242 C 1860.38 -1.85554 1.41747 0
M  V30 19243 C 1861.36 -1.6778 0.279972 0
M  V30 19244 O 1862.55 -1.88001 0.48675 0
M  V30 19245 C 1859.68 -3.23375 1.26671 0
M  V30 19246 C 1858.63 -3.55799 2.37889 0
M  V30 19247 C 1857.96 -4.92628 2.07899 0
M  V30 19248 C 1859.26 -3.58098 3.80215 0
M  V30 19249 H 1860.95 -1.84146 2.36073 0
M  V30 19250 H 1858.5 -0.884539 1.13631 0
M  V30 19251 H 1860.45 -4.01907 1.26682 0
M  V30 19252 H 1859.17 -3.25326 0.288159 0
M  V30 19253 H 1857.83 -2.796 2.37107 0
M  V30 19254 H 1857.48 -4.91166 1.08466 0
M  V30 19255 H 1857.18 -5.15288 2.82404 0
M  V30 19256 H 1858.7 -5.73509 2.09571 0
M  V30 19257 H 1860.12 -4.26694 3.82891 0
M  V30 19258 H 1858.51 -3.9228 4.54133 0
M  V30 19259 H 1859.58 -2.57758 4.10718 0
M  V30 19260 N 1860.93 -1.25042 -0.959279 0
M  V30 19261 C 1862.17 -1.09677 -1.70584 0
M  V30 19262 C 1862.51 0.362184 -1.90793 0
M  V30 19263 O 1861.78 1.26722 -1.47552 0
M  V30 19264 C 1862.06 -1.84646 -3.09157 0
M  V30 19265 C 1861.92 -3.38342 -2.96387 0
M  V30 19266 C 1863.24 -1.62588 -4.08966 0
M  V30 19267 H 1860.36 -0.399817 -0.619125 0
M  V30 19268 H 1863 -1.53816 -1.11537 0
M  V30 19269 H 1861.15 -1.47129 -3.59563 0
M  V30 19270 H 1862.82 -3.85507 -2.53342 0
M  V30 19271 H 1861.06 -3.66291 -2.32408 0
M  V30 19272 H 1861.73 -3.86007 -3.94592 0
M  V30 19273 H 1864.21 -1.9524 -3.67451 0
M  V30 19274 H 1863.09 -2.17488 -5.03975 0
M  V30 19275 H 1863.35 -0.566103 -4.38461 0
M  V30 19276 N 1862.41 1.16121 -1.06553 0
M  V30 19277 C 1863.65 1.86991 -0.784989 0
M  V30 19278 C 1863.99 1.81645 0.686919 0
M  V30 19279 O 1863.26 1.23394 1.50347 0
M  V30 19280 C 1863.54 3.36448 -1.28355 0
M  V30 19281 C 1863.4 3.5047 -2.81941 0
M  V30 19282 C 1864.72 4.30933 -0.893561 0
M  V30 19283 H 1861.83 0.678978 -0.286633 0
M  V30 19284 H 1864.48 1.36475 -1.32192 0
M  V30 19285 H 1862.63 3.796 -0.826796 0
M  V30 19286 H 1864.3 3.16237 -3.35845 0
M  V30 19287 H 1862.54 2.92294 -3.20541 0
M  V30 19288 H 1863.21 4.55443 -3.11891 0
M  V30 19289 H 1865.69 3.95696 -1.287 0
M  V30 19290 H 1864.56 5.3401 -1.26984 0
M  V30 19291 H 1864.83 4.41642 0.201274 0
M  V30 19292 N 1863.88 0.848487 1.3281 0
M  V30 19293 C 1865.13 0.449521 1.97755 0
M  V30 19294 C 1865.46 -0.990923 1.67016 0
M  V30 19295 O 1864.74 -1.69434 0.955119 0
M  V30 19296 C 1865.02 0.681898 3.53585 0
M  V30 19297 C 1864.87 2.17031 3.93976 0
M  V30 19298 C 1866.19 0.134271 4.39895 0
M  V30 19299 H 1863.31 0.164799 0.718339 0
M  V30 19300 H 1865.95 1.06578 1.57293 0
M  V30 19301 H 1864.1 0.157353 3.88181 0
M  V30 19302 H 1865.78 2.76046 3.69589 0
M  V30 19303 H 1864.02 2.65117 3.43359 0
M  V30 19304 H 1864.69 2.28362 5.02548 0
M  V30 19305 H 1867.17 0.582756 4.11999 0
M  V30 19306 H 1866.04 0.326479 5.47928 0
M  V30 19307 H 1866.3 -0.962576 4.31494 0
M  V30 19308 N 1865.36 -1.4549 0.605832 0
M  V30 19309 C 1866.31 -2.32256 -0.126541 0
M  V30 19310 C 1867.3 -1.45865 -0.861381 0
M  V30 19311 O 1868.51 -1.62359 -0.777146 0
M  V30 19312 H 1864.89 -0.749629 -0.0596684 0
M  V30 19313 H 1866.86 -2.91809 0.623708 0
M  V30 19314 C 1865.61 -3.2945 -1.11165 0
M  V30 19315 H 1864.93 -3.9592 -0.555636 0
M  V30 19316 H 1866.37 -3.92894 -1.59406 0
M  V30 19317 C 1864.83 -2.56493 -2.18433 0
M  V30 19318 O 1865.36 -2.34501 -3.26147 0
M  V30 19319 N 1863.56 -2.16658 -1.93669 0
M  V30 19320 H 1863.11 -2.34744 -1.0608 0
M  V30 19321 H 1863.07 -1.68166 -2.65645 0
M  V30 19322 N 1866.84 -0.344893 -1.5378 0
M  V30 19323 C 1868.07 0.255228 -2.05824 0
M  V30 19324 C 1868.49 1.43329 -1.21812 0
M  V30 19325 O 1867.85 1.79807 -0.232191 0
M  V30 19326 C 1867.9 0.646906 -3.5475 0
M  V30 19327 O 1867 1.74677 -3.7358 0
M  V30 19328 H 1866.34 0.0420518 -0.662667 0
M  V30 19329 H 1868.87 -0.499498 -1.98409 0
M  V30 19330 H 1868.88 0.923686 -3.97407 0
M  V30 19331 H 1867.56 -0.214619 -4.15346 0
M  V30 19332 H 1866.13 1.46715 -3.42825 0
M  V30 19333 N 1868.32 1.57428 -0.0735454 0
M  V30 19334 C 1869.25 2.09808 0.922679 0
M  V30 19335 C 1870.26 1.0306 1.26026 0
M  V30 19336 O 1871.45 1.30568 1.21714 0
M  V30 19337 C 1868.55 2.54492 2.23801 0
M  V30 19338 C 1867.73 3.84832 2.07901 0
M  V30 19339 C 1866.78 4.15592 3.22754 0
M  V30 19340 O 1865.81 4.85163 2.97667 0
M  V30 19341 N 1867.01 3.69277 4.47901 0
M  V30 19342 H 1869.78 2.95905 0.475456 0
M  V30 19343 H 1867.34 1.61511 0.112135 0
M  V30 19344 H 1869.33 2.7213 2.99545 0
M  V30 19345 H 1867.9 1.73523 2.60016 0
M  V30 19346 H 1867.12 3.76557 1.16614 0
M  V30 19347 H 1868.41 4.70144 1.9453 0
M  V30 19348 H 1867.81 3.13076 4.71168 0
M  V30 19349 H 1866.36 3.92111 5.20665 0
M  V30 19350 N 1869.8 -0.200022 1.56326 0
M  V30 19351 C 1871.07 -0.946774 1.71159 0
M  V30 19352 C 1871.45 -2.01576 0.626939 0
M  V30 19353 O 1870.8 -2.25601 -0.362834 0
M  V30 19354 C 1871.01 -1.53767 3.13299 0
M  V30 19355 C 1872.36 -2.02169 3.7338 0
M  V30 19356 O 1873.38 -1.6362 3.16397 0
M  V30 19357 O 1872.24 -2.7309 4.73375 0
M  V30 19358 H 1869.34 -0.443669 0.697916 0
M  V30 19359 H 1871.88 -0.190107 1.68632 0
M  V30 19360 H 1870.65 -0.766886 3.83712 0
M  V30 19361 H 1870.28 -2.35931 3.20035 0
M  V30 19362 N 1871.27 -1.50505 -0.467553 0
M  V30 19363 C 1872.52 -1.6191 -1.22118 0
M  V30 19364 C 1872.85 -0.320112 -1.91544 0
M  V30 19365 O 1872.13 0.678631 -1.82277 0
M  V30 19366 C 1872.41 -2.80184 -2.26206 0
M  V30 19367 C 1872.26 -4.19975 -1.61062 0
M  V30 19368 C 1873.58 -2.94011 -3.27484 0
M  V30 19369 H 1870.7 -0.589289 -0.442615 0
M  V30 19370 H 1873.34 -1.82902 -0.514484 0
M  V30 19371 H 1871.49 -2.62417 -2.86478 0
M  V30 19372 H 1873.17 -4.4934 -1.04359 0
M  V30 19373 H 1871.41 -4.24069 -0.91365 0
M  V30 19374 H 1872.08 -4.98667 -2.36718 0
M  V30 19375 H 1874.56 -3.10288 -2.77238 0
M  V30 19376 H 1873.43 -3.78384 -3.97639 0
M  V30 19377 H 1873.69 -2.04777 -3.91815 0
M  V30 19378 N 1872.75 0.720973 -1.40142 0
M  V30 19379 C 1873.98 1.50793 -1.41226 0
M  V30 19380 C 1874.39 1.89198 -0.00879422 0
M  V30 19381 O 1873.73 1.55606 0.976337 0
M  V30 19382 C 1873.8 2.81639 -2.23427 0
M  V30 19383 C 1873.46 2.65588 -3.71903 0
M  V30 19384 C 1874.46 2.33204 -4.64663 0
M  V30 19385 C 1872.14 2.82021 -4.15655 0
M  V30 19386 C 1874.14 2.17454 -5.9916 0
M  V30 19387 C 1871.82 2.65889 -5.50224 0
M  V30 19388 C 1872.82 2.33653 -6.41791 0
M  V30 19389 O 1872.51 2.17637 -7.73879 0
M  V30 19390 H 1872.24 0.472113 -0.483824 0
M  V30 19391 H 1874.79 0.89739 -1.84759 0
M  V30 19392 H 1873.02 3.45006 -1.74665 0
M  V30 19393 H 1874.71 3.43329 -2.16518 0
M  V30 19394 H 1875.48 2.20146 -4.32158 0
M  V30 19395 H 1871.36 3.06101 -3.44707 0
M  V30 19396 H 1874.9 1.92215 -6.70596 0
M  V30 19397 H 1870.8 2.78529 -5.82316 0
M  V30 19398 H 1871.57 2.32599 -7.84755 0
M  V30 19399 N 1874.23 1.25549 0.952634 0
M  V30 19400 C 1875.18 1.06108 2.04963 0
M  V30 19401 C 1876.15 -0.0303872 1.66072 0
M  V30 19402 O 1877.33 0.127178 1.90376 0
M  V30 19403 C 1874.47 0.68799 3.38173 0
M  V30 19404 C 1873.59 1.85452 3.90168 0
M  V30 19405 C 1872.72 1.4256 5.11713 0
M  V30 19406 C 1871.76 2.56115 5.55942 0
M  V30 19407 N 1870.9 2.13984 6.68697 0
M  V30 19408 H 1875.74 1.99991 2.20925 0
M  V30 19409 H 1873.27 0.995895 1.08261 0
M  V30 19410 H 1875.23 0.452622 4.14737 0
M  V30 19411 H 1873.86 -0.213845 3.22091 0
M  V30 19412 H 1872.91 2.20314 3.10106 0
M  V30 19413 H 1874.23 2.70722 4.1894 0
M  V30 19414 H 1873.38 1.15 5.95701 0
M  V30 19415 H 1872.12 0.54365 4.8466 0
M  V30 19416 H 1871.12 2.84417 4.70518 0
M  V30 19417 H 1872.35 3.44891 5.85002 0
M  V30 19418 H 1870.29 1.28208 6.4335 0
M  V30 19419 H 1870.21 2.92801 6.96996 0
M  V30 19420 H 1871.48 1.89605 7.56089 0
M  V30 19421 N 1875.71 -1.15554 1.07168 0
M  V30 19422 C 1876.93 -1.90723 0.814832 0
M  V30 19423 C 1877.36 -1.7738 -0.62594 0
M  V30 19424 O 1876.72 -1.10521 -1.43718 0
M  V30 19425 C 1876.76 -3.39137 1.22551 0
M  V30 19426 O 1875.87 -4.1074 0.369677 0
M  V30 19427 H 1875.21 -0.593866 0.297017 0
M  V30 19428 H 1877.74 -1.46348 1.42981 0
M  V30 19429 H 1877.75 -3.89926 1.20089 0
M  V30 19430 H 1876.42 -3.48167 2.27492 0
M  V30 19431 H 1875 -3.70094 0.456626 0
M  V30 19432 N 1877.19 -0.855519 -1.32358 0
M  V30 19433 C 1878.12 -0.316159 -2.3135 0
M  V30 19434 C 1879.1 0.585159 -1.59718 0
M  V30 19435 O 1880.28 0.505221 -1.87513 0
M  V30 19436 C 1877.41 0.495577 -3.43746 0
M  V30 19437 C 1876.37 -0.311382 -4.26866 0
M  V30 19438 C 1875.69 0.625144 -5.31033 0
M  V30 19439 C 1876.99 -1.5376 -4.99154 0
M  V30 19440 H 1878.69 -1.14331 -2.7671 0
M  V30 19441 H 1876.23 -0.551221 -1.33032 0
M  V30 19442 H 1878.19 0.883325 -4.12038 0
M  V30 19443 H 1876.91 1.3561 -2.97115 0
M  V30 19444 H 1875.57 -0.680895 -3.60221 0
M  V30 19445 H 1875.22 1.48254 -4.80656 0
M  V30 19446 H 1874.92 0.0892112 -5.87532 0
M  V30 19447 H 1876.44 1.01005 -6.02188 0
M  V30 19448 H 1877.86 -1.2221 -5.60123 0
M  V30 19449 H 1876.25 -2.01153 -5.65382 0
M  V30 19450 H 1877.32 -2.29838 -4.26969 0
M  V30 19451 N 1878.67 1.45167 -0.61354 0
M  V30 19452 C 1879.89 2.06565 -0.117608 0
M  V30 19453 C 1880.31 1.45716 1.20051 0
M  V30 19454 O 1879.67 0.573512 1.73254 0
M  V30 19455 C 1879.72 3.61493 0.0221474 0
M  V30 19456 O 1879.44 4.20072 -1.24383 0
M  V30 19457 C 1880.94 4.39889 0.548841 0
M  V30 19458 H 1878.16 0.667172 -0.0715756 0
M  V30 19459 H 1880.7 1.86318 -0.84296 0
M  V30 19460 H 1878.86 3.81063 0.697854 0
M  V30 19461 H 1879.27 5.13317 -1.07733 0
M  V30 19462 H 1880.75 5.48776 0.595696 0
M  V30 19463 H 1881.22 4.1009 1.57234 0
M  V30 19464 H 1881.83 4.25198 -0.0930203 0
M  V30 19465 N 1880.14 0.353044 1.53595 0
M  V30 19466 C 1881.39 -0.2416 2.00248 0
M  V30 19467 C 1881.71 -1.5089 1.24465 0
M  V30 19468 O 1882.91 -2.18137 1.61643 0
M  V30 19469 C 1881.37 -0.481075 3.5667 0
M  V30 19470 C 1880.98 0.77087 4.41318 0
M  V30 19471 C 1882.72 -1.03406 4.11713 0
M  V30 19472 C 1880.63 0.501671 5.89268 0
M  V30 19473 H 1879.56 -0.0940573 0.74811 0
M  V30 19474 H 1882.21 0.469845 1.77383 0
M  V30 19475 H 1880.59 -1.25346 3.75639 0
M  V30 19476 H 1881.76 1.54509 4.34124 0
M  V30 19477 H 1880.08 1.24617 3.97315 0
M  V30 19478 H 1882.68 -1.25058 5.1987 0
M  V30 19479 H 1883.02 -1.99245 3.65523 0
M  V30 19480 H 1883.55 -0.322144 3.96493 0
M  V30 19481 H 1880.29 1.43005 6.39711 0
M  V30 19482 H 1879.81 -0.234284 5.99342 0
M  V30 19483 H 1881.49 0.122468 6.46884 0
M  V30 19484 N 1881.62 -1.57387 0.0818932 0
M  V30 19485 C 1882.87 -1.94156 -0.585765 0
M  V30 19486 C 1883.2 -0.962889 -1.68648 0
M  V30 19487 O 1882.48 0.00625819 -1.94499 0
M  V30 19488 C 1882.76 -3.41132 -1.15329 0
M  V30 19489 C 1882.61 -4.49762 -0.0585349 0
M  V30 19490 C 1883.93 -3.89137 -2.05573 0
M  V30 19491 H 1881.05 -0.706012 -0.211463 0
M  V30 19492 H 1883.69 -1.89408 0.149918 0
M  V30 19493 H 1881.84 -3.4531 -1.78026 0
M  V30 19494 H 1883.51 -4.57702 0.575061 0
M  V30 19495 H 1881.76 -4.29496 0.609574 0
M  V30 19496 H 1882.43 -5.49765 -0.496206 0
M  V30 19497 H 1884.9 -3.87029 -1.52798 0
M  V30 19498 H 1883.78 -4.92569 -2.42213 0
M  V30 19499 H 1884.04 -3.27663 -2.96799 0
M  V30 19500 N 1883.1 0.191729 -1.56429 0
M  V30 19501 C 1884.38 0.937684 -1.71659 0
M  V30 19502 C 1884.76 2.0124 -0.63762 0
M  V30 19503 O 1884.1 2.2579 0.350865 0
M  V30 19504 C 1884.31 1.52104 -3.14111 0
M  V30 19505 C 1885.66 2.00186 -3.74447 0
M  V30 19506 O 1886.69 1.61939 -3.1726 0
M  V30 19507 O 1885.55 2.70576 -4.74817 0
M  V30 19508 H 1882.64 0.439962 -0.700259 0
M  V30 19509 H 1885.19 0.181161 -1.6873 0
M  V30 19510 H 1883.96 0.746526 -3.84113 0
M  V30 19511 H 1883.58 2.3423 -3.21282 0
M  V30 19512 N 1884.58 1.50751 0.459565 0
M  V30 19513 C 1885.83 1.61553 1.20762 0
M  V30 19514 C 1886.14 0.326862 1.9285 0
M  V30 19515 O 1887.35 0.313951 2.69679 0
M  V30 19516 C 1885.8 2.8522 2.19494 0
M  V30 19517 C 1885.41 4.21008 1.53156 0
M  V30 19518 C 1887.15 3.05373 2.94869 0
M  V30 19519 C 1885.06 5.35848 2.50241 0
M  V30 19520 H 1883.99 0.601658 0.454448 0
M  V30 19521 H 1886.64 1.77195 0.476886 0
M  V30 19522 H 1885.02 2.63163 2.95908 0
M  V30 19523 H 1886.2 4.53363 0.824521 0
M  V30 19524 H 1884.51 4.06554 0.900178 0
M  V30 19525 H 1887.11 3.88342 3.67552 0
M  V30 19526 H 1887.45 2.17557 3.54929 0
M  V30 19527 H 1887.99 3.27665 2.25566 0
M  V30 19528 H 1884.72 6.25854 1.94904 0
M  V30 19529 H 1884.24 5.07896 3.19063 0
M  V30 19530 H 1885.92 5.66894 3.11834 0
M  V30 19531 N 1886.06 -0.713531 1.40522 0
M  V30 19532 C 1887.47 -1.29276 1.34702 0
M  V30 19533 C 1887.82 -1.96188 0.0214862 0
M  V30 19534 O 1886.94 -1.97676 -0.880513 0
M  V30 19535 C 1887.54 -2.35082 2.43971 0
M  V30 19536 C 1886.1 -2.88624 2.41605 0
M  V30 19537 C 1885.24 -1.62437 2.24743 0
M  V30 19538 H 1888.19 -0.509517 1.50298 0
M  V30 19539 H 1888.22 -3.15971 2.11996 0
M  V30 19540 H 1887.73 -1.86353 3.40432 0
M  V30 19541 H 1885.83 -3.41578 1.48847 0
M  V30 19542 H 1885.94 -3.40278 3.37265 0
M  V30 19543 H 1884.31 -1.8758 1.72296 0
M  V30 19544 H 1885.09 -1.1573 3.23205 0
M  V30 19545 N 1887.53 -1.26053 -0.945962 0
M  V30 19546 C 1888.47 -1.02985 -2.0476 0
M  V30 19547 C 1889.48 0.00812739 -1.62798 0
M  V30 19548 O 1890.67 -0.231411 -1.76994 0
M  V30 19549 C 1887.77 -0.536609 -3.34625 0
M  V30 19550 C 1886.94 -1.64273 -4.0538 0
M  V30 19551 C 1886 -1.14836 -5.13516 0
M  V30 19552 O 1885.03 -1.84449 -5.38486 0
M  V30 19553 N 1886.23 0.00576017 -5.805 0
M  V30 19554 H 1888.99 -1.97845 -2.25117 0
M  V30 19555 H 1886.55 -1.17375 -1.11512 0
M  V30 19556 H 1888.55 -0.19017 -4.04253 0
M  V30 19557 H 1887.12 0.318275 -3.10976 0
M  V30 19558 H 1886.34 -2.16034 -3.29732 0
M  V30 19559 H 1887.62 -2.3856 -4.49407 0
M  V30 19560 H 1887.02 0.587225 -5.62644 0
M  V30 19561 H 1885.58 0.293161 -6.5114 0
M  V30 19562 N 1889.01 1.14984 -1.07779 0
M  V30 19563 C 1890.24 1.90288 -0.824935 0
M  V30 19564 C 1890.66 1.77709 0.616524 0
M  V30 19565 O 1890.02 1.11281 1.4313 0
M  V30 19566 C 1890.07 3.38482 -1.24348 0
M  V30 19567 O 1889.17 4.10538 -0.391454 0
M  V30 19568 H 1888.51 0.592283 -0.300162 0
M  V30 19569 H 1891.04 1.45588 -1.43755 0
M  V30 19570 H 1891.05 3.89284 -1.22155 0
M  V30 19571 H 1889.73 3.46956 -2.29335 0
M  V30 19572 H 1888.3 3.69846 -0.476247 0
M  V30 19573 N 1890.49 0.862526 1.31902 0
M  V30 19574 C 1891.42 0.328423 2.31179 0
M  V30 19575 C 1892.4 -0.57668 1.60026 0
M  V30 19576 O 1893.59 -0.49527 1.87778 0
M  V30 19577 C 1890.72 -0.47734 3.44004 0
M  V30 19578 C 1889.67 0.334015 4.26695 0
M  V30 19579 C 1889 -0.596973 5.31357 0
M  V30 19580 C 1890.3 1.56405 4.98332 0
M  V30 19581 H 1891.99 1.15797 2.761 0
M  V30 19582 H 1889.54 0.558268 1.32738 0
M  V30 19583 H 1891.49 -0.861461 4.12501 0
M  V30 19584 H 1890.21 -1.34033 2.9783 0
M  V30 19585 H 1888.87 0.699989 3.59855 0
M  V30 19586 H 1888.52 -1.45703 4.81435 0
M  V30 19587 H 1888.22 -0.0580517 5.87571 0
M  V30 19588 H 1889.74 -0.978099 6.02715 0
M  V30 19589 H 1891.16 1.25178 5.59467 0
M  V30 19590 H 1889.55 2.04149 5.64308 0
M  V30 19591 H 1890.62 2.32099 4.25744 0
M  V30 19592 N 1891.97 -1.4484 0.62123 0
M  V30 19593 C 1893.2 -2.065 0.128561 0
M  V30 19594 C 1893.61 -1.46351 -1.19277 0
M  V30 19595 O 1892.97 -0.582692 -1.72948 0
M  V30 19596 C 1893.02 -3.615 -0.00297622 0
M  V30 19597 O 1892.74 -4.19407 1.26609 0
M  V30 19598 C 1894.24 -4.40174 -0.525505 0
M  V30 19599 H 1891.46 -0.666783 0.0751128 0
M  V30 19600 H 1894.01 -1.85868 0.852829 0
M  V30 19601 H 1892.16 -3.81427 -0.677635 0
M  V30 19602 H 1892.57 -5.12738 1.10454 0
M  V30 19603 H 1894.05 -5.49085 -0.566585 0
M  V30 19604 H 1894.53 -4.10918 -1.55057 0
M  V30 19605 H 1895.13 -4.25143 0.115568 0
M  V30 19606 N 1893.45 -0.361184 -1.53405 0
M  V30 19607 C 1894.69 0.229881 -2.01191 0
M  V30 19608 C 1895.02 1.49133 -1.24858 0
M  V30 19609 O 1894.28 1.92911 -0.329218 0
M  V30 19610 C 1894.58 0.572109 -3.52791 0
M  V30 19611 C 1894.24 -0.594503 -4.46964 0
M  V30 19612 C 1892.9 -0.914615 -4.72428 0
M  V30 19613 C 1895.26 -1.3763 -5.027 0
M  V30 19614 C 1892.58 -2.01858 -5.50881 0
M  V30 19615 C 1894.94 -2.47064 -5.82359 0
M  V30 19616 C 1893.6 -2.79615 -6.06112 0
M  V30 19617 H 1892.87 0.0841196 -0.73621 0
M  V30 19618 H 1895.52 -0.49274 -1.85052 0
M  V30 19619 H 1893.82 1.37569 -3.66854 0
M  V30 19620 H 1895.52 1.04161 -3.87236 0
M  V30 19621 H 1892.11 -0.334965 -4.27289 0
M  V30 19622 H 1896.29 -1.14224 -4.82977 0
M  V30 19623 H 1891.55 -2.27481 -5.67505 0
M  V30 19624 H 1895.72 -3.08062 -6.24556 0
M  V30 19625 H 1893.35 -3.65282 -6.66688 0
M  V30 19626 N 1894.92 1.57341 -0.0902386 0
M  V30 19627 C 1896.15 1.98934 0.586524 0
M  V30 19628 C 1896.57 0.968841 1.6123 0
M  V30 19629 O 1895.93 -0.0632868 1.8119 0
M  V30 19630 C 1895.98 3.39509 1.21516 0
M  V30 19631 O 1895.08 3.40203 2.331 0
M  V30 19632 H 1894.43 0.647009 0.14925 0
M  V30 19633 H 1896.96 2.03891 -0.170213 0
M  V30 19634 H 1896.97 3.77097 1.55762 0
M  V30 19635 H 1895.64 4.13308 0.463639 0
M  V30 19636 H 1894.22 3.14405 2.0051 0
M  V30 19637 N 1896.4 -0.183431 1.56529 0
M  V30 19638 C 1897.63 -0.916557 1.85156 0
M  V30 19639 C 1898.04 -1.76861 0.672063 0
M  V30 19640 O 1897.38 -1.7997 -0.3683 0
M  V30 19641 C 1897.45 -1.85342 3.0804 0
M  V30 19642 C 1897.11 -1.18216 4.41445 0
M  V30 19643 C 1898.11 -0.553445 5.16946 0
M  V30 19644 C 1895.79 -1.18253 4.88182 0
M  V30 19645 C 1897.79 0.0659422 6.37366 0
M  V30 19646 C 1895.47 -0.559316 6.08535 0
M  V30 19647 C 1896.47 0.0638301 6.8297 0
M  V30 19648 O 1896.16 0.677251 8.01042 0
M  V30 19649 H 1895.89 -0.272343 0.618713 0
M  V30 19650 H 1898.44 -0.192085 2.045 0
M  V30 19651 H 1896.67 -2.61789 2.84611 0
M  V30 19652 H 1898.36 -2.45533 3.23215 0
M  V30 19653 H 1899.13 -0.545219 4.81926 0
M  V30 19654 H 1895.01 -1.65696 4.30193 0
M  V30 19655 H 1898.55 0.552935 6.95405 0
M  V30 19656 H 1894.45 -0.565084 6.43022 0
M  V30 19657 H 1895.22 0.575305 8.16476 0
M  V30 19658 N 1897.88 -1.50992 -0.451564 0
M  V30 19659 C 1899.16 -1.53486 -1.2125 0
M  V30 19660 C 1899.54 -0.290809 -2.09087 0
M  V30 19661 O 1898.89 0.724859 -2.16698 0
M  V30 19662 C 1899.1 -2.84125 -2.02667 0
M  V30 19663 C 1900.44 -3.35535 -2.60195 0
M  V30 19664 O 1901.47 -2.85579 -2.12892 0
M  V30 19665 O 1900.33 -4.22667 -3.46432 0
M  V30 19666 H 1897.42 -0.616481 -0.551253 0
M  V30 19667 H 1899.97 -1.63296 -0.461792 0
M  V30 19668 H 1898.74 -3.66134 -1.38064 0
M  V30 19669 H 1898.36 -2.7741 -2.84832 0
M  V30 19670 N 1899.36 0.706069 -1.40899 0
M  V30 19671 C 1900.61 1.46315 -1.39415 0
M  V30 19672 C 1900.93 1.95 -0.000496593 0
M  V30 19673 O 1900.2 1.70995 0.955904 0
M  V30 19674 H 1898.78 0.542863 -0.513136 0
M  V30 19675 H 1901.44 0.836396 -1.76041 0
M  V30 19676 H 1900.54 2.33139 -2.07491 0
M  V30 19677 N 1900.84 1.26553 0.939264 0
M  V30 19678 C 1901.77 1.10778 2.05549 0
M  V30 19679 C 1902.75 0.0124359 1.70095 0
M  V30 19680 O 1903.93 0.184814 1.93319 0
M  V30 19681 C 1901.06 0.742011 3.39281 0
M  V30 19682 C 1900.02 1.78931 3.88803 0
M  V30 19683 C 1899.34 1.2778 5.19207 0
M  V30 19684 C 1900.64 3.1912 4.13473 0
M  V30 19685 H 1902.34 2.04151 2.19004 0
M  V30 19686 H 1899.88 0.98294 1.05234 0
M  V30 19687 H 1901.84 0.618526 4.16836 0
M  V30 19688 H 1900.56 -0.22742 3.25807 0
M  V30 19689 H 1899.22 1.9015 3.13431 0
M  V30 19690 H 1898.87 0.298159 5.02116 0
M  V30 19691 H 1898.57 1.9779 5.53311 0
M  V30 19692 H 1900.09 1.16703 5.99344 0
M  V30 19693 H 1901.5 3.10967 4.81635 0
M  V30 19694 H 1899.9 3.86738 4.58862 0
M  V30 19695 H 1900.97 3.65034 3.19183 0
M  V30 19696 N 1902.31 -1.14411 1.08387 0
M  V30 19697 C 1903.73 -1.37432 0.811464 0
M  V30 19698 C 1903.93 -1.92992 -0.579345 0
M  V30 19699 O 1902.99 -2.14249 -1.33618 0
M  V30 19700 C 1904.3 -2.33557 1.89398 0
M  V30 19701 C 1905.85 -2.47197 1.91996 0
M  V30 19702 C 1906.32 -3.46622 2.99361 0
M  V30 19703 N 1907.81 -3.54165 2.98532 0
M  V30 19704 C 1908.55 -4.30946 3.78249 0
M  V30 19705 N 1908.04 -5.10972 4.67846 0
M  V30 19706 N 1909.84 -4.26141 3.66552 0
M  V30 19707 H 1901.99 -0.76694 1.9807 0
M  V30 19708 H 1904.25 -0.399866 0.859541 0
M  V30 19709 H 1903.96 -1.99868 2.89388 0
M  V30 19710 H 1903.83 -3.33459 1.7631 0
M  V30 19711 H 1906.22 -2.80178 0.926513 0
M  V30 19712 H 1906.3 -1.47258 2.09162 0
M  V30 19713 H 1905.94 -3.14374 3.98913 0
M  V30 19714 H 1905.87 -4.46341 2.7944 0
M  V30 19715 H 1908.36 -2.97057 2.33593 0
M  V30 19716 H 1908.68 -5.66834 5.2528 0
M  V30 19717 H 1907.02 -5.10241 4.71889 0
M  V30 19718 H 1910.21 -3.62693 2.95925 0
M  V30 19719 H 1910.39 -4.85729 4.28919 0
M  V30 19720 N 1903.79 -0.869509 -1.31443 0
M  V30 19721 C 1905.04 -0.479265 -1.96335 0
M  V30 19722 C 1905.36 0.971583 -1.69072 0
M  V30 19723 O 1904.63 1.68104 -1.00588 0
M  V30 19724 H 1903.21 -0.174241 -0.726394 0
M  V30 19725 H 1905.87 -1.1092 -1.60259 0
M  V30 19726 H 1904.97 -0.636628 -3.05538 0
M  V30 19727 N 1905.27 1.44508 -0.628902 0
M  V30 19728 C 1906.23 2.291 0.0676501 0
M  V30 19729 C 1907.23 1.40921 0.77447 0
M  V30 19730 O 1908.42 1.62816 0.619397 0
M  V30 19731 C 1905.56 3.22448 1.10634 0
M  V30 19732 H 1906.75 2.92174 -0.676344 0
M  V30 19733 H 1904.3 1.51384 -0.388933 0
M  V30 19734 H 1905.04 2.64219 1.88039 0
M  V30 19735 H 1904.82 3.87428 0.603465 0
M  V30 19736 H 1906.31 3.86 1.59354 0
M  V30 19737 N 1906.75 0.369315 1.53212 0
M  V30 19738 C 1908 -0.220348 2.00493 0
M  V30 19739 C 1908.31 -1.49561 1.26059 0
M  V30 19740 O 1909.52 -2.1641 1.63947 0
M  V30 19741 C 1907.97 -0.443218 3.5716 0
M  V30 19742 C 1907.58 0.817634 4.40476 0
M  V30 19743 C 1909.33 -0.990333 4.12786 0
M  V30 19744 C 1907.23 0.564143 5.88703 0
M  V30 19745 H 1906.16 -0.0861173 0.749066 0
M  V30 19746 H 1908.81 0.488632 1.76875 0
M  V30 19747 H 1907.2 -1.21355 3.76947 0
M  V30 19748 H 1908.37 1.59105 4.32461 0
M  V30 19749 H 1906.68 1.28824 3.95971 0
M  V30 19750 H 1909.28 -1.19537 5.21167 0
M  V30 19751 H 1909.62 -1.95357 3.67616 0
M  V30 19752 H 1910.16 -0.280073 3.96813 0
M  V30 19753 H 1906.9 1.49782 6.38158 0
M  V30 19754 H 1906.42 -0.170702 5.99557 0
M  V30 19755 H 1908.1 0.191072 6.46718 0
M  V30 19756 N 1908.23 -1.57291 0.0985816 0
M  V30 19757 C 1909.64 -1.575 -0.258064 0
M  V30 19758 C 1909.84 -1.10997 -1.68172 0
M  V30 19759 O 1908.9 -0.78802 -2.39889 0
M  V30 19760 C 1910.21 -3.00669 -0.0433215 0
M  V30 19761 C 1911.76 -3.12804 -0.110802 0
M  V30 19762 C 1912.24 -4.57937 0.0759907 0
M  V30 19763 N 1913.73 -4.63195 0.021273 0
M  V30 19764 C 1914.46 -5.73227 0.141 0
M  V30 19765 N 1913.96 -6.9208 0.315756 0
M  V30 19766 N 1915.75 -5.6204 0.0820222 0
M  V30 19767 H 1907.9 -1.85826 1.02871 0
M  V30 19768 H 1910.16 -0.857869 0.403441 0
M  V30 19769 H 1909.87 -3.38903 0.940103 0
M  V30 19770 H 1909.74 -3.6896 -0.784124 0
M  V30 19771 H 1912.13 -2.7444 -1.08473 0
M  V30 19772 H 1912.21 -2.47098 0.661548 0
M  V30 19773 H 1911.86 -4.96995 1.04681 0
M  V30 19774 H 1911.79 -5.21708 -0.716096 0
M  V30 19775 H 1914.28 -3.77737 -0.111114 0
M  V30 19776 H 1914.59 -7.71772 0.398531 0
M  V30 19777 H 1912.94 -6.94111 0.351469 0
M  V30 19778 H 1916.13 -4.6807 -0.0533968 0
M  V30 19779 H 1916.3 -6.47753 0.178778 0
M  V30 19780 N 1909.71 0.175127 -1.56624 0
M  V30 19781 C 1910.65 1.21687 -1.96114 0
M  V30 19782 C 1911.62 1.44191 -0.824518 0
M  V30 19783 O 1912.81 1.56994 -1.08433 0
M  V30 19784 C 1909.95 2.55207 -2.323 0
M  V30 19785 C 1909.06 2.40115 -3.59122 0
M  V30 19786 C 1908.2 3.66475 -3.84538 0
M  V30 19787 C 1907.23 3.463 -5.04721 0
M  V30 19788 N 1906.37 4.6472 -5.26288 0
M  V30 19789 H 1911.21 0.873106 -2.84923 0
M  V30 19790 H 1908.75 0.419721 -1.40985 0
M  V30 19791 H 1910.71 3.33022 -2.51302 0
M  V30 19792 H 1909.34 2.87587 -1.46607 0
M  V30 19793 H 1908.39 1.53496 -3.48056 0
M  V30 19794 H 1909.7 2.21151 -4.47095 0
M  V30 19795 H 1908.85 4.52726 -4.03886 0
M  V30 19796 H 1907.59 3.88414 -2.94934 0
M  V30 19797 H 1906.6 2.58435 -4.85274 0
M  V30 19798 H 1907.82 3.25787 -5.95852 0
M  V30 19799 H 1905.77 4.86885 -4.39635 0
M  V30 19800 H 1905.69 4.48656 -6.08477 0
M  V30 19801 H 1906.95 5.52265 -5.50112 0
M  V30 19802 N 1911.18 1.5123 0.44355 0
M  V30 19803 C 1912.15 1.71511 1.52041 0
M  V30 19804 C 1913.15 0.585226 1.49772 0
M  V30 19805 O 1914.34 0.852687 1.51904 0
M  V30 19806 C 1911.47 1.76583 2.91601 0
M  V30 19807 H 1912.66 2.67613 1.35364 0
M  V30 19808 H 1910.21 1.41125 0.671811 0
M  V30 19809 H 1910.95 0.822743 3.1369 0
M  V30 19810 H 1910.73 2.58693 2.94653 0
M  V30 19811 H 1912.22 1.94135 3.69732 0
M  V30 19812 N 1912.66 -0.698586 1.41271 0
M  V30 19813 C 1913.61 -1.81256 1.42881 0
M  V30 19814 C 1914.58 -1.63662 0.283562 0
M  V30 19815 O 1915.76 -1.84555 0.48416 0
M  V30 19816 C 1912.9 -3.19113 1.31381 0
M  V30 19817 C 1912.02 -3.4816 2.55751 0
M  V30 19818 C 1911.15 -4.75615 2.36566 0
M  V30 19819 C 1910.19 -4.9762 3.56427 0
M  V30 19820 N 1909.33 -6.16299 3.36332 0
M  V30 19821 H 1914.17 -1.79214 2.38089 0
M  V30 19822 H 1911.7 -0.875213 1.1823 0
M  V30 19823 H 1913.66 -3.98744 1.22716 0
M  V30 19824 H 1912.29 -3.20339 0.397831 0
M  V30 19825 H 1911.34 -2.62957 2.74878 0
M  V30 19826 H 1912.66 -3.60323 3.44918 0
M  V30 19827 H 1911.81 -5.63295 2.25352 0
M  V30 19828 H 1910.55 -4.65693 1.44851 0
M  V30 19829 H 1909.55 -4.0839 3.681 0
M  V30 19830 H 1910.78 -5.09404 4.49093 0
M  V30 19831 H 1908.73 -6.07595 2.47314 0
M  V30 19832 H 1908.64 -6.29216 4.19074 0
M  V30 19833 H 1909.91 -7.06722 3.28884 0
M  V30 19834 N 1914.14 -1.27049 -0.93254 0
M  V30 19835 C 1915.42 -1.03836 -1.65763 0
M  V30 19836 C 1915.8 0.428461 -2.06706 0
M  V30 19837 O 1915.14 1.41067 -1.79756 0
M  V30 19838 C 1915.35 -1.99534 -2.86334 0
M  V30 19839 C 1916.7 -2.28632 -3.57788 0
M  V30 19840 O 1917.73 -1.97469 -2.96453 0
M  V30 19841 O 1916.59 -2.81732 -4.68284 0
M  V30 19842 H 1913.68 -0.395479 -0.72631 0
M  V30 19843 H 1916.23 -1.38294 -0.983504 0
M  V30 19844 H 1915 -2.98479 -2.53033 0
M  V30 19845 H 1914.62 -1.65608 -3.61469 0
M  V30 19846 N 1915.62 1.13835 -1.08993 0
M  V30 19847 C 1916.85 1.88588 -0.843698 0
M  V30 19848 C 1917.26 1.79154 0.608307 0
M  V30 19849 O 1916.6 1.1529 1.43017 0
M  V30 19850 C 1916.66 3.39079 -1.19438 0
M  V30 19851 C 1916.32 3.72295 -2.65038 0
M  V30 19852 C 1917.32 3.71911 -3.63288 0
M  V30 19853 C 1915.01 4.0209 -3.01046 0
M  V30 19854 C 1917 4.00855 -4.95574 0
M  V30 19855 C 1914.69 4.30697 -4.33525 0
M  V30 19856 C 1915.69 4.30063 -5.30598 0
M  V30 19857 O 1915.37 4.57972 -6.60694 0
M  V30 19858 H 1915.11 0.60402 -0.303539 0
M  V30 19859 H 1917.66 1.45055 -1.45424 0
M  V30 19860 H 1915.89 3.83094 -0.526861 0
M  V30 19861 H 1917.58 3.95149 -0.928011 0
M  V30 19862 H 1918.34 3.48972 -3.36814 0
M  V30 19863 H 1914.22 4.01733 -2.26123 0
M  V30 19864 H 1917.77 4.00276 -5.71336 0
M  V30 19865 H 1913.66 4.53106 -4.59745 0
M  V30 19866 H 1914.43 4.75661 -6.661 0
M  V30 19867 N 1917.1 0.876467 1.3098 0
M  V30 19868 C 1918.34 0.489671 1.96078 0
M  V30 19869 C 1918.66 -0.962603 1.69585 0
M  V30 19870 O 1917.93 -1.67568 1.01478 0
M  V30 19871 H 1916.51 0.178091 0.72546 0
M  V30 19872 H 1919.18 1.11768 1.59668 0
M  V30 19873 H 1918.27 0.652822 3.05196 0
M  V30 19874 N 1918.57 -1.44173 0.636557 0
M  V30 19875 C 1919.82 -2.01993 0.143216 0
M  V30 19876 C 1920.15 -1.50104 -1.23689 0
M  V30 19877 O 1919.4 -0.677627 -1.83594 0
M  V30 19878 C 1919.7 -3.57299 0.0849933 0
M  V30 19879 C 1919.37 -4.28464 1.40461 0
M  V30 19880 C 1918.03 -4.47622 1.76601 0
M  V30 19881 C 1920.38 -4.68908 2.27541 0
M  V30 19882 C 1917.71 -5.04485 2.99519 0
M  V30 19883 C 1920.06 -5.27133 3.49734 0
M  V30 19884 C 1918.73 -5.44509 3.86091 0
M  V30 19885 H 1918 -0.739144 0.0524066 0
M  V30 19886 H 1920.64 -1.72868 0.823952 0
M  V30 19887 H 1918.95 -3.85869 -0.679134 0
M  V30 19888 H 1920.65 -3.99774 -0.31333 0
M  V30 19889 H 1917.24 -4.13886 1.11337 0
M  V30 19890 H 1921.42 -4.53815 2.00913 0
M  V30 19891 H 1916.68 -5.16125 3.27758 0
M  V30 19892 H 1920.85 -5.5742 4.1744 0
M  V30 19893 H 1918.48 -5.88336 4.81419 0
M  V30 19894 N 1920.05 -0.377435 -1.53014 0
M  V30 19895 C 1921.28 0.208944 -2.05842 0
M  V30 19896 C 1921.69 1.41487 -1.25007 0
M  V30 19897 O 1921.05 1.80121 -0.293703 0
M  V30 19898 C 1921.1 0.590778 -3.5664 0
M  V30 19899 O 1920.82 -0.56723 -4.34412 0
M  V30 19900 C 1922.32 1.23429 -4.2577 0
M  V30 19901 H 1919.54 0.0343137 -0.670122 0
M  V30 19902 H 1922.09 -0.539234 -1.97263 0
M  V30 19903 H 1920.24 1.28886 -3.65331 0
M  V30 19904 H 1920.66 -0.256062 -5.23875 0
M  V30 19905 H 1922.13 1.45192 -5.32563 0
M  V30 19906 H 1922.61 2.19814 -3.80235 0
M  V30 19907 H 1923.21 0.577303 -4.21364 0
M  V30 19908 N 1921.53 1.57237 -0.106922 0
M  V30 19909 C 1922.78 1.95064 0.554803 0
M  V30 19910 C 1923.11 0.989597 1.67095 0
M  V30 19911 O 1922.38 0.0246857 1.94484 0
M  V30 19912 C 1922.67 3.42924 1.09887 0
M  V30 19913 C 1922.52 4.49798 -0.0130257 0
M  V30 19914 C 1923.84 3.92358 1.99356 0
M  V30 19915 H 1920.96 0.709287 0.200204 0
M  V30 19916 H 1923.6 1.89145 -0.180032 0
M  V30 19917 H 1921.75 3.48098 1.7251 0
M  V30 19918 H 1923.42 4.56729 -0.647804 0
M  V30 19919 H 1921.67 4.28472 -0.677825 0
M  V30 19920 H 1922.34 5.50485 0.40868 0
M  V30 19921 H 1924.81 3.89411 1.46622 0
M  V30 19922 H 1923.69 4.9636 2.34346 0
M  V30 19923 H 1923.95 3.32343 2.91549 0
M  V30 19924 N 1923.01 -0.166818 1.56715 0
M  V30 19925 C 1924.26 -0.882715 1.82248 0
M  V30 19926 C 1924.58 -1.82049 0.684716 0
M  V30 19927 O 1923.84 -1.92937 -0.327717 0
M  V30 19928 C 1924.14 -1.70734 3.13982 0
M  V30 19929 C 1923.8 -0.918095 4.41454 0
M  V30 19930 C 1922.47 -0.700286 4.76077 0
M  V30 19931 C 1924.82 -0.364791 5.19922 0
M  V30 19932 C 1922.15 0.081855 5.86643 0
M  V30 19933 C 1924.5 0.404286 6.31307 0
M  V30 19934 C 1923.16 0.632854 6.64493 0
M  V30 19935 H 1922.43 -0.323008 0.666893 0
M  V30 19936 H 1925.08 -0.147401 1.90932 0
M  V30 19937 H 1923.38 -2.51218 3.0066 0
M  V30 19938 H 1925.08 -2.26437 3.30949 0
M  V30 19939 H 1921.67 -1.0979 4.14299 0
M  V30 19940 H 1925.85 -0.520394 4.93564 0
M  V30 19941 H 1921.11 0.268637 6.1081 0
M  V30 19942 H 1925.28 0.840259 6.91312 0
M  V30 19943 H 1922.91 1.24079 7.50006 0
M  V30 19944 N 1924.49 -1.51463 -0.435524 0
M  V30 19945 C 1925.73 -1.64464 -1.18656 0
M  V30 19946 C 1926.07 -0.360669 -1.90821 0
M  V30 19947 O 1925.34 0.639814 -1.83675 0
M  V30 19948 C 1925.62 -2.84919 -2.20212 0
M  V30 19949 C 1925.48 -4.23297 -1.52117 0
M  V30 19950 C 1926.8 -3.00891 -3.21174 0
M  V30 19951 H 1923.91 -0.598545 -0.430015 0
M  V30 19952 H 1926.56 -1.83952 -0.475572 0
M  V30 19953 H 1924.71 -2.68435 -2.80847 0
M  V30 19954 H 1926.38 -4.51453 -0.948048 0
M  V30 19955 H 1924.62 -4.25912 -0.823493 0
M  V30 19956 H 1925.29 -5.03576 -2.26087 0
M  V30 19957 H 1927.77 -3.16099 -2.70594 0
M  V30 19958 H 1926.64 -3.86734 -3.89523 0
M  V30 19959 H 1926.91 -2.13041 -3.87383 0
M  V30 19960 N 1925.96 0.691085 -1.4164 0
M  V30 19961 C 1927.2 1.46333 -1.42709 0
M  V30 19962 C 1927.57 1.91966 -0.0362114 0
M  V30 19963 O 1928.77 2.68686 0.078314 0
M  V30 19964 C 1927.04 2.63962 -2.40954 0
M  V30 19965 S 1928.6 3.53041 -2.6059 0
M  V30 19966 H 1925.42 0.499999 -0.505492 0
M  V30 19967 H 1928.02 0.805972 -1.78113 0
M  V30 19968 H 1926.72 2.28649 -3.40804 0
M  V30 19969 H 1926.25 3.34587 -2.06919 0
M  V30 19970 H 1928.27 4.59342 -1.87667 0
M  V30 19971 N 1927.44 1.27542 0.925789 0
M  V30 19972 C 1928.67 1.1681 1.70772 0
M  V30 19973 C 1929.09 -0.274824 1.86789 0
M  V30 19974 O 1928.44 -1.18694 1.38629 0
M  V30 19975 C 1928.49 1.84904 3.10633 0
M  V30 19976 O 1928.21 3.23559 2.95366 0
M  V30 19977 C 1929.72 1.80322 4.04968 0
M  V30 19978 H 1926.94 0.406036 0.534206 0
M  V30 19979 H 1929.48 1.68448 1.15955 0
M  V30 19980 H 1927.63 1.37166 3.62304 0
M  V30 19981 H 1928.05 3.57488 3.838 0
M  V30 19982 H 1929.52 2.32577 5.00611 0
M  V30 19983 H 1930 0.772975 4.32344 0
M  V30 19984 H 1930.61 2.27683 3.59222 0
M  V30 19985 N 1928.92 -1.13255 1.09595 0
M  V30 19986 C 1930.2 -1.8084 0.74541 0
M  V30 19987 C 1930.58 -1.96582 -0.769323 0
M  V30 19988 O 1929.93 -1.53529 -1.69237 0
M  V30 19989 C 1930.14 -3.15762 1.48645 0
M  V30 19990 C 1931.48 -3.91087 1.65337 0
M  V30 19991 O 1932.51 -3.25391 1.4491 0
M  V30 19992 O 1931.37 -5.08927 1.99137 0
M  V30 19993 H 1928.46 -0.782384 0.267963 0
M  V30 19994 H 1931.01 -1.20167 1.19825 0
M  V30 19995 H 1929.78 -2.99541 2.51775 0
M  V30 19996 H 1929.4 -3.84137 1.02589 0
M  V30 19997 N 1930.4 -0.883401 -1.30514 0
M  V30 19998 C 1931.35 -0.33846 -2.30124 0
M  V30 19999 C 1932.34 0.553686 -1.60096 0
M  V30 20000 O 1933.55 0.438295 -1.74582 0
M  V30 20001 H 1929.92 -0.0907927 -0.746499 0
M  V30 20002 H 1931.89 -1.19227 -2.73546 0
M  V30 20003 C 1930.64 0.43339 -3.44988 0
M  V30 20004 H 1929.96 -0.243847 -3.99056 0
M  V30 20005 H 1931.4 0.779808 -4.16767 0
M  V30 20006 C 1929.86 1.62986 -2.94851 0
M  V30 20007 O 1930.39 2.72922 -2.94748 0
M  V30 20008 N 1928.6 1.4665 -2.50883 0
M  V30 20009 H 1928.15 0.572135 -2.51166 0
M  V30 20010 H 1928.1 2.2684 -2.17694 0
M  V30 20011 N 1931.88 1.43833 -0.644194 0
M  V30 20012 C 1933.1 2.06784 -0.159719 0
M  V30 20013 C 1933.53 1.47913 1.16204 0
M  V30 20014 O 1932.88 0.585574 1.71583 0
M  V30 20015 C 1932.93 3.60527 -0.0724271 0
M  V30 20016 O 1932.04 4.0088 0.967917 0
M  V30 20017 H 1931.38 0.657771 -0.0907406 0
M  V30 20018 H 1933.91 1.8449 -0.884568 0
M  V30 20019 H 1933.92 4.07841 0.113872 0
M  V30 20020 H 1932.59 4.02755 -1.03736 0
M  V30 20021 H 1931.17 3.65174 0.755135 0
M  V30 20022 N 1933.35 0.385544 1.52811 0
M  V30 20023 C 1934.32 -0.439294 2.24951 0
M  V30 20024 C 1935.32 -0.993315 1.26451 0
M  V30 20025 O 1936.51 -0.875911 1.50577 0
M  V30 20026 C 1933.64 -1.61595 3.00166 0
M  V30 20027 H 1934.83 0.192232 2.99283 0
M  V30 20028 H 1932.39 0.137589 1.55693 0
M  V30 20029 H 1933.12 -2.28501 2.30125 0
M  V30 20030 H 1932.91 -1.22544 3.72459 0
M  V30 20031 H 1934.4 -2.20001 3.5495 0
M  V30 20032 N 1934.83 -1.57178 0.115259 0
M  V30 20033 C 1935.78 -2.16368 -0.853683 0
M  V30 20034 C 1936.77 -1.11189 -1.27802 0
M  V30 20035 O 1937.98 -1.29499 -1.2502 0
M  V30 20036 H 1934.36 -0.692403 -0.293397 0
M  V30 20037 H 1936.33 -2.9657 -0.329954 0
M  V30 20038 C 1935.08 -2.7747 -2.09537 0
M  V30 20039 H 1934.4 -3.581 -1.77777 0
M  V30 20040 H 1935.84 -3.22428 -2.75347 0
M  V30 20041 C 1934.3 -1.74366 -2.88268 0
M  V30 20042 O 1934.83 -1.19476 -3.83521 0
M  V30 20043 N 1933.03 -1.44392 -2.52189 0
M  V30 20044 H 1932.58 -1.89219 -1.74797 0
M  V30 20045 H 1932.54 -0.756482 -3.05163 0
M  V30 20046 N 1936.31 0.158505 -1.56801 0
M  V30 20047 C 1937.54 0.888272 -1.86862 0
M  V30 20048 C 1937.95 1.75258 -0.702142 0
M  V30 20049 O 1937.31 1.7952 0.328431 0
M  V30 20050 C 1937.36 1.75448 -3.1607 0
M  V30 20051 O 1937.08 0.925019 -4.28223 0
M  V30 20052 C 1938.58 2.59282 -3.59566 0
M  V30 20053 H 1935.8 0.257429 -0.619654 0
M  V30 20054 H 1938.35 0.154749 -2.03914 0
M  V30 20055 H 1936.5 2.4412 -3.00806 0
M  V30 20056 H 1936.92 1.51863 -5.02034 0
M  V30 20057 H 1938.39 3.15655 -4.52842 0
M  V30 20058 H 1938.87 3.3477 -2.84299 0
M  V30 20059 H 1939.47 1.95921 -3.77485 0
M  V30 20060 N 1937.79 1.51692 0.427485 0
M  V30 20061 C 1938.74 1.73716 1.51958 0
M  V30 20062 C 1939.71 0.579073 1.55679 0
M  V30 20063 O 1940.89 0.814605 1.72536 0
M  V30 20064 C 1938.03 1.87709 2.89585 0
M  V30 20065 C 1937.14 3.15297 2.95317 0
M  V30 20066 C 1936.28 3.19827 4.24128 0
M  V30 20067 C 1935.32 4.4169 4.23764 0
M  V30 20068 N 1934.46 4.43715 5.44116 0
M  V30 20069 H 1939.3 2.66933 1.3248 0
M  V30 20070 H 1936.83 1.32283 0.643393 0
M  V30 20071 H 1938.79 1.93804 3.69454 0
M  V30 20072 H 1937.42 0.978912 3.07599 0
M  V30 20073 H 1936.47 3.18464 2.08051 0
M  V30 20074 H 1937.78 4.05182 2.90911 0
M  V30 20075 H 1936.94 3.24892 5.12377 0
M  V30 20076 H 1935.68 2.27848 4.31204 0
M  V30 20077 H 1934.68 4.36791 3.33907 0
M  V30 20078 H 1935.91 5.34944 4.18343 0
M  V30 20079 H 1933.85 3.5461 5.51894 0
M  V30 20080 H 1933.77 5.27421 5.4163 0
M  V30 20081 H 1935.04 4.52986 6.34369 0
M  V30 20082 N 1939.27 -0.683564 1.42004 0
M  V30 20083 C 1940.51 -1.44577 1.42216 0
M  V30 20084 C 1940.85 -1.94168 0.0352735 0
M  V30 20085 O 1940.12 -1.70331 -0.939023 0
M  V30 20086 C 1940.4 -2.64909 2.43916 0
M  V30 20087 C 1940.26 -2.21006 3.9176 0
M  V30 20088 C 1941.58 -3.6712 2.42716 0
M  V30 20089 H 1938.7 -0.524376 0.517879 0
M  V30 20090 H 1941.34 -0.777575 1.7336 0
M  V30 20091 H 1939.49 -3.21918 2.17489 0
M  V30 20092 H 1941.16 -1.69233 4.29136 0
M  V30 20093 H 1939.4 -1.52667 4.06048 0
M  V30 20094 H 1940.07 -3.07401 4.58485 0
M  V30 20095 H 1942.55 -3.1981 2.66197 0
M  V30 20096 H 1941.43 -4.48907 3.15869 0
M  V30 20097 H 1941.69 -4.17645 1.45 0
M  V30 20098 N 1940.75 -1.28031 -0.919012 0
M  V30 20099 C 1941.68 -1.14034 -2.03761 0
M  V30 20100 C 1942.66 -0.039495 -1.70054 0
M  V30 20101 O 1943.84 -0.215546 -1.93 0
M  V30 20102 C 1940.97 -0.795894 -3.38057 0
M  V30 20103 C 1939.93 -1.85093 -3.85907 0
M  V30 20104 C 1939.25 -1.36024 -5.17109 0
M  V30 20105 C 1940.55 -3.25658 -4.08343 0
M  V30 20106 H 1942.25 -2.07609 -2.15729 0
M  V30 20107 H 1939.79 -0.999558 -1.03657 0
M  V30 20108 H 1941.74 -0.684762 -4.15799 0
M  V30 20109 H 1940.47 0.175558 -3.26128 0
M  V30 20110 H 1939.13 -1.95112 -3.10366 0
M  V30 20111 H 1938.78 -0.378004 -5.01578 0
M  V30 20112 H 1938.48 -2.06568 -5.50094 0
M  V30 20113 H 1940 -1.26223 -5.97411 0
M  V30 20114 H 1941.41 -3.1859 -4.76627 0
M  V30 20115 H 1939.81 -3.93989 -4.52651 0
M  V30 20116 H 1940.88 -3.70066 -3.13335 0
M  V30 20117 N 1942.22 1.12672 -1.10194 0
M  V30 20118 C 1943.64 1.36123 -0.833225 0
M  V30 20119 C 1943.84 1.93889 0.548569 0
M  V30 20120 O 1942.9 2.16347 1.30192 0
M  V30 20121 C 1944.21 2.30515 -1.93089 0
M  V30 20122 C 1945.76 2.44111 -1.95905 0
M  V30 20123 C 1946.23 3.41816 -3.04838 0
M  V30 20124 N 1947.72 3.49371 -3.04128 0
M  V30 20125 C 1948.46 4.24874 -3.85058 0
M  V30 20126 N 1947.95 5.03464 -4.75916 0
M  V30 20127 N 1949.75 4.20255 -3.73285 0
M  V30 20128 H 1941.9 0.735332 -1.99265 0
M  V30 20129 H 1944.16 0.386141 -0.865794 0
M  V30 20130 H 1943.87 1.95239 -2.92531 0
M  V30 20131 H 1943.74 3.30611 -1.81593 0
M  V30 20132 H 1946.13 2.78669 -0.97097 0
M  V30 20133 H 1946.21 1.43911 -2.11479 0
M  V30 20134 H 1945.85 3.07988 -4.03864 0
M  V30 20135 H 1945.78 4.41839 -2.86506 0
M  V30 20136 H 1948.27 2.93303 -2.38289 0
M  V30 20137 H 1948.59 5.58406 -5.34231 0
M  V30 20138 H 1946.93 5.02669 -4.79946 0
M  V30 20139 H 1950.12 3.57939 -3.01658 0
M  V30 20140 H 1950.3 4.78843 -4.36593 0
M  V30 20141 N 1943.7 0.89031 1.30043 0
M  V30 20142 C 1944.65 0.35066 2.29942 0
M  V30 20143 C 1945.64 -0.545188 1.60387 0
M  V30 20144 O 1946.85 -0.42903 1.74812 0
M  V30 20145 H 1943.22 0.0947502 0.746007 0
M  V30 20146 H 1945.2 1.20676 2.7291 0
M  V30 20147 C 1943.94 -0.415088 3.45213 0
M  V30 20148 H 1943.27 0.265007 3.98921 0
M  V30 20149 H 1944.71 -0.757694 4.17175 0
M  V30 20150 C 1943.17 -1.6142 2.95711 0
M  V30 20151 O 1943.7 -2.71355 2.96191 0
M  V30 20152 N 1941.9 -1.45317 2.51657 0
M  V30 20153 H 1941.45 -0.558807 2.51466 0
M  V30 20154 H 1941.41 -2.25683 2.18894 0
M  V30 20155 N 1945.18 -1.43489 0.651812 0
M  V30 20156 C 1946.13 -2.30764 -0.0406423 0
M  V30 20157 C 1947.1 -1.44669 -0.816091 0
M  V30 20158 O 1948.28 -1.73541 -0.792978 0
M  V30 20159 C 1945.42 -3.30232 -1.00206 0
M  V30 20160 C 1944.53 -4.31425 -0.222857 0
M  V30 20161 C 1943.67 -5.17975 -1.17794 0
M  V30 20162 C 1942.71 -6.10862 -0.389096 0
M  V30 20163 N 1941.85 -6.90041 -1.2957 0
M  V30 20164 H 1946.69 -2.89431 0.709482 0
M  V30 20165 H 1944.22 -1.42585 0.361636 0
M  V30 20166 H 1946.18 -3.86408 -1.57306 0
M  V30 20167 H 1944.81 -2.73217 -1.71907 0
M  V30 20168 H 1943.86 -3.77554 0.464409 0
M  V30 20169 H 1945.17 -4.97268 0.390608 0
M  V30 20170 H 1944.33 -5.7877 -1.81962 0
M  V30 20171 H 1943.07 -4.52254 -1.82532 0
M  V30 20172 H 1942.07 -5.49156 0.265943 0
M  V30 20173 H 1943.3 -6.78625 0.253855 0
M  V30 20174 H 1941.24 -6.2697 -1.9299 0
M  V30 20175 H 1941.16 -7.52401 -0.736762 0
M  V30 20176 H 1942.43 -7.55342 -1.92557 0
M  V30 20177 N 1946.66 -0.393643 -1.52605 0
M  V30 20178 C 1947.91 0.186784 -2.01235 0
M  V30 20179 C 1948.23 1.46956 -1.28175 0
M  V30 20180 O 1947.5 1.91708 -0.403088 0
M  V30 20181 H 1946.08 0.0720137 -0.743521 0
M  V30 20182 H 1948.74 -0.52633 -1.87659 0
M  V30 20183 H 1947.83 0.393921 -3.09604 0
M  V30 20184 N 1948.14 1.57115 -0.123593 0
M  V30 20185 C 1949.38 1.95641 0.534082 0
M  V30 20186 C 1949.71 1.00726 1.66036 0
M  V30 20187 O 1948.99 0.045312 1.94447 0
M  V30 20188 C 1949.27 3.4407 1.06244 0
M  V30 20189 C 1949.13 4.49759 -0.0607321 0
M  V30 20190 C 1950.44 3.94451 1.95183 0
M  V30 20191 H 1947.56 0.71137 0.19267 0
M  V30 20192 H 1950.21 1.88944 -0.200083 0
M  V30 20193 H 1948.36 3.49909 1.68808 0
M  V30 20194 H 1950.03 4.56016 -0.69621 0
M  V30 20195 H 1948.27 4.27729 -0.723232 0
M  V30 20196 H 1948.94 5.50888 0.350271 0
M  V30 20197 H 1951.42 3.90945 1.42483 0
M  V30 20198 H 1950.29 4.98817 2.29069 0
M  V30 20199 H 1950.55 3.35417 2.88007 0
M  V30 20200 N 1949.61 -0.150187 1.56883 0
M  V30 20201 C 1950.89 -0.891842 1.74085 0
M  V30 20202 C 1951.27 -1.99479 0.690751 0
M  V30 20203 O 1950.62 -2.26641 -0.290877 0
M  V30 20204 C 1950.83 -1.43722 3.18033 0
M  V30 20205 C 1952.18 -1.90188 3.79623 0
M  V30 20206 O 1953.2 -1.53471 3.21442 0
M  V30 20207 O 1952.06 -2.57892 4.81824 0
M  V30 20208 H 1949.15 -0.421241 0.711678 0
M  V30 20209 H 1951.7 -0.136362 1.69151 0
M  V30 20210 H 1950.47 -0.644422 3.85957 0
M  V30 20211 H 1950.09 -2.2563 3.27379 0
M  V30 20212 N 1951.09 -1.51916 -0.419434 0
M  V30 20213 C 1952.32 -1.69057 -1.18758 0
M  V30 20214 C 1952.73 -0.395167 -1.85027 0
M  V30 20215 O 1952.07 0.637815 -1.72272 0
M  V30 20216 C 1952.14 -2.76257 -2.30049 0
M  V30 20217 C 1951.8 -4.18321 -1.84001 0
M  V30 20218 C 1952.8 -5.02508 -1.33347 0
M  V30 20219 C 1950.48 -4.64508 -1.91147 0
M  V30 20220 C 1952.48 -6.3095 -0.904498 0
M  V30 20221 C 1950.16 -5.92942 -1.47861 0
M  V30 20222 C 1951.16 -6.75991 -0.975967 0
M  V30 20223 O 1950.85 -8.02021 -0.549318 0
M  V30 20224 H 1950.58 -0.570077 -0.363302 0
M  V30 20225 H 1953.13 -1.99197 -0.50097 0
M  V30 20226 H 1951.36 -2.4147 -3.02042 0
M  V30 20227 H 1953.05 -2.82098 -2.91848 0
M  V30 20228 H 1953.82 -4.68021 -1.27206 0
M  V30 20229 H 1949.7 -3.99976 -2.29216 0
M  V30 20230 H 1953.24 -6.95722 -0.511474 0
M  V30 20231 H 1949.14 -6.2694 -1.53678 0
M  V30 20232 H 1949.91 -8.15724 -0.673558 0
M  V30 20233 N 1952.57 0.676023 -1.42365 0
M  V30 20234 C 1953.8 1.46436 -1.46164 0
M  V30 20235 C 1954.21 1.8866 -0.0726092 0
M  V30 20236 O 1953.57 1.58056 0.912395 0
M  V30 20237 C 1953.62 2.71428 -2.38766 0
M  V30 20238 O 1953.34 2.30976 -3.72266 0
M  V30 20239 C 1954.84 3.65001 -2.51573 0
M  V30 20240 H 1952.06 0.450625 -0.49717 0
M  V30 20241 H 1954.61 0.830748 -1.86866 0
M  V30 20242 H 1952.76 3.30981 -2.01321 0
M  V30 20243 H 1953.18 3.11682 -4.21846 0
M  V30 20244 H 1954.65 4.49432 -3.20492 0
M  V30 20245 H 1955.13 4.10818 -1.55322 0
M  V30 20246 H 1955.73 3.11342 -2.89735 0
M  V30 20247 N 1954.05 1.28517 0.912209 0
M  V30 20248 C 1955 1.12575 2.01483 0
M  V30 20249 C 1955.97 0.0224628 1.66085 0
M  V30 20250 O 1957.15 0.18768 1.89875 0
M  V30 20251 C 1954.29 0.795229 3.35813 0
M  V30 20252 C 1953.4 1.97772 3.84071 0
M  V30 20253 C 1952.54 1.58768 5.06918 0
M  V30 20254 C 1951.58 2.73672 5.47513 0
M  V30 20255 N 1950.71 2.3515 6.6155 0
M  V30 20256 H 1955.55 2.06918 2.1445 0
M  V30 20257 H 1953.09 1.02983 1.05037 0
M  V30 20258 H 1955.05 0.584339 4.13088 0
M  V30 20259 H 1953.68 -0.111266 3.22608 0
M  V30 20260 H 1952.73 2.30069 3.0294 0
M  V30 20261 H 1954.04 2.83913 4.10115 0
M  V30 20262 H 1953.2 1.33894 5.91741 0
M  V30 20263 H 1951.94 0.697566 4.82686 0
M  V30 20264 H 1950.94 2.99242 4.61231 0
M  V30 20265 H 1952.17 3.63328 5.73733 0
M  V30 20266 H 1950.11 1.4861 6.38945 0
M  V30 20267 H 1950.03 3.14827 6.87328 0
M  V30 20268 H 1951.3 2.13564 7.49674 0
M  V30 20269 N 1955.53 -1.12086 1.1079 0
M  V30 20270 C 1956.47 -2.17926 0.760064 0
M  V30 20271 C 1957.44 -1.63967 -0.265316 0
M  V30 20272 O 1958.63 -1.90258 -0.143764 0
M  V30 20273 C 1955.77 -3.44508 0.202045 0
M  V30 20274 C 1954.88 -4.12503 1.28317 0
M  V30 20275 C 1954.02 -5.26747 0.686406 0
M  V30 20276 C 1953.06 -5.86614 1.74785 0
M  V30 20277 N 1952.19 -6.92264 1.17108 0
M  V30 20278 H 1957.03 -2.47025 1.66681 0
M  V30 20279 H 1954.57 -1.21275 0.832507 0
M  V30 20280 H 1956.53 -4.16967 -0.139401 0
M  V30 20281 H 1955.16 -3.15814 -0.667918 0
M  V30 20282 H 1954.21 -3.38186 1.74168 0
M  V30 20283 H 1955.52 -4.53063 2.08651 0
M  V30 20284 H 1954.68 -6.05984 0.294621 0
M  V30 20285 H 1953.41 -4.87474 -0.148334 0
M  V30 20286 H 1952.42 -5.0606 2.14902 0
M  V30 20287 H 1953.64 -6.27956 2.5855 0
M  V30 20288 H 1951.59 -6.55023 0.35787 0
M  V30 20289 H 1951.51 -7.31443 1.91122 0
M  V30 20290 H 1952.78 -7.75322 0.805966 0
M  V30 20291 N 1957 -0.897194 -1.29569 0
M  V30 20292 C 1958.25 -0.521834 -1.95661 0
M  V30 20293 C 1958.58 0.931396 -1.70749 0
M  V30 20294 O 1957.83 1.67507 -1.01192 0
M  V30 20295 C 1958.13 -0.757743 -3.49275 0
M  V30 20296 C 1957.8 -2.18794 -3.94259 0
M  V30 20297 C 1956.46 -2.57901 -4.06252 0
M  V30 20298 C 1958.81 -3.11942 -4.17542 0
M  V30 20299 C 1956.14 -3.89341 -4.38897 0
M  V30 20300 C 1958.49 -4.42928 -4.51661 0
M  V30 20301 C 1957.16 -4.81911 -4.61864 0
M  V30 20302 H 1956.43 -0.190953 -0.715974 0
M  V30 20303 H 1959.07 -1.13537 -1.54212 0
M  V30 20304 H 1957.38 -0.0612622 -3.91752 0
M  V30 20305 H 1959.08 -0.446734 -3.98504 0
M  V30 20306 H 1955.67 -1.87443 -3.85439 0
M  V30 20307 H 1959.85 -2.82944 -4.07745 0
M  V30 20308 H 1955.11 -4.19269 -4.44998 0
M  V30 20309 H 1959.28 -5.15133 -4.68627 0
M  V30 20310 H 1956.91 -5.83797 -4.86914 0
M  V30 20311 N 1958.48 1.43142 -0.659413 0
M  V30 20312 C 1959.41 2.33495 0.0147266 0
M  V30 20313 C 1960.39 1.49819 0.805493 0
M  V30 20314 O 1961.58 1.78466 0.765732 0
M  V30 20315 C 1958.71 3.33261 0.977483 0
M  V30 20316 C 1957.66 4.26972 0.296396 0
M  V30 20317 C 1956.99 5.16824 1.37103 0
M  V30 20318 C 1958.29 5.15901 -0.815063 0
M  V30 20319 H 1959.98 2.90115 -0.739837 0
M  V30 20320 H 1957.53 1.39499 -0.357229 0
M  V30 20321 H 1959.48 3.95372 1.45805 0
M  V30 20322 H 1958.21 2.74911 1.76328 0
M  V30 20323 H 1956.86 3.66234 -0.16379 0
M  V30 20324 H 1956.51 4.5481 2.14842 0
M  V30 20325 H 1956.21 5.80345 0.920528 0
M  V30 20326 H 1957.74 5.81809 1.85284 0
M  V30 20327 H 1959.15 5.71786 -0.416382 0
M  V30 20328 H 1957.55 5.88175 -1.19041 0
M  V30 20329 H 1958.62 4.5522 -1.67042 0
M  V30 20330 N 1959.96 0.40173 1.52394 0
M  V30 20331 C 1961.19 -0.17617 2.06149 0
M  V30 20332 C 1961.6 -1.39481 1.27242 0
M  V30 20333 O 1960.96 -1.79631 0.322321 0
M  V30 20334 C 1961.01 -0.533965 3.57535 0
M  V30 20335 O 1960.73 0.63627 4.33455 0
M  V30 20336 C 1962.23 -1.16639 4.2768 0
M  V30 20337 H 1959.45 -0.0236483 0.670583 0
M  V30 20338 H 1962 0.570549 1.9638 0
M  V30 20339 H 1960.15 -1.23058 3.67336 0
M  V30 20340 H 1960.57 0.339373 5.23401 0
M  V30 20341 H 1962.04 -1.36701 5.34805 0
M  V30 20342 H 1962.52 -2.13737 3.83684 0
M  V30 20343 H 1963.12 -0.510194 4.22229 0
M  V30 20344 N 1961.44 -1.57047 0.131923 0
M  V30 20345 C 1962.68 -1.95921 -0.5237 0
M  V30 20346 C 1963.02 -1.01606 -1.65499 0
M  V30 20347 O 1962.29 -0.0556233 -1.9442 0
M  V30 20348 C 1962.58 -3.44629 -1.04418 0
M  V30 20349 C 1962.43 -4.4972 0.084583 0
M  V30 20350 C 1963.75 -3.9548 -1.93089 0
M  V30 20351 H 1960.87 -0.712382 -0.188894 0
M  V30 20352 H 1963.51 -1.88835 0.2101 0
M  V30 20353 H 1961.66 -3.50799 -1.6695 0
M  V30 20354 H 1963.33 -4.5564 0.720384 0
M  V30 20355 H 1961.57 -4.27339 0.745906 0
M  V30 20356 H 1962.24 -5.51066 -0.321051 0
M  V30 20357 H 1964.72 -3.91695 -1.40408 0
M  V30 20358 H 1963.6 -5.00025 -2.2642 0
M  V30 20359 H 1963.86 -3.36939 -2.86224 0
M  V30 20360 N 1962.92 0.141865 -1.5696 0
M  V30 20361 C 1964.19 0.882597 -1.74555 0
M  V30 20362 C 1964.57 1.9911 -0.701321 0
M  V30 20363 O 1963.92 2.26792 0.278854 0
M  V30 20364 C 1964.13 1.42034 -3.18791 0
M  V30 20365 C 1965.48 1.88172 -3.80626 0
M  V30 20366 O 1966.5 1.51764 -3.22252 0
M  V30 20367 O 1965.36 2.55333 -4.83185 0
M  V30 20368 H 1962.46 0.417461 -0.713902 0
M  V30 20369 H 1965 0.127389 -1.69221 0
M  V30 20370 H 1963.77 0.623945 -3.86293 0
M  V30 20371 H 1963.4 2.2389 -3.28571 0
M  V30 20372 N 1964.39 1.52136 0.411372 0
M  V30 20373 C 1965.64 1.65757 1.15624 0
M  V30 20374 C 1965.96 0.388771 1.91085 0
M  V30 20375 O 1965.23 -0.596276 1.86605 0
M  V30 20376 H 1963.81 0.610955 0.429817 0
M  V30 20377 H 1966.48 1.8917 0.469114 0
M  V30 20378 H 1965.57 2.49759 1.87155 0
M  V30 20379 N 1965.87 -0.668464 1.42721 0
M  V30 20380 C 1967.12 -1.43061 1.43741 0
M  V30 20381 C 1967.45 -1.9412 0.0558656 0
M  V30 20382 O 1966.73 -1.71317 -0.920904 0
M  V30 20383 C 1967.01 -2.62307 2.46712 0
M  V30 20384 C 1966.86 -2.16839 3.94082 0
M  V30 20385 C 1968.18 -3.64525 2.46596 0
M  V30 20386 H 1965.3 -0.518854 0.523412 0
M  V30 20387 H 1967.94 -0.759144 1.74175 0
M  V30 20388 H 1966.09 -3.19593 2.20891 0
M  V30 20389 H 1967.77 -1.64672 4.30907 0
M  V30 20390 H 1966.01 -1.48352 4.07645 0
M  V30 20391 H 1966.68 -3.02521 4.6172 0
M  V30 20392 H 1969.16 -3.16968 2.69574 0
M  V30 20393 H 1968.03 -4.45532 3.20613 0
M  V30 20394 H 1968.29 -4.16084 1.49421 0
M  V30 20395 N 1967.35 -1.28999 -0.905381 0
M  V30 20396 C 1968.28 -1.09447 -2.0138 0
M  V30 20397 C 1969.3 -0.0436697 -1.62741 0
M  V30 20398 O 1970.49 -0.287603 -1.76168 0
M  V30 20399 C 1967.59 -0.642796 -3.32748 0
M  V30 20400 C 1966.76 -1.77086 -3.99949 0
M  V30 20401 C 1965.82 -1.31115 -5.09603 0
M  V30 20402 O 1964.84 -2.01488 -5.32345 0
M  V30 20403 N 1966.05 -0.178924 -5.80224 0
M  V30 20404 H 1968.81 -2.04906 -2.18709 0
M  V30 20405 H 1966.37 -1.20863 -1.07721 0
M  V30 20406 H 1968.36 -0.318684 -4.03443 0
M  V30 20407 H 1966.93 0.21918 -3.11831 0
M  V30 20408 H 1966.15 -2.26414 -3.22692 0
M  V30 20409 H 1967.44 -2.52736 -4.4159 0
M  V30 20410 H 1966.84 0.407926 -5.64227 0
M  V30 20411 H 1965.4 0.085857 -6.51743 0
M  V30 20412 N 1968.83 1.11497 -1.11383 0
M  V30 20413 C 1970.06 1.86756 -0.88351 0
M  V30 20414 C 1970.47 1.80404 0.570169 0
M  V30 20415 O 1969.81 1.18298 1.40539 0
M  V30 20416 C 1969.87 3.3647 -1.26603 0
M  V30 20417 C 1969.54 3.6659 -2.72876 0
M  V30 20418 C 1970.53 3.64121 -3.71095 0
M  V30 20419 C 1968.22 3.95614 -3.09507 0
M  V30 20420 C 1970.21 3.90253 -5.03966 0
M  V30 20421 C 1967.9 4.21404 -4.42563 0
M  V30 20422 C 1968.9 4.18712 -5.39601 0
M  V30 20423 O 1968.59 4.43855 -6.7026 0
M  V30 20424 H 1968.32 0.597446 -0.316283 0
M  V30 20425 H 1970.87 1.41938 -1.48469 0
M  V30 20426 H 1969.1 3.8189 -0.608003 0
M  V30 20427 H 1970.79 3.93092 -1.01162 0
M  V30 20428 H 1971.56 3.41749 -3.4414 0
M  V30 20429 H 1967.44 3.96846 -2.34594 0
M  V30 20430 H 1970.98 3.88067 -5.79698 0
M  V30 20431 H 1966.88 4.43252 -4.69252 0
M  V30 20432 H 1967.64 4.61425 -6.76039 0
M  V30 20433 N 1970.31 0.904053 1.29092 0
M  V30 20434 C 1971.54 0.546964 1.99228 0
M  V30 20435 C 1971.95 -0.873787 1.67814 0
M  V30 20436 O 1971.29 -1.58892 0.921898 0
M  V30 20437 C 1971.35 0.664609 3.53303 0
M  V30 20438 C 1971.01 2.05313 4.08284 0
M  V30 20439 C 1972.01 3.02478 4.22851 0
M  V30 20440 C 1969.7 2.36369 4.4321 0
M  V30 20441 C 1971.69 4.28821 4.71584 0
M  V30 20442 C 1969.38 3.62953 4.91638 0
M  V30 20443 C 1970.38 4.58993 5.05781 0
M  V30 20444 O 1970.06 5.83329 5.53157 0
M  V30 20445 H 1969.8 0.208111 0.643168 0
M  V30 20446 H 1972.35 1.21663 1.65491 0
M  V30 20447 H 1970.58 -0.0621014 3.8665 0
M  V30 20448 H 1972.27 0.316038 4.04668 0
M  V30 20449 H 1973.03 2.79801 3.96152 0
M  V30 20450 H 1968.91 1.62373 4.31458 0
M  V30 20451 H 1972.46 5.03789 4.82538 0
M  V30 20452 H 1968.35 3.85459 5.17776 0
M  V30 20453 H 1969.12 5.8598 5.71463 0
M  V30 20454 N 1971.79 -1.4279 0.666995 0
M  V30 20455 C 1973.03 -2.03517 0.189811 0
M  V30 20456 C 1973.39 -1.5156 -1.17871 0
M  V30 20457 O 1974.59 -2.04022 -1.7501 0
M  V30 20458 C 1972.86 -3.56757 0.214298 0
M  V30 20459 S 1974.42 -4.38375 -0.193026 0
M  V30 20460 H 1971.24 -0.706625 0.0787564 0
M  V30 20461 H 1973.84 -1.74655 0.878407 0
M  V30 20462 H 1972.54 -3.92071 1.2128 0
M  V30 20463 H 1972.08 -3.90281 -0.494388 0
M  V30 20464 H 1974.09 -4.75195 -1.42842 0
M  V30 20465 N 1973.26 -0.409806 -1.52179 0
M  V30 20466 C 1974.49 0.164995 -2.0594 0
M  V30 20467 C 1974.9 1.39354 -1.27973 0
M  V30 20468 O 1974.24 1.80802 -0.324989 0
M  V30 20469 C 1974.31 0.579659 -3.54796 0
M  V30 20470 C 1973.97 -0.538248 -4.53819 0
M  V30 20471 C 1974.97 -1.40203 -5.00639 0
M  V30 20472 C 1972.65 -0.711133 -4.97241 0
M  V30 20473 C 1974.65 -2.42363 -5.89524 0
M  V30 20474 C 1972.33 -1.73605 -5.85922 0
M  V30 20475 C 1973.33 -2.5907 -6.31959 0
M  V30 20476 O 1973.02 -3.59806 -7.18884 0
M  V30 20477 H 1972.75 0.0236196 -0.675587 0
M  V30 20478 H 1975.31 -0.579572 -1.97054 0
M  V30 20479 H 1973.54 1.37652 -3.61371 0
M  V30 20480 H 1975.22 1.08246 -3.912 0
M  V30 20481 H 1975.99 -1.27987 -4.67808 0
M  V30 20482 H 1971.87 -0.0555613 -4.60967 0
M  V30 20483 H 1975.41 -3.09106 -6.25379 0
M  V30 20484 H 1971.31 -1.85851 -6.18166 0
M  V30 20485 H 1972.08 -3.56058 -7.36997 0
M  V30 20486 N 1974.74 1.56975 -0.14025 0
M  V30 20487 C 1975.97 2.00267 0.519675 0
M  V30 20488 C 1976.38 1.02026 1.58859 0
M  V30 20489 O 1975.74 0.0162519 1.82493 0
M  V30 20490 C 1975.79 3.435 1.12648 0
M  V30 20491 O 1975.51 4.37985 0.100277 0
M  V30 20492 C 1977.01 4.02036 1.86767 0
M  V30 20493 H 1974.23 0.657101 0.135865 0
M  V30 20494 H 1976.78 2.0317 -0.232847 0
M  V30 20495 H 1974.93 3.4147 1.82967 0
M  V30 20496 H 1975.35 5.21672 0.543929 0
M  V30 20497 H 1976.82 5.04274 2.24525 0
M  V30 20498 H 1977.3 3.42367 2.75103 0
M  V30 20499 H 1977.9 4.07676 1.21163 0
M  V30 20500 N 1976.22 -0.133539 1.57033 0
M  V30 20501 C 1977.44 -0.862393 1.8862 0
M  V30 20502 C 1977.87 -1.73328 0.730696 0
M  V30 20503 O 1977.23 -1.78466 -0.319297 0
M  V30 20504 C 1977.28 -1.68381 3.18873 0
M  V30 20505 O 1976.38 -2.78939 3.03755 0
M  V30 20506 H 1975.72 -0.239391 0.619345 0
M  V30 20507 H 1978.25 -0.120306 2.04246 0
M  V30 20508 H 1978.26 -2.07606 3.51232 0
M  V30 20509 H 1976.94 -1.0444 4.02573 0
M  V30 20510 H 1975.51 -2.43022 2.82833 0
M  V30 20511 N 1977.7 -1.52352 -0.403298 0
M  V30 20512 C 1978.64 -1.76112 -1.49175 0
M  V30 20513 C 1979.61 -0.603767 -1.54738 0
M  V30 20514 O 1980.8 -0.841951 -1.71219 0
M  V30 20515 C 1977.94 -1.92292 -2.86562 0
M  V30 20516 C 1977.05 -3.19955 -2.90263 0
M  V30 20517 C 1976.19 -3.26534 -4.18986 0
M  V30 20518 C 1975.23 -4.48376 -4.16684 0
M  V30 20519 N 1974.36 -4.52315 -5.36988 0
M  V30 20520 H 1979.2 -2.69006 -1.28217 0
M  V30 20521 H 1976.74 -1.3329 -0.622266 0
M  V30 20522 H 1978.7 -1.99657 -3.66324 0
M  V30 20523 H 1977.33 -1.02772 -3.06003 0
M  V30 20524 H 1976.38 -3.21733 -2.02958 0
M  V30 20525 H 1977.69 -4.09759 -2.84428 0
M  V30 20526 H 1976.85 -3.33003 -5.07143 0
M  V30 20527 H 1975.59 -2.34679 -4.27524 0
M  V30 20528 H 1974.59 -4.42048 -3.26916 0
M  V30 20529 H 1975.82 -5.41532 -4.0978 0
M  V30 20530 H 1973.76 -3.63346 -5.46183 0
M  V30 20531 H 1973.68 -5.35971 -5.3317 0
M  V30 20532 H 1974.95 -4.6302 -6.27082 0
M  V30 20533 N 1979.18 0.660885 -1.43074 0
M  V30 20534 C 1980.45 1.41768 -1.34764 0
M  V30 20535 C 1980.83 2.11098 0.00828719 0
M  V30 20536 O 1980.18 2.04246 1.02449 0
M  V30 20537 C 1980.39 2.40869 -2.52553 0
M  V30 20538 C 1981.74 3.05098 -2.95297 0
M  V30 20539 O 1982.76 2.51196 -2.52545 0
M  V30 20540 O 1981.62 4.02808 -3.69335 0
M  V30 20541 H 1978.72 0.633017 -0.532182 0
M  V30 20542 H 1981.26 0.688438 -1.55108 0
M  V30 20543 H 1980.03 1.88533 -3.42886 0
M  V30 20544 H 1979.66 3.21254 -2.34268 0
M  V30 20545 N 1980.65 1.29477 0.898527 0
M  V30 20546 C 1981.88 1.20406 1.68255 0
M  V30 20547 C 1982.3 -0.235141 1.8733 0
M  V30 20548 O 1981.65 -1.15727 1.41115 0
M  V30 20549 C 1981.71 1.91451 3.06641 0
M  V30 20550 O 1981.43 3.29751 2.88437 0
M  V30 20551 C 1982.93 1.88871 4.01052 0
M  V30 20552 H 1980.15 0.417276 0.525473 0
M  V30 20553 H 1982.69 1.7087 1.12356 0
M  V30 20554 H 1980.85 1.4482 3.59313 0
M  V30 20555 H 1981.26 3.65548 3.76131 0
M  V30 20556 H 1982.73 2.43144 4.95566 0
M  V30 20557 H 1983.21 0.864507 4.30608 0
M  V30 20558 H 1983.82 2.35251 3.54312 0
M  V30 20559 N 1982.13 -1.10905 1.11972 0
M  V30 20560 C 1983.06 -2.19168 0.805461 0
M  V30 20561 C 1984.04 -1.68557 -0.228623 0
M  V30 20562 O 1985.23 -1.93987 -0.0908778 0
M  V30 20563 C 1982.36 -3.4637 0.253951 0
M  V30 20564 C 1981.31 -4.10228 1.22054 0
M  V30 20565 C 1980.64 -5.32072 0.529483 0
M  V30 20566 C 1981.94 -4.54506 2.57336 0
M  V30 20567 H 1983.63 -2.45713 1.71071 0
M  V30 20568 H 1981.18 -1.18096 0.823969 0
M  V30 20569 H 1983.13 -4.21394 0.0218576 0
M  V30 20570 H 1981.86 -3.19301 -0.68662 0
M  V30 20571 H 1980.51 -3.37204 1.43836 0
M  V30 20572 H 1980.16 -5.01276 -0.416074 0
M  V30 20573 H 1979.86 -5.75748 1.17422 0
M  V30 20574 H 1981.39 -6.09831 0.306313 0
M  V30 20575 H 1982.8 -5.20826 2.3961 0
M  V30 20576 H 1981.2 -5.09015 3.17842 0
M  V30 20577 H 1982.27 -3.67671 3.16143 0
M  V30 20578 N 1983.61 -0.910886 -1.2861 0
M  V30 20579 C 1984.89 -0.461608 -1.90075 0
M  V30 20580 C 1985.27 1.05944 -1.8259 0
M  V30 20581 O 1984.62 1.90624 -1.25995 0
M  V30 20582 C 1984.83 -0.98875 -3.34701 0
M  V30 20583 C 1986.17 -1.03913 -4.11688 0
M  V30 20584 O 1987.2 -0.937194 -3.4365 0
M  V30 20585 O 1986.06 -1.19392 -5.33299 0
M  V30 20586 H 1983.15 -0.145814 -0.814044 0
M  V30 20587 H 1985.7 -1.00148 -1.36998 0
M  V30 20588 H 1984.47 -2.03273 -3.34359 0
M  V30 20589 H 1984.09 -0.429535 -3.95273 0
M  V30 20590 N 1985.09 1.42434 -0.674558 0
M  V30 20591 C 1986.37 1.95196 -0.125683 0
M  V30 20592 C 1986.75 1.61499 1.35946 0
M  V30 20593 O 1986.09 0.911023 2.09553 0
M  V30 20594 C 1986.3 3.46762 -0.39457 0
M  V30 20595 C 1987.65 4.2346 -0.310951 0
M  V30 20596 O 1988.68 3.54684 -0.328304 0
M  V30 20597 O 1987.53 5.45914 -0.252937 0
M  V30 20598 H 1984.63 0.826995 -0.00272875 0
M  V30 20599 H 1987.17 1.52263 -0.749271 0
M  V30 20600 H 1985.95 3.64493 -1.42339 0
M  V30 20601 H 1985.57 3.96742 0.261037 0
M  V30 20602 N 1986.57 0.417871 1.51959 0
M  V30 20603 C 1987.82 -0.156451 2.01092 0
M  V30 20604 C 1988.13 -1.45475 1.30753 0
M  V30 20605 O 1989.33 -2.11085 1.70749 0
M  V30 20606 C 1987.79 -0.329366 3.5839 0
M  V30 20607 C 1987.4 0.957354 4.37651 0
M  V30 20608 C 1989.14 -0.858507 4.15728 0
M  V30 20609 C 1987.05 0.751148 5.8661 0
M  V30 20610 H 1985.98 -0.0622427 0.751427 0
M  V30 20611 H 1988.63 0.544656 1.75231 0
M  V30 20612 H 1987.01 -1.09301 3.80617 0
M  V30 20613 H 1988.19 1.72783 4.2718 0
M  V30 20614 H 1986.5 1.41356 3.91673 0
M  V30 20615 H 1989.1 -1.02896 5.24706 0
M  V30 20616 H 1989.44 -1.83563 3.73645 0
M  V30 20617 H 1989.97 -0.153688 3.97503 0
M  V30 20618 H 1986.71 1.70008 6.3307 0
M  V30 20619 H 1986.23 0.0201287 5.99797 0
M  V30 20620 H 1987.91 0.396724 6.45783 0
M  V30 20621 N 1988.04 -1.56898 0.148573 0
M  V30 20622 C 1988.97 -2.19852 -0.786585 0
M  V30 20623 C 1989.96 -1.14723 -1.2559 0
M  V30 20624 O 1991.14 -1.43071 -1.31317 0
M  V30 20625 C 1988.27 -2.82137 -2.02524 0
M  V30 20626 C 1987.22 -3.93108 -1.69264 0
M  V30 20627 C 1986.55 -4.42335 -3.00407 0
M  V30 20628 C 1987.85 -5.13807 -0.938092 0
M  V30 20629 H 1989.54 -2.98252 -0.261903 0
M  V30 20630 H 1987.09 -1.43461 -0.124531 0
M  V30 20631 H 1989.04 -3.24845 -2.68428 0
M  V30 20632 H 1987.77 -2.01071 -2.57368 0
M  V30 20633 H 1986.43 -3.5102 -1.05739 0
M  V30 20634 H 1986.07 -3.58089 -3.53244 0
M  V30 20635 H 1985.77 -5.17185 -2.78915 0
M  V30 20636 H 1987.3 -4.87714 -3.67378 0
M  V30 20637 H 1988.71 -5.53349 -1.49924 0
M  V30 20638 H 1987.11 -5.94429 -0.823062 0
M  V30 20639 H 1988.18 -4.8485 0.0698825 0
M  V30 20640 N 1989.52 0.125209 -1.57102 0
M  V30 20641 C 1990.45 1.17944 -1.96524 0
M  V30 20642 C 1991.47 1.37997 -0.863757 0
M  V30 20643 O 1992.66 1.37182 -1.14208 0
M  V30 20644 C 1989.76 2.54056 -2.24296 0
M  V30 20645 C 1988.93 2.5469 -3.55601 0
M  V30 20646 C 1987.99 3.72501 -3.71658 0
M  V30 20647 O 1987.01 3.56372 -4.43833 0
M  V30 20648 N 1988.22 4.90822 -3.09958 0
M  V30 20649 H 1990.98 0.844157 -2.87566 0
M  V30 20650 H 1988.54 0.314552 -1.58815 0
M  V30 20651 H 1990.53 3.31418 -2.32259 0
M  V30 20652 H 1989.1 2.79791 -1.39412 0
M  V30 20653 H 1988.32 1.63087 -3.58882 0
M  V30 20654 H 1989.61 2.52164 -4.41917 0
M  V30 20655 H 1989.01 5.0683 -2.51276 0
M  V30 20656 H 1987.57 5.65882 -3.23451 0
M  V30 20657 N 1991 1.52564 0.395213 0
M  V30 20658 C 1991.93 1.73146 1.50177 0
M  V30 20659 C 1992.95 0.611895 1.50863 0
M  V30 20660 O 1994.13 0.887429 1.54877 0
M  V30 20661 C 1991.23 1.76943 2.89041 0
M  V30 20662 C 1990.41 3.06156 3.12389 0
M  V30 20663 C 1989.47 3.01581 4.31202 0
M  V30 20664 O 1988.49 3.75459 4.27807 0
M  V30 20665 N 1989.69 2.20335 5.37059 0
M  V30 20666 H 1992.46 2.68617 1.3291 0
M  V30 20667 H 1990.02 1.50975 0.584663 0
M  V30 20668 H 1992.01 1.71396 3.66613 0
M  V30 20669 H 1990.58 0.888857 2.99697 0
M  V30 20670 H 1989.8 3.25242 2.22737 0
M  V30 20671 H 1991.09 3.91607 3.2484 0
M  V30 20672 H 1990.49 1.59768 5.4267 0
M  V30 20673 H 1989.05 2.20634 6.13322 0
M  V30 20674 N 1992.48 -0.653289 1.43422 0
M  V30 20675 C 1993.44 -1.74802 1.48246 0
M  V30 20676 C 1994.44 -1.56552 0.367179 0
M  V30 20677 O 1995.63 -1.62451 0.628923 0
M  V30 20678 C 1992.76 -3.13673 1.33499 0
M  V30 20679 H 1993.96 -1.71906 2.4574 0
M  V30 20680 H 1991.51 -0.864936 1.30187 0
M  V30 20681 H 1992.24 -3.22181 0.370118 0
M  V30 20682 H 1992.03 -3.28325 2.14348 0
M  V30 20683 H 1993.52 -3.93502 1.39806 0
M  V30 20684 N 1993.96 -1.29952 -0.891648 0
M  V30 20685 C 1994.9 -1.15662 -2.01805 0
M  V30 20686 C 1995.9 -0.0701689 -1.69255 0
M  V30 20687 O 1997.1 -0.230546 -1.78517 0
M  V30 20688 H 1993.48 -0.357511 -0.661581 0
M  V30 20689 H 1995.45 -2.11008 -2.10993 0
M  V30 20690 C 1994.2 -0.858316 -3.36939 0
M  V30 20691 H 1993.52 -1.68637 -3.62494 0
M  V30 20692 H 1994.96 -0.798404 -4.16415 0
M  V30 20693 C 1993.42 0.438629 -3.34032 0
M  V30 20694 O 1993.95 1.46221 -3.74142 0
M  V30 20695 N 1992.16 0.447383 -2.87136 0
M  V30 20696 H 1991.7 -0.386058 -2.54691 0
M  V30 20697 H 1991.66 1.31512 -2.85573 0
M  V30 20698 N 1995.44 1.1031 -1.12559 0
M  V30 20699 C 1996.38 2.16689 -0.794638 0
M  V30 20700 C 1997.35 1.64369 0.239196 0
M  V30 20701 O 1998.54 1.90462 0.113478 0
M  V30 20702 C 1995.68 3.44143 -0.256828 0
M  V30 20703 C 1994.79 4.10409 -1.34863 0
M  V30 20704 C 1993.93 5.25588 -0.77012 0
M  V30 20705 C 1992.96 5.8376 -1.84096 0
M  V30 20706 N 1992.1 6.90314 -1.28107 0
M  V30 20707 H 1996.94 2.44342 -1.7059 0
M  V30 20708 H 1994.48 1.19936 -0.851695 0
M  V30 20709 H 1996.44 4.17136 0.0730472 0
M  V30 20710 H 1995.07 3.16837 0.61759 0
M  V30 20711 H 1994.12 3.35372 -1.79526 0
M  V30 20712 H 1995.43 4.49686 -2.15833 0
M  V30 20713 H 1994.58 6.05439 -0.390991 0
M  V30 20714 H 1993.32 4.87649 0.0707618 0
M  V30 20715 H 1992.33 5.02577 -2.22926 0
M  V30 20716 H 1993.55 6.23763 -2.68508 0
M  V30 20717 H 1991.5 6.54371 -0.462033 0
M  V30 20718 H 1991.42 7.28309 -2.02735 0
M  V30 20719 H 1992.68 7.73942 -0.929211 0
M  V30 20720 N 1996.91 0.917694 1.28125 0
M  V30 20721 C 1998.14 0.56827 1.99463 0
M  V30 20722 C 1998.56 -0.844246 1.6809 0
M  V30 20723 O 1997.92 -1.56487 0.915504 0
M  V30 20724 C 1997.97 0.788859 3.51866 0
M  V30 20725 O 1997.07 -0.150301 4.12126 0
M  V30 20726 H 1996.41 0.219899 0.626531 0
M  V30 20727 H 1998.94 1.23421 1.63182 0
M  V30 20728 H 1998.95 0.700502 4.01942 0
M  V30 20729 H 1997.63 1.81855 3.74034 0
M  V30 20730 H 1996.21 -0.012878 3.72898 0
M  V30 20731 N 1998.39 -1.42074 0.682102 0
M  V30 20732 C 1999.64 -2.01733 0.207714 0
M  V30 20733 C 1999.97 -1.53844 -1.18514 0
M  V30 20734 O 1999.25 -0.74378 -1.79717 0
M  V30 20735 C 1999.53 -3.59228 0.250438 0
M  V30 20736 C 1999.38 -4.17278 1.67927 0
M  V30 20737 C 2000.7 -4.38303 -0.397296 0
M  V30 20738 H 1997.82 -0.732972 0.0769518 0
M  V30 20739 H 2000.46 -1.69 0.868272 0
M  V30 20740 H 1998.61 -3.87245 -0.312007 0
M  V30 20741 H 2000.28 -4.00187 2.29452 0
M  V30 20742 H 1998.53 -3.7283 2.21767 0
M  V30 20743 H 1999.2 -5.26423 1.66079 0
M  V30 20744 H 2001.67 -4.1602 0.0815622 0
M  V30 20745 H 2000.55 -5.47866 -0.336797 0
M  V30 20746 H 2000.81 -4.16733 -1.476 0
M  V30 20747 N 1999.87 -0.425924 -1.51735 0
M  V30 20748 C 2001.12 0.144058 -2.01586 0
M  V30 20749 C 2001.44 1.44204 -1.31264 0
M  V30 20750 O 2000.71 1.9081 -0.443661 0
M  V30 20751 H 1999.29 0.0562264 -0.744881 0
M  V30 20752 H 2001.95 -0.566016 -1.865 0
M  V30 20753 H 2001.05 0.328161 -3.1037 0
M  V30 20754 N 2001.35 1.56817 -0.156891 0
M  V30 20755 C 2002.6 1.95614 0.491749 0
M  V30 20756 C 2002.91 1.04481 1.65357 0
M  V30 20757 O 2004.12 1.32898 2.36749 0
M  V30 20758 C 2002.57 3.47777 0.926222 0
M  V30 20759 C 2002.18 4.47511 -0.209209 0
M  V30 20760 C 2003.92 3.95421 1.54409 0
M  V30 20761 C 2001.83 5.90896 0.244087 0
M  V30 20762 H 2000.76 0.73032 0.187481 0
M  V30 20763 H 2003.41 1.81886 -0.242819 0
M  V30 20764 H 2001.79 3.56872 1.71634 0
M  V30 20765 H 2002.97 4.5012 -0.986326 0
M  V30 20766 H 2001.28 4.09842 -0.736118 0
M  V30 20767 H 2003.88 4.99992 1.89504 0
M  V30 20768 H 2004.22 3.37535 2.43672 0
M  V30 20769 H 2004.76 3.89284 0.818685 0
M  V30 20770 H 2001.49 6.52624 -0.613406 0
M  V30 20771 H 2001.01 5.91626 0.986869 0
M  V30 20772 H 2002.69 6.4328 0.6928 0
M  V30 20773 N 2002.83 -0.116876 1.57166 0
M  V30 20774 C 2004.07 -0.822873 1.84151 0
M  V30 20775 C 2004.39 -1.80944 0.742867 0
M  V30 20776 O 2005.59 -2.56177 0.89919 0
M  V30 20777 C 2004.05 -1.51414 3.26499 0
M  V30 20778 C 2003.66 -0.568446 4.44379 0
M  V30 20779 C 2005.4 -2.20514 3.62731 0
M  V30 20780 C 2003.31 -1.26306 5.77755 0
M  V30 20781 H 2002.24 -0.311047 0.686852 0
M  V30 20782 H 2004.89 -0.0756323 1.83344 0
M  V30 20783 H 2003.27 -2.30807 3.21782 0
M  V30 20784 H 2004.45 0.192429 4.60398 0
M  V30 20785 H 2002.76 0.0157058 4.16397 0
M  V30 20786 H 2005.36 -2.73177 4.5965 0
M  V30 20787 H 2005.7 -2.98411 2.90269 0
M  V30 20788 H 2006.23 -1.48006 3.69241 0
M  V30 20789 H 2002.97 -0.525332 6.53392 0
M  V30 20790 H 2002.49 -1.99589 5.65618 0
M  V30 20791 H 2004.17 -1.79566 6.21583 0
M  V30 20792 N 2004.3 -1.52772 -0.387116 0
M  V30 20793 C 2005.53 -1.72086 -1.15763 0
M  V30 20794 C 2005.95 -0.43912 -1.82903 0
M  V30 20795 O 2005.31 0.605254 -1.70899 0
M  V30 20796 C 2005.36 -2.87248 -2.17992 0
M  V30 20797 O 2004.46 -2.54353 -3.2462 0
M  V30 20798 H 2003.8 -0.572174 -0.336918 0
M  V30 20799 H 2006.33 -1.99571 -0.450833 0
M  V30 20800 H 2006.34 -3.12798 -2.61957 0
M  V30 20801 H 2005.02 -3.80232 -1.68513 0
M  V30 20802 H 2003.6 -2.39551 -2.8578 0
M  V30 20803 N 2005.78 0.645673 -1.43767 0
M  V30 20804 C 2006.71 1.77057 -1.43966 0
M  V30 20805 C 2007.69 1.59805 -0.300185 0
M  V30 20806 O 2008.88 1.81886 -0.494937 0
M  V30 20807 C 2006 3.14453 -1.25845 0
M  V30 20808 C 2005.05 3.50389 -2.43166 0
M  V30 20809 S 2005.88 3.4951 -4.05713 0
M  V30 20810 C 2007.04 4.8955 -3.89989 0
M  V30 20811 H 2007.27 1.76619 -2.39151 0
M  V30 20812 H 2004.8 0.818994 -1.30889 0
M  V30 20813 H 2006.76 3.93747 -1.16077 0
M  V30 20814 H 2005.42 3.12446 -0.321954 0
M  V30 20815 H 2004.62 4.50332 -2.26312 0
M  V30 20816 H 2004.22 2.78525 -2.49599 0
M  V30 20817 H 2006.51 5.78405 -3.5278 0
M  V30 20818 H 2007.45 5.11457 -4.89711 0
M  V30 20819 H 2007.86 4.6344 -3.2231 0
M  V30 20820 N 2007.26 1.30423 0.884744 0
M  V30 20821 C 2008.67 1.17357 1.45204 0
M  V30 20822 C 2009.02 -0.225645 1.94898 0
M  V30 20823 O 2008.15 -1.12234 1.8502 0
M  V30 20824 C 2008.74 2.12438 2.63923 0
M  V30 20825 C 2007.3 2.03351 3.16742 0
M  V30 20826 C 2006.45 2.02508 1.89436 0
M  V30 20827 H 2009.4 1.42689 0.694659 0
M  V30 20828 H 2009.42 1.70535 3.40144 0
M  V30 20829 H 2008.93 3.14267 2.27724 0
M  V30 20830 H 2007.03 1.04665 3.57597 0
M  V30 20831 H 2007.15 2.91748 3.80026 0
M  V30 20832 H 2005.51 1.47312 2.07777 0
M  V30 20833 H 2006.29 3.06066 1.55494 0
M  V30 20834 N 2008.74 -1.09711 1.13142 0
M  V30 20835 C 2009.67 -2.18301 0.828662 0
M  V30 20836 C 2010.65 -1.6879 -0.210733 0
M  V30 20837 O 2011.83 -1.94073 -0.0702977 0
M  V30 20838 C 2008.96 -3.46081 0.290674 0
M  V30 20839 C 2007.92 -4.0891 1.26398 0
M  V30 20840 C 2007.24 -5.3148 0.585887 0
M  V30 20841 C 2008.54 -4.51751 2.62142 0
M  V30 20842 H 2010.24 -2.43885 1.73668 0
M  V30 20843 H 2007.78 -1.17216 0.836449 0
M  V30 20844 H 2009.74 -4.21347 0.0665509 0
M  V30 20845 H 2008.46 -3.20011 -0.652716 0
M  V30 20846 H 2007.12 -3.3566 1.47405 0
M  V30 20847 H 2006.77 -5.01689 -0.362883 0
M  V30 20848 H 2006.47 -5.7447 1.23522 0
M  V30 20849 H 2007.99 -6.09472 0.370976 0
M  V30 20850 H 2009.41 -5.18255 2.45121 0
M  V30 20851 H 2007.8 -5.05615 3.23223 0
M  V30 20852 H 2008.87 -3.64297 3.20025 0
M  V30 20853 N 2010.22 -0.924476 -1.27637 0
M  V30 20854 C 2011.46 -0.562107 -1.94126 0
M  V30 20855 C 2011.79 0.898999 -1.7304 0
M  V30 20856 O 2011.06 1.63686 -1.07627 0
M  V30 20857 H 2009.64 -0.204894 -0.718351 0
M  V30 20858 H 2012.3 -1.17617 -1.5541 0
M  V30 20859 H 2011.39 -0.765644 -3.02563 0
M  V30 20860 N 2011.69 1.41711 -0.689627 0
M  V30 20861 C 2012.92 2.05353 -0.226609 0
M  V30 20862 C 2013.33 1.51972 1.127 0
M  V30 20863 O 2012.68 0.660351 1.71421 0
M  V30 20864 C 2012.74 3.5936 -0.100309 0
M  V30 20865 C 2012.4 4.35507 -1.385 0
M  V30 20866 C 2013.4 4.65185 -2.32161 0
M  V30 20867 C 2011.08 4.74886 -1.63672 0
M  V30 20868 C 2013.08 5.33194 -3.4926 0
M  V30 20869 C 2010.76 5.42632 -2.81058 0
M  V30 20870 C 2011.76 5.71713 -3.73675 0
M  V30 20871 O 2011.45 6.38067 -4.89005 0
M  V30 20872 H 2011.18 0.667906 -0.104298 0
M  V30 20873 H 2013.74 1.82576 -0.941028 0
M  V30 20874 H 2011.97 3.80855 0.669825 0
M  V30 20875 H 2013.66 4.04599 0.324754 0
M  V30 20876 H 2014.42 4.3525 -2.13969 0
M  V30 20877 H 2010.3 4.51635 -0.924476 0
M  V30 20878 H 2013.84 5.5581 -4.2157 0
M  V30 20879 H 2009.74 5.71986 -2.99169 0
M  V30 20880 H 2010.51 6.56561 -4.88743 0
M  V30 20881 N 2013.17 0.433965 1.51507 0
M  V30 20882 C 2014.42 -0.133827 2.02358 0
M  V30 20883 C 2014.75 -1.42654 1.3177 0
M  V30 20884 O 2014.03 -1.89651 0.431588 0
M  V30 20885 C 2014.31 -0.356052 3.58335 0
M  V30 20886 C 2014.16 0.955077 4.39543 0
M  V30 20887 C 2015.48 -1.12732 4.25417 0
M  V30 20888 H 2012.6 -0.0471634 0.735489 0
M  V30 20889 H 2015.24 0.572301 1.81176 0
M  V30 20890 H 2013.39 -0.957541 3.76515 0
M  V30 20891 H 2015.06 1.59029 4.33021 0
M  V30 20892 H 2013.31 1.56044 4.04762 0
M  V30 20893 H 2013.98 0.753671 5.46831 0
M  V30 20894 H 2016.45 -0.617852 4.11487 0
M  V30 20895 H 2015.33 -1.25157 5.34441 0
M  V30 20896 H 2015.59 -2.15452 3.86048 0
M  V30 20897 N 2014.65 -1.56732 0.165206 0
M  V30 20898 C 2015.88 -2.01506 -0.490943 0
M  V30 20899 C 2016.3 -1.04466 -1.56424 0
M  V30 20900 O 2015.66 -0.0232331 -1.81285 0
M  V30 20901 C 2015.71 -3.4492 -1.05179 0
M  V30 20902 O 2014.81 -3.50937 -2.16603 0
M  V30 20903 H 2014.15 -0.653393 -0.11821 0
M  V30 20904 H 2016.68 -2.02846 0.267298 0
M  V30 20905 H 2016.69 -3.84099 -1.37593 0
M  V30 20906 H 2015.37 -4.15049 -0.265916 0
M  V30 20907 H 2013.94 -3.23613 -1.85281 0
M  V30 20908 N 2016.13 0.10854 -1.57226 0
M  V30 20909 C 2017.08 1.13867 -1.97531 0
M  V30 20910 C 2018.06 1.36505 -0.851775 0
M  V30 20911 O 2019.25 1.37422 -1.11554 0
M  V30 20912 C 2016.38 2.4625 -2.39198 0
M  V30 20913 C 2015.47 2.27043 -3.58207 0
M  V30 20914 N 2015.86 1.77671 -4.73568 0
M  V30 20915 C 2014.16 2.5766 -3.64043 0
M  V30 20916 C 2014.86 1.72418 -5.5556 0
M  V30 20917 N 2013.84 2.17145 -4.98346 0
M  V30 20918 H 2017.64 0.749664 -2.84178 0
M  V30 20919 H 2015.15 0.31615 -1.59293 0
M  V30 20920 H 2017.15 3.20769 -2.66295 0
M  V30 20921 H 2015.81 2.859 -1.5392 0
M  V30 20922 H 2016.82 1.47065 -4.96581 0
M  V30 20923 H 2013.5 3.00925 -2.89397 0
M  V30 20924 H 2014.89 1.35411 -6.58113 0
M  V30 20925 N 2017.61 1.52975 0.379009 0
M  V30 20926 C 2018.85 1.68172 1.12082 0
M  V30 20927 C 2019.18 0.429215 1.90218 0
M  V30 20928 O 2018.45 -0.556561 1.87828 0
M  V30 20929 H 2017.03 0.619935 0.416761 0
M  V30 20930 H 2019.69 1.90123 0.428883 0
M  V30 20931 H 2018.78 2.53672 1.81815 0
M  V30 20932 N 2019.08 -0.63804 1.44107 0
M  V30 20933 C 2020.01 -1.76164 1.5326 0
M  V30 20934 C 2021 -1.6566 0.386107 0
M  V30 20935 O 2022.18 -1.84525 0.605326 0
M  V30 20936 C 2019.31 -3.14665 1.4698 0
M  V30 20937 C 2018.26 -3.39949 2.60035 0
M  V30 20938 C 2017.59 -4.78409 2.38808 0
M  V30 20939 C 2018.89 -3.33193 4.02219 0
M  V30 20940 H 2020.58 -1.6876 2.47306 0
M  V30 20941 H 2018.13 -0.810483 1.19026 0
M  V30 20942 H 2020.08 -3.93037 1.51986 0
M  V30 20943 H 2018.81 -3.22835 0.494471 0
M  V30 20944 H 2017.47 -2.63955 2.54408 0
M  V30 20945 H 2017.11 -4.83274 1.39483 0
M  V30 20946 H 2016.81 -4.96285 3.14602 0
M  V30 20947 H 2018.34 -5.5902 2.4562 0
M  V30 20948 H 2019.75 -4.0148 4.09252 0
M  V30 20949 H 2018.15 -3.62605 4.78161 0
M  V30 20950 H 2019.22 -2.31116 4.26279 0
M  V30 20951 N 2020.56 -1.3089 -0.877815 0
M  V30 20952 C 2021.84 -1.10773 -1.6121 0
M  V30 20953 C 2022.22 0.340404 -2.08337 0
M  V30 20954 O 2021.57 1.33316 -1.85577 0
M  V30 20955 C 2021.78 -2.11499 -2.77613 0
M  V30 20956 C 2023.13 -2.43601 -3.47769 0
M  V30 20957 O 2024.15 -2.09865 -2.87811 0
M  V30 20958 O 2023.01 -3.0134 -4.55913 0
M  V30 20959 H 2020.1 -0.425928 -0.708882 0
M  V30 20960 H 2022.65 -1.42341 -0.923964 0
M  V30 20961 H 2021.42 -3.08943 -2.40146 0
M  V30 20962 H 2021.04 -1.80791 -3.54119 0
M  V30 20963 N 2022.04 1.0911 -1.13723 0
M  V30 20964 C 2022.97 2.17859 -0.840227 0
M  V30 20965 C 2023.95 1.68899 0.201778 0
M  V30 20966 O 2025.14 1.94107 0.0600046 0
M  V30 20967 C 2022.27 3.45922 -0.309024 0
M  V30 20968 C 2021.22 4.08234 -1.28565 0
M  V30 20969 C 2020.55 5.31162 -0.614064 0
M  V30 20970 C 2021.85 4.50354 -2.64534 0
M  V30 20971 H 2023.54 2.4296 -1.74959 0
M  V30 20972 H 2021.09 1.16771 -0.842653 0
M  V30 20973 H 2023.04 4.21306 -0.088895 0
M  V30 20974 H 2021.76 3.20353 0.635735 0
M  V30 20975 H 2020.42 3.34873 -1.49183 0
M  V30 20976 H 2020.07 5.01875 0.336272 0
M  V30 20977 H 2019.77 5.73807 -1.26566 0
M  V30 20978 H 2021.29 6.09267 -0.403293 0
M  V30 20979 H 2022.71 5.16948 -2.47866 0
M  V30 20980 H 2021.11 5.03894 -3.259 0
M  V30 20981 H 2022.18 3.62594 -3.21952 0
M  V30 20982 N 2023.52 0.931232 1.27145 0
M  V30 20983 C 2024.77 0.569326 1.93498 0
M  V30 20984 C 2025.08 -0.894288 1.73959 0
M  V30 20985 O 2026.29 -1.36513 2.34684 0
M  V30 20986 C 2024.74 0.967432 3.46654 0
M  V30 20987 C 2024.35 2.45197 3.74943 0
M  V30 20988 C 2026.09 0.676947 4.19068 0
M  V30 20989 C 2024 2.7893 5.2149 0
M  V30 20990 H 2022.93 0.209208 0.724395 0
M  V30 20991 H 2025.58 1.13252 1.44382 0
M  V30 20992 H 2023.96 0.332853 3.94599 0
M  V30 20993 H 2025.14 3.13476 3.37742 0
M  V30 20994 H 2023.45 2.71472 3.1574 0
M  V30 20995 H 2026.05 0.905425 5.26978 0
M  V30 20996 H 2026.39 -0.385967 4.14507 0
M  V30 20997 H 2026.93 1.27079 3.76956 0
M  V30 20998 H 2023.67 3.84144 5.31144 0
M  V30 20999 H 2023.19 2.15304 5.59825 0
M  V30 21000 H 2024.86 2.66862 5.89401 0
M  V30 21001 N 2025 -1.41343 0.697132 0
M  V30 21002 C 2025.93 -2.29199 -0.00639609 0
M  V30 21003 C 2026.94 -1.44867 -0.742796 0
M  V30 21004 O 2028.13 -1.68354 -0.593239 0
M  V30 21005 C 2025.23 -3.22767 -1.03317 0
M  V30 21006 C 2024.4 -4.35865 -0.366071 0
M  V30 21007 C 2023.46 -5.09999 -1.29567 0
M  V30 21008 O 2022.49 -5.63727 -0.787462 0
M  V30 21009 N 2023.69 -5.1761 -2.62792 0
M  V30 21010 H 2026.46 -2.90219 0.747884 0
M  V30 21011 H 2024.02 -1.52512 0.543287 0
M  V30 21012 H 2026.01 -3.69231 -1.65682 0
M  V30 21013 H 2024.58 -2.63045 -1.68897 0
M  V30 21014 H 2023.8 -3.91765 0.437484 0
M  V30 21015 H 2025.09 -5.08706 0.0977313 0
M  V30 21016 H 2024.49 -4.7541 -3.06598 0
M  V30 21017 H 2023.04 -5.67645 -3.20348 0
M  V30 21018 N 2026.48 -0.441993 -1.51275 0
M  V30 21019 C 2027.44 0.355502 -2.26426 0
M  V30 21020 C 2028.44 0.945699 -1.30051 0
M  V30 21021 O 2029.63 0.819422 -1.53724 0
M  V30 21022 C 2026.76 1.50344 -3.05957 0
M  V30 21023 H 2027.95 -0.303177 -2.98364 0
M  V30 21024 H 2025.51 -0.195279 -1.55075 0
M  V30 21025 H 2026.24 2.19803 -2.38447 0
M  V30 21026 H 2026.03 1.08636 -3.7675 0
M  V30 21027 H 2027.52 2.06676 -3.6287 0
M  V30 21028 N 2027.95 1.56642 -0.173515 0
M  V30 21029 C 2029.2 1.9656 0.469943 0
M  V30 21030 C 2029.52 1.06067 1.6363 0
M  V30 21031 O 2028.79 0.127477 1.95485 0
M  V30 21032 H 2027.37 0.725824 0.176604 0
M  V30 21033 H 2030.03 1.93222 -0.255212 0
M  V30 21034 H 2029.13 3.00903 0.828491 0
M  V30 21035 N 2029.43 -0.1002 1.57281 0
M  V30 21036 C 2030.66 -0.82219 1.90407 0
M  V30 21037 C 2031.08 -1.71739 0.767297 0
M  V30 21038 O 2030.44 -1.79103 -0.281369 0
M  V30 21039 C 2030.49 -1.61579 3.22373 0
M  V30 21040 O 2029.59 -2.72433 3.09603 0
M  V30 21041 H 2028.93 -0.2262 0.624283 0
M  V30 21042 H 2031.46 -0.0769557 2.04455 0
M  V30 21043 H 2031.47 -2.00109 3.55556 0
M  V30 21044 H 2030.15 -0.958772 4.04698 0
M  V30 21045 H 2028.72 -2.36968 2.87925 0
M  V30 21046 N 2030.91 -1.53174 -0.370891 0
M  V30 21047 C 2032.16 -1.69349 -1.11574 0
M  V30 21048 C 2032.49 -0.441278 -1.8912 0
M  V30 21049 O 2031.76 0.561336 -1.86224 0
M  V30 21050 C 2032.05 -2.94003 -2.07929 0
M  V30 21051 C 2031.9 -4.29368 -1.34027 0
M  V30 21052 C 2033.22 -3.14243 -3.08123 0
M  V30 21053 H 2030.34 -0.616245 -0.404242 0
M  V30 21054 H 2032.98 -1.85803 -0.397124 0
M  V30 21055 H 2031.13 -2.80105 -2.69209 0
M  V30 21056 H 2032.8 -4.55068 -0.755718 0
M  V30 21057 H 2031.04 -4.29021 -0.642108 0
M  V30 21058 H 2031.72 -5.12712 -2.04525 0
M  V30 21059 H 2034.19 -3.27291 -2.56943 0
M  V30 21060 H 2033.07 -4.02907 -3.7277 0
M  V30 21061 H 2033.33 -2.2928 -3.77999 0
M  V30 21062 N 2032.39 0.630389 -1.44443 0
M  V30 21063 C 2033.63 1.39199 -1.47484 0
M  V30 21064 C 2033.97 1.93903 -0.107313 0
M  V30 21065 O 2033.24 1.73699 0.875158 0
M  V30 21066 C 2033.52 2.55674 -2.5358 0
M  V30 21067 C 2033.38 2.06314 -3.99693 0
M  V30 21068 C 2034.7 3.57858 -2.56174 0
M  V30 21069 H 2031.82 0.504794 -0.536984 0
M  V30 21070 H 2034.46 0.712698 -1.76127 0
M  V30 21071 H 2032.61 3.13624 -2.29287 0
M  V30 21072 H 2034.28 1.53189 -4.35122 0
M  V30 21073 H 2032.52 1.37492 -4.11435 0
M  V30 21074 H 2033.19 2.90173 -4.69578 0
M  V30 21075 H 2035.67 3.0971 -2.77883 0
M  V30 21076 H 2034.55 4.36875 -3.32312 0
M  V30 21077 H 2034.81 4.11976 -1.60401 0
M  V30 21078 N 2033.87 1.31354 0.870861 0
M  V30 21079 C 2035.28 1.09992 1.15646 0
M  V30 21080 C 2035.48 -0.130192 2.01079 0
M  V30 21081 O 2034.54 -0.819776 2.38822 0
M  V30 21082 C 2035.85 2.37098 1.84946 0
M  V30 21083 C 2037.4 2.42699 1.97651 0
M  V30 21084 C 2037.87 3.69684 2.70366 0
M  V30 21085 N 2039.36 3.70573 2.77902 0
M  V30 21086 C 2040.1 4.65525 3.34775 0
M  V30 21087 N 2039.6 5.70831 3.92586 0
M  V30 21088 N 2041.39 4.53046 3.32724 0
M  V30 21089 H 2033.54 2.10249 0.301547 0
M  V30 21090 H 2035.8 0.927478 0.196185 0
M  V30 21091 H 2035.51 3.26943 1.2962 0
M  V30 21092 H 2035.38 2.46827 2.8523 0
M  V30 21093 H 2037.77 1.53324 2.52142 0
M  V30 21094 H 2037.85 2.36935 0.964123 0
M  V30 21095 H 2037.49 4.59425 2.16543 0
M  V30 21096 H 2037.42 3.72714 3.7201 0
M  V30 21097 H 2039.92 2.94449 2.36872 0
M  V30 21098 H 2040.23 6.39363 4.3409 0
M  V30 21099 H 2038.57 5.74606 3.90964 0
M  V30 21100 H 2041.76 3.69952 2.86798 0
M  V30 21101 H 2041.94 5.27223 3.76749 0
M  V30 21102 N 2035.34 -1.08505 1.143 0
M  V30 21103 C 2036.76 -1.32937 0.883172 0
M  V30 21104 C 2036.96 -1.95791 -0.47623 0
M  V30 21105 O 2036.02 -2.2103 -1.22073 0
M  V30 21106 C 2037.33 -2.23189 2.01512 0
M  V30 21107 C 2038.88 -2.36672 2.0483 0
M  V30 21108 C 2039.35 -3.30266 3.17314 0
M  V30 21109 N 2040.84 -3.37843 3.16886 0
M  V30 21110 C 2041.58 -4.1029 4.00561 0
M  V30 21111 N 2041.07 -4.85454 4.94274 0
M  V30 21112 N 2042.87 -4.06111 3.88626 0
M  V30 21113 H 2035.02 -0.660869 2.01857 0
M  V30 21114 H 2037.28 -0.353741 0.879529 0
M  V30 21115 H 2036.99 -1.84248 2.99576 0
M  V30 21116 H 2036.86 -3.23644 1.93738 0
M  V30 21117 H 2039.25 -2.74873 1.07373 0
M  V30 21118 H 2039.33 -1.35963 2.16674 0
M  V30 21119 H 2038.97 -2.92787 4.15016 0
M  V30 21120 H 2038.9 -4.30901 3.02707 0
M  V30 21121 H 2041.39 -2.84257 2.49011 0
M  V30 21122 H 2041.71 -5.38193 5.54588 0
M  V30 21123 H 2040.05 -4.8451 4.98272 0
M  V30 21124 H 2043.24 -3.46497 3.14734 0
M  V30 21125 H 2043.42 -4.6231 4.54064 0
M  V30 21126 N 2036.82 -0.937962 -1.26649 0
M  V30 21127 C 2038.07 -0.584683 -1.94189 0
M  V30 21128 C 2038.4 0.873516 -1.73446 0
M  V30 21129 O 2037.68 1.62451 -1.06957 0
M  V30 21130 C 2037.96 -0.923855 -3.48047 0
M  V30 21131 C 2037.81 -2.43656 -3.7809 0
M  V30 21132 C 2039.13 -0.436986 -4.37925 0
M  V30 21133 H 2036.25 -0.213892 -0.70528 0
M  V30 21134 H 2038.89 -1.1716 -1.49578 0
M  V30 21135 H 2037.04 -0.424389 -3.86175 0
M  V30 21136 H 2038.71 -3.00851 -3.49695 0
M  V30 21137 H 2036.96 -2.88141 -3.2428 0
M  V30 21138 H 2037.63 -2.62439 -4.85623 0
M  V30 21139 H 2040.1 -0.865189 -4.07006 0
M  V30 21140 H 2038.98 -0.703159 -5.44378 0
M  V30 21141 H 2039.24 0.663042 -4.371 0
M  V30 21142 N 2038.3 1.40971 -0.704618 0
M  V30 21143 C 2039.25 2.32576 -0.0337552 0
M  V30 21144 C 2040.24 1.51452 0.758852 0
M  V30 21145 O 2041.45 1.67327 0.663455 0
M  V30 21146 H 2037.82 0.751959 0.00788634 0
M  V30 21147 H 2039.79 2.86819 -0.823248 0
M  V30 21148 C 2038.54 3.36326 0.882061 0
M  V30 21149 H 2037.87 3.98807 0.281575 0
M  V30 21150 H 2039.31 4.02942 1.31962 0
M  V30 21151 C 2037.76 2.70931 2.00245 0
M  V30 21152 O 2038.29 2.56412 3.09218 0
M  V30 21153 N 2036.5 2.29485 1.78284 0
M  V30 21154 H 2036.05 2.41494 0.89657 0
M  V30 21155 H 2036.01 1.86067 2.5343 0
M  V30 21156 N 2039.78 0.45001 1.51039 0
M  V30 21157 C 2041.02 -0.112357 2.02489 0
M  V30 21158 C 2041.36 -1.41249 1.33276 0
M  V30 21159 O 2040.63 -1.89183 0.451679 0
M  V30 21160 C 2040.92 -0.318025 3.58693 0
M  V30 21161 C 2040.77 1.00164 4.38506 0
M  V30 21162 C 2042.09 -1.08213 4.26589 0
M  V30 21163 H 2039.21 -0.0393599 0.735948 0
M  V30 21164 H 2041.85 0.591485 1.80559 0
M  V30 21165 H 2040 -0.917553 3.77509 0
M  V30 21166 H 2041.67 1.63613 4.3131 0
M  V30 21167 H 2039.91 1.60329 4.03085 0
M  V30 21168 H 2040.58 0.811628 5.46001 0
M  V30 21169 H 2043.06 -0.574174 4.12119 0
M  V30 21170 H 2041.94 -1.19481 5.35738 0
M  V30 21171 H 2042.2 -2.11345 3.88311 0
M  V30 21172 N 2041.26 -1.56548 0.18182 0
M  V30 21173 C 2042.67 -1.83704 -0.3331 0
M  V30 21174 C 2043.02 -1.10203 -1.62326 0
M  V30 21175 O 2042.14 -0.358476 -2.1341 0
M  V30 21176 C 2042.74 -3.33243 -0.611134 0
M  V30 21177 C 2041.3 -3.60857 -1.07046 0
M  V30 21178 C 2040.44 -2.77074 -0.111929 0
M  V30 21179 H 2043.4 -1.53422 0.405878 0
M  V30 21180 H 2043.42 -3.51292 -1.462 0
M  V30 21181 H 2042.93 -3.86711 0.328039 0
M  V30 21182 H 2041.03 -3.1281 -2.02437 0
M  V30 21183 H 2041.14 -4.69129 -0.972357 0
M  V30 21184 H 2039.51 -2.47255 -0.611302 0
M  V30 21185 H 2040.29 -3.33327 0.821452 0
M  V30 21186 N 2042.73 0.0918577 -1.57332 0
M  V30 21187 C 2043.96 0.807046 -1.90185 0
M  V30 21188 C 2044.37 1.72642 -0.774035 0
M  V30 21189 O 2043.72 1.81811 0.262746 0
M  V30 21190 C 2043.78 1.67067 -3.18322 0
M  V30 21191 C 2043.44 0.922776 -4.47587 0
M  V30 21192 C 2044.44 0.251109 -5.19293 0
M  V30 21193 C 2042.12 0.895897 -4.94246 0
M  V30 21194 C 2044.12 -0.437433 -6.35897 0
M  V30 21195 C 2041.8 0.203571 -6.10761 0
M  V30 21196 C 2042.8 -0.461913 -6.81436 0
M  V30 21197 O 2042.49 -1.14313 -7.95731 0
M  V30 21198 H 2042.22 0.235807 -0.633539 0
M  V30 21199 H 2044.78 0.0725289 -2.05272 0
M  V30 21200 H 2043.01 2.4475 -2.9939 0
M  V30 21201 H 2044.7 2.26271 -3.36981 0
M  V30 21202 H 2045.46 0.263315 -4.84285 0
M  V30 21203 H 2041.34 1.40333 -4.39122 0
M  V30 21204 H 2044.88 -0.957435 -6.90999 0
M  V30 21205 H 2040.78 0.189223 -6.45223 0
M  V30 21206 H 2041.55 -1.05035 -8.11733 0
M  V30 21207 N 2044.21 1.53368 0.362763 0
M  V30 21208 C 2045.46 1.69938 1.10674 0
M  V30 21209 C 2045.79 0.451301 1.88883 0
M  V30 21210 O 2045.07 -0.551452 1.86519 0
M  V30 21211 C 2045.35 2.95101 2.06367 0
M  V30 21212 C 2045.2 4.30073 1.31748 0
M  V30 21213 C 2046.52 3.15872 3.06452 0
M  V30 21214 H 2043.64 0.61838 0.400968 0
M  V30 21215 H 2046.28 1.86011 0.387265 0
M  V30 21216 H 2044.43 2.81529 2.6772 0
M  V30 21217 H 2046.1 4.55462 0.731574 0
M  V30 21218 H 2044.35 4.29356 0.619347 0
M  V30 21219 H 2045.02 5.13789 2.01803 0
M  V30 21220 H 2047.49 3.28649 2.55204 0
M  V30 21221 H 2046.37 4.04878 3.70628 0
M  V30 21222 H 2046.63 2.31281 3.76778 0
M  V30 21223 N 2045.69 -0.62272 1.44776 0
M  V30 21224 C 2046.93 -1.39358 1.49529 0
M  V30 21225 C 2047.29 -1.91574 0.12776 0
M  V30 21226 O 2048.5 -2.68754 0.0499687 0
M  V30 21227 C 2046.77 -2.52165 2.53273 0
M  V30 21228 S 2048.33 -3.40206 2.77138 0
M  V30 21229 H 2045.14 -0.475312 0.528772 0
M  V30 21230 H 2047.75 -0.720074 1.81756 0
M  V30 21231 H 2046.45 -2.12129 3.51325 0
M  V30 21232 H 2045.98 -3.24333 2.22647 0
M  V30 21233 H 2048 -4.49865 2.0937 0
M  V30 21234 N 2047.17 -1.31814 -0.863883 0
M  V30 21235 C 2048.1 -1.22574 -1.98741 0
M  V30 21236 C 2049.08 -0.111585 -1.69734 0
M  V30 21237 O 2050.26 -0.29721 -1.91912 0
M  V30 21238 C 2047.39 -0.938559 -3.34378 0
M  V30 21239 C 2046.35 -2.01295 -3.7771 0
M  V30 21240 C 2045.67 -1.57834 -5.10874 0
M  V30 21241 C 2046.97 -3.42684 -3.94164 0
M  V30 21242 H 2048.67 -2.16572 -2.06729 0
M  V30 21243 H 2046.21 -1.04262 -0.993246 0
M  V30 21244 H 2048.17 -0.860501 -4.12521 0
M  V30 21245 H 2046.89 0.0370783 -3.26579 0
M  V30 21246 H 2045.55 -2.081 -3.01811 0
M  V30 21247 H 2045.2 -0.5904 -4.99523 0
M  V30 21248 H 2044.9 -2.29713 -5.40838 0
M  V30 21249 H 2046.42 -1.51448 -5.9152 0
M  V30 21250 H 2047.84 -3.38519 -4.62685 0
M  V30 21251 H 2046.23 -4.12833 -4.35533 0
M  V30 21252 H 2047.3 -3.83023 -2.97358 0
M  V30 21253 N 2048.65 1.07897 -1.14873 0
M  V30 21254 C 2049.58 2.16955 -0.863287 0
M  V30 21255 C 2050.56 1.69103 0.183853 0
M  V30 21256 O 2051.74 1.9416 0.0394136 0
M  V30 21257 C 2048.87 3.45575 -0.345696 0
M  V30 21258 C 2047.83 4.06847 -1.32888 0
M  V30 21259 C 2047.15 5.30481 -0.670367 0
M  V30 21260 C 2048.45 4.47523 -2.69296 0
M  V30 21261 H 2050.15 2.41091 -1.77526 0
M  V30 21262 H 2047.69 1.1587 -0.854991 0
M  V30 21263 H 2049.65 4.21188 -0.133575 0
M  V30 21264 H 2048.37 3.21009 0.601722 0
M  V30 21265 H 2047.03 3.33272 -1.52726 0
M  V30 21266 H 2046.68 5.02203 0.283023 0
M  V30 21267 H 2046.38 5.72433 -1.32645 0
M  V30 21268 H 2047.9 6.08805 -0.467891 0
M  V30 21269 H 2049.31 5.1429 -2.53335 0
M  V30 21270 H 2047.71 5.00409 -3.31226 0
M  V30 21271 H 2048.78 3.59159 -3.2578 0
M  V30 21272 N 2050.12 0.944665 1.2615 0
M  V30 21273 C 2051.09 0.461547 2.24505 0
M  V30 21274 C 2052.09 -0.429277 1.54964 0
M  V30 21275 O 2053.28 -0.227965 1.72702 0
M  V30 21276 C 2050.41 -0.334363 3.39256 0
M  V30 21277 H 2051.6 1.33075 2.68758 0
M  V30 21278 H 2049.16 0.726968 1.38365 0
M  V30 21279 H 2049.89 -1.22167 3.00409 0
M  V30 21280 H 2049.68 0.304588 3.90915 0
M  V30 21281 H 2051.17 -0.662181 4.12317 0
M  V30 21282 N 2051.6 -1.40596 0.712085 0
M  V30 21283 C 2052.55 -2.32554 0.0460888 0
M  V30 21284 C 2053.54 -1.51853 -0.750809 0
M  V30 21285 O 2054.75 -1.67676 -0.654572 0
M  V30 21286 H 2051.13 -0.75199 -0.00389841 0
M  V30 21287 H 2053.1 -2.86378 0.838447 0
M  V30 21288 C 2051.85 -3.36789 -0.864212 0
M  V30 21289 H 2051.17 -3.98951 -0.260421 0
M  V30 21290 H 2052.61 -4.03636 -1.29823 0
M  V30 21291 C 2051.07 -2.71989 -1.98805 0
M  V30 21292 O 2051.6 -2.58048 -3.07854 0
M  V30 21293 N 2049.8 -2.30427 -1.77064 0
M  V30 21294 H 2049.35 -2.41966 -0.88375 0
M  V30 21295 H 2049.31 -1.87408 -2.52439 0
M  V30 21296 N 2053.08 -0.458013 -1.50798 0
M  V30 21297 C 2054.03 0.342913 -2.28238 0
M  V30 21298 C 2055 0.99876 -1.32718 0
M  V30 21299 O 2056.18 1.01371 -1.61643 0
M  V30 21300 C 2053.32 1.42646 -3.14239 0
M  V30 21301 C 2052.44 0.786698 -4.24776 0
M  V30 21302 C 2051.57 1.84704 -4.98054 0
M  V30 21303 C 2050.61 1.18681 -6.00484 0
M  V30 21304 N 2049.75 2.18942 -6.6709 0
M  V30 21305 H 2054.59 -0.323799 -2.96236 0
M  V30 21306 H 2052.12 -0.171528 -1.46097 0
M  V30 21307 H 2054.08 2.0662 -3.62442 0
M  V30 21308 H 2052.71 2.06252 -2.48314 0
M  V30 21309 H 2051.76 0.0347215 -3.80384 0
M  V30 21310 H 2053.08 0.264877 -4.98096 0
M  V30 21311 H 2052.23 2.5629 -5.49909 0
M  V30 21312 H 2050.97 2.40263 -4.24411 0
M  V30 21313 H 2049.97 0.45651 -5.47901 0
M  V30 21314 H 2051.2 0.638278 -6.76094 0
M  V30 21315 H 2049.14 2.73543 -5.96247 0
M  V30 21316 H 2049.06 1.71709 -7.36242 0
M  V30 21317 H 2050.33 2.89949 -7.23568 0
M  V30 21318 N 2054.56 1.56449 -0.190119 0
M  V30 21319 C 2055.47 2.22463 0.744809 0
M  V30 21320 C 2056.49 1.22213 1.23855 0
M  V30 21321 O 2057.66 1.54934 1.28675 0
M  V30 21322 C 2054.73 2.86716 1.94923 0
M  V30 21323 C 2053.79 4.02222 1.50054 0
M  V30 21324 C 2053.02 4.63401 2.64755 0
M  V30 21325 O 2053.24 4.23495 3.8211 0
M  V30 21326 O 2052.18 5.52953 2.37752 0
M  V30 21327 H 2056 3.02955 0.212633 0
M  V30 21328 H 2053.59 1.49349 0.0389463 0
M  V30 21329 H 2055.47 3.27385 2.65324 0
M  V30 21330 H 2054.15 2.09207 2.4701 0
M  V30 21331 H 2053.05 3.66185 0.765469 0
M  V30 21332 H 2054.39 4.81379 1.02638 0
M  V30 21333 N 2056.04 -0.0835127 1.57379 0
M  V30 21334 C 2056.97 -1.12692 1.99582 0
M  V30 21335 C 2057.98 -1.35658 0.900041 0
M  V30 21336 O 2059.17 -1.34105 1.17805 0
M  V30 21337 C 2056.27 -2.4802 2.30953 0
M  V30 21338 C 2055.44 -2.45172 3.62228 0
M  V30 21339 C 2054.5 -3.62516 3.81403 0
M  V30 21340 O 2053.53 -3.44479 4.53126 0
M  V30 21341 N 2054.73 -4.82432 3.22862 0
M  V30 21342 H 2057.5 -0.767618 2.89703 0
M  V30 21343 H 2055.06 -0.272335 1.59593 0
M  V30 21344 H 2057.05 -3.25144 2.40964 0
M  V30 21345 H 2055.62 -2.75996 1.46781 0
M  V30 21346 H 2054.84 -1.53514 3.6308 0
M  V30 21347 H 2056.13 -2.40359 4.48448 0
M  V30 21348 H 2055.53 -4.9999 2.64625 0
M  V30 21349 H 2054.08 -5.57108 3.3834 0
M  V30 21350 N 2057.52 -1.53558 -0.354624 0
M  V30 21351 C 2058.43 -1.83745 -1.4586 0
M  V30 21352 C 2059.44 -0.72668 -1.58099 0
M  V30 21353 O 2060.62 -1.01786 -1.73786 0
M  V30 21354 C 2057.68 -2.03089 -2.80991 0
M  V30 21355 C 2056.74 -3.26971 -2.78187 0
M  V30 21356 C 2055.98 -3.45383 -4.06874 0
M  V30 21357 O 2056.2 -2.6786 -5.03594 0
M  V30 21358 O 2055.13 -4.38776 -4.12019 0
M  V30 21359 H 2058.96 -2.77557 -1.23271 0
M  V30 21360 H 2056.54 -1.39075 -0.545763 0
M  V30 21361 H 2058.43 -2.17321 -3.6104 0
M  V30 21362 H 2057.1 -1.12466 -3.03534 0
M  V30 21363 H 2056.01 -3.18153 -1.96798 0
M  V30 21364 H 2057.34 -4.17552 -2.60598 0
M  V30 21365 N 2058.99 0.615033 -1.45104 0
M  V30 21366 C 2059.96 1.7081 -1.52828 0
M  V30 21367 C 2060.96 1.55523 -0.408557 0
M  V30 21368 O 2062.15 1.60726 -0.671773 0
M  V30 21369 C 2059.28 3.10023 -1.41768 0
M  V30 21370 H 2060.47 1.6533 -2.50212 0
M  V30 21371 H 2058.02 0.830115 -1.32434 0
M  V30 21372 H 2058.76 3.21086 -0.455409 0
M  V30 21373 H 2058.54 3.22527 -2.22977 0
M  V30 21374 H 2060.03 3.89657 -1.5019 0
M  V30 21375 N 2060.47 1.3227 0.85688 0
M  V30 21376 C 2061.72 1.22058 1.60576 0
M  V30 21377 C 2062.03 -0.216767 1.94395 0
M  V30 21378 O 2063.24 -0.440721 2.67899 0
M  V30 21379 C 2061.7 2.1376 2.89542 0
M  V30 21380 C 2061.3 3.62564 2.63157 0
M  V30 21381 C 2063.05 2.12379 3.67553 0
M  V30 21382 C 2060.95 4.46234 3.8811 0
M  V30 21383 H 2059.88 0.453274 0.602544 0
M  V30 21384 H 2062.54 1.57215 0.946344 0
M  V30 21385 H 2060.92 1.71515 3.56929 0
M  V30 21386 H 2062.09 4.13137 2.04095 0
M  V30 21387 H 2060.41 3.66053 1.98479 0
M  V30 21388 H 2063 2.72129 4.60272 0
M  V30 21389 H 2063.35 1.11421 4.01112 0
M  V30 21390 H 2063.88 2.52892 3.07067 0
M  V30 21391 H 2060.62 5.47997 3.59693 0
M  V30 21392 H 2060.14 4.00413 4.46575 0
M  V30 21393 H 2061.82 4.5912 4.5587 0
M  V30 21394 N 2061.95 -1.07287 1.15444 0
M  V30 21395 C 2062.88 -2.16494 0.87478 0
M  V30 21396 C 2063.86 -1.69199 -0.174882 0
M  V30 21397 O 2065.05 -1.94178 -0.0291162 0
M  V30 21398 C 2062.18 -3.45387 0.364018 0
M  V30 21399 C 2061.13 -4.06137 1.35043 0
M  V30 21400 C 2060.46 -5.30118 0.69849 0
M  V30 21401 C 2061.76 -4.46089 2.71665 0
M  V30 21402 H 2063.45 -2.40146 1.78802 0
M  V30 21403 H 2061 -1.15415 0.861124 0
M  V30 21404 H 2062.95 -4.21111 0.15591 0
M  V30 21405 H 2061.67 -3.21324 -0.58469 0
M  V30 21406 H 2060.33 -3.32458 1.54491 0
M  V30 21407 H 2059.98 -5.02346 -0.256386 0
M  V30 21408 H 2059.68 -5.71721 1.35679 0
M  V30 21409 H 2061.2 -6.08548 0.500171 0
M  V30 21410 H 2062.62 -5.12939 2.56059 0
M  V30 21411 H 2061.01 -4.98645 3.33876 0
M  V30 21412 H 2062.08 -3.57427 3.2768 0
M  V30 21413 N 2063.43 -0.951342 -1.25647 0
M  V30 21414 C 2064.36 -0.413176 -2.24428 0
M  V30 21415 C 2065.34 0.503664 -1.54603 0
M  V30 21416 O 2066.52 0.438794 -1.83322 0
M  V30 21417 C 2063.65 0.405254 -3.36267 0
M  V30 21418 C 2062.7 -0.45151 -4.24103 0
M  V30 21419 S 2063.53 -1.88173 -5.01349 0
M  V30 21420 C 2064.68 -1.07164 -6.16658 0
M  V30 21421 H 2064.92 -1.25033 -2.6973 0
M  V30 21422 H 2062.45 -0.755177 -1.34672 0
M  V30 21423 H 2064.41 0.871528 -4.01142 0
M  V30 21424 H 2063.07 1.21719 -2.89557 0
M  V30 21425 H 2062.26 0.176047 -5.03692 0
M  V30 21426 H 2061.86 -0.852865 -3.64146 0
M  V30 21427 H 2064.16 -0.318733 -6.7675 0
M  V30 21428 H 2065.1 -1.84134 -6.8374 0
M  V30 21429 H 2065.51 -0.603216 -5.61268 0
M  V30 21430 N 2064.91 1.40216 -0.719531 0
M  V30 21431 C 2066.13 2.05647 -0.269106 0
M  V30 21432 C 2066.56 1.53865 1.082 0
M  V30 21433 O 2065.91 0.675703 1.68238 0
M  V30 21434 C 2065.96 3.59636 -0.263433 0
M  V30 21435 O 2065.07 4.05448 0.754058 0
M  V30 21436 H 2064.41 0.652036 -0.12548 0
M  V30 21437 H 2066.94 1.79542 -0.981119 0
M  V30 21438 H 2066.95 4.07871 -0.102475 0
M  V30 21439 H 2065.62 3.9669 -1.24939 0
M  V30 21440 H 2064.2 3.68664 0.560502 0
M  V30 21441 N 2066.38 0.466004 1.50553 0
M  V30 21442 C 2067.29 -0.33625 2.32178 0
M  V30 21443 C 2068.31 -1.00081 1.42337 0
M  V30 21444 O 2069.49 -0.989904 1.75393 0
M  V30 21445 C 2066.55 -1.40682 3.16875 0
M  V30 21446 C 2065.61 -0.759384 4.2253 0
M  V30 21447 C 2064.84 -1.77894 5.03179 0
M  V30 21448 O 2065.07 -3.00483 4.84836 0
M  V30 21449 O 2064 -1.35358 5.86483 0
M  V30 21450 H 2067.83 0.330908 3.01892 0
M  V30 21451 H 2065.41 0.22795 1.47651 0
M  V30 21452 H 2067.29 -2.02704 3.69444 0
M  V30 21453 H 2065.97 -2.05753 2.49894 0
M  V30 21454 H 2064.88 -0.100338 3.73965 0
M  V30 21455 H 2066.21 -0.151694 4.91966 0
M  V30 21456 N 2067.86 -1.56346 0.198413 0
M  V30 21457 C 2069.14 -1.89433 -0.487272 0
M  V30 21458 C 2069.52 -1.11243 -1.79411 0
M  V30 21459 O 2068.87 -0.214538 -2.27491 0
M  V30 21460 C 2069.08 -3.4185 -0.702822 0
M  V30 21461 C 2070.42 -4.12149 -1.0207 0
M  V30 21462 O 2071.45 -3.47319 -0.790427 0
M  V30 21463 O 2070.31 -5.26735 -1.45647 0
M  V30 21464 H 2067.4 -0.786878 -0.254463 0
M  V30 21465 H 2069.95 -1.6801 0.238874 0
M  V30 21466 H 2068.72 -3.90682 0.219919 0
M  V30 21467 H 2068.34 -3.68976 -1.48131 0
M  V30 21468 N 2069.34 0.0751653 -1.57421 0
M  V30 21469 C 2070.59 0.776106 -1.87362 0
M  V30 21470 C 2070.92 1.77394 -0.790247 0
M  V30 21471 O 2070.19 1.93471 0.199817 0
M  V30 21472 C 2070.48 1.4871 -3.27959 0
M  V30 21473 C 2070.33 0.505905 -4.46946 0
M  V30 21474 C 2071.65 2.43284 -3.66744 0
M  V30 21475 H 2068.77 0.280684 -0.681458 0
M  V30 21476 H 2071.41 0.0393497 -1.89959 0
M  V30 21477 H 2069.56 2.11512 -3.25876 0
M  V30 21478 H 2071.23 -0.116642 -4.61153 0
M  V30 21479 H 2069.48 -0.179057 -4.3343 0
M  V30 21480 H 2070.15 1.04094 -5.42096 0
M  V30 21481 H 2072.62 1.90562 -3.69899 0
M  V30 21482 H 2071.5 2.90037 -4.66015 0
M  V30 21483 H 2071.76 3.27938 -2.96494 0
M  V30 21484 N 2070.82 1.53744 0.346476 0
M  V30 21485 C 2071.77 1.81527 1.42536 0
M  V30 21486 C 2072.74 0.660781 1.52391 0
M  V30 21487 O 2073.92 0.904918 1.67976 0
M  V30 21488 C 2071.06 2.02795 2.79228 0
M  V30 21489 C 2070.17 3.30508 2.78188 0
M  V30 21490 C 2069.31 3.41859 4.06578 0
M  V30 21491 C 2068.35 4.63532 3.99755 0
M  V30 21492 N 2067.48 4.71933 5.1983 0
M  V30 21493 H 2072.32 2.7358 1.18144 0
M  V30 21494 H 2069.86 1.35508 0.572368 0
M  V30 21495 H 2071.82 2.13115 3.58661 0
M  V30 21496 H 2070.45 1.14059 3.01978 0
M  V30 21497 H 2069.5 3.29044 1.90877 0
M  V30 21498 H 2070.81 4.20033 2.69024 0
M  V30 21499 H 2069.97 3.51595 4.94435 0
M  V30 21500 H 2068.71 2.50385 4.1852 0
M  V30 21501 H 2067.71 4.53876 3.10284 0
M  V30 21502 H 2068.94 5.56368 3.89399 0
M  V30 21503 H 2066.88 3.83367 5.32321 0
M  V30 21504 H 2066.8 5.5539 5.12911 0
M  V30 21505 H 2068.07 4.85975 6.09466 0
M  V30 21506 N 2072.3 -0.607329 1.45428 0
M  V30 21507 C 2073.23 -1.72873 1.56962 0
M  V30 21508 C 2074.21 -1.64804 0.421159 0
M  V30 21509 O 2075.39 -1.83199 0.64433 0
M  V30 21510 C 2072.52 -3.11476 1.53622 0
M  V30 21511 C 2071.48 -3.34357 2.67188 0
M  V30 21512 C 2070.8 -4.73236 2.48902 0
M  V30 21513 C 2072.1 -3.24586 4.09196 0
M  V30 21514 H 2073.8 -1.63477 2.5083 0
M  V30 21515 H 2071.34 -0.785054 1.20718 0
M  V30 21516 H 2073.3 -3.89725 1.60288 0
M  V30 21517 H 2072.02 -3.21714 0.562838 0
M  V30 21518 H 2070.68 -2.58499 2.5995 0
M  V30 21519 H 2070.33 -4.80206 1.49702 0
M  V30 21520 H 2070.03 -4.895 3.25059 0
M  V30 21521 H 2071.55 -5.53684 2.57422 0
M  V30 21522 H 2072.96 -3.92709 4.17676 0
M  V30 21523 H 2071.36 -3.52381 4.85745 0
M  V30 21524 H 2072.43 -2.22022 4.31085 0
M  V30 21525 N 2073.77 -1.32722 -0.849853 0
M  V30 21526 C 2074.72 -1.22024 -1.98023 0
M  V30 21527 C 2075.72 -0.12398 -1.68946 0
M  V30 21528 O 2076.92 -0.287223 -1.77694 0
M  V30 21529 H 2073.3 -0.378378 -0.649873 0
M  V30 21530 H 2075.27 -2.17614 -2.04173 0
M  V30 21531 C 2074.02 -0.965076 -3.34038 0
M  V30 21532 H 2073.34 -1.80084 -3.56945 0
M  V30 21533 H 2074.78 -0.93048 -4.13664 0
M  V30 21534 C 2073.24 0.332137 -3.35259 0
M  V30 21535 O 2073.77 1.34244 -3.78604 0
M  V30 21536 N 2071.98 0.355806 -2.88414 0
M  V30 21537 H 2071.52 -0.46689 -2.53334 0
M  V30 21538 H 2071.48 1.2236 -2.89613 0
M  V30 21539 N 2075.25 1.06673 -1.16011 0
M  V30 21540 C 2076.66 1.60868 -0.947549 0
M  V30 21541 C 2077.01 1.89469 0.509491 0
M  V30 21542 O 2076.14 1.66526 1.38195 0
M  V30 21543 C 2076.73 2.92266 -1.71365 0
M  V30 21544 C 2075.29 3.43177 -1.54618 0
M  V30 21545 C 2074.44 2.17128 -1.72484 0
M  V30 21546 H 2077.39 0.896725 -1.30937 0
M  V30 21547 H 2077.41 3.61505 -1.1872 0
M  V30 21548 H 2076.92 2.71417 -2.77406 0
M  V30 21549 H 2075.03 3.69093 -0.51001 0
M  V30 21550 H 2075.14 4.1876 -2.3276 0
M  V30 21551 H 2073.5 2.27162 -1.15193 0
M  V30 21552 H 2074.29 1.98766 -2.79905 0
M  V30 21553 N 2076.73 0.957992 1.25141 0
M  V30 21554 C 2077.96 0.631439 1.97554 0
M  V30 21555 C 2078.38 -0.790342 1.7069 0
M  V30 21556 O 2077.74 -1.53495 0.964826 0
M  V30 21557 C 2077.79 0.900403 3.49178 0
M  V30 21558 O 2076.89 -0.01911 4.12396 0
M  V30 21559 H 2076.23 0.23972 0.619217 0
M  V30 21560 H 2078.76 1.2855 1.59173 0
M  V30 21561 H 2078.77 0.828022 3.99509 0
M  V30 21562 H 2077.45 1.93663 3.68059 0
M  V30 21563 H 2076.02 0.105763 3.7275 0
M  V30 21564 N 2078.21 -1.39832 0.726957 0
M  V30 21565 C 2079.12 -2.34453 0.0830837 0
M  V30 21566 C 2080.13 -1.579 -0.731009 0
M  V30 21567 O 2081.31 -1.90232 -0.661338 0
M  V30 21568 C 2078.38 -3.3688 -0.819324 0
M  V30 21569 C 2077.44 -4.293 0.00610659 0
M  V30 21570 C 2076.67 -5.26834 -0.853324 0
M  V30 21571 O 2076.89 -5.30641 -2.09228 0
M  V30 21572 O 2075.83 -6.01219 -0.286261 0
M  V30 21573 H 2079.65 -2.91155 0.863845 0
M  V30 21574 H 2077.24 -1.41221 0.487543 0
M  V30 21575 H 2079.12 -3.99665 -1.33589 0
M  V30 21576 H 2077.79 -2.82574 -1.57904 0
M  V30 21577 H 2076.7 -3.69763 0.568007 0
M  V30 21578 H 2078.03 -4.86789 0.727856 0
M  V30 21579 N 2079.69 -0.473982 -1.50304 0
M  V30 21580 C 2080.96 0.141727 -1.95086 0
M  V30 21581 C 2081.34 1.56703 -1.41447 0
M  V30 21582 O 2080.69 2.20021 -0.616691 0
M  V30 21583 C 2080.9 0.0820815 -3.48903 0
M  V30 21584 C 2082.25 0.26953 -4.23744 0
M  V30 21585 O 2083.27 0.158532 -3.55847 0
M  V30 21586 O 2082.13 0.494023 -5.44262 0
M  V30 21587 H 2079.23 0.110094 -0.819639 0
M  V30 21588 H 2081.77 -0.534591 -1.6106 0
M  V30 21589 H 2080.54 -0.912936 -3.80501 0
M  V30 21590 H 2080.17 0.799731 -3.89474 0
M  V30 21591 N 2081.16 1.56239 -0.206702 0
M  V30 21592 C 2082.41 1.97904 0.428991 0
M  V30 21593 C 2082.74 1.09394 1.6082 0
M  V30 21594 O 2081.99 0.135573 1.9523 0
M  V30 21595 C 2082.29 3.45345 0.920411 0
M  V30 21596 C 2081.96 4.50661 -0.146675 0
M  V30 21597 C 2080.62 4.79185 -0.439852 0
M  V30 21598 C 2082.97 5.13903 -0.869114 0
M  V30 21599 C 2080.3 5.68237 -1.46024 0
M  V30 21600 C 2082.65 6.04058 -1.87874 0
M  V30 21601 C 2081.32 6.30933 -2.17899 0
M  V30 21602 H 2080.59 0.724181 0.156979 0
M  V30 21603 H 2083.23 1.89038 -0.306106 0
M  V30 21604 H 2081.54 3.5134 1.734 0
M  V30 21605 H 2083.24 3.74945 1.42187 0
M  V30 21606 H 2079.83 4.28501 0.0919915 0
M  V30 21607 H 2084.01 4.91947 -0.655848 0
M  V30 21608 H 2079.27 5.87329 -1.69866 0
M  V30 21609 H 2083.44 6.52117 -2.44369 0
M  V30 21610 H 2081.07 6.99735 -2.9711 0
M  V30 21611 N 2082.64 -0.0668159 1.57458 0
M  V30 21612 C 2083.89 -0.76387 1.86676 0
M  V30 21613 C 2084.2 -1.78489 0.800057 0
M  V30 21614 O 2085.41 -2.53187 0.980236 0
M  V30 21615 C 2083.87 -1.4095 3.31151 0
M  V30 21616 C 2083.47 -0.426782 4.45963 0
M  V30 21617 C 2085.22 -2.08863 3.69563 0
M  V30 21618 C 2083.13 -1.07861 5.81481 0
M  V30 21619 H 2082.06 -0.289037 0.6964 0
M  V30 21620 H 2084.71 -0.0172645 1.83492 0
M  V30 21621 H 2083.09 -2.20453 3.28962 0
M  V30 21622 H 2084.26 0.338803 4.59553 0
M  V30 21623 H 2082.58 0.148171 4.16136 0
M  V30 21624 H 2085.17 -2.58415 4.68109 0
M  V30 21625 H 2085.52 -2.89026 2.99616 0
M  V30 21626 H 2086.05 -1.36184 3.73763 0
M  V30 21627 H 2082.79 -0.317194 6.54732 0
M  V30 21628 H 2082.31 -1.81493 5.71682 0
M  V30 21629 H 2083.99 -1.597 6.26981 0
M  V30 21630 N 2084.12 -1.53926 -0.338317 0
M  V30 21631 C 2085.07 -1.8228 -1.41572 0
M  V30 21632 C 2086.04 -0.668853 -1.52038 0
M  V30 21633 O 2087.22 -0.913813 -1.67494 0
M  V30 21634 C 2084.36 -2.04273 -2.78148 0
M  V30 21635 C 2083.48 -3.31978 -2.76432 0
M  V30 21636 C 2082.61 -3.44011 -4.04759 0
M  V30 21637 C 2081.65 -4.65646 -3.97292 0
M  V30 21638 N 2080.79 -4.74683 -5.1732 0
M  V30 21639 H 2085.63 -2.74202 -1.16692 0
M  V30 21640 H 2083.16 -1.35809 -0.565173 0
M  V30 21641 H 2085.12 -2.15014 -3.57526 0
M  V30 21642 H 2083.75 -1.15659 -3.01368 0
M  V30 21643 H 2082.8 -3.30052 -1.89129 0
M  V30 21644 H 2084.12 -4.21454 -2.66792 0
M  V30 21645 H 2083.27 -3.54213 -4.92563 0
M  V30 21646 H 2082.01 -2.52601 -4.17186 0
M  V30 21647 H 2081.01 -4.55516 -3.07873 0
M  V30 21648 H 2082.24 -5.58425 -3.86443 0
M  V30 21649 H 2080.19 -3.86184 -5.30281 0
M  V30 21650 H 2080.1 -5.58103 -5.09958 0
M  V30 21651 H 2081.37 -4.89201 -6.0688 0
M  V30 21652 N 2085.6 0.599608 -1.45748 0
M  V30 21653 C 2086.55 1.70431 -1.51451 0
M  V30 21654 C 2087.53 1.56421 -0.376992 0
M  V30 21655 O 2088.73 1.65623 -0.624354 0
M  V30 21656 C 2085.85 3.09198 -1.49169 0
M  V30 21657 C 2084.94 3.28565 -2.68153 0
M  V30 21658 N 2085.33 3.1816 -3.93202 0
M  V30 21659 C 2083.63 3.59458 -2.64018 0
M  V30 21660 C 2084.33 3.39074 -4.72656 0
M  V30 21661 N 2083.31 3.63439 -4.04243 0
M  V30 21662 H 2087.11 1.60891 -2.4595 0
M  V30 21663 H 2084.62 0.803119 -1.41152 0
M  V30 21664 H 2086.62 3.88461 -1.5134 0
M  V30 21665 H 2085.28 3.19881 -0.557335 0
M  V30 21666 H 2086.29 2.96389 -4.24704 0
M  V30 21667 H 2082.97 3.7693 -1.79528 0
M  V30 21668 H 2084.36 3.36356 -5.81648 0
M  V30 21669 N 2087.08 1.33171 0.842803 0
M  V30 21670 C 2088.32 1.24589 1.60017 0
M  V30 21671 C 2088.66 -0.188935 1.93279 0
M  V30 21672 O 2087.93 -1.12923 1.58362 0
M  V30 21673 C 2088.21 2.11731 2.91277 0
M  V30 21674 C 2088.07 3.63652 2.64721 0
M  V30 21675 C 2089.39 1.98749 3.92666 0
M  V30 21676 H 2086.51 0.453935 0.580613 0
M  V30 21677 H 2089.15 1.63234 0.972356 0
M  V30 21678 H 2087.3 1.78904 3.44856 0
M  V30 21679 H 2088.97 4.06751 2.17604 0
M  V30 21680 H 2087.21 3.85728 1.98486 0
M  V30 21681 H 2087.88 4.19966 3.58236 0
M  V30 21682 H 2090.36 2.2753 3.48381 0
M  V30 21683 H 2089.24 2.61979 4.82347 0
M  V30 21684 H 2089.5 0.958565 4.31583 0
M  V30 21685 N 2088.56 -1.06056 1.16576 0
M  V30 21686 C 2089.97 -1.31034 0.911171 0
M  V30 21687 C 2090.17 -1.96758 -0.434593 0
M  V30 21688 O 2089.23 -2.2357 -1.17357 0
M  V30 21689 C 2090.54 -2.18865 2.06201 0
M  V30 21690 C 2092.09 -2.32274 2.09804 0
M  V30 21691 C 2092.56 -3.23461 3.24248 0
M  V30 21692 N 2094.05 -3.31045 3.2398 0
M  V30 21693 C 2094.79 -4.01702 4.09174 0
M  V30 21694 N 2094.29 -4.7486 5.0446 0
M  V30 21695 N 2096.08 -3.97777 3.97153 0
M  V30 21696 H 2088.23 -0.617904 2.03213 0
M  V30 21697 H 2090.49 -0.335006 0.886834 0
M  V30 21698 H 2090.2 -1.77852 3.03417 0
M  V30 21699 H 2090.07 -3.19462 2.00559 0
M  V30 21700 H 2092.46 -2.72534 1.13179 0
M  V30 21701 H 2092.54 -1.31337 2.19509 0
M  V30 21702 H 2092.18 -2.83918 4.21133 0
M  V30 21703 H 2092.11 -4.24384 3.11779 0
M  V30 21704 H 2094.61 -2.78911 2.54984 0
M  V30 21705 H 2094.92 -5.26308 5.65879 0
M  V30 21706 H 2093.26 -4.73832 5.08437 0
M  V30 21707 H 2096.45 -3.39743 3.22013 0
M  V30 21708 H 2096.63 -4.52574 4.63768 0
M  V30 21709 N 2090.03 -0.964615 -1.24631 0
M  V30 21710 C 2091.26 -0.642327 -1.96677 0
M  V30 21711 C 2091.68 0.787619 -1.71587 0
M  V30 21712 O 2091.03 1.52808 -0.9978 0
M  V30 21713 C 2091.08 -0.903712 -3.50022 0
M  V30 21714 O 2090.81 -2.27744 -3.74252 0
M  V30 21715 C 2092.31 -0.595187 -4.39286 0
M  V30 21716 H 2089.53 -0.239932 -0.626637 0
M  V30 21717 H 2092.07 -1.29171 -1.58541 0
M  V30 21718 H 2090.23 -0.300589 -3.86232 0
M  V30 21719 H 2090.64 -2.35512 -4.68652 0
M  V30 21720 H 2092.11 -0.828552 -5.45746 0
M  V30 21721 H 2092.59 0.470491 -4.36673 0
M  V30 21722 H 2093.2 -1.17808 -4.08658 0
M  V30 21723 N 2091.51 1.39445 -0.734362 0
M  V30 21724 C 2092.46 2.32452 -0.0830804 0
M  V30 21725 C 2093.45 1.53028 0.726556 0
M  V30 21726 O 2094.66 1.68697 0.627813 0
M  V30 21727 H 2091.03 0.751957 -0.00806559 0
M  V30 21728 H 2093.01 2.85008 -0.883901 0
M  V30 21729 C 2091.75 3.38121 0.810522 0
M  V30 21730 H 2091.08 3.99315 0.196919 0
M  V30 21731 H 2092.52 4.0565 1.23385 0
M  V30 21732 C 2090.98 2.75118 1.94453 0
M  V30 21733 O 2091.51 2.62913 3.0371 0
M  V30 21734 N 2089.71 2.33215 1.73376 0
M  V30 21735 H 2089.26 2.43341 0.845144 0
M  V30 21736 H 2089.22 1.914 2.49426 0
M  V30 21737 N 2092.99 0.481946 1.5005 0
M  V30 21738 C 2094.24 -0.069141 2.01982 0
M  V30 21739 C 2094.56 -1.39233 1.36525 0
M  V30 21740 O 2093.83 -1.89032 0.514174 0
M  V30 21741 H 2092.41 -0.0285419 0.746455 0
M  V30 21742 H 2095.07 0.634845 1.84271 0
M  V30 21743 H 2094.17 -0.212743 3.11374 0
M  V30 21744 N 2094.47 -1.56127 0.214985 0
M  V30 21745 C 2095.72 -1.97737 -0.417663 0
M  V30 21746 C 2096.04 -1.10368 -1.6076 0
M  V30 21747 O 2095.31 -0.179261 -1.95078 0
M  V30 21748 H 2093.89 -0.730251 -0.157298 0
M  V30 21749 H 2096.55 -1.92477 0.306351 0
M  V30 21750 H 2095.64 -3.02994 -0.748421 0
M  V30 21751 N 2095.95 0.0584645 -1.57492 0
M  V30 21752 C 2097.18 0.766524 -1.91854 0
M  V30 21753 C 2097.58 1.70962 -0.810481 0
M  V30 21754 O 2096.93 1.82328 0.224122 0
M  V30 21755 C 2096.99 1.60277 -3.21794 0
M  V30 21756 C 2096.65 0.827629 -4.49443 0
M  V30 21757 C 2097.65 0.140903 -5.19709 0
M  V30 21758 C 2095.33 0.790858 -4.96035 0
M  V30 21759 C 2097.33 -0.572217 -6.34826 0
M  V30 21760 C 2095.02 0.0739737 -6.11055 0
M  V30 21761 C 2096.01 -0.606351 -6.80303 0
M  V30 21762 O 2095.7 -1.31166 -7.93127 0
M  V30 21763 H 2095.43 0.222315 -0.638398 0
M  V30 21764 H 2097.99 0.0289713 -2.0538 0
M  V30 21765 H 2096.22 2.38344 -3.04514 0
M  V30 21766 H 2097.91 2.19073 -3.41705 0
M  V30 21767 H 2098.67 0.160531 -4.84734 0
M  V30 21768 H 2094.55 1.30987 -4.41999 0
M  V30 21769 H 2098.1 -1.10379 -6.88812 0
M  V30 21770 H 2093.99 0.0523191 -6.45479 0
M  V30 21771 H 2094.76 -1.2223 -8.09322 0
M  V30 21772 N 2097.42 1.54103 0.330149 0
M  V30 21773 C 2098.37 1.83745 1.4262 0
M  V30 21774 C 2099.37 0.708869 1.53855 0
M  V30 21775 O 2100.57 0.892427 1.56319 0
M  V30 21776 H 2096.95 0.58234 0.475799 0
M  V30 21777 H 2098.92 2.75417 1.1484 0
M  V30 21778 C 2097.67 2.07574 2.78941 0
M  V30 21779 H 2096.99 2.93875 2.71068 0
M  V30 21780 H 2098.43 2.32273 3.54719 0
M  V30 21781 C 2096.89 0.865282 3.25599 0
M  V30 21782 O 2097.42 0.0712874 4.01637 0
M  V30 21783 N 2095.62 0.678754 2.82562 0
M  V30 21784 H 2095.17 1.32607 2.20847 0
M  V30 21785 H 2095.13 -0.129662 3.14133 0
M  V30 21786 N 2098.9 -0.59187 1.46064 0
M  V30 21787 C 2100.13 -1.38153 1.54688 0
M  V30 21788 C 2100.55 -1.87183 0.185547 0
M  V30 21789 O 2099.91 -1.61046 -0.832694 0
M  V30 21790 C 2099.96 -2.55134 2.54831 0
M  V30 21791 O 2099.06 -3.56279 2.077 0
M  V30 21792 H 2098.4 -0.41181 0.520873 0
M  V30 21793 H 2100.93 -0.718824 1.91557 0
M  V30 21794 H 2100.94 -3.02173 2.74145 0
M  V30 21795 H 2099.62 -2.188 3.53694 0
M  V30 21796 H 2098.2 -3.15782 1.98333 0
M  V30 21797 N 2100.38 -1.33616 -0.835729 0
M  V30 21798 C 2101.63 -1.26446 -1.59321 0
M  V30 21799 C 2101.98 0.167445 -1.9167 0
M  V30 21800 O 2101.27 1.11036 -1.56146 0
M  V30 21801 C 2101.47 -2.07621 -2.90909 0
M  V30 21802 C 2101.3 -3.5856 -2.71413 0
M  V30 21803 C 2100.07 -4.27867 -2.68809 0
M  V30 21804 C 2102.27 -4.52828 -2.43827 0
M  V30 21805 N 2100.25 -5.64735 -2.40723 0
M  V30 21806 C 2101.62 -5.77608 -2.2532 0
M  V30 21807 C 2103.67 -4.41879 -2.2945 0
M  V30 21808 C 2102.38 -6.92674 -1.93895 0
M  V30 21809 C 2104.4 -5.56764 -1.99417 0
M  V30 21810 C 2103.76 -6.80555 -1.81725 0
M  V30 21811 H 2099.86 -0.517904 -0.585917 0
M  V30 21812 H 2102.45 -1.68191 -0.980805 0
M  V30 21813 H 2100.62 -1.68192 -3.50094 0
M  V30 21814 H 2102.35 -1.92195 -3.5615 0
M  V30 21815 H 2099.11 -3.80173 -2.82428 0
M  V30 21816 H 2099.53 -6.36893 -2.29556 0
M  V30 21817 H 2104.17 -3.46805 -2.4184 0
M  V30 21818 H 2101.89 -7.87743 -1.80242 0
M  V30 21819 H 2105.48 -5.50231 -1.89044 0
M  V30 21820 H 2104.36 -7.67949 -1.58821 0
M  V30 21821 N 2101.86 1.05436 -1.17136 0
M  V30 21822 C 2102.81 2.11403 -0.853984 0
M  V30 21823 C 2103.79 1.59995 0.170369 0
M  V30 21824 O 2104.98 1.76972 -0.0317102 0
M  V30 21825 C 2102.11 3.4134 -0.366345 0
M  V30 21826 C 2101.2 3.9955 -1.42198 0
M  V30 21827 N 2101.59 4.31757 -2.63476 0
M  V30 21828 C 2099.89 4.2726 -1.27926 0
M  V30 21829 C 2100.59 4.78146 -3.31287 0
M  V30 21830 N 2099.57 4.78114 -2.58665 0
M  V30 21831 H 2103.37 2.34162 -1.77611 0
M  V30 21832 H 2100.88 1.23061 -1.05971 0
M  V30 21833 H 2102.88 4.16726 -0.120535 0
M  V30 21834 H 2101.54 3.20015 0.549603 0
M  V30 21835 H 2102.55 4.21833 -3.00461 0
M  V30 21836 H 2099.23 4.15334 -0.424764 0
M  V30 21837 H 2100.62 5.12198 -4.34859 0
M  V30 21838 N 2103.34 0.971211 1.24118 0
M  V30 21839 C 2104.27 0.523167 2.27564 0
M  V30 21840 C 2105.25 -0.438983 1.64338 0
M  V30 21841 O 2106.43 -0.334345 1.913 0
M  V30 21842 C 2103.56 -0.184078 3.46812 0
M  V30 21843 C 2102.52 0.694439 4.22329 0
M  V30 21844 C 2101.84 -0.144498 5.34505 0
M  V30 21845 C 2103.14 1.98076 4.83284 0
M  V30 21846 H 2104.84 1.3878 2.65293 0
M  V30 21847 H 2102.38 0.668756 1.27529 0
M  V30 21848 H 2104.34 -0.508765 4.18318 0
M  V30 21849 H 2103.06 -1.08309 3.08118 0
M  V30 21850 H 2101.72 1.00245 3.52628 0
M  V30 21851 H 2101.37 -1.04377 4.92051 0
M  V30 21852 H 2101.07 0.440127 5.85949 0
M  V30 21853 H 2102.59 -0.463776 6.08836 0
M  V30 21854 H 2104 1.72143 5.46845 0
M  V30 21855 H 2102.4 2.5124 5.44976 0
M  V30 21856 H 2103.47 2.67346 4.04542 0
M  V30 21857 N 2104.81 -1.39054 0.741747 0
M  V30 21858 C 2106.06 -2.00671 0.293089 0
M  V30 21859 C 2106.39 -1.58733 -1.11882 0
M  V30 21860 O 2105.67 -0.819335 -1.76401 0
M  V30 21861 C 2105.95 -3.57843 0.402573 0
M  V30 21862 C 2105.8 -4.0978 1.85474 0
M  V30 21863 C 2107.12 -4.39594 -0.211039 0
M  V30 21864 H 2104.24 -0.729048 0.10797 0
M  V30 21865 H 2106.88 -1.65165 0.939169 0
M  V30 21866 H 2105.03 -3.8822 -0.147482 0
M  V30 21867 H 2106.71 -3.90095 2.46219 0
M  V30 21868 H 2104.95 -3.63088 2.3738 0
M  V30 21869 H 2105.62 -5.18906 1.88257 0
M  V30 21870 H 2108.1 -4.153 0.257937 0
M  V30 21871 H 2106.97 -5.48801 -0.104126 0
M  V30 21872 H 2107.23 -4.22618 -1.29792 0
M  V30 21873 N 2106.29 -0.489897 -1.49792 0
M  V30 21874 C 2107.2 0.29927 -2.32683 0
M  V30 21875 C 2108.22 0.978042 -1.43911 0
M  V30 21876 O 2109.39 0.961875 -1.76946 0
M  V30 21877 C 2106.46 1.35623 -3.19073 0
M  V30 21878 C 2105.52 0.692067 -4.23685 0
M  V30 21879 C 2104.75 1.69866 -5.05946 0
M  V30 21880 O 2104.98 2.92732 -4.89555 0
M  V30 21881 O 2103.91 1.2601 -5.88562 0
M  V30 21882 H 2107.74 -0.378894 -3.01327 0
M  V30 21883 H 2105.32 -0.251411 -1.47269 0
M  V30 21884 H 2107.2 1.96801 -3.72622 0
M  V30 21885 H 2105.88 2.01752 -2.53136 0
M  V30 21886 H 2104.79 0.040831 -3.74078 0
M  V30 21887 H 2106.12 0.0734074 -4.92145 0
M  V30 21888 N 2107.77 1.56011 -0.223262 0
M  V30 21889 C 2109.02 1.97956 0.407171 0
M  V30 21890 C 2109.34 1.11219 1.60173 0
M  V30 21891 O 2108.61 0.189604 1.9498 0
M  V30 21892 H 2107.19 0.731075 0.153424 0
M  V30 21893 H 2109.85 1.92312 -0.316554 0
M  V30 21894 H 2108.95 3.03386 0.732342 0
M  V30 21895 N 2109.25 -0.0501116 1.5752 0
M  V30 21896 C 2110.16 -1.07459 2.08542 0
M  V30 21897 C 2111.17 -1.41006 1.01947 0
M  V30 21898 O 2112.35 -1.50749 1.33555 0
M  V30 21899 C 2109.42 -2.36274 2.53723 0
M  V30 21900 C 2108.48 -2.095 3.74711 0
M  V30 21901 C 2107.71 -3.32174 4.17728 0
M  V30 21902 O 2107.93 -4.42091 3.60432 0
M  V30 21903 O 2106.87 -3.1911 5.10346 0
M  V30 21904 H 2110.69 -0.671065 2.96193 0
M  V30 21905 H 2108.28 -0.265709 1.47018 0
M  V30 21906 H 2110.16 -3.12043 2.83208 0
M  V30 21907 H 2108.83 -2.75963 1.69192 0
M  V30 21908 H 2107.74 -1.31366 3.50277 0
M  V30 21909 H 2109.07 -1.74679 4.60161 0
M  V30 21910 N 2110.73 -1.54276 -0.321972 0
M  V30 21911 C 2111.66 -1.86766 -1.40146 0
M  V30 21912 C 2112.64 -0.724601 -1.53895 0
M  V30 21913 O 2113.82 -0.978478 -1.67748 0
M  V30 21914 C 2110.95 -2.09642 -2.76889 0
M  V30 21915 C 2109.91 -3.25485 -2.77927 0
M  V30 21916 C 2109.23 -3.33736 -4.17761 0
M  V30 21917 C 2110.53 -4.63097 -2.41533 0
M  V30 21918 H 2112.23 -2.77174 -1.13204 0
M  V30 21919 H 2109.77 -1.33364 -0.543134 0
M  V30 21920 H 2111.73 -2.30955 -3.52474 0
M  V30 21921 H 2110.45 -1.15985 -3.05311 0
M  V30 21922 H 2109.11 -3.04062 -2.04798 0
M  V30 21923 H 2108.76 -2.37634 -4.43327 0
M  V30 21924 H 2108.46 -4.11594 -4.19362 0
M  V30 21925 H 2109.98 -3.57285 -4.95156 0
M  V30 21926 H 2111.39 -4.84281 -3.06831 0
M  V30 21927 H 2109.79 -5.43516 -2.54382 0
M  V30 21928 H 2110.86 -4.65238 -1.3668 0
M  V30 21929 N 2112.2 0.584116 -1.46376 0
M  V30 21930 C 2113.13 1.70354 -1.59693 0
M  V30 21931 C 2114.12 1.64113 -0.447325 0
M  V30 21932 O 2115.3 1.82151 -0.673394 0
M  V30 21933 C 2112.43 3.08993 -1.58558 0
M  V30 21934 C 2111.38 3.30064 -2.72473 0
M  V30 21935 C 2110.71 4.69216 -2.56399 0
M  V30 21936 C 2112.01 3.18035 -4.14308 0
M  V30 21937 H 2113.7 1.59465 -2.53399 0
M  V30 21938 H 2111.25 0.765749 -1.21952 0
M  V30 21939 H 2113.2 3.87126 -1.66468 0
M  V30 21940 H 2111.93 3.20778 -0.613949 0
M  V30 21941 H 2110.59 2.5433 -2.64029 0
M  V30 21942 H 2110.23 4.77764 -1.57323 0
M  V30 21943 H 2109.93 4.84267 -3.32805 0
M  V30 21944 H 2111.46 5.49519 -2.66198 0
M  V30 21945 H 2112.87 3.86014 -4.2387 0
M  V30 21946 H 2111.27 3.44608 -4.91289 0
M  V30 21947 H 2112.34 2.15135 -4.34563 0
M  V30 21948 N 2113.68 1.34058 0.828631 0
M  V30 21949 C 2114.93 1.2628 1.58686 0
M  V30 21950 C 2115.26 -0.168425 1.93468 0
M  V30 21951 O 2114.54 -1.11237 1.59551 0
M  V30 21952 C 2114.82 2.14808 2.89015 0
M  V30 21953 C 2114.67 3.66439 2.60849 0
M  V30 21954 C 2115.99 2.02902 3.90536 0
M  V30 21955 H 2113.11 0.460068 0.575766 0
M  V30 21956 H 2115.75 1.64256 0.954988 0
M  V30 21957 H 2113.9 1.82551 3.42939 0
M  V30 21958 H 2115.58 4.09036 2.13278 0
M  V30 21959 H 2113.82 3.87811 1.94384 0
M  V30 21960 H 2114.49 4.23742 3.53761 0
M  V30 21961 H 2116.97 2.31212 3.45948 0
M  V30 21962 H 2115.84 2.6708 4.79541 0
M  V30 21963 H 2116.1 1.00429 4.30542 0
M  V30 21964 N 2115.16 -1.04814 1.17694 0
M  V30 21965 C 2116.09 -2.12661 0.854872 0
M  V30 21966 C 2117.11 -1.62159 -0.144345 0
M  V30 21967 O 2118.3 -1.78309 0.0824726 0
M  V30 21968 C 2115.4 -3.37942 0.254679 0
M  V30 21969 C 2114.57 -4.17706 1.2977 0
M  V30 21970 C 2113.63 -5.21326 0.714573 0
M  V30 21971 O 2112.65 -5.52033 1.38736 0
M  V30 21972 N 2113.86 -5.78415 -0.491561 0
M  V30 21973 H 2116.62 -2.40885 1.7831 0
M  V30 21974 H 2114.18 -1.20943 1.0763 0
M  V30 21975 H 2116.17 -4.04426 -0.148817 0
M  V30 21976 H 2114.74 -3.07221 -0.577415 0
M  V30 21977 H 2113.96 -3.46655 1.8768 0
M  V30 21978 H 2115.25 -4.67796 2.00112 0
M  V30 21979 H 2114.65 -5.55756 -1.05604 0
M  V30 21980 H 2113.21 -6.46403 -0.837072 0
M  V30 21981 N 2116.64 -0.977779 -1.23601 0
M  V30 21982 C 2117.92 -0.561714 -1.87361 0
M  V30 21983 C 2118.3 0.961166 -1.87949 0
M  V30 21984 O 2117.64 1.83678 -1.35922 0
M  V30 21985 C 2117.85 -1.16478 -3.28989 0
M  V30 21986 C 2119.2 -1.2559 -4.05601 0
M  V30 21987 O 2120.23 -1.11804 -3.38199 0
M  V30 21988 O 2119.09 -1.47493 -5.2622 0
M  V30 21989 H 2116.18 -0.18876 -0.80517 0
M  V30 21990 H 2118.73 -1.07269 -1.31497 0
M  V30 21991 H 2117.5 -2.20711 -3.23114 0
M  V30 21992 H 2117.12 -0.638457 -3.9244 0
M  V30 21993 N 2118.12 1.38658 -0.749111 0
M  V30 21994 C 2119.05 2.33116 -0.133797 0
M  V30 21995 C 2120.03 1.54639 0.708583 0
M  V30 21996 O 2121.21 1.82975 0.650684 0
M  V30 21997 C 2118.34 3.38802 0.763563 0
M  V30 21998 C 2117.3 4.27993 0.0242578 0
M  V30 21999 C 2116.62 5.24497 1.03957 0
M  V30 22000 C 2117.92 5.09673 -1.14151 0
M  V30 22001 H 2119.62 2.84823 -0.922842 0
M  V30 22002 H 2117.16 1.36944 -0.445221 0
M  V30 22003 H 2119.12 4.03844 1.20366 0
M  V30 22004 H 2117.84 2.85568 1.58488 0
M  V30 22005 H 2116.5 3.64451 -0.39637 0
M  V30 22006 H 2116.15 4.67552 1.85483 0
M  V30 22007 H 2115.85 5.85024 0.549587 0
M  V30 22008 H 2117.37 5.92415 1.47908 0
M  V30 22009 H 2118.79 5.6798 -0.779174 0
M  V30 22010 H 2117.18 5.79413 -1.56206 0
M  V30 22011 H 2118.25 4.43675 -1.95654 0
M  V30 22012 N 2119.6 0.497834 1.49531 0
M  V30 22013 C 2121.01 0.153598 1.58859 0
M  V30 22014 C 2121.21 -1.34166 1.50339 0
M  V30 22015 O 2120.27 -2.11733 1.37569 0
M  V30 22016 C 2121.58 0.727583 2.91765 0
M  V30 22017 C 2123.13 0.693405 3.05223 0
M  V30 22018 C 2123.6 1.2454 4.40742 0
M  V30 22019 N 2125.09 1.20596 4.47226 0
M  V30 22020 C 2125.83 1.60329 5.50529 0
M  V30 22021 N 2125.33 2.07639 6.60952 0
M  V30 22022 N 2127.12 1.51765 5.41224 0
M  V30 22023 H 2119.27 1.47001 1.53312 0
M  V30 22024 H 2121.53 0.609549 0.726054 0
M  V30 22025 H 2121.24 1.77611 3.03558 0
M  V30 22026 H 2121.11 0.186218 3.7674 0
M  V30 22027 H 2123.5 -0.346272 2.93061 0
M  V30 22028 H 2123.58 1.27188 2.21939 0
M  V30 22029 H 2123.22 2.28384 4.53655 0
M  V30 22030 H 2123.15 0.642891 5.22661 0
M  V30 22031 H 2125.65 0.859277 3.68001 0
M  V30 22032 H 2125.96 2.36035 7.35872 0
M  V30 22033 H 2124.3 2.11611 6.62001 0
M  V30 22034 H 2127.49 1.14625 4.53849 0
M  V30 22035 H 2127.67 1.83053 6.21607 0
M  V30 22036 N 2121.07 -1.5589 0.231532 0
M  V30 22037 C 2122 -2.23713 -0.66894 0
M  V30 22038 C 2122.98 -1.21219 -1.19332 0
M  V30 22039 O 2124.17 -1.49831 -1.23549 0
M  V30 22040 C 2121.3 -2.92476 -1.87284 0
M  V30 22041 C 2120.25 -4.01527 -1.48189 0
M  V30 22042 C 2119.58 -4.57637 -2.76537 0
M  V30 22043 C 2120.88 -5.18057 -0.664415 0
M  V30 22044 H 2122.57 -2.99221 -0.103437 0
M  V30 22045 H 2120.12 -1.43919 -0.0483103 0
M  V30 22046 H 2122.07 -3.38617 -2.50831 0
M  V30 22047 H 2120.8 -2.14431 -2.46347 0
M  V30 22048 H 2119.46 -3.56131 -0.869833 0
M  V30 22049 H 2119.1 -3.7631 -3.33766 0
M  V30 22050 H 2118.8 -5.31242 -2.51108 0
M  V30 22051 H 2120.33 -5.06503 -3.41009 0
M  V30 22052 H 2121.74 -5.60519 -1.20382 0
M  V30 22053 H 2120.14 -5.97956 -0.506811 0
M  V30 22054 H 2121.21 -4.83798 0.326792 0
M  V30 22055 N 2122.55 0.0417572 -1.57545 0
M  V30 22056 C 2123.5 1.0648 -2.06796 0
M  V30 22057 C 2124.49 1.38234 -0.979162 0
M  V30 22058 O 2125.7 1.37288 -1.16413 0
M  V30 22059 H 2122.07 0.360857 -0.659762 0
M  V30 22060 H 2124.05 0.6235 -2.91813 0
M  V30 22061 C 2122.79 2.36114 -2.55236 0
M  V30 22062 H 2122.12 2.12537 -3.38627 0
M  V30 22063 H 2123.56 3.06072 -2.93421 0
M  V30 22064 C 2122.02 3.04191 -1.44808 0
M  V30 22065 O 2122.55 3.93508 -0.807098 0
M  V30 22066 N 2120.75 2.65308 -1.18574 0
M  V30 22067 H 2120.3 1.92763 -1.70881 0
M  V30 22068 H 2120.26 3.11178 -0.448987 0
M  V30 22069 N 2124.03 1.54445 0.313786 0
M  V30 22070 C 2124.98 1.8451 1.38654 0
M  V30 22071 C 2125.95 0.692957 1.50955 0
M  V30 22072 O 2127.13 0.940344 1.66019 0
M  V30 22073 C 2124.27 2.08672 2.74863 0
M  V30 22074 C 2123.38 3.36334 2.71115 0
M  V30 22075 C 2122.52 3.50406 3.99235 0
M  V30 22076 C 2121.56 4.71907 3.89833 0
M  V30 22077 N 2120.7 4.82853 5.09703 0
M  V30 22078 H 2125.54 2.76024 1.12315 0
M  V30 22079 H 2123.07 1.36691 0.543496 0
M  V30 22080 H 2125.03 2.20675 3.5406 0
M  V30 22081 H 2123.66 1.20438 2.9949 0
M  V30 22082 H 2122.71 3.33019 1.83855 0
M  V30 22083 H 2124.02 4.25645 2.60054 0
M  V30 22084 H 2123.18 3.62004 4.86865 0
M  V30 22085 H 2121.92 2.59206 4.13115 0
M  V30 22086 H 2120.92 4.60356 3.00587 0
M  V30 22087 H 2122.15 5.64502 3.7751 0
M  V30 22088 H 2120.09 3.94572 5.2407 0
M  V30 22089 H 2120.01 5.66145 5.01015 0
M  V30 22090 H 2121.28 4.98794 5.9902 0
M  V30 22091 N 2125.51 -0.576345 1.46683 0
M  V30 22092 C 2126.44 -1.69505 1.60594 0
M  V30 22093 C 2127.42 -1.63873 0.456022 0
M  V30 22094 O 2128.6 -1.81791 0.683045 0
M  V30 22095 C 2125.73 -3.08148 1.60194 0
M  V30 22096 C 2124.69 -3.28615 2.7422 0
M  V30 22097 C 2124.01 -4.6785 2.58884 0
M  V30 22098 C 2125.31 -3.15834 4.15989 0
M  V30 22099 H 2127.01 -1.58119 2.54241 0
M  V30 22100 H 2124.55 -0.759271 1.22356 0
M  V30 22101 H 2126.51 -3.86237 1.68519 0
M  V30 22102 H 2125.23 -3.20447 0.630952 0
M  V30 22103 H 2123.89 -2.52927 2.65375 0
M  V30 22104 H 2123.54 -4.76923 1.59854 0
M  V30 22105 H 2123.24 -4.82495 3.35368 0
M  V30 22106 H 2124.76 -5.48099 2.69109 0
M  V30 22107 H 2126.18 -3.83761 4.25911 0
M  V30 22108 H 2124.57 -3.41998 4.9311 0
M  V30 22109 H 2125.64 -2.12828 4.35698 0
M  V30 22110 N 2126.99 -1.34495 -0.82151 0
M  V30 22111 C 2127.92 -1.28835 -1.94741 0
M  V30 22112 C 2128.9 -0.165528 -1.69293 0
M  V30 22113 O 2130.08 -0.358115 -1.9087 0
M  V30 22114 C 2127.21 -1.04446 -3.31222 0
M  V30 22115 C 2126.17 -2.13209 -3.71114 0
M  V30 22116 C 2125.49 -1.74007 -5.05594 0
M  V30 22117 C 2126.79 -3.55051 -3.83062 0
M  V30 22118 H 2128.49 -2.23039 -1.99734 0
M  V30 22119 H 2126.03 -1.07369 -0.959573 0
M  V30 22120 H 2127.98 -0.991306 -4.09574 0
M  V30 22121 H 2126.71 -0.0668391 -3.26532 0
M  V30 22122 H 2125.37 -2.17597 -2.95038 0
M  V30 22123 H 2125.02 -0.749021 -4.97392 0
M  V30 22124 H 2124.72 -2.46803 -5.33256 0
M  V30 22125 H 2126.24 -1.7019 -5.86402 0
M  V30 22126 H 2127.65 -3.53068 -4.51681 0
M  V30 22127 H 2126.05 -4.2648 -4.22179 0
M  V30 22128 H 2127.12 -3.92289 -2.85021 0
M  V30 22129 N 2128.46 1.04188 -1.18248 0
M  V30 22130 C 2129.41 2.10485 -0.876358 0
M  V30 22131 C 2130.4 1.60167 0.153389 0
M  V30 22132 O 2131.59 1.76928 -0.0504786 0
M  V30 22133 C 2128.72 3.40932 -0.402528 0
M  V30 22134 C 2127.81 3.9802 -1.46428 0
M  V30 22135 N 2128.2 4.28938 -2.68041 0
M  V30 22136 C 2126.49 4.25879 -1.32451 0
M  V30 22137 C 2127.2 4.74605 -3.3634 0
M  V30 22138 N 2126.17 4.75344 -2.63722 0
M  V30 22139 H 2129.97 2.32265 -1.80084 0
M  V30 22140 H 2127.49 1.2193 -1.0727 0
M  V30 22141 H 2129.48 4.16574 -0.164728 0
M  V30 22142 H 2128.14 3.2058 0.51563 0
M  V30 22143 H 2129.16 4.18623 -3.04918 0
M  V30 22144 H 2125.83 4.1486 -0.468792 0
M  V30 22145 H 2127.22 5.07557 -4.40267 0
M  V30 22146 N 2129.94 0.98432 1.23081 0
M  V30 22147 C 2131.19 0.665987 1.92188 0
M  V30 22148 C 2131.54 -0.79229 1.7533 0
M  V30 22149 O 2130.84 -1.56452 1.10604 0
M  V30 22150 C 2131.03 0.996551 3.43225 0
M  V30 22151 C 2130.86 2.48541 3.74776 0
M  V30 22152 C 2129.63 3.14805 3.95254 0
M  V30 22153 C 2131.83 3.46626 3.7994 0
M  V30 22154 N 2129.81 4.53256 4.14044 0
M  V30 22155 C 2131.18 4.70501 4.03769 0
M  V30 22156 C 2133.24 3.41053 3.6275 0
M  V30 22157 C 2131.94 5.89483 4.12192 0
M  V30 22158 C 2133.96 4.59404 3.72428 0
M  V30 22159 C 2133.33 5.82075 3.96697 0
M  V30 22160 H 2129.43 0.294831 0.724292 0
M  V30 22161 H 2132.01 1.26258 1.48213 0
M  V30 22162 H 2130.18 0.428615 3.86028 0
M  V30 22163 H 2131.91 0.635087 3.99686 0
M  V30 22164 H 2128.67 2.65292 3.92323 0
M  V30 22165 H 2129.09 5.25045 4.27384 0
M  V30 22166 H 2133.73 2.47235 3.42979 0
M  V30 22167 H 2131.45 6.83713 4.30769 0
M  V30 22168 H 2135.04 4.56671 3.60476 0
M  V30 22169 H 2133.92 6.72124 4.04004 0
M  V30 22170 N 2131.42 -1.38259 0.756453 0
M  V30 22171 C 2132.65 -2.04861 0.323535 0
M  V30 22172 C 2133.07 -1.56679 -1.04083 0
M  V30 22173 O 2132.43 -0.72007 -1.66387 0
M  V30 22174 C 2132.48 -3.58812 0.358692 0
M  V30 22175 O 2131.58 -4.07304 -0.646296 0
M  V30 22176 H 2130.92 -0.64848 0.142723 0
M  V30 22177 H 2133.45 -1.76877 1.02838 0
M  V30 22178 H 2133.46 -4.07456 0.210579 0
M  V30 22179 H 2132.14 -3.93238 1.35413 0
M  V30 22180 H 2130.71 -3.7002 -0.462561 0
M  V30 22181 N 2132.9 -0.505757 -1.49264 0
M  V30 22182 C 2134.18 0.100315 -1.95343 0
M  V30 22183 C 2134.56 1.53667 -1.44739 0
M  V30 22184 O 2133.9 2.18663 -0.663221 0
M  V30 22185 C 2134.11 0.00805543 -3.48999 0
M  V30 22186 C 2135.46 0.179587 -4.2422 0
M  V30 22187 O 2136.49 0.0830161 -3.56103 0
M  V30 22188 O 2135.34 0.378466 -5.45188 0
M  V30 22189 H 2132.44 0.0926837 -0.82179 0
M  V30 22190 H 2134.98 -0.568634 -1.59889 0
M  V30 22191 H 2133.76 -0.993441 -3.78479 0
M  V30 22192 H 2133.38 0.716938 -3.91083 0
M  V30 22193 N 2134.38 1.55765 -0.239796 0
M  V30 22194 C 2135.31 2.18397 0.695377 0
M  V30 22195 C 2136.32 1.15822 1.14407 0
M  V30 22196 O 2137.51 1.4272 1.07207 0
M  V30 22197 C 2134.61 2.76755 1.95601 0
M  V30 22198 C 2133.78 4.0468 1.65992 0
M  V30 22199 C 2132.84 4.47425 2.76943 0
M  V30 22200 O 2131.87 5.13949 2.44632 0
M  V30 22201 N 2133.07 4.14619 4.0629 0
M  V30 22202 H 2135.84 2.99275 0.15952 0
M  V30 22203 H 2133.4 1.61791 -0.0594819 0
M  V30 22204 H 2135.39 3.02313 2.69052 0
M  V30 22205 H 2133.96 2.00075 2.40185 0
M  V30 22206 H 2133.18 3.86786 0.760934 0
M  V30 22207 H 2134.47 4.88096 1.43664 0
M  V30 22208 H 2133.86 3.61198 4.35376 0
M  V30 22209 H 2132.42 4.45028 4.76228 0
M  V30 22210 N 2135.85 -0.0334016 1.57565 0
M  V30 22211 C 2137.08 -0.736973 1.9333 0
M  V30 22212 C 2137.5 -1.69124 0.83919 0
M  V30 22213 O 2136.85 -1.81563 -0.184737 0
M  V30 22214 C 2136.91 -1.49777 3.29012 0
M  V30 22215 O 2136.63 -0.581806 4.3422 0
M  V30 22216 C 2138.13 -2.29889 3.79033 0
M  V30 22217 H 2135.35 -0.207374 0.638151 0
M  V30 22218 H 2137.89 0.0077802 2.04499 0
M  V30 22219 H 2136.05 -2.19444 3.19254 0
M  V30 22220 H 2136.46 -1.11488 5.12514 0
M  V30 22221 H 2137.93 -2.78671 4.76494 0
M  V30 22222 H 2138.41 -3.11119 3.10003 0
M  V30 22223 H 2139.02 -1.65304 3.9186 0
M  V30 22224 N 2137.33 -1.54609 -0.305591 0
M  V30 22225 C 2138.58 -1.72882 -1.03898 0
M  V30 22226 C 2138.89 -0.519195 -1.88583 0
M  V30 22227 O 2140.1 -0.583633 -2.65153 0
M  V30 22228 C 2138.56 -3.05853 -1.89689 0
M  V30 22229 C 2138.16 -4.34278 -1.10029 0
M  V30 22230 C 2139.91 -3.33485 -2.62656 0
M  V30 22231 C 2137.82 -5.58302 -1.9507 0
M  V30 22232 H 2136.75 -0.64432 -0.391621 0
M  V30 22233 H 2139.4 -1.81093 -0.296223 0
M  V30 22234 H 2137.78 -2.91594 -2.67935 0
M  V30 22235 H 2138.95 -4.59358 -0.364293 0
M  V30 22236 H 2137.27 -4.13546 -0.486653 0
M  V30 22237 H 2139.86 -4.23345 -3.26624 0
M  V30 22238 H 2140.21 -2.52157 -3.31244 0
M  V30 22239 H 2140.74 -3.48694 -1.91462 0
M  V30 22240 H 2137.48 -6.42285 -1.3096 0
M  V30 22241 H 2137 -5.37415 -2.66355 0
M  V30 22242 H 2138.68 -5.95386 -2.53228 0
M  V30 22243 N 2138.81 0.568558 -1.46987 0
M  V30 22244 C 2140.05 1.33712 -1.54598 0
M  V30 22245 C 2140.41 1.90968 -0.198773 0
M  V30 22246 O 2141.62 2.68383 -0.14968 0
M  V30 22247 C 2139.89 2.42591 -2.62458 0
M  V30 22248 S 2141.45 3.29686 -2.89573 0
M  V30 22249 H 2138.26 0.455359 -0.546048 0
M  V30 22250 H 2140.87 0.65212 -1.84303 0
M  V30 22251 H 2139.57 1.98943 -3.58956 0
M  V30 22252 H 2139.1 3.15846 -2.34531 0
M  V30 22253 H 2141.12 4.41785 -2.25922 0
M  V30 22254 N 2140.29 1.34929 0.814366 0
M  V30 22255 C 2141.52 1.30673 1.60025 0
M  V30 22256 C 2141.93 -0.119552 1.88822 0
M  V30 22257 O 2141.27 -1.07963 1.48626 0
M  V30 22258 C 2141.33 2.0381 2.96145 0
M  V30 22259 C 2141 3.53033 2.90201 0
M  V30 22260 C 2141.99 4.47776 2.64183 0
M  V30 22261 C 2139.68 3.9557 3.09564 0
M  V30 22262 C 2141.67 5.83031 2.57592 0
M  V30 22263 C 2139.36 5.30923 3.02596 0
M  V30 22264 C 2140.36 6.24465 2.76645 0
M  V30 22265 O 2140.04 7.57336 2.69626 0
M  V30 22266 H 2139.78 0.450688 0.503842 0
M  V30 22267 H 2142.33 1.78247 1.02064 0
M  V30 22268 H 2140.56 1.50862 3.56058 0
M  V30 22269 H 2142.25 1.92733 3.57224 0
M  V30 22270 H 2143.02 4.16231 2.48951 0
M  V30 22271 H 2138.89 3.23151 3.28777 0
M  V30 22272 H 2142.44 6.56015 2.37256 0
M  V30 22273 H 2138.34 5.62083 3.17384 0
M  V30 22274 H 2139.1 7.67171 2.8529 0
M  V30 22275 N 2141.77 -1.0356 1.18799 0
M  V30 22276 C 2142.71 -2.11687 0.919622 0
M  V30 22277 C 2143.68 -1.65484 -0.142958 0
M  V30 22278 O 2144.87 -1.908 -0.00223972 0
M  V30 22279 C 2142.01 -3.4206 0.457036 0
M  V30 22280 C 2141.12 -4.01848 1.58562 0
M  V30 22281 C 2140.26 -5.20204 1.07524 0
M  V30 22282 C 2139.3 -5.72033 2.17817 0
M  V30 22283 N 2138.43 -6.8167 1.68136 0
M  V30 22284 H 2143.27 -2.33981 1.84546 0
M  V30 22285 H 2140.81 -1.14766 0.920172 0
M  V30 22286 H 2142.77 -4.16852 0.170279 0
M  V30 22287 H 2141.4 -3.19899 -0.431815 0
M  V30 22288 H 2140.45 -3.24335 1.98774 0
M  V30 22289 H 2141.76 -4.36338 2.41684 0
M  V30 22290 H 2140.92 -6.02129 0.743314 0
M  V30 22291 H 2139.65 -4.87232 0.213672 0
M  V30 22292 H 2138.66 -4.88725 2.51849 0
M  V30 22293 H 2139.88 -6.07047 3.04418 0
M  V30 22294 H 2137.83 -6.50564 0.842764 0
M  V30 22295 H 2137.75 -7.15251 2.44852 0
M  V30 22296 H 2139.02 -7.67208 1.37886 0
M  V30 22297 N 2143.25 -0.990834 -1.22557 0
M  V30 22298 C 2144.52 -0.581554 -1.86755 0
M  V30 22299 C 2144.9 0.941178 -1.88958 0
M  V30 22300 O 2144.25 1.82226 -1.37862 0
M  V30 22301 C 2144.46 -1.19961 -3.27735 0
M  V30 22302 C 2145.81 -1.29885 -4.04246 0
M  V30 22303 O 2146.83 -1.15385 -3.36994 0
M  V30 22304 O 2145.69 -1.53066 -5.24626 0
M  V30 22305 H 2142.79 -0.197289 -0.803123 0
M  V30 22306 H 2145.33 -1.08658 -1.30351 0
M  V30 22307 H 2144.1 -2.24125 -3.20755 0
M  V30 22308 H 2143.73 -0.680045 -3.91741 0
M  V30 22309 N 2144.72 1.37856 -0.763775 0
M  V30 22310 C 2145.95 2.04686 -0.334395 0
M  V30 22311 C 2146.37 1.57229 1.0325 0
M  V30 22312 O 2145.73 0.728884 1.66003 0
M  V30 22313 C 2145.78 3.58616 -0.377715 0
M  V30 22314 O 2144.88 4.07641 0.624687 0
M  V30 22315 H 2144.22 0.647714 -0.146161 0
M  V30 22316 H 2146.75 1.76329 -1.03774 0
M  V30 22317 H 2146.76 4.07339 -0.232185 0
M  V30 22318 H 2145.44 3.92514 -1.37496 0
M  V30 22319 H 2144.02 3.7026 0.442931 0
M  V30 22320 N 2146.2 0.513665 1.48994 0
M  V30 22321 C 2147.45 -0.0263732 2.02783 0
M  V30 22322 C 2147.78 -1.35469 1.39147 0
M  V30 22323 O 2147.06 -1.87097 0.531511 0
M  V30 22324 C 2147.34 -0.165605 3.59719 0
M  V30 22325 C 2147.19 1.18673 4.33863 0
M  V30 22326 C 2148.51 -0.900228 4.30794 0
M  V30 22327 H 2145.63 -0.00811043 0.736955 0
M  V30 22328 H 2148.27 0.667534 1.77888 0
M  V30 22329 H 2146.42 -0.756613 3.81061 0
M  V30 22330 H 2148.09 1.81759 4.23983 0
M  V30 22331 H 2146.34 1.77281 3.95922 0
M  V30 22332 H 2147.01 1.04247 5.42067 0
M  V30 22333 H 2149.48 -0.398863 4.14184 0
M  V30 22334 H 2148.36 -0.966514 5.40324 0
M  V30 22335 H 2148.62 -1.94685 3.96926 0
M  V30 22336 N 2147.68 -1.55636 0.248053 0
M  V30 22337 C 2148.93 -1.98972 -0.37637 0
M  V30 22338 C 2149.25 -1.1362 -1.57863 0
M  V30 22339 O 2148.51 -0.187287 -1.94802 0
M  V30 22340 C 2148.81 -3.47664 -0.828526 0
M  V30 22341 C 2148.47 -4.50114 0.266108 0
M  V30 22342 C 2147.14 -4.77851 0.566745 0
M  V30 22343 C 2149.49 -5.11418 1.00506 0
M  V30 22344 C 2146.82 -5.64166 1.61039 0
M  V30 22345 C 2149.17 -5.98865 2.03823 0
M  V30 22346 C 2147.83 -6.24934 2.3455 0
M  V30 22347 H 2147.1 -0.728089 -0.137723 0
M  V30 22348 H 2149.75 -1.8816 0.356118 0
M  V30 22349 H 2148.05 -3.55814 -1.64024 0
M  V30 22350 H 2149.75 -3.78583 -1.32196 0
M  V30 22351 H 2146.34 -4.28595 0.0216504 0
M  V30 22352 H 2150.53 -4.90036 0.786048 0
M  V30 22353 H 2145.78 -5.82619 1.85378 0
M  V30 22354 H 2149.96 -6.45409 2.61573 0
M  V30 22355 H 2147.58 -6.91612 3.15558 0
M  V30 22356 N 2149.16 0.0250451 -1.5758 0
M  V30 22357 C 2150.39 0.725656 -1.93437 0
M  V30 22358 C 2150.8 1.69204 -0.846562 0
M  V30 22359 O 2150.14 1.82762 0.185397 0
M  V30 22360 C 2150.2 1.53415 -3.25121 0
M  V30 22361 C 2149.86 0.732109 -4.51098 0
M  V30 22362 C 2150.86 0.0306335 -5.19891 0
M  V30 22363 C 2148.55 0.685464 -4.97601 0
M  V30 22364 C 2150.54 -0.706745 -6.3347 0
M  V30 22365 C 2148.23 -0.0556568 -6.11075 0
M  V30 22366 C 2149.23 -0.750517 -6.78864 0
M  V30 22367 O 2148.91 -1.4796 -7.90167 0
M  V30 22368 H 2148.65 0.208724 -0.64297 0
M  V30 22369 H 2151.2 -0.0145992 -2.05395 0
M  V30 22370 H 2149.43 2.31832 -3.09501 0
M  V30 22371 H 2151.12 2.11775 -3.46275 0
M  V30 22372 H 2151.88 0.0576759 -4.84966 0
M  V30 22373 H 2147.76 1.21582 -4.44678 0
M  V30 22374 H 2151.31 -1.24965 -6.86316 0
M  V30 22375 H 2147.2 -0.0846083 -6.45445 0
M  V30 22376 H 2147.97 -1.39369 -8.06547 0
M  V30 22377 N 2150.64 1.54769 0.297388 0
M  V30 22378 C 2151.88 1.74479 1.03367 0
M  V30 22379 C 2152.21 0.531007 1.86799 0
M  V30 22380 O 2151.49 -0.471847 1.8869 0
M  V30 22381 C 2151.77 3.03588 1.93665 0
M  V30 22382 C 2151.63 4.35274 1.13389 0
M  V30 22383 C 2152.94 3.28586 2.92779 0
M  V30 22384 H 2150.06 0.63483 0.37438 0
M  V30 22385 H 2152.71 1.87487 0.308023 0
M  V30 22386 H 2150.86 2.9263 2.55538 0
M  V30 22387 H 2152.53 4.58155 0.537739 0
M  V30 22388 H 2150.77 4.31596 0.436685 0
M  V30 22389 H 2151.44 5.21886 1.7983 0
M  V30 22390 H 2153.92 3.39177 2.41035 0
M  V30 22391 H 2152.79 4.20233 3.53122 0
M  V30 22392 H 2153.05 2.47054 3.66629 0
M  V30 22393 N 2152.11 -0.560755 1.47286 0
M  V30 22394 C 2153.36 -1.32004 1.53957 0
M  V30 22395 C 2153.69 -1.9317 0.199705 0
M  V30 22396 O 2152.97 -1.77676 -0.791288 0
M  V30 22397 C 2153.25 -2.43284 2.6549 0
M  V30 22398 C 2153.1 -1.87009 4.09081 0
M  V30 22399 C 2154.42 -3.45228 2.72957 0
M  V30 22400 H 2151.54 -0.478599 0.560457 0
M  V30 22401 H 2154.18 -0.627854 1.79327 0
M  V30 22402 H 2152.33 -3.02327 2.43989 0
M  V30 22403 H 2154.01 -1.32254 4.41935 0
M  V30 22404 H 2152.25 -1.17705 4.17526 0
M  V30 22405 H 2152.92 -2.67438 4.82888 0
M  V30 22406 H 2155.4 -2.96099 2.92344 0
M  V30 22407 H 2154.27 -4.20522 3.52778 0
M  V30 22408 H 2154.53 -4.03854 1.79874 0
M  V30 22409 N 2153.59 -1.35359 -0.807199 0
M  V30 22410 C 2154.54 -1.2823 -1.919 0
M  V30 22411 C 2155.51 -0.154371 -1.65381 0
M  V30 22412 O 2156.69 -0.337971 -1.87783 0
M  V30 22413 C 2153.83 -1.05957 -3.28431 0
M  V30 22414 C 2152.95 -2.27666 -3.6714 0
M  V30 22415 C 2152.08 -1.98548 -4.92699 0
M  V30 22416 C 2151.12 -3.16315 -5.24034 0
M  V30 22417 N 2150.26 -2.86976 -6.40772 0
M  V30 22418 H 2155.1 -2.23305 -1.97329 0
M  V30 22419 H 2152.63 -1.11004 -0.965216 0
M  V30 22420 H 2154.59 -0.910752 -4.07138 0
M  V30 22421 H 2153.22 -0.145447 -3.22472 0
M  V30 22422 H 2152.27 -2.53414 -2.83699 0
M  V30 22423 H 2153.59 -3.15606 -3.86257 0
M  V30 22424 H 2152.74 -1.80493 -5.7923 0
M  V30 22425 H 2151.48 -1.07893 -4.75616 0
M  V30 22426 H 2150.48 -3.34948 -4.35993 0
M  V30 22427 H 2151.71 -4.07771 -5.43047 0
M  V30 22428 H 2149.66 -1.98914 -6.25115 0
M  V30 22429 H 2149.57 -3.6845 -6.60137 0
M  V30 22430 H 2150.84 -2.72461 -7.30332 0
M  V30 22431 N 2155.07 1.02928 -1.19346 0
M  V30 22432 C 2156.02 2.1331 -0.927441 0
M  V30 22433 C 2157.01 1.68998 0.116575 0
M  V30 22434 O 2158.22 1.7997 -0.0326311 0
M  V30 22435 H 2154.59 0.696916 -0.282511 0
M  V30 22436 H 2156.56 2.32939 -1.865 0
M  V30 22437 C 2155.31 3.4434 -0.482194 0
M  V30 22438 H 2154.64 3.78854 -1.27709 0
M  V30 22439 H 2156.08 4.22673 -0.335159 0
M  V30 22440 C 2154.53 3.27174 0.803669 0
M  V30 22441 O 2155.06 3.55772 1.86519 0
M  V30 22442 N 2153.27 2.80466 0.760745 0
M  V30 22443 H 2152.82 2.57393 -0.103346 0
M  V30 22444 H 2152.78 2.69361 1.62149 0
M  V30 22445 N 2156.55 0.997319 1.2203 0
M  V30 22446 C 2157.77 0.69397 1.95445 0
M  V30 22447 C 2158.2 -0.735638 1.73118 0
M  V30 22448 O 2157.56 -1.50348 1.01317 0
M  V30 22449 C 2157.6 1.01104 3.46136 0
M  V30 22450 O 2156.71 0.1121 4.12248 0
M  V30 22451 H 2156.05 0.259299 0.611277 0
M  V30 22452 H 2158.58 1.33549 1.55003 0
M  V30 22453 H 2158.59 0.954704 3.96673 0
M  V30 22454 H 2157.26 2.05274 3.61712 0
M  V30 22455 H 2155.84 0.224297 3.72225 0
M  V30 22456 N 2158.03 -1.37449 0.771075 0
M  V30 22457 C 2159.25 -2.03979 0.346453 0
M  V30 22458 C 2159.67 -1.58156 -1.03113 0
M  V30 22459 O 2159.03 -0.762511 -1.65807 0
M  V30 22460 C 2159.08 -3.595 0.379748 0
M  V30 22461 O 2158.8 -4.03646 1.70298 0
M  V30 22462 C 2160.3 -4.43264 -0.0565544 0
M  V30 22463 H 2157.52 -0.655084 0.145281 0
M  V30 22464 H 2160.06 -1.75795 1.04481 0
M  V30 22465 H 2158.22 -3.86458 -0.270023 0
M  V30 22466 H 2158.63 -4.98163 1.64115 0
M  V30 22467 H 2160.11 -5.51997 0.0178961 0
M  V30 22468 H 2160.58 -4.25025 -1.10683 0
M  V30 22469 H 2161.19 -4.2153 0.565003 0
M  V30 22470 N 2159.5 -0.52156 -1.4872 0
M  V30 22471 C 2160.47 0.234979 -2.27992 0
M  V30 22472 C 2161.47 0.875433 -1.34881 0
M  V30 22473 O 2162.66 0.736784 -1.57852 0
M  V30 22474 C 2159.79 1.33914 -3.13496 0
M  V30 22475 H 2160.98 -0.460907 -2.96337 0
M  V30 22476 H 2158.54 -0.277206 -1.53822 0
M  V30 22477 H 2159.27 2.06854 -2.49763 0
M  V30 22478 H 2159.06 0.885123 -3.81979 0
M  V30 22479 H 2160.55 1.8715 -3.73316 0
M  V30 22480 N 2160.98 1.55502 -0.256304 0
M  V30 22481 C 2162.23 1.99168 0.365812 0
M  V30 22482 C 2162.56 1.14455 1.57259 0
M  V30 22483 O 2161.81 0.197615 1.947 0
M  V30 22484 C 2162.11 3.48098 0.810077 0
M  V30 22485 C 2161.78 4.49967 -0.289975 0
M  V30 22486 C 2160.44 4.77544 -0.592079 0
M  V30 22487 C 2162.79 5.10877 -1.03217 0
M  V30 22488 C 2160.12 5.63304 -1.64029 0
M  V30 22489 C 2162.47 5.97775 -2.06996 0
M  V30 22490 C 2161.14 6.23681 -2.37861 0
M  V30 22491 H 2160.41 0.728809 0.13386 0
M  V30 22492 H 2163.05 1.87968 -0.366092 0
M  V30 22493 H 2161.36 3.56679 1.62134 0
M  V30 22494 H 2163.05 3.79279 1.30186 0
M  V30 22495 H 2159.64 4.28577 -0.0443795 0
M  V30 22496 H 2163.83 4.89612 -0.812025 0
M  V30 22497 H 2159.08 5.81628 -1.88465 0
M  V30 22498 H 2163.26 6.44013 -2.64992 0
M  V30 22499 H 2160.89 6.89929 -3.19221 0
M  V30 22500 N 2162.46 -0.0166879 1.57591 0
M  V30 22501 C 2163.87 -0.561696 1.7805 0
M  V30 22502 C 2164.22 -1.74907 0.888926 0
M  V30 22503 O 2163.35 -2.16225 0.0869853 0
M  V30 22504 C 2163.94 -1.02576 3.22899 0
M  V30 22505 C 2162.5 -1.51619 3.44512 0
M  V30 22506 C 2161.65 -0.459817 2.73461 0
M  V30 22507 H 2164.6 0.209523 1.57311 0
M  V30 22508 H 2164.62 -1.89257 3.30094 0
M  V30 22509 H 2164.13 -0.16136 3.87764 0
M  V30 22510 H 2162.23 -2.40203 2.84839 0
M  V30 22511 H 2162.35 -1.55516 4.53157 0
M  V30 22512 H 2160.71 -0.917683 2.37594 0
M  V30 22513 H 2161.49 0.395327 3.41016 0
M  V30 22514 N 2163.94 -1.54924 -0.289176 0
M  V30 22515 C 2165.19 -1.74766 -1.02289 0
M  V30 22516 C 2165.51 -0.539873 -1.86857 0
M  V30 22517 O 2164.77 0.477978 -1.89773 0
M  V30 22518 C 2165.07 -2.99629 -1.94826 0
M  V30 22519 C 2164.73 -4.32897 -1.26139 0
M  V30 22520 C 2163.4 -4.69121 -1.0714 0
M  V30 22521 C 2165.75 -5.15461 -0.771309 0
M  V30 22522 C 2163.08 -5.85479 -0.37835 0
M  V30 22523 C 2165.43 -6.32533 -0.0919302 0
M  V30 22524 C 2164.09 -6.67409 0.109915 0
M  V30 22525 H 2163.36 -0.639515 -0.374301 0
M  V30 22526 H 2166.01 -1.89188 -0.296646 0
M  V30 22527 H 2164.31 -2.80038 -2.74018 0
M  V30 22528 H 2166.01 -3.12176 -2.51688 0
M  V30 22529 H 2162.6 -4.04416 -1.41935 0
M  V30 22530 H 2166.78 -4.87965 -0.905767 0
M  V30 22531 H 2162.04 -6.11035 -0.211091 0
M  V30 22532 H 2166.21 -6.95772 0.295654 0
M  V30 22533 H 2163.84 -7.57425 0.648932 0
M  V30 22534 N 2165.42 0.552936 -1.47582 0
M  V30 22535 C 2166.33 1.68696 -1.6303 0
M  V30 22536 C 2167.34 1.66263 -0.513075 0
M  V30 22537 O 2168.52 1.85633 -0.781171 0
M  V30 22538 C 2165.58 3.05197 -1.64486 0
M  V30 22539 C 2164.64 3.18664 -2.87666 0
M  V30 22540 C 2163.88 4.48653 -2.89043 0
M  V30 22541 O 2164.1 5.34372 -1.99506 0
M  V30 22542 O 2163.03 4.66001 -3.80955 0
M  V30 22543 H 2166.86 1.58604 -2.58995 0
M  V30 22544 H 2164.45 0.723431 -1.30717 0
M  V30 22545 H 2166.33 3.86421 -1.68098 0
M  V30 22546 H 2165 3.15662 -0.716893 0
M  V30 22547 H 2163.91 2.36821 -2.89597 0
M  V30 22548 H 2165.24 3.13105 -3.79771 0
M  V30 22549 N 2166.89 1.35785 0.800009 0
M  V30 22550 C 2168.12 1.32556 1.5886 0
M  V30 22551 C 2168.54 -0.0955366 1.88558 0
M  V30 22552 O 2167.89 -1.0494 1.49311 0
M  V30 22553 C 2167.95 2.13669 2.91595 0
M  V30 22554 O 2167.67 3.50238 2.63182 0
M  V30 22555 C 2169.17 2.181 3.85937 0
M  V30 22556 H 2166.39 0.455105 0.493073 0
M  V30 22557 H 2168.93 1.78733 0.993714 0
M  V30 22558 H 2167.09 1.71074 3.47581 0
M  V30 22559 H 2167.5 3.92442 3.47979 0
M  V30 22560 H 2168.97 2.79234 4.76164 0
M  V30 22561 H 2169.45 1.18154 4.23009 0
M  V30 22562 H 2170.06 2.60885 3.35886 0
M  V30 22563 N 2168.37 -1.02294 1.19891 0
M  V30 22564 C 2169.3 -2.12589 0.965816 0
M  V30 22565 C 2170.28 -1.69788 -0.102962 0
M  V30 22566 O 2171.47 -1.94127 0.0532676 0
M  V30 22567 C 2168.6 -3.43532 0.510181 0
M  V30 22568 C 2167.55 -4.00044 1.52147 0
M  V30 22569 C 2166.88 -5.26679 0.922703 0
M  V30 22570 C 2168.18 -4.34165 2.90341 0
M  V30 22571 H 2169.87 -2.32347 1.88826 0
M  V30 22572 H 2167.42 -1.11659 0.9093 0
M  V30 22573 H 2169.37 -4.20071 0.334377 0
M  V30 22574 H 2168.1 -3.23514 -0.447879 0
M  V30 22575 H 2166.75 -3.25606 1.68453 0
M  V30 22576 H 2166.4 -5.02982 -0.0430931 0
M  V30 22577 H 2166.1 -5.65452 1.59806 0
M  V30 22578 H 2167.63 -6.05879 0.757827 0
M  V30 22579 H 2169.04 -5.01617 2.77584 0
M  V30 22580 H 2167.44 -4.84036 3.54724 0
M  V30 22581 H 2168.51 -3.43207 3.42545 0
M  V30 22582 N 2169.85 -1.00378 -1.21499 0
M  V30 22583 C 2171.08 -0.704325 -1.95074 0
M  V30 22584 C 2171.5 0.726447 -1.73506 0
M  V30 22585 O 2170.86 1.49809 -1.02113 0
M  V30 22586 C 2170.91 -1.02938 -3.45595 0
M  V30 22587 O 2170.01 -0.133961 -4.12182 0
M  V30 22588 H 2169.35 -0.262537 -0.609894 0
M  V30 22589 H 2171.88 -1.34369 -1.54292 0
M  V30 22590 H 2171.89 -0.975727 -3.96161 0
M  V30 22591 H 2170.57 -2.0719 -3.60618 0
M  V30 22592 H 2169.14 -0.244034 -3.72101 0
M  V30 22593 N 2171.33 1.37038 -0.778354 0
M  V30 22594 C 2172.29 2.28529 -0.175271 0
M  V30 22595 C 2173.29 1.48328 0.62093 0
M  V30 22596 O 2174.48 1.68459 0.443548 0
M  V30 22597 C 2171.61 3.32349 0.758757 0
M  V30 22598 H 2172.81 2.83372 -0.981858 0
M  V30 22599 H 2170.36 1.46415 -0.547012 0
M  V30 22600 H 2171.09 2.82642 1.5901 0
M  V30 22601 H 2170.88 3.9164 0.189916 0
M  V30 22602 H 2172.37 4.00701 1.17594 0
M  V30 22603 N 2172.81 0.529439 1.48441 0
M  V30 22604 C 2174.05 -0.00285821 2.044 0
M  V30 22605 C 2174.41 -1.31631 1.39776 0
M  V30 22606 O 2175.61 -1.93461 1.86618 0
M  V30 22607 C 2173.88 -0.122915 3.57189 0
M  V30 22608 S 2175.44 -0.605355 4.34604 0
M  V30 22609 H 2172.26 0.0118032 0.710902 0
M  V30 22610 H 2174.86 0.709877 1.82157 0
M  V30 22611 H 2173.57 0.837857 4.01756 0
M  V30 22612 H 2173.1 -0.860045 3.83884 0
M  V30 22613 H 2175.11 -1.86995 4.59616 0
M  V30 22614 N 2174.29 -1.55364 0.264547 0
M  V30 22615 C 2175.7 -1.59347 -0.0898743 0
M  V30 22616 C 2175.9 -1.28177 -1.55476 0
M  V30 22617 O 2174.96 -1.03755 -2.30198 0
M  V30 22618 C 2176.27 -2.99438 0.27523 0
M  V30 22619 C 2177.82 -3.12219 0.220976 0
M  V30 22620 C 2178.29 -4.54559 0.560366 0
M  V30 22621 N 2179.78 -4.60367 0.511522 0
M  V30 22622 C 2180.52 -5.68513 0.747063 0
M  V30 22623 N 2180.02 -6.84848 1.04666 0
M  V30 22624 N 2181.81 -5.58013 0.676574 0
M  V30 22625 H 2173.96 -1.73891 1.21966 0
M  V30 22626 H 2176.22 -0.810337 0.491994 0
M  V30 22627 H 2175.93 -3.27046 1.2936 0
M  V30 22628 H 2175.8 -3.75188 -0.389113 0
M  V30 22629 H 2178.19 -2.84382 -0.788097 0
M  V30 22630 H 2178.27 -2.38705 0.919424 0
M  V30 22631 H 2177.91 -4.8312 1.56708 0
M  V30 22632 H 2177.84 -5.26358 -0.159757 0
M  V30 22633 H 2180.34 -3.7679 0.289407 0
M  V30 22634 H 2180.65 -7.63216 1.21334 0
M  V30 22635 H 2178.99 -6.86489 1.08433 0
M  V30 22636 H 2182.18 -4.66004 0.442433 0
M  V30 22637 H 2182.36 -6.42221 0.863527 0
M  V30 22638 N 2175.76 0.00833021 -1.57598 0
M  V30 22639 C 2176.73 0.9872 -2.0685 0
M  V30 22640 C 2177.73 1.27766 -0.976351 0
M  V30 22641 O 2178.92 1.22423 -1.23929 0
M  V30 22642 C 2176.05 2.31443 -2.50294 0
M  V30 22643 H 2177.24 0.561338 -2.946 0
M  V30 22644 H 2174.79 0.255625 -1.54195 0
M  V30 22645 H 2175.53 2.78735 -1.65763 0
M  V30 22646 H 2175.31 2.11684 -3.30049 0
M  V30 22647 H 2176.8 3.0168 -2.88754 0
M  V30 22648 N 2177.24 1.55075 0.280956 0
M  V30 22649 C 2178.47 1.79062 1.03055 0
M  V30 22650 C 2178.88 0.560149 1.80718 0
M  V30 22651 O 2178.22 -0.480122 1.77315 0
M  V30 22652 C 2178.28 2.95847 2.04242 0
M  V30 22653 C 2177.95 4.33189 1.4559 0
M  V30 22654 C 2178.95 5.12473 0.87563 0
M  V30 22655 C 2176.63 4.79831 1.4855 0
M  V30 22656 C 2178.62 6.36531 0.332759 0
M  V30 22657 C 2176.31 6.03846 0.938764 0
M  V30 22658 C 2177.31 6.82033 0.363385 0
M  V30 22659 O 2177 8.03709 -0.175 0
M  V30 22660 H 2176.73 0.600471 0.3105 0
M  V30 22661 H 2179.28 2.02898 0.319591 0
M  V30 22662 H 2177.51 2.67683 2.79075 0
M  V30 22663 H 2179.2 3.07228 2.65265 0
M  V30 22664 H 2179.97 4.77573 0.84552 0
M  V30 22665 H 2175.85 4.18989 1.92274 0
M  V30 22666 H 2179.39 6.97502 -0.116986 0
M  V30 22667 H 2175.29 6.3823 0.966087 0
M  V30 22668 H 2176.06 8.18475 -0.063602 0
M  V30 22669 N 2178.72 -0.545102 1.47873 0
M  V30 22670 C 2179.65 -1.6606 1.64153 0
M  V30 22671 C 2180.63 -1.62869 0.490679 0
M  V30 22672 O 2181.82 -1.80302 0.721451 0
M  V30 22673 C 2178.95 -3.04681 1.66694 0
M  V30 22674 C 2177.9 -3.22724 2.81128 0
M  V30 22675 C 2177.23 -4.62253 2.68749 0
M  V30 22676 C 2178.53 -3.06939 4.22594 0
M  V30 22677 H 2180.22 -1.52691 2.57538 0
M  V30 22678 H 2177.77 -0.733146 1.23939 0
M  V30 22679 H 2179.72 -3.82576 1.76674 0
M  V30 22680 H 2178.44 -3.19037 0.698781 0
M  V30 22681 H 2177.1 -2.47241 2.7068 0
M  V30 22682 H 2176.75 -4.73425 1.69935 0
M  V30 22683 H 2176.45 -4.75273 3.45527 0
M  V30 22684 H 2177.97 -5.42268 2.80674 0
M  V30 22685 H 2179.39 -3.7464 4.33956 0
M  V30 22686 H 2177.78 -3.31461 5.00253 0
M  V30 22687 H 2178.85 -2.03538 4.40114 0
M  V30 22688 N 2180.2 -1.36208 -0.792797 0
M  V30 22689 C 2181.47 -1.20801 -1.53839 0
M  V30 22690 C 2181.85 0.20722 -2.1008 0
M  V30 22691 O 2181.2 1.21244 -1.9368 0
M  V30 22692 C 2181.41 -2.28726 -2.63601 0
M  V30 22693 C 2182.76 -2.65225 -3.31573 0
M  V30 22694 O 2183.78 -2.27744 -2.73882 0
M  V30 22695 O 2182.64 -3.29724 -4.35826 0
M  V30 22696 H 2179.74 -0.470148 -0.68036 0
M  V30 22697 H 2182.28 -1.47929 -0.83157 0
M  V30 22698 H 2181.06 -3.2359 -2.20013 0
M  V30 22699 H 2180.68 -2.02945 -3.41905 0
M  V30 22700 N 2181.68 1.01656 -1.20431 0
M  V30 22701 C 2182.9 1.79392 -1.04084 0
M  V30 22702 C 2183.33 1.83678 0.405466 0
M  V30 22703 O 2182.68 1.27186 1.29203 0
M  V30 22704 C 2182.73 3.21706 -1.62904 0
M  V30 22705 O 2181.84 4.0319 -0.866689 0
M  V30 22706 H 2181.18 0.553315 -0.367068 0
M  V30 22707 H 2183.71 1.27864 -1.59725 0
M  V30 22708 H 2183.72 3.72418 -1.6664 0
M  V30 22709 H 2182.39 3.17901 -2.68164 0
M  V30 22710 H 2180.97 3.61788 -0.903537 0
M  V30 22711 N 2183.15 1.01021 1.20965 0
M  V30 22712 C 2184.57 0.723934 1.42237 0
M  V30 22713 C 2184.77 -0.698897 1.88991 0
M  V30 22714 O 2183.83 -1.46754 2.05474 0
M  V30 22715 C 2185.14 1.74422 2.44944 0
M  V30 22716 C 2186.69 1.76162 2.5872 0
M  V30 22717 C 2187.16 2.771 3.64664 0
M  V30 22718 N 2188.65 2.758 3.72141 0
M  V30 22719 C 2189.39 3.5056 4.53757 0
M  V30 22720 N 2188.88 4.34977 5.39228 0
M  V30 22721 N 2190.68 3.39187 4.48229 0
M  V30 22722 H 2182.83 1.92886 0.889301 0
M  V30 22723 H 2185.09 0.832854 0.452834 0
M  V30 22724 H 2184.8 2.76323 2.17574 0
M  V30 22725 H 2184.67 1.55112 3.43831 0
M  V30 22726 H 2187.06 0.749493 2.85424 0
M  V30 22727 H 2187.14 1.99544 1.60049 0
M  V30 22728 H 2186.78 3.78473 3.38705 0
M  V30 22729 H 2186.71 2.50982 4.62942 0
M  V30 22730 H 2189.2 2.1456 3.11083 0
M  V30 22731 H 2189.52 4.88805 5.98573 0
M  V30 22732 H 2187.86 4.39057 5.38752 0
M  V30 22733 H 2191.05 2.72665 3.80488 0
M  V30 22734 H 2191.23 3.97705 5.116 0
M  V30 22735 N 2184.63 -1.36623 0.78561 0
M  V30 22736 C 2185.86 -2.036 0.368068 0
M  V30 22737 C 2186.27 -1.5924 -1.01429 0
M  V30 22738 O 2185.63 -0.780055 -1.64989 0
M  V30 22739 C 2185.68 -3.59077 0.417857 0
M  V30 22740 O 2185.4 -4.01817 1.7457 0
M  V30 22741 C 2186.9 -4.43299 -0.00953716 0
M  V30 22742 H 2184.12 -0.653506 0.152221 0
M  V30 22743 H 2186.67 -1.74677 1.0634 0
M  V30 22744 H 2184.82 -3.86722 -0.229019 0
M  V30 22745 H 2185.24 -4.96395 1.69389 0
M  V30 22746 H 2186.71 -5.51947 0.0764418 0
M  V30 22747 H 2187.19 -4.26175 -1.06169 0
M  V30 22748 H 2187.79 -4.20907 0.60968 0
M  V30 22749 N 2186.11 -0.537304 -1.48158 0
M  V30 22750 C 2187.34 -0.0101482 -2.06898 0
M  V30 22751 C 2187.75 1.27458 -1.39283 0
M  V30 22752 O 2187.11 1.76 -0.48274 0
M  V30 22753 C 2187.16 0.209896 -3.6089 0
M  V30 22754 O 2186.88 -1.02394 -4.25966 0
M  V30 22755 C 2188.38 0.776601 -4.36444 0
M  V30 22756 H 2185.6 -0.0368227 -0.669989 0
M  V30 22757 H 2188.15 -0.745039 -1.90445 0
M  V30 22758 H 2186.3 0.894855 -3.76923 0
M  V30 22759 H 2186.72 -0.809231 -5.1822 0
M  V30 22760 H 2188.19 0.879955 -5.44941 0
M  V30 22761 H 2188.67 1.78324 -4.01369 0
M  V30 22762 H 2189.27 0.127975 -4.25107 0
M  V30 22763 N 2187.59 1.55221 -0.272782 0
M  V30 22764 C 2188.52 2.19823 0.648896 0
M  V30 22765 C 2189.53 1.18223 1.11925 0
M  V30 22766 O 2190.72 1.44961 1.04156 0
M  V30 22767 C 2187.82 2.80842 1.89687 0
M  V30 22768 C 2187 4.08109 1.5737 0
M  V30 22769 C 2186.05 4.53199 2.6739 0
M  V30 22770 O 2185.08 5.19023 2.33676 0
M  V30 22771 N 2186.28 4.23144 3.97404 0
M  V30 22772 H 2189.05 2.99546 0.0960037 0
M  V30 22773 H 2186.61 1.61628 -0.0937867 0
M  V30 22774 H 2188.6 3.07952 2.62579 0
M  V30 22775 H 2187.17 2.05125 2.35887 0
M  V30 22776 H 2186.39 3.88313 0.67872 0
M  V30 22777 H 2187.68 4.91034 1.33278 0
M  V30 22778 H 2187.08 3.70352 4.27617 0
M  V30 22779 H 2185.63 4.5503 4.66681 0
M  V30 22780 N 2189.07 2.77022e-05 1.576 0
M  V30 22781 C 2190 -1.01955 2.05275 0
M  V30 22782 C 2191.01 -1.30696 0.970685 0
M  V30 22783 O 2192.2 -1.27672 1.24748 0
M  V30 22784 C 2189.3 -2.35429 2.43775 0
M  V30 22785 C 2188.47 -2.25626 3.74715 0
M  V30 22786 C 2187.53 -3.41789 4.00083 0
M  V30 22787 O 2186.56 -3.19975 4.70749 0
M  V30 22788 N 2187.76 -4.64639 3.47981 0
M  V30 22789 H 2190.53 -0.612973 2.93364 0
M  V30 22790 H 2188.09 -0.187355 1.60812 0
M  V30 22791 H 2190.08 -3.11913 2.57861 0
M  V30 22792 H 2188.65 -2.67828 1.61205 0
M  V30 22793 H 2187.87 -1.34052 3.70707 0
M  V30 22794 H 2189.16 -2.16249 4.60558 0
M  V30 22795 H 2188.55 -4.8526 2.90756 0
M  V30 22796 H 2187.11 -5.3839 3.67396 0
M  V30 22797 N 2190.54 -1.55222 -0.272728 0
M  V30 22798 C 2191.47 -1.9113 -1.34133 0
M  V30 22799 C 2192.46 -0.773195 -1.51511 0
M  V30 22800 O 2193.64 -1.03135 -1.6455 0
M  V30 22801 C 2190.77 -2.18345 -2.70079 0
M  V30 22802 C 2189.72 -3.34162 -2.67431 0
M  V30 22803 C 2189.05 -3.46858 -4.06932 0
M  V30 22804 C 2190.35 -4.70547 -2.26677 0
M  V30 22805 H 2192.04 -2.80635 -1.04328 0
M  V30 22806 H 2189.59 -1.35025 -0.50043 0
M  V30 22807 H 2191.54 -2.42052 -3.44948 0
M  V30 22808 H 2190.27 -1.25639 -3.01467 0
M  V30 22809 H 2188.93 -3.10423 -1.9502 0
M  V30 22810 H 2188.57 -2.51618 -4.35542 0
M  V30 22811 H 2188.27 -4.24727 -4.06055 0
M  V30 22812 H 2189.8 -3.72858 -4.83539 0
M  V30 22813 H 2191.21 -4.93797 -2.91268 0
M  V30 22814 H 2189.61 -5.51334 -2.36961 0
M  V30 22815 H 2190.68 -4.69351 -1.2181 0
M  V30 22816 N 2192.02 0.537252 -1.4816 0
M  V30 22817 C 2193.25 1.31838 -1.59456 0
M  V30 22818 C 2193.67 1.87109 -0.252098 0
M  V30 22819 O 2193.02 1.66033 0.757592 0
M  V30 22820 C 2193.07 2.47434 -2.6355 0
M  V30 22821 O 2192.79 1.94443 -3.92586 0
M  V30 22822 C 2194.3 3.39361 -2.85218 0
M  V30 22823 H 2191.52 0.401186 -0.537858 0
M  V30 22824 H 2194.06 0.648857 -1.93933 0
M  V30 22825 H 2192.21 3.10286 -2.31952 0
M  V30 22826 H 2192.63 2.70056 -4.49633 0
M  V30 22827 H 2194.1 4.16838 -3.6187 0
M  V30 22828 H 2194.58 3.94144 -1.93772 0
M  V30 22829 H 2195.19 2.82308 -3.18091 0
M  V30 22830 N 2193.5 1.36626 0.785562 0
M  V30 22831 C 2194.75 1.30398 1.5388 0
M  V30 22832 C 2195.06 -0.113418 1.95271 0
M  V30 22833 O 2196.27 -0.298094 2.69859 0
M  V30 22834 C 2194.72 2.28807 2.77804 0
M  V30 22835 C 2194.33 3.76004 2.43568 0
M  V30 22836 C 2196.08 2.31564 3.55779 0
M  V30 22837 C 2193.98 4.66179 3.6391 0
M  V30 22838 H 2192.91 0.484576 0.57767 0
M  V30 22839 H 2195.56 1.6201 0.861677 0
M  V30 22840 H 2193.95 1.90194 3.47336 0
M  V30 22841 H 2195.12 4.23375 1.81908 0
M  V30 22842 H 2193.44 3.76059 1.78797 0
M  V30 22843 H 2196.03 2.96144 4.452 0
M  V30 22844 H 2196.38 1.32527 3.94642 0
M  V30 22845 H 2196.91 2.68814 2.9323 0
M  V30 22846 H 2193.65 5.66293 3.3014 0
M  V30 22847 H 2193.17 4.23522 4.24722 0
M  V30 22848 H 2194.85 4.82639 4.30892 0
M  V30 22849 N 2194.98 -1.01016 1.20969 0
M  V30 22850 C 2195.89 -2.13142 0.980194 0
M  V30 22851 C 2196.9 -1.73875 -0.0660359 0
M  V30 22852 O 2198.08 -2.01025 0.122857 0
M  V30 22853 C 2195.15 -3.42434 0.54222 0
M  V30 22854 C 2194.21 -3.95905 1.66006 0
M  V30 22855 C 2193.44 -5.19026 1.24289 0
M  V30 22856 O 2193.66 -5.70285 0.114296 0
M  V30 22857 O 2192.6 -5.65812 2.05281 0
M  V30 22858 H 2196.42 -2.35376 1.91917 0
M  V30 22859 H 2194.01 -1.11524 0.994118 0
M  V30 22860 H 2195.89 -4.20276 0.307514 0
M  V30 22861 H 2194.56 -3.216 -0.368093 0
M  V30 22862 H 2193.47 -3.19312 1.94912 0
M  V30 22863 H 2194.8 -4.21139 2.54761 0
M  V30 22864 N 2196.46 -1.01661 -1.20428 0
M  V30 22865 C 2197.7 -0.706996 -1.90077 0
M  V30 22866 C 2198.04 0.761442 -1.7865 0
M  V30 22867 O 2197.31 1.55321 -1.17072 0
M  V30 22868 C 2197.59 -1.14333 -3.41467 0
M  V30 22869 C 2197.45 -2.67208 -3.61829 0
M  V30 22870 C 2198.77 -0.714606 -4.3426 0
M  V30 22871 H 2195.88 -0.258312 -0.690249 0
M  V30 22872 H 2198.53 -1.26435 -1.41824 0
M  V30 22873 H 2196.68 -0.669123 -3.82694 0
M  V30 22874 H 2198.35 -3.22481 -3.29854 0
M  V30 22875 H 2196.59 -3.0818 -3.05299 0
M  V30 22876 H 2197.26 -2.92792 -4.6795 0
M  V30 22877 H 2199.74 -1.12228 -4.0068 0
M  V30 22878 H 2198.61 -1.04794 -5.38804 0
M  V30 22879 H 2198.88 0.383721 -4.40432 0
M  V30 22880 N 2197.93 1.36205 -0.792844 0
M  V30 22881 C 2198.86 2.32573 -0.207894 0
M  V30 22882 C 2199.85 1.56815 0.659028 0
M  V30 22883 O 2201.03 1.84952 0.592143 0
M  V30 22884 C 2198.16 3.4106 0.655389 0
M  V30 22885 C 2197.11 4.27854 -0.111917 0
M  V30 22886 C 2196.44 5.27539 0.872181 0
M  V30 22887 C 2197.74 5.05784 -1.30308 0
M  V30 22888 H 2199.43 2.81743 -1.01299 0
M  V30 22889 H 2196.98 1.35459 -0.488564 0
M  V30 22890 H 2198.93 4.07469 1.07457 0
M  V30 22891 H 2197.66 2.90466 1.49323 0
M  V30 22892 H 2196.32 3.63005 -0.512116 0
M  V30 22893 H 2195.96 4.73217 1.70514 0
M  V30 22894 H 2195.66 5.86477 0.363188 0
M  V30 22895 H 2197.19 5.96821 1.28986 0
M  V30 22896 H 2198.6 5.65214 -0.959478 0
M  V30 22897 H 2197 5.7415 -1.7456 0
M  V30 22898 H 2198.07 4.37226 -2.0967 0
M  V30 22899 N 2199.41 0.545154 1.47871 0
M  V30 22900 C 2200.66 0.016646 2.02793 0
M  V30 22901 C 2200.99 -1.32487 1.41989 0
M  V30 22902 O 2200.27 -1.85927 0.571078 0
M  V30 22903 C 2200.55 -0.0892662 3.59989 0
M  V30 22904 C 2200.4 1.27849 4.31248 0
M  V30 22905 C 2201.72 -0.808648 4.32607 0
M  V30 22906 H 2198.84 0.00752331 0.736962 0
M  V30 22907 H 2201.48 0.705116 1.76432 0
M  V30 22908 H 2199.63 -0.675614 3.8258 0
M  V30 22909 H 2201.3 1.90711 4.20032 0
M  V30 22910 H 2199.55 1.85639 3.92072 0
M  V30 22911 H 2200.22 1.15722 5.39734 0
M  V30 22912 H 2202.69 -0.310919 4.14937 0
M  V30 22913 H 2201.57 -0.851686 5.42252 0
M  V30 22914 H 2201.83 -1.86222 4.00966 0
M  V30 22915 N 2200.89 -1.55074 0.28101 0
M  V30 22916 C 2202.12 -2.04133 -0.337257 0
M  V30 22917 C 2202.53 -1.15915 -1.49028 0
M  V30 22918 O 2201.89 -0.180491 -1.81605 0
M  V30 22919 C 2201.94 -3.52248 -0.812644 0
M  V30 22920 O 2201.66 -4.37109 0.294464 0
M  V30 22921 C 2203.16 -4.17218 -1.49812 0
M  V30 22922 H 2200.38 -0.666665 -0.0761521 0
M  V30 22923 H 2202.93 -2.00249 0.414822 0
M  V30 22924 H 2201.08 -3.56557 -1.5148 0
M  V30 22925 H 2201.5 -5.24451 -0.0720403 0
M  V30 22926 H 2202.97 -5.22441 -1.78211 0
M  V30 22927 H 2203.45 -3.65745 -2.43161 0
M  V30 22928 H 2204.05 -4.16929 -0.839669 0
M  V30 22929 N 2202.37 -0.00838561 -1.57598 0
M  V30 22930 C 2203.62 0.675698 -1.91212 0
M  V30 22931 C 2203.95 1.72956 -0.883169 0
M  V30 22932 O 2203.22 1.94258 0.0969819 0
M  V30 22933 C 2203.51 1.31117 -3.35381 0
M  V30 22934 C 2203.36 0.268278 -4.48999 0
M  V30 22935 C 2204.68 2.23502 -3.79124 0
M  V30 22936 H 2201.8 0.244167 -0.695379 0
M  V30 22937 H 2204.44 -0.0613989 -1.89901 0
M  V30 22938 H 2202.59 1.93941 -3.36629 0
M  V30 22939 H 2204.26 -0.360925 -4.59886 0
M  V30 22940 H 2202.5 -0.408557 -4.31872 0
M  V30 22941 H 2203.18 0.752122 -5.46852 0
M  V30 22942 H 2205.65 1.70686 -3.7948 0
M  V30 22943 H 2204.53 2.64927 -4.80734 0
M  V30 22944 H 2204.79 3.11761 -3.13461 0
M  V30 22945 N 2203.85 1.55365 0.264492 0
M  V30 22946 C 2205.12 1.67098 1.01674 0
M  V30 22947 C 2205.5 0.543051 2.03996 0
M  V30 22948 O 2204.85 -0.45581 2.23908 0
M  V30 22949 C 2205.06 3.06673 1.66591 0
M  V30 22950 C 2206.41 3.64701 2.17436 0
M  V30 22951 O 2207.43 3.09361 1.76563 0
M  V30 22952 O 2206.29 4.61678 2.92431 0
M  V30 22953 H 2203.39 0.678973 0.472149 0
M  V30 22954 H 2205.93 1.67701 0.259674 0
M  V30 22955 H 2204.71 3.80212 0.924895 0
M  V30 22956 H 2204.33 3.10005 2.48963 0
M  V30 22957 N 2205.33 -0.529387 1.48443 0
M  V30 22958 C 2206.57 -1.28264 1.56181 0
M  V30 22959 C 2206.89 -1.93545 0.237755 0
M  V30 22960 O 2206.16 -1.81355 -0.740747 0
M  V30 22961 H 2204.74 -0.476395 0.575375 0
M  V30 22962 H 2207.41 -0.615988 1.8491 0
M  V30 22963 H 2206.5 -2.06161 2.34316 0
M  V30 22964 N 2206.8 -1.37041 -0.778305 0
M  V30 22965 C 2208.05 -1.32082 -1.5389 0
M  V30 22966 C 2208.38 0.0965045 -1.9396 0
M  V30 22967 O 2207.66 1.05239 -1.6357 0
M  V30 22968 C 2207.94 -2.25387 -2.80843 0
M  V30 22969 C 2207.79 -3.75868 -2.47069 0
M  V30 22970 C 2209.11 -2.17257 -3.82737 0
M  V30 22971 H 2206.23 -0.48112 -0.558294 0
M  V30 22972 H 2208.87 -1.67687 -0.893368 0
M  V30 22973 H 2207.02 -1.95153 -3.35928 0
M  V30 22974 H 2208.7 -4.1667 -1.9795 0
M  V30 22975 H 2206.94 -3.94758 -1.79856 0
M  V30 22976 H 2207.61 -4.36579 -3.3779 0
M  V30 22977 H 2210.09 -2.43893 -3.37128 0
M  V30 22978 H 2208.96 -2.84694 -4.69298 0
M  V30 22979 H 2209.22 -1.16339 -4.26518 0
M  V30 22980 N 2208.28 1.00373 -1.21503 0
M  V30 22981 C 2209.23 2.11295 -0.972479 0
M  V30 22982 C 2210.22 1.69208 0.0807013 0
M  V30 22983 O 2211.43 1.79861 -0.0707982 0
M  V30 22984 H 2207.8 0.690767 -0.29723 0
M  V30 22985 H 2209.78 2.2893 -1.91399 0
M  V30 22986 C 2208.52 3.4324 -0.555125 0
M  V30 22987 H 2207.85 3.7606 -1.35716 0
M  V30 22988 H 2209.29 4.21867 -0.424739 0
M  V30 22989 C 2207.75 3.28805 0.73409 0
M  V30 22990 O 2208.28 3.59648 1.7893 0
M  V30 22991 N 2206.48 2.82016 0.701083 0
M  V30 22992 H 2206.03 2.57115 -0.157919 0
M  V30 22993 H 2205.99 2.7274 1.56398 0
M  V30 22994 N 2209.76 1.02298 1.19887 0
M  V30 22995 C 2211.01 0.716006 1.89419 0
M  V30 22996 C 2211.33 -0.754912 1.79252 0
M  V30 22997 O 2210.59 -1.56478 1.17529 0
M  V30 22998 C 2210.89 1.10524 3.39881 0
M  V30 22999 C 2210.55 2.57344 3.7025 0
M  V30 23000 C 2209.22 2.97458 3.78249 0
M  V30 23001 C 2211.57 3.52361 3.84046 0
M  V30 23002 C 2208.9 4.31516 3.97506 0
M  V30 23003 C 2211.25 4.86115 4.04815 0
M  V30 23004 C 2209.91 5.25926 4.11045 0
M  V30 23005 H 2209.18 0.262005 0.693134 0
M  V30 23006 H 2211.83 1.28474 1.42009 0
M  V30 23007 H 2210.13 0.455021 3.89149 0
M  V30 23008 H 2211.83 0.84533 3.91989 0
M  V30 23009 H 2208.42 2.25264 3.64628 0
M  V30 23010 H 2212.61 3.22525 3.77215 0
M  V30 23011 H 2207.86 4.61905 4.00566 0
M  V30 23012 H 2212.04 5.5966 4.14432 0
M  V30 23013 H 2209.66 6.29815 4.25719 0
M  V30 23014 N 2211.24 -1.35782 0.800057 0
M  V30 23015 C 2212.65 -1.52116 0.483004 0
M  V30 23016 C 2212.85 -1.75111 -0.996917 0
M  V30 23017 O 2211.91 -1.78875 -1.78213 0
M  V30 23018 C 2213.22 -2.70047 1.32269 0
M  V30 23019 C 2214.77 -2.83922 1.31747 0
M  V30 23020 C 2215.25 -4.0487 2.14113 0
M  V30 23021 N 2216.74 -4.12036 2.11615 0
M  V30 23022 C 2217.47 -5.04722 2.72108 0
M  V30 23023 N 2216.97 -6.02783 3.41503 0
M  V30 23024 N 2218.76 -4.97419 2.61785 0
M  V30 23025 H 2210.91 -1.19112 1.75858 0
M  V30 23026 H 2213.17 -0.582239 0.748132 0
M  V30 23027 H 2212.88 -2.59611 2.37265 0
M  V30 23028 H 2212.75 -3.64478 0.971367 0
M  V30 23029 H 2215.14 -2.93812 0.275385 0
M  V30 23030 H 2215.22 -1.90367 1.70862 0
M  V30 23031 H 2214.87 -3.95741 3.18358 0
M  V30 23032 H 2214.8 -4.97593 1.72361 0
M  V30 23033 H 2217.29 -3.41832 1.61118 0
M  V30 23034 H 2217.6 -6.70091 3.84964 0
M  V30 23035 H 2215.95 -6.02977 3.45606 0
M  V30 23036 H 2219.14 -4.19763 2.07164 0
M  V30 23037 H 2219.31 -5.69462 3.0922 0
M  V30 23038 N 2212.72 -0.552988 -1.4758 0
M  V30 23039 C 2213.94 -0.0320919 -2.06875 0
M  V30 23040 C 2214.36 1.25974 -1.40627 0
M  V30 23041 O 2213.72 1.75478 -0.50138 0
M  V30 23042 C 2213.77 0.171607 -3.61092 0
M  V30 23043 O 2213.49 -1.06906 -4.24856 0
M  V30 23044 C 2214.99 0.730267 -4.37244 0
M  V30 23045 H 2212.21 -0.0439268 -0.669561 0
M  V30 23046 H 2214.75 -0.765196 -1.89644 0
M  V30 23047 H 2212.91 0.854827 -3.77851 0
M  V30 23048 H 2213.32 -0.86415 -5.17332 0
M  V30 23049 H 2214.8 0.822107 -5.45844 0
M  V30 23050 H 2215.27 1.74057 -4.03238 0
M  V30 23051 H 2215.88 0.0828795 -4.25219 0
M  V30 23052 N 2214.19 1.54923 -0.28923 0
M  V30 23053 C 2215.44 2.00196 0.323963 0
M  V30 23054 C 2215.77 1.17738 1.54439 0
M  V30 23055 O 2215.05 0.250912 1.92875 0
M  V30 23056 C 2215.33 3.53384 0.692214 0
M  V30 23057 C 2215.18 4.46589 -0.536535 0
M  V30 23058 C 2216.5 4.12898 1.52327 0
M  V30 23059 H 2213.62 0.72777 0.116277 0
M  V30 23060 H 2216.26 1.85764 -0.398987 0
M  V30 23061 H 2214.41 3.65813 1.30816 0
M  V30 23062 H 2216.09 4.46083 -1.17507 0
M  V30 23063 H 2214.33 4.17668 -1.17199 0
M  V30 23064 H 2215 5.515 -0.234903 0
M  V30 23065 H 2217.48 4.03832 1.00295 0
M  V30 23066 H 2216.35 5.20265 1.74973 0
M  V30 23067 H 2216.61 3.64022 2.50879 0
M  V30 23068 N 2215.67 0.0167433 1.57591 0
M  V30 23069 C 2216.92 -0.665548 1.91568 0
M  V30 23070 C 2217.25 -1.72485 0.892329 0
M  V30 23071 O 2216.53 -1.94307 -0.0866785 0
M  V30 23072 C 2216.81 -1.29336 3.36072 0
M  V30 23073 C 2216.66 -0.244462 4.49135 0
M  V30 23074 C 2217.98 -2.21488 3.80304 0
M  V30 23075 H 2215.1 -0.240476 0.696664 0
M  V30 23076 H 2217.74 0.071469 1.89866 0
M  V30 23077 H 2215.89 -1.92153 3.37653 0
M  V30 23078 H 2217.56 0.385309 4.59688 0
M  V30 23079 H 2215.81 0.431455 4.31649 0
M  V30 23080 H 2216.48 -0.723111 5.47243 0
M  V30 23081 H 2218.95 -1.68672 3.8038 0
M  V30 23082 H 2217.83 -2.62374 4.82132 0
M  V30 23083 H 2218.09 -3.10094 3.1511 0
M  V30 23084 N 2217.15 -1.55503 -0.256249 0
M  V30 23085 C 2218.08 -1.92542 -1.32098 0
M  V30 23086 C 2219.06 -0.789221 -1.50683 0
M  V30 23087 O 2220.25 -1.04874 -1.63447 0
M  V30 23088 C 2217.38 -2.21197 -2.67748 0
M  V30 23089 C 2216.33 -3.3698 -2.63872 0
M  V30 23090 C 2215.66 -3.51154 -4.0323 0
M  V30 23091 C 2216.96 -4.72925 -2.21674 0
M  V30 23092 H 2218.65 -2.81726 -1.01346 0
M  V30 23093 H 2216.2 -1.35548 -0.486081 0
M  V30 23094 H 2218.15 -2.45697 -3.42361 0
M  V30 23095 H 2216.87 -1.2883 -3.00117 0
M  V30 23096 H 2215.53 -3.12474 -1.91717 0
M  V30 23097 H 2215.18 -2.56224 -4.32849 0
M  V30 23098 H 2214.88 -4.2901 -4.01527 0
M  V30 23099 H 2216.4 -3.77965 -4.79557 0
M  V30 23100 H 2217.82 -4.96859 -2.86015 0
M  V30 23101 H 2216.22 -5.53816 -2.311 0
M  V30 23102 H 2217.29 -4.70617 -1.16825 0
M  V30 23103 N 2218.63 0.521507 -1.48721 0
M  V30 23104 C 2219.58 1.64615 -1.64331 0
M  V30 23105 C 2220.57 1.61555 -0.509558 0
M  V30 23106 O 2221.78 1.6631 -0.688554 0
M  V30 23107 H 2218.15 0.545319 -0.517814 0
M  V30 23108 H 2220.12 1.48596 -2.5877 0
M  V30 23109 C 2218.87 3.02852 -1.7081 0
M  V30 23110 H 2218.19 3.05904 -2.57415 0
M  V30 23111 H 2219.63 3.81136 -1.85773 0
M  V30 23112 C 2218.09 3.33901 -0.448537 0
M  V30 23113 O 2218.62 3.99339 0.434858 0
M  V30 23114 N 2216.83 2.88859 -0.317667 0
M  V30 23115 H 2216.38 2.35782 -1.03752 0
M  V30 23116 H 2216.33 3.10002 0.524058 0
M  V30 23117 N 2220.11 1.37452 0.771027 0
M  V30 23118 C 2221.05 1.33361 1.90572 0
M  V30 23119 C 2222.05 0.22227 1.67935 0
M  V30 23120 O 2223.25 0.390335 1.75717 0
M  V30 23121 H 2219.63 0.415623 0.626707 0
M  V30 23122 H 2221.6 2.29148 1.91138 0
M  V30 23123 C 2220.35 1.15819 3.27843 0
M  V30 23124 H 2219.67 2.00589 3.45838 0
M  V30 23125 H 2221.11 1.17007 4.07536 0
M  V30 23126 C 2219.57 -0.136106 3.36625 0
M  V30 23127 O 2220.1 -1.11942 3.85787 0
M  V30 23128 N 2218.31 -0.187048 2.89997 0
M  V30 23129 H 2217.85 0.613797 2.50181 0
M  V30 23130 H 2217.81 -1.05266 2.96254 0
M  V30 23131 N 2221.58 -0.997276 1.22033 0
M  V30 23132 C 2222.53 -2.08655 0.986504 0
M  V30 23133 C 2223.5 -1.65855 -0.090238 0
M  V30 23134 O 2224.69 -1.9071 0.0584629 0
M  V30 23135 C 2221.83 -3.40433 0.565629 0
M  V30 23136 C 2220.94 -3.966 1.71266 0
M  V30 23137 C 2220.07 -5.1652 1.2402 0
M  V30 23138 C 2219.11 -5.64814 2.35906 0
M  V30 23139 N 2218.25 -6.75976 1.89738 0
M  V30 23140 H 2223.09 -2.27991 1.91896 0
M  V30 23141 H 2220.63 -1.1178 0.956219 0
M  V30 23142 H 2222.59 -4.161 0.302812 0
M  V30 23143 H 2221.22 -3.21111 -0.329823 0
M  V30 23144 H 2220.27 -3.17847 2.08992 0
M  V30 23145 H 2221.58 -4.28428 2.55443 0
M  V30 23146 H 2220.73 -5.9946 0.934501 0
M  V30 23147 H 2219.47 -4.86305 0.368573 0
M  V30 23148 H 2218.48 -4.80465 2.67269 0
M  V30 23149 H 2219.7 -5.97055 3.23577 0
M  V30 23150 H 2217.65 -6.47553 1.04931 0
M  V30 23151 H 2217.57 -7.07099 2.67483 0
M  V30 23152 H 2218.83 -7.62433 1.62224 0
M  V30 23153 N 2223.06 -1.02932 -1.19343 0
M  V30 23154 C 2224.01 -0.604041 -2.2462 0
M  V30 23155 C 2225 0.363558 -1.65453 0
M  V30 23156 O 2226.21 0.232088 -1.78497 0
M  V30 23157 H 2222.59 -0.177073 -0.730855 0
M  V30 23158 H 2224.56 -1.50259 -2.57808 0
M  V30 23159 C 2223.31 0.0288516 -3.47688 0
M  V30 23160 H 2222.63 -0.70672 -3.93504 0
M  V30 23161 H 2224.07 0.289358 -4.23011 0
M  V30 23162 C 2222.53 1.27555 -3.11819 0
M  V30 23163 O 2223.06 2.36756 -3.24514 0
M  V30 23164 N 2221.26 1.16448 -2.66248 0
M  V30 23165 H 2220.81 0.275869 -2.56119 0
M  V30 23166 H 2220.77 1.99957 -2.4262 0
M  V30 23167 N 2224.54 1.35356 -0.807246 0
M  V30 23168 C 2225.77 2.02988 -0.400413 0
M  V30 23169 C 2226.18 1.60834 0.988831 0
M  V30 23170 O 2225.54 0.806204 1.63727 0
M  V30 23171 C 2225.59 3.58367 -0.47493 0
M  V30 23172 O 2225.31 3.98989 -1.8094 0
M  V30 23173 C 2226.81 4.43258 -0.0609891 0
M  V30 23174 H 2224.03 0.651001 -0.162598 0
M  V30 23175 H 2226.58 1.72963 -1.09105 0
M  V30 23176 H 2224.73 3.87038 0.167466 0
M  V30 23177 H 2225.15 4.93637 -1.77265 0
M  V30 23178 H 2226.62 5.51756 -0.164242 0
M  V30 23179 H 2227.1 4.2781 0.993756 0
M  V30 23180 H 2227.7 4.19884 -0.676566 0
M  V30 23181 N 2226.02 0.560807 1.47284 0
M  V30 23182 C 2227.25 0.0430001 2.06555 0
M  V30 23183 C 2227.66 -1.25774 1.41342 0
M  V30 23184 O 2227 -1.76616 0.505213 0
M  V30 23185 C 2227.06 -0.219824 3.58827 0
M  V30 23186 C 2226.73 0.992023 4.46103 0
M  V30 23187 C 2227.72 1.89852 4.83996 0
M  V30 23188 C 2225.41 1.20771 4.87565 0
M  V30 23189 C 2227.4 3.00435 5.62154 0
M  V30 23190 C 2225.09 2.31663 5.65487 0
M  V30 23191 C 2226.09 3.21326 6.02693 0
M  V30 23192 O 2225.77 4.30295 6.79045 0
M  V30 23193 H 2225.51 0.0444586 0.674536 0
M  V30 23194 H 2228.06 0.774852 1.90224 0
M  V30 23195 H 2226.29 -1.00603 3.73384 0
M  V30 23196 H 2227.98 -0.683452 4.00105 0
M  V30 23197 H 2228.75 1.74395 4.52561 0
M  V30 23198 H 2224.62 0.518973 4.58069 0
M  V30 23199 H 2228.17 3.70446 5.91114 0
M  V30 23200 H 2224.07 2.47091 5.96336 0
M  V30 23201 H 2224.83 4.28388 6.97443 0
M  V30 23202 N 2227.5 -1.54768 0.297442 0
M  V30 23203 C 2228.91 -1.59502 -0.0560543 0
M  V30 23204 C 2229.11 -1.31446 -1.52722 0
M  V30 23205 O 2228.17 -1.08615 -2.27945 0
M  V30 23206 C 2229.48 -2.98787 0.338683 0
M  V30 23207 C 2231.03 -3.1168 0.287152 0
M  V30 23208 C 2231.5 -4.53268 0.656659 0
M  V30 23209 N 2233 -4.59178 0.609058 0
M  V30 23210 C 2233.73 -5.668 0.867485 0
M  V30 23211 N 2233.23 -6.82474 1.19169 0
M  V30 23212 N 2235.02 -5.56453 0.794785 0
M  V30 23213 H 2227.17 -1.71265 1.25627 0
M  V30 23214 H 2229.43 -0.799719 0.509071 0
M  V30 23215 H 2229.14 -3.24228 1.36268 0
M  V30 23216 H 2229.01 -3.75929 -0.309442 0
M  V30 23217 H 2231.4 -2.8599 -0.727598 0
M  V30 23218 H 2231.48 -2.36701 0.96985 0
M  V30 23219 H 2231.13 -4.79688 1.6692 0
M  V30 23220 H 2231.06 -5.26578 -0.0480724 0
M  V30 23221 H 2233.55 -3.76092 0.369265 0
M  V30 23222 H 2233.86 -7.6047 1.37496 0
M  V30 23223 H 2232.2 -6.84035 1.2297 0
M  V30 23224 H 2235.4 -4.64961 0.54118 0
M  V30 23225 H 2235.57 -6.40244 0.999557 0
M  V30 23226 N 2228.97 -0.0251005 -1.5758 0
M  V30 23227 C 2230.2 0.668282 -1.96338 0
M  V30 23228 C 2230.62 1.65098 -0.901343 0
M  V30 23229 O 2229.98 1.80773 0.138155 0
M  V30 23230 C 2230.03 1.35451 -3.34194 0
M  V30 23231 O 2229.13 2.46968 -3.30273 0
M  V30 23232 H 2228.48 0.175876 -0.640284 0
M  V30 23233 H 2231.01 -0.0857583 -2.0442 0
M  V30 23234 H 2231.02 1.71222 -3.70334 0
M  V30 23235 H 2229.69 0.634146 -4.11037 0
M  V30 23236 H 2228.27 2.13339 -3.05845 0
M  V30 23237 N 2230.45 1.55637 0.247999 0
M  V30 23238 C 2231.38 1.86672 1.3299 0
M  V30 23239 C 2232.4 0.752903 1.44344 0
M  V30 23240 O 2233.59 1.03101 1.45714 0
M  V30 23241 C 2230.69 2.03687 2.7086 0
M  V30 23242 C 2229.86 3.34537 2.81786 0
M  V30 23243 C 2228.92 3.41308 4.00494 0
M  V30 23244 O 2227.94 4.14526 3.90073 0
M  V30 23245 N 2229.15 2.70521 5.13613 0
M  V30 23246 H 2231.91 2.80062 1.06702 0
M  V30 23247 H 2229.47 1.5586 0.438101 0
M  V30 23248 H 2231.46 2.05559 3.48608 0
M  V30 23249 H 2230.03 1.17046 2.8986 0
M  V30 23250 H 2229.25 3.44991 1.90723 0
M  V30 23251 H 2230.54 4.20786 2.86036 0
M  V30 23252 H 2229.94 2.10765 5.24971 0
M  V30 23253 H 2228.5 2.78087 5.895 0
M  V30 23254 N 2231.93 -0.513613 1.48996 0
M  V30 23255 C 2232.86 -1.62541 1.67639 0
M  V30 23256 C 2233.84 -1.61792 0.525116 0
M  V30 23257 O 2235.03 -1.78731 0.759534 0
M  V30 23258 C 2232.16 -3.01076 1.7312 0
M  V30 23259 C 2231.11 -3.16688 2.87911 0
M  V30 23260 C 2230.44 -4.56448 2.78494 0
M  V30 23261 C 2231.74 -2.97906 4.2901 0
M  V30 23262 H 2233.43 -1.47194 2.60719 0
M  V30 23263 H 2230.98 -0.706692 1.25467 0
M  V30 23264 H 2232.93 -3.78742 1.84749 0
M  V30 23265 H 2231.65 -3.17483 0.766297 0
M  V30 23266 H 2230.31 -2.41444 2.75863 0
M  V30 23267 H 2229.96 -4.69714 1.79938 0
M  V30 23268 H 2229.66 -4.67837 3.55531 0
M  V30 23269 H 2231.19 -5.36192 2.92113 0
M  V30 23270 H 2232.6 -3.65351 4.41805 0
M  V30 23271 H 2231 -3.20776 5.07172 0
M  V30 23272 H 2232.07 -1.94157 4.44332 0
M  V30 23273 N 2233.41 -1.37859 -0.763727 0
M  V30 23274 C 2234.66 -1.33245 -1.51954 0
M  V30 23275 C 2234.98 0.0801367 -1.94835 0
M  V30 23276 O 2234.25 1.02579 -1.66896 0
M  V30 23277 H 2232.83 -0.49025 -0.563617 0
M  V30 23278 H 2235.49 -1.72432 -0.908474 0
M  V30 23279 H 2234.59 -1.97673 -2.4152 0
M  V30 23280 N 2234.89 0.990791 -1.22561 0
M  V30 23281 C 2236.13 1.74581 -1.06305 0
M  V30 23282 C 2236.49 1.87899 0.394704 0
M  V30 23283 O 2237.69 2.60104 0.678168 0
M  V30 23284 C 2235.96 3.11227 -1.75705 0
M  V30 23285 S 2237.52 4.02442 -1.74889 0
M  V30 23286 H 2234.34 0.600522 -0.38065 0
M  V30 23287 H 2236.94 1.18446 -1.55534 0
M  V30 23288 H 2235.65 2.99178 -2.80928 0
M  V30 23289 H 2235.18 3.72434 -1.26715 0
M  V30 23290 H 2237.19 4.89707 -0.800083 0
M  V30 23291 N 2236.37 1.03564 1.18795 0
M  V30 23292 C 2237.61 0.737146 1.88929 0
M  V30 23293 C 2237.94 -0.732924 1.79838 0
M  V30 23294 O 2237.22 -1.53438 1.19528 0
M  V30 23295 C 2237.5 1.19751 3.39605 0
M  V30 23296 C 2237.36 2.7293 3.57532 0
M  V30 23297 C 2238.67 0.783602 4.33068 0
M  V30 23298 H 2235.79 0.269261 0.686052 0
M  V30 23299 H 2238.44 1.28676 1.39795 0
M  V30 23300 H 2236.59 0.729922 3.81581 0
M  V30 23301 H 2238.26 3.27688 3.24682 0
M  V30 23302 H 2236.5 3.12998 3.00357 0
M  V30 23303 H 2237.17 3.00199 4.63233 0
M  V30 23304 H 2239.65 1.18588 3.98843 0
M  V30 23305 H 2238.52 1.13353 5.37068 0
M  V30 23306 H 2238.78 -0.313604 4.40986 0
M  V30 23307 N 2237.84 -1.34926 0.814413 0
M  V30 23308 C 2239.09 -1.98541 0.398458 0
M  V30 23309 C 2239.42 -1.64591 -1.03635 0
M  V30 23310 O 2238.67 -0.905191 -1.73507 0
M  V30 23311 C 2238.97 -3.5333 0.537843 0
M  V30 23312 C 2238.64 -4.07169 1.93711 0
M  V30 23313 C 2237.3 -4.21584 2.31991 0
M  V30 23314 C 2239.65 -4.36232 2.85221 0
M  V30 23315 C 2236.98 -4.62385 3.61133 0
M  V30 23316 C 2239.33 -4.78475 4.13817 0
M  V30 23317 C 2238 -4.91096 4.52086 0
M  V30 23318 H 2237.27 -0.726513 0.145806 0
M  V30 23319 H 2239.91 -1.61011 1.03672 0
M  V30 23320 H 2238.22 -3.91368 -0.183837 0
M  V30 23321 H 2239.92 -4.00517 0.196658 0
M  V30 23322 H 2236.51 -3.96406 1.62973 0
M  V30 23323 H 2240.69 -4.24641 2.56893 0
M  V30 23324 H 2235.95 -4.70346 3.90621 0
M  V30 23325 H 2240.12 -4.99923 4.84819 0
M  V30 23326 H 2237.75 -5.22468 5.52205 0
M  V30 23327 N 2239.32 -0.56861 -1.46985 0
M  V30 23328 C 2240.57 -0.0488342 -2.02441 0
M  V30 23329 C 2240.9 1.30556 -1.44171 0
M  V30 23330 O 2240.15 1.86555 -0.591246 0
M  V30 23331 C 2240.45 0.0817731 -3.57306 0
M  V30 23332 C 2240.12 -1.2032 -4.3455 0
M  V30 23333 C 2238.78 -1.55528 -4.55373 0
M  V30 23334 C 2241.13 -2.05419 -4.79012 0
M  V30 23335 C 2238.46 -2.7566 -5.17908 0
M  V30 23336 C 2240.81 -3.24764 -5.42873 0
M  V30 23337 C 2239.47 -3.60271 -5.61926 0
M  V30 23338 H 2238.74 -0.0178697 -0.740784 0
M  V30 23339 H 2241.39 -0.742415 -1.76523 0
M  V30 23340 H 2239.7 0.858396 -3.82281 0
M  V30 23341 H 2241.39 0.499476 -3.97877 0
M  V30 23342 H 2237.98 -0.919088 -4.1863 0
M  V30 23343 H 2242.17 -1.79524 -4.62693 0
M  V30 23344 H 2237.42 -3.03324 -5.30852 0
M  V30 23345 H 2241.6 -3.90983 -5.76286 0
M  V30 23346 H 2239.22 -4.5345 -6.10153 0
M  V30 23347 N 2240.8 1.54608 -0.305646 0
M  V30 23348 C 2241.75 2.25147 0.584079 0
M  V30 23349 C 2242.74 1.25913 1.13324 0
M  V30 23350 O 2243.95 1.43749 1.08334 0
M  V30 23351 H 2240.32 0.722957 0.206971 0
M  V30 23352 H 2242.29 2.98381 -0.0333435 0
M  V30 23353 C 2241.04 3.00904 1.74219 0
M  V30 23354 H 2240.37 3.7707 1.32885 0
M  V30 23355 H 2241.81 3.53535 2.34071 0
M  V30 23356 C 2240.26 2.08144 2.6491 0
M  V30 23357 O 2240.79 1.65252 3.66135 0
M  V30 23358 N 2239 1.74004 2.32747 0
M  V30 23359 H 2238.55 2.09081 1.50476 0
M  V30 23360 H 2238.51 1.12216 2.93692 0
M  V30 23361 N 2242.28 0.033457 1.57564 0
M  V30 23362 C 2243.53 -0.642966 1.91599 0
M  V30 23363 C 2243.85 -1.72418 0.910877 0
M  V30 23364 O 2243.12 -1.95844 -0.0469587 0
M  V30 23365 H 2241.7 -0.240483 0.707232 0
M  V30 23366 H 2244.36 0.0822831 1.94726 0
M  V30 23367 H 2243.45 -1.09293 2.92338 0
M  V30 23368 N 2243.76 -1.55766 -0.239741 0
M  V30 23369 C 2244.72 -1.90105 -1.28034 0
M  V30 23370 C 2245.72 -0.77808 -1.40722 0
M  V30 23371 O 2246.91 -1.04601 -1.39299 0
M  V30 23372 C 2244.04 -2.13581 -2.65699 0
M  V30 23373 H 2245.23 -2.83158 -0.987998 0
M  V30 23374 H 2242.79 -1.48768 -0.479356 0
M  V30 23375 H 2243.52 -1.2302 -3.00061 0
M  V30 23376 H 2243.31 -2.95374 -2.5787 0
M  V30 23377 H 2244.8 -2.41307 -3.40823 0
M  V30 23378 N 2245.23 0.505704 -1.49266 0
M  V30 23379 C 2246.51 1.26704 -1.49015 0
M  V30 23380 C 2246.89 2.1 -0.215242 0
M  V30 23381 O 2246.24 2.13944 0.802509 0
M  V30 23382 C 2246.45 2.12778 -2.76634 0
M  V30 23383 C 2247.8 2.72122 -3.25937 0
M  V30 23384 O 2248.82 2.23049 -2.77719 0
M  V30 23385 O 2247.68 3.61444 -4.09903 0
M  V30 23386 H 2244.77 0.57312 -0.596207 0
M  V30 23387 H 2247.32 0.520361 -1.61525 0
M  V30 23388 H 2246.09 1.51174 -3.60919 0
M  V30 23389 H 2245.71 2.94648 -2.66961 0
M  V30 23390 N 2246.71 1.38262 0.756405 0
M  V30 23391 C 2247.96 1.33633 1.5108 0
M  V30 23392 C 2248.27 -0.0719725 1.95468 0
M  V30 23393 O 2249.48 -0.240786 2.7043 0
M  V30 23394 C 2247.94 2.34648 2.72888 0
M  V30 23395 C 2247.54 3.81085 2.35537 0
M  V30 23396 C 2249.29 2.39058 3.50787 0
M  V30 23397 C 2247.2 4.73794 3.5394 0
M  V30 23398 H 2246.13 0.49672 0.567261 0
M  V30 23399 H 2248.78 1.63802 0.827118 0
M  V30 23400 H 2247.16 1.97519 3.43223 0
M  V30 23401 H 2248.33 4.27138 1.72887 0
M  V30 23402 H 2246.65 3.79767 1.7078 0
M  V30 23403 H 2249.24 3.05521 4.38818 0
M  V30 23404 H 2249.59 1.40868 3.91742 0
M  V30 23405 H 2250.12 2.74973 2.87462 0
M  V30 23406 H 2246.86 5.73169 3.18053 0
M  V30 23407 H 2246.38 4.32436 4.15643 0
M  V30 23408 H 2248.06 4.91671 4.20558 0
M  V30 23409 N 2248.19 -0.984277 1.23084 0
M  V30 23410 C 2249.42 -1.76569 1.08803 0
M  V30 23411 C 2249.84 -1.84688 -0.356625 0
M  V30 23412 O 2249.2 -1.30567 -1.25785 0
M  V30 23413 C 2249.25 -3.17273 1.71376 0
M  V30 23414 O 2248.35 -4.0075 0.973283 0
M  V30 23415 H 2247.69 -0.543388 0.381609 0
M  V30 23416 H 2250.22 -1.23584 1.63059 0
M  V30 23417 H 2250.23 -3.67869 1.76456 0
M  V30 23418 H 2248.91 -3.10679 2.76498 0
M  V30 23419 H 2247.48 -3.59265 0.999141 0
M  V30 23420 N 2249.67 -1.04192 -1.18244 0
M  V30 23421 C 2250.95 -0.66024 -1.8412 0
M  V30 23422 C 2251.33 0.860187 -1.9278 0
M  V30 23423 O 2250.67 1.76214 -1.45467 0
M  V30 23424 C 2250.88 -1.33753 -3.22352 0
M  V30 23425 C 2252.23 -1.46913 -3.98374 0
M  V30 23426 O 2253.26 -1.29574 -3.31797 0
M  V30 23427 O 2252.11 -1.7518 -5.17662 0
M  V30 23428 H 2249.21 -0.231175 -0.794032 0
M  V30 23429 H 2251.75 -1.14089 -1.25626 0
M  V30 23430 H 2250.53 -2.37528 -3.1096 0
M  V30 23431 H 2250.15 -0.845583 -3.88504 0
M  V30 23432 N 2251.15 1.34492 -0.821557 0
M  V30 23433 C 2252.37 2.02552 -0.42192 0
M  V30 23434 C 2252.79 1.61874 0.971717 0
M  V30 23435 O 2252.15 0.823524 1.62863 0
M  V30 23436 C 2252.2 3.57843 -0.512913 0
M  V30 23437 O 2251.92 3.97047 -1.85162 0
M  V30 23438 C 2253.42 4.43168 -0.107999 0
M  V30 23439 H 2250.64 0.64924 -0.169494 0
M  V30 23440 H 2253.18 1.71796 -1.10933 0
M  V30 23441 H 2251.34 3.87194 0.126406 0
M  V30 23442 H 2251.75 4.91729 -1.82491 0
M  V30 23443 H 2253.23 5.5155 -0.222754 0
M  V30 23444 H 2253.7 4.2884 0.948325 0
M  V30 23445 H 2254.31 4.19143 -0.721062 0
M  V30 23446 N 2252.62 0.576397 1.46681 0
M  V30 23447 C 2253.87 0.057318 2.01619 0
M  V30 23448 C 2254.19 -1.30815 1.45419 0
M  V30 23449 O 2255.39 -1.91822 1.92137 0
M  V30 23450 C 2253.85 0.0519003 3.59863 0
M  V30 23451 C 2253.46 1.4153 4.25057 0
M  V30 23452 C 2255.2 -0.413565 4.22481 0
M  V30 23453 C 2253.11 1.36795 5.75362 0
M  V30 23454 H 2252.04 0.017658 0.753793 0
M  V30 23455 H 2254.69 0.727106 1.6848 0
M  V30 23456 H 2253.07 -0.683925 3.90049 0
M  V30 23457 H 2254.24 2.17036 4.06488 0
M  V30 23458 H 2252.56 1.82027 3.74507 0
M  V30 23459 H 2255.16 -0.467685 5.32651 0
M  V30 23460 H 2255.5 -1.42975 3.90978 0
M  V30 23461 H 2256.03 0.267999 3.96896 0
M  V30 23462 H 2252.77 2.36074 6.11514 0
M  V30 23463 H 2252.29 0.655 5.96213 0
M  V30 23464 H 2253.97 1.07816 6.37953 0
M  V30 23465 N 2254.1 -1.54444 0.313841 0
M  V30 23466 C 2255.51 -1.85867 -0.176211 0
M  V30 23467 C 2255.86 -1.23563 -1.52402 0
M  V30 23468 O 2254.99 -0.538053 -2.09604 0
M  V30 23469 C 2255.58 -3.37223 -0.32651 0
M  V30 23470 C 2254.14 -3.68631 -0.760781 0
M  V30 23471 C 2253.29 -2.77026 0.123296 0
M  V30 23472 H 2256.24 -1.4943 0.534444 0
M  V30 23473 H 2256.26 -3.62418 -1.15902 0
M  V30 23474 H 2255.77 -3.8254 0.654598 0
M  V30 23475 H 2253.88 -3.28841 -1.75198 0
M  V30 23476 H 2253.99 -4.75682 -0.571269 0
M  V30 23477 H 2252.35 -2.51547 -0.399552 0
M  V30 23478 H 2253.14 -3.25166 1.10099 0
M  V30 23479 N 2255.58 -0.0418125 -1.57545 0
M  V30 23480 C 2256.86 0.673401 -1.83643 0
M  V30 23481 C 2257.24 1.89592 -0.928331 0
M  V30 23482 O 2256.59 2.28496 0.0129553 0
M  V30 23483 C 2256.8 1.03958 -3.33157 0
M  V30 23484 C 2258.14 1.42585 -3.99943 0
M  V30 23485 O 2259.17 1.1322 -3.37727 0
M  V30 23486 O 2258.03 1.97351 -5.09622 0
M  V30 23487 H 2255.12 0.331519 -0.757644 0
M  V30 23488 H 2257.67 -0.0704628 -1.69554 0
M  V30 23489 H 2256.44 0.170029 -3.9093 0
M  V30 23490 H 2256.06 1.8412 -3.524 0
M  V30 23491 N 2257.06 1.55891 0.231477 0
M  V30 23492 C 2257.97 1.94754 1.30797 0
M  V30 23493 C 2258.98 0.850015 1.51825 0
M  V30 23494 O 2260.16 1.15274 1.65148 0
M  V30 23495 C 2257.23 2.24775 2.63964 0
M  V30 23496 C 2256.29 3.48044 2.51325 0
M  V30 23497 C 2255.52 3.76623 3.78141 0
M  V30 23498 O 2255.74 3.07031 4.80716 0
M  V30 23499 O 2254.68 4.70129 3.75848 0
M  V30 23500 H 2258.5 2.86475 1.00825 0
M  V30 23501 H 2256.09 1.42972 0.433522 0
M  V30 23502 H 2257.97 2.45324 3.42629 0
M  V30 23503 H 2256.64 1.3623 2.93637 0
M  V30 23504 H 2255.55 3.32785 1.70894 0
M  V30 23505 H 2256.88 4.3694 2.26593 0
M  V30 23506 N 2258.54 -0.497781 1.49532 0
M  V30 23507 C 2259.48 -1.59896 1.66439 0
M  V30 23508 C 2260.45 -1.58211 0.505821 0
M  V30 23509 O 2261.64 -1.76149 0.733233 0
M  V30 23510 C 2258.78 -2.98026 1.73996 0
M  V30 23511 C 2257.89 -3.09703 3.01178 0
M  V30 23512 C 2257.03 -4.38585 2.99694 0
M  V30 23513 C 2256.07 -4.43907 4.21442 0
M  V30 23514 N 2255.2 -5.64222 4.1785 0
M  V30 23515 H 2260.04 -1.44788 2.60462 0
M  V30 23516 H 2257.58 -0.7044 1.29138 0
M  V30 23517 H 2259.54 -3.78092 1.76358 0
M  V30 23518 H 2258.17 -3.11831 0.834356 0
M  V30 23519 H 2257.22 -2.2268 3.08412 0
M  V30 23520 H 2258.53 -3.09495 3.9117 0
M  V30 23521 H 2257.69 -5.26975 3.00637 0
M  V30 23522 H 2256.42 -4.41363 2.07485 0
M  V30 23523 H 2255.43 -3.53919 4.20739 0
M  V30 23524 H 2256.65 -4.42842 5.14847 0
M  V30 23525 H 2254.6 -5.67836 3.28479 0
M  V30 23526 H 2254.52 -5.65643 5.01581 0
M  V30 23527 H 2255.79 -6.5481 4.229 0
M  V30 23528 N 2260.01 -1.38661 -0.749062 0
M  V30 23529 C 2260.95 -1.32145 -1.87271 0
M  V30 23530 C 2261.96 -0.232816 -1.61127 0
M  V30 23531 O 2263.15 -0.49072 -1.71622 0
M  V30 23532 C 2260.25 -1.02577 -3.23003 0
M  V30 23533 C 2259.42 -2.2244 -3.76616 0
M  V30 23534 C 2258.48 -1.89546 -4.90876 0
M  V30 23535 O 2257.51 -2.62087 -5.05271 0
M  V30 23536 N 2258.71 -0.853132 -5.74197 0
M  V30 23537 H 2261.47 -2.28973 -1.93369 0
M  V30 23538 H 2259.03 -1.32581 -0.929193 0
M  V30 23539 H 2261.03 -0.786155 -3.96991 0
M  V30 23540 H 2259.6 -0.145304 -3.12262 0
M  V30 23541 H 2258.82 -2.62439 -2.94142 0
M  V30 23542 H 2260.1 -3.02422 -4.09168 0
M  V30 23543 H 2259.5 -0.251649 -5.6514 0
M  V30 23544 H 2258.06 -0.673404 -6.48312 0
M  V30 23545 N 2261.49 0.977736 -1.23605 0
M  V30 23546 C 2262.44 2.09185 -1.01708 0
M  V30 23547 C 2263.44 1.69341 0.0447917 0
M  V30 23548 O 2264.64 1.7967 -0.108933 0
M  V30 23549 H 2261.02 0.684307 -0.311815 0
M  V30 23550 H 2262.99 2.24819 -1.96211 0
M  V30 23551 C 2261.74 3.41985 -0.627806 0
M  V30 23552 H 2261.06 3.73097 -1.43662 0
M  V30 23553 H 2262.5 4.20871 -0.514127 0
M  V30 23554 C 2260.96 3.30288 0.66418 0
M  V30 23555 O 2261.49 3.63363 1.71261 0
M  V30 23556 N 2259.69 2.8344 0.641106 0
M  V30 23557 H 2259.24 2.56723 -0.212422 0
M  V30 23558 H 2259.2 2.75996 1.50578 0
M  V30 23559 N 2262.97 1.04818 1.1769 0
M  V30 23560 C 2264.22 0.75453 1.87487 0
M  V30 23561 C 2264.54 -0.720375 1.81206 0
M  V30 23562 O 2263.81 -1.52029 1.23547 0
M  V30 23563 H 2262.39 0.276114 0.694096 0
M  V30 23564 H 2265.05 1.32653 1.4279 0
M  V30 23565 H 2264.15 1.06611 2.93326 0
M  V30 23566 N 2264.45 -1.34055 0.828678 0
M  V30 23567 C 2265.4 -2.26868 0.226867 0
M  V30 23568 C 2266.38 -1.48798 -0.612217 0
M  V30 23569 O 2267.58 -1.70759 -0.465854 0
M  V30 23570 C 2264.7 -3.37916 -0.605594 0
M  V30 23571 C 2263.79 -4.23395 0.244435 0
M  V30 23572 N 2264.18 -4.8832 1.31823 0
M  V30 23573 C 2262.48 -4.4599 0.02974 0
M  V30 23574 C 2263.18 -5.51864 1.83904 0
M  V30 23575 N 2262.16 -5.31468 1.14206 0
M  V30 23576 H 2265.96 -2.74574 1.04816 0
M  V30 23577 H 2263.47 -1.47841 0.672076 0
M  V30 23578 H 2265.47 -4.03384 -1.05295 0
M  V30 23579 H 2264.13 -2.91761 -1.42498 0
M  V30 23580 H 2265.14 -4.89167 1.70107 0
M  V30 23581 H 2261.82 -4.10579 -0.757024 0
M  V30 23582 H 2263.21 -6.13595 2.73771 0
M  V30 23583 N 2265.93 -0.584167 -1.46374 0
M  V30 23584 C 2267.15 -0.0740769 -2.07268 0
M  V30 23585 C 2267.58 1.22221 -1.42981 0
M  V30 23586 O 2266.94 1.73858 -0.514123 0
M  V30 23587 C 2266.98 0.0767136 -3.60518 0
M  V30 23588 O 2266.09 1.13285 -3.96535 0
M  V30 23589 H 2265.43 -0.0634641 -0.66096 0
M  V30 23590 H 2267.96 -0.807525 -1.8799 0
M  V30 23591 H 2267.97 0.282418 -4.07021 0
M  V30 23592 H 2266.64 -0.869932 -4.067 0
M  V30 23593 H 2265.22 0.905489 -3.61739 0
M  V30 23594 N 2267.41 1.54275 -0.322027 0
M  V30 23595 C 2268.34 2.27232 0.537371 0
M  V30 23596 C 2269.32 1.2797 1.12061 0
M  V30 23597 O 2270.5 1.56779 1.14603 0
M  V30 23598 C 2267.63 3.02897 1.69913 0
M  V30 23599 C 2266.59 4.09484 1.24526 0
M  V30 23600 C 2265.91 4.72981 2.49385 0
M  V30 23601 C 2267.21 5.21049 0.361243 0
M  V30 23602 H 2268.91 2.99315 -0.0711932 0
M  V30 23603 H 2266.45 1.43956 -0.0356808 0
M  V30 23604 H 2268.4 3.52666 2.30662 0
M  V30 23605 H 2267.13 2.28429 2.33427 0
M  V30 23606 H 2265.79 3.60597 0.660719 0
M  V30 23607 H 2265.44 3.95129 3.11258 0
M  V30 23608 H 2265.14 5.44979 2.19708 0
M  V30 23609 H 2266.66 5.25523 3.10899 0
M  V30 23610 H 2268.07 5.66584 0.874972 0
M  V30 23611 H 2266.47 5.99894 0.157323 0
M  V30 23612 H 2267.54 4.81069 -0.608304 0
M  V30 23613 N 2268.88 0.0501669 1.5752 0
M  V30 23614 C 2270.11 -0.632539 1.96679 0
M  V30 23615 C 2270.52 -1.64972 0.926327 0
M  V30 23616 O 2269.86 -1.83438 -0.0979877 0
M  V30 23617 C 2269.93 -1.37729 3.32071 0
M  V30 23618 C 2269.59 -0.516051 4.54077 0
M  V30 23619 C 2270.59 0.217448 5.19445 0
M  V30 23620 C 2268.27 -0.447272 5.00305 0
M  V30 23621 C 2270.27 1.00818 6.29376 0
M  V30 23622 C 2267.95 0.347145 6.10113 0
M  V30 23623 C 2268.95 1.07356 6.7451 0
M  V30 23624 O 2268.64 1.85491 7.82207 0
M  V30 23625 H 2268.37 -0.177809 0.652196 0
M  V30 23626 H 2270.93 0.112579 2.05091 0
M  V30 23627 H 2269.16 -2.16801 3.2021 0
M  V30 23628 H 2270.84 -1.95013 3.55984 0
M  V30 23629 H 2271.61 0.173773 4.84689 0
M  V30 23630 H 2267.49 -1.00227 4.49973 0
M  V30 23631 H 2271.03 1.57568 6.79572 0
M  V30 23632 H 2266.93 0.392462 6.44306 0
M  V30 23633 H 2267.7 1.77692 7.98979 0
M  V30 23634 N 2270.36 -1.56011 -0.223207 0
M  V30 23635 C 2271.29 -1.953 -1.27984 0
M  V30 23636 C 2272.27 -0.821005 -1.48975 0
M  V30 23637 O 2273.46 -1.08318 -1.61186 0
M  V30 23638 C 2270.59 -2.26827 -2.62996 0
M  V30 23639 C 2269.54 -3.42501 -2.56665 0
M  V30 23640 C 2268.87 -3.59629 -3.95691 0
M  V30 23641 C 2270.17 -4.77521 -2.11592 0
M  V30 23642 H 2271.86 -2.83812 -0.953475 0
M  V30 23643 H 2269.41 -1.36549 -0.45722 0
M  V30 23644 H 2271.36 -2.52904 -3.37072 0
M  V30 23645 H 2270.08 -1.35167 -2.97317 0
M  V30 23646 H 2268.74 -3.16471 -1.85046 0
M  V30 23647 H 2268.39 -2.65347 -4.27317 0
M  V30 23648 H 2268.09 -4.37431 -3.92337 0
M  V30 23649 H 2269.62 -3.88052 -4.71432 0
M  V30 23650 H 2271.03 -5.02814 -2.75411 0
M  V30 23651 H 2269.43 -5.58594 -2.19301 0
M  V30 23652 H 2270.5 -4.72989 -1.06816 0
M  V30 23653 N 2271.84 0.489844 -1.49794 0
M  V30 23654 C 2272.8 1.57243 -1.66755 0
M  V30 23655 C 2273.8 1.51501 -0.538894 0
M  V30 23656 O 2274.99 1.54454 -0.805572 0
M  V30 23657 C 2272.12 2.96893 -1.67533 0
M  V30 23658 H 2273.32 1.4353 -2.63323 0
M  V30 23659 H 2270.87 0.71489 -1.38993 0
M  V30 23660 H 2271.61 3.16072 -0.725893 0
M  V30 23661 H 2271.39 3.02469 -2.49509 0
M  V30 23662 H 2272.88 3.75526 -1.82674 0
M  V30 23663 N 2273.32 1.39056 0.741698 0
M  V30 23664 C 2274.59 1.26428 1.49249 0
M  V30 23665 C 2274.97 -0.129107 2.10705 0
M  V30 23666 O 2274.32 -1.13973 1.98047 0
M  V30 23667 C 2274.53 2.38352 2.5493 0
M  V30 23668 C 2275.88 2.77349 3.21501 0
M  V30 23669 O 2276.9 2.37752 2.6524 0
M  V30 23670 O 2275.76 3.45672 4.23288 0
M  V30 23671 H 2272.86 0.495075 0.662442 0
M  V30 23672 H 2275.4 1.50913 0.776094 0
M  V30 23673 H 2274.18 3.31532 2.07851 0
M  V30 23674 H 2273.8 2.15495 3.34137 0
M  V30 23675 N 2274.8 -0.971167 1.24121 0
M  V30 23676 C 2275.74 -2.08642 1.02816 0
M  V30 23677 C 2276.74 -1.69362 -0.0358105 0
M  V30 23678 O 2277.94 -1.7961 0.11846 0
M  V30 23679 H 2274.32 -0.682643 0.31544 0
M  V30 23680 H 2276.29 -2.23775 1.97401 0
M  V30 23681 C 2275.04 -3.41647 0.645934 0
M  V30 23682 H 2274.36 -3.7233 1.45639 0
M  V30 23683 H 2275.8 -4.20593 0.53644 0
M  V30 23684 C 2274.26 -3.30636 -0.646655 0
M  V30 23685 O 2274.79 -3.64266 -1.69332 0
M  V30 23686 N 2273 -2.83776 -0.626065 0
M  V30 23687 H 2272.54 -2.56606 0.226033 0
M  V30 23688 H 2272.5 -2.7679 -1.49112 0
M  V30 23689 N 2276.27 -1.05441 -1.17133 0
M  V30 23690 C 2277.2 -0.678688 -2.23419 0
M  V30 23691 C 2278.19 0.324731 -1.66972 0
M  V30 23692 O 2279.37 0.201768 -1.93149 0
M  V30 23693 C 2276.5 -0.055271 -3.47256 0
M  V30 23694 C 2275.45 -0.983723 -4.16542 0
M  V30 23695 C 2274.78 -0.224055 -5.3423 0
M  V30 23696 C 2276.08 -2.30898 -4.68491 0
M  V30 23697 H 2277.77 -1.56726 -2.55103 0
M  V30 23698 H 2275.32 -0.755019 -1.22619 0
M  V30 23699 H 2277.27 0.219386 -4.20829 0
M  V30 23700 H 2276 0.868264 -3.14847 0
M  V30 23701 H 2274.66 -1.24299 -3.44885 0
M  V30 23702 H 2274.3 0.702325 -4.98073 0
M  V30 23703 H 2274 -0.842729 -5.81525 0
M  V30 23704 H 2275.53 0.0432598 -6.10585 0
M  V30 23705 H 2276.94 -2.09405 -5.33688 0
M  V30 23706 H 2275.34 -2.88185 -5.26374 0
M  V30 23707 H 2276.41 -2.94579 -3.85164 0
M  V30 23708 N 2277.75 1.33613 -0.835776 0
M  V30 23709 C 2278.98 2.02093 -0.443379 0
M  V30 23710 C 2279.4 1.62895 0.954493 0
M  V30 23711 O 2278.75 0.840752 1.6198 0
M  V30 23712 C 2278.8 3.57279 -0.550838 0
M  V30 23713 O 2278.52 3.95061 -1.89363 0
M  V30 23714 C 2280.03 4.43029 -0.154997 0
M  V30 23715 H 2277.25 0.647406 -0.17637 0
M  V30 23716 H 2279.79 1.7061 -1.12749 0
M  V30 23717 H 2277.94 3.87306 0.0853316 0
M  V30 23718 H 2278.36 4.89766 -1.87696 0
M  V30 23719 H 2279.83 5.51283 -0.281241 0
M  V30 23720 H 2280.31 4.29821 0.902788 0
M  V30 23721 H 2280.92 4.18355 -0.765477 0
M  V30 23722 N 2279.23 0.591922 1.46062 0
M  V30 23723 C 2280.19 -0.125933 2.28854 0
M  V30 23724 C 2281.19 -0.810083 1.38904 0
M  V30 23725 O 2282.38 -0.660632 1.61187 0
M  V30 23726 C 2279.52 -1.18804 3.19528 0
M  V30 23727 H 2280.71 0.601768 2.93801 0
M  V30 23728 H 2278.26 0.350281 1.52324 0
M  V30 23729 H 2279 -1.94702 2.59348 0
M  V30 23730 H 2278.78 -0.701868 3.85767 0
M  V30 23731 H 2280.27 -1.69125 3.8182 0
M  V30 23732 N 2280.71 -1.54102 0.330204 0
M  V30 23733 C 2281.99 -1.92882 -0.324974 0
M  V30 23734 C 2282.37 -1.26048 -1.69337 0
M  V30 23735 O 2281.71 -0.406565 -2.24854 0
M  V30 23736 C 2281.92 -3.46577 -0.410573 0
M  V30 23737 C 2283.27 -4.19317 -0.667727 0
M  V30 23738 O 2284.3 -3.52769 -0.493228 0
M  V30 23739 O 2283.15 -5.37183 -1.00482 0
M  V30 23740 H 2280.25 -0.805613 -0.186859 0
M  V30 23741 H 2282.79 -1.65381 0.380405 0
M  V30 23742 H 2281.57 -3.87412 0.550233 0
M  V30 23743 H 2281.19 -3.80202 -1.16327 0
M  V30 23744 N 2282.19 -0.0585199 -1.57491 0
M  V30 23745 C 2283.1 0.928376 -2.15449 0
M  V30 23746 C 2284.11 1.33648 -1.11419 0
M  V30 23747 O 2285.29 1.4119 -1.43622 0
M  V30 23748 C 2282.35 2.18234 -2.69397 0
M  V30 23749 C 2281.41 1.8319 -3.88253 0
M  V30 23750 C 2280.65 3.02608 -4.39618 0
M  V30 23751 O 2280.87 4.16212 -3.90031 0
M  V30 23752 O 2279.8 2.83195 -5.31116 0
M  V30 23753 H 2283.63 0.46543 -3.00112 0
M  V30 23754 H 2281.22 0.1638 -1.48499 0
M  V30 23755 H 2283.1 2.91792 -3.04032 0
M  V30 23756 H 2281.77 2.63652 -1.87801 0
M  V30 23757 H 2280.68 1.06924 -3.58494 0
M  V30 23758 H 2282.01 1.42565 -4.71101 0
M  V30 23759 N 2283.66 1.56128 0.21493 0
M  V30 23760 C 2284.89 1.83538 0.95506 0
M  V30 23761 C 2285.31 0.638503 1.77675 0
M  V30 23762 O 2284.66 -0.392937 1.7822 0
M  V30 23763 C 2284.72 3.09539 1.86729 0
M  V30 23764 O 2284.44 4.2461 1.0788 0
M  V30 23765 C 2285.94 3.49985 2.72076 0
M  V30 23766 H 2283.16 0.609971 0.2796 0
M  V30 23767 H 2285.7 2.03223 0.228162 0
M  V30 23768 H 2283.86 2.9181 2.54805 0
M  V30 23769 H 2284.27 4.96233 1.69863 0
M  V30 23770 H 2285.74 4.41168 3.31775 0
M  V30 23771 H 2286.22 2.72046 3.44801 0
M  V30 23772 H 2286.83 3.70177 2.09402 0
M  V30 23773 N 2285.14 -0.481893 1.50052 0
M  V30 23774 C 2286.09 -1.58122 1.68125 0
M  V30 23775 C 2287.06 -1.57665 0.522573 0
M  V30 23776 O 2288.24 -1.75361 0.751874 0
M  V30 23777 C 2285.38 -2.96164 1.77147 0
M  V30 23778 C 2284.5 -3.06491 3.04445 0
M  V30 23779 C 2283.63 -4.35382 3.04329 0
M  V30 23780 C 2282.67 -4.39412 4.26126 0
M  V30 23781 N 2281.81 -5.59758 4.2381 0
M  V30 23782 H 2286.65 -1.42017 2.61983 0
M  V30 23783 H 2284.19 -0.690664 1.29878 0
M  V30 23784 H 2286.14 -3.762 1.80358 0
M  V30 23785 H 2284.77 -3.10928 0.867383 0
M  V30 23786 H 2283.83 -2.19396 3.10756 0
M  V30 23787 H 2285.14 -3.05329 3.94431 0
M  V30 23788 H 2284.29 -5.23756 3.06209 0
M  V30 23789 H 2283.03 -4.39138 2.12154 0
M  V30 23790 H 2282.04 -3.49437 4.24469 0
M  V30 23791 H 2283.26 -4.37357 5.19515 0
M  V30 23792 H 2281.21 -5.6432 3.34484 0
M  V30 23793 H 2281.12 -5.60292 5.07552 0
M  V30 23794 H 2282.39 -6.50287 4.29821 0
M  V30 23795 N 2286.62 -1.39448 -0.734313 0
M  V30 23796 C 2287.58 -1.37997 -1.83001 0
M  V30 23797 C 2288.58 -0.276966 -1.58397 0
M  V30 23798 O 2289.77 -0.534904 -1.65784 0
M  V30 23799 C 2286.91 -1.15325 -3.208 0
M  V30 23800 H 2288.1 -2.35498 -1.8569 0
M  V30 23801 H 2285.65 -1.25022 -0.938037 0
M  V30 23802 H 2286.39 -0.185093 -3.23771 0
M  V30 23803 H 2286.17 -1.95203 -3.40056 0
M  V30 23804 H 2287.66 -1.17053 -4.0086 0
M  V30 23805 N 2288.1 0.964571 -1.24635 0
M  V30 23806 C 2289.03 2.07739 -1.06614 0
M  V30 23807 C 2290.01 1.70086 0.0218367 0
M  V30 23808 O 2291.19 1.93652 -0.145827 0
M  V30 23809 C 2288.32 3.40707 -0.673503 0
M  V30 23810 C 2287.28 3.92329 -1.71061 0
M  V30 23811 C 2286.6 5.21676 -1.17294 0
M  V30 23812 C 2287.9 4.19818 -3.10725 0
M  V30 23813 H 2289.6 2.23073 -1.99697 0
M  V30 23814 H 2287.14 1.07193 -0.961539 0
M  V30 23815 H 2289.1 4.17998 -0.534418 0
M  V30 23816 H 2287.82 3.25283 0.293016 0
M  V30 23817 H 2286.48 3.17198 -1.83796 0
M  V30 23818 H 2286.13 5.02614 -0.196935 0
M  V30 23819 H 2285.83 5.57183 -1.86602 0
M  V30 23820 H 2287.35 6.01573 -1.04604 0
M  V30 23821 H 2288.77 4.87802 -3.01201 0
M  V30 23822 H 2287.16 4.6656 -3.77414 0
M  V30 23823 H 2288.23 3.26473 -3.5853 0
M  V30 23824 N 2289.58 1.0606 1.16572 0
M  V30 23825 C 2290.52 0.669301 2.20882 0
M  V30 23826 C 2291.49 -0.332889 1.6273 0
M  V30 23827 O 2292.68 -0.222313 1.895 0
M  V30 23828 C 2289.82 0.0594178 3.45049 0
M  V30 23829 C 2288.93 1.1115 4.17456 0
M  V30 23830 C 2288.07 0.468009 5.29134 0
M  V30 23831 C 2287.11 1.50379 5.9334 0
M  V30 23832 N 2286.24 0.883828 6.96515 0
M  V30 23833 H 2291.08 1.56324 2.53706 0
M  V30 23834 H 2288.62 0.781647 1.24614 0
M  V30 23835 H 2290.58 -0.311698 4.16034 0
M  V30 23836 H 2289.21 -0.797937 3.12782 0
M  V30 23837 H 2288.26 1.60035 3.45099 0
M  V30 23838 H 2289.57 1.89739 4.61303 0
M  V30 23839 H 2288.73 0.0437937 6.06684 0
M  V30 23840 H 2287.46 -0.349778 4.86444 0
M  V30 23841 H 2286.47 1.93793 5.14514 0
M  V30 23842 H 2287.69 2.32363 6.3811 0
M  V30 23843 H 2285.64 0.0867103 6.55943 0
M  V30 23844 H 2285.56 1.60713 7.3872 0
M  V30 23845 H 2286.83 0.48468 7.77992 0
M  V30 23846 N 2291.06 -1.33168 0.84285 0
M  V30 23847 C 2291.97 -2.32905 0.281485 0
M  V30 23848 C 2292.98 -1.63527 -0.594558 0
M  V30 23849 O 2294.16 -1.95153 -0.497735 0
M  V30 23850 C 2291.22 -3.42612 -0.530869 0
M  V30 23851 C 2290.28 -4.27703 0.369918 0
M  V30 23852 C 2289.52 -5.32171 -0.40376 0
M  V30 23853 O 2289.74 -5.46464 -1.63504 0
M  V30 23854 O 2288.67 -6.01482 0.224305 0
M  V30 23855 H 2292.5 -2.82787 1.10749 0
M  V30 23856 H 2290.08 -1.36581 0.605474 0
M  V30 23857 H 2291.97 -4.09549 -0.992365 0
M  V30 23858 H 2290.64 -2.9494 -1.33387 0
M  V30 23859 H 2289.55 -3.63619 0.879339 0
M  V30 23860 H 2290.88 -4.78869 1.13779 0
M  V30 23861 N 2292.53 -0.599659 -1.45746 0
M  V30 23862 C 2293.46 0.111265 -2.33235 0
M  V30 23863 C 2294.44 0.866755 -1.4636 0
M  V30 23864 O 2295.63 0.838873 -1.75147 0
M  V30 23865 C 2292.76 1.11445 -3.28934 0
M  V30 23866 C 2291.71 0.472697 -4.25382 0
M  V30 23867 C 2291.04 1.58356 -5.10713 0
M  V30 23868 C 2292.34 -0.60104 -5.1883 0
M  V30 23869 H 2294.03 -0.619241 -2.92926 0
M  V30 23870 H 2291.58 -0.29924 -1.40857 0
M  V30 23871 H 2293.53 1.62029 -3.89004 0
M  V30 23872 H 2292.26 1.87545 -2.67384 0
M  V30 23873 H 2290.92 -0.0122117 -3.66598 0
M  V30 23874 H 2290.56 2.33465 -4.45537 0
M  V30 23875 H 2290.26 1.15971 -5.76042 0
M  V30 23876 H 2291.79 2.09183 -5.7365 0
M  V30 23877 H 2293.2 -0.179592 -5.73019 0
M  V30 23878 H 2291.6 -0.94618 -5.92594 0
M  V30 23879 H 2292.67 -1.48076 -4.61738 0
M  V30 23880 N 2294.01 1.53925 -0.338371 0
M  V30 23881 C 2295.24 2.04946 0.260883 0
M  V30 23882 C 2295.65 1.21333 1.45172 0
M  V30 23883 O 2294.99 0.240294 1.82122 0
M  V30 23884 C 2295.05 3.51706 0.744535 0
M  V30 23885 C 2294.72 4.55836 -0.325963 0
M  V30 23886 C 2295.72 5.06634 -1.16696 0
M  V30 23887 C 2293.4 5.00017 -0.478405 0
M  V30 23888 C 2295.39 6.00188 -2.14599 0
M  V30 23889 C 2293.08 5.93383 -1.46083 0
M  V30 23890 C 2294.08 6.43356 -2.29308 0
M  V30 23891 O 2293.77 7.34886 -3.2588 0
M  V30 23892 H 2293.5 0.67375 0.0551089 0
M  V30 23893 H 2296.05 1.99543 -0.487019 0
M  V30 23894 H 2294.28 3.54556 1.54359 0
M  V30 23895 H 2295.97 3.85725 1.26377 0
M  V30 23896 H 2296.74 4.73269 -1.06025 0
M  V30 23897 H 2292.62 4.60724 0.159532 0
M  V30 23898 H 2296.16 6.39118 -2.79596 0
M  V30 23899 H 2292.06 6.26163 -1.56813 0
M  V30 23900 H 2292.83 7.52804 -3.21291 0
M  V30 23901 N 2295.49 0.0668712 1.57458 0
M  V30 23902 C 2296.74 -0.60218 1.9292 0
M  V30 23903 C 2297.06 -1.70447 0.947245 0
M  V30 23904 O 2296.33 -1.95899 -0.00540674 0
M  V30 23905 H 2294.91 -0.225428 0.712174 0
M  V30 23906 H 2297.57 0.123569 1.94508 0
M  V30 23907 H 2296.67 -1.03067 2.9459 0
M  V30 23908 N 2296.97 -1.56239 -0.206647 0
M  V30 23909 C 2298.38 -1.69975 -0.772353 0
M  V30 23910 C 2298.73 -0.671469 -1.84352 0
M  V30 23911 O 2297.85 0.174453 -2.15696 0
M  V30 23912 C 2298.45 -3.08169 -1.40774 0
M  V30 23913 C 2297.01 -3.23709 -1.92066 0
M  V30 23914 C 2296.16 -2.65918 -0.7863 0
M  V30 23915 H 2299.11 -1.5869 0.0182502 0
M  V30 23916 H 2299.13 -3.04856 -2.2769 0
M  V30 23917 H 2298.64 -3.82987 -0.62789 0
M  V30 23918 H 2296.74 -2.53787 -2.72806 0
M  V30 23919 H 2296.85 -4.31091 -2.09039 0
M  V30 23920 H 2295.22 -2.2479 -1.19756 0
M  V30 23921 H 2296 -3.43295 -0.0188812 0
M  V30 23922 N 2298.45 0.473929 -1.50305 0
M  V30 23923 C 2299.69 1.22803 -1.61391 0
M  V30 23924 C 2300.02 1.91678 -0.311989 0
M  V30 23925 O 2299.3 1.81988 0.686352 0
M  V30 23926 C 2299.58 2.27391 -2.79223 0
M  V30 23927 C 2299.44 1.62841 -4.19289 0
M  V30 23928 C 2300.75 3.28727 -2.9262 0
M  V30 23929 H 2297.87 0.445109 -0.587407 0
M  V30 23930 H 2300.52 0.522233 -1.82682 0
M  V30 23931 H 2298.67 2.87588 -2.612 0
M  V30 23932 H 2300.34 1.06263 -4.48894 0
M  V30 23933 H 2298.58 0.931618 -4.23678 0
M  V30 23934 H 2299.25 2.3883 -4.97659 0
M  V30 23935 H 2301.73 2.78551 -3.0911 0
M  V30 23936 H 2300.6 3.99239 -3.76695 0
M  V30 23937 H 2300.86 3.9268 -2.03114 0
M  V30 23938 N 2299.92 1.39835 0.726907 0
M  V30 23939 C 2301.2 1.28004 1.479 0
M  V30 23940 C 2301.58 -0.106752 2.1083 0
M  V30 23941 O 2300.93 -1.11866 1.99244 0
M  V30 23942 C 2301.14 2.41042 2.52388 0
M  V30 23943 C 2302.49 2.80743 3.18541 0
M  V30 23944 O 2303.51 2.40552 2.62704 0
M  V30 23945 O 2302.37 3.50142 4.19598 0
M  V30 23946 H 2299.46 0.502074 0.657154 0
M  V30 23947 H 2302.01 1.51728 0.760044 0
M  V30 23948 H 2300.78 3.33718 2.04323 0
M  V30 23949 H 2300.4 2.19027 3.31833 0
M  V30 23950 N 2301.4 -0.957948 1.25144 0
M  V30 23951 C 2302.81 -1.51683 1.08854 0
M  V30 23952 C 2303.16 -1.93287 -0.336836 0
M  V30 23953 O 2302.29 -1.78292 -1.22641 0
M  V30 23954 C 2302.88 -2.7565 1.96983 0
M  V30 23955 C 2301.44 -3.27862 1.84887 0
M  V30 23956 C 2300.59 -2.00717 1.91332 0
M  V30 23957 H 2303.54 -0.775196 1.38479 0
M  V30 23958 H 2303.56 -3.49348 1.50786 0
M  V30 23959 H 2303.07 -2.45339 3.00716 0
M  V30 23960 H 2301.17 -3.63002 0.840246 0
M  V30 23961 H 2301.29 -3.96103 2.69517 0
M  V30 23962 H 2299.65 -2.15868 1.35178 0
M  V30 23963 H 2300.43 -1.72758 2.96664 0
M  V30 23964 N 2302.88 -1.06677 -1.16008 0
M  V30 23965 C 2304.11 -0.806701 -1.90525 0
M  V30 23966 C 2304.52 0.639365 -1.77644 0
M  V30 23967 O 2303.88 1.43802 -1.12372 0
M  V30 23968 C 2303.93 -1.19711 -3.41104 0
M  V30 23969 O 2303.65 -2.58643 -3.53604 0
M  V30 23970 C 2305.15 -0.965343 -4.32662 0
M  V30 23971 H 2302.37 -0.292177 -0.604048 0
M  V30 23972 H 2304.92 -1.42142 -1.47023 0
M  V30 23973 H 2303.07 -0.626841 -3.82295 0
M  V30 23974 H 2303.49 -2.74383 -4.47006 0
M  V30 23975 H 2304.96 -1.28809 -5.36761 0
M  V30 23976 H 2305.44 0.0987165 -4.39089 0
M  V30 23977 H 2306.04 -1.52018 -3.97204 0
M  V30 23978 N 2304.36 1.32719 -0.8499 0
M  V30 23979 C 2305.6 1.97415 -0.450957 0
M  V30 23980 C 2305.93 1.6728 0.992347 0
M  V30 23981 O 2305.19 0.950875 1.71046 0
M  V30 23982 C 2305.49 3.5178 -0.631333 0
M  V30 23983 C 2305.15 4.0189 -2.04439 0
M  V30 23984 C 2303.81 4.15285 -2.43087 0
M  V30 23985 C 2306.17 4.28517 -2.96687 0
M  V30 23986 C 2303.49 4.52648 -3.73265 0
M  V30 23987 C 2305.85 4.67335 -4.26357 0
M  V30 23988 C 2304.51 4.78937 -4.64947 0
M  V30 23989 H 2303.78 0.722392 -0.165017 0
M  V30 23990 H 2306.43 1.58205 -1.07904 0
M  V30 23991 H 2304.73 3.91718 0.0800078 0
M  V30 23992 H 2306.43 3.99855 -0.302779 0
M  V30 23993 H 2303.02 3.91946 -1.73426 0
M  V30 23994 H 2307.2 4.17681 -2.68061 0
M  V30 23995 H 2302.46 4.59824 -4.02954 0
M  V30 23996 H 2306.63 4.86893 -4.97904 0
M  V30 23997 H 2304.26 5.07644 -5.65864 0
M  V30 23998 N 2305.84 0.60738 1.45426 0
M  V30 23999 C 2306.77 -0.0988942 2.3329 0
M  V30 24000 C 2307.75 -0.858981 1.46818 0
M  V30 24001 O 2308.93 -0.829573 1.7559 0
M  V30 24002 C 2306.06 -1.09699 3.2952 0
M  V30 24003 C 2305.02 -0.450131 4.25626 0
M  V30 24004 C 2304.34 -1.55646 5.11545 0
M  V30 24005 C 2305.64 0.628546 5.18504 0
M  V30 24006 H 2307.34 0.634767 2.92594 0
M  V30 24007 H 2304.88 0.306706 1.40696 0
M  V30 24008 H 2306.84 -1.59964 3.89858 0
M  V30 24009 H 2305.56 -1.86124 2.68375 0
M  V30 24010 H 2304.22 0.0316531 3.66586 0
M  V30 24011 H 2303.87 -2.31099 4.46769 0
M  V30 24012 H 2303.57 -1.12915 5.76649 0
M  V30 24013 H 2305.09 -2.06138 5.74752 0
M  V30 24014 H 2306.5 0.209978 5.72915 0
M  V30 24015 H 2304.9 0.977593 5.92084 0
M  V30 24016 H 2305.97 1.50522 4.60946 0
M  V30 24017 N 2307.31 -1.53743 0.34653 0
M  V30 24018 C 2308.26 -2.21875 -0.524914 0
M  V30 24019 C 2309.25 -1.2072 -1.06374 0
M  V30 24020 O 2310.44 -1.46253 -0.996946 0
M  V30 24021 C 2307.57 -2.99729 -1.67384 0
M  V30 24022 C 2306.66 -4.08244 -1.14881 0
M  V30 24023 N 2307.05 -5.0462 -0.34524 0
M  V30 24024 C 2305.34 -4.22608 -1.42542 0
M  V30 24025 C 2306.05 -5.81669 -0.0599684 0
M  V30 24026 N 2305.02 -5.39671 -0.652425 0
M  V30 24027 H 2308.82 -2.93743 0.0960607 0
M  V30 24028 H 2306.34 -1.61672 0.153548 0
M  V30 24029 H 2308.33 -3.47042 -2.31014 0
M  V30 24030 H 2306.99 -2.29388 -2.29807 0
M  V30 24031 H 2308.01 -5.17898 0.0139349 0
M  V30 24032 H 2304.68 -3.63489 -2.05382 0
M  V30 24033 H 2306.07 -6.69318 0.588439 0
M  V30 24034 N 2308.79 -0.0752207 -1.5742 0
M  V30 24035 C 2310.21 0.281417 -1.57099 0
M  V30 24036 C 2310.41 1.69801 -1.08489 0
M  V30 24037 O 2309.46 2.41032 -0.752321 0
M  V30 24038 C 2310.78 0.0879513 -3.00571 0
M  V30 24039 C 2312.33 0.157226 -3.12605 0
M  V30 24040 C 2312.8 -0.00800121 -4.57999 0
M  V30 24041 N 2314.29 0.0474911 -4.63176 0
M  V30 24042 C 2315.03 -0.0558884 -5.73373 0
M  V30 24043 N 2314.52 -0.212982 -6.92473 0
M  V30 24044 N 2316.32 0.00142217 -5.621 0
M  V30 24045 H 2308.47 -1.00101 -1.87333 0
M  V30 24046 H 2310.73 -0.390662 -0.863764 0
M  V30 24047 H 2310.44 -0.889689 -3.40261 0
M  V30 24048 H 2310.31 0.83881 -3.67755 0
M  V30 24049 H 2312.7 1.12536 -2.728 0
M  V30 24050 H 2312.78 -0.624793 -2.48052 0
M  V30 24051 H 2312.42 -0.972912 -4.98495 0
M  V30 24052 H 2312.35 0.793465 -5.20588 0
M  V30 24053 H 2314.84 0.167178 -3.7753 0
M  V30 24054 H 2315.16 -0.283917 -7.72278 0
M  V30 24055 H 2313.5 -0.248389 -6.94556 0
M  V30 24056 H 2316.69 0.122876 -4.67939 0
M  V30 24057 H 2316.86 -0.0825983 -6.47947 0
M  V30 24058 N 2310.27 1.56347 0.198358 0
M  V30 24059 C 2311.52 1.80433 0.919255 0
M  V30 24060 C 2311.85 0.647898 1.83392 0
M  V30 24061 O 2311.1 -0.366522 1.92237 0
M  V30 24062 C 2311.4 3.10478 1.77025 0
M  V30 24063 C 2311.07 4.39515 1.00685 0
M  V30 24064 C 2309.73 4.7457 0.796062 0
M  V30 24065 C 2312.08 5.19081 0.469468 0
M  V30 24066 C 2309.41 5.86689 0.0363557 0
M  V30 24067 C 2311.76 6.31993 -0.277011 0
M  V30 24068 C 2310.42 6.65633 -0.498847 0
M  V30 24069 H 2309.69 0.66025 0.336379 0
M  V30 24070 H 2312.34 1.90596 0.185839 0
M  V30 24071 H 2310.65 2.95538 2.57225 0
M  V30 24072 H 2312.34 3.26319 2.33059 0
M  V30 24073 H 2308.93 4.12003 1.18115 0
M  V30 24074 H 2313.12 4.92416 0.619729 0
M  V30 24075 H 2308.37 6.11227 -0.14552 0
M  V30 24076 H 2312.55 6.92865 -0.700806 0
M  V30 24077 H 2310.17 7.52353 -1.08943 0
M  V30 24078 N 2311.75 -0.465951 1.50554 0
M  V30 24079 C 2312.98 -1.239 1.65325 0
M  V30 24080 C 2313.39 -1.86155 0.338084 0
M  V30 24081 O 2312.73 -1.70229 -0.690488 0
M  V30 24082 C 2312.79 -2.38435 2.69052 0
M  V30 24083 C 2312.46 -1.96777 4.12465 0
M  V30 24084 C 2313.45 -1.48736 4.9817 0
M  V30 24085 C 2311.14 -2.05341 4.58411 0
M  V30 24086 C 2313.13 -1.09809 6.2787 0
M  V30 24087 C 2310.82 -1.66025 5.88115 0
M  V30 24088 C 2311.82 -1.18338 6.7267 0
M  V30 24089 O 2311.5 -0.795684 7.99953 0
M  V30 24090 H 2311.24 -0.38066 0.558636 0
M  V30 24091 H 2313.79 -0.561987 1.97562 0
M  V30 24092 H 2312.02 -3.09324 2.32068 0
M  V30 24093 H 2313.71 -3.00385 2.7299 0
M  V30 24094 H 2314.48 -1.41538 4.63888 0
M  V30 24095 H 2310.35 -2.41407 3.92739 0
M  V30 24096 H 2313.9 -0.725171 6.93821 0
M  V30 24097 H 2309.8 -1.72884 6.21917 0
M  V30 24098 H 2310.56 -0.924079 8.13267 0
M  V30 24099 N 2313.23 -1.40218 -0.719481 0
M  V30 24100 C 2314.45 -1.41783 -1.51368 0
M  V30 24101 C 2314.88 -0.0182685 -1.88091 0
M  V30 24102 O 2314.23 0.97268 -1.52999 0
M  V30 24103 C 2314.28 -2.3112 -2.76796 0
M  V30 24104 O 2313.39 -1.75177 -3.73345 0
M  V30 24105 H 2312.73 -0.482167 -0.456521 0
M  V30 24106 H 2315.26 -1.84402 -0.886408 0
M  V30 24107 H 2315.27 -2.46172 -3.25366 0
M  V30 24108 H 2313.94 -3.32824 -2.49401 0
M  V30 24109 H 2312.52 -1.6945 -3.32176 0
M  V30 24110 N 2314.7 0.951297 -1.25651 0
M  V30 24111 C 2315.63 2.06597 -1.08812 0
M  V30 24112 C 2316.62 1.701 0.00379557 0
M  V30 24113 O 2317.8 1.93486 -0.166359 0
M  V30 24114 C 2314.93 3.39973 -0.709602 0
M  V30 24115 C 2313.88 3.90493 -1.75212 0
M  V30 24116 C 2313.21 5.20403 -1.2282 0
M  V30 24117 C 2314.51 4.16499 -3.1516 0
M  V30 24118 H 2316.2 2.20942 -2.02052 0
M  V30 24119 H 2313.75 1.06168 -0.972854 0
M  V30 24120 H 2315.7 4.17407 -0.578722 0
M  V30 24121 H 2314.43 3.25575 0.258499 0
M  V30 24122 H 2313.09 3.15231 -1.8715 0
M  V30 24123 H 2312.73 5.02377 -0.250233 0
M  V30 24124 H 2312.43 5.55173 -1.92501 0
M  V30 24125 H 2313.96 6.0043 -1.10978 0
M  V30 24126 H 2315.37 4.8458 -3.06357 0
M  V30 24127 H 2313.77 4.62531 -3.82342 0
M  V30 24128 H 2314.84 3.22652 -3.61972 0
M  V30 24129 N 2316.18 1.07291 1.1544 0
M  V30 24130 C 2317.13 0.692691 2.2016 0
M  V30 24131 C 2318.1 -0.315611 1.63074 0
M  V30 24132 O 2319.28 -0.202202 1.89726 0
M  V30 24133 C 2316.42 0.0960115 3.44966 0
M  V30 24134 C 2315.54 1.15571 4.16254 0
M  V30 24135 C 2314.67 0.524104 5.28608 0
M  V30 24136 C 2313.71 1.56664 5.91712 0
M  V30 24137 N 2312.85 0.957653 6.95538 0
M  V30 24138 H 2317.69 1.59006 2.52034 0
M  V30 24139 H 2315.23 0.79482 1.23778 0
M  V30 24140 H 2317.18 -0.267555 4.16341 0
M  V30 24141 H 2315.81 -0.764717 3.13611 0
M  V30 24142 H 2314.87 1.63686 3.43382 0
M  V30 24143 H 2316.18 1.94621 4.59265 0
M  V30 24144 H 2315.33 0.108138 6.06604 0
M  V30 24145 H 2314.07 -0.298165 4.86788 0
M  V30 24146 H 2313.08 1.99239 5.12429 0
M  V30 24147 H 2314.3 2.39118 6.35609 0
M  V30 24148 H 2312.25 0.156277 6.55814 0
M  V30 24149 H 2312.16 1.68539 7.36974 0
M  V30 24150 H 2313.43 0.567169 7.77434 0
M  V30 24151 N 2317.66 -1.32267 0.856927 0
M  V30 24152 C 2318.62 -2.27118 0.308211 0
M  V30 24153 C 2319.62 -1.51696 -0.533394 0
M  V30 24154 O 2320.81 -1.70758 -0.344577 0
M  V30 24155 C 2317.95 -3.36207 -0.563698 0
M  V30 24156 H 2319.14 -2.77165 1.1454 0
M  V30 24157 H 2316.69 -1.42977 0.631446 0
M  V30 24158 H 2317.43 -2.91432 -1.42261 0
M  V30 24159 H 2317.21 -3.92081 0.0387439 0
M  V30 24160 H 2318.7 -4.06876 -0.940315 0
M  V30 24161 N 2319.14 -0.615084 -1.45102 0
M  V30 24162 C 2320.1 0.0895082 -2.29025 0
M  V30 24163 C 2321.1 0.787882 -1.40175 0
M  V30 24164 O 2322.29 0.634905 -1.62218 0
M  V30 24165 C 2319.42 1.13706 -3.21378 0
M  V30 24166 H 2320.62 -0.648433 -2.92806 0
M  V30 24167 H 2318.17 -0.37447 -1.51748 0
M  V30 24168 H 2318.9 1.90552 -2.62413 0
M  V30 24169 H 2318.69 0.640407 -3.86835 0
M  V30 24170 H 2320.18 1.6303 -3.84462 0
M  V30 24171 N 2320.62 1.53557 -0.354678 0
M  V30 24172 C 2321.86 2.0139 0.238761 0
M  V30 24173 C 2322.2 1.24182 1.49306 0
M  V30 24174 O 2321.47 0.332491 1.91637 0
M  V30 24175 C 2321.75 3.56002 0.541709 0
M  V30 24176 C 2321.61 4.43911 -0.725466 0
M  V30 24177 C 2322.93 4.18987 1.34678 0
M  V30 24178 H 2320.05 0.732047 0.0853048 0
M  V30 24179 H 2322.69 1.83904 -0.477416 0
M  V30 24180 H 2320.84 3.71033 1.15183 0
M  V30 24181 H 2322.51 4.40698 -1.36321 0
M  V30 24182 H 2320.75 4.12322 -1.34808 0
M  V30 24183 H 2321.42 5.50007 -0.468602 0
M  V30 24184 H 2323.9 4.07722 0.830765 0
M  V30 24185 H 2322.78 5.27218 1.5275 0
M  V30 24186 H 2323.04 3.74335 2.35214 0
M  V30 24187 N 2322.1 0.083568 1.57378 0
M  V30 24188 C 2323.05 -0.889868 2.09917 0
M  V30 24189 C 2324.03 -1.25127 1.01154 0
M  V30 24190 O 2325.22 -1.22828 1.27445 0
M  V30 24191 C 2322.35 -2.15317 2.67383 0
M  V30 24192 C 2321.44 -1.81772 3.83171 0
M  V30 24193 N 2321.83 -1.18731 4.91667 0
M  V30 24194 C 2320.13 -2.11452 3.92688 0
M  V30 24195 C 2320.83 -1.0354 5.72411 0
M  V30 24196 N 2319.8 -1.54896 5.21064 0
M  V30 24197 H 2323.6 -0.398327 2.91188 0
M  V30 24198 H 2321.12 -0.119985 1.61956 0
M  V30 24199 H 2323.12 -2.85985 3.03345 0
M  V30 24200 H 2321.78 -2.65048 1.87563 0
M  V30 24201 H 2322.79 -0.855514 5.10785 0
M  V30 24202 H 2319.46 -2.63478 3.23861 0
M  V30 24203 H 2320.85 -0.543307 6.697 0
M  V30 24204 N 2323.57 -1.5645 -0.190064 0
M  V30 24205 C 2324.52 -1.94944 -1.23553 0
M  V30 24206 C 2325.49 -0.810722 -1.44971 0
M  V30 24207 O 2326.68 -1.0693 -1.58021 0
M  V30 24208 C 2323.82 -2.29854 -2.57412 0
M  V30 24209 C 2322.93 -3.56815 -2.43531 0
M  V30 24210 C 2322.06 -3.81024 -3.70128 0
M  V30 24211 C 2321.1 -5.01393 -3.511 0
M  V30 24212 N 2320.24 -5.2183 -4.69721 0
M  V30 24213 H 2325.08 -2.84076 -0.900254 0
M  V30 24214 H 2322.62 -1.40578 -0.433155 0
M  V30 24215 H 2324.57 -2.48112 -3.35404 0
M  V30 24216 H 2323.2 -1.43857 -2.88973 0
M  V30 24217 H 2322.26 -3.46576 -1.5681 0
M  V30 24218 H 2323.57 -4.44964 -2.25407 0
M  V30 24219 H 2322.72 -3.99548 -4.56559 0
M  V30 24220 H 2321.46 -2.91214 -3.9121 0
M  V30 24221 H 2320.47 -4.82786 -2.63054 0
M  V30 24222 H 2321.69 -5.92716 -3.31458 0
M  V30 24223 H 2319.64 -4.34969 -4.91058 0
M  V30 24224 H 2319.55 -6.04168 -4.54442 0
M  V30 24225 H 2320.82 -5.44817 -5.57489 0
M  V30 24226 N 2325.05 0.45796 -1.50799 0
M  V30 24227 C 2326.3 1.20789 -1.63651 0
M  V30 24228 C 2326.65 1.89395 -0.338695 0
M  V30 24229 O 2325.95 1.79717 0.66426 0
M  V30 24230 C 2326.14 2.26625 -2.76362 0
M  V30 24231 C 2325.97 1.68404 -4.16977 0
M  V30 24232 C 2324.74 1.47799 -4.83201 0
M  V30 24233 C 2326.94 1.17167 -5.00776 0
M  V30 24234 N 2324.92 0.849585 -6.07993 0
M  V30 24235 C 2326.29 0.667295 -6.16399 0
M  V30 24236 C 2328.34 1.06146 -4.86454 0
M  V30 24237 C 2327.05 0.0635644 -7.19272 0
M  V30 24238 C 2329.07 0.471655 -5.89516 0
M  V30 24239 C 2328.44 -0.0222795 -7.04396 0
M  V30 24240 H 2324.53 0.430409 -0.652895 0
M  V30 24241 H 2327.12 0.507752 -1.87963 0
M  V30 24242 H 2325.29 2.94051 -2.53749 0
M  V30 24243 H 2327.02 2.93631 -2.78501 0
M  V30 24244 H 2323.78 1.73395 -4.40717 0
M  V30 24245 H 2324.2 0.553419 -6.74734 0
M  V30 24246 H 2328.84 1.42925 -3.9791 0
M  V30 24247 H 2326.56 -0.316395 -8.0748 0
M  V30 24248 H 2330.15 0.388569 -5.80501 0
M  V30 24249 H 2329.03 -0.471513 -7.82781 0
M  V30 24250 N 2326.53 1.40598 0.712035 0
M  V30 24251 C 2327.48 1.41145 1.82611 0
M  V30 24252 C 2328.45 0.267932 1.63925 0
M  V30 24253 O 2329.63 0.466527 1.85009 0
M  V30 24254 C 2326.77 1.2833 3.20352 0
M  V30 24255 C 2325.88 2.52417 3.50585 0
M  V30 24256 C 2325.02 2.32017 4.77851 0
M  V30 24257 C 2324.06 3.51663 5.00999 0
M  V30 24258 N 2323.2 3.30436 6.19481 0
M  V30 24259 H 2328.04 2.36368 1.81478 0
M  V30 24260 H 2325.57 1.1739 0.886455 0
M  V30 24261 H 2327.53 1.18906 3.99897 0
M  V30 24262 H 2326.16 0.367245 3.20704 0
M  V30 24263 H 2325.21 2.72356 2.65568 0
M  V30 24264 H 2326.52 3.41464 3.63598 0
M  V30 24265 H 2325.68 2.19966 5.6542 0
M  V30 24266 H 2324.42 1.40401 4.67054 0
M  V30 24267 H 2323.42 3.64187 4.11884 0
M  V30 24268 H 2324.65 4.44211 5.13666 0
M  V30 24269 H 2322.59 2.41505 6.09927 0
M  V30 24270 H 2322.51 4.1305 6.33187 0
M  V30 24271 H 2323.78 3.22125 7.09828 0
M  V30 24272 N 2328.01 -0.94462 1.26153 0
M  V30 24273 C 2328.94 -2.04269 1.01732 0
M  V30 24274 C 2329.92 -1.62501 -0.0567816 0
M  V30 24275 O 2331.1 -1.88309 0.0849318 0
M  V30 24276 C 2328.23 -3.3437 0.539851 0
M  V30 24277 C 2327.28 -3.95108 1.606 0
M  V30 24278 S 2328.11 -4.29819 3.19399 0
M  V30 24279 C 2329.26 -5.63025 2.73412 0
M  V30 24280 H 2329.5 -2.2467 1.94707 0
M  V30 24281 H 2327.03 -1.08556 1.09795 0
M  V30 24282 H 2328.99 -4.09604 0.271028 0
M  V30 24283 H 2327.65 -3.11918 -0.369554 0
M  V30 24284 H 2326.84 -4.8894 1.22284 0
M  V30 24285 H 2326.44 -3.26393 1.82602 0
M  V30 24286 H 2328.74 -6.41584 2.17661 0
M  V30 24287 H 2329.68 -6.06222 3.65924 0
M  V30 24288 H 2330.09 -5.22737 2.13087 0
M  V30 24289 N 2329.49 -1.07901 -1.1487 0
M  V30 24290 C 2330.73 -0.806758 -1.86063 0
M  V30 24291 C 2331.06 0.665674 -1.82435 0
M  V30 24292 O 2330.34 1.48896 -1.2514 0
M  V30 24293 C 2330.62 -1.32273 -3.34927 0
M  V30 24294 C 2330.48 -2.86012 -3.47156 0
M  V30 24295 C 2331.79 -0.943792 -4.29861 0
M  V30 24296 H 2328.91 -0.294537 -0.675586 0
M  V30 24297 H 2331.56 -1.33775 -1.34923 0
M  V30 24298 H 2329.71 -0.87104 -3.78609 0
M  V30 24299 H 2331.38 -3.39512 -3.12296 0
M  V30 24300 H 2329.62 -3.2393 -2.88533 0
M  V30 24301 H 2330.29 -3.17185 -4.51772 0
M  V30 24302 H 2332.77 -1.33309 -3.94167 0
M  V30 24303 H 2331.64 -1.33207 -5.32491 0
M  V30 24304 H 2331.9 0.149719 -4.41846 0
M  V30 24305 N 2330.96 1.31811 -0.863929 0
M  V30 24306 C 2332.21 1.97217 -0.47257 0
M  V30 24307 C 2332.54 1.68161 0.971364 0
M  V30 24308 O 2331.82 0.974827 1.68307 0
M  V30 24309 C 2332.1 3.52765 -0.723116 0
M  V30 24310 C 2331.95 3.91417 -2.21614 0
M  V30 24311 C 2333.27 4.39708 -0.185599 0
M  V30 24312 H 2330.39 0.716366 -0.173171 0
M  V30 24313 H 2333.03 1.56039 -1.08406 0
M  V30 24314 H 2331.18 3.87971 -0.202645 0
M  V30 24315 H 2332.86 3.66343 -2.80341 0
M  V30 24316 H 2331.1 3.40241 -2.69106 0
M  V30 24317 H 2331.77 4.99849 -2.34212 0
M  V30 24318 H 2334.25 4.11291 -0.630798 0
M  V30 24319 H 2333.12 5.4751 -0.390402 0
M  V30 24320 H 2333.38 4.32588 0.912153 0
M  V30 24321 N 2332.44 0.62277 1.44773 0
M  V30 24322 C 2333.68 0.127138 2.04004 0
M  V30 24323 C 2334.05 -1.22475 1.47864 0
M  V30 24324 O 2335.25 -1.81201 1.98544 0
M  V30 24325 C 2333.52 0.104492 3.57247 0
M  V30 24326 S 2335.08 -0.327738 4.37574 0
M  V30 24327 H 2331.89 0.0569901 0.708712 0
M  V30 24328 H 2334.5 0.824284 1.77273 0
M  V30 24329 H 2333.2 1.09166 3.95615 0
M  V30 24330 H 2332.73 -0.614168 3.88576 0
M  V30 24331 H 2334.75 -1.57387 4.70578 0
M  V30 24332 N 2333.92 -1.53367 0.362817 0
M  V30 24333 C 2335.2 -1.93527 -0.283987 0
M  V30 24334 C 2335.58 -1.29611 -1.66626 0
M  V30 24335 O 2334.92 -0.454169 -2.23941 0
M  V30 24336 C 2335.13 -3.47369 -0.336967 0
M  V30 24337 C 2336.48 -4.20639 -0.578634 0
M  V30 24338 O 2337.51 -3.53735 -0.41829 0
M  V30 24339 O 2336.37 -5.39194 -0.890645 0
M  V30 24340 H 2333.46 -0.809396 -0.169729 0
M  V30 24341 H 2336.01 -1.64537 0.415399 0
M  V30 24342 H 2334.78 -3.86158 0.632285 0
M  V30 24343 H 2334.4 -3.82584 -1.08236 0
M  V30 24344 N 2335.4 -0.091913 -1.57332 0
M  V30 24345 C 2336.35 0.868173 -2.13849 0
M  V30 24346 C 2337.32 1.28194 -1.0562 0
M  V30 24347 O 2338.5 1.36425 -1.3339 0
M  V30 24348 C 2335.64 2.12307 -2.72065 0
M  V30 24349 C 2334.75 1.76013 -3.94517 0
M  V30 24350 C 2333.89 2.96265 -4.40908 0
M  V30 24351 C 2332.93 2.56082 -5.55957 0
M  V30 24352 N 2332.06 3.69159 -5.97215 0
M  V30 24353 H 2336.9 0.379354 -2.95576 0
M  V30 24354 H 2334.44 0.17558 -1.46048 0
M  V30 24355 H 2336.4 2.85795 -3.03936 0
M  V30 24356 H 2335.03 2.58695 -1.93072 0
M  V30 24357 H 2334.08 0.92507 -3.68981 0
M  V30 24358 H 2335.39 1.42464 -4.78022 0
M  V30 24359 H 2334.55 3.78009 -4.74546 0
M  V30 24360 H 2333.29 3.33022 -3.56297 0
M  V30 24361 H 2332.29 1.72764 -5.21951 0
M  V30 24362 H 2333.52 2.20473 -6.42315 0
M  V30 24363 H 2331.46 4.0564 -5.1555 0
M  V30 24364 H 2331.38 3.39444 -6.7551 0
M  V30 24365 H 2332.65 4.51423 -6.35482 0
M  V30 24366 N 2336.88 1.56548 0.181765 0
M  V30 24367 C 2338.12 1.81666 0.901399 0
M  V30 24368 C 2338.46 0.668107 1.82346 0
M  V30 24369 O 2337.73 -0.330581 1.9167 0
M  V30 24370 C 2338.01 3.17118 1.70612 0
M  V30 24371 C 2337.87 4.42485 0.807886 0
M  V30 24372 C 2339.19 3.49398 2.67599 0
M  V30 24373 H 2336.3 0.660851 0.326258 0
M  V30 24374 H 2338.95 1.89255 0.168101 0
M  V30 24375 H 2337.1 3.10779 2.33128 0
M  V30 24376 H 2338.77 4.60882 0.196409 0
M  V30 24377 H 2337.01 4.33647 0.115334 0
M  V30 24378 H 2337.68 5.33788 1.40623 0
M  V30 24379 H 2340.16 3.56122 2.15212 0
M  V30 24380 H 2339.03 4.45269 3.20977 0
M  V30 24381 H 2339.3 2.73569 3.47293 0
M  V30 24382 N 2338.35 -0.449957 1.5104 0
M  V30 24383 C 2339.77 -0.785438 1.38935 0
M  V30 24384 C 2339.97 -1.96136 0.461851 0
M  V30 24385 O 2339.03 -2.52348 -0.0876945 0
M  V30 24386 C 2340.34 -1.07765 2.80726 0
M  V30 24387 C 2341.89 -1.18285 2.89789 0
M  V30 24388 C 2342.36 -1.50807 4.32459 0
M  V30 24389 N 2343.85 -1.57757 4.35508 0
M  V30 24390 C 2344.59 -1.84468 5.42917 0
M  V30 24391 N 2344.08 -2.09056 6.60505 0
M  V30 24392 N 2345.88 -1.86146 5.30383 0
M  V30 24393 H 2338.03 0.324684 2.09904 0
M  V30 24394 H 2340.29 0.0828123 0.944376 0
M  V30 24395 H 2340 -0.286437 3.50532 0
M  V30 24396 H 2339.87 -2.00853 3.19277 0
M  V30 24397 H 2342.26 -1.96471 2.20189 0
M  V30 24398 H 2342.34 -0.231269 2.54752 0
M  V30 24399 H 2341.98 -0.731534 5.02604 0
M  V30 24400 H 2341.91 -2.4715 4.64999 0
M  V30 24401 H 2344.4 -1.40709 3.50727 0
M  V30 24402 H 2344.72 -2.28772 7.38162 0
M  V30 24403 H 2343.06 -2.06405 6.63643 0
M  V30 24404 H 2346.25 -1.66447 4.37508 0
M  V30 24405 H 2346.43 -2.06626 6.14174 0
M  V30 24406 N 2339.83 -1.40974 -0.704569 0
M  V30 24407 C 2341.06 -1.4338 -1.49856 0
M  V30 24408 C 2341.48 -0.0382171 -1.88061 0
M  V30 24409 O 2340.84 0.956398 -1.54022 0
M  V30 24410 C 2340.89 -2.34043 -2.74329 0
M  V30 24411 O 2339.99 -1.79127 -3.71466 0
M  V30 24412 H 2339.33 -0.486982 -0.451381 0
M  V30 24413 H 2341.86 -1.85331 -0.8668 0
M  V30 24414 H 2341.87 -2.49609 -3.22737 0
M  V30 24415 H 2340.55 -3.35451 -2.45857 0
M  V30 24416 H 2339.13 -1.72964 -3.3036 0
M  V30 24417 N 2341.31 0.937917 -1.26653 0
M  V30 24418 C 2342.24 2.05431 -1.10997 0
M  V30 24419 C 2343.22 1.70094 -0.014246 0
M  V30 24420 O 2344.41 1.93299 -0.186871 0
M  V30 24421 C 2341.54 3.39202 -0.745621 0
M  V30 24422 C 2340.49 3.88612 -1.79344 0
M  V30 24423 C 2339.82 5.19071 -1.28333 0
M  V30 24424 C 2341.12 4.13133 -3.1956 0
M  V30 24425 H 2342.81 2.18787 -2.04384 0
M  V30 24426 H 2340.36 1.0513 -0.98406 0
M  V30 24427 H 2342.31 4.1677 -0.622961 0
M  V30 24428 H 2341.03 3.25831 0.223953 0
M  V30 24429 H 2339.69 3.13228 -1.90483 0
M  V30 24430 H 2339.34 5.02084 -0.303503 0
M  V30 24431 H 2339.04 5.531 -1.98379 0
M  V30 24432 H 2340.56 5.99219 -1.1734 0
M  V30 24433 H 2341.98 4.81304 -3.1148 0
M  V30 24434 H 2340.38 4.5845 -3.87226 0
M  V30 24435 H 2341.45 3.18794 -3.65374 0
M  V30 24436 N 2342.79 1.08509 1.14296 0
M  V30 24437 C 2343.74 0.716003 2.19413 0
M  V30 24438 C 2344.71 -0.298297 1.634 0
M  V30 24439 O 2345.89 -0.182067 1.89929 0
M  V30 24440 C 2343.03 0.132594 3.44845 0
M  V30 24441 C 2342.14 1.1998 4.15005 0
M  V30 24442 C 2341.28 0.580141 5.28023 0
M  V30 24443 C 2340.32 1.62931 5.90017 0
M  V30 24444 N 2339.45 1.03137 6.94483 0
M  V30 24445 H 2344.29 1.6167 2.50333 0
M  V30 24446 H 2341.83 0.807904 1.22928 0
M  V30 24447 H 2343.79 -0.223381 4.16602 0
M  V30 24448 H 2342.42 -0.731412 3.14405 0
M  V30 24449 H 2341.47 1.67319 3.41626 0
M  V30 24450 H 2342.78 1.99481 4.57175 0
M  V30 24451 H 2341.94 0.172471 6.06455 0
M  V30 24452 H 2340.68 -0.246518 4.87077 0
M  V30 24453 H 2339.68 2.04663 5.10287 0
M  V30 24454 H 2340.91 2.45846 6.33037 0
M  V30 24455 H 2338.85 0.225826 6.55611 0
M  V30 24456 H 2338.77 1.76347 7.35145 0
M  V30 24457 H 2340.04 0.649594 7.76789 0
M  V30 24458 N 2344.27 -1.31351 0.870907 0
M  V30 24459 C 2345.2 -2.30965 0.343137 0
M  V30 24460 C 2346.18 -1.6039 -0.566479 0
M  V30 24461 O 2347.36 -1.8809 -0.483303 0
M  V30 24462 C 2344.49 -3.44301 -0.455426 0
M  V30 24463 C 2343.45 -4.26473 0.361178 0
M  V30 24464 C 2342.77 -5.31726 -0.563127 0
M  V30 24465 C 2344.07 -4.97326 1.59575 0
M  V30 24466 H 2345.77 -2.75357 1.17553 0
M  V30 24467 H 2343.31 -1.3238 0.566709 0
M  V30 24468 H 2345.27 -4.13041 -0.835178 0
M  V30 24469 H 2343.99 -2.98678 -1.32134 0
M  V30 24470 H 2342.65 -3.59402 0.722888 0
M  V30 24471 H 2342.3 -4.82353 -1.42634 0
M  V30 24472 H 2342 -5.87596 -0.0206376 0
M  V30 24473 H 2343.52 -6.03326 -0.939702 0
M  V30 24474 H 2344.93 -5.58659 1.28738 0
M  V30 24475 H 2343.33 -5.62996 2.07738 0
M  V30 24476 H 2344.4 -4.24258 2.34805 0
M  V30 24477 N 2345.74 -0.630439 -1.44441 0
M  V30 24478 C 2346.97 -0.13998 -2.06927 0
M  V30 24479 C 2347.39 1.1761 -1.46797 0
M  V30 24480 O 2346.75 1.72134 -0.569174 0
M  V30 24481 C 2346.8 -0.0380215 -3.6058 0
M  V30 24482 O 2345.9 1.00613 -3.99939 0
M  V30 24483 H 2345.25 -0.0844599 -0.658607 0
M  V30 24484 H 2347.78 -0.866923 -1.85326 0
M  V30 24485 H 2347.79 0.152784 -4.07714 0
M  V30 24486 H 2346.46 -0.99888 -4.03727 0
M  V30 24487 H 2345.04 0.789946 -3.64437 0
M  V30 24488 N 2347.22 1.53172 -0.370945 0
M  V30 24489 C 2348.5 1.93675 0.27372 0
M  V30 24490 C 2348.88 1.30493 1.65936 0
M  V30 24491 O 2348.23 0.466039 2.23697 0
M  V30 24492 C 2348.44 3.47543 0.31854 0
M  V30 24493 C 2349.79 4.2094 0.556318 0
M  V30 24494 O 2350.81 3.53952 0.399525 0
M  V30 24495 O 2349.67 5.39658 0.862038 0
M  V30 24496 H 2346.76 0.810284 0.165434 0
M  V30 24497 H 2349.31 1.64315 -0.424119 0
M  V30 24498 H 2348.08 3.85817 -0.652755 0
M  V30 24499 H 2347.7 3.83153 1.06206 0
M  V30 24500 N 2348.7 0.100255 1.57281 0
M  V30 24501 C 2349.65 -0.87429 2.15543 0
M  V30 24502 C 2350.64 -1.28857 1.09964 0
M  V30 24503 O 2351.85 -1.2625 1.283 0
M  V30 24504 H 2348.22 -0.299991 0.689572 0
M  V30 24505 H 2350.19 -0.358238 2.96242 0
M  V30 24506 C 2348.94 -2.12175 2.75458 0
M  V30 24507 H 2348.27 -1.81186 3.56387 0
M  V30 24508 H 2349.71 -2.78412 3.19786 0
M  V30 24509 C 2348.17 -2.89918 1.71607 0
M  V30 24510 O 2348.7 -3.84644 1.15811 0
M  V30 24511 N 2346.9 -2.53555 1.41979 0
M  V30 24512 H 2346.45 -1.76595 1.87542 0
M  V30 24513 H 2346.41 -3.05871 0.727328 0
M  V30 24514 N 2350.18 -1.56643 -0.17346 0
M  V30 24515 C 2351.13 -1.9716 -1.23413 0
M  V30 24516 C 2352.12 -0.860039 -1.45944 0
M  V30 24517 O 2353.33 -1.04514 -1.46549 0
M  V30 24518 H 2349.7 -0.627247 -0.414807 0
M  V30 24519 H 2351.67 -2.85572 -0.865531 0
M  V30 24520 C 2350.42 -2.34581 -2.56646 0
M  V30 24521 H 2349.75 -3.19651 -2.40131 0
M  V30 24522 H 2351.19 -2.66776 -3.29555 0
M  V30 24523 C 2349.64 -1.18842 -3.15243 0
M  V30 24524 O 2350.17 -0.474939 -3.98882 0
M  V30 24525 N 2348.38 -0.959545 -2.74301 0
M  V30 24526 H 2347.93 -1.54149 -2.06387 0
M  V30 24527 H 2347.89 -0.186987 -3.13843 0
M  V30 24528 N 2351.66 0.44194 -1.51277 0
M  V30 24529 C 2352.9 1.20129 -1.65374 0
M  V30 24530 C 2353.26 1.88597 -0.359905 0
M  V30 24531 O 2354.46 2.66149 -0.376598 0
M  V30 24532 C 2352.73 2.19475 -2.82073 0
M  V30 24533 S 2354.29 3.03958 -3.16473 0
M  V30 24534 H 2351.11 0.407443 -0.582676 0
M  V30 24535 H 2353.71 0.493576 -1.89167 0
M  V30 24536 H 2352.42 1.67806 -3.74525 0
M  V30 24537 H 2351.95 2.94834 -2.60455 0
M  V30 24538 H 2353.96 4.21048 -2.6255 0
M  V30 24539 N 2353.14 1.41345 0.697083 0
M  V30 24540 C 2354.37 1.43765 1.48375 0
M  V30 24541 C 2354.77 0.0409058 1.89156 0
M  V30 24542 O 2354.12 -0.949785 1.57241 0
M  V30 24543 C 2354.18 2.28175 2.77806 0
M  V30 24544 C 2353.84 3.76357 2.59238 0
M  V30 24545 C 2354.84 4.68555 2.25283 0
M  V30 24546 C 2352.52 4.20382 2.74925 0
M  V30 24547 C 2354.52 6.02764 2.07253 0
M  V30 24548 C 2352.21 5.54658 2.56512 0
M  V30 24549 C 2353.2 6.45664 2.22726 0
M  V30 24550 O 2352.89 7.77462 2.04471 0
M  V30 24551 H 2352.62 0.491767 0.463833 0
M  V30 24552 H 2355.18 1.86256 0.865901 0
M  V30 24553 H 2353.41 1.80496 3.41992 0
M  V30 24554 H 2355.1 2.22315 3.39604 0
M  V30 24555 H 2355.86 4.35832 2.12779 0
M  V30 24556 H 2351.74 3.49853 3.00207 0
M  V30 24557 H 2355.29 6.73762 1.80805 0
M  V30 24558 H 2351.18 5.86959 2.68605 0
M  V30 24559 H 2351.95 7.8859 2.19246 0
M  V30 24560 N 2354.61 -0.931187 1.27148 0
M  V30 24561 C 2355.54 -2.0484 1.12085 0
M  V30 24562 C 2356.52 -1.70084 0.0232663 0
M  V30 24563 O 2357.71 -1.93197 0.197119 0
M  V30 24564 C 2354.84 -3.38801 0.763599 0
M  V30 24565 C 2353.79 -3.87656 1.81403 0
M  V30 24566 C 2353.12 -5.18383 1.31084 0
M  V30 24567 C 2354.42 -4.11432 3.21747 0
M  V30 24568 H 2356.11 -2.177 2.05541 0
M  V30 24569 H 2353.66 -1.04606 0.989621 0
M  V30 24570 H 2355.61 -4.16434 0.645055 0
M  V30 24571 H 2354.34 -3.25945 -0.20667 0
M  V30 24572 H 2353 -3.12213 1.92141 0
M  V30 24573 H 2352.64 -5.01916 0.330125 0
M  V30 24574 H 2352.34 -5.5204 2.01309 0
M  V30 24575 H 2353.87 -5.98588 1.20517 0
M  V30 24576 H 2355.28 -4.79645 3.14028 0
M  V30 24577 H 2353.68 -4.5639 3.89652 0
M  V30 24578 H 2354.75 -3.16852 3.67059 0
M  V30 24579 N 2356.09 -1.09114 -1.13719 0
M  V30 24580 C 2357.04 -0.722258 -2.21102 0
M  V30 24581 C 2358.03 0.275344 -1.67147 0
M  V30 24582 O 2359.24 0.137144 -1.79477 0
M  V30 24583 H 2355.61 -0.215565 -0.720441 0
M  V30 24584 H 2357.59 -1.63714 -2.4948 0
M  V30 24585 C 2356.33 -0.155491 -3.47352 0
M  V30 24586 H 2355.66 -0.914314 -3.89205 0
M  V30 24587 H 2357.1 0.0647221 -4.23951 0
M  V30 24588 C 2355.56 1.10847 -3.18142 0
M  V30 24589 O 2356.09 2.19221 -3.36608 0
M  V30 24590 N 2354.29 1.02171 -2.72047 0
M  V30 24591 H 2353.84 0.139719 -2.57221 0
M  V30 24592 H 2353.8 1.86815 -2.52878 0
M  V30 24593 N 2357.57 1.30887 -0.877861 0
M  V30 24594 C 2358.53 2.26599 -0.344305 0
M  V30 24595 C 2359.53 1.52525 0.509193 0
M  V30 24596 O 2360.72 1.71285 0.317368 0
M  V30 24597 C 2357.85 3.37061 0.510139 0
M  V30 24598 H 2359.05 2.75308 -1.18935 0
M  V30 24599 H 2356.6 1.41954 -0.654113 0
M  V30 24600 H 2357.34 2.93658 1.37606 0
M  V30 24601 H 2357.12 3.9197 -0.101116 0
M  V30 24602 H 2358.61 4.0832 0.875465 0
M  V30 24603 N 2359.05 0.638091 1.44105 0
M  V30 24604 C 2360.29 0.145581 2.02277 0
M  V30 24605 C 2360.63 -1.23189 1.50127 0
M  V30 24606 O 2359.9 -1.81919 0.688165 0
M  V30 24607 C 2360.18 0.139854 3.59828 0
M  V30 24608 C 2360.04 1.55016 4.22244 0
M  V30 24609 C 2361.36 -0.531889 4.36874 0
M  V30 24610 H 2358.48 0.0543761 0.734991 0
M  V30 24611 H 2361.12 0.815893 1.7159 0
M  V30 24612 H 2359.27 -0.430939 3.86103 0
M  V30 24613 H 2360.94 2.17038 4.07053 0
M  V30 24614 H 2359.18 2.10197 3.79473 0
M  V30 24615 H 2359.85 1.49813 5.31282 0
M  V30 24616 H 2362.33 -0.046405 4.16074 0
M  V30 24617 H 2361.21 -0.50511 5.46571 0
M  V30 24618 H 2361.47 -1.60345 4.11997 0
M  V30 24619 N 2360.53 -1.52973 0.379063 0
M  V30 24620 C 2361.77 -2.00629 -0.207577 0
M  V30 24621 C 2362.09 -1.27008 -1.48756 0
M  V30 24622 O 2363.29 -1.65322 -2.15362 0
M  V30 24623 C 2361.75 -3.57435 -0.420467 0
M  V30 24624 C 2361.36 -4.39946 0.845664 0
M  V30 24625 C 2363.1 -4.13409 -0.964029 0
M  V30 24626 C 2361.01 -5.88332 0.601616 0
M  V30 24627 H 2359.94 -0.749599 -0.0813459 0
M  V30 24628 H 2362.59 -1.7656 0.499884 0
M  V30 24629 H 2360.97 -3.77712 -1.18952 0
M  V30 24630 H 2362.15 -4.31439 1.61855 0
M  V30 24631 H 2360.46 -3.95143 1.31343 0
M  V30 24632 H 2363.06 -5.21918 -1.16216 0
M  V30 24633 H 2363.4 -3.68852 -1.93012 0
M  V30 24634 H 2363.93 -3.96983 -0.2548 0
M  V30 24635 H 2360.67 -6.37191 1.53842 0
M  V30 24636 H 2360.19 -5.99654 -0.132523 0
M  V30 24637 H 2361.87 -6.46583 0.232247 0
M  V30 24638 N 2362 -0.108595 -1.57225 0
M  V30 24639 C 2362.94 0.882427 -2.10448 0
M  V30 24640 C 2363.91 1.26764 -1.01831 0
M  V30 24641 O 2365.1 1.37052 -1.29418 0
M  V30 24642 C 2362.23 2.17948 -2.59261 0
M  V30 24643 C 2361.27 1.94311 -3.79665 0
M  V30 24644 S 2362.1 1.16883 -5.22588 0
M  V30 24645 C 2363.26 2.47789 -5.74762 0
M  V30 24646 H 2363.49 0.429693 -2.94178 0
M  V30 24647 H 2361.03 0.104973 -1.54043 0
M  V30 24648 H 2362.98 2.92477 -2.88041 0
M  V30 24649 H 2361.65 2.6034 -1.75732 0
M  V30 24650 H 2360.84 2.90392 -4.11933 0
M  V30 24651 H 2360.44 1.27906 -3.51448 0
M  V30 24652 H 2362.73 3.43691 -5.83852 0
M  V30 24653 H 2363.68 2.20081 -6.7303 0
M  V30 24654 H 2364.08 2.5668 -5.02768 0
M  V30 24655 N 2363.48 1.56732 0.16515 0
M  V30 24656 C 2364.71 1.86484 0.896185 0
M  V30 24657 C 2365.12 0.694706 1.75554 0
M  V30 24658 O 2364.48 -0.336038 1.7938 0
M  V30 24659 C 2364.53 3.15323 1.76786 0
M  V30 24660 O 2364.25 4.27827 0.943163 0
M  V30 24661 C 2365.75 3.58464 2.60804 0
M  V30 24662 H 2362.97 0.618558 0.260053 0
M  V30 24663 H 2365.52 2.03846 0.163392 0
M  V30 24664 H 2363.67 2.99769 2.45392 0
M  V30 24665 H 2364.09 5.01386 1.5399 0
M  V30 24666 H 2365.56 4.515 3.17571 0
M  V30 24667 H 2366.04 2.82877 3.35972 0
M  V30 24668 H 2366.64 3.76651 1.97519 0
M  V30 24669 N 2364.96 -0.433911 1.51509 0
M  V30 24670 C 2365.89 -1.53426 1.76019 0
M  V30 24671 C 2366.87 -1.58781 0.610139 0
M  V30 24672 O 2368.06 -1.74453 0.853207 0
M  V30 24673 C 2365.19 -2.91476 1.88836 0
M  V30 24674 C 2364.14 -3.00981 3.04293 0
M  V30 24675 C 2363.47 -4.41044 3.02298 0
M  V30 24676 C 2364.77 -2.74746 4.44198 0
M  V30 24677 H 2366.46 -1.33167 2.68155 0
M  V30 24678 H 2364.01 -0.639191 1.29036 0
M  V30 24679 H 2365.96 -3.68417 2.04565 0
M  V30 24680 H 2364.68 -3.12975 0.93351 0
M  V30 24681 H 2363.34 -2.26481 2.88274 0
M  V30 24682 H 2362.99 -4.59515 2.04584 0
M  V30 24683 H 2362.69 -4.48333 3.7983 0
M  V30 24684 H 2364.21 -5.19954 3.20125 0
M  V30 24685 H 2365.63 -3.41418 4.6055 0
M  V30 24686 H 2364.03 -2.93441 5.23462 0
M  V30 24687 H 2365.1 -1.70331 4.53999 0
M  V30 24688 N 2366.44 -1.41713 -0.689577 0
M  V30 24689 C 2367.72 -1.3188 -1.44454 0
M  V30 24690 C 2368.1 0.0508166 -2.11039 0
M  V30 24691 O 2367.44 1.06544 -2.0214 0
M  V30 24692 C 2367.65 -2.47649 -2.45908 0
M  V30 24693 C 2369 -2.8909 -3.10986 0
M  V30 24694 O 2370.03 -2.47432 -2.56234 0
M  V30 24695 O 2368.88 -3.61144 -4.10167 0
M  V30 24696 H 2365.98 -0.51932 -0.643611 0
M  V30 24697 H 2368.52 -1.5369 -0.719549 0
M  V30 24698 H 2367.3 -3.39018 -1.95403 0
M  V30 24699 H 2366.92 -2.27748 -3.25909 0
M  V30 24700 N 2367.92 0.924431 -1.2764 0
M  V30 24701 C 2368.85 2.04242 -1.1317 0
M  V30 24702 C 2369.83 1.70069 -0.0322859 0
M  V30 24703 O 2371.01 1.9309 -0.207362 0
M  V30 24704 C 2368.14 3.38392 -0.781556 0
M  V30 24705 C 2367.1 3.86688 -1.83456 0
M  V30 24706 C 2366.42 5.17681 -1.33831 0
M  V30 24707 C 2367.72 4.0972 -3.23924 0
M  V30 24708 H 2369.42 2.16607 -2.06693 0
M  V30 24709 H 2366.96 1.0408 -0.995155 0
M  V30 24710 H 2368.92 4.16086 -0.66713 0
M  V30 24711 H 2367.64 3.2605 0.189381 0
M  V30 24712 H 2366.3 3.1119 -1.93794 0
M  V30 24713 H 2365.95 5.01733 -0.356738 0
M  V30 24714 H 2365.65 5.50965 -2.04234 0
M  V30 24715 H 2367.17 5.97941 -1.23689 0
M  V30 24716 H 2368.58 4.77973 -3.16567 0
M  V30 24717 H 2366.98 4.54317 -3.92067 0
M  V30 24718 H 2368.05 3.14901 -3.68735 0
M  V30 24719 N 2369.39 1.09715 1.13139 0
M  V30 24720 C 2370.32 0.761141 2.20746 0
M  V30 24721 C 2371.31 -0.262537 1.68062 0
M  V30 24722 O 2372.49 -0.129943 1.93765 0
M  V30 24723 C 2369.62 0.184115 3.46812 0
M  V30 24724 C 2368.57 1.13764 4.12604 0
M  V30 24725 C 2367.9 0.422176 5.33031 0
M  V30 24726 C 2369.2 2.48127 4.59598 0
M  V30 24727 H 2370.89 1.66086 2.4911 0
M  V30 24728 H 2368.44 0.800008 1.19732 0
M  V30 24729 H 2370.39 -0.0630474 4.21353 0
M  V30 24730 H 2369.12 -0.750812 3.17853 0
M  V30 24731 H 2367.78 1.37013 3.40034 0
M  V30 24732 H 2367.42 -0.516984 5.00336 0
M  V30 24733 H 2367.12 1.05798 5.77997 0
M  V30 24734 H 2368.65 0.183385 6.10325 0
M  V30 24735 H 2370.06 2.29068 5.25548 0
M  V30 24736 H 2368.46 3.07523 5.15315 0
M  V30 24737 H 2369.53 3.08671 3.73965 0
M  V30 24738 N 2370.87 -1.30419 0.88479 0
M  V30 24739 C 2371.82 -2.28136 0.349682 0
M  V30 24740 C 2372.79 -1.56374 -0.560034 0
M  V30 24741 O 2373.97 -1.84441 -0.488492 0
M  V30 24742 C 2371.11 -3.42411 -0.429929 0
M  V30 24743 C 2370.23 -4.28991 0.508983 0
M  V30 24744 C 2369.36 -5.30428 -0.286208 0
M  V30 24745 C 2368.4 -6.08658 0.648186 0
M  V30 24746 N 2367.54 -7.02011 -0.111669 0
M  V30 24747 H 2372.38 -2.73291 1.18811 0
M  V30 24748 H 2369.92 -1.34429 0.597255 0
M  V30 24749 H 2371.87 -4.07424 -0.897851 0
M  V30 24750 H 2370.5 -2.98326 -1.23294 0
M  V30 24751 H 2369.56 -3.64287 1.09539 0
M  V30 24752 H 2370.87 -4.83528 1.22484 0
M  V30 24753 H 2370.02 -6.01188 -0.815992 0
M  V30 24754 H 2368.76 -4.76585 -1.03528 0
M  V30 24755 H 2367.77 -5.36776 1.1896 0
M  V30 24756 H 2368.99 -6.64589 1.39635 0
M  V30 24757 H 2366.94 -6.50557 -0.843281 0
M  V30 24758 H 2366.85 -7.54036 0.544561 0
M  V30 24759 H 2368.12 -7.77013 -0.622202 0
M  V30 24760 N 2372.35 -0.645724 -1.43764 0
M  V30 24761 C 2373.63 -0.0863307 -1.95409 0
M  V30 24762 C 2374.01 1.39172 -1.58727 0
M  V30 24763 O 2373.36 2.11346 -0.868619 0
M  V30 24764 C 2373.57 -0.324626 -3.47487 0
M  V30 24765 C 2374.91 -0.225572 -4.24 0
M  V30 24766 O 2375.94 -0.256778 -3.55273 0
M  V30 24767 O 2374.8 -0.142897 -5.46313 0
M  V30 24768 H 2371.89 0.0139337 -0.826883 0
M  V30 24769 H 2374.44 -0.718442 -1.53742 0
M  V30 24770 H 2373.21 -1.34966 -3.67287 0
M  V30 24771 H 2372.83 0.340918 -3.96136 0
M  V30 24772 N 2373.83 1.5277 -0.38717 0
M  V30 24773 C 2375.08 2.00736 0.196934 0
M  V30 24774 C 2375.39 1.27796 1.4808 0
M  V30 24775 O 2376.6 1.66462 2.14482 0
M  V30 24776 C 2375.05 3.57653 0.401505 0
M  V30 24777 C 2374.66 4.39491 -0.868984 0
M  V30 24778 C 2376.4 4.13914 0.942091 0
M  V30 24779 C 2374.31 5.88005 -0.632808 0
M  V30 24780 H 2373.24 0.75002 0.0773695 0
M  V30 24781 H 2375.89 1.76292 -0.509241 0
M  V30 24782 H 2374.27 3.78337 1.16948 0
M  V30 24783 H 2375.45 4.30575 -1.64141 0
M  V30 24784 H 2373.76 3.94441 -1.33436 0
M  V30 24785 H 2376.36 5.22527 1.13446 0
M  V30 24786 H 2376.7 3.69871 1.91053 0
M  V30 24787 H 2377.24 3.97113 0.233744 0
M  V30 24788 H 2373.98 6.36367 -1.57219 0
M  V30 24789 H 2373.5 5.99715 0.10072 0
M  V30 24790 H 2375.17 6.46451 -0.266534 0
M  V30 24791 N 2375.31 0.116931 1.57166 0
M  V30 24792 C 2376.25 -0.834042 2.15203 0
M  V30 24793 C 2377.22 -1.26497 1.07646 0
M  V30 24794 O 2378.41 -1.34286 1.35543 0
M  V30 24795 C 2375.55 -2.07952 2.75409 0
M  V30 24796 C 2374.66 -1.69714 3.97267 0
M  V30 24797 C 2373.8 -2.89213 4.45566 0
M  V30 24798 C 2372.84 -2.47205 5.59961 0
M  V30 24799 N 2371.97 -3.59611 6.03013 0
M  V30 24800 H 2376.81 -0.332283 2.96142 0
M  V30 24801 H 2374.35 -0.152323 1.46309 0
M  V30 24802 H 2376.31 -2.80923 3.08444 0
M  V30 24803 H 2374.94 -2.5559 1.97163 0
M  V30 24804 H 2373.99 -0.866251 3.70406 0
M  V30 24805 H 2375.3 -1.34841 4.80228 0
M  V30 24806 H 2374.46 -3.70412 4.805 0
M  V30 24807 H 2373.19 -3.27312 3.6155 0
M  V30 24808 H 2372.2 -1.64439 5.24633 0
M  V30 24809 H 2373.42 -2.10226 6.45741 0
M  V30 24810 H 2371.37 -3.97387 5.21938 0
M  V30 24811 H 2371.29 -3.28655 6.80825 0
M  V30 24812 H 2372.56 -4.41255 6.42584 0
M  V30 24813 N 2376.78 -1.56818 -0.156836 0
M  V30 24814 C 2378.03 -1.82807 -0.871093 0
M  V30 24815 C 2378.36 -0.696294 -1.81609 0
M  V30 24816 O 2377.61 0.315425 -1.93141 0
M  V30 24817 C 2377.91 -3.15063 -1.68731 0
M  V30 24818 C 2377.58 -4.4203 -0.889968 0
M  V30 24819 C 2376.24 -4.76513 -0.669958 0
M  V30 24820 C 2378.59 -5.20144 -0.331678 0
M  V30 24821 C 2375.92 -5.86579 0.119207 0
M  V30 24822 C 2378.27 -6.31037 0.444476 0
M  V30 24823 C 2376.94 -6.64077 0.675152 0
M  V30 24824 H 2376.21 -0.668936 -0.318755 0
M  V30 24825 H 2378.85 -1.91022 -0.13524 0
M  V30 24826 H 2377.16 -3.02254 -2.49299 0
M  V30 24827 H 2378.86 -3.32384 -2.24326 0
M  V30 24828 H 2375.45 -4.1499 -1.0715 0
M  V30 24829 H 2379.63 -4.93886 -0.488956 0
M  V30 24830 H 2374.89 -6.10626 0.307525 0
M  V30 24831 H 2379.06 -6.90763 0.884261 0
M  V30 24832 H 2376.69 -7.492 1.28852 0
M  V30 24833 N 2378.26 0.425871 -1.51737 0
M  V30 24834 C 2379.51 1.17607 -1.65217 0
M  V30 24835 C 2379.84 1.90588 -0.372812 0
M  V30 24836 O 2379.12 1.84079 0.628106 0
M  V30 24837 C 2379.4 2.18393 -2.86315 0
M  V30 24838 C 2379.25 1.49419 -4.24257 0
M  V30 24839 C 2380.57 3.19251 -3.0293 0
M  V30 24840 H 2377.69 0.426195 -0.601271 0
M  V30 24841 H 2380.33 0.46385 -1.84251 0
M  V30 24842 H 2378.48 2.79132 -2.70218 0
M  V30 24843 H 2380.15 0.919283 -4.52047 0
M  V30 24844 H 2378.4 0.796357 -4.26428 0
M  V30 24845 H 2379.07 2.22876 -5.05005 0
M  V30 24846 H 2381.54 2.68575 -3.17815 0
M  V30 24847 H 2380.42 3.87053 -3.89206 0
M  V30 24848 H 2380.68 3.86019 -2.15504 0
M  V30 24849 N 2379.74 1.42077 0.682052 0
M  V30 24850 C 2380.99 1.41454 1.43784 0
M  V30 24851 C 2381.3 0.0317418 1.95574 0
M  V30 24852 O 2382.51 -0.0970985 2.71326 0
M  V30 24853 C 2380.96 2.48784 2.60067 0
M  V30 24854 C 2380.57 3.93035 2.15006 0
M  V30 24855 C 2382.32 2.57317 3.37622 0
M  V30 24856 C 2380.22 4.91889 3.28328 0
M  V30 24857 H 2379.15 0.526091 0.540134 0
M  V30 24858 H 2381.8 1.67956 0.739128 0
M  V30 24859 H 2380.19 2.15435 3.32271 0
M  V30 24860 H 2381.36 4.35702 1.50002 0
M  V30 24861 H 2379.68 3.88286 1.50409 0
M  V30 24862 H 2382.27 3.28352 4.22006 0
M  V30 24863 H 2382.62 1.61435 3.83724 0
M  V30 24864 H 2383.15 2.89824 2.72483 0
M  V30 24865 H 2379.89 5.89222 2.87224 0
M  V30 24866 H 2379.41 4.5386 3.92137 0
M  V30 24867 H 2381.09 5.13272 3.93904 0
M  V30 24868 N 2381.22 -0.917649 1.28129 0
M  V30 24869 C 2382.63 -1.48143 1.13624 0
M  V30 24870 C 2382.98 -1.94261 -0.275173 0
M  V30 24871 O 2382.11 -1.82104 -1.16907 0
M  V30 24872 C 2382.7 -2.69244 2.05653 0
M  V30 24873 C 2381.26 -3.21814 1.95224 0
M  V30 24874 C 2380.41 -1.94528 1.97621 0
M  V30 24875 H 2383.36 -0.730747 1.40875 0
M  V30 24876 H 2383.38 -3.44374 1.61824 0
M  V30 24877 H 2382.89 -2.35648 3.08369 0
M  V30 24878 H 2380.99 -3.60145 0.955307 0
M  V30 24879 H 2381.11 -3.87328 2.81982 0
M  V30 24880 H 2379.47 -2.11458 1.41977 0
M  V30 24881 H 2380.25 -1.63233 3.0201 0
M  V30 24882 N 2382.7 -1.10314 -1.12555 0
M  V30 24883 C 2383.66 -0.754278 -2.16433 0
M  V30 24884 C 2384.66 0.220657 -1.59279 0
M  V30 24885 O 2385.85 -0.00233653 -1.742 0
M  V30 24886 C 2382.98 -0.117046 -3.40699 0
M  V30 24887 H 2384.18 -1.67436 -2.48808 0
M  V30 24888 H 2381.73 -0.903498 -1.27541 0
M  V30 24889 H 2382.46 0.813822 -3.13923 0
M  V30 24890 H 2382.25 -0.81868 -3.83458 0
M  V30 24891 H 2383.74 0.111314 -4.17452 0
M  V30 24892 N 2384.18 1.29948 -0.891694 0
M  V30 24893 C 2385.11 2.3039 -0.379838 0
M  V30 24894 C 2386.09 1.61271 0.540891 0
M  V30 24895 O 2387.27 1.88835 0.453319 0
M  V30 24896 C 2384.4 3.44982 0.400593 0
M  V30 24897 C 2383.36 4.25845 -0.42898 0
M  V30 24898 C 2382.68 5.32555 0.478463 0
M  V30 24899 C 2383.98 4.94724 -1.67467 0
M  V30 24900 H 2385.68 2.73452 -1.21919 0
M  V30 24901 H 2383.22 1.31461 -0.587698 0
M  V30 24902 H 2385.17 4.14317 0.769361 0
M  V30 24903 H 2383.9 3.00742 1.27365 0
M  V30 24904 H 2382.56 3.58207 -0.779974 0
M  V30 24905 H 2382.21 4.84561 1.34943 0
M  V30 24906 H 2381.91 5.87555 -0.0728465 0
M  V30 24907 H 2383.43 6.04744 0.843599 0
M  V30 24908 H 2384.84 5.5654 -1.3761 0
M  V30 24909 H 2383.24 5.5962 -2.16668 0
M  V30 24910 H 2384.31 4.20468 -2.41525 0
M  V30 24911 N 2385.65 0.653339 1.4342 0
M  V30 24912 C 2386.59 -0.0768731 2.29071 0
M  V30 24913 C 2387.6 -0.786992 1.42514 0
M  V30 24914 O 2388.79 -0.644728 1.6645 0
M  V30 24915 C 2385.89 -1.13193 3.19438 0
M  V30 24916 C 2385.06 -0.49993 4.34534 0
M  V30 24917 C 2384.12 -1.45189 5.05773 0
M  V30 24918 O 2383.15 -0.960439 5.61039 0
M  V30 24919 N 2384.35 -2.78585 5.09285 0
M  V30 24920 H 2387.11 0.658286 2.92381 0
M  V30 24921 H 2384.67 0.496131 1.54111 0
M  V30 24922 H 2386.67 -1.76958 3.63962 0
M  V30 24923 H 2385.24 -1.76906 2.57727 0
M  V30 24924 H 2384.46 0.316807 3.92925 0
M  V30 24925 H 2385.74 -0.058745 5.08766 0
M  V30 24926 H 2385.14 -3.21072 4.65757 0
M  V30 24927 H 2383.7 -3.37652 5.57525 0
M  V30 24928 N 2387.13 -1.52563 0.395266 0
M  V30 24929 C 2388.08 -2.23433 -0.45406 0
M  V30 24930 C 2389.07 -1.24043 -1.0248 0
M  V30 24931 O 2390.26 -1.49351 -0.949912 0
M  V30 24932 C 2387.39 -3.04902 -1.57764 0
M  V30 24933 C 2386.47 -4.11692 -1.01835 0
M  V30 24934 N 2386.86 -5.05463 -0.184524 0
M  V30 24935 C 2385.16 -4.26929 -1.29025 0
M  V30 24936 C 2385.86 -5.81565 0.125116 0
M  V30 24937 N 2384.84 -5.41473 -0.480403 0
M  V30 24938 H 2388.64 -2.93289 0.189464 0
M  V30 24939 H 2386.15 -1.61102 0.204905 0
M  V30 24940 H 2388.15 -3.54216 -2.19856 0
M  V30 24941 H 2386.81 -2.36583 -2.22393 0
M  V30 24942 H 2387.82 -5.17592 0.178693 0
M  V30 24943 H 2384.5 -3.69839 -1.93714 0
M  V30 24944 H 2385.89 -6.67107 0.801079 0
M  V30 24945 N 2388.61 -0.125265 -1.57101 0
M  V30 24946 C 2389.57 0.808342 -2.14473 0
M  V30 24947 C 2390.57 1.19031 -1.08112 0
M  V30 24948 O 2391.76 1.11479 -1.33858 0
M  V30 24949 C 2388.89 2.09397 -2.69008 0
M  V30 24950 H 2390.09 0.309644 -2.98297 0
M  V30 24951 H 2387.64 0.124024 -1.55807 0
M  V30 24952 H 2388.38 2.63684 -1.88789 0
M  V30 24953 H 2388.16 1.82951 -3.46802 0
M  V30 24954 H 2389.65 2.76122 -3.13283 0
M  V30 24955 N 2390.09 1.56899 0.148518 0
M  V30 24956 C 2391.33 1.83266 0.861386 0
M  V30 24957 C 2391.66 0.705915 1.81238 0
M  V30 24958 O 2390.92 -0.305178 1.93306 0
M  V30 24959 C 2391.22 3.15953 1.67058 0
M  V30 24960 C 2390.88 4.42496 0.866513 0
M  V30 24961 C 2389.54 4.76862 0.644678 0
M  V30 24962 C 2391.9 5.20312 0.304089 0
M  V30 24963 C 2389.22 5.86507 -0.150313 0
M  V30 24964 C 2391.58 6.30792 -0.477935 0
M  V30 24965 C 2390.24 6.63709 -0.71036 0
M  V30 24966 H 2389.51 0.670617 0.315203 0
M  V30 24967 H 2392.16 1.91091 0.125108 0
M  V30 24968 H 2390.46 3.03572 2.47692 0
M  V30 24969 H 2392.16 3.33569 2.2256 0
M  V30 24970 H 2388.75 4.15553 1.04948 0
M  V30 24971 H 2392.93 4.94138 0.462757 0
M  V30 24972 H 2388.19 6.10454 -0.339903 0
M  V30 24973 H 2392.36 6.90285 -0.920881 0
M  V30 24974 H 2389.99 7.48507 -1.32823 0
M  V30 24975 N 2391.57 -0.417818 1.51961 0
M  V30 24976 C 2392.5 -1.52913 1.6939 0
M  V30 24977 C 2393.48 -1.5332 0.541446 0
M  V30 24978 O 2394.66 -1.72158 0.767726 0
M  V30 24979 C 2391.79 -2.91464 1.7253 0
M  V30 24980 C 2390.83 -3.09003 2.93972 0
M  V30 24981 S 2391.67 -2.83234 4.54466 0
M  V30 24982 C 2392.82 -4.2403 4.6038 0
M  V30 24983 H 2393.06 -1.37899 2.63384 0
M  V30 24984 H 2390.59 -0.60882 1.4189 0
M  V30 24985 H 2392.55 -3.71317 1.75025 0
M  V30 24986 H 2391.21 -3.03826 0.796787 0
M  V30 24987 H 2390.4 -4.10348 2.92627 0
M  V30 24988 H 2390 -2.37002 2.8932 0
M  V30 24989 H 2392.29 -5.17536 4.37222 0
M  V30 24990 H 2393.24 -4.30402 5.62281 0
M  V30 24991 H 2393.65 -4.08596 3.89499 0
M  V30 24992 N 2393.04 -1.42436 -0.674508 0
M  V30 24993 C 2393.99 -1.45937 -1.78804 0
M  V30 24994 C 2394.96 -0.3113 -1.63157 0
M  V30 24995 O 2396.15 -0.515415 -1.83707 0
M  V30 24996 C 2393.29 -1.36779 -3.16837 0
M  V30 24997 C 2392.4 -2.61623 -3.43769 0
M  V30 24998 C 2391.53 -2.44605 -4.71531 0
M  V30 24999 C 2390.57 -3.64822 -4.91499 0
M  V30 25000 N 2389.71 -3.46744 -6.10502 0
M  V30 25001 H 2394.55 -2.41097 -1.75147 0
M  V30 25002 H 2392.09 -1.19699 -0.855019 0
M  V30 25003 H 2394.04 -1.29466 -3.96603 0
M  V30 25004 H 2392.67 -0.452145 -3.19618 0
M  V30 25005 H 2391.73 -2.79301 -2.58254 0
M  V30 25006 H 2393.04 -3.50984 -3.54417 0
M  V30 25007 H 2392.19 -2.3488 -5.59389 0
M  V30 25008 H 2390.93 -1.52734 -4.63167 0
M  V30 25009 H 2389.94 -3.74979 -4.02083 0
M  V30 25010 H 2391.16 -4.57674 -5.01708 0
M  V30 25011 H 2389.11 -2.57591 -6.0331 0
M  V30 25012 H 2389.02 -4.29693 -6.22013 0
M  V30 25013 H 2390.29 -3.40832 -7.01038 0
M  V30 25014 N 2394.52 0.910841 -1.28614 0
M  V30 25015 C 2395.47 2.00024 -1.09427 0
M  V30 25016 C 2396.46 1.60891 -0.0170361 0
M  V30 25017 O 2397.65 1.75399 -0.237503 0
M  V30 25018 C 2394.78 3.34755 -0.761199 0
M  V30 25019 C 2393.86 3.80281 -1.87742 0
M  V30 25020 N 2394.25 3.98151 -3.11945 0
M  V30 25021 C 2392.55 4.09463 -1.76793 0
M  V30 25022 C 2393.25 4.36331 -3.84695 0
M  V30 25023 N 2392.23 4.44753 -3.12563 0
M  V30 25024 H 2396.03 2.11895 -2.03661 0
M  V30 25025 H 2393.54 1.09889 -1.19575 0
M  V30 25026 H 2395.54 4.1249 -0.604815 0
M  V30 25027 H 2394.2 3.24237 0.173346 0
M  V30 25028 H 2395.21 3.8399 -3.47523 0
M  V30 25029 H 2391.89 4.07565 -0.905356 0
M  V30 25030 H 2393.28 4.58095 -4.91526 0
M  V30 25031 N 2396 1.10909 1.11969 0
M  V30 25032 C 2396.95 0.762383 2.17845 0
M  V30 25033 C 2397.92 -0.263571 1.63995 0
M  V30 25034 O 2399.1 -0.141739 1.90273 0
M  V30 25035 C 2396.24 0.205711 3.44486 0
M  V30 25036 C 2395.36 1.28756 4.12366 0
M  V30 25037 C 2394.49 0.692011 5.26673 0
M  V30 25038 C 2393.53 1.75409 5.86428 0
M  V30 25039 N 2392.67 1.17845 6.92139 0
M  V30 25040 H 2397.51 1.66944 2.46848 0
M  V30 25041 H 2395.04 0.833797 1.21187 0
M  V30 25042 H 2397 -0.134963 4.16982 0
M  V30 25043 H 2395.63 -0.664557 3.15885 0
M  V30 25044 H 2394.68 1.74528 3.38 0
M  V30 25045 H 2396 2.09133 4.52841 0
M  V30 25046 H 2395.15 0.30107 6.05953 0
M  V30 25047 H 2393.89 -0.143146 4.8749 0
M  V30 25048 H 2392.89 2.15441 5.05831 0
M  V30 25049 H 2394.12 2.59219 6.2768 0
M  V30 25050 H 2392.06 0.36484 6.54985 0
M  V30 25051 H 2391.98 1.919 7.31239 0
M  V30 25052 H 2393.25 0.814216 7.75236 0
M  V30 25053 N 2397.48 -1.29474 0.898573 0
M  V30 25054 C 2398.73 -1.95219 0.522881 0
M  V30 25055 C 2399.05 -1.71194 -0.93368 0
M  V30 25056 O 2398.32 -1.04308 -1.65821 0
M  V30 25057 H 2396.9 -0.722333 0.190379 0
M  V30 25058 H 2399.56 -1.57748 1.14462 0
M  V30 25059 H 2398.66 -3.04044 0.704529 0
M  V30 25060 N 2398.96 -0.660936 -1.43071 0
M  V30 25061 C 2400.2 -0.17713 -2.01322 0
M  V30 25062 C 2400.53 1.21587 -1.52452 0
M  V30 25063 O 2399.8 1.81371 -0.740354 0
M  V30 25064 H 2398.38 -0.0624935 -0.744381 0
M  V30 25065 H 2401.04 -0.854336 -1.75177 0
M  V30 25066 H 2400.13 -0.167695 -3.11649 0
M  V30 25067 N 2400.43 1.52351 -0.403352 0
M  V30 25068 C 2401.71 1.94212 0.232577 0
M  V30 25069 C 2402.09 1.33983 1.63131 0
M  V30 25070 O 2401.44 0.513383 2.22658 0
M  V30 25071 C 2401.65 3.48141 0.24475 0
M  V30 25072 C 2403 4.22025 0.466906 0
M  V30 25073 O 2404.02 3.5472 0.324356 0
M  V30 25074 O 2402.88 5.41365 0.747375 0
M  V30 25075 H 2399.97 0.813611 0.148209 0
M  V30 25076 H 2402.52 1.63378 -0.458877 0
M  V30 25077 H 2401.29 3.84346 -0.734445 0
M  V30 25078 H 2400.92 3.85319 0.980544 0
M  V30 25079 N 2401.91 0.133594 1.57033 0
M  V30 25080 C 2403.14 -0.531441 2.00476 0
M  V30 25081 C 2403.56 -1.58497 1.01293 0
M  V30 25082 O 2402.92 -1.81295 -0.0132961 0
M  V30 25083 C 2402.97 -1.12107 3.42731 0
M  V30 25084 O 2402.07 -2.2363 3.46502 0
M  V30 25085 H 2401.41 -0.13135 0.650879 0
M  V30 25086 H 2403.94 0.226375 2.03344 0
M  V30 25087 H 2403.95 -1.45304 3.81249 0
M  V30 25088 H 2402.63 -0.349485 4.14429 0
M  V30 25089 H 2401.21 -1.91763 3.19815 0
M  V30 25090 N 2403.39 -1.56975 -0.140195 0
M  V30 25091 C 2404.62 -1.87886 -0.866404 0
M  V30 25092 C 2405.03 -0.722547 -1.74427 0
M  V30 25093 O 2404.39 0.307458 -1.79891 0
M  V30 25094 C 2404.44 -3.18096 -1.71747 0
M  V30 25095 O 2404.16 -4.29273 -0.87498 0
M  V30 25096 C 2405.66 -3.62568 -2.55068 0
M  V30 25097 H 2402.88 -0.622616 -0.250179 0
M  V30 25098 H 2405.43 -2.0408 -0.130941 0
M  V30 25099 H 2403.58 -3.03635 -2.40592 0
M  V30 25100 H 2404 -5.03772 -1.45994 0
M  V30 25101 H 2405.47 -4.56495 -3.10348 0
M  V30 25102 H 2405.95 -2.88187 -3.31429 0
M  V30 25103 H 2406.55 -3.79746 -1.91502 0
M  V30 25104 N 2404.87 0.409753 -1.5218 0
M  V30 25105 C 2406.15 1.16971 -1.56771 0
M  V30 25106 C 2406.53 2.08206 -0.348358 0
M  V30 25107 O 2405.87 2.18615 0.664824 0
M  V30 25108 C 2406.08 1.94755 -2.89606 0
M  V30 25109 C 2407.43 2.50843 -3.42583 0
M  V30 25110 O 2408.46 2.04935 -2.91342 0
M  V30 25111 O 2407.31 3.34644 -4.3206 0
M  V30 25112 H 2404.41 0.534043 -0.631448 0
M  V30 25113 H 2406.95 0.416584 -1.64507 0
M  V30 25114 H 2405.73 1.27914 -3.69802 0
M  V30 25115 H 2405.35 2.77074 -2.8516 0
M  V30 25116 N 2406.35 1.42792 0.666944 0
M  V30 25117 C 2407.59 1.4368 1.42696 0
M  V30 25118 C 2407.92 0.0560766 1.94419 0
M  V30 25119 O 2407.18 -0.936801 1.71821 0
M  V30 25120 C 2407.48 2.41474 2.63486 0
M  V30 25121 C 2407.14 3.87674 2.3026 0
M  V30 25122 C 2405.8 4.27495 2.2091 0
M  V30 25123 C 2408.16 4.79862 2.03426 0
M  V30 25124 C 2405.48 5.57475 1.82863 0
M  V30 25125 C 2407.84 6.10191 1.66881 0
M  V30 25126 C 2406.5 6.49004 1.56047 0
M  V30 25127 H 2405.77 0.525764 0.522162 0
M  V30 25128 H 2408.42 1.75784 0.759754 0
M  V30 25129 H 2406.72 2.02726 3.35275 0
M  V30 25130 H 2408.42 2.39422 3.2168 0
M  V30 25131 H 2405.01 3.5615 2.38442 0
M  V30 25132 H 2409.19 4.49878 2.09578 0
M  V30 25133 H 2404.45 5.86399 1.7305 0
M  V30 25134 H 2408.62 6.81106 1.45145 0
M  V30 25135 H 2406.25 7.49629 1.26335 0
M  V30 25136 N 2407.82 -0.904008 1.29095 0
M  V30 25137 C 2409.07 -1.64872 1.1619 0
M  V30 25138 C 2409.39 -1.93487 -0.286708 0
M  V30 25139 O 2410.59 -2.66136 -0.537015 0
M  V30 25140 C 2409.05 -2.9706 2.03183 0
M  V30 25141 C 2408.66 -2.76056 3.52841 0
M  V30 25142 C 2410.4 -3.74971 1.98991 0
M  V30 25143 C 2408.31 -4.03945 4.31952 0
M  V30 25144 H 2407.24 -0.618493 0.431257 0
M  V30 25145 H 2409.89 -1.00241 1.53701 0
M  V30 25146 H 2408.27 -3.62881 1.58536 0
M  V30 25147 H 2409.44 -2.18856 4.0551 0
M  V30 25148 H 2407.76 -2.11547 3.5866 0
M  V30 25149 H 2410.36 -4.69783 2.55359 0
M  V30 25150 H 2410.7 -4.04868 0.968886 0
M  V30 25151 H 2411.23 -3.15985 2.41658 0
M  V30 25152 H 2407.97 -3.79215 5.34674 0
M  V30 25153 H 2407.49 -4.6072 3.84053 0
M  V30 25154 H 2409.17 -4.72126 4.42387 0
M  V30 25155 N 2409.3 -1.11501 -1.11379 0
M  V30 25156 C 2410.27 -0.777191 -2.15621 0
M  V30 25157 C 2411.27 0.203751 -1.59504 0
M  V30 25158 O 2412.46 -0.0208126 -1.74188 0
M  V30 25159 C 2409.59 -0.153176 -3.40556 0
M  V30 25160 H 2410.78 -1.70065 -2.47018 0
M  V30 25161 H 2408.33 -0.916974 -1.26575 0
M  V30 25162 H 2409.07 0.780481 -3.14768 0
M  V30 25163 H 2408.85 -0.859305 -3.82568 0
M  V30 25164 H 2410.34 0.067031 -4.17546 0
M  V30 25165 N 2410.78 1.28995 -0.905426 0
M  V30 25166 C 2411.71 2.29974 -0.404253 0
M  V30 25167 C 2412.69 1.61836 0.523755 0
M  V30 25168 O 2413.88 1.89305 0.433265 0
M  V30 25169 C 2411.01 3.45387 0.363981 0
M  V30 25170 C 2409.96 4.25366 -0.474123 0
M  V30 25171 C 2409.29 5.33033 0.421952 0
M  V30 25172 C 2410.59 4.9292 -1.72704 0
M  V30 25173 H 2412.28 2.72144 -1.24812 0
M  V30 25174 H 2409.83 1.30831 -0.601608 0
M  V30 25175 H 2411.78 4.1511 0.725374 0
M  V30 25176 H 2410.5 3.02076 1.24168 0
M  V30 25177 H 2409.16 3.57359 -0.817923 0
M  V30 25178 H 2408.81 4.85965 1.29796 0
M  V30 25179 H 2408.51 5.87445 -0.13516 0
M  V30 25180 H 2410.04 6.05605 0.77941 0
M  V30 25181 H 2411.45 5.55049 -1.43505 0
M  V30 25182 H 2409.85 5.57291 -2.22592 0
M  V30 25183 H 2410.92 4.17883 -2.45971 0
M  V30 25184 N 2412.26 0.668514 1.42719 0
M  V30 25185 C 2413.51 0.185424 2.00846 0
M  V30 25186 C 2413.82 -1.21302 1.53444 0
M  V30 25187 O 2415.03 -1.79215 2.03947 0
M  V30 25188 C 2413.48 0.280654 3.58804 0
M  V30 25189 C 2413.09 1.68276 4.15196 0
M  V30 25190 C 2414.84 -0.144046 4.24256 0
M  V30 25191 C 2412.74 1.73109 5.65497 0
M  V30 25192 H 2411.67 0.0655607 0.751144 0
M  V30 25193 H 2414.32 0.832781 1.63515 0
M  V30 25194 H 2412.71 -0.434484 3.93609 0
M  V30 25195 H 2413.88 2.42447 3.91862 0
M  V30 25196 H 2412.19 2.05476 3.62172 0
M  V30 25197 H 2414.79 -0.127992 5.34547 0
M  V30 25198 H 2415.13 -1.1782 3.99279 0
M  V30 25199 H 2415.67 0.519867 3.94388 0
M  V30 25200 H 2412.41 2.74486 5.95263 0
M  V30 25201 H 2411.93 1.03284 5.9084 0
M  V30 25202 H 2413.61 1.48169 6.29805 0
M  V30 25203 N 2413.74 -1.52135 0.411426 0
M  V30 25204 C 2414.67 -2.23565 -0.457574 0
M  V30 25205 C 2415.65 -1.2448 -1.04611 0
M  V30 25206 O 2416.83 -1.53538 -1.09354 0
M  V30 25207 C 2413.96 -2.96604 -1.63534 0
M  V30 25208 C 2413.01 -4.10139 -1.16998 0
M  V30 25209 S 2413.84 -5.35334 -0.133236 0
M  V30 25210 C 2414.99 -6.11903 -1.31628 0
M  V30 25211 H 2415.23 -2.96927 0.148935 0
M  V30 25212 H 2412.76 -1.53154 0.19574 0
M  V30 25213 H 2414.72 -3.3929 -2.31068 0
M  V30 25214 H 2413.38 -2.22882 -2.2132 0
M  V30 25215 H 2412.57 -4.60426 -2.04997 0
M  V30 25216 H 2412.17 -3.69581 -0.573254 0
M  V30 25217 H 2414.47 -6.39417 -2.23946 0
M  V30 25218 H 2415.41 -7.02933 -0.853891 0
M  V30 25219 H 2415.82 -5.42999 -1.54311 0
M  V30 25220 N 2415.22 -0.14192 -1.5696 0
M  V30 25221 C 2416.18 0.785549 -2.15318 0
M  V30 25222 C 2417.18 1.17878 -1.09368 0
M  V30 25223 O 2418.37 1.10053 -1.35033 0
M  V30 25224 C 2415.5 2.06532 -2.71214 0
M  V30 25225 H 2416.69 0.277988 -2.98609 0
M  V30 25226 H 2414.25 0.107491 -1.5593 0
M  V30 25227 H 2414.98 2.61667 -1.91575 0
M  V30 25228 H 2414.77 1.79262 -3.48723 0
M  V30 25229 H 2416.26 2.72784 -3.16194 0
M  V30 25230 N 2416.69 1.57047 0.131868 0
M  V30 25231 C 2417.92 1.88069 0.855186 0
M  V30 25232 C 2418.33 0.729848 1.74556 0
M  V30 25233 O 2417.67 -0.308931 1.81084 0
M  V30 25234 C 2417.74 3.13967 1.75114 0
M  V30 25235 C 2417.4 4.45093 1.03639 0
M  V30 25236 C 2418.4 5.18486 0.383185 0
M  V30 25237 C 2416.08 4.91806 1.02139 0
M  V30 25238 C 2418.08 6.36805 -0.275459 0
M  V30 25239 C 2415.76 6.10045 0.35894 0
M  V30 25240 C 2416.76 6.82391 -0.288341 0
M  V30 25241 O 2416.45 7.98382 -0.940251 0
M  V30 25242 H 2416.18 0.627332 0.251853 0
M  V30 25243 H 2418.74 2.05021 0.124746 0
M  V30 25244 H 2416.97 2.93064 2.5229 0
M  V30 25245 H 2418.65 3.31113 2.34774 0
M  V30 25246 H 2419.42 4.83458 0.386477 0
M  V30 25247 H 2415.3 4.35408 1.51463 0
M  V30 25248 H 2418.84 6.93211 -0.78127 0
M  V30 25249 H 2414.74 6.44532 0.353367 0
M  V30 25250 H 2415.51 8.14143 -0.843433 0
M  V30 25251 N 2418.17 -0.401677 1.52395 0
M  V30 25252 C 2419.42 -1.14567 1.6649 0
M  V30 25253 C 2419.74 -1.90834 0.40093 0
M  V30 25254 O 2419.01 -1.86981 -0.584382 0
M  V30 25255 H 2417.59 -0.425918 0.61368 0
M  V30 25256 H 2420.25 -0.457059 1.89465 0
M  V30 25257 H 2419.35 -1.85561 2.50945 0
M  V30 25258 N 2419.65 -1.43144 -0.659362 0
M  V30 25259 C 2420.6 -1.48083 -1.79371 0
M  V30 25260 C 2421.59 -0.355017 -1.65638 0
M  V30 25261 O 2422.8 -0.528734 -1.72059 0
M  V30 25262 H 2419.17 -0.46411 -0.591697 0
M  V30 25263 H 2421.14 -2.43612 -1.72325 0
M  V30 25264 C 2419.89 -1.41505 -3.17603 0
M  V30 25265 H 2419.22 -2.27437 -3.28805 0
M  V30 25266 H 2420.66 -1.49022 -3.96949 0
M  V30 25267 C 2419.11 -0.131824 -3.36642 0
M  V30 25268 O 2419.64 0.809317 -3.93463 0
M  V30 25269 N 2417.85 -0.0439906 -2.90567 0
M  V30 25270 H 2417.4 -0.810662 -2.44512 0
M  V30 25271 H 2417.36 0.813916 -3.03682 0
M  V30 25272 N 2421.13 0.897149 -1.29572 0
M  V30 25273 C 2422.37 1.66215 -1.18962 0
M  V30 25274 C 2422.73 1.90309 0.254237 0
M  V30 25275 O 2423.93 2.64418 0.483361 0
M  V30 25276 C 2422.2 2.97337 -1.98307 0
M  V30 25277 S 2423.76 3.8836 -2.0426 0
M  V30 25278 H 2420.58 0.570632 -0.424147 0
M  V30 25279 H 2423.18 1.06582 -1.63892 0
M  V30 25280 H 2421.89 2.77515 -3.02347 0
M  V30 25281 H 2421.42 3.62008 -1.53992 0
M  V30 25282 H 2423.43 4.82423 -1.16113 0
M  V30 25283 N 2422.61 1.1209 1.10786 0
M  V30 25284 C 2423.83 0.896684 1.8646 0
M  V30 25285 C 2424.25 -0.55388 1.80493 0
M  V30 25286 O 2423.61 -1.38276 1.19105 0
M  V30 25287 C 2423.66 1.35849 3.35004 0
M  V30 25288 O 2423.38 2.75219 3.40861 0
M  V30 25289 C 2424.88 1.17067 4.27563 0
M  V30 25290 H 2422.1 0.320664 0.58942 0
M  V30 25291 H 2424.64 1.48995 1.40074 0
M  V30 25292 H 2422.8 0.808525 3.78869 0
M  V30 25293 H 2423.21 2.95397 4.33406 0
M  V30 25294 H 2424.69 1.54272 5.30004 0
M  V30 25295 H 2425.16 0.110891 4.3906 0
M  V30 25296 H 2425.77 1.70796 3.89498 0
M  V30 25297 N 2424.08 -1.28513 0.912254 0
M  V30 25298 C 2425.33 -1.95038 0.544633 0
M  V30 25299 C 2425.66 -1.71824 -0.911405 0
M  V30 25300 O 2424.91 -1.0314 -1.66315 0
M  V30 25301 C 2425.21 -3.48367 0.798453 0
M  V30 25302 C 2424.88 -3.91678 2.23381 0
M  V30 25303 C 2423.54 -4.03214 2.62624 0
M  V30 25304 C 2425.89 -4.13873 3.16794 0
M  V30 25305 C 2423.22 -4.34323 3.94437 0
M  V30 25306 C 2425.57 -4.46461 4.48169 0
M  V30 25307 C 2424.24 -4.56208 4.87268 0
M  V30 25308 H 2423.51 -0.713696 0.199295 0
M  V30 25309 H 2426.15 -1.52877 1.15329 0
M  V30 25310 H 2424.46 -3.91654 0.106977 0
M  V30 25311 H 2426.16 -3.97955 0.493211 0
M  V30 25312 H 2422.75 -3.83225 1.91929 0
M  V30 25313 H 2426.93 -4.04415 2.87684 0
M  V30 25314 H 2422.19 -4.40075 4.24434 0
M  V30 25315 H 2426.36 -4.62583 5.20567 0
M  V30 25316 H 2423.99 -4.80068 5.89439 0
M  V30 25317 N 2425.56 -0.676073 -1.42362 0
M  V30 25318 C 2426.81 -0.198473 -2.01123 0
M  V30 25319 C 2427.13 1.19963 -1.53733 0
M  V30 25320 O 2426.4 1.80576 -0.759549 0
M  V30 25321 H 2424.98 -0.0703852 -0.743677 0
M  V30 25322 H 2427.64 -0.872867 -1.74261 0
M  V30 25323 H 2426.74 -0.200741 -3.11454 0
M  V30 25324 N 2427.04 1.51915 -0.419488 0
M  V30 25325 C 2428 2.25874 0.389076 0
M  V30 25326 C 2429 1.28632 0.964901 0
M  V30 25327 O 2430.19 1.52491 0.842152 0
M  V30 25328 C 2427.33 3.03691 1.54869 0
M  V30 25329 H 2428.52 2.98781 -0.258851 0
M  V30 25330 H 2426.07 1.55348 -0.172236 0
M  V30 25331 H 2426.81 2.35158 2.23318 0
M  V30 25332 H 2426.59 3.75096 1.14217 0
M  V30 25333 H 2428.08 3.59762 2.1204 0
M  V30 25334 N 2428.52 0.150242 1.56882 0
M  V30 25335 C 2429.93 -0.370044 1.82996 0
M  V30 25336 C 2430.28 -1.64514 1.0691 0
M  V30 25337 O 2429.41 -2.14089 0.315407 0
M  V30 25338 C 2430 -0.67815 3.31944 0
M  V30 25339 C 2428.56 -1.14295 3.58627 0
M  V30 25340 C 2427.71 -0.167729 2.76792 0
M  V30 25341 H 2430.66 0.374885 1.54209 0
M  V30 25342 H 2430.68 -1.53248 3.48275 0
M  V30 25343 H 2430.19 0.25006 3.87294 0
M  V30 25344 H 2428.29 -2.08699 3.08668 0
M  V30 25345 H 2428.4 -1.06668 4.67075 0
M  V30 25346 H 2426.77 -0.660994 2.45974 0
M  V30 25347 H 2427.55 0.754128 3.34915 0
M  V30 25348 N 2430 -1.57115 -0.123538 0
M  V30 25349 C 2431.27 -1.75574 -0.862165 0
M  V30 25350 C 2431.65 -0.72451 -1.98278 0
M  V30 25351 O 2431 0.252367 -2.27102 0
M  V30 25352 C 2431.21 -3.20426 -1.38304 0
M  V30 25353 C 2432.56 -3.82796 -1.83717 0
M  V30 25354 O 2433.58 -3.24001 -1.47993 0
M  V30 25355 O 2432.44 -4.86132 -2.49677 0
M  V30 25356 H 2429.54 -0.718725 -0.409101 0
M  V30 25357 H 2432.08 -1.69358 -0.107632 0
M  V30 25358 H 2430.85 -3.86995 -0.578821 0
M  V30 25359 H 2430.48 -3.31161 -2.20041 0
M  V30 25360 N 2431.47 0.393589 -1.52606 0
M  V30 25361 C 2432.75 1.15302 -1.58003 0
M  V30 25362 C 2433.13 2.07825 -0.370422 0
M  V30 25363 O 2432.48 2.19307 0.6416 0
M  V30 25364 C 2432.69 1.91672 -2.91655 0
M  V30 25365 C 2434.04 2.47195 -3.45224 0
M  V30 25366 O 2435.06 2.01834 -2.93499 0
M  V30 25367 O 2433.92 3.30043 -4.35585 0
M  V30 25368 H 2431.01 0.527316 -0.637077 0
M  V30 25369 H 2433.56 0.399112 -1.6494 0
M  V30 25370 H 2432.33 1.23985 -3.71138 0
M  V30 25371 H 2431.96 2.74034 -2.88082 0
M  V30 25372 N 2432.95 1.43492 0.651762 0
M  V30 25373 C 2433.92 1.48432 1.74644 0
M  V30 25374 C 2434.92 0.368845 1.56513 0
M  V30 25375 O 2436.11 0.630651 1.62384 0
M  V30 25376 C 2433.24 1.33833 3.13531 0
M  V30 25377 H 2434.43 2.45923 1.71644 0
M  V30 25378 H 2431.98 1.30279 0.86355 0
M  V30 25379 H 2432.72 0.373546 3.22141 0
M  V30 25380 H 2432.5 2.14697 3.28097 0
M  V30 25381 H 2433.99 1.40225 3.93353 0
M  V30 25382 N 2434.43 -0.890264 1.30046 0
M  V30 25383 C 2435.66 -1.68012 1.21601 0
M  V30 25384 C 2436.08 -1.86825 -0.218645 0
M  V30 25385 O 2435.44 -1.39538 -1.15754 0
M  V30 25386 C 2435.49 -3.03687 1.94439 0
M  V30 25387 O 2434.59 -3.92427 1.26787 0
M  V30 25388 H 2433.93 -0.513584 0.420865 0
M  V30 25389 H 2436.46 -1.11148 1.71777 0
M  V30 25390 H 2436.47 -3.53766 2.03257 0
M  V30 25391 H 2435.15 -2.89313 2.98782 0
M  V30 25392 H 2433.72 -3.50864 1.26288 0
M  V30 25393 N 2435.91 -1.12676 -1.1019 0
M  V30 25394 C 2437.32 -0.86334 -1.34233 0
M  V30 25395 C 2437.52 0.505243 -1.95063 0
M  V30 25396 O 2436.58 1.25341 -2.19194 0
M  V30 25397 C 2437.89 -1.98176 -2.26156 0
M  V30 25398 C 2439.44 -2.01294 -2.39687 0
M  V30 25399 C 2439.92 -3.12376 -3.3494 0
M  V30 25400 N 2441.41 -3.11835 -3.4251 0
M  V30 25401 C 2442.14 -3.94426 -4.16192 0
M  V30 25402 N 2441.64 -4.87012 -4.92738 0
M  V30 25403 N 2443.43 -3.82554 -4.11836 0
M  V30 25404 H 2435.58 -2.00854 -0.690762 0
M  V30 25405 H 2437.85 -0.874181 -0.366759 0
M  V30 25406 H 2437.55 -2.96808 -1.88675 0
M  V30 25407 H 2437.43 -1.88912 -3.26484 0
M  V30 25408 H 2439.81 -1.0328 -2.76437 0
M  V30 25409 H 2439.89 -2.14632 -1.39165 0
M  V30 25410 H 2439.54 -4.10624 -2.98915 0
M  V30 25411 H 2439.47 -2.96277 -4.35348 0
M  V30 25412 H 2441.96 -2.44764 -2.87922 0
M  V30 25413 H 2442.27 -5.46537 -5.46367 0
M  V30 25414 H 2440.62 -4.91024 -4.91854 0
M  V30 25415 H 2443.81 -3.09556 -3.51131 0
M  V30 25416 H 2443.98 -4.47151 -4.68999 0
M  V30 25417 N 2437.39 1.28028 -0.919057 0
M  V30 25418 C 2438.32 2.29532 -0.428622 0
M  V30 25419 C 2439.3 1.62382 0.506561 0
M  V30 25420 O 2440.48 1.89754 0.413162 0
M  V30 25421 C 2437.61 3.45754 0.327328 0
M  V30 25422 C 2436.57 4.24839 -0.519212 0
M  V30 25423 C 2435.89 5.3345 0.365393 0
M  V30 25424 C 2437.19 4.91061 -1.77923 0
M  V30 25425 H 2438.89 2.70805 -1.27692 0
M  V30 25426 H 2436.43 1.30185 -0.615451 0
M  V30 25427 H 2438.39 4.15856 0.681305 0
M  V30 25428 H 2437.11 3.03376 1.20957 0
M  V30 25429 H 2435.77 3.56472 -0.855779 0
M  V30 25430 H 2435.42 4.87314 1.24634 0
M  V30 25431 H 2435.12 5.87268 -0.197459 0
M  V30 25432 H 2436.64 6.06398 0.715134 0
M  V30 25433 H 2438.05 5.53496 -1.49384 0
M  V30 25434 H 2436.45 5.54898 -2.2849 0
M  V30 25435 H 2437.52 4.15251 -2.50389 0
M  V30 25436 N 2438.86 0.683613 1.42002 0
M  V30 25437 C 2439.79 0.024907 2.33487 0
M  V30 25438 C 2440.78 -0.779948 1.51165 0
M  V30 25439 O 2441.96 -0.735331 1.7974 0
M  V30 25440 C 2439.09 -0.920777 3.34872 0
M  V30 25441 C 2438.04 -0.223883 4.27414 0
M  V30 25442 C 2437.37 -1.28311 5.19076 0
M  V30 25443 C 2438.67 0.90251 5.14443 0
M  V30 25444 H 2440.36 0.788972 2.88818 0
M  V30 25445 H 2437.91 0.380854 1.38872 0
M  V30 25446 H 2439.86 -1.39074 3.97789 0
M  V30 25447 H 2438.59 -1.71637 2.77864 0
M  V30 25448 H 2437.25 0.225928 3.65903 0
M  V30 25449 H 2436.89 -2.07092 4.58391 0
M  V30 25450 H 2436.59 -0.821893 5.81824 0
M  V30 25451 H 2438.12 -1.75382 5.8487 0
M  V30 25452 H 2439.53 0.513372 5.70997 0
M  V30 25453 H 2437.93 1.29007 5.86069 0
M  V30 25454 H 2439 1.74745 4.52319 0
M  V30 25455 N 2440.34 -1.5169 0.427538 0
M  V30 25456 C 2441.29 -2.24346 -0.406565 0
M  V30 25457 C 2442.28 -1.26189 -0.998254 0
M  V30 25458 O 2443.47 -1.51332 -0.918019 0
M  V30 25459 C 2440.6 -3.0818 -1.51261 0
M  V30 25460 C 2439.68 -4.1376 -0.930795 0
M  V30 25461 N 2440.08 -5.05741 -0.0772663 0
M  V30 25462 C 2438.37 -4.2957 -1.19941 0
M  V30 25463 C 2439.07 -5.81169 0.248446 0
M  V30 25464 N 2438.05 -5.4237 -0.36544 0
M  V30 25465 H 2441.85 -2.92821 0.251632 0
M  V30 25466 H 2439.37 -1.60631 0.239031 0
M  V30 25467 H 2441.36 -3.588 -2.12293 0
M  V30 25468 H 2440.02 -2.41247 -2.17324 0
M  V30 25469 H 2441.03 -5.17096 0.288442 0
M  V30 25470 H 2437.71 -3.73865 -1.85826 0
M  V30 25471 H 2439.1 -6.65258 0.942403 0
M  V30 25472 N 2441.82 -0.15856 -1.568 0
M  V30 25473 C 2443.05 0.496268 -2.0086 0
M  V30 25474 C 2443.46 1.57657 -1.03873 0
M  V30 25475 O 2442.82 1.82461 -0.0375485 0
M  V30 25476 C 2442.87 1.08632 -3.44792 0
M  V30 25477 O 2442.59 0.0491552 -4.38072 0
M  V30 25478 C 2444.09 1.82063 -4.04188 0
M  V30 25479 H 2441.31 0.128187 -0.658642 0
M  V30 25480 H 2443.86 -0.256542 -2.02884 0
M  V30 25481 H 2442.01 1.78969 -3.43582 0
M  V30 25482 H 2442.43 0.48301 -5.22271 0
M  V30 25483 H 2443.9 2.18624 -5.0686 0
M  V30 25484 H 2444.38 2.71089 -3.45554 0
M  V30 25485 H 2444.98 1.16397 -4.09062 0
M  V30 25486 N 2443.3 1.57178 0.115204 0
M  V30 25487 C 2444.55 1.85326 0.823537 0
M  V30 25488 C 2444.88 0.744845 1.79348 0
M  V30 25489 O 2444.15 -0.24899 1.929 0
M  V30 25490 C 2444.44 3.24068 1.57008 0
M  V30 25491 C 2444.29 4.45514 0.619486 0
M  V30 25492 C 2445.61 3.60433 2.52539 0
M  V30 25493 H 2442.73 0.674094 0.297936 0
M  V30 25494 H 2445.37 1.89798 0.0876805 0
M  V30 25495 H 2443.52 3.20387 2.19737 0
M  V30 25496 H 2445.19 4.613 0.000756553 0
M  V30 25497 H 2443.43 4.33746 -0.0686937 0
M  V30 25498 H 2444.11 5.39272 1.17856 0
M  V30 25499 H 2446.58 3.6493 1.99914 0
M  V30 25500 H 2445.46 4.58482 3.01803 0
M  V30 25501 H 2445.72 2.88052 3.35378 0
M  V30 25502 N 2444.78 -0.38549 1.52813 0
M  V30 25503 C 2445.71 -1.47749 1.80811 0
M  V30 25504 C 2446.69 -1.56759 0.660346 0
M  V30 25505 O 2447.87 -1.71651 0.908277 0
M  V30 25506 C 2445 -2.85321 1.98013 0
M  V30 25507 C 2443.96 -2.91148 3.13714 0
M  V30 25508 C 2443.28 -4.31204 3.16176 0
M  V30 25509 C 2444.58 -2.60475 4.52714 0
M  V30 25510 H 2446.28 -1.24568 2.72256 0
M  V30 25511 H 2443.82 -0.597816 1.31004 0
M  V30 25512 H 2445.78 -3.61722 2.16183 0
M  V30 25513 H 2444.5 -3.09846 1.03261 0
M  V30 25514 H 2443.16 -2.17195 2.95333 0
M  V30 25515 H 2442.81 -4.52774 2.191 0
M  V30 25516 H 2442.51 -4.36022 3.93901 0
M  V30 25517 H 2444.03 -5.09506 3.36505 0
M  V30 25518 H 2445.45 -3.26593 4.71179 0
M  V30 25519 H 2443.84 -2.76639 5.32533 0
M  V30 25520 H 2444.91 -1.55801 4.59188 0
M  V30 25521 N 2446.26 -1.43835 -0.644143 0
M  V30 25522 C 2447.22 -1.49356 -1.73855 0
M  V30 25523 C 2448.22 -0.37714 -1.56315 0
M  V30 25524 O 2449.41 -0.639254 -1.62047 0
M  V30 25525 C 2446.54 -1.35493 -3.12817 0
M  V30 25526 H 2447.73 -2.4683 -1.70338 0
M  V30 25527 H 2445.29 -1.30735 -0.856629 0
M  V30 25528 H 2446.02 -0.390625 -3.21939 0
M  V30 25529 H 2445.81 -2.16434 -3.26954 0
M  V30 25530 H 2447.3 -1.42309 -3.92604 0
M  V30 25531 N 2447.73 0.883355 -1.30517 0
M  V30 25532 C 2448.68 1.98925 -1.17036 0
M  V30 25533 C 2449.65 1.65994 -0.0594533 0
M  V30 25534 O 2450.84 1.8941 -0.229929 0
M  V30 25535 C 2447.98 3.33958 -0.869835 0
M  V30 25536 C 2447.09 3.7957 -2.06278 0
M  V30 25537 C 2446.22 5.03256 -1.7002 0
M  V30 25538 C 2445.26 5.41281 -2.858 0
M  V30 25539 N 2444.4 6.56148 -2.49828 0
M  V30 25540 H 2449.24 2.09788 -2.11644 0
M  V30 25541 H 2446.78 1.02717 -1.05297 0
M  V30 25542 H 2448.73 4.11683 -0.676211 0
M  V30 25543 H 2447.36 3.22776 0.0393764 0
M  V30 25544 H 2446.42 2.9774 -2.3676 0
M  V30 25545 H 2447.73 4.03689 -2.92979 0
M  V30 25546 H 2446.88 5.88612 -1.47042 0
M  V30 25547 H 2445.62 4.81012 -0.804913 0
M  V30 25548 H 2444.63 4.54451 -3.09442 0
M  V30 25549 H 2445.85 5.65497 -3.76018 0
M  V30 25550 H 2443.8 6.35476 -1.62806 0
M  V30 25551 H 2443.71 6.80145 -3.3006 0
M  V30 25552 H 2444.98 7.44731 -2.3021 0
M  V30 25553 N 2449.21 1.13259 1.09591 0
M  V30 25554 C 2450.17 0.811396 2.14357 0
M  V30 25555 C 2451.17 -0.178349 1.59808 0
M  V30 25556 O 2452.36 0.0485217 1.74132 0
M  V30 25557 C 2449.5 0.207336 3.40269 0
M  V30 25558 H 2450.69 1.73973 2.44281 0
M  V30 25559 H 2448.24 0.936995 1.251 0
M  V30 25560 H 2448.98 -0.730305 3.1597 0
M  V30 25561 H 2448.76 0.920059 3.81153 0
M  V30 25562 H 2450.25 -0.00059454 4.176 0
M  V30 25563 N 2450.69 -1.27539 0.925834 0
M  V30 25564 C 2451.6 -2.30644 0.429034 0
M  V30 25565 C 2452.62 -1.66977 -0.489358 0
M  V30 25566 O 2453.79 -1.97923 -0.372618 0
M  V30 25567 C 2450.86 -3.45294 -0.311906 0
M  V30 25568 C 2449.92 -4.24485 0.641173 0
M  V30 25569 C 2449.15 -5.33661 -0.0645016 0
M  V30 25570 O 2449.37 -5.55756 -1.28419 0
M  V30 25571 O 2448.31 -5.98838 0.606371 0
M  V30 25572 H 2452.13 -2.75171 1.28509 0
M  V30 25573 H 2449.72 -1.32454 0.691109 0
M  V30 25574 H 2451.6 -4.15031 -0.729899 0
M  V30 25575 H 2450.28 -3.02826 -1.1436 0
M  V30 25576 H 2449.18 -3.5729 1.10881 0
M  V30 25577 H 2450.52 -4.70663 1.44003 0
M  V30 25578 N 2452.17 -0.691135 -1.41637 0
M  V30 25579 C 2453.1 -0.037289 -2.3347 0
M  V30 25580 C 2454.08 0.771921 -1.51576 0
M  V30 25581 O 2455.26 0.725788 -1.80128 0
M  V30 25582 C 2452.39 0.903005 -3.35355 0
M  V30 25583 C 2451.35 0.201213 -4.27527 0
M  V30 25584 C 2450.67 1.25556 -5.1975 0
M  V30 25585 C 2451.97 -0.92978 -5.13958 0
M  V30 25586 H 2453.67 -0.804278 -2.88395 0
M  V30 25587 H 2451.21 -0.388214 -1.38668 0
M  V30 25588 H 2453.17 1.36962 -3.98521 0
M  V30 25589 H 2451.89 1.70161 -2.7877 0
M  V30 25590 H 2450.55 -0.24533 -3.65778 0
M  V30 25591 H 2450.2 2.04658 -4.59483 0
M  V30 25592 H 2449.9 0.791026 -5.82251 0
M  V30 25593 H 2451.42 1.72278 -5.85792 0
M  V30 25594 H 2452.84 -0.543647 -5.70717 0
M  V30 25595 H 2451.23 -1.32113 -5.85377 0
M  V30 25596 H 2452.3 -1.77141 -4.51386 0
M  V30 25597 N 2453.65 1.51461 -0.435577 0
M  V30 25598 C 2454.89 2.03982 0.130672 0
M  V30 25599 C 2455.25 1.31271 1.40114 0
M  V30 25600 O 2456.45 1.74155 2.04752 0
M  V30 25601 C 2454.72 3.55721 0.34604 0
M  V30 25602 S 2456.28 4.29968 0.875947 0
M  V30 25603 H 2453.1 0.710249 0.0326756 0
M  V30 25604 H 2455.7 1.86239 -0.594577 0
M  V30 25605 H 2454.4 4.06209 -0.584982 0
M  V30 25606 H 2453.94 3.77754 1.09842 0
M  V30 25607 H 2455.95 4.47023 2.15371 0
M  V30 25608 N 2455.12 0.166873 1.56714 0
M  V30 25609 C 2456.36 -0.481728 1.98642 0
M  V30 25610 C 2456.73 -1.60719 1.05041 0
M  V30 25611 O 2457.93 -2.31803 1.36091 0
M  V30 25612 C 2456.2 -0.956457 3.44364 0
M  V30 25613 S 2457.76 -1.60687 4.0832 0
M  V30 25614 H 2454.58 -0.155104 0.693876 0
M  V30 25615 H 2457.18 0.263285 1.93719 0
M  V30 25616 H 2455.88 -0.126863 4.10204 0
M  V30 25617 H 2455.41 -1.73562 3.53044 0
M  V30 25618 H 2457.43 -2.89486 4.03004 0
M  V30 25619 N 2456.6 -1.57237 -0.106866 0
M  V30 25620 C 2457.83 -1.90057 -0.830254 0
M  V30 25621 C 2458.25 -0.76001 -1.72062 0
M  V30 25622 O 2457.61 0.288959 -1.78982 0
M  V30 25623 C 2457.66 -3.21685 -1.62944 0
M  V30 25624 O 2456.76 -3.08446 -2.73743 0
M  V30 25625 H 2456.1 -0.623319 -0.228844 0
M  V30 25626 H 2458.63 -2.04421 -0.0856221 0
M  V30 25627 H 2458.64 -3.54705 -2.01615 0
M  V30 25628 H 2457.32 -4.04288 -0.975918 0
M  V30 25629 H 2455.9 -2.86917 -2.38186 0
M  V30 25630 N 2458.08 0.377381 -1.53015 0
M  V30 25631 C 2459.04 1.44441 -1.77959 0
M  V30 25632 C 2460.04 1.47086 -0.649789 0
M  V30 25633 O 2461.23 1.48053 -0.917923 0
M  V30 25634 C 2458.37 2.83648 -1.89094 0
M  V30 25635 H 2459.56 1.23602 -2.73245 0
M  V30 25636 H 2457.11 0.609819 -1.43913 0
M  V30 25637 H 2457.85 3.09816 -0.958347 0
M  V30 25638 H 2457.63 2.83128 -2.71258 0
M  V30 25639 H 2459.12 3.60942 -2.10026 0
M  V30 25640 N 2459.56 1.44175 0.636506 0
M  V30 25641 C 2460.97 1.27943 0.954081 0
M  V30 25642 C 2461.17 0.211283 2.00389 0
M  V30 25643 O 2460.23 -0.404651 2.49236 0
M  V30 25644 C 2461.54 2.64928 1.42246 0
M  V30 25645 C 2463.09 2.72594 1.53822 0
M  V30 25646 C 2463.57 4.10036 2.04045 0
M  V30 25647 N 2465.06 4.12185 2.11323 0
M  V30 25648 C 2465.79 5.15378 2.51343 0
M  V30 25649 N 2465.29 6.28935 2.90538 0
M  V30 25650 N 2467.08 5.02732 2.51429 0
M  V30 25651 H 2459.23 2.12321 -0.0578759 0
M  V30 25652 H 2461.5 0.947288 0.036724 0
M  V30 25653 H 2461.2 3.44138 0.725406 0
M  V30 25654 H 2461.08 2.91454 2.39446 0
M  V30 25655 H 2463.46 1.93706 2.22625 0
M  V30 25656 H 2463.54 2.49815 0.550111 0
M  V30 25657 H 2463.19 4.89398 1.35839 0
M  V30 25658 H 2463.12 4.30189 3.03718 0
M  V30 25659 H 2465.61 3.30225 1.83739 0
M  V30 25660 H 2465.92 7.03493 3.19872 0
M  V30 25661 H 2464.27 6.32382 2.88302 0
M  V30 25662 H 2467.46 4.13075 2.20196 0
M  V30 25663 H 2467.63 5.83279 2.82294 0
M  V30 25664 N 2461.04 -0.876421 1.30983 0
M  V30 25665 C 2461.97 -1.98589 1.12417 0
M  V30 25666 C 2462.95 -1.62573 0.0294364 0
M  V30 25667 O 2464.13 -1.87594 0.184631 0
M  V30 25668 C 2461.26 -3.31038 0.716334 0
M  V30 25669 C 2460.3 -3.86039 1.81318 0
M  V30 25670 S 2461.14 -4.12284 3.41734 0
M  V30 25671 C 2462.29 -5.4774 3.02872 0
M  V30 25672 H 2462.53 -2.14033 2.06342 0
M  V30 25673 H 2460.06 -1.02583 1.15395 0
M  V30 25674 H 2462.02 -4.07592 0.487769 0
M  V30 25675 H 2460.68 -3.13439 -0.203694 0
M  V30 25676 H 2459.87 -4.81771 1.48029 0
M  V30 25677 H 2459.47 -3.16255 1.99646 0
M  V30 25678 H 2461.77 -6.29144 2.51364 0
M  V30 25679 H 2462.71 -5.85973 3.97544 0
M  V30 25680 H 2463.12 -5.10707 2.40496 0
M  V30 25681 N 2462.51 -1.13839 -1.08989 0
M  V30 25682 C 2463.76 -0.904251 -1.81524 0
M  V30 25683 C 2464.09 0.568033 -1.85707 0
M  V30 25684 O 2463.37 1.42054 -1.32857 0
M  V30 25685 C 2463.65 -1.4984 -3.27444 0
M  V30 25686 C 2463.5 -3.04012 -3.31507 0
M  V30 25687 C 2464.82 -1.17033 -4.24254 0
M  V30 25688 H 2461.94 -0.329935 -0.659024 0
M  V30 25689 H 2464.58 -1.40739 -1.27642 0
M  V30 25690 H 2462.73 -1.07051 -3.7346 0
M  V30 25691 H 2464.41 -3.55589 -2.93861 0
M  V30 25692 H 2462.65 -3.38769 -2.70957 0
M  V30 25693 H 2463.32 -3.40687 -4.34323 0
M  V30 25694 H 2465.8 -1.54016 -3.86547 0
M  V30 25695 H 2464.67 -1.61246 -5.24682 0
M  V30 25696 H 2464.93 -0.0847051 -4.42019 0
M  V30 25697 N 2463.99 1.27046 -0.932584 0
M  V30 25698 C 2465.24 1.94777 -0.585947 0
M  V30 25699 C 2465.59 1.71904 0.864111 0
M  V30 25700 O 2464.89 1.0404 1.60892 0
M  V30 25701 C 2465.08 3.47053 -0.853774 0
M  V30 25702 C 2464.91 3.84733 -2.32832 0
M  V30 25703 C 2463.68 4.07934 -2.98192 0
M  V30 25704 C 2465.88 3.93948 -3.30619 0
M  V30 25705 N 2463.86 4.32432 -4.35748 0
M  V30 25706 C 2465.23 4.22879 -4.53402 0
M  V30 25707 C 2467.29 3.76542 -3.25761 0
M  V30 25708 C 2465.99 4.36214 -5.71935 0
M  V30 25709 C 2468.01 3.91106 -4.43611 0
M  V30 25710 C 2467.38 4.20427 -5.65173 0
M  V30 25711 H 2463.48 0.735864 -0.26463 0
M  V30 25712 H 2466.06 1.53307 -1.20021 0
M  V30 25713 H 2464.23 3.8747 -0.268625 0
M  V30 25714 H 2465.96 4.0197 -0.469273 0
M  V30 25715 H 2462.72 4.02957 -2.48842 0
M  V30 25716 H 2463.14 4.48729 -5.06923 0
M  V30 25717 H 2467.78 3.52909 -2.32841 0
M  V30 25718 H 2465.5 4.58672 -6.65316 0
M  V30 25719 H 2469.09 3.79051 -4.41375 0
M  V30 25720 H 2467.97 4.31451 -6.54843 0
M  V30 25721 N 2465.47 0.698636 1.41269 0
M  V30 25722 C 2466.89 0.37049 1.5524 0
M  V30 25723 C 2467.09 -1.12228 1.67353 0
M  V30 25724 O 2466.14 -1.90815 1.65366 0
M  V30 25725 C 2467.46 1.1217 2.78995 0
M  V30 25726 C 2469 1.10635 2.92795 0
M  V30 25727 C 2469.48 1.83937 4.19441 0
M  V30 25728 N 2470.97 1.80922 4.26405 0
M  V30 25729 C 2471.7 2.34476 5.23267 0
M  V30 25730 N 2471.2 2.96515 6.26139 0
M  V30 25731 N 2472.99 2.24715 5.15228 0
M  V30 25732 H 2465.14 1.66678 1.31651 0
M  V30 25733 H 2467.41 0.703559 0.635381 0
M  V30 25734 H 2467.11 2.17648 2.76265 0
M  V30 25735 H 2466.99 0.702274 3.70605 0
M  V30 25736 H 2469.37 0.0598232 2.95039 0
M  V30 25737 H 2469.46 1.56486 2.0235 0
M  V30 25738 H 2469.1 2.88571 4.17959 0
M  V30 25739 H 2469.03 1.35518 5.08864 0
M  V30 25740 H 2471.52 1.35693 3.52698 0
M  V30 25741 H 2471.83 3.34939 6.96445 0
M  V30 25742 H 2470.18 3.00594 6.26633 0
M  V30 25743 H 2473.37 1.75918 4.33786 0
M  V30 25744 H 2473.54 2.66755 5.90547 0
M  V30 25745 N 2466.95 -1.51228 0.443603 0
M  V30 25746 C 2467.86 -2.31653 -0.37068 0
M  V30 25747 C 2468.87 -1.40835 -1.02183 0
M  V30 25748 O 2470.05 -1.73905 -1.01583 0
M  V30 25749 C 2467.12 -3.14751 -1.4537 0
M  V30 25750 C 2466.18 -4.21356 -0.822025 0
M  V30 25751 C 2465.41 -5.00483 -1.85344 0
M  V30 25752 O 2465.63 -4.80322 -3.07648 0
M  V30 25753 O 2464.57 -5.84409 -1.44049 0
M  V30 25754 H 2468.39 -3.0235 0.286055 0
M  V30 25755 H 2465.98 -1.47973 0.206006 0
M  V30 25756 H 2467.86 -3.66394 -2.08166 0
M  V30 25757 H 2466.53 -2.46812 -2.09441 0
M  V30 25758 H 2465.44 -3.73775 -0.155843 0
M  V30 25759 H 2466.77 -4.91687 -0.22471 0
M  V30 25760 N 2468.43 -0.175182 -1.56623 0
M  V30 25761 C 2469.67 0.462941 -1.98062 0
M  V30 25762 C 2470.03 1.60599 -1.05951 0
M  V30 25763 O 2469.32 1.91339 -0.0999364 0
M  V30 25764 C 2469.51 0.989803 -3.43421 0
M  V30 25765 C 2469.34 -0.100662 -4.49587 0
M  V30 25766 C 2468.11 -0.551627 -5.0228 0
M  V30 25767 C 2470.31 -0.902458 -5.0632 0
M  V30 25768 N 2468.29 -1.62199 -5.92085 0
M  V30 25769 C 2469.66 -1.82266 -5.92604 0
M  V30 25770 C 2471.72 -0.947105 -4.88809 0
M  V30 25771 C 2470.42 -2.78376 -6.63249 0
M  V30 25772 C 2472.45 -1.89616 -5.60178 0
M  V30 25773 C 2471.81 -2.80384 -6.46192 0
M  V30 25774 H 2467.91 0.137395 -0.769835 0
M  V30 25775 H 2470.49 -0.27629 -1.9273 0
M  V30 25776 H 2468.66 1.69854 -3.49291 0
M  V30 25777 H 2470.4 1.59688 -3.71863 0
M  V30 25778 H 2467.15 -0.148621 -4.73367 0
M  V30 25779 H 2467.58 -2.15778 -6.41692 0
M  V30 25780 H 2472.22 -0.259378 -4.22004 0
M  V30 25781 H 2469.94 -3.48135 -7.29265 0
M  V30 25782 H 2473.52 -1.93686 -5.48614 0
M  V30 25783 H 2472.4 -3.52624 -7.00447 0
M  V30 25784 N 2469.91 1.57292 0.0985263 0
M  V30 25785 C 2471.15 1.87739 0.808299 0
M  V30 25786 C 2471.51 0.76575 1.76069 0
M  V30 25787 O 2472.71 0.952543 2.51356 0
M  V30 25788 C 2470.98 3.23426 1.52088 0
M  V30 25789 S 2472.54 3.75558 2.2694 0
M  V30 25790 H 2469.36 0.658 0.269365 0
M  V30 25791 H 2471.96 1.9539 0.0655925 0
M  V30 25792 H 2470.66 4.02255 0.813559 0
M  V30 25793 H 2470.2 3.18905 2.30355 0
M  V30 25794 H 2472.21 3.48699 3.53021 0
M  V30 25795 N 2471.38 -0.369261 1.53213 0
M  V30 25796 C 2472.33 -1.4725 1.80056 0
M  V30 25797 C 2473.33 -1.55609 0.669484 0
M  V30 25798 O 2474.53 -1.5854 0.852355 0
M  V30 25799 H 2470.91 -0.490465 0.570042 0
M  V30 25800 H 2472.88 -1.21812 2.72405 0
M  V30 25801 C 2471.63 -2.84133 2.00408 0
M  V30 25802 H 2470.95 -2.78459 2.86881 0
M  V30 25803 H 2472.39 -3.60515 2.2317 0
M  V30 25804 C 2470.85 -3.27695 0.782139 0
M  V30 25805 O 2471.38 -4.01688 -0.0309499 0
M  V30 25806 N 2469.58 -2.84198 0.606623 0
M  V30 25807 H 2469.13 -2.2415 1.26943 0
M  V30 25808 H 2469.09 -3.13701 -0.209564 0
M  V30 25809 N 2472.86 -1.4451 -0.628851 0
M  V30 25810 C 2474.11 -1.47632 -1.39042 0
M  V30 25811 C 2474.44 -0.109377 -1.93892 0
M  V30 25812 O 2473.72 0.87331 -1.73792 0
M  V30 25813 C 2474 -2.53852 -2.55404 0
M  V30 25814 C 2473.85 -3.99912 -2.05889 0
M  V30 25815 C 2475.17 -2.56555 -3.57586 0
M  V30 25816 H 2472.29 -0.537521 -0.504222 0
M  V30 25817 H 2474.93 -1.76202 -0.710823 0
M  V30 25818 H 2473.08 -2.2962 -3.1338 0
M  V30 25819 H 2474.75 -4.35284 -1.52726 0
M  V30 25820 H 2473 -4.11581 -1.37054 0
M  V30 25821 H 2473.67 -4.69887 -2.89673 0
M  V30 25822 H 2476.14 -2.78213 -3.09414 0
M  V30 25823 H 2475.02 -3.32777 -4.36521 0
M  V30 25824 H 2475.28 -1.60839 -4.11805 0
M  V30 25825 N 2474.34 0.869463 -1.31446 0
M  V30 25826 C 2475.58 1.63654 -1.22461 0
M  V30 25827 C 2475.94 1.90806 0.213813 0
M  V30 25828 O 2477.14 2.65384 0.427165 0
M  V30 25829 C 2475.42 2.93063 -2.04569 0
M  V30 25830 S 2476.97 3.8394 -2.12451 0
M  V30 25831 H 2473.79 0.561507 -0.436155 0
M  V30 25832 H 2476.39 1.03082 -1.66116 0
M  V30 25833 H 2475.1 2.7104 -3.08165 0
M  V30 25834 H 2474.63 3.5866 -1.61636 0
M  V30 25835 H 2476.64 4.79852 -1.2632 0
M  V30 25836 N 2475.82 1.14415 1.08383 0
M  V30 25837 C 2477.07 0.910711 1.80417 0
M  V30 25838 C 2477.39 -0.56421 1.86659 0
M  V30 25839 O 2476.66 -1.41012 1.35987 0
M  V30 25840 H 2475.24 0.333946 0.668198 0
M  V30 25841 H 2477.9 1.44278 1.31034 0
M  V30 25842 H 2476.99 1.31087 2.83236 0
M  V30 25843 N 2477.3 -1.26549 0.939309 0
M  V30 25844 C 2478.54 -1.93132 0.581635 0
M  V30 25845 C 2478.86 -1.74525 -0.883193 0
M  V30 25846 O 2480.06 -2.35548 -1.35016 0
M  V30 25847 C 2478.52 -3.46031 0.989486 0
M  V30 25848 C 2478.13 -3.73374 2.4758 0
M  V30 25849 C 2479.87 -4.18628 0.703617 0
M  V30 25850 C 2477.78 -5.19704 2.82245 0
M  V30 25851 H 2476.71 -0.723048 0.213816 0
M  V30 25852 H 2479.36 -1.43658 1.14169 0
M  V30 25853 H 2477.74 -3.94379 0.357972 0
M  V30 25854 H 2478.92 -3.35739 3.1562 0
M  V30 25855 H 2477.23 -3.14005 2.73477 0
M  V30 25856 H 2479.83 -5.26391 0.938961 0
M  V30 25857 H 2480.17 -4.14744 -0.359566 0
M  V30 25858 H 2480.7 -3.76139 1.29476 0
M  V30 25859 H 2477.44 -5.28687 3.87518 0
M  V30 25860 H 2476.96 -5.58443 2.18864 0
M  V30 25861 H 2478.64 -5.8769 2.70609 0
M  V30 25862 N 2478.77 -0.706118 -1.40896 0
M  V30 25863 C 2479.72 -0.0474879 -2.30751 0
M  V30 25864 C 2480.69 0.760264 -1.47679 0
M  V30 25865 O 2481.88 0.726146 -1.76442 0
M  V30 25866 C 2479.02 0.875251 -3.33816 0
M  V30 25867 C 2478.13 0.0579864 -4.31961 0
M  V30 25868 C 2477.26 0.979333 -5.22094 0
M  V30 25869 C 2476.3 0.155599 -6.11902 0
M  V30 25870 N 2475.44 1.03131 -6.94484 0
M  V30 25871 H 2480.28 -0.819463 -2.86511 0
M  V30 25872 H 2477.82 -0.415808 -1.41101 0
M  V30 25873 H 2479.77 1.42439 -3.92131 0
M  V30 25874 H 2478.4 1.61351 -2.79581 0
M  V30 25875 H 2477.46 -0.608213 -3.75506 0
M  V30 25876 H 2478.77 -0.580169 -4.95414 0
M  V30 25877 H 2477.92 1.59733 -5.85295 0
M  V30 25878 H 2476.66 1.65133 -4.58893 0
M  V30 25879 H 2475.67 -0.475405 -5.47741 0
M  V30 25880 H 2476.89 -0.512754 -6.77161 0
M  V30 25881 H 2474.84 1.68913 -6.3388 0
M  V30 25882 H 2474.75 0.448975 -7.54666 0
M  V30 25883 H 2476.02 1.63579 -7.62143 0
M  V30 25884 N 2480.25 1.50991 -0.451617 0
M  V30 25885 C 2481.53 1.94854 0.170672 0
M  V30 25886 C 2481.91 1.39106 1.58786 0
M  V30 25887 O 2481.26 0.58396 2.20912 0
M  V30 25888 C 2481.47 3.48743 0.133867 0
M  V30 25889 C 2482.81 4.23297 0.332405 0
M  V30 25890 O 2483.84 3.55572 0.211341 0
M  V30 25891 O 2482.7 5.43469 0.574765 0
M  V30 25892 H 2479.79 0.817914 0.12225 0
M  V30 25893 H 2482.34 1.61836 -0.510622 0
M  V30 25894 H 2481.11 3.81815 -0.85635 0
M  V30 25895 H 2480.73 3.88244 0.857461 0
M  V30 25896 N 2481.73 0.183486 1.56528 0
M  V30 25897 C 2482.98 -0.459002 1.97537 0
M  V30 25898 C 2483.31 -1.62069 1.06992 0
M  V30 25899 O 2482.58 -1.94132 0.119515 0
M  V30 25900 C 2482.87 -0.930307 3.47875 0
M  V30 25901 C 2482.72 0.232396 4.49199 0
M  V30 25902 C 2484.04 -1.79982 4.01615 0
M  V30 25903 H 2481.16 -0.165371 0.718207 0
M  V30 25904 H 2483.8 0.272072 1.88042 0
M  V30 25905 H 2481.95 -1.55327 3.56098 0
M  V30 25906 H 2483.62 0.869799 4.53026 0
M  V30 25907 H 2481.86 0.886002 4.24656 0
M  V30 25908 H 2482.54 -0.139699 5.51823 0
M  V30 25909 H 2485.01 -1.27454 3.96099 0
M  V30 25910 H 2483.89 -2.09858 5.07199 0
M  V30 25911 H 2484.15 -2.74992 3.46167 0
M  V30 25912 N 2483.21 -1.57342 -0.0901833 0
M  V30 25913 C 2484.45 -1.86613 -0.793949 0
M  V30 25914 C 2484.79 -0.773284 -1.7814 0
M  V30 25915 O 2484.06 0.21827 -1.93271 0
M  V30 25916 C 2484.34 -3.26525 -1.51833 0
M  V30 25917 C 2484.2 -4.46443 -0.548531 0
M  V30 25918 C 2485.52 -3.64405 -2.46773 0
M  V30 25919 H 2482.64 -0.678749 -0.287174 0
M  V30 25920 H 2485.28 -1.89913 -0.0574742 0
M  V30 25921 H 2483.43 -3.23843 -2.14612 0
M  V30 25922 H 2485.1 -4.61243 0.0726324 0
M  V30 25923 H 2483.34 -4.33581 0.13769 0
M  V30 25924 H 2484.01 -5.41078 -1.09262 0
M  V30 25925 H 2486.49 -3.68064 -1.94083 0
M  V30 25926 H 2485.37 -4.63226 -2.94471 0
M  V30 25927 H 2485.63 -2.93352 -3.30753 0
M  V30 25928 N 2484.69 0.36113 -1.53407 0
M  V30 25929 C 2485.62 1.44853 -1.83139 0
M  V30 25930 C 2486.6 1.55689 -0.685201 0
M  V30 25931 O 2487.78 1.70184 -0.93547 0
M  V30 25932 C 2484.91 2.82135 -2.02527 0
M  V30 25933 C 2483.87 2.8612 -3.18307 0
M  V30 25934 C 2483.19 4.26119 -3.22996 0
M  V30 25935 C 2484.49 2.5324 -4.56801 0
M  V30 25936 H 2486.19 1.20221 -2.74203 0
M  V30 25937 H 2483.73 0.576899 -1.31939 0
M  V30 25938 H 2485.69 3.58237 -2.2191 0
M  V30 25939 H 2484.41 3.08164 -1.08177 0
M  V30 25940 H 2483.07 2.12469 -2.98751 0
M  V30 25941 H 2482.72 4.49231 -2.26275 0
M  V30 25942 H 2482.42 4.29701 -4.00788 0
M  V30 25943 H 2483.94 5.04088 -3.44568 0
M  V30 25944 H 2485.35 3.19056 -4.76315 0
M  V30 25945 H 2483.75 2.68131 -5.36866 0
M  V30 25946 H 2484.82 1.48476 -4.61609 0
M  V30 25947 N 2486.16 1.44842 0.621179 0
M  V30 25948 C 2487.1 1.48469 1.74613 0
M  V30 25949 C 2488.11 0.376938 1.58376 0
M  V30 25950 O 2489.3 0.643244 1.66507 0
M  V30 25951 C 2486.4 1.31241 3.12456 0
M  V30 25952 C 2485.57 2.55444 3.55059 0
M  V30 25953 C 2484.63 2.32971 4.71817 0
M  V30 25954 O 2483.66 3.06514 4.79623 0
M  V30 25955 N 2484.86 1.36664 5.64184 0
M  V30 25956 H 2487.62 2.45452 1.71969 0
M  V30 25957 H 2485.18 1.40408 0.806052 0
M  V30 25958 H 2487.18 1.14039 3.883 0
M  V30 25959 H 2485.75 0.425855 3.09686 0
M  V30 25960 H 2484.97 2.87856 2.69319 0
M  V30 25961 H 2486.25 3.38033 3.80278 0
M  V30 25962 H 2485.65 0.759442 5.60579 0
M  V30 25963 H 2484.21 1.25437 6.39616 0
M  V30 25964 N 2487.64 -0.862479 1.31905 0
M  V30 25965 C 2488.89 -1.6129 1.21778 0
M  V30 25966 C 2489.21 -1.93728 -0.222378 0
M  V30 25967 O 2488.48 -1.58949 -1.14508 0
M  V30 25968 H 2487.06 -0.597954 0.447728 0
M  V30 25969 H 2489.72 -1.03212 1.65328 0
M  V30 25970 H 2488.82 -2.55326 1.79485 0
M  V30 25971 N 2489.12 -1.14988 -1.07775 0
M  V30 25972 C 2490.05 -0.865595 -2.16863 0
M  V30 25973 C 2491.03 0.182053 -1.69123 0
M  V30 25974 O 2492.22 0.0373473 -1.94164 0
M  V30 25975 C 2489.35 -0.349373 -3.45538 0
M  V30 25976 C 2488.3 -1.3332 -4.06706 0
M  V30 25977 C 2487.63 -0.676011 -5.30409 0
M  V30 25978 C 2488.93 -2.69772 -4.47236 0
M  V30 25979 H 2490.62 -1.77782 -2.40902 0
M  V30 25980 H 2488.17 -0.856223 -1.15779 0
M  V30 25981 H 2490.12 -0.138057 -4.21174 0
M  V30 25982 H 2488.84 0.598306 -3.21073 0
M  V30 25983 H 2487.5 -1.53081 -3.33109 0
M  V30 25984 H 2487.15 0.277679 -5.02233 0
M  V30 25985 H 2486.85 -1.33254 -5.72291 0
M  V30 25986 H 2488.37 -0.474369 -6.08755 0
M  V30 25987 H 2489.79 -2.53882 -5.1402 0
M  V30 25988 H 2488.19 -3.31759 -5.00056 0
M  V30 25989 H 2489.26 -3.26162 -3.58812 0
M  V30 25990 N 2490.6 1.26049 -0.946007 0
M  V30 25991 C 2491.55 2.26207 -0.45813 0
M  V30 25992 C 2492.52 1.58868 0.484788 0
M  V30 25993 O 2493.7 1.86561 0.399936 0
M  V30 25994 C 2490.84 3.44073 0.266071 0
M  V30 25995 C 2489.95 4.26074 -0.71308 0
M  V30 25996 C 2489.09 5.3119 0.032808 0
M  V30 25997 C 2488.13 6.04873 -0.937846 0
M  V30 25998 N 2487.26 7.01745 -0.223397 0
M  V30 25999 H 2492.1 2.67311 -1.31715 0
M  V30 26000 H 2489.64 1.31427 -0.660713 0
M  V30 26001 H 2491.6 4.11244 0.702441 0
M  V30 26002 H 2490.23 3.03869 1.0892 0
M  V30 26003 H 2489.28 3.58646 -1.26795 0
M  V30 26004 H 2490.59 4.77133 -1.45414 0
M  V30 26005 H 2489.75 6.04396 0.528229 0
M  V30 26006 H 2488.49 4.80982 0.806717 0
M  V30 26007 H 2487.49 5.30489 -1.44435 0
M  V30 26008 H 2488.72 6.5717 -1.71184 0
M  V30 26009 H 2486.66 6.5384 0.531931 0
M  V30 26010 H 2486.58 7.50579 -0.903701 0
M  V30 26011 H 2487.85 7.79097 0.250771 0
M  V30 26012 N 2492.08 0.71358 1.4052 0
M  V30 26013 C 2493.04 0.068475 2.29098 0
M  V30 26014 C 2494.04 -0.689446 1.4527 0
M  V30 26015 O 2495.23 -0.521648 1.66206 0
M  V30 26016 C 2492.36 -0.912966 3.28447 0
M  V30 26017 H 2493.55 0.848601 2.87643 0
M  V30 26018 H 2491.11 0.478116 1.48808 0
M  V30 26019 H 2491.84 -1.72022 2.74916 0
M  V30 26020 H 2491.63 -0.372403 3.90328 0
M  V30 26021 H 2493.12 -1.36158 3.9478 0
M  V30 26022 N 2493.55 -1.50749 0.459618 0
M  V30 26023 C 2494.79 -2.04164 -0.0982042 0
M  V30 26024 C 2495.16 -1.33483 -1.38008 0
M  V30 26025 O 2496.36 -1.77391 -2.01955 0
M  V30 26026 C 2494.63 -3.56226 -0.289404 0
M  V30 26027 S 2496.19 -4.31307 -0.807432 0
M  V30 26028 H 2493.01 -0.710679 -0.021372 0
M  V30 26029 H 2495.61 -1.8527 0.624131 0
M  V30 26030 H 2494.31 -4.05227 0.649532 0
M  V30 26031 H 2493.84 -3.79454 -1.03818 0
M  V30 26032 H 2495.86 -4.50393 -2.08232 0
M  V30 26033 N 2495.03 -0.191784 -1.56429 0
M  V30 26034 C 2496.27 0.450064 -1.99384 0
M  V30 26035 C 2496.64 1.59027 -1.07584 0
M  V30 26036 O 2497.84 2.29609 -1.39762 0
M  V30 26037 C 2496.11 0.90155 -3.45842 0
M  V30 26038 S 2497.67 1.5417 -4.10825 0
M  V30 26039 H 2494.49 0.144045 -0.696256 0
M  V30 26040 H 2497.09 -0.29407 -1.93276 0
M  V30 26041 H 2495.79 0.0615875 -4.10354 0
M  V30 26042 H 2495.32 1.67923 -3.5576 0
M  V30 26043 H 2497.34 2.83038 -4.07558 0
M  V30 26044 N 2496.51 1.57387 0.0818378 0
M  V30 26045 C 2497.74 1.90695 0.79492 0
M  V30 26046 C 2498.15 0.785012 1.72146 0
M  V30 26047 O 2497.49 -0.251164 1.81975 0
M  V30 26048 C 2497.55 3.19379 1.65037 0
M  V30 26049 C 2497.22 4.48165 0.894258 0
M  V30 26050 C 2498.21 5.19443 0.218039 0
M  V30 26051 C 2495.9 4.94806 0.864408 0
M  V30 26052 C 2497.89 6.35606 -0.477914 0
M  V30 26053 C 2495.58 6.10878 0.164677 0
M  V30 26054 C 2496.58 6.81128 -0.505293 0
M  V30 26055 O 2496.27 7.94987 -1.19377 0
M  V30 26056 H 2496 0.635027 0.231768 0
M  V30 26057 H 2498.55 2.05314 0.0594569 0
M  V30 26058 H 2496.78 3.00942 2.42839 0
M  V30 26059 H 2498.47 3.38415 2.24121 0
M  V30 26060 H 2499.24 4.84443 0.232473 0
M  V30 26061 H 2495.12 4.40006 1.37534 0
M  V30 26062 H 2498.66 6.90375 -1.00141 0
M  V30 26063 H 2494.56 6.4533 0.148135 0
M  V30 26064 H 2495.33 8.11047 -1.10202 0
M  V30 26065 N 2497.99 -0.35299 1.53596 0
M  V30 26066 C 2499.23 -1.0959 1.7064 0
M  V30 26067 C 2499.57 -1.88592 0.463319 0
M  V30 26068 O 2498.84 -1.86866 -0.539564 0
M  V30 26069 C 2499.13 -2.04484 2.96409 0
M  V30 26070 C 2498.98 -1.29007 4.30903 0
M  V30 26071 C 2500.3 -3.04434 3.17817 0
M  V30 26072 H 2497.42 -0.397023 0.62092 0
M  V30 26073 H 2500.06 -0.375413 1.86254 0
M  V30 26074 H 2498.21 -2.65922 2.83228 0
M  V30 26075 H 2499.88 -0.702558 4.55919 0
M  V30 26076 H 2498.12 -0.591996 4.29742 0
M  V30 26077 H 2498.79 -1.98528 5.15064 0
M  V30 26078 H 2501.27 -2.53106 3.30267 0
M  V30 26079 H 2500.15 -3.68042 4.0723 0
M  V30 26080 H 2500.41 -3.75297 2.33676 0
M  V30 26081 N 2499.47 -1.45169 -0.613489 0
M  V30 26082 C 2500.72 -1.48583 -1.36994 0
M  V30 26083 C 2501.04 -0.126579 -1.94589 0
M  V30 26084 O 2500.31 0.843341 -1.76818 0
M  V30 26085 H 2498.89 -0.547163 -0.508549 0
M  V30 26086 H 2501.55 -1.81081 -0.720821 0
M  V30 26087 H 2500.64 -2.22131 -2.19236 0
M  V30 26088 N 2500.95 0.855472 -1.32361 0
M  V30 26089 C 2502.19 1.61198 -1.23057 0
M  V30 26090 C 2502.52 1.9309 0.20737 0
M  V30 26091 O 2501.8 1.57278 1.14429 0
M  V30 26092 C 2502.08 2.93284 -2.08942 0
M  V30 26093 C 2501.94 2.68179 -3.6111 0
M  V30 26094 C 2503.25 3.94545 -1.94993 0
M  V30 26095 H 2500.37 0.584919 -0.448374 0
M  V30 26096 H 2503.02 0.987888 -1.62298 0
M  V30 26097 H 2501.17 3.46548 -1.75605 0
M  V30 26098 H 2502.84 2.21475 -4.04656 0
M  V30 26099 H 2501.08 2.02158 -3.83816 0
M  V30 26100 H 2501.75 3.62227 -4.16528 0
M  V30 26101 H 2504.23 3.50536 -2.24196 0
M  V30 26102 H 2503.1 4.84824 -2.57364 0
M  V30 26103 H 2503.36 4.32478 -0.917339 0
M  V30 26104 N 2502.42 1.15558 1.07164 0
M  V30 26105 C 2503.36 0.811853 2.1434 0
M  V30 26106 C 2504.37 -0.176986 1.61835 0
M  V30 26107 O 2505.56 0.0465309 1.78439 0
M  V30 26108 C 2502.66 0.18654 3.38386 0
M  V30 26109 C 2501.83 1.21328 4.20236 0
M  V30 26110 C 2500.89 0.609394 5.22659 0
M  V30 26111 O 2499.92 1.27586 5.54717 0
M  V30 26112 N 2501.12 -0.607997 5.77307 0
M  V30 26113 H 2503.88 1.73421 2.44428 0
M  V30 26114 H 2501.44 1.05172 1.23087 0
M  V30 26115 H 2503.44 -0.230268 4.04044 0
M  V30 26116 H 2502.01 -0.639195 3.05995 0
M  V30 26117 H 2501.23 1.80658 3.50366 0
M  V30 26118 H 2502.51 1.90646 4.71732 0
M  V30 26119 H 2501.91 -1.1678 5.53515 0
M  V30 26120 H 2500.47 -0.967137 6.44585 0
M  V30 26121 N 2503.9 -1.25546 0.952678 0
M  V30 26122 C 2505.13 -1.97281 0.62353 0
M  V30 26123 C 2505.54 -1.70827 -0.803957 0
M  V30 26124 O 2504.9 -0.983174 -1.53753 0
M  V30 26125 C 2504.95 -3.50868 0.870271 0
M  V30 26126 O 2504.67 -3.76408 2.24162 0
M  V30 26127 C 2506.17 -4.39834 0.553242 0
M  V30 26128 H 2503.39 -0.628898 0.233942 0
M  V30 26129 H 2505.94 -1.59766 1.27652 0
M  V30 26130 H 2504.09 -3.86501 0.26372 0
M  V30 26131 H 2504.51 -4.70878 2.31029 0
M  V30 26132 H 2505.98 -5.46512 0.776438 0
M  V30 26133 H 2506.46 -4.36204 -0.512138 0
M  V30 26134 H 2507.06 -4.09764 1.13903 0
M  V30 26135 N 2505.38 -0.721022 -1.40139 0
M  V30 26136 C 2506.63 -0.263267 -2.01084 0
M  V30 26137 C 2506.96 1.14226 -1.57054 0
M  V30 26138 O 2506.23 1.77597 -0.793058 0
M  V30 26139 C 2506.52 -0.349407 -3.58401 0
M  V30 26140 C 2506.37 -1.7937 -4.12488 0
M  V30 26141 C 2507.69 0.276274 -4.39232 0
M  V30 26142 H 2504.81 -0.0971357 -0.730571 0
M  V30 26143 H 2507.45 -0.914547 -1.66541 0
M  V30 26144 H 2505.6 0.205097 -3.87958 0
M  V30 26145 H 2507.27 -2.40401 -3.93707 0
M  V30 26146 H 2505.51 -2.31964 -3.66572 0
M  V30 26147 H 2506.19 -1.80533 -5.21643 0
M  V30 26148 H 2508.66 -0.196257 -4.15637 0
M  V30 26149 H 2507.54 0.185584 -5.48586 0
M  V30 26150 H 2507.8 1.36052 -4.20645 0
M  V30 26151 N 2506.86 1.50503 -0.467606 0
M  V30 26152 C 2507.77 2.32213 0.333779 0
M  V30 26153 C 2508.78 1.42443 0.999298 0
M  V30 26154 O 2509.96 1.75499 0.988037 0
M  V30 26155 C 2507.02 3.17024 1.40344 0
M  V30 26156 C 2506.09 4.22611 0.754887 0
M  V30 26157 C 2505.32 5.03368 1.77358 0
M  V30 26158 O 2505.54 4.85155 2.99967 0
M  V30 26159 O 2504.48 5.86626 1.34734 0
M  V30 26160 H 2508.3 3.01856 -0.33412 0
M  V30 26161 H 2505.89 1.47626 -0.229522 0
M  V30 26162 H 2507.77 3.6966 2.02311 0
M  V30 26163 H 2506.44 2.50113 2.05487 0
M  V30 26164 H 2505.35 3.73976 0.0963587 0
M  V30 26165 H 2506.68 4.91982 0.146459 0
M  V30 26166 N 2508.34 0.200077 1.56325 0
M  V30 26167 C 2509.61 -0.485256 1.89485 0
M  V30 26168 C 2509.99 -1.79292 1.11434 0
M  V30 26169 O 2509.34 -2.27468 0.216959 0
M  V30 26170 C 2509.55 -0.699183 3.41925 0
M  V30 26171 C 2510.9 -1.01631 4.12258 0
M  V30 26172 O 2511.92 -0.786731 3.47403 0
M  V30 26173 O 2510.78 -1.45086 5.26889 0
M  V30 26174 H 2507.88 -0.253625 0.787149 0
M  V30 26175 H 2510.42 0.240662 1.67985 0
M  V30 26176 H 2509.19 0.224077 3.90658 0
M  V30 26177 H 2508.82 -1.47738 3.69133 0
M  V30 26178 N 2509.81 -1.57429 -0.0734901 0
M  V30 26179 C 2510.74 -2.0661 -1.08787 0
M  V30 26180 C 2511.72 -0.959261 -1.40471 0
M  V30 26181 O 2512.91 -1.23188 -1.50128 0
M  V30 26182 C 2510.04 -2.50861 -2.40179 0
M  V30 26183 C 2508.99 -3.65406 -2.22851 0
M  V30 26184 C 2508.32 -3.95706 -3.59612 0
M  V30 26185 C 2509.62 -4.95514 -1.65115 0
M  V30 26186 H 2511.31 -2.91608 -0.678622 0
M  V30 26187 H 2508.86 -1.40285 -0.324989 0
M  V30 26188 H 2510.81 -2.8388 -3.11432 0
M  V30 26189 H 2509.54 -1.6289 -2.8308 0
M  V30 26190 H 2508.2 -3.32667 -1.54039 0
M  V30 26191 H 2507.84 -3.04869 -4.0008 0
M  V30 26192 H 2507.54 -4.72834 -3.48857 0
M  V30 26193 H 2509.07 -4.3122 -4.32299 0
M  V30 26194 H 2510.48 -5.26775 -2.26232 0
M  V30 26195 H 2508.88 -5.76953 -1.65061 0
M  V30 26196 H 2509.95 -4.81016 -0.612474 0
M  V30 26197 N 2511.29 0.344839 -1.53781 0
M  V30 26198 C 2512.71 0.687863 -1.44016 0
M  V30 26199 C 2512.91 1.92488 -0.595868 0
M  V30 26200 O 2511.96 2.52352 -0.0863508 0
M  V30 26201 C 2513.28 0.881707 -2.87483 0
M  V30 26202 C 2514.82 0.980407 -2.97249 0
M  V30 26203 C 2515.3 1.20658 -4.41821 0
M  V30 26204 N 2516.79 1.27381 -4.45341 0
M  V30 26205 C 2517.53 1.46629 -5.54335 0
M  V30 26206 N 2517.02 1.63059 -6.73338 0
M  V30 26207 N 2518.81 1.49166 -5.41946 0
M  V30 26208 H 2510.97 -0.468511 -2.07168 0
M  V30 26209 H 2513.23 -0.147672 -0.936428 0
M  V30 26210 H 2512.93 0.0442826 -3.51672 0
M  V30 26211 H 2512.81 1.78382 -3.32355 0
M  V30 26212 H 2515.2 1.80835 -2.33201 0
M  V30 26213 H 2515.28 0.0552264 -2.5574 0
M  V30 26214 H 2514.92 0.383563 -5.0645 0
M  V30 26215 H 2514.85 2.1453 -4.8092 0
M  V30 26216 H 2517.34 1.16214 -3.59587 0
M  V30 26217 H 2517.65 1.77378 -7.52168 0
M  V30 26218 H 2516 1.60197 -6.76285 0
M  V30 26219 H 2519.19 1.35912 -4.47935 0
M  V30 26220 H 2519.36 1.63826 -6.26949 0
M  V30 26221 N 2512.77 1.45492 0.605781 0
M  V30 26222 C 2513.73 1.53913 1.69834 0
M  V30 26223 C 2514.73 0.418451 1.5526 0
M  V30 26224 O 2515.92 0.681993 1.60295 0
M  V30 26225 C 2513.05 1.4374 3.09114 0
M  V30 26226 H 2514.25 2.5126 1.63734 0
M  V30 26227 H 2511.8 1.3296 0.821665 0
M  V30 26228 H 2512.54 0.475844 3.2079 0
M  V30 26229 H 2512.32 2.25027 3.211 0
M  V30 26230 H 2513.81 1.52668 3.88693 0
M  V30 26231 N 2514.25 -0.848441 1.32813 0
M  V30 26232 C 2515.66 -1.13762 1.11939 0
M  V30 26233 C 2515.86 -2.01271 -0.0960435 0
M  V30 26234 O 2514.92 -2.40179 -0.779123 0
M  V30 26235 C 2516.23 -1.80895 2.40203 0
M  V30 26236 C 2517.78 -1.93504 2.46019 0
M  V30 26237 C 2518.26 -2.64052 3.7422 0
M  V30 26238 N 2519.75 -2.71572 3.75237 0
M  V30 26239 C 2520.48 -3.26825 4.7114 0
M  V30 26240 N 2519.98 -3.8284 5.77413 0
M  V30 26241 N 2521.77 -3.24987 4.58628 0
M  V30 26242 H 2513.92 -0.265818 2.1073 0
M  V30 26243 H 2516.19 -0.180415 0.930674 0
M  V30 26244 H 2515.89 -1.24052 3.29096 0
M  V30 26245 H 2515.77 -2.81 2.51632 0
M  V30 26246 H 2518.15 -2.49504 1.57582 0
M  V30 26247 H 2518.23 -0.923769 2.38538 0
M  V30 26248 H 2517.88 -2.08714 4.63035 0
M  V30 26249 H 2517.81 -3.6563 3.78975 0
M  V30 26250 H 2520.3 -2.3184 2.98427 0
M  V30 26251 H 2520.61 -4.23176 6.46639 0
M  V30 26252 H 2518.96 -3.81155 5.81159 0
M  V30 26253 H 2522.15 -2.80477 3.74767 0
M  V30 26254 H 2522.32 -3.67747 5.33541 0
M  V30 26255 N 2515.73 -1.16125 -1.06549 0
M  V30 26256 C 2516.66 -0.808958 -2.1338 0
M  V30 26257 C 2517.64 0.218241 -1.61129 0
M  V30 26258 O 2518.82 0.102919 -1.88219 0
M  V30 26259 C 2515.95 -0.204362 -3.38083 0
M  V30 26260 C 2514.99 -1.20476 -4.09131 0
M  V30 26261 S 2515.83 -2.75032 -4.59475 0
M  V30 26262 C 2516.98 -2.16015 -5.87442 0
M  V30 26263 H 2517.22 -1.71378 -2.42934 0
M  V30 26264 H 2514.75 -0.984449 -1.18945 0
M  V30 26265 H 2516.71 0.138009 -4.10268 0
M  V30 26266 H 2515.37 0.67818 -3.06691 0
M  V30 26267 H 2514.56 -0.730107 -4.98684 0
M  V30 26268 H 2514.16 -1.49208 -3.42947 0
M  V30 26269 H 2516.46 -1.52722 -6.60062 0
M  V30 26270 H 2517.4 -3.03768 -6.39633 0
M  V30 26271 H 2517.81 -1.59999 -5.41351 0
M  V30 26272 N 2517.2 1.25039 -0.959323 0
M  V30 26273 C 2518.43 1.96947 -0.633984 0
M  V30 26274 C 2518.85 1.71251 0.794886 0
M  V30 26275 O 2518.2 0.991314 1.53229 0
M  V30 26276 C 2518.26 3.50402 -0.888866 0
M  V30 26277 O 2517.98 3.75214 -2.26156 0
M  V30 26278 C 2519.48 4.39535 -0.57656 0
M  V30 26279 H 2516.7 0.627648 -0.237274 0
M  V30 26280 H 2519.24 1.59087 -1.28498 0
M  V30 26281 H 2517.4 3.86356 -0.284213 0
M  V30 26282 H 2517.81 4.69646 -2.33523 0
M  V30 26283 H 2519.28 5.46093 -0.80541 0
M  V30 26284 H 2519.76 4.36469 0.488998 0
M  V30 26285 H 2520.37 4.09154 -1.16074 0
M  V30 26286 N 2518.68 0.728444 1.39755 0
M  V30 26287 C 2519.91 0.283153 2.0465 0
M  V30 26288 C 2520.32 -1.08466 1.55022 0
M  V30 26289 O 2519.66 -1.69534 0.707372 0
M  V30 26290 C 2519.73 0.199372 3.58947 0
M  V30 26291 C 2519.39 1.50458 4.31522 0
M  V30 26292 C 2520.39 2.44902 4.58606 0
M  V30 26293 C 2518.07 1.76706 4.70192 0
M  V30 26294 C 2520.07 3.63831 5.2336 0
M  V30 26295 C 2517.75 2.95915 5.34675 0
M  V30 26296 C 2518.75 3.89299 5.61191 0
M  V30 26297 O 2518.44 5.06415 6.24339 0
M  V30 26298 H 2518.17 0.122677 0.664775 0
M  V30 26299 H 2520.72 0.991019 1.79911 0
M  V30 26300 H 2518.95 -0.564542 3.82557 0
M  V30 26301 H 2520.64 -0.213054 4.0534 0
M  V30 26302 H 2521.41 2.25891 4.29183 0
M  V30 26303 H 2517.29 1.04867 4.48914 0
M  V30 26304 H 2520.83 4.36738 5.43973 0
M  V30 26305 H 2516.73 3.14829 5.63518 0
M  V30 26306 H 2517.5 5.06663 6.42833 0
M  V30 26307 N 2520.16 -1.50253 0.475581 0
M  V30 26308 C 2521.41 -2.0265 -0.0779717 0
M  V30 26309 C 2521.74 -1.35654 -1.38966 0
M  V30 26310 O 2521.01 -0.483724 -1.88389 0
M  V30 26311 C 2521.3 -3.59181 -0.257098 0
M  V30 26312 C 2521.15 -4.36742 1.07593 0
M  V30 26313 C 2522.47 -4.28364 -1.00957 0
M  V30 26314 H 2519.59 -0.73651 -0.0268629 0
M  V30 26315 H 2522.23 -1.79529 0.622046 0
M  V30 26316 H 2520.38 -3.79012 -0.853345 0
M  V30 26317 H 2522.05 -4.28471 1.7091 0
M  V30 26318 H 2520.3 -4.00305 1.67147 0
M  V30 26319 H 2520.97 -5.44544 0.904184 0
M  V30 26320 H 2523.44 -4.13035 -0.504141 0
M  V30 26321 H 2522.32 -5.37689 -1.10371 0
M  V30 26322 H 2522.58 -3.91843 -2.04724 0
M  V30 26323 N 2521.64 -0.208365 -1.56217 0
M  V30 26324 C 2522.88 0.428892 -1.9985 0
M  V30 26325 C 2523.24 1.57877 -1.09265 0
M  V30 26326 O 2524.44 2.28113 -1.42189 0
M  V30 26327 C 2522.71 0.864818 -3.46779 0
M  V30 26328 S 2524.27 1.49804 -4.12437 0
M  V30 26329 H 2521.09 0.136652 -0.697744 0
M  V30 26330 H 2523.69 -0.314553 -1.92953 0
M  V30 26331 H 2522.4 0.0180605 -4.10396 0
M  V30 26332 H 2521.93 1.6414 -3.57521 0
M  V30 26333 H 2523.94 2.787 -4.10537 0
M  V30 26334 N 2523.12 1.57465 0.0651402 0
M  V30 26335 C 2524.05 2.00884 1.10356 0
M  V30 26336 C 2525.06 0.915811 1.34598 0
M  V30 26337 O 2526.25 1.19362 1.32721 0
M  V30 26338 C 2523.35 2.33832 2.45308 0
M  V30 26339 C 2522.52 3.65065 2.40928 0
M  V30 26340 C 2521.58 3.85608 3.5804 0
M  V30 26341 O 2520.61 4.57115 3.39167 0
M  V30 26342 N 2521.81 3.2847 4.78631 0
M  V30 26343 H 2524.58 2.90579 0.733756 0
M  V30 26344 H 2522.14 1.599 0.253691 0
M  V30 26345 H 2524.13 2.44742 3.22309 0
M  V30 26346 H 2522.7 1.49992 2.74265 0
M  V30 26347 H 2521.92 3.64847 1.49266 0
M  V30 26348 H 2523.21 4.51222 2.35109 0
M  V30 26349 H 2522.6 2.70442 4.96868 0
M  V30 26350 H 2521.16 3.44819 5.53121 0
M  V30 26351 N 2524.59 -0.336679 1.53962 0
M  V30 26352 C 2525.83 -1.08451 1.73256 0
M  V30 26353 C 2526.2 -1.85669 0.48897 0
M  V30 26354 O 2527.4 -2.62922 0.559047 0
M  V30 26355 C 2525.67 -1.99522 2.96522 0
M  V30 26356 S 2527.23 -2.81435 3.3666 0
M  V30 26357 H 2524.05 -0.366336 0.60936 0
M  V30 26358 H 2526.65 -0.36209 1.92118 0
M  V30 26359 H 2525.35 -1.41607 3.85196 0
M  V30 26360 H 2524.88 -2.76191 2.80147 0
M  V30 26361 H 2526.9 -4.01962 2.90932 0
M  V30 26362 N 2526.07 -1.45812 -0.598057 0
M  V30 26363 C 2527.32 -1.50028 -1.3541 0
M  V30 26364 C 2527.64 -0.147211 -1.94444 0
M  V30 26365 O 2526.91 0.82454 -1.77702 0
M  V30 26366 H 2525.49 -0.552526 -0.502717 0
M  V30 26367 H 2528.15 -1.81835 -0.701574 0
M  V30 26368 H 2527.25 -2.24444 -2.16867 0
M  V30 26369 N 2527.55 0.841385 -1.33261 0
M  V30 26370 C 2528.8 1.59332 -1.24329 0
M  V30 26371 C 2529.12 1.94057 0.19153 0
M  V30 26372 O 2528.39 1.60751 1.11964 0
M  V30 26373 H 2526.97 0.590755 -0.457184 0
M  V30 26374 H 2529.63 1.00569 -1.66949 0
M  V30 26375 H 2528.73 2.52439 -1.83524 0
M  V30 26376 N 2529.03 1.16688 1.05932 0
M  V30 26377 C 2529.94 0.891222 2.17012 0
M  V30 26378 C 2530.96 -0.137877 1.73453 0
M  V30 26379 O 2532.13 0.0396274 2.01361 0
M  V30 26380 C 2529.2 0.400159 3.44383 0
M  V30 26381 C 2528.26 1.49493 4.0243 0
M  V30 26382 C 2527.49 1.02721 5.23721 0
M  V30 26383 O 2527.71 -0.121616 5.7027 0
M  V30 26384 O 2526.65 1.81709 5.73817 0
M  V30 26385 H 2530.47 1.8202 2.4311 0
M  V30 26386 H 2528.06 0.947153 1.1554 0
M  V30 26387 H 2529.94 0.133466 4.21189 0
M  V30 26388 H 2528.62 -0.500761 3.19803 0
M  V30 26389 H 2527.52 1.81541 3.27099 0
M  V30 26390 H 2528.86 2.37129 4.31313 0
M  V30 26391 N 2530.51 -1.24529 0.96594 0
M  V30 26392 C 2531.92 -1.44754 0.672185 0
M  V30 26393 C 2532.12 -1.86349 -0.766576 0
M  V30 26394 O 2531.18 -2.0005 -1.54066 0
M  V30 26395 C 2532.49 -2.51073 1.65478 0
M  V30 26396 C 2534.04 -2.64902 1.66721 0
M  V30 26397 C 2534.52 -3.74417 2.63773 0
M  V30 26398 N 2536.01 -3.81841 2.62205 0
M  V30 26399 C 2536.74 -4.661 3.33974 0
M  V30 26400 N 2536.24 -5.54559 4.15254 0
M  V30 26401 N 2538.03 -4.60165 3.22807 0
M  V30 26402 H 2530.18 -0.95826 1.89555 0
M  V30 26403 H 2532.44 -0.482565 0.815987 0
M  V30 26404 H 2532.15 -2.27394 2.683 0
M  V30 26405 H 2532.02 -3.492 1.42616 0
M  V30 26406 H 2534.41 -2.8794 0.646108 0
M  V30 26407 H 2534.49 -1.67139 1.93645 0
M  V30 26408 H 2534.14 -3.52129 3.66016 0
M  V30 26409 H 2534.07 -4.7169 2.34129 0
M  V30 26410 H 2536.56 -3.18616 2.03205 0
M  V30 26411 H 2536.87 -6.15805 4.66909 0
M  V30 26412 H 2535.22 -5.5423 4.1935 0
M  V30 26413 H 2538.41 -3.90071 2.58771 0
M  V30 26414 H 2538.58 -5.25605 3.79003 0
M  V30 26415 N 2531.99 -0.735845 -1.39367 0
M  V30 26416 C 2532.94 -0.0724687 -2.27885 0
M  V30 26417 C 2533.92 0.711731 -1.44302 0
M  V30 26418 O 2535.11 0.580601 -1.67207 0
M  V30 26419 C 2532.24 0.833396 -3.33031 0
M  V30 26420 C 2531.33 0.0433003 -4.24078 0
M  V30 26421 N 2531.72 -0.98399 -4.96136 0
M  V30 26422 C 2530.02 0.272827 -4.45165 0
M  V30 26423 C 2530.72 -1.4605 -5.63067 0
M  V30 26424 N 2529.69 -0.778951 -5.3799 0
M  V30 26425 H 2533.49 -0.859516 -2.81051 0
M  V30 26426 H 2531.01 -0.570254 -1.52059 0
M  V30 26427 H 2533.01 1.32412 -3.95313 0
M  V30 26428 H 2531.67 1.61959 -2.81424 0
M  V30 26429 H 2532.68 -1.36537 -4.99578 0
M  V30 26430 H 2529.35 1.03376 -4.04499 0
M  V30 26431 H 2530.74 -2.31522 -6.30751 0
M  V30 26432 N 2533.46 1.49999 -0.483543 0
M  V30 26433 C 2534.88 1.58999 -0.138432 0
M  V30 26434 C 2535.08 1.49052 1.35594 0
M  V30 26435 O 2534.14 1.35543 2.13036 0
M  V30 26436 C 2535.45 2.92446 -0.699709 0
M  V30 26437 C 2537 3.0587 -0.664249 0
M  V30 26438 C 2537.47 4.41911 -1.20328 0
M  V30 26439 N 2538.96 4.48356 -1.16323 0
M  V30 26440 C 2539.7 5.52034 -1.55068 0
M  V30 26441 N 2539.19 6.62903 -2.01323 0
M  V30 26442 N 2540.99 5.42648 -1.46593 0
M  V30 26443 H 2533.14 1.54707 -1.45532 0
M  V30 26444 H 2535.4 0.731837 -0.602593 0
M  V30 26445 H 2535.11 3.05239 -1.74706 0
M  V30 26446 H 2534.98 3.76901 -0.15026 0
M  V30 26447 H 2537.37 2.92718 0.374221 0
M  V30 26448 H 2537.45 2.23142 -1.25065 0
M  V30 26449 H 2537.09 4.55814 -2.24045 0
M  V30 26450 H 2537.02 5.23251 -0.592988 0
M  V30 26451 H 2539.51 3.68804 -0.824123 0
M  V30 26452 H 2539.83 7.38091 -2.29003 0
M  V30 26453 H 2538.17 6.6399 -2.05284 0
M  V30 26454 H 2541.36 4.54922 -1.10289 0
M  V30 26455 H 2541.54 6.23326 -1.77114 0
M  V30 26456 N 2534.94 0.216646 1.56104 0
M  V30 26457 C 2535.87 -0.727722 2.1734 0
M  V30 26458 C 2536.89 -1.16114 1.14111 0
M  V30 26459 O 2538.08 -1.09314 1.41112 0
M  V30 26460 C 2535.18 -1.99688 2.73821 0
M  V30 26461 C 2534.35 -1.71981 4.02171 0
M  V30 26462 C 2533.41 -2.83554 4.43264 0
M  V30 26463 O 2532.43 -2.52235 5.10261 0
M  V30 26464 N 2533.64 -4.124 4.08542 0
M  V30 26465 H 2536.4 -0.20393 2.99005 0
M  V30 26466 H 2533.96 0.0354574 1.61861 0
M  V30 26467 H 2535.95 -2.73511 2.98285 0
M  V30 26468 H 2534.52 -2.43128 1.96487 0
M  V30 26469 H 2533.74 -0.818269 3.85614 0
M  V30 26470 H 2535.03 -1.50894 4.8591 0
M  V30 26471 H 2534.43 -4.4069 3.54695 0
M  V30 26472 H 2532.99 -4.82782 4.3791 0
M  V30 26473 N 2536.42 -1.57498 -0.0567885 0
M  V30 26474 C 2537.67 -1.87159 -0.751968 0
M  V30 26475 C 2537.98 -0.811406 -1.77976 0
M  V30 26476 O 2539.19 -0.996338 -2.52558 0
M  V30 26477 C 2537.64 -3.32042 -1.38838 0
M  V30 26478 C 2537.25 -4.46225 -0.398377 0
M  V30 26479 C 2539 -3.70885 -2.06505 0
M  V30 26480 C 2536.9 -5.82156 -1.04156 0
M  V30 26481 H 2535.83 -0.698227 -0.284597 0
M  V30 26482 H 2538.48 -1.83499 -0.00558046 0
M  V30 26483 H 2536.87 -3.3036 -2.18354 0
M  V30 26484 H 2538.04 -4.59328 0.368058 0
M  V30 26485 H 2536.35 -4.16034 0.174665 0
M  V30 26486 H 2538.95 -4.69745 -2.55429 0
M  V30 26487 H 2539.29 -3.0145 -2.87112 0
M  V30 26488 H 2539.83 -3.74623 -1.33801 0
M  V30 26489 H 2536.57 -6.54921 -0.275498 0
M  V30 26490 H 2536.09 -5.72826 -1.7785 0
M  V30 26491 H 2537.77 -6.27985 -1.55704 0
M  V30 26492 N 2537.9 0.328509 -1.54138 0
M  V30 26493 C 2539.14 1.06861 -1.72361 0
M  V30 26494 C 2539.48 1.87831 -0.493264 0
M  V30 26495 O 2538.75 1.87701 0.509767 0
M  V30 26496 C 2539.03 1.99742 -2.99625 0
M  V30 26497 C 2538.89 1.22135 -4.32901 0
M  V30 26498 C 2540.21 2.9934 -3.2262 0
M  V30 26499 H 2537.33 0.387094 -0.627158 0
M  V30 26500 H 2539.97 0.345734 -1.86828 0
M  V30 26501 H 2538.12 2.61382 -2.87422 0
M  V30 26502 H 2539.79 0.629936 -4.56979 0
M  V30 26503 H 2538.03 0.523553 -4.30629 0
M  V30 26504 H 2538.7 1.90308 -5.18157 0
M  V30 26505 H 2541.18 2.4782 -3.34252 0
M  V30 26506 H 2540.06 3.61517 -4.13033 0
M  V30 26507 H 2540.32 3.71532 -2.39617 0
M  V30 26508 N 2539.38 1.46127 0.590316 0
M  V30 26509 C 2540.29 1.58684 1.7279 0
M  V30 26510 C 2541.3 0.470595 1.67515 0
M  V30 26511 O 2542.48 0.733675 1.87561 0
M  V30 26512 C 2539.54 1.56666 3.09284 0
M  V30 26513 C 2538.6 2.79463 3.25881 0
M  V30 26514 C 2537.84 2.77532 4.55864 0
M  V30 26515 O 2538.06 1.85842 5.39276 0
M  V30 26516 O 2536.99 3.68972 4.75545 0
M  V30 26517 H 2540.82 2.54875 1.65144 0
M  V30 26518 H 2538.4 1.28833 0.756463 0
M  V30 26519 H 2540.29 1.58209 3.90574 0
M  V30 26520 H 2538.96 0.636327 3.17384 0
M  V30 26521 H 2537.87 2.83477 2.44114 0
M  V30 26522 H 2539.2 3.7168 3.22668 0
M  V30 26523 N 2540.85 -0.834306 1.33705 0
M  V30 26524 C 2541.8 -1.93304 1.20903 0
M  V30 26525 C 2542.79 -1.60518 0.110811 0
M  V30 26526 O 2543.98 -1.73716 0.339361 0
M  V30 26527 C 2541.11 -3.29747 0.955076 0
M  V30 26528 C 2540.19 -3.68689 2.09594 0
M  V30 26529 N 2540.59 -3.79286 3.34627 0
M  V30 26530 C 2538.88 -3.98459 2.00365 0
M  V30 26531 C 2539.58 -4.1316 4.0948 0
M  V30 26532 N 2538.56 -4.25773 3.37962 0
M  V30 26533 H 2542.36 -1.9966 2.15669 0
M  V30 26534 H 2539.88 -1.0273 1.25779 0
M  V30 26535 H 2541.87 -4.08262 0.84428 0
M  V30 26536 H 2540.53 -3.24696 0.0159887 0
M  V30 26537 H 2541.54 -3.63075 3.6932 0
M  V30 26538 H 2538.22 -4.01594 1.14144 0
M  V30 26539 H 2539.61 -4.28659 5.17399 0
M  V30 26540 N 2542.33 -1.17248 -1.05312 0
M  V30 26541 C 2543.56 -0.984625 -1.81969 0
M  V30 26542 C 2543.97 0.467134 -1.8293 0
M  V30 26543 O 2543.33 1.32436 -1.25566 0
M  V30 26544 C 2543.38 -1.51677 -3.28141 0
M  V30 26545 O 2543.1 -2.91169 -3.27342 0
M  V30 26546 C 2544.6 -1.37333 -4.21491 0
M  V30 26547 H 2541.82 -0.348421 -0.573449 0
M  V30 26548 H 2544.37 -1.55509 -1.32806 0
M  V30 26549 H 2542.52 -0.988367 -3.7458 0
M  V30 26550 H 2542.94 -3.15739 -4.18818 0
M  V30 26551 H 2544.41 -1.79384 -5.2204 0
M  V30 26552 H 2544.89 -0.320246 -4.38031 0
M  V30 26553 H 2545.49 -1.89185 -3.80906 0
M  V30 26554 N 2543.81 1.24015 -0.972531 0
M  V30 26555 C 2545.04 1.96264 -0.654837 0
M  V30 26556 C 2545.45 1.72085 0.776678 0
M  V30 26557 O 2544.81 1.00751 1.52169 0
M  V30 26558 C 2544.86 3.49439 -0.925981 0
M  V30 26559 O 2544.58 3.72794 -2.30122 0
M  V30 26560 C 2546.08 4.38898 -0.623146 0
M  V30 26561 H 2543.3 0.625096 -0.243918 0
M  V30 26562 H 2545.85 1.57715 -1.30178 0
M  V30 26563 H 2544 3.86033 -0.325176 0
M  V30 26564 H 2544.42 4.67143 -2.38491 0
M  V30 26565 H 2545.89 5.45208 -0.863285 0
M  V30 26566 H 2546.37 4.36963 0.442677 0
M  V30 26567 H 2546.97 4.079 -1.20407 0
M  V30 26568 N 2545.29 0.743226 1.38974 0
M  V30 26569 C 2546.7 0.363764 1.83122 0
M  V30 26570 C 2547.05 -1.10606 1.62052 0
M  V30 26571 O 2546.18 -1.85398 1.1161 0
M  V30 26572 C 2546.77 0.653467 3.32438 0
M  V30 26573 C 2545.33 0.327404 3.74973 0
M  V30 26574 C 2544.48 0.911921 2.61876 0
M  V30 26575 H 2547.43 0.940214 1.2785 0
M  V30 26576 H 2547.45 -0.0719362 3.80432 0
M  V30 26577 H 2546.96 1.72329 3.47742 0
M  V30 26578 H 2545.06 -0.73625 3.65254 0
M  V30 26579 H 2545.17 0.815714 4.72105 0
M  V30 26580 H 2543.54 0.337988 2.52447 0
M  V30 26581 H 2544.32 1.98656 2.79983 0
M  V30 26582 N 2546.77 -1.4974 0.491491 0
M  V30 26583 C 2548.01 -2.03342 -0.0485073 0
M  V30 26584 C 2548.37 -1.36529 -1.35564 0
M  V30 26585 O 2547.66 -0.488762 -1.85261 0
M  V30 26586 C 2547.85 -3.56399 -0.267266 0
M  V30 26587 C 2547.68 -4.38047 1.01711 0
M  V30 26588 C 2546.45 -4.80414 1.56622 0
M  V30 26589 C 2548.65 -4.77201 1.91791 0
M  V30 26590 N 2546.63 -5.46455 2.79749 0
M  V30 26591 C 2548 -5.42863 2.99499 0
M  V30 26592 C 2550.06 -4.59147 1.92583 0
M  V30 26593 C 2548.76 -5.92382 4.08015 0
M  V30 26594 C 2550.79 -5.0962 3.00069 0
M  V30 26595 C 2550.15 -5.75274 4.06496 0
M  V30 26596 H 2546.25 -0.781668 0.0227917 0
M  V30 26597 H 2548.83 -1.83019 0.664236 0
M  V30 26598 H 2547 -3.76626 -0.94906 0
M  V30 26599 H 2548.74 -3.96645 -0.803422 0
M  V30 26600 H 2545.49 -4.60345 1.11264 0
M  V30 26601 H 2545.92 -5.84069 3.42333 0
M  V30 26602 H 2550.56 -4.07802 1.11612 0
M  V30 26603 H 2548.28 -6.42753 4.8979 0
M  V30 26604 H 2551.86 -4.97468 3.0169 0
M  V30 26605 H 2550.74 -6.13625 4.88297 0
M  V30 26606 N 2548.24 -0.224922 -1.55987 0
M  V30 26607 C 2549.17 0.678418 -2.23427 0
M  V30 26608 C 2550.16 1.19845 -1.20712 0
M  V30 26609 O 2551.34 1.24183 -1.49306 0
M  V30 26610 C 2548.47 1.88522 -2.91679 0
M  V30 26611 C 2547.42 1.49889 -4.00895 0
M  V30 26612 C 2546.75 2.78475 -4.5646 0
M  V30 26613 C 2548.05 0.68637 -5.1777 0
M  V30 26614 H 2549.74 0.116121 -2.99175 0
M  V30 26615 H 2547.29 0.0544107 -1.43897 0
M  V30 26616 H 2549.24 2.52264 -3.37551 0
M  V30 26617 H 2547.97 2.47254 -2.13384 0
M  V30 26618 H 2546.63 0.884922 -3.55759 0
M  V30 26619 H 2546.27 3.35358 -3.74892 0
M  V30 26620 H 2545.97 2.53358 -5.30173 0
M  V30 26621 H 2547.5 3.43153 -5.05053 0
M  V30 26622 H 2548.91 1.22757 -5.60003 0
M  V30 26623 H 2547.31 0.532154 -5.97736 0
M  V30 26624 H 2548.38 -0.306281 -4.83932 0
M  V30 26625 N 2549.72 1.57526 0.0484352 0
M  V30 26626 C 2550.65 2.08314 1.05486 0
M  V30 26627 C 2551.63 0.981488 1.38927 0
M  V30 26628 O 2552.82 1.25561 1.48149 0
M  V30 26629 C 2549.95 2.5465 2.36158 0
M  V30 26630 C 2548.9 3.68905 2.1701 0
M  V30 26631 C 2548.23 4.01377 3.53271 0
M  V30 26632 C 2549.53 4.98078 1.57211 0
M  V30 26633 H 2551.22 2.9265 0.632144 0
M  V30 26634 H 2548.77 1.40784 0.302629 0
M  V30 26635 H 2550.72 2.88799 3.06877 0
M  V30 26636 H 2549.45 1.67373 2.80453 0
M  V30 26637 H 2548.1 3.35076 1.48727 0
M  V30 26638 H 2547.75 3.11195 3.95179 0
M  V30 26639 H 2547.45 4.78324 3.41291 0
M  V30 26640 H 2548.98 4.38043 4.25384 0
M  V30 26641 H 2550.39 5.30307 2.17823 0
M  V30 26642 H 2548.79 5.79506 1.55861 0
M  V30 26643 H 2549.86 4.8193 0.535871 0
M  V30 26644 N 2551.2 -0.32033 1.5431 0
M  V30 26645 C 2552.13 -1.39947 1.86915 0
M  V30 26646 C 2553.11 -1.53817 0.726238 0
M  V30 26647 O 2554.3 -1.67644 0.980262 0
M  V30 26648 C 2551.43 -2.76666 2.09936 0
M  V30 26649 C 2550.38 -2.77581 3.25781 0
M  V30 26650 C 2549.71 -4.17406 3.34181 0
M  V30 26651 C 2551.01 -2.4104 4.63354 0
M  V30 26652 H 2552.7 -1.12909 2.77294 0
M  V30 26653 H 2550.25 -0.541715 1.33422 0
M  V30 26654 H 2552.2 -3.52228 2.3133 0
M  V30 26655 H 2550.92 -3.05188 1.1631 0
M  V30 26656 H 2549.58 -2.04474 3.04279 0
M  V30 26657 H 2549.23 -4.43074 2.38106 0
M  V30 26658 H 2548.93 -4.18923 4.1204 0
M  V30 26659 H 2550.45 -4.94776 3.57812 0
M  V30 26660 H 2551.87 -3.06315 4.84607 0
M  V30 26661 H 2550.27 -2.53803 5.43787 0
M  V30 26662 H 2551.34 -1.36185 4.65383 0
M  V30 26663 N 2552.68 -1.46438 -0.582558 0
M  V30 26664 C 2553.9 -1.55565 -1.37165 0
M  V30 26665 C 2554.33 -0.197462 -1.87061 0
M  V30 26666 O 2553.69 0.822422 -1.61573 0
M  V30 26667 C 2553.73 -2.5645 -2.53506 0
M  V30 26668 O 2552.84 -2.09964 -3.54949 0
M  V30 26669 H 2552.18 -0.523484 -0.408485 0
M  V30 26670 H 2554.71 -1.92011 -0.706612 0
M  V30 26671 H 2554.72 -2.76064 -3.00421 0
M  V30 26672 H 2553.39 -3.5508 -2.16543 0
M  V30 26673 H 2551.97 -2.0034 -3.14513 0
M  V30 26674 N 2554.16 0.827204 -1.34146 0
M  V30 26675 C 2555.4 1.58004 -1.26012 0
M  V30 26676 C 2555.73 1.94249 0.170937 0
M  V30 26677 O 2555 1.61929 1.10253 0
M  V30 26678 H 2553.58 0.585873 -0.463424 0
M  V30 26679 H 2556.24 0.987922 -1.68006 0
M  V30 26680 H 2555.33 2.50478 -1.86191 0
M  V30 26681 N 2555.63 1.17805 1.04688 0
M  V30 26682 C 2556.86 0.994262 1.81444 0
M  V30 26683 C 2557.28 -0.457427 1.83175 0
M  V30 26684 O 2556.63 -1.31768 1.26267 0
M  V30 26685 C 2556.69 1.53416 3.27332 0
M  V30 26686 O 2556.41 2.929 3.25793 0
M  V30 26687 C 2557.91 1.39567 4.20756 0
M  V30 26688 H 2555.13 0.351457 0.571593 0
M  V30 26689 H 2557.67 1.56211 1.31979 0
M  V30 26690 H 2555.83 1.00822 3.7405 0
M  V30 26691 H 2556.24 3.17956 4.17138 0
M  V30 26692 H 2557.71 1.8215 5.21081 0
M  V30 26693 H 2558.19 0.343471 4.37855 0
M  V30 26694 H 2558.8 1.91202 3.79897 0
M  V30 26695 N 2557.11 -1.23497 0.979094 0
M  V30 26696 C 2558.52 -1.73703 0.684422 0
M  V30 26697 C 2558.87 -1.79175 -0.799417 0
M  V30 26698 O 2558 -1.42876 -1.62528 0
M  V30 26699 C 2558.59 -3.15462 1.2357 0
M  V30 26700 C 2557.15 -3.63128 0.990694 0
M  V30 26701 C 2556.3 -2.41422 1.36421 0
M  V30 26702 H 2559.25 -1.09039 1.15309 0
M  V30 26703 H 2559.27 -3.75619 0.607483 0
M  V30 26704 H 2558.78 -3.11446 2.31566 0
M  V30 26705 H 2556.89 -3.72528 -0.0732481 0
M  V30 26706 H 2557 -4.49998 1.64435 0
M  V30 26707 H 2555.36 -2.42377 0.782658 0
M  V30 26708 H 2556.15 -2.40079 2.45391 0
M  V30 26709 N 2558.59 -0.750586 -1.38578 0
M  V30 26710 C 2559.54 -0.110203 -2.32339 0
M  V30 26711 C 2560.53 0.708647 -1.53865 0
M  V30 26712 O 2561.74 0.608082 -1.69418 0
M  V30 26713 H 2558.11 -0.0168407 -0.751811 0
M  V30 26714 H 2560.09 -0.917102 -2.83957 0
M  V30 26715 C 2558.83 0.771007 -3.39044 0
M  V30 26716 H 2558.16 0.150304 -3.99517 0
M  V30 26717 H 2559.6 1.18642 -4.07063 0
M  V30 26718 C 2558.06 1.91229 -2.77368 0
M  V30 26719 O 2558.59 3.00621 -2.66439 0
M  V30 26720 N 2556.79 1.70642 -2.35222 0
M  V30 26721 H 2556.34 0.816687 -2.44311 0
M  V30 26722 H 2556.3 2.47175 -1.94298 0
M  V30 26723 N 2560.07 1.49477 -0.499425 0
M  V30 26724 C 2560.98 2.32869 0.284448 0
M  V30 26725 C 2562 1.44531 0.968859 0
M  V30 26726 O 2563.17 1.77555 0.950589 0
M  V30 26727 C 2560.24 3.1993 1.33588 0
M  V30 26728 C 2559.3 4.24117 0.665075 0
M  V30 26729 C 2558.53 5.07017 1.66641 0
M  V30 26730 O 2558.75 4.91409 2.89609 0
M  V30 26731 O 2557.69 5.89352 1.2226 0
M  V30 26732 H 2561.51 3.0108 -0.398073 0
M  V30 26733 H 2559.1 1.47106 -0.260784 0
M  V30 26734 H 2560.98 3.73868 1.94424 0
M  V30 26735 H 2559.66 2.54416 2.00136 0
M  V30 26736 H 2558.56 3.74096 0.0170112 0
M  V30 26737 H 2559.9 4.92182 0.042069 0
M  V30 26738 N 2561.55 0.233191 1.55865 0
M  V30 26739 C 2562.49 -0.672112 2.20797 0
M  V30 26740 C 2563.46 -1.18164 1.16733 0
M  V30 26741 O 2564.65 -1.23861 1.45131 0
M  V30 26742 C 2561.79 -1.8695 2.90075 0
M  V30 26743 C 2560.9 -1.39779 4.08762 0
M  V30 26744 C 2560.04 -2.55366 4.65792 0
M  V30 26745 C 2559.08 -2.04988 5.76755 0
M  V30 26746 N 2558.21 -3.1389 6.28027 0
M  V30 26747 H 2563.05 -0.111697 2.97791 0
M  V30 26748 H 2560.59 -0.0433749 1.47036 0
M  V30 26749 H 2562.55 -2.5727 3.28433 0
M  V30 26750 H 2561.18 -2.40261 2.15579 0
M  V30 26751 H 2560.23 -0.589107 3.75811 0
M  V30 26752 H 2561.54 -0.988474 4.88908 0
M  V30 26753 H 2560.7 -3.33749 5.06652 0
M  V30 26754 H 2559.44 -2.99591 3.84833 0
M  V30 26755 H 2558.44 -1.2507 5.35386 0
M  V30 26756 H 2559.67 -1.61748 6.59556 0
M  V30 26757 H 2557.61 -3.57576 5.49978 0
M  V30 26758 H 2557.53 -2.77247 7.03328 0
M  V30 26759 H 2558.8 -3.92374 6.73545 0
M  V30 26760 N 2563.03 -1.57549 -0.0400806 0
M  V30 26761 C 2563.96 -2.08871 -1.0438 0
M  V30 26762 C 2564.94 -0.988842 -1.38405 0
M  V30 26763 O 2566.12 -1.26345 -1.47481 0
M  V30 26764 C 2563.25 -2.55899 -2.34804 0
M  V30 26765 C 2562.21 -3.70051 -2.1505 0
M  V30 26766 C 2561.53 -4.03245 -3.51137 0
M  V30 26767 C 2562.83 -4.98905 -1.54567 0
M  V30 26768 H 2564.53 -2.92982 -0.616615 0
M  V30 26769 H 2562.07 -1.40943 -0.295159 0
M  V30 26770 H 2564.02 -2.90422 -3.05341 0
M  V30 26771 H 2562.75 -1.68858 -2.79562 0
M  V30 26772 H 2561.41 -3.3586 -1.46948 0
M  V30 26773 H 2561.06 -3.13286 -3.93523 0
M  V30 26774 H 2560.76 -4.80128 -3.38749 0
M  V30 26775 H 2562.28 -4.40292 -4.23054 0
M  V30 26776 H 2563.69 -5.31455 -2.15008 0
M  V30 26777 H 2562.09 -5.80324 -1.52786 0
M  V30 26778 H 2563.16 -4.82207 -0.510306 0
M  V30 26779 N 2564.5 0.312142 -1.54478 0
M  V30 26780 C 2565.75 1.05027 -1.73485 0
M  V30 26781 C 2566.08 1.87297 -0.513158 0
M  V30 26782 O 2565.36 1.88231 0.48983 0
M  V30 26783 C 2565.64 1.96553 -3.01727 0
M  V30 26784 C 2565.49 1.17537 -4.34172 0
M  V30 26785 C 2566.81 2.95901 -3.25777 0
M  V30 26786 H 2563.93 0.380421 -0.631228 0
M  V30 26787 H 2566.57 0.325899 -1.87184 0
M  V30 26788 H 2564.72 2.58319 -2.90178 0
M  V30 26789 H 2566.4 0.581432 -4.57621 0
M  V30 26790 H 2564.64 0.477849 -4.3116 0
M  V30 26791 H 2565.31 1.84802 -5.20146 0
M  V30 26792 H 2567.79 2.44261 -3.36862 0
M  V30 26793 H 2566.66 3.57116 -4.16845 0
M  V30 26794 H 2566.92 3.6897 -2.43544 0
M  V30 26795 N 2565.98 1.46745 0.574784 0
M  V30 26796 C 2567.21 1.56049 1.35854 0
M  V30 26797 C 2567.62 0.204398 1.8769 0
M  V30 26798 O 2566.98 -0.799601 1.64051 0
M  V30 26799 C 2567.03 2.57168 2.54061 0
M  V30 26800 O 2566.75 3.8751 2.04371 0
M  V30 26801 C 2568.25 2.76489 3.4651 0
M  V30 26802 H 2565.47 0.527473 0.414744 0
M  V30 26803 H 2568.02 1.92219 0.698001 0
M  V30 26804 H 2566.17 2.2398 3.16088 0
M  V30 26805 H 2566.59 4.42615 2.81411 0
M  V30 26806 H 2568.06 3.51145 4.25912 0
M  V30 26807 H 2568.54 1.83678 3.98947 0
M  V30 26808 H 2569.14 3.10804 2.90312 0
M  V30 26809 N 2567.46 -0.820078 1.34583 0
M  V30 26810 C 2568.69 -1.60811 1.30183 0
M  V30 26811 C 2569.1 -1.88396 -0.123518 0
M  V30 26812 O 2568.46 -1.47737 -1.07145 0
M  V30 26813 C 2568.51 -2.94735 2.09317 0
M  V30 26814 O 2568.23 -2.68352 3.46293 0
M  V30 26815 C 2569.73 -3.89132 2.12347 0
M  V30 26816 H 2566.95 -0.499774 0.447735 0
M  V30 26817 H 2569.5 -1.02014 1.77238 0
M  V30 26818 H 2567.65 -3.50082 1.65895 0
M  V30 26819 H 2568.07 -3.53767 3.87233 0
M  V30 26820 H 2569.54 -4.80257 2.72134 0
M  V30 26821 H 2570.02 -4.24716 1.11861 0
M  V30 26822 H 2570.62 -3.39721 2.5587 0
M  V30 26823 N 2568.94 -1.18359 -1.04062 0
M  V30 26824 C 2570.16 -1.00448 -1.81452 0
M  V30 26825 C 2570.59 0.44239 -1.82824 0
M  V30 26826 O 2569.95 1.31739 -1.24557 0
M  V30 26827 C 2569.99 -1.5639 -3.24923 0
M  V30 26828 O 2569.1 -0.78528 -4.04854 0
M  V30 26829 H 2568.44 -0.355845 -0.560598 0
M  V30 26830 H 2570.97 -1.57116 -1.31056 0
M  V30 26831 H 2570.98 -1.59103 -3.757 0
M  V30 26832 H 2569.65 -2.61705 -3.23239 0
M  V30 26833 H 2568.23 -0.830462 -3.63535 0
M  V30 26834 N 2570.42 1.22976 -0.98563 0
M  V30 26835 C 2571.64 1.95558 -0.675617 0
M  V30 26836 C 2572.06 1.72899 0.758382 0
M  V30 26837 O 2571.42 1.02359 1.51092 0
M  V30 26838 C 2571.47 3.48438 -0.962992 0
M  V30 26839 O 2571.19 3.70332 -2.34063 0
M  V30 26840 C 2572.69 4.38213 -0.669662 0
M  V30 26841 H 2569.91 0.622474 -0.250534 0
M  V30 26842 H 2572.45 1.56325 -1.31843 0
M  V30 26843 H 2570.61 3.85666 -0.366101 0
M  V30 26844 H 2571.02 4.64587 -2.43432 0
M  V30 26845 H 2572.5 5.44261 -0.921063 0
M  V30 26846 H 2572.97 4.37408 0.396307 0
M  V30 26847 H 2573.58 4.066 -1.24727 0
M  V30 26848 N 2571.89 0.757924 1.38178 0
M  V30 26849 C 2572.86 0.141326 2.28764 0
M  V30 26850 C 2573.86 -0.642881 1.4739 0
M  V30 26851 O 2575.05 -0.468507 1.67782 0
M  V30 26852 C 2572.18 -0.808011 3.31186 0
M  V30 26853 H 2573.37 0.939683 2.84798 0
M  V30 26854 H 2570.92 0.525216 1.47211 0
M  V30 26855 H 2571.66 -1.63188 2.8025 0
M  V30 26856 H 2571.44 -0.248035 3.91315 0
M  V30 26857 H 2572.93 -1.23529 3.98911 0
M  V30 26858 N 2573.37 -1.4921 0.507345 0
M  V30 26859 C 2574.78 -1.866 0.0611446 0
M  V30 26860 C 2575.13 -1.41909 -1.35485 0
M  V30 26861 O 2574.26 -0.799762 -2.01079 0
M  V30 26862 C 2574.85 -3.3864 0.104185 0
M  V30 26863 C 2573.41 -3.75306 -0.286704 0
M  V30 26864 C 2572.56 -2.7322 0.473941 0
M  V30 26865 H 2575.51 -1.41438 0.7198 0
M  V30 26866 H 2575.53 -3.74199 -0.689606 0
M  V30 26867 H 2575.04 -3.71136 1.13488 0
M  V30 26868 H 2573.15 -3.4842 -1.3204 0
M  V30 26869 H 2573.26 -4.79086 0.0371587 0
M  V30 26870 H 2571.62 -2.54584 -0.0770197 0
M  V30 26871 H 2572.41 -3.0856 1.50484 0
M  V30 26872 N 2574.85 -0.241454 -1.55739 0
M  V30 26873 C 2576.13 0.434847 -1.90705 0
M  V30 26874 C 2576.51 1.76275 -1.16148 0
M  V30 26875 O 2575.86 2.26812 -0.277191 0
M  V30 26876 C 2576.07 0.608282 -3.43658 0
M  V30 26877 C 2577.41 0.906652 -4.14807 0
M  V30 26878 O 2578.44 0.694346 -3.49367 0
M  V30 26879 O 2577.3 1.31065 -5.30551 0
M  V30 26880 H 2574.39 0.232666 -0.793597 0
M  V30 26881 H 2576.94 -0.285116 -1.67288 0
M  V30 26882 H 2575.71 -0.327574 -3.89926 0
M  V30 26883 H 2575.33 1.37899 -3.7292 0
M  V30 26884 N 2576.33 1.57568 0.0317248 0
M  V30 26885 C 2577.58 1.89151 0.723071 0
M  V30 26886 C 2577.9 0.838408 1.75502 0
M  V30 26887 O 2577.16 -0.160948 1.95037 0
M  V30 26888 C 2577.46 3.27475 1.43161 0
M  V30 26889 C 2577.12 4.47704 0.535893 0
M  V30 26890 C 2575.79 4.8033 0.289178 0
M  V30 26891 C 2578.14 5.21134 -0.0827041 0
M  V30 26892 C 2575.47 5.83777 -0.584956 0
M  V30 26893 C 2577.82 6.25509 -0.944524 0
M  V30 26894 C 2576.48 6.56612 -1.20073 0
M  V30 26895 H 2575.75 0.692151 0.26459 0
M  V30 26896 H 2578.4 1.91492 -0.0169833 0
M  V30 26897 H 2576.7 3.21109 2.24492 0
M  V30 26898 H 2578.4 3.49159 1.97203 0
M  V30 26899 H 2574.99 4.22193 0.738339 0
M  V30 26900 H 2579.17 4.96209 0.094943 0
M  V30 26901 H 2574.43 6.06251 -0.791787 0
M  V30 26902 H 2578.6 6.81552 -1.43038 0
M  V30 26903 H 2576.23 7.36592 -1.8798 0
M  V30 26904 N 2577.81 -0.303946 1.54641 0
M  V30 26905 C 2579.05 -1.04106 1.7404 0
M  V30 26906 C 2579.39 -1.87023 0.523084 0
M  V30 26907 O 2578.66 -1.88488 -0.479841 0
M  V30 26908 C 2578.94 -1.9495 3.02765 0
M  V30 26909 C 2578.8 -1.15233 4.34789 0
M  V30 26910 C 2580.12 -2.94169 3.27342 0
M  V30 26911 H 2577.23 -0.377068 0.633237 0
M  V30 26912 H 2579.88 -0.315968 1.87354 0
M  V30 26913 H 2578.03 -2.56776 2.91544 0
M  V30 26914 H 2579.7 -0.557155 4.57923 0
M  V30 26915 H 2577.94 -0.454977 4.31407 0
M  V30 26916 H 2578.61 -1.82041 5.21119 0
M  V30 26917 H 2581.09 -2.42471 3.38152 0
M  V30 26918 H 2579.96 -3.549 4.18733 0
M  V30 26919 H 2580.23 -3.67673 2.45497 0
M  V30 26920 N 2579.28 -1.47047 -0.566994 0
M  V30 26921 C 2580.25 -1.58362 -1.65693 0
M  V30 26922 C 2581.25 -0.459469 -1.54096 0
M  V30 26923 O 2582.44 -0.724253 -1.5843 0
M  V30 26924 C 2579.57 -1.51885 -3.05195 0
M  V30 26925 H 2580.76 -2.55512 -1.57014 0
M  V30 26926 H 2578.32 -1.35092 -0.786125 0
M  V30 26927 H 2579.05 -0.560729 -3.19416 0
M  V30 26928 H 2578.84 -2.33461 -3.15021 0
M  V30 26929 H 2580.33 -1.6292 -3.84508 0
M  V30 26930 N 2580.76 0.812929 -1.35016 0
M  V30 26931 C 2582.01 1.56969 -1.27933 0
M  V30 26932 C 2582.34 1.93936 0.148 0
M  V30 26933 O 2581.59 1.61056 1.11172 0
M  V30 26934 C 2581.89 2.87343 -2.12529 0
M  V30 26935 C 2581.56 2.69623 -3.61406 0
M  V30 26936 C 2580.22 2.64498 -4.01988 0
M  V30 26937 C 2582.57 2.52599 -4.55898 0
M  V30 26938 C 2579.9 2.40284 -5.35239 0
M  V30 26939 C 2582.25 2.29915 -5.8934 0
M  V30 26940 C 2580.92 2.23208 -6.29074 0
M  V30 26941 H 2580.19 0.574391 -0.468141 0
M  V30 26942 H 2582.83 0.939806 -1.66853 0
M  V30 26943 H 2581.14 3.54676 -1.6647 0
M  V30 26944 H 2582.83 3.45002 -2.04389 0
M  V30 26945 H 2579.42 2.74457 -3.29198 0
M  V30 26946 H 2583.61 2.55575 -4.25435 0
M  V30 26947 H 2578.86 2.33556 -5.65032 0
M  V30 26948 H 2583.04 2.15731 -6.62143 0
M  V30 26949 H 2580.67 2.04207 -7.32259 0
M  V30 26950 N 2582.24 1.18909 1.03433 0
M  V30 26951 C 2583.19 0.918391 2.13702 0
M  V30 26952 C 2584.18 -0.123738 1.68947 0
M  V30 26953 O 2585.39 0.0250018 1.79983 0
M  V30 26954 H 2581.76 0.279554 0.698107 0
M  V30 26955 H 2583.73 1.8551 2.33727 0
M  V30 26956 C 2582.48 0.467593 3.44542 0
M  V30 26957 H 2581.81 1.26102 3.79392 0
M  V30 26958 H 2583.25 0.317238 4.22812 0
M  V30 26959 C 2581.71 -0.817531 3.2683 0
M  V30 26960 O 2582.24 -1.88025 3.54978 0
M  V30 26961 N 2580.44 -0.772628 2.80141 0
M  V30 26962 H 2579.99 0.0924336 2.57434 0
M  V30 26963 H 2579.95 -1.63289 2.68671 0
M  V30 26964 N 2583.72 -1.22452 0.992137 0
M  V30 26965 C 2584.96 -1.91463 0.668557 0
M  V30 26966 C 2585.3 -1.77079 -0.797281 0
M  V30 26967 O 2584.57 -1.13919 -1.57648 0
M  V30 26968 C 2584.86 -3.43702 1.0743 0
M  V30 26969 C 2584.71 -3.67139 2.59864 0
M  V30 26970 C 2586.03 -4.35611 0.626968 0
M  V30 26971 H 2583.15 -0.695313 0.244353 0
M  V30 26972 H 2585.79 -1.44343 1.23552 0
M  V30 26973 H 2583.94 -3.83965 0.591884 0
M  V30 26974 H 2585.61 -3.36284 3.1577 0
M  V30 26975 H 2583.85 -3.11446 3.01967 0
M  V30 26976 H 2584.52 -4.73754 2.83304 0
M  V30 26977 H 2587 -4.02859 1.04132 0
M  V30 26978 H 2585.88 -5.40806 0.939171 0
M  V30 26979 H 2586.14 -4.39569 -0.472379 0
M  V30 26980 N 2585.2 -0.765242 -1.37774 0
M  V30 26981 C 2586.44 -0.326623 -1.99849 0
M  V30 26982 C 2586.77 1.09501 -1.60747 0
M  V30 26983 O 2586.03 1.76658 -0.842052 0
M  V30 26984 C 2586.33 -0.410115 -3.55039 0
M  V30 26985 C 2585.99 -1.78907 -4.13888 0
M  V30 26986 C 2584.65 -2.16642 -4.29674 0
M  V30 26987 C 2587.01 -2.69309 -4.46231 0
M  V30 26988 C 2584.33 -3.44229 -4.75104 0
M  V30 26989 C 2586.69 -3.96298 -4.93082 0
M  V30 26990 C 2585.35 -4.34087 -5.07074 0
M  V30 26991 H 2584.62 -0.11952 -0.731297 0
M  V30 26992 H 2587.27 -0.977997 -1.64643 0
M  V30 26993 H 2585.57 0.324809 -3.90451 0
M  V30 26994 H 2587.27 -0.0521404 -4.00966 0
M  V30 26995 H 2583.86 -1.48576 -4.02024 0
M  V30 26996 H 2588.04 -2.41417 -4.33626 0
M  V30 26997 H 2583.3 -3.7341 -4.84123 0
M  V30 26998 H 2587.47 -4.66482 -5.17076 0
M  V30 26999 H 2585.1 -5.33011 -5.42036 0
M  V30 27000 N 2586.67 1.48939 -0.515251 0
M  V30 27001 C 2587.61 2.27327 0.292441 0
M  V30 27002 C 2588.62 1.34462 0.917814 0
M  V30 27003 O 2589.81 1.59632 0.798744 0
M  V30 27004 C 2586.91 3.07347 1.42798 0
M  V30 27005 C 2586.08 4.27887 0.907272 0
M  V30 27006 C 2585.14 4.89837 1.92214 0
M  V30 27007 O 2584.17 5.49488 1.48497 0
M  V30 27008 N 2585.37 4.80759 3.25347 0
M  V30 27009 H 2588.13 2.97284 -0.379773 0
M  V30 27010 H 2585.69 1.58101 -0.348666 0
M  V30 27011 H 2587.69 3.45662 2.10475 0
M  V30 27012 H 2586.26 2.39905 2.0041 0
M  V30 27013 H 2585.48 3.94162 0.0549525 0
M  V30 27014 H 2586.76 5.05947 0.538019 0
M  V30 27015 H 2586.16 4.33421 3.63542 0
M  V30 27016 H 2584.72 5.23218 3.88698 0
M  V30 27017 N 2588.15 0.249709 1.55609 0
M  V30 27018 C 2589.4 -0.373513 1.98618 0
M  V30 27019 C 2589.72 -1.58262 1.13922 0
M  V30 27020 O 2588.99 -1.9463 0.222671 0
M  V30 27021 H 2587.57 -0.140993 0.733573 0
M  V30 27022 H 2590.23 0.34915 1.91747 0
M  V30 27023 H 2589.33 -0.680743 3.04585 0
M  V30 27024 N 2589.63 -1.57583 -0.0233682 0
M  V30 27025 C 2590.88 -1.88711 -0.7121 0
M  V30 27026 C 2591.19 -0.848975 -1.76215 0
M  V30 27027 O 2592.4 -1.04968 -2.50387 0
M  V30 27028 C 2590.86 -3.34912 -1.31764 0
M  V30 27029 C 2590.46 -4.4697 -0.303637 0
M  V30 27030 C 2592.21 -3.75182 -1.98592 0
M  V30 27031 C 2590.11 -5.84234 -0.917842 0
M  V30 27032 H 2589.04 -0.704106 -0.269723 0
M  V30 27033 H 2591.7 -1.8347 0.0333437 0
M  V30 27034 H 2590.08 -3.34917 -2.11298 0
M  V30 27035 H 2591.25 -4.58444 0.465405 0
M  V30 27036 H 2589.57 -4.15569 0.262873 0
M  V30 27037 H 2592.16 -4.75057 -2.45408 0
M  V30 27038 H 2592.51 -3.07473 -2.80653 0
M  V30 27039 H 2593.04 -3.77376 -1.25825 0
M  V30 27040 H 2589.78 -6.55358 -0.136518 0
M  V30 27041 H 2589.3 -5.7647 -1.65659 0
M  V30 27042 H 2590.98 -6.31146 -1.42349 0
M  V30 27043 N 2591.11 0.29574 -1.548 0
M  V30 27044 C 2592.02 1.38738 -1.89179 0
M  V30 27045 C 2593.04 1.5521 -0.786509 0
M  V30 27046 O 2594.21 1.69773 -1.08347 0
M  V30 27047 C 2591.28 2.73033 -2.13668 0
M  V30 27048 C 2590.34 2.65502 -3.37354 0
M  V30 27049 C 2589.57 3.93391 -3.60665 0
M  V30 27050 O 2589.79 4.93001 -2.86891 0
M  V30 27051 O 2588.73 3.94967 -4.54186 0
M  V30 27052 H 2592.55 1.12584 -2.82061 0
M  V30 27053 H 2590.14 0.49227 -1.41057 0
M  V30 27054 H 2592.02 3.5248 -2.30946 0
M  V30 27055 H 2590.7 2.99019 -1.23972 0
M  V30 27056 H 2589.6 1.84508 -3.25434 0
M  V30 27057 H 2590.94 2.44467 -4.27196 0
M  V30 27058 N 2592.59 1.47346 0.559187 0
M  V30 27059 C 2593.82 1.57481 1.34191 0
M  V30 27060 C 2594.23 0.224294 1.87463 0
M  V30 27061 O 2593.59 -0.782156 1.6489 0
M  V30 27062 C 2593.64 2.59848 2.51319 0
M  V30 27063 O 2593.36 3.89656 2.00249 0
M  V30 27064 C 2594.86 2.80148 3.43558 0
M  V30 27065 H 2592.08 0.531843 0.409126 0
M  V30 27066 H 2594.62 1.92949 0.677575 0
M  V30 27067 H 2592.78 2.2732 3.13695 0
M  V30 27068 H 2593.19 4.45575 2.76701 0
M  V30 27069 H 2594.67 3.55642 4.22164 0
M  V30 27070 H 2595.14 1.87899 3.96977 0
M  V30 27071 H 2595.75 3.13865 2.86999 0
M  V30 27072 N 2594.07 -0.805758 1.35445 0
M  V30 27073 C 2595.03 -1.89922 1.28305 0
M  V30 27074 C 2596.03 -1.59622 0.194313 0
M  V30 27075 O 2597.22 -1.68339 0.448065 0
M  V30 27076 C 2594.35 -3.26358 0.985055 0
M  V30 27077 H 2595.54 -1.97673 2.25534 0
M  V30 27078 H 2593.1 -1.00171 1.19981 0
M  V30 27079 H 2593.83 -3.24296 0.01666 0
M  V30 27080 H 2593.62 -3.49737 1.77275 0
M  V30 27081 H 2595.11 -4.06399 0.960722 0
M  V30 27082 N 2595.54 -1.19456 -1.02801 0
M  V30 27083 C 2596.79 -0.999202 -1.76476 0
M  V30 27084 C 2597.12 0.468795 -1.88457 0
M  V30 27085 O 2596.4 1.34812 -1.402 0
M  V30 27086 C 2596.68 -1.66987 -3.19041 0
M  V30 27087 C 2596.53 -3.21157 -3.14926 0
M  V30 27088 C 2597.85 -1.39357 -4.17454 0
M  V30 27089 H 2594.97 -0.364404 -0.640608 0
M  V30 27090 H 2597.61 -1.47307 -1.20002 0
M  V30 27091 H 2595.76 -1.26697 -3.6726 0
M  V30 27092 H 2597.44 -3.70666 -2.74598 0
M  V30 27093 H 2595.68 -3.52656 -2.52619 0
M  V30 27094 H 2596.35 -3.6323 -4.15654 0
M  V30 27095 H 2598.83 -1.74289 -3.77839 0
M  V30 27096 H 2597.7 -1.88832 -5.15397 0
M  V30 27097 H 2597.96 -0.318891 -4.40948 0
M  V30 27098 N 2597.02 1.21924 -0.998617 0
M  V30 27099 C 2598.27 1.90446 -0.676358 0
M  V30 27100 C 2598.59 1.78072 0.794688 0
M  V30 27101 O 2597.86 1.17155 1.57008 0
M  V30 27102 H 2596.44 0.70492 -0.247177 0
M  V30 27103 H 2599.1 1.48154 -1.26635 0
M  V30 27104 H 2598.2 2.97484 -0.94391 0
M  V30 27105 N 2598.5 0.772537 1.37367 0
M  V30 27106 C 2599.45 0.132863 2.27613 0
M  V30 27107 C 2600.43 -0.673221 1.46139 0
M  V30 27108 O 2601.63 -0.536065 1.68687 0
M  V30 27109 C 2598.75 -0.744805 3.35123 0
M  V30 27110 C 2597.84 0.0691517 4.24044 0
M  V30 27111 N 2598.23 1.11519 4.93353 0
M  V30 27112 C 2596.53 -0.154703 4.45732 0
M  V30 27113 C 2597.23 1.60927 5.58997 0
M  V30 27114 N 2596.21 0.921316 5.35736 0
M  V30 27115 H 2600.01 0.93373 2.78673 0
M  V30 27116 H 2597.52 0.610369 1.50493 0
M  V30 27117 H 2599.52 -1.21885 3.98685 0
M  V30 27118 H 2598.18 -1.54441 2.85619 0
M  V30 27119 H 2599.19 1.49735 4.95782 0
M  V30 27120 H 2595.87 -0.926152 4.07098 0
M  V30 27121 H 2597.26 2.48164 6.24391 0
M  V30 27122 N 2599.98 -1.48664 0.523142 0
M  V30 27123 C 2601.21 -2.06598 -0.00958092 0
M  V30 27124 C 2601.62 -1.38095 -1.29331 0
M  V30 27125 O 2600.96 -0.460101 -1.77845 0
M  V30 27126 C 2601.02 -3.58152 -0.311072 0
M  V30 27127 C 2600.68 -4.48483 0.878171 0
M  V30 27128 C 2601.68 -4.88671 1.77473 0
M  V30 27129 C 2599.37 -4.90481 1.08324 0
M  V30 27130 C 2601.36 -5.69618 2.86031 0
M  V30 27131 C 2599.05 -5.71199 2.17197 0
M  V30 27132 C 2600.05 -6.10675 3.05884 0
M  V30 27133 O 2599.73 -6.89775 4.12874 0
M  V30 27134 H 2599.47 -0.675449 0.0272777 0
M  V30 27135 H 2602.02 -1.92134 0.72619 0
M  V30 27136 H 2600.25 -3.70703 -1.10073 0
M  V30 27137 H 2601.94 -3.98236 -0.785055 0
M  V30 27138 H 2602.7 -4.56853 1.62821 0
M  V30 27139 H 2598.58 -4.59242 0.402229 0
M  V30 27140 H 2602.13 -6.0035 3.55282 0
M  V30 27141 H 2598.02 -6.02431 2.31835 0
M  V30 27142 H 2598.79 -7.08119 4.105 0
M  V30 27143 N 2601.46 -0.257958 -1.55475 0
M  V30 27144 C 2602.7 0.364231 -1.99502 0
M  V30 27145 C 2603.03 1.5678 -1.14603 0
M  V30 27146 O 2602.31 1.93341 -0.212002 0
M  V30 27147 C 2602.59 0.763272 -3.51918 0
M  V30 27148 C 2602.45 -0.44645 -4.47579 0
M  V30 27149 C 2603.76 1.60615 -4.09745 0
M  V30 27150 H 2600.88 0.130916 -0.725279 0
M  V30 27151 H 2603.53 -0.361479 -1.8653 0
M  V30 27152 H 2601.68 1.3816 -3.63103 0
M  V30 27153 H 2603.35 -1.08495 -4.4836 0
M  V30 27154 H 2601.59 -1.0876 -4.19945 0
M  V30 27155 H 2602.26 -0.123742 -5.51861 0
M  V30 27156 H 2604.74 1.08411 -4.01729 0
M  V30 27157 H 2603.61 1.8542 -5.16634 0
M  V30 27158 H 2603.87 2.58163 -3.58893 0
M  V30 27159 N 2602.93 1.57593 0.0150108 0
M  V30 27160 C 2603.88 2.03942 1.0194 0
M  V30 27161 C 2604.87 0.931309 1.31208 0
M  V30 27162 O 2606.06 1.19515 1.30557 0
M  V30 27163 C 2603.19 2.53395 2.31616 0
M  V30 27164 C 2602.28 3.71054 2.05377 0
M  V30 27165 N 2602.67 4.8328 1.49244 0
M  V30 27166 C 2600.96 3.78697 2.35594 0
M  V30 27167 C 2601.67 5.64816 1.39133 0
M  V30 27168 N 2600.64 5.10358 1.87178 0
M  V30 27169 H 2604.44 2.88127 0.579639 0
M  V30 27170 H 2601.96 1.60889 0.221028 0
M  V30 27171 H 2603.95 2.84867 3.04395 0
M  V30 27172 H 2602.61 1.70621 2.76258 0
M  V30 27173 H 2603.63 5.04435 1.17326 0
M  V30 27174 H 2600.3 3.06751 2.83214 0
M  V30 27175 H 2601.69 6.64992 0.961036 0
M  V30 27176 N 2604.41 -0.287527 1.54955 0
M  V30 27177 C 2605.38 -1.33819 1.86078 0
M  V30 27178 C 2606.38 -1.43048 0.734439 0
M  V30 27179 O 2607.57 -1.4245 1.00268 0
M  V30 27180 C 2604.7 -2.72141 2.0531 0
M  V30 27181 H 2605.89 -1.0746 2.79986 0
M  V30 27182 H 2603.44 -0.524876 1.47223 0
M  V30 27183 H 2604.18 -3.03702 1.13735 0
M  V30 27184 H 2603.96 -2.66831 2.87304 0
M  V30 27185 H 2605.45 -3.48083 2.30713 0
M  V30 27186 N 2605.89 -1.47641 -0.551365 0
M  V30 27187 C 2607.31 -1.33288 -0.877864 0
M  V30 27188 C 2607.51 -0.327756 -1.98817 0
M  V30 27189 O 2606.56 0.25865 -2.51172 0
M  V30 27190 C 2607.88 -2.7277 -1.26558 0
M  V30 27191 C 2609.42 -2.81099 -1.37668 0
M  V30 27192 C 2609.9 -4.21235 -1.79792 0
M  V30 27193 N 2611.39 -4.23805 -1.86932 0
M  V30 27194 C 2612.12 -5.29155 -2.20867 0
M  V30 27195 N 2611.62 -6.44805 -2.53375 0
M  V30 27196 N 2613.41 -5.16536 -2.21691 0
M  V30 27197 H 2605.56 -2.11623 0.181567 0
M  V30 27198 H 2607.83 -0.947818 0.0185681 0
M  V30 27199 H 2607.53 -3.47782 -0.52353 0
M  V30 27200 H 2607.41 -3.04919 -2.22046 0
M  V30 27201 H 2609.79 -2.06356 -2.10953 0
M  V30 27202 H 2609.88 -2.52597 -0.403526 0
M  V30 27203 H 2609.52 -4.96485 -1.07075 0
M  V30 27204 H 2609.45 -4.47165 -2.7812 0
M  V30 27205 H 2611.94 -3.40376 -1.64173 0
M  V30 27206 H 2612.25 -7.20945 -2.78312 0
M  V30 27207 H 2610.6 -6.48115 -2.50942 0
M  V30 27208 H 2613.79 -4.25211 -1.95738 0
M  V30 27209 H 2613.96 -5.98745 -2.47807 0
M  V30 27210 N 2607.37 0.798563 -1.3587 0
M  V30 27211 C 2608.3 1.92526 -1.32121 0
M  V30 27212 C 2609.28 1.68987 -0.194239 0
M  V30 27213 O 2610.46 1.90234 -0.39046 0
M  V30 27214 C 2607.59 3.29402 -1.10053 0
M  V30 27215 C 2606.55 3.67442 -2.19477 0
M  V30 27216 C 2605.87 5.02568 -1.82564 0
M  V30 27217 C 2607.17 3.7698 -3.61501 0
M  V30 27218 H 2608.87 1.9592 -2.26397 0
M  V30 27219 H 2606.41 0.941211 -1.08983 0
M  V30 27220 H 2608.37 4.07833 -1.06068 0
M  V30 27221 H 2607.09 3.26371 -0.122252 0
M  V30 27222 H 2605.75 2.91302 -2.22573 0
M  V30 27223 H 2605.4 4.96049 -0.833336 0
M  V30 27224 H 2605.1 5.2899 -2.55819 0
M  V30 27225 H 2606.62 5.83429 -1.80118 0
M  V30 27226 H 2608.04 4.45624 -3.60683 0
M  V30 27227 H 2606.43 4.14879 -4.33584 0
M  V30 27228 H 2607.5 2.78322 -3.9707 0
M  V30 27229 N 2608.85 1.19999 1.02166 0
M  V30 27230 C 2609.79 0.944265 2.106 0
M  V30 27231 C 2610.76 -0.123635 1.65639 0
M  V30 27232 O 2611.95 0.0200276 1.90789 0
M  V30 27233 C 2609.09 0.496925 3.41504 0
M  V30 27234 C 2608.2 1.63241 3.99971 0
M  V30 27235 C 2607.34 1.13588 5.18913 0
M  V30 27236 C 2606.38 2.24478 5.69452 0
M  V30 27237 N 2605.51 1.7608 6.79662 0
M  V30 27238 H 2610.35 1.87264 2.31811 0
M  V30 27239 H 2607.89 0.933503 1.13684 0
M  V30 27240 H 2609.85 0.218916 4.16625 0
M  V30 27241 H 2608.48 -0.394452 3.20381 0
M  V30 27242 H 2607.53 2.02545 3.21993 0
M  V30 27243 H 2608.84 2.4676 4.33487 0
M  V30 27244 H 2608 0.813534 6.01221 0
M  V30 27245 H 2606.73 0.270519 4.86949 0
M  V30 27246 H 2605.74 2.57535 4.85753 0
M  V30 27247 H 2606.96 3.11482 6.03453 0
M  V30 27248 H 2604.91 0.91863 6.49536 0
M  V30 27249 H 2604.83 2.53183 7.12344 0
M  V30 27250 H 2606.1 1.4683 7.65546 0
M  V30 27251 N 2610.32 -1.21392 1.00507 0
M  V30 27252 C 2611.57 -1.90085 0.686449 0
M  V30 27253 C 2611.89 -1.78491 -0.785233 0
M  V30 27254 O 2611.16 -1.17986 -1.56385 0
M  V30 27255 H 2609.74 -0.703599 0.250912 0
M  V30 27256 H 2612.41 -1.4748 1.27419 0
M  V30 27257 H 2611.5 -2.96979 0.959674 0
M  V30 27258 N 2611.8 -0.779811 -1.36955 0
M  V30 27259 C 2613.05 -0.347114 -1.99097 0
M  V30 27260 C 2613.37 1.08229 -1.62208 0
M  V30 27261 O 2612.64 1.74444 -0.891404 0
M  V30 27262 H 2611.22 -0.125355 -0.736407 0
M  V30 27263 H 2613.88 -0.999726 -1.67307 0
M  V30 27264 H 2612.98 -0.431216 -3.09107 0
M  V30 27265 N 2613.28 1.48384 -0.531019 0
M  V30 27266 C 2614.21 2.32462 0.219944 0
M  V30 27267 C 2615.19 1.42158 0.934086 0
M  V30 27268 O 2616.38 1.71043 0.919663 0
M  V30 27269 C 2613.51 3.23377 1.26668 0
M  V30 27270 C 2612.46 4.22714 0.670616 0
M  V30 27271 C 2611.79 5.0277 1.82008 0
M  V30 27272 C 2613.09 5.21069 -0.35836 0
M  V30 27273 H 2614.78 2.95496 -0.481922 0
M  V30 27274 H 2612.33 1.42099 -0.233207 0
M  V30 27275 H 2614.28 3.81023 1.79999 0
M  V30 27276 H 2613 2.58345 1.99814 0
M  V30 27277 H 2611.66 3.66256 0.158813 0
M  V30 27278 H 2611.31 4.34161 2.53994 0
M  V30 27279 H 2611.01 5.70005 1.42717 0
M  V30 27280 H 2612.53 5.63268 2.35716 0
M  V30 27281 H 2613.95 5.73233 0.0879074 0
M  V30 27282 H 2612.35 5.96362 -0.668715 0
M  V30 27283 H 2613.42 4.68142 -1.26375 0
M  V30 27284 N 2614.76 0.2662 1.55336 0
M  V30 27285 C 2616.01 -0.353714 1.98574 0
M  V30 27286 C 2616.32 -1.57644 1.15792 0
M  V30 27287 O 2617.53 -2.26873 1.49133 0
M  V30 27288 C 2615.98 -0.680685 3.53404 0
M  V30 27289 C 2615.59 0.521729 4.44952 0
M  V30 27290 C 2617.33 -1.26372 4.05254 0
M  V30 27291 C 2615.24 0.169839 5.91156 0
M  V30 27292 H 2614.17 -0.135936 0.741645 0
M  V30 27293 H 2616.82 0.369452 1.79742 0
M  V30 27294 H 2615.2 -1.46251 3.68004 0
M  V30 27295 H 2616.38 1.29877 4.42118 0
M  V30 27296 H 2614.69 1.021 4.03689 0
M  V30 27297 H 2617.29 -1.54065 5.12023 0
M  V30 27298 H 2617.63 -2.19465 3.53753 0
M  V30 27299 H 2618.17 -0.544378 3.94058 0
M  V30 27300 H 2614.91 1.06841 6.46734 0
M  V30 27301 H 2614.43 -0.570612 5.9708 0
M  V30 27302 H 2616.1 -0.241132 6.46551 0
M  V30 27303 N 2616.24 -1.57599 -0.0066531 0
M  V30 27304 C 2617.17 -2.11038 -0.999259 0
M  V30 27305 C 2618.15 -1.01798 -1.36276 0
M  V30 27306 O 2619.33 -1.29445 -1.44768 0
M  V30 27307 C 2616.46 -2.60822 -2.29323 0
M  V30 27308 C 2615.42 -3.74529 -2.07153 0
M  V30 27309 C 2614.74 -4.10602 -3.42505 0
M  V30 27310 C 2616.04 -5.02071 -1.4395 0
M  V30 27311 H 2617.74 -2.94224 -0.55433 0
M  V30 27312 H 2615.28 -1.41537 -0.265197 0
M  V30 27313 H 2617.24 -2.96833 -2.99112 0
M  V30 27314 H 2615.96 -1.7475 -2.75917 0
M  V30 27315 H 2614.62 -3.38901 -1.39791 0
M  V30 27316 H 2614.27 -3.21563 -3.8679 0
M  V30 27317 H 2613.97 -4.87205 -3.28489 0
M  V30 27318 H 2615.49 -4.49167 -4.1362 0
M  V30 27319 H 2616.9 -5.35896 -2.03686 0
M  V30 27320 H 2615.3 -5.83435 -1.40442 0
M  V30 27321 H 2616.37 -4.83181 -0.407908 0
M  V30 27322 N 2617.72 0.279305 -1.55105 0
M  V30 27323 C 2618.66 1.34509 -1.87552 0
M  V30 27324 C 2619.63 1.49374 -0.72641 0
M  V30 27325 O 2620.82 1.63883 -0.977092 0
M  V30 27326 C 2617.96 2.70147 -2.14743 0
M  V30 27327 C 2617.07 2.63556 -3.4229 0
M  V30 27328 C 2616.21 3.91331 -3.59213 0
M  V30 27329 C 2615.24 3.79225 -4.80474 0
M  V30 27330 N 2614.38 4.98821 -4.94087 0
M  V30 27331 H 2619.22 1.06138 -2.78458 0
M  V30 27332 H 2616.76 0.512912 -1.37868 0
M  V30 27333 H 2618.72 3.49057 -2.28507 0
M  V30 27334 H 2617.35 2.96733 -1.2708 0
M  V30 27335 H 2616.4 1.76391 -3.37032 0
M  V30 27336 H 2617.71 2.50508 -4.31332 0
M  V30 27337 H 2616.86 4.78681 -3.72759 0
M  V30 27338 H 2615.6 4.07238 -2.68344 0
M  V30 27339 H 2614.61 2.90258 -4.66937 0
M  V30 27340 H 2615.83 3.64842 -5.72772 0
M  V30 27341 H 2613.78 5.15151 -4.06148 0
M  V30 27342 H 2613.7 4.88279 -5.77165 0
M  V30 27343 H 2614.96 5.87761 -5.12013 0
M  V30 27344 N 2619.19 1.47931 0.543528 0
M  V30 27345 C 2620.44 1.55257 1.30006 0
M  V30 27346 C 2620.77 0.220646 1.93244 0
M  V30 27347 O 2620.02 -0.787811 1.79142 0
M  V30 27348 C 2620.32 2.62936 2.42073 0
M  V30 27349 C 2619.99 4.05794 1.96576 0
M  V30 27350 C 2618.65 4.44679 1.83885 0
M  V30 27351 C 2621 4.95376 1.62026 0
M  V30 27352 C 2618.33 5.70967 1.34959 0
M  V30 27353 C 2620.68 6.22139 1.14566 0
M  V30 27354 C 2619.35 6.59894 1.00482 0
M  V30 27355 H 2618.62 0.568126 0.475725 0
M  V30 27356 H 2621.26 1.8159 0.608043 0
M  V30 27357 H 2619.57 2.30411 3.16888 0
M  V30 27358 H 2621.27 2.65823 3.00231 0
M  V30 27359 H 2617.86 3.75077 2.07401 0
M  V30 27360 H 2622.04 4.66022 1.70697 0
M  V30 27361 H 2617.3 5.98955 1.2273 0
M  V30 27362 H 2621.47 6.90957 0.868987 0
M  V30 27363 H 2619.1 7.57639 0.62349 0
M  V30 27364 N 2620.67 -0.791347 1.36292 0
M  V30 27365 C 2621.95 -1.5371 1.20965 0
M  V30 27366 C 2622.33 -2.10102 -0.204984 0
M  V30 27367 O 2621.68 -1.93809 -1.21038 0
M  V30 27368 C 2621.89 -2.63357 2.29006 0
M  V30 27369 C 2623.23 -3.31291 2.65578 0
M  V30 27370 O 2624.26 -2.73639 2.28035 0
M  V30 27371 O 2623.12 -4.35475 3.30188 0
M  V30 27372 H 2620.21 -0.679859 0.470872 0
M  V30 27373 H 2622.76 -0.829995 1.48017 0
M  V30 27374 H 2621.53 -2.19668 3.23823 0
M  V30 27375 H 2621.15 -3.41689 2.03309 0
M  V30 27376 N 2622.15 -1.2054 -1.01528 0
M  V30 27377 C 2623.37 -1.04274 -1.79281 0
M  V30 27378 C 2623.8 0.403511 -1.83721 0
M  V30 27379 O 2623.16 1.29067 -1.27324 0
M  V30 27380 C 2623.21 -1.63247 -3.21532 0
M  V30 27381 O 2622.31 -0.870979 -4.03098 0
M  V30 27382 H 2621.65 -0.367656 -0.552924 0
M  V30 27383 H 2624.18 -1.59861 -1.27694 0
M  V30 27384 H 2624.19 -1.67037 -3.7224 0
M  V30 27385 H 2622.87 -2.68502 -3.17615 0
M  V30 27386 H 2621.44 -0.907387 -3.61692 0
M  V30 27387 N 2623.63 1.20858 -1.01149 0
M  V30 27388 C 2624.88 1.89718 -0.69652 0
M  V30 27389 C 2625.2 1.78905 0.775756 0
M  V30 27390 O 2624.47 1.18814 1.55757 0
M  V30 27391 H 2623.05 0.702259 -0.25464 0
M  V30 27392 H 2625.71 1.46802 -1.282 0
M  V30 27393 H 2624.8 2.96466 -0.97541 0
M  V30 27394 N 2625.11 0.787064 1.3654 0
M  V30 27395 C 2626.33 0.370235 2.0356 0
M  V30 27396 C 2626.75 -1.0126 1.59348 0
M  V30 27397 O 2626.11 -1.64906 0.78181 0
M  V30 27398 C 2626.16 0.421677 3.59032 0
M  V30 27399 O 2625.88 1.74997 4.01631 0
M  V30 27400 C 2627.38 -0.00481971 4.433 0
M  V30 27401 H 2624.6 0.152916 0.653343 0
M  V30 27402 H 2627.14 1.06525 1.74564 0
M  V30 27403 H 2625.3 -0.224903 3.86747 0
M  V30 27404 H 2625.71 1.69917 4.96214 0
M  V30 27405 H 2627.19 0.0823154 5.51939 0
M  V30 27406 H 2627.66 -1.05716 4.26287 0
M  V30 27407 H 2628.27 0.614159 4.20842 0
M  V30 27408 N 2626.58 -1.48101 0.53888 0
M  V30 27409 C 2627.83 -2.02798 0.0080493 0
M  V30 27410 C 2628.16 -1.41426 -1.33087 0
M  V30 27411 O 2627.44 -0.563191 -1.86168 0
M  V30 27412 C 2627.72 -3.59948 -0.104526 0
M  V30 27413 C 2627.57 -4.31786 1.2602 0
M  V30 27414 C 2628.89 -4.3226 -0.826979 0
M  V30 27415 H 2626.01 -0.736987 0.0043992 0
M  V30 27416 H 2628.65 -1.76729 0.697631 0
M  V30 27417 H 2626.8 -3.8229 -0.691825 0
M  V30 27418 H 2628.48 -4.20837 1.88929 0
M  V30 27419 H 2626.72 -3.92856 1.83975 0
M  V30 27420 H 2627.39 -5.40219 1.13433 0
M  V30 27421 H 2629.87 -4.14801 -0.328505 0
M  V30 27422 H 2628.74 -5.41886 -0.874665 0
M  V30 27423 H 2629 -4.00173 -1.8792 0
M  V30 27424 N 2628.06 -0.274434 -1.55192 0
M  V30 27425 C 2629.29 0.348788 -2.04446 0
M  V30 27426 C 2629.71 1.48733 -1.15152 0
M  V30 27427 O 2629.07 1.80679 -0.149984 0
M  V30 27428 C 2629.12 0.807947 -3.51432 0
M  V30 27429 O 2628.22 1.91525 -3.65229 0
M  V30 27430 H 2627.56 0.072216 -0.660061 0
M  V30 27431 H 2630.09 -0.408533 -2.0048 0
M  V30 27432 H 2630.1 1.10388 -3.92783 0
M  V30 27433 H 2628.78 -0.0250596 -4.15892 0
M  V30 27434 H 2627.35 1.6219 -3.35781 0
M  V30 27435 N 2629.54 1.576 -0.00170483 0
M  V30 27436 C 2630.49 2.08529 0.989158 0
M  V30 27437 C 2631.46 0.981088 1.34029 0
M  V30 27438 O 2632.64 1.25362 1.43837 0
M  V30 27439 C 2629.78 2.59467 2.27532 0
M  V30 27440 C 2628.89 3.83795 1.98307 0
M  V30 27441 C 2628.03 4.23227 3.21017 0
M  V30 27442 C 2627.07 5.40387 2.87486 0
M  V30 27443 N 2626.21 5.75105 4.02739 0
M  V30 27444 H 2631.05 2.92919 0.547921 0
M  V30 27445 H 2628.58 1.44804 0.258891 0
M  V30 27446 H 2630.54 2.87079 3.02724 0
M  V30 27447 H 2629.17 1.77948 2.69322 0
M  V30 27448 H 2628.22 3.6308 1.13476 0
M  V30 27449 H 2629.53 4.69084 1.69593 0
M  V30 27450 H 2628.69 4.5213 4.04553 0
M  V30 27451 H 2627.43 3.3665 3.52871 0
M  V30 27452 H 2626.43 5.11206 2.02358 0
M  V30 27453 H 2627.66 6.28642 2.56878 0
M  V30 27454 H 2625.6 4.91486 4.34485 0
M  V30 27455 H 2625.52 6.54972 3.77554 0
M  V30 27456 H 2626.79 6.08601 4.87058 0
M  V30 27457 N 2631.02 -0.271076 1.55251 0
M  V30 27458 C 2632.25 -1.02061 1.79976 0
M  V30 27459 C 2632.66 -1.79862 0.574034 0
M  V30 27460 O 2632.02 -1.76687 -0.456931 0
M  V30 27461 C 2632.07 -1.97766 3.02607 0
M  V30 27462 O 2631.79 -1.23117 4.20445 0
M  V30 27463 C 2633.29 -2.84516 3.39949 0
M  V30 27464 H 2630.51 -0.301409 0.599495 0
M  V30 27465 H 2633.05 -0.301277 2.02269 0
M  V30 27466 H 2631.21 -2.6516 2.82434 0
M  V30 27467 H 2631.62 -1.87642 4.89786 0
M  V30 27468 H 2633.1 -3.47464 4.28921 0
M  V30 27469 H 2633.57 -3.54384 2.59438 0
M  V30 27470 H 2634.18 -2.22611 3.62387 0
M  V30 27471 N 2632.5 -1.48217 -0.535675 0
M  V30 27472 C 2633.72 -1.5985 -1.32147 0
M  V30 27473 C 2634.15 -0.256874 -1.86338 0
M  V30 27474 O 2633.5 0.770603 -1.64108 0
M  V30 27475 C 2633.55 -2.64386 -2.45219 0
M  V30 27476 O 2632.66 -2.2115 -3.48089 0
M  V30 27477 H 2632 -0.536215 -0.391624 0
M  V30 27478 H 2634.53 -1.94162 -0.645168 0
M  V30 27479 H 2634.54 -2.85481 -2.91486 0
M  V30 27480 H 2633.21 -3.6179 -2.05137 0
M  V30 27481 H 2631.79 -2.10244 -3.0798 0
M  V30 27482 N 2633.97 0.784108 -1.3671 0
M  V30 27483 C 2635.25 1.53067 -1.21778 0
M  V30 27484 C 2635.63 2.10208 0.193839 0
M  V30 27485 O 2634.98 1.94448 1.20009 0
M  V30 27486 C 2635.19 2.62139 -2.304 0
M  V30 27487 C 2636.54 3.29878 -2.67331 0
M  V30 27488 O 2637.56 2.72426 -2.29483 0
M  V30 27489 O 2636.42 4.33718 -3.32492 0
M  V30 27490 H 2633.51 0.677352 -0.474471 0
M  V30 27491 H 2636.06 0.822134 -1.48456 0
M  V30 27492 H 2634.83 2.17948 -3.24984 0
M  V30 27493 H 2634.46 3.40606 -2.05118 0
M  V30 27494 N 2635.45 1.21076 1.00888 0
M  V30 27495 C 2636.7 1.0372 1.74968 0
M  V30 27496 C 2637.05 -0.425311 1.8764 0
M  V30 27497 O 2636.35 -1.31147 1.39682 0
M  V30 27498 C 2636.54 1.66339 3.16332 0
M  V30 27499 C 2636.37 3.18528 3.17443 0
M  V30 27500 C 2635.14 3.87549 3.24243 0
M  V30 27501 C 2637.34 4.15662 3.0287 0
M  V30 27502 N 2635.32 5.26959 3.1494 0
M  V30 27503 C 2636.69 5.41798 3.01421 0
M  V30 27504 C 2638.75 4.0676 2.87143 0
M  V30 27505 C 2637.45 6.60059 2.85857 0
M  V30 27506 C 2639.47 5.24653 2.72935 0
M  V30 27507 C 2638.84 6.49699 2.72159 0
M  V30 27508 H 2634.94 0.433841 0.65062 0
M  V30 27509 H 2637.52 1.5337 1.19941 0
M  V30 27510 H 2635.69 1.19263 3.69636 0
M  V30 27511 H 2637.42 1.42226 3.78885 0
M  V30 27512 H 2634.18 3.38452 3.31282 0
M  V30 27513 H 2634.6 5.99965 3.13641 0
M  V30 27514 H 2639.24 3.10883 2.86551 0
M  V30 27515 H 2636.96 7.56101 2.85197 0
M  V30 27516 H 2640.55 5.19583 2.61772 0
M  V30 27517 H 2639.43 7.39388 2.61294 0
M  V30 27518 N 2636.93 -1.2032 1.01789 0
M  V30 27519 C 2637.88 -2.23152 0.589236 0
M  V30 27520 C 2638.85 -1.61424 -0.391339 0
M  V30 27521 O 2640.03 -1.88576 -0.290485 0
M  V30 27522 C 2637.17 -3.45039 -0.065014 0
M  V30 27523 C 2636.29 -4.21192 0.960281 0
M  V30 27524 C 2635.42 -5.30478 0.276947 0
M  V30 27525 C 2634.46 -5.98376 1.28891 0
M  V30 27526 N 2633.6 -6.99248 0.632154 0
M  V30 27527 H 2638.44 -2.59177 1.47076 0
M  V30 27528 H 2635.97 -1.27351 0.736214 0
M  V30 27529 H 2637.93 -4.1464 -0.461479 0
M  V30 27530 H 2636.56 -3.09702 -0.910179 0
M  V30 27531 H 2635.61 -3.50644 1.4749 0
M  V30 27532 H 2636.93 -4.67844 1.72985 0
M  V30 27533 H 2636.08 -6.06448 -0.17495 0
M  V30 27534 H 2634.82 -4.84867 -0.524918 0
M  V30 27535 H 2633.82 -5.21166 1.75118 0
M  V30 27536 H 2635.05 -6.46072 2.09208 0
M  V30 27537 H 2632.99 -6.55829 -0.149819 0
M  V30 27538 H 2632.91 -7.44034 1.33977 0
M  V30 27539 H 2634.18 -7.79233 0.203892 0
M  V30 27540 N 2638.41 -0.794293 -1.3612 0
M  V30 27541 C 2639.65 -0.374412 -2.00942 0
M  V30 27542 C 2640.01 1.03574 -1.61667 0
M  V30 27543 O 2641.21 1.55697 -2.19116 0
M  V30 27544 C 2639.48 -0.538389 -3.53322 0
M  V30 27545 S 2641.04 -0.207107 -4.38311 0
M  V30 27546 H 2637.86 -0.142798 -0.696513 0
M  V30 27547 H 2640.46 -1.03385 -1.65927 0
M  V30 27548 H 2639.17 -1.56491 -3.79393 0
M  V30 27549 H 2638.7 0.136813 -3.93162 0
M  V30 27550 H 2640.71 0.989609 -4.86232 0
M  V30 27551 N 2639.89 1.47813 -0.546727 0
M  V30 27552 C 2640.83 2.29872 0.206814 0
M  V30 27553 C 2641.8 1.38413 0.918211 0
M  V30 27554 O 2642.99 1.67376 0.915962 0
M  V30 27555 C 2640.13 3.22153 1.2374 0
M  V30 27556 C 2639.24 4.28698 0.533141 0
M  V30 27557 C 2638.38 5.08141 1.54811 0
M  V30 27558 C 2637.42 6.06471 0.82824 0
M  V30 27559 N 2636.55 6.78911 1.78954 0
M  V30 27560 H 2641.39 2.93791 -0.499089 0
M  V30 27561 H 2638.93 1.44821 -0.257956 0
M  V30 27562 H 2640.89 3.74068 1.84739 0
M  V30 27563 H 2639.52 2.60121 1.91147 0
M  V30 27564 H 2638.57 3.79919 -0.191156 0
M  V30 27565 H 2639.88 4.9879 -0.0312863 0
M  V30 27566 H 2639.04 5.64154 2.23193 0
M  V30 27567 H 2637.77 4.37926 2.14644 0
M  V30 27568 H 2636.78 5.49645 0.130442 0
M  V30 27569 H 2638 6.78691 0.235788 0
M  V30 27570 H 2635.95 6.11434 2.37665 0
M  V30 27571 H 2635.87 7.45137 1.27699 0
M  V30 27572 H 2637.14 7.39504 2.46483 0
M  V30 27573 N 2641.36 0.28266 1.55044 0
M  V30 27574 C 2642.61 -0.332446 2.00057 0
M  V30 27575 C 2642.94 -1.54937 1.17082 0
M  V30 27576 O 2642.22 -1.92979 0.242734 0
M  V30 27577 C 2642.5 -0.707188 3.53088 0
M  V30 27578 C 2642.35 0.517599 4.46812 0
M  V30 27579 C 2643.67 -1.54076 4.12248 0
M  V30 27580 H 2640.79 -0.119361 0.72727 0
M  V30 27581 H 2643.43 0.391108 1.85931 0
M  V30 27582 H 2641.58 -1.32366 3.65256 0
M  V30 27583 H 2643.26 1.15615 4.46577 0
M  V30 27584 H 2641.5 1.15427 4.18161 0
M  V30 27585 H 2642.17 0.211523 5.51595 0
M  V30 27586 H 2644.65 -1.02006 4.03403 0
M  V30 27587 H 2643.52 -1.77177 5.19519 0
M  V30 27588 H 2643.78 -2.5242 3.62955 0
M  V30 27589 N 2642.84 -1.57597 0.0100627 0
M  V30 27590 C 2644.07 -1.95288 -0.683378 0
M  V30 27591 C 2644.49 -0.885511 -1.66746 0
M  V30 27592 O 2643.84 0.134597 -1.82003 0
M  V30 27593 C 2643.89 -3.33018 -1.40647 0
M  V30 27594 O 2643.61 -4.35659 -0.46184 0
M  V30 27595 C 2645.12 -3.85228 -2.19349 0
M  V30 27596 H 2642.34 -0.643627 -0.189696 0
M  V30 27597 H 2644.88 -2.04399 0.0641718 0
M  V30 27598 H 2643.03 -3.25184 -2.10556 0
M  V30 27599 H 2643.45 -5.15394 -0.973124 0
M  V30 27600 H 2644.92 -4.83998 -2.65425 0
M  V30 27601 H 2645.4 -3.18464 -3.02452 0
M  V30 27602 H 2646.01 -3.9627 -1.54435 0
M  V30 27603 N 2644.32 0.262839 -1.55393 0
M  V30 27604 C 2645.6 1.01496 -1.67206 0
M  V30 27605 C 2645.98 2.03938 -0.545222 0
M  V30 27606 O 2645.33 2.23956 0.453427 0
M  V30 27607 C 2645.54 1.66265 -3.0685 0
M  V30 27608 C 2646.88 2.17048 -3.64932 0
M  V30 27609 O 2647.91 1.76234 -3.09548 0
M  V30 27610 O 2646.77 2.91939 -4.61989 0
M  V30 27611 H 2643.86 0.471426 -0.679475 0
M  V30 27612 H 2646.41 0.257889 -1.67729 0
M  V30 27613 H 2645.18 0.920848 -3.8031 0
M  V30 27614 H 2644.8 2.48633 -3.1027 0
M  V30 27615 N 2645.8 1.48499 0.527807 0
M  V30 27616 C 2647.04 1.56859 1.28542 0
M  V30 27617 C 2647.38 0.242685 1.92678 0
M  V30 27618 O 2646.65 -0.751514 1.79395 0
M  V30 27619 C 2646.94 2.70843 2.3731 0
M  V30 27620 C 2646.79 4.13146 1.77851 0
M  V30 27621 C 2648.11 2.80579 3.39063 0
M  V30 27622 H 2645.23 0.570979 0.465996 0
M  V30 27623 H 2647.87 1.80681 0.587752 0
M  V30 27624 H 2646.02 2.50663 2.96817 0
M  V30 27625 H 2647.69 4.44771 1.22377 0
M  V30 27626 H 2645.93 4.20044 1.08375 0
M  V30 27627 H 2646.6 4.88725 2.56615 0
M  V30 27628 H 2649.08 2.98867 2.89513 0
M  V30 27629 H 2647.96 3.62058 4.1256 0
M  V30 27630 H 2648.22 1.88825 3.99747 0
M  V30 27631 N 2647.28 -0.776847 1.37123 0
M  V30 27632 C 2648.21 -1.90399 1.35168 0
M  V30 27633 C 2649.19 -1.68657 0.221099 0
M  V30 27634 O 2650.37 -1.89589 0.420675 0
M  V30 27635 C 2647.5 -3.27609 1.1528 0
M  V30 27636 C 2646.46 -3.63904 2.25295 0
M  V30 27637 C 2645.78 -4.996 1.90536 0
M  V30 27638 C 2647.08 -3.71181 3.67453 0
M  V30 27639 H 2648.78 -1.92293 2.29486 0
M  V30 27640 H 2646.32 -0.923753 1.10466 0
M  V30 27641 H 2648.28 -4.06094 1.12543 0
M  V30 27642 H 2647 -3.26135 0.17416 0
M  V30 27643 H 2645.66 -2.87724 2.27179 0
M  V30 27644 H 2645.31 -4.9466 0.912147 0
M  V30 27645 H 2645.01 -5.24853 2.64202 0
M  V30 27646 H 2646.53 -5.8049 1.89377 0
M  V30 27647 H 2647.95 -4.39829 3.67727 0
M  V30 27648 H 2646.34 -4.07929 4.4013 0
M  V30 27649 H 2647.41 -2.7197 4.01448 0
M  V30 27650 N 2648.76 -1.2161 -1.00244 0
M  V30 27651 C 2650 -1.03488 -1.74059 0
M  V30 27652 C 2650.33 0.431274 -1.89658 0
M  V30 27653 O 2649.59 1.33625 -1.42979 0
M  V30 27654 C 2649.88 -1.68015 -3.15446 0
M  V30 27655 C 2649.55 -3.17879 -3.19787 0
M  V30 27656 C 2648.21 -3.58774 -3.20679 0
M  V30 27657 C 2650.56 -4.13847 -3.16828 0
M  V30 27658 C 2647.89 -4.94136 -3.16301 0
M  V30 27659 C 2650.24 -5.49174 -3.13991 0
M  V30 27660 C 2648.91 -5.89462 -3.13194 0
M  V30 27661 H 2648.18 -0.378689 -0.636927 0
M  V30 27662 H 2650.83 -1.51238 -1.17471 0
M  V30 27663 H 2649.13 -1.12564 -3.75282 0
M  V30 27664 H 2650.83 -1.51493 -3.71283 0
M  V30 27665 H 2647.42 -2.85311 -3.19837 0
M  V30 27666 H 2651.6 -3.83278 -3.15297 0
M  V30 27667 H 2646.86 -5.24595 -3.14023 0
M  V30 27668 H 2651.03 -6.2327 -3.10656 0
M  V30 27669 H 2648.66 -6.94319 -3.09556 0
M  V30 27670 N 2650.23 1.19778 -1.02425 0
M  V30 27671 C 2651.64 1.71043 -0.748419 0
M  V30 27672 C 2652 1.82019 0.732366 0
M  V30 27673 O 2651.12 1.48809 1.57114 0
M  V30 27674 C 2651.72 3.10658 -1.35193 0
M  V30 27675 C 2650.27 3.59201 -1.12478 0
M  V30 27676 C 2649.42 2.36193 -1.45287 0
M  V30 27677 H 2652.37 1.04684 -1.19277 0
M  V30 27678 H 2652.39 3.73106 -0.746473 0
M  V30 27679 H 2651.91 3.02637 -2.42966 0
M  V30 27680 H 2650.01 3.72543 -0.0650637 0
M  V30 27681 H 2650.12 4.43585 -1.81023 0
M  V30 27682 H 2648.48 2.39305 -0.872076 0
M  V30 27683 H 2649.27 2.30806 -2.54133 0
M  V30 27684 N 2651.71 0.801501 1.35697 0
M  V30 27685 C 2652.96 0.378745 1.98519 0
M  V30 27686 C 2653.28 -1.05635 1.63909 0
M  V30 27687 O 2652.55 -1.73004 0.919043 0
M  V30 27688 H 2651.13 0.137055 0.734319 0
M  V30 27689 H 2653.79 1.02622 1.65695 0
M  V30 27690 H 2652.89 0.480338 3.08382 0
M  V30 27691 N 2653.19 -1.47521 0.554558 0
M  V30 27692 C 2654.12 -2.28022 -0.232066 0
M  V30 27693 C 2655.13 -1.36848 -0.881841 0
M  V30 27694 O 2656.32 -1.61693 -0.75614 0
M  V30 27695 C 2653.42 -3.11025 -1.34599 0
M  V30 27696 C 2652.6 -4.30142 -0.793506 0
M  V30 27697 C 2651.66 -4.94761 -1.79159 0
M  V30 27698 O 2650.68 -5.53232 -1.33876 0
M  V30 27699 N 2651.88 -4.89216 -3.12486 0
M  V30 27700 H 2654.65 -2.96173 0.458459 0
M  V30 27701 H 2652.21 -1.57121 0.390461 0
M  V30 27702 H 2654.2 -3.51121 -2.01236 0
M  V30 27703 H 2652.77 -2.45134 -1.93979 0
M  V30 27704 H 2651.99 -3.94169 0.0495718 0
M  V30 27705 H 2653.28 -5.07196 -0.403686 0
M  V30 27706 H 2652.68 -4.42907 -3.51923 0
M  V30 27707 H 2651.23 -5.3334 -3.74689 0
M  V30 27708 N 2654.67 -0.290879 -1.54892 0
M  V30 27709 C 2655.61 0.589701 -2.23139 0
M  V30 27710 C 2656.58 1.1375 -1.21038 0
M  V30 27711 O 2657.77 1.1839 -1.49628 0
M  V30 27712 C 2654.91 1.76055 -2.96814 0
M  V30 27713 C 2654.02 1.24511 -4.13668 0
M  V30 27714 C 2653.16 2.37902 -4.74948 0
M  V30 27715 C 2652.2 1.8344 -5.83966 0
M  V30 27716 N 2651.33 2.90365 -6.39244 0
M  V30 27717 H 2656.17 0.00109677 -2.98 0
M  V30 27718 H 2653.71 -0.0112265 -1.47096 0
M  V30 27719 H 2655.67 2.44903 -3.37755 0
M  V30 27720 H 2654.3 2.32094 -2.24348 0
M  V30 27721 H 2653.35 0.449221 -3.77738 0
M  V30 27722 H 2654.66 0.806338 -4.92239 0
M  V30 27723 H 2653.82 3.14715 -5.1869 0
M  V30 27724 H 2652.56 2.85102 -3.95687 0
M  V30 27725 H 2651.56 1.05113 -5.39659 0
M  V30 27726 H 2652.79 1.37157 -6.65105 0
M  V30 27727 H 2650.73 3.36918 -5.6287 0
M  V30 27728 H 2650.65 2.50953 -7.13133 0
M  V30 27729 H 2651.92 3.67106 -6.87643 0
M  V30 27730 N 2656.15 1.57589 -0.0184203 0
M  V30 27731 C 2657.38 1.95364 0.672036 0
M  V30 27732 C 2657.78 0.892902 1.66805 0
M  V30 27733 O 2657.13 -0.134926 1.83204 0
M  V30 27734 C 2657.19 3.29229 1.44391 0
M  V30 27735 C 2656.85 4.52945 0.607432 0
M  V30 27736 C 2657.85 5.19778 -0.112749 0
M  V30 27737 C 2655.53 4.99302 0.54798 0
M  V30 27738 C 2657.53 6.3128 -0.881168 0
M  V30 27739 C 2655.22 6.10689 -0.224152 0
M  V30 27740 C 2656.21 6.76536 -0.937442 0
M  V30 27741 O 2655.9 7.85786 -1.69694 0
M  V30 27742 H 2655.63 0.648481 0.190913 0
M  V30 27743 H 2658.19 2.05276 -0.0712354 0
M  V30 27744 H 2656.42 3.15777 2.23208 0
M  V30 27745 H 2658.11 3.51983 2.02146 0
M  V30 27746 H 2658.87 4.8494 -0.076085 0
M  V30 27747 H 2654.75 4.47862 1.09273 0
M  V30 27748 H 2658.3 6.82609 -1.43844 0
M  V30 27749 H 2654.19 6.44966 -0.26257 0
M  V30 27750 H 2654.96 8.02397 -1.61558 0
M  V30 27751 N 2657.62 -0.254594 1.5553 0
M  V30 27752 C 2658.85 -1.00569 1.81385 0
M  V30 27753 C 2659.27 -1.7846 0.59445 0
M  V30 27754 O 2658.63 -1.75462 -0.456372 0
M  V30 27755 C 2658.68 -1.92539 3.04895 0
M  V30 27756 O 2657.78 -3.01596 2.81271 0
M  V30 27757 H 2657.12 -0.286576 0.598974 0
M  V30 27758 H 2659.65 -0.277917 2.02704 0
M  V30 27759 H 2659.66 -2.3415 3.34123 0
M  V30 27760 H 2658.34 -1.35263 3.9329 0
M  V30 27761 H 2656.92 -2.64169 2.6319 0
M  V30 27762 N 2659.1 -1.48777 -0.519925 0
M  V30 27763 C 2660.33 -1.61243 -1.30444 0
M  V30 27764 C 2660.75 -0.276624 -1.86055 0
M  V30 27765 O 2660.11 0.753154 -1.64916 0
M  V30 27766 C 2660.16 -2.66972 -2.42401 0
M  V30 27767 O 2659.26 -2.2483 -3.45724 0
M  V30 27768 H 2658.6 -0.540338 -0.385915 0
M  V30 27769 H 2661.13 -1.94835 -0.624538 0
M  V30 27770 H 2661.14 -2.88557 -2.88442 0
M  V30 27771 H 2659.82 -3.63945 -2.01288 0
M  V30 27772 H 2658.39 -2.13499 -3.05733 0
M  V30 27773 N 2660.58 0.769564 -1.37534 0
M  V30 27774 C 2661.86 1.51766 -1.23395 0
M  V30 27775 C 2662.24 2.10402 0.171533 0
M  V30 27776 O 2661.58 1.9571 1.1794 0
M  V30 27777 C 2661.79 2.59681 -2.33167 0
M  V30 27778 C 2663.14 3.27024 -2.70815 0
M  V30 27779 O 2664.17 2.69977 -2.3236 0
M  V30 27780 O 2663.03 4.30167 -3.37074 0
M  V30 27781 H 2660.12 0.672282 -0.481628 0
M  V30 27782 H 2662.67 0.806342 -1.49319 0
M  V30 27783 H 2661.44 2.14488 -3.27277 0
M  V30 27784 H 2661.06 3.38411 -2.08719 0
M  V30 27785 N 2662.06 1.22139 0.995977 0
M  V30 27786 C 2663.3 1.05564 1.7503 0
M  V30 27787 C 2663.66 -0.402665 1.8773 0
M  V30 27788 O 2664.86 -0.689188 2.59815 0
M  V30 27789 C 2663.13 1.74384 3.11969 0
M  V30 27790 S 2664.69 1.73182 4.03179 0
M  V30 27791 H 2661.51 0.378101 0.60213 0
M  V30 27792 H 2664.11 1.55031 1.19104 0
M  V30 27793 H 2662.82 2.79657 3.00366 0
M  V30 27794 H 2662.35 1.25135 3.72968 0
M  V30 27795 H 2664.36 0.779317 4.90042 0
M  V30 27796 N 2663.54 -1.19233 1.03059 0
M  V30 27797 C 2664.48 -2.24556 0.606431 0
M  V30 27798 C 2665.48 -1.65491 -0.361797 0
M  V30 27799 O 2666.68 -1.78522 -0.230189 0
M  V30 27800 H 2663.06 -0.730666 0.177851 0
M  V30 27801 H 2665.03 -2.57648 1.50533 0
M  V30 27802 C 2663.78 -3.47691 -0.0251516 0
M  V30 27803 H 2663.1 -3.93429 0.710907 0
M  V30 27804 H 2664.54 -4.23042 -0.284856 0
M  V30 27805 C 2663 -3.11955 -1.27223 0
M  V30 27806 O 2663.53 -3.24766 -2.36411 0
M  V30 27807 N 2661.74 -2.66372 -1.16165 0
M  V30 27808 H 2661.28 -2.56148 -0.273144 0
M  V30 27809 H 2661.24 -2.42833 -1.99699 0
M  V30 27810 N 2665.01 -0.808686 -1.3527 0
M  V30 27811 C 2666.26 -0.390616 -1.99003 0
M  V30 27812 C 2666.59 1.04007 -1.64001 0
M  V30 27813 O 2665.87 1.72194 -0.904398 0
M  V30 27814 C 2666.15 -0.576629 -3.55453 0
M  V30 27815 C 2666 -2.0524 -4.00246 0
M  V30 27816 C 2667.32 -0.00362013 -4.401 0
M  V30 27817 H 2664.44 -0.143401 -0.722914 0
M  V30 27818 H 2667.08 -1.01861 -1.60388 0
M  V30 27819 H 2665.23 -0.0420449 -3.88477 0
M  V30 27820 H 2666.91 -2.64952 -3.77621 0
M  V30 27821 H 2665.15 -2.54807 -3.51078 0
M  V30 27822 H 2665.82 -2.13342 -5.09106 0
M  V30 27823 H 2668.3 -0.460189 -4.13547 0
M  V30 27824 H 2667.17 -0.163672 -5.48656 0
M  V30 27825 H 2667.43 1.09025 -4.28446 0
M  V30 27826 N 2666.49 1.47225 -0.562374 0
M  V30 27827 C 2667.74 2.0276 -0.0403117 0
M  V30 27828 C 2668.07 1.43526 1.30821 0
M  V30 27829 O 2667.35 0.592737 1.85248 0
M  V30 27830 C 2667.63 3.60069 0.0472477 0
M  V30 27831 C 2667.48 4.29726 -1.32873 0
M  V30 27832 C 2668.8 4.33521 0.758106 0
M  V30 27833 H 2665.92 0.736824 -0.0161235 0
M  V30 27834 H 2668.56 1.75597 -0.725659 0
M  V30 27835 H 2666.71 3.83343 0.630919 0
M  V30 27836 H 2668.38 4.17778 -1.956 0
M  V30 27837 H 2666.63 3.89879 -1.90202 0
M  V30 27838 H 2667.3 5.38346 -1.22013 0
M  V30 27839 H 2669.77 4.15271 0.262473 0
M  V30 27840 H 2668.65 5.43209 0.788345 0
M  V30 27841 H 2668.91 4.03112 1.8153 0
M  V30 27842 N 2667.97 0.299089 1.54736 0
M  V30 27843 C 2669.39 -0.0543569 1.59507 0
M  V30 27844 C 2669.59 -1.52582 1.31609 0
M  V30 27845 O 2668.64 -2.2783 1.08857 0
M  V30 27846 C 2669.96 0.341862 2.9875 0
M  V30 27847 C 2671.5 0.290469 3.11649 0
M  V30 27848 C 2671.98 0.661482 4.53198 0
M  V30 27849 N 2673.47 0.613944 4.59113 0
M  V30 27850 C 2674.2 0.873516 5.66707 0
M  V30 27851 N 2673.7 1.19896 6.82347 0
M  V30 27852 N 2675.49 0.800706 5.56368 0
M  V30 27853 H 2667.64 1.25809 1.71131 0
M  V30 27854 H 2669.91 0.509922 0.799177 0
M  V30 27855 H 2669.61 1.36613 3.24083 0
M  V30 27856 H 2669.49 -0.305442 3.75961 0
M  V30 27857 H 2671.87 -0.724554 2.86067 0
M  V30 27858 H 2671.96 0.972369 2.36598 0
M  V30 27859 H 2671.6 1.6743 4.7951 0
M  V30 27860 H 2671.53 -0.0424687 5.26583 0
M  V30 27861 H 2674.02 0.373267 3.76052 0
M  V30 27862 H 2674.33 1.38305 7.60323 0
M  V30 27863 H 2672.68 1.23697 6.83903 0
M  V30 27864 H 2675.87 0.546127 4.64903 0
M  V30 27865 H 2676.04 1.00637 6.40138 0
M  V30 27866 N 2669.45 -1.57577 0.0267774 0
M  V30 27867 C 2670.68 -1.95718 -0.661666 0
M  V30 27868 C 2671.09 -0.901735 -1.66329 0
M  V30 27869 O 2670.43 0.125209 -1.83273 0
M  V30 27870 C 2670.49 -3.2999 -1.42643 0
M  V30 27871 C 2670.16 -4.53261 -0.583402 0
M  V30 27872 C 2671.15 -5.19711 0.140312 0
M  V30 27873 C 2668.84 -4.99586 -0.521493 0
M  V30 27874 C 2670.83 -6.30804 0.914634 0
M  V30 27875 C 2668.52 -6.10561 0.256535 0
M  V30 27876 C 2669.52 -6.76029 0.973308 0
M  V30 27877 O 2669.2 -7.84875 1.73859 0
M  V30 27878 H 2668.94 -0.649485 -0.187471 0
M  V30 27879 H 2671.49 -2.05236 0.0821208 0
M  V30 27880 H 2669.72 -3.16956 -2.21531 0
M  V30 27881 H 2671.41 -3.5305 -2.00276 0
M  V30 27882 H 2672.18 -4.84893 0.101802 0
M  V30 27883 H 2668.05 -4.48435 -1.06896 0
M  V30 27884 H 2671.6 -6.81836 1.47462 0
M  V30 27885 H 2667.5 -6.44817 0.296771 0
M  V30 27886 H 2668.26 -8.01529 1.65812 0
M  V30 27887 N 2670.93 0.246342 -1.55663 0
M  V30 27888 C 2672.15 0.996061 -1.81916 0
M  V30 27889 C 2672.58 1.78142 -0.603906 0
M  V30 27890 O 2671.93 1.75702 0.44706 0
M  V30 27891 C 2671.98 1.9092 -3.05912 0
M  V30 27892 O 2671.09 3.001 -2.82866 0
M  V30 27893 H 2670.43 0.283396 -0.600486 0
M  V30 27894 H 2672.96 0.267163 -2.02848 0
M  V30 27895 H 2672.97 2.32374 -3.3536 0
M  V30 27896 H 2671.64 1.33176 -3.94001 0
M  V30 27897 H 2670.22 2.6277 -2.64587 0
M  V30 27898 N 2672.4 1.4905 0.512027 0
M  V30 27899 C 2673.33 1.67812 1.62362 0
M  V30 27900 C 2674.32 0.526837 1.61736 0
M  V30 27901 O 2675.5 0.761435 1.7865 0
M  V30 27902 C 2672.63 1.7344 3.00892 0
M  V30 27903 C 2671.58 2.88248 3.16382 0
M  V30 27904 C 2670.91 2.7898 4.56152 0
M  V30 27905 C 2672.21 4.29327 2.97449 0
M  V30 27906 H 2673.9 2.60875 1.46916 0
M  V30 27907 H 2671.45 1.25542 0.705357 0
M  V30 27908 H 2673.4 1.85152 3.78546 0
M  V30 27909 H 2672.13 0.769675 3.17401 0
M  V30 27910 H 2670.79 2.7612 2.4115 0
M  V30 27911 H 2670.43 1.80438 4.69522 0
M  V30 27912 H 2670.13 3.56029 4.67458 0
M  V30 27913 H 2671.66 2.92684 5.35881 0
M  V30 27914 H 2673.07 4.42193 3.64881 0
M  V30 27915 H 2671.47 5.07513 3.20236 0
M  V30 27916 H 2672.54 4.44539 1.93684 0
M  V30 27917 N 2673.88 -0.762259 1.3794 0
M  V30 27918 C 2675.16 -1.5111 1.24198 0
M  V30 27919 C 2675.54 -2.1049 -0.160372 0
M  V30 27920 O 2674.89 -1.96333 -1.169 0
M  V30 27921 C 2675.1 -2.5844 2.34541 0
M  V30 27922 C 2676.45 -3.25583 2.72545 0
M  V30 27923 O 2677.47 -2.68741 2.33788 0
M  V30 27924 O 2676.33 -4.28373 3.3935 0
M  V30 27925 H 2673.42 -0.669718 0.485187 0
M  V30 27926 H 2675.97 -0.798412 1.49745 0
M  V30 27927 H 2674.74 -2.1275 3.2841 0
M  V30 27928 H 2674.36 -3.37299 2.10511 0
M  V30 27929 N 2675.36 -1.22666 -0.989486 0
M  V30 27930 C 2676.61 -1.0512 -1.7261 0
M  V30 27931 C 2676.93 0.414097 -1.90552 0
M  V30 27932 O 2676.2 1.2976 -1.46763 0
M  V30 27933 H 2674.78 -0.385988 -0.639548 0
M  V30 27934 H 2677.44 -1.54234 -1.19155 0
M  V30 27935 H 2676.54 -1.5318 -2.71923 0
M  V30 27936 N 2676.84 1.18685 -1.0369 0
M  V30 27937 C 2677.79 2.24231 -0.618331 0
M  V30 27938 C 2678.78 1.65681 0.353016 0
M  V30 27939 O 2679.99 1.78642 0.220718 0
M  V30 27940 H 2676.36 0.729713 -0.181723 0
M  V30 27941 H 2678.33 2.56846 -1.51898 0
M  V30 27942 C 2677.08 3.47699 0.00671231 0
M  V30 27943 H 2676.41 3.93046 -0.731761 0
M  V30 27944 H 2677.85 4.23187 0.262417 0
M  V30 27945 C 2676.3 3.12625 1.25567 0
M  V30 27946 O 2676.83 3.26015 2.34685 0
M  V30 27947 N 2675.04 2.66984 1.1475 0
M  V30 27948 H 2674.59 2.56289 0.259556 0
M  V30 27949 H 2674.55 2.43888 1.98408 0
M  V30 27950 N 2678.32 0.815849 1.34839 0
M  V30 27951 C 2679.56 0.40057 1.98499 0
M  V30 27952 C 2679.89 -1.0346 1.64701 0
M  V30 27953 O 2679.15 -1.73411 0.907037 0
M  V30 27954 C 2679.45 0.541603 3.53272 0
M  V30 27955 C 2679.11 1.94145 4.06963 0
M  V30 27956 C 2677.77 2.3244 4.21337 0
M  V30 27957 C 2680.13 2.85685 4.35928 0
M  V30 27958 C 2677.45 3.61625 4.62 0
M  V30 27959 C 2679.81 4.14326 4.78034 0
M  V30 27960 C 2678.47 4.52608 4.90614 0
M  V30 27961 H 2677.74 0.146579 0.726358 0
M  V30 27962 H 2680.39 1.03843 1.609 0
M  V30 27963 H 2678.69 -0.179672 3.91388 0
M  V30 27964 H 2680.39 0.20092 4.00496 0
M  V30 27965 H 2676.98 1.63395 3.96232 0
M  V30 27966 H 2681.16 2.57344 4.24367 0
M  V30 27967 H 2676.42 3.91121 4.6993 0
M  V30 27968 H 2680.59 4.85351 4.99407 0
M  V30 27969 H 2678.22 5.52761 5.21881 0
M  V30 27970 N 2679.8 -1.46924 0.570174 0
M  V30 27971 C 2681.21 -1.57921 0.230898 0
M  V30 27972 C 2681.41 -1.56704 -1.26673 0
M  V30 27973 O 2680.47 -1.47733 -2.04771 0
M  V30 27974 C 2681.78 -2.87869 0.869023 0
M  V30 27975 C 2683.33 -3.01477 0.84145 0
M  V30 27976 C 2683.8 -4.34143 1.45888 0
M  V30 27977 N 2685.29 -4.40812 1.42265 0
M  V30 27978 C 2686.03 -5.42054 1.8699 0
M  V30 27979 N 2685.53 -6.50038 2.39629 0
M  V30 27980 N 2687.32 -5.33178 1.77982 0
M  V30 27981 H 2679.47 -1.45959 1.54304 0
M  V30 27982 H 2681.73 -0.695459 0.644236 0
M  V30 27983 H 2681.44 -2.94534 1.92205 0
M  V30 27984 H 2681.31 -3.75383 0.369748 0
M  V30 27985 H 2683.7 -2.94401 -0.202921 0
M  V30 27986 H 2683.78 -2.15471 1.37862 0
M  V30 27987 H 2683.42 -4.41976 2.50239 0
M  V30 27988 H 2683.35 -5.18903 0.897049 0
M  V30 27989 H 2685.85 -3.63372 1.03774 0
M  V30 27990 H 2686.16 -7.23483 2.71646 0
M  V30 27991 H 2684.5 -6.50892 2.43648 0
M  V30 27992 H 2687.69 -4.47718 1.36625 0
M  V30 27993 H 2687.87 -6.11939 2.13154 0
M  V30 27994 N 2681.27 -0.307291 -1.54575 0
M  V30 27995 C 2682.5 0.302561 -2.04676 0
M  V30 27996 C 2682.92 1.47039 -1.18427 0
M  V30 27997 O 2682.27 1.81273 -0.211289 0
M  V30 27998 C 2682.32 0.752739 -3.53576 0
M  V30 27999 O 2682.05 -0.368613 -4.36547 0
M  V30 28000 C 2683.55 1.42709 -4.19701 0
M  V30 28001 H 2680.77 0.0648257 -0.667861 0
M  V30 28002 H 2683.31 -0.448751 -1.99516 0
M  V30 28003 H 2681.47 1.45406 -3.59076 0
M  V30 28004 H 2681.88 -0.0169859 -5.24497 0
M  V30 28005 H 2683.35 1.69318 -5.25391 0
M  V30 28006 H 2683.83 2.36918 -3.69819 0
M  V30 28007 H 2684.44 0.768782 -4.18294 0
M  V30 28008 N 2682.75 1.57561 -0.0351337 0
M  V30 28009 C 2683.66 2.14047 0.960257 0
M  V30 28010 C 2684.68 1.09422 1.35288 0
M  V30 28011 O 2685.85 1.4151 1.43307 0
M  V30 28012 C 2682.92 2.66128 2.22209 0
M  V30 28013 C 2681.98 3.8549 1.88933 0
M  V30 28014 C 2681.21 4.35077 3.09101 0
M  V30 28015 O 2681.44 3.83809 4.21956 0
M  V30 28016 O 2680.37 5.26853 2.91048 0
M  V30 28017 H 2684.2 2.99388 0.509931 0
M  V30 28018 H 2681.78 1.4824 0.185827 0
M  V30 28019 H 2683.66 2.99666 2.96274 0
M  V30 28020 H 2682.34 1.83866 2.66411 0
M  V30 28021 H 2681.24 3.56867 1.12234 0
M  V30 28022 H 2682.58 4.68933 1.49543 0
M  V30 28023 N 2684.23 -0.238084 1.55791 0
M  V30 28024 C 2685.48 -0.966305 1.78299 0
M  V30 28025 C 2685.81 -1.84636 0.601936 0
M  V30 28026 O 2685.08 -1.90354 -0.399465 0
M  V30 28027 C 2685.37 -1.81933 3.10761 0
M  V30 28028 C 2685.22 -0.966881 4.39285 0
M  V30 28029 C 2686.54 -2.80021 3.39524 0
M  V30 28030 H 2683.66 -0.349871 0.64866 0
M  V30 28031 H 2686.3 -0.23622 1.88526 0
M  V30 28032 H 2684.45 -2.4418 3.02173 0
M  V30 28033 H 2686.12 -0.362433 4.59874 0
M  V30 28034 H 2684.36 -0.271593 4.32949 0
M  V30 28035 H 2685.04 -1.59775 5.28371 0
M  V30 28036 H 2687.51 -2.27911 3.48132 0
M  V30 28037 H 2686.39 -3.36821 4.33408 0
M  V30 28038 H 2686.65 -3.5693 2.60871 0
M  V30 28039 N 2685.71 -1.4932 -0.504115 0
M  V30 28040 C 2686.98 -1.49149 -1.26546 0
M  V30 28041 C 2687.36 -0.217477 -2.09977 0
M  V30 28042 O 2686.71 0.800232 -2.14029 0
M  V30 28043 C 2686.92 -2.7686 -2.12484 0
M  V30 28044 C 2688.27 -3.26226 -2.71775 0
M  V30 28045 O 2689.29 -2.77956 -2.22753 0
M  V30 28046 O 2688.15 -4.10287 -3.61008 0
M  V30 28047 H 2685.25 -0.596817 -0.572485 0
M  V30 28048 H 2687.79 -1.6158 -0.518642 0
M  V30 28049 H 2686.57 -3.61079 -1.50789 0
M  V30 28050 H 2686.19 -2.67275 -2.94364 0
M  V30 28051 N 2687.19 0.754933 -1.38342 0
M  V30 28052 C 2688.6 1.33218 -1.30805 0
M  V30 28053 C 2688.95 1.96166 0.0367655 0
M  V30 28054 O 2688.07 1.94975 0.938809 0
M  V30 28055 C 2688.67 2.42221 -2.36885 0
M  V30 28056 C 2687.23 2.9567 -2.3293 0
M  V30 28057 C 2686.37 1.69038 -2.19822 0
M  V30 28058 H 2689.32 0.553911 -1.4872 0
M  V30 28059 H 2689.35 3.22126 -2.02522 0
M  V30 28060 H 2688.86 1.96377 -3.3475 0
M  V30 28061 H 2686.96 3.45846 -1.38641 0
M  V30 28062 H 2687.07 3.5014 -3.27015 0
M  V30 28063 H 2685.44 1.92612 -1.66651 0
M  V30 28064 H 2686.22 1.25274 -3.19627 0
M  V30 28065 N 2688.66 1.23189 0.982967 0
M  V30 28066 C 2689.94 0.970737 1.69812 0
M  V30 28067 C 2690.32 -0.511388 2.04812 0
M  V30 28068 O 2689.67 -1.48195 1.73927 0
M  V30 28069 C 2689.88 1.87837 2.9414 0
M  V30 28070 C 2691.23 2.14032 3.66709 0
M  V30 28071 O 2692.25 1.85366 3.04168 0
M  V30 28072 O 2691.11 2.62637 4.79254 0
M  V30 28073 H 2688.2 0.365897 0.741652 0
M  V30 28074 H 2690.75 1.3422 1.03842 0
M  V30 28075 H 2689.52 2.88043 2.64853 0
M  V30 28076 H 2689.14 1.50912 3.67847 0
M  V30 28077 N 2690.14 -1.18133 1.04318 0
M  V30 28078 C 2691.07 -2.24057 0.657338 0
M  V30 28079 C 2692.05 -1.66654 -0.340649 0
M  V30 28080 O 2693.24 -1.92948 -0.22019 0
M  V30 28081 C 2690.37 -3.47293 0.0221325 0
M  V30 28082 C 2689.32 -4.17461 0.943931 0
M  V30 28083 C 2688.65 -5.3442 0.173067 0
M  V30 28084 C 2689.95 -4.70673 2.26417 0
M  V30 28085 H 2691.64 -2.56586 1.54285 0
M  V30 28086 H 2689.19 -1.23334 0.743284 0
M  V30 28087 H 2691.14 -4.206 -0.259533 0
M  V30 28088 H 2689.86 -3.14004 -0.898268 0
M  V30 28089 H 2688.52 -3.46055 1.21002 0
M  V30 28090 H 2688.17 -4.9738 -0.74982 0
M  V30 28091 H 2687.87 -5.82303 0.7872 0
M  V30 28092 H 2689.4 -6.10516 -0.101521 0
M  V30 28093 H 2690.81 -5.35661 2.04303 0
M  V30 28094 H 2689.21 -5.291 2.83149 0
M  V30 28095 H 2690.28 -3.87957 2.9089 0
M  V30 28096 N 2691.62 -0.822988 -1.34405 0
M  V30 28097 C 2692.85 -0.42307 -2.03039 0
M  V30 28098 C 2693.27 0.963168 -1.61569 0
M  V30 28099 O 2692.63 1.62677 -0.800367 0
M  V30 28100 C 2692.68 -0.533272 -3.56635 0
M  V30 28101 O 2691.78 0.446867 -4.09972 0
M  V30 28102 H 2691.12 -0.174183 -0.640747 0
M  V30 28103 H 2693.65 -1.11342 -1.71651 0
M  V30 28104 H 2693.66 -0.409062 -4.05944 0
M  V30 28105 H 2692.34 -1.54432 -3.86165 0
M  V30 28106 H 2690.91 0.281536 -3.71836 0
M  V30 28107 N 2693.1 1.4662 -0.577957 0
M  V30 28108 C 2694.06 2.28723 0.147765 0
M  V30 28109 C 2695.06 1.38125 0.8233 0
M  V30 28110 O 2696.25 1.60549 0.675983 0
M  V30 28111 C 2693.38 3.1838 1.21848 0
M  V30 28112 H 2694.58 2.94361 -0.573706 0
M  V30 28113 H 2692.13 1.52652 -0.33573 0
M  V30 28114 H 2692.86 2.57479 1.97168 0
M  V30 28115 H 2692.65 3.8508 0.738647 0
M  V30 28116 H 2694.14 3.80189 1.72761 0
M  V30 28117 N 2694.58 0.315484 1.5441 0
M  V30 28118 C 2695.82 -0.289508 2.0042 0
M  V30 28119 C 2696.15 -1.52774 1.20376 0
M  V30 28120 O 2695.41 -1.93803 0.271803 0
M  V30 28121 C 2695.71 -0.67659 3.50937 0
M  V30 28122 C 2695.37 0.461551 4.48532 0
M  V30 28123 C 2694.03 0.773962 4.74935 0
M  V30 28124 C 2696.39 1.22646 5.06564 0
M  V30 28125 C 2693.71 1.85415 5.56631 0
M  V30 28126 C 2696.07 2.29667 5.89437 0
M  V30 28127 C 2694.73 2.61499 6.14146 0
M  V30 28128 H 2694 -0.105938 0.733388 0
M  V30 28129 H 2696.65 0.437587 1.86433 0
M  V30 28130 H 2694.95 -1.48399 3.62609 0
M  V30 28131 H 2696.65 -1.15611 3.83973 0
M  V30 28132 H 2693.24 0.207968 4.28095 0
M  V30 28133 H 2697.42 0.998356 4.86155 0
M  V30 28134 H 2692.68 2.10533 5.74009 0
M  V30 28135 H 2696.85 2.89385 6.33426 0
M  V30 28136 H 2694.48 3.45329 6.77239 0
M  V30 28137 N 2696.05 -1.5754 0.0434891 0
M  V30 28138 C 2697.28 -1.96409 -0.64087 0
M  V30 28139 C 2697.69 -0.919326 -1.65363 0
M  V30 28140 O 2697.04 0.105763 -1.83395 0
M  V30 28141 C 2697.1 -3.31484 -1.39135 0
M  V30 28142 C 2696.76 -4.53854 -0.535295 0
M  V30 28143 C 2697.76 -5.19533 0.195426 0
M  V30 28144 C 2695.44 -5.00111 -0.468476 0
M  V30 28145 C 2697.44 -6.29798 0.981488 0
M  V30 28146 C 2695.12 -6.10255 0.321279 0
M  V30 28147 C 2696.12 -6.74959 1.04495 0
M  V30 28148 O 2695.81 -7.82987 1.82174 0
M  V30 28149 H 2695.54 -0.651437 -0.180572 0
M  V30 28150 H 2698.1 -2.05137 0.103884 0
M  V30 28151 H 2696.33 -3.19288 -2.18156 0
M  V30 28152 H 2698.02 -3.55154 -1.9652 0
M  V30 28153 H 2698.78 -4.84758 0.153225 0
M  V30 28154 H 2694.66 -4.49544 -1.02134 0
M  V30 28155 H 2698.2 -6.80234 1.54686 0
M  V30 28156 H 2694.1 -6.44466 0.365146 0
M  V30 28157 H 2694.87 -7.99725 1.74303 0
M  V30 28158 N 2697.53 0.229818 -1.55915 0
M  V30 28159 C 2698.78 0.956836 -1.78809 0
M  V30 28160 C 2699.11 1.84314 -0.611719 0
M  V30 28161 O 2698.39 1.90563 0.389365 0
M  V30 28162 C 2698.67 1.80283 -3.11721 0
M  V30 28163 C 2698.52 0.943571 -4.39792 0
M  V30 28164 C 2699.84 2.78216 -3.41004 0
M  V30 28165 H 2696.96 0.346426 -0.650506 0
M  V30 28166 H 2699.6 0.226219 -1.88648 0
M  V30 28167 H 2697.75 2.42574 -3.03463 0
M  V30 28168 H 2699.42 0.33804 -4.6006 0
M  V30 28169 H 2697.67 0.248629 -4.33087 0
M  V30 28170 H 2698.34 1.5697 -5.29211 0
M  V30 28171 H 2700.81 2.26061 -3.49336 0
M  V30 28172 H 2699.69 3.34518 -4.35188 0
M  V30 28173 H 2699.95 3.55541 -2.6276 0
M  V30 28174 N 2699.01 1.49585 0.49619 0
M  V30 28175 C 2699.96 1.66609 1.59719 0
M  V30 28176 C 2700.93 0.507504 1.58157 0
M  V30 28177 O 2702.11 0.735107 1.7607 0
M  V30 28178 C 2699.25 1.74313 2.97841 0
M  V30 28179 C 2698.37 3.01507 3.09382 0
M  V30 28180 C 2697.5 3.0016 4.38266 0
M  V30 28181 C 2696.54 4.21914 4.43458 0
M  V30 28182 N 2695.68 4.1845 5.63777 0
M  V30 28183 H 2700.52 2.60616 1.44511 0
M  V30 28184 H 2698.05 1.29213 0.703026 0
M  V30 28185 H 2700.01 1.7676 3.77904 0
M  V30 28186 H 2698.64 0.837674 3.11742 0
M  V30 28187 H 2697.69 3.08648 2.22352 0
M  V30 28188 H 2699.01 3.915 3.09079 0
M  V30 28189 H 2698.16 3.01198 5.26654 0
M  V30 28190 H 2696.9 2.07954 4.41142 0
M  V30 28191 H 2695.9 4.21116 3.53471 0
M  V30 28192 H 2697.13 5.15318 4.42294 0
M  V30 28193 H 2695.07 3.29084 5.67486 0
M  V30 28194 H 2694.99 5.02183 5.65109 0
M  V30 28195 H 2696.26 4.23597 6.54359 0
M  V30 28196 N 2700.49 -0.747586 1.3874 0
M  V30 28197 C 2701.77 -1.49784 1.25794 0
M  V30 28198 C 2702.15 -2.10648 -0.138038 0
M  V30 28199 O 2701.49 -1.97562 -1.14811 0
M  V30 28200 C 2701.7 -2.55938 2.37269 0
M  V30 28201 C 2703.05 -3.22674 2.75983 0
M  V30 28202 O 2704.08 -2.66246 2.36625 0
M  V30 28203 O 2702.93 -4.2475 3.43875 0
M  V30 28204 H 2700.03 -0.664535 0.492263 0
M  V30 28205 H 2702.57 -0.782484 1.50583 0
M  V30 28206 H 2701.35 -2.09255 3.30648 0
M  V30 28207 H 2700.97 -3.35048 2.14077 0
M  V30 28208 N 2701.97 -1.23709 -0.97642 0
M  V30 28209 C 2703.21 -1.06945 -1.71485 0
M  V30 28210 C 2703.54 0.393863 -1.90981 0
M  V30 28211 O 2702.81 1.28196 -1.48131 0
M  V30 28212 H 2701.39 -0.39275 -0.635418 0
M  V30 28213 H 2704.05 -1.55489 -1.17512 0
M  V30 28214 H 2703.14 -1.56056 -2.70283 0
M  V30 28215 N 2703.44 1.17579 -1.04943 0
M  V30 28216 C 2704.39 2.21511 -0.648194 0
M  V30 28217 C 2705.36 1.62405 0.348402 0
M  V30 28218 O 2706.55 1.8928 0.240386 0
M  V30 28219 C 2703.69 3.4509 -0.0264898 0
M  V30 28220 C 2702.8 4.18498 -1.07161 0
M  V30 28221 C 2701.93 5.29557 -0.417496 0
M  V30 28222 C 2700.97 5.94748 -1.4471 0
M  V30 28223 N 2700.11 6.97326 -0.817325 0
M  V30 28224 H 2704.95 2.55186 -1.53896 0
M  V30 28225 H 2702.49 1.25354 -0.769721 0
M  V30 28226 H 2704.45 4.15718 0.351383 0
M  V30 28227 H 2703.08 3.12007 0.827747 0
M  V30 28228 H 2702.13 3.4661 -1.56735 0
M  V30 28229 H 2703.44 4.63093 -1.85328 0
M  V30 28230 H 2702.59 6.06698 0.0140994 0
M  V30 28231 H 2701.33 4.86088 0.39618 0
M  V30 28232 H 2700.34 5.1634 -1.88874 0
M  V30 28233 H 2701.56 6.40298 -2.26264 0
M  V30 28234 H 2699.51 6.55996 -0.0241148 0
M  V30 28235 H 2699.43 7.4022 -1.53657 0
M  V30 28236 H 2700.69 7.78419 -0.41042 0
M  V30 28237 N 2704.92 0.830104 1.33967 0
M  V30 28238 C 2706.15 0.434178 2.01986 0
M  V30 28239 C 2706.56 -0.966682 1.6264 0
M  V30 28240 O 2705.9 -1.6382 0.83118 0
M  V30 28241 C 2705.97 0.465081 3.56479 0
M  V30 28242 C 2705.63 1.82052 4.19173 0
M  V30 28243 C 2706.63 2.78245 4.39176 0
M  V30 28244 C 2704.31 2.11097 4.55789 0
M  V30 28245 C 2706.31 4.01651 4.9493 0
M  V30 28246 C 2703.99 3.34761 5.11252 0
M  V30 28247 C 2704.99 4.29854 5.30767 0
M  V30 28248 O 2704.68 5.51332 5.85054 0
M  V30 28249 H 2704.41 0.171651 0.653844 0
M  V30 28250 H 2706.96 1.12174 1.72064 0
M  V30 28251 H 2705.19 -0.279216 3.85691 0
M  V30 28252 H 2706.88 0.0882048 4.05804 0
M  V30 28253 H 2707.65 2.57104 4.11245 0
M  V30 28254 H 2703.53 1.37878 4.39899 0
M  V30 28255 H 2707.07 4.75885 5.10078 0
M  V30 28256 H 2702.97 3.55762 5.38613 0
M  V30 28257 H 2703.74 5.52951 6.0348 0
M  V30 28258 N 2706.4 -1.46311 0.585725 0
M  V30 28259 C 2707.65 -2.0237 0.0724566 0
M  V30 28260 C 2707.98 -1.45685 -1.28865 0
M  V30 28261 O 2707.23 -0.612978 -1.85852 0
M  V30 28262 C 2707.53 -3.57378 -0.0400683 0
M  V30 28263 C 2707.2 -4.33116 1.25384 0
M  V30 28264 C 2705.86 -4.53527 1.60832 0
M  V30 28265 C 2708.21 -4.76582 2.10995 0
M  V30 28266 C 2705.54 -5.14656 2.81685 0
M  V30 28267 C 2707.89 -5.39046 3.31077 0
M  V30 28268 C 2706.55 -5.57684 3.66804 0
M  V30 28269 H 2705.82 -0.740526 0.0265138 0
M  V30 28270 H 2708.47 -1.75645 0.762966 0
M  V30 28271 H 2706.78 -3.83257 -0.813723 0
M  V30 28272 H 2708.47 -3.98433 -0.453008 0
M  V30 28273 H 2705.06 -4.17528 0.967881 0
M  V30 28274 H 2709.25 -4.60566 1.84912 0
M  V30 28275 H 2704.5 -5.27276 3.09499 0
M  V30 28276 H 2708.68 -5.71684 3.97682 0
M  V30 28277 H 2706.3 -6.0482 4.6054 0
M  V30 28278 N 2707.88 -0.323668 -1.54241 0
M  V30 28279 C 2709.11 0.280835 -2.04985 0
M  V30 28280 C 2709.52 1.45774 -1.1998 0
M  V30 28281 O 2708.88 1.81038 -0.230503 0
M  V30 28282 C 2708.93 0.715195 -3.54355 0
M  V30 28283 O 2708.65 -0.414893 -4.36131 0
M  V30 28284 C 2710.15 1.3825 -4.21191 0
M  V30 28285 H 2707.37 0.0577385 -0.668511 0
M  V30 28286 H 2709.92 -0.469887 -1.99028 0
M  V30 28287 H 2708.07 1.41589 -3.60598 0
M  V30 28288 H 2708.49 -0.0726148 -5.2445 0
M  V30 28289 H 2709.96 1.63736 -5.27157 0
M  V30 28290 H 2710.44 2.32982 -3.72311 0
M  V30 28291 H 2711.04 0.724373 -4.19086 0
M  V30 28292 N 2709.36 1.57515 -0.0518432 0
M  V30 28293 C 2710.58 1.97444 0.634861 0
M  V30 28294 C 2711.01 0.929236 1.63545 0
M  V30 28295 O 2710.37 -0.107452 1.80981 0
M  V30 28296 C 2710.41 3.36445 1.29759 0
M  V30 28297 O 2709.52 3.34417 2.41327 0
M  V30 28298 H 2708.86 0.643177 0.164983 0
M  V30 28299 H 2711.39 2.04245 -0.120442 0
M  V30 28300 H 2711.4 3.73187 1.64912 0
M  V30 28301 H 2710.07 4.12054 0.564288 0
M  V30 28302 H 2708.65 3.09422 2.08117 0
M  V30 28303 N 2710.84 -0.221546 1.56035 0
M  V30 28304 C 2711.75 -1.29554 1.95583 0
M  V30 28305 C 2712.76 -1.5128 0.859665 0
M  V30 28306 O 2713.94 -1.64411 1.16323 0
M  V30 28307 C 2711 -2.62527 2.26452 0
M  V30 28308 C 2710.06 -2.49104 3.49637 0
M  V30 28309 C 2709.3 -3.75735 3.79023 0
M  V30 28310 O 2709.52 -4.78752 3.10086 0
M  V30 28311 O 2708.45 -3.72847 4.72513 0
M  V30 28312 H 2712.28 -0.989984 2.87111 0
M  V30 28313 H 2709.86 -0.424409 1.43245 0
M  V30 28314 H 2711.75 -3.4106 2.475 0
M  V30 28315 H 2710.42 -2.92764 1.38097 0
M  V30 28316 H 2709.33 -1.68771 3.33867 0
M  V30 28317 H 2710.66 -2.23806 4.38374 0
M  V30 28318 N 2712.31 -1.49846 -0.48825 0
M  V30 28319 C 2713.72 -1.5303 -1.06952 0
M  V30 28320 C 2714.08 -0.323831 -1.93509 0
M  V30 28321 O 2713.2 0.565079 -2.08892 0
M  V30 28322 C 2713.8 -2.77311 -1.94639 0
M  V30 28323 C 2712.35 -2.83231 -2.47905 0
M  V30 28324 C 2711.5 -2.47108 -1.25829 0
M  V30 28325 H 2714.45 -1.56359 -0.271598 0
M  V30 28326 H 2714.47 -2.58195 -2.79492 0
M  V30 28327 H 2713.99 -3.65102 -1.31614 0
M  V30 28328 H 2712.09 -1.99751 -3.14532 0
M  V30 28329 H 2712.2 -3.85714 -2.84186 0
M  V30 28330 H 2710.56 -1.99166 -1.58761 0
M  V30 28331 H 2711.35 -3.37188 -0.644934 0
M  V30 28332 N 2713.79 0.740218 -1.39135 0
M  V30 28333 C 2715.2 1.31823 -1.32211 0
M  V30 28334 C 2715.55 1.96194 0.0159574 0
M  V30 28335 O 2714.68 1.9596 0.918077 0
M  V30 28336 C 2715.27 2.39695 -2.3944 0
M  V30 28337 C 2713.83 2.93183 -2.36053 0
M  V30 28338 C 2712.98 1.66697 -2.21602 0
M  V30 28339 H 2715.93 0.538106 -1.49299 0
M  V30 28340 H 2715.95 3.19959 -2.05928 0
M  V30 28341 H 2715.46 1.92815 -3.36814 0
M  V30 28342 H 2713.56 3.44356 -1.42301 0
M  V30 28343 H 2713.68 3.46652 -3.3071 0
M  V30 28344 H 2712.04 1.90834 -1.68684 0
M  V30 28345 H 2712.82 1.21877 -3.20938 0
M  V30 28346 N 2715.27 1.24225 0.969846 0
M  V30 28347 C 2716.52 1.08226 1.71508 0
M  V30 28348 C 2716.85 -0.378346 1.90479 0
M  V30 28349 O 2716.12 -1.27969 1.46473 0
M  V30 28350 C 2716.41 1.82019 3.10711 0
M  V30 28351 C 2716.26 3.35817 2.99244 0
M  V30 28352 C 2717.58 1.59115 4.1033 0
M  V30 28353 H 2714.7 0.394554 0.622492 0
M  V30 28354 H 2717.34 1.52865 1.12837 0
M  V30 28355 H 2715.49 1.44075 3.60797 0
M  V30 28356 H 2717.16 3.83345 2.56601 0
M  V30 28357 H 2715.4 3.64307 2.35505 0
M  V30 28358 H 2716.08 3.82648 3.9785 0
M  V30 28359 H 2718.55 1.92118 3.69093 0
M  V30 28360 H 2717.43 2.13207 5.058 0
M  V30 28361 H 2717.69 0.52891 4.38925 0
M  V30 28362 N 2716.75 -1.1702 1.05565 0
M  V30 28363 C 2717.98 -1.91287 0.788484 0
M  V30 28364 C 2718.39 -1.77026 -0.656287 0
M  V30 28365 O 2717.75 -1.10994 -1.44867 0
M  V30 28366 C 2717.8 -3.4223 1.1645 0
M  V30 28367 O 2717.52 -3.56056 2.55257 0
M  V30 28368 C 2719.02 -4.33563 0.924013 0
M  V30 28369 H 2716.24 -0.606808 0.2864 0
M  V30 28370 H 2718.78 -1.48373 1.40733 0
M  V30 28371 H 2716.94 -3.82876 0.590333 0
M  V30 28372 H 2717.35 -4.49604 2.70105 0
M  V30 28373 H 2718.83 -5.37965 1.23682 0
M  V30 28374 H 2719.3 -4.38975 -0.140611 0
M  V30 28375 H 2719.91 -3.98636 1.48221 0
M  V30 28376 N 2718.23 -0.837197 -1.33524 0
M  V30 28377 C 2719.46 -0.444884 -2.01753 0
M  V30 28378 C 2719.86 0.958043 -1.63151 0
M  V30 28379 O 2719.21 1.63377 -0.839856 0
M  V30 28380 C 2719.27 -0.483979 -3.56227 0
M  V30 28381 C 2718.93 -1.84273 -4.18202 0
M  V30 28382 C 2719.93 -2.8057 -4.37694 0
M  V30 28383 C 2717.61 -2.13511 -4.54663 0
M  V30 28384 C 2719.61 -4.0427 -4.92793 0
M  V30 28385 C 2717.3 -3.37467 -5.09469 0
M  V30 28386 C 2718.29 -4.32663 -5.2848 0
M  V30 28387 O 2717.98 -5.54427 -5.82122 0
M  V30 28388 H 2717.71 -0.175116 -0.652925 0
M  V30 28389 H 2720.27 -1.13085 -1.71467 0
M  V30 28390 H 2718.5 0.258758 -3.85833 0
M  V30 28391 H 2720.19 -0.109724 -4.05752 0
M  V30 28392 H 2720.95 -2.59282 -4.09876 0
M  V30 28393 H 2716.83 -1.40209 -4.39161 0
M  V30 28394 H 2720.38 -4.78583 -5.07547 0
M  V30 28395 H 2716.27 -3.58614 -5.36718 0
M  V30 28396 H 2717.04 -5.56144 -6.00539 0
M  V30 28397 N 2719.7 1.45999 -0.593476 0
M  V30 28398 C 2720.93 2.07216 -0.087273 0
M  V30 28399 C 2721.35 1.43757 1.21308 0
M  V30 28400 O 2720.71 0.525183 1.73527 0
M  V30 28401 C 2720.76 3.6056 0.0537564 0
M  V30 28402 O 2719.86 3.97249 1.10758 0
M  V30 28403 H 2719.2 0.660543 -0.0676714 0
M  V30 28404 H 2721.73 1.87472 -0.819478 0
M  V30 28405 H 2721.74 4.07193 0.256496 0
M  V30 28406 H 2720.42 4.06138 -0.89581 0
M  V30 28407 H 2719 3.62309 0.882437 0
M  V30 28408 N 2721.18 0.331843 1.54067 0
M  V30 28409 C 2722.59 -0.154507 1.8606 0
M  V30 28410 C 2722.94 -1.5095 1.25334 0
M  V30 28411 O 2722.07 -2.08962 0.562478 0
M  V30 28412 C 2722.66 -0.287133 3.37581 0
M  V30 28413 C 2721.22 -0.717708 3.69494 0
M  V30 28414 C 2720.37 0.155617 2.76863 0
M  V30 28415 H 2723.32 0.551847 1.48796 0
M  V30 28416 H 2723.34 -1.11664 3.63746 0
M  V30 28417 H 2722.85 0.699198 3.8175 0
M  V30 28418 H 2720.96 -1.71349 3.30863 0
M  V30 28419 H 2721.07 -0.515716 4.76316 0
M  V30 28420 H 2719.43 -0.370169 2.51996 0
M  V30 28421 H 2720.22 1.13887 3.23859 0
M  V30 28422 N 2722.66 -1.57485 0.0601958 0
M  V30 28423 C 2723.62 -2.10947 -0.896336 0
M  V30 28424 C 2724.62 -1.03098 -1.234 0
M  V30 28425 O 2725.81 -1.29134 -1.16919 0
M  V30 28426 C 2722.95 -2.6012 -2.20342 0
M  V30 28427 H 2724.14 -2.96762 -0.432726 0
M  V30 28428 H 2721.69 -1.55161 -0.188344 0
M  V30 28429 H 2722.43 -1.77724 -2.71265 0
M  V30 28430 H 2722.21 -3.3894 -1.97134 0
M  V30 28431 H 2723.7 -3.01597 -2.8884 0
M  V30 28432 N 2724.14 0.213268 -1.5615 0
M  V30 28433 C 2725.37 0.953106 -1.8364 0
M  V30 28434 C 2725.78 1.77607 -0.640393 0
M  V30 28435 O 2725.14 1.78261 0.39104 0
M  V30 28436 C 2725.19 1.86399 -3.09738 0
M  V30 28437 O 2724.91 1.07428 -4.24725 0
M  V30 28438 C 2726.41 2.71703 -3.50274 0
M  V30 28439 H 2723.63 0.278951 -0.610268 0
M  V30 28440 H 2726.18 0.225999 -2.03247 0
M  V30 28441 H 2724.33 2.54495 -2.92081 0
M  V30 28442 H 2724.74 1.69335 -4.96413 0
M  V30 28443 H 2726.22 3.31305 -4.41521 0
M  V30 28444 H 2726.7 3.44511 -2.72412 0
M  V30 28445 H 2727.3 2.09008 -3.70399 0
M  V30 28446 N 2725.62 1.50103 0.480296 0
M  V30 28447 C 2726.87 1.59874 1.22977 0
M  V30 28448 C 2727.18 0.300254 1.93282 0
M  V30 28449 O 2728.38 0.276757 2.70086 0
M  V30 28450 C 2726.84 2.82168 2.23403 0
M  V30 28451 C 2726.45 4.18857 1.58943 0
M  V30 28452 C 2728.19 3.0128 2.9905 0
M  V30 28453 C 2726.1 5.32349 2.57602 0
M  V30 28454 H 2725.03 0.595338 0.462697 0
M  V30 28455 H 2727.68 1.76521 0.50126 0
M  V30 28456 H 2726.06 2.5906 2.99506 0
M  V30 28457 H 2727.24 4.52184 0.88692 0
M  V30 28458 H 2725.55 4.05274 0.956119 0
M  V30 28459 H 2728.15 3.8324 3.72869 0
M  V30 28460 H 2728.49 2.12646 3.57893 0
M  V30 28461 H 2729.02 3.24526 2.30061 0
M  V30 28462 H 2725.76 6.23108 2.0351 0
M  V30 28463 H 2725.28 5.03451 3.26032 0
M  V30 28464 H 2726.96 5.62542 3.19617 0
M  V30 28465 N 2727.09 -0.732829 1.39526 0
M  V30 28466 C 2728.02 -1.86003 1.41157 0
M  V30 28467 C 2729.01 -1.67868 0.274644 0
M  V30 28468 O 2730.19 -1.88155 0.480778 0
M  V30 28469 C 2727.32 -3.23776 1.25644 0
M  V30 28470 C 2726.27 -3.56552 2.36759 0
M  V30 28471 C 2725.6 -4.93285 2.06334 0
M  V30 28472 C 2726.9 -3.59303 3.79076 0
M  V30 28473 H 2728.59 -1.84895 2.35487 0
M  V30 28474 H 2726.14 -0.888142 1.13349 0
M  V30 28475 H 2728.09 -4.02308 1.25405 0
M  V30 28476 H 2726.82 -3.25416 0.277829 0
M  V30 28477 H 2725.48 -2.80351 2.36218 0
M  V30 28478 H 2725.12 -4.91508 1.06906 0
M  V30 28479 H 2724.82 -5.16182 2.80766 0
M  V30 28480 H 2726.35 -5.74171 2.07749 0
M  V30 28481 H 2727.76 -4.27907 3.81534 0
M  V30 28482 H 2726.16 -3.9372 4.52885 0
M  V30 28483 H 2727.23 -2.5906 4.09897 0
M  V30 28484 N 2728.57 -1.24737 -0.963244 0
M  V30 28485 C 2729.54 -1.0446 -2.04011 0
M  V30 28486 C 2730.54 -0.00036382 -1.608 0
M  V30 28487 O 2731.73 -0.241749 -1.72514 0
M  V30 28488 C 2728.86 -0.584221 -3.35857 0
M  V30 28489 H 2730.05 -2.00045 -2.23433 0
M  V30 28490 H 2727.6 -1.07023 -1.13912 0
M  V30 28491 H 2728.34 0.374616 -3.22129 0
M  V30 28492 H 2728.12 -1.33797 -3.68566 0
M  V30 28493 H 2729.61 -0.463524 -4.1502 0
M  V30 28494 N 2730.05 1.16459 -1.06184 0
M  V30 28495 C 2731.3 1.86593 -0.776359 0
M  V30 28496 C 2731.62 1.82034 0.699178 0
M  V30 28497 O 2730.89 1.25313 1.50577 0
M  V30 28498 H 2729.47 0.690827 -0.284196 0
M  V30 28499 H 2732.13 1.41233 -1.34311 0
M  V30 28500 H 2731.23 2.92062 -1.10027 0
M  V30 28501 N 2731.53 0.844266 1.33079 0
M  V30 28502 C 2732.75 0.455318 2.0234 0
M  V30 28503 C 2733.18 -0.937342 1.63081 0
M  V30 28504 O 2732.54 -1.61383 0.826147 0
M  V30 28505 C 2732.58 0.589942 3.55742 0
M  V30 28506 O 2731.69 -0.381588 4.10631 0
M  V30 28507 H 2731.03 0.184354 0.637895 0
M  V30 28508 H 2733.56 1.14059 1.69858 0
M  V30 28509 H 2733.57 0.473593 4.05242 0
M  V30 28510 H 2732.24 1.60556 3.8366 0
M  V30 28511 H 2730.82 -0.222344 3.72237 0
M  V30 28512 N 2733.01 -1.45682 0.60121 0
M  V30 28513 C 2734.25 -2.02582 0.0940558 0
M  V30 28514 C 2734.59 -1.46944 -1.26969 0
M  V30 28515 O 2733.86 -0.641644 -1.83611 0
M  V30 28516 C 2734.14 -3.60068 0.0482348 0
M  V30 28517 C 2734 -4.26052 1.4422 0
M  V30 28518 C 2735.32 -4.35379 -0.642899 0
M  V30 28519 H 2732.43 -0.736137 0.0356534 0
M  V30 28520 H 2735.08 -1.73611 0.77196 0
M  V30 28521 H 2733.23 -3.84881 -0.52906 0
M  V30 28522 H 2734.9 -4.12445 2.06608 0
M  V30 28523 H 2733.14 -3.84699 2.00472 0
M  V30 28524 H 2733.81 -5.34922 1.36244 0
M  V30 28525 H 2736.29 -4.15821 -0.152278 0
M  V30 28526 H 2735.16 -5.45108 -0.644046 0
M  V30 28527 H 2735.43 -4.07783 -1.70778 0
M  V30 28528 N 2734.48 -0.340009 -1.53889 0
M  V30 28529 C 2735.71 0.258702 -2.04974 0
M  V30 28530 C 2736.12 1.45043 -1.21487 0
M  V30 28531 O 2735.47 1.82096 -0.242232 0
M  V30 28532 C 2735.53 0.740791 -3.51785 0
M  V30 28533 C 2735.19 -0.330814 -4.55801 0
M  V30 28534 C 2736.19 -1.17235 -5.0651 0
M  V30 28535 C 2733.87 -0.483725 -4.99965 0
M  V30 28536 C 2735.87 -2.15238 -5.9996 0
M  V30 28537 C 2733.55 -1.46715 -5.93227 0
M  V30 28538 C 2734.55 -2.29993 -6.43111 0
M  V30 28539 O 2734.24 -3.26662 -7.34539 0
M  V30 28540 H 2733.97 0.0543919 -0.673808 0
M  V30 28541 H 2736.53 -0.489142 -1.99491 0
M  V30 28542 H 2734.76 1.53982 -3.5472 0
M  V30 28543 H 2736.45 1.25966 -3.85859 0
M  V30 28544 H 2737.21 -1.06528 -4.73156 0
M  V30 28545 H 2733.09 0.154629 -4.60741 0
M  V30 28546 H 2736.63 -2.80276 -6.3882 0
M  V30 28547 H 2732.53 -1.57479 -6.25996 0
M  V30 28548 H 2733.3 -3.22092 -7.52462 0
M  V30 28549 N 2735.96 1.57451 -0.0685468 0
M  V30 28550 C 2737.19 1.9769 0.610427 0
M  V30 28551 C 2737.61 0.946787 1.63344 0
M  V30 28552 O 2736.96 -0.0669548 1.82377 0
M  V30 28553 C 2737.01 3.38008 1.2819 0
M  V30 28554 O 2736.74 4.37073 0.299829 0
M  V30 28555 C 2738.24 3.93104 2.049 0
M  V30 28556 H 2735.46 0.650224 0.165678 0
M  V30 28557 H 2738 2.0402 -0.139989 0
M  V30 28558 H 2736.16 3.32775 1.98342 0
M  V30 28559 H 2736.57 5.1865 0.781169 0
M  V30 28560 H 2738.04 4.93515 2.47279 0
M  V30 28561 H 2738.52 3.2947 2.90424 0
M  V30 28562 H 2739.13 4.01729 1.39622 0
M  V30 28563 N 2737.44 -0.204984 1.56261 0
M  V30 28564 C 2738.39 -1.27361 1.94633 0
M  V30 28565 C 2739.38 -1.47647 0.83046 0
M  V30 28566 O 2740.59 -1.48625 1.01541 0
M  V30 28567 H 2736.96 -0.42736 0.618763 0
M  V30 28568 H 2738.94 -0.922891 2.8377 0
M  V30 28569 C 2737.68 -2.6132 2.29362 0
M  V30 28570 H 2737.01 -2.46523 3.14748 0
M  V30 28571 H 2738.45 -3.34863 2.60082 0
M  V30 28572 C 2736.91 -3.17574 1.12466 0
M  V30 28573 O 2737.44 -3.99758 0.394478 0
M  V30 28574 N 2735.64 -2.76179 0.904085 0
M  V30 28575 H 2735.19 -2.09451 1.4996 0
M  V30 28576 H 2735.15 -3.14156 0.123718 0
M  V30 28577 N 2738.92 -1.50356 -0.472329 0
M  V30 28578 C 2740.14 -1.65311 -1.25248 0
M  V30 28579 C 2740.57 -0.335675 -1.85081 0
M  V30 28580 O 2739.93 0.700306 -1.67229 0
M  V30 28581 C 2739.98 -2.74548 -2.33785 0
M  V30 28582 O 2739.08 -2.35715 -3.38396 0
M  V30 28583 H 2738.42 -0.552343 -0.368529 0
M  V30 28584 H 2740.95 -1.96723 -0.562236 0
M  V30 28585 H 2740.96 -2.97587 -2.79116 0
M  V30 28586 H 2739.64 -3.70165 -1.89607 0
M  V30 28587 H 2738.21 -2.23118 -2.98786 0
M  V30 28588 N 2740.4 0.725419 -1.39912 0
M  V30 28589 C 2741.64 1.4977 -1.39098 0
M  V30 28590 C 2742 1.91997 0.0106114 0
M  V30 28591 O 2743.2 2.68415 0.143811 0
M  V30 28592 C 2741.47 2.69759 -2.34445 0
M  V30 28593 S 2743.03 3.59291 -2.51904 0
M  V30 28594 H 2739.85 0.512177 -0.493149 0
M  V30 28595 H 2742.45 0.849166 -1.76095 0
M  V30 28596 H 2741.16 2.36892 -3.35127 0
M  V30 28597 H 2740.69 3.39533 -1.98698 0
M  V30 28598 H 2742.7 4.63782 -1.7641 0
M  V30 28599 N 2741.88 1.25246 0.956615 0
M  V30 28600 C 2742.81 1.07935 2.07056 0
M  V30 28601 C 2743.79 -0.0110062 1.70096 0
M  V30 28602 O 2744.97 0.158155 1.93555 0
M  V30 28603 C 2742.1 0.695184 3.40271 0
M  V30 28604 C 2741.06 1.73555 3.91232 0
M  V30 28605 C 2740.38 1.20613 5.20919 0
M  V30 28606 C 2741.68 3.13392 4.17831 0
M  V30 28607 H 2743.38 2.01113 2.21797 0
M  V30 28608 H 2740.92 0.968345 1.06579 0
M  V30 28609 H 2742.87 0.561023 4.17649 0
M  V30 28610 H 2741.6 -0.272298 3.25463 0
M  V30 28611 H 2740.26 1.85812 3.16021 0
M  V30 28612 H 2739.91 0.228934 5.02479 0
M  V30 28613 H 2739.61 1.90146 5.55984 0
M  V30 28614 H 2741.13 1.08432 6.00895 0
M  V30 28615 H 2742.54 3.043 4.85875 0
M  V30 28616 H 2740.94 3.80377 4.64148 0
M  V30 28617 H 2742.01 3.60601 3.24183 0
M  V30 28618 N 2743.35 -1.15894 1.068 0
M  V30 28619 C 2744.6 -1.86824 0.788967 0
M  V30 28620 C 2744.93 -1.81791 -0.683052 0
M  V30 28621 O 2744.21 -1.23714 -1.50084 0
M  V30 28622 C 2744.49 -3.36174 1.29071 0
M  V30 28623 C 2744.34 -3.49869 2.82686 0
M  V30 28624 C 2745.66 -4.30742 0.902731 0
M  V30 28625 H 2742.78 -0.678366 0.288077 0
M  V30 28626 H 2745.42 -1.36193 1.32482 0
M  V30 28627 H 2743.57 -3.79423 0.834873 0
M  V30 28628 H 2745.25 -3.15522 3.36517 0
M  V30 28629 H 2743.49 -2.91611 3.21162 0
M  V30 28630 H 2744.16 -4.54778 3.1286 0
M  V30 28631 H 2746.64 -3.95421 1.29542 0
M  V30 28632 H 2745.51 -5.33738 1.2812 0
M  V30 28633 H 2745.77 -4.41683 -0.191874 0
M  V30 28634 N 2744.83 -0.851312 -1.32629 0
M  V30 28635 C 2746.06 -0.466042 -2.02096 0
M  V30 28636 C 2746.48 0.92868 -1.63576 0
M  V30 28637 O 2745.84 1.60943 -0.834694 0
M  V30 28638 C 2745.89 -0.6088 -3.55424 0
M  V30 28639 O 2744.99 0.359806 -4.10827 0
M  V30 28640 H 2744.33 -0.187735 -0.636908 0
M  V30 28641 H 2746.86 -1.14958 -1.69251 0
M  V30 28642 H 2746.87 -0.495077 -4.04985 0
M  V30 28643 H 2745.55 -1.62588 -3.82803 0
M  V30 28644 H 2744.12 0.202601 -3.72349 0
M  V30 28645 N 2746.31 1.45361 -0.608928 0
M  V30 28646 C 2747.53 2.07112 -0.109246 0
M  V30 28647 C 2747.96 1.45035 1.19776 0
M  V30 28648 O 2747.32 0.543558 1.7296 0
M  V30 28649 C 2747.37 3.60597 0.0155111 0
M  V30 28650 O 2746.47 3.98401 1.06539 0
M  V30 28651 H 2745.81 0.659788 -0.0746735 0
M  V30 28652 H 2748.34 1.86592 -0.839316 0
M  V30 28653 H 2748.35 4.07442 0.213293 0
M  V30 28654 H 2747.03 4.05165 -0.938836 0
M  V30 28655 H 2745.6 3.63224 0.84396 0
M  V30 28656 N 2747.79 0.348166 1.53706 0
M  V30 28657 C 2749.06 -0.302441 1.93248 0
M  V30 28658 C 2749.44 -1.67855 1.28015 0
M  V30 28659 O 2748.79 -2.24364 0.432779 0
M  V30 28660 C 2749 -0.370098 3.47032 0
M  V30 28661 C 2750.35 -0.618746 4.20067 0
M  V30 28662 O 2751.37 -0.452025 3.5332 0
M  V30 28663 O 2750.23 -0.942056 5.38319 0
M  V30 28664 H 2747.33 -0.177444 0.807739 0
M  V30 28665 H 2749.87 0.399679 1.64926 0
M  V30 28666 H 2748.65 0.595408 3.86744 0
M  V30 28667 H 2748.27 -1.11882 3.81534 0
M  V30 28668 N 2749.27 -1.57412 0.0768958 0
M  V30 28669 C 2750.51 -1.933 -0.589884 0
M  V30 28670 C 2750.83 -0.958079 -1.69841 0
M  V30 28671 O 2750.1 -0.00706705 -1.95899 0
M  V30 28672 H 2748.68 -0.713595 -0.220888 0
M  V30 28673 H 2751.35 -1.94425 0.135951 0
M  V30 28674 H 2750.44 -2.95241 -1.0119 0
M  V30 28675 N 2750.74 0.196695 -1.56368 0
M  V30 28676 C 2751.68 1.2678 -1.90943 0
M  V30 28677 C 2752.69 1.41791 -0.799953 0
M  V30 28678 O 2753.88 1.42245 -1.07836 0
M  V30 28679 C 2750.98 2.64017 -2.12482 0
M  V30 28680 C 2750.15 2.70635 -3.43621 0
M  V30 28681 C 2749.21 3.89056 -3.54291 0
M  V30 28682 O 2748.24 3.76233 -4.27126 0
M  V30 28683 N 2749.44 5.04442 -2.87261 0
M  V30 28684 H 2752.2 0.974367 -2.83419 0
M  V30 28685 H 2749.76 0.386621 -1.57216 0
M  V30 28686 H 2751.76 3.41661 -2.1691 0
M  V30 28687 H 2750.33 2.85855 -1.26513 0
M  V30 28688 H 2749.55 1.79277 -3.51075 0
M  V30 28689 H 2750.83 2.72047 -4.29963 0
M  V30 28690 H 2750.23 5.17758 -2.2791 0
M  V30 28691 H 2748.79 5.80039 -2.97318 0
M  V30 28692 N 2752.22 1.50604 0.464349 0
M  V30 28693 C 2753.63 1.54712 1.04504 0
M  V30 28694 C 2753.98 0.354576 1.92969 0
M  V30 28695 O 2753.11 -0.531775 2.09764 0
M  V30 28696 C 2753.7 2.80372 1.90202 0
M  V30 28697 C 2752.26 2.87139 2.43368 0
M  V30 28698 C 2751.41 2.49078 1.21882 0
M  V30 28699 H 2754.36 1.56771 0.246689 0
M  V30 28700 H 2754.38 2.62609 2.75349 0
M  V30 28701 H 2753.89 3.67149 1.25789 0
M  V30 28702 H 2752 2.0473 3.11314 0
M  V30 28703 H 2752.11 3.90186 2.78014 0
M  V30 28704 H 2750.47 2.01667 1.55572 0
M  V30 28705 H 2751.26 3.38171 0.591209 0
M  V30 28706 N 2753.7 -0.717989 1.40295 0
M  V30 28707 C 2754.95 -1.47491 1.38169 0
M  V30 28708 C 2755.27 -1.94993 -0.0160357 0
M  V30 28709 O 2754.54 -1.70178 -0.970367 0
M  V30 28710 H 2753.12 -0.547194 0.508515 0
M  V30 28711 H 2755.78 -0.851291 1.75326 0
M  V30 28712 H 2754.88 -2.3489 2.05507 0
M  V30 28713 N 2755.18 -1.25752 -0.94996 0
M  V30 28714 C 2756.43 -1.10558 -1.69178 0
M  V30 28715 C 2756.75 0.353265 -1.91773 0
M  V30 28716 O 2756.02 1.25025 -1.50816 0
M  V30 28717 H 2754.6 -0.40614 -0.626945 0
M  V30 28718 H 2757.26 -1.57947 -1.14188 0
M  V30 28719 H 2756.36 -1.61754 -2.66912 0
M  V30 28720 N 2756.66 1.15326 -1.07413 0
M  V30 28721 C 2757.93 1.82229 -0.710764 0
M  V30 28722 C 2758.31 1.95078 0.806697 0
M  V30 28723 O 2757.66 1.50271 1.72136 0
M  V30 28724 C 2757.87 3.18541 -1.42592 0
M  V30 28725 C 2759.22 3.94171 -1.57843 0
M  V30 28726 O 2760.24 3.28097 -1.38674 0
M  V30 28727 O 2759.1 5.12635 -1.89389 0
M  V30 28728 H 2756.2 0.787355 -0.252984 0
M  V30 28729 H 2758.74 1.22432 -1.1751 0
M  V30 28730 H 2757.51 3.04291 -2.46013 0
M  V30 28731 H 2757.14 3.86025 -0.9524 0
M  V30 28732 N 2758.13 0.858334 1.32176 0
M  V30 28733 C 2759.1 0.310628 2.27085 0
M  V30 28734 C 2760.1 -0.53178 1.51752 0
M  V30 28735 O 2761.29 -0.34276 1.70795 0
M  V30 28736 C 2758.42 -0.56012 3.36267 0
M  V30 28737 H 2759.61 1.14835 2.77043 0
M  V30 28738 H 2757.17 0.632967 1.4291 0
M  V30 28739 H 2757.9 -1.41951 2.91583 0
M  V30 28740 H 2757.69 0.0429162 3.92077 0
M  V30 28741 H 2759.18 -0.935984 4.06976 0
M  V30 28742 N 2759.61 -1.45036 0.616628 0
M  V30 28743 C 2760.86 -2.01384 0.112897 0
M  V30 28744 C 2761.17 -1.48971 -1.26755 0
M  V30 28745 O 2762.38 -1.97354 -1.86451 0
M  V30 28746 C 2760.84 -3.59583 0.15112 0
M  V30 28747 C 2760.44 -4.20992 1.53198 0
M  V30 28748 C 2762.19 -4.2346 -0.2969 0
M  V30 28749 C 2760.1 -5.7137 1.5261 0
M  V30 28750 H 2759.03 -0.75302 0.0384387 0
M  V30 28751 H 2761.68 -1.66411 0.773291 0
M  V30 28752 H 2760.06 -3.91787 -0.576101 0
M  V30 28753 H 2761.23 -4.00348 2.28163 0
M  V30 28754 H 2759.55 -3.69344 1.92286 0
M  V30 28755 H 2762.14 -5.33738 -0.320618 0
M  V30 28756 H 2762.49 -3.94772 -1.32138 0
M  V30 28757 H 2763.02 -3.96006 0.377349 0
M  V30 28758 H 2759.76 -6.04771 2.52848 0
M  V30 28759 H 2759.28 -5.9418 0.819168 0
M  V30 28760 H 2760.96 -6.34738 1.25368 0
M  V30 28761 N 2761.09 -0.356312 -1.53519 0
M  V30 28762 C 2762.32 0.239925 -2.06008 0
M  V30 28763 C 2762.74 1.4242 -1.22874 0
M  V30 28764 O 2762.1 1.79629 -0.245547 0
M  V30 28765 C 2762.15 0.620524 -3.55221 0
M  V30 28766 O 2761.25 1.71896 -3.74867 0
M  V30 28767 H 2760.59 0.0371261 -0.662961 0
M  V30 28768 H 2763.12 -0.514229 -1.98032 0
M  V30 28769 H 2763.13 0.894127 -3.98082 0
M  V30 28770 H 2761.81 -0.24548 -4.15175 0
M  V30 28771 H 2760.38 1.44163 -3.43906 0
M  V30 28772 N 2762.57 1.57369 -0.0852427 0
M  V30 28773 C 2763.5 2.16505 0.874518 0
M  V30 28774 C 2764.48 1.0957 1.30109 0
M  V30 28775 O 2765.66 1.37665 1.36975 0
M  V30 28776 C 2762.79 2.73749 2.13726 0
M  V30 28777 C 2761.75 3.85969 1.84964 0
M  V30 28778 C 2761.07 4.29873 3.17983 0
M  V30 28779 C 2762.37 5.0961 1.14433 0
M  V30 28780 H 2764.07 2.96955 0.381847 0
M  V30 28781 H 2761.61 1.42842 0.182225 0
M  V30 28782 H 2763.57 3.13768 2.81297 0
M  V30 28783 H 2762.29 1.90539 2.65259 0
M  V30 28784 H 2760.95 3.46475 1.19794 0
M  V30 28785 H 2760.6 3.43567 3.67384 0
M  V30 28786 H 2760.3 5.05528 2.99525 0
M  V30 28787 H 2761.82 4.72518 3.86729 0
M  V30 28788 H 2763.24 5.4686 1.72096 0
M  V30 28789 H 2761.63 5.9063 1.06187 0
M  V30 28790 H 2762.7 4.84738 0.125505 0
M  V30 28791 N 2764.05 -0.188399 1.5647 0
M  V30 28792 C 2765.27 -0.927858 1.85487 0
M  V30 28793 C 2765.7 -1.75778 0.669606 0
M  V30 28794 O 2765.05 -1.7724 -0.381542 0
M  V30 28795 C 2765.1 -1.79434 3.12787 0
M  V30 28796 O 2764.21 -2.89395 2.9381 0
M  V30 28797 H 2763.55 -0.260914 0.61059 0
M  V30 28798 H 2766.08 -0.191693 2.037 0
M  V30 28799 H 2766.09 -2.19768 3.43753 0
M  V30 28800 H 2764.76 -1.18461 3.98673 0
M  V30 28801 H 2763.34 -2.52769 2.74157 0
M  V30 28802 N 2765.53 -1.50848 -0.456355 0
M  V30 28803 C 2766.77 -1.62573 -1.20733 0
M  V30 28804 C 2767.1 -0.332938 -1.91629 0
M  V30 28805 O 2766.36 0.682026 -1.83431 0
M  V30 28806 C 2766.65 -2.76603 -2.26331 0
M  V30 28807 C 2766.32 -4.16565 -1.72583 0
M  V30 28808 C 2764.98 -4.54644 -1.57646 0
M  V30 28809 C 2767.33 -5.0398 -1.32868 0
M  V30 28810 C 2764.66 -5.77864 -1.0144 0
M  V30 28811 C 2767.01 -6.27761 -0.78099 0
M  V30 28812 C 2765.68 -6.6463 -0.618371 0
M  V30 28813 H 2764.95 -0.594896 -0.441792 0
M  V30 28814 H 2767.6 -1.84827 -0.501137 0
M  V30 28815 H 2765.9 -2.48495 -3.02915 0
M  V30 28816 H 2767.6 -2.82876 -2.84222 0
M  V30 28817 H 2764.19 -3.86531 -1.8518 0
M  V30 28818 H 2768.37 -4.75181 -1.43236 0
M  V30 28819 H 2763.63 -6.05092 -0.876002 0
M  V30 28820 H 2767.8 -6.94848 -0.464661 0
M  V30 28821 H 2765.43 -7.59985 -0.180705 0
M  V30 28822 N 2767 0.710538 -1.40674 0
M  V30 28823 C 2767.95 1.84593 -1.41521 0
M  V30 28824 C 2768.95 1.6681 -0.295072 0
M  V30 28825 O 2770.15 1.73854 -0.466362 0
M  V30 28826 H 2766.53 0.608044 -0.442477 0
M  V30 28827 H 2768.5 1.80995 -2.37241 0
M  V30 28828 C 2767.25 3.22498 -1.29963 0
M  V30 28829 H 2766.57 3.3679 -2.15435 0
M  V30 28830 H 2768.01 4.02063 -1.34615 0
M  V30 28831 C 2766.47 3.36898 -0.0103756 0
M  V30 28832 O 2767 3.90289 0.950638 0
M  V30 28833 N 2765.2 2.90536 0.0607899 0
M  V30 28834 H 2764.75 2.47275 -0.721986 0
M  V30 28835 H 2764.71 3.0055 0.922867 0
M  V30 28836 N 2768.48 1.26254 0.943277 0
M  V30 28837 C 2769.43 1.07438 2.063 0
M  V30 28838 C 2770.42 0.00192449 1.694 0
M  V30 28839 O 2771.63 0.15844 1.79301 0
M  V30 28840 H 2768 0.330568 0.675447 0
M  V30 28841 H 2769.98 2.02337 2.19323 0
M  V30 28842 C 2768.72 0.721877 3.40124 0
M  V30 28843 H 2768.05 1.53897 3.68993 0
M  V30 28844 H 2769.49 0.629995 4.19294 0
M  V30 28845 C 2767.95 -0.572844 3.31994 0
M  V30 28846 O 2768.48 -1.61176 3.67947 0
M  V30 28847 N 2766.68 -0.562698 2.851 0
M  V30 28848 H 2766.23 0.283137 2.56039 0
M  V30 28849 H 2766.19 -1.4291 2.80043 0
M  V30 28850 N 2769.96 -1.14755 1.08024 0
M  V30 28851 C 2770.89 -2.21852 0.728287 0
M  V30 28852 C 2771.87 -1.67654 -0.287457 0
M  V30 28853 O 2773.06 -1.93551 -0.158693 0
M  V30 28854 C 2770.19 -3.47047 0.13261 0
M  V30 28855 C 2769.14 -4.14247 1.07627 0
M  V30 28856 C 2768.47 -5.33599 0.343001 0
M  V30 28857 C 2769.77 -4.63231 2.41276 0
M  V30 28858 H 2771.46 -2.51548 1.6237 0
M  V30 28859 H 2769.01 -1.20907 0.782146 0
M  V30 28860 H 2770.96 -4.21213 -0.125591 0
M  V30 28861 H 2769.68 -3.16703 -0.797915 0
M  V30 28862 H 2768.34 -3.4203 1.3195 0
M  V30 28863 H 2767.99 -4.99514 -0.591203 0
M  V30 28864 H 2767.69 -5.79504 0.972057 0
M  V30 28865 H 2769.21 -6.1053 0.0927611 0
M  V30 28866 H 2770.63 -5.28891 2.21241 0
M  V30 28867 H 2769.02 -5.19824 2.99839 0
M  V30 28868 H 2770.09 -3.78506 3.03086 0
M  V30 28869 N 2771.44 -0.865331 -1.31719 0
M  V30 28870 C 2772.37 -0.333343 -2.31108 0
M  V30 28871 C 2773.35 0.573273 -1.60149 0
M  V30 28872 O 2774.53 0.491272 -1.87883 0
M  V30 28873 C 2771.66 0.470017 -3.44105 0
M  V30 28874 C 2770.62 -0.343096 -4.26623 0
M  V30 28875 C 2769.94 0.585663 -5.31483 0
M  V30 28876 C 2771.24 -1.57465 -4.97998 0
M  V30 28877 H 2772.94 -1.16385 -2.75853 0
M  V30 28878 H 2770.48 -0.561092 -1.32619 0
M  V30 28879 H 2772.44 0.852679 -4.12683 0
M  V30 28880 H 2771.16 1.33399 -2.98115 0
M  V30 28881 H 2769.82 -0.707646 -3.59705 0
M  V30 28882 H 2769.47 1.44678 -4.81744 0
M  V30 28883 H 2769.17 0.0455461 -5.87582 0
M  V30 28884 H 2770.69 0.965269 -6.02922 0
M  V30 28885 H 2772.11 -1.26369 -5.59199 0
M  V30 28886 H 2770.5 -2.05349 -5.63872 0
M  V30 28887 H 2771.57 -2.33005 -4.25249 0
M  V30 28888 N 2772.92 1.44707 -0.624311 0
M  V30 28889 C 2774.16 2.01708 -0.125837 0
M  V30 28890 C 2774.48 1.49308 1.25428 0
M  V30 28891 O 2773.75 0.693956 1.83197 0
M  V30 28892 H 2772.33 0.745731 -0.0435292 0
M  V30 28893 H 2775 1.77295 -0.809477 0
M  V30 28894 H 2774.09 3.11975 -0.0883282 0
M  V30 28895 N 2774.39 0.364449 1.53328 0
M  V30 28896 C 2775.64 -0.225599 2.01239 0
M  V30 28897 C 2775.97 -1.48867 1.25175 0
M  V30 28898 O 2775.22 -1.9284 0.333323 0
M  V30 28899 C 2775.52 -0.564599 3.52912 0
M  V30 28900 C 2775.19 0.604014 4.46836 0
M  V30 28901 C 2773.85 0.924668 4.72232 0
M  V30 28902 C 2776.2 1.387 5.02406 0
M  V30 28903 C 2773.53 2.0303 5.50451 0
M  V30 28904 C 2775.88 2.48303 5.81832 0
M  V30 28905 C 2774.55 2.80905 6.05515 0
M  V30 28906 H 2773.82 -0.0825525 0.736387 0
M  V30 28907 H 2776.46 0.496678 1.84947 0
M  V30 28908 H 2774.77 -1.36788 3.67146 0
M  V30 28909 H 2776.47 -1.03337 3.87456 0
M  V30 28910 H 2773.06 0.344058 4.27217 0
M  V30 28911 H 2777.24 1.15252 4.82733 0
M  V30 28912 H 2772.5 2.28688 5.6702 0
M  V30 28913 H 2776.67 3.09391 6.23899 0
M  V30 28914 H 2774.3 3.667 6.65909 0
M  V30 28915 N 2775.87 -1.57322 0.0935872 0
M  V30 28916 C 2777.15 -1.85757 -0.612659 0
M  V30 28917 C 2777.53 -0.990163 -1.86438 0
M  V30 28918 O 2776.88 -0.0621764 -2.28415 0
M  V30 28919 C 2777.09 -3.36395 -0.929488 0
M  V30 28920 C 2778.43 -4.04415 -1.29359 0
M  V30 28921 O 2779.46 -3.41267 -1.02055 0
M  V30 28922 O 2778.32 -5.15835 -1.80489 0
M  V30 28923 H 2775.41 -0.768134 -0.30643 0
M  V30 28924 H 2777.96 -1.6923 0.12617 0
M  V30 28925 H 2776.73 -3.91278 -0.0414078 0
M  V30 28926 H 2776.35 -3.58263 -1.72435 0
M  V30 28927 N 2777.35 0.180099 -1.56568 0
M  V30 28928 C 2778.57 0.918008 -1.85977 0
M  V30 28929 C 2779 1.7542 -0.678919 0
M  V30 28930 O 2778.36 1.7744 0.372137 0
M  V30 28931 C 2778.41 1.77773 -3.13734 0
M  V30 28932 O 2777.51 2.87833 -2.9534 0
M  V30 28933 H 2776.85 0.257672 -0.611965 0
M  V30 28934 H 2779.38 0.180888 -2.03799 0
M  V30 28935 H 2779.39 2.17941 -3.44914 0
M  V30 28936 H 2778.07 1.16345 -3.99295 0
M  V30 28937 H 2776.64 2.51311 -2.75494 0
M  V30 28938 N 2778.83 1.51088 0.448349 0
M  V30 28939 C 2780.05 1.67283 1.22602 0
M  V30 28940 C 2780.48 0.365078 1.84523 0
M  V30 28941 O 2779.84 -0.673612 1.68322 0
M  V30 28942 C 2779.88 2.78233 2.29388 0
M  V30 28943 O 2778.99 2.41069 3.34604 0
M  V30 28944 H 2778.33 0.558136 0.359695 0
M  V30 28945 H 2780.86 1.97593 0.530868 0
M  V30 28946 H 2780.87 3.0199 2.74346 0
M  V30 28947 H 2779.54 3.73134 1.83694 0
M  V30 28948 H 2778.12 2.27843 2.95198 0
M  V30 28949 N 2780.31 -0.703068 1.41049 0
M  V30 28950 C 2781.25 -1.81708 1.42305 0
M  V30 28951 C 2782.22 -1.63751 0.278364 0
M  V30 28952 O 2783.41 -1.84708 0.478298 0
M  V30 28953 C 2780.55 -3.19528 1.30367 0
M  V30 28954 C 2779.66 -3.4897 2.54644 0
M  V30 28955 C 2778.8 -4.76364 2.35055 0
M  V30 28956 C 2777.84 -4.98749 3.54846 0
M  V30 28957 N 2776.97 -6.17364 3.34374 0
M  V30 28958 H 2781.81 -1.79969 2.37519 0
M  V30 28959 H 2779.35 -0.878962 1.17952 0
M  V30 28960 H 2781.31 -3.99131 1.2145 0
M  V30 28961 H 2779.94 -3.20464 0.387658 0
M  V30 28962 H 2778.99 -2.63829 2.74041 0
M  V30 28963 H 2780.3 -3.61417 3.43772 0
M  V30 28964 H 2779.46 -5.64008 2.23562 0
M  V30 28965 H 2778.19 -4.6615 1.43372 0
M  V30 28966 H 2777.2 -4.09556 3.66802 0
M  V30 28967 H 2778.42 -5.10827 4.47473 0
M  V30 28968 H 2776.37 -6.08377 2.45383 0
M  V30 28969 H 2776.29 -6.30544 4.17074 0
M  V30 28970 H 2777.56 -7.07762 3.26638 0
M  V30 28971 N 2781.78 -1.26752 -0.936569 0
M  V30 28972 C 2783.2 -1.11412 -1.49814 0
M  V30 28973 C 2783.55 0.303981 -1.93831 0
M  V30 28974 O 2782.67 1.19597 -1.80348 0
M  V30 28975 C 2783.27 -2.01633 -2.72267 0
M  V30 28976 C 2781.83 -1.90425 -3.24677 0
M  V30 28977 C 2780.97 -1.94711 -1.9744 0
M  V30 28978 H 2783.92 -1.39775 -0.75158 0
M  V30 28979 H 2783.94 -1.56694 -3.46738 0
M  V30 28980 H 2783.46 -3.04837 -2.402 0
M  V30 28981 H 2781.56 -0.901738 -3.61524 0
M  V30 28982 H 2781.67 -2.76201 -3.91471 0
M  V30 28983 H 2780.03 -1.38822 -2.13543 0
M  V30 28984 H 2780.82 -2.99553 -1.67698 0
M  V30 28985 N 2783.26 1.1418 -1.08631 0
M  V30 28986 C 2784.51 1.85545 -0.818589 0
M  V30 28987 C 2784.84 1.82855 0.654044 0
M  V30 28988 O 2784.12 1.26086 1.48097 0
M  V30 28989 C 2784.4 3.34078 -1.34403 0
M  V30 28990 C 2784.25 3.45328 -2.88217 0
M  V30 28991 C 2785.57 4.29251 -0.971144 0
M  V30 28992 H 2782.69 0.673697 -0.298833 0
M  V30 28993 H 2785.33 1.34068 -1.34632 0
M  V30 28994 H 2783.48 3.78047 -0.89513 0
M  V30 28995 H 2785.15 3.10128 -3.41494 0
M  V30 28996 H 2783.4 2.86465 -3.25761 0
M  V30 28997 H 2784.07 4.49743 -3.20055 0
M  V30 28998 H 2786.54 3.9331 -1.35816 0
M  V30 28999 H 2785.42 5.31632 -1.36595 0
M  V30 29000 H 2785.68 4.41933 0.121581 0
M  V30 29001 N 2784.74 0.872304 1.31258 0
M  V30 29002 C 2785.97 0.498942 2.00794 0
M  V30 29003 C 2786.38 -0.909209 1.65466 0
M  V30 29004 O 2785.74 -1.596 0.885101 0
M  V30 29005 C 2785.79 0.649155 3.55624 0
M  V30 29006 O 2785.51 2.00185 3.89689 0
M  V30 29007 C 2787.01 0.277112 4.42433 0
M  V30 29008 H 2784.23 0.194157 0.642296 0
M  V30 29009 H 2786.78 1.17411 1.67436 0
M  V30 29010 H 2784.93 0.0215083 3.87394 0
M  V30 29011 H 2785.35 2.01131 4.84403 0
M  V30 29012 H 2786.82 0.433161 5.50298 0
M  V30 29013 H 2787.3 -0.783913 4.32147 0
M  V30 29014 H 2787.9 0.880556 4.16084 0
M  V30 29015 N 2786.22 -1.44374 0.631976 0
M  V30 29016 C 2787.17 -2.30686 -0.0724401 0
M  V30 29017 C 2788.14 -1.43531 -0.83595 0
M  V30 29018 O 2789.32 -1.72432 -0.816819 0
M  V30 29019 C 2786.46 -3.28819 -1.04747 0
M  V30 29020 C 2785.57 -4.31077 -0.282291 0
M  V30 29021 C 2784.71 -5.16302 -1.24921 0
M  V30 29022 C 2783.75 -6.10268 -0.473242 0
M  V30 29023 N 2782.88 -6.88189 -1.39067 0
M  V30 29024 H 2787.72 -2.90381 0.669528 0
M  V30 29025 H 2785.26 -1.4307 0.341952 0
M  V30 29026 H 2787.22 -3.84203 -1.62616 0
M  V30 29027 H 2785.85 -2.70822 -1.75656 0
M  V30 29028 H 2784.9 -3.78159 0.412334 0
M  V30 29029 H 2786.21 -4.97759 0.322042 0
M  V30 29030 H 2785.37 -5.76207 -1.89921 0
M  V30 29031 H 2784.11 -4.49695 -1.88747 0
M  V30 29032 H 2783.11 -5.49471 0.190238 0
M  V30 29033 H 2784.34 -6.78911 0.160309 0
M  V30 29034 H 2782.28 -6.2425 -2.01612 0
M  V30 29035 H 2782.2 -7.51315 -0.840381 0
M  V30 29036 H 2783.47 -7.52617 -2.02948 0
M  V30 29037 N 2787.7 -0.372575 -1.53133 0
M  V30 29038 C 2788.64 0.470591 -2.25952 0
M  V30 29039 C 2789.61 1.07174 -1.26897 0
M  V30 29040 O 2790.8 1.10292 -1.55693 0
M  V30 29041 C 2787.94 1.60074 -3.05729 0
M  V30 29042 C 2787.05 1.02409 -4.19686 0
M  V30 29043 C 2786.19 2.12392 -4.86891 0
M  V30 29044 C 2785.23 1.52228 -5.92869 0
M  V30 29045 N 2784.36 2.56072 -6.53737 0
M  V30 29046 H 2789.2 -0.156868 -2.97587 0
M  V30 29047 H 2786.74 -0.089183 -1.46829 0
M  V30 29048 H 2788.7 2.26655 -3.50262 0
M  V30 29049 H 2787.33 2.19876 -2.36335 0
M  V30 29050 H 2786.38 0.248359 -3.79588 0
M  V30 29051 H 2787.69 0.544279 -4.95822 0
M  V30 29052 H 2786.85 2.86778 -5.34643 0
M  V30 29053 H 2785.58 2.63727 -4.10243 0
M  V30 29054 H 2784.59 0.763589 -5.44472 0
M  V30 29055 H 2785.81 1.01709 -6.7144 0
M  V30 29056 H 2783.76 3.06607 -5.79938 0
M  V30 29057 H 2783.68 2.12798 -7.25433 0
M  V30 29058 H 2784.95 3.30139 -7.06136 0
M  V30 29059 N 2789.17 1.5727 -0.101929 0
M  V30 29060 C 2790.4 1.98652 0.567533 0
M  V30 29061 C 2790.81 0.980066 1.61837 0
M  V30 29062 O 2790.16 -0.0376241 1.83661 0
M  V30 29063 C 2790.22 3.3642 1.26736 0
M  V30 29064 C 2789.88 4.55528 0.366481 0
M  V30 29065 C 2790.88 5.18449 -0.388113 0
M  V30 29066 C 2788.56 5.01505 0.28254 0
M  V30 29067 C 2790.56 6.25721 -1.21456 0
M  V30 29068 C 2788.24 6.08642 -0.547549 0
M  V30 29069 C 2789.24 6.70616 -1.29474 0
M  V30 29070 O 2788.93 7.75686 -2.11108 0
M  V30 29071 H 2788.66 0.65769 0.15627 0
M  V30 29072 H 2791.22 2.0461 -0.179948 0
M  V30 29073 H 2789.45 3.27165 2.06156 0
M  V30 29074 H 2791.14 3.62203 1.83203 0
M  V30 29075 H 2791.9 4.83855 -0.333034 0
M  V30 29076 H 2787.78 4.53025 0.853789 0
M  V30 29077 H 2791.32 6.74024 -1.79825 0
M  V30 29078 H 2787.22 6.42667 -0.604084 0
M  V30 29079 H 2787.99 7.92705 -2.03865 0
M  V30 29080 N 2790.65 -0.171793 1.56661 0
M  V30 29081 C 2791.88 -0.904082 1.86102 0
M  V30 29082 C 2792.3 -1.75847 0.687258 0
M  V30 29083 O 2791.65 -1.79236 -0.343639 0
M  V30 29084 C 2791.7 -1.78121 3.14571 0
M  V30 29085 O 2791.42 -0.961291 4.27423 0
M  V30 29086 C 2792.93 -2.62321 3.57355 0
M  V30 29087 H 2790.15 -0.262673 0.61745 0
M  V30 29088 H 2792.69 -0.172032 2.03775 0
M  V30 29089 H 2790.84 -2.46661 2.98726 0
M  V30 29090 H 2791.26 -1.56114 5.00728 0
M  V30 29091 H 2792.73 -3.19482 4.5015 0
M  V30 29092 H 2793.21 -3.37168 2.81451 0
M  V30 29093 H 2793.82 -1.99114 3.75811 0
M  V30 29094 N 2792.13 -1.51324 -0.44033 0
M  V30 29095 C 2793.36 -1.67404 -1.21076 0
M  V30 29096 C 2793.77 -0.369631 -1.85554 0
M  V30 29097 O 2793.11 0.661495 -1.71377 0
M  V30 29098 C 2793.17 -2.7306 -2.33834 0
M  V30 29099 C 2792.84 -4.15746 -1.89748 0
M  V30 29100 C 2793.83 -5.00623 -1.4026 0
M  V30 29101 C 2791.52 -4.6183 -1.97531 0
M  V30 29102 C 2793.51 -6.29643 -0.991363 0
M  V30 29103 C 2791.2 -5.90848 -1.56019 0
M  V30 29104 C 2792.2 -6.74582 -1.06903 0
M  V30 29105 O 2791.89 -8.01188 -0.659793 0
M  V30 29106 H 2791.62 -0.565016 -0.371123 0
M  V30 29107 H 2794.17 -1.98488 -0.528374 0
M  V30 29108 H 2792.4 -2.37285 -3.05341 0
M  V30 29109 H 2794.09 -2.78049 -2.95708 0
M  V30 29110 H 2794.86 -4.66223 -1.33644 0
M  V30 29111 H 2790.74 -3.9678 -2.34706 0
M  V30 29112 H 2794.28 -6.94952 -0.607303 0
M  V30 29113 H 2790.18 -6.24762 -1.62304 0
M  V30 29114 H 2790.95 -8.14718 -0.785909 0
M  V30 29115 N 2793.61 0.695578 -1.41419 0
M  V30 29116 C 2794.83 1.4894 -1.44332 0
M  V30 29117 C 2795.26 1.88033 -0.0501909 0
M  V30 29118 O 2794.62 1.54628 0.946571 0
M  V30 29119 C 2794.66 2.72833 -2.35785 0
M  V30 29120 O 2793.77 3.70318 -1.81488 0
M  V30 29121 H 2793.11 0.448271 -0.489846 0
M  V30 29122 H 2795.64 0.854982 -1.8588 0
M  V30 29123 H 2795.65 3.21141 -2.51659 0
M  V30 29124 H 2794.32 2.43716 -3.37009 0
M  V30 29125 H 2792.9 3.29252 -1.75064 0
M  V30 29126 N 2795.09 1.27247 0.929833 0
M  V30 29127 C 2796.33 1.1346 1.67729 0
M  V30 29128 C 2796.66 -0.319965 1.9185 0
M  V30 29129 O 2795.92 -1.25061 1.50526 0
M  V30 29130 C 2796.22 1.8612 3.05113 0
M  V30 29131 C 2795.88 3.35983 3.0071 0
M  V30 29132 C 2794.54 3.7686 2.99216 0
M  V30 29133 C 2796.9 4.31615 2.9216 0
M  V30 29134 C 2794.22 5.11737 2.86953 0
M  V30 29135 C 2796.58 5.66547 2.81439 0
M  V30 29136 C 2795.24 6.0672 2.78294 0
M  V30 29137 H 2794.51 0.415179 0.613765 0
M  V30 29138 H 2797.16 1.57829 1.08453 0
M  V30 29139 H 2795.46 1.34253 3.68081 0
M  V30 29140 H 2797.16 1.72882 3.61819 0
M  V30 29141 H 2793.75 3.03473 3.02658 0
M  V30 29142 H 2797.93 4.01008 2.92414 0
M  V30 29143 H 2793.19 5.42011 2.82903 0
M  V30 29144 H 2797.36 6.40322 2.73789 0
M  V30 29145 H 2794.99 7.11186 2.68548 0
M  V30 29146 N 2796.57 -1.13603 1.09235 0
M  V30 29147 C 2797.5 -2.21067 0.751776 0
M  V30 29148 C 2798.48 -1.67949 -0.269659 0
M  V30 29149 O 2799.66 -1.93708 -0.138156 0
M  V30 29150 C 2796.79 -3.46887 0.169411 0
M  V30 29151 C 2795.75 -4.13082 1.12014 0
M  V30 29152 C 2795.07 -5.33205 0.399577 0
M  V30 29153 C 2796.37 -4.60646 2.46176 0
M  V30 29154 H 2798.07 -2.49812 1.65029 0
M  V30 29155 H 2795.61 -1.20071 0.794926 0
M  V30 29156 H 2797.56 -4.21322 -0.0809084 0
M  V30 29157 H 2796.29 -3.17532 -0.76428 0
M  V30 29158 H 2794.95 -3.40612 1.3557 0
M  V30 29159 H 2794.6 -5.00113 -0.538189 0
M  V30 29160 H 2794.3 -5.7844 1.03347 0
M  V30 29161 H 2795.82 -6.10397 0.157511 0
M  V30 29162 H 2797.23 -5.26514 2.26838 0
M  V30 29163 H 2795.63 -5.16614 3.05335 0
M  V30 29164 H 2796.7 -3.75271 3.07083 0
M  V30 29165 N 2798.04 -0.879253 -1.30793 0
M  V30 29166 C 2799.45 -0.546124 -1.78534 0
M  V30 29167 C 2799.81 0.937437 -1.72356 0
M  V30 29168 O 2798.93 1.7323 -1.29693 0
M  V30 29169 C 2799.53 -0.984557 -3.24179 0
M  V30 29170 C 2798.08 -0.702936 -3.69778 0
M  V30 29171 C 2797.23 -1.17072 -2.51375 0
M  V30 29172 H 2800.18 -1.06405 -1.17744 0
M  V30 29173 H 2800.2 -0.311112 -3.79226 0
M  V30 29174 H 2799.72 -2.06435 -3.28643 0
M  V30 29175 H 2797.82 0.365101 -3.70807 0
M  V30 29176 H 2797.93 -1.28647 -4.61505 0
M  V30 29177 H 2796.29 -0.590215 -2.47767 0
M  V30 29178 H 2797.08 -2.25813 -2.5858 0
M  V30 29179 N 2799.52 1.44037 -0.639624 0
M  V30 29180 C 2800.47 2.30721 0.0602053 0
M  V30 29181 C 2801.44 1.43972 0.828326 0
M  V30 29182 O 2802.62 1.72863 0.807663 0
M  V30 29183 C 2799.76 3.2937 1.03002 0
M  V30 29184 C 2798.88 4.3122 0.259426 0
M  V30 29185 C 2798.01 5.16958 1.22182 0
M  V30 29186 C 2797.05 6.1051 0.440871 0
M  V30 29187 N 2796.19 6.88917 1.35416 0
M  V30 29188 H 2801.03 2.90022 -0.684918 0
M  V30 29189 H 2798.56 1.42887 -0.349534 0
M  V30 29190 H 2800.52 3.8506 1.60576 0
M  V30 29191 H 2799.15 2.7175 1.74217 0
M  V30 29192 H 2798.2 3.77935 -0.432383 0
M  V30 29193 H 2799.52 4.97582 -0.348435 0
M  V30 29194 H 2798.67 5.77206 1.86863 0
M  V30 29195 H 2797.41 4.5069 1.8636 0
M  V30 29196 H 2796.41 5.49362 -0.219376 0
M  V30 29197 H 2797.64 6.78816 -0.196311 0
M  V30 29198 H 2795.59 6.25311 1.98299 0
M  V30 29199 H 2795.5 7.5175 0.800525 0
M  V30 29200 H 2796.77 7.53683 1.98954 0
M  V30 29201 N 2801 0.380691 1.52933 0
M  V30 29202 C 2801.91 -0.466152 2.29922 0
M  V30 29203 C 2802.93 -1.0792 1.36489 0
M  V30 29204 O 2804.1 -1.08687 1.69555 0
M  V30 29205 C 2801.17 -1.58261 3.08471 0
M  V30 29206 C 2800.23 -0.995553 4.17597 0
M  V30 29207 C 2799.46 -2.0588 4.92391 0
M  V30 29208 O 2799.68 -3.27246 4.6719 0
M  V30 29209 O 2798.62 -1.68092 5.77952 0
M  V30 29210 H 2802.44 0.160788 3.03274 0
M  V30 29211 H 2800.03 0.144643 1.48698 0
M  V30 29212 H 2801.91 -2.23139 3.57473 0
M  V30 29213 H 2800.59 -2.19467 2.37941 0
M  V30 29214 H 2799.49 -0.310266 3.72811 0
M  V30 29215 H 2800.83 -0.427831 4.90337 0
M  V30 29216 N 2802.48 -1.57214 0.110268 0
M  V30 29217 C 2803.75 -1.86397 -0.592923 0
M  V30 29218 C 2804.13 -1.00988 -1.85377 0
M  V30 29219 O 2803.48 -0.0863994 -2.28337 0
M  V30 29220 C 2803.69 -3.37362 -0.893756 0
M  V30 29221 C 2805.04 -4.05764 -1.25062 0
M  V30 29222 O 2806.06 -3.4233 -0.984296 0
M  V30 29223 O 2804.92 -5.17721 -1.75008 0
M  V30 29224 H 2802.02 -0.771341 -0.298266 0
M  V30 29225 H 2804.56 -1.69087 0.144112 0
M  V30 29226 H 2803.34 -3.913 9.48118e-05 0
M  V30 29227 H 2802.96 -3.60071 -1.68625 0
M  V30 29228 N 2803.96 0.163482 -1.5675 0
M  V30 29229 C 2805.2 0.877098 -1.82075 0
M  V30 29230 C 2805.52 1.8244 -0.688535 0
M  V30 29231 O 2804.79 1.93726 0.291051 0
M  V30 29232 H 2803.37 0.326882 -0.671683 0
M  V30 29233 H 2806.04 0.161425 -1.9423 0
M  V30 29234 H 2805.13 1.44929 -2.76409 0
M  V30 29235 N 2805.43 1.51555 0.432299 0
M  V30 29236 C 2806.71 1.55017 1.19285 0
M  V30 29237 C 2807.09 0.317412 2.087 0
M  V30 29238 O 2806.44 -0.697204 2.17604 0
M  V30 29239 C 2806.65 2.86683 1.99032 0
M  V30 29240 C 2808 3.38822 2.55901 0
M  V30 29241 O 2809.02 2.88267 2.09238 0
M  V30 29242 O 2807.88 4.27044 3.41021 0
M  V30 29243 H 2804.97 0.623451 0.543358 0
M  V30 29244 H 2807.52 1.63871 0.440959 0
M  V30 29245 H 2806.29 3.67862 1.3339 0
M  V30 29246 H 2805.91 2.81015 2.81276 0
M  V30 29247 N 2806.91 -0.688069 1.41786 0
M  V30 29248 C 2808.16 -1.45028 1.41756 0
M  V30 29249 C 2808.49 -1.94178 0.0291086 0
M  V30 29250 O 2807.77 -1.70032 -0.944426 0
M  V30 29251 C 2808.05 -2.65682 2.43074 0
M  V30 29252 C 2807.9 -2.22249 3.91057 0
M  V30 29253 C 2809.22 -3.67888 2.41549 0
M  V30 29254 H 2806.34 -0.526018 0.516212 0
M  V30 29255 H 2808.98 -0.783075 1.73112 0
M  V30 29256 H 2807.13 -3.22606 2.16466 0
M  V30 29257 H 2808.8 -1.70594 4.28597 0
M  V30 29258 H 2807.05 -1.53955 4.05562 0
M  V30 29259 H 2807.72 -3.08855 4.57507 0
M  V30 29260 H 2810.19 -3.20653 2.65181 0
M  V30 29261 H 2809.07 -4.49908 3.14442 0
M  V30 29262 H 2809.33 -4.18103 1.43673 0
M  V30 29263 N 2808.39 -1.27739 -0.923072 0
M  V30 29264 C 2809.32 -1.13387 -2.04122 0
M  V30 29265 C 2810.3 -0.0340957 -1.70066 0
M  V30 29266 O 2811.49 -0.209417 -1.93068 0
M  V30 29267 C 2808.62 -0.785156 -3.38308 0
M  V30 29268 C 2807.57 -1.83867 -3.86493 0
M  V30 29269 C 2806.9 -1.34382 -5.17538 0
M  V30 29270 C 2808.2 -3.2436 -4.09375 0
M  V30 29271 H 2809.89 -2.06923 -2.16387 0
M  V30 29272 H 2807.44 -0.996262 -1.03974 0
M  V30 29273 H 2809.39 -0.671558 -4.16014 0
M  V30 29274 H 2808.11 0.185912 -3.2607 0
M  V30 29275 H 2806.77 -1.94126 -3.10984 0
M  V30 29276 H 2806.42 -0.362077 -5.01695 0
M  V30 29277 H 2806.12 -2.0482 -5.50747 0
M  V30 29278 H 2807.64 -1.24326 -5.97809 0
M  V30 29279 H 2809.06 -3.17076 -4.77636 0
M  V30 29280 H 2807.45 -3.9255 -4.53899 0
M  V30 29281 H 2808.52 -3.6907 -3.14509 0
M  V30 29282 N 2809.87 1.13022 -1.09836 0
M  V30 29283 C 2810.8 2.20665 -0.76349 0
M  V30 29284 C 2811.78 1.6809 0.260748 0
M  V30 29285 O 2812.96 1.93778 0.127881 0
M  V30 29286 C 2810.09 3.46792 -0.187805 0
M  V30 29287 C 2809.05 4.12482 -1.14203 0
M  V30 29288 C 2808.37 5.32986 -0.427849 0
M  V30 29289 C 2809.67 4.59334 -2.48615 0
M  V30 29290 H 2811.37 2.48933 -1.66351 0
M  V30 29291 H 2808.91 1.19647 -0.801282 0
M  V30 29292 H 2810.87 4.21359 0.0585635 0
M  V30 29293 H 2809.59 3.17932 0.747429 0
M  V30 29294 H 2808.25 3.39888 -1.37375 0
M  V30 29295 H 2807.9 5.00391 0.511659 0
M  V30 29296 H 2807.6 5.77884 -1.06413 0
M  V30 29297 H 2809.12 6.10305 -0.189879 0
M  V30 29298 H 2810.54 5.25304 -2.29628 0
M  V30 29299 H 2808.93 5.14988 -3.08071 0
M  V30 29300 H 2810 3.73637 -3.09069 0
M  V30 29301 N 2811.35 0.886177 1.30325 0
M  V30 29302 C 2812.31 0.358726 2.26375 0
M  V30 29303 C 2813.31 -0.499471 1.52846 0
M  V30 29304 O 2814.5 -0.306455 1.71483 0
M  V30 29305 C 2811.63 -0.488666 3.37379 0
M  V30 29306 H 2812.82 1.20686 2.74545 0
M  V30 29307 H 2810.38 0.663138 1.41535 0
M  V30 29308 H 2811.11 -1.35734 2.94528 0
M  V30 29309 H 2810.9 0.126072 3.91897 0
M  V30 29310 H 2812.39 -0.849448 4.08869 0
M  V30 29311 N 2812.82 -1.43695 0.647253 0
M  V30 29312 C 2813.73 -2.34549 -0.0487585 0
M  V30 29313 C 2814.75 -1.53544 -0.818559 0
M  V30 29314 O 2815.93 -1.86217 -0.767162 0
M  V30 29315 C 2812.99 -3.31745 -1.00728 0
M  V30 29316 C 2812.05 -4.28656 -0.235075 0
M  V30 29317 C 2811.29 -5.21208 -1.14794 0
M  V30 29318 O 2811.51 -5.18049 -2.38708 0
M  V30 29319 O 2810.44 -5.98661 -0.623562 0
M  V30 29320 H 2814.27 -2.95548 0.698915 0
M  V30 29321 H 2811.85 -1.43737 0.407438 0
M  V30 29322 H 2813.74 -3.91529 -1.5583 0
M  V30 29323 H 2812.41 -2.73257 -1.73529 0
M  V30 29324 H 2811.32 -3.7237 0.359385 0
M  V30 29325 H 2812.65 -4.90109 0.453238 0
M  V30 29326 N 2814.3 -0.388796 -1.52729 0
M  V30 29327 C 2815.55 0.193555 -2.01573 0
M  V30 29328 C 2815.88 1.46857 -1.27528 0
M  V30 29329 O 2815.13 1.92286 -0.36396 0
M  V30 29330 C 2815.43 0.508383 -3.53766 0
M  V30 29331 C 2815.1 -0.675025 -4.45819 0
M  V30 29332 C 2813.76 -0.999679 -4.70701 0
M  V30 29333 C 2816.11 -1.46675 -5.00136 0
M  V30 29334 C 2813.44 -2.11761 -5.47151 0
M  V30 29335 C 2815.79 -2.57528 -5.77808 0
M  V30 29336 C 2814.46 -2.90502 -6.0097 0
M  V30 29337 H 2813.73 0.0708268 -0.737607 0
M  V30 29338 H 2816.37 -0.526039 -1.84133 0
M  V30 29339 H 2814.68 1.30929 -3.69276 0
M  V30 29340 H 2816.37 0.971596 -3.89051 0
M  V30 29341 H 2812.96 -0.411981 -4.26615 0
M  V30 29342 H 2817.15 -1.22917 -4.80838 0
M  V30 29343 H 2812.4 -2.3768 -5.6331 0
M  V30 29344 H 2816.58 -3.19277 -6.18898 0
M  V30 29345 H 2814.21 -3.77247 -6.59991 0
M  V30 29346 N 2815.78 1.57153 -0.118604 0
M  V30 29347 C 2817.06 1.86709 0.583029 0
M  V30 29348 C 2817.44 1.0197 1.84839 0
M  V30 29349 O 2816.79 0.0985074 2.28288 0
M  V30 29350 C 2817 3.37831 0.875853 0
M  V30 29351 C 2818.34 4.06422 1.22909 0
M  V30 29352 O 2819.37 3.42848 0.966127 0
M  V30 29353 O 2818.23 5.18641 1.72259 0
M  V30 29354 H 2815.32 0.772912 0.294171 0
M  V30 29355 H 2817.87 1.69008 -0.153077 0
M  V30 29356 H 2816.64 3.91294 -0.0208464 0
M  V30 29357 H 2816.26 3.60961 1.66713 0
M  V30 29358 N 2817.26 -0.155167 1.56834 0
M  V30 29359 C 2818.49 -0.884293 1.8705 0
M  V30 29360 C 2818.9 -1.75108 0.70587 0
M  V30 29361 O 2818.26 -1.7959 -0.32461 0
M  V30 29362 C 2818.31 -1.74775 3.16443 0
M  V30 29363 O 2818.03 -0.915903 4.28419 0
M  V30 29364 C 2819.53 -2.58516 3.60117 0
M  V30 29365 H 2816.75 -0.256109 0.620201 0
M  V30 29366 H 2819.3 -0.150409 2.03946 0
M  V30 29367 H 2817.45 -2.43479 3.01325 0
M  V30 29368 H 2817.86 -1.50794 5.02356 0
M  V30 29369 H 2819.34 -3.1469 4.53513 0
M  V30 29370 H 2819.82 -3.34164 2.85011 0
M  V30 29371 H 2820.42 -1.95117 3.77901 0
M  V30 29372 N 2818.74 -1.51782 -0.424256 0
M  V30 29373 C 2819.97 -1.68679 -1.19294 0
M  V30 29374 C 2820.37 -0.389291 -1.85152 0
M  V30 29375 O 2819.72 0.643281 -1.72069 0
M  V30 29376 C 2819.78 -2.75525 -2.30925 0
M  V30 29377 C 2819.44 -4.17735 -1.85328 0
M  V30 29378 C 2820.44 -5.02082 -1.34942 0
M  V30 29379 C 2818.13 -4.63899 -1.92621 0
M  V30 29380 C 2820.12 -6.30659 -0.924526 0
M  V30 29381 C 2817.81 -5.9247 -1.49743 0
M  V30 29382 C 2818.8 -6.75678 -0.997424 0
M  V30 29383 O 2818.49 -8.01843 -0.574779 0
M  V30 29384 H 2818.22 -0.568921 -0.36511 0
M  V30 29385 H 2820.78 -1.99037 -0.507292 0
M  V30 29386 H 2819.01 -2.4051 -3.02807 0
M  V30 29387 H 2820.7 -2.8117 -2.92743 0
M  V30 29388 H 2821.46 -4.67615 -1.28691 0
M  V30 29389 H 2817.34 -3.99247 -2.30484 0
M  V30 29390 H 2820.89 -6.95557 -0.53356 0
M  V30 29391 H 2816.78 -6.26448 -1.55668 0
M  V30 29392 H 2817.55 -8.15506 -0.699453 0
M  V30 29393 N 2820.21 0.68054 -1.42149 0
M  V30 29394 C 2821.49 1.43612 -1.32797 0
M  V30 29395 C 2821.87 2.11067 0.0373779 0
M  V30 29396 O 2821.22 2.02815 1.05254 0
M  V30 29397 C 2821.43 2.44326 -2.4921 0
M  V30 29398 C 2822.78 3.09139 -2.91064 0
M  V30 29399 O 2823.8 2.54653 -2.49059 0
M  V30 29400 O 2822.66 4.07859 -3.63748 0
M  V30 29401 H 2819.75 0.640291 -0.523408 0
M  V30 29402 H 2822.3 0.709748 -1.54145 0
M  V30 29403 H 2821.07 1.93241 -3.40255 0
M  V30 29404 H 2820.7 3.24452 -2.29818 0
M  V30 29405 N 2821.69 1.28226 0.916285 0
M  V30 29406 C 2823.1 1.13782 1.48022 0
M  V30 29407 C 2823.45 -0.273105 1.9429 0
M  V30 29408 O 2822.58 -1.16713 1.82228 0
M  V30 29409 C 2823.17 2.05939 2.69025 0
M  V30 29410 C 2821.73 1.95567 3.21606 0
M  V30 29411 C 2820.88 1.97828 1.94318 0
M  V30 29412 H 2823.83 1.40953 0.729248 0
M  V30 29413 H 2823.85 1.6219 3.44201 0
M  V30 29414 H 2823.36 3.0862 2.3532 0
M  V30 29415 H 2821.47 0.959139 3.60043 0
M  V30 29416 H 2821.58 2.82394 3.87027 0
M  V30 29417 H 2819.94 1.42202 2.11307 0
M  V30 29418 H 2820.73 3.02183 1.62911 0
M  V30 29419 N 2823.17 -1.12438 1.10433 0
M  V30 29420 C 2824.42 -1.83304 0.841572 0
M  V30 29421 C 2824.73 -1.85008 -0.634928 0
M  V30 29422 O 2825.94 -2.5187 -1.01359 0
M  V30 29423 C 2824.39 -3.29146 1.45571 0
M  V30 29424 C 2824 -3.35801 2.9655 0
M  V30 29425 C 2825.75 -4.04984 1.27234 0
M  V30 29426 C 2823.65 -4.75977 3.50998 0
M  V30 29427 H 2822.58 -0.686797 0.311168 0
M  V30 29428 H 2825.23 -1.26602 1.32831 0
M  V30 29429 H 2823.62 -3.85715 0.896642 0
M  V30 29430 H 2824.79 -2.89171 3.58771 0
M  V30 29431 H 2823.11 -2.73436 3.14041 0
M  V30 29432 H 2825.7 -5.08489 1.65357 0
M  V30 29433 H 2826.05 -4.1575 0.213907 0
M  V30 29434 H 2826.58 -3.54773 1.79947 0
M  V30 29435 H 2823.32 -4.70405 4.56507 0
M  V30 29436 H 2822.84 -5.2306 2.93544 0
M  V30 29437 H 2824.52 -5.44917 3.48818 0
M  V30 29438 N 2824.65 -0.893076 -1.29853 0
M  V30 29439 C 2825.88 -0.530054 -1.99685 0
M  V30 29440 C 2826.29 0.887983 -1.67067 0
M  V30 29441 O 2825.63 1.59668 -0.908394 0
M  V30 29442 C 2825.69 -0.634632 -3.53854 0
M  V30 29443 C 2825.36 -2.01844 -4.1001 0
M  V30 29444 C 2826.35 -2.98882 -4.25401 0
M  V30 29445 C 2824.04 -2.32603 -4.45198 0
M  V30 29446 C 2826.03 -4.24807 -4.75203 0
M  V30 29447 C 2823.72 -3.58772 -4.94698 0
M  V30 29448 C 2824.72 -4.54689 -5.09654 0
M  V30 29449 O 2824.41 -5.78618 -5.58083 0
M  V30 29450 H 2824.14 -0.202651 -0.64491 0
M  V30 29451 H 2826.69 -1.20256 -1.66516 0
M  V30 29452 H 2824.92 0.0948798 -3.86584 0
M  V30 29453 H 2826.61 -0.281719 -4.04921 0
M  V30 29454 H 2827.38 -2.76432 -3.9851 0
M  V30 29455 H 2823.26 -1.58709 -4.32819 0
M  V30 29456 H 2826.8 -4.99679 -4.86792 0
M  V30 29457 H 2822.7 -3.81055 -5.21025 0
M  V30 29458 H 2823.46 -5.81114 -5.7641 0
M  V30 29459 N 2826.13 1.4335 -0.654865 0
M  V30 29460 C 2827.07 2.30772 0.0357308 0
M  V30 29461 C 2828.04 1.44843 0.81301 0
M  V30 29462 O 2829.23 1.73709 0.789283 0
M  V30 29463 C 2826.37 3.30444 0.995025 0
M  V30 29464 C 2825.48 4.31471 0.213675 0
M  V30 29465 C 2824.62 5.18224 1.16692 0
M  V30 29466 C 2823.66 6.10943 0.376094 0
M  V30 29467 N 2822.79 6.90315 1.28101 0
M  V30 29468 H 2827.63 2.89279 -0.71564 0
M  V30 29469 H 2825.17 1.42508 -0.36467 0
M  V30 29470 H 2827.13 3.86741 1.56483 0
M  V30 29471 H 2825.76 2.73583 1.71325 0
M  V30 29472 H 2824.81 3.77455 -0.472444 0
M  V30 29473 H 2826.12 4.97184 -0.401191 0
M  V30 29474 H 2825.28 5.79156 1.8073 0
M  V30 29475 H 2824.02 4.52641 1.81569 0
M  V30 29476 H 2823.02 5.49099 -0.27763 0
M  V30 29477 H 2824.25 6.7857 -0.268298 0
M  V30 29478 H 2822.19 6.27379 1.91655 0
M  V30 29479 H 2822.11 7.52556 0.720747 0
M  V30 29480 H 2823.38 7.5575 1.90949 0
M  V30 29481 N 2827.61 0.39689 1.52521 0
M  V30 29482 C 2828.55 -0.44939 2.28218 0
M  V30 29483 C 2829.55 -1.05649 1.32418 0
M  V30 29484 O 2830.75 -0.996097 1.49926 0
M  V30 29485 H 2827.13 -0.163687 0.733969 0
M  V30 29486 H 2829.1 0.210419 2.97657 0
M  V30 29487 C 2827.85 -1.56049 3.10715 0
M  V30 29488 H 2827.17 -1.10266 3.84293 0
M  V30 29489 H 2828.61 -2.1267 3.66807 0
M  V30 29490 C 2827.07 -2.52087 2.23504 0
M  V30 29491 O 2827.6 -3.55679 1.86697 0
M  V30 29492 N 2825.81 -2.22006 1.87514 0
M  V30 29493 H 2825.35 -1.37798 2.17645 0
M  V30 29494 H 2825.31 -2.86512 1.29453 0
M  V30 29495 N 2829.08 -1.57088 0.126936 0
M  V30 29496 C 2830.33 -1.95079 -0.528088 0
M  V30 29497 C 2830.65 -1.01163 -1.66707 0
M  V30 29498 O 2829.92 -0.0693872 -1.95777 0
M  V30 29499 H 2828.5 -0.720261 -0.198074 0
M  V30 29500 H 2831.16 -1.93894 0.197738 0
M  V30 29501 H 2830.26 -2.98311 -0.917455 0
M  V30 29502 N 2830.56 0.146848 -1.56914 0
M  V30 29503 C 2831.52 1.16523 -1.9737 0
M  V30 29504 C 2832.52 1.35854 -0.860247 0
M  V30 29505 O 2833.71 1.32844 -1.12686 0
M  V30 29506 C 2830.85 2.52551 -2.28978 0
M  V30 29507 H 2832.04 0.818158 -2.88524 0
M  V30 29508 H 2829.59 0.390194 -1.51351 0
M  V30 29509 H 2830.33 2.92229 -1.40616 0
M  V30 29510 H 2830.11 2.3988 -3.10161 0
M  V30 29511 H 2831.6 3.25897 -2.61115 0
M  V30 29512 N 2832.04 1.52005 0.4162 0
M  V30 29513 C 2832.97 1.69552 1.52733 0
M  V30 29514 C 2833.95 0.543077 1.53263 0
M  V30 29515 O 2835.13 0.769557 1.72076 0
M  V30 29516 C 2832.26 1.7284 2.9128 0
M  V30 29517 C 2831.31 2.94301 3.0869 0
M  V30 29518 S 2832.14 4.54767 2.8275 0
M  V30 29519 C 2833.3 4.60831 4.2354 0
M  V30 29520 H 2833.53 2.63531 1.37618 0
M  V30 29521 H 2831.06 1.41955 0.60731 0
M  V30 29522 H 2833.02 1.7542 3.71131 0
M  V30 29523 H 2831.68 0.80002 3.03741 0
M  V30 29524 H 2830.87 2.93063 4.10037 0
M  V30 29525 H 2830.48 2.89572 2.36694 0
M  V30 29526 H 2832.77 4.37772 5.1707 0
M  V30 29527 H 2833.71 5.62738 4.29803 0
M  V30 29528 H 2834.12 3.89934 4.08181 0
M  V30 29529 N 2833.52 -0.672992 1.42508 0
M  V30 29530 C 2834.75 -1.45913 1.46263 0
M  V30 29531 C 2835.16 -1.89059 0.0730056 0
M  V30 29532 O 2834.5 -1.58831 -0.922959 0
M  V30 29533 C 2834.56 -2.73893 2.32858 0
M  V30 29534 C 2834.22 -2.52812 3.80703 0
M  V30 29535 C 2835.22 -2.17298 4.72311 0
M  V30 29536 C 2832.91 -2.67751 4.24988 0
M  V30 29537 C 2834.9 -1.96992 6.06195 0
M  V30 29538 C 2832.59 -2.4706 5.58931 0
M  V30 29539 C 2833.59 -2.11735 6.49352 0
M  V30 29540 O 2833.27 -1.91246 7.8082 0
M  V30 29541 H 2833.01 -0.455419 0.499569 0
M  V30 29542 H 2835.56 -0.834163 1.87699 0
M  V30 29543 H 2833.79 -3.38879 1.86274 0
M  V30 29544 H 2835.48 -3.35782 2.28047 0
M  V30 29545 H 2836.24 -2.05351 4.39381 0
M  V30 29546 H 2832.12 -2.94225 3.54898 0
M  V30 29547 H 2835.67 -1.69343 6.76734 0
M  V30 29548 H 2831.56 -2.58604 5.91434 0
M  V30 29549 H 2832.33 -2.05829 7.92197 0
M  V30 29550 N 2835 -1.2871 -0.909472 0
M  V30 29551 C 2835.94 -1.13004 -2.01243 0
M  V30 29552 C 2836.91 -0.0259976 -1.6608 0
M  V30 29553 O 2838.1 -0.191721 -1.89834 0
M  V30 29554 C 2835.24 -0.802374 -3.35643 0
M  V30 29555 C 2834.35 -1.98588 -3.83649 0
M  V30 29556 C 2833.49 -1.59846 -5.06579 0
M  V30 29557 C 2832.52 -2.74836 -5.46929 0
M  V30 29558 N 2831.66 -2.36557 -6.61048 0
M  V30 29559 H 2836.5 -2.07374 -2.14009 0
M  V30 29560 H 2834.04 -1.03207 -1.04818 0
M  V30 29561 H 2836 -0.593129 -4.12962 0
M  V30 29562 H 2834.63 0.1044 -3.22631 0
M  V30 29563 H 2833.68 -2.30713 -3.02449 0
M  V30 29564 H 2834.99 -2.84786 -4.0951 0
M  V30 29565 H 2834.14 -1.35153 -5.91455 0
M  V30 29566 H 2832.88 -0.707838 -4.82536 0
M  V30 29567 H 2831.89 -3.00223 -4.60593 0
M  V30 29568 H 2833.11 -3.64548 -5.72959 0
M  V30 29569 H 2831.06 -1.4997 -6.38627 0
M  V30 29570 H 2830.98 -3.16289 -6.86656 0
M  V30 29571 H 2832.24 -2.15159 -7.49218 0
M  V30 29572 N 2836.47 1.1185 -1.11028 0
M  V30 29573 C 2837.72 1.83133 -0.854801 0
M  V30 29574 C 2838.04 1.84836 0.621342 0
M  V30 29575 O 2837.31 1.31587 1.45127 0
M  V30 29576 H 2835.89 0.678151 -0.313241 0
M  V30 29577 H 2838.55 1.35409 -1.4018 0
M  V30 29578 H 2837.65 2.87133 -1.22316 0
M  V30 29579 N 2837.95 0.89995 1.29378 0
M  V30 29580 C 2838.9 0.376283 2.27712 0
M  V30 29581 C 2839.87 -0.541746 1.57017 0
M  V30 29582 O 2841.05 -0.466933 1.84998 0
M  V30 29583 C 2838.19 -0.389939 3.4289 0
M  V30 29584 C 2837.31 0.559013 4.28368 0
M  V30 29585 C 2836.44 -0.224285 5.30726 0
M  V30 29586 C 2835.48 0.719175 6.0786 0
M  V30 29587 N 2834.62 -0.0297335 7.02094 0
M  V30 29588 H 2839.46 1.21993 2.71886 0
M  V30 29589 H 2836.99 0.612903 1.33723 0
M  V30 29590 H 2838.95 -0.850242 4.08444 0
M  V30 29591 H 2837.58 -1.19804 2.99745 0
M  V30 29592 H 2836.63 1.13783 3.62984 0
M  V30 29593 H 2837.95 1.28119 4.82065 0
M  V30 29594 H 2837.1 -0.745775 6.02099 0
M  V30 29595 H 2835.84 -0.97959 4.77761 0
M  V30 29596 H 2834.84 1.25216 5.35351 0
M  V30 29597 H 2836.07 1.47381 6.62914 0
M  V30 29598 H 2834.02 -0.767301 6.51497 0
M  V30 29599 H 2833.93 0.632524 7.53349 0
M  V30 29600 H 2835.2 -0.531479 7.77686 0
M  V30 29601 N 2839.43 -1.43001 0.662458 0
M  V30 29602 C 2840.84 -1.84904 0.258348 0
M  V30 29603 C 2841.19 -1.55455 -1.197 0
M  V30 29604 O 2840.32 -1.00814 -1.91482 0
M  V30 29605 C 2840.91 -3.35634 0.462106 0
M  V30 29606 C 2839.47 -3.76233 0.112231 0
M  V30 29607 C 2838.62 -2.66667 0.760526 0
M  V30 29608 H 2841.57 -1.33022 0.86549 0
M  V30 29609 H 2841.59 -3.79396 -0.289579 0
M  V30 29610 H 2841.1 -3.57036 1.52141 0
M  V30 29611 H 2839.2 -3.6044 -0.944115 0
M  V30 29612 H 2839.32 -4.76 0.544142 0
M  V30 29613 H 2837.68 -2.53968 0.192932 0
M  V30 29614 H 2838.46 -2.90895 1.82304 0
M  V30 29615 N 2840.91 -0.404973 -1.52308 0
M  V30 29616 C 2842.16 0.173494 -2.00952 0
M  V30 29617 C 2842.47 1.46578 -1.29515 0
M  V30 29618 O 2843.68 2.12525 -1.68954 0
M  V30 29619 C 2842.13 0.359738 -3.58098 0
M  V30 29620 C 2841.74 -0.920215 -4.38447 0
M  V30 29621 C 2843.48 0.893721 -4.14985 0
M  V30 29622 C 2841.39 -0.701388 -5.87226 0
M  V30 29623 H 2840.32 0.0686112 -0.750872 0
M  V30 29624 H 2842.97 -0.52978 -1.75686 0
M  V30 29625 H 2841.35 1.12524 -3.79677 0
M  V30 29626 H 2842.53 -1.69155 -4.2863 0
M  V30 29627 H 2840.84 -1.38031 -3.92857 0
M  V30 29628 H 2843.44 1.0734 -5.23815 0
M  V30 29629 H 2843.78 1.86724 -3.72075 0
M  V30 29630 H 2844.32 0.187383 -3.97358 0
M  V30 29631 H 2841.06 -1.64635 -6.34488 0
M  V30 29632 H 2840.58 0.0307234 -5.99792 0
M  V30 29633 H 2842.25 -0.341959 -6.46096 0
M  V30 29634 N 2842.39 1.57018 -0.135265 0
M  V30 29635 C 2843.32 2.19178 0.805196 0
M  V30 29636 C 2844.3 1.13654 1.26558 0
M  V30 29637 O 2845.48 1.41953 1.32526 0
M  V30 29638 C 2842.61 2.8041 2.04909 0
M  V30 29639 C 2841.57 3.91658 1.72591 0
M  V30 29640 C 2840.89 4.39772 3.04146 0
M  V30 29641 C 2842.19 5.12993 0.981619 0
M  V30 29642 H 2843.89 2.9802 0.287179 0
M  V30 29643 H 2841.43 1.4335 0.136689 0
M  V30 29644 H 2843.39 3.22558 2.71172 0
M  V30 29645 H 2842.11 1.98882 2.59063 0
M  V30 29646 H 2840.77 3.50111 1.08711 0
M  V30 29647 H 2840.42 3.55081 3.56267 0
M  V30 29648 H 2840.12 5.14801 2.8329 0
M  V30 29649 H 2841.64 4.84582 3.715 0
M  V30 29650 H 2843.05 5.52058 1.5461 0
M  V30 29651 H 2841.45 5.9371 0.873428 0
M  V30 29652 H 2842.52 4.84891 -0.028774 0
M  V30 29653 N 2843.86 -0.138524 1.5699 0
M  V30 29654 C 2845.11 -0.846084 1.84968 0
M  V30 29655 C 2845.47 -1.78404 0.720412 0
M  V30 29656 O 2844.76 -1.89528 -0.281043 0
M  V30 29657 C 2844.95 -1.65043 3.1701 0
M  V30 29658 C 2844.78 -0.791862 4.42673 0
M  V30 29659 C 2843.55 -0.454205 5.03254 0
M  V30 29660 C 2845.75 -0.118328 5.14164 0
M  V30 29661 N 2843.73 0.417071 6.12482 0
M  V30 29662 C 2845.1 0.612738 6.16965 0
M  V30 29663 C 2847.16 -0.0398796 4.97884 0
M  V30 29664 C 2845.86 1.41486 7.05248 0
M  V30 29665 C 2847.89 0.749004 5.86638 0
M  V30 29666 C 2847.25 1.46833 6.88926 0
M  V30 29667 H 2843.35 -0.28716 0.727367 0
M  V30 29668 H 2845.93 -0.110938 1.94384 0
M  V30 29669 H 2844.1 -2.35675 3.08726 0
M  V30 29670 H 2845.83 -2.30181 3.32864 0
M  V30 29671 H 2842.59 -0.791956 4.66931 0
M  V30 29672 H 2843.01 0.843983 6.71719 0
M  V30 29673 H 2847.66 -0.581654 4.1878 0
M  V30 29674 H 2845.37 1.96786 7.83773 0
M  V30 29675 H 2848.96 0.811806 5.76108 0
M  V30 29676 H 2847.84 2.06895 7.56415 0
M  V30 29677 N 2845.34 -1.52224 -0.408133 0
M  V30 29678 C 2846.59 -1.66578 -1.15671 0
M  V30 29679 C 2846.92 -0.395029 -1.9014 0
M  V30 29680 O 2846.2 0.606581 -1.84799 0
M  V30 29681 C 2846.48 -2.88845 -2.15037 0
M  V30 29682 C 2846.33 -4.25972 -1.44457 0
M  V30 29683 C 2847.65 -3.06635 -3.15694 0
M  V30 29684 H 2844.77 -0.606204 -0.419149 0
M  V30 29685 H 2847.41 -1.8478 -0.442315 0
M  V30 29686 H 2845.56 -2.73457 -2.75959 0
M  V30 29687 H 2847.23 -4.53089 -0.866464 0
M  V30 29688 H 2845.48 -4.27328 -0.746537 0
M  V30 29689 H 2846.15 -5.07572 -2.16967 0
M  V30 29690 H 2848.62 -3.20928 -2.64848 0
M  V30 29691 H 2847.5 -3.93697 -3.82484 0
M  V30 29692 H 2847.76 -2.19994 -3.83478 0
M  V30 29693 N 2846.82 0.665425 -1.42863 0
M  V30 29694 C 2847.77 1.79997 -1.47322 0
M  V30 29695 C 2848.76 1.65787 -0.347992 0
M  V30 29696 O 2849.97 1.72282 -0.521436 0
M  V30 29697 H 2846.34 0.593659 -0.461598 0
M  V30 29698 H 2848.31 1.73356 -2.42879 0
M  V30 29699 C 2847.06 3.182 -1.40157 0
M  V30 29700 H 2846.39 3.29766 -2.26041 0
M  V30 29701 H 2847.83 3.97577 -1.47338 0
M  V30 29702 C 2846.29 3.36695 -0.117552 0
M  V30 29703 O 2846.82 3.93116 0.825989 0
M  V30 29704 N 2845.02 2.90583 -0.0316729 0
M  V30 29705 H 2844.57 2.44853 -0.80029 0
M  V30 29706 H 2844.53 3.03334 0.826782 0
M  V30 29707 N 2848.3 1.29191 0.902633 0
M  V30 29708 C 2849.25 1.1407 2.00641 0
M  V30 29709 C 2850.22 0.0348048 1.66064 0
M  V30 29710 O 2851.4 0.201785 1.8973 0
M  V30 29711 C 2848.54 0.820163 3.35212 0
M  V30 29712 C 2847.65 2.0062 3.82591 0
M  V30 29713 C 2846.79 1.62531 5.05724 0
M  V30 29714 C 2845.83 2.77733 5.45464 0
M  V30 29715 N 2844.96 2.4006 6.59785 0
M  V30 29716 H 2849.8 2.08506 2.12907 0
M  V30 29717 H 2847.34 1.03761 1.04269 0
M  V30 29718 H 2849.3 0.615021 4.12642 0
M  V30 29719 H 2847.93 -0.0872885 3.22682 0
M  V30 29720 H 2846.98 2.32314 3.01222 0
M  V30 29721 H 2848.29 2.86953 4.07994 0
M  V30 29722 H 2847.45 1.38288 5.9073 0
M  V30 29723 H 2846.19 0.733418 4.82154 0
M  V30 29724 H 2845.19 3.02662 4.58995 0
M  V30 29725 H 2846.42 3.67582 5.71017 0
M  V30 29726 H 2844.36 1.53355 6.37823 0
M  V30 29727 H 2844.28 3.19926 6.84969 0
M  V30 29728 H 2845.55 2.19129 7.48066 0
M  V30 29729 N 2849.78 -1.1126 1.1162 0
M  V30 29730 C 2850.74 -2.15538 0.779485 0
M  V30 29731 C 2851.74 -1.59525 -0.202053 0
M  V30 29732 O 2852.93 -1.74185 0.0226663 0
M  V30 29733 C 2850.06 -3.40539 0.1568 0
M  V30 29734 H 2851.25 -2.46837 1.70328 0
M  V30 29735 H 2848.81 -1.26478 0.918321 0
M  V30 29736 H 2849.54 -3.14851 -0.77713 0
M  V30 29737 H 2849.33 -3.82476 0.863375 0
M  V30 29738 H 2850.82 -4.17553 -0.0625876 0
M  V30 29739 N 2851.25 -0.906798 -1.28899 0
M  V30 29740 C 2852.48 -0.551338 -1.99938 0
M  V30 29741 C 2852.9 0.858466 -1.67368 0
M  V30 29742 O 2852.26 1.57258 -0.902204 0
M  V30 29743 C 2852.31 -0.758999 -3.52522 0
M  V30 29744 O 2851.41 0.185236 -4.11984 0
M  V30 29745 H 2850.76 -0.214579 -0.628372 0
M  V30 29746 H 2853.29 -1.22033 -1.64223 0
M  V30 29747 H 2853.3 -0.6664 -4.02521 0
M  V30 29748 H 2851.97 -1.78678 -3.75562 0
M  V30 29749 H 2850.55 0.0444922 -3.72873 0
M  V30 29750 N 2852.73 1.42648 -0.670032 0
M  V30 29751 C 2853.96 2.05646 -0.198288 0
M  V30 29752 C 2854.37 1.50404 1.14784 0
M  V30 29753 O 2853.71 0.636665 1.72314 0
M  V30 29754 C 2853.78 3.59464 -0.0507764 0
M  V30 29755 C 2853.44 4.37375 -1.32485 0
M  V30 29756 C 2854.44 4.6834 -2.25729 0
M  V30 29757 C 2852.12 4.77096 -1.57112 0
M  V30 29758 C 2854.12 5.37957 -3.41879 0
M  V30 29759 C 2851.8 5.46454 -2.73553 0
M  V30 29760 C 2852.8 5.76808 -3.65761 0
M  V30 29761 O 2852.49 6.44745 -4.80166 0
M  V30 29762 H 2852.22 0.66928 -0.0950839 0
M  V30 29763 H 2854.77 1.83855 -0.915778 0
M  V30 29764 H 2853 3.79895 0.722248 0
M  V30 29765 H 2854.69 4.04113 0.380481 0
M  V30 29766 H 2855.46 4.38157 -2.07951 0
M  V30 29767 H 2851.34 4.52866 -0.862148 0
M  V30 29768 H 2854.88 5.61566 -4.13871 0
M  V30 29769 H 2850.78 5.76055 -2.91258 0
M  V30 29770 H 2851.55 6.63234 -4.79648 0
M  V30 29771 N 2854.21 0.413044 1.52091 0
M  V30 29772 C 2855.49 -0.220206 1.94357 0
M  V30 29773 C 2855.87 -1.62274 1.35019 0
M  V30 29774 O 2855.22 -2.22327 0.52755 0
M  V30 29775 C 2855.43 -0.222577 3.4829 0
M  V30 29776 C 2856.77 -0.440024 4.22314 0
M  V30 29777 O 2857.8 -0.301763 3.54919 0
M  V30 29778 O 2856.66 -0.712889 5.4183 0
M  V30 29779 H 2853.75 -0.143026 0.814538 0
M  V30 29780 H 2856.3 0.469271 1.63083 0
M  V30 29781 H 2855.07 0.758903 3.8387 0
M  V30 29782 H 2854.69 -0.955989 3.85936 0
M  V30 29783 N 2855.69 -1.56945 0.143591 0
M  V30 29784 C 2856.92 -2.00377 -0.515412 0
M  V30 29785 C 2857.33 -1.02364 -1.58641 0
M  V30 29786 O 2856.69 -0.020136 -1.82489 0
M  V30 29787 C 2856.74 -3.43739 -1.11917 0
M  V30 29788 O 2856.46 -4.38006 -0.0909548 0
M  V30 29789 C 2857.96 -4.02432 -1.85911 0
M  V30 29790 H 2855.18 -0.657389 -0.134466 0
M  V30 29791 H 2857.73 -2.0312 0.23717 0
M  V30 29792 H 2855.88 -3.41859 -1.82239 0
M  V30 29793 H 2856.3 -5.21787 -0.532825 0
M  V30 29794 H 2857.77 -5.04751 -2.23451 0
M  V30 29795 H 2858.25 -3.42952 -2.74374 0
M  V30 29796 H 2858.85 -4.07933 -1.20296 0
M  V30 29797 N 2857.17 0.130197 -1.57061 0
M  V30 29798 C 2858.12 1.17929 -2.00488 0
M  V30 29799 C 2859.11 1.43517 -0.899959 0
M  V30 29800 O 2860.32 1.43611 -1.08516 0
M  V30 29801 H 2856.69 0.397351 -0.638448 0
M  V30 29802 H 2858.66 0.78645 -2.8785 0
M  V30 29803 C 2857.41 2.50079 -2.41569 0
M  V30 29804 H 2856.73 2.31225 -3.26152 0
M  V30 29805 H 2858.17 3.22073 -2.75763 0
M  V30 29806 C 2856.63 3.11846 -1.2749 0
M  V30 29807 O 2857.16 3.97421 -0.584758 0
M  V30 29808 N 2855.37 2.71551 -1.03482 0
M  V30 29809 H 2854.92 2.02058 -1.59782 0
M  V30 29810 H 2854.87 3.13208 -0.273465 0
M  V30 29811 N 2858.65 1.52438 0.400055 0
M  V30 29812 C 2859.58 1.79393 1.49467 0
M  V30 29813 C 2860.56 0.645357 1.57382 0
M  V30 29814 O 2861.74 0.891856 1.7251 0
M  V30 29815 C 2858.87 1.95282 2.87198 0
M  V30 29816 C 2857.83 3.10922 2.94129 0
M  V30 29817 C 2857.15 3.12047 4.34201 0
M  V30 29818 C 2858.45 4.50208 2.64783 0
M  V30 29819 H 2860.15 2.71055 1.2716 0
M  V30 29820 H 2857.69 1.30428 0.61029 0
M  V30 29821 H 2859.64 2.12721 3.63769 0
M  V30 29822 H 2858.37 1.00299 3.10818 0
M  V30 29823 H 2857.03 2.93247 2.20004 0
M  V30 29824 H 2856.68 2.14769 4.54844 0
M  V30 29825 H 2856.38 3.89723 4.39761 0
M  V30 29826 H 2857.9 3.31628 5.12694 0
M  V30 29827 H 2859.31 4.68041 3.31075 0
M  V30 29828 H 2857.71 5.29869 2.81708 0
M  V30 29829 H 2858.78 4.57681 1.60176 0
M  V30 29830 N 2860.12 -0.657839 1.43214 0
M  V30 29831 C 2861.07 -1.79214 1.48274 0
M  V30 29832 C 2862.07 -1.656 0.356779 0
M  V30 29833 O 2863.27 -1.72003 0.530565 0
M  V30 29834 H 2859.65 -0.591203 0.46474 0
M  V30 29835 H 2861.62 -1.72065 2.43795 0
M  V30 29836 C 2860.37 -3.17452 1.41843 0
M  V30 29837 H 2859.69 -3.28563 2.27786 0
M  V30 29838 H 2861.13 -3.9679 1.49445 0
M  V30 29839 C 2859.59 -3.36628 0.135406 0
M  V30 29840 O 2860.12 -3.93549 -0.80513 0
M  V30 29841 N 2858.32 -2.90562 0.0470827 0
M  V30 29842 H 2857.87 -2.44425 0.813264 0
M  V30 29843 H 2857.83 -3.03768 -0.810684 0
M  V30 29844 N 2861.6 -1.29668 -0.895769 0
M  V30 29845 C 2862.55 -1.15132 -2.00033 0
M  V30 29846 C 2863.52 -0.0436111 -1.66043 0
M  V30 29847 O 2864.7 -0.211844 -1.8962 0
M  V30 29848 C 2861.84 -0.837929 -3.34773 0
M  V30 29849 C 2860.96 -2.02646 -3.81521 0
M  V30 29850 C 2860.09 -1.6521 -5.04855 0
M  V30 29851 C 2859.13 -2.80622 -5.43983 0
M  V30 29852 N 2858.27 -2.43555 -6.58502 0
M  V30 29853 H 2863.11 -2.09632 -2.11798 0
M  V30 29854 H 2860.64 -1.04313 -1.03717 0
M  V30 29855 H 2862.6 -0.636896 -4.1231 0
M  V30 29856 H 2861.23 0.0701746 -3.22724 0
M  V30 29857 H 2860.28 -2.33908 -2.99985 0
M  V30 29858 H 2861.6 -2.89113 -4.06467 0
M  V30 29859 H 2860.75 -1.41419 -5.89988 0
M  V30 29860 H 2859.49 -0.758977 -4.81758 0
M  V30 29861 H 2858.49 -3.05091 -4.57383 0
M  V30 29862 H 2859.72 -3.70605 -5.6906 0
M  V30 29863 H 2857.67 -1.56735 -6.37001 0
M  V30 29864 H 2857.58 -3.23555 -6.83263 0
M  V30 29865 H 2858.85 -2.23093 -7.46893 0
M  V30 29866 N 2863.08 1.10667 -1.12208 0
M  V30 29867 C 2864.33 1.82576 -0.875907 0
M  V30 29868 C 2864.65 1.85069 0.59831 0
M  V30 29869 O 2863.91 1.30523 1.45816 0
M  V30 29870 C 2864.21 3.29143 -1.39282 0
M  V30 29871 C 2863.87 3.46801 -2.88166 0
M  V30 29872 C 2862.54 3.51328 -3.28819 0
M  V30 29873 C 2864.89 3.52393 -3.84017 0
M  V30 29874 C 2862.22 3.59011 -4.64034 0
M  V30 29875 C 2864.57 3.61608 -5.19059 0
M  V30 29876 C 2863.23 3.64398 -5.59258 0
M  V30 29877 H 2862.5 0.668094 -0.320517 0
M  V30 29878 H 2865.15 1.30461 -1.40186 0
M  V30 29879 H 2863.45 3.83809 -0.787275 0
M  V30 29880 H 2865.15 3.83289 -1.17858 0
M  V30 29881 H 2861.74 3.43953 -2.55723 0
M  V30 29882 H 2865.93 3.48148 -3.53704 0
M  V30 29883 H 2861.18 3.59452 -4.94575 0
M  V30 29884 H 2865.36 3.64878 -5.93158 0
M  V30 29885 H 2862.98 3.70104 -6.64023 0
M  V30 29886 N 2864.56 0.913621 1.28416 0
M  V30 29887 C 2865.51 0.392077 2.29272 0
M  V30 29888 C 2866.5 -0.51617 1.61344 0
M  V30 29889 O 2867.71 -0.397429 1.75558 0
M  V30 29890 H 2864.08 0.108191 0.744177 0
M  V30 29891 H 2866.05 1.25579 2.70689 0
M  V30 29892 C 2864.8 -0.352754 3.45906 0
M  V30 29893 H 2864.12 0.336918 3.98378 0
M  V30 29894 H 2865.56 -0.682325 4.18474 0
M  V30 29895 C 2864.02 -1.5606 2.98575 0
M  V30 29896 O 2864.55 -2.65969 3.01037 0
M  V30 29897 N 2862.76 -1.40754 2.54237 0
M  V30 29898 H 2862.31 -0.513359 2.52433 0
M  V30 29899 H 2862.26 -2.21698 2.22929 0
M  V30 29900 N 2866.04 -1.4229 0.677588 0
M  V30 29901 C 2867.45 -1.55773 0.347403 0
M  V30 29902 C 2867.65 -1.65669 -1.147 0
M  V30 29903 O 2866.71 -1.62515 -1.93249 0
M  V30 29904 C 2868.02 -2.8063 1.08016 0
M  V30 29905 C 2869.57 -2.94405 1.06276 0
M  V30 29906 C 2870.04 -4.22126 1.7769 0
M  V30 29907 N 2871.53 -4.29044 1.74572 0
M  V30 29908 C 2872.27 -5.2669 2.26683 0
M  V30 29909 N 2871.77 -6.30472 2.87187 0
M  V30 29910 N 2873.56 -5.18507 2.17041 0
M  V30 29911 H 2865.71 -1.34111 1.64706 0
M  V30 29912 H 2867.97 -0.645755 0.694049 0
M  V30 29913 H 2867.68 -2.79465 2.13523 0
M  V30 29914 H 2867.55 -3.71607 0.64718 0
M  V30 29915 H 2869.94 -2.95096 0.0160177 0
M  V30 29916 H 2870.02 -2.04651 1.53465 0
M  V30 29917 H 2869.66 -4.22196 2.82334 0
M  V30 29918 H 2869.59 -5.1082 1.27949 0
M  V30 29919 H 2872.09 -3.54673 1.30443 0
M  V30 29920 H 2872.4 -7.0134 3.24564 0
M  V30 29921 H 2870.74 -6.31026 2.91258 0
M  V30 29922 H 2873.93 -4.3635 1.69459 0
M  V30 29923 H 2874.11 -5.94442 2.57959 0
M  V30 29924 N 2867.51 -0.421104 -1.5187 0
M  V30 29925 C 2868.48 0.386672 -2.25915 0
M  V30 29926 C 2869.48 0.963532 -1.28735 0
M  V30 29927 O 2870.67 0.840529 -1.5258 0
M  V30 29928 C 2867.8 1.54546 -3.03856 0
M  V30 29929 H 2868.99 -0.262031 -2.98753 0
M  V30 29930 H 2866.54 -0.173889 -1.5533 0
M  V30 29931 H 2867.28 2.23068 -2.35396 0
M  V30 29932 H 2867.06 1.13817 -3.75217 0
M  V30 29933 H 2868.55 2.11657 -3.59988 0
M  V30 29934 N 2868.99 1.56866 -0.151912 0
M  V30 29935 C 2870.22 2.01082 0.508009 0
M  V30 29936 C 2870.64 1.03136 1.57304 0
M  V30 29937 O 2870 0.00786277 1.81298 0
M  V30 29938 C 2870.05 3.44016 1.081 0
M  V30 29939 O 2869.15 3.49088 2.19571 0
M  V30 29940 H 2868.49 0.652367 0.123745 0
M  V30 29941 H 2871.02 2.03066 -0.250091 0
M  V30 29942 H 2871.03 3.82919 1.40844 0
M  V30 29943 H 2869.71 4.14809 0.301095 0
M  V30 29944 H 2868.29 3.22031 1.88017 0
M  V30 29945 N 2870.47 -0.121866 1.57128 0
M  V30 29946 C 2871.4 -1.15089 2.03167 0
M  V30 29947 C 2872.38 -1.43355 0.915612 0
M  V30 29948 O 2873.57 -1.53845 1.18513 0
M  V30 29949 C 2870.7 -2.4778 2.43357 0
M  V30 29950 C 2869.65 -2.33982 3.5838 0
M  V30 29951 C 2868.98 -3.7161 3.84461 0
M  V30 29952 C 2870.28 -1.80274 4.90203 0
M  V30 29953 H 2871.97 -0.767972 2.89383 0
M  V30 29954 H 2869.52 -0.367973 1.39219 0
M  V30 29955 H 2871.47 -3.20015 2.74169 0
M  V30 29956 H 2870.19 -2.87955 1.54108 0
M  V30 29957 H 2868.85 -1.64196 3.27773 0
M  V30 29958 H 2868.5 -4.09266 2.92422 0
M  V30 29959 H 2868.2 -3.63232 4.61883 0
M  V30 29960 H 2869.72 -4.45354 4.17722 0
M  V30 29961 H 2871.14 -2.42324 5.19569 0
M  V30 29962 H 2869.54 -1.82725 5.71605 0
M  V30 29963 H 2870.61 -0.7601 4.78906 0
M  V30 29964 N 2871.95 -1.52648 -0.391965 0
M  V30 29965 C 2873.36 -1.41833 -0.731823 0
M  V30 29966 C 2873.56 -0.536395 -1.94229 0
M  V30 29967 O 2872.62 -0.0087101 -2.52498 0
M  V30 29968 C 2873.93 -2.84636 -0.969693 0
M  V30 29969 C 2875.48 -2.94094 -1.07135 0
M  V30 29970 C 2875.96 -4.37902 -1.34187 0
M  V30 29971 N 2877.45 -4.41213 -1.41015 0
M  V30 29972 C 2878.18 -5.49564 -1.63606 0
M  V30 29973 N 2877.68 -6.68005 -1.83687 0
M  V30 29974 N 2879.47 -5.37103 -1.65761 0
M  V30 29975 H 2871.62 -2.08511 0.404584 0
M  V30 29976 H 2873.89 -0.940526 0.118806 0
M  V30 29977 H 2873.59 -3.5137 -0.152403 0
M  V30 29978 H 2873.47 -3.26712 -1.88518 0
M  V30 29979 H 2875.85 -2.2753 -1.87921 0
M  V30 29980 H 2875.93 -2.5545 -0.133842 0
M  V30 29981 H 2875.58 -5.05031 -0.539118 0
M  V30 29982 H 2875.51 -4.74096 -2.29217 0
M  V30 29983 H 2878 -3.55843 -1.27216 0
M  V30 29984 H 2878.31 -7.46358 -2.00424 0
M  V30 29985 H 2876.66 -6.71039 -1.80918 0
M  V30 29986 H 2879.85 -4.43543 -1.49622 0
M  V30 29987 H 2880.02 -6.21615 -1.83027 0
M  V30 29988 N 2873.43 0.650235 -1.43561 0
M  V30 29989 C 2874.36 1.77568 -1.44921 0
M  V30 29990 C 2875.37 1.59103 -0.344953 0
M  V30 29991 O 2876.56 1.67769 -0.609567 0
M  V30 29992 C 2873.66 3.15037 -1.2492 0
M  V30 29993 C 2872.83 3.60134 -2.48239 0
M  V30 29994 C 2871.89 4.76415 -2.23418 0
M  V30 29995 O 2870.92 4.85701 -2.96788 0
M  V30 29996 N 2872.12 5.66823 -1.25269 0
M  V30 29997 H 2874.89 1.76879 -2.41938 0
M  V30 29998 H 2872.45 0.834177 -1.38756 0
M  V30 29999 H 2874.44 3.90519 -1.06192 0
M  V30 30000 H 2873.01 3.10481 -0.363374 0
M  V30 30001 H 2872.23 2.75064 -2.82371 0
M  V30 30002 H 2873.52 3.87011 -3.30303 0
M  V30 30003 H 2872.91 5.61995 -0.646345 0
M  V30 30004 H 2871.47 6.42014 -1.12525 0
M  V30 30005 N 2874.9 1.30141 0.88888 0
M  V30 30006 C 2876.15 1.18106 1.63505 0
M  V30 30007 C 2876.47 -0.264107 1.93809 0
M  V30 30008 O 2877.67 -0.505919 2.66745 0
M  V30 30009 C 2876.13 2.06636 2.94669 0
M  V30 30010 C 2875.74 3.56039 2.7192 0
M  V30 30011 C 2877.48 2.03353 3.72623 0
M  V30 30012 C 2875.39 4.36637 3.98876 0
M  V30 30013 H 2874.32 0.438445 0.613418 0
M  V30 30014 H 2876.97 1.54861 0.9844 0
M  V30 30015 H 2875.35 1.6276 3.61006 0
M  V30 30016 H 2876.52 4.08037 2.14109 0
M  V30 30017 H 2874.84 3.61104 2.07347 0
M  V30 30018 H 2877.44 2.60824 4.66771 0
M  V30 30019 H 2877.78 1.01607 4.0371 0
M  V30 30020 H 2878.31 2.45329 3.13143 0
M  V30 30021 H 2875.05 5.39063 3.7295 0
M  V30 30022 H 2874.57 3.89404 4.56207 0
M  V30 30023 H 2876.25 4.47867 4.66931 0
M  V30 30024 N 2876.38 -1.1007 1.12794 0
M  V30 30025 C 2877.63 -1.82109 0.885577 0
M  V30 30026 C 2877.96 -1.85384 -0.588487 0
M  V30 30027 O 2877.21 -1.31294 -1.45122 0
M  V30 30028 C 2877.51 -3.284 1.41025 0
M  V30 30029 C 2877.18 -3.45268 2.90001 0
M  V30 30030 C 2875.84 -3.4958 3.30677 0
M  V30 30031 C 2878.19 -3.50351 3.8588 0
M  V30 30032 C 2875.52 -3.56545 4.65932 0
M  V30 30033 C 2877.87 -3.5885 5.2097 0
M  V30 30034 C 2876.54 -3.61427 5.61183 0
M  V30 30035 H 2875.81 -0.666385 0.324056 0
M  V30 30036 H 2878.45 -1.29716 1.40876 0
M  V30 30037 H 2876.76 -3.83386 0.807618 0
M  V30 30038 H 2878.45 -3.82659 1.19889 0
M  V30 30039 H 2875.04 -3.42592 2.57543 0
M  V30 30040 H 2879.23 -3.46267 3.55546 0
M  V30 30041 H 2874.48 -3.56824 4.96474 0
M  V30 30042 H 2878.66 -3.61727 5.95085 0
M  V30 30043 H 2876.29 -3.66577 6.65977 0
M  V30 30044 N 2877.86 -0.920419 -1.2793 0
M  V30 30045 C 2879.14 -0.475721 -1.89727 0
M  V30 30046 C 2879.52 1.04584 -1.83372 0
M  V30 30047 O 2878.87 1.89683 -1.27408 0
M  V30 30048 C 2879.08 -1.0136 -3.33957 0
M  V30 30049 C 2880.42 -1.0697 -4.10905 0
M  V30 30050 O 2881.45 -0.962707 -3.42944 0
M  V30 30051 O 2880.31 -1.23352 -5.32397 0
M  V30 30052 H 2877.4 -0.151859 -0.812938 0
M  V30 30053 H 2879.95 -1.01164 -1.3625 0
M  V30 30054 H 2878.72 -2.05752 -3.32839 0
M  V30 30055 H 2878.34 -0.458898 -3.94943 0
M  V30 30056 N 2879.34 1.41929 -0.685124 0
M  V30 30057 C 2880.58 2.01689 -0.212007 0
M  V30 30058 C 2880.92 1.54096 1.18186 0
M  V30 30059 O 2880.19 0.747604 1.79558 0
M  V30 30060 C 2880.48 3.59174 -0.258083 0
M  V30 30061 C 2880.33 4.16919 -1.68814 0
M  V30 30062 C 2881.65 4.38387 0.387967 0
M  V30 30063 H 2878.77 0.732806 -0.0785116 0
M  V30 30064 H 2881.41 1.68815 -0.871867 0
M  V30 30065 H 2879.56 3.87311 0.303764 0
M  V30 30066 H 2881.23 3.99697 -2.30303 0
M  V30 30067 H 2879.47 3.72357 -2.2256 0
M  V30 30068 H 2880.14 5.26069 -1.67199 0
M  V30 30069 H 2882.62 4.16002 -0.0904163 0
M  V30 30070 H 2881.5 5.47936 0.325136 0
M  V30 30071 H 2881.76 4.17046 1.46713 0
M  V30 30072 N 2880.82 0.429152 1.51644 0
M  V30 30073 C 2881.78 -0.374686 2.26117 0
M  V30 30074 C 2882.78 -0.956691 1.29244 0
M  V30 30075 O 2883.97 -0.832425 1.53024 0
M  V30 30076 C 2881.1 -1.52932 3.04671 0
M  V30 30077 H 2882.29 0.277871 2.9861 0
M  V30 30078 H 2879.85 0.182124 1.55235 0
M  V30 30079 H 2880.58 -2.21817 2.36575 0
M  V30 30080 H 2880.37 -1.11826 3.75816 0
M  V30 30081 H 2881.86 -2.09745 3.61105 0
M  V30 30082 N 2882.29 -1.56783 0.160229 0
M  V30 30083 C 2883.71 -1.83228 -0.358384 0
M  V30 30084 C 2884.06 -1.07955 -1.6383 0
M  V30 30085 O 2883.18 -0.329032 -2.13884 0
M  V30 30086 C 2883.78 -3.32369 -0.657 0
M  V30 30087 C 2882.34 -3.59348 -1.12009 0
M  V30 30088 C 2881.48 -2.76893 -0.150102 0
M  V30 30089 H 2884.43 -1.53967 0.384696 0
M  V30 30090 H 2884.45 -3.49244 -1.51027 0
M  V30 30091 H 2883.97 -3.87126 0.274715 0
M  V30 30092 H 2882.07 -3.0999 -2.06729 0
M  V30 30093 H 2882.18 -4.67744 -1.03692 0
M  V30 30094 H 2880.54 -2.46389 -0.645318 0
M  V30 30095 H 2881.33 -3.34428 0.775438 0
M  V30 30096 N 2883.77 0.113531 -1.57191 0
M  V30 30097 C 2885.02 0.818952 -1.84326 0
M  V30 30098 C 2885.34 1.80786 -0.746717 0
M  V30 30099 O 2886.54 2.55985 -0.904641 0
M  V30 30100 C 2885 1.50718 -3.26821 0
M  V30 30101 C 2884.61 0.558987 -4.44499 0
M  V30 30102 C 2886.35 2.19742 -3.63199 0
M  V30 30103 C 2884.26 1.25076 -5.78023 0
M  V30 30104 H 2883.19 0.309584 -0.687513 0
M  V30 30105 H 2885.84 0.0717299 -1.8336 0
M  V30 30106 H 2884.22 2.30122 -3.22273 0
M  V30 30107 H 2885.39 -0.202227 -4.60356 0
M  V30 30108 H 2883.71 -0.0245681 -4.16393 0
M  V30 30109 H 2886.31 2.72198 -4.60231 0
M  V30 30110 H 2886.65 2.97793 -2.90904 0
M  V30 30111 H 2887.18 1.4722 -3.69555 0
M  V30 30112 H 2883.92 0.511424 -6.53502 0
M  V30 30113 H 2883.44 1.98385 -5.66042 0
M  V30 30114 H 2885.12 1.78242 -6.21964 0
M  V30 30115 N 2885.25 1.52854 0.383864 0
M  V30 30116 C 2886.16 1.80928 1.49339 0
M  V30 30117 C 2887.18 0.696376 1.59457 0
M  V30 30118 O 2888.35 0.984512 1.75697 0
M  V30 30119 C 2885.42 1.97689 2.84815 0
M  V30 30120 C 2884.48 3.21603 2.84377 0
M  V30 30121 C 2883.71 3.37555 4.13391 0
M  V30 30122 O 2883.94 2.58201 5.08614 0
M  V30 30123 O 2882.87 4.30833 4.20317 0
M  V30 30124 H 2886.7 2.75154 1.28545 0
M  V30 30125 H 2884.28 1.38008 0.572204 0
M  V30 30126 H 2886.16 2.10391 3.65121 0
M  V30 30127 H 2884.84 1.06653 3.05625 0
M  V30 30128 H 2883.74 3.14339 2.02834 0
M  V30 30129 H 2885.08 4.12503 2.68519 0
M  V30 30130 N 2886.73 -0.642612 1.43904 0
M  V30 30131 C 2887.66 -1.76649 1.527 0
M  V30 30132 C 2888.64 -1.65782 0.380845 0
M  V30 30133 O 2889.83 -1.84716 0.599464 0
M  V30 30134 C 2886.96 -3.1513 1.45981 0
M  V30 30135 C 2885.91 -3.40773 2.58955 0
M  V30 30136 C 2885.24 -4.79165 2.37288 0
M  V30 30137 C 2886.54 -3.34468 4.01159 0
M  V30 30138 H 2888.23 -1.69545 2.46769 0
M  V30 30139 H 2885.78 -0.814258 1.18768 0
M  V30 30140 H 2887.73 -3.93518 1.50737 0
M  V30 30141 H 2886.45 -3.22991 0.484219 0
M  V30 30142 H 2885.11 -2.64761 2.53569 0
M  V30 30143 H 2884.76 -4.83714 1.37947 0
M  V30 30144 H 2884.46 -4.97282 3.13025 0
M  V30 30145 H 2885.98 -5.59797 2.43844 0
M  V30 30146 H 2887.4 -4.02777 4.07975 0
M  V30 30147 H 2885.79 -3.64121 4.77007 0
M  V30 30148 H 2886.86 -2.32468 4.25543 0
M  V30 30149 N 2888.21 -1.30611 -0.881966 0
M  V30 30150 C 2889.12 -1.19178 -2.02074 0
M  V30 30151 C 2890.13 -0.11105 -1.73645 0
M  V30 30152 O 2891.31 -0.326563 -1.98735 0
M  V30 30153 C 2888.37 -0.887496 -3.35148 0
M  V30 30154 C 2887.44 -2.0539 -3.76979 0
M  V30 30155 C 2886.67 -1.76404 -5.03704 0
M  V30 30156 O 2886.89 -0.693401 -5.6617 0
M  V30 30157 O 2885.83 -2.61733 -5.42014 0
M  V30 30158 H 2889.65 -2.14849 -2.14648 0
M  V30 30159 H 2887.24 -1.10233 -1.00841 0
M  V30 30160 H 2889.12 -0.733133 -4.14974 0
M  V30 30161 H 2887.79 0.0392785 -3.23676 0
M  V30 30162 H 2886.7 -2.2636 -2.97845 0
M  V30 30163 H 2888.03 -2.9625 -3.93061 0
M  V30 30164 N 2889.69 1.0947 -1.13376 0
M  V30 30165 C 2890.63 2.18184 -0.806143 0
M  V30 30166 C 2891.63 1.68077 0.21133 0
M  V30 30167 O 2892.83 1.7987 0.0685242 0
M  V30 30168 H 2889.21 0.711686 -0.242913 0
M  V30 30169 H 2891.18 2.43048 -1.73119 0
M  V30 30170 C 2889.93 3.46505 -0.287989 0
M  V30 30171 H 2889.25 3.8543 -1.06224 0
M  V30 30172 H 2890.69 4.23889 -0.0971799 0
M  V30 30173 C 2889.15 3.22142 0.986199 0
M  V30 30174 O 2889.68 3.44732 2.06211 0
M  V30 30175 N 2887.89 2.75749 0.917104 0
M  V30 30176 H 2887.43 2.57567 0.0414157 0
M  V30 30177 H 2887.39 2.59826 1.77025 0
M  V30 30178 N 2891.16 0.92719 1.2744 0
M  V30 30179 C 2892.11 0.424499 2.26863 0
M  V30 30180 C 2893.08 -0.508319 1.58131 0
M  V30 30181 O 2894.27 -0.427587 1.85947 0
M  V30 30182 C 2891.41 -0.317119 3.4364 0
M  V30 30183 C 2890.52 0.64975 4.27086 0
M  V30 30184 C 2889.65 -0.11166 5.31083 0
M  V30 30185 C 2888.69 0.847949 6.06198 0
M  V30 30186 N 2887.83 0.119198 7.01999 0
M  V30 30187 H 2892.67 1.27732 2.69237 0
M  V30 30188 H 2890.21 0.64113 1.32393 0
M  V30 30189 H 2892.16 -0.763413 4.10156 0
M  V30 30190 H 2890.79 -1.13419 3.02219 0
M  V30 30191 H 2889.85 1.21457 3.60489 0
M  V30 30192 H 2891.16 1.38315 4.79239 0
M  V30 30193 H 2890.31 -0.617894 6.03545 0
M  V30 30194 H 2889.05 -0.87803 4.79731 0
M  V30 30195 H 2888.06 1.36544 5.32575 0
M  V30 30196 H 2889.28 1.61409 6.59639 0
M  V30 30197 H 2887.23 -0.628936 6.52978 0
M  V30 30198 H 2887.14 0.792178 7.51838 0
M  V30 30199 H 2888.41 -0.3664 7.78638 0
M  V30 30200 N 2892.64 -1.41564 0.692641 0
M  V30 30201 C 2893.89 -2.01275 0.22237 0
M  V30 30202 C 2894.22 -1.54842 -1.17703 0
M  V30 30203 O 2893.47 -0.74915 -1.80793 0
M  V30 30204 C 2893.77 -3.5669 0.225136 0
M  V30 30205 C 2893.44 -4.22622 1.57166 0
M  V30 30206 C 2892.1 -4.40347 1.9403 0
M  V30 30207 C 2894.45 -4.59618 2.45766 0
M  V30 30208 C 2891.78 -4.92343 3.19085 0
M  V30 30209 C 2894.13 -5.13003 3.7015 0
M  V30 30210 C 2892.79 -5.28939 4.07161 0
M  V30 30211 H 2892.06 -0.736519 0.0813711 0
M  V30 30212 H 2894.71 -1.69501 0.891153 0
M  V30 30213 H 2893.02 -3.88237 -0.527191 0
M  V30 30214 H 2894.71 -4.00696 -0.156212 0
M  V30 30215 H 2891.3 -4.09199 1.27493 0
M  V30 30216 H 2895.49 -4.45581 2.18566 0
M  V30 30217 H 2890.74 -5.02866 3.47758 0
M  V30 30218 H 2894.92 -5.4061 4.38992 0
M  V30 30219 H 2892.54 -5.68992 5.04135 0
M  V30 30220 N 2894.12 -0.437188 -1.51415 0
M  V30 30221 C 2895.35 0.128008 -2.06504 0
M  V30 30222 C 2895.76 1.36473 -1.30463 0
M  V30 30223 O 2895.12 1.7883 -0.364158 0
M  V30 30224 C 2895.17 0.450374 -3.58684 0
M  V30 30225 O 2894.89 -0.737262 -4.31852 0
M  V30 30226 C 2896.39 1.06626 -4.30286 0
M  V30 30227 H 2893.61 0.0079909 -0.670952 0
M  V30 30228 H 2896.16 -0.616227 -1.94995 0
M  V30 30229 H 2894.31 1.14451 -3.70108 0
M  V30 30230 H 2894.73 -0.461439 -5.22466 0
M  V30 30231 H 2896.2 1.24182 -5.3785 0
M  V30 30232 H 2896.68 2.04723 -3.88568 0
M  V30 30233 H 2897.28 0.41151 -4.23304 0
M  V30 30234 N 2895.6 1.56696 -0.168541 0
M  V30 30235 C 2897.01 1.83415 0.348662 0
M  V30 30236 C 2897.36 1.08823 1.63255 0
M  V30 30237 O 2896.48 0.34037 2.13706 0
M  V30 30238 C 2897.08 3.32712 0.639365 0
M  V30 30239 C 2895.64 3.59937 1.10102 0
M  V30 30240 C 2894.79 2.76969 0.135415 0
M  V30 30241 H 2897.74 1.53761 -0.392856 0
M  V30 30242 H 2897.76 3.5004 1.49173 0
M  V30 30243 H 2897.27 3.86975 -0.295241 0
M  V30 30244 H 2895.37 3.11082 2.05082 0
M  V30 30245 H 2895.48 4.68288 1.0121 0
M  V30 30246 H 2893.85 2.46728 0.632242 0
M  V30 30247 H 2894.63 3.34012 -0.793162 0
M  V30 30248 N 2897.08 -0.105193 1.57249 0
M  V30 30249 C 2898.01 -1.12927 2.04376 0
M  V30 30250 C 2898.99 -1.42375 0.930765 0
M  V30 30251 O 2900.17 -1.52579 1.20138 0
M  V30 30252 C 2897.3 -2.45185 2.45971 0
M  V30 30253 C 2896.26 -2.30168 3.60842 0
M  V30 30254 C 2895.58 -3.67511 3.88381 0
M  V30 30255 C 2896.88 -1.75065 4.92087 0
M  V30 30256 H 2898.58 -0.737236 2.90181 0
M  V30 30257 H 2896.12 -0.353187 1.39602 0
M  V30 30258 H 2898.07 -3.17089 2.77548 0
M  V30 30259 H 2896.8 -2.86305 1.57153 0
M  V30 30260 H 2895.46 -1.6071 3.29496 0
M  V30 30261 H 2895.11 -4.06141 2.96746 0
M  V30 30262 H 2894.81 -3.58313 4.6571 0
M  V30 30263 H 2896.33 -4.40899 4.22422 0
M  V30 30264 H 2897.74 -2.36799 5.2211 0
M  V30 30265 H 2896.14 -1.76652 5.7351 0
M  V30 30266 H 2897.21 -0.709263 4.79685 0
M  V30 30267 N 2898.55 -1.53055 -0.375752 0
M  V30 30268 C 2899.78 -1.72942 -1.14481 0
M  V30 30269 C 2900.2 -0.4527 -1.82571 0
M  V30 30270 O 2899.56 0.592537 -1.71344 0
M  V30 30271 C 2899.61 -2.88861 -2.15852 0
M  V30 30272 O 2898.71 -2.56759 -3.22721 0
M  V30 30273 H 2898.06 -0.574662 -0.332656 0
M  V30 30274 H 2900.59 -1.99901 -0.43599 0
M  V30 30275 H 2900.6 -3.14736 -2.59625 0
M  V30 30276 H 2899.27 -3.81474 -1.65683 0
M  V30 30277 H 2897.85 -2.41668 -2.83991 0
M  V30 30278 N 2900.03 0.634971 -1.44242 0
M  V30 30279 C 2901.28 1.39667 -1.47041 0
M  V30 30280 C 2901.61 1.93936 -0.101157 0
M  V30 30281 O 2900.89 1.7342 0.880669 0
M  V30 30282 C 2901.17 2.56478 -2.52767 0
M  V30 30283 C 2901.02 2.07582 -3.99036 0
M  V30 30284 C 2902.34 3.5867 -2.55037 0
M  V30 30285 H 2899.46 0.506496 -0.535379 0
M  V30 30286 H 2902.1 0.718286 -1.759 0
M  V30 30287 H 2900.25 3.1435 -2.2829 0
M  V30 30288 H 2901.92 1.5457 -4.34633 0
M  V30 30289 H 2900.17 1.38797 -4.10996 0
M  V30 30290 H 2900.84 2.91662 -4.68655 0
M  V30 30291 H 2903.31 3.1059 -2.76899 0
M  V30 30292 H 2902.19 4.37928 -3.30924 0
M  V30 30293 H 2902.45 4.12483 -1.59092 0
M  V30 30294 N 2901.51 1.31076 0.875027 0
M  V30 30295 C 2902.42 1.20248 2.01439 0
M  V30 30296 C 2903.44 0.120258 1.73584 0
M  V30 30297 O 2904.61 0.337098 1.98559 0
M  V30 30298 C 2901.68 0.905258 3.34673 0
M  V30 30299 C 2900.74 2.07386 3.75885 0
M  V30 30300 C 2899.97 1.79073 5.02761 0
M  V30 30301 O 2900.19 0.723417 5.65794 0
M  V30 30302 O 2899.13 2.64604 5.40619 0
M  V30 30303 H 2902.95 2.15984 2.13506 0
M  V30 30304 H 2900.54 1.10767 1.00255 0
M  V30 30305 H 2902.42 0.75513 4.14579 0
M  V30 30306 H 2901.1 -0.0221126 3.23692 0
M  V30 30307 H 2900 2.27937 2.96641 0
M  V30 30308 H 2901.34 2.9833 3.91484 0
M  V30 30309 N 2902.99 -1.08867 1.13955 0
M  V30 30310 C 2904.21 -1.85451 0.928592 0
M  V30 30311 C 2904.64 -1.80838 -0.51761 0
M  V30 30312 O 2904 -1.19003 -1.36777 0
M  V30 30313 C 2904.04 -3.31111 1.4282 0
M  V30 30314 O 2903.15 -4.07755 0.617201 0
M  V30 30315 H 2902.49 -0.574833 0.33236 0
M  V30 30316 H 2905.02 -1.3744 1.51563 0
M  V30 30317 H 2905.03 -3.81957 1.43432 0
M  V30 30318 H 2903.7 -3.33784 2.48115 0
M  V30 30319 H 2902.28 -3.66658 0.67943 0
M  V30 30320 N 2904.47 -0.933936 -1.26946 0
M  V30 30321 C 2905.69 -0.594175 -1.98185 0
M  V30 30322 C 2906.11 0.829228 -1.69615 0
M  V30 30323 O 2905.47 1.55195 -0.960241 0
M  V30 30324 C 2905.52 -0.818088 -3.52122 0
M  V30 30325 O 2905.24 -2.1855 -3.79694 0
M  V30 30326 C 2906.74 -0.487887 -4.40607 0
M  V30 30327 H 2903.96 -0.22458 -0.632301 0
M  V30 30328 H 2906.5 -1.25266 -1.61643 0
M  V30 30329 H 2904.66 -0.206314 -3.8685 0
M  V30 30330 H 2905.07 -2.24013 -4.74256 0
M  V30 30331 H 2906.55 -0.695222 -5.47604 0
M  V30 30332 H 2907.02 0.576837 -4.35395 0
M  V30 30333 H 2907.63 -1.07807 -4.11409 0
M  V30 30334 N 2905.94 1.41194 -0.700139 0
M  V30 30335 C 2907.36 1.84154 -0.307281 0
M  V30 30336 C 2907.71 1.58574 1.15537 0
M  V30 30337 O 2906.83 1.05856 1.88742 0
M  V30 30338 C 2907.43 3.34291 -0.550931 0
M  V30 30339 C 2905.99 3.75803 -0.211943 0
M  V30 30340 C 2905.13 2.64557 -0.830961 0
M  V30 30341 H 2908.08 1.30681 -0.900454 0
M  V30 30342 H 2908.1 3.80031 0.188887 0
M  V30 30343 H 2907.62 3.52877 -1.61554 0
M  V30 30344 H 2905.72 3.62817 0.848219 0
M  V30 30345 H 2905.83 4.7439 -0.670153 0
M  V30 30346 H 2904.19 2.53367 -0.260199 0
M  V30 30347 H 2904.98 2.8596 -1.89953 0
M  V30 30348 N 2907.42 0.445212 1.51181 0
M  V30 30349 C 2908.67 -0.118785 2.02452 0
M  V30 30350 C 2909 -1.41671 1.32827 0
M  V30 30351 O 2908.28 -1.89325 0.44567 0
M  V30 30352 C 2908.56 -0.329412 3.5859 0
M  V30 30353 C 2908.41 0.987715 4.38821 0
M  V30 30354 C 2909.73 -1.09567 4.26243 0
M  V30 30355 H 2906.85 -0.0416963 0.73582 0
M  V30 30356 H 2909.49 0.585749 1.80746 0
M  V30 30357 H 2907.64 -0.929534 3.77216 0
M  V30 30358 H 2909.31 1.62242 4.31828 0
M  V30 30359 H 2907.56 1.59048 4.03592 0
M  V30 30360 H 2908.23 0.794288 5.46255 0
M  V30 30361 H 2910.7 -0.587255 4.11935 0
M  V30 30362 H 2909.58 -1.21182 5.35356 0
M  V30 30363 H 2909.84 -2.12577 3.87638 0
M  V30 30364 N 2908.9 -1.56605 0.176849 0
M  V30 30365 C 2909.81 -2.21823 -0.763643 0
M  V30 30366 C 2910.83 -1.21158 -1.24887 0
M  V30 30367 O 2912 -1.53838 -1.29984 0
M  V30 30368 C 2909.07 -2.85053 -1.97347 0
M  V30 30369 C 2908.13 -4.00935 -1.53459 0
M  V30 30370 C 2907.36 -4.6114 -2.68674 0
M  V30 30371 O 2907.58 -4.2024 -3.85687 0
M  V30 30372 O 2906.52 -5.50918 -2.42432 0
M  V30 30373 H 2910.34 -3.02764 -0.23831 0
M  V30 30374 H 2907.93 -1.49311 -0.0516069 0
M  V30 30375 H 2909.81 -3.25124 -2.6809 0
M  V30 30376 H 2908.49 -2.07105 -2.48775 0
M  V30 30377 H 2907.39 -3.65523 -0.796487 0
M  V30 30378 H 2908.73 -4.80492 -1.06716 0
M  V30 30379 N 2910.38 0.0968524 -1.57302 0
M  V30 30380 C 2911.79 0.651565 -1.74961 0
M  V30 30381 C 2912.14 1.79204 -0.798777 0
M  V30 30382 O 2911.27 2.16388 0.0231478 0
M  V30 30383 C 2911.86 1.18873 -3.17261 0
M  V30 30384 C 2910.42 1.68952 -3.36351 0
M  V30 30385 C 2909.57 0.598365 -2.70767 0
M  V30 30386 H 2912.52 -0.129208 -1.58173 0
M  V30 30387 H 2912.54 2.05808 -3.20036 0
M  V30 30388 H 2912.05 0.358455 -3.86441 0
M  V30 30389 H 2910.15 2.54385 -2.72248 0
M  V30 30390 H 2910.26 1.78372 -4.44657 0
M  V30 30391 H 2908.63 1.03739 -2.32616 0
M  V30 30392 H 2909.41 -0.221298 -3.42586 0
M  V30 30393 N 2911.86 1.53252 0.36763 0
M  V30 30394 C 2913.27 1.61045 0.944535 0
M  V30 30395 C 2913.62 0.476579 1.90324 0
M  V30 30396 O 2912.74 -0.397296 2.12722 0
M  V30 30397 C 2913.34 2.91901 1.71987 0
M  V30 30398 C 2911.9 3.02035 2.24614 0
M  V30 30399 C 2911.04 2.56326 1.05795 0
M  V30 30400 H 2914 1.58022 0.146489 0
M  V30 30401 H 2914.02 2.79588 2.5809 0
M  V30 30402 H 2913.53 3.74406 1.02185 0
M  V30 30403 H 2911.63 2.24114 2.97664 0
M  V30 30404 H 2911.74 4.07077 2.52636 0
M  V30 30405 H 2910.11 2.11152 1.42432 0
M  V30 30406 H 2910.89 3.41246 0.374948 0
M  V30 30407 N 2913.34 -0.627313 1.44577 0
M  V30 30408 C 2914.56 -1.41391 1.5105 0
M  V30 30409 C 2914.98 -1.88305 0.136601 0
M  V30 30410 O 2914.34 -1.61061 -0.858223 0
M  V30 30411 C 2914.39 -2.63167 2.47841 0
M  V30 30412 O 2914.11 -2.18208 3.79891 0
M  V30 30413 C 2915.61 -3.56252 2.63817 0
M  V30 30414 H 2912.83 -0.433491 0.512179 0
M  V30 30415 H 2915.37 -0.766844 1.89578 0
M  V30 30416 H 2913.53 -3.23957 2.12439 0
M  V30 30417 H 2913.94 -2.97185 4.32182 0
M  V30 30418 H 2915.42 -4.38295 3.35562 0
M  V30 30419 H 2915.89 -4.0531 1.69176 0
M  V30 30420 H 2916.5 -3.01328 3.00136 0
M  V30 30421 N 2914.81 -1.31539 -0.868063 0
M  V30 30422 C 2916.06 -1.21513 -1.62365 0
M  V30 30423 C 2916.39 0.225786 -1.92883 0
M  V30 30424 O 2915.67 1.15925 -1.56178 0
M  V30 30425 C 2915.95 -2.06134 -2.95264 0
M  V30 30426 C 2915.8 -3.58534 -2.71612 0
M  V30 30427 C 2917.12 -1.91219 -3.96388 0
M  V30 30428 H 2914.24 -0.442772 -0.58917 0
M  V30 30429 H 2916.88 -1.61348 -1.00333 0
M  V30 30430 H 2915.03 -1.7229 -3.48207 0
M  V30 30431 H 2916.71 -4.02524 -2.25327 0
M  V30 30432 H 2914.95 -3.8187 -2.05811 0
M  V30 30433 H 2915.62 -4.13053 -3.66185 0
M  V30 30434 H 2918.1 -2.2084 -3.5266 0
M  V30 30435 H 2916.97 -2.52726 -4.87258 0
M  V30 30436 H 2917.23 -0.876029 -4.33334 0
M  V30 30437 N 2916.29 1.08262 -1.1453 0
M  V30 30438 C 2917.57 1.7734 -0.825216 0
M  V30 30439 C 2917.95 1.99814 0.681002 0
M  V30 30440 O 2917.3 1.60914 1.62231 0
M  V30 30441 C 2917.51 3.08828 -1.62561 0
M  V30 30442 C 2918.85 3.83335 -1.82592 0
M  V30 30443 O 2919.88 3.18614 -1.59259 0
M  V30 30444 O 2918.74 4.99552 -2.21607 0
M  V30 30445 H 2915.83 0.769673 -0.302544 0
M  V30 30446 H 2918.38 1.14711 -1.25058 0
M  V30 30447 H 2917.15 2.8803 -2.64867 0
M  V30 30448 H 2916.77 3.79186 -1.19597 0
M  V30 30449 N 2917.77 0.940655 1.26449 0
M  V30 30450 C 2919.02 0.588814 1.94064 0
M  V30 30451 C 2919.35 -0.869822 1.73631 0
M  V30 30452 O 2918.62 -1.62223 1.07302 0
M  V30 30453 C 2918.91 0.93126 3.4785 0
M  V30 30454 C 2918.76 2.4446 3.7757 0
M  V30 30455 C 2920.08 0.446306 4.37831 0
M  V30 30456 H 2917.2 0.215392 0.704823 0
M  V30 30457 H 2919.84 1.17478 1.49328 0
M  V30 30458 H 2917.99 0.432607 3.86084 0
M  V30 30459 H 2919.66 3.01594 3.49054 0
M  V30 30460 H 2917.9 2.8883 3.23666 0
M  V30 30461 H 2918.58 2.63472 4.85063 0
M  V30 30462 H 2921.05 0.873849 4.06821 0
M  V30 30463 H 2919.93 0.714744 5.44227 0
M  V30 30464 H 2920.19 -0.653738 4.3724 0
M  V30 30465 N 2919.25 -1.40821 0.707617 0
M  V30 30466 C 2920.49 -2.01326 0.244067 0
M  V30 30467 C 2920.83 -1.55957 -1.1572 0
M  V30 30468 O 2920.1 -0.776075 -1.78346 0
M  V30 30469 C 2920.38 -3.58718 0.315191 0
M  V30 30470 C 2920.24 -4.14181 1.75426 0
M  V30 30471 C 2921.56 -4.38948 -0.318174 0
M  V30 30472 H 2918.68 -0.731464 0.09016 0
M  V30 30473 H 2921.32 -1.67407 0.898614 0
M  V30 30474 H 2919.47 -3.87745 -0.242108 0
M  V30 30475 H 2921.14 -3.95983 2.36633 0
M  V30 30476 H 2919.38 -3.68769 2.28456 0
M  V30 30477 H 2920.05 -5.23342 1.75547 0
M  V30 30478 H 2922.53 -4.15805 0.156587 0
M  V30 30479 H 2921.41 -5.48384 -0.237923 0
M  V30 30480 H 2921.67 -4.19328 -1.40059 0
M  V30 30481 N 2920.73 -0.453223 -1.50943 0
M  V30 30482 C 2921.69 0.338665 -2.26684 0
M  V30 30483 C 2922.69 0.936009 -1.3075 0
M  V30 30484 O 2923.88 0.807975 -1.54329 0
M  V30 30485 C 2921.01 1.48066 -3.07066 0
M  V30 30486 H 2922.2 -0.325342 -2.9813 0
M  V30 30487 H 2919.76 -0.206798 -1.54926 0
M  V30 30488 H 2920.49 2.18025 -2.40074 0
M  V30 30489 H 2920.28 1.05833 -3.77547 0
M  V30 30490 H 2921.77 2.03973 -3.64396 0
M  V30 30491 N 2922.2 1.56509 -0.185151 0
M  V30 30492 C 2923.13 2.21628 0.735059 0
M  V30 30493 C 2924.11 1.17622 1.22878 0
M  V30 30494 O 2925.3 1.46097 1.27942 0
M  V30 30495 C 2922.43 2.86787 1.95884 0
M  V30 30496 C 2921.38 3.96951 1.60043 0
M  V30 30497 C 2920.71 4.49225 2.90001 0
M  V30 30498 C 2922.01 5.15856 0.817917 0
M  V30 30499 H 2923.7 2.98782 0.192221 0
M  V30 30500 H 2921.25 1.43712 0.0910141 0
M  V30 30501 H 2923.2 3.31022 2.60773 0
M  V30 30502 H 2921.93 2.07023 2.52605 0
M  V30 30503 H 2920.59 3.53392 0.975174 0
M  V30 30504 H 2920.23 3.66236 3.4479 0
M  V30 30505 H 2919.93 5.23553 2.66769 0
M  V30 30506 H 2921.46 4.96156 3.55896 0
M  V30 30507 H 2922.87 5.56698 1.36969 0
M  V30 30508 H 2921.27 5.96188 0.684102 0
M  V30 30509 H 2922.34 4.84554 -0.183024 0
M  V30 30510 N 2923.68 -0.0885089 1.57351 0
M  V30 30511 C 2924.61 -1.13326 1.99223 0
M  V30 30512 C 2925.63 -1.35943 0.895729 0
M  V30 30513 O 2926.82 -1.34479 1.17379 0
M  V30 30514 C 2923.92 -2.48752 2.30165 0
M  V30 30515 C 2923.09 -2.46321 3.61448 0
M  V30 30516 C 2922.15 -3.63725 3.8025 0
M  V30 30517 O 2921.17 -3.45916 4.5203 0
M  V30 30518 N 2922.38 -4.83454 3.21329 0
M  V30 30519 H 2925.14 -0.776811 2.89458 0
M  V30 30520 H 2922.7 -0.2774 1.59506 0
M  V30 30521 H 2924.69 -3.25907 2.39931 0
M  V30 30522 H 2923.26 -2.76461 1.45904 0
M  V30 30523 H 2922.48 -1.54666 3.62591 0
M  V30 30524 H 2923.77 -2.41781 4.47682 0
M  V30 30525 H 2923.17 -5.00828 2.63036 0
M  V30 30526 H 2921.73 -5.58179 3.3657 0
M  V30 30527 N 2925.16 -1.53445 -0.359498 0
M  V30 30528 C 2926.09 -1.76604 -1.46095 0
M  V30 30529 C 2927.1 -0.646939 -1.49394 0
M  V30 30530 O 2928.29 -0.923334 -1.52764 0
M  V30 30531 C 2925.39 -1.8364 -2.84832 0
M  V30 30532 C 2924.57 -3.13364 -3.05159 0
M  V30 30533 C 2923.63 -3.11563 -4.24046 0
M  V30 30534 O 2922.65 -3.85342 -4.18928 0
M  V30 30535 N 2923.85 -2.32809 -5.31771 0
M  V30 30536 H 2926.62 -2.71646 -1.26605 0
M  V30 30537 H 2924.18 -1.52298 -0.549267 0
M  V30 30538 H 2926.17 -1.79906 -3.62513 0
M  V30 30539 H 2924.74 -0.958562 -2.97541 0
M  V30 30540 H 2923.96 -3.30351 -2.15085 0
M  V30 30541 H 2925.25 -3.99082 -3.15612 0
M  V30 30542 H 2924.65 -1.7239 -5.38793 0
M  V30 30543 H 2923.2 -2.34888 -6.08006 0
M  V30 30544 N 2926.64 0.619637 -1.44908 0
M  V30 30545 C 2927.55 1.75952 -1.55171 0
M  V30 30546 C 2928.56 1.6843 -0.43675 0
M  V30 30547 O 2929.74 1.89001 -0.695738 0
M  V30 30548 C 2926.8 3.12378 -1.50403 0
M  V30 30549 C 2925.87 3.31446 -2.72841 0
M  V30 30550 C 2925.1 4.61363 -2.68291 0
M  V30 30551 O 2925.32 5.42911 -1.74939 0
M  V30 30552 O 2924.26 4.82882 -3.59316 0
M  V30 30553 H 2928.08 1.70246 -2.51496 0
M  V30 30554 H 2925.67 0.782266 -1.27283 0
M  V30 30555 H 2927.55 3.93682 -1.50308 0
M  V30 30556 H 2926.22 3.18602 -0.572253 0
M  V30 30557 H 2925.13 2.49776 -2.78501 0
M  V30 30558 H 2926.46 3.30091 -3.65104 0
M  V30 30559 N 2928.12 1.31997 0.861075 0
M  V30 30560 C 2929.05 1.14727 1.97264 0
M  V30 30561 C 2930.03 0.0484074 1.62528 0
M  V30 30562 O 2931.21 0.206511 1.87365 0
M  V30 30563 C 2928.34 0.754919 3.3018 0
M  V30 30564 C 2927.38 1.8581 3.83897 0
M  V30 30565 S 2928.22 3.46522 4.08268 0
M  V30 30566 C 2929.37 3.09244 5.44168 0
M  V30 30567 H 2929.61 2.08826 2.11611 0
M  V30 30568 H 2927.14 1.16584 1.0123 0
M  V30 30569 H 2929.1 0.535304 4.06995 0
M  V30 30570 H 2927.76 -0.1671 3.13655 0
M  V30 30571 H 2926.95 1.53642 4.80011 0
M  V30 30572 H 2926.55 2.03324 3.13904 0
M  V30 30573 H 2928.85 2.5869 6.26168 0
M  V30 30574 H 2929.79 4.04355 5.81294 0
M  V30 30575 H 2930.2 2.4644 5.07866 0
M  V30 30576 N 2929.59 -1.07653 1.15103 0
M  V30 30577 C 2930.82 -1.83916 0.947763 0
M  V30 30578 C 2931.24 -1.81951 -0.503895 0
M  V30 30579 O 2930.59 -1.22873 -1.34939 0
M  V30 30580 C 2930.65 -3.3113 1.45035 0
M  V30 30581 O 2930.37 -3.33141 2.84514 0
M  V30 30582 C 2931.87 -4.24172 1.28814 0
M  V30 30583 H 2929.09 -0.580352 0.336797 0
M  V30 30584 H 2931.63 -1.35912 1.52801 0
M  V30 30585 H 2929.79 -3.76495 0.912698 0
M  V30 30586 H 2930.2 -4.25095 3.07237 0
M  V30 30587 H 2931.67 -5.25548 1.68829 0
M  V30 30588 H 2932.15 -4.38587 0.231928 0
M  V30 30589 H 2932.76 -3.8464 1.81472 0
M  V30 30590 N 2931.07 -0.947348 -1.25949 0
M  V30 30591 C 2932.32 -0.593921 -1.92758 0
M  V30 30592 C 2932.63 0.872062 -1.75084 0
M  V30 30593 O 2933.84 1.33513 -2.36403 0
M  V30 30594 C 2932.3 -1.0115 -3.45394 0
M  V30 30595 C 2931.9 -2.49952 -3.7179 0
M  V30 30596 C 2933.65 -0.730259 -4.18172 0
M  V30 30597 C 2931.56 -2.85548 -5.17896 0
M  V30 30598 H 2930.49 -0.218415 -0.721672 0
M  V30 30599 H 2933.14 -1.15082 -1.42928 0
M  V30 30600 H 2931.52 -0.383076 -3.94143 0
M  V30 30601 H 2932.69 -3.17751 -3.33722 0
M  V30 30602 H 2931.01 -2.75471 -3.12258 0
M  V30 30603 H 2933.6 -0.972459 -5.25783 0
M  V30 30604 H 2933.95 0.33315 -4.14965 0
M  V30 30605 H 2934.48 -1.31869 -3.75307 0
M  V30 30606 H 2931.22 -3.90877 -5.26209 0
M  V30 30607 H 2930.74 -2.22416 -5.57038 0
M  V30 30608 H 2932.42 -2.74346 -5.85955 0
M  V30 30609 N 2932.55 1.40444 -0.715075 0
M  V30 30610 C 2933.8 2.01194 -0.25474 0
M  V30 30611 C 2934.13 1.56569 1.14891 0
M  V30 30612 O 2933.4 0.785522 1.77932 0
M  V30 30613 C 2933.69 3.58546 -0.334211 0
M  V30 30614 C 2933.54 4.13245 -1.7762 0
M  V30 30615 C 2934.86 4.39111 0.294891 0
M  V30 30616 H 2931.98 0.730976 -0.0940379 0
M  V30 30617 H 2934.62 1.66928 -0.907479 0
M  V30 30618 H 2932.77 3.87868 0.221541 0
M  V30 30619 H 2934.44 3.94722 -2.3873 0
M  V30 30620 H 2932.69 3.67552 -2.30408 0
M  V30 30621 H 2933.36 5.22404 -1.7832 0
M  V30 30622 H 2935.83 4.15716 -0.178636 0
M  V30 30623 H 2934.71 5.48503 0.208838 0
M  V30 30624 H 2934.97 4.20065 1.37834 0
M  V30 30625 N 2934.03 0.461222 1.507 0
M  V30 30626 C 2934.98 -0.338054 2.28311 0
M  V30 30627 C 2935.95 -0.995933 1.3293 0
M  V30 30628 O 2937.13 -1.01027 1.61859 0
M  V30 30629 C 2934.27 -1.41977 3.14542 0
M  V30 30630 C 2933.38 -0.777655 4.24943 0
M  V30 30631 C 2932.52 -1.83643 4.98446 0
M  V30 30632 C 2931.56 -1.17403 6.00735 0
M  V30 30633 N 2930.69 -2.17522 6.67554 0
M  V30 30634 H 2935.53 0.330103 2.96166 0
M  V30 30635 H 2933.07 0.174637 1.4606 0
M  V30 30636 H 2935.03 -2.05848 3.62881 0
M  V30 30637 H 2933.66 -2.05723 2.48753 0
M  V30 30638 H 2932.71 -0.0266256 3.80391 0
M  V30 30639 H 2934.02 -0.254275 4.98151 0
M  V30 30640 H 2933.18 -2.55119 5.50454 0
M  V30 30641 H 2931.92 -2.3936 4.24921 0
M  V30 30642 H 2930.92 -0.444848 5.47997 0
M  V30 30643 H 2932.15 -0.623887 6.76228 0
M  V30 30644 H 2930.09 -2.72274 5.96827 0
M  V30 30645 H 2930.01 -1.70142 7.36606 0
M  V30 30646 H 2931.28 -2.88408 7.24183 0
M  V30 30647 N 2935.51 -1.56408 0.193449 0
M  V30 30648 C 2936.75 -1.99431 -0.447942 0
M  V30 30649 C 2937.11 -1.07753 -1.58913 0
M  V30 30650 O 2938.31 -1.40006 -2.2946 0
M  V30 30651 C 2936.58 -3.45938 -0.897869 0
M  V30 30652 S 2938.14 -4.10989 -1.53733 0
M  V30 30653 H 2934.96 -0.696409 -0.143304 0
M  V30 30654 H 2937.56 -1.93244 0.296127 0
M  V30 30655 H 2936.27 -4.1036 -0.0572206 0
M  V30 30656 H 2935.8 -3.55939 -1.67544 0
M  V30 30657 H 2937.81 -4.07859 -2.82605 0
M  V30 30658 N 2936.98 0.0801629 -1.57396 0
M  V30 30659 C 2937.93 1.09614 -2.03109 0
M  V30 30660 C 2938.9 1.38945 -0.910142 0
M  V30 30661 O 2940.09 1.50154 -1.17721 0
M  V30 30662 C 2937.23 2.40703 -2.47297 0
M  V30 30663 C 2936.34 2.17975 -3.72976 0
M  V30 30664 C 2935.47 3.42569 -4.05981 0
M  V30 30665 C 2934.51 3.15168 -5.24724 0
M  V30 30666 N 2933.65 4.32069 -5.53409 0
M  V30 30667 H 2938.49 0.699339 -2.89678 0
M  V30 30668 H 2936.03 0.33376 -1.43264 0
M  V30 30669 H 2937.99 3.17227 -2.70966 0
M  V30 30670 H 2936.62 2.78202 -1.63718 0
M  V30 30671 H 2935.67 1.32183 -3.56696 0
M  V30 30672 H 2936.98 1.9373 -4.59641 0
M  V30 30673 H 2936.13 4.27493 -4.30505 0
M  V30 30674 H 2934.87 3.69882 -3.17866 0
M  V30 30675 H 2933.88 2.28639 -5.00004 0
M  V30 30676 H 2935.1 2.89186 -6.1445 0
M  V30 30677 H 2933.05 4.59429 -4.68253 0
M  V30 30678 H 2932.97 4.11067 -6.34476 0
M  V30 30679 H 2934.23 5.18014 -5.82479 0
M  V30 30680 N 2938.46 1.53634 0.351355 0
M  V30 30681 C 2939.71 1.70167 1.09031 0
M  V30 30682 C 2940.03 0.463456 1.89412 0
M  V30 30683 O 2939.3 -0.522591 1.88801 0
M  V30 30684 H 2937.88 0.627351 0.405511 0
M  V30 30685 H 2940.54 1.90865 0.39452 0
M  V30 30686 H 2939.64 2.5691 1.7721 0
M  V30 30687 N 2939.94 -0.611943 1.45234 0
M  V30 30688 C 2940.87 -1.73371 1.56413 0
M  V30 30689 C 2941.85 -1.64937 0.415925 0
M  V30 30690 O 2943.04 -1.83403 0.63851 0
M  V30 30691 C 2940.17 -3.11963 1.52632 0
M  V30 30692 C 2939.12 -3.35204 2.66125 0
M  V30 30693 C 2938.45 -4.74024 2.47398 0
M  V30 30694 C 2939.75 -3.25884 4.08163 0
M  V30 30695 H 2941.44 -1.64272 2.5031 0
M  V30 30696 H 2938.99 -0.788882 1.20468 0
M  V30 30697 H 2940.94 -3.90232 1.5905 0
M  V30 30698 H 2939.66 -3.21891 0.552621 0
M  V30 30699 H 2938.32 -2.59323 2.59128 0
M  V30 30700 H 2937.97 -4.80679 1.48177 0
M  V30 30701 H 2937.67 -4.9053 3.23503 0
M  V30 30702 H 2939.19 -5.54499 2.55663 0
M  V30 30703 H 2940.61 -3.94033 4.16427 0
M  V30 30704 H 2939.01 -3.53921 4.84623 0
M  V30 30705 H 2940.08 -2.23389 4.30378 0
M  V30 30706 N 2941.42 -1.32452 -0.854063 0
M  V30 30707 C 2942.37 -1.21394 -1.98409 0
M  V30 30708 C 2943.36 -0.118616 -1.68984 0
M  V30 30709 O 2944.57 -0.28158 -1.77784 0
M  V30 30710 H 2940.94 -0.376312 -0.651071 0
M  V30 30711 H 2942.91 -2.16965 -2.04863 0
M  V30 30712 C 2941.66 -0.954466 -3.34343 0
M  V30 30713 H 2940.98 -1.7895 -3.57515 0
M  V30 30714 H 2942.42 -0.917341 -4.13958 0
M  V30 30715 C 2940.88 0.342779 -3.35152 0
M  V30 30716 O 2941.41 1.35446 -3.78176 0
M  V30 30717 N 2939.62 0.364961 -2.88299 0
M  V30 30718 H 2939.17 -0.458845 -2.53481 0
M  V30 30719 H 2939.12 1.23279 -2.89223 0
M  V30 30720 N 2942.9 1.07041 -1.15672 0
M  V30 30721 C 2943.84 2.14324 -0.856374 0
M  V30 30722 C 2944.81 1.64986 0.192022 0
M  V30 30723 O 2946 1.90709 0.0588813 0
M  V30 30724 C 2943.14 3.43266 -0.355288 0
M  V30 30725 C 2942.25 4.06379 -1.46562 0
M  V30 30726 C 2941.39 5.23167 -0.920337 0
M  V30 30727 C 2940.43 5.78247 -2.00739 0
M  V30 30728 N 2939.56 6.86361 -1.47825 0
M  V30 30729 H 2944.4 2.39356 -1.77518 0
M  V30 30730 H 2941.94 1.17447 -0.885696 0
M  V30 30731 H 2943.9 4.17174 -0.0464537 0
M  V30 30732 H 2942.53 3.18476 0.526593 0
M  V30 30733 H 2941.58 3.30093 -1.89058 0
M  V30 30734 H 2942.89 4.4332 -2.28624 0
M  V30 30735 H 2942.05 6.04071 -0.564233 0
M  V30 30736 H 2940.79 4.87651 -0.0689335 0
M  V30 30737 H 2939.79 4.95986 -2.37229 0
M  V30 30738 H 2941.02 6.15817 -2.86263 0
M  V30 30739 H 2938.96 6.52779 -0.64926 0
M  V30 30740 H 2938.88 7.22204 -2.23511 0
M  V30 30741 H 2940.15 7.70963 -1.15049 0
M  V30 30742 N 2944.38 0.954014 1.25445 0
M  V30 30743 C 2945.79 0.649286 1.75046 0
M  V30 30744 C 2946.14 -0.835354 1.77528 0
M  V30 30745 O 2945.26 -1.65374 1.39572 0
M  V30 30746 C 2945.86 1.17189 3.17887 0
M  V30 30747 C 2944.42 0.917331 3.65051 0
M  V30 30748 C 2943.56 1.31529 2.44122 0
M  V30 30749 H 2946.51 1.13089 1.1134 0
M  V30 30750 H 2946.54 0.531682 3.76767 0
M  V30 30751 H 2946.05 2.25244 3.16049 0
M  V30 30752 H 2944.15 -0.148288 3.72305 0
M  V30 30753 H 2944.26 1.55336 4.53219 0
M  V30 30754 H 2942.63 0.733667 2.43905 0
M  V30 30755 H 2943.41 2.40505 2.44974 0
M  V30 30756 N 2945.85 -1.40063 0.722513 0
M  V30 30757 C 2947.1 -2.00758 0.265014 0
M  V30 30758 C 2947.43 -1.57304 -1.14393 0
M  V30 30759 O 2946.68 -0.78733 -1.79164 0
M  V30 30760 C 2946.98 -3.56132 0.300745 0
M  V30 30761 C 2946.65 -4.19194 1.66095 0
M  V30 30762 C 2945.31 -4.36133 2.03327 0
M  V30 30763 C 2947.66 -4.54301 2.5546 0
M  V30 30764 C 2944.99 -4.85464 3.29456 0
M  V30 30765 C 2947.34 -5.05036 3.80948 0
M  V30 30766 C 2946.01 -5.20183 4.18289 0
M  V30 30767 H 2945.28 -0.734627 0.0969754 0
M  V30 30768 H 2947.92 -1.67573 0.926906 0
M  V30 30769 H 2946.23 -3.89268 -0.444722 0
M  V30 30770 H 2947.93 -4.00937 -0.0711837 0
M  V30 30771 H 2944.52 -4.06402 1.36144 0
M  V30 30772 H 2948.7 -4.40845 2.27968 0
M  V30 30773 H 2943.96 -4.95376 3.58347 0
M  V30 30774 H 2948.13 -5.31176 4.50361 0
M  V30 30775 H 2945.76 -5.5817 5.16091 0
M  V30 30776 N 2947.33 -0.469207 -1.50453 0
M  V30 30777 C 2948.58 0.0865615 -2.02615 0
M  V30 30778 C 2948.91 1.3954 -1.35064 0
M  V30 30779 O 2948.19 1.88592 -0.475734 0
M  V30 30780 C 2948.47 0.272322 -3.59069 0
M  V30 30781 C 2948.32 -1.0574 -4.37195 0
M  V30 30782 C 2949.64 1.02772 -4.27932 0
M  V30 30783 H 2946.76 0.0299848 -0.73639 0
M  V30 30784 H 2949.4 -0.61443 -1.79791 0
M  V30 30785 H 2947.55 0.869404 -3.78647 0
M  V30 30786 H 2949.22 -1.69092 -4.29192 0
M  V30 30787 H 2947.47 -1.65449 -4.0101 0
M  V30 30788 H 2948.14 -0.881092 -5.44923 0
M  V30 30789 H 2950.61 0.521646 -4.12817 0
M  V30 30790 H 2949.49 1.12649 -5.37216 0
M  V30 30791 H 2949.75 2.06383 -3.90971 0
M  V30 30792 N 2948.81 1.56303 -0.201741 0
M  V30 30793 C 2949.76 2.19398 0.71646 0
M  V30 30794 C 2950.73 1.14328 1.20492 0
M  V30 30795 O 2951.91 1.42606 1.2676 0
M  V30 30796 C 2949.05 2.8625 1.92757 0
M  V30 30797 C 2948.16 4.05862 1.47986 0
M  V30 30798 C 2947.3 4.60552 2.64698 0
M  V30 30799 C 2946.34 5.72508 2.16566 0
M  V30 30800 N 2945.48 6.21575 3.2648 0
M  V30 30801 H 2950.32 2.97505 0.171672 0
M  V30 30802 H 2947.85 1.46919 0.0729902 0
M  V30 30803 H 2949.81 3.23183 2.63835 0
M  V30 30804 H 2948.44 2.10695 2.44556 0
M  V30 30805 H 2947.49 3.74548 0.664704 0
M  V30 30806 H 2948.8 4.86817 1.08678 0
M  V30 30807 H 2947.96 4.99825 3.43889 0
M  V30 30808 H 2946.7 3.78719 3.07284 0
M  V30 30809 H 2945.7 5.32757 1.35831 0
M  V30 30810 H 2946.93 6.56164 1.75003 0
M  V30 30811 H 2944.87 5.42662 3.68584 0
M  V30 30812 H 2944.79 6.97599 2.91361 0
M  V30 30813 H 2946.06 6.65503 4.05865 0
M  V30 30814 N 2950.29 -0.0718147 1.57436 0
M  V30 30815 C 2951.56 -0.803974 1.78313 0
M  V30 30816 C 2951.94 -1.95789 0.789308 0
M  V30 30817 O 2951.29 -2.27809 -0.177564 0
M  V30 30818 C 2951.5 -1.27694 3.248 0
M  V30 30819 C 2952.85 -1.71033 3.8863 0
M  V30 30820 O 2953.87 -1.3726 3.28691 0
M  V30 30821 O 2952.73 -2.33559 4.94078 0
M  V30 30822 H 2949.83 -0.38525 0.731787 0
M  V30 30823 H 2952.37 -0.0518921 1.69621 0
M  V30 30824 H 2951.15 -0.451272 3.88689 0
M  V30 30825 H 2950.77 -2.09034 3.38217 0
M  V30 30826 N 2951.77 -1.53818 -0.343203 0
M  V30 30827 C 2952.71 -1.82529 -1.44173 0
M  V30 30828 C 2953.71 -0.695799 -1.54451 0
M  V30 30829 O 2954.91 -0.879142 -1.5707 0
M  V30 30830 H 2951.29 -0.578285 -0.480719 0
M  V30 30831 H 2953.26 -2.74433 -1.17171 0
M  V30 30832 C 2952.01 -2.05202 -2.80691 0
M  V30 30833 H 2951.33 -2.91566 -2.73549 0
M  V30 30834 H 2952.77 -2.29257 -3.56675 0
M  V30 30835 C 2951.23 -0.837646 -3.26321 0
M  V30 30836 O 2951.76 -0.0372337 -4.01683 0
M  V30 30837 N 2949.97 -0.654773 -2.83127 0
M  V30 30838 H 2949.51 -1.30729 -2.21963 0
M  V30 30839 H 2949.47 0.156289 -3.14011 0
M  V30 30840 N 2953.24 0.604233 -1.45557 0
M  V30 30841 C 2954.49 1.36516 -1.4997 0
M  V30 30842 C 2954.82 1.93678 -0.142271 0
M  V30 30843 O 2954.1 1.75249 0.843686 0
M  V30 30844 C 2954.38 2.51058 -2.58151 0
M  V30 30845 C 2954.23 1.99071 -4.03349 0
M  V30 30846 C 2955.55 3.5318 -2.62588 0
M  V30 30847 H 2952.67 0.495026 -0.546002 0
M  V30 30848 H 2955.31 0.680813 -1.77384 0
M  V30 30849 H 2953.46 3.09437 -2.34906 0
M  V30 30850 H 2955.14 1.45316 -4.37814 0
M  V30 30851 H 2953.38 1.30048 -4.13848 0
M  V30 30852 H 2954.05 2.81656 -4.74736 0
M  V30 30853 H 2956.53 3.04647 -2.83424 0
M  V30 30854 H 2955.4 4.3081 -3.40138 0
M  V30 30855 H 2955.66 4.09016 -1.67805 0
M  V30 30856 N 2954.72 1.32903 0.847027 0
M  V30 30857 C 2955.95 1.27059 1.63923 0
M  V30 30858 C 2956.37 -0.157103 1.87443 0
M  V30 30859 O 2955.73 -1.11103 1.43268 0
M  V30 30860 C 2955.78 2.04318 2.9713 0
M  V30 30861 O 2954.88 1.3962 3.88046 0
M  V30 30862 H 2954.22 0.437523 0.49947 0
M  V30 30863 H 2956.75 1.75338 1.0544 0
M  V30 30864 H 2956.76 2.14778 3.46892 0
M  V30 30865 H 2955.44 3.08133 2.79333 0
M  V30 30866 H 2954.01 1.37756 3.46522 0
M  V30 30867 N 2956.2 -1.06426 1.16238 0
M  V30 30868 C 2957.45 -1.792 0.943065 0
M  V30 30869 C 2957.77 -1.87162 -0.52921 0
M  V30 30870 O 2957.03 -1.35845 -1.40871 0
M  V30 30871 C 2957.33 -3.23747 1.51402 0
M  V30 30872 C 2956.99 -3.35867 3.00839 0
M  V30 30873 C 2955.66 -3.38882 3.41632 0
M  V30 30874 C 2958.01 -3.37897 3.96831 0
M  V30 30875 C 2955.34 -3.41542 4.77039 0
M  V30 30876 C 2957.69 -3.42094 5.32122 0
M  V30 30877 C 2956.35 -3.43391 5.72398 0
M  V30 30878 H 2955.62 -0.655738 0.345092 0
M  V30 30879 H 2958.27 -1.25168 1.44932 0
M  V30 30880 H 2956.57 -3.80622 0.92918 0
M  V30 30881 H 2958.27 -3.78651 1.32002 0
M  V30 30882 H 2954.86 -3.34225 2.68312 0
M  V30 30883 H 2959.05 -3.3478 3.66382 0
M  V30 30884 H 2954.3 -3.40849 5.07575 0
M  V30 30885 H 2958.48 -3.42612 6.06292 0
M  V30 30886 H 2956.1 -3.45204 6.77302 0
M  V30 30887 N 2957.68 -0.960653 -1.24937 0
M  V30 30888 C 2958.92 -0.619614 -1.93103 0
M  V30 30889 C 2959.26 0.842089 -1.74993 0
M  V30 30890 O 2958.53 1.60496 -1.0987 0
M  V30 30891 C 2958.82 -0.986483 -3.46324 0
M  V30 30892 C 2958.67 -2.50436 -3.73633 0
M  V30 30893 C 2959.99 -0.515904 -4.37066 0
M  V30 30894 H 2957.11 -0.226578 -0.701307 0
M  V30 30895 H 2959.75 -1.19839 -1.4744 0
M  V30 30896 H 2957.9 -0.493975 -3.85347 0
M  V30 30897 H 2959.57 -3.07109 -3.44212 0
M  V30 30898 H 2957.81 -2.93943 -3.1903 0
M  V30 30899 H 2958.48 -2.71156 -4.8081 0
M  V30 30900 H 2960.96 -0.938461 -4.05379 0
M  V30 30901 H 2959.84 -0.801235 -5.43021 0
M  V30 30902 H 2960.1 0.584094 -4.38225 0
M  V30 30903 N 2959.16 1.39677 -0.729931 0
M  V30 30904 C 2960.12 2.29002 -0.095207 0
M  V30 30905 C 2961.12 1.46064 0.672446 0
M  V30 30906 O 2962.31 1.66804 0.502216 0
M  V30 30907 C 2959.44 3.29491 0.874573 0
M  V30 30908 H 2960.63 2.86634 -0.882112 0
M  V30 30909 H 2958.19 1.4824 -0.49545 0
M  V30 30910 H 2958.92 2.76905 1.68802 0
M  V30 30911 H 2958.71 3.90736 0.326825 0
M  V30 30912 H 2960.2 3.96342 1.31541 0
M  V30 30913 N 2960.63 0.47718 1.50202 0
M  V30 30914 C 2961.91 -0.137575 1.95116 0
M  V30 30915 C 2962.29 -1.56402 1.41781 0
M  V30 30916 O 2961.64 -2.19889 0.621372 0
M  V30 30917 C 2961.85 -0.0746555 3.4892 0
M  V30 30918 C 2963.2 -0.26051 4.238 0
M  V30 30919 O 2964.22 -0.150958 3.5588 0
M  V30 30920 O 2963.08 -0.482438 5.44366 0
M  V30 30921 H 2960.17 -0.10835 0.819872 0
M  V30 30922 H 2962.72 0.538017 1.60946 0
M  V30 30923 H 2961.49 0.921033 3.80306 0
M  V30 30924 H 2961.12 -0.79144 3.89643 0
M  V30 30925 N 2962.11 -1.56194 0.210027 0
M  V30 30926 C 2963.39 -1.8979 -0.473181 0
M  V30 30927 C 2963.77 -1.12573 -1.78579 0
M  V30 30928 O 2963.12 -0.231438 -2.27325 0
M  V30 30929 C 2963.33 -3.42363 -0.677397 0
M  V30 30930 C 2964.68 -4.12896 -0.990041 0
M  V30 30931 O 2965.7 -3.47897 -0.764594 0
M  V30 30932 O 2964.56 -5.27802 -1.41728 0
M  V30 30933 H 2961.65 -0.788748 -0.248608 0
M  V30 30934 H 2964.2 -1.67828 0.251354 0
M  V30 30935 H 2962.97 -3.90507 0.248947 0
M  V30 30936 H 2962.59 -3.70066 -1.45384 0
M  V30 30937 N 2963.59 0.0634645 -1.57472 0
M  V30 30938 C 2964.82 0.777526 -1.92274 0
M  V30 30939 C 2965.24 1.69901 -0.807171 0
M  V30 30940 O 2964.6 1.79711 0.239491 0
M  V30 30941 C 2964.65 1.54011 -3.26057 0
M  V30 30942 O 2963.75 2.65133 -3.15877 0
M  V30 30943 H 2963.09 0.211568 -0.629393 0
M  V30 30944 H 2965.62 0.0292164 -2.04579 0
M  V30 30945 H 2965.63 1.91756 -3.6013 0
M  V30 30946 H 2964.31 0.864057 -4.06825 0
M  V30 30947 H 2962.88 2.30184 -2.93377 0
M  V30 30948 N 2965.07 1.53998 0.33504 0
M  V30 30949 C 2966.32 1.71314 1.0722 0
M  V30 30950 C 2966.64 0.483519 1.8891 0
M  V30 30951 O 2965.91 -0.502537 1.89345 0
M  V30 30952 H 2964.49 0.631617 0.398834 0
M  V30 30953 H 2967.15 1.91273 0.374254 0
M  V30 30954 H 2966.25 2.58775 1.74475 0
M  V30 30955 N 2966.55 -0.596505 1.45875 0
M  V30 30956 C 2967.77 -1.38155 1.54015 0
M  V30 30957 C 2968.19 -1.87973 0.176513 0
M  V30 30958 O 2967.55 -1.62846 -0.823866 0
M  V30 30959 C 2967.6 -2.57851 2.53368 0
M  V30 30960 O 2967.32 -2.10101 3.84434 0
M  V30 30961 C 2968.82 -3.50576 2.71314 0
M  V30 30962 H 2966.04 -0.422529 0.521258 0
M  V30 30963 H 2968.58 -0.72646 1.91162 0
M  V30 30964 H 2966.74 -3.19378 2.19263 0
M  V30 30965 H 2967.15 -2.87951 4.38389 0
M  V30 30966 H 2968.63 -4.31078 3.44783 0
M  V30 30967 H 2969.1 -4.0163 1.77735 0
M  V30 30968 H 2969.71 -2.94894 3.0646 0
M  V30 30969 N 2968.02 -1.3335 -0.839967 0
M  V30 30970 C 2969.44 -1.22218 -1.41137 0
M  V30 30971 C 2969.79 0.159364 -1.95552 0
M  V30 30972 O 2968.91 1.0589 -1.88723 0
M  V30 30973 C 2969.51 -2.21274 -2.56561 0
M  V30 30974 C 2968.07 -2.13985 -3.09657 0
M  V30 30975 C 2967.21 -2.08821 -1.82453 0
M  V30 30976 H 2970.16 -1.44965 -0.645828 0
M  V30 30977 H 2970.18 -1.81982 -3.3416 0
M  V30 30978 H 2969.7 -3.21815 -2.16926 0
M  V30 30979 H 2967.8 -1.16742 -3.53839 0
M  V30 30980 H 2967.91 -3.04479 -3.69905 0
M  V30 30981 H 2966.27 -1.5428 -2.02657 0
M  V30 30982 H 2967.06 -3.11168 -1.45016 0
M  V30 30983 N 2969.5 1.05808 -1.16801 0
M  V30 30984 C 2970.75 1.78962 -0.953967 0
M  V30 30985 C 2971.08 1.87203 0.516605 0
M  V30 30986 O 2970.36 1.36724 1.38336 0
M  V30 30987 C 2970.64 3.23188 -1.58813 0
M  V30 30988 C 2970.49 3.22997 -3.13038 0
M  V30 30989 C 2971.81 4.20865 -1.28688 0
M  V30 30990 H 2968.93 0.649674 -0.347983 0
M  V30 30991 H 2971.57 1.23712 -1.44206 0
M  V30 30992 H 2969.72 3.70366 -1.17309 0
M  V30 30993 H 2971.39 2.83943 -3.63558 0
M  V30 30994 H 2969.64 2.61512 -3.46113 0
M  V30 30995 H 2970.31 4.24763 -3.52534 0
M  V30 30996 H 2972.78 3.82152 -1.64617 0
M  V30 30997 H 2971.66 5.20035 -1.75654 0
M  V30 30998 H 2971.92 4.41617 -0.206569 0
M  V30 30999 N 2970.98 0.967265 1.24426 0
M  V30 31000 C 2972.23 0.629846 1.92771 0
M  V30 31001 C 2972.56 -0.832797 1.75437 0
M  V30 31002 O 2971.83 -1.59911 1.10719 0
M  V30 31003 C 2972.12 1.00484 3.45796 0
M  V30 31004 C 2971.97 2.52414 3.723 0
M  V30 31005 C 2973.29 0.539076 4.36786 0
M  V30 31006 H 2970.41 0.230294 0.700095 0
M  V30 31007 H 2973.05 1.20619 1.46803 0
M  V30 31008 H 2971.2 0.514404 3.85079 0
M  V30 31009 H 2972.87 3.0893 3.42578 0
M  V30 31010 H 2971.12 2.95631 3.17466 0
M  V30 31011 H 2971.79 2.73702 4.79366 0
M  V30 31012 H 2974.26 0.959946 4.04876 0
M  V30 31013 H 2973.14 0.830022 5.42588 0
M  V30 31014 H 2973.4 -0.560846 4.38528 0
M  V30 31015 N 2972.46 -1.39288 0.737328 0
M  V30 31016 C 2973.37 -2.34385 0.100505 0
M  V30 31017 C 2974.39 -1.58438 -0.719254 0
M  V30 31018 O 2975.56 -1.90718 -0.647182 0
M  V30 31019 C 2972.63 -3.37479 -0.794266 0
M  V30 31020 C 2971.69 -4.29283 0.03801 0
M  V30 31021 C 2970.92 -5.27454 -0.814149 0
M  V30 31022 O 2971.14 -5.32181 -2.05279 0
M  V30 31023 O 2970.08 -6.01415 -0.241574 0
M  V30 31024 H 2973.9 -2.90505 0.885458 0
M  V30 31025 H 2971.49 -1.40855 0.498024 0
M  V30 31026 H 2973.37 -4.00647 -1.30615 0
M  V30 31027 H 2972.05 -2.8374 -1.55799 0
M  V30 31028 H 2970.95 -3.6933 0.59547 0
M  V30 31029 H 2972.29 -4.86234 0.764012 0
M  V30 31030 N 2973.94 -0.485139 -1.49947 0
M  V30 31031 C 2975.17 0.0621558 -2.06506 0
M  V30 31032 C 2975.58 1.32803 -1.34759 0
M  V30 31033 O 2974.92 1.78958 -0.414692 0
M  V30 31034 C 2974.98 0.402119 -3.57244 0
M  V30 31035 C 2974.64 -0.76375 -4.50573 0
M  V30 31036 C 2975.64 -1.64979 -4.93029 0
M  V30 31037 C 2973.33 -0.95806 -4.93079 0
M  V30 31038 C 2975.32 -2.71442 -5.76713 0
M  V30 31039 C 2973.01 -2.0259 -5.76542 0
M  V30 31040 C 2974.01 -2.90243 -6.18262 0
M  V30 31041 O 2973.69 -3.95186 -7.00059 0
M  V30 31042 H 2973.43 -0.010079 -0.675925 0
M  V30 31043 H 2975.98 -0.677058 -1.9392 0
M  V30 31044 H 2974.21 1.19471 -3.67782 0
M  V30 31045 H 2975.9 0.886149 -3.96109 0
M  V30 31046 H 2976.66 -1.51142 -4.60848 0
M  V30 31047 H 2972.54 -0.285225 -4.60117 0
M  V30 31048 H 2976.09 -3.39889 -6.09197 0
M  V30 31049 H 2971.98 -2.16428 -6.08136 0
M  V30 31050 H 2972.75 -3.92345 -7.18336 0
M  V30 31051 N 2975.42 1.56081 -0.218307 0
M  V30 31052 C 2976.35 2.23138 0.687883 0
M  V30 31053 C 2977.33 1.20202 1.20355 0
M  V30 31054 O 2978.51 1.48778 1.24815 0
M  V30 31055 C 2975.64 2.90877 1.89757 0
M  V30 31056 C 2974.6 4.00256 1.51588 0
M  V30 31057 C 2973.92 4.55276 2.80407 0
M  V30 31058 C 2975.22 5.17475 0.708313 0
M  V30 31059 H 2976.92 2.99123 0.128802 0
M  V30 31060 H 2974.46 1.43873 0.0605101 0
M  V30 31061 H 2976.41 3.36479 2.53693 0
M  V30 31062 H 2975.14 2.12334 2.48157 0
M  V30 31063 H 2973.8 3.55381 0.899995 0
M  V30 31064 H 2973.45 3.73467 3.36944 0
M  V30 31065 H 2973.15 5.29094 2.55603 0
M  V30 31066 H 2974.67 5.03593 3.45291 0
M  V30 31067 H 2976.08 5.59478 1.2513 0
M  V30 31068 H 2974.48 5.97505 0.557488 0
M  V30 31069 H 2975.55 4.84057 -0.285764 0
M  V30 31070 N 2976.89 -0.0551124 1.57504 0
M  V30 31071 C 2978.12 -0.767318 1.92684 0
M  V30 31072 C 2978.54 -1.69471 0.81617 0
M  V30 31073 O 2977.9 -1.79836 -0.229957 0
M  V30 31074 C 2977.95 -1.5228 3.26869 0
M  V30 31075 O 2977.05 -2.63454 3.17279 0
M  V30 31076 H 2976.39 -0.208227 0.630506 0
M  V30 31077 H 2978.92 -0.0183666 2.04592 0
M  V30 31078 H 2978.93 -1.89844 3.61142 0
M  V30 31079 H 2977.61 -0.84247 4.07278 0
M  V30 31080 H 2976.19 -2.28624 2.94593 0
M  V30 31081 N 2978.37 -1.54173 -0.326869 0
M  V30 31082 C 2979.32 -1.83327 -1.40213 0
M  V30 31083 C 2980.29 -0.680134 -1.51537 0
M  V30 31084 O 2981.47 -0.926235 -1.6681 0
M  V30 31085 C 2978.61 -2.06334 -2.76623 0
M  V30 31086 C 2977.73 -3.34023 -2.73957 0
M  V30 31087 C 2976.86 -3.47009 -4.02192 0
M  V30 31088 C 2975.9 -4.68585 -3.9382 0
M  V30 31089 N 2975.04 -4.78515 -5.13778 0
M  V30 31090 H 2979.88 -2.75062 -1.14651 0
M  V30 31091 H 2977.41 -1.36226 -0.555065 0
M  V30 31092 H 2979.37 -2.17665 -3.55918 0
M  V30 31093 H 2978 -1.17895 -3.00501 0
M  V30 31094 H 2977.05 -3.31448 -1.86671 0
M  V30 31095 H 2978.37 -4.23425 -2.63653 0
M  V30 31096 H 2977.52 -3.57863 -4.89917 0
M  V30 31097 H 2976.26 -2.55694 -4.15297 0
M  V30 31098 H 2975.26 -4.57791 -3.04479 0
M  V30 31099 H 2976.49 -5.61282 -3.82282 0
M  V30 31100 H 2974.44 -3.90114 -5.27396 0
M  V30 31101 H 2974.35 -5.61877 -5.05797 0
M  V30 31102 H 2975.62 -4.93697 -6.03228 0
M  V30 31103 N 2979.85 0.58876 -1.4619 0
M  V30 31104 C 2980.76 1.72621 -1.58868 0
M  V30 31105 C 2981.78 1.67465 -0.472378 0
M  V30 31106 O 2982.95 1.87483 -0.735671 0
M  V30 31107 C 2980.02 3.09117 -1.56995 0
M  V30 31108 C 2979.08 3.25584 -2.7981 0
M  V30 31109 C 2978.31 4.55568 -2.78017 0
M  V30 31110 O 2978.53 5.39078 -1.86416 0
M  V30 31111 O 2977.47 4.75152 -3.69478 0
M  V30 31112 H 2981.29 1.64873 -2.5505 0
M  V30 31113 H 2978.88 0.755092 -1.28914 0
M  V30 31114 H 2980.76 3.90405 -1.58625 0
M  V30 31115 H 2979.44 3.17316 -0.639704 0
M  V30 31116 H 2978.34 2.43813 -2.83736 0
M  V30 31117 H 2979.68 3.22273 -3.72023 0
M  V30 31118 N 2981.33 1.33794 0.832883 0
M  V30 31119 C 2982.6 1.16181 1.57357 0
M  V30 31120 C 2982.98 -0.269495 2.09373 0
M  V30 31121 O 2982.33 -1.26941 1.89995 0
M  V30 31122 C 2982.54 2.208 2.70275 0
M  V30 31123 C 2983.89 2.55265 3.39301 0
M  V30 31124 O 2984.91 2.19513 2.80522 0
M  V30 31125 O 2983.77 3.1664 4.45422 0
M  V30 31126 H 2980.87 0.449743 0.694017 0
M  V30 31127 H 2983.41 1.45395 0.875119 0
M  V30 31128 H 2982.19 3.16915 2.29522 0
M  V30 31129 H 2981.81 1.92706 3.47779 0
M  V30 31130 N 2982.81 -1.05187 1.1736 0
M  V30 31131 C 2983.74 -2.14881 0.913687 0
M  V30 31132 C 2984.72 -1.69487 -0.144335 0
M  V30 31133 O 2985.9 -1.94199 0.00591275 0
M  V30 31134 C 2983.03 -3.44674 0.426257 0
M  V30 31135 C 2981.99 -4.03635 1.42347 0
M  V30 31136 C 2981.31 -5.28772 0.793995 0
M  V30 31137 C 2982.61 -4.41116 2.79667 0
M  V30 31138 H 2984.31 -2.36882 1.83104 0
M  V30 31139 H 2981.85 -1.13843 0.881801 0
M  V30 31140 H 2983.8 -4.20762 0.231841 0
M  V30 31141 H 2982.53 -3.22326 -0.526637 0
M  V30 31142 H 2981.19 -3.29617 1.60463 0
M  V30 31143 H 2980.84 -5.02727 -0.165735 0
M  V30 31144 H 2980.54 -5.69181 1.45969 0
M  V30 31145 H 2982.06 -6.07547 0.609854 0
M  V30 31146 H 2983.47 -5.08237 2.65269 0
M  V30 31147 H 2981.87 -4.92542 3.42815 0
M  V30 31148 H 2982.94 -3.51458 3.34074 0
M  V30 31149 N 2984.28 -0.97385 -1.23911 0
M  V30 31150 C 2985.23 -0.479973 -2.22891 0
M  V30 31151 C 2986.22 0.441406 -1.54727 0
M  V30 31152 O 2987.41 0.271327 -1.74908 0
M  V30 31153 C 2984.54 0.222642 -3.42577 0
M  V30 31154 C 2983.62 -0.717925 -4.17979 0
M  V30 31155 N 2984.02 -1.85779 -4.70446 0
M  V30 31156 C 2982.31 -0.529936 -4.4284 0
M  V30 31157 C 2983.01 -2.4466 -5.27746 0
M  V30 31158 N 2981.99 -1.73113 -5.15299 0
M  V30 31159 H 2985.79 -1.34961 -2.6108 0
M  V30 31160 H 2983.31 -0.833704 -1.39367 0
M  V30 31161 H 2985.3 0.59372 -4.12651 0
M  V30 31162 H 2983.96 1.08864 -3.05906 0
M  V30 31163 H 2984.97 -2.23916 -4.66993 0
M  V30 31164 H 2981.65 0.291591 -4.1648 0
M  V30 31165 H 2983.04 -3.40885 -5.79005 0
M  V30 31166 N 2985.76 1.38895 -0.744705 0
M  V30 31167 C 2986.99 2.04603 -0.307463 0
M  V30 31168 C 2987.4 1.56159 1.06112 0
M  V30 31169 O 2986.76 0.730731 1.67232 0
M  V30 31170 C 2986.81 3.60159 -0.311074 0
M  V30 31171 O 2986.53 4.06822 -1.62564 0
M  V30 31172 C 2988.03 4.43075 0.141135 0
M  V30 31173 H 2985.25 0.657737 -0.132753 0
M  V30 31174 H 2987.8 1.77757 -1.01107 0
M  V30 31175 H 2985.95 3.85872 0.343724 0
M  V30 31176 H 2986.37 5.01204 -1.54578 0
M  V30 31177 H 2987.84 5.51931 0.0874479 0
M  V30 31178 H 2988.32 4.22835 1.18774 0
M  V30 31179 H 2988.92 4.22532 -0.484457 0
M  V30 31180 N 2987.24 0.493084 1.49688 0
M  V30 31181 C 2988.17 -0.279033 2.31827 0
M  V30 31182 C 2989.15 -0.969962 1.39735 0
M  V30 31183 O 2990.34 -0.962895 1.68647 0
M  V30 31184 C 2987.47 -1.34857 3.20048 0
M  V30 31185 C 2986.42 -0.777976 4.2087 0
M  V30 31186 C 2985.75 -1.94744 4.97975 0
M  V30 31187 C 2987.05 0.225635 5.21812 0
M  V30 31188 H 2988.74 0.406564 2.96627 0
M  V30 31189 H 2986.29 0.196968 1.42647 0
M  V30 31190 H 2988.24 -1.89638 3.76318 0
M  V30 31191 H 2986.96 -2.06324 2.53176 0
M  V30 31192 H 2985.62 -0.251972 3.65733 0
M  V30 31193 H 2985.27 -2.64961 4.27557 0
M  V30 31194 H 2984.97 -1.57177 5.66188 0
M  V30 31195 H 2986.49 -2.49974 5.57086 0
M  V30 31196 H 2987.91 -0.233763 5.72823 0
M  V30 31197 H 2986.31 0.516727 5.97871 0
M  V30 31198 H 2987.38 1.1442 4.71207 0
M  V30 31199 N 2988.72 -1.55963 0.226582 0
M  V30 31200 C 2989.95 -2.02534 -0.407879 0
M  V30 31201 C 2990.36 -1.10557 -1.53538 0
M  V30 31202 O 2989.7 -0.108442 -1.8338 0
M  V30 31203 C 2989.76 -3.45427 -0.996021 0
M  V30 31204 C 2989.43 -4.57 -0.00333619 0
M  V30 31205 C 2990.42 -5.13726 0.798872 0
M  V30 31206 C 2988.11 -5.02164 0.116875 0
M  V30 31207 C 2990.1 -6.14091 1.70795 0
M  V30 31208 C 2987.79 -6.02366 1.02948 0
M  V30 31209 C 2988.79 -6.58206 1.82355 0
M  V30 31210 O 2988.47 -7.56457 2.72081 0
M  V30 31211 H 2988.21 -0.668028 -0.103513 0
M  V30 31212 H 2990.76 -2.02533 0.341973 0
M  V30 31213 H 2988.99 -3.42512 -1.79506 0
M  V30 31214 H 2990.68 -3.75616 -1.53842 0
M  V30 31215 H 2991.45 -4.79679 0.716477 0
M  V30 31216 H 2987.32 -4.58377 -0.491092 0
M  V30 31217 H 2990.87 -6.57603 2.32818 0
M  V30 31218 H 2986.77 -6.35834 1.11287 0
M  V30 31219 H 2987.53 -7.73998 2.66212 0
M  V30 31220 N 2990.2 0.0467589 -1.57531 0
M  V30 31221 C 2991.44 0.742185 -1.88731 0
M  V30 31222 C 2991.78 1.7594 -0.822115 0
M  V30 31223 O 2991.05 1.938 0.164888 0
M  V30 31224 C 2991.33 1.42771 -3.30588 0
M  V30 31225 C 2991.19 0.425206 -4.47786 0
M  V30 31226 C 2992.51 2.36629 -3.71072 0
M  V30 31227 H 2989.62 0.268347 -0.68641 0
M  V30 31228 H 2992.27 0.00508001 -1.89999 0
M  V30 31229 H 2990.42 2.056 -3.29638 0
M  V30 31230 H 2992.09 -0.199802 -4.60867 0
M  V30 31231 H 2990.33 -0.257207 -4.33037 0
M  V30 31232 H 2991 0.942991 -5.43886 0
M  V30 31233 H 2993.48 1.83859 -3.73276 0
M  V30 31234 H 2992.35 2.81585 -4.7117 0
M  V30 31235 H 2992.62 3.22537 -3.02361 0
M  V30 31236 N 2991.67 1.54344 0.318688 0
M  V30 31237 C 2992.95 1.63439 1.07458 0
M  V30 31238 C 2993.33 0.471346 2.05771 0
M  V30 31239 O 2992.68 -0.533871 2.22176 0
M  V30 31240 C 2992.89 3.00657 1.77219 0
M  V30 31241 C 2994.24 3.5687 2.30063 0
M  V30 31242 O 2995.26 3.02994 1.87278 0
M  V30 31243 O 2994.12 4.51164 3.08405 0
M  V30 31244 H 2991.21 0.662038 0.495615 0
M  V30 31245 H 2993.76 1.6669 0.318189 0
M  V30 31246 H 2992.53 3.76744 1.05736 0
M  V30 31247 H 2992.16 3.01105 2.59656 0
M  V30 31248 N 2993.15 -0.580999 1.465 0
M  V30 31249 C 2994.56 -1.16312 1.46042 0
M  V30 31250 C 2994.91 -1.95155 0.202188 0
M  V30 31251 O 2994.04 -2.04949 -0.694602 0
M  V30 31252 C 2994.63 -2.11599 2.64596 0
M  V30 31253 C 2993.19 -2.65132 2.67174 0
M  V30 31254 C 2992.34 -1.41036 2.38756 0
M  V30 31255 H 2995.29 -0.368844 1.54354 0
M  V30 31256 H 2995.31 -2.95091 2.40212 0
M  V30 31257 H 2994.82 -1.54188 3.56157 0
M  V30 31258 H 2992.93 -3.26408 1.79691 0
M  V30 31259 H 2993.04 -3.0775 3.67188 0
M  V30 31260 H 2991.4 -1.70905 1.88848 0
M  V30 31261 H 2992.19 -0.854529 3.32495 0
M  V30 31262 N 2994.63 -1.34234 -0.825776 0
M  V30 31263 C 2995.58 -1.25574 -1.93649 0
M  V30 31264 C 2996.55 -0.131565 -1.65578 0
M  V30 31265 O 2997.73 -0.31206 -1.88231 0
M  V30 31266 C 2994.87 -1.01421 -3.2986 0
M  V30 31267 C 2993.99 -2.22585 -3.70243 0
M  V30 31268 C 2993.12 -1.91739 -4.95388 0
M  V30 31269 C 2992.16 -3.09063 -5.28343 0
M  V30 31270 N 2991.3 -2.78119 -6.44666 0
M  V30 31271 H 2996.14 -2.20564 -2.00388 0
M  V30 31272 H 2993.67 -1.09664 -0.980422 0
M  V30 31273 H 2995.63 -0.854557 -4.08354 0
M  V30 31274 H 2994.26 -0.100993 -3.22642 0
M  V30 31275 H 2993.31 -2.49481 -2.87165 0
M  V30 31276 H 2994.63 -3.10253 -3.9057 0
M  V30 31277 H 2993.78 -1.72494 -5.81662 0
M  V30 31278 H 2992.52 -1.01328 -4.77058 0
M  V30 31279 H 2991.52 -3.28907 -4.40568 0
M  V30 31280 H 2992.75 -4.00248 -5.48615 0
M  V30 31281 H 2990.69 -1.90281 -6.27797 0
M  V30 31282 H 2990.61 -3.59318 -6.65152 0
M  V30 31283 H 2991.88 -2.62371 -7.34018 0
M  V30 31284 N 2996.11 1.04563 -1.17917 0
M  V30 31285 C 2997.34 1.81075 -0.994747 0
M  V30 31286 C 2997.75 1.8352 0.460113 0
M  V30 31287 O 2997.09 1.26574 1.33134 0
M  V30 31288 C 2997.15 3.28204 -1.46704 0
M  V30 31289 C 2996.82 3.4943 -2.94529 0
M  V30 31290 C 2997.81 3.41031 -3.9242 0
M  V30 31291 C 2995.5 3.76188 -3.32848 0
M  V30 31292 C 2997.49 3.59086 -5.26627 0
M  V30 31293 C 2995.18 3.93891 -4.67218 0
M  V30 31294 C 2996.18 3.8534 -5.63917 0
M  V30 31295 O 2995.86 4.02541 -6.95856 0
M  V30 31296 H 2995.6 0.577242 -0.351807 0
M  V30 31297 H 2998.15 1.32707 -1.56774 0
M  V30 31298 H 2996.38 3.77518 -0.837658 0
M  V30 31299 H 2998.07 3.8626 -1.24731 0
M  V30 31300 H 2998.84 3.20329 -3.64162 0
M  V30 31301 H 2994.71 3.81945 -2.58146 0
M  V30 31302 H 2998.26 3.52328 -6.02089 0
M  V30 31303 H 2994.16 4.14086 -4.95179 0
M  V30 31304 H 2994.92 4.19731 -7.02687 0
M  V30 31305 N 2997.59 0.980408 1.23393 0
M  V30 31306 C 2998.52 0.478696 2.24145 0
M  V30 31307 C 2999.53 -0.419464 1.57303 0
M  V30 31308 O 3000.72 -0.223599 1.77094 0
M  V30 31309 C 2997.82 -0.326854 3.3732 0
M  V30 31310 C 2996.99 0.564436 4.33743 0
M  V30 31311 C 2996.05 -0.187265 5.25867 0
M  V30 31312 O 2995.08 0.423118 5.67625 0
M  V30 31313 N 2996.28 -1.47325 5.61494 0
M  V30 31314 H 2999.05 1.34501 2.67824 0
M  V30 31315 H 2996.61 0.853677 1.37564 0
M  V30 31316 H 2998.6 -0.838078 3.95927 0
M  V30 31317 H 2997.17 -1.09417 2.92825 0
M  V30 31318 H 2996.39 1.25649 3.73639 0
M  V30 31319 H 2997.68 1.17186 4.95121 0
M  V30 31320 H 2997.07 -1.99067 5.29517 0
M  V30 31321 H 2995.63 -1.92991 6.22573 0
M  V30 31322 N 2999.06 -1.38498 0.75206 0
M  V30 31323 C 3000.31 -2.00448 0.307994 0
M  V30 31324 C 3000.64 -1.5956 -1.10699 0
M  V30 31325 O 2999.92 -0.832422 -1.75787 0
M  V30 31326 C 3000.2 -3.57534 0.429155 0
M  V30 31327 C 3000.05 -4.0839 1.88514 0
M  V30 31328 C 3001.37 -4.39738 -0.178365 0
M  V30 31329 H 2998.49 -0.728226 0.113385 0
M  V30 31330 H 3001.13 -1.64463 0.951418 0
M  V30 31331 H 2999.28 -3.88319 -0.118627 0
M  V30 31332 H 3000.96 -3.88254 2.49111 0
M  V30 31333 H 2999.2 -3.61314 2.40072 0
M  V30 31334 H 2999.87 -5.17492 1.92108 0
M  V30 31335 H 3002.35 -4.15097 0.288793 0
M  V30 31336 H 3001.22 -5.48863 -0.0633384 0
M  V30 31337 H 3001.48 -4.23571 -1.26648 0
M  V30 31338 N 3000.54 -0.501015 -1.49424 0
M  V30 31339 C 3001.79 0.0453445 -2.01649 0
M  V30 31340 C 3002.1 1.38045 -1.38575 0
M  V30 31341 O 3003.31 2.0135 -1.82127 0
M  V30 31342 C 3001.77 0.131273 -3.59661 0
M  V30 31343 C 3001.37 -1.19719 -4.31708 0
M  V30 31344 C 3003.12 0.627997 -4.19829 0
M  V30 31345 C 3001.03 -1.07342 -5.81577 0
M  V30 31346 H 2999.96 0.0207196 -0.753715 0
M  V30 31347 H 3002.61 -0.640438 -1.71961 0
M  V30 31348 H 3000.99 0.881506 -3.86064 0
M  V30 31349 H 3002.16 -1.96071 -4.17004 0
M  V30 31350 H 3000.48 -1.62735 -3.83283 0
M  V30 31351 H 3003.07 0.738105 -5.29581 0
M  V30 31352 H 3003.42 1.62683 -3.83197 0
M  V30 31353 H 3003.95 -0.0657013 -3.97746 0
M  V30 31354 H 3000.69 -2.04653 -6.22734 0
M  V30 31355 H 3000.21 -0.350784 -5.98773 0
M  V30 31356 H 3001.89 -0.75216 -6.42613 0
M  V30 31357 N 3002.02 1.5584 -0.234849 0
M  V30 31358 C 3003.27 1.9894 0.393808 0
M  V30 31359 C 3003.6 1.12262 1.58464 0
M  V30 31360 O 3002.88 0.183277 1.93635 0
M  V30 31361 C 3003.16 3.50746 0.81543 0
M  V30 31362 C 3003.01 4.48192 -0.379957 0
M  V30 31363 C 3004.33 4.07315 1.6668 0
M  V30 31364 H 3001.45 0.723256 0.141668 0
M  V30 31365 H 3004.09 1.87046 -0.333749 0
M  V30 31366 H 3002.24 3.61012 1.43535 0
M  V30 31367 H 3003.91 4.49921 -1.01827 0
M  V30 31368 H 3002.16 4.21513 -1.02514 0
M  V30 31369 H 3002.83 5.51984 -0.0418039 0
M  V30 31370 H 3005.3 4.00076 1.14362 0
M  V30 31371 H 3004.18 5.13825 1.93069 0
M  V30 31372 H 3004.44 3.55021 2.63462 0
M  V30 31373 N 3003.5 -0.038404 1.57553 0
M  V30 31374 C 3004.43 -1.04158 2.08982 0
M  V30 31375 C 3005.41 -1.383 0.990314 0
M  V30 31376 O 3006.6 -1.47347 1.26502 0
M  V30 31377 C 3003.73 -2.34531 2.56149 0
M  V30 31378 C 3002.68 -2.14656 3.70279 0
M  V30 31379 C 3002.01 -3.50708 4.03618 0
M  V30 31380 C 3003.31 -1.54036 4.99069 0
M  V30 31381 H 3005 -0.613497 2.93047 0
M  V30 31382 H 3002.55 -0.293659 1.40974 0
M  V30 31383 H 3004.5 -3.05032 2.90747 0
M  V30 31384 H 3003.22 -2.79382 1.69155 0
M  V30 31385 H 3001.88 -1.46591 3.36016 0
M  V30 31386 H 3001.53 -3.9319 3.13705 0
M  V30 31387 H 3001.23 -3.38238 4.80488 0
M  V30 31388 H 3002.75 -4.22586 4.40742 0
M  V30 31389 H 3004.17 -2.14442 5.31684 0
M  V30 31390 H 3002.56 -1.52168 5.80487 0
M  V30 31391 H 3003.63 -0.505174 4.82261 0
M  V30 31392 N 3004.98 -1.54511 -0.310498 0
M  V30 31393 C 3005.92 -1.84804 -1.38261 0
M  V30 31394 C 3006.89 -0.696168 -1.50807 0
M  V30 31395 O 3008.08 -0.943875 -1.65818 0
M  V30 31396 C 3005.22 -2.09257 -2.74419 0
M  V30 31397 C 3004.33 -3.3691 -2.70399 0
M  V30 31398 C 3003.47 -3.51255 -3.98489 0
M  V30 31399 C 3002.51 -4.72736 -3.88828 0
M  V30 31400 N 3001.64 -4.83937 -5.08674 0
M  V30 31401 H 3006.48 -2.76263 -1.11727 0
M  V30 31402 H 3004.02 -1.36807 -0.540585 0
M  V30 31403 H 3005.98 -2.21428 -3.5359 0
M  V30 31404 H 3004.61 -1.21076 -2.99233 0
M  V30 31405 H 3003.66 -3.33409 -1.83146 0
M  V30 31406 H 3004.97 -4.26197 -2.59147 0
M  V30 31407 H 3004.13 -3.63039 -4.86094 0
M  V30 31408 H 3002.87 -2.60084 -4.12562 0
M  V30 31409 H 3001.87 -4.60995 -2.99606 0
M  V30 31410 H 3003.1 -5.65305 -3.76308 0
M  V30 31411 H 3001.04 -3.95686 -5.23229 0
M  V30 31412 H 3000.96 -5.6721 -4.99809 0
M  V30 31413 H 3002.23 -5.00067 -5.97957 0
M  V30 31414 N 3006.46 0.573222 -1.46806 0
M  V30 31415 C 3007.73 1.33365 -1.43084 0
M  V30 31416 C 3008.11 2.10763 -0.119289 0
M  V30 31417 O 3007.46 2.10063 0.899202 0
M  V30 31418 C 3007.67 2.25168 -2.66647 0
M  V30 31419 C 3009.02 2.86697 -3.13193 0
M  V30 31420 O 3010.04 2.35477 -2.67262 0
M  V30 31421 O 3008.9 3.79754 -3.93 0
M  V30 31422 H 3006 0.599702 -0.569461 0
M  V30 31423 H 3008.54 0.593452 -1.58985 0
M  V30 31424 H 3007.31 1.67469 -3.53652 0
M  V30 31425 H 3006.94 3.06511 -2.53252 0
M  V30 31426 N 3007.93 1.3467 0.818645 0
M  V30 31427 C 3008.88 1.26612 1.95121 0
M  V30 31428 C 3009.88 0.163377 1.6861 0
M  V30 31429 O 3011.08 0.328617 1.76975 0
M  V30 31430 H 3007.46 0.393442 0.640865 0
M  V30 31431 H 3009.43 2.2232 1.99039 0
M  V30 31432 C 3008.18 1.04278 3.31695 0
M  V30 31433 H 3007.5 1.88366 3.52645 0
M  V30 31434 H 3008.94 1.02677 4.1138 0
M  V30 31435 C 3007.4 -0.253799 3.35943 0
M  V30 31436 O 3007.93 -1.25372 3.81634 0
M  V30 31437 N 3006.13 -0.288396 2.89165 0
M  V30 31438 H 3005.68 0.525889 2.52175 0
M  V30 31439 H 3005.64 -1.15567 2.92389 0
M  V30 31440 N 3009.41 -1.03936 1.1847 0
M  V30 31441 C 3010.66 -1.77421 0.982317 0
M  V30 31442 C 3010.99 -1.88001 -0.486757 0
M  V30 31443 O 3010.27 -1.38907 -1.36143 0
M  V30 31444 C 3010.55 -3.2062 1.63935 0
M  V30 31445 C 3010.4 -3.17976 3.18137 0
M  V30 31446 C 3011.72 -4.18765 1.35367 0
M  V30 31447 H 3008.84 -0.644056 0.358275 0
M  V30 31448 H 3011.48 -1.21402 1.46156 0
M  V30 31449 H 3009.63 -3.68453 1.23186 0
M  V30 31450 H 3011.3 -2.78123 3.68029 0
M  V30 31451 H 3009.55 -2.55972 3.50229 0
M  V30 31452 H 3010.22 -4.19101 3.59247 0
M  V30 31453 H 3012.69 -3.79485 1.70676 0
M  V30 31454 H 3011.57 -5.17175 1.83905 0
M  V30 31455 H 3011.83 -4.41233 0.2768 0
M  V30 31456 N 3010.89 -0.986938 -1.22871 0
M  V30 31457 C 3011.82 -0.552104 -2.26879 0
M  V30 31458 C 3012.8 0.418019 -1.64884 0
M  V30 31459 O 3013.99 0.309957 -1.9171 0
M  V30 31460 C 3011.12 0.139898 -3.47018 0
M  V30 31461 C 3010.07 -0.748165 -4.2141 0
M  V30 31462 C 3009.4 0.0764192 -5.34645 0
M  V30 31463 C 3010.7 -2.04214 -4.80722 0
M  V30 31464 H 3012.39 -1.42147 -2.63504 0
M  V30 31465 H 3009.94 -0.684942 -1.26667 0
M  V30 31466 H 3011.89 0.455453 -4.18931 0
M  V30 31467 H 3010.61 1.04377 -3.09472 0
M  V30 31468 H 3009.27 -1.04727 -3.51323 0
M  V30 31469 H 3008.92 0.981023 -4.93341 0
M  V30 31470 H 3008.62 -0.514709 -5.85341 0
M  V30 31471 H 3010.14 0.386206 -6.09377 0
M  V30 31472 H 3011.56 -1.79093 -5.44609 0
M  V30 31473 H 3009.95 -2.58159 -5.41732 0
M  V30 31474 H 3011.02 -2.72476 -4.01105 0
M  V30 31475 N 3012.37 1.38098 -0.759394 0
M  V30 31476 C 3013.59 2.04792 -0.327895 0
M  V30 31477 C 3014.02 1.56901 1.03749 0
M  V30 31478 O 3013.38 0.72361 1.66233 0
M  V30 31479 C 3013.42 3.58734 -0.366327 0
M  V30 31480 O 3012.53 4.07441 0.637626 0
M  V30 31481 H 3011.87 0.648175 -0.144103 0
M  V30 31482 H 3014.4 1.76658 -1.03214 0
M  V30 31483 H 3014.41 4.0741 -0.219251 0
M  V30 31484 H 3013.08 3.92949 -1.36249 0
M  V30 31485 H 3011.66 3.70118 0.454684 0
M  V30 31486 N 3013.85 0.508932 1.49156 0
M  V30 31487 C 3015.07 -0.0314817 2.07376 0
M  V30 31488 C 3015.5 -1.29338 1.36577 0
M  V30 31489 O 3014.85 -1.76248 0.424994 0
M  V30 31490 C 3014.9 -0.260054 3.59661 0
M  V30 31491 O 3014.01 -1.33315 3.90257 0
M  V30 31492 H 3013.35 0.0297506 0.663333 0
M  V30 31493 H 3015.88 0.710825 1.91855 0
M  V30 31494 H 3015.89 -0.489154 4.05057 0
M  V30 31495 H 3014.56 0.661866 4.106 0
M  V30 31496 H 3013.14 -1.08838 3.56663 0
M  V30 31497 N 3015.32 -1.55714 0.243111 0
M  V30 31498 C 3016.26 -2.17244 -0.698585 0
M  V30 31499 C 3017.23 -1.12333 -1.17559 0
M  V30 31500 O 3018.42 -1.40701 -1.25441 0
M  V30 31501 C 3015.55 -2.77007 -1.94896 0
M  V30 31502 C 3014.59 -3.94939 -1.61015 0
M  V30 31503 S 3015.42 -5.30691 -0.71608 0
M  V30 31504 C 3016.58 -5.93905 -1.97555 0
M  V30 31505 H 3016.81 -2.96781 -0.175672 0
M  V30 31506 H 3014.35 -1.54375 0.0275999 0
M  V30 31507 H 3016.3 -3.12076 -2.66681 0
M  V30 31508 H 3014.97 -1.97424 -2.443 0
M  V30 31509 H 3014.16 -4.35332 -2.53972 0
M  V30 31510 H 3013.76 -3.61128 -0.972766 0
M  V30 31511 H 3016.05 -6.11191 -2.92322 0
M  V30 31512 H 3017 -6.89433 -1.61516 0
M  V30 31513 H 3017.4 -5.22939 -2.12591 0
M  V30 31514 N 3016.8 0.030048 -1.57571 0
M  V30 31515 C 3017.73 1.03048 -2.09531 0
M  V30 31516 C 3018.71 1.37773 -0.997634 0
M  V30 31517 O 3019.9 1.46674 -1.27281 0
M  V30 31518 C 3017.03 2.3317 -2.57389 0
M  V30 31519 C 3015.98 2.1269 -3.71412 0
M  V30 31520 C 3015.31 3.48563 -4.05473 0
M  V30 31521 C 3016.61 1.51387 -4.99879 0
M  V30 31522 H 3018.3 0.597947 -2.93368 0
M  V30 31523 H 3015.85 0.286179 -1.41128 0
M  V30 31524 H 3017.8 3.03485 -2.9236 0
M  V30 31525 H 3016.53 2.78481 -1.70634 0
M  V30 31526 H 3015.18 1.44807 -3.36789 0
M  V30 31527 H 3014.83 3.91521 -3.15786 0
M  V30 31528 H 3014.53 3.35685 -4.82275 0
M  V30 31529 H 3016.06 4.20242 -4.42977 0
M  V30 31530 H 3017.47 2.11619 -5.32813 0
M  V30 31531 H 3015.87 1.49088 -5.81286 0
M  V30 31532 H 3016.94 0.479591 -4.82522 0
M  V30 31533 N 3018.28 1.54674 0.3023 0
M  V30 31534 C 3019.7 1.45858 0.647886 0
M  V30 31535 C 3019.9 0.648724 1.90772 0
M  V30 31536 O 3018.95 0.155909 2.52018 0
M  V30 31537 C 3020.27 2.89805 0.802093 0
M  V30 31538 C 3021.81 2.9984 0.898062 0
M  V30 31539 C 3022.29 4.4498 1.08428 0
M  V30 31540 N 3023.78 4.48684 1.15051 0
M  V30 31541 C 3024.51 5.58168 1.31287 0
M  V30 31542 N 3024.01 6.77578 1.44428 0
M  V30 31543 N 3025.8 5.45854 1.34164 0
M  V30 31544 H 3017.95 2.05798 -0.525464 0
M  V30 31545 H 3020.22 0.931999 -0.173439 0
M  V30 31546 H 3019.92 3.5166 -0.0527149 0
M  V30 31547 H 3019.8 3.37148 1.69149 0
M  V30 31548 H 3022.18 2.38099 1.74336 0
M  V30 31549 H 3022.27 2.55795 -0.0153202 0
M  V30 31550 H 3021.91 5.07315 0.243753 0
M  V30 31551 H 3021.84 4.86654 2.01186 0
M  V30 31552 H 3024.33 3.62655 1.06253 0
M  V30 31553 H 3024.64 7.56774 1.56568 0
M  V30 31554 H 3022.99 6.80446 1.41487 0
M  V30 31555 H 3026.18 4.51512 1.23508 0
M  V30 31556 H 3026.35 6.31228 1.46474 0
M  V30 31557 N 3019.76 -0.565428 1.47108 0
M  V30 31558 C 3020.69 -1.68307 1.61849 0
M  V30 31559 C 3021.67 -1.6353 0.468187 0
M  V30 31560 O 3022.85 -1.81279 0.696536 0
M  V30 31561 C 3019.98 -3.06949 1.6248 0
M  V30 31562 C 3018.94 -3.26568 2.76654 0
M  V30 31563 C 3018.26 -4.65913 2.62353 0
M  V30 31564 C 3019.56 -3.12733 4.18324 0
M  V30 31565 H 3021.26 -1.56226 2.55409 0
M  V30 31566 H 3018.8 -0.750157 1.22917 0
M  V30 31567 H 3020.76 -3.84974 1.71385 0
M  V30 31568 H 3019.48 -3.1997 0.654748 0
M  V30 31569 H 3018.14 -2.50948 2.67247 0
M  V30 31570 H 3017.79 -4.75722 1.63394 0
M  V30 31571 H 3017.49 -4.7999 3.38945 0
M  V30 31572 H 3019.01 -5.46084 2.73175 0
M  V30 31573 H 3020.43 -3.80585 4.28752 0
M  V30 31574 H 3018.82 -3.38324 4.95638 0
M  V30 31575 H 3019.89 -2.09584 4.37267 0
M  V30 31576 N 3021.24 -1.35102 -0.811492 0
M  V30 31577 C 3022.19 -1.24166 -1.91224 0
M  V30 31578 C 3023.17 -0.13804 -1.60307 0
M  V30 31579 O 3024.36 -0.368798 -1.73115 0
M  V30 31580 C 3021.49 -1.01091 -3.28079 0
M  V30 31581 C 3020.58 -2.15821 -3.65078 0
M  V30 31582 N 3020.97 -3.41017 -3.73552 0
M  V30 31583 C 3019.27 -2.07099 -3.95001 0
M  V30 31584 C 3019.97 -4.16433 -4.0615 0
M  V30 31585 N 3018.94 -3.4514 -4.19976 0
M  V30 31586 H 3022.75 -2.19027 -1.95971 0
M  V30 31587 H 3020.26 -1.27504 -1.0058 0
M  V30 31588 H 3022.26 -0.913453 -4.0677 0
M  V30 31589 H 3020.92 -0.0710976 -3.24622 0
M  V30 31590 H 3021.93 -3.75429 -3.56754 0
M  V30 31591 H 3018.6 -1.20944 -3.99598 0
M  V30 31592 H 3019.99 -5.246 -4.19815 0
M  V30 31593 N 3022.71 1.03306 -1.19019 0
M  V30 31594 C 3023.94 1.80272 -1.01537 0
M  V30 31595 C 3024.36 1.83696 0.436018 0
M  V30 31596 O 3023.71 1.27796 1.30286 0
M  V30 31597 C 3023.77 3.25519 -1.57225 0
M  V30 31598 O 3023.49 3.22352 -2.96683 0
M  V30 31599 C 3024.99 4.19099 -1.44468 0
M  V30 31600 H 3022.21 0.567453 -0.358104 0
M  V30 31601 H 3024.75 1.30147 -1.5774 0
M  V30 31602 H 3022.91 3.72848 -1.0518 0
M  V30 31603 H 3023.32 4.13399 -3.22803 0
M  V30 31604 H 3024.79 5.1892 -1.88219 0
M  V30 31605 H 3025.27 4.37424 -0.394547 0
M  V30 31606 H 3025.88 3.7764 -1.95623 0
M  V30 31607 N 3024.19 0.99344 1.22346 0
M  V30 31608 C 3025.44 0.670594 1.91392 0
M  V30 31609 C 3025.77 -0.795397 1.77164 0
M  V30 31610 O 3025.05 -1.57526 1.14086 0
M  V30 31611 C 3025.33 1.07796 3.43587 0
M  V30 31612 C 3025.18 2.60254 3.66862 0
M  V30 31613 C 3026.5 0.631603 4.35544 0
M  V30 31614 H 3023.62 0.245093 0.695053 0
M  V30 31615 H 3026.26 1.23706 1.44211 0
M  V30 31616 H 3024.41 0.595969 3.83902 0
M  V30 31617 H 3026.08 3.16127 3.35948 0
M  V30 31618 H 3024.33 3.02298 3.11124 0
M  V30 31619 H 3025 2.83808 4.73452 0
M  V30 31620 H 3027.47 1.04561 4.02748 0
M  V30 31621 H 3026.35 0.944926 5.40705 0
M  V30 31622 H 3026.61 -0.467701 4.39619 0
M  V30 31623 N 3025.67 -1.37693 0.766707 0
M  V30 31624 C 3026.58 -2.34119 0.150199 0
M  V30 31625 C 3027.6 -1.59928 -0.685485 0
M  V30 31626 O 3028.77 -1.92048 -0.606582 0
M  V30 31627 C 3025.84 -3.39088 -0.722503 0
M  V30 31628 C 3024.9 -4.29106 0.129059 0
M  V30 31629 C 3024.13 -5.29062 -0.702085 0
M  V30 31630 O 3024.35 -5.36416 -1.93945 0
M  V30 31631 O 3023.29 -6.01792 -0.11395 0
M  V30 31632 H 3027.11 -2.88562 0.94688 0
M  V30 31633 H 3024.7 -1.39767 0.527789 0
M  V30 31634 H 3026.58 -4.03327 -1.22087 0
M  V30 31635 H 3025.26 -2.86981 -1.49746 0
M  V30 31636 H 3024.16 -3.67984 0.673677 0
M  V30 31637 H 3025.5 -4.84504 0.866977 0
M  V30 31638 N 3027.15 -0.516835 -1.48884 0
M  V30 31639 C 3028.37 0.0204836 -2.0739 0
M  V30 31640 C 3028.8 1.28612 -1.37261 0
M  V30 31641 O 3028.16 1.76021 -0.434335 0
M  V30 31642 C 3028.2 0.240977 -3.59794 0
M  V30 31643 O 3027.31 1.31244 -3.90959 0
M  V30 31644 H 3026.65 -0.033268 -0.663166 0
M  V30 31645 H 3029.18 -0.720989 -1.91476 0
M  V30 31646 H 3029.19 0.467666 -4.05311 0
M  V30 31647 H 3027.86 -0.683632 -4.10243 0
M  V30 31648 H 3026.44 1.06945 -3.57236 0
M  V30 31649 N 3028.63 1.55583 -0.251365 0
M  V30 31650 C 3029.87 1.98658 0.371399 0
M  V30 31651 C 3030.2 1.1409 1.58141 0
M  V30 31652 O 3029.47 0.224742 1.94607 0
M  V30 31653 H 3028.05 0.733723 0.140212 0
M  V30 31654 H 3030.71 1.9171 -0.351191 0
M  V30 31655 H 3029.8 3.04658 0.677501 0
M  V30 31656 N 3030.1 -0.0216912 1.57585 0
M  V30 31657 C 3031.38 -0.746838 1.80781 0
M  V30 31658 C 3031.76 -1.93178 0.851197 0
M  V30 31659 O 3031.11 -2.28259 -0.104999 0
M  V30 31660 C 3031.32 -1.17296 3.28698 0
M  V30 31661 C 3032.67 -1.58582 3.93874 0
M  V30 31662 O 3033.69 -1.26734 3.32892 0
M  V30 31663 O 3032.55 -2.17722 5.01258 0
M  V30 31664 H 3029.64 -0.361773 0.743673 0
M  V30 31665 H 3032.19 0.00209768 1.697 0
M  V30 31666 H 3030.96 -0.327385 3.89928 0
M  V30 31667 H 3030.59 -1.98168 3.44696 0
M  V30 31668 N 3031.58 -1.54832 -0.294093 0
M  V30 31669 C 3032.83 -1.73649 -1.02611 0
M  V30 31670 C 3033.15 -0.533195 -1.88192 0
M  V30 31671 O 3034.35 -0.603322 -2.64712 0
M  V30 31672 C 3032.81 -3.07254 -1.87411 0
M  V30 31673 C 3032.42 -4.35084 -1.06799 0
M  V30 31674 C 3034.16 -3.35428 -2.6017 0
M  V30 31675 C 3032.07 -5.59737 -1.90916 0
M  V30 31676 H 3031 -0.647213 -0.386822 0
M  V30 31677 H 3033.65 -1.81308 -0.282757 0
M  V30 31678 H 3032.03 -2.93577 -2.6576 0
M  V30 31679 H 3033.2 -4.59616 -0.330145 0
M  V30 31680 H 3031.52 -4.13897 -0.455906 0
M  V30 31681 H 3034.12 -4.25761 -3.23469 0
M  V30 31682 H 3034.46 -2.54612 -3.29361 0
M  V30 31683 H 3034.99 -3.50107 -1.88865 0
M  V30 31684 H 3031.73 -6.4324 -1.26183 0
M  V30 31685 H 3031.25 -5.3938 -2.62354 0
M  V30 31686 H 3032.93 -5.97252 -2.48796 0
M  V30 31687 N 3033.06 0.557619 -1.47405 0
M  V30 31688 C 3034.01 1.68574 -1.60268 0
M  V30 31689 C 3035 1.62749 -0.47001 0
M  V30 31690 O 3036.21 1.67939 -0.647794 0
M  V30 31691 H 3032.58 0.557784 -0.504362 0
M  V30 31692 H 3034.56 1.54862 -2.55069 0
M  V30 31693 C 3033.3 3.06927 -1.63374 0
M  V30 31694 H 3032.63 3.1209 -2.49879 0
M  V30 31695 H 3034.07 3.85552 -1.76424 0
M  V30 31696 C 3032.53 3.34895 -0.36698 0
M  V30 31697 O 3033.06 3.9816 0.53211 0
M  V30 31698 N 3031.26 2.89547 -0.247133 0
M  V30 31699 H 3030.81 2.38242 -0.979711 0
M  V30 31700 H 3030.77 3.08631 0.599498 0
M  V30 31701 N 3034.54 1.35531 0.804316 0
M  V30 31702 C 3035.79 1.29121 1.56383 0
M  V30 31703 C 3036.12 -0.133501 1.93741 0
M  V30 31704 O 3035.39 -1.08341 1.61531 0
M  V30 31705 C 3035.68 2.19986 2.85093 0
M  V30 31706 C 3035.53 3.71085 2.54197 0
M  V30 31707 C 3036.85 2.09913 3.86813 0
M  V30 31708 H 3033.97 0.470378 0.567374 0
M  V30 31709 H 3036.61 1.65952 0.925206 0
M  V30 31710 H 3034.76 1.88707 3.39591 0
M  V30 31711 H 3036.43 4.12816 2.05865 0
M  V30 31712 H 3034.67 3.91254 1.87357 0
M  V30 31713 H 3035.35 4.30054 3.4606 0
M  V30 31714 H 3037.82 2.37415 3.41721 0
M  V30 31715 H 3036.7 2.75686 4.74645 0
M  V30 31716 H 3036.96 1.08178 4.28661 0
M  V30 31717 N 3036.02 -1.02674 1.19565 0
M  V30 31718 C 3037.26 -1.7637 1.00108 0
M  V30 31719 C 3037.6 -1.88507 -0.46679 0
M  V30 31720 O 3036.87 -1.40344 -1.34662 0
M  V30 31721 C 3037.15 -3.18863 1.67326 0
M  V30 31722 C 3037.01 -3.14584 3.21492 0
M  V30 31723 C 3038.33 -4.17305 1.39801 0
M  V30 31724 H 3035.45 -0.64022 0.365086 0
M  V30 31725 H 3038.09 -1.19845 1.47435 0
M  V30 31726 H 3036.24 -3.67125 1.27087 0
M  V30 31727 H 3037.91 -2.74204 3.70958 0
M  V30 31728 H 3036.15 -2.52243 3.52925 0
M  V30 31729 H 3036.82 -4.15267 3.63672 0
M  V30 31730 H 3039.3 -3.77654 1.74691 0
M  V30 31731 H 3038.18 -5.15195 1.8938 0
M  V30 31732 H 3038.44 -4.40914 0.323583 0
M  V30 31733 N 3037.5 -0.999914 -1.21817 0
M  V30 31734 C 3038.46 -0.561083 -2.22226 0
M  V30 31735 C 3039.46 0.35983 -1.56722 0
M  V30 31736 O 3040.65 0.150818 -1.73546 0
M  V30 31737 C 3037.78 0.182927 -3.40409 0
M  V30 31738 H 3038.97 -1.44914 -2.62564 0
M  V30 31739 H 3036.53 -0.787874 -1.3499 0
M  V30 31740 H 3037.26 1.08665 -3.05553 0
M  V30 31741 H 3037.05 -0.478399 -3.89171 0
M  V30 31742 H 3038.54 0.477879 -4.14857 0
M  V30 31743 N 3038.97 1.37284 -0.773999 0
M  V30 31744 C 3039.94 2.28583 -0.168014 0
M  V30 31745 C 3040.94 1.4813 0.625636 0
M  V30 31746 O 3042.13 1.68317 0.448894 0
M  V30 31747 C 3039.26 3.32106 0.769305 0
M  V30 31748 H 3040.45 2.83682 -0.972856 0
M  V30 31749 H 3038 1.46588 -0.542361 0
M  V30 31750 H 3038.74 2.82135 1.59907 0
M  V30 31751 H 3038.52 3.91578 0.20235 0
M  V30 31752 H 3040.01 4.00326 1.18865 0
M  V30 31753 N 3040.45 0.524724 1.48608 0
M  V30 31754 C 3041.68 -0.00948494 2.07398 0
M  V30 31755 C 3042.1 -1.27882 1.37941 0
M  V30 31756 O 3041.46 -1.75788 0.443664 0
M  V30 31757 C 3041.51 -0.221893 3.59917 0
M  V30 31758 O 3040.61 -1.29169 3.91649 0
M  V30 31759 H 3039.95 0.0367845 0.66298 0
M  V30 31760 H 3042.48 0.731134 1.91091 0
M  V30 31761 H 3042.49 -0.446165 4.05553 0
M  V30 31762 H 3041.17 0.705378 4.09875 0
M  V30 31763 H 3039.74 -1.05049 3.57798 0
M  V30 31764 N 3041.93 -1.55447 0.259613 0
M  V30 31765 C 3043.18 -1.98852 -0.360858 0
M  V30 31766 C 3043.5 -1.14927 -1.57533 0
M  V30 31767 O 3042.77 -0.23506 -1.94485 0
M  V30 31768 H 3041.35 -0.734456 -0.136319 0
M  V30 31769 H 3044.01 -1.91521 0.361353 0
M  V30 31770 H 3043.11 -3.05013 -0.661335 0
M  V30 31771 N 3043.41 0.0133338 -1.57594 0
M  V30 31772 C 3044.63 0.715962 -1.9465 0
M  V30 31773 C 3045.06 1.67247 -0.860815 0
M  V30 31774 O 3044.42 1.80382 0.182196 0
M  V30 31775 C 3044.46 1.4356 -3.30791 0
M  V30 31776 O 3043.57 2.54949 -3.24152 0
M  V30 31777 H 3042.91 0.191437 -0.635805 0
M  V30 31778 H 3045.44 -0.0358837 -2.04569 0
M  V30 31779 H 3045.45 1.80202 -3.66048 0
M  V30 31780 H 3044.12 0.734191 -4.09368 0
M  V30 31781 H 3042.7 2.20733 -3.00551 0
M  V30 31782 N 3044.89 1.54985 0.285878 0
M  V30 31783 C 3045.82 1.89986 1.35749 0
M  V30 31784 C 3046.8 0.760321 1.52162 0
M  V30 31785 O 3047.98 1.01736 1.65419 0
M  V30 31786 C 3045.11 2.16047 2.71921 0
M  V30 31787 C 3044.07 3.31883 2.70255 0
M  V30 31788 C 3043.39 3.43395 4.09858 0
M  V30 31789 C 3044.69 4.68609 2.30659 0
M  V30 31790 H 3046.39 2.7974 1.06704 0
M  V30 31791 H 3043.93 1.34596 0.51186 0
M  V30 31792 H 3045.88 2.39119 3.46987 0
M  V30 31793 H 3044.61 1.23079 3.02521 0
M  V30 31794 H 3043.27 3.08759 1.97645 0
M  V30 31795 H 3042.92 2.47917 4.3766 0
M  V30 31796 H 3042.62 4.21269 4.09641 0
M  V30 31797 H 3044.14 3.68745 4.86682 0
M  V30 31798 H 3045.55 4.9131 2.95444 0
M  V30 31799 H 3043.95 5.49305 2.41627 0
M  V30 31800 H 3045.02 4.68301 1.25785 0
M  V30 31801 N 3046.36 -0.549794 1.47699 0
M  V30 31802 C 3047.59 -1.33185 1.58333 0
M  V30 31803 C 3048.01 -1.87316 0.236226 0
M  V30 31804 O 3047.36 -1.65384 -0.771641 0
M  V30 31805 C 3047.42 -2.4966 2.61443 0
M  V30 31806 O 3047.14 -1.97764 3.90923 0
M  V30 31807 C 3048.64 -3.41767 2.8233 0
M  V30 31808 H 3045.86 -0.405732 0.534437 0
M  V30 31809 H 3048.4 -0.665275 1.93376 0
M  V30 31810 H 3046.56 -3.12241 2.29313 0
M  V30 31811 H 3046.97 -2.73858 4.47328 0
M  V30 31812 H 3048.44 -4.19891 3.58323 0
M  V30 31813 H 3048.92 -3.95772 1.90423 0
M  V30 31814 H 3049.53 -2.84995 3.15687 0
M  V30 31815 N 3047.84 -1.35955 -0.797117 0
M  V30 31816 C 3049.26 -1.162 -1.09406 0
M  V30 31817 C 3049.46 0.0191328 -2.01491 0
M  V30 31818 O 3048.51 0.68686 -2.42978 0
M  V30 31819 C 3049.83 -2.46934 -1.71593 0
M  V30 31820 C 3051.38 -2.53227 -1.8397 0
M  V30 31821 C 3051.85 -3.84028 -2.49573 0
M  V30 31822 N 3053.34 -3.85331 -2.57049 0
M  V30 31823 C 3054.08 -4.83274 -3.086 0
M  V30 31824 N 3053.57 -5.91608 -3.60517 0
M  V30 31825 N 3055.37 -4.70701 -3.07241 0
M  V30 31826 H 3047.52 -2.11591 -0.185172 0
M  V30 31827 H 3049.78 -0.936884 -0.144752 0
M  V30 31828 H 3049.49 -3.33592 -1.11398 0
M  V30 31829 H 3049.36 -2.62177 -2.71188 0
M  V30 31830 H 3051.75 -1.66992 -2.43306 0
M  V30 31831 H 3051.83 -2.4189 -0.832027 0
M  V30 31832 H 3051.47 -4.70665 -1.90884 0
M  V30 31833 H 3051.4 -3.92657 -3.50895 0
M  V30 31834 H 3053.89 -3.07061 -2.20277 0
M  V30 31835 H 3054.21 -6.62324 -3.9818 0
M  V30 31836 H 3052.55 -5.95287 -3.5869 0
M  V30 31837 H 3055.74 -3.85202 -2.65965 0
M  V30 31838 H 3055.91 -5.47192 -3.47109 0
M  V30 31839 N 3049.32 1.02038 -1.20108 0
M  V30 31840 C 3050.27 2.10499 -0.946505 0
M  V30 31841 C 3051.24 1.65652 0.121873 0
M  V30 31842 O 3052.42 1.90787 -0.0220579 0
M  V30 31843 C 3049.56 3.4145 -0.500559 0
M  V30 31844 C 3048.68 3.99797 -1.63666 0
M  V30 31845 C 3047.81 5.18792 -1.1414 0
M  V30 31846 C 3046.85 5.69213 -2.25084 0
M  V30 31847 N 3045.99 6.79474 -1.76803 0
M  V30 31848 H 3050.83 2.31612 -1.8751 0
M  V30 31849 H 3048.36 1.13585 -0.934713 0
M  V30 31850 H 3050.32 4.16602 -0.22335 0
M  V30 31851 H 3048.95 3.20423 0.391042 0
M  V30 31852 H 3048 3.21777 -2.02888 0
M  V30 31853 H 3049.32 4.33224 -2.47221 0
M  V30 31854 H 3048.47 6.01134 -0.819932 0
M  V30 31855 H 3047.21 4.8692 -0.275701 0
M  V30 31856 H 3046.21 4.85478 -2.58052 0
M  V30 31857 H 3047.44 6.03121 -3.12124 0
M  V30 31858 H 3045.38 6.49438 -0.925542 0
M  V30 31859 H 3045.3 7.12075 -2.53941 0
M  V30 31860 H 3046.57 7.6539 -1.47645 0
M  V30 31861 N 3050.8 1.00636 1.21285 0
M  V30 31862 C 3052.04 0.690856 1.9067 0
M  V30 31863 C 3052.38 -0.776561 1.77998 0
M  V30 31864 O 3051.65 -1.56308 1.15751 0
M  V30 31865 C 3051.94 1.11434 3.42424 0
M  V30 31866 C 3051.79 2.64131 3.64081 0
M  V30 31867 C 3053.11 0.677763 4.3485 0
M  V30 31868 H 3050.23 0.252451 0.692414 0
M  V30 31869 H 3052.87 1.25228 1.42891 0
M  V30 31870 H 3051.02 0.636654 3.83248 0
M  V30 31871 H 3052.69 3.19673 3.32576 0
M  V30 31872 H 3050.93 3.05581 3.079 0
M  V30 31873 H 3051.6 2.88814 4.70415 0
M  V30 31874 H 3054.08 1.08827 4.01617 0
M  V30 31875 H 3052.96 1.00222 5.39673 0
M  V30 31876 H 3053.22 -0.421048 4.4009 0
M  V30 31877 N 3052.28 -1.36872 0.781268 0
M  V30 31878 C 3053.22 -2.30157 0.172187 0
M  V30 31879 C 3054.19 -1.51574 -0.679301 0
M  V30 31880 O 3055.38 -1.8011 -0.629681 0
M  V30 31881 C 3052.52 -3.38061 -0.693474 0
M  V30 31882 C 3051.63 -4.31643 0.175662 0
M  V30 31883 C 3050.77 -5.26626 -0.695602 0
M  V30 31884 C 3049.81 -6.11848 0.175487 0
M  V30 31885 N 3048.94 -6.99045 -0.654293 0
M  V30 31886 H 3053.78 -2.81661 0.973182 0
M  V30 31887 H 3051.32 -1.38646 0.491494 0
M  V30 31888 H 3053.28 -3.99259 -1.21028 0
M  V30 31889 H 3051.91 -2.87897 -1.45998 0
M  V30 31890 H 3050.96 -3.71668 0.810361 0
M  V30 31891 H 3052.27 -4.91553 0.847193 0
M  V30 31892 H 3051.43 -5.93076 -1.27853 0
M  V30 31893 H 3050.16 -4.6715 -1.40079 0
M  V30 31894 H 3049.17 -5.44369 0.770875 0
M  V30 31895 H 3050.39 -6.73398 0.878148 0
M  V30 31896 H 3048.34 -6.42086 -1.34392 0
M  V30 31897 H 3048.26 -7.55989 -0.0402669 0
M  V30 31898 H 3049.53 -7.69873 -1.22131 0
M  V30 31899 N 3053.75 -0.532597 -1.48328 0
M  V30 31900 C 3054.68 0.21747 -2.32485 0
M  V30 31901 C 3055.67 0.932573 -1.42257 0
M  V30 31902 O 3056.85 0.917843 -1.71141 0
M  V30 31903 C 3053.98 1.26324 -3.23511 0
M  V30 31904 C 3052.93 0.666117 -4.22785 0
M  V30 31905 C 3052.26 1.81473 -5.02963 0
M  V30 31906 C 3053.56 -0.363905 -5.21031 0
M  V30 31907 H 3055.25 -0.485066 -2.95445 0
M  V30 31908 H 3052.8 -0.234719 -1.42074 0
M  V30 31909 H 3054.75 1.79594 -3.81214 0
M  V30 31910 H 3053.48 1.99539 -2.58557 0
M  V30 31911 H 3052.14 0.154916 -3.66273 0
M  V30 31912 H 3051.78 2.53532 -4.34431 0
M  V30 31913 H 3051.48 1.4211 -5.70157 0
M  V30 31914 H 3053.01 2.35116 -5.63518 0
M  V30 31915 H 3054.42 0.0818072 -5.73242 0
M  V30 31916 H 3052.82 -0.675061 -5.96291 0
M  V30 31917 H 3053.89 -1.26873 -4.68008 0
M  V30 31918 N 3055.23 1.55307 -0.267853 0
M  V30 31919 C 3056.16 2.25213 0.616545 0
M  V30 31920 C 3057.14 1.23971 1.1647 0
M  V30 31921 O 3058.33 1.52674 1.20018 0
M  V30 31922 C 3055.46 2.96767 1.80407 0
M  V30 31923 C 3054.41 4.04876 1.38777 0
M  V30 31924 C 3053.74 4.63966 2.65781 0
M  V30 31925 C 3055.04 5.19466 0.543323 0
M  V30 31926 H 3056.73 2.99381 0.0335731 0
M  V30 31927 H 3054.28 1.43992 0.0147074 0
M  V30 31928 H 3056.23 3.44379 2.4286 0
M  V30 31929 H 3054.96 2.20122 2.41276 0
M  V30 31930 H 3053.61 3.58064 0.786478 0
M  V30 31931 H 3053.26 3.83997 3.24892 0
M  V30 31932 H 3052.96 5.36958 2.38641 0
M  V30 31933 H 3054.49 5.14324 3.29095 0
M  V30 31934 H 3055.9 5.63176 1.07267 0
M  V30 31935 H 3054.3 5.98976 0.367114 0
M  V30 31936 H 3055.37 4.82903 -0.439618 0
M  V30 31937 N 3056.71 -0.00497598 1.57599 0
M  V30 31938 C 3057.96 -0.690862 1.90351 0
M  V30 31939 C 3058.29 -1.74054 0.868075 0
M  V30 31940 O 3057.54 -1.95282 -0.12782 0
M  V30 31941 C 3057.84 -1.37582 3.29857 0
M  V30 31942 C 3057.51 -0.459827 4.48549 0
M  V30 31943 C 3056.17 -0.207609 4.80752 0
M  V30 31944 C 3058.52 0.171145 5.20919 0
M  V30 31945 C 3055.85 0.683957 5.827 0
M  V30 31946 C 3058.2 1.05056 6.23816 0
M  V30 31947 C 3056.86 1.312 6.54479 0
M  V30 31948 H 3056.13 -0.252804 0.696542 0
M  V30 31949 H 3058.78 0.0494832 1.91436 0
M  V30 31950 H 3057.09 -2.19009 3.24873 0
M  V30 31951 H 3058.78 -1.91249 3.52456 0
M  V30 31952 H 3055.37 -0.666574 4.23385 0
M  V30 31953 H 3059.56 -0.0107069 4.96299 0
M  V30 31954 H 3054.81 0.894573 6.0482 0
M  V30 31955 H 3058.99 1.54586 6.79026 0
M  V30 31956 H 3056.61 2.00455 7.33295 0
M  V30 31957 N 3058.19 -1.55135 -0.277654 0
M  V30 31958 C 3059.6 -1.4687 -0.624599 0
M  V30 31959 C 3059.8 -0.678992 -1.89715 0
M  V30 31960 O 3058.86 -0.195983 -2.51738 0
M  V30 31961 C 3060.17 -2.91044 -0.755886 0
M  V30 31962 C 3061.72 -3.0123 -0.850246 0
M  V30 31963 C 3062.2 -4.46649 -1.01335 0
M  V30 31964 N 3063.69 -4.50458 -1.07898 0
M  V30 31965 C 3064.42 -5.60186 -1.2239 0
M  V30 31966 N 3063.92 -6.7979 -1.3363 0
M  V30 31967 N 3065.71 -5.47919 -1.25463 0
M  V30 31968 H 3057.86 -2.04936 0.558138 0
M  V30 31969 H 3060.13 -0.929122 0.188245 0
M  V30 31970 H 3059.83 -3.51532 0.108654 0
M  V30 31971 H 3059.71 -3.39796 -1.63764 0
M  V30 31972 H 3062.09 -2.40842 -1.70526 0
M  V30 31973 H 3062.17 -2.55739 0.0560131 0
M  V30 31974 H 3061.82 -5.07638 -0.163013 0
M  V30 31975 H 3061.75 -4.89793 -1.93419 0
M  V30 31976 H 3064.24 -3.64299 -1.0047 0
M  V30 31977 H 3064.55 -7.59169 -1.44509 0
M  V30 31978 H 3062.9 -6.82611 -1.30643 0
M  V30 31979 H 3066.09 -4.5342 -1.16309 0
M  V30 31980 H 3066.26 -6.33479 -1.36413 0
M  V30 31981 N 3059.67 0.541953 -1.47989 0
M  V30 31982 C 3060.63 1.62981 -1.61151 0
M  V30 31983 C 3061.63 1.53294 -0.485557 0
M  V30 31984 O 3062.82 1.57178 -0.751039 0
M  V30 31985 C 3059.95 3.02573 -1.57043 0
M  V30 31986 H 3061.14 1.52655 -2.58141 0
M  V30 31987 H 3058.7 0.763082 -1.36407 0
M  V30 31988 H 3059.43 3.18418 -0.614863 0
M  V30 31989 H 3059.22 3.11013 -2.38774 0
M  V30 31990 H 3060.71 3.81688 -1.69423 0
M  V30 31991 N 3061.15 1.36376 0.789896 0
M  V30 31992 C 3062.37 1.33897 1.58386 0
M  V30 31993 C 3062.8 -0.0774603 1.8794 0
M  V30 31994 O 3062.15 -1.04927 1.47851 0
M  V30 31995 C 3062.2 2.16737 2.88197 0
M  V30 31996 O 3061.31 1.55953 3.81775 0
M  V30 31997 H 3060.65 0.458313 0.480463 0
M  V30 31998 H 3063.18 1.79653 0.979088 0
M  V30 31999 H 3063.19 2.29298 3.37471 0
M  V30 32000 H 3061.86 3.19703 2.66013 0
M  V30 32001 H 3060.44 1.52329 3.40368 0
M  V30 32002 N 3062.62 -1.014 1.20647 0
M  V30 32003 C 3063.87 -1.75039 1.01822 0
M  V30 32004 C 3064.2 -1.89238 -0.449352 0
M  V30 32005 O 3063.45 -1.41697 -1.34983 0
M  V30 32006 C 3063.75 -3.17034 1.64997 0
M  V30 32007 C 3063.42 -3.22806 3.14813 0
M  V30 32008 C 3062.08 -3.24088 3.55697 0
M  V30 32009 C 3064.43 -3.20762 4.10805 0
M  V30 32010 C 3061.76 -3.21001 4.91096 0
M  V30 32011 C 3064.11 -3.19217 5.46153 0
M  V30 32012 C 3062.78 -3.18804 5.86447 0
M  V30 32013 H 3062.05 -0.640512 0.372594 0
M  V30 32014 H 3064.69 -1.18909 1.5011 0
M  V30 32015 H 3063 -3.76339 1.08978 0
M  V30 32016 H 3064.7 -3.72711 1.47943 0
M  V30 32017 H 3061.29 -3.22545 2.82246 0
M  V30 32018 H 3065.47 -3.1894 3.80252 0
M  V30 32019 H 3060.73 -3.19014 5.21574 0
M  V30 32020 H 3064.9 -3.16589 6.20278 0
M  V30 32021 H 3062.53 -3.16167 6.91334 0
M  V30 32022 N 3064.1 -1.01278 -1.2075 0
M  V30 32023 C 3065.33 -0.717968 -1.93723 0
M  V30 32024 C 3065.74 0.724702 -1.7477 0
M  V30 32025 O 3065.08 1.50283 -1.05644 0
M  V30 32026 C 3065.14 -0.969015 -3.46194 0
M  V30 32027 C 3064.81 -2.40005 -3.88904 0
M  V30 32028 C 3065.81 -3.38068 -3.94976 0
M  V30 32029 C 3063.49 -2.73977 -4.21001 0
M  V30 32030 C 3065.48 -4.68166 -4.32549 0
M  V30 32031 C 3063.17 -4.0429 -4.5825 0
M  V30 32032 C 3064.17 -5.01196 -4.63996 0
M  V30 32033 O 3063.86 -6.29177 -5.00392 0
M  V30 32034 H 3063.59 -0.263197 -0.622658 0
M  V30 32035 H 3066.14 -1.3558 -1.54296 0
M  V30 32036 H 3064.37 -0.27402 -3.85728 0
M  V30 32037 H 3066.06 -0.666382 -4.00393 0
M  V30 32038 H 3066.83 -3.13157 -3.70348 0
M  V30 32039 H 3062.71 -1.9924 -4.15722 0
M  V30 32040 H 3066.25 -5.43803 -4.36949 0
M  V30 32041 H 3062.15 -4.28981 -4.82333 0
M  V30 32042 H 3062.92 -6.33408 -5.18398 0
M  V30 32043 N 3065.58 1.36456 -0.788516 0
M  V30 32044 C 3066.83 1.99265 -0.360496 0
M  V30 32045 C 3067.15 1.62583 1.06757 0
M  V30 32046 O 3066.41 0.871915 1.75203 0
M  V30 32047 C 3066.71 3.54292 -0.470317 0
M  V30 32048 C 3066.37 4.10792 -1.85906 0
M  V30 32049 C 3065.04 4.25935 -2.23904 0
M  V30 32050 C 3067.39 4.41596 -2.76844 0
M  V30 32051 C 3064.72 4.69192 -3.52243 0
M  V30 32052 C 3067.07 4.86285 -4.04611 0
M  V30 32053 C 3065.73 4.99634 -4.42631 0
M  V30 32054 H 3065 0.729164 -0.131915 0
M  V30 32055 H 3067.65 1.6296 -1.0058 0
M  V30 32056 H 3065.95 3.90946 0.25849 0
M  V30 32057 H 3067.65 4.0082 -0.12019 0
M  V30 32058 H 3064.24 3.99444 -1.55379 0
M  V30 32059 H 3068.43 4.29466 -2.48742 0
M  V30 32060 H 3063.68 4.77715 -3.81574 0
M  V30 32061 H 3067.86 5.09084 -4.75191 0
M  V30 32062 H 3065.48 5.32911 -5.42134 0
M  V30 32063 N 3067.06 0.540456 1.48043 0
M  V30 32064 C 3068 -0.216556 2.29782 0
M  V30 32065 C 3068.97 -0.92407 1.38022 0
M  V30 32066 O 3070.16 -0.923049 1.66986 0
M  V30 32067 C 3067.3 -1.25104 3.21625 0
M  V30 32068 C 3066.41 -0.551309 4.28468 0
M  V30 32069 C 3065.55 -1.56963 5.0748 0
M  V30 32070 C 3064.59 -0.853942 6.06114 0
M  V30 32071 N 3063.72 -1.8183 6.78146 0
M  V30 32072 H 3068.56 0.48663 2.94 0
M  V30 32073 H 3066.1 0.251815 1.44929 0
M  V30 32074 H 3068.06 -1.86323 3.73282 0
M  V30 32075 H 3066.69 -1.92248 2.59308 0
M  V30 32076 H 3065.74 0.175049 3.79997 0
M  V30 32077 H 3067.05 0.0101419 4.98799 0
M  V30 32078 H 3066.21 -2.25582 5.63203 0
M  V30 32079 H 3064.95 -2.16499 4.37012 0
M  V30 32080 H 3063.95 -0.153741 5.49585 0
M  V30 32081 H 3065.18 -0.264556 6.78584 0
M  V30 32082 H 3063.12 -2.40254 6.10421 0
M  V30 32083 H 3063.04 -1.30856 7.44589 0
M  V30 32084 H 3064.31 -2.49615 7.38453 0
M  V30 32085 N 3068.54 -1.55163 0.276085 0
M  V30 32086 C 3069.45 -2.26231 -0.621026 0
M  V30 32087 C 3070.46 -1.28855 -1.16929 0
M  V30 32088 O 3071.64 -1.61793 -1.19937 0
M  V30 32089 C 3068.7 -2.97027 -1.78819 0
M  V30 32090 C 3067.76 -4.09883 -1.2765 0
M  V30 32091 C 3067 -4.77293 -2.38803 0
M  V30 32092 O 3067.22 -4.43918 -3.5818 0
M  V30 32093 O 3066.15 -5.6522 -2.06905 0
M  V30 32094 H 3069.98 -3.03666 -0.0452812 0
M  V30 32095 H 3067.56 -1.49337 0.0434537 0
M  V30 32096 H 3069.45 -3.41515 -2.46871 0
M  V30 32097 H 3068.12 -2.22507 -2.351 0
M  V30 32098 H 3067.03 -3.69848 -0.562415 0
M  V30 32099 H 3068.36 -4.86306 -0.759423 0
M  V30 32100 N 3070.01 -0.00338196 -1.576 0
M  V30 32101 C 3071.26 0.680757 -1.90714 0
M  V30 32102 C 3071.59 1.73591 -0.877294 0
M  V30 32103 O 3070.84 1.95347 0.117462 0
M  V30 32104 C 3071.14 1.35831 -3.30582 0
M  V30 32105 C 3070.81 0.436033 -4.48787 0
M  V30 32106 C 3069.47 0.18211 -4.80855 0
M  V30 32107 C 3071.82 -0.198768 -5.20821 0
M  V30 32108 C 3069.15 -0.714849 -5.82329 0
M  V30 32109 C 3071.5 -1.08362 -6.2325 0
M  V30 32110 C 3070.17 -1.34669 -6.53774 0
M  V30 32111 H 3069.44 0.249107 -0.697873 0
M  V30 32112 H 3072.08 -0.0596348 -1.91407 0
M  V30 32113 H 3070.39 2.17283 -3.2603 0
M  V30 32114 H 3072.09 1.89377 -3.53465 0
M  V30 32115 H 3068.68 0.644111 -4.23732 0
M  V30 32116 H 3072.86 -0.0156132 -4.96298 0
M  V30 32117 H 3068.12 -0.926635 -6.04337 0
M  V30 32118 H 3072.29 -1.58184 -6.78197 0
M  V30 32119 H 3069.92 -2.04341 -7.32222 0
M  V30 32120 N 3071.49 1.5528 0.269423 0
M  V30 32121 C 3072.45 1.87627 1.31639 0
M  V30 32122 C 3073.45 0.751083 1.42181 0
M  V30 32123 O 3074.64 1.01924 1.4127 0
M  V30 32124 C 3071.78 2.08472 2.69726 0
M  V30 32125 H 3072.97 2.81221 1.04185 0
M  V30 32126 H 3070.52 1.47826 0.507659 0
M  V30 32127 H 3071.26 1.17271 3.02354 0
M  V30 32128 H 3071.04 2.90399 2.6346 0
M  V30 32129 H 3072.53 2.34759 3.45366 0
M  V30 32130 N 3072.97 -0.534097 1.48274 0
M  V30 32131 C 3074.2 -1.31499 1.59736 0
M  V30 32132 C 3074.61 -1.87055 0.25608 0
M  V30 32133 O 3073.97 -1.66193 -0.754056 0
M  V30 32134 C 3074.02 -2.46873 2.64076 0
M  V30 32135 O 3073.74 -1.93607 3.92999 0
M  V30 32136 C 3075.24 -3.38753 2.85939 0
M  V30 32137 H 3072.46 -0.40004 0.53871 0
M  V30 32138 H 3075.01 -0.644728 1.94071 0
M  V30 32139 H 3073.16 -3.09791 2.32612 0
M  V30 32140 H 3073.58 -2.69098 4.50207 0
M  V30 32141 H 3075.05 -4.16067 3.62757 0
M  V30 32142 H 3075.53 -3.9373 1.9461 0
M  V30 32143 H 3076.13 -2.81631 3.18692 0
M  V30 32144 N 3074.45 -1.36793 -0.782652 0
M  V30 32145 C 3075.86 -1.17354 -1.08167 0
M  V30 32146 C 3076.06 -0.00223911 -2.015 0
M  V30 32147 O 3075.12 0.66105 -2.43693 0
M  V30 32148 C 3076.43 -2.4874 -1.68964 0
M  V30 32149 C 3077.98 -2.55164 -1.81274 0
M  V30 32150 C 3078.46 -3.86653 -2.45485 0
M  V30 32151 N 3079.95 -3.88036 -2.52947 0
M  V30 32152 C 3080.68 -4.8652 -3.03457 0
M  V30 32153 N 3080.18 -5.95398 -3.54222 0
M  V30 32154 N 3081.97 -4.73933 -3.02231 0
M  V30 32155 H 3074.12 -2.11776 -0.16272 0
M  V30 32156 H 3076.38 -0.938366 -0.134807 0
M  V30 32157 H 3076.09 -3.34754 -1.07853 0
M  V30 32158 H 3075.96 -2.65039 -2.68392 0
M  V30 32159 H 3078.35 -1.69563 -2.41521 0
M  V30 32160 H 3078.43 -2.42759 -0.806325 0
M  V30 32161 H 3078.08 -4.72663 -1.85881 0
M  V30 32162 H 3078.01 -3.96357 -3.46711 0
M  V30 32163 H 3080.5 -3.0938 -2.17008 0
M  V30 32164 H 3080.81 -6.66509 -3.91133 0
M  V30 32165 H 3079.16 -5.99058 -3.52356 0
M  V30 32166 H 3082.35 -3.88001 -2.61864 0
M  V30 32167 H 3082.52 -5.50843 -3.41286 0
M  V30 32168 N 3075.93 1.00759 -1.21184 0
M  V30 32169 C 3077.15 1.78077 -1.05338 0
M  V30 32170 C 3077.57 1.8458 0.396955 0
M  V30 32171 O 3076.93 1.30531 1.27546 0
M  V30 32172 C 3076.98 3.22111 -1.64095 0
M  V30 32173 O 3076.7 3.15987 -3.03453 0
M  V30 32174 C 3078.2 4.1594 -1.53325 0
M  V30 32175 H 3075.42 0.559729 -0.37006 0
M  V30 32176 H 3077.96 1.26772 -1.60466 0
M  V30 32177 H 3076.12 3.70533 -1.13065 0
M  V30 32178 H 3076.53 4.06459 -3.31499 0
M  V30 32179 H 3078.01 5.14811 -1.99183 0
M  V30 32180 H 3078.48 4.36489 -0.487243 0
M  V30 32181 H 3079.09 3.73405 -2.03589 0
M  V30 32182 N 3077.4 1.01917 1.20211 0
M  V30 32183 C 3078.65 0.709988 1.89646 0
M  V30 32184 C 3078.98 -0.760599 1.79012 0
M  V30 32185 O 3078.23 -1.56851 1.17031 0
M  V30 32186 C 3078.53 1.09444 3.4023 0
M  V30 32187 C 3078.2 2.56167 3.71065 0
M  V30 32188 C 3076.86 2.96256 3.79191 0
M  V30 32189 C 3079.21 3.5114 3.85162 0
M  V30 32190 C 3076.54 4.30251 3.98874 0
M  V30 32191 C 3078.89 4.84827 4.06356 0
M  V30 32192 C 3077.56 5.24619 4.12712 0
M  V30 32193 H 3076.83 0.259803 0.693962 0
M  V30 32194 H 3079.47 1.28023 1.42417 0
M  V30 32195 H 3077.78 0.442664 3.89291 0
M  V30 32196 H 3079.48 0.83288 3.92255 0
M  V30 32197 H 3076.07 2.24106 3.65342 0
M  V30 32198 H 3080.25 3.21326 3.78237 0
M  V30 32199 H 3075.51 4.60631 4.02031 0
M  V30 32200 H 3079.68 5.58341 4.16207 0
M  V30 32201 H 3077.31 6.2846 4.27717 0
M  V30 32202 N 3078.88 -1.36036 0.795742 0
M  V30 32203 C 3080.11 -2.03321 0.383189 0
M  V30 32204 C 3080.53 -1.5999 -1.00243 0
M  V30 32205 O 3079.88 -0.792294 -1.64405 0
M  V30 32206 C 3079.93 -3.58756 0.44453 0
M  V30 32207 O 3079.65 -4.00509 1.77551 0
M  V30 32208 C 3081.16 -4.43294 0.023407 0
M  V30 32209 H 3078.38 -0.652357 0.157073 0
M  V30 32210 H 3080.92 -1.73882 1.07635 0
M  V30 32211 H 3079.07 -3.86882 -0.200273 0
M  V30 32212 H 3079.49 -4.95122 1.73073 0
M  V30 32213 H 3080.96 -5.51875 0.117458 0
M  V30 32214 H 3081.44 -4.26952 -1.02999 0
M  V30 32215 H 3082.05 -4.20443 0.640943 0
M  V30 32216 N 3080.36 -0.5483 -1.47755 0
M  V30 32217 C 3081.32 0.193817 -2.28379 0
M  V30 32218 C 3082.32 0.850962 -1.36438 0
M  V30 32219 O 3083.51 0.708192 -1.59155 0
M  V30 32220 C 3080.65 1.28238 -3.15861 0
M  V30 32221 H 3081.84 -0.514283 -2.95458 0
M  V30 32222 H 3079.39 -0.304906 -1.53297 0
M  V30 32223 H 3080.13 2.02316 -2.53454 0
M  V30 32224 H 3079.91 0.816081 -3.83513 0
M  V30 32225 H 3081.4 1.80386 -3.76631 0
M  V30 32226 N 3081.84 1.55014 -0.28431 0
M  V30 32227 C 3083.07 2.04204 0.332912 0
M  V30 32228 C 3083.48 1.16232 1.48781 0
M  V30 32229 O 3082.84 0.184355 1.81566 0
M  V30 32230 C 3082.89 3.5242 0.805145 0
M  V30 32231 O 3082.61 4.37046 -0.303766 0
M  V30 32232 C 3084.11 4.17536 1.48924 0
M  V30 32233 H 3081.33 0.666825 0.074733 0
M  V30 32234 H 3083.88 2.0016 -0.419083 0
M  V30 32235 H 3082.03 3.56878 1.5072 0
M  V30 32236 H 3082.44 5.24465 0.0608781 0
M  V30 32237 H 3083.92 5.22819 1.77099 0
M  V30 32238 H 3084.4 3.66262 2.42382 0
M  V30 32239 H 3085 4.17107 0.830794 0
M  V30 32240 N 3083.32 0.0117398 1.57596 0
M  V30 32241 C 3084.54 -0.6813 1.95361 0
M  V30 32242 C 3084.96 -1.66651 0.887285 0
M  V30 32243 O 3084.32 -1.82017 -0.13266 0
M  V30 32244 C 3084.37 -1.40292 3.33167 0
M  V30 32245 O 3084.09 -0.457203 4.35708 0
M  V30 32246 C 3085.59 -2.18939 3.85462 0
M  V30 32247 H 3082.81 -0.189011 0.643829 0
M  V30 32248 H 3085.35 0.0663469 2.04392 0
M  V30 32249 H 3083.51 -2.1021 3.25408 0
M  V30 32250 H 3083.92 -0.967639 5.15497 0
M  V30 32251 H 3085.4 -2.6491 4.8428 0
M  V30 32252 H 3085.87 -3.02113 3.18786 0
M  V30 32253 H 3086.48 -1.54013 3.96434 0
M  V30 32254 N 3084.79 -1.55421 -0.261185 0
M  V30 32255 C 3085.76 -1.88322 -1.30642 0
M  V30 32256 C 3086.76 -0.758613 -1.4178 0
M  V30 32257 O 3087.95 -1.02671 -1.40727 0
M  V30 32258 C 3085.08 -2.099 -2.68617 0
M  V30 32259 H 3086.27 -2.8177 -1.02693 0
M  V30 32260 H 3083.83 -1.48093 -0.499812 0
M  V30 32261 H 3084.56 -1.18873 -3.01728 0
M  V30 32262 H 3084.35 -2.91792 -2.61916 0
M  V30 32263 H 3085.84 -2.36587 -3.44116 0
M  V30 32264 N 3086.27 0.526227 -1.48555 0
M  V30 32265 C 3087.52 1.28375 -1.56996 0
M  V30 32266 C 3087.85 1.92652 -0.244735 0
M  V30 32267 O 3087.13 1.79475 0.749604 0
M  V30 32268 C 3087.41 2.37021 -2.71096 0
M  V30 32269 C 3087.26 1.77411 -4.13335 0
M  V30 32270 C 3088.58 3.38764 -2.8094 0
M  V30 32271 H 3085.7 0.465388 -0.571474 0
M  V30 32272 H 3088.34 0.585829 -1.80743 0
M  V30 32273 H 3086.49 2.9655 -2.50979 0
M  V30 32274 H 3088.16 1.21904 -4.44901 0
M  V30 32275 H 3086.41 1.07928 -4.20159 0
M  V30 32276 H 3087.08 2.56095 -4.88998 0
M  V30 32277 H 3089.55 2.89195 -2.99175 0
M  V30 32278 H 3088.43 4.12174 -3.62496 0
M  V30 32279 H 3088.69 3.99546 -1.89251 0
M  V30 32280 N 3087.75 1.37206 0.775387 0
M  V30 32281 C 3089 1.31952 1.53078 0
M  V30 32282 C 3089.32 -0.0966521 1.9476 0
M  V30 32283 O 3088.59 -1.03991 1.6602 0
M  V30 32284 H 3087.17 0.485454 0.567753 0
M  V30 32285 H 3089.83 1.71655 0.92306 0
M  V30 32286 H 3088.93 1.95618 2.43187 0
M  V30 32287 N 3089.23 -1.00115 1.21716 0
M  V30 32288 C 3090.45 -1.78052 1.0636 0
M  V30 32289 C 3090.88 -1.84179 -0.382043 0
M  V30 32290 O 3090.24 -1.28821 -1.27573 0
M  V30 32291 C 3090.28 -3.19605 1.66988 0
M  V30 32292 O 3089.39 -4.02054 0.917963 0
M  V30 32293 H 3088.73 -0.548596 0.374084 0
M  V30 32294 H 3091.26 -1.25819 1.6134 0
M  V30 32295 H 3091.27 -3.70265 1.71369 0
M  V30 32296 H 3089.94 -3.1446 2.72191 0
M  V30 32297 H 3088.52 -3.60608 0.949536 0
M  V30 32298 N 3090.71 -1.02553 -1.19669 0
M  V30 32299 C 3091.95 -0.728701 -1.90969 0
M  V30 32300 C 3092.31 0.729026 -1.77621 0
M  V30 32301 O 3093.51 1.13878 -2.43486 0
M  V30 32302 C 3091.78 -1.16329 -3.37938 0
M  V30 32303 S 3093.34 -0.989797 -4.27491 0
M  V30 32304 H 3090.16 -0.265392 -0.659612 0
M  V30 32305 H 3092.76 -1.31466 -1.44696 0
M  V30 32306 H 3091.47 -2.21992 -3.45178 0
M  V30 32307 H 3091 -0.570485 -3.89242 0
M  V30 32308 H 3093.01 0.101579 -4.96096 0
M  V30 32309 N 3092.19 1.35612 -0.802945 0
M  V30 32310 C 3093.43 1.98124 -0.378122 0
M  V30 32311 C 3093.75 1.6442 1.0595 0
M  V30 32312 O 3094.95 2.20269 1.58725 0
M  V30 32313 C 3093.41 3.54429 -0.625139 0
M  V30 32314 C 3093.02 3.97046 -2.07506 0
M  V30 32315 C 3094.76 4.23669 -0.265493 0
M  V30 32316 C 3092.67 5.46182 -2.26802 0
M  V30 32317 H 3091.6 0.74133 -0.137646 0
M  V30 32318 H 3094.25 1.54728 -0.986489 0
M  V30 32319 H 3092.63 3.95964 0.0531279 0
M  V30 32320 H 3093.81 3.66673 -2.79084 0
M  V30 32321 H 3092.12 3.40684 -2.39423 0
M  V30 32322 H 3094.72 5.33292 -0.387763 0
M  V30 32323 H 3095.06 4.08776 0.787922 0
M  V30 32324 H 3095.59 3.87543 -0.897532 0
M  V30 32325 H 3092.33 5.66039 -3.30576 0
M  V30 32326 H 3091.85 5.78136 -1.59745 0
M  V30 32327 H 3093.53 6.12594 -2.08176 0
M  V30 32328 N 3093.66 0.556128 1.47462 0
M  V30 32329 C 3094.61 -0.192173 2.29999 0
M  V30 32330 C 3095.58 -0.909379 1.38995 0
M  V30 32331 O 3096.77 -0.905286 1.67956 0
M  V30 32332 C 3093.91 -1.21686 3.22934 0
M  V30 32333 C 3093.02 -0.505833 4.29028 0
M  V30 32334 C 3092.15 -1.51572 5.09116 0
M  V30 32335 C 3091.19 -0.789607 6.06986 0
M  V30 32336 N 3090.33 -1.74627 6.80037 0
M  V30 32337 H 3095.17 0.517785 2.93467 0
M  V30 32338 H 3092.71 0.267172 1.44653 0
M  V30 32339 H 3094.66 -1.82354 3.75237 0
M  V30 32340 H 3093.29 -1.89487 2.61332 0
M  V30 32341 H 3092.35 0.215343 3.7979 0
M  V30 32342 H 3093.66 0.0630456 4.9876 0
M  V30 32343 H 3092.81 -2.19596 5.65564 0
M  V30 32344 H 3091.55 -2.11852 4.39284 0
M  V30 32345 H 3090.56 -0.0954416 5.49717 0
M  V30 32346 H 3091.78 -0.192568 6.78827 0
M  V30 32347 H 3089.73 -2.33767 6.12935 0
M  V30 32348 H 3089.64 -1.22952 7.45935 0
M  V30 32349 H 3090.91 -2.41769 7.41059 0
M  V30 32350 N 3095.14 -1.54861 0.292527 0
M  V30 32351 C 3096.37 -2.04839 -0.324904 0
M  V30 32352 C 3096.79 -1.1688 -1.47379 0
M  V30 32353 O 3096.15 -0.17106 -1.80491 0
M  V30 32354 C 3096.2 -3.52351 -0.766878 0
M  V30 32355 O 3095.3 -3.67439 -1.8725 0
M  V30 32356 H 3094.64 -0.660859 -0.0645079 0
M  V30 32357 H 3097.17 -1.99989 0.431902 0
M  V30 32358 H 3097.18 -3.94044 -1.05797 0
M  V30 32359 H 3095.86 -4.15835 0.0735943 0
M  V30 32360 H 3094.43 -3.37651 -1.5826 0
M  V30 32361 N 3096.62 -0.0200973 -1.57587 0
M  V30 32362 C 3097.87 0.66147 -1.91709 0
M  V30 32363 C 3098.2 1.72295 -0.895998 0
M  V30 32364 O 3097.47 1.94325 0.0825428 0
M  V30 32365 C 3097.76 1.28621 -3.36346 0
M  V30 32366 C 3097.61 0.234903 -4.49186 0
M  V30 32367 C 3098.93 2.20678 -3.80774 0
M  V30 32368 H 3096.05 0.238992 -0.697174 0
M  V30 32369 H 3098.69 -0.0755098 -1.8985 0
M  V30 32370 H 3096.84 1.91433 -3.38061 0
M  V30 32371 H 3098.51 -0.395091 -4.59605 0
M  V30 32372 H 3096.75 -0.440641 -4.31556 0
M  V30 32373 H 3097.43 0.711462 -5.47396 0
M  V30 32374 H 3099.9 1.67862 -3.80738 0
M  V30 32375 H 3098.78 2.61347 -4.82689 0
M  V30 32376 H 3099.04 3.09423 -3.15769 0
M  V30 32377 N 3098.1 1.55557 0.252939 0
M  V30 32378 C 3099.34 1.77368 0.983275 0
M  V30 32379 C 3099.68 0.58429 1.85202 0
M  V30 32380 O 3098.95 -0.417611 1.89964 0
M  V30 32381 C 3099.23 3.09011 1.84891 0
M  V30 32382 C 3099.09 4.38343 1.00875 0
M  V30 32383 C 3100.41 3.36836 2.83248 0
M  V30 32384 H 3097.53 0.645292 0.356044 0
M  V30 32385 H 3100.17 1.88292 0.254199 0
M  V30 32386 H 3098.32 2.99829 2.47052 0
M  V30 32387 H 3099.99 4.59507 0.406299 0
M  V30 32388 H 3098.23 4.3267 0.312894 0
M  V30 32389 H 3098.9 5.26822 1.64809 0
M  V30 32390 H 3101.38 3.45942 2.31222 0
M  V30 32391 H 3100.26 4.30175 3.40941 0
M  V30 32392 H 3100.52 2.57453 3.59403 0
M  V30 32393 N 3099.58 -0.518341 1.48832 0
M  V30 32394 C 3100.99 -0.847956 1.3521 0
M  V30 32395 C 3101.19 -1.98037 0.371962 0
M  V30 32396 O 3100.25 -2.51686 -0.202637 0
M  V30 32397 C 3101.56 -1.2045 2.75522 0
M  V30 32398 C 3103.11 -1.31372 2.84096 0
M  V30 32399 C 3103.58 -1.70364 4.25135 0
M  V30 32400 N 3105.07 -1.77445 4.27864 0
M  V30 32401 C 3105.81 -2.09025 5.33944 0
M  V30 32402 N 3105.31 -2.38948 6.50289 0
M  V30 32403 N 3107.1 -2.1013 5.21346 0
M  V30 32404 H 3099.25 0.228661 2.11166 0
M  V30 32405 H 3101.51 0.0396765 0.947169 0
M  V30 32406 H 3101.22 -0.44593 3.48862 0
M  V30 32407 H 3101.09 -2.15199 3.09789 0
M  V30 32408 H 3103.48 -2.06304 2.11004 0
M  V30 32409 H 3103.56 -0.347158 2.53433 0
M  V30 32410 H 3103.2 -0.959887 4.98747 0
M  V30 32411 H 3103.13 -2.6809 4.5325 0
M  V30 32412 H 3105.63 -1.56551 3.43948 0
M  V30 32413 H 3105.94 -2.62184 7.26966 0
M  V30 32414 H 3104.28 -2.36442 6.53544 0
M  V30 32415 H 3107.47 -1.86218 4.29466 0
M  V30 32416 H 3107.65 -2.34408 6.04117 0
M  V30 32417 N 3101.05 -1.37615 -0.7681 0
M  V30 32418 C 3102 -1.30187 -1.87177 0
M  V30 32419 C 3102.99 -0.188971 -1.59786 0
M  V30 32420 O 3104.18 -0.423686 -1.71854 0
M  V30 32421 C 3101.31 -1.11477 -3.24696 0
M  V30 32422 C 3100.39 -2.27327 -3.58027 0
M  V30 32423 N 3100.79 -3.52728 -3.62514 0
M  V30 32424 C 3099.08 -2.19561 -3.88213 0
M  V30 32425 C 3099.78 -4.29144 -3.92696 0
M  V30 32426 N 3098.76 -3.58326 -4.08783 0
M  V30 32427 H 3102.56 -2.2515 -1.88903 0
M  V30 32428 H 3100.08 -1.3064 -0.96473 0
M  V30 32429 H 3102.07 -1.0424 -4.03658 0
M  V30 32430 H 3100.73 -0.174338 -3.24232 0
M  V30 32431 H 3101.74 -3.86589 -3.4463 0
M  V30 32432 H 3098.42 -1.33595 -3.95548 0
M  V30 32433 H 3099.81 -5.3769 -4.02913 0
M  V30 32434 N 3102.53 0.994677 -1.22245 0
M  V30 32435 C 3103.46 2.10277 -1.01517 0
M  V30 32436 C 3104.44 1.69982 0.0633067 0
M  V30 32437 O 3105.63 1.9395 -0.0985609 0
M  V30 32438 C 3102.76 3.42248 -0.59022 0
M  V30 32439 C 3101.71 3.96384 -1.61443 0
M  V30 32440 C 3101.04 5.24382 -1.04537 0
M  V30 32441 C 3102.34 4.2727 -3.00395 0
M  V30 32442 H 3104.03 2.27876 -1.94198 0
M  V30 32443 H 3101.58 1.09506 -0.935113 0
M  V30 32444 H 3103.53 4.19176 -0.432328 0
M  V30 32445 H 3102.25 3.24472 0.372251 0
M  V30 32446 H 3100.91 3.21586 -1.76006 0
M  V30 32447 H 3100.56 5.02945 -0.0743109 0
M  V30 32448 H 3100.26 5.61568 -1.72959 0
M  V30 32449 H 3101.79 6.03945 -0.899028 0
M  V30 32450 H 3103.2 4.95002 -2.89216 0
M  V30 32451 H 3101.6 4.75625 -3.65925 0
M  V30 32452 H 3102.67 3.35119 -3.50462 0
M  V30 32453 N 3104.01 1.03186 1.19123 0
M  V30 32454 C 3105.26 0.728621 1.88509 0
M  V30 32455 C 3105.58 -0.745279 1.80196 0
M  V30 32456 O 3104.85 -1.53718 1.2144 0
M  V30 32457 H 3103.43 0.266523 0.697836 0
M  V30 32458 H 3106.09 1.30673 1.44605 0
M  V30 32459 H 3105.19 1.02559 2.94768 0
M  V30 32460 N 3105.49 -1.35184 0.810125 0
M  V30 32461 C 3106.73 -1.98961 0.392733 0
M  V30 32462 C 3107.07 -1.64111 -1.03832 0
M  V30 32463 O 3106.34 -0.90623 -1.72098 0
M  V30 32464 C 3106.63 -3.55392 0.580411 0
M  V30 32465 C 3106.48 -4.00027 2.05666 0
M  V30 32466 C 3107.8 -4.40099 0.00830353 0
M  V30 32467 H 3104.92 -0.722761 0.14417 0
M  V30 32468 H 3107.56 -1.6028 1.02032 0
M  V30 32469 H 3105.71 -3.88473 0.0461789 0
M  V30 32470 H 3107.38 -3.77339 2.65354 0
M  V30 32471 H 3105.62 -3.50807 2.55181 0
M  V30 32472 H 3106.29 -5.08879 2.13884 0
M  V30 32473 H 3108.77 -4.13498 0.46459 0
M  V30 32474 H 3107.65 -5.48638 0.16951 0
M  V30 32475 H 3107.91 -4.28562 -1.08569 0
M  V30 32476 N 3106.97 -0.56394 -1.47165 0
M  V30 32477 C 3108.19 -0.047465 -2.06846 0
M  V30 32478 C 3108.61 1.24925 -1.4156 0
M  V30 32479 O 3107.97 1.751 -0.514407 0
M  V30 32480 C 3108.02 0.144767 -3.6121 0
M  V30 32481 O 3107.74 -1.10061 -4.2405 0
M  V30 32482 C 3109.24 0.697753 -4.37774 0
M  V30 32483 H 3106.46 -0.0489014 -0.669216 0
M  V30 32484 H 3109 -0.779269 -1.8907 0
M  V30 32485 H 3107.16 0.826723 -3.78476 0
M  V30 32486 H 3107.57 -0.902571 -5.16676 0
M  V30 32487 H 3109.05 0.78152 -5.4644 0
M  V30 32488 H 3109.52 1.71056 -4.0452 0
M  V30 32489 H 3110.13 0.0512769 -4.25269 0
M  V30 32490 N 3108.44 1.54704 -0.300735 0
M  V30 32491 C 3109.39 2.2351 0.575481 0
M  V30 32492 C 3110.36 1.2176 1.12977 0
M  V30 32493 O 3111.55 1.50379 1.17434 0
M  V30 32494 C 3108.69 2.97929 1.74162 0
M  V30 32495 C 3107.8 4.14452 1.21875 0
M  V30 32496 C 3106.93 4.76454 2.34873 0
M  V30 32497 C 3105.97 5.85122 1.79718 0
M  V30 32498 N 3105.11 6.4108 2.86289 0
M  V30 32499 H 3109.95 2.97995 -0.0178781 0
M  V30 32500 H 3107.49 1.47086 -0.0205924 0
M  V30 32501 H 3109.45 3.39307 2.42748 0
M  V30 32502 H 3108.08 2.25821 2.30661 0
M  V30 32503 H 3107.13 3.78017 0.42516 0
M  V30 32504 H 3108.44 4.92743 0.774979 0
M  V30 32505 H 3107.59 5.20683 3.11406 0
M  V30 32506 H 3106.33 3.97494 2.82577 0
M  V30 32507 H 3105.34 5.40317 1.01674 0
M  V30 32508 H 3106.56 6.65965 1.32919 0
M  V30 32509 H 3104.51 5.65004 3.33327 0
M  V30 32510 H 3104.43 7.14716 2.46407 0
M  V30 32511 H 3105.69 6.89967 3.6272 0
M  V30 32512 N 3109.92 0.0284543 1.57574 0
M  V30 32513 C 3111.17 -0.649046 1.91394 0
M  V30 32514 C 3111.49 -1.72706 0.905399 0
M  V30 32515 O 3110.76 -1.95828 -0.0531763 0
M  V30 32516 H 3109.34 -0.242727 0.706465 0
M  V30 32517 H 3112 0.0761002 1.94751 0
M  V30 32518 H 3111.1 -1.10221 2.91989 0
M  V30 32519 N 3111.4 -1.55689 -0.244686 0
M  V30 32520 C 3112.65 -1.76826 -0.970341 0
M  V30 32521 C 3112.96 -0.592797 -1.86401 0
M  V30 32522 O 3114.17 -0.687232 -2.62658 0
M  V30 32523 C 3112.62 -3.13061 -1.77541 0
M  V30 32524 C 3112.23 -4.38261 -0.929027 0
M  V30 32525 C 3113.98 -3.43535 -2.49367 0
M  V30 32526 C 3111.88 -5.65527 -1.73012 0
M  V30 32527 H 3110.81 -0.659192 -0.366036 0
M  V30 32528 H 3113.46 -1.82116 -0.224932 0
M  V30 32529 H 3111.85 -3.01883 -2.56286 0
M  V30 32530 H 3113.02 -4.60433 -0.183755 0
M  V30 32531 H 3111.34 -4.15138 -0.323998 0
M  V30 32532 H 3113.93 -4.35836 -3.0976 0
M  V30 32533 H 3114.28 -2.64961 -3.21094 0
M  V30 32534 H 3114.81 -3.55938 -1.77631 0
M  V30 32535 H 3111.55 -6.46929 -1.05655 0
M  V30 32536 H 3111.07 -5.47453 -2.45061 0
M  V30 32537 H 3112.75 -6.04864 -2.29669 0
M  V30 32538 N 3112.88 0.510441 -1.49105 0
M  V30 32539 C 3113.81 1.62184 -1.67984 0
M  V30 32540 C 3114.79 1.6168 -0.528558 0
M  V30 32541 O 3115.97 1.78569 -0.763336 0
M  V30 32542 C 3113.1 3.00707 -1.7376 0
M  V30 32543 C 3112.06 3.16075 -2.88584 0
M  V30 32544 C 3111.38 4.55855 -2.79465 0
M  V30 32545 C 3112.68 2.96992 -4.29643 0
M  V30 32546 H 3114.38 1.46639 -2.61032 0
M  V30 32547 H 3111.92 0.70402 -1.25617 0
M  V30 32548 H 3113.88 3.78348 -1.85554 0
M  V30 32549 H 3112.6 3.17319 -0.773052 0
M  V30 32550 H 3111.26 2.40856 -2.76376 0
M  V30 32551 H 3110.91 4.6933 -1.80938 0
M  V30 32552 H 3110.61 4.67079 -3.56526 0
M  V30 32553 H 3112.13 5.35569 -2.93254 0
M  V30 32554 H 3113.55 3.6441 -4.42581 0
M  V30 32555 H 3111.94 3.19696 -5.07853 0
M  V30 32556 H 3113.01 1.93211 -4.44744 0
M  V30 32557 N 3114.36 1.38021 0.760791 0
M  V30 32558 C 3115.58 1.37051 1.54999 0
M  V30 32559 C 3116 -0.041493 1.88754 0
M  V30 32560 O 3115.36 -1.00621 1.52255 0
M  V30 32561 C 3115.41 2.21933 2.85356 0
M  V30 32562 O 3115.13 3.57632 2.53043 0
M  V30 32563 C 3116.63 2.29064 3.79532 0
M  V30 32564 H 3113.85 0.46904 0.479836 0
M  V30 32565 H 3116.39 1.81506 0.942116 0
M  V30 32566 H 3114.55 1.80959 3.42538 0
M  V30 32567 H 3114.96 4.02247 3.36597 0
M  V30 32568 H 3116.44 2.92757 4.67972 0
M  V30 32569 H 3116.91 1.30221 4.19451 0
M  V30 32570 H 3117.52 2.70398 3.28276 0
M  V30 32571 N 3115.83 -0.98818 1.22771 0
M  V30 32572 C 3117.08 -1.72498 1.05304 0
M  V30 32573 C 3117.4 -1.90596 -0.412069 0
M  V30 32574 O 3116.67 -1.46901 -1.29603 0
M  V30 32575 H 3115.25 -0.639137 0.386669 0
M  V30 32576 H 3117.92 -1.18991 1.54361 0
M  V30 32577 H 3117.01 -2.7176 1.53469 0
M  V30 32578 N 3117.31 -1.03816 -1.18575 0
M  V30 32579 C 3118.55 -0.748915 -1.90186 0
M  V30 32580 C 3118.92 0.710145 -1.78384 0
M  V30 32581 O 3120.12 1.11289 -2.4468 0
M  V30 32582 C 3118.39 -1.19907 -3.36685 0
M  V30 32583 S 3119.95 -1.03508 -4.26417 0
M  V30 32584 H 3116.77 -0.272373 -0.65676 0
M  V30 32585 H 3119.37 -1.32993 -1.43294 0
M  V30 32586 H 3118.07 -2.25641 -3.42804 0
M  V30 32587 H 3117.6 -0.611737 -3.88615 0
M  V30 32588 H 3119.62 0.0489559 -4.96176 0
M  V30 32589 N 3118.79 1.34753 -0.817283 0
M  V30 32590 C 3120.04 1.98456 -0.402682 0
M  V30 32591 C 3120.37 1.64811 1.03284 0
M  V30 32592 O 3119.62 0.908882 1.73314 0
M  V30 32593 C 3119.92 3.53215 -0.545362 0
M  V30 32594 C 3119.59 4.06756 -1.94578 0
M  V30 32595 C 3118.25 4.2109 -2.32888 0
M  V30 32596 C 3120.6 4.35624 -2.86149 0
M  V30 32597 C 3117.93 4.61615 -3.62116 0
M  V30 32598 C 3120.28 4.77593 -4.14834 0
M  V30 32599 C 3118.94 4.90132 -4.5313 0
M  V30 32600 H 3118.21 0.726201 -0.147352 0
M  V30 32601 H 3120.86 1.6079 -1.04014 0
M  V30 32602 H 3119.17 3.91407 0.175507 0
M  V30 32603 H 3120.86 4.00475 -0.205182 0
M  V30 32604 H 3117.45 3.96058 -1.63817 0
M  V30 32605 H 3121.64 4.24093 -2.57796 0
M  V30 32606 H 3116.89 4.69514 -3.91621 0
M  V30 32607 H 3121.07 4.9889 -4.85882 0
M  V30 32608 H 3118.69 5.21292 -5.53316 0
M  V30 32609 N 3120.27 0.571737 1.46864 0
M  V30 32610 C 3121.49 0.0565019 2.07323 0
M  V30 32611 C 3121.92 -1.23429 1.4194 0
M  V30 32612 O 3121.28 -1.74287 0.499364 0
M  V30 32613 C 3121.33 -0.107276 3.6044 0
M  V30 32614 O 3120.43 -1.16643 3.95561 0
M  V30 32615 H 3119.77 0.0578581 0.661474 0
M  V30 32616 H 3122.3 0.791558 1.88668 0
M  V30 32617 H 3122.31 -0.316915 4.06767 0
M  V30 32618 H 3120.99 0.83542 4.07423 0
M  V30 32619 H 3119.56 -0.936125 3.60959 0
M  V30 32620 N 3121.75 -1.54542 0.308935 0
M  V30 32621 C 3122.99 -2.00295 -0.298001 0
M  V30 32622 C 3123.32 -1.19727 -1.53283 0
M  V30 32623 O 3122.58 -0.263585 -1.93917 0
M  V30 32624 C 3122.88 -3.50647 -0.69146 0
M  V30 32625 C 3122.54 -4.48723 0.442533 0
M  V30 32626 C 3121.2 -4.75259 0.753823 0
M  V30 32627 C 3123.56 -5.0708 1.20497 0
M  V30 32628 C 3120.88 -5.57412 1.83053 0
M  V30 32629 C 3123.24 -5.90405 2.27166 0
M  V30 32630 C 3121.9 -6.15249 2.58893 0
M  V30 32631 H 3121.17 -0.732932 -0.109046 0
M  V30 32632 H 3123.82 -1.86617 0.42968 0
M  V30 32633 H 3122.12 -3.61976 -1.49935 0
M  V30 32634 H 3123.82 -3.83479 -1.17238 0
M  V30 32635 H 3120.41 -4.28179 0.189819 0
M  V30 32636 H 3124.59 -4.86574 0.977738 0
M  V30 32637 H 3119.85 -5.74896 2.08098 0
M  V30 32638 H 3124.02 -6.34647 2.86698 0
M  V30 32639 H 3121.65 -6.78696 3.42455 0
M  V30 32640 N 3123.23 -0.0368104 -1.57557 0
M  V30 32641 C 3124.47 0.641099 -1.924 0
M  V30 32642 C 3124.8 1.71335 -0.914222 0
M  V30 32643 O 3124.08 1.94401 0.0619274 0
M  V30 32644 C 3124.36 1.25046 -3.37691 0
M  V30 32645 C 3124.22 0.187247 -4.4941 0
M  V30 32646 C 3125.53 2.16627 -3.83094 0
M  V30 32647 H 3122.65 0.231584 -0.69967 0
M  V30 32648 H 3125.3 -0.0956416 -1.89759 0
M  V30 32649 H 3123.45 1.87837 -3.40073 0
M  V30 32650 H 3125.12 -0.443816 -4.5916 0
M  V30 32651 H 3123.36 -0.486388 -4.31065 0
M  V30 32652 H 3124.03 0.653363 -5.4812 0
M  V30 32653 H 3126.51 1.63814 -3.82497 0
M  V30 32654 H 3125.38 2.56213 -4.85434 0
M  V30 32655 H 3125.64 3.06056 -3.19033 0
M  V30 32656 N 3124.7 1.55817 0.236426 0
M  V30 32657 C 3125.65 1.9119 1.29286 0
M  V30 32658 C 3126.62 0.767327 1.47314 0
M  V30 32659 O 3127.81 1.02191 1.61126 0
M  V30 32660 C 3124.95 2.22111 2.64122 0
M  V30 32661 C 3124.06 3.49428 2.54016 0
M  V30 32662 C 3123.19 3.69868 3.81276 0
M  V30 32663 C 3122.23 4.90749 3.6583 0
M  V30 32664 N 3121.37 5.07655 4.85005 0
M  V30 32665 H 3126.21 2.81279 0.984191 0
M  V30 32666 H 3123.75 1.3923 0.474697 0
M  V30 32667 H 3125.7 2.38046 3.42622 0
M  V30 32668 H 3124.33 1.35214 2.93116 0
M  V30 32669 H 3123.39 3.41768 1.6703 0
M  V30 32670 H 3124.7 4.38076 2.38518 0
M  V30 32671 H 3123.85 3.85818 4.68219 0
M  V30 32672 H 3122.59 2.79472 3.99683 0
M  V30 32673 H 3121.6 4.74764 2.77271 0
M  V30 32674 H 3122.82 5.82615 3.48908 0
M  V30 32675 H 3120.77 4.20199 5.03754 0
M  V30 32676 H 3120.68 5.90411 4.72177 0
M  V30 32677 H 3121.95 5.28027 5.73417 0
M  V30 32678 N 3126.18 -0.502526 1.49373 0
M  V30 32679 C 3127.11 -1.62187 1.60532 0
M  V30 32680 C 3128.09 -1.5612 0.454459 0
M  V30 32681 O 3129.28 -1.76199 0.669799 0
M  V30 32682 C 3126.4 -3.00696 1.55884 0
M  V30 32683 C 3125.45 -3.2503 2.76149 0
M  V30 32684 S 3126.28 -3.08317 4.37836 0
M  V30 32685 C 3127.44 -4.49224 4.35831 0
M  V30 32686 H 3127.67 -1.52477 2.55221 0
M  V30 32687 H 3125.2 -0.68757 1.38246 0
M  V30 32688 H 3127.16 -3.80564 1.53888 0
M  V30 32689 H 3125.82 -3.07822 0.624845 0
M  V30 32690 H 3125.02 -4.26139 2.69112 0
M  V30 32691 H 3124.62 -2.52881 2.75549 0
M  V30 32692 H 3126.91 -5.41281 4.07457 0
M  V30 32693 H 3127.85 -4.6131 5.37214 0
M  V30 32694 H 3128.26 -4.29832 3.6593 0
M  V30 32695 N 3127.66 -1.38422 -0.75346 0
M  V30 32696 C 3128.59 -1.3838 -1.88078 0
M  V30 32697 C 3129.57 -0.249693 -1.68257 0
M  V30 32698 O 3130.76 -0.452794 -1.88848 0
M  V30 32699 C 3127.89 -1.20824 -3.25605 0
M  V30 32700 C 3126.84 -2.3144 -3.60027 0
M  V30 32701 C 3126.17 -1.98989 -4.96294 0
M  V30 32702 C 3127.47 -3.737 -3.64891 0
M  V30 32703 H 3129.16 -2.32716 -1.88371 0
M  V30 32704 H 3126.71 -1.12018 -0.904871 0
M  V30 32705 H 3128.66 -1.19419 -4.04125 0
M  V30 32706 H 3127.38 -0.22949 -3.25793 0
M  V30 32707 H 3126.04 -2.3203 -2.83827 0
M  V30 32708 H 3125.69 -0.995975 -4.93041 0
M  V30 32709 H 3125.39 -2.73073 -5.20293 0
M  V30 32710 H 3126.91 -1.99203 -5.77192 0
M  V30 32711 H 3128.33 -3.7514 -4.33524 0
M  V30 32712 H 3126.72 -4.4699 -4.004 0
M  V30 32713 H 3127.79 -4.06006 -2.65117 0
M  V30 32714 N 3129.14 0.981655 -1.23294 0
M  V30 32715 C 3130.38 1.72277 -1.06427 0
M  V30 32716 C 3130.71 1.90363 0.399021 0
M  V30 32717 O 3129.97 1.45226 1.31179 0
M  V30 32718 C 3130.27 3.12548 -1.73344 0
M  V30 32719 C 3129.93 3.14345 -3.23261 0
M  V30 32720 C 3128.59 3.14543 -3.64165 0
M  V30 32721 C 3130.95 3.09758 -4.19165 0
M  V30 32722 C 3128.27 3.07868 -4.99434 0
M  V30 32723 C 3130.63 3.04625 -5.54424 0
M  V30 32724 C 3129.29 3.03144 -5.94693 0
M  V30 32725 H 3128.56 0.630408 -0.389445 0
M  V30 32726 H 3131.21 1.14887 -1.5321 0
M  V30 32727 H 3129.51 3.73317 -1.18918 0
M  V30 32728 H 3131.21 3.68658 -1.57773 0
M  V30 32729 H 3127.8 3.14948 -2.90699 0
M  V30 32730 H 3131.98 3.08746 -3.88574 0
M  V30 32731 H 3127.24 3.05073 -5.29849 0
M  V30 32732 H 3131.41 3.00032 -6.28453 0
M  V30 32733 H 3129.04 2.97726 -6.99473 0
M  V30 32734 N 3130.62 1.04444 1.18022 0
M  V30 32735 C 3131.55 0.58321 2.20622 0
M  V30 32736 C 3132.53 -0.384235 1.57995 0
M  V30 32737 O 3133.71 -0.29764 1.86135 0
M  V30 32738 C 3130.84 -0.147501 3.38379 0
M  V30 32739 C 3129.88 0.773785 4.19422 0
M  V30 32740 S 3130.72 2.25877 4.8553 0
M  V30 32741 C 3131.87 1.53902 6.06684 0
M  V30 32742 H 3132.11 1.45248 2.59404 0
M  V30 32743 H 3129.64 0.85573 1.28517 0
M  V30 32744 H 3131.6 -0.562917 4.06622 0
M  V30 32745 H 3130.26 -0.992713 2.98 0
M  V30 32746 H 3129.45 0.208782 5.03567 0
M  V30 32747 H 3129.05 1.12822 3.56577 0
M  V30 32748 H 3131.34 0.834163 6.72345 0
M  V30 32749 H 3132.29 2.35766 6.67697 0
M  V30 32750 H 3132.7 1.0297 5.55029 0
M  V30 32751 N 3132.09 -1.34317 0.824418 0
M  V30 32752 C 3133.02 -2.32024 0.262118 0
M  V30 32753 C 3134 -1.5831 -0.622249 0
M  V30 32754 O 3135.19 -1.86284 -0.548815 0
M  V30 32755 C 3132.32 -3.42497 -0.575609 0
M  V30 32756 C 3131.27 -4.27476 0.211745 0
M  V30 32757 C 3130.6 -5.29431 -0.74882 0
M  V30 32758 C 3131.9 -5.02605 1.42077 0
M  V30 32759 H 3133.59 -2.79302 1.07847 0
M  V30 32760 H 3131.14 -1.34282 0.520046 0
M  V30 32761 H 3133.09 -4.09866 -0.979179 0
M  V30 32762 H 3131.82 -2.93872 -1.42503 0
M  V30 32763 H 3130.48 -3.61711 0.5967 0
M  V30 32764 H 3130.12 -4.77067 -1.59423 0
M  V30 32765 H 3129.82 -5.87164 -0.22621 0
M  V30 32766 H 3131.35 -5.99669 -1.15021 0
M  V30 32767 H 3132.76 -5.62821 1.09113 0
M  V30 32768 H 3131.16 -5.6992 1.87913 0
M  V30 32769 H 3132.23 -4.32213 2.19818 0
M  V30 32770 N 3133.57 -0.579517 -1.46558 0
M  V30 32771 C 3134.98 -0.152084 -1.8608 0
M  V30 32772 C 3135.33 1.28402 -1.48348 0
M  V30 32773 O 3134.46 1.96939 -0.896885 0
M  V30 32774 C 3135.05 -0.26923 -3.37729 0
M  V30 32775 C 3133.61 0.10331 -3.76258 0
M  V30 32776 C 3132.76 -0.606638 -2.70583 0
M  V30 32777 H 3135.71 -0.787928 -1.37758 0
M  V30 32778 H 3135.73 0.506273 -3.77117 0
M  V30 32779 H 3135.24 -1.31455 -3.65159 0
M  V30 32780 H 3133.34 1.14889 -3.54445 0
M  V30 32781 H 3133.46 -0.270785 -4.78334 0
M  V30 32782 H 3131.82 -0.0472431 -2.54656 0
M  V30 32783 H 3132.6 -1.65354 -3.00853 0
M  V30 32784 N 3135.05 1.54376 -0.317127 0
M  V30 32785 C 3135.98 2.27061 0.544583 0
M  V30 32786 C 3136.96 1.27613 1.12467 0
M  V30 32787 O 3138.15 1.56415 1.151 0
M  V30 32788 C 3135.28 3.02356 1.70874 0
M  V30 32789 C 3134.23 4.09087 1.25826 0
M  V30 32790 C 3133.56 4.72187 2.50886 0
M  V30 32791 C 3134.86 5.20932 0.377784 0
M  V30 32792 H 3136.55 2.99336 -0.0616898 0
M  V30 32793 H 3134.1 1.43966 -0.0311101 0
M  V30 32794 H 3136.05 3.51931 2.3178 0
M  V30 32795 H 3134.77 2.27686 2.34151 0
M  V30 32796 H 3133.43 3.60385 0.672164 0
M  V30 32797 H 3133.08 3.94139 3.12511 0
M  V30 32798 H 3132.78 5.44279 2.21438 0
M  V30 32799 H 3134.3 5.24533 3.12566 0
M  V30 32800 H 3135.72 5.66303 0.892957 0
M  V30 32801 H 3134.12 5.99841 0.176368 0
M  V30 32802 H 3135.19 4.8126 -0.593028 0
M  V30 32803 N 3136.53 0.0451655 1.57535 0
M  V30 32804 C 3137.49 -0.916424 2.10082 0
M  V30 32805 C 3138.49 -1.24378 1.01915 0
M  V30 32806 O 3139.68 -1.18146 1.28012 0
M  V30 32807 C 3136.81 -2.22814 2.58005 0
M  V30 32808 H 3138.01 -0.461024 2.96335 0
M  V30 32809 H 3135.56 -0.203142 1.54974 0
M  V30 32810 H 3136.29 -2.72948 1.75128 0
M  V30 32811 H 3136.08 -2.0036 3.37044 0
M  V30 32812 H 3137.57 -2.91705 2.98828 0
M  V30 32813 N 3138.01 -1.5594 -0.228159 0
M  V30 32814 C 3139.24 -1.82457 -0.969179 0
M  V30 32815 C 3139.64 -0.621164 -1.78713 0
M  V30 32816 O 3138.99 0.419662 -1.78842 0
M  V30 32817 C 3139.05 -3.02609 -1.94083 0
M  V30 32818 C 3138.71 -4.37881 -1.30803 0
M  V30 32819 C 3139.71 -5.1515 -0.701185 0
M  V30 32820 C 3137.4 -4.84597 -1.32178 0
M  V30 32821 C 3139.39 -6.37293 -0.116519 0
M  V30 32822 C 3137.08 -6.06685 -0.733269 0
M  V30 32823 C 3138.07 -6.82873 -0.131684 0
M  V30 32824 O 3137.76 -8.02652 0.44769 0
M  V30 32825 H 3137.49 -0.610664 -0.28994 0
M  V30 32826 H 3140.05 -2.03866 -0.250541 0
M  V30 32827 H 3138.28 -2.77001 -2.69828 0
M  V30 32828 H 3139.97 -3.16055 -2.54684 0
M  V30 32829 H 3140.73 -4.80168 -0.682938 0
M  V30 32830 H 3136.61 -4.25274 -1.77942 0
M  V30 32831 H 3140.16 -6.96703 0.353661 0
M  V30 32832 H 3136.05 -6.41141 -0.748906 0
M  V30 32833 H 3136.82 -8.17788 0.341368 0
M  V30 32834 N 3139.48 0.494597 -1.49638 0
M  V30 32835 C 3140.73 1.24831 -1.59447 0
M  V30 32836 C 3141.06 1.92415 -0.284061 0
M  V30 32837 O 3140.31 1.81636 0.728487 0
M  V30 32838 C 3140.61 2.33297 -2.70753 0
M  V30 32839 C 3140.28 1.83128 -4.12037 0
M  V30 32840 C 3138.94 1.69165 -4.50485 0
M  V30 32841 C 3141.29 1.45651 -5.00435 0
M  V30 32842 C 3138.62 1.16114 -5.75095 0
M  V30 32843 C 3140.97 0.940498 -6.2557 0
M  V30 32844 C 3139.64 0.787315 -6.62841 0
M  V30 32845 H 3138.91 0.456789 -0.583459 0
M  V30 32846 H 3141.55 0.548012 -1.83491 0
M  V30 32847 H 3139.86 3.09141 -2.40705 0
M  V30 32848 H 3141.56 2.91329 -2.75551 0
M  V30 32849 H 3138.15 1.94957 -3.81693 0
M  V30 32850 H 3142.33 1.55283 -4.71382 0
M  V30 32851 H 3137.59 1.02971 -6.02667 0
M  V30 32852 H 3141.76 0.641345 -6.9344 0
M  V30 32853 H 3139.39 0.374058 -7.59279 0
M  V30 32854 N 3140.96 1.3882 0.746109 0
M  V30 32855 C 3142.19 1.38868 1.54046 0
M  V30 32856 C 3142.61 -0.0176293 1.88092 0
M  V30 32857 O 3141.97 -1.0017 1.51115 0
M  V30 32858 C 3142.02 2.25796 2.81156 0
M  V30 32859 O 3141.12 1.6802 3.7662 0
M  V30 32860 H 3140.46 0.473367 0.465639 0
M  V30 32861 H 3142.99 1.82676 0.921437 0
M  V30 32862 H 3143 2.39918 3.30005 0
M  V30 32863 H 3141.68 3.28004 2.55707 0
M  V30 32864 H 3140.26 1.6308 3.35349 0
M  V30 32865 N 3142.44 -0.975103 1.23812 0
M  V30 32866 C 3143.72 -1.6919 0.98153 0
M  V30 32867 C 3144.1 -2.05134 -0.498337 0
M  V30 32868 O 3143.45 -1.74867 -1.47084 0
M  V30 32869 C 3143.66 -2.92938 1.89706 0
M  V30 32870 C 3145 -3.65338 2.16363 0
M  V30 32871 O 3146.03 -3.02981 1.87299 0
M  V30 32872 O 3144.89 -4.77572 2.65683 0
M  V30 32873 H 3141.98 -0.739308 0.370612 0
M  V30 32874 H 3144.53 -1.02985 1.34878 0
M  V30 32875 H 3143.3 -2.63013 2.89723 0
M  V30 32876 H 3142.92 -3.66879 1.53251 0
M  V30 32877 N 3143.92 -1.05068 -1.17467 0
M  V30 32878 C 3145.14 -0.780332 -1.9216 0
M  V30 32879 C 3145.57 0.657801 -1.76223 0
M  V30 32880 O 3144.93 1.45686 -1.07913 0
M  V30 32881 C 3144.97 -1.1642 -3.4129 0
M  V30 32882 O 3144.08 -0.295603 -4.11339 0
M  V30 32883 H 3143.42 -0.286268 -0.599122 0
M  V30 32884 H 3145.95 -1.4032 -1.48901 0
M  V30 32885 H 3145.96 -1.13043 -3.92027 0
M  V30 32886 H 3144.63 -2.21181 -3.5221 0
M  V30 32887 H 3143.21 -0.389863 -3.70856 0
M  V30 32888 N 3145.4 1.33878 -0.831529 0
M  V30 32889 C 3146.34 2.29359 -0.257489 0
M  V30 32890 C 3147.31 1.53991 0.622577 0
M  V30 32891 O 3148.5 1.82323 0.5624 0
M  V30 32892 C 3145.64 3.40401 0.567527 0
M  V30 32893 C 3144.75 4.30693 -0.335742 0
M  V30 32894 C 3143.89 5.28845 0.499669 0
M  V30 32895 C 3142.93 6.10776 -0.40245 0
M  V30 32896 N 3142.06 7.00991 0.394397 0
M  V30 32897 H 3146.9 2.77855 -1.07705 0
M  V30 32898 H 3144.44 1.36726 -0.542613 0
M  V30 32899 H 3146.4 4.03476 1.06126 0
M  V30 32900 H 3145.03 2.93117 1.35212 0
M  V30 32901 H 3144.08 3.68405 -0.947745 0
M  V30 32902 H 3145.39 4.8807 -1.02905 0
M  V30 32903 H 3144.55 5.97412 1.05753 0
M  V30 32904 H 3143.28 4.72027 1.22644 0
M  V30 32905 H 3142.29 5.41133 -0.972383 0
M  V30 32906 H 3143.51 6.69675 -1.12747 0
M  V30 32907 H 3141.46 6.46632 1.10469 0
M  V30 32908 H 3141.38 7.55618 -0.240341 0
M  V30 32909 H 3142.65 7.73875 0.934731 0
M  V30 32910 N 3146.87 0.587281 1.46249 0
M  V30 32911 C 3147.8 -0.131035 2.33132 0
M  V30 32912 C 3148.79 -0.879133 1.4562 0
M  V30 32913 O 3149.97 -0.853692 1.7443 0
M  V30 32914 C 3147.1 -1.1423 3.27977 0
M  V30 32915 C 3146.05 -0.508744 4.24966 0
M  V30 32916 C 3145.38 -1.62681 5.09352 0
M  V30 32917 C 3146.68 0.557031 5.19321 0
M  V30 32918 H 3148.37 0.594384 2.93441 0
M  V30 32919 H 3145.92 0.287287 1.41105 0
M  V30 32920 H 3147.87 -1.65322 3.87617 0
M  V30 32921 H 3146.6 -1.89805 2.65785 0
M  V30 32922 H 3145.26 -0.0188693 3.66595 0
M  V30 32923 H 3144.9 -2.37234 4.43542 0
M  V30 32924 H 3144.6 -1.20851 5.75038 0
M  V30 32925 H 3146.13 -2.14039 5.71856 0
M  V30 32926 H 3147.54 0.131004 5.7315 0
M  V30 32927 H 3145.94 0.895905 5.93375 0
M  V30 32928 H 3147.01 1.44156 4.62976 0
M  V30 32929 N 3148.35 -1.54206 0.325309 0
M  V30 32930 C 3149.6 -2.00204 -0.276193 0
M  V30 32931 C 3149.92 -1.21505 -1.52517 0
M  V30 32932 O 3149.19 -0.317336 -1.93313 0
M  V30 32933 H 3147.77 -0.739577 -0.105046 0
M  V30 32934 H 3150.43 -1.89816 0.442258 0
M  V30 32935 H 3149.53 -3.07543 -0.531373 0
M  V30 32936 N 3149.83 -0.0535194 -1.57509 0
M  V30 32937 C 3151.06 0.629264 -1.97099 0
M  V30 32938 C 3151.47 1.6424 -0.931157 0
M  V30 32939 O 3150.83 1.82305 0.0843546 0
M  V30 32940 C 3150.88 1.31409 -3.3677 0
M  V30 32941 O 3150.6 0.341522 -4.36767 0
M  V30 32942 C 3152.1 2.08642 -3.91131 0
M  V30 32943 H 3149.32 0.171875 -0.648614 0
M  V30 32944 H 3151.87 -0.120515 -2.04145 0
M  V30 32945 H 3150.02 2.01509 -3.30867 0
M  V30 32946 H 3150.44 0.830624 -5.17881 0
M  V30 32947 H 3151.91 2.51977 -4.91133 0
M  V30 32948 H 3152.39 2.93554 -3.26684 0
M  V30 32949 H 3152.99 1.43449 -4.00378 0
M  V30 32950 N 3151.31 1.56059 0.219886 0
M  V30 32951 C 3152.54 1.83234 0.960882 0
M  V30 32952 C 3152.95 0.632859 1.77877 0
M  V30 32953 O 3152.31 -0.398593 1.78094 0
M  V30 32954 C 3152.36 3.08945 1.8771 0
M  V30 32955 O 3152.08 4.24265 1.09227 0
M  V30 32956 C 3153.58 3.4912 2.73186 0
M  V30 32957 H 3150.8 0.60908 0.281535 0
M  V30 32958 H 3153.35 2.0315 0.234613 0
M  V30 32959 H 3151.5 2.91 2.5573 0
M  V30 32960 H 3151.92 4.95691 1.71438 0
M  V30 32961 H 3153.39 4.40113 3.33174 0
M  V30 32962 H 3153.87 2.7095 3.45663 0
M  V30 32963 H 3154.47 3.6951 2.10576 0
M  V30 32964 N 3152.79 -0.486655 1.49898 0
M  V30 32965 C 3153.7 -1.61267 1.70382 0
M  V30 32966 C 3154.71 -1.63813 0.586619 0
M  V30 32967 O 3155.89 -1.8197 0.863076 0
M  V30 32968 C 3152.95 -2.97568 1.77916 0
M  V30 32969 C 3152.02 -3.05535 3.01574 0
M  V30 32970 C 3151.25 -4.35334 3.08739 0
M  V30 32971 O 3151.47 -5.24956 2.23109 0
M  V30 32972 O 3150.41 -4.48571 4.01333 0
M  V30 32973 H 3154.23 -1.46912 2.65802 0
M  V30 32974 H 3151.82 -0.664492 1.33809 0
M  V30 32975 H 3153.7 -3.7855 1.85142 0
M  V30 32976 H 3152.37 -3.12155 0.856777 0
M  V30 32977 H 3151.28 -2.23687 2.99858 0
M  V30 32978 H 3152.61 -2.95879 3.9334 0
M  V30 32979 N 3154.27 -1.39214 -0.738737 0
M  V30 32980 C 3155.51 -1.36435 -1.50044 0
M  V30 32981 C 3155.84 0.0409133 -1.94157 0
M  V30 32982 O 3155.12 1.00511 -1.66517 0
M  V30 32983 C 3155.4 -2.33338 -2.74272 0
M  V30 32984 C 3155.26 -3.8279 -2.36203 0
M  V30 32985 C 3156.57 -2.2813 -3.76357 0
M  V30 32986 H 3153.69 -0.496913 -0.544286 0
M  V30 32987 H 3156.34 -1.70177 -0.844975 0
M  V30 32988 H 3154.49 -2.04695 -3.302 0
M  V30 32989 H 3156.16 -4.22168 -1.85935 0
M  V30 32990 H 3154.4 -3.99748 -1.68476 0
M  V30 32991 H 3155.07 -4.46075 -3.25148 0
M  V30 32992 H 3157.55 -2.53448 -3.30005 0
M  V30 32993 H 3156.42 -2.98018 -4.60952 0
M  V30 32994 H 3156.68 -1.28507 -4.23011 0
M  V30 32995 N 3155.74 0.968523 -1.24328 0
M  V30 32996 C 3156.69 2.06295 -1.03493 0
M  V30 32997 C 3157.66 1.6602 0.0515041 0
M  V30 32998 O 3158.85 1.90522 -0.102957 0
M  V30 32999 C 3155.99 3.3902 -0.644929 0
M  V30 33000 C 3155.1 3.92495 -1.80476 0
M  V30 33001 C 3154.23 5.13484 -1.36041 0
M  V30 33002 C 3153.27 5.59154 -2.49024 0
M  V30 33003 N 3152.41 6.71364 -2.05463 0
M  V30 33004 H 3157.25 2.2345 -1.97165 0
M  V30 33005 H 3154.79 1.09518 -0.982047 0
M  V30 33006 H 3156.74 4.1528 -0.399844 0
M  V30 33007 H 3155.37 3.21793 0.254788 0
M  V30 33008 H 3154.43 3.12883 -2.16353 0
M  V30 33009 H 3155.74 4.22349 -2.65373 0
M  V30 33010 H 3154.89 5.97115 -1.07416 0
M  V30 33011 H 3153.63 4.85313 -0.481972 0
M  V30 33012 H 3152.64 4.74097 -2.7841 0
M  V30 33013 H 3153.86 5.8934 -3.37424 0
M  V30 33014 H 3151.81 6.44928 -1.20016 0
M  V30 33015 H 3151.72 7.00663 -2.83914 0
M  V30 33016 H 3152.99 7.58439 -1.79975 0
M  V30 33017 N 3157.22 1.0569 1.16908 0
M  V30 33018 C 3158.47 0.771104 1.87568 0
M  V30 33019 C 3158.8 -0.700367 1.81131 0
M  V30 33020 O 3158.08 -1.51257 1.22276 0
M  V30 33021 C 3158.36 1.25857 3.3739 0
M  V30 33022 C 3158.21 2.79335 3.52551 0
M  V30 33023 C 3159.53 0.861588 4.31584 0
M  V30 33024 H 3156.65 0.281591 0.681084 0
M  V30 33025 H 3159.29 1.31176 1.37451 0
M  V30 33026 H 3157.44 0.798629 3.80203 0
M  V30 33027 H 3159.11 3.33491 3.18719 0
M  V30 33028 H 3157.36 3.18365 2.94663 0
M  V30 33029 H 3158.03 3.08506 4.57742 0
M  V30 33030 H 3160.5 1.25763 3.9664 0
M  V30 33031 H 3159.38 1.23021 5.34936 0
M  V30 33032 H 3159.64 -0.234011 4.4148 0
M  V30 33033 N 3158.7 -1.33435 0.838617 0
M  V30 33034 C 3159.92 -2.02532 0.446736 0
M  V30 33035 C 3160.35 -1.62682 -0.944246 0
M  V30 33036 O 3159.71 -0.819298 -1.61732 0
M  V30 33037 C 3159.76 -3.55988 0.574857 0
M  V30 33038 O 3158.86 -4.10465 -0.398991 0
M  V30 33039 H 3158.2 -0.63867 0.181649 0
M  V30 33040 H 3160.73 -1.7034 1.13338 0
M  V30 33041 H 3160.74 -4.05439 0.45641 0
M  V30 33042 H 3159.42 -3.84337 1.58928 0
M  V30 33043 H 3157.99 -3.72139 -0.238122 0
M  V30 33044 N 3160.18 -0.595029 -1.45935 0
M  V30 33045 C 3161.14 0.121062 -2.2888 0
M  V30 33046 C 3162.14 0.807124 -1.39076 0
M  V30 33047 O 3163.33 0.6572 -1.61327 0
M  V30 33048 C 3160.46 1.18124 -3.1978 0
M  V30 33049 H 3161.66 -0.60802 -2.93672 0
M  V30 33050 H 3159.21 -0.353522 -1.5225 0
M  V30 33051 H 3159.94 1.9415 -2.59762 0
M  V30 33052 H 3159.73 0.693656 -3.85916 0
M  V30 33053 H 3161.22 1.68312 -3.82179 0
M  V30 33054 N 3161.66 1.54031 -0.333483 0
M  V30 33055 C 3162.59 2.27625 0.52047 0
M  V30 33056 C 3163.57 1.28799 1.11107 0
M  V30 33057 O 3164.75 1.57627 1.13435 0
M  V30 33058 C 3161.88 3.04152 1.67658 0
M  V30 33059 C 3160.84 4.10398 1.2148 0
M  V30 33060 C 3160.16 4.74821 2.45863 0
M  V30 33061 C 3161.46 5.21303 0.322511 0
M  V30 33062 H 3163.16 2.99254 -0.0934349 0
M  V30 33063 H 3160.7 1.43925 -0.0463779 0
M  V30 33064 H 3162.65 3.5437 2.28035 0
M  V30 33065 H 3161.38 2.30157 2.31722 0
M  V30 33066 H 3160.04 3.61078 0.633903 0
M  V30 33067 H 3159.69 3.97432 3.08313 0
M  V30 33068 H 3159.39 5.46597 2.15652 0
M  V30 33069 H 3160.91 5.27819 3.06985 0
M  V30 33070 H 3162.32 5.67218 0.832842 0
M  V30 33071 H 3160.72 5.99994 0.112737 0
M  V30 33072 H 3161.79 4.80604 -0.644038 0
M  V30 33073 N 3163.13 0.0618717 1.57479 0
M  V30 33074 C 3164.08 -0.908825 2.12153 0
M  V30 33075 C 3165.05 -1.30186 1.03154 0
M  V30 33076 O 3166.24 -1.38946 1.30762 0
M  V30 33077 C 3163.38 -2.17461 2.67964 0
M  V30 33078 C 3162.49 -1.8351 3.91086 0
M  V30 33079 C 3161.62 -3.04625 4.35174 0
M  V30 33080 C 3160.66 -2.66645 5.50969 0
M  V30 33081 N 3159.8 -3.80489 5.90062 0
M  V30 33082 H 3164.64 -0.435692 2.94798 0
M  V30 33083 H 3162.18 -0.20342 1.45687 0
M  V30 33084 H 3164.13 -2.91543 2.98427 0
M  V30 33085 H 3162.76 -2.62332 1.881 0
M  V30 33086 H 3161.82 -0.995316 3.67148 0
M  V30 33087 H 3163.13 -1.5156 4.75217 0
M  V30 33088 H 3162.28 -3.86997 4.67246 0
M  V30 33089 H 3161.02 -3.39761 3.49877 0
M  V30 33090 H 3160.03 -1.82693 5.18559 0
M  V30 33091 H 3161.25 -2.3269 6.37991 0
M  V30 33092 H 3159.2 -4.15405 5.07715 0
M  V30 33093 H 3159.11 -3.52274 6.68909 0
M  V30 33094 H 3160.38 -4.63468 6.26752 0
M  V30 33095 N 3164.61 -1.56173 -0.211607 0
M  V30 33096 C 3165.84 -1.83741 -0.951151 0
M  V30 33097 C 3166.26 -0.642283 -1.77539 0
M  V30 33098 O 3165.61 0.389143 -1.78303 0
M  V30 33099 C 3165.66 -3.09936 -1.86069 0
M  V30 33100 O 3165.38 -4.24839 -1.06976 0
M  V30 33101 C 3166.89 -3.50563 -2.7133 0
M  V30 33102 H 3164.11 -0.610565 -0.278301 0
M  V30 33103 H 3166.65 -2.03271 -0.223836 0
M  V30 33104 H 3164.8 -2.92352 -2.54184 0
M  V30 33105 H 3165.22 -4.96593 -1.68806 0
M  V30 33106 H 3166.69 -4.41873 -3.30835 0
M  V30 33107 H 3167.17 -2.72779 -3.44221 0
M  V30 33108 H 3167.78 -3.70622 -2.08614 0
M  V30 33109 N 3166.09 0.478699 -1.50154 0
M  V30 33110 C 3167.05 1.56 -1.67919 0
M  V30 33111 C 3168.05 1.51096 -0.550138 0
M  V30 33112 O 3169.24 1.53852 -0.817028 0
M  V30 33113 C 3166.38 2.9564 -1.69735 0
M  V30 33114 H 3167.57 1.41569 -2.64383 0
M  V30 33115 H 3165.12 0.704541 -1.3952 0
M  V30 33116 H 3165.86 3.15523 -0.749361 0
M  V30 33117 H 3165.64 3.00606 -2.5175 0
M  V30 33118 H 3167.13 3.74159 -1.85459 0
M  V30 33119 N 3167.57 1.39603 0.731343 0
M  V30 33120 C 3168.82 1.36756 1.48803 0
M  V30 33121 C 3169.14 -0.0346417 1.94969 0
M  V30 33122 O 3168.41 -0.986561 1.69245 0
M  V30 33123 H 3166.99 0.50327 0.552022 0
M  V30 33124 H 3169.65 1.74505 0.867982 0
M  V30 33125 H 3168.75 2.03256 2.3684 0
M  V30 33126 N 3169.05 -0.961916 1.2484 0
M  V30 33127 C 3170.29 -1.70815 1.09316 0
M  V30 33128 C 3170.63 -1.90716 -0.36621 0
M  V30 33129 O 3169.9 -1.47284 -1.27034 0
M  V30 33130 C 3170.18 -3.09546 1.83993 0
M  V30 33131 C 3170.04 -2.971 3.37715 0
M  V30 33132 C 3171.36 -4.09308 1.61725 0
M  V30 33133 H 3168.47 -0.619967 0.398509 0
M  V30 33134 H 3171.12 -1.11862 1.53581 0
M  V30 33135 H 3169.27 -3.59873 1.46369 0
M  V30 33136 H 3170.94 -2.54155 3.84972 0
M  V30 33137 H 3169.18 -2.33181 3.65799 0
M  V30 33138 H 3169.85 -3.95406 3.85173 0
M  V30 33139 H 3172.33 -3.67863 1.94464 0
M  V30 33140 H 3171.2 -5.04432 2.16423 0
M  V30 33141 H 3171.47 -4.38579 0.556847 0
M  V30 33142 N 3170.52 -1.06308 -1.16346 0
M  V30 33143 C 3171.77 -0.78104 -1.87157 0
M  V30 33144 C 3172.1 0.690752 -1.815 0
M  V30 33145 O 3171.38 1.50607 -1.23076 0
M  V30 33146 C 3171.66 -1.27644 -3.36718 0
M  V30 33147 C 3171.51 -2.81201 -3.51065 0
M  V30 33148 C 3172.83 -0.884463 -4.31121 0
M  V30 33149 H 3169.95 -0.285199 -0.679581 0
M  V30 33150 H 3172.59 -1.31903 -1.36753 0
M  V30 33151 H 3170.74 -0.818781 -3.79774 0
M  V30 33152 H 3172.42 -3.35176 -3.16946 0
M  V30 33153 H 3170.66 -3.19923 -2.9297 0
M  V30 33154 H 3171.33 -3.10929 -4.561 0
M  V30 33155 H 3173.81 -1.27864 -3.95967 0
M  V30 33156 H 3172.68 -1.25857 -5.34276 0
M  V30 33157 H 3172.94 0.210595 -4.41598 0
M  V30 33158 N 3172 1.32989 -0.845682 0
M  V30 33159 C 3173.23 2.01758 -0.458386 0
M  V30 33160 C 3173.65 1.636 0.942361 0
M  V30 33161 O 3173 0.852766 1.61351 0
M  V30 33162 C 3173.05 3.56859 -0.577374 0
M  V30 33163 O 3172.77 3.93643 -1.92294 0
M  V30 33164 C 3174.28 4.42902 -0.187917 0
M  V30 33165 H 3171.5 0.646077 -0.181176 0
M  V30 33166 H 3174.04 1.69768 -1.14014 0
M  V30 33167 H 3172.19 3.87359 0.0565465 0
M  V30 33168 H 3172.61 4.88357 -1.9133 0
M  V30 33169 H 3174.08 5.51059 -0.322202 0
M  V30 33170 H 3174.56 4.3048 0.870821 0
M  V30 33171 H 3175.17 4.17774 -0.796546 0
M  V30 33172 N 3173.48 0.60276 1.45618 0
M  V30 33173 C 3174.73 0.0958795 2.01872 0
M  V30 33174 C 3175.05 -1.2763 1.4743 0
M  V30 33175 O 3174.32 -1.84207 0.666684 0
M  V30 33176 H 3172.9 0.032454 0.746295 0
M  V30 33177 H 3175.56 0.783068 1.78477 0
M  V30 33178 H 3174.66 0.0420055 3.12072 0
M  V30 33179 N 3174.96 -1.53852 0.341647 0
M  V30 33180 C 3175.91 -2.26449 -0.531372 0
M  V30 33181 C 3176.9 -1.28523 -1.10354 0
M  V30 33182 O 3178.11 -1.46238 -1.0495 0
M  V30 33183 H 3174.48 -0.727591 -0.190041 0
M  V30 33184 H 3176.45 -2.98222 0.102974 0
M  V30 33185 C 3175.2 -3.04888 -1.67149 0
M  V30 33186 H 3174.52 -3.80068 -1.24049 0
M  V30 33187 H 3175.96 -3.58901 -2.25756 0
M  V30 33188 C 3174.42 -2.14271 -2.5998 0
M  V30 33189 O 3174.95 -1.73753 -3.62178 0
M  V30 33190 N 3173.16 -1.79389 -2.28622 0
M  V30 33191 H 3172.71 -2.12536 -1.45555 0
M  V30 33192 H 3172.66 -1.1904 -2.90993 0
M  V30 33193 N 3176.44 -0.0702223 -1.57443 0
M  V30 33194 C 3177.68 0.600144 -1.93717 0
M  V30 33195 C 3178.02 1.69357 -0.950359 0
M  V30 33196 O 3177.29 1.94489 0.0206781 0
M  V30 33197 C 3177.57 1.17855 -3.40268 0
M  V30 33198 C 3177.43 0.0918785 -4.49706 0
M  V30 33199 C 3178.75 2.08452 -3.87602 0
M  V30 33200 H 3175.86 0.216691 -0.704425 0
M  V30 33201 H 3178.51 -0.135871 -1.89514 0
M  V30 33202 H 3176.66 1.80581 -3.43981 0
M  V30 33203 H 3178.33 -0.541111 -4.58115 0
M  V30 33204 H 3176.57 -0.577714 -4.29936 0
M  V30 33205 H 3177.24 0.536952 -5.49382 0
M  V30 33206 H 3179.72 1.55664 -3.85886 0
M  V30 33207 H 3178.59 2.45859 -4.90759 0
M  V30 33208 H 3178.86 2.9922 -3.25453 0
M  V30 33209 N 3177.91 1.56283 0.203321 0
M  V30 33210 C 3179.16 1.80407 0.926349 0
M  V30 33211 C 3179.49 0.642915 1.83249 0
M  V30 33212 O 3178.77 -0.356964 1.91196 0
M  V30 33213 C 3179.05 3.14736 1.74966 0
M  V30 33214 C 3178.9 4.4133 0.868789 0
M  V30 33215 C 3180.22 3.45677 2.72388 0
M  V30 33216 H 3177.34 0.656292 0.335335 0
M  V30 33217 H 3179.98 1.89005 0.194167 0
M  V30 33218 H 3178.13 3.07537 2.37388 0
M  V30 33219 H 3179.81 4.60567 0.259905 0
M  V30 33220 H 3178.05 4.33447 0.175084 0
M  V30 33221 H 3178.72 5.31799 1.47965 0
M  V30 33222 H 3181.2 3.53123 2.20099 0
M  V30 33223 H 3180.07 4.40804 3.27083 0
M  V30 33224 H 3180.33 2.68757 3.5103 0
M  V30 33225 N 3179.39 -0.470729 1.50406 0
M  V30 33226 C 3180.34 -1.56868 1.69296 0
M  V30 33227 C 3181.31 -1.57273 0.534276 0
M  V30 33228 O 3182.5 -1.74797 0.764886 0
M  V30 33229 C 3179.64 -2.94839 1.79343 0
M  V30 33230 C 3178.75 -3.0422 3.06715 0
M  V30 33231 C 3177.88 -4.33108 3.07556 0
M  V30 33232 C 3176.92 -4.36233 4.2938 0
M  V30 33233 N 3176.06 -5.56593 4.27958 0
M  V30 33234 H 3180.9 -1.40066 2.63031 0
M  V30 33235 H 3178.44 -0.680993 1.30387 0
M  V30 33236 H 3180.39 -3.7485 1.83149 0
M  V30 33237 H 3179.02 -3.10275 0.890466 0
M  V30 33238 H 3178.08 -2.17081 3.12378 0
M  V30 33239 H 3179.39 -3.02389 3.96689 0
M  V30 33240 H 3178.54 -5.21466 3.10093 0
M  V30 33241 H 3177.28 -4.37549 2.15412 0
M  V30 33242 H 3176.29 -3.46272 4.27054 0
M  V30 33243 H 3177.51 -4.33484 5.22751 0
M  V30 33244 H 3175.46 -5.61818 3.38668 0
M  V30 33245 H 3175.37 -5.56504 5.11702 0
M  V30 33246 H 3176.64 -6.47075 4.34642 0
M  V30 33247 N 3180.87 -1.39989 -0.72393 0
M  V30 33248 C 3181.8 -1.35501 -1.84857 0
M  V30 33249 C 3182.82 -0.261841 -1.60681 0
M  V30 33250 O 3184.01 -0.521596 -1.70709 0
M  V30 33251 C 3181.11 -1.08386 -3.21101 0
M  V30 33252 C 3180.28 -2.29196 -3.72542 0
M  V30 33253 C 3179.34 -1.98369 -4.87377 0
M  V30 33254 O 3178.36 -2.71158 -5.00462 0
M  V30 33255 N 3179.57 -0.956562 -5.72565 0
M  V30 33256 H 3182.33 -2.32423 -1.89208 0
M  V30 33257 H 3179.89 -1.34235 -0.905128 0
M  V30 33258 H 3181.88 -0.857633 -3.95508 0
M  V30 33259 H 3180.45 -0.201604 -3.11949 0
M  V30 33260 H 3179.67 -2.67702 -2.8936 0
M  V30 33261 H 3180.96 -3.09754 -4.03646 0
M  V30 33262 H 3180.36 -0.353543 -5.64594 0
M  V30 33263 H 3178.92 -0.790232 -6.46992 0
M  V30 33264 N 3182.35 0.955282 -1.25348 0
M  V30 33265 C 3183.59 1.71465 -1.11262 0
M  V30 33266 C 3183.95 1.88953 0.340726 0
M  V30 33267 O 3185.15 2.6194 0.603394 0
M  V30 33268 C 3183.43 3.06067 -1.84547 0
M  V30 33269 S 3184.98 3.97267 -1.86344 0
M  V30 33270 H 3181.8 0.589373 -0.397693 0
M  V30 33271 H 3184.4 1.13943 -1.58863 0
M  V30 33272 H 3183.11 2.91009 -2.89382 0
M  V30 33273 H 3182.64 3.68652 -1.3733 0
M  V30 33274 H 3184.65 4.87215 -0.940011 0
M  V30 33275 N 3183.83 1.06924 1.1578 0
M  V30 33276 C 3185.07 0.799076 1.88133 0
M  V30 33277 C 3185.43 -0.6626 1.80204 0
M  V30 33278 O 3186.63 -1.04762 2.47545 0
M  V30 33279 C 3184.9 1.28791 3.33388 0
M  V30 33280 S 3186.46 1.14778 4.23523 0
M  V30 33281 H 3183.28 0.28969 0.649308 0
M  V30 33282 H 3185.88 1.36746 1.39717 0
M  V30 33283 H 3184.59 2.3465 3.36701 0
M  V30 33284 H 3184.12 0.714557 3.86856 0
M  V30 33285 H 3186.13 0.0826136 4.96131 0
M  V30 33286 N 3185.31 -1.32538 0.852723 0
M  V30 33287 C 3186.53 -2.01512 0.469079 0
M  V30 33288 C 3186.95 -1.64098 -0.933672 0
M  V30 33289 O 3186.31 -0.861311 -1.60897 0
M  V30 33290 C 3186.36 -3.56548 0.596291 0
M  V30 33291 O 3186.08 -3.92618 1.94378 0
M  V30 33292 C 3187.58 -4.42796 0.211402 0
M  V30 33293 H 3184.8 -0.645108 0.1846 0
M  V30 33294 H 3187.34 -1.69161 1.14913 0
M  V30 33295 H 3185.5 -3.87383 -0.0360031 0
M  V30 33296 H 3185.91 -4.87336 1.93918 0
M  V30 33297 H 3187.39 -5.5088 0.351421 0
M  V30 33298 H 3187.86 -4.30936 -0.847979 0
M  V30 33299 H 3188.47 -4.17346 0.818691 0
M  V30 33300 N 3186.78 -0.610474 -1.45296 0
M  V30 33301 C 3187.75 0.0967792 -2.28996 0
M  V30 33302 C 3188.75 0.792328 -1.39924 0
M  V30 33303 O 3189.94 0.640052 -1.62015 0
M  V30 33304 C 3187.07 1.14726 -3.21015 0
M  V30 33305 H 3188.26 -0.639134 -2.9301 0
M  V30 33306 H 3185.81 -0.36965 -1.51866 0
M  V30 33307 H 3186.55 1.91384 -2.61807 0
M  V30 33308 H 3186.33 0.652685 -3.8663 0
M  V30 33309 H 3187.82 1.64249 -3.83943 0
M  V30 33310 N 3188.26 1.53669 -0.349801 0
M  V30 33311 C 3189.22 2.23865 0.491636 0
M  V30 33312 C 3190.22 1.241 1.02254 0
M  V30 33313 O 3191.41 1.48493 0.91079 0
M  V30 33314 C 3188.55 2.96316 1.68552 0
M  V30 33315 H 3189.74 2.9965 -0.122382 0
M  V30 33316 H 3187.29 1.55972 -0.101241 0
M  V30 33317 H 3188.03 2.24734 2.33806 0
M  V30 33318 H 3187.81 3.69499 1.31197 0
M  V30 33319 H 3189.3 3.49723 2.28219 0
M  V30 33320 N 3189.74 0.0785709 1.57404 0
M  V30 33321 C 3190.99 -0.589862 1.94032 0
M  V30 33322 C 3191.32 -1.68851 0.959327 0
M  V30 33323 O 3190.59 -1.94497 -0.0103636 0
M  V30 33324 C 3190.88 -1.16049 3.40888 0
M  V30 33325 C 3190.73 -0.0680282 4.49749 0
M  V30 33326 C 3192.05 -2.06394 3.88702 0
M  V30 33327 H 3189.17 -0.212952 0.705564 0
M  V30 33328 H 3191.81 0.145919 1.89439 0
M  V30 33329 H 3189.96 -1.78755 3.44933 0
M  V30 33330 H 3191.63 0.565399 4.57822 0
M  V30 33331 H 3189.87 0.600507 4.29624 0
M  V30 33332 H 3190.55 -0.507809 5.49659 0
M  V30 33333 H 3193.02 -1.53615 3.86706 0
M  V30 33334 H 3191.9 -2.43252 4.92056 0
M  V30 33335 H 3192.16 -2.9749 3.27035 0
M  V30 33336 N 3191.22 -1.56389 -0.19503 0
M  V30 33337 C 3192.49 -1.71461 -0.941305 0
M  V30 33338 C 3192.87 -0.633371 -2.01374 0
M  V30 33339 O 3192.22 0.35563 -2.25716 0
M  V30 33340 C 3192.43 -3.13789 -1.52767 0
M  V30 33341 C 3193.78 -3.74024 -2.00976 0
M  V30 33342 O 3194.8 -3.16918 -1.62609 0
M  V30 33343 O 3193.66 -4.74245 -2.71577 0
M  V30 33344 H 3190.76 -0.699329 -0.441439 0
M  V30 33345 H 3193.3 -1.68692 -0.184722 0
M  V30 33346 H 3192.08 -3.83954 -0.754632 0
M  V30 33347 H 3191.7 -3.20787 -2.34908 0
M  V30 33348 N 3192.7 0.462746 -1.50653 0
M  V30 33349 C 3193.63 1.56757 -1.73059 0
M  V30 33350 C 3194.61 1.59916 -0.579727 0
M  V30 33351 O 3195.79 1.7605 -0.81976 0
M  V30 33352 C 3192.92 2.95027 -1.83239 0
M  V30 33353 C 3191.88 3.06734 -2.98494 0
M  V30 33354 C 3191.2 4.46733 -2.93826 0
M  V30 33355 C 3192.5 2.83173 -4.38874 0
M  V30 33356 H 3194.2 1.3826 -2.65565 0
M  V30 33357 H 3191.74 0.6637 -1.27793 0
M  V30 33358 H 3193.69 3.72254 -1.97497 0
M  V30 33359 H 3192.42 3.14699 -0.873613 0
M  V30 33360 H 3191.08 2.31941 -2.83899 0
M  V30 33361 H 3190.73 4.63336 -1.95777 0
M  V30 33362 H 3190.43 4.555 -3.71205 0
M  V30 33363 H 3191.95 5.25968 -3.10144 0
M  V30 33364 H 3193.36 3.50145 -4.53951 0
M  V30 33365 H 3191.76 3.03377 -5.17767 0
M  V30 33366 H 3192.83 1.78964 -4.50666 0
M  V30 33367 N 3194.17 1.40371 0.716495 0
M  V30 33368 C 3195.4 1.42105 1.51066 0
M  V30 33369 C 3195.82 0.0222717 1.88087 0
M  V30 33370 O 3195.18 -0.969421 1.53205 0
M  V30 33371 C 3195.23 2.31709 2.76303 0
M  V30 33372 O 3194.33 1.75971 3.72972 0
M  V30 33373 H 3193.68 0.483137 0.455494 0
M  V30 33374 H 3196.21 1.8459 0.882481 0
M  V30 33375 H 3196.22 2.46864 3.24842 0
M  V30 33376 H 3194.89 3.33354 2.48692 0
M  V30 33377 H 3193.47 1.70157 3.31815 0
M  V30 33378 N 3195.65 -0.948621 1.25853 0
M  V30 33379 C 3196.59 -2.04591 1.01083 0
M  V30 33380 C 3197.56 -1.62482 -0.0619406 0
M  V30 33381 O 3198.75 -1.88335 0.0789527 0
M  V30 33382 C 3195.87 -3.3454 0.529232 0
M  V30 33383 C 3194.92 -3.95616 1.59344 0
M  V30 33384 S 3195.75 -4.30831 3.18033 0
M  V30 33385 C 3196.91 -5.6389 2.71623 0
M  V30 33386 H 3197.14 -2.25287 1.93992 0
M  V30 33387 H 3194.68 -1.08904 1.0945 0
M  V30 33388 H 3196.63 -4.09688 0.258022 0
M  V30 33389 H 3195.29 -3.118 -0.379456 0
M  V30 33390 H 3194.49 -4.89326 1.20731 0
M  V30 33391 H 3194.09 -3.26971 1.81565 0
M  V30 33392 H 3196.38 -6.42272 2.15623 0
M  V30 33393 H 3197.32 -6.07381 3.63997 0
M  V30 33394 H 3197.73 -5.23411 2.11426 0
M  V30 33395 N 3197.13 -1.07536 -1.15212 0
M  V30 33396 C 3198.41 -0.712702 -1.82154 0
M  V30 33397 C 3198.79 0.804621 -1.95164 0
M  V30 33398 O 3198.14 1.71976 -1.50454 0
M  V30 33399 C 3198.35 -1.42931 -3.18389 0
M  V30 33400 C 3199.69 -1.58263 -3.94003 0
M  V30 33401 O 3200.72 -1.39024 -3.2795 0
M  V30 33402 O 3199.58 -1.89934 -5.12433 0
M  V30 33403 H 3196.67 -0.253821 -0.787086 0
M  V30 33404 H 3199.22 -1.1764 -1.22306 0
M  V30 33405 H 3197.99 -2.46337 -3.0403 0
M  V30 33406 H 3197.61 -0.956507 -3.85923 0
M  V30 33407 N 3198.61 1.32084 -0.85974 0
M  V30 33408 C 3199.56 2.28761 -0.306082 0
M  V30 33409 C 3200.53 1.55277 0.589774 0
M  V30 33410 O 3201.71 1.83475 0.5236 0
M  V30 33411 C 3198.85 3.41529 0.495196 0
M  V30 33412 C 3197.96 4.29884 -0.427023 0
M  V30 33413 C 3197.1 5.29786 0.387381 0
M  V30 33414 C 3196.14 6.09784 -0.531914 0
M  V30 33415 N 3195.27 7.0167 0.245617 0
M  V30 33416 H 3200.11 2.75508 -1.13574 0
M  V30 33417 H 3197.65 1.35545 -0.571492 0
M  V30 33418 H 3199.61 4.05637 0.975439 0
M  V30 33419 H 3198.24 2.95919 1.28964 0
M  V30 33420 H 3197.29 3.66311 -1.02568 0
M  V30 33421 H 3198.6 4.85777 -1.13234 0
M  V30 33422 H 3197.76 5.99521 0.930572 0
M  V30 33423 H 3196.5 4.74522 1.12604 0
M  V30 33424 H 3195.5 5.38949 -1.08695 0
M  V30 33425 H 3196.73 6.67133 -1.26926 0
M  V30 33426 H 3194.67 6.4883 0.967277 0
M  V30 33427 H 3194.59 7.54938 -0.400565 0
M  V30 33428 H 3195.86 7.75684 0.77037 0
M  V30 33429 N 3200.09 0.618171 1.4497 0
M  V30 33430 C 3201.02 -0.0815544 2.33358 0
M  V30 33431 C 3202 -0.848047 1.47452 0
M  V30 33432 O 3203.18 -0.816501 1.76201 0
M  V30 33433 C 3200.31 -1.07247 3.30326 0
M  V30 33434 C 3199.27 -0.418488 4.25949 0
M  V30 33435 C 3198.59 -1.5184 5.12688 0
M  V30 33436 C 3199.89 0.667062 5.18023 0
M  V30 33437 H 3201.59 0.656494 2.92114 0
M  V30 33438 H 3199.13 0.317153 1.40464 0
M  V30 33439 H 3201.09 -1.57062 3.91036 0
M  V30 33440 H 3199.81 -1.84125 2.69751 0
M  V30 33441 H 3198.47 0.0588952 3.66553 0
M  V30 33442 H 3198.12 -2.27772 4.48474 0
M  V30 33443 H 3197.82 -1.08626 5.77472 0
M  V30 33444 H 3199.34 -2.01861 5.76268 0
M  V30 33445 H 3200.75 0.252548 5.72743 0
M  V30 33446 H 3199.15 1.02157 5.91341 0
M  V30 33447 H 3200.22 1.53944 4.59814 0
M  V30 33448 N 3201.56 -1.53481 0.357946 0
M  V30 33449 C 3202.98 -1.59599 0.00657912 0
M  V30 33450 C 3203.18 -1.37338 -1.47446 0
M  V30 33451 O 3202.24 -1.17476 -2.23508 0
M  V30 33452 C 3203.55 -2.97227 0.455669 0
M  V30 33453 C 3205.1 -3.10313 0.409238 0
M  V30 33454 C 3205.57 -4.50342 0.83402 0
M  V30 33455 N 3207.06 -4.56435 0.788776 0
M  V30 33456 C 3207.8 -5.62959 1.08924 0
M  V30 33457 N 3207.29 -6.77272 1.45859 0
M  V30 33458 N 3209.09 -5.52905 1.01253 0
M  V30 33459 H 3201.24 -1.66203 1.3225 0
M  V30 33460 H 3203.5 -0.779126 0.540061 0
M  V30 33461 H 3203.21 -3.18631 1.48887 0
M  V30 33462 H 3203.08 -3.76853 -0.161685 0
M  V30 33463 H 3205.47 -2.88624 -0.614812 0
M  V30 33464 H 3205.55 -2.32713 1.06199 0
M  V30 33465 H 3205.19 -4.72768 1.85615 0
M  V30 33466 H 3205.12 -5.26361 0.1586 0
M  V30 33467 H 3207.61 -3.74353 0.516563 0
M  V30 33468 H 3207.93 -7.54489 1.67231 0
M  V30 33469 H 3206.27 -6.78682 1.49717 0
M  V30 33470 H 3209.46 -4.62479 0.723219 0
M  V30 33471 H 3209.64 -6.35829 1.25003 0
M  V30 33472 N 3203.04 -0.0869173 -1.5736 0
M  V30 33473 C 3204.46 0.269734 -1.57304 0
M  V30 33474 C 3204.66 1.6899 -1.09748 0
M  V30 33475 O 3203.71 2.40466 -0.770213 0
M  V30 33476 C 3205.03 0.0656118 -3.00628 0
M  V30 33477 C 3206.58 0.13399 -3.12713 0
M  V30 33478 C 3207.05 -0.0420374 -4.57981 0
M  V30 33479 N 3208.54 0.0130687 -4.63198 0
M  V30 33480 C 3209.28 -0.0984972 -5.73315 0
M  V30 33481 N 3208.77 -0.264437 -6.92295 0
M  V30 33482 N 3210.57 -0.0403505 -5.62086 0
M  V30 33483 H 3202.72 -1.0149 -1.86584 0
M  V30 33484 H 3204.98 -0.39707 -0.860837 0
M  V30 33485 H 3204.69 -0.914951 -3.3959 0
M  V30 33486 H 3204.56 0.811457 -3.68368 0
M  V30 33487 H 3206.95 1.10505 -2.73629 0
M  V30 33488 H 3207.03 -0.64321 -2.47581 0
M  V30 33489 H 3206.67 -1.00993 -4.97758 0
M  V30 33490 H 3206.6 0.754755 -5.21163 0
M  V30 33491 H 3209.09 0.139117 -3.77644 0
M  V30 33492 H 3209.41 -0.341301 -7.72046 0
M  V30 33493 H 3207.75 -0.299998 -6.94352 0
M  V30 33494 H 3210.94 0.0880978 -4.68017 0
M  V30 33495 H 3211.11 -0.130748 -6.47868 0
M  V30 33496 N 3204.52 1.5649 0.186734 0
M  V30 33497 C 3205.77 1.81379 0.907162 0
M  V30 33498 C 3206.1 0.662315 1.82557 0
M  V30 33499 O 3205.37 -0.336665 1.91564 0
M  V30 33500 C 3205.66 3.16574 1.71618 0
M  V30 33501 C 3205.51 4.42227 0.821931 0
M  V30 33502 C 3206.83 3.48547 2.68707 0
M  V30 33503 H 3203.95 0.659812 0.328355 0
M  V30 33504 H 3206.59 1.89201 0.174109 0
M  V30 33505 H 3204.74 3.10038 2.34113 0
M  V30 33506 H 3206.41 4.60817 0.211041 0
M  V30 33507 H 3204.66 4.33608 0.129102 0
M  V30 33508 H 3205.33 5.33339 1.42317 0
M  V30 33509 H 3207.8 3.55437 2.16341 0
M  V30 33510 H 3206.68 4.44248 3.2239 0
M  V30 33511 H 3206.94 2.72465 3.4816 0
M  V30 33512 N 3206 -0.45475 1.50897 0
M  V30 33513 C 3207.28 -1.21573 1.53229 0
M  V30 33514 C 3207.66 -2.09148 0.286395 0
M  V30 33515 O 3207 -2.16545 -0.729431 0
M  V30 33516 C 3207.21 -2.03266 2.83697 0
M  V30 33517 C 3208.56 -2.60902 3.34985 0
M  V30 33518 O 3209.59 -2.13494 2.85129 0
M  V30 33519 O 3208.44 -3.47323 4.21935 0
M  V30 33520 H 3205.54 -0.552553 0.615316 0
M  V30 33521 H 3208.08 -0.465237 1.63198 0
M  V30 33522 H 3206.86 -1.38836 3.65842 0
M  V30 33523 H 3206.48 -2.85417 2.76808 0
M  V30 33524 N 3207.48 -1.40749 -0.709041 0
M  V30 33525 C 3208.72 -1.40589 -1.4699 0
M  V30 33526 C 3209.08 -0.00989682 -1.92397 0
M  V30 33527 O 3208.37 0.961743 -1.65714 0
M  V30 33528 C 3208.56 -2.33546 -2.70538 0
M  V30 33529 C 3208.39 -3.82046 -2.37216 0
M  V30 33530 C 3207.16 -4.50817 -2.28236 0
M  V30 33531 C 3209.36 -4.7337 -2.0106 0
M  V30 33532 N 3207.34 -5.84515 -1.87657 0
M  V30 33533 C 3208.71 -5.95914 -1.71133 0
M  V30 33534 C 3210.77 -4.61143 -1.87753 0
M  V30 33535 C 3209.47 -7.07595 -1.29238 0
M  V30 33536 C 3211.5 -5.72772 -1.47261 0
M  V30 33537 C 3210.86 -6.94406 -1.18236 0
M  V30 33538 H 3206.96 -0.569695 -0.535698 0
M  V30 33539 H 3209.54 -1.76514 -0.821638 0
M  V30 33540 H 3207.71 -1.99738 -3.33105 0
M  V30 33541 H 3209.45 -2.24198 -3.36923 0
M  V30 33542 H 3206.2 -4.04582 -2.46192 0
M  V30 33543 H 3206.63 -6.55338 -1.69887 0
M  V30 33544 H 3211.27 -3.67615 -2.08851 0
M  V30 33545 H 3208.99 -8.01 -1.06882 0
M  V30 33546 H 3212.57 -5.6531 -1.37534 0
M  V30 33547 H 3211.45 -7.79317 -0.87376 0
M  V30 33548 N 3208.96 0.941933 -1.26354 0
M  V30 33549 C 3209.9 2.04054 -1.07846 0
M  V30 33550 C 3210.87 1.66092 0.0162772 0
M  V30 33551 O 3212.06 1.90261 -0.143347 0
M  V30 33552 C 3209.2 3.37576 -0.716696 0
M  V30 33553 C 3208.31 3.88579 -1.88761 0
M  V30 33554 C 3207.45 5.10483 -1.46902 0
M  V30 33555 C 3206.48 5.53746 -2.60828 0
M  V30 33556 N 3205.62 6.66855 -2.19657 0
M  V30 33557 H 3210.46 2.19218 -2.0186 0
M  V30 33558 H 3208 1.07411 -1.00506 0
M  V30 33559 H 3209.96 4.14338 -0.487841 0
M  V30 33560 H 3208.59 3.22261 0.186474 0
M  V30 33561 H 3207.64 3.08223 -2.22941 0
M  V30 33562 H 3208.95 4.16625 -2.74272 0
M  V30 33563 H 3208.1 5.94703 -1.20057 0
M  V30 33564 H 3206.84 4.84181 -0.584806 0
M  V30 33565 H 3205.85 4.68085 -2.88404 0
M  V30 33566 H 3207.07 5.8205 -3.49849 0
M  V30 33567 H 3205.02 6.42237 -1.33669 0
M  V30 33568 H 3204.94 6.94483 -2.98712 0
M  V30 33569 H 3206.2 7.54451 -1.96022 0
M  V30 33570 N 3210.43 1.08146 1.1464 0
M  V30 33571 C 3211.66 0.831006 1.90024 0
M  V30 33572 C 3212.08 -0.610848 1.77905 0
M  V30 33573 O 3211.44 -1.42774 1.11738 0
M  V30 33574 C 3211.49 1.25428 3.38083 0
M  V30 33575 O 3210.59 0.404558 4.10411 0
M  V30 33576 H 3209.93 0.302052 0.591321 0
M  V30 33577 H 3212.46 1.44219 1.45128 0
M  V30 33578 H 3212.47 1.23397 3.88892 0
M  V30 33579 H 3211.15 2.30442 3.46222 0
M  V30 33580 H 3209.73 0.488051 3.69692 0
M  V30 33581 N 3211.91 -1.31626 0.866732 0
M  V30 33582 C 3213.14 -2.01004 0.490426 0
M  V30 33583 C 3213.55 -1.65079 -0.916215 0
M  V30 33584 O 3212.91 -0.878328 -1.59974 0
M  V30 33585 C 3212.96 -3.55896 0.634074 0
M  V30 33586 O 3212.68 -3.90534 1.98532 0
M  V30 33587 C 3214.18 -4.42547 0.258355 0
M  V30 33588 H 3211.4 -0.643113 0.191432 0
M  V30 33589 H 3213.95 -1.67932 1.16701 0
M  V30 33590 H 3212.1 -3.874 0.00508611 0
M  V30 33591 H 3212.52 -4.85252 1.99075 0
M  V30 33592 H 3213.99 -5.50477 0.40983 0
M  V30 33593 H 3214.47 -4.31811 -0.802225 0
M  V30 33594 H 3215.07 -4.16454 0.86291 0
M  V30 33595 N 3213.39 -0.62585 -1.4464 0
M  V30 33596 C 3214.32 0.0691778 -2.33398 0
M  V30 33597 C 3215.3 0.840215 -1.479 0
M  V30 33598 O 3216.49 0.807145 -1.76632 0
M  V30 33599 C 3213.62 1.05494 -3.3089 0
M  V30 33600 C 3212.57 0.395893 -4.26165 0
M  V30 33601 C 3211.9 1.49119 -5.13486 0
M  V30 33602 C 3213.2 -0.694524 -5.17662 0
M  V30 33603 H 3214.89 -0.671976 -2.91762 0
M  V30 33604 H 3212.44 -0.324598 -1.40294 0
M  V30 33605 H 3214.39 1.54986 -3.91864 0
M  V30 33606 H 3213.11 1.82692 -2.70724 0
M  V30 33607 H 3211.77 -0.0783336 -3.66516 0
M  V30 33608 H 3211.42 2.25391 -4.49675 0
M  V30 33609 H 3211.12 1.05562 -5.7804 0
M  V30 33610 H 3212.64 1.98802 -5.7733 0
M  V30 33611 H 3214.06 -0.282919 -5.72601 0
M  V30 33612 H 3212.45 -1.05291 -5.90791 0
M  V30 33613 H 3213.52 -1.5638 -4.58992 0
M  V30 33614 N 3214.87 1.53289 -0.36608 0
M  V30 33615 C 3216.28 1.59593 -0.0150429 0
M  V30 33616 C 3216.48 1.38118 1.46716 0
M  V30 33617 O 3215.54 1.1866 2.22881 0
M  V30 33618 C 3216.85 2.96982 -0.471426 0
M  V30 33619 C 3218.4 3.10092 -0.425689 0
M  V30 33620 C 3218.88 4.49894 -0.857891 0
M  V30 33621 N 3220.37 4.5601 -0.81297 0
M  V30 33622 C 3221.1 5.62374 -1.11908 0
M  V30 33623 N 3220.6 6.76489 -1.49448 0
M  V30 33624 N 3222.39 5.52361 -1.04184 0
M  V30 33625 H 3214.54 1.655 -1.3313 0
M  V30 33626 H 3216.8 0.776251 -0.544185 0
M  V30 33627 H 3216.51 3.17837 -1.50574 0
M  V30 33628 H 3216.38 3.76934 0.141698 0
M  V30 33629 H 3218.77 2.88946 0.599497 0
M  V30 33630 H 3218.85 2.32147 -1.07431 0
M  V30 33631 H 3218.5 4.71777 -1.8812 0
M  V30 33632 H 3218.43 5.2627 -0.186512 0
M  V30 33633 H 3220.92 3.74074 -0.536408 0
M  V30 33634 H 3221.23 7.53591 -1.7123 0
M  V30 33635 H 3219.58 6.77879 -1.53314 0
M  V30 33636 H 3222.77 4.62089 -0.747735 0
M  V30 33637 H 3222.94 6.35157 -1.28373 0
M  V30 33638 N 3216.35 0.0952613 1.57312 0
M  V30 33639 C 3217.28 -0.860715 2.17057 0
M  V30 33640 C 3218.26 -1.29409 1.10396 0
M  V30 33641 O 3219.44 -1.36095 1.38534 0
M  V30 33642 C 3216.57 -2.11979 2.75104 0
M  V30 33643 C 3215.53 -1.82503 3.87139 0
M  V30 33644 C 3214.85 -3.1524 4.31889 0
M  V30 33645 C 3216.15 -1.11185 5.10328 0
M  V30 33646 H 3217.85 -0.362931 2.97192 0
M  V30 33647 H 3215.39 -0.173126 1.42955 0
M  V30 33648 H 3217.34 -2.79293 3.15552 0
M  V30 33649 H 3216.07 -2.64041 1.92224 0
M  V30 33650 H 3214.73 -1.17586 3.47231 0
M  V30 33651 H 3214.38 -3.65189 3.45899 0
M  V30 33652 H 3214.08 -2.963 5.07425 0
M  V30 33653 H 3215.6 -3.83712 4.74971 0
M  V30 33654 H 3217.01 -1.6861 5.47945 0
M  V30 33655 H 3215.41 -1.02424 5.91295 0
M  V30 33656 H 3216.48 -0.0946374 4.84808 0
M  V30 33657 N 3217.82 -1.56587 -0.178432 0
M  V30 33658 C 3218.75 -1.98886 -1.22338 0
M  V30 33659 C 3219.73 -0.863336 -1.46562 0
M  V30 33660 O 3220.92 -1.1289 -1.58017 0
M  V30 33661 C 3218.05 -2.34266 -2.56392 0
M  V30 33662 C 3217 -3.49712 -2.4675 0
M  V30 33663 C 3216.33 -3.70814 -3.85229 0
M  V30 33664 C 3217.63 -4.83385 -1.97829 0
M  V30 33665 H 3219.32 -2.86426 -0.871798 0
M  V30 33666 H 3216.87 -1.37802 -0.417924 0
M  V30 33667 H 3218.82 -2.62454 -3.29691 0
M  V30 33668 H 3217.55 -1.43627 -2.93324 0
M  V30 33669 H 3216.21 -3.21641 -1.75906 0
M  V30 33670 H 3215.85 -2.77477 -4.19542 0
M  V30 33671 H 3215.55 -4.48488 -3.79648 0
M  V30 33672 H 3217.08 -4.01395 -4.60124 0
M  V30 33673 H 3218.49 -5.10495 -2.60897 0
M  V30 33674 H 3216.89 -5.64646 -2.03213 0
M  V30 33675 H 3217.96 -4.75854 -0.932255 0
M  V30 33676 N 3219.3 0.446741 -1.51136 0
M  V30 33677 C 3220.23 1.54913 -1.74712 0
M  V30 33678 C 3221.21 1.59292 -0.596656 0
M  V30 33679 O 3222.4 1.75171 -0.838386 0
M  V30 33680 C 3219.53 2.93067 -1.86358 0
M  V30 33681 C 3218.48 3.0355 -3.0173 0
M  V30 33682 C 3217.81 4.43591 -2.98548 0
M  V30 33683 C 3219.11 2.78502 -4.41853 0
M  V30 33684 H 3220.8 1.35435 -2.67016 0
M  V30 33685 H 3218.35 0.650108 -1.2849 0
M  V30 33686 H 3220.3 3.70138 -2.01435 0
M  V30 33687 H 3219.02 3.13755 -0.906942 0
M  V30 33688 H 3217.68 2.28917 -2.86343 0
M  V30 33689 H 3217.33 4.61233 -2.00681 0
M  V30 33690 H 3217.03 4.51537 -3.76015 0
M  V30 33691 H 3218.56 5.22649 -3.15705 0
M  V30 33692 H 3219.97 3.45311 -4.57639 0
M  V30 33693 H 3218.37 2.97868 -5.20955 0
M  V30 33694 H 3219.44 1.74174 -4.52539 0
M  V30 33695 N 3220.78 1.41123 0.701567 0
M  V30 33696 C 3221.71 1.3691 1.82567 0
M  V30 33697 C 3222.69 0.237273 1.60859 0
M  V30 33698 O 3223.87 0.423214 1.83688 0
M  V30 33699 C 3221 1.13414 3.19147 0
M  V30 33700 C 3220.05 2.29236 3.59657 0
M  V30 33701 S 3220.88 3.91692 3.65154 0
M  V30 33702 C 3222.04 3.70487 5.0447 0
M  V30 33703 H 3222.27 2.32039 1.85863 0
M  V30 33704 H 3219.8 1.27576 0.869703 0
M  V30 33705 H 3221.76 1.00544 3.97997 0
M  V30 33706 H 3220.42 0.199154 3.13468 0
M  V30 33707 H 3219.61 2.08474 4.58862 0
M  V30 33708 H 3219.22 2.38482 2.88101 0
M  V30 33709 H 3221.51 3.29822 5.91797 0
M  V30 33710 H 3222.45 4.69273 5.30272 0
M  V30 33711 H 3222.86 3.03884 4.75726 0
M  V30 33712 N 3222.26 -0.935219 1.26852 0
M  V30 33713 C 3223.19 -2.05194 1.11434 0
M  V30 33714 C 3224.17 -1.70091 0.0178661 0
M  V30 33715 O 3225.35 -1.93259 0.190985 0
M  V30 33716 C 3222.48 -3.39042 0.752839 0
M  V30 33717 C 3221.44 -3.8823 1.80171 0
M  V30 33718 C 3220.76 -5.18797 1.29437 0
M  V30 33719 C 3222.06 -4.12452 3.20439 0
M  V30 33720 H 3223.76 -2.18351 2.04849 0
M  V30 33721 H 3221.3 -1.0492 0.986295 0
M  V30 33722 H 3223.26 -4.16636 0.63183 0
M  V30 33723 H 3221.98 -3.25878 -0.217018 0
M  V30 33724 H 3220.64 -3.12822 1.91149 0
M  V30 33725 H 3220.29 -5.02018 0.314188 0
M  V30 33726 H 3219.99 -5.52677 1.99556 0
M  V30 33727 H 3221.51 -5.98968 1.18615 0
M  V30 33728 H 3222.93 -4.8064 3.12503 0
M  V30 33729 H 3221.32 -4.57625 3.88201 0
M  V30 33730 H 3222.39 -3.18016 3.66052 0
M  V30 33731 N 3223.74 -1.08752 -1.14065 0
M  V30 33732 C 3224.98 -0.828906 -1.86838 0
M  V30 33733 C 3225.34 0.633848 -1.81236 0
M  V30 33734 O 3226.54 1.00811 -2.4918 0
M  V30 33735 C 3224.81 -1.34079 -3.31297 0
M  V30 33736 S 3226.37 -1.21501 -4.21643 0
M  V30 33737 H 3223.19 -0.299984 -0.644617 0
M  V30 33738 H 3225.79 -1.38951 -1.37524 0
M  V30 33739 H 3224.5 -2.39977 -3.32925 0
M  V30 33740 H 3224.03 -0.776012 -3.8567 0
M  V30 33741 H 3226.04 -0.161533 -4.95937 0
M  V30 33742 N 3225.21 1.31165 -0.873701 0
M  V30 33743 C 3226.44 2.00741 -0.501079 0
M  V30 33744 C 3226.86 1.65562 0.907447 0
M  V30 33745 O 3226.21 0.886799 1.59506 0
M  V30 33746 C 3226.27 3.55554 -0.652939 0
M  V30 33747 O 3225.99 3.89476 -2.006 0
M  V30 33748 C 3227.49 4.42403 -0.28182 0
M  V30 33749 H 3224.71 0.642089 -0.19484 0
M  V30 33750 H 3227.25 1.67311 -1.1759 0
M  V30 33751 H 3225.41 3.87392 -0.0256308 0
M  V30 33752 H 3225.82 4.84189 -2.01646 0
M  V30 33753 H 3227.29 5.50251 -0.439017 0
M  V30 33754 H 3227.77 4.32231 0.779313 0
M  V30 33755 H 3228.38 4.15991 -0.884983 0
M  V30 33756 N 3226.69 0.633512 1.44307 0
M  V30 33757 C 3227.92 0.1461 2.06384 0
M  V30 33758 C 3228.34 -1.18029 1.47359 0
M  V30 33759 O 3227.69 -1.72447 0.597364 0
M  V30 33760 C 3227.74 0.0277357 3.61489 0
M  V30 33761 O 3227.46 1.30167 4.18316 0
M  V30 33762 C 3228.97 -0.48809 4.40605 0
M  V30 33763 H 3226.19 0.0807749 0.66612 0
M  V30 33764 H 3228.73 0.868589 1.85137 0
M  V30 33765 H 3226.88 -0.645206 3.81989 0
M  V30 33766 H 3227.3 1.14806 5.11781 0
M  V30 33767 H 3228.77 -0.519916 5.49546 0
M  V30 33768 H 3229.25 -1.51561 4.12221 0
M  V30 33769 H 3229.86 0.151683 4.25029 0
M  V30 33770 N 3228.17 -1.53093 0.374204 0
M  V30 33771 C 3229.1 -2.22383 -0.511956 0
M  V30 33772 C 3230.08 -1.21892 -1.07615 0
M  V30 33773 O 3231.27 -1.50826 -1.13065 0
M  V30 33774 C 3228.39 -2.92528 -1.70719 0
M  V30 33775 C 3227.44 -4.07164 -1.26964 0
M  V30 33776 S 3228.27 -5.3485 -0.263741 0
M  V30 33777 C 3229.43 -6.08511 -1.4651 0
M  V30 33778 H 3229.66 -2.97202 0.0764833 0
M  V30 33779 H 3227.19 -1.53586 0.158334 0
M  V30 33780 H 3229.15 -3.33555 -2.39273 0
M  V30 33781 H 3227.81 -2.17418 -2.26689 0
M  V30 33782 H 3227.01 -4.5529 -2.16164 0
M  V30 33783 H 3226.61 -3.68073 -0.663208 0
M  V30 33784 H 3228.9 -6.33766 -2.39472 0
M  V30 33785 H 3229.84 -7.00641 -1.02505 0
M  V30 33786 H 3230.25 -5.39075 -1.67507 0
M  V30 33787 N 3229.65 -0.103603 -1.57259 0
M  V30 33788 C 3230.89 0.558919 -1.94946 0
M  V30 33789 C 3231.23 1.67303 -0.986068 0
M  V30 33790 O 3230.5 1.94489 -0.0205806 0
M  V30 33791 C 3230.79 1.10611 -3.42691 0
M  V30 33792 C 3230.64 -0.00353152 -4.498 0
M  V30 33793 C 3231.96 2.00184 -3.91937 0
M  V30 33794 H 3229.08 0.201701 -0.708862 0
M  V30 33795 H 3231.72 -0.176039 -1.89183 0
M  V30 33796 H 3229.87 1.73244 -3.47734 0
M  V30 33797 H 3231.54 -0.638163 -4.56865 0
M  V30 33798 H 3229.78 -0.66878 -4.28614 0
M  V30 33799 H 3230.45 0.420299 -5.50398 0
M  V30 33800 H 3232.93 1.47443 -3.89101 0
M  V30 33801 H 3231.81 2.35394 -4.95864 0
M  V30 33802 H 3232.07 2.92249 -3.31727 0
M  V30 33803 N 3231.13 1.56679 0.170126 0
M  V30 33804 C 3232.06 1.99532 1.21282 0
M  V30 33805 C 3233.04 0.871097 1.46102 0
M  V30 33806 O 3234.22 1.13726 1.57417 0
M  V30 33807 C 3231.35 2.35622 2.55146 0
M  V30 33808 C 3230.31 3.51016 2.44892 0
M  V30 33809 C 3229.63 3.72852 3.83257 0
M  V30 33810 C 3230.93 4.84427 1.95263 0
M  V30 33811 H 3232.63 2.86885 0.856596 0
M  V30 33812 H 3230.17 1.38022 0.41061 0
M  V30 33813 H 3232.13 2.64199 3.28294 0
M  V30 33814 H 3230.85 1.4518 2.92558 0
M  V30 33815 H 3229.51 3.22569 1.74198 0
M  V30 33816 H 3229.16 2.79698 4.18064 0
M  V30 33817 H 3228.86 4.50495 3.77264 0
M  V30 33818 H 3230.38 4.0383 4.57989 0
M  V30 33819 H 3231.79 5.11872 2.58186 0
M  V30 33820 H 3230.19 5.65715 2.00215 0
M  V30 33821 H 3231.26 4.76342 0.907007 0
M  V30 33822 N 3232.6 -0.43872 1.5137 0
M  V30 33823 C 3233.53 -1.53984 1.75531 0
M  V30 33824 C 3234.52 -1.58974 0.605095 0
M  V30 33825 O 3235.7 -1.74723 0.847664 0
M  V30 33826 C 3232.83 -2.92074 1.87909 0
M  V30 33827 C 3231.78 -3.01946 3.03336 0
M  V30 33828 C 3231.11 -4.42002 3.00896 0
M  V30 33829 C 3232.41 -2.76155 4.43323 0
M  V30 33830 H 3234.1 -1.34017 2.67731 0
M  V30 33831 H 3231.65 -0.643285 1.28833 0
M  V30 33832 H 3233.6 -3.69064 2.03395 0
M  V30 33833 H 3232.33 -3.13269 0.923569 0
M  V30 33834 H 3230.99 -2.27395 2.87553 0
M  V30 33835 H 3230.63 -4.60163 2.03124 0
M  V30 33836 H 3230.33 -4.49537 3.78405 0
M  V30 33837 H 3231.86 -5.20968 3.18473 0
M  V30 33838 H 3233.27 -3.42879 4.59464 0
M  V30 33839 H 3231.67 -2.95101 5.22528 0
M  V30 33840 H 3232.74 -1.71771 4.53456 0
M  V30 33841 N 3234.08 -1.41493 -0.694073 0
M  V30 33842 C 3235.31 -1.4449 -1.48786 0
M  V30 33843 C 3235.73 -0.0521919 -1.88028 0
M  V30 33844 O 3235.09 0.944925 -1.54728 0
M  V30 33845 C 3235.14 -2.36075 -2.72582 0
M  V30 33846 O 3234.24 -1.81882 -3.70125 0
M  V30 33847 H 3233.58 -0.490323 -0.44775 0
M  V30 33848 H 3236.11 -1.8597 -0.853003 0
M  V30 33849 H 3236.12 -2.52001 -3.20873 0
M  V30 33850 H 3234.8 -3.37268 -2.43357 0
M  V30 33851 H 3233.38 -1.75414 -3.29066 0
M  V30 33852 N 3235.56 0.928479 -1.27346 0
M  V30 33853 C 3236.79 1.71548 -1.1656 0
M  V30 33854 C 3237.21 1.86093 0.274011 0
M  V30 33855 O 3236.57 1.3604 1.19845 0
M  V30 33856 C 3236.62 3.09326 -1.85338 0
M  V30 33857 O 3235.72 3.96018 -1.15081 0
M  V30 33858 H 3235.06 0.525852 -0.405432 0
M  V30 33859 H 3237.59 1.16199 -1.68401 0
M  V30 33860 H 3237.6 3.59644 -1.92665 0
M  V30 33861 H 3236.28 2.98055 -2.90062 0
M  V30 33862 H 3234.85 3.54459 -1.15817 0
M  V30 33863 N 3237.04 1.09355 1.13486 0
M  V30 33864 C 3238.28 0.830387 1.8502 0
M  V30 33865 C 3238.62 -0.642387 1.83268 0
M  V30 33866 O 3237.89 -1.47291 1.27026 0
M  V30 33867 C 3238.18 1.36527 3.33215 0
M  V30 33868 C 3238.03 2.9041 3.43486 0
M  V30 33869 C 3239.35 0.998457 4.28624 0
M  V30 33870 H 3236.47 0.303117 0.671781 0
M  V30 33871 H 3239.11 1.35483 1.33208 0
M  V30 33872 H 3237.26 0.919184 3.7747 0
M  V30 33873 H 3238.93 3.43462 3.07948 0
M  V30 33874 H 3237.17 3.27578 2.84385 0
M  V30 33875 H 3237.84 3.22912 4.47696 0
M  V30 33876 H 3240.32 1.38318 3.92438 0
M  V30 33877 H 3239.2 1.39978 5.30752 0
M  V30 33878 H 3239.46 -0.0934393 4.42001 0
M  V30 33879 N 3238.52 -1.307 0.880644 0
M  V30 33880 C 3239.75 -2.00181 0.510975 0
M  V30 33881 C 3240.16 -1.66212 -0.903884 0
M  V30 33882 O 3239.5 -0.893117 -1.60528 0
M  V30 33883 C 3239.56 -3.54443 0.600837 0
M  V30 33884 C 3239.22 -4.11917 1.97923 0
M  V30 33885 C 3240.22 -4.28233 2.94809 0
M  V30 33886 C 3237.91 -4.47397 2.28344 0
M  V30 33887 C 3239.9 -4.79235 4.20253 0
M  V30 33888 C 3237.59 -4.98099 3.54035 0
M  V30 33889 C 3238.59 -5.1397 4.49805 0
M  V30 33890 O 3238.27 -5.63579 5.73266 0
M  V30 33891 H 3238.01 -0.646814 0.196488 0
M  V30 33892 H 3240.56 -1.67656 1.18661 0
M  V30 33893 H 3238.79 -3.86475 -0.131764 0
M  V30 33894 H 3240.48 -4.05172 0.243067 0
M  V30 33895 H 3241.24 -4.01129 2.72617 0
M  V30 33896 H 3237.12 -4.34314 1.54571 0
M  V30 33897 H 3240.67 -4.91538 4.95012 0
M  V30 33898 H 3236.56 -5.24638 3.76066 0
M  V30 33899 H 3237.33 -5.81929 5.75587 0
M  V30 33900 N 3240 -0.641156 -1.43969 0
M  V30 33901 C 3240.95 0.079839 -2.2786 0
M  V30 33902 C 3241.93 0.806485 -1.39229 0
M  V30 33903 O 3243.12 0.69094 -1.62957 0
M  V30 33904 C 3240.25 1.05388 -3.26723 0
M  V30 33905 C 3239.34 0.326337 -4.22843 0
M  V30 33906 N 3239.73 -0.650552 -5.01599 0
M  V30 33907 C 3238.03 0.56943 -4.4235 0
M  V30 33908 C 3238.73 -1.08131 -5.71561 0
M  V30 33909 N 3237.7 -0.418027 -5.4199 0
M  V30 33910 H 3241.5 -0.669957 -2.86162 0
M  V30 33911 H 3239.02 -0.46746 -1.55527 0
M  V30 33912 H 3241.02 1.5851 -3.85591 0
M  V30 33913 H 3239.68 1.80387 -2.69983 0
M  V30 33914 H 3240.69 -1.02879 -5.07579 0
M  V30 33915 H 3237.36 1.30152 -3.96695 0
M  V30 33916 H 3238.75 -1.88894 -6.44801 0
M  V30 33917 N 3241.47 1.52892 -0.382318 0
M  V30 33918 C 3242.4 2.29166 0.447789 0
M  V30 33919 C 3243.38 1.32269 1.06953 0
M  V30 33920 O 3244.57 1.61156 1.08363 0
M  V30 33921 C 3241.7 3.09332 1.57896 0
M  V30 33922 C 3240.65 4.14055 1.08362 0
M  V30 33923 C 3239.98 4.82403 2.30633 0
M  V30 33924 C 3241.28 5.22065 0.156499 0
M  V30 33925 H 3242.97 2.98805 -0.188593 0
M  V30 33926 H 3240.52 1.43705 -0.0921432 0
M  V30 33927 H 3242.47 3.61445 2.16645 0
M  V30 33928 H 3241.2 2.37413 2.24283 0
M  V30 33929 H 3239.86 3.62912 0.518708 0
M  V30 33930 H 3239.5 4.07039 2.95513 0
M  V30 33931 H 3239.2 5.53181 1.98154 0
M  V30 33932 H 3240.73 5.37318 2.90037 0
M  V30 33933 H 3242.14 5.69581 0.651965 0
M  V30 33934 H 3240.54 6.00049 -0.0782033 0
M  V30 33935 H 3241.61 4.78312 -0.796613 0
M  V30 33936 N 3242.95 0.111941 1.57202 0
M  V30 33937 C 3244.18 -0.554872 1.99009 0
M  V30 33938 C 3244.59 -1.6121 0.990351 0
M  V30 33939 O 3243.93 -1.83682 -0.0259289 0
M  V30 33940 C 3243.99 -1.24592 3.3722 0
M  V30 33941 C 3243.66 -0.337469 4.55752 0
M  V30 33942 C 3244.66 0.421117 5.18192 0
M  V30 33943 C 3242.34 -0.250602 5.01674 0
M  V30 33944 C 3244.33 1.25437 6.24935 0
M  V30 33945 C 3242.02 0.586293 6.08281 0
M  V30 33946 C 3243.02 1.33742 6.69778 0
M  V30 33947 O 3242.71 2.16043 7.74326 0
M  V30 33948 H 3242.44 -0.152079 0.658671 0
M  V30 33949 H 3244.99 0.192973 2.04492 0
M  V30 33950 H 3243.22 -2.04068 3.28471 0
M  V30 33951 H 3244.91 -1.80893 3.63363 0
M  V30 33952 H 3245.68 0.363837 4.83633 0
M  V30 33953 H 3241.56 -0.824925 4.53559 0
M  V30 33954 H 3245.1 1.84114 6.72865 0
M  V30 33955 H 3241 0.644992 6.42269 0
M  V30 33956 H 3241.77 2.08908 7.91391 0
M  V30 33957 N 3244.43 -1.56767 -0.161814 0
M  V30 33958 C 3245.68 -1.82799 -0.878192 0
M  V30 33959 C 3246.01 -0.691274 -1.8148 0
M  V30 33960 O 3245.28 0.306146 -1.92075 0
M  V30 33961 C 3245.57 -3.19265 -1.6656 0
M  V30 33962 C 3245.42 -4.43478 -0.751473 0
M  V30 33963 C 3246.74 -3.52777 -2.63128 0
M  V30 33964 H 3243.86 -0.664952 -0.317816 0
M  V30 33965 H 3246.5 -1.89454 -0.143987 0
M  V30 33966 H 3244.65 -3.13723 -2.29151 0
M  V30 33967 H 3246.32 -4.61094 -0.137702 0
M  V30 33968 H 3244.56 -4.33758 -0.0601023 0
M  V30 33969 H 3245.24 -5.35535 -1.33814 0
M  V30 33970 H 3247.71 -3.58834 -2.10659 0
M  V30 33971 H 3246.59 -4.49321 -3.15281 0
M  V30 33972 H 3246.85 -2.77969 -3.43781 0
M  V30 33973 N 3245.91 0.430686 -1.51601 0
M  V30 33974 C 3247.15 1.17956 -1.64598 0
M  V30 33975 C 3247.48 1.91037 -0.365415 0
M  V30 33976 O 3246.74 1.84562 0.650794 0
M  V30 33977 C 3247.04 2.21604 -2.80404 0
M  V30 33978 C 3246.7 1.65487 -4.19434 0
M  V30 33979 C 3245.36 1.49907 -4.57254 0
M  V30 33980 C 3247.72 1.24295 -5.06162 0
M  V30 33981 C 3245.04 0.916174 -5.79502 0
M  V30 33982 C 3247.4 0.674327 -6.28996 0
M  V30 33983 C 3246.06 0.505474 -6.65583 0
M  V30 33984 H 3245.33 0.431631 -0.602308 0
M  V30 33985 H 3247.98 0.469693 -1.85651 0
M  V30 33986 H 3246.28 2.98654 -2.536 0
M  V30 33987 H 3247.98 2.7938 -2.87659 0
M  V30 33988 H 3244.57 1.78592 -3.89619 0
M  V30 33989 H 3248.75 1.3515 -4.77544 0
M  V30 33990 H 3244.01 0.773173 -6.06492 0
M  V30 33991 H 3248.18 0.346657 -6.95537 0
M  V30 33992 H 3245.81 0.0516852 -7.60182 0
M  V30 33993 N 3247.39 1.4186 0.686559 0
M  V30 33994 C 3248.33 1.44633 1.82165 0
M  V30 33995 C 3249.33 0.323343 1.66285 0
M  V30 33996 O 3250.53 0.495803 1.73037 0
M  V30 33997 H 3246.91 0.452734 0.600446 0
M  V30 33998 H 3248.88 2.40279 1.76942 0
M  V30 33999 C 3247.63 1.35418 3.20246 0
M  V30 34000 H 3246.95 2.2112 3.33085 0
M  V30 34001 H 3248.39 1.4142 3.9972 0
M  V30 34002 C 3246.85 0.0675564 3.36832 0
M  V30 34003 O 3247.38 -0.884257 3.91847 0
M  V30 34004 N 3245.59 -0.0114679 2.90598 0
M  V30 34005 H 3245.13 0.763853 2.46014 0
M  V30 34006 H 3245.09 -0.871721 3.02073 0
M  V30 34007 N 3248.86 -0.921712 1.27837 0
M  V30 34008 C 3249.8 -2.02756 1.06877 0
M  V30 34009 C 3250.81 -1.62784 0.0229704 0
M  V30 34010 O 3252 -1.76519 0.265176 0
M  V30 34011 C 3249.1 -3.33539 0.600429 0
M  V30 34012 C 3248.27 -4.02169 1.71986 0
M  V30 34013 C 3247.33 -5.11229 1.24624 0
M  V30 34014 O 3246.36 -5.34864 1.94701 0
M  V30 34015 N 3247.56 -5.80405 0.105123 0
M  V30 34016 H 3250.32 -2.21297 2.02108 0
M  V30 34017 H 3247.88 -1.09249 1.19483 0
M  V30 34018 H 3249.88 -4.03816 0.267352 0
M  V30 34019 H 3248.45 -3.11527 -0.258817 0
M  V30 34020 H 3247.67 -3.25545 2.22292 0
M  V30 34021 H 3248.95 -4.44768 2.471 0
M  V30 34022 H 3248.35 -5.63663 -0.479646 0
M  V30 34023 H 3246.91 -6.51582 -0.168732 0
M  V30 34024 N 3250.34 -1.09956 -1.12905 0
M  V30 34025 C 3251.59 -0.840187 -1.84577 0
M  V30 34026 C 3251.92 0.632659 -1.83606 0
M  V30 34027 O 3251.2 1.46615 -1.27806 0
M  V30 34028 C 3251.48 -1.38292 -3.32486 0
M  V30 34029 C 3251.33 -2.92227 -3.41941 0
M  V30 34030 C 3252.65 -1.02117 -4.28089 0
M  V30 34031 H 3249.77 -0.306675 -0.670164 0
M  V30 34032 H 3252.41 -1.36187 -1.32488 0
M  V30 34033 H 3250.56 -0.939189 -3.76977 0
M  V30 34034 H 3252.23 -3.4509 -3.06122 0
M  V30 34035 H 3250.48 -3.29082 -2.82644 0
M  V30 34036 H 3251.15 -3.25282 -4.45977 0
M  V30 34037 H 3253.62 -1.40397 -3.91699 0
M  V30 34038 H 3252.5 -1.4279 -5.30002 0
M  V30 34039 H 3252.76 0.0699976 -4.42045 0
M  V30 34040 N 3251.82 1.30231 -0.887563 0
M  V30 34041 C 3252.75 2.30509 -0.372521 0
M  V30 34042 C 3253.73 1.61099 0.546008 0
M  V30 34043 O 3254.92 1.8869 0.459312 0
M  V30 34044 C 3252.05 3.44853 0.411544 0
M  V30 34045 C 3251 4.25979 -0.415458 0
M  V30 34046 C 3250.33 5.324 0.495369 0
M  V30 34047 C 3251.63 4.95254 -1.65895 0
M  V30 34048 H 3253.32 2.73838 -1.2105 0
M  V30 34049 H 3250.87 1.31647 -0.583521 0
M  V30 34050 H 3252.82 4.14071 0.782511 0
M  V30 34051 H 3251.54 3.00336 1.28319 0
M  V30 34052 H 3250.2 3.58452 -0.768597 0
M  V30 34053 H 3249.85 4.8413 1.3648 0
M  V30 34054 H 3249.55 5.87575 -0.0541917 0
M  V30 34055 H 3251.07 6.04473 0.862795 0
M  V30 34056 H 3252.49 5.56974 -1.35842 0
M  V30 34057 H 3250.88 5.60305 -2.14891 0
M  V30 34058 H 3251.95 4.21233 -2.40189 0
M  V30 34059 N 3253.3 0.648782 1.43627 0
M  V30 34060 C 3254.52 0.16632 2.06732 0
M  V30 34061 C 3254.95 -1.15731 1.48283 0
M  V30 34062 O 3254.31 -1.71395 0.591048 0
M  V30 34063 C 3254.35 0.0839365 3.60502 0
M  V30 34064 O 3253.46 -0.955114 4.01187 0
M  V30 34065 H 3252.8 0.0928401 0.657478 0
M  V30 34066 H 3255.33 0.890453 1.84207 0
M  V30 34067 H 3255.34 -0.100851 4.07875 0
M  V30 34068 H 3254.01 1.05021 4.02422 0
M  V30 34069 H 3252.59 -0.743473 3.65413 0
M  V30 34070 N 3254.78 -1.52688 0.390421 0
M  V30 34071 C 3256 -2.06491 -0.193977 0
M  V30 34072 C 3256.43 -1.26016 -1.39648 0
M  V30 34073 O 3255.78 -0.285499 -1.79038 0
M  V30 34074 C 3255.83 -3.56515 -0.541244 0
M  V30 34075 O 3254.94 -3.78603 -1.63503 0
M  V30 34076 H 3254.28 -0.663624 -0.0223491 0
M  V30 34077 H 3256.81 -1.96838 0.558214 0
M  V30 34078 H 3256.82 -3.99975 -0.805231 0
M  V30 34079 H 3255.49 -4.14525 0.337901 0
M  V30 34080 H 3254.07 -3.47032 -1.36467 0
M  V30 34081 N 3256.25 -0.120276 -1.5714 0
M  V30 34082 C 3257.53 0.581042 -1.86771 0
M  V30 34083 C 3257.91 1.8473 -1.02166 0
M  V30 34084 O 3257.26 2.28277 -0.100937 0
M  V30 34085 C 3257.47 0.872257 -3.37924 0
M  V30 34086 C 3258.82 1.22476 -4.06552 0
M  V30 34087 O 3259.84 0.962478 -3.4295 0
M  V30 34088 O 3258.7 1.71707 -5.18824 0
M  V30 34089 H 3255.79 0.293349 -0.773224 0
M  V30 34090 H 3258.34 -0.154876 -1.68992 0
M  V30 34091 H 3257.11 -0.0250104 -3.91292 0
M  V30 34092 H 3256.74 1.66329 -3.61138 0
M  V30 34093 N 3257.73 1.56851 0.153498 0
M  V30 34094 C 3258.98 1.83263 0.868485 0
M  V30 34095 C 3259.31 0.700889 1.81111 0
M  V30 34096 O 3258.59 -0.295956 1.92235 0
M  V30 34097 C 3258.87 3.20143 1.64864 0
M  V30 34098 C 3258.72 4.43871 0.727943 0
M  V30 34099 C 3260.04 3.54168 2.61253 0
M  V30 34100 H 3257.16 0.666629 0.314285 0
M  V30 34101 H 3259.8 1.89527 0.133938 0
M  V30 34102 H 3257.95 3.14934 2.27484 0
M  V30 34103 H 3259.62 4.61161 0.113247 0
M  V30 34104 H 3257.87 4.33784 0.0370982 0
M  V30 34105 H 3258.54 5.36237 1.30972 0
M  V30 34106 H 3261.01 3.59946 2.08753 0
M  V30 34107 H 3259.89 4.50986 3.12894 0
M  V30 34108 H 3260.15 2.79788 3.42302 0
M  V30 34109 N 3259.21 -0.42264 1.51827 0
M  V30 34110 C 3260.14 -1.5345 1.68903 0
M  V30 34111 C 3261.12 -1.53491 0.536576 0
M  V30 34112 O 3262.31 -1.724 0.762256 0
M  V30 34113 C 3259.43 -2.9201 1.71604 0
M  V30 34114 C 3258.48 -3.09935 2.92989 0
M  V30 34115 S 3259.31 -2.84675 4.53564 0
M  V30 34116 C 3260.47 -4.25489 4.59031 0
M  V30 34117 H 3260.7 -1.38734 2.62945 0
M  V30 34118 H 3258.23 -0.613322 1.41696 0
M  V30 34119 H 3260.19 -3.71871 1.73845 0
M  V30 34120 H 3258.85 -3.04077 0.787137 0
M  V30 34121 H 3258.05 -4.11275 2.91322 0
M  V30 34122 H 3257.65 -2.37919 2.88566 0
M  V30 34123 H 3259.94 -5.18922 4.35576 0
M  V30 34124 H 3260.88 -4.32185 5.60911 0
M  V30 34125 H 3261.29 -4.0983 3.882 0
M  V30 34126 N 3260.69 -1.42222 -0.679027 0
M  V30 34127 C 3261.94 -1.42465 -1.43909 0
M  V30 34128 C 3262.26 -0.0395916 -1.9446 0
M  V30 34129 O 3261.52 0.951335 -1.71021 0
M  V30 34130 C 3261.82 -2.39232 -2.65524 0
M  V30 34131 C 3261.48 -3.85708 -2.33539 0
M  V30 34132 C 3260.15 -4.25607 -2.24526 0
M  V30 34133 C 3262.5 -4.7812 -2.07487 0
M  V30 34134 C 3259.83 -5.55904 -1.87583 0
M  V30 34135 C 3262.18 -6.08755 -1.72048 0
M  V30 34136 C 3260.84 -6.47657 -1.61543 0
M  V30 34137 H 3260.11 -0.521318 -0.526601 0
M  V30 34138 H 3262.76 -1.75133 -0.77463 0
M  V30 34139 H 3261.06 -1.99876 -3.36982 0
M  V30 34140 H 3262.76 -2.36687 -3.23698 0
M  V30 34141 H 3259.35 -3.54116 -2.41453 0
M  V30 34142 H 3263.53 -4.48085 -2.13385 0
M  V30 34143 H 3258.79 -5.84911 -1.78015 0
M  V30 34144 H 3262.96 -6.79851 -1.50914 0
M  V30 34145 H 3260.59 -7.48531 -1.32686 0
M  V30 34146 N 3262.17 0.91492 -1.28324 0
M  V30 34147 C 3263.08 2.05041 -1.13996 0
M  V30 34148 C 3264.09 1.73872 -0.0668227 0
M  V30 34149 O 3265.27 1.99502 -0.27588 0
M  V30 34150 C 3262.33 3.37298 -0.801916 0
M  V30 34151 C 3261.39 3.82084 -1.95729 0
M  V30 34152 C 3260.63 5.0803 -1.63528 0
M  V30 34153 O 3260.85 5.67751 -0.54909 0
M  V30 34154 O 3259.78 5.485 -2.47854 0
M  V30 34155 H 3263.61 2.20046 -2.09316 0
M  V30 34156 H 3261.2 1.03614 -1.07631 0
M  V30 34157 H 3263.08 4.16705 -0.627288 0
M  V30 34158 H 3261.75 3.23471 0.121639 0
M  V30 34159 H 3260.66 3.0351 -2.18707 0
M  V30 34160 H 3261.99 4.00473 -2.86151 0
M  V30 34161 N 3263.64 1.10553 1.1232 0
M  V30 34162 C 3264.92 0.760747 1.802 0
M  V30 34163 C 3265.3 -0.752594 1.97229 0
M  V30 34164 O 3264.65 -1.67926 1.54961 0
M  V30 34165 C 3264.86 1.51322 3.14488 0
M  V30 34166 C 3266.21 1.68653 3.89668 0
M  V30 34167 O 3267.23 1.4767 3.24148 0
M  V30 34168 O 3266.09 2.03454 5.07217 0
M  V30 34169 H 3263.18 0.2746 0.780079 0
M  V30 34170 H 3265.73 1.20842 1.19144 0
M  V30 34171 H 3264.5 2.54311 2.97391 0
M  V30 34172 H 3264.13 1.05849 3.83252 0
M  V30 34173 N 3265.12 -1.29758 0.894457 0
M  V30 34174 C 3266.09 -2.26142 0.373133 0
M  V30 34175 C 3267.09 -1.53161 -0.489729 0
M  V30 34176 O 3268.28 -1.71675 -0.29553 0
M  V30 34177 C 3265.41 -3.37684 -0.467174 0
M  V30 34178 H 3266.6 -2.73771 1.22431 0
M  V30 34179 H 3264.15 -1.4111 0.672137 0
M  V30 34180 H 3264.89 -2.95386 -1.33856 0
M  V30 34181 H 3264.67 -3.91809 0.151023 0
M  V30 34182 H 3266.16 -4.09402 -0.823397 0
M  V30 34183 N 3266.6 -0.65639 -1.4328 0
M  V30 34184 C 3267.53 0.0719976 -2.29087 0
M  V30 34185 C 3268.55 0.783957 -1.42681 0
M  V30 34186 O 3269.73 0.641184 -1.66587 0
M  V30 34187 C 3266.83 1.12513 -3.19678 0
M  V30 34188 C 3266.01 0.49068 -4.34639 0
M  V30 34189 C 3265.07 1.44112 -5.06081 0
M  V30 34190 O 3264.09 0.948496 -5.61242 0
M  V30 34191 N 3265.29 2.775 -5.09876 0
M  V30 34192 H 3268.06 -0.664507 -2.9224 0
M  V30 34193 H 3265.62 -0.49941 -1.54005 0
M  V30 34194 H 3267.61 1.76183 -3.64337 0
M  V30 34195 H 3266.18 1.76357 -2.58103 0
M  V30 34196 H 3265.4 -0.325169 -3.92857 0
M  V30 34197 H 3266.69 0.0479166 -5.08777 0
M  V30 34198 H 3266.09 3.2008 -4.66439 0
M  V30 34199 H 3264.65 3.36464 -5.58243 0
M  V30 34200 N 3268.08 1.52478 -0.398513 0
M  V30 34201 C 3269.33 2.01294 0.180359 0
M  V30 34202 C 3269.65 1.28644 1.46546 0
M  V30 34203 O 3268.92 0.409206 1.91578 0
M  V30 34204 H 3267.5 0.743747 0.0696397 0
M  V30 34205 H 3270.16 1.8749 -0.532318 0
M  V30 34206 H 3269.26 3.09728 0.384035 0
M  V30 34207 N 3269.56 0.128608 1.57074 0
M  V30 34208 C 3270.49 -0.81448 2.18834 0
M  V30 34209 C 3271.47 -1.27038 1.13116 0
M  V30 34210 O 3272.65 -1.33126 1.4139 0
M  V30 34211 C 3269.78 -2.06096 2.79539 0
M  V30 34212 C 3268.74 -1.7425 3.90923 0
M  V30 34213 C 3268.06 -3.06008 4.38479 0
M  V30 34214 C 3269.36 -1.00336 5.12572 0
M  V30 34215 H 3271.06 -0.29981 2.97895 0
M  V30 34216 H 3268.6 -0.142764 1.43291 0
M  V30 34217 H 3270.56 -2.72537 3.21406 0
M  V30 34218 H 3269.28 -2.59904 1.97782 0
M  V30 34219 H 3267.94 -1.10194 3.49647 0
M  V30 34220 H 3267.59 -3.57769 3.53568 0
M  V30 34221 H 3267.29 -2.8547 5.13596 0
M  V30 34222 H 3268.81 -3.73551 4.83003 0
M  V30 34223 H 3270.23 -1.56949 5.51398 0
M  V30 34224 H 3268.62 -0.898588 5.93334 0
M  V30 34225 H 3269.69 0.00821874 4.84899 0
M  V30 34226 N 3271.04 -1.5693 -0.145178 0
M  V30 34227 C 3271.98 -1.98403 -1.17919 0
M  V30 34228 C 3272.95 -0.85191 -1.42589 0
M  V30 34229 O 3274.14 -1.11412 -1.54894 0
M  V30 34230 C 3271.28 -2.37133 -2.50723 0
M  V30 34231 C 3270.39 -3.63643 -2.33212 0
M  V30 34232 C 3269.53 -3.91468 -3.59063 0
M  V30 34233 C 3268.56 -5.11243 -3.36596 0
M  V30 34234 N 3267.7 -5.35069 -4.54583 0
M  V30 34235 H 3272.54 -2.86538 -0.818523 0
M  V30 34236 H 3270.08 -1.41761 -0.392715 0
M  V30 34237 H 3272.04 -2.57617 -3.28161 0
M  V30 34238 H 3270.67 -1.52074 -2.84734 0
M  V30 34239 H 3269.72 -3.50925 -1.46819 0
M  V30 34240 H 3271.03 -4.51237 -2.12571 0
M  V30 34241 H 3270.18 -4.1246 -4.44928 0
M  V30 34242 H 3268.92 -3.02299 -3.82709 0
M  V30 34243 H 3267.93 -4.90122 -2.49119 0
M  V30 34244 H 3269.15 -6.01966 -3.14346 0
M  V30 34245 H 3267.1 -4.48855 -4.78399 0
M  V30 34246 H 3267.02 -6.16936 -4.36951 0
M  V30 34247 H 3268.28 -5.60561 -5.41657 0
M  V30 34248 N 3272.51 0.414582 -1.52049 0
M  V30 34249 C 3273.46 1.50477 -1.75001 0
M  V30 34250 C 3274.43 1.55181 -0.592278 0
M  V30 34251 O 3275.62 1.71838 -0.829234 0
M  V30 34252 C 3272.76 2.8798 -1.90162 0
M  V30 34253 C 3271.87 2.92627 -3.17794 0
M  V30 34254 C 3271 4.21395 -3.23419 0
M  V30 34255 C 3270.04 4.19996 -4.45275 0
M  V30 34256 N 3269.18 5.40326 -4.48321 0
M  V30 34257 H 3274.02 1.30208 -2.68048 0
M  V30 34258 H 3271.56 0.632131 -1.32825 0
M  V30 34259 H 3273.51 3.67794 -1.96935 0
M  V30 34260 H 3272.14 3.06756 -1.00501 0
M  V30 34261 H 3271.2 2.05338 -3.2022 0
M  V30 34262 H 3272.51 2.87458 -4.07639 0
M  V30 34263 H 3271.66 5.09598 -3.29233 0
M  V30 34264 H 3270.4 4.29252 -2.31503 0
M  V30 34265 H 3269.41 3.30184 -4.39612 0
M  V30 34266 H 3270.63 4.13784 -5.38479 0
M  V30 34267 H 3268.58 5.48862 -3.59286 0
M  V30 34268 H 3268.49 5.37129 -5.32004 0
M  V30 34269 H 3269.76 6.30498 -4.58359 0
M  V30 34270 N 3273.99 1.4258 0.671475 0
M  V30 34271 C 3275.24 1.43227 1.43152 0
M  V30 34272 C 3275.57 0.0499037 1.94436 0
M  V30 34273 O 3274.82 -0.942252 1.71523 0
M  V30 34274 C 3275.12 2.40637 2.64251 0
M  V30 34275 C 3274.79 3.86941 2.3149 0
M  V30 34276 C 3273.45 4.26792 2.22266 0
M  V30 34277 C 3275.8 4.79213 2.04949 0
M  V30 34278 C 3273.13 5.56891 1.84632 0
M  V30 34279 C 3275.48 6.09659 1.68817 0
M  V30 34280 C 3274.14 6.48505 1.58106 0
M  V30 34281 H 3273.41 0.524103 0.523829 0
M  V30 34282 H 3276.06 1.75542 0.765332 0
M  V30 34283 H 3274.37 2.0166 3.35917 0
M  V30 34284 H 3276.06 2.384 3.22438 0
M  V30 34285 H 3272.65 3.55392 2.39572 0
M  V30 34286 H 3276.84 4.49211 2.11006 0
M  V30 34287 H 3272.09 5.85847 1.74911 0
M  V30 34288 H 3276.27 6.80642 1.47307 0
M  V30 34289 H 3273.89 7.49224 1.28714 0
M  V30 34290 N 3275.47 -0.908102 1.28807 0
M  V30 34291 C 3276.7 -1.68898 1.18983 0
M  V30 34292 C 3277.11 -1.87497 -0.253301 0
M  V30 34293 O 3276.45 -1.40586 -1.18242 0
M  V30 34294 C 3276.51 -3.09867 1.82271 0
M  V30 34295 C 3276.18 -3.14532 3.3154 0
M  V30 34296 C 3277.17 -2.95306 4.27891 0
M  V30 34297 C 3274.86 -3.36866 3.72595 0
M  V30 34298 C 3276.85 -2.98333 5.63273 0
M  V30 34299 C 3274.54 -3.39525 5.08101 0
M  V30 34300 C 3275.54 -3.2028 6.03249 0
M  V30 34301 O 3275.23 -3.22711 7.36283 0
M  V30 34302 H 3274.96 -0.534566 0.413781 0
M  V30 34303 H 3277.51 -1.14461 1.70552 0
M  V30 34304 H 3275.74 -3.6587 1.25204 0
M  V30 34305 H 3277.43 -3.70005 1.66886 0
M  V30 34306 H 3278.2 -2.77872 3.97507 0
M  V30 34307 H 3274.08 -3.50889 2.98995 0
M  V30 34308 H 3277.62 -2.8323 6.37516 0
M  V30 34309 H 3273.52 -3.56488 5.38133 0
M  V30 34310 H 3274.28 -3.39035 7.44982 0
M  V30 34311 N 3276.95 -1.11147 -1.11732 0
M  V30 34312 C 3277.89 -0.767018 -2.17682 0
M  V30 34313 C 3278.86 0.26008 -1.64051 0
M  V30 34314 O 3280.05 0.13769 -1.90303 0
M  V30 34315 C 3277.19 -0.213043 -3.44442 0
M  V30 34316 C 3276.3 -1.29633 -4.12091 0
M  V30 34317 C 3275.44 -0.703219 -5.26525 0
M  V30 34318 C 3274.48 -1.76657 -5.86053 0
M  V30 34319 N 3273.61 -1.19318 -6.91887 0
M  V30 34320 H 3278.45 -1.67469 -2.46492 0
M  V30 34321 H 3275.99 -0.836374 -1.21009 0
M  V30 34322 H 3277.95 0.126088 -4.17009 0
M  V30 34323 H 3276.58 0.657833 -3.16026 0
M  V30 34324 H 3275.63 -1.75247 -3.37628 0
M  V30 34325 H 3276.94 -2.10097 -4.52395 0
M  V30 34326 H 3276.1 -0.313966 -6.05887 0
M  V30 34327 H 3274.84 0.13277 -4.87519 0
M  V30 34328 H 3273.84 -2.16517 -5.05372 0
M  V30 34329 H 3275.07 -2.60554 -6.27127 0
M  V30 34330 H 3273.01 -0.378779 -6.54906 0
M  V30 34331 H 3272.93 -1.93456 -7.30829 0
M  V30 34332 H 3274.2 -0.830714 -7.75061 0
M  V30 34333 N 3278.43 1.29282 -0.901326 0
M  V30 34334 C 3279.34 2.3142 -0.384941 0
M  V30 34335 C 3280.35 1.66013 0.521134 0
M  V30 34336 O 3281.53 1.97176 0.410321 0
M  V30 34337 C 3278.59 3.44636 0.377744 0
M  V30 34338 C 3277.65 4.25631 -0.560049 0
M  V30 34339 C 3276.89 5.33441 0.166332 0
M  V30 34340 O 3277.11 5.53204 1.39002 0
M  V30 34341 O 3276.04 5.99886 -0.491981 0
M  V30 34342 H 3279.87 2.77573 -1.23235 0
M  V30 34343 H 3277.45 1.33749 -0.665706 0
M  V30 34344 H 3279.34 4.13562 0.808969 0
M  V30 34345 H 3278.01 3.00588 1.20118 0
M  V30 34346 H 3276.92 3.59341 -1.04042 0
M  V30 34347 H 3278.25 4.73326 -1.34995 0
M  V30 34348 N 3279.9 0.663979 1.4293 0
M  V30 34349 C 3281.15 0.182043 2.01981 0
M  V30 34350 C 3281.48 -1.20461 1.52325 0
M  V30 34351 O 3280.76 -1.80648 0.720866 0
M  V30 34352 C 3281.04 0.204734 3.59518 0
M  V30 34353 C 3280.89 1.62607 4.19379 0
M  V30 34354 C 3282.21 -0.453003 4.37762 0
M  V30 34355 H 3279.33 0.0676244 0.733891 0
M  V30 34356 H 3281.97 0.84671 1.70091 0
M  V30 34357 H 3280.12 -0.361227 3.86817 0
M  V30 34358 H 3281.8 2.24344 4.03072 0
M  V30 34359 H 3280.04 2.17008 3.7562 0
M  V30 34360 H 3280.71 1.59371 5.28493 0
M  V30 34361 H 3283.19 0.0286505 4.1609 0
M  V30 34362 H 3282.06 -0.406442 5.47393 0
M  V30 34363 H 3282.32 -1.52888 4.14823 0
M  V30 34364 N 3281.38 -1.52265 0.406593 0
M  V30 34365 C 3282.8 -1.59497 0.0573509 0
M  V30 34366 C 3283 -1.4196 -1.43003 0
M  V30 34367 O 3282.05 -1.24527 -2.19657 0
M  V30 34368 C 3283.37 -2.95627 0.549999 0
M  V30 34369 C 3284.91 -3.08854 0.507754 0
M  V30 34370 C 3285.39 -4.47461 0.976871 0
M  V30 34371 N 3286.88 -4.53694 0.933587 0
M  V30 34372 C 3287.62 -5.59209 1.26779 0
M  V30 34373 N 3287.11 -6.72289 1.67332 0
M  V30 34374 N 3288.9 -5.49404 1.18792 0
M  V30 34375 H 3281.06 -1.61912 1.37471 0
M  V30 34376 H 3283.32 -0.76155 0.564575 0
M  V30 34377 H 3283.02 -3.13733 1.58948 0
M  V30 34378 H 3282.9 -3.77177 -0.0417104 0
M  V30 34379 H 3285.29 -2.90434 -0.522677 0
M  V30 34380 H 3285.37 -2.29217 1.13549 0
M  V30 34381 H 3285.01 -4.66623 2.00562 0
M  V30 34382 H 3284.94 -5.2559 0.325977 0
M  V30 34383 H 3287.43 -3.7252 0.635399 0
M  V30 34384 H 3287.74 -7.48787 1.9115 0
M  V30 34385 H 3286.09 -6.73576 1.71233 0
M  V30 34386 H 3289.28 -4.59944 0.869987 0
M  V30 34387 H 3289.45 -6.3153 1.45168 0
M  V30 34388 N 3282.86 -0.136936 -1.57004 0
M  V30 34389 C 3283.82 0.792381 -2.15067 0
M  V30 34390 C 3284.82 1.18225 -1.08994 0
M  V30 34391 O 3286.01 1.10481 -1.34683 0
M  V30 34392 C 3283.15 2.07392 -2.70557 0
M  V30 34393 H 3284.34 0.287467 -2.98519 0
M  V30 34394 H 3281.89 0.112442 -1.55895 0
M  V30 34395 H 3282.63 2.62273 -1.90744 0
M  V30 34396 H 3282.41 1.80368 -3.48152 0
M  V30 34397 H 3283.9 2.73786 -3.15326 0
M  V30 34398 N 3284.34 1.57005 0.136853 0
M  V30 34399 C 3285.57 1.87797 0.861153 0
M  V30 34400 C 3285.98 0.724302 1.74787 0
M  V30 34401 O 3285.32 -0.314678 1.80985 0
M  V30 34402 C 3285.38 3.1341 1.7611 0
M  V30 34403 C 3285.05 4.44762 1.05051 0
M  V30 34404 C 3286.04 5.18362 0.399645 0
M  V30 34405 C 3283.73 4.91479 1.037 0
M  V30 34406 C 3285.72 6.36889 -0.255239 0
M  V30 34407 C 3283.41 6.09928 0.378307 0
M  V30 34408 C 3284.41 6.82479 -0.266675 0
M  V30 34409 O 3284.09 7.98677 -0.914898 0
M  V30 34410 H 3283.83 0.62653 0.253844 0
M  V30 34411 H 3286.38 2.0498 0.131255 0
M  V30 34412 H 3284.61 2.92262 2.53219 0
M  V30 34413 H 3286.3 3.30366 2.35824 0
M  V30 34414 H 3287.07 4.83333 0.401824 0
M  V30 34415 H 3282.94 4.34925 1.52844 0
M  V30 34416 H 3286.49 6.93456 -0.759257 0
M  V30 34417 H 3282.39 6.44417 0.373829 0
M  V30 34418 H 3283.15 8.14406 -0.817581 0
M  V30 34419 N 3285.82 -0.406513 1.52267 0
M  V30 34420 C 3286.75 -1.50226 1.78758 0
M  V30 34421 C 3287.73 -1.57654 0.63868 0
M  V30 34422 O 3288.91 -1.72886 0.884535 0
M  V30 34423 C 3286.04 -2.88023 1.94062 0
M  V30 34424 C 3285 -2.95444 3.09672 0
M  V30 34425 C 3284.32 -4.3552 3.10204 0
M  V30 34426 C 3285.62 -2.66689 4.49081 0
M  V30 34427 H 3287.32 -1.28308 2.70513 0
M  V30 34428 H 3284.86 -0.615813 1.30168 0
M  V30 34429 H 3286.82 -3.64667 2.11177 0
M  V30 34430 H 3285.54 -3.1124 0.98981 0
M  V30 34431 H 3284.2 -2.21245 2.92312 0
M  V30 34432 H 3283.85 -4.55751 2.12839 0
M  V30 34433 H 3283.55 -4.41409 3.87855 0
M  V30 34434 H 3285.07 -5.14095 3.29452 0
M  V30 34435 H 3286.48 -3.33056 4.66633 0
M  V30 34436 H 3284.88 -2.83951 5.2867 0
M  V30 34437 H 3285.95 -1.62114 4.56998 0
M  V30 34438 N 3287.29 -1.42934 -0.663904 0
M  V30 34439 C 3288.54 -1.43699 -1.42109 0
M  V30 34440 C 3288.86 -0.0584201 -1.94912 0
M  V30 34441 O 3288.13 0.904689 -1.73759 0
M  V30 34442 H 3286.71 -0.529035 -0.527381 0
M  V30 34443 H 3289.38 -1.78448 -0.783735 0
M  V30 34444 H 3288.47 -2.14324 -2.26873 0
M  V30 34445 N 3288.77 0.901258 -1.29287 0
M  V30 34446 C 3290.02 1.64624 -1.1654 0
M  V30 34447 C 3290.33 1.93548 0.282589 0
M  V30 34448 O 3291.54 2.6625 0.531349 0
M  V30 34449 C 3290 2.96627 -2.03814 0
M  V30 34450 C 3289.6 2.75305 -3.53428 0
M  V30 34451 C 3291.35 3.74546 -1.99788 0
M  V30 34452 C 3289.26 4.03024 -4.32811 0
M  V30 34453 H 3288.19 0.617574 -0.432572 0
M  V30 34454 H 3290.84 0.999132 -1.53914 0
M  V30 34455 H 3289.22 3.62542 -1.59308 0
M  V30 34456 H 3290.39 2.17992 -4.05975 0
M  V30 34457 H 3288.71 2.10783 -3.59109 0
M  V30 34458 H 3291.3 4.69238 -2.56358 0
M  V30 34459 H 3291.65 4.04661 -0.977501 0
M  V30 34460 H 3292.18 3.1547 -2.4233 0
M  V30 34461 H 3288.92 3.78077 -5.3548 0
M  V30 34462 H 3288.44 4.59902 -3.85033 0
M  V30 34463 H 3290.12 4.71183 -4.43391 0
M  V30 34464 N 3290.25 1.11738 1.11141 0
M  V30 34465 C 3291.48 0.89104 1.87284 0
M  V30 34466 C 3291.9 -0.553939 1.79759 0
M  V30 34467 O 3291.26 -1.39147 1.16223 0
M  V30 34468 C 3291.31 1.3612 3.33922 0
M  V30 34469 O 3290.41 0.534923 4.08916 0
M  V30 34470 H 3289.75 0.320711 0.581412 0
M  V30 34471 H 3292.28 1.48763 1.40466 0
M  V30 34472 H 3292.29 1.35707 3.84769 0
M  V30 34473 H 3290.97 2.4134 3.38715 0
M  V30 34474 H 3289.54 0.605419 3.67953 0
M  V30 34475 N 3291.73 -1.28802 0.90817 0
M  V30 34476 C 3292.95 -1.99879 0.553466 0
M  V30 34477 C 3293.38 -1.67459 -0.856685 0
M  V30 34478 O 3292.74 -0.903877 -1.57162 0
M  V30 34479 C 3292.78 -3.52441 0.76275 0
M  V30 34480 O 3291.89 -4.12003 -0.180852 0
M  V30 34481 H 3291.23 -0.628144 0.215248 0
M  V30 34482 H 3293.76 -1.64093 1.22208 0
M  V30 34483 H 3293.77 -4.0245 0.670683 0
M  V30 34484 H 3292.44 -3.75372 1.79077 0
M  V30 34485 H 3291.02 -3.72878 -0.0405241 0
M  V30 34486 N 3293.21 -0.67155 -1.42576 0
M  V30 34487 C 3294.17 -0.000432769 -2.292 0
M  V30 34488 C 3295.17 0.732268 -1.43159 0
M  V30 34489 O 3296.36 0.57076 -1.64584 0
M  V30 34490 C 3293.49 1.01007 -3.25592 0
M  V30 34491 H 3294.68 -0.762834 -2.90036 0
M  V30 34492 H 3292.24 -0.433729 -1.50162 0
M  V30 34493 H 3292.97 1.80107 -2.69688 0
M  V30 34494 H 3292.76 0.488115 -3.8905 0
M  V30 34495 H 3294.25 1.47817 -3.90563 0
M  V30 34496 N 3294.68 1.52047 -0.414663 0
M  V30 34497 C 3295.92 2.03782 0.158771 0
M  V30 34498 C 3296.29 1.29327 1.4191 0
M  V30 34499 O 3297.49 1.71317 2.07133 0
M  V30 34500 C 3295.76 3.5521 0.395029 0
M  V30 34501 S 3297.32 4.2872 0.935118 0
M  V30 34502 H 3294.14 0.709731 0.0424604 0
M  V30 34503 H 3296.74 1.87041 -0.568855 0
M  V30 34504 H 3295.44 4.06977 -0.528947 0
M  V30 34505 H 3294.97 3.76205 1.15037 0
M  V30 34506 H 3296.99 4.44013 2.21511 0
M  V30 34507 N 3296.16 0.145261 1.56929 0
M  V30 34508 C 3297.44 -0.551255 1.87671 0
M  V30 34509 C 3297.82 -1.83081 1.05092 0
M  V30 34510 O 3297.17 -2.28087 0.137241 0
M  V30 34511 C 3297.38 -0.818386 3.39269 0
M  V30 34512 C 3298.73 -1.15993 4.08449 0
M  V30 34513 O 3299.75 -0.907796 3.44438 0
M  V30 34514 O 3298.61 -1.63432 5.21491 0
M  V30 34515 H 3295.7 -0.28101 0.777793 0
M  V30 34516 H 3298.25 0.181741 1.68724 0
M  V30 34517 H 3297.02 0.0872584 3.91203 0
M  V30 34518 H 3296.64 -1.60562 3.63738 0
M  V30 34519 N 3297.64 -1.57075 -0.128525 0
M  V30 34520 C 3298.89 -1.83984 -0.836323 0
M  V30 34521 C 3299.21 -0.729003 -1.80861 0
M  V30 34522 O 3298.48 0.247825 -1.94326 0
M  V30 34523 H 3297.06 -0.678797 -0.311838 0
M  V30 34524 H 3299.72 -1.94542 -0.118119 0
M  V30 34525 H 3298.82 -2.79569 -1.38736 0
M  V30 34526 N 3299.12 0.398432 -1.5248 0
M  V30 34527 C 3300.05 1.49276 -1.79552 0
M  V30 34528 C 3301.03 1.57313 -0.647032 0
M  V30 34529 O 3302.22 1.72415 -0.893691 0
M  V30 34530 C 3299.35 2.8699 -1.95587 0
M  V30 34531 C 3298.3 2.93797 -3.11235 0
M  V30 34532 C 3297.63 4.33869 -3.12509 0
M  V30 34533 C 3298.93 2.64304 -4.50489 0
M  V30 34534 H 3300.62 1.26872 -2.7119 0
M  V30 34535 H 3298.17 0.608901 -1.30493 0
M  V30 34536 H 3300.12 3.63542 -2.13108 0
M  V30 34537 H 3298.84 3.10711 -1.0063 0
M  V30 34538 H 3297.5 2.19691 -2.93481 0
M  V30 34539 H 3297.15 4.54615 -2.15253 0
M  V30 34540 H 3296.85 4.39346 -3.9019 0
M  V30 34541 H 3298.37 5.12341 -3.32173 0
M  V30 34542 H 3299.79 3.30576 -4.68393 0
M  V30 34543 H 3298.18 2.81144 -5.30168 0
M  V30 34544 H 3299.25 1.59688 -4.57851 0
M  V30 34545 N 3300.6 1.43284 0.656314 0
M  V30 34546 C 3301.56 1.47877 1.75115 0
M  V30 34547 C 3302.56 0.363874 1.56629 0
M  V30 34548 O 3303.75 0.625493 1.62583 0
M  V30 34549 C 3300.88 1.32836 3.13954 0
M  V30 34550 H 3302.08 2.45377 1.72424 0
M  V30 34551 H 3299.63 1.30004 0.867682 0
M  V30 34552 H 3300.36 0.363317 3.22258 0
M  V30 34553 H 3300.15 2.13654 3.28777 0
M  V30 34554 H 3301.64 1.38976 3.93796 0
M  V30 34555 N 3302.08 -0.894389 1.29763 0
M  V30 34556 C 3303.3 -1.68397 1.21067 0
M  V30 34557 C 3303.73 -1.86755 -0.224575 0
M  V30 34558 O 3303.08 -1.3917 -1.16196 0
M  V30 34559 C 3303.13 -3.04303 1.93474 0
M  V30 34560 O 3302.24 -3.92827 1.2554 0
M  V30 34561 H 3301.58 -0.514918 0.419232 0
M  V30 34562 H 3304.11 -1.11693 1.71423 0
M  V30 34563 H 3304.12 -3.5441 2.02133 0
M  V30 34564 H 3302.79 -2.9026 2.97862 0
M  V30 34565 H 3301.37 -3.51263 1.25174 0
M  V30 34566 N 3303.55 -1.12326 -1.10547 0
M  V30 34567 C 3304.52 -0.793193 -2.15037 0
M  V30 34568 C 3305.52 0.191891 -1.59651 0
M  V30 34569 O 3306.71 -0.0337569 -1.74167 0
M  V30 34570 C 3303.84 -0.17848 -3.40432 0
M  V30 34571 H 3305.03 -1.71896 -2.45747 0
M  V30 34572 H 3302.58 -0.926355 -1.2589 0
M  V30 34573 H 3303.32 0.757067 -3.15339 0
M  V30 34574 H 3303.1 -0.887712 -3.81919 0
M  V30 34575 H 3304.59 0.035999 -4.17584 0
M  V30 34576 N 3305.03 1.28319 -0.914988 0
M  V30 34577 C 3306.26 1.98756 -0.56387 0
M  V30 34578 C 3306.67 1.6855 0.859498 0
M  V30 34579 O 3306.01 0.935364 1.58103 0
M  V30 34580 C 3306.07 3.52726 -0.694601 0
M  V30 34581 C 3305.74 4.06525 -2.08774 0
M  V30 34582 C 3306.74 4.20266 -3.06059 0
M  V30 34583 C 3304.42 4.41186 -2.40126 0
M  V30 34584 C 3306.41 4.67924 -4.32812 0
M  V30 34585 C 3304.1 4.88537 -3.67117 0
M  V30 34586 C 3305.1 5.01863 -4.63273 0
M  V30 34587 O 3304.79 5.48181 -5.88007 0
M  V30 34588 H 3304.52 0.641377 -0.213568 0
M  V30 34589 H 3307.07 1.64451 -1.23065 0
M  V30 34590 H 3305.3 3.86689 0.0292506 0
M  V30 34591 H 3306.99 4.04385 -0.350406 0
M  V30 34592 H 3307.76 3.93761 -2.83157 0
M  V30 34593 H 3303.64 4.30063 -1.66032 0
M  V30 34594 H 3307.18 4.78241 -5.0787 0
M  V30 34595 H 3303.08 5.14483 -3.89844 0
M  V30 34596 H 3303.85 5.66464 -5.90814 0
M  V30 34597 N 3306.51 0.679102 1.42218 0
M  V30 34598 C 3307.93 0.349061 1.55736 0
M  V30 34599 C 3308.13 -1.14524 1.65791 0
M  V30 34600 O 3307.18 -1.93076 1.62721 0
M  V30 34601 C 3308.49 1.08315 2.80514 0
M  V30 34602 C 3310.04 1.06589 2.94292 0
M  V30 34603 C 3310.52 1.78139 4.21936 0
M  V30 34604 N 3312.01 1.75028 4.28858 0
M  V30 34605 C 3312.74 2.27243 5.26449 0
M  V30 34606 N 3312.24 2.87858 6.30166 0
M  V30 34607 N 3314.03 2.17593 5.18276 0
M  V30 34608 H 3306.18 1.64848 1.33936 0
M  V30 34609 H 3308.45 0.694736 0.645016 0
M  V30 34610 H 3308.15 2.1382 2.79238 0
M  V30 34611 H 3308.03 0.651134 3.71537 0
M  V30 34612 H 3310.41 0.019158 2.95094 0
M  V30 34613 H 3310.49 1.53683 2.04488 0
M  V30 34614 H 3310.14 2.82783 4.21896 0
M  V30 34615 H 3310.07 1.28492 5.10683 0
M  V30 34616 H 3312.56 1.3082 3.54534 0
M  V30 34617 H 3312.87 3.2531 7.00994 0
M  V30 34618 H 3311.22 2.91929 6.30716 0
M  V30 34619 H 3314.41 1.69923 4.36169 0
M  V30 34620 H 3314.58 2.58591 5.94167 0
M  V30 34621 N 3307.99 -1.51825 0.42272 0
M  V30 34622 C 3308.95 -2.25956 -0.384268 0
M  V30 34623 C 3309.95 -1.28837 -0.962161 0
M  V30 34624 O 3311.14 -1.5267 -0.838905 0
M  V30 34625 C 3308.27 -3.0402 -1.54222 0
M  V30 34626 H 3309.47 -2.98725 0.26521 0
M  V30 34627 H 3307.02 -1.55311 0.175542 0
M  V30 34628 H 3307.75 -2.35633 -2.22817 0
M  V30 34629 H 3307.54 -3.75338 -1.13418 0
M  V30 34630 H 3309.03 -3.60213 -2.11273 0
M  V30 34631 N 3309.47 -0.153581 -1.5685 0
M  V30 34632 C 3310.41 0.800628 -2.18387 0
M  V30 34633 C 3311.41 1.25051 -1.14275 0
M  V30 34634 O 3312.61 1.21822 -1.32511 0
M  V30 34635 H 3308.99 0.276413 -0.699357 0
M  V30 34636 H 3310.96 0.257483 -2.97287 0
M  V30 34637 C 3309.71 2.02703 -2.82501 0
M  V30 34638 H 3309.03 1.68986 -3.62331 0
M  V30 34639 H 3310.47 2.67397 -3.29051 0
M  V30 34640 C 3308.93 2.83927 -1.81348 0
M  V30 34641 O 3309.46 3.80491 -1.288 0
M  V30 34642 N 3307.67 2.4859 -1.50503 0
M  V30 34643 H 3307.21 1.70128 -1.93428 0
M  V30 34644 H 3307.17 3.03226 -0.830726 0
M  V30 34645 N 3310.94 1.57141 0.120193 0
M  V30 34646 C 3312.17 1.89346 0.846337 0
M  V30 34647 C 3312.59 0.745395 1.72701 0
M  V30 34648 O 3311.95 -0.304123 1.78731 0
M  V30 34649 C 3312 3.20292 1.65666 0
M  V30 34650 O 3311.1 3.06114 2.76348 0
M  V30 34651 H 3310.44 0.621356 0.234121 0
M  V30 34652 H 3312.97 2.04341 0.10295 0
M  V30 34653 H 3312.98 3.52983 2.04615 0
M  V30 34654 H 3311.66 4.03446 1.01016 0
M  V30 34655 H 3310.24 2.84888 2.4061 0
M  V30 34656 N 3312.42 -0.39034 1.5269 0
M  V30 34657 C 3313.67 -1.1355 1.67668 0
M  V30 34658 C 3314 -1.90001 0.415937 0
M  V30 34659 O 3313.25 -1.86223 -0.601632 0
M  V30 34660 C 3313.55 -2.14091 2.86181 0
M  V30 34661 C 3313.22 -1.54309 4.23674 0
M  V30 34662 C 3311.88 -1.37731 4.61068 0
M  V30 34663 C 3314.23 -1.10831 5.0928 0
M  V30 34664 C 3311.56 -0.762208 5.81728 0
M  V30 34665 C 3313.91 -0.507322 6.30562 0
M  V30 34666 C 3312.58 -0.328828 6.6669 0
M  V30 34667 H 3311.85 -0.41551 0.613541 0
M  V30 34668 H 3314.49 -0.420306 1.86831 0
M  V30 34669 H 3312.8 -2.91825 2.61429 0
M  V30 34670 H 3314.49 -2.71655 2.94965 0
M  V30 34671 H 3311.08 -1.682 3.94217 0
M  V30 34672 H 3315.27 -1.22442 4.80959 0
M  V30 34673 H 3310.52 -0.612101 6.08328 0
M  V30 34674 H 3314.7 -0.162125 6.96211 0
M  V30 34675 H 3312.33 0.149882 7.60052 0
M  V30 34676 N 3313.9 -1.4363 -0.648706 0
M  V30 34677 C 3315.18 -1.35963 -1.40618 0
M  V30 34678 C 3315.56 -0.00964733 -2.11098 0
M  V30 34679 O 3314.91 1.00711 -2.05109 0
M  V30 34680 C 3315.12 -2.54591 -2.38715 0
M  V30 34681 C 3316.46 -2.97878 -3.02579 0
M  V30 34682 O 3317.49 -2.5467 -2.49042 0
M  V30 34683 O 3316.35 -3.72743 -3.99656 0
M  V30 34684 H 3313.44 -0.537541 -0.628473 0
M  V30 34685 H 3315.99 -1.55688 -0.675236 0
M  V30 34686 H 3314.76 -3.44475 -1.85613 0
M  V30 34687 H 3314.38 -2.36989 -3.19252 0
M  V30 34688 N 3315.38 0.887495 -1.30236 0
M  V30 34689 C 3316.62 1.64151 -1.19089 0
M  V30 34690 C 3316.96 1.92527 0.254394 0
M  V30 34691 O 3316.23 1.5444 1.1823 0
M  V30 34692 C 3316.52 2.98292 -2.01728 0
M  V30 34693 C 3316.37 2.76905 -3.54463 0
M  V30 34694 C 3317.69 3.99183 -1.85314 0
M  V30 34695 H 3314.81 0.595678 -0.433977 0
M  V30 34696 H 3317.45 1.02717 -1.59841 0
M  V30 34697 H 3315.6 3.50727 -1.67102 0
M  V30 34698 H 3317.27 2.31277 -3.99135 0
M  V30 34699 H 3315.51 2.11457 -3.78772 0
M  V30 34700 H 3316.18 3.72276 -4.07571 0
M  V30 34701 H 3318.66 3.55899 -2.15581 0
M  V30 34702 H 3317.54 4.90956 -2.45465 0
M  V30 34703 H 3317.8 4.34586 -0.811604 0
M  V30 34704 N 3316.86 1.12911 1.0995 0
M  V30 34705 C 3318.27 0.901115 1.63514 0
M  V30 34706 C 3318.62 -0.563514 1.87933 0
M  V30 34707 O 3317.74 -1.42905 1.62503 0
M  V30 34708 C 3318.34 1.62929 2.97051 0
M  V30 34709 C 3316.9 1.44732 3.47462 0
M  V30 34710 C 3316.04 1.66198 2.21976 0
M  V30 34711 H 3319 1.28317 0.933836 0
M  V30 34712 H 3319.02 1.08324 3.64755 0
M  V30 34713 H 3318.53 2.69524 2.79246 0
M  V30 34714 H 3316.63 0.404155 3.70402 0
M  V30 34715 H 3316.74 2.20678 4.2525 0
M  V30 34716 H 3315.11 1.08644 2.30366 0
M  V30 34717 H 3315.89 2.74101 2.06697 0
M  V30 34718 N 3318.33 -1.27832 0.92178 0
M  V30 34719 C 3319.56 -1.98743 0.575237 0
M  V30 34720 C 3319.98 -1.68816 -0.845375 0
M  V30 34721 O 3319.33 -0.945388 -1.56105 0
M  V30 34722 C 3319.39 -3.52886 0.784451 0
M  V30 34723 O 3319.11 -3.81762 2.14917 0
M  V30 34724 C 3320.61 -4.41053 0.445821 0
M  V30 34725 H 3317.83 -0.634415 0.218536 0
M  V30 34726 H 3320.37 -1.62831 1.23718 0
M  V30 34727 H 3318.53 -3.87029 0.169391 0
M  V30 34728 H 3318.94 -4.76372 2.19477 0
M  V30 34729 H 3320.41 -5.48243 0.642937 0
M  V30 34730 H 3320.89 -4.34825 -0.618357 0
M  V30 34731 H 3321.5 -4.12419 1.03877 0
M  V30 34732 N 3319.81 -0.686634 -1.41856 0
M  V30 34733 C 3321.06 -0.213836 -2.01368 0
M  V30 34734 C 3321.39 1.18359 -1.54342 0
M  V30 34735 O 3320.64 1.81109 -0.741479 0
M  V30 34736 C 3320.94 -0.210014 -3.56782 0
M  V30 34737 C 3320.61 -1.55373 -4.23285 0
M  V30 34738 C 3319.27 -1.92162 -4.41166 0
M  V30 34739 C 3321.62 -2.43815 -4.60656 0
M  V30 34740 C 3318.95 -3.16995 -4.93691 0
M  V30 34741 C 3321.3 -3.67972 -5.14567 0
M  V30 34742 C 3319.97 -4.04915 -5.3066 0
M  V30 34743 H 3319.24 -0.0782482 -0.736857 0
M  V30 34744 H 3321.88 -0.883959 -1.69878 0
M  V30 34745 H 3320.19 0.543644 -3.8801 0
M  V30 34746 H 3321.88 0.173197 -4.00626 0
M  V30 34747 H 3318.47 -1.25757 -4.09735 0
M  V30 34748 H 3322.66 -2.16675 -4.46504 0
M  V30 34749 H 3317.91 -3.45624 -5.04335 0
M  V30 34750 H 3322.09 -4.36697 -5.42466 0
M  V30 34751 H 3319.72 -5.01719 -5.71124 0
M  V30 34752 N 3321.29 1.51599 -0.430766 0
M  V30 34753 C 3322.53 2.03939 0.137148 0
M  V30 34754 C 3322.89 1.30825 1.4053 0
M  V30 34755 O 3324.1 1.73504 2.05304 0
M  V30 34756 C 3322.37 3.55609 0.357332 0
M  V30 34757 S 3323.93 4.29688 0.889593 0
M  V30 34758 H 3320.74 0.710141 0.0349304 0
M  V30 34759 H 3323.35 1.86427 -0.588661 0
M  V30 34760 H 3322.05 4.06393 -0.572082 0
M  V30 34761 H 3321.58 3.77404 1.11041 0
M  V30 34762 H 3323.6 4.46337 2.16789 0
M  V30 34763 N 3322.77 0.161897 1.56766 0
M  V30 34764 C 3323.73 -0.758066 2.16301 0
M  V30 34765 C 3324.73 -1.16476 1.10861 0
M  V30 34766 O 3325.92 -1.08325 1.36424 0
M  V30 34767 C 3323.05 -2.03062 2.73822 0
M  V30 34768 H 3324.25 -0.239939 2.98939 0
M  V30 34769 H 3321.8 -0.0876258 1.56054 0
M  V30 34770 H 3322.53 -2.59206 1.94892 0
M  V30 34771 H 3322.32 -1.74807 3.50977 0
M  V30 34772 H 3323.81 -2.68735 3.19642 0
M  V30 34773 N 3324.25 -1.57203 -0.111858 0
M  V30 34774 C 3325.19 -2.01851 -1.15582 0
M  V30 34775 C 3326.19 -0.916646 -1.42457 0
M  V30 34776 O 3327.39 -1.10185 -1.42335 0
M  V30 34777 H 3323.77 -0.643042 -0.389873 0
M  V30 34778 H 3325.74 -2.88748 -0.752803 0
M  V30 34779 C 3324.49 -2.44471 -2.47243 0
M  V30 34780 H 3323.81 -3.28828 -2.27403 0
M  V30 34781 H 3325.25 -2.79503 -3.18833 0
M  V30 34782 C 3323.71 -1.31121 -3.10337 0
M  V30 34783 O 3324.24 -0.631099 -3.96712 0
M  V30 34784 N 3322.45 -1.06644 -2.70324 0
M  V30 34785 H 3321.99 -1.62129 -2.00179 0
M  V30 34786 H 3321.95 -0.309999 -3.12868 0
M  V30 34787 N 3325.72 0.382237 -1.52894 0
M  V30 34788 C 3327.14 0.722777 -1.42296 0
M  V30 34789 C 3327.34 1.93884 -0.548751 0
M  V30 34790 O 3326.4 2.52488 -0.0247875 0
M  V30 34791 C 3327.71 0.95155 -2.85247 0
M  V30 34792 C 3329.26 1.0526 -2.9477 0
M  V30 34793 C 3329.73 1.31396 -4.38747 0
M  V30 34794 N 3331.22 1.38203 -4.42102 0
M  V30 34795 C 3331.96 1.60103 -5.50595 0
M  V30 34796 N 3331.45 1.7943 -6.69161 0
M  V30 34797 N 3333.25 1.62338 -5.38148 0
M  V30 34798 H 3325.4 -0.417853 -2.08249 0
M  V30 34799 H 3327.66 -0.124792 -0.93975 0
M  V30 34800 H 3327.37 0.130027 -3.5146 0
M  V30 34801 H 3327.24 1.86434 -3.27906 0
M  V30 34802 H 3329.63 1.86468 -2.28722 0
M  V30 34803 H 3329.71 0.117574 -2.5553 0
M  V30 34804 H 3329.35 0.50695 -5.05364 0
M  V30 34805 H 3329.28 2.26194 -4.75546 0
M  V30 34806 H 3331.77 1.24948 -3.56646 0
M  V30 34807 H 3332.09 1.95668 -7.47619 0
M  V30 34808 H 3330.43 1.76641 -6.72178 0
M  V30 34809 H 3333.62 1.46795 -4.44487 0
M  V30 34810 H 3333.8 1.79066 -6.22768 0
M  V30 34811 N 3327.2 1.43972 0.64108 0
M  V30 34812 C 3328.43 1.49913 1.43321 0
M  V30 34813 C 3328.85 0.121941 1.87704 0
M  V30 34814 O 3328.21 -0.886848 1.58129 0
M  V30 34815 C 3328.26 2.46029 2.63632 0
M  V30 34816 O 3327.36 1.95494 3.6312 0
M  V30 34817 H 3326.7 0.506603 0.429243 0
M  V30 34818 H 3329.23 1.89008 0.783394 0
M  V30 34819 H 3329.24 2.63736 3.11299 0
M  V30 34820 H 3327.92 3.46068 2.30672 0
M  V30 34821 H 3326.5 1.87506 3.22329 0
M  V30 34822 N 3328.68 -0.880575 1.30704 0
M  V30 34823 C 3329.64 -1.9683 1.17433 0
M  V30 34824 C 3330.64 -1.60461 0.104334 0
M  V30 34825 O 3331.83 -1.7059 0.352788 0
M  V30 34826 C 3328.97 -3.31376 0.800158 0
M  V30 34827 H 3330.16 -2.1003 2.14073 0
M  V30 34828 H 3327.71 -1.06753 1.14164 0
M  V30 34829 H 3328.45 -3.23877 -0.165549 0
M  V30 34830 H 3328.23 -3.59144 1.57348 0
M  V30 34831 H 3329.72 -4.11154 0.730898 0
M  V30 34832 N 3330.16 -1.13492 -1.09349 0
M  V30 34833 C 3331.09 -0.756683 -2.15289 0
M  V30 34834 C 3332.07 0.257469 -1.60549 0
M  V30 34835 O 3333.25 0.148787 -1.87912 0
M  V30 34836 C 3330.38 -0.121858 -3.38481 0
M  V30 34837 C 3329.43 -1.10463 -4.11947 0
M  V30 34838 S 3330.26 -2.63746 -4.66045 0
M  V30 34839 C 3331.42 -2.01626 -5.92535 0
M  V30 34840 H 3331.65 -1.65403 -2.47041 0
M  V30 34841 H 3329.18 -0.95515 -1.21311 0
M  V30 34842 H 3331.14 0.238014 -4.09809 0
M  V30 34843 H 3329.8 0.752767 -3.04946 0
M  V30 34844 H 3328.99 -0.608283 -5.00316 0
M  V30 34845 H 3328.6 -1.40801 -3.46484 0
M  V30 34846 H 3330.89 -1.36581 -6.6359 0
M  V30 34847 H 3331.83 -2.88079 -6.46851 0
M  V30 34848 H 3332.24 -1.4675 -5.45091 0
M  V30 34849 N 3331.64 1.27341 -0.928546 0
M  V30 34850 C 3332.88 1.96095 -0.57673 0
M  V30 34851 C 3333.24 1.71358 0.866044 0
M  V30 34852 O 3334.44 2.33808 1.32617 0
M  V30 34853 C 3332.71 3.46019 -0.894753 0
M  V30 34854 S 3334.27 4.33935 -0.651579 0
M  V30 34855 H 3331.09 0.678389 -0.212859 0
M  V30 34856 H 3333.69 1.54558 -1.19716 0
M  V30 34857 H 3332.4 3.6152 -1.94246 0
M  V30 34858 H 3331.93 3.92516 -0.263547 0
M  V30 34859 H 3333.94 4.93772 0.490227 0
M  V30 34860 N 3333.12 0.694147 1.4149 0
M  V30 34861 C 3334.06 0.0165113 2.32594 0
M  V30 34862 C 3335.06 -0.77006 1.50886 0
M  V30 34863 O 3336.26 -0.675842 1.6683 0
M  V30 34864 H 3332.64 -0.0134611 0.75188 0
M  V30 34865 H 3334.61 0.80196 2.87422 0
M  V30 34866 C 3333.36 -0.906971 3.35663 0
M  V30 34867 H 3332.68 -0.311135 3.98587 0
M  V30 34868 H 3334.12 -1.34945 4.01952 0
M  V30 34869 C 3332.58 -2.02248 2.69439 0
M  V30 34870 O 3333.11 -3.11111 2.54112 0
M  V30 34871 N 3331.32 -1.7998 2.28157 0
M  V30 34872 H 3330.86 -0.914449 2.40823 0
M  V30 34873 H 3330.82 -2.54802 1.84183 0
M  V30 34874 N 3334.59 -1.51368 0.438799 0
M  V30 34875 C 3335.84 -2.03048 -0.119622 0
M  V30 34876 C 3336.19 -1.31703 -1.40258 0
M  V30 34877 O 3335.49 -0.423644 -1.86858 0
M  V30 34878 C 3335.68 -3.55246 -0.391797 0
M  V30 34879 C 3335.51 -4.41337 0.863227 0
M  V30 34880 C 3334.28 -4.856 1.39718 0
M  V30 34881 C 3336.48 -4.83619 1.74977 0
M  V30 34882 N 3334.46 -5.55909 2.60459 0
M  V30 34883 C 3335.83 -5.53009 2.80322 0
M  V30 34884 C 3337.89 -4.65604 1.76401 0
M  V30 34885 C 3336.59 -6.06295 3.87039 0
M  V30 34886 C 3338.62 -5.19807 2.82055 0
M  V30 34887 C 3337.98 -5.89144 3.86119 0
M  V30 34888 H 3334.08 -0.781987 -0.0045708 0
M  V30 34889 H 3336.66 -1.85231 0.599796 0
M  V30 34890 H 3334.83 -3.73075 -1.08025 0
M  V30 34891 H 3336.56 -3.93591 -0.941706 0
M  V30 34892 H 3333.32 -4.63956 0.950898 0
M  V30 34893 H 3333.74 -5.95689 3.21689 0
M  V30 34894 H 3338.38 -4.11457 0.972758 0
M  V30 34895 H 3336.1 -6.59496 4.67002 0
M  V30 34896 H 3339.69 -5.07719 2.841 0
M  V30 34897 H 3338.57 -6.30333 4.66529 0
M  V30 34898 N 3336.07 -0.170208 -1.56678 0
M  V30 34899 C 3337.31 0.477499 -1.98744 0
M  V30 34900 C 3337.68 1.60495 -1.05382 0
M  V30 34901 O 3338.88 2.31513 -1.36584 0
M  V30 34902 C 3337.15 0.949125 -3.44567 0
M  V30 34903 S 3338.71 1.59817 -4.08661 0
M  V30 34904 H 3335.52 0.153627 -0.694204 0
M  V30 34905 H 3338.13 -0.267407 -1.93663 0
M  V30 34906 H 3336.83 0.118133 -4.1023 0
M  V30 34907 H 3336.36 1.7281 -3.53412 0
M  V30 34908 H 3338.38 2.88628 -4.03619 0
M  V30 34909 N 3337.55 1.5726 0.10352 0
M  V30 34910 C 3338.48 2.04496 1.1271 0
M  V30 34911 C 3339.46 0.93228 1.42276 0
M  V30 34912 O 3340.65 1.20301 1.52451 0
M  V30 34913 C 3337.78 2.46232 2.44923 0
M  V30 34914 C 3336.73 3.61086 2.29784 0
M  V30 34915 C 3336.06 3.88771 3.67098 0
M  V30 34916 C 3337.36 4.92273 1.74541 0
M  V30 34917 H 3339.05 2.9026 0.734147 0
M  V30 34918 H 3336.6 1.39639 0.351701 0
M  V30 34919 H 3338.55 2.77885 3.16793 0
M  V30 34920 H 3337.27 1.57458 2.86137 0
M  V30 34921 H 3335.93 3.29667 1.6036 0
M  V30 34922 H 3335.58 2.97178 4.05825 0
M  V30 34923 H 3335.28 4.66091 3.57817 0
M  V30 34924 H 3336.8 4.22891 4.40449 0
M  V30 34925 H 3338.22 5.22362 2.36244 0
M  V30 34926 H 3336.61 5.73698 1.76041 0
M  V30 34927 H 3337.68 4.7976 0.704158 0
M  V30 34928 N 3339.03 -0.374123 1.53095 0
M  V30 34929 C 3340.28 -1.11492 1.68084 0
M  V30 34930 C 3340.59 -1.90708 0.434718 0
M  V30 34931 O 3341.8 -2.67488 0.465003 0
M  V30 34932 C 3340.25 -2.03119 2.97104 0
M  V30 34933 C 3339.86 -1.29255 4.28949 0
M  V30 34934 C 3341.6 -2.77243 3.2146 0
M  V30 34935 C 3339.51 -2.19734 5.49064 0
M  V30 34936 H 3338.44 -0.41992 0.626246 0
M  V30 34937 H 3341.09 -0.376556 1.79595 0
M  V30 34938 H 3339.47 -2.80651 2.79376 0
M  V30 34939 H 3340.65 -0.568448 4.5728 0
M  V30 34940 H 3338.96 -0.67029 4.1097 0
M  V30 34941 H 3341.56 -3.45148 4.08383 0
M  V30 34942 H 3341.9 -3.42142 2.37159 0
M  V30 34943 H 3342.44 -2.06797 3.39824 0
M  V30 34944 H 3339.17 -1.59426 6.35817 0
M  V30 34945 H 3338.69 -2.90018 5.25024 0
M  V30 34946 H 3340.37 -2.79485 5.83521 0
M  V30 34947 N 3340.51 -1.4431 -0.633436 0
M  V30 34948 C 3341.73 -1.50671 -1.42524 0
M  V30 34949 C 3342.16 -0.131894 -1.87637 0
M  V30 34950 O 3341.51 0.878449 -1.58597 0
M  V30 34951 C 3341.56 -2.47424 -2.62324 0
M  V30 34952 O 3340.67 -1.97417 -3.62078 0
M  V30 34953 H 3340.01 -0.508872 -0.426551 0
M  V30 34954 H 3342.54 -1.89421 -0.773359 0
M  V30 34955 H 3342.55 -2.65384 -3.09896 0
M  V30 34956 H 3341.22 -3.47287 -2.28834 0
M  V30 34957 H 3339.8 -1.89213 -3.2133 0
M  V30 34958 N 3341.98 0.873632 -1.3117 0
M  V30 34959 C 3342.92 1.98649 -1.14329 0
M  V30 34960 C 3343.93 1.62586 -0.0833707 0
M  V30 34961 O 3345.12 1.75414 -0.330508 0
M  V30 34962 C 3342.22 3.3108 -0.723806 0
M  V30 34963 C 3341.39 3.95508 -1.86794 0
M  V30 34964 C 3340.45 5.06252 -1.43512 0
M  V30 34965 O 3339.48 5.2727 -2.14418 0
M  V30 34966 N 3340.68 5.79615 -0.320464 0
M  V30 34967 H 3343.44 2.13643 -2.10182 0
M  V30 34968 H 3341 1.04739 -1.23456 0
M  V30 34969 H 3343 4.02545 -0.417042 0
M  V30 34970 H 3341.57 3.12273 0.143018 0
M  V30 34971 H 3340.79 3.17071 -2.34222 0
M  V30 34972 H 3342.07 4.35291 -2.63437 0
M  V30 34973 H 3341.47 5.65055 0.270116 0
M  V30 34974 H 3340.03 6.51759 -0.0732146 0
M  V30 34975 N 3343.46 1.1407 1.08746 0
M  V30 34976 C 3344.74 0.817691 1.77688 0
M  V30 34977 C 3345.12 -0.689466 1.99523 0
M  V30 34978 O 3344.47 -1.62911 1.60225 0
M  V30 34979 C 3344.68 1.6125 3.09515 0
M  V30 34980 C 3346.03 1.80965 3.84105 0
M  V30 34981 O 3347.05 1.57907 3.19286 0
M  V30 34982 O 3345.91 2.19487 5.00487 0
M  V30 34983 H 3343 0.299279 0.770948 0
M  V30 34984 H 3345.55 1.24571 1.1524 0
M  V30 34985 H 3344.32 2.63643 2.8915 0
M  V30 34986 H 3343.94 1.17988 3.7969 0
M  V30 34987 N 3344.94 -1.26847 0.935286 0
M  V30 34988 C 3346.17 -1.9866 0.595739 0
M  V30 34989 C 3346.59 -1.69239 -0.820971 0
M  V30 34990 O 3345.95 -0.93701 -1.55209 0
M  V30 34991 C 3346 -3.50744 0.837337 0
M  V30 34992 O 3345.1 -4.12294 -0.0934189 0
M  V30 34993 H 3344.44 -0.623437 0.228523 0
M  V30 34994 H 3346.97 -1.61463 1.25661 0
M  V30 34995 H 3346.98 -4.00937 0.755897 0
M  V30 34996 H 3345.66 -3.71489 1.86999 0
M  V30 34997 H 3344.23 -3.7288 0.0385779 0
M  V30 34998 N 3346.42 -0.701641 -1.4112 0
M  V30 34999 C 3347.67 -0.232249 -2.00358 0
M  V30 35000 C 3347.98 1.17688 -1.56234 0
M  V30 35001 O 3349.19 1.74406 -2.08074 0
M  V30 35002 C 3347.64 -0.36432 -3.58051 0
M  V30 35003 C 3347.25 -1.7792 -4.11155 0
M  V30 35004 C 3348.99 0.0449881 -4.24476 0
M  V30 35005 C 3346.9 -1.8626 -5.61303 0
M  V30 35006 H 3345.83 -0.083074 -0.74941 0
M  V30 35007 H 3348.48 -0.870717 -1.61526 0
M  V30 35008 H 3346.86 0.3425 -3.94516 0
M  V30 35009 H 3348.04 -2.51527 -3.86097 0
M  V30 35010 H 3346.35 -2.13873 -3.57278 0
M  V30 35011 H 3348.95 0.0031981 -5.347 0
M  V30 35012 H 3349.29 1.08469 -4.0192 0
M  V30 35013 H 3349.83 -0.611773 -3.93068 0
M  V30 35014 H 3346.57 -2.88304 -5.88694 0
M  V30 35015 H 3346.09 -1.17046 -5.88269 0
M  V30 35016 H 3347.76 -1.62828 -6.26176 0
M  V30 35017 N 3347.9 1.51133 -0.446821 0
M  V30 35018 C 3349.12 2.06581 0.114857 0
M  V30 35019 C 3349.54 1.31329 1.35639 0
M  V30 35020 O 3348.9 0.375538 1.78594 0
M  V30 35021 C 3348.95 3.58963 0.427526 0
M  V30 35022 O 3348.67 4.31374 -0.764744 0
M  V30 35023 C 3350.17 4.30956 1.03884 0
M  V30 35024 H 3347.39 0.67099 0.00371852 0
M  V30 35025 H 3349.93 1.94598 -0.62863 0
M  V30 35026 H 3348.09 3.70829 1.12092 0
M  V30 35027 H 3348.5 5.22162 -0.494697 0
M  V30 35028 H 3349.98 5.3863 1.20755 0
M  V30 35029 H 3350.45 3.89864 2.02245 0
M  V30 35030 H 3351.06 4.23558 0.384548 0
M  V30 35031 N 3349.37 0.178515 1.56586 0
M  V30 35032 C 3350.32 -0.761394 2.14911 0
M  V30 35033 C 3351.31 -1.18786 1.0853 0
M  V30 35034 O 3352.5 -1.14902 1.34635 0
M  V30 35035 C 3349.63 -1.98766 2.79905 0
M  V30 35036 C 3348.72 -1.58286 3.93454 0
M  V30 35037 N 3349.11 -0.888037 4.97943 0
M  V30 35038 C 3347.4 -1.87336 4.04748 0
M  V30 35039 C 3348.11 -0.687618 5.77622 0
M  V30 35040 N 3347.08 -1.23127 5.29472 0
M  V30 35041 H 3350.88 -0.221641 2.93063 0
M  V30 35042 H 3348.4 -0.0218997 1.62385 0
M  V30 35043 H 3350.39 -2.67132 3.20072 0
M  V30 35044 H 3349.05 -2.53229 2.03236 0
M  V30 35045 H 3350.07 -0.545297 5.15021 0
M  V30 35046 H 3346.74 -2.43426 3.3919 0
M  V30 35047 H 3348.13 -0.137632 6.71759 0
M  V30 35048 N 3350.85 -1.57312 -0.0951784 0
M  V30 35049 C 3352.08 -1.90014 -0.811059 0
M  V30 35050 C 3352.49 -0.770389 -1.72805 0
M  V30 35051 O 3351.83 0.266583 -1.81755 0
M  V30 35052 C 3351.9 -3.17969 -1.67738 0
M  V30 35053 C 3351.56 -4.47391 -0.932222 0
M  V30 35054 C 3352.56 -5.19239 -0.26207 0
M  V30 35055 C 3350.24 -4.94056 -0.906327 0
M  V30 35056 C 3352.24 -6.35988 0.424009 0
M  V30 35057 C 3349.92 -6.10717 -0.216462 0
M  V30 35058 C 3350.92 -6.81532 0.447528 0
M  V30 35059 O 3350.61 -7.9597 1.12633 0
M  V30 35060 H 3350.34 -0.63304 -0.237143 0
M  V30 35061 H 3352.89 -2.05256 -0.0768615 0
M  V30 35062 H 3351.12 -2.98873 -2.45381 0
M  V30 35063 H 3352.81 -3.36502 -2.26982 0
M  V30 35064 H 3353.58 -4.84228 -0.273536 0
M  V30 35065 H 3349.46 -4.38824 -1.41259 0
M  V30 35066 H 3353 -6.91199 0.942848 0
M  V30 35067 H 3348.9 -6.45181 -0.202842 0
M  V30 35068 H 3349.67 -8.11952 1.03322 0
M  V30 35069 N 3352.33 0.365999 -1.53291 0
M  V30 35070 C 3353.74 0.94282 -1.61145 0
M  V30 35071 C 3354.09 1.90273 -0.478605 0
M  V30 35072 O 3353.22 2.12764 0.395032 0
M  V30 35073 C 3353.81 1.71676 -2.92084 0
M  V30 35074 C 3352.37 2.24293 -3.02274 0
M  V30 35075 C 3351.52 1.05522 -2.56438 0
M  V30 35076 H 3354.47 0.144807 -1.58038 0
M  V30 35077 H 3354.49 2.57793 -2.79863 0
M  V30 35078 H 3354 1.01787 -3.74514 0
M  V30 35079 H 3352.1 2.97425 -2.2443 0
M  V30 35080 H 3352.22 2.52203 -4.07346 0
M  V30 35081 H 3350.58 1.42207 -2.11304 0
M  V30 35082 H 3351.36 0.371316 -3.41286 0
M  V30 35083 N 3353.81 1.44644 0.625774 0
M  V30 35084 C 3354.77 1.51558 1.71939 0
M  V30 35085 C 3355.77 0.397015 1.55822 0
M  V30 35086 O 3356.96 0.659838 1.6122 0
M  V30 35087 C 3354.09 1.39466 3.11066 0
M  V30 35088 H 3355.29 2.48979 1.67181 0
M  V30 35089 H 3352.84 1.31815 0.839911 0
M  V30 35090 H 3353.57 0.431591 3.21415 0
M  V30 35091 H 3353.36 2.2058 3.24171 0
M  V30 35092 H 3354.85 1.47297 3.9076 0
M  V30 35093 N 3355.29 -0.866663 1.31631 0
M  V30 35094 C 3356.22 -1.98999 1.22154 0
M  V30 35095 C 3357.2 -1.69757 0.108002 0
M  V30 35096 O 3358.38 -1.91975 0.293158 0
M  V30 35097 C 3355.51 -3.34575 0.931499 0
M  V30 35098 C 3354.47 -3.78134 2.00497 0
M  V30 35099 C 3353.79 -5.11206 1.56756 0
M  V30 35100 C 3355.09 -3.94886 3.41851 0
M  V30 35101 H 3356.79 -2.07186 2.16135 0
M  V30 35102 H 3354.33 -0.995444 1.04052 0
M  V30 35103 H 3356.29 -4.12701 0.851792 0
M  V30 35104 H 3355.01 -3.2657 -0.0439715 0
M  V30 35105 H 3353.67 -3.0225 2.07462 0
M  V30 35106 H 3353.32 -4.99647 0.579855 0
M  V30 35107 H 3353.02 -5.41322 2.28571 0
M  V30 35108 H 3354.54 -5.91838 1.50199 0
M  V30 35109 H 3355.95 -4.63399 3.37542 0
M  V30 35110 H 3354.35 -4.36403 4.11913 0
M  V30 35111 H 3355.42 -2.98165 3.82394 0
M  V30 35112 N 3356.77 -1.14645 -1.0814 0
M  V30 35113 C 3357.71 -0.835883 -2.15132 0
M  V30 35114 C 3358.68 0.207756 -1.64796 0
M  V30 35115 O 3359.87 0.0770765 -1.90644 0
M  V30 35116 C 3357.01 -0.322516 -3.4359 0
M  V30 35117 C 3356.12 -1.42678 -4.07759 0
M  V30 35118 C 3355.26 -0.870373 -5.24021 0
M  V30 35119 C 3354.29 -1.95213 -5.80137 0
M  V30 35120 N 3353.43 -1.41269 -6.87741 0
M  V30 35121 H 3358.27 -1.75226 -2.41039 0
M  V30 35122 H 3355.81 -0.874449 -1.18287 0
M  V30 35123 H 3357.77 -0.00664392 -4.17199 0
M  V30 35124 H 3356.4 0.556958 -3.17959 0
M  V30 35125 H 3355.45 -1.85899 -3.31882 0
M  V30 35126 H 3356.76 -2.24383 -4.45481 0
M  V30 35127 H 3355.91 -0.506565 -6.04582 0
M  V30 35128 H 3354.65 -0.0223976 -4.87695 0
M  V30 35129 H 3353.66 -2.32485 -4.98228 0
M  V30 35130 H 3354.88 -2.80374 -6.1852 0
M  V30 35131 H 3352.83 -0.586941 -6.53369 0
M  V30 35132 H 3352.75 -2.16609 -7.24304 0
M  V30 35133 H 3354.01 -1.07687 -7.72026 0
M  V30 35134 N 3358.24 1.26349 -0.942 0
M  V30 35135 C 3359.18 2.24729 -0.396526 0
M  V30 35136 C 3360.15 1.54225 0.515113 0
M  V30 35137 O 3361.34 1.82991 0.452373 0
M  V30 35138 C 3358.47 3.35957 0.430173 0
M  V30 35139 C 3357.51 4.24426 -0.420055 0
M  V30 35140 S 3358.34 5.02731 -1.84451 0
M  V30 35141 C 3359.5 6.17435 -1.02589 0
M  V30 35142 H 3359.73 2.70649 -1.23029 0
M  V30 35143 H 3357.27 1.35228 -0.745172 0
M  V30 35144 H 3359.22 4.00484 0.901245 0
M  V30 35145 H 3357.89 2.88647 1.23863 0
M  V30 35146 H 3357.08 5.03548 0.213386 0
M  V30 35147 H 3356.68 3.64768 -0.825844 0
M  V30 35148 H 3358.97 6.76968 -0.26855 0
M  V30 35149 H 3359.92 6.85086 -1.7906 0
M  V30 35150 H 3360.32 5.617 -0.561587 0
M  V30 35151 N 3359.72 0.709115 1.40746 0
M  V30 35152 C 3360.97 0.246209 2.013 0
M  V30 35153 C 3361.3 -1.15554 1.5608 0
M  V30 35154 O 3360.58 -1.78263 0.777973 0
M  V30 35155 C 3360.86 0.319009 3.58684 0
M  V30 35156 C 3360.71 1.75867 4.13994 0
M  V30 35157 C 3362.03 -0.313503 4.38982 0
M  V30 35158 H 3359.15 0.0909383 0.731368 0
M  V30 35159 H 3361.79 0.900394 1.67311 0
M  V30 35160 H 3359.94 -0.237981 3.8777 0
M  V30 35161 H 3361.61 2.37054 3.95731 0
M  V30 35162 H 3359.86 2.28848 3.68526 0
M  V30 35163 H 3360.53 1.76104 5.23155 0
M  V30 35164 H 3363 0.161012 4.15788 0
M  V30 35165 H 3361.88 -0.232087 5.48409 0
M  V30 35166 H 3362.14 -1.39613 4.19477 0
M  V30 35167 N 3361.2 -1.50894 0.454829 0
M  V30 35168 C 3362.13 -2.25964 -0.383786 0
M  V30 35169 C 3363.14 -1.30655 -0.97124 0
M  V30 35170 O 3364.33 -1.56284 -0.862406 0
M  V30 35171 C 3361.43 -3.01344 -1.55064 0
M  V30 35172 C 3360.61 -4.23885 -1.07892 0
M  V30 35173 C 3359.67 -4.81696 -2.11792 0
M  V30 35174 O 3358.69 -5.4306 -1.70513 0
M  V30 35175 N 3359.89 -4.67262 -3.44451 0
M  V30 35176 H 3362.66 -2.98573 0.259698 0
M  V30 35177 H 3360.22 -1.59377 0.284689 0
M  V30 35178 H 3362.21 -3.36902 -2.2423 0
M  V30 35179 H 3360.78 -2.31636 -2.09913 0
M  V30 35180 H 3360 -3.9362 -0.213703 0
M  V30 35181 H 3361.29 -5.03369 -0.741412 0
M  V30 35182 H 3360.69 -4.18423 -3.80708 0
M  V30 35183 H 3359.24 -5.07134 -4.09461 0
M  V30 35184 N 3362.68 -0.186817 -1.56489 0
M  V30 35185 C 3363.91 0.459958 -2.01723 0
M  V30 35186 C 3364.32 1.55758 -1.067 0
M  V30 35187 O 3363.68 1.82364 -0.0704533 0
M  V30 35188 C 3363.73 1.02395 -3.46695 0
M  V30 35189 O 3363.45 -0.0298686 -4.3809 0
M  V30 35190 C 3364.95 1.74743 -4.07406 0
M  V30 35191 H 3362.17 0.116286 -0.660847 0
M  V30 35192 H 3364.71 -0.293095 -2.02389 0
M  V30 35193 H 3362.87 1.72743 -3.46755 0
M  V30 35194 H 3363.28 0.388729 -5.23058 0
M  V30 35195 H 3364.76 2.09446 -5.10721 0
M  V30 35196 H 3365.23 2.64812 -3.50388 0
M  V30 35197 H 3365.84 1.09 -4.11095 0
M  V30 35198 N 3364.16 1.57361 0.0868344 0
M  V30 35199 C 3365.11 1.99083 1.1113 0
M  V30 35200 C 3366.09 0.87053 1.35317 0
M  V30 35201 O 3367.28 1.13439 1.35869 0
M  V30 35202 C 3364.41 2.42573 2.42926 0
M  V30 35203 C 3363.5 3.61306 2.22079 0
M  V30 35204 N 3363.89 4.75974 1.7112 0
M  V30 35205 C 3362.19 3.67563 2.52613 0
M  V30 35206 C 3362.89 5.57886 1.64736 0
M  V30 35207 N 3361.86 5.01295 2.10248 0
M  V30 35208 H 3365.66 2.85186 0.71038 0
M  V30 35209 H 3363.18 1.59714 0.29414 0
M  V30 35210 H 3365.18 2.70695 3.17064 0
M  V30 35211 H 3363.84 1.57851 2.83749 0
M  V30 35212 H 3364.85 4.98563 1.40198 0
M  V30 35213 H 3361.52 2.93521 2.96903 0
M  V30 35214 H 3362.91 6.59919 1.26317 0
M  V30 35215 N 3365.63 -0.357865 1.53483 0
M  V30 35216 C 3366.56 -1.44463 1.83446 0
M  V30 35217 C 3367.54 -1.55543 0.688513 0
M  V30 35218 O 3368.73 -1.69985 0.93909 0
M  V30 35219 C 3365.86 -2.81703 2.03127 0
M  V30 35220 C 3364.81 -2.85442 3.18915 0
M  V30 35221 C 3364.14 -4.25431 3.23902 0
M  V30 35222 C 3365.44 -2.52267 4.57339 0
M  V30 35223 H 3367.13 -1.19637 2.74458 0
M  V30 35224 H 3364.68 -0.574089 1.32061 0
M  V30 35225 H 3366.63 -3.57764 2.22672 0
M  V30 35226 H 3365.36 -3.07933 1.08833 0
M  V30 35227 H 3364.02 -2.11833 2.99203 0
M  V30 35228 H 3363.66 -4.48749 2.27231 0
M  V30 35229 H 3363.36 -4.28847 4.01702 0
M  V30 35230 H 3364.89 -5.03354 3.4564 0
M  V30 35231 H 3366.3 -3.18042 4.76993 0
M  V30 35232 H 3364.7 -2.66988 5.37436 0
M  V30 35233 H 3365.77 -1.47493 4.61924 0
M  V30 35234 N 3367.11 -1.44974 -0.618094 0
M  V30 35235 C 3368.34 -1.52174 -1.40918 0
M  V30 35236 C 3368.76 -0.151788 -1.87487 0
M  V30 35237 O 3368.12 0.861578 -1.5952 0
M  V30 35238 C 3368.17 -2.50192 -2.59685 0
M  V30 35239 O 3367.27 -2.01246 -3.59963 0
M  V30 35240 H 3366.61 -0.513367 -0.421129 0
M  V30 35241 H 3369.14 -1.90231 -0.753225 0
M  V30 35242 H 3369.15 -2.68655 -3.07064 0
M  V30 35243 H 3367.83 -3.49694 -2.25137 0
M  V30 35244 H 3366.4 -1.92611 -3.19305 0
M  V30 35245 N 3368.59 0.85967 -1.32089 0
M  V30 35246 C 3369.54 1.95576 -1.17192 0
M  V30 35247 C 3370.52 1.607 -0.0801585 0
M  V30 35248 O 3371.72 1.74332 -0.306148 0
M  V30 35249 C 3368.84 3.3151 -0.891974 0
M  V30 35250 C 3367.93 3.72621 -2.0252 0
M  V30 35251 N 3368.32 3.85603 -3.27328 0
M  V30 35252 C 3366.62 4.02211 -1.92724 0
M  V30 35253 C 3367.32 4.20899 -4.01521 0
M  V30 35254 N 3366.3 4.32145 -3.29775 0
M  V30 35255 H 3370.1 2.03739 -2.11819 0
M  V30 35256 H 3367.61 1.05112 -1.23795 0
M  V30 35257 H 3369.61 4.09798 -0.766215 0
M  V30 35258 H 3368.27 3.24667 0.0459778 0
M  V30 35259 H 3369.28 3.70057 -3.62324 0
M  V30 35260 H 3365.96 4.03699 -1.06459 0
M  V30 35261 H 3367.35 4.38454 -5.09124 0
M  V30 35262 N 3370.07 1.15217 1.0753 0
M  V30 35263 C 3371.3 0.948343 1.83548 0
M  V30 35264 C 3371.71 -0.506669 1.8229 0
M  V30 35265 O 3371.05 -1.36312 1.23145 0
M  V30 35266 C 3371.11 1.38304 3.31832 0
M  V30 35267 C 3370.77 2.85541 3.56813 0
M  V30 35268 C 3371.77 3.83614 3.50908 0
M  V30 35269 C 3369.46 3.23166 3.84537 0
M  V30 35270 C 3371.45 5.17318 3.72372 0
M  V30 35271 C 3369.14 4.57043 4.05654 0
M  V30 35272 C 3370.14 5.53928 3.99566 0
M  V30 35273 O 3369.82 6.85386 4.2012 0
M  V30 35274 H 3369.56 0.337003 0.586008 0
M  V30 35275 H 3372.11 1.53346 1.36653 0
M  V30 35276 H 3370.34 0.741311 3.79528 0
M  V30 35277 H 3372.03 1.1486 3.8931 0
M  V30 35278 H 3372.79 3.55892 3.29493 0
M  V30 35279 H 3368.67 2.48342 3.88391 0
M  V30 35280 H 3372.22 5.92927 3.67537 0
M  V30 35281 H 3368.11 4.84481 4.26554 0
M  V30 35282 H 3368.88 6.91777 4.37478 0
M  V30 35283 N 3371.55 -1.25848 0.948687 0
M  V30 35284 C 3372.79 -1.93685 0.601159 0
M  V30 35285 C 3373.13 -1.74181 -0.858749 0
M  V30 35286 O 3372.4 -1.08333 -1.61537 0
M  V30 35287 C 3372.68 -3.4725 0.953391 0
M  V30 35288 C 3372.54 -3.76006 2.46859 0
M  V30 35289 C 3373.86 -4.37538 0.474175 0
M  V30 35290 H 3370.97 -0.703437 0.219876 0
M  V30 35291 H 3373.62 -1.48577 1.18426 0
M  V30 35292 H 3371.77 -3.85801 0.457182 0
M  V30 35293 H 3373.44 -3.47127 3.03811 0
M  V30 35294 H 3371.68 -3.2182 2.90885 0
M  V30 35295 H 3372.35 -4.83376 2.66555 0
M  V30 35296 H 3374.83 -4.06256 0.899736 0
M  V30 35297 H 3373.7 -5.4376 0.749382 0
M  V30 35298 H 3373.97 -4.37647 -0.625884 0
M  V30 35299 N 3373.02 -0.716569 -1.40368 0
M  V30 35300 C 3373.95 -0.0793944 -2.33365 0
M  V30 35301 C 3374.94 0.744455 -1.52944 0
M  V30 35302 O 3376.12 0.69318 -1.81407 0
M  V30 35303 C 3373.25 0.84237 -3.36929 0
M  V30 35304 C 3372.2 0.124067 -4.2782 0
M  V30 35305 C 3371.53 1.16161 -5.2193 0
M  V30 35306 C 3372.83 -1.02233 -5.12197 0
M  V30 35307 H 3374.52 -0.856165 -2.86897 0
M  V30 35308 H 3372.07 -0.413162 -1.37946 0
M  V30 35309 H 3374.02 1.29752 -4.00927 0
M  V30 35310 H 3372.75 1.65105 -2.81794 0
M  V30 35311 H 3371.41 -0.311266 -3.65276 0
M  V30 35312 H 3371.05 1.96337 -4.63099 0
M  V30 35313 H 3370.75 0.685875 -5.83583 0
M  V30 35314 H 3372.28 1.61684 -5.88804 0
M  V30 35315 H 3373.69 -0.646499 -5.69643 0
M  V30 35316 H 3372.09 -1.4265 -5.82899 0
M  V30 35317 H 3373.16 -1.85254 -4.48117 0
M  V30 35318 N 3374.5 1.50651 -0.462825 0
M  V30 35319 C 3375.45 2.29956 0.349744 0
M  V30 35320 C 3376.44 1.36886 0.997923 0
M  V30 35321 O 3377.65 1.54115 0.929972 0
M  V30 35322 H 3374.03 0.740392 0.131622 0
M  V30 35323 H 3376 2.96461 -0.339632 0
M  V30 35324 C 3374.75 3.17206 1.42392 0
M  V30 35325 H 3374.07 3.88724 0.934542 0
M  V30 35326 H 3375.51 3.75706 1.96522 0
M  V30 35327 C 3373.97 2.34252 2.42131 0
M  V30 35328 O 3374.5 2.01984 3.47225 0
M  V30 35329 N 3372.7 1.96989 2.13644 0
M  V30 35330 H 3372.25 2.2343 1.28205 0
M  V30 35331 H 3372.21 1.41788 2.80613 0
M  V30 35332 N 3375.98 0.195113 1.56388 0
M  V30 35333 C 3377.23 -0.443867 1.96755 0
M  V30 35334 C 3377.54 -1.62758 1.08485 0
M  V30 35335 O 3378.75 -2.33436 1.38636 0
M  V30 35336 C 3377.2 -0.841078 3.49934 0
M  V30 35337 C 3376.81 0.318354 4.46867 0
M  V30 35338 C 3378.56 -1.44714 3.99072 0
M  V30 35339 C 3376.46 -0.0998172 5.91316 0
M  V30 35340 H 3375.39 -0.169603 0.734677 0
M  V30 35341 H 3378.04 0.287132 1.8124 0
M  V30 35342 H 3376.43 -1.62874 3.60954 0
M  V30 35343 H 3377.6 1.09588 4.47579 0
M  V30 35344 H 3375.92 0.835913 4.07923 0
M  V30 35345 H 3378.51 -1.77246 5.04468 0
M  V30 35346 H 3378.86 -2.35363 3.4338 0
M  V30 35347 H 3379.39 -0.723444 3.91166 0
M  V30 35348 H 3376.13 0.772484 6.50932 0
M  V30 35349 H 3375.65 -0.842199 5.93858 0
M  V30 35350 H 3377.33 -0.535613 6.44779 0
M  V30 35351 N 3377.46 -1.57404 -0.0784879 0
M  V30 35352 C 3378.74 -1.77971 -0.811526 0
M  V30 35353 C 3379.12 -0.781001 -1.96121 0
M  V30 35354 O 3378.46 0.18722 -2.27732 0
M  V30 35355 C 3378.67 -3.24256 -1.2907 0
M  V30 35356 C 3380.02 -3.87901 -1.72678 0
M  V30 35357 O 3381.05 -3.28107 -1.38653 0
M  V30 35358 O 3379.9 -4.93083 -2.35651 0
M  V30 35359 H 3377 -0.730147 -0.388348 0
M  V30 35360 H 3379.54 -1.69597 -0.059082 0
M  V30 35361 H 3378.32 -3.88494 -0.467745 0
M  V30 35362 H 3377.94 -3.37328 -2.10466 0
M  V30 35363 N 3378.94 0.34972 -1.53671 0
M  V30 35364 C 3380.18 1.08863 -1.71815 0
M  V30 35365 C 3380.54 1.86512 -0.472332 0
M  V30 35366 O 3379.83 1.8398 0.534964 0
M  V30 35367 C 3380.02 2.06429 -2.91757 0
M  V30 35368 C 3379.85 1.38369 -4.27883 0
M  V30 35369 C 3378.62 1.13113 -4.92477 0
M  V30 35370 C 3380.82 0.813109 -5.07832 0
M  V30 35371 N 3378.8 0.415699 -6.12491 0
M  V30 35372 C 3380.17 0.2279 -6.19581 0
M  V30 35373 C 3382.23 0.713349 -4.92763 0
M  V30 35374 C 3380.93 -0.447358 -7.17908 0
M  V30 35375 C 3382.96 0.051843 -5.91377 0
M  V30 35376 C 3382.32 -0.522422 -7.0246 0
M  V30 35377 H 3378.42 0.382959 -0.681811 0
M  V30 35378 H 3381 0.372996 -1.91094 0
M  V30 35379 H 3379.17 2.7529 -2.73989 0
M  V30 35380 H 3380.91 2.73113 -2.98649 0
M  V30 35381 H 3377.66 1.41661 -4.51917 0
M  V30 35382 H 3378.09 0.0728862 -6.76961 0
M  V30 35383 H 3382.73 1.14308 -4.07055 0
M  V30 35384 H 3380.45 -0.888996 -8.03195 0
M  V30 35385 H 3384.03 -0.0246318 -5.81795 0
M  V30 35386 H 3382.91 -1.02618 -7.77457 0
M  V30 35387 N 3380.41 1.45299 0.610397 0
M  V30 35388 C 3381.34 1.56597 1.73204 0
M  V30 35389 C 3382.33 0.41768 1.64892 0
M  V30 35390 O 3383.51 0.640462 1.83335 0
M  V30 35391 C 3380.64 1.52964 3.118 0
M  V30 35392 C 3379.59 2.66481 3.3492 0
M  V30 35393 C 3378.92 2.47902 4.7376 0
M  V30 35394 C 3380.22 4.0851 3.25449 0
M  V30 35395 H 3381.91 2.50484 1.64006 0
M  V30 35396 H 3379.46 1.20552 0.7876 0
M  V30 35397 H 3381.41 1.59465 3.90063 0
M  V30 35398 H 3380.14 0.556046 3.21832 0
M  V30 35399 H 3378.8 2.59404 2.59047 0
M  V30 35400 H 3378.44 1.48688 4.80521 0
M  V30 35401 H 3378.14 3.24025 4.90185 0
M  V30 35402 H 3379.67 2.56253 5.54226 0
M  V30 35403 H 3381.08 4.16846 3.93589 0
M  V30 35404 H 3379.48 4.85 3.53405 0
M  V30 35405 H 3380.55 4.30615 2.22931 0
M  V30 35406 N 3381.89 -0.852653 1.32543 0
M  V30 35407 C 3383.14 -1.60916 1.24409 0
M  V30 35408 C 3383.49 -1.91442 -0.191806 0
M  V30 35409 O 3382.79 -1.54721 -1.13013 0
M  V30 35410 C 3382.98 -2.93526 2.03905 0
M  V30 35411 C 3382.81 -2.75951 3.55079 0
M  V30 35412 C 3381.58 -2.74229 4.24413 0
M  V30 35413 C 3383.78 -2.49566 4.4969 0
M  V30 35414 N 3381.76 -2.47885 5.61628 0
M  V30 35415 C 3383.13 -2.32648 5.74696 0
M  V30 35416 C 3385.19 -2.35051 4.38925 0
M  V30 35417 C 3383.89 -2.02688 6.90152 0
M  V30 35418 C 3385.91 -2.06482 5.54183 0
M  V30 35419 C 3385.28 -1.90365 6.78189 0
M  V30 35420 H 3381.38 -0.592456 0.510411 0
M  V30 35421 H 3383.96 -1.00211 1.6693 0
M  V30 35422 H 3382.13 -3.52205 1.63726 0
M  V30 35423 H 3383.86 -3.58566 1.87651 0
M  V30 35424 H 3380.62 -2.87239 3.76551 0
M  V30 35425 H 3381.04 -2.37636 6.33923 0
M  V30 35426 H 3385.68 -2.4623 3.43701 0
M  V30 35427 H 3383.4 -1.90245 7.85387 0
M  V30 35428 H 3386.99 -1.96025 5.47782 0
M  V30 35429 H 3385.87 -1.68574 7.65867 0
M  V30 35430 N 3383.37 -1.15786 -1.06918 0
M  V30 35431 C 3384.62 -0.93546 -1.79598 0
M  V30 35432 C 3384.95 0.53714 -1.86936 0
M  V30 35433 O 3384.2 1.41446 -1.35246 0
M  V30 35434 C 3384.5 -1.50028 -3.24386 0
M  V30 35435 C 3384.17 -2.99412 -3.3714 0
M  V30 35436 C 3382.83 -3.40192 -3.40328 0
M  V30 35437 C 3385.18 -3.95395 -3.39577 0
M  V30 35438 C 3382.51 -4.75587 -3.43561 0
M  V30 35439 C 3384.86 -5.30667 -3.44347 0
M  V30 35440 C 3383.52 -5.70937 -3.45814 0
M  V30 35441 H 3382.79 -0.342309 -0.657195 0
M  V30 35442 H 3385.44 -1.444 -1.25782 0
M  V30 35443 H 3383.75 -0.913037 -3.81013 0
M  V30 35444 H 3385.44 -1.30396 -3.79207 0
M  V30 35445 H 3382.03 -2.66893 -3.3536 0
M  V30 35446 H 3386.22 -3.6496 -3.3633 0
M  V30 35447 H 3381.47 -5.06125 -3.42997 0
M  V30 35448 H 3385.65 -6.04834 -3.45179 0
M  V30 35449 H 3383.27 -6.75833 -3.48072 0
M  V30 35450 N 3384.85 1.25343 -0.955348 0
M  V30 35451 C 3385.81 2.24105 -0.480604 0
M  V30 35452 C 3386.81 1.55323 0.416096 0
M  V30 35453 O 3388 1.72889 0.213285 0
M  V30 35454 C 3385.13 3.39528 0.305529 0
M  V30 35455 H 3386.33 2.67618 -1.35354 0
M  V30 35456 H 3383.88 1.37742 -0.738697 0
M  V30 35457 H 3384.61 3.01436 1.1961 0
M  V30 35458 H 3384.4 3.90642 -0.337788 0
M  V30 35459 H 3385.89 4.12864 0.627128 0
M  V30 35460 N 3386.33 0.724003 1.39986 0
M  V30 35461 C 3387.57 0.26715 2.0073 0
M  V30 35462 C 3387.9 -1.14225 1.57426 0
M  V30 35463 O 3387.16 -1.7908 0.789236 0
M  V30 35464 C 3387.46 0.304534 3.561 0
M  V30 35465 C 3387.12 1.66541 4.19017 0
M  V30 35466 C 3385.78 2.03791 4.35916 0
M  V30 35467 C 3388.14 2.55943 4.54029 0
M  V30 35468 C 3385.46 3.29973 4.85113 0
M  V30 35469 C 3387.82 3.81486 5.0463 0
M  V30 35470 C 3386.48 4.18842 5.19738 0
M  V30 35471 H 3385.75 0.0977572 0.734523 0
M  V30 35472 H 3388.4 0.928689 1.67474 0
M  V30 35473 H 3386.7 -0.440579 3.89315 0
M  V30 35474 H 3388.4 -0.066917 4.00944 0
M  V30 35475 H 3384.99 1.36576 4.06257 0
M  V30 35476 H 3389.17 2.28437 4.40602 0
M  V30 35477 H 3384.43 3.58874 4.94995 0
M  V30 35478 H 3388.6 4.50926 5.30697 0
M  V30 35479 H 3386.23 5.16685 5.57621 0
M  V30 35480 N 3387.81 -1.50403 0.470808 0
M  V30 35481 C 3388.72 -2.32284 -0.328836 0
M  V30 35482 C 3389.73 -1.42655 -0.996264 0
M  V30 35483 O 3390.91 -1.75709 -0.9843 0
M  V30 35484 C 3387.97 -3.17322 -1.39669 0
M  V30 35485 C 3387.03 -4.22771 -0.74589 0
M  V30 35486 C 3386.27 -5.03745 -1.76286 0
M  V30 35487 O 3386.49 -4.85793 -2.98934 0
M  V30 35488 O 3385.42 -5.86912 -1.33485 0
M  V30 35489 H 3389.25 -3.01785 0.340544 0
M  V30 35490 H 3386.83 -1.47577 0.232663 0
M  V30 35491 H 3388.72 -3.70089 -2.01524 0
M  V30 35492 H 3387.39 -2.5055 -2.04955 0
M  V30 35493 H 3386.3 -3.73996 -0.088399 0
M  V30 35494 H 3387.63 -4.92012 -0.135987 0
M  V30 35495 N 3389.28 -0.203404 -1.56282 0
M  V30 35496 C 3390.51 0.438536 -2.02199 0
M  V30 35497 C 3390.93 1.54617 -1.08346 0
M  V30 35498 O 3390.28 1.82279 -0.0897915 0
M  V30 35499 C 3390.33 0.987123 -3.47762 0
M  V30 35500 O 3390.06 -0.0763322 -4.38033 0
M  V30 35501 C 3391.56 1.70412 -4.09237 0
M  V30 35502 H 3388.78 0.10927 -0.662043 0
M  V30 35503 H 3391.32 -0.314544 -2.02066 0
M  V30 35504 H 3389.48 1.69055 -3.48567 0
M  V30 35505 H 3389.89 0.33323 -5.2344 0
M  V30 35506 H 3391.36 2.04018 -5.12914 0
M  V30 35507 H 3391.84 2.6108 -3.53177 0
M  V30 35508 H 3392.45 1.04634 -4.12228 0
M  V30 35509 N 3390.76 1.57444 0.0701393 0
M  V30 35510 C 3392.01 1.86961 0.767462 0
M  V30 35511 C 3392.33 0.795626 1.7803 0
M  V30 35512 O 3391.6 -0.175532 1.95112 0
M  V30 35513 H 3390.18 0.689903 0.286431 0
M  V30 35514 H 3392.84 1.94846 0.0458349 0
M  V30 35515 H 3391.94 2.84525 1.28264 0
M  V30 35516 N 3392.24 -0.341566 1.53854 0
M  V30 35517 C 3393.17 -1.42509 1.84968 0
M  V30 35518 C 3394.15 -1.54804 0.704972 0
M  V30 35519 O 3395.34 -1.68979 0.957066 0
M  V30 35520 C 3392.47 -2.79533 2.06104 0
M  V30 35521 C 3391.42 -2.82044 3.21924 0
M  V30 35522 C 3390.75 -4.21971 3.28396 0
M  V30 35523 C 3392.05 -2.47402 4.59988 0
M  V30 35524 H 3393.74 -1.1672 2.75712 0
M  V30 35525 H 3391.29 -0.56005 1.32663 0
M  V30 35526 H 3393.24 -3.55382 2.26454 0
M  V30 35527 H 3391.96 -3.06762 1.12093 0
M  V30 35528 H 3390.62 -2.08648 3.01433 0
M  V30 35529 H 3390.27 -4.46313 2.31977 0
M  V30 35530 H 3389.97 -4.24562 4.06228 0
M  V30 35531 H 3391.49 -4.9966 3.5096 0
M  V30 35532 H 3392.91 -3.12965 4.8034 0
M  V30 35533 H 3391.3 -2.61273 5.40237 0
M  V30 35534 H 3392.37 -1.42586 4.63462 0
M  V30 35535 N 3393.72 -1.45621 -0.602683 0
M  V30 35536 C 3394.68 -1.54274 -1.69506 0
M  V30 35537 C 3395.68 -0.421755 -1.5517 0
M  V30 35538 O 3396.87 -0.685403 -1.6015 0
M  V30 35539 C 3394 -1.44397 -3.08808 0
M  V30 35540 H 3395.2 -2.51607 -1.63198 0
M  V30 35541 H 3392.75 -1.33135 -0.818834 0
M  V30 35542 H 3393.48 -0.482671 -3.20688 0
M  V30 35543 H 3393.27 -2.25709 -3.20621 0
M  V30 35544 H 3394.76 -1.53495 -3.88367 0
M  V30 35545 N 3395.2 0.845612 -1.32993 0
M  V30 35546 C 3396.43 1.63029 -1.26906 0
M  V30 35547 C 3396.83 1.88492 0.163556 0
M  V30 35548 O 3396.18 1.46068 1.114 0
M  V30 35549 C 3396.24 3.00817 -1.96848 0
M  V30 35550 C 3395.9 2.98356 -3.46169 0
M  V30 35551 C 3396.9 2.74554 -4.41493 0
M  V30 35552 C 3394.58 3.18705 -3.88243 0
M  V30 35553 C 3396.58 2.71119 -5.76865 0
M  V30 35554 C 3394.27 3.14896 -5.23721 0
M  V30 35555 C 3395.26 2.91133 -6.17843 0
M  V30 35556 O 3394.95 2.87215 -7.50842 0
M  V30 35557 H 3394.68 0.514215 -0.438815 0
M  V30 35558 H 3397.24 1.06193 -1.75819 0
M  V30 35559 H 3395.47 3.5948 -1.42517 0
M  V30 35560 H 3397.16 3.61621 -1.8435 0
M  V30 35561 H 3397.92 2.5859 -4.10312 0
M  V30 35562 H 3393.8 3.36224 -3.15396 0
M  V30 35563 H 3397.35 2.52491 -6.50303 0
M  V30 35564 H 3393.24 3.30407 -5.54528 0
M  V30 35565 H 3394.01 3.03105 -7.60309 0
M  V30 35566 N 3396.67 1.16351 1.06302 0
M  V30 35567 C 3397.61 0.813497 2.13208 0
M  V30 35568 C 3398.58 -0.214811 1.61175 0
M  V30 35569 O 3399.77 -0.0989127 1.8824 0
M  V30 35570 C 3396.9 0.211558 3.38039 0
M  V30 35571 C 3395.94 1.21346 4.08873 0
M  V30 35572 S 3396.77 2.7601 4.58889 0
M  V30 35573 C 3397.93 2.17265 5.86981 0
M  V30 35574 H 3398.16 1.71894 2.42569 0
M  V30 35575 H 3395.7 0.986978 1.18735 0
M  V30 35576 H 3397.65 -0.129277 4.10296 0
M  V30 35577 H 3396.32 -0.671651 3.06835 0
M  V30 35578 H 3395.51 0.740719 4.98527 0
M  V30 35579 H 3395.11 1.49938 3.42629 0
M  V30 35580 H 3397.4 1.54126 6.59736 0
M  V30 35581 H 3398.35 3.05128 6.38985 0
M  V30 35582 H 3398.75 1.61151 5.41009 0
M  V30 35583 N 3398.15 -1.24835 0.961982 0
M  V30 35584 C 3399.08 -2.27945 0.506281 0
M  V30 35585 C 3400.06 -1.64008 -0.451154 0
M  V30 35586 O 3401.25 -1.91047 -0.348519 0
M  V30 35587 C 3398.38 -3.46666 -0.209785 0
M  V30 35588 C 3397.33 -4.22832 0.663109 0
M  V30 35589 C 3396.66 -5.34383 -0.184122 0
M  V30 35590 C 3397.96 -4.84739 1.94488 0
M  V30 35591 H 3399.65 -2.66315 1.3681 0
M  V30 35592 H 3397.2 -1.28021 0.659283 0
M  V30 35593 H 3399.15 -4.17929 -0.539765 0
M  V30 35594 H 3397.87 -3.07306 -1.10591 0
M  V30 35595 H 3396.53 -3.53362 0.976278 0
M  V30 35596 H 3396.18 -4.91264 -1.08022 0
M  V30 35597 H 3395.88 -5.8626 0.396673 0
M  V30 35598 H 3397.41 -6.08476 -0.508902 0
M  V30 35599 H 3398.82 -5.48106 1.68084 0
M  V30 35600 H 3397.22 -5.46823 2.47192 0
M  V30 35601 H 3398.29 -4.06513 2.64339 0
M  V30 35602 N 3399.63 -0.731417 -1.396 0
M  V30 35603 C 3400.86 -0.287508 -2.0459 0
M  V30 35604 C 3401.27 1.08136 -1.55252 0
M  V30 35605 O 3400.61 1.69384 -0.710979 0
M  V30 35606 C 3400.67 -0.207011 -3.58903 0
M  V30 35607 C 3400.34 -1.51376 -4.31201 0
M  V30 35608 C 3401.33 -2.45877 -4.58083 0
M  V30 35609 C 3399.02 -1.77706 -4.69815 0
M  V30 35610 C 3401.01 -3.64945 -5.22584 0
M  V30 35611 C 3398.7 -2.97052 -5.34044 0
M  V30 35612 C 3399.7 -3.90493 -5.60361 0
M  V30 35613 O 3399.39 -5.07743 -6.23259 0
M  V30 35614 H 3399.12 -0.124092 -0.664513 0
M  V30 35615 H 3401.67 -0.994846 -1.797 0
M  V30 35616 H 3399.9 0.556399 -3.82676 0
M  V30 35617 H 3401.59 0.204426 -4.05385 0
M  V30 35618 H 3402.36 -2.26804 -4.28702 0
M  V30 35619 H 3398.24 -1.05822 -4.4869 0
M  V30 35620 H 3401.78 -4.37894 -5.43042 0
M  V30 35621 H 3397.68 -3.16028 -5.62847 0
M  V30 35622 H 3398.44 -5.0803 -6.41754 0
M  V30 35623 N 3401.11 1.50152 -0.478778 0
M  V30 35624 C 3402.34 2.06778 0.0710122 0
M  V30 35625 C 3402.75 1.34177 1.32823 0
M  V30 35626 O 3402.11 0.413336 1.77758 0
M  V30 35627 C 3402.16 3.59789 0.351288 0
M  V30 35628 O 3401.88 4.29655 -0.856073 0
M  V30 35629 C 3403.38 4.33063 0.947193 0
M  V30 35630 H 3400.6 0.670918 -0.010515 0
M  V30 35631 H 3403.15 1.93221 -0.669766 0
M  V30 35632 H 3401.3 3.73123 1.04201 0
M  V30 35633 H 3401.71 5.20995 -0.605344 0
M  V30 35634 H 3403.19 5.4107 1.09302 0
M  V30 35635 H 3403.67 3.94066 1.9393 0
M  V30 35636 H 3404.27 4.24278 0.294619 0
M  V30 35637 N 3402.59 0.211689 1.56172 0
M  V30 35638 C 3403.81 -0.43087 2.02875 0
M  V30 35639 C 3404.24 -1.53252 1.09067 0
M  V30 35640 O 3403.59 -1.81136 0.0770727 0
M  V30 35641 C 3403.64 -0.948872 3.47892 0
M  V30 35642 O 3402.75 -2.06083 3.57216 0
M  V30 35643 H 3402.09 -0.0987492 0.656616 0
M  V30 35644 H 3404.62 0.327435 2.01963 0
M  V30 35645 H 3404.63 -1.26123 3.88017 0
M  V30 35646 H 3403.3 -0.142511 4.15656 0
M  V30 35647 H 3401.88 -1.75586 3.28974 0
M  V30 35648 N 3404.06 -1.57479 -0.0617887 0
M  V30 35649 C 3405.03 -2.03382 -1.0568 0
M  V30 35650 C 3406.03 -0.932446 -1.31004 0
M  V30 35651 O 3407.22 -1.19704 -1.26556 0
M  V30 35652 C 3404.35 -2.42299 -2.398 0
M  V30 35653 H 3405.54 -2.92526 -0.660955 0
M  V30 35654 H 3403.1 -1.5324 -0.307787 0
M  V30 35655 H 3403.83 -1.56212 -2.84198 0
M  V30 35656 H 3403.62 -3.22678 -2.22759 0
M  V30 35657 H 3405.11 -2.78354 -3.11302 0
M  V30 35658 N 3405.54 0.333401 -1.54033 0
M  V30 35659 C 3406.79 1.07249 -1.71767 0
M  V30 35660 C 3407.12 1.88326 -0.486168 0
M  V30 35661 O 3406.37 1.88327 0.532102 0
M  V30 35662 C 3406.67 2.03323 -2.9393 0
M  V30 35663 C 3406.34 1.38478 -4.29109 0
M  V30 35664 C 3405 1.20523 -4.65862 0
M  V30 35665 C 3407.35 0.918534 -5.13042 0
M  V30 35666 C 3404.68 0.545778 -5.84156 0
M  V30 35667 C 3407.03 0.272944 -6.32011 0
M  V30 35668 C 3405.7 0.0811642 -6.67451 0
M  V30 35669 H 3404.97 0.392453 -0.628539 0
M  V30 35670 H 3407.61 0.350676 -1.88262 0
M  V30 35671 H 3405.92 2.81921 -2.7208 0
M  V30 35672 H 3407.61 2.60521 -3.04844 0
M  V30 35673 H 3404.2 1.53453 -4.00188 0
M  V30 35674 H 3408.39 1.04507 -4.85172 0
M  V30 35675 H 3403.64 0.385902 -6.10181 0
M  V30 35676 H 3407.82 -0.0963805 -6.96333 0
M  V30 35677 H 3405.45 -0.431867 -7.58972 0
M  V30 35678 N 3407.02 1.45939 0.594952 0
M  V30 35679 C 3407.97 1.55926 1.72598 0
M  V30 35680 C 3408.96 0.428439 1.63893 0
M  V30 35681 O 3410.17 0.604844 1.69534 0
M  V30 35682 H 3406.54 0.490004 0.570439 0
M  V30 35683 H 3408.51 2.51045 1.61303 0
M  V30 35684 C 3407.26 1.5551 3.10985 0
M  V30 35685 H 3406.59 2.41856 3.18349 0
M  V30 35686 H 3408.03 1.66554 3.89917 0
M  V30 35687 C 3406.49 0.281632 3.35721 0
M  V30 35688 O 3407.02 -0.633267 3.96677 0
M  V30 35689 N 3405.22 0.173365 2.90082 0
M  V30 35690 H 3404.77 0.918762 2.40659 0
M  V30 35691 H 3404.73 -0.677849 3.07006 0
M  V30 35692 N 3408.5 -0.838547 1.3344 0
M  V30 35693 C 3409.74 -1.59587 1.26109 0
M  V30 35694 C 3410.1 -1.91634 -0.171491 0
M  V30 35695 O 3409.39 -1.55911 -1.11365 0
M  V30 35696 C 3409.59 -2.91347 2.07007 0
M  V30 35697 C 3409.42 -2.72169 3.57986 0
M  V30 35698 C 3408.19 -2.69712 4.27298 0
M  V30 35699 C 3410.38 -2.44783 4.52312 0
M  V30 35700 N 3408.37 -2.41915 5.64226 0
M  V30 35701 C 3409.74 -2.26539 5.77131 0
M  V30 35702 C 3411.79 -2.30382 4.41394 0
M  V30 35703 C 3410.49 -1.95356 6.92263 0
M  V30 35704 C 3412.52 -2.00592 5.56342 0
M  V30 35705 C 3411.88 -1.83161 6.8017 0
M  V30 35706 H 3407.98 -0.587009 0.516666 0
M  V30 35707 H 3410.57 -0.984353 1.67984 0
M  V30 35708 H 3408.74 -3.50449 1.67452 0
M  V30 35709 H 3410.47 -3.56555 1.91443 0
M  V30 35710 H 3407.22 -2.83229 3.79576 0
M  V30 35711 H 3407.65 -2.30899 6.36407 0
M  V30 35712 H 3412.29 -2.42571 3.46293 0
M  V30 35713 H 3410.01 -1.81904 7.8736 0
M  V30 35714 H 3413.59 -1.90204 5.4983 0
M  V30 35715 H 3412.47 -1.60441 7.67612 0
M  V30 35716 N 3409.98 -1.16914 -1.05683 0
M  V30 35717 C 3410.91 -0.90457 -2.15267 0
M  V30 35718 C 3411.89 0.151519 -1.69424 0
M  V30 35719 O 3413.07 0.00231957 -1.942 0
M  V30 35720 C 3410.2 -0.411642 -3.44852 0
M  V30 35721 C 3409.16 -1.40635 -4.04235 0
M  V30 35722 C 3408.48 -0.771572 -5.29104 0
M  V30 35723 C 3409.78 -2.77795 -4.42298 0
M  V30 35724 H 3411.48 -1.82099 -2.37656 0
M  V30 35725 H 3409.02 -0.876967 -1.14216 0
M  V30 35726 H 3410.98 -0.214003 -4.20856 0
M  V30 35727 H 3409.7 0.540296 -3.221 0
M  V30 35728 H 3408.36 -1.59064 -3.30294 0
M  V30 35729 H 3408.01 0.187045 -5.02652 0
M  V30 35730 H 3407.71 -1.43555 -5.69794 0
M  V30 35731 H 3409.23 -0.584094 -6.078 0
M  V30 35732 H 3410.64 -2.63112 -5.09357 0
M  V30 35733 H 3409.04 -3.40724 -4.93991 0
M  V30 35734 H 3410.11 -3.32581 -3.52871 0
M  V30 35735 N 3411.45 1.24323 -0.968589 0
M  V30 35736 C 3412.38 2.27674 -0.518363 0
M  V30 35737 C 3413.37 1.64245 0.44245 0
M  V30 35738 O 3414.55 1.91229 0.338382 0
M  V30 35739 C 3411.68 3.46772 0.191398 0
M  V30 35740 C 3410.63 4.22474 -0.685523 0
M  V30 35741 C 3409.96 5.34473 0.155779 0
M  V30 35742 C 3411.26 4.83701 -1.97055 0
M  V30 35743 H 3412.95 2.65585 -1.3822 0
M  V30 35744 H 3410.5 1.2767 -0.666063 0
M  V30 35745 H 3412.45 4.18209 0.517594 0
M  V30 35746 H 3411.18 3.07889 1.08959 0
M  V30 35747 H 3409.84 3.52839 -0.995004 0
M  V30 35748 H 3409.48 4.9183 1.05415 0
M  V30 35749 H 3409.18 5.86041 -0.427758 0
M  V30 35750 H 3410.71 6.08737 0.476626 0
M  V30 35751 H 3412.12 5.47207 -1.70988 0
M  V30 35752 H 3410.52 5.45505 -2.50089 0
M  V30 35753 H 3411.59 4.05105 -2.66492 0
M  V30 35754 N 3412.93 0.73881 1.3921 0
M  V30 35755 C 3413.86 0.116511 2.33209 0
M  V30 35756 C 3414.84 -0.720029 1.54109 0
M  V30 35757 O 3416.03 -0.664232 1.82487 0
M  V30 35758 C 3413.16 -0.788661 3.38227 0
M  V30 35759 C 3412.11 -0.0559884 4.27963 0
M  V30 35760 C 3411.44 -1.07843 5.23712 0
M  V30 35761 C 3412.74 1.10369 5.10506 0
M  V30 35762 H 3414.43 0.9017 2.85499 0
M  V30 35763 H 3411.98 0.435056 1.37271 0
M  V30 35764 H 3413.93 -1.23357 4.0294 0
M  V30 35765 H 3412.66 -1.60601 2.84385 0
M  V30 35766 H 3411.31 0.369339 3.64735 0
M  V30 35767 H 3410.96 -1.88944 4.66164 0
M  V30 35768 H 3410.66 -0.592946 5.84601 0
M  V30 35769 H 3412.19 -1.52296 5.91302 0
M  V30 35770 H 3413.6 0.737043 5.68542 0
M  V30 35771 H 3412 1.51906 5.80556 0
M  V30 35772 H 3413.07 1.92359 4.45113 0
M  V30 35773 N 3414.41 -1.49895 0.486734 0
M  V30 35774 C 3415.37 -2.27382 -0.288086 0
M  V30 35775 C 3416.37 -1.32802 -0.906651 0
M  V30 35776 O 3417.56 -1.5609 -0.773397 0
M  V30 35777 C 3414.7 -3.10288 -1.41189 0
M  V30 35778 H 3415.89 -2.97331 0.391671 0
M  V30 35779 H 3413.44 -1.54427 0.241257 0
M  V30 35780 H 3414.18 -2.44871 -2.12623 0
M  V30 35781 H 3413.96 -3.79811 -0.973966 0
M  V30 35782 H 3415.45 -3.6885 -1.95805 0
M  V30 35783 N 3415.89 -0.219968 -1.56057 0
M  V30 35784 C 3417.14 0.411348 -1.97869 0
M  V30 35785 C 3417.46 1.60407 -1.10881 0
M  V30 35786 O 3416.73 1.9502 -0.185488 0
M  V30 35787 H 3415.31 0.154966 -0.730749 0
M  V30 35788 H 3417.97 -0.312495 -1.92378 0
M  V30 35789 H 3417.07 0.738744 -3.03231 0
M  V30 35790 N 3417.37 1.57509 0.0534363 0
M  V30 35791 C 3418.6 1.92377 0.761499 0
M  V30 35792 C 3419.01 0.817615 1.70178 0
M  V30 35793 O 3418.37 -0.207811 1.81313 0
M  V30 35794 C 3418.42 3.27081 1.53949 0
M  V30 35795 O 3418.14 4.33445 0.636978 0
M  V30 35796 C 3419.64 3.76079 2.3469 0
M  V30 35797 H 3416.86 0.635463 0.215472 0
M  V30 35798 H 3419.4 2.04492 0.0182264 0
M  V30 35799 H 3417.56 3.16438 2.23486 0
M  V30 35800 H 3417.97 5.11055 1.17997 0
M  V30 35801 H 3419.45 4.72911 2.84708 0
M  V30 35802 H 3419.92 3.06021 3.15036 0
M  V30 35803 H 3420.53 3.89726 1.70274 0
M  V30 35804 N 3418.85 -0.325228 1.54208 0
M  V30 35805 C 3419.78 -1.4054 1.86469 0
M  V30 35806 C 3420.76 -1.54047 0.721351 0
M  V30 35807 O 3421.94 -1.67954 0.974935 0
M  V30 35808 C 3419.07 -2.77331 2.09057 0
M  V30 35809 C 3418.03 -2.78614 3.24898 0
M  V30 35810 C 3417.35 -4.18465 3.32854 0
M  V30 35811 C 3418.65 -2.4251 4.62587 0
M  V30 35812 H 3420.35 -1.13789 2.76934 0
M  V30 35813 H 3417.89 -0.545948 1.33249 0
M  V30 35814 H 3419.84 -3.5296 2.30211 0
M  V30 35815 H 3418.57 -3.05556 1.1534 0
M  V30 35816 H 3417.23 -2.05439 3.03629 0
M  V30 35817 H 3416.88 -4.43828 2.36698 0
M  V30 35818 H 3416.58 -4.20229 4.10708 0
M  V30 35819 H 3418.1 -4.95909 3.5624 0
M  V30 35820 H 3419.51 -3.07852 4.83632 0
M  V30 35821 H 3417.91 -2.55528 5.42978 0
M  V30 35822 H 3418.98 -1.37662 4.64949 0
M  V30 35823 N 3420.32 -1.46252 -0.587204 0
M  V30 35824 C 3421.27 -1.52893 -1.69138 0
M  V30 35825 C 3422.26 -0.390267 -1.56095 0
M  V30 35826 O 3423.45 -0.638402 -1.65086 0
M  V30 35827 C 3420.58 -1.51791 -3.0792 0
M  V30 35828 C 3419.66 -2.70934 -3.26275 0
M  V30 35829 N 3420.06 -3.95891 -3.14808 0
M  V30 35830 C 3418.35 -2.67063 -3.57202 0
M  V30 35831 C 3419.05 -4.75519 -3.35046 0
M  V30 35832 N 3418.03 -4.07317 -3.59992 0
M  V30 35833 H 3421.83 -2.47308 -1.58796 0
M  V30 35834 H 3419.35 -1.41829 -0.791099 0
M  V30 35835 H 3421.34 -1.54635 -3.87161 0
M  V30 35836 H 3420 -0.584491 -3.19396 0
M  V30 35837 H 3421.01 -4.27207 -2.9277 0
M  V30 35838 H 3417.69 -1.82724 -3.75391 0
M  V30 35839 H 3419.08 -5.84485 -3.31402 0
M  V30 35840 N 3421.8 0.831459 -1.33883 0
M  V30 35841 C 3423.03 1.61674 -1.28628 0
M  V30 35842 C 3423.44 1.88655 0.143555 0
M  V30 35843 O 3422.78 1.47241 1.09844 0
M  V30 35844 C 3422.84 2.98713 -2.00027 0
M  V30 35845 C 3422.51 2.94667 -3.49314 0
M  V30 35846 C 3423.51 2.69856 -4.4438 0
M  V30 35847 C 3421.19 3.14569 -3.91601 0
M  V30 35848 C 3423.18 2.64985 -5.79708 0
M  V30 35849 C 3420.87 3.09324 -5.27031 0
M  V30 35850 C 3421.87 2.84564 -6.20897 0
M  V30 35851 O 3421.56 2.79235 -7.53846 0
M  V30 35852 H 3421.29 0.509532 -0.444244 0
M  V30 35853 H 3423.84 1.04322 -1.76935 0
M  V30 35854 H 3422.07 3.57948 -1.46322 0
M  V30 35855 H 3423.76 3.59646 -1.88175 0
M  V30 35856 H 3424.53 2.54224 -4.13032 0
M  V30 35857 H 3420.41 3.3286 -3.18944 0
M  V30 35858 H 3423.95 2.45579 -6.52945 0
M  V30 35859 H 3419.85 3.24507 -5.58002 0
M  V30 35860 H 3420.62 2.95023 -7.63481 0
M  V30 35861 N 3423.28 1.17472 1.05062 0
M  V30 35862 C 3424.53 0.963914 1.78087 0
M  V30 35863 C 3424.85 -0.507332 1.87767 0
M  V30 35864 O 3424.11 -1.39276 1.37479 0
M  V30 35865 C 3424.41 1.5517 3.21958 0
M  V30 35866 C 3424.07 3.04738 3.32334 0
M  V30 35867 C 3422.74 3.45563 3.34872 0
M  V30 35868 C 3425.09 4.00747 3.33243 0
M  V30 35869 C 3422.42 4.80993 3.35951 0
M  V30 35870 C 3424.77 5.36079 3.35861 0
M  V30 35871 C 3423.43 5.76366 3.36687 0
M  V30 35872 H 3422.7 0.352721 0.651666 0
M  V30 35873 H 3425.35 1.46382 1.23468 0
M  V30 35874 H 3423.65 0.973538 3.79512 0
M  V30 35875 H 3425.35 1.36412 3.77084 0
M  V30 35876 H 3421.94 2.72194 3.31071 0
M  V30 35877 H 3426.13 3.70264 3.30482 0
M  V30 35878 H 3421.38 5.11518 3.34902 0
M  V30 35879 H 3425.56 6.10249 3.35513 0
M  V30 35880 H 3423.18 6.81285 3.37276 0
M  V30 35881 N 3424.76 -1.23807 0.975168 0
M  V30 35882 C 3426 -1.92082 0.641158 0
M  V30 35883 C 3426.33 -1.76153 -0.82464 0
M  V30 35884 O 3425.59 -1.11301 -1.60968 0
M  V30 35885 C 3425.89 -3.43955 0.971077 0
M  V30 35886 C 3425.55 -3.80059 2.42623 0
M  V30 35887 C 3424.21 -3.89625 2.82393 0
M  V30 35888 C 3426.57 -3.97571 3.37026 0
M  V30 35889 C 3423.89 -4.14126 4.15592 0
M  V30 35890 C 3426.25 -4.23571 4.69862 0
M  V30 35891 C 3424.91 -4.31357 5.09399 0
M  V30 35892 H 3424.18 -0.702877 0.234616 0
M  V30 35893 H 3426.83 -1.46939 1.22805 0
M  V30 35894 H 3425.13 -3.90634 0.302033 0
M  V30 35895 H 3426.83 -3.95003 0.690927 0
M  V30 35896 H 3423.42 -3.73184 2.10789 0
M  V30 35897 H 3427.6 -3.89576 3.07481 0
M  V30 35898 H 3422.86 -4.18376 4.45838 0
M  V30 35899 H 3427.03 -4.36065 5.42974 0
M  V30 35900 H 3424.66 -4.50095 6.12632 0
M  V30 35901 N 3426.24 -0.746182 -1.38816 0
M  V30 35902 C 3427.2 -0.121926 -2.28875 0
M  V30 35903 C 3428.2 0.655354 -1.46839 0
M  V30 35904 O 3429.39 0.482715 -1.67378 0
M  V30 35905 C 3426.52 0.83606 -3.30489 0
M  V30 35906 H 3427.71 -0.915503 -2.85585 0
M  V30 35907 H 3425.27 -0.512717 -1.47651 0
M  V30 35908 H 3426 1.65559 -2.78856 0
M  V30 35909 H 3425.79 0.281202 -3.9109 0
M  V30 35910 H 3427.28 1.26907 -3.9785 0
M  V30 35911 N 3427.71 1.49635 -0.494676 0
M  V30 35912 C 3428.65 2.26902 0.323741 0
M  V30 35913 C 3429.66 1.33184 0.936257 0
M  V30 35914 O 3430.85 1.58516 0.820667 0
M  V30 35915 C 3427.95 3.0535 1.4702 0
M  V30 35916 C 3427.12 4.26596 0.966153 0
M  V30 35917 C 3426.18 4.87142 1.98946 0
M  V30 35918 O 3425.21 5.4739 1.56055 0
M  V30 35919 N 3426.41 4.7623 3.31941 0
M  V30 35920 H 3429.17 2.97779 -0.338768 0
M  V30 35921 H 3426.73 1.58566 -0.326845 0
M  V30 35922 H 3428.73 3.42729 2.15219 0
M  V30 35923 H 3427.3 2.37121 2.03697 0
M  V30 35924 H 3426.52 3.94049 0.109267 0
M  V30 35925 H 3427.8 5.05158 0.607692 0
M  V30 35926 H 3427.2 4.2837 3.69481 0
M  V30 35927 H 3425.76 5.17812 3.95872 0
M  V30 35928 N 3429.19 0.228241 1.55939 0
M  V30 35929 C 3430.42 -0.406313 2.02871 0
M  V30 35930 C 3430.83 -1.52874 1.10792 0
M  V30 35931 O 3430.19 -1.82113 0.118779 0
M  V30 35932 C 3430.24 -0.931672 3.49288 0
M  V30 35933 O 3429.96 0.14601 4.37857 0
M  V30 35934 C 3431.46 -1.6388 4.11896 0
M  V30 35935 H 3428.68 -0.0987241 0.663698 0
M  V30 35936 H 3431.23 0.346651 2.01541 0
M  V30 35937 H 3429.38 -1.63488 3.51213 0
M  V30 35938 H 3429.8 -0.249913 5.23904 0
M  V30 35939 H 3431.27 -1.95832 5.16095 0
M  V30 35940 H 3431.75 -2.55429 3.57285 0
M  V30 35941 H 3432.35 -0.980624 4.1384 0
M  V30 35942 N 3430.67 -1.57536 -0.0450825 0
M  V30 35943 C 3431.9 -1.93168 -0.755034 0
M  V30 35944 C 3432.32 -0.826944 -1.68947 0
M  V30 35945 O 3431.68 0.218502 -1.79978 0
M  V30 35946 C 3431.73 -3.27832 -1.50196 0
M  V30 35947 O 3430.83 -3.1895 -2.61428 0
M  V30 35948 H 3430.17 -0.631819 -0.204208 0
M  V30 35949 H 3432.7 -2.04599 -0.00533908 0
M  V30 35950 H 3432.71 -3.62343 -1.8754 0
M  V30 35951 H 3431.39 -4.07806 -0.81652 0
M  V30 35952 H 3429.96 -2.96043 -2.26744 0
M  V30 35953 N 3432.15 0.317045 -1.54378 0
M  V30 35954 C 3433.4 1.05177 -1.72107 0
M  V30 35955 C 3433.71 1.88963 -0.505199 0
M  V30 35956 O 3434.92 2.65578 -0.563959 0
M  V30 35957 C 3433.37 1.91952 -3.04438 0
M  V30 35958 C 3432.98 1.13246 -4.33451 0
M  V30 35959 C 3434.72 2.65121 -3.31529 0
M  V30 35960 C 3432.63 1.99204 -5.56841 0
M  V30 35961 H 3431.56 0.396388 -0.641399 0
M  V30 35962 H 3434.21 0.309642 -1.80869 0
M  V30 35963 H 3432.59 2.70089 -2.89599 0
M  V30 35964 H 3433.77 0.398339 -4.59075 0
M  V30 35965 H 3432.08 0.5173 -4.13174 0
M  V30 35966 H 3434.68 3.29753 -4.20912 0
M  V30 35967 H 3435.02 3.33104 -2.49694 0
M  V30 35968 H 3435.56 1.94042 -3.47264 0
M  V30 35969 H 3432.3 1.35718 -6.41296 0
M  V30 35970 H 3431.82 2.70332 -5.35426 0
M  V30 35971 H 3433.49 2.57635 -5.93492 0
M  V30 35972 N 3433.63 1.46561 0.57944 0
M  V30 35973 C 3434.87 1.52041 1.33753 0
M  V30 35974 C 3435.2 0.173457 1.93725 0
M  V30 35975 O 3434.46 -0.831262 1.77168 0
M  V30 35976 C 3434.76 2.56955 2.48413 0
M  V30 35977 C 3434.42 4.0088 2.06413 0
M  V30 35978 C 3433.08 4.40063 1.94674 0
M  V30 35979 C 3435.44 4.91277 1.74058 0
M  V30 35980 C 3432.76 5.67506 1.48842 0
M  V30 35981 C 3435.12 6.19161 1.29704 0
M  V30 35982 C 3433.78 6.57247 1.16544 0
M  V30 35983 H 3433.05 0.556356 0.489437 0
M  V30 35984 H 3435.7 1.80054 0.652144 0
M  V30 35985 H 3434 2.22615 3.22412 0
M  V30 35986 H 3435.7 2.58423 3.06624 0
M  V30 35987 H 3432.29 3.69908 2.16486 0
M  V30 35988 H 3436.47 4.61721 1.8201 0
M  V30 35989 H 3431.73 5.95784 1.37299 0
M  V30 35990 H 3435.9 6.88632 1.03722 0
M  V30 35991 H 3433.53 7.55893 0.80806 0
M  V30 35992 N 3435.1 -0.824347 1.34322 0
M  V30 35993 C 3436.35 -1.58282 1.26785 0
M  V30 35994 C 3436.68 -1.93521 -0.162248 0
M  V30 35995 O 3435.96 -1.59905 -1.10727 0
M  V30 35996 C 3436.24 -2.88327 2.1573 0
M  V30 35997 C 3436.09 -2.59678 3.6727 0
M  V30 35998 C 3437.41 -3.89887 2.04148 0
M  V30 35999 H 3434.53 -0.574294 0.461904 0
M  V30 36000 H 3437.17 -0.94974 1.6456 0
M  V30 36001 H 3435.32 -3.42355 1.83645 0
M  V30 36002 H 3437 -2.11971 4.09715 0
M  V30 36003 H 3435.24 -1.93144 3.8843 0
M  V30 36004 H 3435.91 -3.52406 4.24869 0
M  V30 36005 H 3438.39 -3.45208 2.32316 0
M  V30 36006 H 3437.26 -4.78686 2.6861 0
M  V30 36007 H 3437.52 -4.30219 1.01803 0
M  V30 36008 N 3436.58 -1.18028 -1.04437 0
M  V30 36009 C 3437.86 -0.883075 -1.74531 0
M  V30 36010 C 3438.24 0.614939 -2.01945 0
M  V30 36011 O 3437.59 1.56853 -1.66161 0
M  V30 36012 C 3437.8 -1.72627 -3.03317 0
M  V30 36013 C 3439.15 -1.95096 -3.77124 0
M  V30 36014 O 3440.17 -1.69649 -3.13206 0
M  V30 36015 O 3439.03 -2.37911 -4.91996 0
M  V30 36016 H 3436.12 -0.327686 -0.759309 0
M  V30 36017 H 3438.67 -1.28762 -1.10537 0
M  V30 36018 H 3437.44 -2.74193 -2.79166 0
M  V30 36019 H 3437.06 -1.31999 -3.75049 0
M  V30 36020 N 3438.06 1.23288 -0.98172 0
M  V30 36021 C 3439.31 1.92328 -0.661928 0
M  V30 36022 C 3439.66 1.75162 0.795989 0
M  V30 36023 O 3438.95 1.10274 1.56685 0
M  V30 36024 C 3439.15 3.43435 -0.989304 0
M  V30 36025 C 3438.98 3.753 -2.4775 0
M  V30 36026 C 3437.75 3.95918 -3.1397 0
M  V30 36027 C 3439.95 3.80671 -3.45824 0
M  V30 36028 N 3437.93 4.15 -4.52381 0
M  V30 36029 C 3439.3 4.04761 -4.69647 0
M  V30 36030 C 3441.35 3.63469 -3.40286 0
M  V30 36031 C 3440.06 4.13435 -5.88612 0
M  V30 36032 C 3442.08 3.73396 -4.58616 0
M  V30 36033 C 3441.44 3.97925 -5.81236 0
M  V30 36034 H 3437.54 0.724912 -0.293302 0
M  V30 36035 H 3440.13 1.48479 -1.25945 0
M  V30 36036 H 3438.3 3.86117 -0.420466 0
M  V30 36037 H 3440.03 3.99819 -0.626649 0
M  V30 36038 H 3436.79 3.92882 -2.64463 0
M  V30 36039 H 3437.21 4.28492 -5.24141 0
M  V30 36040 H 3441.85 3.435 -2.4651 0
M  V30 36041 H 3439.57 4.32211 -6.82803 0
M  V30 36042 H 3443.16 3.61439 -4.55909 0
M  V30 36043 H 3442.04 4.05422 -6.7127 0
M  V30 36044 N 3439.54 0.753533 1.38418 0
M  V30 36045 C 3440.95 0.431122 1.53667 0
M  V30 36046 C 3441.15 -1.05575 1.71628 0
M  V30 36047 O 3440.21 -1.84179 1.72726 0
M  V30 36048 C 3441.52 1.23032 2.74379 0
M  V30 36049 C 3443.07 1.22039 2.88228 0
M  V30 36050 C 3443.55 2.00255 4.119 0
M  V30 36051 N 3445.04 1.97515 4.18977 0
M  V30 36052 C 3445.77 2.54829 5.13663 0
M  V30 36053 N 3445.27 3.20857 6.14022 0
M  V30 36054 N 3447.06 2.4476 5.06013 0
M  V30 36055 H 3439.21 1.71716 1.25009 0
M  V30 36056 H 3441.48 0.72795 0.607283 0
M  V30 36057 H 3441.18 2.28322 2.67511 0
M  V30 36058 H 3441.06 0.847163 3.67564 0
M  V30 36059 H 3443.44 0.175554 2.94577 0
M  V30 36060 H 3443.52 1.64306 1.96054 0
M  V30 36061 H 3443.17 3.0475 4.06313 0
M  V30 36062 H 3443.1 1.55382 5.03154 0
M  V30 36063 H 3445.59 1.49429 3.47101 0
M  V30 36064 H 3445.9 3.62011 6.82765 0
M  V30 36065 H 3444.25 3.24952 6.14354 0
M  V30 36066 H 3447.44 1.92805 4.26549 0
M  V30 36067 H 3447.61 2.89723 5.79624 0
M  V30 36068 N 3441.02 -1.49371 0.502605 0
M  V30 36069 C 3442.24 -2.07361 -0.0402723 0
M  V30 36070 C 3442.67 -1.36028 -1.29916 0
M  V30 36071 O 3442.02 -0.417519 -1.76427 0
M  V30 36072 C 3442.07 -3.59548 -0.275298 0
M  V30 36073 O 3441.18 -3.89689 -1.34968 0
M  V30 36074 H 3440.52 -0.663453 0.0269384 0
M  V30 36075 H 3443.05 -1.92155 0.702686 0
M  V30 36076 H 3443.06 -4.04846 -0.50632 0
M  V30 36077 H 3441.73 -4.10877 0.644455 0
M  V30 36078 H 3440.31 -3.56199 -1.10349 0
M  V30 36079 N 3442.49 -0.236508 -1.55815 0
M  V30 36080 C 3443.72 0.394975 -2.02789 0
M  V30 36081 C 3444.13 1.5283 -1.11532 0
M  V30 36082 O 3443.48 1.83307 -0.120116 0
M  V30 36083 C 3443.54 0.974006 -3.46054 0
M  V30 36084 C 3443.2 -0.0257629 -4.56993 0
M  V30 36085 C 3444.2 -0.831567 -5.13207 0
M  V30 36086 C 3441.88 -0.148847 -5.02079 0
M  V30 36087 C 3443.88 -1.74701 -6.12991 0
M  V30 36088 C 3441.56 -1.06781 -6.01698 0
M  V30 36089 C 3442.56 -1.86543 -6.57032 0
M  V30 36090 O 3442.25 -2.76892 -7.54709 0
M  V30 36091 H 3441.98 0.099257 -0.668673 0
M  V30 36092 H 3444.54 -0.354862 -2.02311 0
M  V30 36093 H 3442.77 1.77321 -3.43648 0
M  V30 36094 H 3444.46 1.51447 -3.76588 0
M  V30 36095 H 3445.22 -0.747006 -4.79213 0
M  V30 36096 H 3441.1 0.461895 -4.5868 0
M  V30 36097 H 3444.64 -2.37001 -6.56107 0
M  V30 36098 H 3440.54 -1.15333 -6.35113 0
M  V30 36099 H 3441.31 -2.71135 -7.72287 0
M  V30 36100 N 3443.97 1.57557 0.0367273 0
M  V30 36101 C 3444.92 2.07135 1.05819 0
M  V30 36102 C 3445.91 0.98357 1.37921 0
M  V30 36103 O 3447.12 1.1685 1.36916 0
M  V30 36104 H 3443.5 0.660911 0.358749 0
M  V30 36105 H 3445.47 2.92011 0.614181 0
M  V30 36106 C 3444.22 2.55989 2.35298 0
M  V30 36107 H 3443.54 3.39303 2.11455 0
M  V30 36108 H 3444.98 2.94396 3.05134 0
M  V30 36109 C 3443.44 1.45778 3.03727 0
M  V30 36110 O 3443.97 0.819657 3.93249 0
M  V30 36111 N 3442.17 1.19421 2.64928 0
M  V30 36112 H 3441.72 1.71496 1.92216 0
M  V30 36113 H 3441.68 0.458919 3.11033 0
M  V30 36114 N 3445.45 -0.308854 1.54544 0
M  V30 36115 C 3446.68 -1.06265 1.77176 0
M  V30 36116 C 3447.09 -1.81698 0.527493 0
M  V30 36117 O 3446.43 -1.76421 -0.511996 0
M  V30 36118 C 3446.49 -2.0954 2.92119 0
M  V30 36119 C 3446.16 -1.53373 4.30495 0
M  V30 36120 C 3447.16 -0.967833 5.10812 0
M  V30 36121 C 3444.84 -1.57172 4.77077 0
M  V30 36122 C 3446.83 -0.447405 6.35828 0
M  V30 36123 C 3444.52 -1.04742 6.02057 0
M  V30 36124 C 3445.52 -0.486225 6.81267 0
M  V30 36125 O 3445.21 0.0301468 8.03894 0
M  V30 36126 H 3444.94 -0.32127 0.594779 0
M  V30 36127 H 3447.49 -0.356101 2.0229 0
M  V30 36128 H 3445.72 -2.83853 2.62611 0
M  V30 36129 H 3447.41 -2.70758 3.02399 0
M  V30 36130 H 3448.18 -0.931439 4.75972 0
M  V30 36131 H 3444.06 -1.99792 4.15456 0
M  V30 36132 H 3447.6 -0.0087195 6.97599 0
M  V30 36133 H 3443.5 -1.08094 6.36385 0
M  V30 36134 H 3444.27 -0.0838942 8.18457 0
M  V30 36135 N 3446.93 -1.46867 -0.571659 0
M  V30 36136 C 3447.89 -1.57835 -1.66195 0
M  V30 36137 C 3448.89 -0.454574 -1.54241 0
M  V30 36138 O 3450.08 -0.719219 -1.5866 0
M  V30 36139 C 3447.21 -1.50915 -3.05675 0
M  V30 36140 H 3448.41 -2.55012 -1.57825 0
M  V30 36141 H 3445.96 -1.34841 -0.79041 0
M  V30 36142 H 3446.7 -0.550585 -3.19592 0
M  V30 36143 H 3446.48 -2.32459 -3.15761 0
M  V30 36144 H 3447.97 -1.61699 -3.85024 0
M  V30 36145 N 3448.41 0.817212 -1.34757 0
M  V30 36146 C 3449.65 1.57608 -1.27623 0
M  V30 36147 C 3449.99 1.93604 0.151983 0
M  V30 36148 O 3449.26 1.6049 1.09878 0
M  V30 36149 C 3449.54 2.87179 -2.17256 0
M  V30 36150 C 3449.4 2.57726 -3.68642 0
M  V30 36151 C 3450.72 3.88798 -2.06213 0
M  V30 36152 H 3447.84 0.571837 -0.464943 0
M  V30 36153 H 3450.48 0.940999 -1.65061 0
M  V30 36154 H 3448.63 3.41376 -1.85458 0
M  V30 36155 H 3450.3 2.09795 -4.10833 0
M  V30 36156 H 3448.54 1.91082 -3.89449 0
M  V30 36157 H 3449.21 3.50148 -4.26732 0
M  V30 36158 H 3451.69 3.43971 -2.34143 0
M  V30 36159 H 3450.57 4.77254 -2.71145 0
M  V30 36160 H 3450.83 4.29673 -1.04083 0
M  V30 36161 N 3449.89 1.1858 1.0381 0
M  V30 36162 C 3451.11 1.00834 1.81238 0
M  V30 36163 C 3451.54 -0.438498 1.82917 0
M  V30 36164 O 3450.89 -1.31474 1.24837 0
M  V30 36165 C 3450.94 1.57081 3.24589 0
M  V30 36166 O 3450.05 0.793895 4.04686 0
M  V30 36167 H 3449.39 0.357038 0.559839 0
M  V30 36168 H 3451.92 1.57395 1.30721 0
M  V30 36169 H 3451.93 1.59903 3.7536 0
M  V30 36170 H 3450.6 2.62392 3.22681 0
M  V30 36171 H 3449.18 0.838198 3.63357 0
M  V30 36172 N 3451.36 -1.22766 0.988245 0
M  V30 36173 C 3452.59 -1.95954 0.679461 0
M  V30 36174 C 3453.01 -1.72568 -0.748453 0
M  V30 36175 O 3452.37 -1.002 -1.51095 0
M  V30 36176 C 3452.42 -3.46876 0.985345 0
M  V30 36177 O 3451.52 -4.12319 0.0815332 0
M  V30 36178 H 3450.86 -0.613183 0.25476 0
M  V30 36179 H 3453.39 -1.55988 1.32396 0
M  V30 36180 H 3453.4 -3.9737 0.925268 0
M  V30 36181 H 3452.08 -3.63224 2.02587 0
M  V30 36182 H 3450.66 -3.72381 0.196694 0
M  V30 36183 N 3452.84 -0.760864 -1.38017 0
M  V30 36184 C 3453.8 -0.146195 -2.28733 0
M  V30 36185 C 3454.8 0.639742 -1.47526 0
M  V30 36186 O 3455.99 0.464935 -1.67881 0
M  V30 36187 C 3453.13 0.800961 -3.31357 0
M  V30 36188 H 3454.32 -0.945742 -2.84597 0
M  V30 36189 H 3451.87 -0.528348 -1.47099 0
M  V30 36190 H 3452.61 1.62592 -2.80597 0
M  V30 36191 H 3452.39 0.239706 -3.91367 0
M  V30 36192 H 3453.88 1.2268 -3.99173 0
M  V30 36193 N 3454.32 1.49102 -0.510519 0
M  V30 36194 C 3455.57 2.02477 0.030608 0
M  V30 36195 C 3455.89 1.38939 1.36111 0
M  V30 36196 O 3455.15 0.517618 1.88731 0
M  V30 36197 C 3455.45 3.56711 0.221859 0
M  V30 36198 C 3455.11 4.38935 -1.03183 0
M  V30 36199 C 3453.78 4.61123 -1.37547 0
M  V30 36200 C 3456.13 4.86701 -1.86472 0
M  V30 36201 C 3453.46 5.28322 -2.55133 0
M  V30 36202 C 3455.81 5.55194 -3.0322 0
M  V30 36203 C 3454.47 5.75625 -3.37953 0
M  V30 36204 H 3453.74 0.740915 0.0112003 0
M  V30 36205 H 3456.39 1.79299 -0.672605 0
M  V30 36206 H 3454.69 3.7862 1.00768 0
M  V30 36207 H 3456.39 3.95612 0.655153 0
M  V30 36208 H 3452.98 4.21912 -0.754179 0
M  V30 36209 H 3457.17 4.69378 -1.61238 0
M  V30 36210 H 3452.42 5.42341 -2.82269 0
M  V30 36211 H 3456.6 5.91178 -3.68078 0
M  V30 36212 H 3454.22 6.2747 -4.29169 0
M  V30 36213 N 3455.8 0.244768 1.55688 0
M  V30 36214 C 3457.04 -0.374266 1.99927 0
M  V30 36215 C 3457.4 -1.55721 1.12999 0
M  V30 36216 O 3456.69 -1.90704 0.185059 0
M  V30 36217 C 3456.89 -0.835862 3.47488 0
M  V30 36218 C 3456.71 0.300807 4.48693 0
M  V30 36219 C 3455.48 0.774794 4.99325 0
M  V30 36220 C 3457.68 1.12708 5.01798 0
M  V30 36221 N 3455.66 1.8841 5.84273 0
M  V30 36222 C 3457.04 2.0848 5.83897 0
M  V30 36223 C 3459.09 1.16388 4.84106 0
M  V30 36224 C 3457.79 3.07641 6.50192 0
M  V30 36225 C 3459.82 2.14378 5.51177 0
M  V30 36226 C 3459.18 3.08887 6.33063 0
M  V30 36227 H 3455.28 -0.10297 0.775191 0
M  V30 36228 H 3457.86 0.361857 1.91308 0
M  V30 36229 H 3456.04 -1.54128 3.5651 0
M  V30 36230 H 3457.77 -1.42967 3.78606 0
M  V30 36231 H 3454.52 0.35931 4.72235 0
M  V30 36232 H 3454.95 2.44145 6.31445 0
M  V30 36233 H 3459.59 0.44708 4.2043 0
M  V30 36234 H 3457.31 3.8027 7.13036 0
M  V30 36235 H 3460.89 2.17929 5.39442 0
M  V30 36236 H 3459.77 3.83472 6.84046 0
M  V30 36237 N 3457.28 -1.57574 -0.0283712 0
M  V30 36238 C 3458.21 -2.09641 -1.02825 0
M  V30 36239 C 3459.19 -0.9991 -1.37666 0
M  V30 36240 O 3460.37 -1.27437 -1.46538 0
M  V30 36241 C 3457.5 -2.57637 -2.32896 0
M  V30 36242 C 3456.46 -3.71638 -2.12294 0
M  V30 36243 C 3455.78 -4.05843 -3.48131 0
M  V30 36244 C 3457.08 -5.0004 -1.50855 0
M  V30 36245 H 3458.78 -2.93432 -0.594825 0
M  V30 36246 H 3456.32 -1.41158 -0.284677 0
M  V30 36247 H 3458.27 -2.92683 -3.03174 0
M  V30 36248 H 3457 -1.7093 -2.78299 0
M  V30 36249 H 3455.66 -3.36943 -1.44448 0
M  V30 36250 H 3455.31 -3.16202 -3.91184 0
M  V30 36251 H 3455.01 -4.82632 -3.35172 0
M  V30 36252 H 3456.53 -4.43424 -4.19771 0
M  V30 36253 H 3457.94 -5.33038 -2.11052 0
M  V30 36254 H 3456.34 -5.81444 -1.48469 0
M  V30 36255 H 3457.41 -4.82573 -0.474456 0
M  V30 36256 N 3458.75 0.300654 -1.54706 0
M  V30 36257 C 3460 1.03582 -1.74003 0
M  V30 36258 C 3460.33 1.87252 -0.526005 0
M  V30 36259 O 3459.58 1.89414 0.492035 0
M  V30 36260 C 3459.88 1.97042 -2.98176 0
M  V30 36261 C 3459.55 1.29345 -4.3195 0
M  V30 36262 C 3458.21 1.10615 -4.68314 0
M  V30 36263 C 3460.56 0.809504 -5.14875 0
M  V30 36264 C 3457.89 0.421747 -5.85182 0
M  V30 36265 C 3460.24 0.138823 -6.32448 0
M  V30 36266 C 3458.91 -0.0604302 -6.67473 0
M  V30 36267 H 3458.18 0.379032 -0.636722 0
M  V30 36268 H 3460.82 0.310664 -1.88963 0
M  V30 36269 H 3459.13 2.76087 -2.77999 0
M  V30 36270 H 3460.83 2.53996 -3.10302 0
M  V30 36271 H 3457.42 1.4493 -4.03353 0
M  V30 36272 H 3461.6 0.94192 -4.8728 0
M  V30 36273 H 3456.86 0.256387 -6.10862 0
M  V30 36274 H 3461.03 -0.244061 -6.95972 0
M  V30 36275 H 3458.66 -0.592759 -7.57885 0
M  V30 36276 N 3460.23 1.47168 0.563863 0
M  V30 36277 C 3461.46 1.57055 1.3469 0
M  V30 36278 C 3461.88 0.218341 1.87533 0
M  V30 36279 O 3461.23 -0.787387 1.6464 0
M  V30 36280 C 3461.28 2.59049 2.52143 0
M  V30 36281 O 3461 3.89018 2.01485 0
M  V30 36282 C 3462.51 2.79056 3.44445 0
M  V30 36283 H 3459.73 0.530541 0.410813 0
M  V30 36284 H 3462.27 1.92733 0.683697 0
M  V30 36285 H 3460.42 2.26323 3.14415 0
M  V30 36286 H 3460.84 4.44694 2.78114 0
M  V30 36287 H 3462.31 3.543 4.23291 0
M  V30 36288 H 3462.79 1.86638 3.97571 0
M  V30 36289 H 3463.4 3.12953 2.87994 0
M  V30 36290 N 3461.71 -0.810054 1.35188 0
M  V30 36291 C 3462.66 -1.91092 1.2437 0
M  V30 36292 C 3463.64 -1.60292 0.139746 0
M  V30 36293 O 3464.84 -1.73076 0.37064 0
M  V30 36294 C 3461.97 -3.27971 1.0144 0
M  V30 36295 C 3461.05 -3.64848 2.1621 0
M  V30 36296 N 3461.44 -3.73189 3.41414 0
M  V30 36297 C 3459.74 -3.94781 2.07519 0
M  V30 36298 C 3460.44 -4.05707 4.16865 0
M  V30 36299 N 3459.42 -4.19608 3.45586 0
M  V30 36300 H 3463.22 -1.95737 2.19235 0
M  V30 36301 H 3460.73 -1.00445 1.27611 0
M  V30 36302 H 3462.73 -4.06672 0.917781 0
M  V30 36303 H 3461.39 -3.24614 0.0745521 0
M  V30 36304 H 3462.4 -3.56354 3.75808 0
M  V30 36305 H 3459.08 -3.99469 1.21369 0
M  V30 36306 H 3460.47 -4.19257 5.25046 0
M  V30 36307 N 3463.19 -1.19129 -1.0318 0
M  V30 36308 C 3464.44 -0.986446 -1.75932 0
M  V30 36309 C 3464.75 0.483887 -1.8952 0
M  V30 36310 O 3465.96 0.807475 -2.59214 0
M  V30 36311 C 3464.41 -1.71603 -3.16355 0
M  V30 36312 C 3464.02 -3.22627 -3.10831 0
M  V30 36313 C 3465.76 -1.59432 -3.93423 0
M  V30 36314 C 3463.67 -3.88187 -4.46167 0
M  V30 36315 H 3462.6 -0.365463 -0.65951 0
M  V30 36316 H 3465.25 -1.42595 -1.15494 0
M  V30 36317 H 3463.63 -1.20433 -3.77242 0
M  V30 36318 H 3464.81 -3.80892 -2.59341 0
M  V30 36319 H 3463.12 -3.3504 -2.4726 0
M  V30 36320 H 3465.72 -2.05766 -4.93522 0
M  V30 36321 H 3466.06 -0.547999 -4.12677 0
M  V30 36322 H 3466.6 -2.07931 -3.3913 0
M  V30 36323 H 3463.34 -4.92905 -4.32117 0
M  V30 36324 H 3462.86 -3.34711 -4.97724 0
M  V30 36325 H 3464.53 -3.91565 -5.15059 0
M  V30 36326 N 3464.67 1.2224 -0.994741 0
M  V30 36327 C 3466.08 1.72817 -0.706486 0
M  V30 36328 C 3466.43 1.80179 0.776535 0
M  V30 36329 O 3465.55 1.44934 1.60696 0
M  V30 36330 C 3466.15 3.13862 -1.27577 0
M  V30 36331 C 3464.71 3.61837 -1.03686 0
M  V30 36332 C 3463.85 2.39665 -1.39484 0
M  V30 36333 H 3466.81 1.07562 -1.16688 0
M  V30 36334 H 3466.83 3.74815 -0.655267 0
M  V30 36335 H 3466.34 3.08472 -2.35513 0
M  V30 36336 H 3464.44 3.72591 0.0258024 0
M  V30 36337 H 3464.55 4.47867 -1.70153 0
M  V30 36338 H 3462.92 2.41361 -0.81346 0
M  V30 36339 H 3463.7 2.36935 -2.48429 0
M  V30 36340 N 3466.14 0.768172 1.37611 0
M  V30 36341 C 3467.08 0.0983951 2.27988 0
M  V30 36342 C 3468.06 -0.712913 1.46138 0
M  V30 36343 O 3469.24 -0.688439 1.75479 0
M  V30 36344 C 3466.37 -0.867028 3.27415 0
M  V30 36345 C 3465.41 -0.14016 4.2627 0
M  V30 36346 S 3466.25 1.16931 5.22578 0
M  V30 36347 C 3467.4 0.207331 6.25557 0
M  V30 36348 H 3467.63 0.864743 2.84446 0
M  V30 36349 H 3465.17 0.561401 1.43832 0
M  V30 36350 H 3467.13 -1.41865 3.85207 0
M  V30 36351 H 3465.79 -1.60646 2.69911 0
M  V30 36352 H 3464.98 -0.87189 4.96401 0
M  V30 36353 H 3464.58 0.340359 3.72448 0
M  V30 36354 H 3466.87 -0.621535 6.74643 0
M  V30 36355 H 3467.82 0.876718 7.02652 0
M  V30 36356 H 3468.22 -0.179868 5.64213 0
M  V30 36357 N 3467.62 -1.48829 0.518419 0
M  V30 36358 C 3468.59 -2.27942 -0.23979 0
M  V30 36359 C 3469.59 -1.34696 -0.878278 0
M  V30 36360 O 3470.78 -1.57696 -0.740114 0
M  V30 36361 C 3467.91 -3.13213 -1.34575 0
M  V30 36362 H 3469.1 -2.96434 0.454651 0
M  V30 36363 H 3466.65 -1.5388 0.273959 0
M  V30 36364 H 3467.39 -2.49326 -2.07381 0
M  V30 36365 H 3467.17 -3.81791 -0.893184 0
M  V30 36366 H 3468.66 -3.7292 -1.87938 0
M  V30 36367 N 3469.1 -0.253021 -1.55556 0
M  V30 36368 C 3470.35 0.369285 -1.98698 0
M  V30 36369 C 3470.67 1.58019 -1.14258 0
M  V30 36370 O 3469.94 1.94583 -0.226813 0
M  V30 36371 H 3468.52 0.139431 -0.733872 0
M  V30 36372 H 3471.18 -0.353231 -1.91672 0
M  V30 36373 H 3470.28 0.674258 -3.0473 0
M  V30 36374 N 3470.58 1.57587 0.0200142 0
M  V30 36375 C 3471.51 2.10183 1.01712 0
M  V30 36376 C 3472.49 1.00639 1.37134 0
M  V30 36377 O 3473.67 1.28213 1.4586 0
M  V30 36378 C 3470.8 2.58869 2.31526 0
M  V30 36379 C 3469.76 3.72759 2.1032 0
M  V30 36380 C 3469.08 4.07684 3.45974 0
M  V30 36381 C 3470.38 5.00833 1.48201 0
M  V30 36382 H 3472.08 2.93743 0.579255 0
M  V30 36383 H 3469.62 1.41307 0.277187 0
M  V30 36384 H 3471.58 2.94287 3.01618 0
M  V30 36385 H 3470.3 1.72404 2.77389 0
M  V30 36386 H 3468.96 3.37704 1.42659 0
M  V30 36387 H 3468.61 3.18272 3.89502 0
M  V30 36388 H 3468.31 4.84403 3.32608 0
M  V30 36389 H 3469.83 4.45644 4.17413 0
M  V30 36390 H 3471.25 5.3415 2.08222 0
M  V30 36391 H 3469.64 5.82223 1.45383 0
M  V30 36392 H 3470.71 4.82818 0.448857 0
M  V30 36393 N 3472.06 -0.292445 1.54863 0
M  V30 36394 C 3473.3 -1.0281 1.74809 0
M  V30 36395 C 3473.64 -1.86629 0.536968 0
M  V30 36396 O 3472.91 -1.8884 -0.46582 0
M  V30 36397 C 3473.19 -1.92695 3.04205 0
M  V30 36398 C 3473.05 -1.11998 4.35633 0
M  V30 36399 C 3474.37 -2.91728 3.29519 0
M  V30 36400 H 3471.48 -0.372351 0.636022 0
M  V30 36401 H 3474.13 -0.302036 1.87584 0
M  V30 36402 H 3472.28 -2.54603 2.93445 0
M  V30 36403 H 3473.95 -0.523109 4.58324 0
M  V30 36404 H 3472.19 -0.422904 4.31734 0
M  V30 36405 H 3472.86 -1.78163 5.22458 0
M  V30 36406 H 3475.34 -2.39951 3.39945 0
M  V30 36407 H 3474.21 -3.51779 4.21358 0
M  V30 36408 H 3474.48 -3.65839 2.48223 0
M  V30 36409 N 3473.53 -1.47465 -0.55605 0
M  V30 36410 C 3474.95 -1.33009 -0.882091 0
M  V30 36411 C 3475.15 -0.321442 -1.9892 0
M  V30 36412 O 3474.21 0.266624 -2.51088 0
M  V30 36413 C 3475.52 -2.72367 -1.27423 0
M  V30 36414 C 3477.07 -2.8066 -1.38559 0
M  V30 36415 C 3477.54 -4.20662 -1.81128 0
M  V30 36416 N 3479.03 -4.23209 -1.88277 0
M  V30 36417 C 3479.77 -5.28451 -2.22546 0
M  V30 36418 N 3479.26 -6.43997 -2.55421 0
M  V30 36419 N 3481.06 -5.1583 -2.2333 0
M  V30 36420 H 3473.21 -2.11679 0.174847 0
M  V30 36421 H 3475.47 -0.947872 0.0155588 0
M  V30 36422 H 3475.18 -3.47614 -0.534569 0
M  V30 36423 H 3475.05 -3.04212 -2.23013 0
M  V30 36424 H 3477.44 -2.05686 -2.11607 0
M  V30 36425 H 3477.52 -2.52468 -0.411543 0
M  V30 36426 H 3477.16 -4.96143 -1.0865 0
M  V30 36427 H 3477.09 -4.4628 -2.79538 0
M  V30 36428 H 3479.58 -3.39853 -1.65253 0
M  V30 36429 H 3479.9 -7.20058 -2.806 0
M  V30 36430 H 3478.24 -6.47315 -2.52998 0
M  V30 36431 H 3481.43 -4.24587 -1.97087 0
M  V30 36432 H 3481.61 -5.97955 -2.49707 0
M  V30 36433 N 3475.01 0.802873 -1.35616 0
M  V30 36434 C 3475.95 1.92089 -1.23195 0
M  V30 36435 C 3476.92 1.62164 -0.119023 0
M  V30 36436 O 3478.11 1.8629 -0.287776 0
M  V30 36437 C 3475.24 3.26585 -0.897756 0
M  V30 36438 C 3474.28 3.75455 -2.02325 0
M  V30 36439 S 3475.11 3.92816 -3.63945 0
M  V30 36440 C 3476.27 5.30209 -3.3261 0
M  V30 36441 H 3476.5 2.02331 -2.17829 0
M  V30 36442 H 3474.04 0.960654 -1.20875 0
M  V30 36443 H 3475.99 4.04283 -0.711745 0
M  V30 36444 H 3474.66 3.14085 0.0305753 0
M  V30 36445 H 3473.85 4.72877 -1.74366 0
M  V30 36446 H 3473.45 3.04767 -2.16779 0
M  V30 36447 H 3475.74 6.14329 -2.85669 0
M  V30 36448 H 3476.69 5.63164 -4.29246 0
M  V30 36449 H 3477.09 4.96671 -2.68287 0
M  V30 36450 N 3476.49 1.19674 1.02547 0
M  V30 36451 C 3477.72 1.02534 1.79361 0
M  V30 36452 C 3478.13 -0.428898 1.84275 0
M  V30 36453 O 3477.47 -1.30967 1.28816 0
M  V30 36454 C 3477.53 1.52254 3.25667 0
M  V30 36455 C 3477.2 3.00418 3.44381 0
M  V30 36456 C 3478.2 3.98152 3.34322 0
M  V30 36457 C 3475.88 3.39185 3.70485 0
M  V30 36458 C 3477.87 5.32646 3.50096 0
M  V30 36459 C 3475.56 4.73837 3.85904 0
M  V30 36460 C 3476.56 5.70376 3.75713 0
M  V30 36461 O 3476.25 7.02588 3.90672 0
M  V30 36462 H 3475.98 0.361554 0.571187 0
M  V30 36463 H 3478.53 1.59004 1.30026 0
M  V30 36464 H 3476.76 0.901614 3.76042 0
M  V30 36465 H 3478.45 1.31269 3.84088 0
M  V30 36466 H 3479.22 3.69547 3.14102 0
M  V30 36467 H 3475.1 2.64591 3.77508 0
M  V30 36468 H 3478.64 6.07982 3.42058 0
M  V30 36469 H 3474.54 5.02136 4.05622 0
M  V30 36470 H 3475.31 7.0971 4.07743 0
M  V30 36471 N 3477.97 -1.21711 1.00121 0
M  V30 36472 C 3478.92 -2.25968 0.551491 0
M  V30 36473 C 3479.91 -1.6456 -0.402046 0
M  V30 36474 O 3481.12 -1.77908 -0.273654 0
M  V30 36475 H 3477.49 -0.734786 0.15998 0
M  V30 36476 H 3479.46 -2.61242 1.44206 0
M  V30 36477 C 3478.21 -3.47526 -0.109931 0
M  V30 36478 H 3477.54 -3.95045 0.614756 0
M  V30 36479 H 3478.98 -4.22222 -0.387933 0
M  V30 36480 C 3477.43 -3.0876 -1.34792 0
M  V30 36481 O 3477.96 -3.18904 -2.4426 0
M  V30 36482 N 3476.17 -2.6346 -1.22626 0
M  V30 36483 H 3475.72 -2.55406 -0.335526 0
M  V30 36484 H 3475.68 -2.37891 -2.05561 0
M  V30 36485 N 3479.45 -0.775459 -1.37202 0
M  V30 36486 C 3480.38 -0.178301 -2.32818 0
M  V30 36487 C 3481.36 0.678916 -1.55964 0
M  V30 36488 O 3482.54 0.615615 -1.84184 0
M  V30 36489 C 3479.67 0.698708 -3.40199 0
M  V30 36490 C 3478.63 -0.0574982 -4.27961 0
M  V30 36491 C 3477.95 0.939198 -5.26387 0
M  V30 36492 C 3479.25 -1.23865 -5.074 0
M  V30 36493 H 3480.95 -0.977078 -2.83008 0
M  V30 36494 H 3478.49 -0.471298 -1.36069 0
M  V30 36495 H 3480.45 1.1263 -4.06069 0
M  V30 36496 H 3479.17 1.53004 -2.88543 0
M  V30 36497 H 3477.83 -0.465912 -3.63627 0
M  V30 36498 H 3477.48 1.76518 -4.7101 0
M  V30 36499 H 3477.18 0.437741 -5.85967 0
M  V30 36500 H 3478.7 1.36565 -5.95132 0
M  V30 36501 H 3480.12 -0.887523 -5.66388 0
M  V30 36502 H 3478.51 -1.67245 -5.76324 0
M  V30 36503 H 3479.58 -2.04093 -4.39857 0
M  V30 36504 N 3480.93 1.48552 -0.526305 0
M  V30 36505 C 3481.86 2.32391 0.227323 0
M  V30 36506 C 3482.84 1.41861 0.938595 0
M  V30 36507 O 3484.02 1.70751 0.925089 0
M  V30 36508 C 3481.15 3.22973 1.27694 0
M  V30 36509 C 3480.11 4.22499 0.684033 0
M  V30 36510 C 3479.43 5.02189 1.83603 0
M  V30 36511 C 3480.73 5.2118 -0.341814 0
M  V30 36512 H 3482.43 2.95647 -0.472538 0
M  V30 36513 H 3479.97 1.42172 -0.228694 0
M  V30 36514 H 3481.92 3.80449 1.81208 0
M  V30 36515 H 3480.65 2.57709 2.00633 0
M  V30 36516 H 3479.31 3.66204 0.170441 0
M  V30 36517 H 3478.96 4.33353 2.55371 0
M  V30 36518 H 3478.66 5.69549 1.44526 0
M  V30 36519 H 3480.18 5.62516 2.37503 0
M  V30 36520 H 3481.59 5.73202 0.106107 0
M  V30 36521 H 3479.99 5.96572 -0.649777 0
M  V30 36522 H 3481.06 4.68541 -1.24888 0
M  V30 36523 N 3482.4 0.261267 1.55419 0
M  V30 36524 C 3483.37 -0.618972 2.20684 0
M  V30 36525 C 3484.37 -1.09189 1.18044 0
M  V30 36526 O 3485.56 -0.994295 1.43036 0
M  V30 36527 C 3482.69 -1.85237 2.86182 0
M  V30 36528 H 3483.88 -0.0493397 2.99859 0
M  V30 36529 H 3481.43 0.0117962 1.56296 0
M  V30 36530 H 3482.17 -2.46287 2.10982 0
M  V30 36531 H 3481.95 -1.52132 3.61384 0
M  V30 36532 H 3483.44 -2.47863 3.36086 0
M  V30 36533 N 3483.88 -1.57596 -0.0116567 0
M  V30 36534 C 3485.12 -1.9191 -0.703564 0
M  V30 36535 C 3485.49 -0.861658 -1.71579 0
M  V30 36536 O 3486.69 -1.08967 -2.45722 0
M  V30 36537 C 3484.96 -3.31319 -1.34025 0
M  V30 36538 S 3486.52 -3.87498 -2.0589 0
M  V30 36539 H 3483.33 -0.67185 -0.232678 0
M  V30 36540 H 3485.94 -1.95454 0.0422317 0
M  V30 36541 H 3484.64 -4.06129 -0.590546 0
M  V30 36542 H 3484.17 -3.3112 -2.12423 0
M  V30 36543 H 3486.19 -3.67631 -3.33259 0
M  V30 36544 N 3485.36 0.284228 -1.55016 0
M  V30 36545 C 3486.29 1.35546 -1.9013 0
M  V30 36546 C 3487.27 1.52081 -0.76194 0
M  V30 36547 O 3488.46 1.6531 -1.01912 0
M  V30 36548 C 3485.59 2.71691 -2.16336 0
M  V30 36549 C 3484.54 2.69901 -3.3217 0
M  V30 36550 C 3483.87 4.09492 -3.43831 0
M  V30 36551 C 3485.17 2.3016 -4.68854 0
M  V30 36552 H 3486.86 1.06406 -2.79854 0
M  V30 36553 H 3484.41 0.510427 -1.3465 0
M  V30 36554 H 3486.36 3.46733 -2.39488 0
M  V30 36555 H 3485.08 3.0239 -1.23401 0
M  V30 36556 H 3483.74 1.97317 -3.08969 0
M  V30 36557 H 3483.39 4.37396 -2.48382 0
M  V30 36558 H 3483.09 4.09193 -4.21705 0
M  V30 36559 H 3484.61 4.8629 -3.69262 0
M  V30 36560 H 3486.03 2.94921 -4.91624 0
M  V30 36561 H 3484.42 2.41042 -5.49562 0
M  V30 36562 H 3485.49 1.25286 -4.68435 0
M  V30 36563 N 3486.84 1.47758 0.548222 0
M  V30 36564 C 3488.08 1.56055 1.30455 0
M  V30 36565 C 3488.44 0.223663 1.91096 0
M  V30 36566 O 3487.73 -0.771613 1.75376 0
M  V30 36567 C 3487.93 2.62166 2.42906 0
M  V30 36568 C 3487.75 4.06043 1.93286 0
M  V30 36569 C 3486.52 4.7339 1.76719 0
M  V30 36570 C 3488.72 4.92783 1.47205 0
M  V30 36571 N 3486.7 6.0175 1.21532 0
M  V30 36572 C 3488.08 6.11242 1.03844 0
M  V30 36573 C 3490.13 4.79153 1.35339 0
M  V30 36574 C 3488.83 7.17574 0.49796 0
M  V30 36575 C 3490.86 5.8559 0.82692 0
M  V30 36576 C 3490.22 7.03245 0.403286 0
M  V30 36577 H 3486.32 0.625702 0.469064 0
M  V30 36578 H 3488.9 1.84552 0.620373 0
M  V30 36579 H 3487.08 2.35522 3.08843 0
M  V30 36580 H 3488.81 2.60254 3.09919 0
M  V30 36581 H 3485.56 4.29437 1.99702 0
M  V30 36582 H 3485.99 6.70159 0.960014 0
M  V30 36583 H 3490.63 3.88549 1.66701 0
M  V30 36584 H 3488.35 8.07917 0.171981 0
M  V30 36585 H 3491.93 5.77093 0.738539 0
M  V30 36586 H 3490.81 7.842 0.00222554 0
M  V30 36587 N 3488.32 -0.79567 1.3604 0
M  V30 36588 C 3489.25 -1.92244 1.32531 0
M  V30 36589 C 3490.23 -1.68946 0.197835 0
M  V30 36590 O 3491.41 -1.90151 0.394508 0
M  V30 36591 C 3488.54 -3.29167 1.10754 0
M  V30 36592 C 3487.5 -3.66974 2.20259 0
M  V30 36593 C 3486.82 -5.02178 1.83633 0
M  V30 36594 C 3488.12 -3.7621 3.62303 0
M  V30 36595 H 3489.82 -1.95438 2.26814 0
M  V30 36596 H 3487.36 -0.938889 1.09183 0
M  V30 36597 H 3489.31 -4.07606 1.06936 0
M  V30 36598 H 3488.04 -3.26344 0.129198 0
M  V30 36599 H 3486.7 -2.90828 2.23192 0
M  V30 36600 H 3486.35 -4.9587 0.843891 0
M  V30 36601 H 3486.05 -5.28444 2.56944 0
M  V30 36602 H 3487.57 -5.83045 1.8136 0
M  V30 36603 H 3488.98 -4.44855 3.61631 0
M  V30 36604 H 3487.38 -4.13955 4.34466 0
M  V30 36605 H 3488.45 -2.77476 3.97662 0
M  V30 36606 N 3489.79 -1.20217 -1.0191 0
M  V30 36607 C 3490.72 -0.972598 -2.1228 0
M  V30 36608 C 3491.71 0.097541 -1.6982 0
M  V30 36609 O 3492.89 -0.0594648 -1.94109 0
M  V30 36610 C 3490.02 -0.521145 -3.43368 0
M  V30 36611 C 3488.97 -1.53424 -3.99556 0
M  V30 36612 C 3488.3 -0.939512 -5.26381 0
M  V30 36613 C 3489.6 -2.91726 -4.33236 0
M  V30 36614 H 3491.29 -1.89567 -2.31743 0
M  V30 36615 H 3488.84 -0.91286 -1.11368 0
M  V30 36616 H 3490.79 -0.347786 -4.19962 0
M  V30 36617 H 3489.52 0.437549 -3.23656 0
M  V30 36618 H 3488.18 -1.69492 -3.25066 0
M  V30 36619 H 3487.82 0.0270352 -5.02993 0
M  V30 36620 H 3487.52 -1.6161 -5.64939 0
M  V30 36621 H 3489.05 -0.777166 -6.05634 0
M  V30 36622 H 3490.46 -2.79184 -5.00729 0
M  V30 36623 H 3488.86 -3.56268 -4.82901 0
M  V30 36624 H 3489.93 -3.43639 -3.42112 0
M  V30 36625 N 3491.27 1.21178 -1.00765 0
M  V30 36626 C 3492.69 1.42389 -0.72093 0
M  V30 36627 C 3492.89 1.88843 0.702885 0
M  V30 36628 O 3491.94 2.05164 1.47187 0
M  V30 36629 C 3493.26 2.45312 -1.73904 0
M  V30 36630 C 3494.81 2.59091 -1.75616 0
M  V30 36631 C 3495.28 3.65248 -2.76329 0
M  V30 36632 N 3496.77 3.72722 -2.75014 0
M  V30 36633 C 3497.51 4.54496 -3.49602 0
M  V30 36634 N 3497 5.40145 -4.33838 0
M  V30 36635 N 3498.8 4.48944 -3.3824 0
M  V30 36636 H 3490.95 0.89337 -1.92698 0
M  V30 36637 H 3493.21 0.454591 -0.831896 0
M  V30 36638 H 3492.92 2.18157 -2.75863 0
M  V30 36639 H 3492.79 3.44158 -1.54386 0
M  V30 36640 H 3495.18 2.85581 -0.743467 0
M  V30 36641 H 3495.26 1.6047 -1.99206 0
M  V30 36642 H 3494.9 3.39503 -3.77757 0
M  V30 36643 H 3494.83 4.63471 -2.50004 0
M  V30 36644 H 3497.32 3.11535 -2.13903 0
M  V30 36645 H 3497.64 5.99603 -4.87541 0
M  V30 36646 H 3495.98 5.39677 -4.37919 0
M  V30 36647 H 3499.17 3.81063 -2.71861 0
M  V30 36648 H 3499.34 5.12438 -3.96624 0
M  V30 36649 N 3492.75 0.782725 1.36789 0
M  V30 36650 C 3493.7 0.174636 2.30138 0
M  V30 36651 C 3494.67 -0.677688 1.51646 0
M  V30 36652 O 3495.85 -0.627764 1.80177 0
M  V30 36653 C 3492.99 -0.689876 3.38134 0
M  V30 36654 C 3492.11 0.180255 4.31624 0
M  V30 36655 C 3491.24 -0.689997 5.267 0
M  V30 36656 C 3490.28 0.181998 6.11829 0
M  V30 36657 N 3489.42 -0.646854 6.99114 0
M  V30 36658 H 3494.26 0.976179 2.81558 0
M  V30 36659 H 3491.79 0.492969 1.38594 0
M  V30 36660 H 3493.75 -1.20603 3.99388 0
M  V30 36661 H 3492.38 -1.45691 2.88052 0
M  V30 36662 H 3491.43 0.814316 3.71582 0
M  V30 36663 H 3492.75 0.852424 4.91462 0
M  V30 36664 H 3491.9 -1.27221 5.93211 0
M  V30 36665 H 3490.64 -1.39581 4.67299 0
M  V30 36666 H 3489.64 0.776668 5.44287 0
M  V30 36667 H 3490.87 0.885314 6.73305 0
M  V30 36668 H 3488.81 -1.33708 6.42229 0
M  V30 36669 H 3488.73 -0.0322219 7.55993 0
M  V30 36670 H 3490 -1.21311 7.70002 0
M  V30 36671 N 3494.23 -1.48271 0.534176 0
M  V30 36672 C 3495.48 -2.025 0.00160818 0
M  V30 36673 C 3495.8 -1.41087 -1.33883 0
M  V30 36674 O 3495.06 -0.547577 -1.87883 0
M  V30 36675 C 3495.36 -3.57019 -0.165081 0
M  V30 36676 C 3495.02 -4.37238 1.10153 0
M  V30 36677 C 3493.69 -4.58876 1.44866 0
M  V30 36678 C 3496.04 -4.83672 1.94192 0
M  V30 36679 C 3493.37 -5.24196 2.63506 0
M  V30 36680 C 3495.72 -5.503 3.12015 0
M  V30 36681 C 3494.38 -5.70176 3.47068 0
M  V30 36682 H 3493.65 -0.741 0.000588475 0
M  V30 36683 H 3496.3 -1.78207 0.701045 0
M  V30 36684 H 3494.6 -3.80175 -0.947317 0
M  V30 36685 H 3496.3 -3.96604 -0.592132 0
M  V30 36686 H 3492.89 -4.20659 0.821206 0
M  V30 36687 H 3497.07 -4.66754 1.68685 0
M  V30 36688 H 3492.33 -5.37782 2.90862 0
M  V30 36689 H 3496.5 -5.85248 3.77437 0
M  V30 36690 H 3494.13 -6.20563 4.39097 0
M  V30 36691 N 3495.71 -0.269505 -1.55279 0
M  V30 36692 C 3496.94 0.351871 -2.03581 0
M  V30 36693 C 3497.34 1.5043 -1.14749 0
M  V30 36694 O 3496.69 1.83011 -0.158971 0
M  V30 36695 C 3496.75 0.900383 -3.48042 0
M  V30 36696 C 3496.41 -0.122692 -4.56835 0
M  V30 36697 C 3497.41 -0.940238 -5.11327 0
M  V30 36698 C 3495.1 -0.255312 -5.01651 0
M  V30 36699 C 3497.09 -1.87664 -6.09148 0
M  V30 36700 C 3494.78 -1.1952 -5.99298 0
M  V30 36701 C 3495.77 -2.00437 -6.52927 0
M  V30 36702 O 3495.46 -2.92838 -7.48666 0
M  V30 36703 H 3495.19 0.0850511 -0.670628 0
M  V30 36704 H 3497.75 -0.397695 -2.01513 0
M  V30 36705 H 3495.98 1.69992 -3.47332 0
M  V30 36706 H 3497.67 1.43425 -3.79716 0
M  V30 36707 H 3498.43 -0.848486 -4.7752 0
M  V30 36708 H 3494.31 0.364498 -4.59557 0
M  V30 36709 H 3497.86 -2.50864 -6.50932 0
M  V30 36710 H 3493.75 -1.28779 -6.32524 0
M  V30 36711 H 3494.52 -2.87456 -7.66362 0
M  V30 36712 N 3497.18 1.576 0.00329885 0
M  V30 36713 C 3498.12 2.0506 1.02388 0
M  V30 36714 C 3499.13 0.967924 1.30901 0
M  V30 36715 O 3500.32 1.24478 1.27935 0
M  V30 36716 C 3497.42 2.43278 2.35943 0
M  V30 36717 C 3496.59 3.74238 2.26417 0
M  V30 36718 C 3495.65 3.99361 3.42633 0
M  V30 36719 O 3494.68 4.70072 3.20968 0
M  V30 36720 N 3495.88 3.46999 4.65373 0
M  V30 36721 H 3498.64 2.93234 0.619164 0
M  V30 36722 H 3496.2 1.60772 0.190749 0
M  V30 36723 H 3498.2 2.57202 3.12457 0
M  V30 36724 H 3496.77 1.60639 2.68167 0
M  V30 36725 H 3495.99 3.70423 1.34834 0
M  V30 36726 H 3497.27 4.601 2.17221 0
M  V30 36727 H 3496.67 2.89732 4.85873 0
M  V30 36728 H 3495.23 3.66258 5.39164 0
M  V30 36729 N 3498.66 -0.276003 1.55164 0
M  V30 36730 C 3499.61 -1.34332 1.84225 0
M  V30 36731 C 3500.6 -1.44829 0.70096 0
M  V30 36732 O 3501.79 -1.4856 0.96223 0
M  V30 36733 C 3498.92 -2.70411 2.11501 0
M  V30 36734 C 3498 -2.64037 3.31882 0
M  V30 36735 N 3498.39 -2.27281 4.5186 0
M  V30 36736 C 3496.69 -2.95102 3.34411 0
M  V30 36737 C 3497.39 -2.30823 5.33943 0
M  V30 36738 N 3496.37 -2.69177 4.72276 0
M  V30 36739 H 3500.17 -1.04918 2.74535 0
M  V30 36740 H 3497.69 -0.484634 1.55 0
M  V30 36741 H 3499.68 -3.474 2.30476 0
M  V30 36742 H 3498.34 -3.00716 1.22473 0
M  V30 36743 H 3499.35 -1.9931 4.78013 0
M  V30 36744 H 3496.03 -3.30139 2.55567 0
M  V30 36745 H 3497.42 -2.04992 6.39865 0
M  V30 36746 N 3500.14 -1.48046 -0.540378 0
M  V30 36747 C 3501.39 -1.55764 -1.29867 0
M  V30 36748 C 3501.72 -0.226341 -1.92876 0
M  V30 36749 O 3500.99 0.766696 -1.78751 0
M  V30 36750 C 3501.28 -2.68822 -2.39597 0
M  V30 36751 C 3501.13 -4.11623 -1.81347 0
M  V30 36752 C 3502.45 -2.77694 -3.41429 0
M  V30 36753 H 3499.57 -0.567008 -0.47082 0
M  V30 36754 H 3502.21 -1.80176 -0.603049 0
M  V30 36755 H 3500.36 -2.48137 -2.98932 0
M  V30 36756 H 3502.03 -4.43718 -1.26144 0
M  V30 36757 H 3500.28 -4.1911 -1.11933 0
M  V30 36758 H 3500.95 -4.86532 -2.6075 0
M  V30 36759 H 3503.42 -2.96401 -2.92037 0
M  V30 36760 H 3502.3 -3.58547 -4.15614 0
M  V30 36761 H 3502.56 -1.85429 -4.01333 0
M  V30 36762 N 3501.62 0.788444 -1.3646 0
M  V30 36763 C 3502.87 1.54155 -1.30073 0
M  V30 36764 C 3503.18 1.95247 0.117539 0
M  V30 36765 O 3504.39 2.69795 0.30379 0
M  V30 36766 C 3502.84 2.78287 -2.2822 0
M  V30 36767 C 3502.45 2.44361 -3.75489 0
M  V30 36768 C 3504.19 3.56267 -2.30812 0
M  V30 36769 C 3502.1 3.64893 -4.6541 0
M  V30 36770 H 3501.03 0.578691 -0.483355 0
M  V30 36771 H 3503.68 0.865094 -1.61828 0
M  V30 36772 H 3502.06 3.47737 -1.8946 0
M  V30 36773 H 3503.24 1.82802 -4.2299 0
M  V30 36774 H 3501.55 1.7959 -3.75681 0
M  V30 36775 H 3504.15 4.45824 -2.95204 0
M  V30 36776 H 3504.49 3.94921 -1.31694 0
M  V30 36777 H 3505.03 2.93797 -2.68194 0
M  V30 36778 H 3501.77 3.31334 -5.65595 0
M  V30 36779 H 3501.29 4.25615 -4.22625 0
M  V30 36780 H 3502.96 4.3191 -4.81729 0
M  V30 36781 N 3503.1 1.20755 1.01271 0
M  V30 36782 C 3504.04 0.956787 2.1201 0
M  V30 36783 C 3505.04 -0.0932441 1.69143 0
M  V30 36784 O 3506.24 0.0574614 1.79908 0
M  V30 36785 H 3502.62 0.2921 0.692951 0
M  V30 36786 H 3504.59 1.89696 2.30343 0
M  V30 36787 C 3503.34 0.529662 3.43642 0
M  V30 36788 H 3502.66 1.32924 3.77056 0
M  V30 36789 H 3504.1 0.39345 4.22171 0
M  V30 36790 C 3502.56 -0.758447 3.28252 0
M  V30 36791 O 3503.09 -1.81592 3.58312 0
M  V30 36792 N 3501.3 -0.721973 2.81489 0
M  V30 36793 H 3500.84 0.138852 2.57226 0
M  V30 36794 H 3500.8 -1.58416 2.71573 0
M  V30 36795 N 3504.58 -1.20642 1.01406 0
M  V30 36796 C 3505.82 -1.8957 0.700556 0
M  V30 36797 C 3506.14 -1.7907 -0.771947 0
M  V30 36798 O 3505.41 -1.19145 -1.55503 0
M  V30 36799 H 3503.99 -0.701715 0.256134 0
M  V30 36800 H 3506.66 -1.46529 1.28512 0
M  V30 36801 H 3505.75 -2.96258 0.981717 0
M  V30 36802 N 3506.05 -0.789968 -1.36372 0
M  V30 36803 C 3507.29 -0.36803 -2.01059 0
M  V30 36804 C 3507.66 1.04087 -1.61338 0
M  V30 36805 O 3508.86 1.56392 -2.18621 0
M  V30 36806 C 3507.13 -0.527168 -3.53491 0
M  V30 36807 S 3508.69 -0.19319 -4.38375 0
M  V30 36808 H 3505.51 -0.140586 -0.696962 0
M  V30 36809 H 3508.11 -1.02858 -1.66254 0
M  V30 36810 H 3506.81 -1.55285 -3.79888 0
M  V30 36811 H 3506.34 0.149294 -3.93117 0
M  V30 36812 H 3508.36 1.00504 -4.85915 0
M  V30 36813 N 3507.53 1.47986 -0.542031 0
M  V30 36814 C 3508.48 2.29805 0.214111 0
M  V30 36815 C 3509.45 1.38121 0.9226 0
M  V30 36816 O 3510.63 1.67084 0.921272 0
M  V30 36817 C 3507.77 3.21758 1.24762 0
M  V30 36818 C 3506.89 4.28526 0.546749 0
M  V30 36819 C 3506.02 5.07647 1.56423 0
M  V30 36820 C 3505.06 6.06205 0.847491 0
M  V30 36821 N 3504.2 6.78339 1.81109 0
M  V30 36822 H 3509.04 2.93948 -0.489758 0
M  V30 36823 H 3506.57 1.44902 -0.253357 0
M  V30 36824 H 3508.53 3.7348 1.85926 0
M  V30 36825 H 3507.16 2.59512 1.91972 0
M  V30 36826 H 3506.21 3.79978 -0.179092 0
M  V30 36827 H 3507.53 4.98798 -0.01545 0
M  V30 36828 H 3506.68 5.63443 2.24983 0
M  V30 36829 H 3505.42 4.37242 2.16034 0
M  V30 36830 H 3504.42 5.49601 0.147892 0
M  V30 36831 H 3505.65 6.78612 0.257335 0
M  V30 36832 H 3503.6 6.10676 2.39605 0
M  V30 36833 H 3503.51 7.44728 1.30064 0
M  V30 36834 H 3504.78 7.38718 2.48829 0
M  V30 36835 N 3509.01 0.277736 1.55133 0
M  V30 36836 C 3510.29 -0.390219 1.91668 0
M  V30 36837 C 3510.67 -1.73516 1.20231 0
M  V30 36838 O 3510.01 -2.26104 0.330052 0
M  V30 36839 C 3510.22 -0.527909 3.44984 0
M  V30 36840 C 3511.57 -0.809592 4.1681 0
M  V30 36841 O 3512.6 -0.612617 3.50892 0
M  V30 36842 O 3511.46 -1.18647 5.33465 0
M  V30 36843 H 3508.55 -0.214081 0.798811 0
M  V30 36844 H 3511.1 0.324082 1.66577 0
M  V30 36845 H 3509.87 0.418491 3.89056 0
M  V30 36846 H 3509.49 -1.29158 3.76037 0
M  V30 36847 N 3510.49 -1.57599 0.00505908 0
M  V30 36848 C 3511.72 -1.9507 -0.689575 0
M  V30 36849 C 3512.13 -0.880212 -1.67026 0
M  V30 36850 O 3511.49 0.140375 -1.81959 0
M  V30 36851 C 3511.54 -3.3257 -1.41703 0
M  V30 36852 O 3511.26 -4.3551 -0.475669 0
M  V30 36853 C 3512.76 -3.8453 -2.20571 0
M  V30 36854 H 3509.98 -0.643022 -0.191739 0
M  V30 36855 H 3512.52 -2.04419 0.057682 0
M  V30 36856 H 3510.68 -3.24514 -2.11588 0
M  V30 36857 H 3511.09 -5.15082 -0.989483 0
M  V30 36858 H 3512.57 -4.83152 -2.6696 0
M  V30 36859 H 3513.04 -3.17503 -3.03461 0
M  V30 36860 H 3513.65 -3.95778 -1.55693 0
M  V30 36861 N 3511.97 0.267771 -1.55309 0
M  V30 36862 C 3512.93 1.31439 -1.87767 0
M  V30 36863 C 3513.93 1.42101 -0.752596 0
M  V30 36864 O 3515.12 1.41161 -1.02074 0
M  V30 36865 C 3512.25 2.69504 -2.08759 0
M  V30 36866 H 3513.44 1.03886 -2.81332 0
M  V30 36867 H 3511 0.506085 -1.4788 0
M  V30 36868 H 3511.73 3.02229 -1.17593 0
M  V30 36869 H 3511.52 2.63151 -2.90679 0
M  V30 36870 H 3513.01 3.45116 -2.35127 0
M  V30 36871 N 3513.44 1.48331 0.532519 0
M  V30 36872 C 3514.68 1.57815 1.299 0
M  V30 36873 C 3515.05 0.245316 1.90426 0
M  V30 36874 O 3516.25 0.21513 2.67938 0
M  V30 36875 C 3514.52 2.683 2.36114 0
M  V30 36876 S 3516.08 2.97532 3.22521 0
M  V30 36877 H 3512.9 0.556998 0.441898 0
M  V30 36878 H 3515.5 1.8584 0.60695 0
M  V30 36879 H 3514.2 3.63704 1.90124 0
M  V30 36880 H 3513.73 2.42168 3.10029 0
M  V30 36881 H 3515.75 2.36635 4.3614 0
M  V30 36882 N 3514.92 -0.781196 1.36876 0
M  V30 36883 C 3515.85 -1.90828 1.34563 0
M  V30 36884 C 3516.83 -1.68726 0.215743 0
M  V30 36885 O 3518.02 -1.89722 0.414653 0
M  V30 36886 C 3515.15 -3.27974 1.14239 0
M  V30 36887 C 3514.1 -3.64617 2.24139 0
M  V30 36888 C 3513.43 -5.00202 1.88949 0
M  V30 36889 C 3514.73 -3.72346 3.66273 0
M  V30 36890 H 3516.42 -1.93021 2.28874 0
M  V30 36891 H 3513.97 -0.927256 1.10172 0
M  V30 36892 H 3515.92 -4.06449 1.11253 0
M  V30 36893 H 3514.64 -3.26189 0.163804 0
M  V30 36894 H 3513.3 -2.88444 2.26264 0
M  V30 36895 H 3512.95 -4.94947 0.896438 0
M  V30 36896 H 3512.65 -5.25689 2.62534 0
M  V30 36897 H 3514.18 -5.81088 1.87533 0
M  V30 36898 H 3515.59 -4.40994 3.66329 0
M  V30 36899 H 3513.99 -4.09324 4.38832 0
M  V30 36900 H 3515.06 -2.73243 4.00582 0
M  V30 36901 N 3516.4 -1.21291 -1.0063 0
M  V30 36902 C 3517.33 -0.995058 -2.11236 0
M  V30 36903 C 3518.31 0.0795238 -1.69914 0
M  V30 36904 O 3519.5 -0.0800493 -1.94035 0
M  V30 36905 C 3516.63 -0.557535 -3.42796 0
M  V30 36906 C 3515.58 -1.57653 -3.97906 0
M  V30 36907 C 3514.91 -0.995289 -5.25355 0
M  V30 36908 C 3516.21 -2.96304 -4.30117 0
M  V30 36909 H 3517.9 -1.92014 -2.29719 0
M  V30 36910 H 3515.45 -0.924621 -1.10394 0
M  V30 36911 H 3517.4 -0.39231 -4.1957 0
M  V30 36912 H 3516.12 0.403196 -3.24102 0
M  V30 36913 H 3514.78 -1.7293 -3.2325 0
M  V30 36914 H 3514.43 -0.0263154 -5.02993 0
M  V30 36915 H 3514.13 -1.67593 -5.63193 0
M  V30 36916 H 3515.65 -0.841357 -6.04776 0
M  V30 36917 H 3517.07 -2.84479 -4.97739 0
M  V30 36918 H 3515.46 -3.6137 -4.79095 0
M  V30 36919 H 3516.53 -3.47248 -3.38448 0
M  V30 36920 N 3517.88 1.20103 -1.02045 0
M  V30 36921 C 3519.12 1.91277 -0.7206 0
M  V30 36922 C 3519.48 1.7731 0.736548 0
M  V30 36923 O 3520.68 2.43001 1.14909 0
M  V30 36924 C 3518.95 3.38428 -1.14896 0
M  V30 36925 S 3520.51 4.27907 -0.971667 0
M  V30 36926 H 3517.33 0.660731 -0.262594 0
M  V30 36927 H 3519.93 1.45252 -1.30851 0
M  V30 36928 H 3518.64 3.46115 -2.20527 0
M  V30 36929 H 3518.17 3.8948 -0.55398 0
M  V30 36930 H 3520.18 4.96048 0.122608 0
M  V30 36931 N 3519.36 0.797189 1.35951 0
M  V30 36932 C 3520.59 0.384793 2.02985 0
M  V30 36933 C 3520.99 -1.00606 1.60235 0
M  V30 36934 O 3520.34 -1.65798 0.790984 0
M  V30 36935 C 3520.4 0.378013 3.57507 0
M  V30 36936 C 3520.06 1.71776 4.23488 0
M  V30 36937 C 3521.06 2.67453 4.45831 0
M  V30 36938 C 3518.75 1.99919 4.60801 0
M  V30 36939 C 3520.74 3.89462 5.04577 0
M  V30 36940 C 3518.43 3.22194 5.19263 0
M  V30 36941 C 3519.42 4.16784 5.41092 0
M  V30 36942 O 3519.11 5.36901 5.98324 0
M  V30 36943 H 3518.84 0.155655 0.657835 0
M  V30 36944 H 3521.4 1.07945 1.74749 0
M  V30 36945 H 3519.63 -0.373186 3.84895 0
M  V30 36946 H 3521.32 -0.0107792 4.05899 0
M  V30 36947 H 3522.08 2.46999 4.17392 0
M  V30 36948 H 3517.96 1.27109 4.4313 0
M  V30 36949 H 3521.51 4.63305 5.21531 0
M  V30 36950 H 3517.4 3.42522 5.47128 0
M  V30 36951 H 3518.17 5.3807 6.16784 0
M  V30 36952 N 3520.83 -1.47696 0.549872 0
M  V30 36953 C 3521.78 -2.29915 -0.201921 0
M  V30 36954 C 3522.75 -1.38608 -0.915263 0
M  V30 36955 O 3523.94 -1.67571 -0.912398 0
M  V30 36956 C 3521.08 -3.22415 -1.23054 0
M  V30 36957 C 3520.19 -4.2881 -0.524015 0
M  V30 36958 C 3519.32 -5.08469 -1.53729 0
M  V30 36959 C 3518.36 -6.06646 -0.815331 0
M  V30 36960 N 3517.5 -6.7929 -1.77509 0
M  V30 36961 H 3522.34 -2.93684 0.50534 0
M  V30 36962 H 3519.88 -1.44765 0.261038 0
M  V30 36963 H 3521.84 -3.74461 -1.83943 0
M  V30 36964 H 3520.47 -2.60527 -1.90593 0
M  V30 36965 H 3519.52 -3.79878 0.199241 0
M  V30 36966 H 3520.83 -4.98782 0.0419022 0
M  V30 36967 H 3519.98 -5.64628 -2.21991 0
M  V30 36968 H 3518.72 -4.38382 -2.13712 0
M  V30 36969 H 3517.73 -5.49672 -0.118744 0
M  V30 36970 H 3518.95 -6.78739 -0.221343 0
M  V30 36971 H 3516.9 -6.11938 -2.36363 0
M  V30 36972 H 3516.82 -7.45407 -1.26113 0
M  V30 36973 H 3518.08 -7.40027 -2.44908 0
M  V30 36974 N 3522.31 -0.285959 -1.54984 0
M  V30 36975 C 3523.73 0.0678781 -1.59456 0
M  V30 36976 C 3523.93 1.53693 -1.30311 0
M  V30 36977 O 3522.98 2.28744 -1.06922 0
M  V30 36978 C 3524.3 -0.316522 -2.99029 0
M  V30 36979 C 3525.85 -0.264036 -3.11884 0
M  V30 36980 C 3526.32 -0.623035 -4.53743 0
M  V30 36981 N 3527.81 -0.574998 -4.59617 0
M  V30 36982 C 3528.55 -0.825439 -5.67428 0
M  V30 36983 N 3528.04 -1.14106 -6.83339 0
M  V30 36984 N 3529.84 -0.753508 -5.57027 0
M  V30 36985 H 3521.99 -1.24353 -1.72192 0
M  V30 36986 H 3524.25 -0.503128 -0.803471 0
M  V30 36987 H 3523.96 -1.33861 -3.25229 0
M  V30 36988 H 3523.83 0.337305 -3.75689 0
M  V30 36989 H 3526.22 0.748781 -2.85442 0
M  V30 36990 H 3526.3 -0.952275 -2.37414 0
M  V30 36991 H 3525.94 -1.63359 -4.80912 0
M  V30 36992 H 3525.87 0.0871113 -5.26528 0
M  V30 36993 H 3528.36 -0.341371 -3.76355 0
M  V30 36994 H 3528.68 -1.31854 -7.61469 0
M  V30 36995 H 3527.02 -1.17895 -6.84928 0
M  V30 36996 H 3530.21 -0.506693 -4.6535 0
M  V30 36997 H 3530.38 -0.952063 -6.40968 0
M  V30 36998 N 3523.79 1.57594 -0.0134169 0
M  V30 36999 C 3524.74 2.10397 0.991759 0
M  V30 37000 C 3525.73 1.02695 1.34722 0
M  V30 37001 O 3526.94 1.21147 1.33129 0
M  V30 37002 H 3523.31 0.67199 0.337541 0
M  V30 37003 H 3525.28 2.93817 0.520969 0
M  V30 37004 C 3524.03 2.63345 2.27034 0
M  V30 37005 H 3523.36 3.45859 2.00553 0
M  V30 37006 H 3524.8 3.03955 2.95614 0
M  V30 37007 C 3523.26 1.55367 2.98936 0
M  V30 37008 O 3523.79 0.944351 3.90442 0
M  V30 37009 N 3521.99 1.27789 2.60995 0
M  V30 37010 H 3521.54 1.77524 1.86663 0
M  V30 37011 H 3521.5 0.55764 3.09415 0
M  V30 37012 N 3525.27 -0.259531 1.55448 0
M  V30 37013 C 3526.68 -0.607416 1.47589 0
M  V30 37014 C 3526.88 -1.8891 0.701086 0
M  V30 37015 O 3525.94 -2.51492 0.225349 0
M  V30 37016 C 3527.25 -0.721868 2.91907 0
M  V30 37017 C 3528.8 -0.815033 3.02202 0
M  V30 37018 C 3529.28 -0.961152 4.47801 0
M  V30 37019 N 3530.77 -1.02634 4.51686 0
M  V30 37020 C 3531.5 -1.15844 5.61576 0
M  V30 37021 N 3531 -1.25688 6.81303 0
M  V30 37022 N 3532.79 -1.1906 5.49346 0
M  V30 37023 H 3524.94 0.582017 2.0427 0
M  V30 37024 H 3527.21 0.199075 0.926862 0
M  V30 37025 H 3526.91 0.149672 3.51381 0
M  V30 37026 H 3526.79 -1.59787 3.41684 0
M  V30 37027 H 3529.17 -1.67703 2.42816 0
M  V30 37028 H 3529.25 0.0858551 2.55656 0
M  V30 37029 H 3528.9 -0.103758 5.07794 0
M  V30 37030 H 3528.83 -1.87689 4.92017 0
M  V30 37031 H 3531.32 -0.96212 3.65447 0
M  V30 37032 H 3531.63 -1.35639 7.60803 0
M  V30 37033 H 3529.98 -1.22668 6.84089 0
M  V30 37034 H 3533.17 -1.1101 4.54747 0
M  V30 37035 H 3533.34 -1.29011 6.35028 0
M  V30 37036 N 3526.75 -1.48611 -0.524645 0
M  V30 37037 C 3527.68 -1.66429 -1.63779 0
M  V30 37038 C 3528.66 -0.513106 -1.62177 0
M  V30 37039 O 3529.84 -0.746262 -1.79289 0
M  V30 37040 C 3526.97 -1.70883 -3.02351 0
M  V30 37041 C 3525.93 -2.85555 -3.18814 0
M  V30 37042 C 3525.25 -2.75102 -4.58501 0
M  V30 37043 C 3526.55 -4.26789 -3.01078 0
M  V30 37044 H 3528.25 -2.5962 -1.49123 0
M  V30 37045 H 3525.79 -1.24939 -0.715975 0
M  V30 37046 H 3527.75 -1.81936 -3.80102 0
M  V30 37047 H 3526.47 -0.742737 -3.18042 0
M  V30 37048 H 3525.13 -2.74066 -2.43482 0
M  V30 37049 H 3524.78 -1.76451 -4.71035 0
M  V30 37050 H 3524.48 -3.52053 -4.7046 0
M  V30 37051 H 3526 -2.8813 -5.38343 0
M  V30 37052 H 3527.41 -4.39084 -3.68617 0
M  V30 37053 H 3525.81 -5.04779 -3.24527 0
M  V30 37054 H 3526.88 -4.42881 -1.97446 0
M  V30 37055 N 3528.22 0.773926 -1.37289 0
M  V30 37056 C 3529.45 1.56299 -1.35566 0
M  V30 37057 C 3529.87 1.88706 0.0595024 0
M  V30 37058 O 3529.22 1.51288 1.02069 0
M  V30 37059 C 3529.28 2.8746 -2.192 0
M  V30 37060 O 3529 2.56444 -3.55201 0
M  V30 37061 C 3530.5 3.817 -2.25432 0
M  V30 37062 H 3527.72 0.48429 -0.46444 0
M  V30 37063 H 3530.26 0.959393 -1.80599 0
M  V30 37064 H 3528.42 3.4425 -1.77682 0
M  V30 37065 H 3528.83 3.4042 -3.99017 0
M  V30 37066 H 3530.3 4.70744 -2.88278 0
M  V30 37067 H 3530.78 4.20675 -1.26212 0
M  V30 37068 H 3531.39 3.30841 -2.67253 0
M  V30 37069 N 3529.7 1.21823 0.99985 0
M  V30 37070 C 3531.12 0.976686 1.26226 0
M  V30 37071 C 3531.32 -0.33388 1.98715 0
M  V30 37072 O 3530.37 -1.05825 2.29254 0
M  V30 37073 C 3531.69 2.17073 2.08086 0
M  V30 37074 C 3533.24 2.21355 2.21294 0
M  V30 37075 C 3533.71 3.40292 3.06538 0
M  V30 37076 N 3535.2 3.40411 3.14126 0
M  V30 37077 C 3535.94 4.2909 3.80354 0
M  V30 37078 N 3535.43 5.27976 4.48568 0
M  V30 37079 N 3537.23 4.16885 3.77046 0
M  V30 37080 H 3529.38 2.06095 0.513667 0
M  V30 37081 H 3531.64 0.902737 0.289432 0
M  V30 37082 H 3531.35 3.12076 1.62177 0
M  V30 37083 H 3531.22 2.1656 3.08839 0
M  V30 37084 H 3533.61 1.26904 2.66419 0
M  V30 37085 H 3533.69 2.2591 1.19994 0
M  V30 37086 H 3533.33 4.35039 2.62114 0
M  V30 37087 H 3533.26 3.32976 4.07964 0
M  V30 37088 H 3535.75 2.6885 2.65571 0
M  V30 37089 H 3536.07 5.91935 4.96823 0
M  V30 37090 H 3534.41 5.31896 4.47339 0
M  V30 37091 H 3537.6 3.38889 3.22912 0
M  V30 37092 H 3537.77 4.86203 4.28382 0
M  V30 37093 N 3531.18 -1.1956 1.0268 0
M  V30 37094 C 3532.43 -1.8947 0.723119 0
M  V30 37095 C 3532.76 -1.7929 -0.746237 0
M  V30 37096 O 3532.03 -1.18387 -1.5432 0
M  V30 37097 C 3532.32 -3.40484 1.1723 0
M  V30 37098 C 3532.17 -3.59546 2.70272 0
M  V30 37099 C 3533.49 -4.33637 0.751473 0
M  V30 37100 H 3530.61 -0.68803 0.264167 0
M  V30 37101 H 3533.25 -1.40745 1.27636 0
M  V30 37102 H 3531.4 -3.82112 0.701611 0
M  V30 37103 H 3533.07 -3.27103 3.25272 0
M  V30 37104 H 3531.32 -3.02669 3.10763 0
M  V30 37105 H 3531.99 -4.65445 2.96757 0
M  V30 37106 H 3534.46 -3.99712 1.15628 0
M  V30 37107 H 3533.34 -5.37894 1.09368 0
M  V30 37108 H 3533.6 -4.40742 -0.34629 0
M  V30 37109 N 3532.66 -0.804387 -1.35526 0
M  V30 37110 C 3533.57 -0.214705 -2.33615 0
M  V30 37111 C 3534.58 0.641121 -1.61758 0
M  V30 37112 O 3535.76 0.55339 -1.93648 0
M  V30 37113 C 3532.83 0.628718 -3.40952 0
M  V30 37114 C 3531.89 -0.247344 -4.28587 0
M  V30 37115 C 3531.12 0.555918 -5.30797 0
M  V30 37116 O 3531.34 1.79078 -5.4156 0
M  V30 37117 O 3530.28 -0.0520495 -6.01877 0
M  V30 37118 H 3534.1 -1.0261 -2.85841 0
M  V30 37119 H 3531.69 -0.566132 -1.38258 0
M  V30 37120 H 3533.57 1.10918 -4.0654 0
M  V30 37121 H 3532.24 1.41775 -2.91001 0
M  V30 37122 H 3531.15 -0.7749 -3.65986 0
M  V30 37123 H 3532.48 -1.00026 -4.81929 0
M  V30 37124 N 3534.14 1.47403 -0.557697 0
M  V30 37125 C 3535.1 2.28498 0.179271 0
M  V30 37126 C 3536.1 1.36977 0.842257 0
M  V30 37127 O 3537.29 1.59603 0.698044 0
M  V30 37128 C 3534.42 3.16671 1.26224 0
M  V30 37129 H 3535.62 2.95124 -0.533085 0
M  V30 37130 H 3533.17 1.531 -0.314661 0
M  V30 37131 H 3533.9 2.54737 2.00698 0
M  V30 37132 H 3533.69 3.84025 0.791644 0
M  V30 37133 H 3535.18 3.77772 1.77984 0
M  V30 37134 N 3535.62 0.294175 1.5483 0
M  V30 37135 C 3536.84 -0.322724 2.04874 0
M  V30 37136 C 3537.27 -1.47255 1.17037 0
M  V30 37137 O 3536.62 -1.80473 0.172981 0
M  V30 37138 C 3536.67 -0.763128 3.52433 0
M  V30 37139 O 3535.78 -1.86858 3.67638 0
M  V30 37140 H 3535.12 -0.0638046 0.660927 0
M  V30 37141 H 3537.65 0.43403 1.99943 0
M  V30 37142 H 3537.66 -1.05378 3.94157 0
M  V30 37143 H 3536.33 0.0780195 4.15827 0
M  V30 37144 H 3534.91 -1.57901 3.37819 0
M  V30 37145 N 3537.09 -1.57585 0.0217743 0
M  V30 37146 C 3538.32 -1.95791 -0.668846 0
M  V30 37147 C 3538.74 -0.897878 -1.66083 0
M  V30 37148 O 3538.09 0.121067 -1.82098 0
M  V30 37149 C 3538.14 -3.34054 -1.38168 0
M  V30 37150 O 3537.87 -4.3599 -0.429451 0
M  V30 37151 C 3539.37 -3.86848 -2.1648 0
M  V30 37152 H 3536.59 -0.645019 -0.184908 0
M  V30 37153 H 3539.13 -2.04346 0.0793601 0
M  V30 37154 H 3537.29 -3.2674 -2.08134 0
M  V30 37155 H 3537.7 -5.16103 -0.934796 0
M  V30 37156 H 3539.17 -4.85957 -2.61821 0
M  V30 37157 H 3539.65 -3.20703 -3.00077 0
M  V30 37158 H 3540.26 -3.97407 -1.51486 0
M  V30 37159 N 3538.57 0.251283 -1.55584 0
M  V30 37160 C 3539.82 0.981387 -1.77473 0
M  V30 37161 C 3540.15 1.85139 -0.586261 0
M  V30 37162 O 3539.43 1.90008 0.415589 0
M  V30 37163 C 3539.71 1.84562 -3.09207 0
M  V30 37164 C 3539.56 1.00409 -4.3845 0
M  V30 37165 C 3540.88 2.82889 -3.37137 0
M  V30 37166 H 3538 0.355357 -0.64567 0
M  V30 37167 H 3540.64 0.252195 -1.88319 0
M  V30 37168 H 3538.79 2.46733 -3.00092 0
M  V30 37169 H 3540.46 0.401409 -4.5955 0
M  V30 37170 H 3538.71 0.308289 -4.32703 0
M  V30 37171 H 3539.38 1.64248 -5.26998 0
M  V30 37172 H 3541.85 2.30854 -3.46187 0
M  V30 37173 H 3540.73 3.40484 -4.30537 0
M  V30 37174 H 3540.99 3.59129 -2.57835 0
M  V30 37175 N 3540.05 1.48887 0.516757 0
M  V30 37176 C 3541.3 1.5781 1.27373 0
M  V30 37177 C 3541.63 0.256997 1.92492 0
M  V30 37178 O 3540.9 -0.738161 1.79948 0
M  V30 37179 C 3541.19 2.72599 2.3529 0
M  V30 37180 C 3541.04 4.14456 1.74775 0
M  V30 37181 C 3542.36 2.83091 3.36968 0
M  V30 37182 H 3539.48 0.574426 0.46174 0
M  V30 37183 H 3542.12 1.81112 0.574309 0
M  V30 37184 H 3540.27 2.52862 2.94946 0
M  V30 37185 H 3541.94 4.45668 1.19069 0
M  V30 37186 H 3540.18 4.20838 1.05251 0
M  V30 37187 H 3540.86 4.90619 2.52976 0
M  V30 37188 H 3543.33 3.0101 2.87284 0
M  V30 37189 H 3542.21 3.65114 4.09858 0
M  V30 37190 H 3542.47 1.91791 3.98332 0
M  V30 37191 N 3541.53 -0.766635 1.37697 0
M  V30 37192 C 3542.77 -1.53833 1.34591 0
M  V30 37193 C 3543.13 -1.91881 -0.0676047 0
M  V30 37194 O 3544.33 -2.6787 -0.223432 0
M  V30 37195 C 3542.6 -2.766 2.26334 0
M  V30 37196 S 3544.16 -3.66611 2.41127 0
M  V30 37197 H 3540.98 -0.526591 0.477727 0
M  V30 37198 H 3543.58 -0.901069 1.73496 0
M  V30 37199 H 3542.29 -2.46737 3.27947 0
M  V30 37200 H 3541.82 -3.45282 1.88531 0
M  V30 37201 H 3543.83 -4.68815 1.62564 0
M  V30 37202 N 3543.01 -1.22351 -0.993375 0
M  V30 37203 C 3544.25 -1.04571 -1.72943 0
M  V30 37204 C 3544.57 0.420145 -1.9042 0
M  V30 37205 O 3543.84 1.30225 -1.4635 0
M  V30 37206 H 3542.42 -0.383956 -0.64077 0
M  V30 37207 H 3545.09 -1.53855 -1.19644 0
M  V30 37208 H 3544.18 -1.52316 -2.72408 0
M  V30 37209 N 3544.48 1.19014 -1.03313 0
M  V30 37210 C 3545.73 1.88431 -0.730626 0
M  V30 37211 C 3546.05 1.80275 0.743361 0
M  V30 37212 O 3545.32 1.21604 1.53588 0
M  V30 37213 H 3543.9 0.697552 -0.267265 0
M  V30 37214 H 3546.56 1.44466 -1.30827 0
M  V30 37215 H 3545.66 2.94659 -1.02872 0
M  V30 37216 N 3545.96 0.811563 1.35098 0
M  V30 37217 C 3546.91 0.223412 2.29716 0
M  V30 37218 C 3547.88 -0.645369 1.5305 0
M  V30 37219 O 3549.06 -0.589404 1.81468 0
M  V30 37220 C 3546.2 -0.617998 3.39521 0
M  V30 37221 C 3545.32 0.271768 4.31144 0
M  V30 37222 C 3544.45 -0.578121 5.28045 0
M  V30 37223 C 3543.49 0.311736 6.11306 0
M  V30 37224 N 3542.63 -0.498416 7.00329 0
M  V30 37225 H 3547.47 1.03568 2.79424 0
M  V30 37226 H 3545 0.522256 1.37517 0
M  V30 37227 H 3546.96 -1.12104 4.01856 0
M  V30 37228 H 3545.59 -1.39549 2.91077 0
M  V30 37229 H 3544.64 0.89295 3.69771 0
M  V30 37230 H 3545.96 0.956478 4.89544 0
M  V30 37231 H 3545.11 -1.1461 5.95776 0
M  V30 37232 H 3543.85 -1.29638 4.70155 0
M  V30 37233 H 3542.85 0.891945 5.42517 0
M  V30 37234 H 3544.08 1.02793 6.71275 0
M  V30 37235 H 3542.03 -1.20056 6.44921 0
M  V30 37236 H 3541.94 0.128143 7.55891 0
M  V30 37237 H 3543.21 -1.04951 7.72402 0
M  V30 37238 N 3547.44 -1.47105 0.565506 0
M  V30 37239 C 3548.86 -1.57993 0.225883 0
M  V30 37240 C 3549.06 -1.56301 -1.2717 0
M  V30 37241 O 3548.11 -1.47082 -2.05239 0
M  V30 37242 C 3549.42 -2.88143 0.859879 0
M  V30 37243 C 3550.97 -3.01743 0.831874 0
M  V30 37244 C 3551.45 -4.34604 1.44509 0
M  V30 37245 N 3552.94 -4.41261 1.40865 0
M  V30 37246 C 3553.67 -5.42645 1.85268 0
M  V30 37247 N 3553.17 -6.50796 2.37564 0
M  V30 37248 N 3554.96 -5.33741 1.76288 0
M  V30 37249 H 3547.11 -1.46448 1.5384 0
M  V30 37250 H 3549.38 -0.697501 0.642025 0
M  V30 37251 H 3549.08 -2.95143 1.91269 0
M  V30 37252 H 3548.96 -3.75499 0.357828 0
M  V30 37253 H 3551.34 -2.94336 -0.212267 0
M  V30 37254 H 3551.42 -2.15908 1.37177 0
M  V30 37255 H 3551.07 -4.42768 2.48834 0
M  V30 37256 H 3551 -5.19185 0.88057 0
M  V30 37257 H 3553.49 -3.637 1.0262 0
M  V30 37258 H 3553.8 -7.24342 2.69348 0
M  V30 37259 H 3552.15 -6.51663 2.4158 0
M  V30 37260 H 3555.34 -4.48149 1.35203 0
M  V30 37261 H 3555.51 -6.12613 2.1121 0
M  V30 37262 N 3548.92 -0.302382 -1.54672 0
M  V30 37263 C 3550.15 0.309057 -2.04579 0
M  V30 37264 C 3550.56 1.47414 -1.1796 0
M  V30 37265 O 3549.92 1.81339 -0.205532 0
M  V30 37266 C 3549.97 0.763961 -3.53335 0
M  V30 37267 O 3549.69 -0.354751 -4.36661 0
M  V30 37268 C 3551.19 1.44041 -4.19246 0
M  V30 37269 H 3548.41 0.0669458 -0.667652 0
M  V30 37270 H 3550.96 -0.442414 -1.99657 0
M  V30 37271 H 3549.11 1.46545 -3.58613 0
M  V30 37272 H 3549.52 -0.000333382 -5.245 0
M  V30 37273 H 3551 1.70985 -5.2485 0
M  V30 37274 H 3551.48 2.38091 -3.69065 0
M  V30 37275 H 3552.08 0.782059 -4.18048 0
M  V30 37276 N 3550.4 1.57571 -0.0301311 0
M  V30 37277 C 3551.64 1.91842 0.648289 0
M  V30 37278 C 3551.97 0.906631 1.72077 0
M  V30 37279 O 3551.23 -0.0842889 1.95518 0
M  V30 37280 C 3551.53 3.3284 1.30201 0
M  V30 37281 C 3551.19 4.49462 0.359797 0
M  V30 37282 C 3549.85 4.81095 0.100468 0
M  V30 37283 C 3552.21 5.20408 -0.287139 0
M  V30 37284 C 3549.53 5.81032 -0.813586 0
M  V30 37285 C 3551.89 6.21321 -1.18925 0
M  V30 37286 C 3550.55 6.51394 -1.45746 0
M  V30 37287 H 3549.82 0.702001 0.237226 0
M  V30 37288 H 3552.47 1.91278 -0.092114 0
M  V30 37289 H 3550.77 3.29671 2.11718 0
M  V30 37290 H 3552.47 3.56628 1.8335 0
M  V30 37291 H 3549.06 4.24765 0.572098 0
M  V30 37292 H 3553.24 4.962 -0.0998483 0
M  V30 37293 H 3548.5 6.02677 -1.02908 0
M  V30 37294 H 3552.67 6.75414 -1.69673 0
M  V30 37295 H 3550.3 7.28648 -2.1674 0
M  V30 37296 N 3551.87 -0.243029 1.55715 0
M  V30 37297 C 3553.1 -0.986545 1.81524 0
M  V30 37298 C 3553.51 -1.79297 0.604083 0
M  V30 37299 O 3552.86 -1.78434 -0.436709 0
M  V30 37300 C 3552.92 -1.96962 3.00743 0
M  V30 37301 C 3552.58 -1.34976 4.36613 0
M  V30 37302 C 3553.58 -0.75031 5.14457 0
M  V30 37303 C 3551.26 -1.36796 4.83314 0
M  V30 37304 C 3553.26 -0.177326 6.37153 0
M  V30 37305 C 3550.94 -0.791126 6.05957 0
M  V30 37306 C 3551.94 -0.196839 6.82716 0
M  V30 37307 O 3551.63 0.371079 8.03043 0
M  V30 37308 H 3551.36 -0.295754 0.60787 0
M  V30 37309 H 3553.92 -0.269983 2.03618 0
M  V30 37310 H 3552.15 -2.72459 2.74414 0
M  V30 37311 H 3553.84 -2.57689 3.1361 0
M  V30 37312 H 3554.6 -0.728725 4.79494 0
M  V30 37313 H 3550.48 -1.81992 4.23556 0
M  V30 37314 H 3554.02 0.287164 6.97009 0
M  V30 37315 H 3549.92 -0.810051 6.40397 0
M  V30 37316 H 3550.69 0.263317 8.18076 0
M  V30 37317 N 3553.35 -1.49159 -0.508854 0
M  V30 37318 C 3554.6 -1.57498 -1.26005 0
M  V30 37319 C 3554.91 -0.263315 -1.9382 0
M  V30 37320 O 3556.12 -0.225164 -2.70565 0
M  V30 37321 C 3554.58 -2.77854 -2.28747 0
M  V30 37322 C 3554.18 -4.15747 -1.66907 0
M  V30 37323 C 3555.93 -2.95518 -3.04745 0
M  V30 37324 C 3553.84 -5.27336 -2.67714 0
M  V30 37325 H 3552.77 -0.5864 -0.473974 0
M  V30 37326 H 3555.42 -1.75532 -0.534855 0
M  V30 37327 H 3553.8 -2.53297 -3.04395 0
M  V30 37328 H 3554.97 -4.50409 -0.973052 0
M  V30 37329 H 3553.29 -4.03376 -1.03329 0
M  V30 37330 H 3555.88 -3.76054 -3.80115 0
M  V30 37331 H 3556.23 -2.05777 -3.61886 0
M  V30 37332 H 3556.76 -3.20076 -2.36212 0
M  V30 37333 H 3553.5 -6.19111 -2.15364 0
M  V30 37334 H 3553.02 -4.97137 -3.35581 0
M  V30 37335 H 3554.7 -5.5634 -3.30294 0
M  V30 37336 N 3554.83 0.759322 -1.38102 0
M  V30 37337 C 3556.06 1.54853 -1.37216 0
M  V30 37338 C 3556.47 1.88759 0.0394843 0
M  V30 37339 O 3555.83 1.52362 1.00459 0
M  V30 37340 C 3555.88 2.85119 -2.22237 0
M  V30 37341 O 3555.6 2.52662 -3.57901 0
M  V30 37342 C 3557.1 3.79288 -2.29468 0
M  V30 37343 H 3554.32 0.479337 -0.46955 0
M  V30 37344 H 3556.87 0.940184 -1.81606 0
M  V30 37345 H 3555.02 3.42346 -1.81323 0
M  V30 37346 H 3555.44 3.36169 -4.02605 0
M  V30 37347 H 3556.91 4.6766 -2.93255 0
M  V30 37348 H 3557.39 4.19312 -1.30667 0
M  V30 37349 H 3557.99 3.27988 -2.70747 0
M  V30 37350 N 3556.31 1.22876 0.986873 0
M  V30 37351 C 3557.27 1.00548 2.05968 0
M  V30 37352 C 3558.27 -0.0303226 1.60771 0
M  V30 37353 O 3559.46 0.208783 1.72944 0
M  V30 37354 C 3556.59 0.520021 3.3691 0
M  V30 37355 H 3557.79 1.95744 2.27209 0
M  V30 37356 H 3555.34 1.04829 1.15933 0
M  V30 37357 H 3556.07 -0.436022 3.21355 0
M  V30 37358 H 3555.86 1.26739 3.71052 0
M  V30 37359 H 3557.35 0.384239 4.15829 0
M  V30 37360 N 3557.79 -1.18464 1.03942 0
M  V30 37361 C 3558.73 -2.24099 0.623102 0
M  V30 37362 C 3559.73 -1.65756 -0.349489 0
M  V30 37363 O 3560.93 -1.78688 -0.216915 0
M  V30 37364 H 3557.31 -0.729324 0.183276 0
M  V30 37365 H 3559.28 -2.56522 1.52444 0
M  V30 37366 C 3558.03 -3.477 0.000687922 0
M  V30 37367 H 3557.35 -3.9289 0.740125 0
M  V30 37368 H 3558.79 -4.23242 -0.25341 0
M  V30 37369 C 3557.25 -3.12892 -1.24901 0
M  V30 37370 O 3557.78 -3.26514 -2.33991 0
M  V30 37371 N 3555.99 -2.67228 -1.14182 0
M  V30 37372 H 3555.53 -2.56344 -0.2541 0
M  V30 37373 H 3555.49 -2.4431 -1.97889 0
M  V30 37374 N 3559.26 -0.818716 -1.34665 0
M  V30 37375 C 3560.51 -0.403995 -1.98021 0
M  V30 37376 C 3560.83 1.03539 -1.65241 0
M  V30 37377 O 3560.1 1.7182 -0.941 0
M  V30 37378 H 3558.68 -0.146395 -0.732514 0
M  V30 37379 H 3561.35 -1.04723 -1.64375 0
M  V30 37380 H 3560.44 -0.51957 -3.07745 0
M  V30 37381 N 3560.74 1.46803 -0.573299 0
M  V30 37382 C 3561.99 2.02025 -0.0551877 0
M  V30 37383 C 3562.31 1.44828 1.30575 0
M  V30 37384 O 3561.58 0.629436 1.85513 0
M  V30 37385 H 3560.16 0.746797 -0.0174114 0
M  V30 37386 H 3562.82 1.80018 -0.746951 0
M  V30 37387 H 3561.92 3.12093 0.0208778 0
M  V30 37388 N 3562.22 0.31058 1.54509 0
M  V30 37389 C 3563.47 -0.296696 1.99506 0
M  V30 37390 C 3563.78 -1.54263 1.2026 0
M  V30 37391 O 3564.99 -2.22509 1.5557 0
M  V30 37392 C 3563.44 -0.579188 3.55209 0
M  V30 37393 C 3563.05 0.648952 4.43275 0
M  V30 37394 C 3564.8 -1.14713 4.08707 0
M  V30 37395 C 3562.7 0.339081 5.90427 0
M  V30 37396 H 3561.63 -0.114639 0.745234 0
M  V30 37397 H 3564.28 0.42078 1.7861 0
M  V30 37398 H 3562.67 -1.35651 3.72041 0
M  V30 37399 H 3563.84 1.42486 4.38217 0
M  V30 37400 H 3562.16 1.1362 4.00599 0
M  V30 37401 H 3564.75 -1.39337 5.16226 0
M  V30 37402 H 3565.1 -2.09243 3.59893 0
M  V30 37403 H 3565.63 -0.431293 3.95455 0
M  V30 37404 H 3562.37 1.2532 6.43409 0
M  V30 37405 H 3561.89 -0.39937 5.98469 0
M  V30 37406 H 3563.57 -0.0558559 6.46976 0
M  V30 37407 N 3563.7 -1.57553 0.0384871 0
M  V30 37408 C 3564.92 -1.96899 -0.651578 0
M  V30 37409 C 3565.35 -0.915337 -1.64326 0
M  V30 37410 O 3564.71 0.122792 -1.80884 0
M  V30 37411 C 3564.76 -3.35332 -1.32607 0
M  V30 37412 O 3563.86 -3.32359 -2.44154 0
M  V30 37413 H 3563.2 -0.641755 -0.17043 0
M  V30 37414 H 3565.73 -2.0434 0.103122 0
M  V30 37415 H 3565.74 -3.71775 -1.6807 0
M  V30 37416 H 3564.42 -4.11561 -0.599203 0
M  V30 37417 H 3562.99 -3.07646 -2.10733 0
M  V30 37418 N 3565.18 0.234767 -1.55842 0
M  V30 37419 C 3566.42 0.961085 -1.7824 0
M  V30 37420 C 3566.75 1.84853 -0.604952 0
M  V30 37421 O 3566.01 1.9133 0.411256 0
M  V30 37422 C 3566.31 1.84218 -3.06265 0
M  V30 37423 C 3565.97 1.10908 -4.37047 0
M  V30 37424 C 3564.63 0.906523 -4.72584 0
M  V30 37425 C 3566.99 0.590399 -5.17845 0
M  V30 37426 C 3564.31 0.173172 -5.86444 0
M  V30 37427 C 3566.67 -0.129544 -6.32467 0
M  V30 37428 C 3565.33 -0.343474 -6.66616 0
M  V30 37429 H 3564.6 0.351686 -0.652226 0
M  V30 37430 H 3567.25 0.230238 -1.90111 0
M  V30 37431 H 3565.55 2.64047 -2.89459 0
M  V30 37432 H 3567.25 2.40606 -3.20795 0
M  V30 37433 H 3563.84 1.27692 -4.09137 0
M  V30 37434 H 3568.02 0.7344 -4.90836 0
M  V30 37435 H 3563.28 -0.00293156 -6.114 0
M  V30 37436 H 3567.45 -0.539027 -6.94311 0
M  V30 37437 H 3565.08 -0.913671 -7.54689 0
M  V30 37438 N 3566.66 1.49427 0.500936 0
M  V30 37439 C 3567.9 1.60535 1.26523 0
M  V30 37440 C 3568.26 0.285653 1.89863 0
M  V30 37441 O 3569.46 0.271915 2.67421 0
M  V30 37442 C 3567.73 2.73248 2.3037 0
M  V30 37443 S 3569.29 3.04307 3.16137 0
M  V30 37444 H 3566.11 0.566246 0.429984 0
M  V30 37445 H 3568.71 1.87085 0.567394 0
M  V30 37446 H 3567.41 3.67655 1.82367 0
M  V30 37447 H 3566.95 2.4869 3.04823 0
M  V30 37448 H 3568.96 2.45833 4.31022 0
M  V30 37449 N 3568.13 -0.751987 1.38502 0
M  V30 37450 C 3569.55 -1.05526 1.19734 0
M  V30 37451 C 3569.75 -2.01445 0.0471235 0
M  V30 37452 O 3568.81 -2.45105 -0.606602 0
M  V30 37453 C 3570.12 -1.63382 2.52442 0
M  V30 37454 C 3571.67 -1.75545 2.59139 0
M  V30 37455 C 3572.14 -2.36812 3.92026 0
M  V30 37456 N 3573.63 -2.44241 3.93574 0
M  V30 37457 C 3574.37 -2.92544 4.93159 0
M  V30 37458 N 3573.86 -3.40871 6.03141 0
M  V30 37459 N 3575.66 -2.91599 4.80548 0
M  V30 37460 H 3567.81 -0.115505 2.12086 0
M  V30 37461 H 3570.07 -0.113871 0.941136 0
M  V30 37462 H 3569.78 -1.0037 3.37074 0
M  V30 37463 H 3569.65 -2.62422 2.70951 0
M  V30 37464 H 3572.04 -2.37684 1.74901 0
M  V30 37465 H 3572.12 -0.752049 2.44495 0
M  V30 37466 H 3571.76 -1.75306 4.76687 0
M  V30 37467 H 3571.69 -3.37796 4.03982 0
M  V30 37468 H 3574.18 -2.10063 3.14137 0
M  V30 37469 H 3574.5 -3.76189 6.75057 0
M  V30 37470 H 3572.84 -3.38924 6.06758 0
M  V30 37471 H 3576.03 -2.53156 3.93738 0
M  V30 37472 H 3576.21 -3.28931 5.58309 0
M  V30 37473 N 3569.61 -1.23398 -0.980343 0
M  V30 37474 C 3571.03 -0.996644 -1.24656 0
M  V30 37475 C 3571.23 0.302224 -1.99221 0
M  V30 37476 O 3570.28 1.02165 -2.30908 0
M  V30 37477 C 3571.6 -2.20356 -2.04606 0
M  V30 37478 C 3573.14 -2.24847 -2.17745 0
M  V30 37479 C 3573.62 -3.45126 -3.01085 0
M  V30 37480 N 3575.11 -3.45365 -3.0867 0
M  V30 37481 C 3575.85 -4.35087 -3.73479 0
M  V30 37482 N 3575.34 -5.35045 -4.40112 0
M  V30 37483 N 3577.13 -4.2283 -3.70366 0
M  V30 37484 H 3569.29 -2.06886 -0.480814 0
M  V30 37485 H 3571.55 -0.907227 -0.275033 0
M  V30 37486 H 3571.25 -3.14617 -1.57192 0
M  V30 37487 H 3571.13 -2.21446 -3.05355 0
M  V30 37488 H 3573.52 -1.31127 -2.64367 0
M  V30 37489 H 3573.6 -2.2779 -1.16384 0
M  V30 37490 H 3573.24 -4.39154 -2.5516 0
M  V30 37491 H 3573.17 -3.39424 -4.02615 0
M  V30 37492 H 3575.66 -2.73041 -2.6126 0
M  V30 37493 H 3575.97 -5.99764 -4.87343 0
M  V30 37494 H 3574.32 -5.38945 -4.3882 0
M  V30 37495 H 3577.51 -3.43983 -3.1748 0
M  V30 37496 H 3577.68 -4.92956 -4.20593 0
M  V30 37497 N 3571.09 1.17911 -1.04569 0
M  V30 37498 C 3572.04 2.19648 -0.611446 0
M  V30 37499 C 3573.02 1.57074 0.348774 0
M  V30 37500 O 3574.22 1.7621 0.167014 0
M  V30 37501 C 3571.34 3.43295 0.0188776 0
M  V30 37502 C 3570.43 4.1298 -0.964793 0
M  V30 37503 N 3570.82 4.58588 -2.13379 0
M  V30 37504 C 3569.12 4.38913 -0.791894 0
M  V30 37505 C 3569.82 5.12291 -2.75558 0
M  V30 37506 N 3568.8 5.04113 -2.03399 0
M  V30 37507 H 3572.6 2.52608 -1.50222 0
M  V30 37508 H 3570.11 1.34172 -0.914969 0
M  V30 37509 H 3572.11 4.15448 0.347702 0
M  V30 37510 H 3570.77 3.11829 0.905122 0
M  V30 37511 H 3571.78 4.52876 -2.51244 0
M  V30 37512 H 3568.46 4.17477 0.043832 0
M  V30 37513 H 3569.85 5.57747 -3.74657 0
M  V30 37514 N 3572.57 0.825847 1.34229 0
M  V30 37515 C 3573.52 0.238131 2.31378 0
M  V30 37516 C 3574.51 -0.622739 1.57538 0
M  V30 37517 O 3575.72 -0.513752 1.72513 0
M  V30 37518 H 3572.09 0.0582647 0.749739 0
M  V30 37519 H 3574.06 1.07226 2.78469 0
M  V30 37520 C 3572.81 -0.582909 3.42779 0
M  V30 37521 H 3572.13 0.0701911 3.99738 0
M  V30 37522 H 3573.57 -0.960194 4.12985 0
M  V30 37523 C 3572.03 -1.75646 2.87489 0
M  V30 37524 O 3572.56 -2.85474 2.82608 0
M  V30 37525 N 3570.77 -1.57414 2.44273 0
M  V30 37526 H 3570.32 -0.680749 2.48442 0
M  V30 37527 H 3570.27 -2.36087 2.0763 0
M  V30 37528 N 3574.05 -1.46497 0.581077 0
M  V30 37529 C 3575.29 -2.03264 0.0744558 0
M  V30 37530 C 3575.65 -1.44471 -1.27066 0
M  V30 37531 O 3574.94 -0.599817 -1.81969 0
M  V30 37532 C 3575.13 -3.57363 -0.0514146 0
M  V30 37533 C 3574.96 -4.311 1.27995 0
M  V30 37534 C 3573.73 -4.70072 1.85366 0
M  V30 37535 C 3575.93 -4.6474 2.20276 0
M  V30 37536 N 3573.91 -5.28552 3.12259 0
M  V30 37537 C 3575.28 -5.23773 3.31756 0
M  V30 37538 C 3577.34 -4.46671 2.19977 0
M  V30 37539 C 3576.04 -5.66644 4.43066 0
M  V30 37540 C 3578.07 -4.90557 3.30315 0
M  V30 37541 C 3577.43 -5.4966 4.40515 0
M  V30 37542 H 3573.53 -0.778862 0.0699842 0
M  V30 37543 H 3576.11 -1.78671 0.773616 0
M  V30 37544 H 3574.28 -3.81673 -0.71974 0
M  V30 37545 H 3576.02 -4.00775 -0.562271 0
M  V30 37546 H 3572.77 -4.5278 1.38878 0
M  V30 37547 H 3573.19 -5.62316 3.77002 0
M  V30 37548 H 3577.84 -4.00312 1.36051 0
M  V30 37549 H 3575.55 -6.11981 5.27735 0
M  V30 37550 H 3579.14 -4.78329 3.31199 0
M  V30 37551 H 3578.02 -5.82997 5.24485 0
M  V30 37552 N 3575.52 -0.31877 -1.54343 0
M  V30 37553 C 3576.47 0.56493 -2.25635 0
M  V30 37554 C 3577.47 1.1225 -1.26871 0
M  V30 37555 O 3578.67 1.07109 -1.44664 0
M  V30 37556 H 3575.05 0.200821 -0.72469 0
M  V30 37557 H 3577.02 -0.0586918 -2.98342 0
M  V30 37558 C 3575.77 1.71657 -3.02373 0
M  V30 37559 H 3575.09 1.29677 -3.78185 0
M  V30 37560 H 3576.53 2.31059 -3.55511 0
M  V30 37561 C 3574.99 2.63132 -2.10388 0
M  V30 37562 O 3575.52 3.64717 -1.68357 0
M  V30 37563 N 3573.72 2.3126 -1.75975 0
M  V30 37564 H 3573.27 1.48694 -2.10352 0
M  V30 37565 H 3573.23 2.92728 -1.14707 0
M  V30 37566 N 3577 1.5753 -0.0468419 0
M  V30 37567 C 3578.24 1.94389 0.631853 0
M  V30 37568 C 3578.61 0.924745 1.68263 0
M  V30 37569 O 3579.81 1.18012 2.41509 0
M  V30 37570 C 3578.08 3.36065 1.21636 0
M  V30 37571 S 3579.64 3.94873 1.91366 0
M  V30 37572 H 3576.45 0.680023 0.207582 0
M  V30 37573 H 3579.06 1.95163 -0.114744 0
M  V30 37574 H 3577.76 4.08041 0.439407 0
M  V30 37575 H 3577.29 3.38775 1.99987 0
M  V30 37576 H 3579.31 3.79747 3.19385 0
M  V30 37577 N 3578.48 -0.226499 1.55964 0
M  V30 37578 C 3579.73 -0.953028 1.79012 0
M  V30 37579 C 3580.06 -1.84183 0.615641 0
M  V30 37580 O 3579.33 -1.90645 -0.385308 0
M  V30 37581 C 3579.62 -1.79619 3.12104 0
M  V30 37582 C 3579.47 -0.934209 4.39992 0
M  V30 37583 C 3580.79 -2.7749 3.41595 0
M  V30 37584 H 3577.91 -0.34504 0.651242 0
M  V30 37585 H 3580.55 -0.222203 1.88696 0
M  V30 37586 H 3578.7 -2.41928 3.03979 0
M  V30 37587 H 3580.37 -0.328248 4.60131 0
M  V30 37588 H 3578.62 -0.239411 4.33139 0
M  V30 37589 H 3579.29 -1.55844 5.29544 0
M  V30 37590 H 3581.76 -2.25317 3.49816 0
M  V30 37591 H 3580.64 -3.33591 4.35899 0
M  V30 37592 H 3580.9 -3.54981 2.63516 0
M  V30 37593 N 3579.96 -1.4969 -0.493005 0
M  V30 37594 C 3581.24 -1.50086 -1.25434 0
M  V30 37595 C 3581.62 -0.233075 -2.09809 0
M  V30 37596 O 3580.96 0.784304 -2.14618 0
M  V30 37597 C 3581.17 -2.78432 -2.1042 0
M  V30 37598 C 3582.52 -3.28237 -2.69343 0
M  V30 37599 O 3583.55 -2.79604 -2.20681 0
M  V30 37600 O 3582.4 -4.12959 -3.57949 0
M  V30 37601 H 3579.5 -0.601054 -0.568034 0
M  V30 37602 H 3582.04 -1.61961 -0.50662 0
M  V30 37603 H 3580.82 -3.6219 -1.48102 0
M  V30 37604 H 3580.44 -2.69455 -2.92369 0
M  V30 37605 N 3581.44 0.744631 -1.38899 0
M  V30 37606 C 3582.68 1.51672 -1.37021 0
M  V30 37607 C 3583.04 1.91964 0.0370696 0
M  V30 37608 O 3584.24 2.68191 0.180788 0
M  V30 37609 C 3582.51 2.72965 -2.30706 0
M  V30 37610 S 3584.07 3.62728 -2.46929 0
M  V30 37611 H 3580.89 0.518924 -0.486044 0
M  V30 37612 H 3583.49 0.873353 -1.74908 0
M  V30 37613 H 3582.2 2.41488 -3.31831 0
M  V30 37614 H 3581.73 3.42239 -1.94 0
M  V30 37615 H 3583.74 4.66169 -1.70002 0
M  V30 37616 N 3582.91 1.23916 0.973785 0
M  V30 37617 C 3584.19 0.98333 1.69086 0
M  V30 37618 C 3584.57 -0.496153 2.05187 0
M  V30 37619 O 3583.92 -1.46898 1.75023 0
M  V30 37620 C 3584.13 1.90017 2.92736 0
M  V30 37621 C 3585.48 2.16752 3.65108 0
M  V30 37622 O 3586.5 1.87621 3.02782 0
M  V30 37623 O 3585.36 2.66192 4.77289 0
M  V30 37624 H 3582.45 0.371399 0.738913 0
M  V30 37625 H 3585 1.34988 1.02842 0
M  V30 37626 H 3583.77 2.90003 2.62705 0
M  V30 37627 H 3583.4 1.53641 3.66715 0
M  V30 37628 N 3584.39 -1.17355 1.05193 0
M  V30 37629 C 3585.62 -1.91536 0.782406 0
M  V30 37630 C 3586.04 -1.76817 -0.661904 0
M  V30 37631 O 3585.39 -1.10534 -1.45219 0
M  V30 37632 C 3585.44 -3.42598 1.15363 0
M  V30 37633 O 3585.16 -3.56864 2.54125 0
M  V30 37634 C 3586.67 -4.33854 0.910243 0
M  V30 37635 H 3583.89 -0.607714 0.284472 0
M  V30 37636 H 3586.43 -1.48819 1.40261 0
M  V30 37637 H 3584.58 -3.83061 0.578174 0
M  V30 37638 H 3585 -4.50459 2.68676 0
M  V30 37639 H 3586.47 -5.38355 1.21973 0
M  V30 37640 H 3586.95 -4.38928 -0.154547 0
M  V30 37641 H 3587.56 -3.99105 1.46954 0
M  V30 37642 N 3585.87 -0.832954 -1.3379 0
M  V30 37643 C 3586.83 -0.267236 -2.27637 0
M  V30 37644 C 3587.83 0.560643 -1.5071 0
M  V30 37645 O 3589.02 0.375291 -1.70109 0
M  V30 37646 C 3586.16 0.624189 -3.35137 0
M  V30 37647 H 3587.35 -1.09527 -2.79184 0
M  V30 37648 H 3584.9 -0.60558 -1.44092 0
M  V30 37649 H 3585.64 1.47489 -2.88821 0
M  V30 37650 H 3585.42 0.0319138 -3.92087 0
M  V30 37651 H 3586.91 1.01348 -4.05115 0
M  V30 37652 N 3587.35 1.46186 -0.588837 0
M  V30 37653 C 3588.6 2.01955 -0.076612 0
M  V30 37654 C 3588.92 1.46205 1.29031 0
M  V30 37655 O 3588.19 0.649076 1.84835 0
M  V30 37656 H 3586.77 0.74657 -0.0253312 0
M  V30 37657 H 3589.43 1.79216 -0.766002 0
M  V30 37658 H 3588.53 3.12098 -0.012225 0
M  V30 37659 N 3588.83 0.32695 1.54171 0
M  V30 37660 C 3590.07 -0.275012 2.00927 0
M  V30 37661 C 3590.41 -1.5152 1.21472 0
M  V30 37662 O 3589.68 -1.92205 0.297905 0
M  V30 37663 C 3589.96 -0.605771 3.54968 0
M  V30 37664 C 3589.82 0.645357 4.45146 0
M  V30 37665 C 3591.14 -1.42206 4.16492 0
M  V30 37666 H 3588.25 -0.0984822 0.73039 0
M  V30 37667 H 3590.9 0.4442 1.84735 0
M  V30 37668 H 3589.05 -1.2185 3.68897 0
M  V30 37669 H 3590.72 1.28357 4.43082 0
M  V30 37670 H 3588.96 1.27357 4.14684 0
M  V30 37671 H 3589.63 0.369417 5.50762 0
M  V30 37672 H 3592.11 -0.9041 4.06159 0
M  V30 37673 H 3590.98 -1.62225 5.2438 0
M  V30 37674 H 3591.25 -2.41921 3.70036 0
M  V30 37675 N 3590.3 -1.57503 0.0551955 0
M  V30 37676 C 3591.55 -1.92468 -0.616466 0
M  V30 37677 C 3591.87 -0.934582 -1.71145 0
M  V30 37678 O 3591.14 0.0199305 -1.9589 0
M  V30 37679 H 3589.72 -0.710483 -0.230701 0
M  V30 37680 H 3592.39 -1.94594 0.109145 0
M  V30 37681 H 3591.48 -2.93818 -1.05249 0
M  V30 37682 N 3591.78 0.218225 -1.56082 0
M  V30 37683 C 3592.73 1.29006 -1.93546 0
M  V30 37684 C 3593.72 1.48346 -0.817912 0
M  V30 37685 O 3594.93 1.49481 -1.00277 0
M  V30 37686 H 3591.31 0.432591 -0.615117 0
M  V30 37687 H 3593.28 0.946917 -2.82977 0
M  V30 37688 C 3592.03 2.63255 -2.27139 0
M  V30 37689 H 3591.35 2.49182 -3.12647 0
M  V30 37690 H 3592.79 3.37056 -2.57234 0
M  V30 37691 C 3591.25 3.18516 -1.0977 0
M  V30 37692 O 3591.78 4.00078 -0.360571 0
M  V30 37693 N 3589.98 2.76935 -0.880638 0
M  V30 37694 H 3589.53 2.10715 -1.48179 0
M  V30 37695 H 3589.49 3.1425 -0.0970787 0
M  V30 37696 N 3593.26 1.4995 0.485059 0
M  V30 37697 C 3594.49 1.63973 1.26176 0
M  V30 37698 C 3594.9 0.317441 1.86112 0
M  V30 37699 O 3594.26 -0.699008 1.68583 0
M  V30 37700 C 3594.31 2.7205 2.38057 0
M  V30 37701 O 3594.03 3.99152 1.80581 0
M  V30 37702 C 3595.53 2.96922 3.29169 0
M  V30 37703 H 3592.75 0.551571 0.382113 0
M  V30 37704 H 3595.3 1.96086 0.580573 0
M  V30 37705 H 3593.45 2.42671 3.01976 0
M  V30 37706 H 3593.87 4.58811 2.54151 0
M  V30 37707 H 3595.34 3.7624 4.03915 0
M  V30 37708 H 3595.82 2.0745 3.87119 0
M  V30 37709 H 3596.42 3.27779 2.71 0
M  V30 37710 N 3594.74 -0.737255 1.39292 0
M  V30 37711 C 3595.99 -1.49677 1.36393 0
M  V30 37712 C 3596.31 -1.94457 -0.0408517 0
M  V30 37713 O 3595.57 -1.66941 -1.02124 0
M  V30 37714 C 3595.87 -2.75189 2.28048 0
M  V30 37715 C 3595.53 -2.49288 3.75721 0
M  V30 37716 C 3594.2 -2.41933 4.15959 0
M  V30 37717 C 3596.55 -2.2708 4.69131 0
M  V30 37718 C 3593.88 -2.10409 5.47672 0
M  V30 37719 C 3596.23 -1.97073 6.0112 0
M  V30 37720 C 3594.89 -1.88186 6.40424 0
M  V30 37721 H 3594.16 -0.547707 0.499097 0
M  V30 37722 H 3596.81 -0.846386 1.71781 0
M  V30 37723 H 3595.11 -3.44959 1.85771 0
M  V30 37724 H 3596.81 -3.33208 2.23099 0
M  V30 37725 H 3593.4 -2.5589 3.43829 0
M  V30 37726 H 3597.59 -2.31731 4.38879 0
M  V30 37727 H 3592.84 -2.02049 5.77049 0
M  V30 37728 H 3597.02 -1.78897 6.7303 0
M  V30 37729 H 3594.64 -1.63524 7.42404 0
M  V30 37730 N 3596.22 -1.24431 -0.967199 0
M  V30 37731 C 3597.47 -1.07832 -1.70456 0
M  V30 37732 C 3597.78 0.382746 -1.91819 0
M  V30 37733 O 3598.99 0.668936 -2.6313 0
M  V30 37734 C 3597.44 -1.88131 -3.06814 0
M  V30 37735 C 3597.05 -3.3865 -2.93292 0
M  V30 37736 C 3598.79 -1.80063 -3.84419 0
M  V30 37737 C 3596.7 -4.11291 -4.24963 0
M  V30 37738 H 3595.63 -0.399908 -0.63921 0
M  V30 37739 H 3598.28 -1.48516 -1.07773 0
M  V30 37740 H 3596.66 -1.40261 -3.70328 0
M  V30 37741 H 3597.84 -3.94104 -2.38787 0
M  V30 37742 H 3596.15 -3.47675 -2.29152 0
M  V30 37743 H 3598.75 -2.31637 -4.81921 0
M  V30 37744 H 3599.09 -0.765979 -4.09192 0
M  V30 37745 H 3599.63 -2.25616 -3.27632 0
M  V30 37746 H 3596.36 -5.15117 -4.05382 0
M  V30 37747 H 3595.88 -3.60623 -4.79282 0
M  V30 37748 H 3597.56 -4.18317 -4.93579 0
M  V30 37749 N 3597.7 1.16795 -1.05814 0
M  V30 37750 C 3598.94 1.88887 -0.781088 0
M  V30 37751 C 3599.3 1.79564 0.679766 0
M  V30 37752 O 3600.5 2.46534 1.0712 0
M  V30 37753 C 3598.77 3.34602 -1.25604 0
M  V30 37754 S 3600.33 4.24599 -1.10731 0
M  V30 37755 H 3597.15 0.652042 -0.283481 0
M  V30 37756 H 3599.75 1.41016 -1.35406 0
M  V30 37757 H 3598.45 3.38924 -2.31427 0
M  V30 37758 H 3597.99 3.8752 -0.677609 0
M  V30 37759 H 3600 4.96187 -0.0352679 0
M  V30 37760 N 3599.17 0.840037 1.33346 0
M  V30 37761 C 3600.08 0.276568 2.32964 0
M  V30 37762 C 3601.1 -0.598008 1.63401 0
M  V30 37763 O 3602.28 -0.501854 1.95047 0
M  V30 37764 C 3599.34 -0.538099 3.42499 0
M  V30 37765 C 3598.4 0.36089 4.2778 0
M  V30 37766 C 3597.63 -0.414992 5.32084 0
M  V30 37767 O 3597.86 -1.64657 5.46118 0
M  V30 37768 O 3596.79 0.211608 6.01528 0
M  V30 37769 H 3600.62 1.10152 2.8302 0
M  V30 37770 H 3598.2 0.60259 1.36708 0
M  V30 37771 H 3600.08 -1.00101 4.09338 0
M  V30 37772 H 3598.76 -1.34009 2.94658 0
M  V30 37773 H 3597.67 0.871662 3.63803 0
M  V30 37774 H 3599 1.12768 4.79108 0
M  V30 37775 N 3600.65 -1.45872 0.596582 0
M  V30 37776 C 3601.56 -2.34235 -0.130791 0
M  V30 37777 C 3602.58 -1.50586 -0.871779 0
M  V30 37778 O 3603.75 -1.83418 -0.831844 0
M  V30 37779 C 3600.82 -3.28018 -1.12273 0
M  V30 37780 C 3599.88 -4.27571 -0.384907 0
M  V30 37781 C 3599.11 -5.16873 -1.3296 0
M  V30 37782 O 3599.34 -5.0938 -2.56687 0
M  V30 37783 O 3598.27 -5.96113 -0.832636 0
M  V30 37784 H 3602.1 -2.97813 0.595083 0
M  V30 37785 H 3599.68 -1.45074 0.356898 0
M  V30 37786 H 3601.56 -3.85837 -1.69434 0
M  V30 37787 H 3600.24 -2.67019 -1.82983 0
M  V30 37788 H 3599.14 -3.73399 0.228882 0
M  V30 37789 H 3600.48 -4.91394 0.281485 0
M  V30 37790 N 3602.13 -0.335122 -1.53996 0
M  V30 37791 C 3603.38 0.264353 -2.0107 0
M  V30 37792 C 3603.71 1.50874 -1.22274 0
M  V30 37793 O 3602.98 1.92044 -0.308094 0
M  V30 37794 C 3603.27 0.586937 -3.55284 0
M  V30 37795 C 3603.12 -0.668955 -4.44798 0
M  V30 37796 C 3604.44 1.39995 -4.1724 0
M  V30 37797 H 3601.56 0.0946073 -0.730902 0
M  V30 37798 H 3604.2 -0.453991 -1.84496 0
M  V30 37799 H 3602.35 1.19892 -3.69538 0
M  V30 37800 H 3604.02 -1.30705 -4.42395 0
M  V30 37801 H 3602.26 -1.29554 -4.14003 0
M  V30 37802 H 3602.94 -0.39862 -5.50559 0
M  V30 37803 H 3605.41 0.882548 -4.06633 0
M  V30 37804 H 3604.29 1.59442 -5.25233 0
M  V30 37805 H 3604.55 2.39956 -3.71314 0
M  V30 37806 N 3603.61 1.57472 -0.0635475 0
M  V30 37807 C 3604.57 2.11137 0.891844 0
M  V30 37808 C 3605.57 1.0336 1.2318 0
M  V30 37809 O 3606.76 1.29383 1.16644 0
M  V30 37810 C 3603.89 2.60588 2.19788 0
M  V30 37811 H 3605.09 2.96853 0.426408 0
M  V30 37812 H 3602.64 1.55201 0.185042 0
M  V30 37813 H 3603.37 1.78301 2.70886 0
M  V30 37814 H 3603.16 3.39359 1.96413 0
M  V30 37815 H 3604.65 3.02212 2.88198 0
M  V30 37816 N 3605.09 -0.209945 1.56195 0
M  V30 37817 C 3606.03 -1.27978 1.94228 0
M  V30 37818 C 3607.03 -1.4791 0.825768 0
M  V30 37819 O 3608.23 -1.48947 1.01068 0
M  V30 37820 H 3604.61 -0.429322 0.617403 0
M  V30 37821 H 3606.58 -0.931896 2.83475 0
M  V30 37822 C 3605.33 -2.62047 2.28531 0
M  V30 37823 H 3604.65 -2.47521 3.13964 0
M  V30 37824 H 3606.09 -3.35687 2.59018 0
M  V30 37825 C 3604.55 -3.17929 1.11457 0
M  V30 37826 O 3605.08 -3.99882 0.381783 0
M  V30 37827 N 3603.29 -2.76464 0.895312 0
M  V30 37828 H 3602.83 -2.09926 1.49294 0
M  V30 37829 H 3602.79 -3.14194 0.113743 0
M  V30 37830 N 3606.56 -1.50205 -0.4771 0
M  V30 37831 C 3607.84 -1.51408 -1.23835 0
M  V30 37832 C 3608.22 -0.255315 -2.0955 0
M  V30 37833 O 3607.57 0.761497 -2.15438 0
M  V30 37834 C 3607.78 -2.80648 -2.07455 0
M  V30 37835 C 3609.13 -3.31075 -2.65846 0
M  V30 37836 O 3610.15 -2.81928 -2.17703 0
M  V30 37837 O 3609.01 -4.16732 -3.53548 0
M  V30 37838 H 3606.1 -0.607045 -0.561627 0
M  V30 37839 H 3608.65 -1.6249 -0.489413 0
M  V30 37840 H 3607.42 -3.6374 -1.44252 0
M  V30 37841 H 3607.04 -2.72541 -2.89495 0
M  V30 37842 N 3608.04 0.729857 -1.39681 0
M  V30 37843 C 3608.97 1.85702 -1.41552 0
M  V30 37844 C 3609.95 1.67809 -0.278216 0
M  V30 37845 O 3611.14 1.88052 -0.484782 0
M  V30 37846 C 3608.27 3.23508 -1.26333 0
M  V30 37847 C 3607.22 3.56047 -2.37517 0
M  V30 37848 C 3606.55 4.92845 -2.07384 0
M  V30 37849 C 3607.85 3.58496 -3.7984 0
M  V30 37850 H 3609.54 1.84393 -2.3588 0
M  V30 37851 H 3607.09 0.885727 -1.13538 0
M  V30 37852 H 3609.04 4.0204 -1.26261 0
M  V30 37853 H 3607.77 3.25356 -0.284754 0
M  V30 37854 H 3606.42 2.79848 -2.36814 0
M  V30 37855 H 3606.07 4.91279 -1.07952 0
M  V30 37856 H 3605.77 5.15583 -2.81864 0
M  V30 37857 H 3607.3 5.73728 -2.08971 0
M  V30 37858 H 3608.71 4.27094 -3.82444 0
M  V30 37859 H 3607.11 3.92755 -4.53722 0
M  V30 37860 H 3608.18 2.58187 -4.10448 0
M  V30 37861 N 3609.52 1.24942 0.960587 0
M  V30 37862 C 3610.75 1.1206 1.73926 0
M  V30 37863 C 3611.16 -0.326197 1.85961 0
M  V30 37864 O 3610.52 -1.2247 1.35305 0
M  V30 37865 C 3610.57 1.76272 3.15611 0
M  V30 37866 O 3610.29 3.15296 3.04171 0
M  V30 37867 C 3611.79 1.69093 4.09784 0
M  V30 37868 H 3609.01 0.391159 0.545193 0
M  V30 37869 H 3611.56 1.65188 1.20553 0
M  V30 37870 H 3609.71 1.27129 3.65947 0
M  V30 37871 H 3610.13 3.46775 3.93507 0
M  V30 37872 H 3611.6 2.18692 5.06831 0
M  V30 37873 H 3612.08 0.653529 4.34311 0
M  V30 37874 H 3612.68 2.17696 3.65361 0
M  V30 37875 N 3611 -1.16233 1.06432 0
M  V30 37876 C 3612.23 -1.90695 0.802677 0
M  V30 37877 C 3612.64 -1.77509 -0.643113 0
M  V30 37878 O 3612 -1.12068 -1.44038 0
M  V30 37879 C 3612.05 -3.41355 1.1899 0
M  V30 37880 O 3611.77 -3.54149 2.57896 0
M  V30 37881 C 3613.27 -4.32864 0.956208 0
M  V30 37882 H 3610.49 -0.604663 0.290901 0
M  V30 37883 H 3613.04 -1.47323 1.41832 0
M  V30 37884 H 3611.19 -3.82426 0.61877 0
M  V30 37885 H 3611.6 -4.47584 2.73439 0
M  V30 37886 H 3613.08 -5.37031 1.27676 0
M  V30 37887 H 3613.56 -4.39067 -0.107984 0
M  V30 37888 H 3614.16 -3.97524 1.51179 0
M  V30 37889 N 3612.48 -0.847097 -1.32899 0
M  V30 37890 C 3613.44 -0.291364 -2.27341 0
M  V30 37891 C 3614.44 0.544626 -1.51296 0
M  V30 37892 O 3615.63 0.357228 -1.70498 0
M  V30 37893 C 3612.76 0.588609 -3.3578 0
M  V30 37894 H 3613.95 -1.12482 -2.78007 0
M  V30 37895 H 3611.51 -0.620829 -1.43441 0
M  V30 37896 H 3612.24 1.44418 -2.90369 0
M  V30 37897 H 3612.03 -0.00967407 -3.92099 0
M  V30 37898 H 3613.52 0.970455 -4.06167 0
M  V30 37899 N 3613.95 1.45554 -0.604309 0
M  V30 37900 C 3614.88 2.33269 0.103818 0
M  V30 37901 C 3615.87 1.46636 0.862078 0
M  V30 37902 O 3617.05 1.75414 0.833278 0
M  V30 37903 C 3614.18 3.29288 1.10394 0
M  V30 37904 C 3613.13 4.2553 0.459114 0
M  V30 37905 C 3612.46 5.11216 1.56725 0
M  V30 37906 C 3613.76 5.18636 -0.6176 0
M  V30 37907 H 3615.45 2.92727 -0.62859 0
M  V30 37908 H 3613 1.4076 -0.303735 0
M  V30 37909 H 3614.95 3.8952 1.60787 0
M  V30 37910 H 3613.68 2.67982 1.8669 0
M  V30 37911 H 3612.34 3.66592 -0.0239153 0
M  V30 37912 H 3611.98 4.4628 2.32041 0
M  V30 37913 H 3611.68 5.76409 1.14132 0
M  V30 37914 H 3613.21 5.74315 2.07351 0
M  V30 37915 H 3614.62 5.72958 -0.197884 0
M  V30 37916 H 3613.02 5.92289 -0.965094 0
M  V30 37917 H 3614.09 4.61262 -1.49549 0
M  V30 37918 N 3615.43 0.343284 1.53816 0
M  V30 37919 C 3616.85 -0.00865043 1.59598 0
M  V30 37920 C 3617.05 -1.4875 1.35925 0
M  V30 37921 O 3616.1 -2.24618 1.15338 0
M  V30 37922 C 3617.42 0.427287 2.97649 0
M  V30 37923 C 3618.97 0.379608 3.1069 0
M  V30 37924 C 3619.44 0.79101 4.51118 0
M  V30 37925 N 3620.93 0.745186 4.57167 0
M  V30 37926 C 3621.67 1.03547 5.63973 0
M  V30 37927 N 3621.16 1.39389 6.78633 0
M  V30 37928 N 3622.96 0.959725 5.53846 0
M  V30 37929 H 3615.11 1.30658 1.67458 0
M  V30 37930 H 3617.37 0.532602 0.784244 0
M  V30 37931 H 3617.08 1.45839 3.20037 0
M  V30 37932 H 3616.95 -0.197638 3.76682 0
M  V30 37933 H 3619.34 -0.642325 2.88025 0
M  V30 37934 H 3619.42 1.03973 2.33716 0
M  V30 37935 H 3619.06 1.81095 4.74518 0
M  V30 37936 H 3618.99 0.108366 5.26488 0
M  V30 37937 H 3621.48 0.480818 3.74829 0
M  V30 37938 H 3621.8 1.60024 7.5605 0
M  V30 37939 H 3620.14 1.43234 6.8008 0
M  V30 37940 H 3623.33 0.679055 4.63148 0
M  V30 37941 H 3623.5 1.1893 6.36993 0
M  V30 37942 N 3616.91 -1.57436 0.0718977 0
M  V30 37943 C 3618.33 -1.5704 -0.284732 0
M  V30 37944 C 3618.53 -1.0813 -1.7003 0
M  V30 37945 O 3617.58 -0.747232 -2.4119 0
M  V30 37946 C 3618.9 -3.00552 -0.0942954 0
M  V30 37947 C 3620.44 -3.12571 -0.163824 0
M  V30 37948 C 3620.92 -4.58 -0.00166607 0
M  V30 37949 N 3622.41 -4.63165 -0.0572675 0
M  V30 37950 C 3623.14 -5.73383 0.0437857 0
M  V30 37951 N 3622.64 -6.92516 0.198365 0
M  V30 37952 N 3624.43 -5.62098 -0.0132867 0
M  V30 37953 H 3616.58 -1.87544 0.997053 0
M  V30 37954 H 3618.85 -0.864586 0.388838 0
M  V30 37955 H 3618.55 -3.40448 0.882505 0
M  V30 37956 H 3618.43 -3.67577 -0.846571 0
M  V30 37957 H 3620.81 -2.72562 -1.13111 0
M  V30 37958 H 3620.9 -2.48184 0.619556 0
M  V30 37959 H 3620.54 -4.98699 0.962387 0
M  V30 37960 H 3620.47 -5.20419 -0.804451 0
M  V30 37961 H 3622.96 -3.77494 -0.175146 0
M  V30 37962 H 3623.27 -7.72336 0.267615 0
M  V30 37963 H 3621.62 -6.94607 0.233728 0
M  V30 37964 H 3624.81 -4.67912 -0.132753 0
M  V30 37965 H 3624.98 -6.47963 0.0689215 0
M  V30 37966 N 3618.39 0.201658 -1.56305 0
M  V30 37967 C 3619.8 0.766923 -1.70221 0
M  V30 37968 C 3620.15 1.84137 -0.677351 0
M  V30 37969 O 3619.28 2.1575 0.167566 0
M  V30 37970 C 3619.87 1.39789 -3.08617 0
M  V30 37971 C 3618.43 1.91032 -3.24321 0
M  V30 37972 C 3617.58 0.777806 -2.66168 0
M  V30 37973 H 3620.53 -0.0233162 -1.58683 0
M  V30 37974 H 3620.55 2.26716 -3.05582 0
M  V30 37975 H 3620.06 0.61566 -3.83186 0
M  V30 37976 H 3618.16 2.71994 -2.54656 0
M  V30 37977 H 3618.27 2.07662 -4.31756 0
M  V30 37978 H 3616.64 1.19038 -2.25171 0
M  V30 37979 H 3617.42 0.00792145 -3.43299 0
M  V30 37980 N 3619.87 1.50456 0.469128 0
M  V30 37981 C 3621.12 1.60783 1.21785 0
M  V30 37982 C 3621.43 0.31461 1.93053 0
M  V30 37983 O 3622.63 0.296821 2.69873 0
M  V30 37984 C 3621.09 2.83821 2.213 0
M  V30 37985 C 3620.7 4.20027 1.55826 0
M  V30 37986 C 3622.44 3.03494 2.96802 0
M  V30 37987 C 3620.35 5.34248 2.53639 0
M  V30 37988 H 3619.28 0.59876 0.45826 0
M  V30 37989 H 3621.93 1.76889 0.488128 0
M  V30 37990 H 3620.31 2.61279 2.97573 0
M  V30 37991 H 3621.49 4.52831 0.853292 0
M  V30 37992 H 3619.8 4.05974 0.925975 0
M  V30 37993 H 3622.4 3.86 3.70011 0
M  V30 37994 H 3622.74 2.15299 3.56303 0
M  V30 37995 H 3623.27 3.26227 2.27642 0
M  V30 37996 H 3620.01 6.24603 1.98874 0
M  V30 37997 H 3619.53 5.0586 3.22282 0
M  V30 37998 H 3621.21 5.64902 3.15428 0
M  V30 37999 N 3621.34 -0.722439 1.40066 0
M  V30 38000 C 3622.29 -1.85786 1.39951 0
M  V30 38001 C 3623.29 -1.67054 0.280919 0
M  V30 38002 O 3624.49 -1.74243 0.451605 0
M  V30 38003 H 3620.87 -0.611774 0.437307 0
M  V30 38004 H 3622.84 -1.83 2.35698 0
M  V30 38005 C 3621.59 -3.23588 1.27224 0
M  V30 38006 H 3620.91 -3.38605 2.12572 0
M  V30 38007 H 3622.35 -4.0319 1.31202 0
M  V30 38008 C 3620.81 -3.36895 -0.0181873 0
M  V30 38009 O 3621.34 -3.89469 -0.983693 0
M  V30 38010 N 3619.55 -2.90474 -0.0854196 0
M  V30 38011 H 3619.09 -2.47879 0.700996 0
M  V30 38012 H 3619.05 -2.99757 -0.948315 0
M  V30 38013 N 3622.82 -1.2545 -0.953947 0
M  V30 38014 C 3623.79 -1.05974 -2.0323 0
M  V30 38015 C 3624.79 -0.0123137 -1.60795 0
M  V30 38016 O 3625.98 -0.254563 -1.7233 0
M  V30 38017 C 3623.11 -0.609164 -3.35413 0
M  V30 38018 H 3624.3 -2.017 -2.2194 0
M  V30 38019 H 3621.85 -1.07866 -1.13113 0
M  V30 38020 H 3622.59 0.350667 -3.22399 0
M  V30 38021 H 3622.37 -1.36532 -3.67561 0
M  V30 38022 H 3623.86 -0.494353 -4.14664 0
M  V30 38023 N 3624.3 1.15667 -1.07047 0
M  V30 38024 C 3625.53 1.90267 -0.812779 0
M  V30 38025 C 3625.94 1.77848 0.633691 0
M  V30 38026 O 3625.3 1.1283 1.43442 0
M  V30 38027 C 3625.35 3.4072 -1.20799 0
M  V30 38028 O 3625.07 3.52776 -2.5977 0
M  V30 38029 C 3626.57 4.32351 -0.97915 0
M  V30 38030 H 3623.79 0.603112 -0.294104 0
M  V30 38031 H 3626.34 1.46568 -1.42611 0
M  V30 38032 H 3624.49 3.82093 -0.639043 0
M  V30 38033 H 3624.91 4.46128 -2.75808 0
M  V30 38034 H 3626.38 5.36347 -1.30522 0
M  V30 38035 H 3626.86 4.39118 0.084698 0
M  V30 38036 H 3627.46 3.96716 -1.53285 0
M  V30 38037 N 3625.78 0.854133 1.32447 0
M  V30 38038 C 3627.06 0.378567 1.91902 0
M  V30 38039 C 3627.44 -1.13779 1.77813 0
M  V30 38040 O 3626.78 -1.9592 1.17591 0
M  V30 38041 C 3626.99 0.842358 3.38682 0
M  V30 38042 C 3628.34 0.859234 4.15815 0
M  V30 38043 O 3629.37 0.786962 3.47398 0
M  V30 38044 O 3628.23 0.961028 5.37984 0
M  V30 38045 H 3625.32 0.110299 0.819612 0
M  V30 38046 H 3627.87 0.940999 1.41221 0
M  V30 38047 H 3626.64 1.8855 3.42877 0
M  V30 38048 H 3626.26 0.257348 3.96766 0
M  V30 38049 N 3627.26 -1.45231 0.61202 0
M  V30 38050 C 3628.67 -1.57195 0.276033 0
M  V30 38051 C 3628.87 -1.60268 -1.22133 0
M  V30 38052 O 3627.93 -1.53537 -2.00456 0
M  V30 38053 C 3629.24 -2.85262 0.951115 0
M  V30 38054 C 3630.79 -2.98944 0.92745 0
M  V30 38055 C 3631.27 -4.29787 1.58263 0
M  V30 38056 N 3632.76 -4.36556 1.54832 0
M  V30 38057 C 3633.49 -5.36476 2.02438 0
M  V30 38058 N 3632.99 -6.42908 2.58149 0
M  V30 38059 N 3634.78 -5.27862 1.93179 0
M  V30 38060 H 3626.93 -1.4148 1.58421 0
M  V30 38061 H 3629.19 -0.676722 0.663891 0
M  V30 38062 H 3628.9 -2.88908 2.00562 0
M  V30 38063 H 3628.77 -3.7417 0.477109 0
M  V30 38064 H 3631.16 -2.94862 -0.118519 0
M  V30 38065 H 3631.24 -2.11434 1.43976 0
M  V30 38066 H 3630.89 -4.34628 2.62795 0
M  V30 38067 H 3630.82 -5.16121 1.0453 0
M  V30 38068 H 3633.31 -3.60251 1.14139 0
M  V30 38069 H 3633.62 -7.15407 2.92256 0
M  V30 38070 H 3631.97 -6.43647 2.6219 0
M  V30 38071 H 3635.16 -4.43621 1.49392 0
M  V30 38072 H 3635.33 -6.05583 2.30593 0
M  V30 38073 N 3628.74 -0.351436 -1.53632 0
M  V30 38074 C 3629.96 0.246465 -2.0593 0
M  V30 38075 C 3630.39 1.4281 -1.22421 0
M  V30 38076 O 3629.74 1.79707 -0.239843 0
M  V30 38077 C 3629.79 0.631799 -3.55022 0
M  V30 38078 O 3628.9 1.73085 -3.7432 0
M  V30 38079 H 3628.24 0.0392307 -0.66284 0
M  V30 38080 H 3630.77 -0.507939 -1.98195 0
M  V30 38081 H 3630.78 0.906761 -3.97796 0
M  V30 38082 H 3629.45 -0.232297 -4.15251 0
M  V30 38083 H 3628.03 1.45254 -3.43447 0
M  V30 38084 N 3630.21 1.57396 -0.0802459 0
M  V30 38085 C 3631.16 2.09729 0.894297 0
M  V30 38086 C 3632.15 1.00889 1.2534 0
M  V30 38087 O 3633.34 1.27186 1.23097 0
M  V30 38088 C 3630.47 2.66928 2.15881 0
M  V30 38089 C 3629.55 3.82786 1.8258 0
M  V30 38090 N 3629.95 4.91415 1.19768 0
M  V30 38091 C 3628.24 3.92241 2.1228 0
M  V30 38092 C 3628.94 5.72191 1.04748 0
M  V30 38093 N 3627.92 5.20736 1.55996 0
M  V30 38094 H 3631.72 2.91103 0.404472 0
M  V30 38095 H 3629.24 1.6193 0.123403 0
M  V30 38096 H 3631.23 3.02741 2.86625 0
M  V30 38097 H 3629.89 1.87003 2.65443 0
M  V30 38098 H 3630.9 5.10603 0.866294 0
M  V30 38099 H 3627.58 3.23304 2.64161 0
M  V30 38100 H 3628.97 6.69584 0.557442 0
M  V30 38101 N 3631.69 -0.193366 1.56409 0
M  V30 38102 C 3632.92 -0.928295 1.8457 0
M  V30 38103 C 3633.33 -1.77285 0.660819 0
M  V30 38104 O 3632.67 -1.79733 -0.37972 0
M  V30 38105 C 3632.73 -1.87294 3.06857 0
M  V30 38106 C 3632.4 -1.21017 4.40686 0
M  V30 38107 C 3633.4 -0.586259 5.16584 0
M  V30 38108 C 3631.08 -1.21351 4.87421 0
M  V30 38109 C 3633.07 0.0254693 6.37395 0
M  V30 38110 C 3630.76 -0.597945 6.08168 0
M  V30 38111 C 3631.76 0.0204614 6.82997 0
M  V30 38112 O 3631.45 0.626373 8.01456 0
M  V30 38113 H 3631.18 -0.276266 0.616971 0
M  V30 38114 H 3633.73 -0.205066 2.04374 0
M  V30 38115 H 3631.96 -2.63591 2.82943 0
M  V30 38116 H 3633.65 -2.47581 3.2165 0
M  V30 38117 H 3634.42 -0.575809 4.8157 0
M  V30 38118 H 3630.3 -1.68424 4.29132 0
M  V30 38119 H 3633.84 0.508767 6.95742 0
M  V30 38120 H 3629.74 -0.605904 6.4265 0
M  V30 38121 H 3630.51 0.523448 8.16825 0
M  V30 38122 N 3633.17 -1.50702 -0.461142 0
M  V30 38123 C 3634.4 -1.65719 -1.23372 0
M  V30 38124 C 3634.81 -0.344025 -1.86046 0
M  V30 38125 O 3634.15 0.68505 -1.70449 0
M  V30 38126 C 3634.21 -2.69812 -2.37575 0
M  V30 38127 C 3633.88 -4.13092 -1.95459 0
M  V30 38128 C 3634.87 -4.98642 -1.47145 0
M  V30 38129 C 3632.56 -4.59064 -2.03876 0
M  V30 38130 C 3634.55 -6.28217 -1.07804 0
M  V30 38131 C 3632.24 -5.88642 -1.64146 0
M  V30 38132 C 3633.24 -6.73045 -1.1619 0
M  V30 38133 O 3632.93 -8.00202 -0.770142 0
M  V30 38134 H 3632.66 -0.559848 -0.378875 0
M  V30 38135 H 3635.21 -1.97741 -0.555677 0
M  V30 38136 H 3633.44 -2.33054 -3.08582 0
M  V30 38137 H 3635.13 -2.73948 -2.99512 0
M  V30 38138 H 3635.9 -4.64337 -1.40056 0
M  V30 38139 H 3631.78 -3.93507 -2.40152 0
M  V30 38140 H 3635.32 -6.94049 -0.703017 0
M  V30 38141 H 3631.22 -6.22466 -1.70898 0
M  V30 38142 H 3631.98 -8.13558 -0.898111 0
M  V30 38143 N 3634.65 0.715001 -1.40447 0
M  V30 38144 C 3635.89 1.47707 -1.38962 0
M  V30 38145 C 3636.23 1.94198 0.00795285 0
M  V30 38146 O 3635.5 1.68199 0.976702 0
M  V30 38147 C 3635.78 2.70272 -2.3796 0
M  V30 38148 C 3635.64 2.29671 -3.86744 0
M  V30 38149 C 3636.96 3.72431 -2.34485 0
M  V30 38150 H 3634.08 0.535773 -0.506079 0
M  V30 38151 H 3636.72 0.815968 -1.71587 0
M  V30 38152 H 3634.87 3.26679 -2.1027 0
M  V30 38153 H 3636.54 1.78742 -4.25263 0
M  V30 38154 H 3634.78 1.61667 -4.0255 0
M  V30 38155 H 3635.45 3.1753 -4.51529 0
M  V30 38156 H 3637.93 3.25655 -2.59013 0
M  V30 38157 H 3636.81 4.55827 -3.05799 0
M  V30 38158 H 3637.07 4.20769 -1.35668 0
M  V30 38159 N 3636.13 1.25954 0.947281 0
M  V30 38160 C 3637.4 1.01897 1.66962 0
M  V30 38161 C 3637.78 -0.452519 2.06193 0
M  V30 38162 O 3637.13 -1.43152 1.781 0
M  V30 38163 C 3637.34 1.96184 2.8864 0
M  V30 38164 C 3638.69 2.24447 3.60428 0
M  V30 38165 O 3639.71 1.94001 2.98734 0
M  V30 38166 O 3638.57 2.76256 4.71535 0
M  V30 38167 H 3635.67 0.386988 0.730869 0
M  V30 38168 H 3638.21 1.37139 0.999553 0
M  V30 38169 H 3636.98 2.9551 2.56494 0
M  V30 38170 H 3636.61 1.61385 3.63374 0
M  V30 38171 N 3637.6 -1.15097 1.07659 0
M  V30 38172 C 3638.83 -1.90374 0.822943 0
M  V30 38173 C 3639.25 -1.77645 -0.618384 0
M  V30 38174 O 3638.61 -1.11131 -1.43246 0
M  V30 38175 C 3638.66 -3.38612 1.23994 0
M  V30 38176 O 3637.76 -4.10579 0.387157 0
M  V30 38177 H 3637.11 -0.592596 0.299542 0
M  V30 38178 H 3639.64 -1.45738 1.43602 0
M  V30 38179 H 3639.65 -3.89412 1.21748 0
M  V30 38180 H 3638.32 -3.47195 2.28972 0
M  V30 38181 H 3636.9 -3.69896 0.472376 0
M  V30 38182 N 3639.08 -0.861145 -1.31993 0
M  V30 38183 C 3640.33 -0.468406 -1.97316 0
M  V30 38184 C 3640.66 0.974912 -1.67956 0
M  V30 38185 O 3639.94 1.68513 -0.971272 0
M  V30 38186 C 3640.22 -0.715669 -3.52917 0
M  V30 38187 C 3640.07 -2.20788 -3.91884 0
M  V30 38188 C 3641.39 -0.176318 -4.39747 0
M  V30 38189 H 3638.51 -0.171658 -0.71673 0
M  V30 38190 H 3641.15 -1.08076 -1.56267 0
M  V30 38191 H 3639.3 -0.194455 -3.88013 0
M  V30 38192 H 3640.97 -2.79567 -3.66933 0
M  V30 38193 H 3639.22 -2.68388 -3.40809 0
M  V30 38194 H 3639.89 -2.33156 -5.00342 0
M  V30 38195 H 3642.36 -0.622116 -4.11423 0
M  V30 38196 H 3641.24 -0.378845 -5.47591 0
M  V30 38197 H 3641.5 0.921282 -4.32394 0
M  V30 38198 N 3640.56 1.44905 -0.619713 0
M  V30 38199 C 3641.79 2.06514 -0.126399 0
M  V30 38200 C 3642.2 1.46226 1.1943 0
M  V30 38201 O 3641.56 0.580882 1.73009 0
M  V30 38202 C 3641.61 3.61499 0.00675965 0
M  V30 38203 O 3641.33 4.19539 -1.2617 0
M  V30 38204 C 3642.83 4.40119 0.530112 0
M  V30 38205 H 3640.05 0.666861 -0.0744149 0
M  V30 38206 H 3642.6 1.85958 -0.850883 0
M  V30 38207 H 3640.75 3.81356 0.681627 0
M  V30 38208 H 3641.17 5.12853 -1.09917 0
M  V30 38209 H 3642.64 5.49025 0.572331 0
M  V30 38210 H 3643.12 4.10756 1.55487 0
M  V30 38211 H 3643.72 4.25155 -0.111119 0
M  V30 38212 N 3642.04 0.359579 1.53443 0
M  V30 38213 C 3643.28 -0.232331 2.01465 0
M  V30 38214 C 3643.62 -1.48909 1.24658 0
M  V30 38215 O 3642.89 -1.9153 0.338607 0
M  V30 38216 C 3643.18 -0.53034 3.56173 0
M  V30 38217 C 3643.03 0.739634 4.43677 0
M  V30 38218 C 3644.35 -1.3334 4.19415 0
M  V30 38219 H 3641.47 -0.0829673 0.732315 0
M  V30 38220 H 3644.11 0.483285 1.83751 0
M  V30 38221 H 3642.26 -1.13998 3.71398 0
M  V30 38222 H 3643.93 1.37727 4.4026 0
M  V30 38223 H 3642.17 1.36124 4.11889 0
M  V30 38224 H 3642.84 0.486158 5.49855 0
M  V30 38225 H 3645.32 -0.817745 4.07985 0
M  V30 38226 H 3644.2 -1.51066 5.27703 0
M  V30 38227 H 3644.46 -2.34018 3.75084 0
M  V30 38228 N 3643.52 -1.57351 0.0885919 0
M  V30 38229 C 3644.46 -2.13665 -0.872685 0
M  V30 38230 C 3645.43 -1.05349 -1.28416 0
M  V30 38231 O 3646.62 -1.33102 -1.36706 0
M  V30 38232 C 3643.76 -2.71617 -2.12881 0
M  V30 38233 C 3642.87 -3.94144 -1.76845 0
M  V30 38234 C 3642.01 -4.40282 -2.97195 0
M  V30 38235 C 3641.05 -5.55415 -2.57255 0
M  V30 38236 N 3640.18 -5.96435 -3.70419 0
M  V30 38237 H 3645.02 -2.95495 -0.385592 0
M  V30 38238 H 3642.56 -1.46011 -0.178663 0
M  V30 38239 H 3644.52 -3.03332 -2.86436 0
M  V30 38240 H 3643.15 -1.92526 -2.59102 0
M  V30 38241 H 3642.2 -3.68784 -0.932856 0
M  V30 38242 H 3643.51 -4.77721 -1.43473 0
M  V30 38243 H 3642.67 -4.73747 -3.7901 0
M  V30 38244 H 3641.4 -3.55593 -3.33774 0
M  V30 38245 H 3640.41 -5.21585 -1.73866 0
M  V30 38246 H 3641.63 -6.41848 -2.21828 0
M  V30 38247 H 3639.58 -5.14693 -4.06727 0
M  V30 38248 H 3639.5 -6.74792 -3.40869 0
M  V30 38249 H 3640.77 -6.34528 -4.52763 0
M  V30 38250 N 3644.99 0.185069 -1.5651 0
M  V30 38251 C 3645.9 1.24954 -1.98554 0
M  V30 38252 C 3646.92 1.49233 -0.894739 0
M  V30 38253 O 3648.1 1.61651 -1.20129 0
M  V30 38254 C 3645.16 2.57171 -2.32517 0
M  V30 38255 C 3644.22 2.40876 -3.55355 0
M  V30 38256 C 3643.46 3.66787 -3.87689 0
M  V30 38257 O 3643.68 4.71384 -3.21175 0
M  V30 38258 O 3642.61 3.61717 -4.81086 0
M  V30 38259 H 3646.44 0.922705 -2.89344 0
M  V30 38260 H 3644.02 0.390861 -1.44197 0
M  V30 38261 H 3645.91 3.3519 -2.55393 0
M  V30 38262 H 3644.58 2.89461 -1.44893 0
M  V30 38263 H 3643.49 1.60933 -3.37715 0
M  V30 38264 H 3644.82 2.13514 -4.43478 0
M  V30 38265 N 3646.47 1.50945 0.453144 0
M  V30 38266 C 3647.7 1.66613 1.22669 0
M  V30 38267 C 3648.12 0.356847 1.85397 0
M  V30 38268 O 3647.47 -0.663092 1.70027 0
M  V30 38269 C 3647.52 2.77038 2.32233 0
M  V30 38270 O 3647.24 4.02892 1.72074 0
M  V30 38271 C 3648.75 3.03837 3.22797 0
M  V30 38272 H 3645.97 0.559552 0.370327 0
M  V30 38273 H 3648.51 1.97273 0.538849 0
M  V30 38274 H 3646.66 2.49022 2.96761 0
M  V30 38275 H 3647.08 4.64099 2.44361 0
M  V30 38276 H 3648.55 3.84723 3.95844 0
M  V30 38277 H 3649.03 2.15614 3.82632 0
M  V30 38278 H 3649.64 3.33453 2.63987 0
M  V30 38279 N 3647.95 -0.707543 1.40825 0
M  V30 38280 C 3649.2 -1.46968 1.39744 0
M  V30 38281 C 3649.53 -1.942 0.00234607 0
M  V30 38282 O 3648.8 -1.68714 -0.967768 0
M  V30 38283 C 3649.09 -2.69007 2.3939 0
M  V30 38284 C 3648.94 -2.27617 3.87957 0
M  V30 38285 C 3650.26 -3.71182 2.36457 0
M  V30 38286 H 3647.38 -0.533082 0.508913 0
M  V30 38287 H 3650.02 -0.806857 1.72017 0
M  V30 38288 H 3648.17 -3.25559 2.11999 0
M  V30 38289 H 3649.84 -1.76485 4.26205 0
M  V30 38290 H 3648.09 -1.5953 4.03401 0
M  V30 38291 H 3648.76 -3.15131 4.53207 0
M  V30 38292 H 3651.23 -3.24277 2.60736 0
M  V30 38293 H 3650.11 -4.54199 3.08212 0
M  V30 38294 H 3650.37 -4.20044 1.37898 0
M  V30 38295 N 3649.43 -1.26454 -0.940588 0
M  V30 38296 C 3650.67 -1.122 -1.68935 0
M  V30 38297 C 3651.01 0.333787 -1.9131 0
M  V30 38298 O 3650.28 1.24515 -1.49419 0
M  V30 38299 C 3650.57 -1.89221 -3.06378 0
M  V30 38300 C 3650.42 -3.42709 -2.91325 0
M  V30 38301 C 3651.74 -1.68649 -4.06504 0
M  V30 38302 H 3648.86 -0.408975 -0.613114 0
M  V30 38303 H 3651.5 -1.55457 -1.09239 0
M  V30 38304 H 3649.65 -1.52456 -3.57336 0
M  V30 38305 H 3651.32 -3.8923 -2.47584 0
M  V30 38306 H 3649.56 -3.69704 -2.26938 0
M  V30 38307 H 3650.23 -3.91829 -3.88811 0
M  V30 38308 H 3652.71 -2.0068 -3.64509 0
M  V30 38309 H 3651.59 -2.24954 -5.00686 0
M  V30 38310 H 3651.85 -0.631208 -4.37571 0
M  V30 38311 N 3650.91 1.14525 -1.08268 0
M  V30 38312 C 3651.84 2.19211 -0.669271 0
M  V30 38313 C 3652.85 1.60323 0.282934 0
M  V30 38314 O 3654.04 1.78359 0.0708089 0
M  V30 38315 C 3651.14 3.38881 0.0361914 0
M  V30 38316 C 3650.31 4.273 -0.934552 0
M  V30 38317 C 3649.37 5.25534 -0.264676 0
M  V30 38318 O 3648.4 5.61901 -0.908641 0
M  V30 38319 N 3649.6 5.72065 0.98599 0
M  V30 38320 H 3652.37 2.55294 -1.56987 0
M  V30 38321 H 3649.93 1.29731 -0.968574 0
M  V30 38322 H 3651.92 4.01658 0.495239 0
M  V30 38323 H 3650.49 3.01134 0.838861 0
M  V30 38324 H 3649.71 3.61479 -1.57248 0
M  V30 38325 H 3651 4.83239 -1.5924 0
M  V30 38326 H 3650.39 5.44646 1.52895 0
M  V30 38327 H 3648.95 6.36838 1.38856 0
M  V30 38328 N 3652.39 0.868133 1.31534 0
M  V30 38329 C 3653.63 0.478155 1.96774 0
M  V30 38330 C 3653.96 -0.96917 1.68634 0
M  V30 38331 O 3653.22 -1.69718 0.974387 0
M  V30 38332 C 3653.51 0.679814 3.50875 0
M  V30 38333 C 3653.18 2.09965 3.99031 0
M  V30 38334 C 3651.84 2.48795 4.11892 0
M  V30 38335 C 3654.19 3.02571 4.24382 0
M  V30 38336 C 3651.52 3.79476 4.47454 0
M  V30 38337 C 3653.87 4.32765 4.61408 0
M  V30 38338 C 3652.54 4.71512 4.72475 0
M  V30 38339 H 3651.81 0.174969 0.720046 0
M  V30 38340 H 3654.46 1.10077 1.56701 0
M  V30 38341 H 3652.76 -0.0259485 3.91791 0
M  V30 38342 H 3654.46 0.357925 3.99399 0
M  V30 38343 H 3651.05 1.78818 3.89515 0
M  V30 38344 H 3655.23 2.73799 4.13942 0
M  V30 38345 H 3650.49 4.0926 4.5422 0
M  V30 38346 H 3654.66 5.04575 4.79976 0
M  V30 38347 H 3652.29 5.72814 4.99788 0
M  V30 38348 N 3653.86 -1.44574 0.627389 0
M  V30 38349 C 3654.81 -2.32418 -0.092008 0
M  V30 38350 C 3655.81 -1.47129 -0.839607 0
M  V30 38351 O 3657.01 -1.63496 -0.75293 0
M  V30 38352 H 3653.39 -0.750433 -0.0485204 0
M  V30 38353 H 3655.36 -2.9085 0.66701 0
M  V30 38354 C 3654.11 -3.31066 -1.06256 0
M  V30 38355 H 3653.43 -3.96702 -0.49673 0
M  V30 38356 H 3654.87 -3.9522 -1.53549 0
M  V30 38357 C 3653.33 -2.59711 -2.14597 0
M  V30 38358 O 3653.86 -2.39323 -3.22626 0
M  V30 38359 N 3652.06 -2.19513 -1.90427 0
M  V30 38360 H 3651.61 -2.36295 -1.02579 0
M  V30 38361 H 3651.57 -1.72096 -2.63116 0
M  V30 38362 N 3655.34 -0.367711 -1.5325 0
M  V30 38363 C 3656.57 0.221689 -2.05407 0
M  V30 38364 C 3656.98 1.42828 -1.24084 0
M  V30 38365 O 3656.32 1.81629 -0.275037 0
M  V30 38366 C 3656.38 0.677219 -3.53064 0
M  V30 38367 C 3656.05 -0.412974 -4.5513 0
M  V30 38368 C 3657.05 -1.26352 -5.04313 0
M  V30 38369 C 3654.73 -0.573826 -4.99012 0
M  V30 38370 C 3656.72 -2.26024 -5.9598 0
M  V30 38371 C 3654.41 -1.57391 -5.90484 0
M  V30 38372 C 3655.41 -2.41555 -6.38858 0
M  V30 38373 O 3655.1 -3.39857 -7.28527 0
M  V30 38374 H 3654.83 0.0422294 -0.67468 0
M  V30 38375 H 3657.38 -0.525045 -1.98576 0
M  V30 38376 H 3655.61 1.47559 -3.5744 0
M  V30 38377 H 3657.3 1.18986 -3.88069 0
M  V30 38378 H 3658.07 -1.15045 -4.71158 0
M  V30 38379 H 3653.95 0.0714996 -4.60945 0
M  V30 38380 H 3657.49 -2.91753 -6.33661 0
M  V30 38381 H 3653.39 -1.68745 -6.23053 0
M  V30 38382 H 3654.16 -3.35612 -7.4653 0
M  V30 38383 N 3656.82 1.57302 -0.0969353 0
M  V30 38384 C 3658.24 1.57473 0.259712 0
M  V30 38385 C 3658.44 1.10821 1.68288 0
M  V30 38386 O 3657.49 0.785509 2.39971 0
M  V30 38387 C 3658.8 3.00664 0.0464682 0
M  V30 38388 C 3660.35 3.12792 0.114076 0
M  V30 38389 C 3660.83 4.57945 -0.071198 0
M  V30 38390 N 3662.32 4.63197 -0.0164252 0
M  V30 38391 C 3663.05 5.73241 -0.135 0
M  V30 38392 N 3662.55 6.92113 -0.308513 0
M  V30 38393 N 3664.34 5.62048 -0.0761399 0
M  V30 38394 H 3656.49 1.85934 -1.02676 0
M  V30 38395 H 3658.76 0.858291 -0.402543 0
M  V30 38396 H 3658.46 3.39001 -0.936556 0
M  V30 38397 H 3658.34 3.68878 0.787985 0
M  V30 38398 H 3660.72 2.74327 1.08761 0
M  V30 38399 H 3660.8 2.47167 -0.658962 0
M  V30 38400 H 3660.45 4.97105 -1.0416 0
M  V30 38401 H 3660.38 5.21633 0.721555 0
M  V30 38402 H 3662.87 3.77725 0.115068 0
M  V30 38403 H 3663.18 7.71813 -0.390453 0
M  V30 38404 H 3661.53 6.94147 -0.344204 0
M  V30 38405 H 3664.72 4.68064 0.0582955 0
M  V30 38406 H 3664.89 6.47772 -0.171998 0
M  V30 38407 N 3658.3 -0.176766 1.56606 0
M  V30 38408 C 3659.71 -0.528328 1.50602 0
M  V30 38409 C 3659.91 -1.84928 0.800238 0
M  V30 38410 O 3658.97 -2.49944 0.358343 0
M  V30 38411 C 3660.28 -0.56612 2.95323 0
M  V30 38412 C 3661.83 -0.653697 3.06098 0
M  V30 38413 C 3662.31 -0.722431 4.52266 0
M  V30 38414 N 3663.8 -0.785468 4.56492 0
M  V30 38415 C 3664.53 -0.859133 5.66927 0
M  V30 38416 N 3664.03 -0.893967 6.87008 0
M  V30 38417 N 3665.82 -0.897734 5.54885 0
M  V30 38418 H 3657.97 0.689478 2.00898 0
M  V30 38419 H 3660.23 0.247926 0.915006 0
M  V30 38420 H 3659.94 0.335722 3.50094 0
M  V30 38421 H 3659.81 -1.4145 3.49674 0
M  V30 38422 H 3662.2 -1.54596 2.51364 0
M  V30 38423 H 3662.28 0.221252 2.54841 0
M  V30 38424 H 3661.93 0.165558 5.0763 0
M  V30 38425 H 3661.86 -1.61345 5.01274 0
M  V30 38426 H 3664.35 -0.767052 3.70033 0
M  V30 38427 H 3664.66 -0.951199 7.66924 0
M  V30 38428 H 3663.01 -0.862336 6.89629 0
M  V30 38429 H 3666.2 -0.867484 4.59992 0
M  V30 38430 H 3666.37 -0.951682 6.40973 0
M  V30 38431 N 3659.78 -1.51183 -0.445132 0
M  V30 38432 C 3661.05 -1.54 -1.20595 0
M  V30 38433 C 3661.43 -0.299706 -2.08962 0
M  V30 38434 O 3660.78 0.715628 -2.17005 0
M  V30 38435 C 3660.99 -2.84985 -2.01456 0
M  V30 38436 C 3662.34 -3.3664 -2.58764 0
M  V30 38437 O 3663.36 -2.86483 -2.11674 0
M  V30 38438 O 3662.22 -4.24138 -3.44629 0
M  V30 38439 H 3659.32 -0.618822 -0.548624 0
M  V30 38440 H 3661.86 -1.63491 -0.454837 0
M  V30 38441 H 3660.63 -3.66718 -1.36504 0
M  V30 38442 H 3660.26 -2.7862 -2.83649 0
M  V30 38443 N 3661.25 0.700065 -1.41198 0
M  V30 38444 C 3662.5 1.4572 -1.40036 0
M  V30 38445 C 3662.82 1.94998 -0.00879708 0
M  V30 38446 O 3662.09 1.714 0.948616 0
M  V30 38447 H 3660.67 0.540674 -0.515442 0
M  V30 38448 H 3663.33 0.828895 -1.76395 0
M  V30 38449 H 3662.43 2.32254 -2.08481 0
M  V30 38450 N 3662.73 1.26951 0.933869 0
M  V30 38451 C 3663.66 1.04938 2.03766 0
M  V30 38452 C 3664.68 0.00743613 1.62798 0
M  V30 38453 O 3665.87 0.24832 1.76764 0
M  V30 38454 C 3662.97 0.568574 3.34096 0
M  V30 38455 C 3662.14 1.68141 4.03791 0
M  V30 38456 C 3661.2 1.1974 5.12395 0
M  V30 38457 O 3660.22 1.89589 5.36698 0
M  V30 38458 N 3661.43 0.0497347 5.80479 0
M  V30 38459 H 3664.19 1.99988 2.23215 0
M  V30 38460 H 3661.75 1.18435 1.10384 0
M  V30 38461 H 3663.74 0.228807 4.04053 0
M  V30 38462 H 3662.31 -0.288532 3.11266 0
M  V30 38463 H 3661.53 2.19176 3.27652 0
M  V30 38464 H 3662.82 2.42845 4.47106 0
M  V30 38465 H 3662.22 -0.53341 5.6318 0
M  V30 38466 H 3660.78 -0.2309 6.51391 0
M  V30 38467 N 3664.21 -1.13949 1.08873 0
M  V30 38468 C 3665.62 -1.66656 0.841581 0
M  V30 38469 C 3665.97 -1.8578 -0.6309 0
M  V30 38470 O 3665.1 -1.57245 -1.48671 0
M  V30 38471 C 3665.69 -3.02732 1.52115 0
M  V30 38472 C 3664.25 -3.52454 1.32111 0
M  V30 38473 C 3663.4 -2.27823 1.58088 0
M  V30 38474 H 3666.35 -0.979488 1.24867 0
M  V30 38475 H 3666.37 -3.68423 0.951043 0
M  V30 38476 H 3665.88 -2.88781 2.59281 0
M  V30 38477 H 3663.98 -3.71618 0.270359 0
M  V30 38478 H 3664.1 -4.3293 2.05204 0
M  V30 38479 H 3662.46 -2.34133 1.00269 0
M  V30 38480 H 3663.24 -2.16444 2.66471 0
M  V30 38481 N 3665.69 -0.875096 -1.31072 0
M  V30 38482 C 3666.93 -0.488584 -1.96517 0
M  V30 38483 C 3667.26 0.960213 -1.69145 0
M  V30 38484 O 3666.52 1.69199 -0.983373 0
M  V30 38485 C 3666.82 -0.698412 -3.5051 0
M  V30 38486 C 3666.48 -2.12078 -3.97912 0
M  V30 38487 C 3665.14 -2.50975 -4.10566 0
M  V30 38488 C 3667.5 -3.04818 -4.22771 0
M  V30 38489 C 3664.82 -3.81843 -4.45435 0
M  V30 38490 C 3667.18 -4.35206 -4.59106 0
M  V30 38491 C 3665.84 -4.74011 -4.69968 0
M  V30 38492 H 3665.11 -0.178785 -0.719108 0
M  V30 38493 H 3667.76 -1.10906 -1.56115 0
M  V30 38494 H 3666.06 0.00517051 -3.918 0
M  V30 38495 H 3667.76 -0.379101 -3.99204 0
M  V30 38496 H 3664.35 -1.80881 -3.88562 0
M  V30 38497 H 3668.53 -2.7599 -4.12484 0
M  V30 38498 H 3663.79 -4.11663 -4.52043 0
M  V30 38499 H 3667.96 -5.07113 -4.77294 0
M  V30 38500 H 3665.59 -5.75457 -4.96743 0
M  V30 38501 N 3667.17 1.44239 -0.635047 0
M  V30 38502 C 3668.4 2.06069 -0.148081 0
M  V30 38503 C 3668.8 1.4756 1.18417 0
M  V30 38504 O 3668.15 0.594455 1.73816 0
M  V30 38505 C 3668.21 3.59481 0.0368961 0
M  V30 38506 C 3667.87 4.40475 -1.2178 0
M  V30 38507 C 3668.87 4.73705 -2.14241 0
M  V30 38508 C 3666.56 4.80786 -1.45431 0
M  V30 38509 C 3668.55 5.46134 -3.28659 0
M  V30 38510 C 3666.24 5.52962 -2.60146 0
M  V30 38511 C 3667.23 5.85556 -3.51586 0
M  V30 38512 O 3666.92 6.56262 -4.64301 0
M  V30 38513 H 3666.65 0.671399 -0.0787349 0
M  V30 38514 H 3669.21 1.86034 -0.870671 0
M  V30 38515 H 3667.44 3.78021 0.814672 0
M  V30 38516 H 3669.13 4.03065 0.478913 0
M  V30 38517 H 3669.89 4.43098 -1.97204 0
M  V30 38518 H 3665.77 4.54834 -0.751458 0
M  V30 38519 H 3669.32 5.71492 -4.00053 0
M  V30 38520 H 3665.21 5.82986 -2.77124 0
M  V30 38521 H 3665.98 6.74734 -4.63332 0
M  V30 38522 N 3668.64 0.375833 1.53053 0
M  V30 38523 C 3669.55 -0.47345 2.29773 0
M  V30 38524 C 3670.57 -1.08352 1.36146 0
M  V30 38525 O 3671.75 -1.09225 1.69209 0
M  V30 38526 C 3668.81 -1.59239 3.07967 0
M  V30 38527 C 3667.87 -1.00881 4.17279 0
M  V30 38528 C 3667.11 -2.07443 4.91735 0
M  V30 38529 O 3667.33 -3.28728 4.66148 0
M  V30 38530 O 3666.26 -1.69926 5.77416 0
M  V30 38531 H 3670.09 0.151159 3.03324 0
M  V30 38532 H 3667.67 0.139921 1.48743 0
M  V30 38533 H 3669.56 -2.24273 3.56763 0
M  V30 38534 H 3668.23 -2.20221 2.37243 0
M  V30 38535 H 3667.14 -0.322101 3.72711 0
M  V30 38536 H 3668.47 -0.443397 4.90199 0
M  V30 38537 N 3670.12 -1.57248 0.105276 0
M  V30 38538 C 3671.54 -1.57608 -0.251358 0
M  V30 38539 C 3671.74 -1.11712 -1.67698 0
M  V30 38540 O 3670.79 -0.798224 -2.39551 0
M  V30 38541 C 3672.11 -3.00685 -0.0305226 0
M  V30 38542 C 3673.66 -3.12848 -0.0974859 0
M  V30 38543 C 3674.13 -4.579 0.0954829 0
M  V30 38544 N 3675.62 -4.63182 0.0409894 0
M  V30 38545 C 3676.36 -5.73161 0.165399 0
M  V30 38546 N 3675.85 -6.91939 0.345213 0
M  V30 38547 N 3677.65 -5.62 0.105946 0
M  V30 38548 H 3669.8 -1.85387 1.03661 0
M  V30 38549 H 3672.06 -0.856144 0.407089 0
M  V30 38550 H 3671.77 -3.38499 0.95452 0
M  V30 38551 H 3671.64 -3.6929 -0.768412 0
M  V30 38552 H 3674.03 -2.749 -1.07304 0
M  V30 38553 H 3674.11 -2.46814 0.67206 0
M  V30 38554 H 3673.75 -4.96545 1.06795 0
M  V30 38555 H 3673.68 -5.22008 -0.693882 0
M  V30 38556 H 3676.17 -3.7778 -0.0950345 0
M  V30 38557 H 3676.49 -7.71595 0.431379 0
M  V30 38558 H 3674.83 -6.93955 0.381012 0
M  V30 38559 H 3678.02 -4.68088 -0.0334721 0
M  V30 38560 H 3678.19 -6.47671 0.206349 0
M  V30 38561 N 3671.6 0.168458 -1.56697 0
M  V30 38562 C 3672.85 0.884622 -1.82156 0
M  V30 38563 C 3673.18 1.82121 -0.68281 0
M  V30 38564 O 3672.43 1.92902 0.329736 0
M  V30 38565 C 3672.73 1.71063 -3.13803 0
M  V30 38566 C 3672.4 0.922715 -4.41358 0
M  V30 38567 C 3671.06 0.705268 -4.76004 0
M  V30 38568 C 3673.41 0.370232 -5.19883 0
M  V30 38569 C 3670.74 -0.0757152 -5.86651 0
M  V30 38570 C 3673.09 -0.397679 -6.31349 0
M  V30 38571 C 3671.75 -0.625899 -6.64559 0
M  V30 38572 H 3671.02 0.323706 -0.666555 0
M  V30 38573 H 3673.67 0.149399 -1.90916 0
M  V30 38574 H 3671.98 2.51533 -3.00397 0
M  V30 38575 H 3673.67 2.26784 -3.30712 0
M  V30 38576 H 3670.26 1.10224 -4.14184 0
M  V30 38577 H 3674.45 0.525559 -4.93509 0
M  V30 38578 H 3669.7 -0.262245 -6.10837 0
M  V30 38579 H 3673.88 -0.833023 -6.914 0
M  V30 38580 H 3671.5 -1.23294 -7.50135 0
M  V30 38581 N 3673.08 1.51417 0.437109 0
M  V30 38582 C 3674.49 1.56572 1.01697 0
M  V30 38583 C 3674.84 0.389324 1.92298 0
M  V30 38584 O 3673.97 -0.493853 2.10689 0
M  V30 38585 C 3674.56 2.83757 1.85114 0
M  V30 38586 C 3673.12 2.91482 2.38149 0
M  V30 38587 C 3672.27 2.51236 1.17369 0
M  V30 38588 H 3675.22 1.5719 0.218371 0
M  V30 38589 H 3675.24 2.67532 2.70567 0
M  V30 38590 H 3674.75 3.69359 1.19146 0
M  V30 38591 H 3672.85 2.10311 3.07571 0
M  V30 38592 H 3672.96 3.95137 2.70931 0
M  V30 38593 H 3671.33 2.0444 1.51909 0
M  V30 38594 H 3672.11 3.39182 0.530116 0
M  V30 38595 N 3674.56 -0.692567 1.41567 0
M  V30 38596 C 3675.49 -1.81884 1.46426 0
M  V30 38597 C 3676.47 -1.67013 0.32261 0
M  V30 38598 O 3677.65 -1.867 0.53447 0
M  V30 38599 C 3674.78 -3.20045 1.34866 0
M  V30 38600 C 3673.74 -3.49625 2.46873 0
M  V30 38601 C 3673.06 -4.87173 2.20378 0
M  V30 38602 C 3674.36 -3.48299 3.89211 0
M  V30 38603 H 3676.06 -1.78075 2.40686 0
M  V30 38604 H 3673.6 -0.855313 1.15846 0
M  V30 38605 H 3675.56 -3.98551 1.36876 0
M  V30 38606 H 3674.28 -3.24487 0.370917 0
M  V30 38607 H 3672.94 -2.73471 2.4415 0
M  V30 38608 H 3672.59 -4.88245 1.20939 0
M  V30 38609 H 3672.29 -5.07929 2.95435 0
M  V30 38610 H 3673.81 -5.67986 2.24109 0
M  V30 38611 H 3675.22 -4.16804 3.93633 0
M  V30 38612 H 3673.62 -3.80587 4.63976 0
M  V30 38613 H 3674.69 -2.47214 4.17149 0
M  V30 38614 N 3676.03 -1.27445 -0.927123 0
M  V30 38615 C 3677.27 -1.15053 -1.68944 0
M  V30 38616 C 3677.64 0.298551 -1.89665 0
M  V30 38617 O 3678.84 0.544896 -2.63219 0
M  V30 38618 C 3677.11 -1.91319 -3.01881 0
M  V30 38619 S 3678.67 -1.95147 -3.93018 0
M  V30 38620 H 3675.49 -0.410723 -0.580368 0
M  V30 38621 H 3678.09 -1.61361 -1.10376 0
M  V30 38622 H 3676.79 -2.95792 -2.84491 0
M  V30 38623 H 3676.32 -1.45508 -3.65501 0
M  V30 38624 H 3678.34 -1.04831 -4.85 0
M  V30 38625 N 3677.51 1.1337 -1.09476 0
M  V30 38626 C 3678.48 2.16986 -0.738211 0
M  V30 38627 C 3679.48 1.59111 0.23246 0
M  V30 38628 O 3680.67 1.74197 0.0105786 0
M  V30 38629 C 3677.8 3.40776 -0.0917839 0
M  V30 38630 H 3678.99 2.50042 -1.65586 0
M  V30 38631 H 3676.54 1.28207 -0.894017 0
M  V30 38632 H 3677.28 3.13311 0.837074 0
M  V30 38633 H 3677.06 3.84054 -0.790228 0
M  V30 38634 H 3678.55 4.17358 0.14226 0
M  V30 38635 N 3678.99 0.882035 1.30606 0
M  V30 38636 C 3680.24 0.498999 1.96256 0
M  V30 38637 C 3680.57 -0.95123 1.69652 0
M  V30 38638 O 3679.82 -1.68675 0.992333 0
M  V30 38639 C 3680.12 0.716991 3.50134 0
M  V30 38640 C 3679.79 2.14185 3.96781 0
M  V30 38641 C 3678.45 2.53149 4.0923 0
M  V30 38642 C 3680.8 3.07055 4.21149 0
M  V30 38643 C 3678.13 3.842 4.43404 0
M  V30 38644 C 3680.48 4.37635 4.56792 0
M  V30 38645 C 3679.14 4.76496 4.67448 0
M  V30 38646 H 3678.41 0.182596 0.71815 0
M  V30 38647 H 3681.06 1.11733 1.55525 0
M  V30 38648 H 3679.37 0.0156077 3.91797 0
M  V30 38649 H 3681.06 0.400267 3.98997 0
M  V30 38650 H 3677.65 1.82939 3.87597 0
M  V30 38651 H 3681.84 2.78174 4.11015 0
M  V30 38652 H 3677.09 4.14055 4.49854 0
M  V30 38653 H 3681.27 5.09637 4.74598 0
M  V30 38654 H 3678.89 5.78083 4.93684 0
M  V30 38655 N 3680.47 -1.439 0.642688 0
M  V30 38656 C 3681.7 -2.06286 0.159238 0
M  V30 38657 C 3682.11 -1.48107 -1.17088 0
M  V30 38658 O 3681.47 -0.608332 -1.72063 0
M  V30 38659 C 3681.52 -3.61464 0.0507526 0
M  V30 38660 O 3681.24 -4.17478 1.32828 0
M  V30 38661 C 3682.74 -4.40907 -0.460025 0
M  V30 38662 H 3679.96 -0.665593 0.0850147 0
M  V30 38663 H 3682.51 -1.8458 0.88036 0
M  V30 38664 H 3680.66 -3.82392 -0.62087 0
M  V30 38665 H 3681.07 -5.1104 1.18062 0
M  V30 38666 H 3682.55 -5.49866 -0.484914 0
M  V30 38667 H 3683.03 -4.13178 -1.48933 0
M  V30 38668 H 3683.63 -4.24924 0.178743 0
M  V30 38669 N 3681.95 -0.383945 -1.52852 0
M  V30 38670 C 3682.9 0.468722 -2.27828 0
M  V30 38671 C 3683.89 1.06768 -1.31518 0
M  V30 38672 O 3685.1 1.00877 -1.49076 0
M  V30 38673 H 3681.47 0.169904 -0.732555 0
M  V30 38674 H 3683.44 -0.185176 -2.97825 0
M  V30 38675 C 3682.19 1.58678 -3.09381 0
M  V30 38676 H 3681.51 1.1352 -3.83345 0
M  V30 38677 H 3682.95 2.15773 -3.64991 0
M  V30 38678 C 3681.41 2.53972 -2.21359 0
M  V30 38679 O 3681.94 3.57249 -1.83674 0
M  V30 38680 N 3680.15 2.23588 -1.85625 0
M  V30 38681 H 3679.7 1.39638 -2.16469 0
M  V30 38682 H 3679.65 2.87599 -1.2702 0
M  V30 38683 N 3683.43 1.5719 -0.113614 0
M  V30 38684 C 3684.36 2.18047 0.835325 0
M  V30 38685 C 3685.34 1.11899 1.28112 0
M  V30 38686 O 3686.52 1.40113 1.34469 0
M  V30 38687 C 3683.65 2.77559 2.08754 0
M  V30 38688 C 3682.61 3.89243 1.77972 0
M  V30 38689 C 3681.93 4.35539 3.10178 0
M  V30 38690 C 3683.23 5.11591 1.05222 0
M  V30 38691 H 3684.93 2.97595 0.328222 0
M  V30 38692 H 3682.47 1.43148 0.156431 0
M  V30 38693 H 3684.42 3.1879 2.75592 0
M  V30 38694 H 3683.15 1.95293 2.61779 0
M  V30 38695 H 3681.81 3.48579 1.13526 0
M  V30 38696 H 3681.46 3.50138 3.61127 0
M  V30 38697 H 3681.16 5.10848 2.90358 0
M  V30 38698 H 3682.68 4.79417 3.78143 0
M  V30 38699 H 3684.09 5.49875 1.62204 0
M  V30 38700 H 3682.49 5.9245 0.955165 0
M  V30 38701 H 3683.56 4.84885 0.0380518 0
M  V30 38702 N 3684.9 -0.160146 1.56784 0
M  V30 38703 C 3686.18 -0.902878 1.73515 0
M  V30 38704 C 3686.56 -1.99914 0.678071 0
M  V30 38705 O 3685.91 -2.26452 -0.305263 0
M  V30 38706 C 3686.12 -1.45739 3.17114 0
M  V30 38707 C 3687.47 -1.92595 3.78408 0
M  V30 38708 O 3688.49 -1.55509 3.20461 0
M  V30 38709 O 3687.35 -2.60946 4.80176 0
M  V30 38710 H 3684.44 -0.425751 0.708988 0
M  V30 38711 H 3686.99 -0.1471 1.69061 0
M  V30 38712 H 3685.76 -0.668917 3.8554 0
M  V30 38713 H 3685.38 -2.27704 3.2594 0
M  V30 38714 N 3686.38 -1.51647 -0.429072 0
M  V30 38715 C 3687.33 -1.73557 -1.5214 0
M  V30 38716 C 3688.3 -0.577443 -1.5574 0
M  V30 38717 O 3689.48 -0.812799 -1.72622 0
M  V30 38718 C 3686.62 -1.87406 -2.89781 0
M  V30 38719 C 3685.74 -3.14988 -2.95646 0
M  V30 38720 C 3684.87 -3.19383 -4.24462 0
M  V30 38721 C 3683.91 -4.41247 -4.24226 0
M  V30 38722 N 3683.05 -4.43145 -5.4458 0
M  V30 38723 H 3687.89 -2.66794 -1.3276 0
M  V30 38724 H 3685.42 -1.32216 -0.644777 0
M  V30 38725 H 3687.38 -1.93417 -3.69656 0
M  V30 38726 H 3686.01 -0.975692 -3.07701 0
M  V30 38727 H 3685.06 -3.18246 -2.08384 0
M  V30 38728 H 3686.38 -4.04877 -2.91334 0
M  V30 38729 H 3685.53 -3.24356 -5.12717 0
M  V30 38730 H 3684.27 -2.27396 -4.31442 0
M  V30 38731 H 3683.27 -4.36441 -3.34364 0
M  V30 38732 H 3684.5 -5.34506 -4.18903 0
M  V30 38733 H 3682.45 -3.54033 -5.52265 0
M  V30 38734 H 3682.36 -5.26854 -5.42181 0
M  V30 38735 H 3683.63 -4.52321 -6.34843 0
M  V30 38736 N 3687.86 0.685049 -1.41932 0
M  V30 38737 C 3688.79 1.81105 -1.47389 0
M  V30 38738 C 3689.77 1.66839 -0.331462 0
M  V30 38739 O 3690.96 1.86414 -0.544364 0
M  V30 38740 C 3688.09 3.19325 -1.36561 0
M  V30 38741 C 3687.04 3.48311 -2.48724 0
M  V30 38742 C 3686.37 4.85998 -2.22958 0
M  V30 38743 C 3687.67 3.4623 -3.91053 0
M  V30 38744 H 3689.36 1.76796 -2.41627 0
M  V30 38745 H 3686.91 0.849158 -1.16298 0
M  V30 38746 H 3688.86 3.97819 -1.38988 0
M  V30 38747 H 3687.58 3.24286 -0.38812 0
M  V30 38748 H 3686.24 2.72172 -2.45597 0
M  V30 38749 H 3685.89 4.87596 -1.23527 0
M  V30 38750 H 3685.59 5.06355 -2.98124 0
M  V30 38751 H 3687.11 5.66789 -2.27118 0
M  V30 38752 H 3688.53 4.14711 -3.95838 0
M  V30 38753 H 3686.92 3.78121 -4.65987 0
M  V30 38754 H 3687.99 2.44999 -4.18454 0
M  V30 38755 N 3689.34 1.27935 0.920351 0
M  V30 38756 C 3690.28 1.11294 2.02194 0
M  V30 38757 C 3691.25 0.0119162 1.66096 0
M  V30 38758 O 3692.44 0.175619 1.8999 0
M  V30 38759 C 3689.58 0.77389 3.36311 0
M  V30 38760 C 3688.69 1.95329 3.85319 0
M  V30 38761 C 3687.83 1.55546 5.07916 0
M  V30 38762 C 3686.87 2.7019 5.49239 0
M  V30 38763 N 3686 2.30944 6.6303 0
M  V30 38764 H 3690.84 2.05552 2.1576 0
M  V30 38765 H 3688.38 1.02314 1.05689 0
M  V30 38766 H 3690.34 0.558097 4.1345 0
M  V30 38767 H 3688.97 -0.131749 3.22531 0
M  V30 38768 H 3688.02 2.28141 3.04395 0
M  V30 38769 H 3689.33 2.81304 4.1191 0
M  V30 38770 H 3688.49 1.30134 5.92579 0
M  V30 38771 H 3687.23 0.666902 4.83119 0
M  V30 38772 H 3686.23 2.96307 4.63122 0
M  V30 38773 H 3687.46 3.59677 5.76029 0
M  V30 38774 H 3685.4 1.4455 6.39876 0
M  V30 38775 H 3685.32 3.10456 6.89313 0
M  V30 38776 H 3686.59 2.08799 7.51015 0
M  V30 38777 N 3690.82 -1.12788 1.10076 0
M  V30 38778 C 3692.06 -1.84215 0.840905 0
M  V30 38779 C 3692.39 -1.83893 -0.633519 0
M  V30 38780 O 3691.65 -1.27716 -1.4828 0
M  V30 38781 C 3691.94 -3.31741 1.32975 0
M  V30 38782 C 3691.61 -3.52237 2.81495 0
M  V30 38783 C 3690.27 -3.57539 3.22054 0
M  V30 38784 C 3692.62 -3.59657 3.77222 0
M  V30 38785 C 3689.95 -3.67801 4.57099 0
M  V30 38786 C 3692.3 -3.71448 5.12064 0
M  V30 38787 C 3690.97 -3.75005 5.52203 0
M  V30 38788 H 3690.24 -0.674089 0.307709 0
M  V30 38789 H 3692.89 -1.33113 1.37671 0
M  V30 38790 H 3691.19 -3.85241 0.713887 0
M  V30 38791 H 3692.89 -3.85468 1.10522 0
M  V30 38792 H 3689.48 -3.48771 2.49112 0
M  V30 38793 H 3693.66 -3.54834 3.46996 0
M  V30 38794 H 3688.92 -3.68825 4.87625 0
M  V30 38795 H 3693.09 -3.76131 5.86087 0
M  V30 38796 H 3690.72 -3.82709 6.56839 0
M  V30 38797 N 3692.29 -0.888949 -1.30136 0
M  V30 38798 C 3693.24 -0.356963 -2.28023 0
M  V30 38799 C 3694.21 0.555039 -1.56552 0
M  V30 38800 O 3695.4 0.482601 -1.84596 0
M  V30 38801 C 3692.54 0.418996 -3.42547 0
M  V30 38802 C 3691.65 -0.522676 -4.28826 0
M  V30 38803 C 3690.78 0.269273 -5.30517 0
M  V30 38804 C 3689.82 -0.667614 -6.08448 0
M  V30 38805 N 3688.96 0.0892566 -7.02043 0
M  V30 38806 H 3693.8 -1.19683 -2.7291 0
M  V30 38807 H 3691.34 -0.601544 -1.34238 0
M  V30 38808 H 3693.29 0.88484 -4.07709 0
M  V30 38809 H 3691.92 1.22341 -2.98718 0
M  V30 38810 H 3690.98 -1.10702 -3.63936 0
M  V30 38811 H 3692.29 -1.24027 -4.83134 0
M  V30 38812 H 3691.44 0.796795 -6.01445 0
M  V30 38813 H 3690.18 1.02006 -4.76913 0
M  V30 38814 H 3689.19 -1.20673 -5.36394 0
M  V30 38815 H 3690.41 -1.41756 -6.6414 0
M  V30 38816 H 3688.36 0.822508 -6.50823 0
M  V30 38817 H 3688.27 -0.568631 -7.53858 0
M  V30 38818 H 3689.54 0.597393 -7.77207 0
M  V30 38819 N 3693.77 1.43557 -0.65031 0
M  V30 38820 C 3694.68 2.34559 0.0437664 0
M  V30 38821 C 3695.7 1.53717 0.815289 0
M  V30 38822 O 3696.87 1.86379 0.763197 0
M  V30 38823 C 3693.94 3.31959 1.00022 0
M  V30 38824 C 3693 4.28705 0.225951 0
M  V30 38825 C 3692.23 5.21451 1.13685 0
M  V30 38826 O 3692.46 5.18556 2.37605 0
M  V30 38827 O 3691.39 5.98793 0.610819 0
M  V30 38828 H 3695.22 2.95399 -0.705204 0
M  V30 38829 H 3692.8 1.4365 -0.410496 0
M  V30 38830 H 3694.68 3.9186 1.54997 0
M  V30 38831 H 3693.36 2.73626 1.72947 0
M  V30 38832 H 3692.26 3.72292 -0.367309 0
M  V30 38833 H 3693.6 4.90011 -0.463669 0
M  V30 38834 N 3695.25 0.392045 1.52646 0
M  V30 38835 C 3696.5 -0.189545 2.01912 0
M  V30 38836 C 3696.83 -1.46231 1.27789 0
M  V30 38837 O 3696.1 -1.90769 0.379157 0
M  V30 38838 C 3696.39 -0.454672 3.57218 0
M  V30 38839 C 3696.24 0.833578 4.42008 0
M  V30 38840 C 3697.56 -1.24413 4.22149 0
M  V30 38841 H 3694.68 -0.0674152 0.73391 0
M  V30 38842 H 3697.32 0.522153 1.82684 0
M  V30 38843 H 3695.47 -1.06094 3.73733 0
M  V30 38844 H 3697.14 1.47035 4.3724 0
M  V30 38845 H 3695.38 1.4483 4.08909 0
M  V30 38846 H 3696.06 0.602681 5.487 0
M  V30 38847 H 3698.53 -0.731021 4.09628 0
M  V30 38848 H 3697.41 -1.39838 5.30789 0
M  V30 38849 H 3697.67 -2.26009 3.79964 0
M  V30 38850 N 3696.73 -1.57127 0.121948 0
M  V30 38851 C 3697.97 -1.97182 -0.538388 0
M  V30 38852 C 3698.33 -1.00397 -1.63659 0
M  V30 38853 O 3699.53 -1.29401 -2.35603 0
M  V30 38854 C 3697.8 -3.41485 -1.05463 0
M  V30 38855 S 3699.36 -4.03553 -1.72308 0
M  V30 38856 H 3696.18 -0.689152 -0.174901 0
M  V30 38857 H 3698.78 -1.94393 0.207728 0
M  V30 38858 H 3697.49 -4.09673 -0.244225 0
M  V30 38859 H 3697.02 -3.47931 -1.83596 0
M  V30 38860 H 3699.03 -3.94553 -3.00903 0
M  V30 38861 N 3698.21 0.151829 -1.56867 0
M  V30 38862 C 3699.15 1.18759 -1.97901 0
M  V30 38863 C 3700.12 1.42949 -0.845858 0
M  V30 38864 O 3701.31 1.55365 -1.10754 0
M  V30 38865 C 3698.45 2.51726 -2.36068 0
M  V30 38866 C 3697.56 2.34751 -3.62651 0
M  V30 38867 C 3696.7 3.60719 -3.89942 0
M  V30 38868 C 3695.74 3.3876 -5.09812 0
M  V30 38869 N 3694.87 4.56847 -5.33137 0
M  V30 38870 H 3699.71 0.830662 -2.86189 0
M  V30 38871 H 3697.25 0.39872 -1.41593 0
M  V30 38872 H 3699.21 3.2925 -2.56223 0
M  V30 38873 H 3697.84 2.85376 -1.50866 0
M  V30 38874 H 3696.89 1.48306 -3.50299 0
M  V30 38875 H 3698.2 2.14482 -4.50332 0
M  V30 38876 H 3697.36 4.46673 -4.10571 0
M  V30 38877 H 3696.09 3.83987 -3.00674 0
M  V30 38878 H 3695.1 2.51194 -4.89062 0
M  V30 38879 H 3696.32 3.16895 -6.00628 0
M  V30 38880 H 3694.27 4.80297 -4.46823 0
M  V30 38881 H 3694.19 4.39563 -6.15078 0
M  V30 38882 H 3695.46 5.44028 -5.5826 0
M  V30 38883 N 3699.68 1.51872 0.421024 0
M  V30 38884 C 3700.91 1.69177 1.19108 0
M  V30 38885 C 3701.33 0.396092 1.84598 0
M  V30 38886 O 3700.68 -0.626877 1.71396 0
M  V30 38887 C 3700.74 2.81902 2.26304 0
M  V30 38888 O 3700.46 4.06452 1.63489 0
M  V30 38889 C 3701.96 3.10616 3.16279 0
M  V30 38890 H 3699.18 0.567282 0.358375 0
M  V30 38891 H 3701.72 1.98372 0.496884 0
M  V30 38892 H 3699.88 2.55261 2.91412 0
M  V30 38893 H 3700.29 4.69178 2.34462 0
M  V30 38894 H 3701.76 3.93033 3.87594 0
M  V30 38895 H 3702.24 2.23682 3.77972 0
M  V30 38896 H 3702.85 3.38978 2.56854 0
M  V30 38897 N 3701.16 -0.677513 1.42294 0
M  V30 38898 C 3702.39 -1.46589 1.46011 0
M  V30 38899 C 3702.81 -1.88668 0.0706346 0
M  V30 38900 O 3702.16 -1.5796 -0.914049 0
M  V30 38901 C 3702.21 -2.71677 2.38482 0
M  V30 38902 O 3701.93 -2.31366 3.72024 0
M  V30 38903 C 3703.44 -3.65264 2.51191 0
M  V30 38904 H 3700.66 -0.451145 0.496698 0
M  V30 38905 H 3703.2 -0.832703 1.86779 0
M  V30 38906 H 3701.35 -3.31192 2.00975 0
M  V30 38907 H 3701.77 -3.12124 4.2152 0
M  V30 38908 H 3703.24 -4.49767 3.20022 0
M  V30 38909 H 3703.72 -4.10981 1.54892 0
M  V30 38910 H 3704.33 -3.11645 2.89409 0
M  V30 38911 N 3702.64 -1.28421 -0.913554 0
M  V30 38912 C 3703.87 -1.18438 -1.69647 0
M  V30 38913 C 3704.28 0.256955 -1.87043 0
M  V30 38914 O 3703.64 1.17363 -1.39757 0
M  V30 38915 C 3703.69 -1.87865 -3.08851 0
M  V30 38916 O 3703.41 -3.26368 -2.9226 0
M  V30 38917 C 3704.91 -1.84185 -4.03225 0
M  V30 38918 H 3702.13 -0.411124 -0.5303 0
M  V30 38919 H 3704.68 -1.69549 -1.14339 0
M  V30 38920 H 3702.83 -1.40623 -3.60976 0
M  V30 38921 H 3703.25 -3.61141 -3.80365 0
M  V30 38922 H 3704.72 -2.37352 -4.98365 0
M  V30 38923 H 3705.2 -0.814271 -4.31586 0
M  V30 38924 H 3705.8 -2.31106 -3.57029 0
M  V30 38925 N 3704.12 1.12202 -1.10672 0
M  V30 38926 C 3705.37 1.83403 -0.848982 0
M  V30 38927 C 3705.69 1.84638 0.627208 0
M  V30 38928 O 3704.96 1.31125 1.45544 0
M  V30 38929 H 3703.54 0.679143 -0.311086 0
M  V30 38930 H 3706.2 1.35853 -1.39749 0
M  V30 38931 H 3705.3 2.8752 -1.21403 0
M  V30 38932 N 3705.6 0.895838 1.29663 0
M  V30 38933 C 3706.85 0.515783 1.94994 0
M  V30 38934 C 3707.16 -0.94189 1.71429 0
M  V30 38935 O 3708.36 -1.42929 2.30832 0
M  V30 38936 C 3706.82 0.871529 3.49188 0
M  V30 38937 C 3706.43 2.34771 3.81558 0
M  V30 38938 C 3708.17 0.561197 4.20774 0
M  V30 38939 C 3706.08 2.64452 5.28979 0
M  V30 38940 H 3705.01 0.189164 0.729886 0
M  V30 38941 H 3707.66 1.0923 1.47448 0
M  V30 38942 H 3706.04 0.223977 3.95366 0
M  V30 38943 H 3707.22 3.04049 3.46253 0
M  V30 38944 H 3705.53 2.62667 3.23102 0
M  V30 38945 H 3708.13 0.759848 5.29273 0
M  V30 38946 H 3708.47 -0.500056 4.13286 0
M  V30 38947 H 3709 1.16642 3.80315 0
M  V30 38948 H 3705.74 3.6936 5.41529 0
M  V30 38949 H 3705.26 1.99794 5.65546 0
M  V30 38950 H 3706.94 2.50517 5.96532 0
M  V30 38951 N 3707.07 -1.43211 0.657914 0
M  V30 38952 C 3708.49 -1.84985 0.252476 0
M  V30 38953 C 3708.84 -1.55074 -1.20193 0
M  V30 38954 O 3707.96 -1.00206 -1.91801 0
M  V30 38955 C 3708.56 -3.35779 0.451447 0
M  V30 38956 C 3707.12 -3.76266 0.100285 0
M  V30 38957 C 3706.26 -2.66907 0.752056 0
M  V30 38958 H 3709.21 -1.33297 0.861262 0
M  V30 38959 H 3709.23 -3.79303 -0.301623 0
M  V30 38960 H 3708.75 -3.57517 1.51007 0
M  V30 38961 H 3706.85 -3.60139 -0.955554 0
M  V30 38962 H 3706.96 -4.7617 0.529026 0
M  V30 38963 H 3705.32 -2.54028 0.184868 0
M  V30 38964 H 3706.11 -2.91473 1.8138 0
M  V30 38965 N 3708.55 -0.400135 -1.52436 0
M  V30 38966 C 3709.46 0.436835 -2.30497 0
M  V30 38967 C 3710.48 1.06173 -1.37853 0
M  V30 38968 O 3711.65 1.06519 -1.70926 0
M  V30 38969 C 3708.72 1.5432 -3.10461 0
M  V30 38970 C 3707.78 0.942294 -4.18831 0
M  V30 38971 C 3707.01 1.99593 -4.94973 0
M  V30 38972 O 3707.24 3.2127 -4.71319 0
M  V30 38973 O 3706.17 1.60718 -5.80046 0
M  V30 38974 H 3710 -0.199396 -3.03045 0
M  V30 38975 H 3707.58 -0.163567 -1.48502 0
M  V30 38976 H 3709.46 2.18568 -3.60286 0
M  V30 38977 H 3708.14 2.16419 -2.40716 0
M  V30 38978 H 3707.05 0.262765 -3.73176 0
M  V30 38979 H 3708.38 0.365355 -4.90842 0
M  V30 38980 N 3710.03 1.57061 -0.13028 0
M  V30 38981 C 3711.26 1.99643 0.531609 0
M  V30 38982 C 3711.67 1.0091 1.60043 0
M  V30 38983 O 3711.01 -0.00449067 1.83699 0
M  V30 38984 C 3711.07 3.38651 1.20648 0
M  V30 38985 C 3710.74 4.56115 0.284257 0
M  V30 38986 C 3711.73 5.17665 -0.481563 0
M  V30 38987 C 3709.42 5.01933 0.192037 0
M  V30 38988 C 3711.41 6.23429 -1.32722 0
M  V30 38989 C 3709.1 6.07555 -0.657242 0
M  V30 38990 C 3710.1 6.68171 -1.41549 0
M  V30 38991 O 3709.79 7.71752 -2.25065 0
M  V30 38992 H 3709.52 0.660401 0.144382 0
M  V30 38993 H 3712.07 2.04252 -0.216824 0
M  V30 38994 H 3710.3 3.3083 2.00221 0
M  V30 38995 H 3711.99 3.65449 1.76641 0
M  V30 38996 H 3712.76 4.83176 -0.420254 0
M  V30 38997 H 3708.64 4.54491 0.771937 0
M  V30 38998 H 3712.18 6.70671 -1.91954 0
M  V30 38999 H 3708.08 6.41473 -0.719904 0
M  V30 39000 H 3708.85 7.88899 -2.1813 0
M  V30 39001 N 3711.51 -0.143508 1.56945 0
M  V30 39002 C 3712.46 -1.19625 1.99481 0
M  V30 39003 C 3713.45 -1.44275 0.887759 0
M  V30 39004 O 3714.66 -1.44526 1.07295 0
M  V30 39005 H 3711.03 -0.40275 0.635056 0
M  V30 39006 H 3713 -0.810826 2.87173 0
M  V30 39007 C 3711.75 -2.52118 2.3944 0
M  V30 39008 H 3711.08 -2.33982 3.2418 0
M  V30 39009 H 3712.52 -3.24399 2.73022 0
M  V30 39010 C 3710.97 -3.12916 1.24842 0
M  V30 39011 O 3711.5 -3.97903 0.551043 0
M  V30 39012 N 3709.71 -2.72418 1.01176 0
M  V30 39013 H 3709.26 -2.03405 1.58063 0
M  V30 39014 H 3709.22 -3.13429 0.246901 0
M  V30 39015 N 3712.99 -1.52093 -0.412964 0
M  V30 39016 C 3714.23 -1.65964 -1.16027 0
M  V30 39017 C 3714.56 -0.387685 -1.90597 0
M  V30 39018 O 3713.82 0.62921 -1.85309 0
M  V30 39019 C 3714.12 -2.82971 -2.18316 0
M  V30 39020 C 3713.78 -4.21337 -1.60581 0
M  V30 39021 C 3712.44 -4.58973 -1.4456 0
M  V30 39022 C 3714.8 -5.07578 -1.18379 0
M  V30 39023 C 3712.12 -5.80532 -0.848482 0
M  V30 39024 C 3714.48 -6.2974 -0.600874 0
M  V30 39025 C 3713.14 -6.66128 -0.427763 0
M  V30 39026 H 3712.41 -0.607305 -0.424573 0
M  V30 39027 H 3715.06 -1.86186 -0.447995 0
M  V30 39028 H 3713.36 -2.57068 -2.95674 0
M  V30 39029 H 3715.06 -2.909 -2.76004 0
M  V30 39030 H 3711.65 -3.91676 -1.74033 0
M  V30 39031 H 3715.83 -4.79089 -1.29568 0
M  V30 39032 H 3711.09 -6.07353 -0.70234 0
M  V30 39033 H 3715.26 -6.95894 -0.265461 0
M  V30 39034 H 3712.89 -7.60191 0.037035 0
M  V30 39035 N 3714.47 0.669957 -1.42651 0
M  V30 39036 C 3715.71 1.42577 -1.4267 0
M  V30 39037 C 3716.03 1.9554 -0.048356 0
M  V30 39038 O 3717.23 2.71399 0.074044 0
M  V30 39039 C 3715.69 2.57944 -2.50984 0
M  V30 39040 C 3715.3 2.11659 -3.94847 0
M  V30 39041 C 3717.04 3.35423 -2.60176 0
M  V30 39042 C 3714.95 3.24137 -4.94661 0
M  V30 39043 H 3713.88 0.535645 -0.530661 0
M  V30 39044 H 3716.53 0.724832 -1.68578 0
M  V30 39045 H 3714.91 3.30429 -2.1825 0
M  V30 39046 H 3716.09 1.46295 -4.3696 0
M  V30 39047 H 3714.4 1.47105 -3.8955 0
M  V30 39048 H 3717 4.19201 -3.31926 0
M  V30 39049 H 3717.34 3.82339 -1.6469 0
M  V30 39050 H 3717.87 2.7001 -2.92129 0
M  V30 39051 H 3714.61 2.82208 -5.91641 0
M  V30 39052 H 3714.13 3.88267 -4.57175 0
M  V30 39053 H 3715.81 3.89529 -5.166 0
M  V30 39054 N 3715.94 1.28904 0.90673 0
M  V30 39055 C 3717.19 1.15842 1.65117 0
M  V30 39056 C 3717.51 -0.290791 1.93426 0
M  V30 39057 O 3718.71 -0.542631 2.66022 0
M  V30 39058 C 3717.17 2.02555 2.97489 0
M  V30 39059 C 3716.78 3.52258 2.768 0
M  V30 39060 C 3718.52 1.98199 3.7539 0
M  V30 39061 C 3716.43 4.31099 4.04856 0
M  V30 39062 H 3715.36 0.42995 0.619402 0
M  V30 39063 H 3718.01 1.53489 1.00565 0
M  V30 39064 H 3716.39 1.5777 3.63214 0
M  V30 39065 H 3717.56 4.05048 2.19711 0
M  V30 39066 H 3715.88 3.58213 2.12303 0
M  V30 39067 H 3718.48 2.54367 4.70321 0
M  V30 39068 H 3718.82 0.960338 4.05072 0
M  V30 39069 H 3719.35 2.4099 3.16494 0
M  V30 39070 H 3716.09 5.33872 3.80343 0
M  V30 39071 H 3715.61 3.8308 4.6153 0
M  V30 39072 H 3717.29 4.4139 4.73058 0
M  V30 39073 N 3717.42 -1.11614 1.11266 0
M  V30 39074 C 3718.65 -1.86848 0.881555 0
M  V30 39075 C 3719.06 -1.80345 -0.572057 0
M  V30 39076 O 3718.4 -1.18151 -1.40663 0
M  V30 39077 C 3718.46 -3.36602 1.26251 0
M  V30 39078 C 3718.13 -3.66875 2.72492 0
M  V30 39079 C 3719.13 -3.64509 3.70714 0
M  V30 39080 C 3716.81 -3.95938 3.09093 0
M  V30 39081 C 3718.8 -3.9078 5.03557 0
M  V30 39082 C 3716.49 -4.21867 4.42122 0
M  V30 39083 C 3717.49 -4.19276 5.39163 0
M  V30 39084 O 3717.18 -4.44556 6.69795 0
M  V30 39085 H 3716.91 -0.597776 0.315657 0
M  V30 39086 H 3719.46 -1.42093 1.4832 0
M  V30 39087 H 3717.69 -3.81954 0.604006 0
M  V30 39088 H 3719.38 -3.93197 1.0075 0
M  V30 39089 H 3720.15 -3.42109 3.43782 0
M  V30 39090 H 3716.03 -3.97091 2.34178 0
M  V30 39091 H 3719.57 -3.88673 5.79292 0
M  V30 39092 H 3715.47 -4.43743 4.68788 0
M  V30 39093 H 3716.24 -4.62132 6.75556 0
M  V30 39094 N 3718.9 -0.902701 -1.29186 0
M  V30 39095 C 3720.18 -0.449529 -1.90364 0
M  V30 39096 C 3720.56 1.07102 -1.81913 0
M  V30 39097 O 3719.9 1.91421 -1.24782 0
M  V30 39098 C 3720.11 -0.967477 -3.35322 0
M  V30 39099 C 3721.46 -1.01297 -4.1234 0
M  V30 39100 O 3722.49 -0.915354 -3.44238 0
M  V30 39101 O 3721.35 -1.16003 -5.34046 0
M  V30 39102 H 3718.44 -0.140642 -0.814953 0
M  V30 39103 H 3720.99 -0.992763 -1.37631 0
M  V30 39104 H 3719.76 -2.01146 -3.35643 0
M  V30 39105 H 3719.38 -0.404427 -3.95538 0
M  V30 39106 N 3720.38 1.4286 -0.6655 0
M  V30 39107 C 3721.6 2.06524 -0.190435 0
M  V30 39108 C 3722.03 1.49624 1.13993 0
M  V30 39109 O 3721.39 0.611011 1.70694 0
M  V30 39110 C 3721.43 3.6038 -0.126003 0
M  V30 39111 O 3720.54 4.02275 0.908229 0
M  V30 39112 H 3719.88 0.656349 -0.100507 0
M  V30 39113 H 3722.41 1.83155 -0.911891 0
M  V30 39114 H 3722.42 4.07965 0.0532436 0
M  V30 39115 H 3721.09 4.01169 -1.0971 0
M  V30 39116 H 3719.67 3.66256 0.700777 0
M  V30 39117 N 3721.86 0.408213 1.52221 0
M  V30 39118 C 3723.08 -0.169865 2.06703 0
M  V30 39119 C 3723.51 -1.38168 1.27637 0
M  V30 39120 O 3722.86 -1.78693 0.306374 0
M  V30 39121 C 3722.91 -0.4996 3.57122 0
M  V30 39122 O 3722.02 -1.59073 3.80486 0
M  V30 39123 H 3721.36 -0.0146028 0.663839 0
M  V30 39124 H 3723.89 0.581148 1.96173 0
M  V30 39125 H 3723.9 -0.758497 4.00888 0
M  V30 39126 H 3722.57 0.386255 4.14103 0
M  V30 39127 H 3721.15 -1.32407 3.48601 0
M  V30 39128 N 3723.33 -1.56989 0.138607 0
M  V30 39129 C 3724.61 -1.87436 -0.559206 0
M  V30 39130 C 3724.99 -1.04315 -1.83525 0
M  V30 39131 O 3724.34 -0.127571 -2.28144 0
M  V30 39132 C 3724.55 -3.38919 -0.83276 0
M  V30 39133 C 3725.9 -4.07954 -1.17723 0
M  V30 39134 O 3726.92 -3.4405 -0.922389 0
M  V30 39135 O 3725.78 -5.20793 -1.65641 0
M  V30 39136 H 3722.87 -0.776595 -0.284305 0
M  V30 39137 H 3725.42 -1.688 0.174587 0
M  V30 39138 H 3724.19 -3.91236 0.0706742 0
M  V30 39139 H 3723.81 -3.63054 -1.62103 0
M  V30 39140 N 3724.81 0.135183 -1.57019 0
M  V30 39141 C 3726.23 0.488213 -1.51949 0
M  V30 39142 C 3726.43 1.82742 -0.848987 0
M  V30 39143 O 3725.48 2.48906 -0.424485 0
M  V30 39144 C 3726.8 0.487621 -2.9672 0
M  V30 39145 C 3728.34 0.572311 -3.07723 0
M  V30 39146 C 3728.82 0.602267 -4.54023 0
M  V30 39147 N 3730.31 0.664161 -4.58414 0
M  V30 39148 C 3731.05 0.70852 -5.69006 0
M  V30 39149 N 3730.54 0.711505 -6.89137 0
M  V30 39150 N 3732.33 0.750301 -5.5707 0
M  V30 39151 H 3724.49 -0.7425 -1.98999 0
M  V30 39152 H 3726.75 -0.272099 -0.908111 0
M  V30 39153 H 3726.45 -0.428425 -3.49081 0
M  V30 39154 H 3726.33 1.3213 -3.53301 0
M  V30 39155 H 3728.72 1.47878 -2.55375 0
M  V30 39156 H 3728.8 -0.288741 -2.54165 0
M  V30 39157 H 3728.44 -0.300089 -5.07013 0
M  V30 39158 H 3728.37 1.47998 -5.05375 0
M  V30 39159 H 3730.86 0.668674 -3.71937 0
M  V30 39160 H 3731.17 0.747528 -7.69176 0
M  V30 39161 H 3729.52 0.679189 -6.91673 0
M  V30 39162 H 3732.71 0.74522 -4.6213 0
M  V30 39163 H 3732.88 0.781405 -6.43271 0
M  V30 39164 N 3726.29 1.5231 0.404892 0
M  V30 39165 C 3727.54 1.66248 1.14918 0
M  V30 39166 C 3727.86 0.396901 1.90918 0
M  V30 39167 O 3727.13 -0.588328 1.86857 0
M  V30 39168 H 3725.71 0.612779 0.427212 0
M  V30 39169 H 3728.37 1.89368 0.461058 0
M  V30 39170 H 3727.47 2.50553 1.8609 0
M  V30 39171 N 3727.77 -0.662382 1.43004 0
M  V30 39172 C 3728.7 -1.78791 1.4341 0
M  V30 39173 C 3729.71 -1.5939 0.331451 0
M  V30 39174 O 3730.9 -1.6828 0.595321 0
M  V30 39175 C 3728 -3.16085 1.22244 0
M  V30 39176 C 3727.18 -3.62225 2.45177 0
M  V30 39177 C 3726.23 -4.78292 2.19371 0
M  V30 39178 O 3725.26 -4.882 2.9266 0
M  V30 39179 N 3726.46 -5.67864 1.20459 0
M  V30 39180 H 3729.23 -1.78924 2.40429 0
M  V30 39181 H 3726.79 -0.845911 1.38043 0
M  V30 39182 H 3728.78 -3.91406 1.02878 0
M  V30 39183 H 3727.35 -3.10778 0.337038 0
M  V30 39184 H 3726.57 -2.77448 2.80029 0
M  V30 39185 H 3727.86 -3.89797 3.2701 0
M  V30 39186 H 3727.26 -5.62523 0.598675 0
M  V30 39187 H 3725.81 -6.42945 1.07077 0
M  V30 39188 N 3729.25 -1.29383 -0.899882 0
M  V30 39189 C 3730.16 -1.16382 -2.03697 0
M  V30 39190 C 3731.17 -0.0871097 -1.73782 0
M  V30 39191 O 3732.35 -0.299144 -1.99166 0
M  V30 39192 C 3729.41 -0.841225 -3.3634 0
M  V30 39193 C 3728.47 -2.00175 -3.79774 0
M  V30 39194 C 3727.71 -1.69446 -5.06087 0
M  V30 39195 O 3727.93 -0.615312 -5.67071 0
M  V30 39196 O 3726.86 -2.54238 -5.4557 0
M  V30 39197 H 3730.69 -2.1187 -2.17588 0
M  V30 39198 H 3728.28 -1.08833 -1.02351 0
M  V30 39199 H 3730.16 -0.675876 -4.15945 0
M  V30 39200 H 3728.83 0.0838807 -3.23591 0
M  V30 39201 H 3727.74 -2.22234 -3.00937 0
M  V30 39202 H 3729.07 -2.90805 -3.97106 0
M  V30 39203 N 3730.72 1.11022 -1.11856 0
M  V30 39204 C 3731.95 1.87189 -0.893032 0
M  V30 39205 C 3732.37 1.79817 0.552026 0
M  V30 39206 O 3731.73 1.16371 1.39023 0
M  V30 39207 C 3731.78 3.33777 -1.36475 0
M  V30 39208 O 3730.88 4.08859 -0.539274 0
M  V30 39209 H 3730.23 0.581071 -0.32133 0
M  V30 39210 H 3732.76 1.40308 -1.48912 0
M  V30 39211 H 3732.77 3.84625 -1.36117 0
M  V30 39212 H 3731.44 3.38458 -2.417 0
M  V30 39213 H 3730.02 3.67888 -0.609335 0
M  V30 39214 N 3732.2 0.90954 1.28706 0
M  V30 39215 C 3733.13 0.411592 2.29844 0
M  V30 39216 C 3734.11 -0.518586 1.62002 0
M  V30 39217 O 3735.3 -0.427219 1.89443 0
M  V30 39218 C 3732.43 -0.352953 3.45502 0
M  V30 39219 C 3731.38 0.4877 4.25212 0
M  V30 39220 C 3730.71 -0.404932 5.33165 0
M  V30 39221 C 3732.01 1.74277 4.92366 0
M  V30 39222 H 3733.7 1.2568 2.71744 0
M  V30 39223 H 3731.25 0.605782 1.30638 0
M  V30 39224 H 3733.2 -0.712118 4.15339 0
M  V30 39225 H 3731.93 -1.23203 3.02471 0
M  V30 39226 H 3730.58 0.829327 3.57096 0
M  V30 39227 H 3730.23 -1.28243 4.86377 0
M  V30 39228 H 3729.93 0.153914 5.87398 0
M  V30 39229 H 3731.46 -0.760072 6.05851 0
M  V30 39230 H 3732.87 1.45276 5.54588 0
M  V30 39231 H 3731.27 2.2437 5.56577 0
M  V30 39232 H 3732.34 2.47304 4.17096 0
M  V30 39233 N 3733.68 -1.42505 0.673067 0
M  V30 39234 C 3734.64 -2.292 0.00287184 0
M  V30 39235 C 3735.64 -1.43237 -0.730745 0
M  V30 39236 O 3736.83 -1.64645 -0.569008 0
M  V30 39237 C 3733.97 -3.257 -1.0066 0
M  V30 39238 H 3735.16 -2.89955 0.76592 0
M  V30 39239 H 3732.71 -1.50115 0.435327 0
M  V30 39240 H 3733.45 -2.6988 -1.7982 0
M  V30 39241 H 3733.23 -3.89102 -0.483975 0
M  V30 39242 H 3734.72 -3.90721 -1.47402 0
M  V30 39243 N 3735.16 -0.41628 -1.52003 0
M  V30 39244 C 3736.57 -0.0675055 -1.59457 0
M  V30 39245 C 3736.77 1.42096 -1.42867 0
M  V30 39246 O 3735.83 2.1886 -1.25923 0
M  V30 39247 C 3737.14 -0.568812 -2.95271 0
M  V30 39248 C 3738.69 -0.52741 -3.08525 0
M  V30 39249 C 3739.17 -1.00534 -4.4683 0
M  V30 39250 N 3740.66 -0.962457 -4.53091 0
M  V30 39251 C 3741.39 -1.30337 -5.5839 0
M  V30 39252 N 3740.89 -1.71609 -6.71209 0
M  V30 39253 N 3742.68 -1.22288 -5.48637 0
M  V30 39254 H 3734.83 -1.38499 -1.61033 0
M  V30 39255 H 3737.1 -0.569413 -0.75794 0
M  V30 39256 H 3736.8 -1.60943 -3.12714 0
M  V30 39257 H 3736.68 0.0176932 -3.77196 0
M  V30 39258 H 3739.06 0.504174 -2.90761 0
M  V30 39259 H 3739.14 -1.15006 -2.28489 0
M  V30 39260 H 3738.79 -2.03529 -4.65337 0
M  V30 39261 H 3738.72 -0.359437 -5.25372 0
M  V30 39262 H 3741.21 -0.659106 -3.72108 0
M  V30 39263 H 3741.52 -1.95914 -7.47554 0
M  V30 39264 H 3739.87 -1.75519 -6.72472 0
M  V30 39265 H 3743.06 -0.899256 -4.59381 0
M  V30 39266 H 3743.23 -1.49186 -6.30593 0
M  V30 39267 N 3736.64 1.56914 -0.146931 0
M  V30 39268 C 3737.86 2.0092 0.51439 0
M  V30 39269 C 3738.29 1.02636 1.57631 0
M  V30 39270 O 3737.64 0.00210665 1.813 0
M  V30 39271 C 3737.69 3.43671 1.09191 0
M  V30 39272 O 3736.8 3.48389 2.20678 0
M  V30 39273 H 3736.14 0.651971 0.125816 0
M  V30 39274 H 3738.67 2.03144 -0.243643 0
M  V30 39275 H 3738.68 3.8247 1.4206 0
M  V30 39276 H 3737.35 4.14711 0.314263 0
M  V30 39277 H 3735.93 3.21432 1.89039 0
M  V30 39278 N 3738.11 -0.126854 1.57089 0
M  V30 39279 C 3739.08 -1.14 1.98838 0
M  V30 39280 C 3740.08 -1.34748 0.877478 0
M  V30 39281 O 3741.27 -1.31398 1.14369 0
M  V30 39282 C 3738.4 -2.49614 2.32176 0
M  V30 39283 H 3739.59 -0.781349 2.89543 0
M  V30 39284 H 3737.15 -0.370889 1.51836 0
M  V30 39285 H 3737.88 -2.90414 1.44326 0
M  V30 39286 H 3737.67 -2.35911 3.13191 0
M  V30 39287 H 3739.16 -3.22545 2.65244 0
M  V30 39288 N 3739.59 -1.52523 -0.396809 0
M  V30 39289 C 3740.83 -1.68869 -1.15163 0
M  V30 39290 C 3741.2 -0.415767 -1.87444 0
M  V30 39291 O 3742.4 -0.45549 -2.64913 0
M  V30 39292 C 3740.67 -2.88468 -2.11 0
M  V30 39293 S 3742.23 -3.25362 -2.94423 0
M  V30 39294 H 3739.05 -0.594522 -0.389955 0
M  V30 39295 H 3741.65 -1.90549 -0.437167 0
M  V30 39296 H 3740.35 -3.79345 -1.56607 0
M  V30 39297 H 3739.88 -2.69098 -2.86967 0
M  V30 39298 H 3741.9 -2.74942 -4.13064 0
M  V30 39299 N 3741.07 0.654789 -1.43354 0
M  V30 39300 C 3742.32 1.4168 -1.45102 0
M  V30 39301 C 3742.65 1.94057 -0.0744205 0
M  V30 39302 O 3741.93 1.7219 0.904484 0
M  V30 39303 C 3742.21 2.59937 -2.49209 0
M  V30 39304 C 3742.06 2.13062 -3.96137 0
M  V30 39305 C 3743.38 3.62151 -2.5007 0
M  V30 39306 H 3740.5 0.513826 -0.528348 0
M  V30 39307 H 3743.14 0.742458 -1.74893 0
M  V30 39308 H 3741.29 3.17466 -2.23936 0
M  V30 39309 H 3742.96 1.60545 -4.32462 0
M  V30 39310 H 3741.21 1.44448 -4.09044 0
M  V30 39311 H 3741.88 2.98093 -4.64591 0
M  V30 39312 H 3744.35 3.14377 -2.72592 0
M  V30 39313 H 3743.23 4.42447 -3.24857 0
M  V30 39314 H 3743.49 4.14636 -1.53392 0
M  V30 39315 N 3742.55 1.29858 0.893007 0
M  V30 39316 C 3743.78 1.20946 1.67498 0
M  V30 39317 C 3744.19 -0.231402 1.8778 0
M  V30 39318 O 3743.53 -1.16593 1.41957 0
M  V30 39319 C 3743.59 1.85875 3.07718 0
M  V30 39320 C 3743.26 3.35188 3.10642 0
M  V30 39321 C 3744.25 4.31308 2.90292 0
M  V30 39322 C 3741.94 3.76501 3.32494 0
M  V30 39323 C 3743.93 5.66716 2.91739 0
M  V30 39324 C 3741.62 5.12028 3.33572 0
M  V30 39325 C 3742.62 6.06946 3.13218 0
M  V30 39326 O 3742.31 7.39999 3.14096 0
M  V30 39327 H 3742.04 0.419992 0.529701 0
M  V30 39328 H 3744.59 1.71876 1.12463 0
M  V30 39329 H 3742.82 1.29465 3.64384 0
M  V30 39330 H 3744.51 1.71193 3.68032 0
M  V30 39331 H 3745.28 4.00723 2.73214 0
M  V30 39332 H 3741.16 3.0307 3.47375 0
M  V30 39333 H 3744.7 6.40778 2.75771 0
M  V30 39334 H 3740.6 5.42256 3.50183 0
M  V30 39335 H 3741.36 7.48888 3.30317 0
M  V30 39336 N 3744.03 -1.10427 1.12443 0
M  V30 39337 C 3745.26 -1.85902 0.901323 0
M  V30 39338 C 3745.67 -1.80941 -0.552897 0
M  V30 39339 O 3745.01 -1.19636 -1.39402 0
M  V30 39340 C 3745.07 -3.35244 1.29814 0
M  V30 39341 C 3744.73 -3.63964 2.76368 0
M  V30 39342 C 3745.73 -3.60557 3.74559 0
M  V30 39343 C 3743.42 -3.92637 3.13275 0
M  V30 39344 C 3745.41 -3.85417 5.07673 0
M  V30 39345 C 3743.1 -4.17154 4.46571 0
M  V30 39346 C 3744.1 -4.13534 5.43579 0
M  V30 39347 O 3743.78 -4.37427 6.74472 0
M  V30 39348 H 3743.52 -0.594395 0.32198 0
M  V30 39349 H 3746.07 -1.40512 1.49819 0
M  V30 39350 H 3744.3 -3.81292 0.644483 0
M  V30 39351 H 3745.99 -3.92107 1.04915 0
M  V30 39352 H 3746.75 -3.38444 3.47391 0
M  V30 39353 H 3742.63 -3.94585 2.38377 0
M  V30 39354 H 3746.18 -3.82507 5.83381 0
M  V30 39355 H 3742.07 -4.38746 4.73468 0
M  V30 39356 H 3742.84 -4.54941 6.8042 0
M  V30 39357 N 3745.51 -0.916353 -1.28221 0
M  V30 39358 C 3746.73 -0.566182 -1.99522 0
M  V30 39359 C 3747.16 0.846004 -1.68001 0
M  V30 39360 O 3746.51 1.56583 -0.913866 0
M  V30 39361 C 3746.56 -0.785176 -3.51948 0
M  V30 39362 O 3745.67 0.154614 -4.1211 0
M  V30 39363 H 3745.01 -0.219243 -0.62676 0
M  V30 39364 H 3747.54 -1.2325 -1.63311 0
M  V30 39365 H 3747.55 -0.696295 -4.02015 0
M  V30 39366 H 3746.22 -1.81464 -3.74224 0
M  V30 39367 H 3744.8 0.0167807 -3.72896 0
M  V30 39368 N 3746.98 1.42146 -0.680615 0
M  V30 39369 C 3747.92 2.29176 0.0331039 0
M  V30 39370 C 3748.93 1.43991 0.759626 0
M  V30 39371 O 3750.12 1.67651 0.612817 0
M  V30 39372 C 3747.22 3.21542 1.07071 0
M  V30 39373 C 3746.39 4.35409 0.416837 0
M  V30 39374 C 3745.45 5.08454 1.35501 0
M  V30 39375 O 3744.48 5.62771 0.853099 0
M  V30 39376 N 3745.68 5.14513 2.68806 0
M  V30 39377 H 3748.44 2.9107 -0.714014 0
M  V30 39378 H 3746 1.53135 -0.525478 0
M  V30 39379 H 3748 3.67275 1.69973 0
M  V30 39380 H 3746.57 2.61059 1.71951 0
M  V30 39381 H 3745.79 3.92248 -0.391803 0
M  V30 39382 H 3747.07 5.08785 -0.0384459 0
M  V30 39383 H 3746.47 4.71805 3.12117 0
M  V30 39384 H 3745.03 5.63873 3.26941 0
M  V30 39385 N 3748.46 0.424336 1.5178 0
M  V30 39386 C 3749.71 -0.146674 2.02269 0
M  V30 39387 C 3750.04 -1.43488 1.30862 0
M  V30 39388 O 3749.32 -1.89921 0.419537 0
M  V30 39389 C 3749.6 -0.378798 3.58102 0
M  V30 39390 C 3749.45 0.927147 4.40141 0
M  V30 39391 C 3750.77 -1.15431 4.24693 0
M  V30 39392 H 3747.89 -0.0518327 0.735175 0
M  V30 39393 H 3750.53 0.560785 1.81536 0
M  V30 39394 H 3748.68 -0.98143 3.75899 0
M  V30 39395 H 3750.35 1.56276 4.34022 0
M  V30 39396 H 3748.6 1.53471 4.05745 0
M  V30 39397 H 3749.27 0.718933 5.47298 0
M  V30 39398 H 3751.74 -0.643968 4.11087 0
M  V30 39399 H 3750.62 -1.28548 5.33635 0
M  V30 39400 H 3750.88 -2.17899 3.84672 0
M  V30 39401 N 3749.94 -1.56833 0.15525 0
M  V30 39402 C 3750.87 -2.20185 -0.77722 0
M  V30 39403 C 3751.85 -1.15256 -1.251 0
M  V30 39404 O 3753.04 -1.43629 -1.30707 0
M  V30 39405 C 3750.17 -2.82996 -2.01321 0
M  V30 39406 C 3749.12 -3.93825 -1.6759 0
M  V30 39407 C 3748.45 -4.43609 -2.98521 0
M  V30 39408 C 3749.75 -5.14201 -0.916212 0
M  V30 39409 H 3751.44 -2.98361 -0.249205 0
M  V30 39410 H 3748.99 -1.43512 -0.118423 0
M  V30 39411 H 3750.94 -3.25985 -2.67043 0
M  V30 39412 H 3749.66 -2.02164 -2.56509 0
M  V30 39413 H 3748.32 -3.51467 -1.04244 0
M  V30 39414 H 3747.97 -3.59589 -3.51717 0
M  V30 39415 H 3747.67 -5.18367 -2.76711 0
M  V30 39416 H 3749.19 -4.89274 -3.65299 0
M  V30 39417 H 3750.61 -5.53983 -1.47568 0
M  V30 39418 H 3749 -5.94774 -0.797751 0
M  V30 39419 H 3750.07 -4.84816 0.0905203 0
M  V30 39420 N 3751.42 0.118521 -1.57154 0
M  V30 39421 C 3752.66 0.832109 -1.86696 0
M  V30 39422 C 3753.02 1.77028 -0.743298 0
M  V30 39423 O 3754.22 2.52547 -0.920501 0
M  V30 39424 C 3752.49 1.56188 -3.21465 0
M  V30 39425 S 3754.05 2.31698 -3.72641 0
M  V30 39426 H 3750.87 0.277711 -0.654521 0
M  V30 39427 H 3753.47 0.0904349 -1.95291 0
M  V30 39428 H 3752.18 0.864648 -4.01188 0
M  V30 39429 H 3751.71 2.34392 -3.15949 0
M  V30 39430 H 3753.72 3.57427 -3.44181 0
M  V30 39431 N 3752.9 1.52731 0.388715 0
M  V30 39432 C 3753.84 1.7753 1.47485 0
M  V30 39433 C 3754.81 0.618532 1.54154 0
M  V30 39434 O 3756 0.858281 1.70406 0
M  V30 39435 C 3753.14 1.95023 2.84711 0
M  V30 39436 C 3752.25 3.22715 2.87191 0
M  V30 39437 C 3751.39 3.30524 4.15845 0
M  V30 39438 C 3750.42 4.52339 4.12378 0
M  V30 39439 N 3749.56 4.57428 5.32639 0
M  V30 39440 H 3754.4 2.7022 1.25639 0
M  V30 39441 H 3751.94 1.33879 0.609495 0
M  V30 39442 H 3753.9 2.0315 3.64398 0
M  V30 39443 H 3752.53 1.05693 3.05006 0
M  V30 39444 H 3751.58 3.23659 1.99873 0
M  V30 39445 H 3752.89 4.12459 2.80497 0
M  V30 39446 H 3752.04 3.37836 5.03937 0
M  V30 39447 H 3750.78 2.38755 4.25261 0
M  V30 39448 H 3749.79 4.45153 3.22675 0
M  V30 39449 H 3751.01 5.45425 4.04584 0
M  V30 39450 H 3748.96 3.6855 5.42685 0
M  V30 39451 H 3748.88 5.41044 5.28022 0
M  V30 39452 H 3750.14 4.68994 6.22627 0
M  V30 39453 N 3754.37 -0.647178 1.43699 0
M  V30 39454 C 3755.6 -1.43955 1.49304 0
M  V30 39455 C 3756.02 -1.87754 0.113983 0
M  V30 39456 O 3755.38 -1.57751 -0.893543 0
M  V30 39457 C 3755.43 -2.64673 2.44909 0
M  V30 39458 O 3754.53 -3.63945 1.93953 0
M  V30 39459 H 3753.87 -0.431387 0.504779 0
M  V30 39460 H 3756.4 -0.791399 1.88674 0
M  V30 39461 H 3756.41 -3.12414 2.62414 0
M  V30 39462 H 3755.09 -2.32137 3.45087 0
M  V30 39463 H 3753.67 -3.23121 1.86138 0
M  V30 39464 N 3755.85 -1.3033 -0.886108 0
M  V30 39465 C 3757.1 -1.18454 -1.63253 0
M  V30 39466 C 3757.41 0.259982 -1.93865 0
M  V30 39467 O 3758.62 0.500241 -2.66852 0
M  V30 39468 C 3757.08 -2.07262 -2.94228 0
M  V30 39469 C 3756.68 -3.56617 -2.71161 0
M  V30 39470 C 3758.43 -2.04146 -3.72189 0
M  V30 39471 C 3756.34 -4.37485 -3.97946 0
M  V30 39472 H 3755.27 -0.43975 -0.612483 0
M  V30 39473 H 3757.92 -1.5507 -0.981102 0
M  V30 39474 H 3756.3 -1.63528 -3.60659 0
M  V30 39475 H 3757.47 -4.08492 -2.1324 0
M  V30 39476 H 3755.79 -3.61545 -2.06578 0
M  V30 39477 H 3758.38 -2.61817 -4.66215 0
M  V30 39478 H 3758.73 -1.02466 -4.03493 0
M  V30 39479 H 3759.26 -2.45995 -3.1262 0
M  V30 39480 H 3756 -5.39855 -3.71802 0
M  V30 39481 H 3755.52 -3.90374 -4.55377 0
M  V30 39482 H 3757.2 -4.4886 -4.65976 0
M  V30 39483 N 3757.33 1.0983 -1.13028 0
M  V30 39484 C 3758.26 2.18388 -0.826377 0
M  V30 39485 C 3759.24 1.68767 0.212499 0
M  V30 39486 O 3760.43 1.94065 0.0723288 0
M  V30 39487 C 3757.56 3.46112 -0.287052 0
M  V30 39488 C 3756.51 4.09042 -1.2597 0
M  V30 39489 C 3755.84 5.31541 -0.580324 0
M  V30 39490 C 3757.14 4.52025 -2.61669 0
M  V30 39491 H 3758.83 2.44067 -1.73412 0
M  V30 39492 H 3756.38 1.17303 -0.835221 0
M  V30 39493 H 3758.33 4.21354 -0.0621411 0
M  V30 39494 H 3757.05 3.19943 0.656064 0
M  V30 39495 H 3755.71 3.35814 -1.47053 0
M  V30 39496 H 3755.36 5.01651 0.368134 0
M  V30 39497 H 3755.06 5.74599 -1.2292 0
M  V30 39498 H 3756.58 6.0951 -0.364597 0
M  V30 39499 H 3758 5.18512 -2.44578 0
M  V30 39500 H 3756.4 5.05953 -3.22694 0
M  V30 39501 H 3757.47 3.64632 -3.19643 0
M  V30 39502 N 3758.81 0.92314 1.27734 0
M  V30 39503 C 3759.74 0.435947 2.29394 0
M  V30 39504 C 3760.72 -0.501374 1.62543 0
M  V30 39505 O 3761.9 -0.407102 1.89885 0
M  V30 39506 C 3759.03 -0.316288 3.45857 0
M  V30 39507 C 3757.99 0.532772 4.24671 0
M  V30 39508 C 3757.31 -0.34836 5.33564 0
M  V30 39509 C 3758.61 1.7949 4.9049 0
M  V30 39510 H 3760.31 1.28556 2.70396 0
M  V30 39511 H 3757.85 0.619604 1.29988 0
M  V30 39512 H 3759.81 -0.668025 4.16071 0
M  V30 39513 H 3758.53 -1.19988 3.0376 0
M  V30 39514 H 3757.19 0.867155 3.56197 0
M  V30 39515 H 3756.84 -1.23078 4.8771 0
M  V30 39516 H 3756.54 0.216207 5.87202 0
M  V30 39517 H 3758.06 -0.695771 6.06623 0
M  V30 39518 H 3759.48 1.5115 5.53016 0
M  V30 39519 H 3757.87 2.3026 5.54166 0
M  V30 39520 H 3758.94 2.51714 4.14449 0
M  V30 39521 N 3760.29 -1.41783 0.688143 0
M  V30 39522 C 3761.53 -2.01643 0.216299 0
M  V30 39523 C 3761.87 -1.54348 -1.17858 0
M  V30 39524 O 3761.14 -0.751424 -1.79399 0
M  V30 39525 C 3761.42 -3.59118 0.265726 0
M  V30 39526 C 3761.28 -4.16559 1.69701 0
M  V30 39527 C 3762.6 -4.38468 -0.378636 0
M  V30 39528 H 3759.71 -0.732637 0.0800711 0
M  V30 39529 H 3762.36 -1.68629 0.875458 0
M  V30 39530 H 3760.51 -3.87374 -0.29552 0
M  V30 39531 H 3762.18 -3.99206 2.31153 0
M  V30 39532 H 3760.42 -3.71882 2.23352 0
M  V30 39533 H 3761.09 -5.25712 1.68319 0
M  V30 39534 H 3763.57 -4.15982 0.0992701 0
M  V30 39535 H 3762.44 -5.48004 -0.313473 0
M  V30 39536 H 3762.71 -4.17358 -1.45825 0
M  V30 39537 N 3761.76 -0.432379 -1.51553 0
M  V30 39538 C 3763.04 0.195438 -1.94621 0
M  V30 39539 C 3763.42 1.60542 -1.37075 0
M  V30 39540 O 3762.77 2.21637 -0.55582 0
M  V30 39541 C 3762.98 0.178206 -3.48545 0
M  V30 39542 C 3764.33 0.386209 -4.2284 0
M  V30 39543 O 3765.35 0.256541 -3.55275 0
M  V30 39544 O 3764.21 0.643831 -5.42694 0
M  V30 39545 H 3761.3 0.132641 -0.816294 0
M  V30 39546 H 3763.85 -0.49 -1.62472 0
M  V30 39547 H 3762.62 -0.807726 -3.82873 0
M  V30 39548 H 3762.25 0.906764 -3.87122 0
M  V30 39549 N 3763.24 1.56749 -0.163565 0
M  V30 39550 C 3764.47 2.01454 0.493051 0
M  V30 39551 C 3764.89 1.04302 1.56533 0
M  V30 39552 O 3764.25 0.0213358 1.81287 0
M  V30 39553 C 3764.3 3.4481 1.0554 0
M  V30 39554 O 3763.4 3.5071 2.16971 0
M  V30 39555 H 3762.74 0.653269 0.118894 0
M  V30 39556 H 3765.27 2.02874 -0.265175 0
M  V30 39557 H 3765.28 3.83955 1.37995 0
M  V30 39558 H 3763.96 4.15021 0.27026 0
M  V30 39559 H 3762.54 3.23419 1.85619 0
M  V30 39560 N 3764.72 -0.110185 1.57214 0
M  V30 39561 C 3765.95 -0.834263 1.89881 0
M  V30 39562 C 3766.37 -1.72222 0.756377 0
M  V30 39563 O 3765.73 -1.78921 -0.292736 0
M  V30 39564 C 3765.78 -1.63623 3.21341 0
M  V30 39565 O 3764.88 -2.74393 3.07867 0
M  V30 39566 H 3764.22 -0.23016 0.622834 0
M  V30 39567 H 3766.75 -0.0899367 2.04402 0
M  V30 39568 H 3766.76 -2.02363 3.54279 0
M  V30 39569 H 3765.44 -0.98445 4.04081 0
M  V30 39570 H 3764.01 -2.38792 2.86414 0
M  V30 39571 N 3766.2 -1.52935 -0.38061 0
M  V30 39572 C 3767.13 -1.81282 -1.47171 0
M  V30 39573 C 3768.11 -0.665347 -1.56548 0
M  V30 39574 O 3769.29 -0.913752 -1.7136 0
M  V30 39575 C 3766.42 -1.98923 -2.84687 0
M  V30 39576 C 3765.38 -3.14642 -2.90145 0
M  V30 39577 C 3764.7 -3.17551 -4.30192 0
M  V30 39578 C 3766 -4.53543 -2.59029 0
M  V30 39579 H 3767.7 -2.72652 -1.23698 0
M  V30 39580 H 3765.24 -1.31195 -0.593631 0
M  V30 39581 H 3767.2 -2.17336 -3.6103 0
M  V30 39582 H 3765.92 -1.04249 -3.09515 0
M  V30 39583 H 3764.58 -2.96025 -2.16251 0
M  V30 39584 H 3764.23 -2.20544 -4.52072 0
M  V30 39585 H 3763.93 -3.95291 -4.34763 0
M  V30 39586 H 3765.45 -3.3813 -5.08429 0
M  V30 39587 H 3766.87 -4.72219 -3.25088 0
M  V30 39588 H 3765.26 -5.33413 -2.74937 0
M  V30 39589 H 3766.33 -4.59684 -1.54334 0
M  V30 39590 N 3767.68 0.639548 -1.4404 0
M  V30 39591 C 3768.92 1.40133 -1.46597 0
M  V30 39592 C 3769.26 1.93968 -0.0949987 0
M  V30 39593 O 3768.53 1.73139 0.88617 0
M  V30 39594 C 3768.81 2.57279 -2.51952 0
M  V30 39595 C 3768.67 2.08848 -3.98375 0
M  V30 39596 C 3769.99 3.59478 -2.53897 0
M  V30 39597 H 3767.1 0.508194 -0.533768 0
M  V30 39598 H 3769.75 0.723867 -1.75671 0
M  V30 39599 H 3767.9 3.15073 -2.27291 0
M  V30 39600 H 3769.57 1.55949 -4.3414 0
M  V30 39601 H 3767.81 1.40101 -4.10553 0
M  V30 39602 H 3768.48 2.93149 -4.67726 0
M  V30 39603 H 3770.96 3.11468 -2.75911 0
M  V30 39604 H 3769.83 4.38976 -3.29532 0
M  V30 39605 H 3770.1 4.12986 -1.57781 0
M  V30 39606 N 3769.15 1.30798 0.879184 0
M  V30 39607 C 3770.38 1.22894 1.66447 0
M  V30 39608 C 3770.8 -0.207273 1.87659 0
M  V30 39609 O 3770.15 -1.13617 1.4282 0
M  V30 39610 C 3770.21 1.95987 3.03762 0
M  V30 39611 O 3769.93 3.34002 2.83504 0
M  V30 39612 C 3771.43 1.94811 3.982 0
M  V30 39613 H 3768.65 0.42504 0.519213 0
M  V30 39614 H 3771.19 1.72521 1.09804 0
M  V30 39615 H 3769.35 1.50145 3.57121 0
M  V30 39616 H 3769.76 3.71098 3.70657 0
M  V30 39617 H 3771.23 2.50482 4.91897 0
M  V30 39618 H 3771.71 0.928412 4.29275 0
M  V30 39619 H 3772.32 2.40491 3.50776 0
M  V30 39620 N 3770.63 -1.09229 1.13608 0
M  V30 39621 C 3771.86 -1.85744 0.922699 0
M  V30 39622 C 3772.28 -1.80673 -0.523349 0
M  V30 39623 O 3771.64 -1.18568 -1.37154 0
M  V30 39624 C 3771.69 -3.31563 1.41768 0
M  V30 39625 O 3770.79 -4.07949 0.604252 0
M  V30 39626 H 3770.13 -0.575885 0.330533 0
M  V30 39627 H 3772.66 -1.37921 1.51126 0
M  V30 39628 H 3772.67 -3.82411 1.42219 0
M  V30 39629 H 3771.35 -3.3457 2.47054 0
M  V30 39630 H 3769.93 -3.66872 0.667785 0
M  V30 39631 N 3772.11 -0.929901 -1.27242 0
M  V30 39632 C 3773.36 -0.57234 -1.94556 0
M  V30 39633 C 3773.69 0.884511 -1.72887 0
M  V30 39634 O 3772.97 1.63127 -1.05923 0
M  V30 39635 C 3773.25 -0.901736 -3.48627 0
M  V30 39636 C 3773.1 -2.4125 -3.79629 0
M  V30 39637 C 3774.42 -0.40917 -4.38194 0
M  V30 39638 H 3771.54 -0.209409 -0.706624 0
M  V30 39639 H 3774.18 -1.16208 -1.50319 0
M  V30 39640 H 3772.33 -0.399859 -3.86437 0
M  V30 39641 H 3774 -2.98624 -3.51598 0
M  V30 39642 H 3772.25 -2.86076 -3.26103 0
M  V30 39643 H 3772.92 -2.5935 -4.8728 0
M  V30 39644 H 3775.39 -0.839327 -4.07547 0
M  V30 39645 H 3774.27 -0.668578 -5.44813 0
M  V30 39646 H 3774.53 0.690784 -4.3667 0
M  V30 39647 N 3773.59 1.41416 -0.695653 0
M  V30 39648 C 3774.84 2.0083 -0.226206 0
M  V30 39649 C 3775.16 1.55373 1.17831 0
M  V30 39650 O 3774.43 0.784394 1.79511 0
M  V30 39651 H 3773.01 0.742635 -0.0806402 0
M  V30 39652 H 3775.67 1.7304 -0.89683 0
M  V30 39653 H 3774.77 3.11147 -0.243698 0
M  V30 39654 N 3775.07 0.44041 1.51321 0
M  V30 39655 C 3776.34 -0.185114 1.94722 0
M  V30 39656 C 3776.72 -1.59813 1.37924 0
M  V30 39657 O 3776.07 -2.21339 0.567566 0
M  V30 39658 C 3776.28 -0.159719 3.48634 0
M  V30 39659 C 3777.63 -0.363779 4.23039 0
M  V30 39660 O 3778.65 -0.237697 3.55406 0
M  V30 39661 O 3777.51 -0.615042 5.43028 0
M  V30 39662 H 3774.61 -0.12831 0.816986 0
M  V30 39663 H 3777.15 0.49861 1.6221 0
M  V30 39664 H 3775.93 0.828019 3.82439 0
M  V30 39665 H 3775.55 -0.886222 3.87598 0
M  V30 39666 N 3776.55 -1.5666 0.171876 0
M  V30 39667 C 3777.77 -2.01713 -0.482361 0
M  V30 39668 C 3778.2 -1.05131 -1.55978 0
M  V30 39669 O 3777.55 -0.0309496 -1.81274 0
M  V30 39670 C 3777.6 -3.45364 -1.0371 0
M  V30 39671 O 3776.71 -3.51856 -2.15108 0
M  V30 39672 H 3776.05 -0.65389 -0.115428 0
M  V30 39673 H 3778.58 -2.02731 0.27593 0
M  V30 39674 H 3778.59 -3.84681 -1.35957 0
M  V30 39675 H 3777.26 -4.15158 -0.248247 0
M  V30 39676 H 3775.84 -3.24399 -1.83901 0
M  V30 39677 N 3778.02 0.101846 -1.57271 0
M  V30 39678 C 3779.25 0.824182 -1.90321 0
M  V30 39679 C 3779.67 1.71819 -0.7655 0
M  V30 39680 O 3779.03 1.79074 0.283244 0
M  V30 39681 C 3779.08 1.61917 -3.22204 0
M  V30 39682 O 3778.18 2.72757 -3.09318 0
M  V30 39683 H 3777.52 0.226853 -0.624046 0
M  V30 39684 H 3780.05 0.0790955 -2.04447 0
M  V30 39685 H 3780.06 2.00481 -3.55347 0
M  V30 39686 H 3778.74 0.963007 -4.04597 0
M  V30 39687 H 3777.32 2.37269 -2.87676 0
M  V30 39688 N 3779.5 1.53135 0.372494 0
M  V30 39689 C 3780.41 1.82033 1.47991 0
M  V30 39690 C 3781.43 0.708207 1.58935 0
M  V30 39691 O 3782.6 0.997542 1.7496 0
M  V30 39692 C 3779.67 1.99801 2.83338 0
M  V30 39693 C 3778.73 3.23707 2.81979 0
M  V30 39694 C 3777.96 3.40618 4.10871 0
M  V30 39695 O 3778.19 2.61973 5.06682 0
M  V30 39696 O 3777.12 4.33945 4.17104 0
M  V30 39697 H 3780.95 2.76102 1.26497 0
M  V30 39698 H 3778.53 1.38429 0.561933 0
M  V30 39699 H 3780.41 2.13099 3.63548 0
M  V30 39700 H 3779.09 1.08921 3.04824 0
M  V30 39701 H 3777.99 3.15838 2.00492 0
M  V30 39702 H 3779.33 4.14487 2.65446 0
M  V30 39703 N 3780.98 -0.6319 1.44377 0
M  V30 39704 C 3782.23 -1.38744 1.464 0
M  V30 39705 C 3782.54 -1.95343 0.100183 0
M  V30 39706 O 3783.75 -2.715 -0.00206136 0
M  V30 39707 C 3782.2 -2.51199 2.57735 0
M  V30 39708 C 3781.81 -2.01116 4.0032 0
M  V30 39709 C 3783.56 -3.28407 2.68977 0
M  V30 39710 C 3781.46 -3.10908 5.03081 0
M  V30 39711 H 3780.39 -0.521387 0.544676 0
M  V30 39712 H 3783.04 -0.679882 1.7044 0
M  V30 39713 H 3781.43 -3.24526 2.26934 0
M  V30 39714 H 3782.6 -1.34659 4.40685 0
M  V30 39715 H 3780.91 -1.36725 3.93313 0
M  V30 39716 H 3783.51 -4.10253 3.42923 0
M  V30 39717 H 3783.85 -3.77838 1.74769 0
M  V30 39718 H 3784.39 -2.6217 2.99185 0
M  V30 39719 H 3781.13 -2.66422 5.98915 0
M  V30 39720 H 3780.65 -3.76009 4.67309 0
M  V30 39721 H 3782.33 -3.75696 5.26746 0
M  V30 39722 N 3782.46 -1.31262 -0.872235 0
M  V30 39723 C 3783.42 -1.18684 -1.96079 0
M  V30 39724 C 3784.42 -0.114549 -1.60391 0
M  V30 39725 O 3785.61 -0.363643 -1.70362 0
M  V30 39726 C 3782.74 -0.821241 -3.3086 0
M  V30 39727 H 3783.94 -2.15406 -2.08663 0
M  V30 39728 H 3781.49 -1.14841 -1.06024 0
M  V30 39729 H 3782.22 0.144923 -3.23976 0
M  V30 39730 H 3782.01 -1.59631 -3.58134 0
M  V30 39731 H 3783.5 -0.757063 -4.1068 0
M  V30 39732 N 3783.94 1.08625 -1.14186 0
M  V30 39733 C 3785.16 1.84713 -0.932136 0
M  V30 39734 C 3785.58 1.81518 0.519303 0
M  V30 39735 O 3784.94 1.21724 1.35976 0
M  V30 39736 C 3784.99 3.32348 -1.42223 0
M  V30 39737 O 3784.71 3.35542 -2.8168 0
M  V30 39738 C 3786.21 4.25249 -1.25213 0
M  V30 39739 H 3783.43 0.583187 -0.331864 0
M  V30 39740 H 3785.97 1.37202 -1.51644 0
M  V30 39741 H 3784.13 3.77255 -0.880746 0
M  V30 39742 H 3784.54 4.27684 -3.03622 0
M  V30 39743 H 3786.02 5.2696 -1.64368 0
M  V30 39744 H 3786.49 4.38768 -0.194736 0
M  V30 39745 H 3787.1 3.86165 -1.78204 0
M  V30 39746 N 3785.41 0.936635 1.26747 0
M  V30 39747 C 3786.36 0.441347 2.26541 0
M  V30 39748 C 3787.33 -0.496553 1.58504 0
M  V30 39749 O 3788.52 -0.413757 1.8626 0
M  V30 39750 C 3785.66 -0.291573 3.43866 0
M  V30 39751 C 3784.77 0.681472 4.26591 0
M  V30 39752 C 3783.9 -0.0721893 5.31151 0
M  V30 39753 C 3782.94 0.892976 6.05551 0
M  V30 39754 N 3782.08 0.171364 7.01891 0
M  V30 39755 H 3786.92 1.2973 2.6828 0
M  V30 39756 H 3784.46 0.650951 1.31913 0
M  V30 39757 H 3786.42 -0.732911 4.10712 0
M  V30 39758 H 3785.05 -1.11169 3.03053 0
M  V30 39759 H 3784.1 1.24133 3.59576 0
M  V30 39760 H 3785.41 1.41873 4.78198 0
M  V30 39761 H 3784.56 -0.573024 6.03988 0
M  V30 39762 H 3783.3 -0.842354 4.8037 0
M  V30 39763 H 3782.31 1.40498 5.31545 0
M  V30 39764 H 3783.53 1.66307 6.58421 0
M  V30 39765 H 3781.48 -0.580392 6.53427 0
M  V30 39766 H 3781.4 0.848029 7.51229 0
M  V30 39767 H 3782.66 -0.308526 7.78889 0
M  V30 39768 N 3786.89 -1.41045 0.703143 0
M  V30 39769 C 3787.83 -2.28199 -0.00806444 0
M  V30 39770 C 3788.8 -1.42653 -0.780308 0
M  V30 39771 O 3789.99 -1.72076 -0.769547 0
M  V30 39772 C 3787.11 -3.23014 -1.01882 0
M  V30 39773 C 3786.16 -4.25152 -0.338855 0
M  V30 39774 S 3786.99 -5.27463 0.924259 0
M  V30 39775 C 3788.15 -6.25843 -0.0847064 0
M  V30 39776 H 3788.38 -2.8817 0.731112 0
M  V30 39777 H 3785.92 -1.46294 0.493695 0
M  V30 39778 H 3787.87 -3.7817 -1.5968 0
M  V30 39779 H 3786.53 -2.62123 -1.73062 0
M  V30 39780 H 3785.73 -4.91794 -1.1025 0
M  V30 39781 H 3785.33 -3.7363 0.166248 0
M  V30 39782 H 3787.62 -6.71009 -0.935568 0
M  V30 39783 H 3788.56 -7.05976 0.547989 0
M  V30 39784 H 3788.97 -5.6276 -0.442869 0
M  V30 39785 N 3788.37 -0.448429 -1.51086 0
M  V30 39786 C 3789.62 0.114306 -2.02177 0
M  V30 39787 C 3789.95 1.4174 -1.33192 0
M  V30 39788 O 3789.2 1.90709 -0.439134 0
M  V30 39789 C 3789.5 0.369169 -3.55488 0
M  V30 39790 C 3789.17 -0.84945 -4.42826 0
M  V30 39791 C 3787.83 -1.18362 -4.66416 0
M  V30 39792 C 3790.18 -1.66188 -4.93995 0
M  V30 39793 C 3787.51 -2.33069 -5.3842 0
M  V30 39794 C 3789.86 -2.80004 -5.67257 0
M  V30 39795 C 3788.52 -3.13861 -5.89107 0
M  V30 39796 H 3787.79 0.0418277 -0.739819 0
M  V30 39797 H 3790.44 -0.597889 -1.81927 0
M  V30 39798 H 3788.75 1.16338 -3.74129 0
M  V30 39799 H 3790.44 0.818179 -3.92564 0
M  V30 39800 H 3787.03 -0.579073 -4.2467 0
M  V30 39801 H 3791.22 -1.41691 -4.75644 0
M  V30 39802 H 3786.47 -2.59602 -5.53549 0
M  V30 39803 H 3790.65 -3.43318 -6.05893 0
M  V30 39804 H 3788.27 -4.02856 -6.44679 0
M  V30 39805 N 3789.85 1.56567 -0.180181 0
M  V30 39806 C 3791.13 1.88853 0.509314 0
M  V30 39807 C 3791.51 1.09145 1.80695 0
M  V30 39808 O 3790.85 0.188014 2.27725 0
M  V30 39809 C 3791.06 3.41008 0.742609 0
M  V30 39810 C 3792.41 4.10932 1.06866 0
M  V30 39811 O 3793.44 3.46375 0.830846 0
M  V30 39812 O 3792.29 5.25002 1.51775 0
M  V30 39813 H 3789.39 0.78386 0.263615 0
M  V30 39814 H 3791.93 1.68277 -0.21928 0
M  V30 39815 H 3790.71 3.90911 -0.174379 0
M  V30 39816 H 3790.33 3.67225 1.5242 0
M  V30 39817 N 3791.33 -0.0935042 1.57322 0
M  V30 39818 C 3792.55 -0.814077 1.90755 0
M  V30 39819 C 3792.98 -1.7141 0.774601 0
M  V30 39820 O 3792.33 -1.79221 -0.273743 0
M  V30 39821 C 3792.38 -1.60206 3.23058 0
M  V30 39822 O 3791.49 -2.71112 3.1076 0
M  V30 39823 H 3790.83 -0.223541 0.62524 0
M  V30 39824 H 3793.36 -0.068252 2.04486 0
M  V30 39825 H 3793.37 -1.98594 3.56405 0
M  V30 39826 H 3792.04 -0.941536 4.05102 0
M  V30 39827 H 3790.62 -2.3574 2.88931 0
M  V30 39828 N 3792.8 -1.5333 -0.364368 0
M  V30 39829 C 3794.05 -1.69571 -1.10688 0
M  V30 39830 C 3794.38 -0.448126 -1.89267 0
M  V30 39831 O 3793.63 0.569937 -1.87217 0
M  V30 39832 C 3793.93 -2.89774 -2.09203 0
M  V30 39833 C 3793.6 -4.26232 -1.47095 0
M  V30 39834 C 3792.26 -4.63339 -1.29885 0
M  V30 39835 C 3794.61 -5.11088 -1.02171 0
M  V30 39836 C 3791.94 -5.82938 -0.66336 0
M  V30 39837 C 3794.29 -6.31333 -0.400223 0
M  V30 39838 C 3792.96 -6.67152 -0.215623 0
M  V30 39839 H 3792.23 -0.620505 -0.405037 0
M  V30 39840 H 3794.87 -1.87517 -0.388535 0
M  V30 39841 H 3793.18 -2.66345 -2.87346 0
M  V30 39842 H 3794.88 -2.99534 -2.6661 0
M  V30 39843 H 3791.47 -3.97015 -1.61484 0
M  V30 39844 H 3795.65 -4.82968 -1.14261 0
M  V30 39845 H 3790.91 -6.0928 -0.50876 0
M  V30 39846 H 3795.08 -6.96386 -0.043933 0
M  V30 39847 H 3792.71 -7.59688 0.278865 0
M  V30 39848 N 3794.28 0.624234 -1.4471 0
M  V30 39849 C 3795.53 1.3857 -1.48075 0
M  V30 39850 C 3795.86 1.93856 -0.115566 0
M  V30 39851 O 3795.14 1.7407 0.867757 0
M  V30 39852 C 3795.42 2.54592 -2.54666 0
M  V30 39853 C 3795.27 2.04611 -4.00568 0
M  V30 39854 C 3796.59 3.56765 -2.57695 0
M  V30 39855 H 3793.71 0.502504 -0.539128 0
M  V30 39856 H 3796.35 0.705194 -1.76428 0
M  V30 39857 H 3794.5 3.12645 -2.3062 0
M  V30 39858 H 3796.17 1.51335 -4.3577 0
M  V30 39859 H 3794.42 1.35739 -4.12016 0
M  V30 39860 H 3795.09 2.88171 -4.70809 0
M  V30 39861 H 3797.56 3.08524 -2.79199 0
M  V30 39862 H 3796.44 4.35456 -3.34169 0
M  V30 39863 H 3796.7 4.11289 -1.62153 0
M  V30 39864 N 3795.76 1.31723 0.865262 0
M  V30 39865 C 3796.71 1.19708 1.99431 0
M  V30 39866 C 3797.7 0.104285 1.69079 0
M  V30 39867 O 3798.91 0.266497 1.78016 0
M  V30 39868 H 3795.28 0.370779 0.654238 0
M  V30 39869 H 3797.25 2.1522 2.06695 0
M  V30 39870 C 3796 0.926086 3.3514 0
M  V30 39871 H 3795.33 1.75913 3.59019 0
M  V30 39872 H 3796.77 0.882213 4.1472 0
M  V30 39873 C 3795.23 -0.371181 3.34849 0
M  V30 39874 O 3795.76 -1.38647 3.77014 0
M  V30 39875 N 3793.96 -0.389391 2.87979 0
M  V30 39876 H 3793.51 0.437338 2.5386 0
M  V30 39877 H 3793.47 -1.25726 2.88167 0
M  V30 39878 N 3797.24 -1.08018 1.14761 0
M  V30 39879 C 3798.46 -1.84755 0.942348 0
M  V30 39880 C 3798.89 -1.81218 -0.504157 0
M  V30 39881 O 3798.25 -1.20016 -1.35889 0
M  V30 39882 C 3798.29 -3.30041 1.45277 0
M  V30 39883 O 3797.4 -4.07285 0.647486 0
M  V30 39884 H 3796.74 -0.572347 0.336623 0
M  V30 39885 H 3799.27 -1.3631 1.5258 0
M  V30 39886 H 3799.28 -3.80881 1.46267 0
M  V30 39887 H 3797.95 -3.31931 2.50589 0
M  V30 39888 H 3796.53 -3.66143 0.706659 0
M  V30 39889 N 3798.72 -0.943344 -1.26249 0
M  V30 39890 C 3799.96 -0.592066 -1.93651 0
M  V30 39891 C 3800.29 0.869203 -1.73997 0
M  V30 39892 O 3799.55 1.63748 -1.07168 0
M  V30 39893 C 3799.85 -0.883228 -3.46315 0
M  V30 39894 C 3799.51 -2.32872 -3.8611 0
M  V30 39895 C 3798.17 -2.72386 -3.96685 0
M  V30 39896 C 3800.53 -3.26799 -4.06019 0
M  V30 39897 C 3797.85 -4.04918 -4.24568 0
M  V30 39898 C 3800.21 -4.58931 -4.35391 0
M  V30 39899 C 3798.87 -4.98256 -4.44181 0
M  V30 39900 H 3798.14 -0.216652 -0.70862 0
M  V30 39901 H 3800.79 -1.19026 -1.50017 0
M  V30 39902 H 3799.09 -0.202521 -3.91276 0
M  V30 39903 H 3800.79 -0.590177 -3.96633 0
M  V30 39904 H 3797.38 -2.01223 -3.78427 0
M  V30 39905 H 3801.56 -2.97467 -3.97275 0
M  V30 39906 H 3796.82 -4.35047 -4.29586 0
M  V30 39907 H 3800.99 -5.317 -4.49742 0
M  V30 39908 H 3798.62 -6.00979 -4.65541 0
M  V30 39909 N 3800.2 1.4067 -0.710613 0
M  V30 39910 C 3801.44 2.01274 -0.248351 0
M  V30 39911 C 3801.77 1.56203 1.15387 0
M  V30 39912 O 3801.05 0.779869 1.7818 0
M  V30 39913 C 3801.33 3.5865 -0.322825 0
M  V30 39914 C 3801.19 4.13807 -1.76307 0
M  V30 39915 C 3802.5 4.39015 0.308831 0
M  V30 39916 H 3799.62 0.731271 -0.0917166 0
M  V30 39917 H 3802.27 1.67215 -0.902174 0
M  V30 39918 H 3800.42 3.87796 0.233855 0
M  V30 39919 H 3802.09 3.95478 -2.37475 0
M  V30 39920 H 3800.33 3.68282 -2.2924 0
M  V30 39921 H 3801 5.22967 -1.76661 0
M  V30 39922 H 3803.48 4.15771 -0.165437 0
M  V30 39923 H 3802.35 5.48434 0.226251 0
M  V30 39924 H 3802.61 4.19625 1.39167 0
M  V30 39925 N 3801.67 0.456435 1.50846 0
M  V30 39926 C 3802.9 -0.104018 2.07139 0
M  V30 39927 C 3803.32 -1.34037 1.31968 0
M  V30 39928 O 3802.68 -1.77627 0.363069 0
M  V30 39929 C 3802.73 -0.385731 3.58531 0
M  V30 39930 O 3801.83 -1.46888 3.85354 0
M  V30 39931 H 3801.17 0.00652413 0.663968 0
M  V30 39932 H 3803.7 0.643265 1.94225 0
M  V30 39933 H 3803.71 -0.630574 4.03098 0
M  V30 39934 H 3802.39 0.517803 4.12664 0
M  V30 39935 H 3800.97 -1.2125 3.52637 0
M  V30 39936 N 3803.15 -1.56469 0.188482 0
M  V30 39937 C 3804.08 -2.21784 -0.73034 0
M  V30 39938 C 3805.06 -1.17884 -1.22627 0
M  V30 39939 O 3806.25 -1.46369 -1.27631 0
M  V30 39940 C 3803.38 -2.87203 -1.95273 0
M  V30 39941 C 3802.33 -3.97291 -1.59198 0
M  V30 39942 C 3801.66 -4.49842 -2.89044 0
M  V30 39943 C 3802.96 -5.16029 -0.806936 0
M  V30 39944 H 3804.65 -2.98823 -0.185862 0
M  V30 39945 H 3802.2 -1.43731 -0.0879552 0
M  V30 39946 H 3804.15 -3.31576 -2.60068 0
M  V30 39947 H 3802.87 -2.0756 -2.52163 0
M  V30 39948 H 3801.53 -3.53599 -0.967651 0
M  V30 39949 H 3801.18 -3.66969 -3.4401 0
M  V30 39950 H 3800.88 -5.2412 -2.65654 0
M  V30 39951 H 3802.41 -4.96912 -3.54839 0
M  V30 39952 H 3803.82 -5.56988 -1.35784 0
M  V30 39953 H 3802.22 -5.96332 -0.671412 0
M  V30 39954 H 3803.29 -4.84514 0.193336 0
M  V30 39955 N 3804.63 0.0851597 -1.5737 0
M  V30 39956 C 3805.86 0.798943 -1.90527 0
M  V30 39957 C 3806.27 1.72311 -0.781377 0
M  V30 39958 O 3805.61 1.81921 0.255004 0
M  V30 39959 C 3805.67 1.6571 -3.1903 0
M  V30 39960 C 3805.34 0.903716 -4.47975 0
M  V30 39961 C 3806.33 0.229003 -5.19395 0
M  V30 39962 C 3804.02 0.87485 -4.94623 0
M  V30 39963 C 3806.01 -0.464497 -6.35705 0
M  V30 39964 C 3803.7 0.177571 -6.10842 0
M  V30 39965 C 3804.7 -0.490915 -6.81233 0
M  V30 39966 O 3804.39 -1.17699 -7.95237 0
M  V30 39967 H 3804.12 0.233108 -0.634537 0
M  V30 39968 H 3806.67 0.0637905 -2.05301 0
M  V30 39969 H 3804.9 2.43473 -3.00429 0
M  V30 39970 H 3806.59 2.24835 -3.37941 0
M  V30 39971 H 3807.36 0.242698 -4.84392 0
M  V30 39972 H 3803.24 1.38462 -4.39715 0
M  V30 39973 H 3806.78 -0.98684 -6.90585 0
M  V30 39974 H 3802.68 0.161756 -6.45297 0
M  V30 39975 H 3803.44 -1.0849 -8.11278 0
M  V30 39976 N 3806.11 1.53521 0.356231 0
M  V30 39977 C 3807.06 1.81301 1.45715 0
M  V30 39978 C 3808.05 0.68268 1.55035 0
M  V30 39979 O 3809.26 0.865794 1.5781 0
M  V30 39980 H 3805.63 0.574189 0.485604 0
M  V30 39981 H 3807.6 2.7343 1.19494 0
M  V30 39982 C 3806.35 2.02815 2.82421 0
M  V30 39983 H 3805.67 2.89237 2.76011 0
M  V30 39984 H 3807.11 2.26225 3.58606 0
M  V30 39985 C 3805.57 0.80995 3.27019 0
M  V30 39986 O 3806.1 0.00317729 4.017 0
M  V30 39987 N 3804.31 0.630746 2.83672 0
M  V30 39988 H 3803.86 1.28843 2.23063 0
M  V30 39989 H 3803.81 -0.182906 3.13868 0
M  V30 39990 N 3807.59 -0.616551 1.45039 0
M  V30 39991 C 3808.83 -1.37783 1.48808 0
M  V30 39992 C 3809.16 -1.93792 0.125845 0
M  V30 39993 O 3808.44 -1.74527 -0.858513 0
M  V30 39994 C 3808.72 -2.53238 2.56013 0
M  V30 39995 C 3808.58 -2.02484 4.01647 0
M  V30 39996 C 3809.89 -3.55393 2.59584 0
M  V30 39997 H 3807.01 -0.499638 0.541785 0
M  V30 39998 H 3809.66 -0.695828 1.768 0
M  V30 39999 H 3807.81 -3.11418 2.32274 0
M  V30 40000 H 3809.48 -1.49022 4.36566 0
M  V30 40001 H 3807.72 -1.33552 4.1273 0
M  V30 40002 H 3808.39 -2.85671 4.72331 0
M  V30 40003 H 3810.87 -3.07039 2.80831 0
M  V30 40004 H 3809.74 -4.33678 3.36474 0
M  V30 40005 H 3810 -4.10424 1.64332 0
M  V30 40006 N 3809.06 -1.3218 -0.858264 0
M  V30 40007 C 3810.29 -1.25526 -1.64471 0
M  V30 40008 C 3810.71 0.177392 -1.87965 0
M  V30 40009 O 3810.06 1.1133 -1.44609 0
M  V30 40010 C 3810.11 -2.00795 -3.00605 0
M  V30 40011 O 3809.84 -3.3847 -2.78154 0
M  V30 40012 C 3811.34 -2.01122 -3.95051 0
M  V30 40013 H 3808.56 -0.433246 -0.512385 0
M  V30 40014 H 3811.1 -1.74246 -1.07045 0
M  V30 40015 H 3809.26 -1.55807 -3.54687 0
M  V30 40016 H 3809.67 -3.76948 -3.64706 0
M  V30 40017 H 3811.14 -2.58276 -4.8785 0
M  V30 40018 H 3811.62 -0.996588 -4.27744 0
M  V30 40019 H 3812.23 -2.46041 -3.46906 0
M  V30 40020 N 3810.54 1.07407 -1.15332 0
M  V30 40021 C 3811.96 1.32087 -0.89584 0
M  V30 40022 C 3812.16 1.96238 0.457491 0
M  V30 40023 O 3811.21 2.22187 1.19954 0
M  V30 40024 C 3812.53 2.21253 -2.03636 0
M  V30 40025 C 3814.07 2.34703 -2.07083 0
M  V30 40026 C 3814.55 3.27218 -3.20457 0
M  V30 40027 N 3816.04 3.34798 -3.20101 0
M  V30 40028 C 3816.78 4.06442 -4.04465 0
M  V30 40029 N 3816.27 4.80707 -4.98892 0
M  V30 40030 N 3818.06 4.02378 -3.9249 0
M  V30 40031 H 3810.22 0.641542 -2.0248 0
M  V30 40032 H 3812.48 0.345317 -0.88287 0
M  V30 40033 H 3812.18 1.81375 -3.01324 0
M  V30 40034 H 3812.06 3.21777 -1.96823 0
M  V30 40035 H 3814.45 2.73834 -1.09996 0
M  V30 40036 H 3814.53 1.33886 -2.17964 0
M  V30 40037 H 3814.17 2.88806 -4.17796 0
M  V30 40038 H 3814.1 4.27988 -3.06813 0
M  V30 40039 H 3816.59 2.81863 -2.51717 0
M  V30 40040 H 3816.9 5.32867 -5.59708 0
M  V30 40041 H 3815.25 4.79725 -5.02881 0
M  V30 40042 H 3818.44 3.43472 -3.18032 0
M  V30 40043 H 3818.61 4.57948 -4.58463 0
M  V30 40044 N 3812.02 0.950026 1.25747 0
M  V30 40045 C 3813.3 0.519872 1.88565 0
M  V30 40046 C 3813.68 -1.00276 1.85763 0
M  V30 40047 O 3813.02 -1.86657 1.318 0
M  V30 40048 C 3813.23 1.09126 3.315 0
M  V30 40049 C 3814.58 1.16531 4.08296 0
M  V30 40050 O 3815.61 1.04248 3.40603 0
M  V30 40051 O 3814.47 1.35744 5.29373 0
M  V30 40052 H 3811.56 0.170791 0.809172 0
M  V30 40053 H 3814.11 1.04316 1.33852 0
M  V30 40054 H 3812.88 2.13464 3.27946 0
M  V30 40055 H 3812.5 0.55095 3.93764 0
M  V30 40056 N 3813.5 -1.40291 0.718063 0
M  V30 40057 C 3814.44 -2.30702 0.0670901 0
M  V30 40058 C 3815.41 -1.4832 -0.74769 0
M  V30 40059 O 3816.6 -1.77052 -0.71113 0
M  V30 40060 C 3813.74 -3.34548 -0.846859 0
M  V30 40061 C 3812.85 -4.31995 -0.0212863 0
M  V30 40062 C 3811.99 -5.22908 -0.934943 0
M  V30 40063 C 3811.03 -6.12012 -0.103608 0
M  V30 40064 N 3810.16 -6.95335 -0.972275 0
M  V30 40065 H 3815 -2.85805 0.843775 0
M  V30 40066 H 3812.54 -1.40742 0.42778 0
M  V30 40067 H 3814.5 -3.93327 -1.39102 0
M  V30 40068 H 3813.13 -2.80942 -1.5897 0
M  V30 40069 H 3812.18 -3.74976 0.640092 0
M  V30 40070 H 3813.49 -4.94904 0.622237 0
M  V30 40071 H 3812.65 -5.86631 -1.54755 0
M  V30 40072 H 3811.39 -4.60279 -1.61228 0
M  V30 40073 H 3810.39 -5.47317 0.521922 0
M  V30 40074 H 3811.62 -6.76701 0.570265 0
M  V30 40075 H 3809.56 -6.35293 -1.63522 0
M  V30 40076 H 3809.48 -7.5502 -0.384845 0
M  V30 40077 H 3810.75 -7.63505 -1.57099 0
M  V30 40078 N 3814.98 -0.464428 -1.50602 0
M  V30 40079 C 3815.91 0.323223 -2.31252 0
M  V30 40080 C 3816.89 0.996452 -1.37858 0
M  V30 40081 O 3818.07 0.994904 -1.66779 0
M  V30 40082 C 3815.2 1.4094 -3.17417 0
M  V30 40083 C 3814.16 0.858152 -4.19309 0
M  V30 40084 C 3813.48 2.04212 -4.94168 0
M  V30 40085 C 3814.78 -0.126013 -5.22148 0
M  V30 40086 H 3816.48 -0.349883 -2.97349 0
M  V30 40087 H 3814.02 -0.16971 -1.42996 0
M  V30 40088 H 3815.98 1.96785 -3.72631 0
M  V30 40089 H 3814.7 2.11118 -2.49192 0
M  V30 40090 H 3813.36 0.321721 -3.65186 0
M  V30 40091 H 3813.01 2.73072 -4.22422 0
M  V30 40092 H 3812.71 1.67953 -5.63086 0
M  V30 40093 H 3814.23 2.6056 -5.52215 0
M  V30 40094 H 3815.64 0.343036 -5.72273 0
M  V30 40095 H 3814.04 -0.402538 -5.98748 0
M  V30 40096 H 3815.11 -1.05407 -4.73305 0
M  V30 40097 N 3816.45 1.56367 -0.196777 0
M  V30 40098 C 3817.36 2.22778 0.735333 0
M  V30 40099 C 3818.38 1.22739 1.23334 0
M  V30 40100 O 3819.56 1.55481 1.28014 0
M  V30 40101 C 3816.62 2.87543 1.937 0
M  V30 40102 C 3815.68 4.02857 1.48341 0
M  V30 40103 C 3814.92 4.64524 2.6278 0
M  V30 40104 O 3815.14 4.25118 3.80304 0
M  V30 40105 O 3814.07 5.5396 2.35397 0
M  V30 40106 H 3817.9 3.03042 0.199735 0
M  V30 40107 H 3815.48 1.49364 0.0325887 0
M  V30 40108 H 3817.37 3.28511 2.63928 0
M  V30 40109 H 3816.04 2.10257 2.46118 0
M  V30 40110 H 3814.95 3.66507 0.749874 0
M  V30 40111 H 3816.28 4.81812 1.00588 0
M  V30 40112 N 3817.93 -0.0768128 1.57413 0
M  V30 40113 C 3818.88 -1.09182 2.03342 0
M  V30 40114 C 3819.85 -1.38751 0.913097 0
M  V30 40115 O 3821.03 -1.49903 1.18041 0
M  V30 40116 C 3818.17 -2.40176 2.47809 0
M  V30 40117 C 3817.29 -2.17181 3.73439 0
M  V30 40118 C 3816.42 -3.41704 4.06709 0
M  V30 40119 C 3815.46 -3.14051 5.25394 0
M  V30 40120 N 3814.6 -4.3089 5.54327 0
M  V30 40121 H 3819.44 -0.693172 2.89826 0
M  V30 40122 H 3816.98 -0.33071 1.43334 0
M  V30 40123 H 3818.93 -3.1665 2.71641 0
M  V30 40124 H 3817.56 -2.77853 1.64309 0
M  V30 40125 H 3816.62 -1.31424 3.56976 0
M  V30 40126 H 3817.93 -1.92752 4.60052 0
M  V30 40127 H 3817.08 -4.26575 4.31414 0
M  V30 40128 H 3815.82 -3.69204 3.18652 0
M  V30 40129 H 3814.83 -2.27574 5.0049 0
M  V30 40130 H 3816.05 -2.87878 6.15064 0
M  V30 40131 H 3814 -4.58432 4.6923 0
M  V30 40132 H 3813.91 -4.09716 6.35349 0
M  V30 40133 H 3815.18 -5.16773 5.8358 0
M  V30 40134 N 3819.41 -1.53708 -0.348084 0
M  V30 40135 C 3820.34 -1.84363 -1.43292 0
M  V30 40136 C 3821.32 -0.698403 -1.55101 0
M  V30 40137 O 3822.51 -0.949894 -1.69383 0
M  V30 40138 C 3819.64 -2.04917 -2.80404 0
M  V30 40139 C 3818.59 -3.20726 -2.83406 0
M  V30 40140 C 3817.92 -3.26605 -4.2336 0
M  V30 40141 C 3819.22 -4.58936 -2.4935 0
M  V30 40142 H 3820.91 -2.75214 -1.17887 0
M  V30 40143 H 3818.46 -1.32424 -0.565669 0
M  V30 40144 H 3820.41 -2.24946 -3.56339 0
M  V30 40145 H 3819.13 -1.10791 -3.07234 0
M  V30 40146 H 3817.79 -3.00546 -2.09924 0
M  V30 40147 H 3817.44 -2.30083 -4.47293 0
M  V30 40148 H 3817.14 -4.04424 -4.2628 0
M  V30 40149 H 3818.66 -3.48838 -5.01143 0
M  V30 40150 H 3820.08 -4.79009 -3.14998 0
M  V30 40151 H 3818.48 -5.39125 -2.63561 0
M  V30 40152 H 3819.55 -4.62854 -1.44549 0
M  V30 40153 N 3820.89 0.608851 -1.45364 0
M  V30 40154 C 3822.14 1.36397 -1.48589 0
M  V30 40155 C 3822.45 1.95159 -0.131248 0
M  V30 40156 O 3823.66 2.71469 -0.0411322 0
M  V30 40157 C 3822.11 2.47066 -2.61699 0
M  V30 40158 C 3821.72 1.94722 -4.03469 0
M  V30 40159 C 3823.46 3.24087 -2.74168 0
M  V30 40160 C 3821.37 3.02865 -5.07963 0
M  V30 40161 H 3820.3 0.512655 -0.552902 0
M  V30 40162 H 3822.95 0.65268 -1.715 0
M  V30 40163 H 3821.33 3.20875 -2.32068 0
M  V30 40164 H 3822.51 1.27631 -4.42772 0
M  V30 40165 H 3820.82 1.3045 -3.95439 0
M  V30 40166 H 3823.42 4.04746 -3.49407 0
M  V30 40167 H 3823.76 3.7501 -1.80758 0
M  V30 40168 H 3824.3 2.57377 -3.03318 0
M  V30 40169 H 3821.04 2.5686 -6.03078 0
M  V30 40170 H 3820.56 3.68527 -4.73231 0
M  V30 40171 H 3822.23 3.67268 -5.32657 0
M  V30 40172 N 3822.37 1.32633 0.851242 0
M  V30 40173 C 3823.59 1.26538 1.64326 0
M  V30 40174 C 3824.02 -0.163053 1.87392 0
M  V30 40175 O 3823.37 -1.11558 1.42915 0
M  V30 40176 C 3823.42 2.03374 2.97777 0
M  V30 40177 O 3822.53 1.38388 3.88488 0
M  V30 40178 H 3821.87 0.435935 0.500856 0
M  V30 40179 H 3824.4 1.75003 1.05997 0
M  V30 40180 H 3824.41 2.13676 3.47572 0
M  V30 40181 H 3823.08 3.07244 2.8031 0
M  V30 40182 H 3821.66 1.36655 3.46958 0
M  V30 40183 N 3823.84 -1.06794 1.159 0
M  V30 40184 C 3825.07 -1.83206 0.961405 0
M  V30 40185 C 3825.49 -1.82321 -0.49036 0
M  V30 40186 O 3824.84 -1.23872 -1.34022 0
M  V30 40187 C 3824.9 -3.30043 1.47492 0
M  V30 40188 O 3824.62 -3.31018 2.86982 0
M  V30 40189 C 3826.12 -4.23203 1.31962 0
M  V30 40190 H 3823.34 -0.577834 0.3411 0
M  V30 40191 H 3825.88 -1.34772 1.53807 0
M  V30 40192 H 3824.04 -3.75806 0.940652 0
M  V30 40193 H 3824.45 -4.228 3.10388 0
M  V30 40194 H 3825.92 -5.24279 1.7273 0
M  V30 40195 H 3826.4 -4.38403 0.264516 0
M  V30 40196 H 3827.01 -3.83281 1.84325 0
M  V30 40197 N 3825.32 -0.956681 -1.25241 0
M  V30 40198 C 3826.29 -0.482988 -2.24053 0
M  V30 40199 C 3827.29 0.414443 -1.55367 0
M  V30 40200 O 3828.48 0.211445 -1.72912 0
M  V30 40201 C 3825.61 0.301916 -3.3956 0
M  V30 40202 H 3826.8 -1.35639 -2.67474 0
M  V30 40203 H 3824.35 -0.740162 -1.37664 0
M  V30 40204 H 3825.09 1.19289 -3.01564 0
M  V30 40205 H 3824.87 -0.341945 -3.90606 0
M  V30 40206 H 3826.36 0.622734 -4.12931 0
M  V30 40207 N 3826.8 1.39908 -0.725493 0
M  V30 40208 C 3828.22 1.54504 -0.400075 0
M  V30 40209 C 3828.42 1.69466 1.09011 0
M  V30 40210 O 3827.47 1.68981 1.87621 0
M  V30 40211 C 3828.79 2.76802 -1.17479 0
M  V30 40212 C 3830.33 2.90628 -1.16207 0
M  V30 40213 C 3830.81 4.15852 -1.91915 0
M  V30 40214 N 3832.3 4.22872 -1.89034 0
M  V30 40215 C 3833.03 5.18693 -2.44429 0
M  V30 40216 N 3832.53 6.20361 -3.08421 0
M  V30 40217 N 3834.32 5.10842 -2.34515 0
M  V30 40218 H 3826.47 1.28444 -1.69163 0
M  V30 40219 H 3828.74 0.621826 -0.715567 0
M  V30 40220 H 3828.44 2.72057 -2.22886 0
M  V30 40221 H 3828.32 3.69196 -0.772936 0
M  V30 40222 H 3830.7 2.94871 -0.116168 0
M  V30 40223 H 3830.79 1.99324 -1.60323 0
M  V30 40224 H 3830.43 4.1237 -2.96502 0
M  V30 40225 H 3830.36 5.06183 -1.45213 0
M  V30 40226 H 3832.85 3.50042 -1.42406 0
M  V30 40227 H 3833.16 6.8992 -3.48181 0
M  V30 40228 H 3831.51 6.20777 -3.12508 0
M  V30 40229 H 3834.7 4.30347 -1.84172 0
M  V30 40230 H 3834.87 5.85344 -2.77986 0
M  V30 40231 N 3828.28 0.472408 1.50353 0
M  V30 40232 C 3829.56 -0.143769 1.95071 0
M  V30 40233 C 3829.94 -1.56851 1.41283 0
M  V30 40234 O 3829.28 -2.20085 0.614387 0
M  V30 40235 C 3829.49 -0.085733 3.48895 0
M  V30 40236 C 3830.84 -0.273964 4.23715 0
M  V30 40237 O 3831.87 -0.162256 3.5583 0
M  V30 40238 O 3830.72 -0.499719 5.4421 0
M  V30 40239 H 3827.82 -0.110952 0.819523 0
M  V30 40240 H 3830.36 0.532905 1.61116 0
M  V30 40241 H 3829.14 0.908954 3.80597 0
M  V30 40242 H 3828.76 -0.803807 3.8939 0
M  V30 40243 N 3829.76 -1.5626 0.205067 0
M  V30 40244 C 3831.01 -1.97468 -0.430211 0
M  V30 40245 C 3831.33 -1.09345 -1.61458 0
M  V30 40246 O 3830.6 -0.166871 -1.95188 0
M  V30 40247 H 3829.18 -0.729237 -0.161932 0
M  V30 40248 H 3831.84 -1.92668 0.294123 0
M  V30 40249 H 3830.93 -3.02512 -0.767646 0
M  V30 40250 N 3831.24 0.0684638 -1.57451 0
M  V30 40251 C 3832.48 0.768124 -1.8769 0
M  V30 40252 C 3832.81 1.77056 -0.797791 0
M  V30 40253 O 3832.09 1.93554 0.19158 0
M  V30 40254 C 3832.37 1.47313 -3.28589 0
M  V30 40255 C 3832.23 0.486876 -4.47157 0
M  V30 40256 C 3833.54 2.41721 -3.67776 0
M  V30 40257 H 3830.66 0.277781 -0.682647 0
M  V30 40258 H 3833.31 0.0312634 -1.89974 0
M  V30 40259 H 3831.46 2.10123 -3.26773 0
M  V30 40260 H 3833.13 -0.136271 -4.61099 0
M  V30 40261 H 3831.37 -0.197505 -4.3335 0
M  V30 40262 H 3832.04 1.01785 -5.42535 0
M  V30 40263 H 3834.52 1.88986 -3.70707 0
M  V30 40264 H 3833.39 2.88051 -4.67245 0
M  V30 40265 H 3833.65 3.26673 -2.97888 0
M  V30 40266 N 3832.71 1.5389 0.339928 0
M  V30 40267 C 3834.13 1.44235 0.683261 0
M  V30 40268 C 3834.33 0.60201 1.92297 0
M  V30 40269 O 3833.39 0.0944067 2.52323 0
M  V30 40270 C 3834.7 2.87763 0.872525 0
M  V30 40271 C 3836.25 2.97561 0.970912 0
M  V30 40272 C 3836.72 4.42204 1.19247 0
M  V30 40273 N 3838.21 4.45745 1.25958 0
M  V30 40274 C 3838.95 5.548 1.44859 0
M  V30 40275 N 3838.44 6.73855 1.60909 0
M  V30 40276 N 3840.24 5.4242 1.47436 0
M  V30 40277 H 3832.39 2.07018 -0.475123 0
M  V30 40278 H 3834.65 0.935952 -0.15066 0
M  V30 40279 H 3834.36 3.51684 0.0330552 0
M  V30 40280 H 3834.23 3.32923 1.7732 0
M  V30 40281 H 3836.62 2.33777 1.8009 0
M  V30 40282 H 3836.7 2.55757 0.0470616 0
M  V30 40283 H 3836.34 5.06569 0.367393 0
M  V30 40284 H 3836.27 4.81603 2.12994 0
M  V30 40285 H 3838.76 3.59956 1.15065 0
M  V30 40286 H 3839.08 7.52731 1.74976 0
M  V30 40287 H 3837.42 6.76793 1.58038 0
M  V30 40288 H 3840.61 4.48366 1.34482 0
M  V30 40289 H 3840.79 6.27469 1.61823 0
M  V30 40290 N 3834.19 -0.601133 1.45685 0
M  V30 40291 C 3835.61 -0.922575 1.30233 0
M  V30 40292 C 3835.81 -1.99814 0.260121 0
M  V30 40293 O 3834.86 -2.5015 -0.343709 0
M  V30 40294 C 3836.18 -1.35738 2.6832 0
M  V30 40295 C 3837.72 -1.47124 2.76267 0
M  V30 40296 C 3838.2 -1.93978 4.14893 0
M  V30 40297 N 3839.69 -2.01202 4.17219 0
M  V30 40298 C 3840.43 -2.38691 5.21358 0
M  V30 40299 N 3839.92 -2.75103 6.35838 0
M  V30 40300 N 3841.71 -2.39086 5.08718 0
M  V30 40301 H 3833.87 0.109672 2.12117 0
M  V30 40302 H 3836.13 -0.0135962 0.947902 0
M  V30 40303 H 3835.83 -0.641209 3.45805 0
M  V30 40304 H 3835.71 -2.32262 2.9721 0
M  V30 40305 H 3838.1 -2.17832 1.99081 0
M  V30 40306 H 3838.18 -0.488984 2.51083 0
M  V30 40307 H 3837.82 -1.23856 4.92567 0
M  V30 40308 H 3837.75 -2.9313 4.37473 0
M  V30 40309 H 3840.24 -1.75626 3.3461 0
M  V30 40310 H 3840.55 -3.02609 7.11089 0
M  V30 40311 H 3838.9 -2.72784 6.39229 0
M  V30 40312 H 3842.09 -2.1005 4.18326 0
M  V30 40313 H 3842.26 -2.67976 5.89994 0
M  V30 40314 N 3835.67 -1.33083 -0.844196 0
M  V30 40315 C 3836.92 -1.23992 -1.59594 0
M  V30 40316 C 3837.24 0.195626 -1.94016 0
M  V30 40317 O 3836.51 1.12303 -1.60514 0
M  V30 40318 H 3835.09 -0.455936 -0.591719 0
M  V30 40319 H 3837.75 -1.66736 -1.00921 0
M  V30 40320 H 3836.85 -1.82991 -2.52826 0
M  V30 40321 N 3837.15 1.06178 -1.16464 0
M  V30 40322 C 3838.42 1.75823 -0.857069 0
M  V30 40323 C 3838.8 2.0101 0.64485 0
M  V30 40324 O 3838.15 1.63814 1.59302 0
M  V30 40325 C 3838.36 3.05846 -1.68105 0
M  V30 40326 C 3839.71 3.79979 -1.89476 0
M  V30 40327 O 3840.73 3.1569 -1.6498 0
M  V30 40328 O 3839.59 4.95474 -2.30581 0
M  V30 40329 H 3836.69 0.76409 -0.316378 0
M  V30 40330 H 3839.23 1.12436 -1.27107 0
M  V30 40331 H 3838.01 2.83206 -2.70019 0
M  V30 40332 H 3837.63 3.76968 -1.26417 0
M  V30 40333 N 3838.63 0.96331 1.24732 0
M  V30 40334 C 3839.57 0.481744 2.27557 0
M  V30 40335 C 3840.57 -0.452459 1.63246 0
M  V30 40336 O 3841.77 -0.328232 1.76982 0
M  V30 40337 H 3838.15 0.13731 0.739358 0
M  V30 40338 H 3840.12 1.36104 2.65553 0
M  V30 40339 C 3838.87 -0.216745 3.47024 0
M  V30 40340 H 3838.19 0.492986 3.96749 0
M  V30 40341 H 3839.63 -0.517585 4.20829 0
M  V30 40342 C 3838.09 -1.44223 3.04469 0
M  V30 40343 O 3838.62 -2.53951 3.11242 0
M  V30 40344 N 3836.83 -1.30669 2.59565 0
M  V30 40345 H 3836.37 -0.413906 2.54253 0
M  V30 40346 H 3836.33 -2.12779 2.31457 0
M  V30 40347 N 3840.1 -1.39522 0.732902 0
M  V30 40348 C 3841.35 -2.00556 0.279926 0
M  V30 40349 C 3841.68 -1.5815 -1.1322 0
M  V30 40350 O 3840.93 -0.800623 -1.78574 0
M  V30 40351 C 3841.23 -3.55899 0.327202 0
M  V30 40352 C 3840.9 -4.17948 1.69206 0
M  V30 40353 C 3839.56 -4.34609 2.06562 0
M  V30 40354 C 3841.91 -4.5239 2.58829 0
M  V30 40355 C 3839.24 -4.83002 3.33055 0
M  V30 40356 C 3841.59 -5.02191 3.84691 0
M  V30 40357 C 3840.26 -5.1706 4.22143 0
M  V30 40358 H 3839.53 -0.733886 0.102432 0
M  V30 40359 H 3842.17 -1.6688 0.939334 0
M  V30 40360 H 3840.48 -3.89588 -0.415781 0
M  V30 40361 H 3842.18 -4.00979 -0.041386 0
M  V30 40362 H 3838.77 -4.05379 1.3916 0
M  V30 40363 H 3842.95 -4.39138 2.31238 0
M  V30 40364 H 3838.21 -4.92699 3.62018 0
M  V30 40365 H 3842.38 -5.27815 4.54296 0
M  V30 40366 H 3840.01 -5.5432 5.20225 0
M  V30 40367 N 3841.58 -0.480375 -1.501 0
M  V30 40368 C 3842.53 0.327783 -2.25632 0
M  V30 40369 C 3843.52 0.95347 -1.29606 0
M  V30 40370 O 3844.71 0.864482 -1.54453 0
M  V30 40371 C 3841.84 1.4038 -3.13286 0
M  V30 40372 C 3840.92 0.785388 -4.16764 0
M  V30 40373 N 3841.31 -0.0998155 -5.05702 0
M  V30 40374 C 3839.61 1.0483 -4.33505 0
M  V30 40375 C 3840.31 -0.451732 -5.79943 0
M  V30 40376 N 3839.29 0.17536 -5.43317 0
M  V30 40377 H 3843.09 -0.35398 -2.91761 0
M  V30 40378 H 3840.6 -0.295114 -1.59696 0
M  V30 40379 H 3842.6 1.99603 -3.66011 0
M  V30 40380 H 3841.26 2.08746 -2.48707 0
M  V30 40381 H 3842.27 -0.469274 -5.1577 0
M  V30 40382 H 3838.95 1.72625 -3.80141 0
M  V30 40383 H 3840.34 -1.1747 -6.61552 0
M  V30 40384 N 3843.06 1.56149 -0.213351 0
M  V30 40385 C 3844.28 2.02921 0.428711 0
M  V30 40386 C 3844.71 1.0923 1.53136 0
M  V30 40387 O 3844.07 0.0790002 1.81128 0
M  V30 40388 C 3844.12 3.47993 0.945169 0
M  V30 40389 O 3843.22 3.57435 2.05703 0
M  V30 40390 H 3842.56 0.656721 0.0980504 0
M  V30 40391 H 3845.09 2.01928 -0.329584 0
M  V30 40392 H 3845.1 3.88151 1.2571 0
M  V30 40393 H 3843.78 4.15671 0.138088 0
M  V30 40394 H 3842.35 3.29161 1.75236 0
M  V30 40395 N 3844.54 -0.0601128 1.57485 0
M  V30 40396 C 3845.78 -0.758159 1.88095 0
M  V30 40397 C 3846.12 -1.76631 0.807169 0
M  V30 40398 O 3845.39 -1.93653 -0.181313 0
M  V30 40399 C 3845.68 -1.45568 3.29366 0
M  V30 40400 C 3845.53 -0.463155 4.47409 0
M  V30 40401 C 3846.85 -2.39767 3.69053 0
M  V30 40402 H 3843.97 -0.274157 0.68411 0
M  V30 40403 H 3846.61 -0.0211882 1.89988 0
M  V30 40404 H 3844.76 -2.08387 3.27883 0
M  V30 40405 H 3846.43 0.160722 4.6102 0
M  V30 40406 H 3844.67 0.220484 4.33239 0
M  V30 40407 H 3845.34 -0.989068 5.43067 0
M  V30 40408 H 3847.82 -1.87017 3.71704 0
M  V30 40409 H 3846.7 -2.85569 4.68766 0
M  V30 40410 H 3846.96 -3.25089 2.99616 0
M  V30 40411 N 3846.02 -1.54068 -0.331762 0
M  V30 40412 C 3846.95 -1.85872 -1.41329 0
M  V30 40413 C 3847.93 -0.714814 -1.54352 0
M  V30 40414 O 3849.11 -0.967806 -1.68366 0
M  V30 40415 C 3846.24 -2.07879 -2.78215 0
M  V30 40416 C 3845.2 -3.23714 -2.79988 0
M  V30 40417 C 3844.52 -3.31077 -4.19872 0
M  V30 40418 C 3845.82 -4.61554 -2.44468 0
M  V30 40419 H 3847.52 -2.76449 -1.14962 0
M  V30 40420 H 3845.06 -1.33017 -0.551592 0
M  V30 40421 H 3847.02 -2.28712 -3.53933 0
M  V30 40422 H 3845.74 -1.14044 -3.06042 0
M  V30 40423 H 3844.4 -3.02755 -2.06724 0
M  V30 40424 H 3844.05 -2.34815 -4.44827 0
M  V30 40425 H 3843.75 -4.08923 -4.21967 0
M  V30 40426 H 3845.27 -3.54134 -4.97415 0
M  V30 40427 H 3846.68 -4.82323 -3.099 0
M  V30 40428 H 3845.08 -5.4189 -2.57828 0
M  V30 40429 H 3846.15 -4.64361 -1.39632 0
M  V30 40430 N 3847.49 0.593399 -1.46002 0
M  V30 40431 C 3848.72 1.37827 -1.54309 0
M  V30 40432 C 3849.14 1.87935 -0.180513 0
M  V30 40433 O 3848.49 1.63021 0.820398 0
M  V30 40434 C 3848.55 2.57311 -2.53916 0
M  V30 40435 O 3848.27 2.09282 -3.8488 0
M  V30 40436 C 3849.77 3.49998 -2.7206 0
M  V30 40437 H 3846.99 0.421419 -0.522156 0
M  V30 40438 H 3849.53 0.722389 -1.91316 0
M  V30 40439 H 3847.69 3.18911 -2.19942 0
M  V30 40440 H 3848.1 2.87017 -4.39001 0
M  V30 40441 H 3849.57 4.30343 -3.457 0
M  V30 40442 H 3850.05 4.01251 -1.7859 0
M  V30 40443 H 3850.66 2.94241 -3.07087 0
M  V30 40444 N 3848.97 1.33529 0.837127 0
M  V30 40445 C 3850.2 1.28127 1.62453 0
M  V30 40446 C 3850.62 -0.147466 1.88223 0
M  V30 40447 O 3849.97 -1.09015 1.46362 0
M  V30 40448 C 3850.02 2.05552 2.97373 0
M  V30 40449 O 3849.74 3.42852 2.72734 0
M  V30 40450 C 3851.25 2.07381 3.91801 0
M  V30 40451 H 3848.47 0.441343 0.505428 0
M  V30 40452 H 3851.01 1.75927 1.04259 0
M  V30 40453 H 3849.16 1.6143 3.52163 0
M  V30 40454 H 3849.58 3.82703 3.58663 0
M  V30 40455 H 3851.05 2.66005 4.83679 0
M  V30 40456 H 3851.53 1.06451 4.26104 0
M  V30 40457 H 3852.14 2.51529 3.42948 0
M  V30 40458 N 3850.45 -1.05559 1.17026 0
M  V30 40459 C 3851.7 -1.78494 0.956356 0
M  V30 40460 C 3852.03 -1.8755 -0.515287 0
M  V30 40461 O 3851.28 -1.36888 -1.39858 0
M  V30 40462 C 3851.58 -3.22613 1.53804 0
M  V30 40463 C 3851.25 -3.33622 3.03326 0
M  V30 40464 C 3849.91 -3.36334 3.44141 0
M  V30 40465 C 3852.26 -3.34939 3.99331 0
M  V30 40466 C 3849.59 -3.37987 4.79564 0
M  V30 40467 C 3851.94 -3.3813 5.3465 0
M  V30 40468 C 3850.6 -3.39128 5.74934 0
M  V30 40469 H 3849.87 -0.653155 0.349956 0
M  V30 40470 H 3852.52 -1.24088 1.45858 0
M  V30 40471 H 3850.83 -3.79921 0.957441 0
M  V30 40472 H 3852.52 -3.77659 1.34813 0
M  V30 40473 H 3849.11 -3.32222 2.70788 0
M  V30 40474 H 3853.3 -3.32048 3.6886 0
M  V30 40475 H 3848.55 -3.37067 5.10094 0
M  V30 40476 H 3852.73 -3.38097 6.08821 0
M  V30 40477 H 3850.35 -3.40161 6.79849 0
M  V30 40478 N 3851.93 -0.969911 -1.2422 0
M  V30 40479 C 3853.18 -0.628592 -1.91655 0
M  V30 40480 C 3853.49 0.84034 -1.76629 0
M  V30 40481 O 3854.7 1.29228 -2.38773 0
M  V30 40482 C 3853.15 -1.07363 -3.43513 0
M  V30 40483 C 3852.76 -2.56617 -3.67221 0
M  V30 40484 C 3854.5 -0.805566 -4.16786 0
M  V30 40485 C 3852.41 -2.94843 -5.12661 0
M  V30 40486 H 3851.34 -0.231397 -0.717615 0
M  V30 40487 H 3853.99 -1.17641 -1.40829 0
M  V30 40488 H 3852.37 -0.454106 -3.93388 0
M  V30 40489 H 3853.55 -3.23719 -3.27937 0
M  V30 40490 H 3851.86 -2.81058 -3.07238 0
M  V30 40491 H 3854.46 -1.06714 -5.23943 0
M  V30 40492 H 3854.8 0.258248 -4.15498 0
M  V30 40493 H 3855.34 -1.38617 -3.72868 0
M  V30 40494 H 3852.08 -4.00304 -5.19073 0
M  V30 40495 H 3851.6 -2.32427 -5.52936 0
M  V30 40496 H 3853.27 -2.8487 -5.80911 0
M  V30 40497 N 3853.41 1.39131 -0.740291 0
M  V30 40498 C 3854.68 1.94397 -0.216636 0
M  V30 40499 C 3855.06 1.67667 1.28261 0
M  V30 40500 O 3854.41 1.00782 2.05074 0
M  V30 40501 C 3854.62 3.44543 -0.55596 0
M  V30 40502 C 3855.97 4.21547 -0.508224 0
M  V30 40503 O 3856.99 3.52765 -0.493463 0
M  V30 40504 O 3855.85 5.44139 -0.507417 0
M  V30 40505 H 3852.95 0.825967 -0.0413182 0
M  V30 40506 H 3855.49 1.48601 -0.819509 0
M  V30 40507 H 3854.26 3.57454 -1.59193 0
M  V30 40508 H 3853.89 3.97528 0.0756094 0
M  V30 40509 N 3854.88 0.488329 1.49844 0
M  V30 40510 C 3855.85 -0.285666 2.27413 0
M  V30 40511 C 3856.85 -0.905238 1.32899 0
M  V30 40512 O 3858.04 -0.771736 1.56173 0
M  V30 40513 C 3855.17 -1.40859 3.10438 0
M  V30 40514 H 3856.36 0.394835 2.9729 0
M  V30 40515 H 3853.92 0.2429 1.54401 0
M  V30 40516 H 3854.65 -2.12362 2.45097 0
M  V30 40517 H 3854.44 -0.969924 3.79914 0
M  V30 40518 H 3855.93 -1.95413 3.69058 0
M  V30 40519 N 3856.36 -1.56034 0.221629 0
M  V30 40520 C 3857.33 -2.19037 -0.674934 0
M  V30 40521 C 3858.33 -1.15227 -1.12158 0
M  V30 40522 O 3859.52 -1.4046 -1.03037 0
M  V30 40523 C 3856.65 -2.81375 -1.9246 0
M  V30 40524 H 3857.84 -2.99637 -0.125636 0
M  V30 40525 H 3855.39 -1.56275 -0.0279839 0
M  V30 40526 H 3856.13 -2.04646 -2.51576 0
M  V30 40527 H 3855.91 -3.57395 -1.6128 0
M  V30 40528 H 3857.4 -3.29669 -2.56336 0
M  V30 40529 N 3857.84 0.0517601 -1.57515 0
M  V30 40530 C 3859.26 0.406981 -1.54324 0
M  V30 40531 C 3859.46 1.77984 -0.94466 0
M  V30 40532 O 3858.51 2.46306 -0.555828 0
M  V30 40533 C 3859.83 0.329651 -2.98888 0
M  V30 40534 C 3861.37 0.408388 -3.10324 0
M  V30 40535 C 3861.85 0.360753 -4.56577 0
M  V30 40536 N 3863.34 0.420232 -4.6129 0
M  V30 40537 C 3864.07 0.405906 -5.71962 0
M  V30 40538 N 3863.57 0.345208 -6.91939 0
M  V30 40539 N 3865.36 0.453955 -5.60264 0
M  V30 40540 H 3857.51 -0.846941 -1.94784 0
M  V30 40541 H 3859.78 -0.319853 -0.892411 0
M  V30 40542 H 3859.48 -0.612863 -3.46319 0
M  V30 40543 H 3859.36 1.13216 -3.59808 0
M  V30 40544 H 3861.74 1.34133 -2.62854 0
M  V30 40545 H 3861.83 -0.423062 -2.52277 0
M  V30 40546 H 3861.47 -0.568424 -5.04709 0
M  V30 40547 H 3861.4 1.21001 -5.1251 0
M  V30 40548 H 3863.89 0.470578 -3.74959 0
M  V30 40549 H 3864.2 0.338754 -7.72057 0
M  V30 40550 H 3862.55 0.311593 -6.94301 0
M  V30 40551 H 3865.74 0.499207 -4.6543 0
M  V30 40552 H 3865.91 0.439322 -6.46509 0
M  V30 40553 N 3859.32 1.54242 0.323587 0
M  V30 40554 C 3860.57 1.72106 1.05944 0
M  V30 40555 C 3860.89 0.497545 1.88546 0
M  V30 40556 O 3860.16 -0.488452 1.89713 0
M  V30 40557 H 3858.74 0.634564 0.39413 0
M  V30 40558 H 3861.4 1.91546 0.36003 0
M  V30 40559 H 3860.5 2.60065 1.72548 0
M  V30 40560 N 3860.8 -0.585648 1.46314 0
M  V30 40561 C 3862.21 -1.16776 1.45672 0
M  V30 40562 C 3862.56 -1.95219 0.195991 0
M  V30 40563 O 3861.68 -2.04728 -0.701106 0
M  V30 40564 C 3862.28 -2.12438 2.63923 0
M  V30 40565 C 3860.84 -2.65979 2.66331 0
M  V30 40566 C 3859.99 -1.41793 2.38307 0
M  V30 40567 H 3862.94 -0.373743 1.54236 0
M  V30 40568 H 3862.96 -2.95852 2.39274 0
M  V30 40569 H 3862.47 -1.55318 3.55666 0
M  V30 40570 H 3860.57 -3.26976 1.78654 0
M  V30 40571 H 3860.68 -3.08914 3.66209 0
M  V30 40572 H 3859.05 -1.71503 1.88305 0
M  V30 40573 H 3859.83 -0.865081 3.32222 0
M  V30 40574 N 3862.28 -1.33971 -0.830033 0
M  V30 40575 C 3863.24 -1.24862 -1.92204 0
M  V30 40576 C 3864.24 -0.165518 -1.59946 0
M  V30 40577 O 3865.43 -0.417659 -1.69119 0
M  V30 40578 C 3862.56 -0.926086 -3.2808 0
M  V30 40579 H 3863.75 -2.21935 -2.01705 0
M  V30 40580 H 3861.31 -1.18156 -1.02317 0
M  V30 40581 H 3862.04 0.0417794 -3.24273 0
M  V30 40582 H 3861.83 -1.70944 -3.52875 0
M  V30 40583 H 3863.32 -0.887335 -4.08064 0
M  V30 40584 N 3863.75 1.04937 -1.17584 0
M  V30 40585 C 3865 1.77633 -0.963901 0
M  V30 40586 C 3865.32 1.88253 0.508515 0
M  V30 40587 O 3864.59 1.40116 1.3691 0
M  V30 40588 H 3863.17 0.657984 -0.353647 0
M  V30 40589 H 3865.83 1.26691 -1.48106 0
M  V30 40590 H 3864.93 2.79217 -1.39443 0
M  V30 40591 N 3865.23 0.976485 1.23703 0
M  V30 40592 C 3866.48 0.644154 1.92298 0
M  V30 40593 C 3866.81 -0.819736 1.76051 0
M  V30 40594 O 3866.09 -1.59084 1.11905 0
M  V30 40595 C 3866.37 1.03051 3.4504 0
M  V30 40596 C 3866.22 2.55174 3.70414 0
M  V30 40597 C 3867.54 0.571521 4.36373 0
M  V30 40598 H 3864.66 0.235491 0.698365 0
M  V30 40599 H 3867.3 1.21707 1.45902 0
M  V30 40600 H 3865.45 0.543007 3.84686 0
M  V30 40601 H 3867.12 3.11468 3.40273 0
M  V30 40602 H 3865.37 2.97982 3.15261 0
M  V30 40603 H 3866.04 2.77257 4.77318 0
M  V30 40604 H 3868.51 0.990008 4.04151 0
M  V30 40605 H 3867.39 0.870321 5.41956 0
M  V30 40606 H 3867.65 -0.528241 4.38933 0
M  V30 40607 N 3866.71 -1.38737 0.747659 0
M  V30 40608 C 3867.62 -2.34303 0.11792 0
M  V30 40609 C 3868.64 -1.58969 -0.70746 0
M  V30 40610 O 3869.81 -1.91194 -0.632991 0
M  V30 40611 C 3866.88 -3.3806 -0.769164 0
M  V30 40612 C 3865.94 -4.29243 0.0699113 0
M  V30 40613 C 3865.17 -5.28044 -0.774928 0
M  V30 40614 O 3865.39 -5.33692 -2.01319 0
M  V30 40615 O 3864.33 -6.01578 -0.196872 0
M  V30 40616 H 3868.15 -2.89839 0.907023 0
M  V30 40617 H 3865.74 -1.40481 0.508478 0
M  V30 40618 H 3867.62 -4.01606 -1.27634 0
M  V30 40619 H 3866.3 -2.8489 -1.53686 0
M  V30 40620 H 3865.2 -3.68878 0.622901 0
M  V30 40621 H 3866.54 -4.85653 0.800125 0
M  V30 40622 N 3868.19 -0.496268 -1.49583 0
M  V30 40623 C 3869.41 0.0490621 -2.07342 0
M  V30 40624 C 3869.84 1.30491 -1.35476 0
M  V30 40625 O 3869.2 1.76602 -0.410036 0
M  V30 40626 C 3869.24 0.290538 -3.59428 0
M  V30 40627 O 3868.35 1.36619 -3.89113 0
M  V30 40628 H 3867.69 -0.0241258 -0.663562 0
M  V30 40629 H 3870.22 -0.694534 -1.92451 0
M  V30 40630 H 3870.23 0.523478 -4.04628 0
M  V30 40631 H 3868.9 -0.627031 -4.11146 0
M  V30 40632 H 3867.48 1.11858 -3.55728 0
M  V30 40633 N 3869.67 1.55914 -0.2299 0
M  V30 40634 C 3870.94 1.90377 0.448974 0
M  V30 40635 C 3871.32 1.14838 1.77131 0
M  V30 40636 O 3870.67 0.260368 2.27012 0
M  V30 40637 C 3870.88 3.43198 0.633744 0
M  V30 40638 C 3872.23 4.14124 0.93738 0
M  V30 40639 O 3873.25 3.48843 0.720229 0
M  V30 40640 O 3872.11 5.29564 1.34995 0
M  V30 40641 H 3869.21 0.79185 0.238543 0
M  V30 40642 H 3871.75 1.67495 -0.272705 0
M  V30 40643 H 3870.52 3.90159 -0.298656 0
M  V30 40644 H 3870.15 3.71888 1.4066 0
M  V30 40645 N 3871.14 -0.043406 1.5754 0
M  V30 40646 C 3872.39 -0.738166 1.88889 0
M  V30 40647 C 3872.72 -1.75765 0.825858 0
M  V30 40648 O 3872 -1.93834 -0.160763 0
M  V30 40649 C 3872.28 -1.42067 3.30891 0
M  V30 40650 C 3872.13 -0.415675 4.47875 0
M  V30 40651 C 3873.45 -2.35839 3.71575 0
M  V30 40652 H 3870.57 -0.266885 0.68698 0
M  V30 40653 H 3873.21 -0.00103617 1.9 0
M  V30 40654 H 3871.36 -2.04898 3.30075 0
M  V30 40655 H 3873.04 0.20961 4.60824 0
M  V30 40656 H 3871.28 0.266422 4.32981 0
M  V30 40657 H 3871.95 -0.931413 5.44085 0
M  V30 40658 H 3874.43 -1.83064 3.73667 0
M  V30 40659 H 3873.3 -2.80581 4.71768 0
M  V30 40660 H 3873.56 -3.21893 3.03047 0
M  V30 40661 N 3872.62 -1.54412 -0.315402 0
M  V30 40662 C 3873.53 -1.874 -1.41133 0
M  V30 40663 C 3874.55 -0.766707 -1.56197 0
M  V30 40664 O 3875.72 -1.06179 -1.71137 0
M  V30 40665 C 3872.79 -2.10179 -2.75728 0
M  V30 40666 C 3871.85 -3.3395 -2.6977 0
M  V30 40667 C 3871.08 -3.55633 -3.97946 0
M  V30 40668 O 3871.31 -2.80598 -4.96609 0
M  V30 40669 O 3870.24 -4.49126 -4.00711 0
M  V30 40670 H 3874.07 -2.80607 -1.16162 0
M  V30 40671 H 3871.65 -1.4042 -0.510168 0
M  V30 40672 H 3873.53 -2.26445 -3.55388 0
M  V30 40673 H 3872.21 -1.20159 -3.00572 0
M  V30 40674 H 3871.11 -3.23062 -1.88632 0
M  V30 40675 H 3872.45 -4.24053 -2.4988 0
M  V30 40676 N 3874.1 0.57788 -1.46623 0
M  V30 40677 C 3875.33 1.36183 -1.55762 0
M  V30 40678 C 3875.74 1.87733 -0.200436 0
M  V30 40679 O 3875.1 1.63882 0.803062 0
M  V30 40680 C 3875.15 2.54603 -2.56631 0
M  V30 40681 O 3874.87 2.05188 -3.87078 0
M  V30 40682 C 3876.37 3.47092 -2.75757 0
M  V30 40683 H 3873.59 0.415857 -0.526597 0
M  V30 40684 H 3876.14 0.702057 -1.92071 0
M  V30 40685 H 3874.29 3.1656 -2.23312 0
M  V30 40686 H 3874.71 2.82345 -4.4202 0
M  V30 40687 H 3876.18 4.26653 -3.50245 0
M  V30 40688 H 3876.66 3.99334 -1.82836 0
M  V30 40689 H 3877.26 2.90967 -3.1019 0
M  V30 40690 N 3875.58 1.34409 0.822917 0
M  V30 40691 C 3876.53 1.25992 1.95522 0
M  V30 40692 C 3877.52 0.158023 1.68661 0
M  V30 40693 O 3878.73 0.322997 1.77078 0
M  V30 40694 H 3875.1 0.391405 0.64211 0
M  V30 40695 H 3877.07 2.21687 1.99744 0
M  V30 40696 C 3875.82 1.03224 3.32024 0
M  V30 40697 H 3875.14 1.87245 3.53241 0
M  V30 40698 H 3876.58 1.01371 4.11704 0
M  V30 40699 C 3875.04 -0.264464 3.3586 0
M  V30 40700 O 3875.57 -1.26583 3.81235 0
M  V30 40701 N 3873.78 -0.297575 2.89072 0
M  V30 40702 H 3873.33 0.51788 2.52341 0
M  V30 40703 H 3873.28 -1.16495 2.92021 0
M  V30 40704 N 3877.06 -1.04312 1.18139 0
M  V30 40705 C 3877.97 -2.15762 0.921081 0
M  V30 40706 C 3878.98 -1.73627 -0.11393 0
M  V30 40707 O 3880.16 -2.01287 0.0674086 0
M  V30 40708 C 3877.22 -3.43798 0.447641 0
M  V30 40709 C 3876.28 -4.00329 1.55032 0
M  V30 40710 C 3875.52 -5.22254 1.09937 0
M  V30 40711 O 3875.74 -5.70384 -0.0429149 0
M  V30 40712 O 3874.67 -5.71255 1.8961 0
M  V30 40713 H 3878.5 -2.40575 1.85357 0
M  V30 40714 H 3876.09 -1.14222 0.963005 0
M  V30 40715 H 3877.97 -4.20964 0.191571 0
M  V30 40716 H 3876.64 -3.20464 -0.456585 0
M  V30 40717 H 3875.55 -3.24563 1.86037 0
M  V30 40718 H 3876.88 -4.28 2.43058 0
M  V30 40719 N 3878.53 -0.983032 -1.23184 0
M  V30 40720 C 3879.78 -0.648885 -1.90977 0
M  V30 40721 C 3880.1 0.821559 -1.7751 0
M  V30 40722 O 3881.3 1.26688 -2.4013 0
M  V30 40723 C 3879.76 -1.11001 -3.42355 0
M  V30 40724 C 3879.37 -2.60498 -3.64479 0
M  V30 40725 C 3881.11 -0.849727 -4.15909 0
M  V30 40726 C 3879.02 -3.00264 -5.09505 0
M  V30 40727 H 3877.95 -0.238995 -0.715121 0
M  V30 40728 H 3880.6 -1.19128 -1.39573 0
M  V30 40729 H 3878.98 -0.495805 -3.92884 0
M  V30 40730 H 3880.15 -3.27179 -3.24485 0
M  V30 40731 H 3878.47 -2.84301 -3.0424 0
M  V30 40732 H 3881.07 -1.12265 -5.22782 0
M  V30 40733 H 3881.41 0.214164 -4.15749 0
M  V30 40734 H 3881.94 -1.42564 -3.71376 0
M  V30 40735 H 3878.68 -4.05787 -5.14798 0
M  V30 40736 H 3878.2 -2.38278 -5.50439 0
M  V30 40737 H 3879.88 -2.91016 -5.77857 0
M  V30 40738 N 3880.01 1.38338 -0.755006 0
M  V30 40739 C 3881.26 2.00382 -0.312259 0
M  V30 40740 C 3881.59 1.59795 1.1036 0
M  V30 40741 O 3880.87 0.836161 1.75609 0
M  V30 40742 C 3881.15 3.57441 -0.436764 0
M  V30 40743 C 3881 4.07988 -1.89383 0
M  V30 40744 C 3882.32 4.39775 0.169006 0
M  V30 40745 H 3879.44 0.727983 -0.114935 0
M  V30 40746 H 3882.08 1.6426 -0.954916 0
M  V30 40747 H 3880.23 3.88343 0.110362 0
M  V30 40748 H 3881.9 3.87723 -2.49937 0
M  V30 40749 H 3880.15 3.60802 -2.40841 0
M  V30 40750 H 3880.82 5.17082 -1.93209 0
M  V30 40751 H 3883.29 4.15034 -0.297627 0
M  V30 40752 H 3882.17 5.48876 0.0516566 0
M  V30 40753 H 3882.43 4.2384 1.25746 0
M  V30 40754 N 3881.49 0.504194 1.49317 0
M  V30 40755 C 3882.77 -0.102359 1.95332 0
M  V30 40756 C 3883.15 -1.53819 1.44579 0
M  V30 40757 O 3882.5 -2.18733 0.660933 0
M  V30 40758 C 3882.71 -0.011708 3.48998 0
M  V30 40759 C 3884.05 -0.184027 4.24201 0
M  V30 40760 O 3885.08 -0.086743 3.56094 0
M  V30 40761 O 3883.94 -0.384172 5.45148 0
M  V30 40762 H 3881.03 -0.0935437 0.821693 0
M  V30 40763 H 3883.58 0.56696 1.59949 0
M  V30 40764 H 3882.35 0.989479 3.78583 0
M  V30 40765 H 3881.97 -0.721031 3.91008 0
M  V30 40766 N 3882.97 -1.5579 0.238166 0
M  V30 40767 C 3884.19 -2.03577 -0.396373 0
M  V30 40768 C 3884.62 -1.11652 -1.51378 0
M  V30 40769 O 3883.98 -0.107806 -1.80979 0
M  V30 40770 C 3884.02 -3.49452 -0.889687 0
M  V30 40771 O 3883.13 -3.60663 -1.99991 0
M  V30 40772 H 3882.47 -0.658198 -0.0875901 0
M  V30 40773 H 3885 -2.01378 0.361667 0
M  V30 40774 H 3885.01 -3.90102 -1.19519 0
M  V30 40775 H 3883.68 -4.15838 -0.0719405 0
M  V30 40776 H 3882.26 -3.31907 -1.69977 0
M  V30 40777 N 3884.45 0.0350506 -1.57561 0
M  V30 40778 C 3885.69 0.728139 -1.89278 0
M  V30 40779 C 3886.03 1.75324 -0.835168 0
M  V30 40780 O 3885.3 1.93917 0.150481 0
M  V30 40781 C 3885.58 1.4031 -3.3164 0
M  V30 40782 C 3885.44 0.391917 -4.48089 0
M  V30 40783 C 3886.76 2.33865 -3.7282 0
M  V30 40784 H 3883.87 0.263238 -0.688386 0
M  V30 40785 H 3886.52 -0.00904 -1.89998 0
M  V30 40786 H 3884.67 2.03144 -3.31157 0
M  V30 40787 H 3886.34 -0.234046 -4.60706 0
M  V30 40788 H 3884.58 -0.289381 -4.32834 0
M  V30 40789 H 3885.25 0.902546 -5.44571 0
M  V30 40790 H 3887.73 1.8108 -3.74632 0
M  V30 40791 H 3886.6 2.78075 -4.7325 0
M  V30 40792 H 3886.87 3.20281 -3.0475 0
M  V30 40793 N 3885.92 1.54577 0.307209 0
M  V30 40794 C 3886.86 1.81461 1.40016 0
M  V30 40795 C 3887.87 0.697272 1.47112 0
M  V30 40796 O 3889.06 0.974652 1.49542 0
M  V30 40797 C 3886.16 1.93202 2.78435 0
M  V30 40798 C 3885.33 3.23541 2.94347 0
M  V30 40799 C 3884.39 3.25776 4.13227 0
M  V30 40800 O 3883.42 3.99339 4.05607 0
M  V30 40801 N 3884.62 2.50724 5.23562 0
M  V30 40802 H 3887.38 2.75786 1.17312 0
M  V30 40803 H 3884.94 1.54074 0.497259 0
M  V30 40804 H 3886.94 1.92107 3.56198 0
M  V30 40805 H 3885.51 1.059 2.94116 0
M  V30 40806 H 3884.73 3.37461 2.03749 0
M  V30 40807 H 3886.01 4.09564 3.01885 0
M  V30 40808 H 3885.41 1.90578 5.32632 0
M  V30 40809 H 3883.97 2.55389 5.99683 0
M  V30 40810 N 3887.4 -0.570096 1.46927 0
M  V30 40811 C 3888.63 -1.35159 1.56255 0
M  V30 40812 C 3889.04 -1.88063 0.207074 0
M  V30 40813 O 3888.38 -1.64984 -0.807842 0
M  V30 40814 C 3888.45 -2.56667 2.51719 0
M  V30 40815 C 3888.11 -2.2514 3.97695 0
M  V30 40816 C 3889.11 -1.8321 4.86549 0
M  V30 40817 C 3886.79 -2.36896 4.42929 0
M  V30 40818 C 3888.79 -1.53448 6.18654 0
M  V30 40819 C 3886.47 -2.06746 5.75064 0
M  V30 40820 C 3887.47 -1.65089 6.62748 0
M  V30 40821 O 3887.16 -1.35316 7.9243 0
M  V30 40822 H 3886.89 -0.418795 0.530648 0
M  V30 40823 H 3889.44 -0.698771 1.93149 0
M  V30 40824 H 3887.67 -3.24796 2.09868 0
M  V30 40825 H 3889.36 -3.1874 2.51315 0
M  V30 40826 H 3890.13 -1.73632 4.52854 0
M  V30 40827 H 3886.01 -2.68281 3.74895 0
M  V30 40828 H 3889.55 -1.2086 6.87051 0
M  V30 40829 H 3885.45 -2.15953 6.08305 0
M  V30 40830 H 3886.22 -1.49055 8.04814 0
M  V30 40831 N 3888.88 -1.34844 -0.815777 0
M  V30 40832 C 3889.84 -1.26893 -1.90868 0
M  V30 40833 C 3890.84 -0.182473 -1.59761 0
M  V30 40834 O 3892.03 -0.435572 -1.68667 0
M  V30 40835 C 3889.17 -0.960832 -3.27079 0
M  V30 40836 H 3890.36 -2.24062 -1.99339 0
M  V30 40837 H 3887.91 -1.19235 -1.01058 0
M  V30 40838 H 3888.65 0.00738359 -3.24299 0
M  V30 40839 H 3888.43 -1.74677 -3.51042 0
M  V30 40840 H 3889.92 -0.930565 -4.071 0
M  V30 40841 N 3890.36 1.03684 -1.1869 0
M  V30 40842 C 3891.31 2.1011 -0.88531 0
M  V30 40843 C 3892.29 1.60231 0.14657 0
M  V30 40844 O 3893.49 1.76905 -0.0580094 0
M  V30 40845 C 3890.61 3.40758 -0.417037 0
M  V30 40846 C 3889.7 3.97393 -1.4812 0
M  V30 40847 N 3890.09 4.27793 -2.69864 0
M  V30 40848 C 3888.39 4.25311 -1.34262 0
M  V30 40849 C 3889.09 4.73169 -3.38357 0
M  V30 40850 N 3888.07 4.74217 -2.65743 0
M  V30 40851 H 3891.87 2.31496 -1.81071 0
M  V30 40852 H 3889.38 1.21472 -1.07788 0
M  V30 40853 H 3891.38 4.16501 -0.182459 0
M  V30 40854 H 3890.04 3.20796 0.501979 0
M  V30 40855 H 3891.05 4.17321 -3.06698 0
M  V30 40856 H 3887.73 4.14656 -0.486447 0
M  V30 40857 H 3889.12 5.05679 -4.42424 0
M  V30 40858 N 3891.84 0.989551 1.22661 0
M  V30 40859 C 3892.78 0.537033 2.24465 0
M  V30 40860 C 3893.75 -0.428879 1.60468 0
M  V30 40861 O 3894.94 -0.334385 1.87847 0
M  V30 40862 C 3892.08 -0.145465 3.44793 0
M  V30 40863 C 3891.19 0.86179 4.23317 0
M  V30 40864 C 3890.33 0.153155 5.30979 0
M  V30 40865 C 3889.37 1.14901 6.01219 0
M  V30 40866 N 3888.5 0.468905 7.00532 0
M  V30 40867 H 3893.34 1.40992 2.62536 0
M  V30 40868 H 3890.88 0.706314 1.29033 0
M  V30 40869 H 3892.84 -0.558055 4.13451 0
M  V30 40870 H 3891.47 -0.982159 3.07495 0
M  V30 40871 H 3890.52 1.39272 3.53988 0
M  V30 40872 H 3891.83 1.62027 4.71751 0
M  V30 40873 H 3890.99 -0.316336 6.05875 0
M  V30 40874 H 3889.73 -0.637855 4.83511 0
M  V30 40875 H 3888.73 1.62916 5.25108 0
M  V30 40876 H 3889.96 1.94083 6.50775 0
M  V30 40877 H 3887.9 -0.302729 6.55301 0
M  V30 40878 H 3887.82 1.16589 7.46956 0
M  V30 40879 H 3889.09 0.0221056 7.79497 0
M  V30 40880 N 3893.32 -1.37936 0.762332 0
M  V30 40881 C 3894.27 -2.27705 0.115984 0
M  V30 40882 C 3895.25 -1.45636 -0.684038 0
M  V30 40883 O 3896.44 -1.68285 -0.548557 0
M  V30 40884 C 3893.57 -3.34562 -0.769631 0
M  V30 40885 C 3892.66 -4.24083 0.0377113 0
M  V30 40886 N 3893.05 -4.94166 1.07858 0
M  V30 40887 C 3891.35 -4.45605 -0.187745 0
M  V30 40888 C 3892.05 -5.60174 1.56778 0
M  V30 40889 N 3891.02 -5.36404 0.881571 0
M  V30 40890 H 3894.82 -2.79358 0.913043 0
M  V30 40891 H 3892.34 -1.50942 0.599195 0
M  V30 40892 H 3894.34 -3.9777 -1.24837 0
M  V30 40893 H 3893 -2.84466 -1.56554 0
M  V30 40894 H 3894.01 -4.96879 1.46055 0
M  V30 40895 H 3890.68 -4.064 -0.956309 0
M  V30 40896 H 3892.07 -6.26214 2.43528 0
M  V30 40897 N 3894.79 -0.512106 -1.49048 0
M  V30 40898 C 3896.07 0.0919987 -1.95384 0
M  V30 40899 C 3896.45 1.5305 -1.45392 0
M  V30 40900 O 3895.8 2.18379 -0.672523 0
M  V30 40901 C 3896.01 -0.00680036 -3.48999 0
M  V30 40902 C 3897.36 0.161528 -4.24293 0
M  V30 40903 O 3898.38 0.0678572 -3.56135 0
M  V30 40904 O 3897.24 0.355256 -5.45344 0
M  V30 40905 H 3894.33 0.0891848 -0.822177 0
M  V30 40906 H 3896.88 -0.575434 -1.59646 0
M  V30 40907 H 3895.65 -1.00954 -3.78053 0
M  V30 40908 H 3895.27 0.700285 -3.91384 0
M  V30 40909 N 3896.27 1.55662 -0.246424 0
M  V30 40910 C 3897.52 1.98108 0.378938 0
M  V30 40911 C 3897.83 1.13778 1.59104 0
M  V30 40912 O 3899.04 1.46236 2.28752 0
M  V30 40913 C 3897.5 3.5251 0.725572 0
M  V30 40914 C 3897.1 4.45579 -0.465102 0
M  V30 40915 C 3898.85 4.03614 1.31515 0
M  V30 40916 C 3896.75 5.91324 -0.0946487 0
M  V30 40917 H 3895.68 0.739856 0.145357 0
M  V30 40918 H 3898.34 1.80198 -0.346565 0
M  V30 40919 H 3896.72 3.66114 1.50919 0
M  V30 40920 H 3897.89 4.43734 -1.24244 0
M  V30 40921 H 3896.21 4.04955 -0.969578 0
M  V30 40922 H 3898.8 5.10023 1.60564 0
M  V30 40923 H 3899.15 3.50933 2.23946 0
M  V30 40924 H 3899.68 3.93333 0.594446 0
M  V30 40925 H 3896.42 6.48041 -0.986079 0
M  V30 40926 H 3895.94 5.96306 0.646496 0
M  V30 40927 H 3897.62 6.46192 0.323334 0
M  V30 40928 N 3897.75 -0.0266943 1.57577 0
M  V30 40929 C 3898.68 -1.05421 2.03517 0
M  V30 40930 C 3899.69 -1.32323 0.948385 0
M  V30 40931 O 3900.88 -1.29769 1.22565 0
M  V30 40932 C 3897.98 -2.39528 2.39749 0
M  V30 40933 C 3897.16 -2.31947 3.70836 0
M  V30 40934 C 3896.22 -3.48524 3.9423 0
M  V30 40935 O 3895.24 -3.27911 4.65256 0
M  V30 40936 N 3896.44 -4.70473 3.40053 0
M  V30 40937 H 3899.21 -0.662627 2.92283 0
M  V30 40938 H 3896.77 -0.214595 1.60471 0
M  V30 40939 H 3898.76 -3.16241 2.52535 0
M  V30 40940 H 3897.33 -2.70523 1.56641 0
M  V30 40941 H 3896.55 -1.40319 3.68381 0
M  V30 40942 H 3897.84 -2.24027 4.56825 0
M  V30 40943 H 3897.24 -4.9012 2.82487 0
M  V30 40944 H 3895.79 -5.44542 3.58214 0
M  V30 40945 N 3899.23 -1.54738 -0.299007 0
M  V30 40946 C 3900.48 -1.73322 -1.03161 0
M  V30 40947 C 3900.79 -0.527217 -1.88361 0
M  V30 40948 O 3902 -0.594914 -2.64902 0
M  V30 40949 C 3900.45 -3.06657 -1.88386 0
M  V30 40950 C 3900.06 -4.34743 -1.08179 0
M  V30 40951 C 3901.8 -3.346 -2.61234 0
M  V30 40952 C 3899.71 -5.59128 -1.92692 0
M  V30 40953 H 3898.64 -0.645981 -0.388875 0
M  V30 40954 H 3901.29 -1.81218 -0.288512 0
M  V30 40955 H 3899.67 -2.92732 -2.66691 0
M  V30 40956 H 3900.85 -4.59509 -0.344736 0
M  V30 40957 H 3899.16 -4.1375 -0.469045 0
M  V30 40958 H 3901.76 -4.24731 -3.24819 0
M  V30 40959 H 3902.1 -2.53565 -3.30168 0
M  V30 40960 H 3902.64 -3.49505 -1.89976 0
M  V30 40961 H 3899.37 -6.42837 -1.28224 0
M  V30 40962 H 3898.89 -5.38544 -2.64065 0
M  V30 40963 H 3900.57 -5.96459 -2.50691 0
M  V30 40964 N 3900.71 0.562296 -1.47228 0
M  V30 40965 C 3901.93 1.34523 -1.57198 0
M  V30 40966 C 3902.35 1.8751 -0.220336 0
M  V30 40967 O 3901.71 1.64724 0.785635 0
M  V30 40968 C 3901.76 2.51867 -2.59317 0
M  V30 40969 O 3901.48 2.01071 -3.89233 0
M  V30 40970 C 3902.98 3.44148 -2.79423 0
M  V30 40971 H 3900.2 0.410248 -0.530978 0
M  V30 40972 H 3902.74 0.681646 -1.92805 0
M  V30 40973 H 3900.9 3.14174 -2.26657 0
M  V30 40974 H 3901.31 2.7764 -4.4499 0
M  V30 40975 H 3902.79 4.22914 -3.5475 0
M  V30 40976 H 3903.26 3.97373 -1.87061 0
M  V30 40977 H 3903.87 2.87661 -3.13259 0
M  V30 40978 N 3902.18 1.35274 0.808615 0
M  V30 40979 C 3903.13 1.28059 1.94175 0
M  V30 40980 C 3904.13 0.175903 1.68484 0
M  V30 40981 O 3905.33 0.34176 1.76726 0
M  V30 40982 H 3901.71 0.398194 0.637923 0
M  V30 40983 H 3903.68 2.23793 1.97381 0
M  V30 40984 C 3902.43 1.0674 3.30911 0
M  V30 40985 H 3901.75 1.90982 3.51235 0
M  V30 40986 H 3903.19 1.05732 4.10605 0
M  V30 40987 C 3901.65 -0.228826 3.36122 0
M  V30 40988 O 3902.18 -1.22532 3.82556 0
M  V30 40989 N 3900.38 -0.266898 2.89372 0
M  V30 40990 H 3899.93 0.544615 2.51777 0
M  V30 40991 H 3899.89 -1.13391 2.9324 0
M  V30 40992 N 3903.66 -1.03053 1.19239 0
M  V30 40993 C 3904.57 -2.14773 0.943914 0
M  V30 40994 C 3905.59 -1.73738 -0.0955079 0
M  V30 40995 O 3906.76 -2.01204 0.088754 0
M  V30 40996 C 3903.83 -3.43304 0.48408 0
M  V30 40997 C 3902.89 -3.98663 1.59269 0
M  V30 40998 C 3902.12 -5.21059 1.1547 0
M  V30 40999 O 3902.35 -5.70397 0.0175844 0
M  V30 41000 O 3901.28 -5.69211 1.95658 0
M  V30 41001 H 3905.11 -2.38596 1.87898 0
M  V30 41002 H 3902.69 -1.13194 0.975066 0
M  V30 41003 H 3904.57 -4.20737 0.236209 0
M  V30 41004 H 3903.25 -3.2093 -0.422569 0
M  V30 41005 H 3902.16 -3.22571 1.89469 0
M  V30 41006 H 3903.49 -4.25398 2.47584 0
M  V30 41007 N 3905.14 -0.996042 -1.22134 0
M  V30 41008 C 3906.37 -0.691924 -1.95518 0
M  V30 41009 C 3906.79 0.737449 -1.73041 0
M  V30 41010 O 3906.15 1.50454 -1.0116 0
M  V30 41011 C 3906.2 -1.00741 -3.46242 0
M  V30 41012 O 3905.3 -0.107786 -4.12259 0
M  V30 41013 H 3904.64 -0.258659 -0.611549 0
M  V30 41014 H 3907.17 -1.33387 -1.55142 0
M  V30 41015 H 3907.18 -0.950551 -3.96773 0
M  V30 41016 H 3905.86 -2.04896 -3.61926 0
M  V30 41017 H 3904.43 -0.220401 -3.72248 0
M  V30 41018 N 3906.62 1.37529 -0.769636 0
M  V30 41019 C 3907.85 2.03719 -0.343819 0
M  V30 41020 C 3908.26 1.58175 1.03813 0
M  V30 41021 O 3907.6 0.75742 1.67358 0
M  V30 41022 C 3907.66 3.58196 -0.305907 0
M  V30 41023 C 3907.33 4.26863 -1.63209 0
M  V30 41024 C 3908.32 4.51129 -2.58416 0
M  V30 41025 C 3906.01 4.64735 -1.90595 0
M  V30 41026 C 3908 5.12321 -3.79217 0
M  V30 41027 C 3905.69 5.25649 -3.11667 0
M  V30 41028 C 3906.69 5.49379 -4.05797 0
M  V30 41029 O 3906.37 6.0902 -5.24738 0
M  V30 41030 H 3906.11 0.660838 -0.14237 0
M  V30 41031 H 3908.66 1.76888 -1.04402 0
M  V30 41032 H 3906.89 3.84065 0.450657 0
M  V30 41033 H 3908.58 4.05794 0.0925556 0
M  V30 41034 H 3909.35 4.22284 -2.3854 0
M  V30 41035 H 3905.22 4.45601 -1.18156 0
M  V30 41036 H 3908.77 5.30759 -4.52703 0
M  V30 41037 H 3904.67 5.53918 -3.31429 0
M  V30 41038 H 3905.43 6.275 -5.25534 0
M  V30 41039 N 3908.1 0.520003 1.48774 0
M  V30 41040 C 3909.04 -0.261697 2.31123 0
M  V30 41041 C 3910.04 -0.944935 1.40596 0
M  V30 41042 O 3911.24 -0.870457 1.57553 0
M  V30 41043 H 3907.62 -0.103259 0.744877 0
M  V30 41044 H 3909.59 0.452566 2.94948 0
M  V30 41045 C 3908.34 -1.30178 3.22411 0
M  V30 41046 H 3907.66 -0.785455 3.92008 0
M  V30 41047 H 3909.1 -1.82035 3.82935 0
M  V30 41048 C 3907.56 -2.33011 2.43326 0
M  V30 41049 O 3908.09 -3.39261 2.15093 0
M  V30 41050 N 3906.3 -2.05968 2.05002 0
M  V30 41051 H 3905.84 -1.19582 2.28162 0
M  V30 41052 H 3905.8 -2.74995 1.52397 0
M  V30 41053 N 3909.57 -1.55529 0.254676 0
M  V30 41054 C 3910.52 -2.23106 -0.657748 0
M  V30 41055 C 3911.52 -1.22121 -1.174 0
M  V30 41056 O 3912.72 -1.40111 -1.13 0
M  V30 41057 H 3909.1 -0.715766 -0.230615 0
M  V30 41058 H 3911.07 -2.9833 -0.0647235 0
M  V30 41059 C 3909.82 -2.95016 -1.84013 0
M  V30 41060 H 3909.14 -3.72499 -1.45204 0
M  V30 41061 H 3910.58 -3.45652 -2.45562 0
M  V30 41062 C 3909.04 -1.99327 -2.71607 0
M  V30 41063 O 3909.57 -1.53132 -3.71367 0
M  V30 41064 N 3907.78 -1.66262 -2.38339 0
M  V30 41065 H 3907.32 -2.04023 -1.57265 0
M  V30 41066 H 3907.28 -1.02505 -2.97221 0
M  V30 41067 N 3911.05 0.0183372 -1.57589 0
M  V30 41068 C 3912.28 0.717416 -1.93744 0
M  V30 41069 C 3912.69 1.68842 -0.853757 0
M  V30 41070 O 3912.03 1.82839 0.177616 0
M  V30 41071 C 3912.1 1.5203 -3.25772 0
M  V30 41072 C 3911.76 0.712901 -4.51405 0
M  V30 41073 C 3912.76 0.00850322 -5.19899 0
M  V30 41074 C 3910.44 0.664277 -4.97888 0
M  V30 41075 C 3912.44 -0.733703 -6.33163 0
M  V30 41076 C 3910.12 -0.0816677 -6.11045 0
M  V30 41077 C 3911.12 -0.779408 -6.78538 0
M  V30 41078 O 3910.81 -1.51322 -7.8953 0
M  V30 41079 H 3910.54 0.205985 -0.643853 0
M  V30 41080 H 3913.09 -0.0233421 -2.05387 0
M  V30 41081 H 3911.32 2.30512 -3.10485 0
M  V30 41082 H 3913.01 2.10299 -3.47173 0
M  V30 41083 H 3913.78 0.0370321 -4.84986 0
M  V30 41084 H 3909.66 1.19688 -4.45192 0
M  V30 41085 H 3913.2 -1.27885 -6.85778 0
M  V30 41086 H 3909.1 -0.112082 -6.45403 0
M  V30 41087 H 3909.87 -1.42801 -8.05947 0
M  V30 41088 N 3912.53 1.54894 0.290797 0
M  V30 41089 C 3913.78 1.74918 1.02623 0
M  V30 41090 C 3914.11 0.538954 1.86572 0
M  V30 41091 O 3913.38 -0.463811 1.88889 0
M  V30 41092 C 3913.67 3.0441 1.92371 0
M  V30 41093 C 3913.52 4.35752 1.11535 0
M  V30 41094 C 3914.84 3.29829 2.91378 0
M  V30 41095 H 3911.96 0.636418 0.371674 0
M  V30 41096 H 3914.6 1.87616 0.300039 0
M  V30 41097 H 3912.75 2.93715 2.5429 0
M  V30 41098 H 3914.42 4.5838 0.518232 0
M  V30 41099 H 3912.67 4.31778 0.41831 0
M  V30 41100 H 3913.34 5.22647 1.77607 0
M  V30 41101 H 3915.81 3.402 2.39589 0
M  V30 41102 H 3914.69 4.21733 3.5133 0
M  V30 41103 H 3914.95 2.48612 3.65574 0
M  V30 41104 N 3914.01 -0.55448 1.47524 0
M  V30 41105 C 3915.42 -1.13659 1.48116 0
M  V30 41106 C 3915.77 -1.94759 0.237356 0
M  V30 41107 O 3914.9 -2.06169 -0.657522 0
M  V30 41108 C 3915.49 -2.06792 2.6837 0
M  V30 41109 C 3914.05 -2.6027 2.71913 0
M  V30 41110 C 3913.2 -1.36706 2.41261 0
M  V30 41111 H 3916.15 -0.340943 1.54994 0
M  V30 41112 H 3916.17 -2.9071 2.45495 0
M  V30 41113 H 3915.68 -1.47739 3.5888 0
M  V30 41114 H 3913.78 -3.23113 1.85549 0
M  V30 41115 H 3913.89 -3.01077 3.72679 0
M  V30 41116 H 3912.26 -1.6747 1.919 0
M  V30 41117 H 3913.04 -0.794418 3.33982 0
M  V30 41118 N 3915.49 -1.35701 -0.80143 0
M  V30 41119 C 3916.71 -1.3255 -1.59516 0
M  V30 41120 C 3917.14 0.0933913 -1.87868 0
M  V30 41121 O 3916.49 1.06177 -1.46956 0
M  V30 41122 C 3916.54 -2.14286 -2.90024 0
M  V30 41123 O 3915.65 -1.52711 -3.83084 0
M  V30 41124 H 3914.99 -0.454223 -0.484332 0
M  V30 41125 H 3917.52 -1.78816 -0.994284 0
M  V30 41126 H 3917.53 -2.26429 -3.39402 0
M  V30 41127 H 3916.2 -3.17436 -2.68714 0
M  V30 41128 H 3914.78 -1.49438 -3.41647 0
M  V30 41129 N 3916.96 1.02419 -1.19783 0
M  V30 41130 C 3918.19 1.79252 -1.02725 0
M  V30 41131 C 3918.6 1.8432 0.426937 0
M  V30 41132 O 3917.95 1.28955 1.30829 0
M  V30 41133 C 3918.01 3.25505 -1.526 0
M  V30 41134 C 3917.67 3.44061 -3.00784 0
M  V30 41135 C 3918.67 3.33898 -3.98508 0
M  V30 41136 C 3916.35 3.70124 -3.39579 0
M  V30 41137 C 3918.35 3.49529 -5.33018 0
M  V30 41138 C 3916.03 3.854 -4.74247 0
M  V30 41139 C 3917.03 3.75106 -5.70776 0
M  V30 41140 O 3916.72 3.89925 -7.03004 0
M  V30 41141 H 3916.45 0.570802 -0.362161 0
M  V30 41142 H 3919.01 1.29857 -1.59142 0
M  V30 41143 H 3917.24 3.75946 -0.905616 0
M  V30 41144 H 3918.93 3.83948 -1.31677 0
M  V30 41145 H 3919.69 3.13709 -3.69881 0
M  V30 41146 H 3915.57 3.77227 -2.64993 0
M  V30 41147 H 3919.11 3.41411 -6.08346 0
M  V30 41148 H 3915.01 4.05087 -5.02568 0
M  V30 41149 H 3915.78 4.06988 -7.10143 0
M  V30 41150 N 3918.44 1.0025 1.21604 0
M  V30 41151 C 3919.69 0.684799 1.90888 0
M  V30 41152 C 3920.02 -0.782209 1.7775 0
M  V30 41153 O 3919.3 -1.56674 1.15254 0
M  V30 41154 C 3919.58 1.10346 3.42777 0
M  V30 41155 C 3919.43 2.62973 3.64918 0
M  V30 41156 C 3920.75 0.663953 4.35063 0
M  V30 41157 H 3917.87 0.250251 0.693212 0
M  V30 41158 H 3920.51 1.24774 1.43288 0
M  V30 41159 H 3918.66 0.624483 3.83448 0
M  V30 41160 H 3920.34 3.18615 3.3359 0
M  V30 41161 H 3918.58 3.04602 3.08869 0
M  V30 41162 H 3919.25 2.87319 4.7133 0
M  V30 41163 H 3921.73 1.07551 4.0196 0
M  V30 41164 H 3920.6 0.985082 5.39988 0
M  V30 41165 H 3920.86 -0.435018 4.39955 0
M  V30 41166 N 3919.92 -1.37119 0.776919 0
M  V30 41167 C 3920.87 -2.3021 0.164879 0
M  V30 41168 C 3921.84 -1.51358 -0.68411 0
M  V30 41169 O 3923.02 -1.79909 -0.635396 0
M  V30 41170 C 3920.16 -3.37839 -0.704204 0
M  V30 41171 C 3919.28 -4.31696 0.161957 0
M  V30 41172 C 3918.41 -5.26402 -0.712318 0
M  V30 41173 C 3917.45 -6.11901 0.156061 0
M  V30 41174 N 3916.59 -6.98833 -0.676484 0
M  V30 41175 H 3921.43 -2.81969 0.964235 0
M  V30 41176 H 3918.96 -1.38801 0.487089 0
M  V30 41177 H 3920.92 -3.98873 -1.22295 0
M  V30 41178 H 3919.55 -2.87432 -1.46911 0
M  V30 41179 H 3918.6 -3.71924 0.798557 0
M  V30 41180 H 3919.92 -4.91819 0.831582 0
M  V30 41181 H 3919.07 -5.92667 -1.29735 0
M  V30 41182 H 3917.81 -4.66703 -1.41561 0
M  V30 41183 H 3916.81 -5.44611 0.753588 0
M  V30 41184 H 3918.04 -6.73674 0.856764 0
M  V30 41185 H 3915.99 -6.41656 -1.3643 0
M  V30 41186 H 3915.9 -7.55973 -0.0642688 0
M  V30 41187 H 3917.17 -7.69481 -1.24574 0
M  V30 41188 N 3921.4 -0.527886 -1.48496 0
M  V30 41189 C 3922.81 -0.0868869 -1.86498 0
M  V30 41190 C 3923.16 1.33514 -1.43765 0
M  V30 41191 O 3922.29 1.99956 -0.827432 0
M  V30 41192 C 3922.88 -0.150903 -3.38464 0
M  V30 41193 C 3921.44 0.23489 -3.75666 0
M  V30 41194 C 3920.59 -0.511597 -2.7254 0
M  V30 41195 H 3923.54 -0.739248 -1.40431 0
M  V30 41196 H 3923.56 0.637906 -3.75115 0
M  V30 41197 H 3923.07 -1.18598 -3.69535 0
M  V30 41198 H 3921.17 1.27219 -3.50209 0
M  V30 41199 H 3921.29 -0.103262 -4.78989 0
M  V30 41200 H 3919.65 0.0418834 -2.54666 0
M  V30 41201 H 3920.43 -1.54727 -3.06455 0
M  V30 41202 N 3922.88 1.55391 -0.26292 0
M  V30 41203 C 3924.15 1.91287 0.408491 0
M  V30 41204 C 3924.53 1.18569 1.74655 0
M  V30 41205 O 3923.88 0.308462 2.26408 0
M  V30 41206 C 3924.09 3.44465 0.560804 0
M  V30 41207 C 3925.44 4.16019 0.849328 0
M  V30 41208 O 3926.46 3.50292 0.646072 0
M  V30 41209 O 3925.32 5.32309 1.23732 0
M  V30 41210 H 3922.42 0.796731 0.221693 0
M  V30 41211 H 3924.96 1.66878 -0.308172 0
M  V30 41212 H 3923.74 3.89437 -0.381347 0
M  V30 41213 H 3923.36 3.74788 1.3274 0
M  V30 41214 N 3924.36 -0.00997961 1.57597 0
M  V30 41215 C 3925.58 -0.711817 1.94802 0
M  V30 41216 C 3926.01 -1.67063 0.864373 0
M  V30 41217 O 3925.36 -1.80421 -0.178357 0
M  V30 41218 C 3925.41 -1.42856 3.31096 0
M  V30 41219 O 3924.52 -2.54258 3.24694 0
M  V30 41220 H 3923.86 -0.190084 0.636211 0
M  V30 41221 H 3926.39 0.0402376 2.0456 0
M  V30 41222 H 3926.4 -1.79422 3.66431 0
M  V30 41223 H 3925.07 -0.725477 4.09524 0
M  V30 41224 H 3923.65 -2.20093 3.0102 0
M  V30 41225 N 3925.83 -1.55046 -0.282578 0
M  V30 41226 C 3927.08 -1.7546 -1.01694 0
M  V30 41227 C 3927.41 -0.548841 -1.86283 0
M  V30 41228 O 3926.69 0.453787 -1.89132 0
M  V30 41229 C 3926.97 -3.05426 -1.90754 0
M  V30 41230 C 3926.82 -4.36338 -1.09222 0
M  V30 41231 C 3928.14 -3.3137 -2.89624 0
M  V30 41232 H 3925.26 -0.63838 -0.368294 0
M  V30 41233 H 3927.9 -1.87772 -0.290085 0
M  V30 41234 H 3926.05 -2.9506 -2.52729 0
M  V30 41235 H 3927.73 -4.58648 -0.493915 0
M  V30 41236 H 3925.97 -4.31994 -0.395406 0
M  V30 41237 H 3926.64 -5.23581 -1.74833 0
M  V30 41238 H 3929.12 -3.41466 -2.37782 0
M  V30 41239 H 3927.99 -4.2359 -3.49089 0
M  V30 41240 H 3928.25 -2.50547 -3.64251 0
M  V30 41241 N 3927.31 0.546649 -1.47816 0
M  V30 41242 C 3928.54 1.33328 -1.58866 0
M  V30 41243 C 3928.96 1.86523 -0.243052 0
M  V30 41244 O 3928.32 1.63532 0.782748 0
M  V30 41245 C 3928.37 2.47173 -2.6256 0
M  V30 41246 O 3927.47 3.49719 -2.18564 0
M  V30 41247 H 3926.81 0.395589 -0.533297 0
M  V30 41248 H 3929.34 0.659545 -1.93678 0
M  V30 41249 H 3929.35 2.93595 -2.83313 0
M  V30 41250 H 3928.03 2.07813 -3.60259 0
M  V30 41251 H 3926.6 3.0953 -2.07955 0
M  V30 41252 N 3928.79 1.36124 0.794222 0
M  V30 41253 C 3930.02 1.33231 1.58295 0
M  V30 41254 C 3930.43 -0.0875095 1.88597 0
M  V30 41255 O 3929.79 -1.04304 1.49756 0
M  V30 41256 C 3929.84 2.14909 2.90683 0
M  V30 41257 O 3929.56 3.51355 2.61689 0
M  V30 41258 C 3931.06 2.19741 3.85005 0
M  V30 41259 H 3928.28 0.457199 0.491131 0
M  V30 41260 H 3930.83 1.79155 0.986097 0
M  V30 41261 H 3928.98 1.72552 3.46849 0
M  V30 41262 H 3929.4 3.9392 3.46306 0
M  V30 41263 H 3930.87 2.81258 4.74972 0
M  V30 41264 H 3931.35 1.19954 4.22502 0
M  V30 41265 H 3931.95 2.62312 3.34772 0
M  V30 41266 N 3930.27 -1.01782 1.20325 0
M  V30 41267 C 3931.49 -1.795 1.03896 0
M  V30 41268 C 3931.92 -1.83635 -0.407388 0
M  V30 41269 O 3931.28 -1.27051 -1.29336 0
M  V30 41270 C 3931.32 -3.21876 1.62567 0
M  V30 41271 O 3930.43 -4.03281 0.862469 0
M  V30 41272 H 3929.77 -0.553699 0.366488 0
M  V30 41273 H 3932.3 -1.28031 1.59591 0
M  V30 41274 H 3932.31 -3.72592 1.66251 0
M  V30 41275 H 3930.98 -3.18181 2.67831 0
M  V30 41276 H 3929.56 -3.61882 0.89975 0
M  V30 41277 N 3931.75 -1.00894 -1.21071 0
M  V30 41278 C 3933.02 -0.609247 -1.8587 0
M  V30 41279 C 3933.4 0.91299 -1.90336 0
M  V30 41280 O 3932.75 1.80157 -1.40556 0
M  V30 41281 C 3932.96 -1.24818 -3.25916 0
M  V30 41282 C 3934.31 -1.35879 -4.02271 0
M  V30 41283 O 3935.33 -1.2038 -3.35242 0
M  V30 41284 O 3934.19 -1.60847 -5.22294 0
M  V30 41285 H 3931.29 -0.209204 -0.800102 0
M  V30 41286 H 3933.83 -1.10583 -1.28722 0
M  V30 41287 H 3932.6 -2.28868 -3.17388 0
M  V30 41288 H 3932.23 -0.738193 -3.90687 0
M  V30 41289 N 3933.22 1.36705 -0.78418 0
M  V30 41290 C 3934.15 2.327 -0.193122 0
M  V30 41291 C 3935.14 1.56393 0.668972 0
M  V30 41292 O 3936.32 1.84572 0.603875 0
M  V30 41293 C 3933.45 3.40637 0.677032 0
M  V30 41294 C 3932.4 4.27916 -0.084747 0
M  V30 41295 C 3931.73 5.26974 0.905661 0
M  V30 41296 C 3933.03 5.06601 -1.27094 0
M  V30 41297 H 3934.72 2.8238 -0.995078 0
M  V30 41298 H 3932.27 1.35766 -0.479953 0
M  V30 41299 H 3934.22 4.06778 1.10042 0
M  V30 41300 H 3932.95 2.89512 1.51164 0
M  V30 41301 H 3931.61 3.63323 -0.489056 0
M  V30 41302 H 3931.25 4.72124 1.73516 0
M  V30 41303 H 3930.95 5.86234 0.400421 0
M  V30 41304 H 3932.48 5.9599 1.32773 0
M  V30 41305 H 3933.89 5.65812 -0.923569 0
M  V30 41306 H 3932.29 5.75247 -1.70911 0
M  V30 41307 H 3933.36 4.38548 -2.0689 0
M  V30 41308 N 3934.7 0.535753 1.48214 0
M  V30 41309 C 3935.95 0.00375569 2.021 0
M  V30 41310 C 3936.27 -1.34218 1.41458 0
M  V30 41311 O 3935.54 -1.87054 0.58202 0
M  V30 41312 H 3934.12 -0.00159982 0.746998 0
M  V30 41313 H 3936.78 0.700895 1.81861 0
M  V30 41314 H 3935.88 -0.100297 3.11939 0
M  V30 41315 N 3936.18 -1.5525 0.271158 0
M  V30 41316 C 3937.41 -2.04372 -0.353103 0
M  V30 41317 C 3937.83 -1.14838 -1.48976 0
M  V30 41318 O 3937.19 -0.14617 -1.8071 0
M  V30 41319 C 3937.24 -3.51261 -0.815363 0
M  V30 41320 O 3936.34 -3.64824 -1.92295 0
M  V30 41321 H 3935.68 -0.659907 -0.0736091 0
M  V30 41322 H 3938.21 -2.00566 0.404301 0
M  V30 41323 H 3938.22 -3.92549 -1.11217 0
M  V30 41324 H 3936.9 -4.15897 0.016281 0
M  V30 41325 H 3935.47 -3.35438 -1.62899 0
M  V30 41326 N 3937.66 0.00162173 -1.576 0
M  V30 41327 C 3938.59 0.992517 -2.11356 0
M  V30 41328 C 3939.57 1.35951 -1.02232 0
M  V30 41329 O 3940.75 1.44354 -1.29906 0
M  V30 41330 C 3937.88 2.28489 -2.61553 0
M  V30 41331 C 3936.84 2.05956 -3.75188 0
M  V30 41332 C 3936.16 3.41192 -4.11694 0
M  V30 41333 C 3937.46 1.42346 -5.02528 0
M  V30 41334 H 3939.16 0.544934 -2.94399 0
M  V30 41335 H 3936.7 0.260677 -1.41621 0
M  V30 41336 H 3938.66 2.98163 -2.97787 0
M  V30 41337 H 3937.38 2.75358 -1.75629 0
M  V30 41338 H 3936.04 1.38708 -3.39346 0
M  V30 41339 H 3935.69 3.85761 -3.22796 0
M  V30 41340 H 3935.39 3.26932 -4.88251 0
M  V30 41341 H 3936.91 4.12184 -4.50485 0
M  V30 41342 H 3938.33 2.01974 -5.36544 0
M  V30 41343 H 3936.72 1.38579 -5.8388 0
M  V30 41344 H 3937.79 0.39248 -4.83309 0
M  V30 41345 N 3939.14 1.55194 0.274352 0
M  V30 41346 C 3940.39 1.74942 1.00391 0
M  V30 41347 C 3940.7 0.557117 1.87498 0
M  V30 41348 O 3941.9 0.636983 2.63922 0
M  V30 41349 C 3940.36 3.09616 1.83483 0
M  V30 41350 C 3939.97 4.36409 1.01249 0
M  V30 41351 C 3941.71 3.38714 2.55877 0
M  V30 41352 C 3939.62 5.62122 1.83772 0
M  V30 41353 H 3938.55 0.652086 0.378549 0
M  V30 41354 H 3941.2 1.81654 0.259646 0
M  V30 41355 H 3939.58 2.96938 2.62 0
M  V30 41356 H 3940.76 4.59999 0.271589 0
M  V30 41357 H 3939.07 4.14444 0.403162 0
M  V30 41358 H 3941.67 4.29845 3.18021 0
M  V30 41359 H 3942.01 2.58785 3.26092 0
M  V30 41360 H 3942.54 3.52484 1.84391 0
M  V30 41361 H 3939.28 6.44795 1.17981 0
M  V30 41362 H 3938.8 5.42677 2.55464 0
M  V30 41363 H 3940.48 6.00371 2.4117 0
M  V30 41364 N 3940.61 -0.538802 1.48104 0
M  V30 41365 C 3941.89 -1.2999 1.46158 0
M  V30 41366 C 3942.27 -2.10427 0.168447 0
M  V30 41367 O 3941.62 -2.12105 -0.849929 0
M  V30 41368 C 3941.83 -2.18883 2.7183 0
M  V30 41369 C 3943.18 -2.79309 3.19799 0
M  V30 41370 O 3944.2 -2.29175 2.72685 0
M  V30 41371 O 3943.06 -3.70478 4.01757 0
M  V30 41372 H 3940.15 -0.586248 0.583303 0
M  V30 41373 H 3942.7 -0.556184 1.60327 0
M  V30 41374 H 3941.47 -1.59169 3.57464 0
M  V30 41375 H 3941.1 -3.00517 2.60337 0
M  V30 41376 N 3942.09 -1.36544 -0.786992 0
M  V30 41377 C 3943.33 -1.32292 -1.55814 0
M  V30 41378 C 3943.7 0.0960822 -1.91759 0
M  V30 41379 O 3944.9 0.263173 -2.67509 0
M  V30 41380 C 3943.17 -2.22203 -2.7993 0
M  V30 41381 S 3944.73 -2.35658 -3.7015 0
M  V30 41382 H 3941.55 -0.469857 -0.533625 0
M  V30 41383 H 3944.15 -1.7214 -0.926725 0
M  V30 41384 H 3942.85 -3.24248 -2.51578 0
M  V30 41385 H 3942.38 -1.83384 -3.48043 0
M  V30 41386 H 3944.4 -1.55587 -4.71176 0
M  V30 41387 N 3943.57 1.01143 -1.20863 0
M  V30 41388 C 3944.52 2.11908 -0.959042 0
M  V30 41389 C 3945.51 1.69153 0.091444 0
M  V30 41390 O 3946.72 1.79902 -0.0593759 0
M  V30 41391 H 3943.09 0.69264 -0.292837 0
M  V30 41392 H 3945.06 2.30141 -1.89941 0
M  V30 41393 C 3943.81 3.43586 -0.533319 0
M  V30 41394 H 3943.14 3.76914 -1.33325 0
M  V30 41395 H 3944.58 4.22128 -0.397942 0
M  V30 41396 C 3943.04 3.28332 0.754953 0
M  V30 41397 O 3943.57 3.58505 1.8121 0
M  V30 41398 N 3941.77 2.81565 0.718977 0
M  V30 41399 H 3941.32 2.57211 -0.14159 0
M  V30 41400 H 3941.28 2.71741 1.58127 0
M  V30 41401 N 3945.05 1.01535 1.20534 0
M  V30 41402 C 3946.01 0.589337 2.21494 0
M  V30 41403 C 3947.01 -0.339843 1.57168 0
M  V30 41404 O 3948.2 -0.128705 1.73724 0
M  V30 41405 C 3945.33 -0.139563 3.40614 0
M  V30 41406 H 3946.53 1.48246 2.60698 0
M  V30 41407 H 3944.08 0.805 1.33976 0
M  V30 41408 H 3944.81 -1.04765 3.06912 0
M  V30 41409 H 3944.6 0.527919 3.8853 0
M  V30 41410 H 3946.09 -0.42501 4.15432 0
M  V30 41411 N 3946.53 -1.36288 0.791419 0
M  V30 41412 C 3947.49 -2.28351 0.19711 0
M  V30 41413 C 3948.49 -1.48914 -0.606722 0
M  V30 41414 O 3949.68 -1.68875 -0.427423 0
M  V30 41415 C 3946.81 -3.33059 -0.726951 0
M  V30 41416 H 3948 -2.8242 1.0089 0
M  V30 41417 H 3945.56 -1.45886 0.560984 0
M  V30 41418 H 3946.29 -2.84149 -1.56301 0
M  V30 41419 H 3946.08 -3.91803 -0.152468 0
M  V30 41420 H 3947.57 -4.01807 -1.13758 0
M  V30 41421 N 3948.01 -0.543606 -1.47928 0
M  V30 41422 C 3949.23 -0.016927 -2.07393 0
M  V30 41423 C 3949.66 1.26115 -1.39559 0
M  V30 41424 O 3949.01 1.75208 -0.466013 0
M  V30 41425 C 3949.06 0.176041 -3.6017 0
M  V30 41426 O 3948.17 1.24171 -3.93263 0
M  V30 41427 H 3947.51 -0.0452243 -0.662458 0
M  V30 41428 H 3950.04 -0.755409 -1.90144 0
M  V30 41429 H 3950.05 0.394483 -4.06088 0
M  V30 41430 H 3948.72 -0.757517 -4.08943 0
M  V30 41431 H 3947.3 1.00484 -3.59106 0
M  V30 41432 N 3949.48 1.55104 -0.279387 0
M  V30 41433 C 3950.73 1.99986 0.336668 0
M  V30 41434 C 3951.06 1.16755 1.55184 0
M  V30 41435 O 3950.34 0.23866 1.9303 0
M  V30 41436 C 3950.62 3.52938 0.714639 0
M  V30 41437 C 3950.47 4.4692 -0.508167 0
M  V30 41438 C 3951.79 4.11922 1.54946 0
M  V30 41439 H 3948.91 0.727017 0.120896 0
M  V30 41440 H 3951.55 1.86013 -0.387183 0
M  V30 41441 H 3949.7 3.64975 1.33136 0
M  V30 41442 H 3951.38 4.4682 -1.14672 0
M  V30 41443 H 3949.62 4.18404 -1.14545 0
M  V30 41444 H 3950.29 5.51638 -0.199879 0
M  V30 41445 H 3952.77 4.03187 1.02857 0
M  V30 41446 H 3951.64 5.19143 1.78273 0
M  V30 41447 H 3951.9 3.62422 2.53186 0
M  V30 41448 N 3950.96 0.0067362 1.57599 0
M  V30 41449 C 3951.91 -1.00067 2.09975 0
M  V30 41450 C 3952.9 -1.35156 1.02123 0
M  V30 41451 O 3954.11 -1.33642 1.20582 0
M  V30 41452 H 3950.48 -0.340387 0.670553 0
M  V30 41453 H 3952.46 -0.533419 2.93594 0
M  V30 41454 C 3951.2 -2.28149 2.6238 0
M  V30 41455 H 3950.53 -2.02018 3.45006 0
M  V30 41456 H 3951.97 -2.96899 3.02699 0
M  V30 41457 C 3950.43 -2.99592 1.54098 0
M  V30 41458 O 3950.96 -3.90839 0.927791 0
M  V30 41459 N 3949.16 -2.61534 1.26681 0
M  V30 41460 H 3948.71 -1.87414 1.76731 0
M  V30 41461 H 3948.67 -3.09649 0.544518 0
M  V30 41462 N 3952.44 -1.55337 -0.266118 0
M  V30 41463 C 3953.37 -1.85109 -1.35156 0
M  V30 41464 C 3954.38 -0.736031 -1.45212 0
M  V30 41465 O 3955.57 -1.01396 -1.46905 0
M  V30 41466 C 3952.67 -2.00516 -2.73215 0
M  V30 41467 C 3951.85 -3.31231 -2.85665 0
M  V30 41468 C 3950.91 -3.36618 -4.04444 0
M  V30 41469 O 3949.93 -4.09952 -3.94877 0
M  V30 41470 N 3951.13 -2.64518 -5.16731 0
M  V30 41471 H 3953.9 -2.788 -1.09959 0
M  V30 41472 H 3951.46 -1.55339 -0.456234 0
M  V30 41473 H 3953.45 -2.01483 -3.5098 0
M  V30 41474 H 3952.02 -1.13661 -2.91204 0
M  V30 41475 H 3951.24 -3.42745 -1.9473 0
M  V30 41476 H 3952.53 -4.17424 -2.9092 0
M  V30 41477 H 3951.93 -2.04633 -5.27392 0
M  V30 41478 H 3950.48 -2.71199 -5.92701 0
M  V30 41479 N 3953.92 0.53094 -1.48387 0
M  V30 41480 C 3955.17 1.28329 -1.5561 0
M  V30 41481 C 3955.48 1.94189 -0.234513 0
M  V30 41482 O 3956.69 2.70869 -0.184974 0
M  V30 41483 C 3955.14 2.32847 -2.74427 0
M  V30 41484 C 3954.75 1.73061 -4.13224 0
M  V30 41485 C 3956.49 3.09098 -2.90962 0
M  V30 41486 C 3954.4 2.75513 -5.23303 0
M  V30 41487 H 3953.33 0.482627 -0.579299 0
M  V30 41488 H 3955.98 0.560854 -1.74719 0
M  V30 41489 H 3954.36 3.08122 -2.4875 0
M  V30 41490 H 3955.54 1.03981 -4.48915 0
M  V30 41491 H 3953.85 1.09305 -4.01798 0
M  V30 41492 H 3956.45 3.85655 -3.7037 0
M  V30 41493 H 3956.79 3.64901 -2.00382 0
M  V30 41494 H 3957.33 2.40937 -3.16534 0
M  V30 41495 H 3954.06 2.24531 -6.15846 0
M  V30 41496 H 3953.58 3.42924 -4.92101 0
M  V30 41497 H 3955.26 3.38517 -5.51376 0
M  V30 41498 N 3955.4 1.36959 0.779739 0
M  V30 41499 C 3956.64 1.31921 1.54028 0
M  V30 41500 C 3956.97 -0.0985344 1.9395 0
M  V30 41501 O 3956.25 -1.0541 1.63459 0
M  V30 41502 C 3956.53 2.25093 2.81079 0
M  V30 41503 C 3956.39 3.75609 2.47462 0
M  V30 41504 C 3957.7 2.16856 3.82964 0
M  V30 41505 H 3954.82 0.480535 0.558798 0
M  V30 41506 H 3957.47 1.67593 0.895122 0
M  V30 41507 H 3955.62 1.94802 3.36132 0
M  V30 41508 H 3957.29 4.16462 1.98386 0
M  V30 41509 H 3955.53 3.9457 1.80269 0
M  V30 41510 H 3956.2 4.36226 3.38247 0
M  V30 41511 H 3958.68 2.4354 3.37383 0
M  V30 41512 H 3957.55 2.84203 4.69596 0
M  V30 41513 H 3957.81 1.15892 4.2664 0
M  V30 41514 N 3956.87 -1.00501 1.21398 0
M  V30 41515 C 3957.8 -2.1113 0.997306 0
M  V30 41516 C 3958.78 -1.69922 -0.0777156 0
M  V30 41517 O 3959.97 -1.94026 0.0821141 0
M  V30 41518 C 3957.1 -3.42736 0.561182 0
M  V30 41519 C 3956.05 -3.97738 1.58076 0
M  V30 41520 C 3955.38 -5.25249 1.00088 0
M  V30 41521 C 3956.68 -4.29802 2.96762 0
M  V30 41522 H 3958.37 -2.29514 1.92259 0
M  V30 41523 H 3955.92 -1.10295 0.925795 0
M  V30 41524 H 3957.87 -4.19528 0.396774 0
M  V30 41525 H 3956.6 -3.24144 -0.399747 0
M  V30 41526 H 3955.26 -3.23066 1.73274 0
M  V30 41527 H 3954.9 -5.0299 0.0316681 0
M  V30 41528 H 3954.6 -5.63014 1.68192 0
M  V30 41529 H 3956.13 -6.04686 0.847793 0
M  V30 41530 H 3957.54 -4.97436 2.85009 0
M  V30 41531 H 3955.94 -4.7871 3.61879 0
M  V30 41532 H 3957.01 -3.38078 3.47608 0
M  V30 41533 N 3958.35 -1.02172 -1.19994 0
M  V30 41534 C 3959.77 -0.737498 -1.41538 0
M  V30 41535 C 3959.97 0.680798 -1.89651 0
M  V30 41536 O 3959.02 1.44783 -2.06867 0
M  V30 41537 C 3960.34 -1.76755 -2.43265 0
M  V30 41538 C 3961.88 -1.78628 -2.57024 0
M  V30 41539 C 3962.36 -2.80573 -3.61998 0
M  V30 41540 N 3963.85 -2.79345 -3.69487 0
M  V30 41541 C 3964.59 -3.54882 -4.50385 0
M  V30 41542 N 3964.08 -4.40112 -5.35045 0
M  V30 41543 N 3965.87 -3.43456 -4.44966 0
M  V30 41544 H 3958.03 -1.93728 -0.870821 0
M  V30 41545 H 3960.29 -0.837145 -0.444851 0
M  V30 41546 H 3959.99 -2.7839 -2.14922 0
M  V30 41547 H 3959.87 -1.58392 -3.42333 0
M  V30 41548 H 3962.26 -0.776745 -2.84694 0
M  V30 41549 H 3962.34 -2.01065 -1.58134 0
M  V30 41550 H 3961.98 -3.81693 -3.35071 0
M  V30 41551 H 3961.91 -2.55396 -4.60522 0
M  V30 41552 H 3964.4 -2.17524 -3.09018 0
M  V30 41553 H 3964.71 -4.94505 -5.93872 0
M  V30 41554 H 3963.06 -4.44188 -5.3453 0
M  V30 41555 H 3966.25 -2.7629 -3.77864 0
M  V30 41556 H 3966.42 -4.02578 -5.07775 0
M  V30 41557 N 3959.83 1.35866 -0.798635 0
M  V30 41558 C 3960.78 2.31811 -0.191465 0
M  V30 41559 C 3961.77 1.56252 0.654353 0
M  V30 41560 O 3962.98 1.71442 0.548405 0
M  V30 41561 H 3959.35 0.750761 -0.0431475 0
M  V30 41562 H 3961.32 2.80573 -1.01594 0
M  V30 41563 C 3960.07 3.41535 0.651852 0
M  V30 41564 H 3959.4 3.99799 0.0103606 0
M  V30 41565 H 3960.84 4.10966 1.04321 0
M  V30 41566 C 3959.29 2.83892 1.81402 0
M  V30 41567 O 3959.82 2.76799 2.9111 0
M  V30 41568 N 3958.03 2.41052 1.62304 0
M  V30 41569 H 3957.58 2.4702 0.730665 0
M  V30 41570 H 3957.54 2.02832 2.40222 0
M  V30 41571 N 3961.31 0.551443 1.47638 0
M  V30 41572 C 3962.53 0.0279253 2.07381 0
M  V30 41573 C 3962.96 -1.25373 1.40226 0
M  V30 41574 O 3962.32 -1.74959 0.475299 0
M  V30 41575 C 3962.36 -0.156938 3.60258 0
M  V30 41576 O 3961.47 -1.22083 3.93915 0
M  V30 41577 H 3960.81 0.0487368 0.662209 0
M  V30 41578 H 3963.34 0.765482 1.89741 0
M  V30 41579 H 3963.35 -0.372942 4.06292 0
M  V30 41580 H 3962.02 0.779194 4.08536 0
M  V30 41581 H 3960.6 -0.98578 3.59634 0
M  V30 41582 N 3962.79 -1.54953 0.287609 0
M  V30 41583 C 3963.73 -2.24451 -0.610276 0
M  V30 41584 C 3964.73 -1.24584 -1.14784 0
M  V30 41585 O 3965.93 -1.42476 -1.10002 0
M  V30 41586 H 3962.31 -0.720496 -0.215381 0
M  V30 41587 H 3964.28 -2.984 -0.00142875 0
M  V30 41588 C 3963.03 -2.98853 -1.77714 0
M  V30 41589 H 3962.35 -3.75496 -1.3727 0
M  V30 41590 H 3963.79 -3.50783 -2.38175 0
M  V30 41591 C 3962.25 -2.05043 -2.67318 0
M  V30 41592 O 3962.78 -1.60975 -3.68035 0
M  V30 41593 N 3960.99 -1.7128 -2.34758 0
M  V30 41594 H 3960.53 -2.07313 -1.52902 0
M  V30 41595 H 3960.49 -1.08786 -2.9498 0
M  V30 41596 N 3964.26 -0.0150939 -1.57593 0
M  V30 41597 C 3965.51 0.665249 -1.90837 0
M  V30 41598 C 3965.83 1.73468 -0.890724 0
M  V30 41599 O 3965.1 1.95776 0.0697769 0
M  V30 41600 H 3963.68 0.248708 -0.704381 0
M  V30 41601 H 3966.35 -0.0595863 -1.94809 0
M  V30 41602 H 3965.44 1.12692 -2.91044 0
M  V30 41603 N 3965.74 1.55476 0.257876 0
M  V30 41604 C 3966.71 1.886 1.30241 0
M  V30 41605 C 3967.71 0.761629 1.41619 0
M  V30 41606 O 3968.9 1.02971 1.40509 0
M  V30 41607 C 3966.03 2.10471 2.68169 0
M  V30 41608 H 3967.22 2.81988 1.02093 0
M  V30 41609 H 3964.77 1.48199 0.496659 0
M  V30 41610 H 3965.51 1.19515 3.01474 0
M  V30 41611 H 3965.29 2.92349 2.61294 0
M  V30 41612 H 3966.78 2.37319 3.43612 0
M  V30 41613 N 3967.22 -0.523064 1.48667 0
M  V30 41614 C 3968.46 -1.28892 1.58639 0
M  V30 41615 C 3968.82 -1.90266 0.257436 0
M  V30 41616 O 3970.03 -2.67795 0.232186 0
M  V30 41617 C 3968.3 -2.34401 2.69798 0
M  V30 41618 S 3969.86 -3.2062 2.9958 0
M  V30 41619 H 3966.67 -0.438343 0.559801 0
M  V30 41620 H 3969.28 -0.595105 1.86222 0
M  V30 41621 H 3967.98 -1.87805 3.64908 0
M  V30 41622 H 3967.51 -3.08481 2.44138 0
M  V30 41623 H 3969.53 -4.34624 2.39408 0
M  V30 41624 N 3968.7 -1.37371 -0.772465 0
M  V30 41625 C 3969.95 -1.31863 -1.52627 0
M  V30 41626 C 3970.26 0.0947451 -1.9537 0
M  V30 41627 O 3971.47 0.272283 -2.70131 0
M  V30 41628 C 3969.92 -2.31453 -2.75604 0
M  V30 41629 C 3969.53 -3.78315 -2.39962 0
M  V30 41630 C 3971.27 -2.34954 -3.53549 0
M  V30 41631 C 3969.18 -4.69637 -3.59437 0
M  V30 41632 H 3968.11 -0.490076 -0.573011 0
M  V30 41633 H 3970.76 -1.62827 -0.84615 0
M  V30 41634 H 3969.14 -1.93506 -3.45502 0
M  V30 41635 H 3970.32 -4.25094 -1.77853 0
M  V30 41636 H 3968.63 -3.77752 -1.75193 0
M  V30 41637 H 3971.23 -3.00387 -4.42348 0
M  V30 41638 H 3971.57 -1.36294 -3.93357 0
M  V30 41639 H 3972.11 -2.71605 -2.90647 0
M  V30 41640 H 3968.85 -5.69423 -3.24711 0
M  V30 41641 H 3968.37 -4.27563 -4.20654 0
M  V30 41642 H 3970.04 -4.86737 -4.26259 0
M  V30 41643 N 3970.18 0.998553 -1.21929 0
M  V30 41644 C 3971.42 1.7408 -1.05202 0
M  V30 41645 C 3971.78 1.87995 0.409354 0
M  V30 41646 O 3971.07 1.40791 1.29956 0
M  V30 41647 C 3971.26 3.14908 -1.69021 0
M  V30 41648 C 3971.09 3.14726 -3.21213 0
M  V30 41649 C 3969.86 3.20939 -3.9029 0
M  V30 41650 C 3972.06 2.99327 -4.1822 0
M  V30 41651 N 3970.04 3.10451 -5.29616 0
M  V30 41652 C 3971.41 2.96807 -5.4434 0
M  V30 41653 C 3973.47 2.83677 -4.09184 0
M  V30 41654 C 3972.17 2.80239 -6.62464 0
M  V30 41655 C 3974.2 2.68468 -5.26952 0
M  V30 41656 C 3973.56 2.6663 -6.51988 0
M  V30 41657 H 3969.66 0.64691 -0.439353 0
M  V30 41658 H 3972.24 1.18634 -1.54383 0
M  V30 41659 H 3970.41 3.6861 -1.22399 0
M  V30 41660 H 3972.15 3.77663 -1.45439 0
M  V30 41661 H 3968.9 3.28394 -3.41254 0
M  V30 41662 H 3969.33 3.08532 -6.02608 0
M  V30 41663 H 3973.97 2.839 -3.13306 0
M  V30 41664 H 3971.69 2.78763 -7.58496 0
M  V30 41665 H 3975.27 2.57349 -5.21788 0
M  V30 41666 H 3974.15 2.55003 -7.41582 0
M  V30 41667 N 3971.65 1.02807 1.1945 0
M  V30 41668 C 3972.6 0.60169 2.24683 0
M  V30 41669 C 3973.6 -0.36529 1.65415 0
M  V30 41670 O 3974.8 -0.233956 1.78473 0
M  V30 41671 H 3971.18 0.176308 0.73104 0
M  V30 41672 H 3973.15 1.49989 2.57965 0
M  V30 41673 C 3971.9 -0.0324904 3.47685 0
M  V30 41674 H 3971.22 0.702601 3.93578 0
M  V30 41675 H 3972.66 -0.293785 4.22981 0
M  V30 41676 C 3971.12 -1.27881 3.11686 0
M  V30 41677 O 3971.65 -2.37096 3.24266 0
M  V30 41678 N 3969.86 -1.16727 2.66126 0
M  V30 41679 H 3969.4 -0.27855 2.5609 0
M  V30 41680 H 3969.36 -2.00211 2.42411 0
M  V30 41681 N 3973.13 -1.35441 0.805829 0
M  V30 41682 C 3974.1 -2.28129 0.221318 0
M  V30 41683 C 3975.1 -1.4955 -0.590893 0
M  V30 41684 O 3976.29 -1.69319 -0.409488 0
M  V30 41685 C 3973.42 -3.33811 -0.691585 0
M  V30 41686 H 3974.61 -2.81334 1.0388 0
M  V30 41687 H 3972.16 -1.45283 0.576426 0
M  V30 41688 H 3972.9 -2.85791 -1.53278 0
M  V30 41689 H 3972.68 -3.91943 -0.110903 0
M  V30 41690 H 3974.17 -4.02991 -1.09489 0
M  V30 41691 N 3974.61 -0.559265 -1.47343 0
M  V30 41692 C 3975.57 0.17684 -2.28517 0
M  V30 41693 C 3976.57 0.840799 -1.37066 0
M  V30 41694 O 3977.76 0.696345 -1.59677 0
M  V30 41695 C 3974.9 1.25887 -3.16805 0
M  V30 41696 H 3976.09 -0.536226 -2.95067 0
M  V30 41697 H 3973.64 -0.31629 -1.53066 0
M  V30 41698 H 3974.38 2.00426 -2.5495 0
M  V30 41699 H 3974.16 0.787557 -3.84109 0
M  V30 41700 H 3975.65 1.77582 -3.77961 0
M  V30 41701 N 3976.09 1.54799 -0.295822 0
M  V30 41702 C 3977.05 2.22008 0.56966 0
M  V30 41703 C 3978.05 1.20447 1.06533 0
M  V30 41704 O 3979.24 1.45216 0.962186 0
M  V30 41705 C 3976.37 2.90237 1.78816 0
M  V30 41706 H 3977.57 2.99895 -0.0174675 0
M  V30 41707 H 3975.12 1.5623 -0.0466087 0
M  V30 41708 H 3975.85 2.16416 2.41526 0
M  V30 41709 H 3975.64 3.64683 1.44044 0
M  V30 41710 H 3977.13 3.41524 2.40315 0
M  V30 41711 N 3977.57 0.0234513 1.57583 0
M  V30 41712 C 3978.8 -0.665796 1.95578 0
M  V30 41713 C 3979.21 -1.66519 0.898222 0
M  V30 41714 O 3978.55 -1.83246 -0.129077 0
M  V30 41715 C 3978.61 -1.43339 3.29688 0
M  V30 41716 C 3978.27 -0.592968 4.53137 0
M  V30 41717 C 3979.27 0.129342 5.19739 0
M  V30 41718 C 3976.96 -0.532037 4.99474 0
M  V30 41719 C 3978.95 0.901317 6.30995 0
M  V30 41720 C 3976.64 0.243647 6.10614 0
M  V30 41721 C 3977.64 0.959036 6.76233 0
M  V30 41722 O 3977.32 1.72202 7.8524 0
M  V30 41723 H 3977.06 -0.188842 0.649088 0
M  V30 41724 H 3979.61 0.0777885 2.05253 0
M  V30 41725 H 3977.84 -2.22199 3.16488 0
M  V30 41726 H 3979.53 -2.01021 3.52627 0
M  V30 41727 H 3980.29 0.0915664 4.84914 0
M  V30 41728 H 3976.17 -1.07842 4.48209 0
M  V30 41729 H 3979.72 1.46023 6.82146 0
M  V30 41730 H 3975.61 0.28316 6.44879 0
M  V30 41731 H 3976.38 1.64119 8.01877 0
M  V30 41732 N 3979.05 -1.5561 -0.249627 0
M  V30 41733 C 3979.98 -1.85053 -1.33531 0
M  V30 41734 C 3980.96 -0.705399 -1.46502 0
M  V30 41735 O 3982.14 -0.95087 -1.6276 0
M  V30 41736 C 3979.27 -2.03283 -2.70913 0
M  V30 41737 C 3978.31 -3.25913 -2.75105 0
M  V30 41738 S 3979.15 -4.8264 -2.3199 0
M  V30 41739 C 3980.3 -5.03871 -3.71301 0
M  V30 41740 H 3980.54 -2.7685 -1.08357 0
M  V30 41741 H 3978.07 -1.47682 -0.450472 0
M  V30 41742 H 3980.03 -2.1447 -3.50018 0
M  V30 41743 H 3978.69 -1.12333 -2.93326 0
M  V30 41744 H 3977.88 -3.35626 -3.75993 0
M  V30 41745 H 3977.48 -3.13438 -2.04041 0
M  V30 41746 H 3979.77 -4.91047 -4.66775 0
M  V30 41747 H 3980.72 -6.05859 -3.66524 0
M  V30 41748 H 3981.13 -4.31731 -3.63688 0
M  V30 41749 N 3980.52 0.515172 -1.48942 0
M  V30 41750 C 3981.47 1.61825 -1.64564 0
M  V30 41751 C 3982.44 1.58789 -0.487351 0
M  V30 41752 O 3983.63 1.76991 -0.712657 0
M  V30 41753 C 3980.77 3.00033 -1.70511 0
M  V30 41754 C 3979.88 3.13192 -2.97548 0
M  V30 41755 C 3979.01 4.42048 -2.94563 0
M  V30 41756 C 3978.05 4.48788 -4.1624 0
M  V30 41757 N 3977.19 5.69053 -4.11246 0
M  V30 41758 H 3982.03 1.47813 -2.58757 0
M  V30 41759 H 3979.57 0.719401 -1.28308 0
M  V30 41760 H 3981.52 3.80122 -1.7194 0
M  V30 41761 H 3980.15 3.12782 -0.797962 0
M  V30 41762 H 3979.21 2.26259 -3.05796 0
M  V30 41763 H 3980.52 3.14032 -3.87537 0
M  V30 41764 H 3979.67 5.30442 -2.94476 0
M  V30 41765 H 3978.41 4.43751 -2.02328 0
M  V30 41766 H 3977.42 3.58798 -4.16586 0
M  V30 41767 H 3978.64 4.48812 -5.09652 0
M  V30 41768 H 3976.59 5.71625 -3.2184 0
M  V30 41769 H 3976.5 5.7145 -4.94956 0
M  V30 41770 H 3977.77 6.59693 -4.15241 0
M  V30 41771 N 3982 1.37779 0.765169 0
M  V30 41772 C 3982.93 1.3678 1.89244 0
M  V30 41773 C 3983.91 0.235419 1.68463 0
M  V30 41774 O 3985.1 0.436767 1.89225 0
M  V30 41775 C 3982.23 1.18059 3.26618 0
M  V30 41776 C 3981.18 2.28379 3.61977 0
M  V30 41777 C 3980.51 1.94774 4.97963 0
M  V30 41778 C 3981.81 3.70593 3.68046 0
M  V30 41779 H 3983.5 2.31111 1.90337 0
M  V30 41780 H 3981.05 1.11247 0.914335 0
M  V30 41781 H 3983 1.15989 4.05123 0
M  V30 41782 H 3981.72 0.201861 3.25976 0
M  V30 41783 H 3980.38 2.29615 2.85784 0
M  V30 41784 H 3980.03 0.954139 4.93868 0
M  V30 41785 H 3979.73 2.68652 5.2259 0
M  V30 41786 H 3981.26 1.94302 5.7886 0
M  V30 41787 H 3982.67 3.71451 4.36689 0
M  V30 41788 H 3981.07 4.4358 4.04175 0
M  V30 41789 H 3982.14 4.03744 2.68549 0
M  V30 41790 N 3983.48 -0.992073 1.22457 0
M  V30 41791 C 3984.7 -1.77256 1.0768 0
M  V30 41792 C 3985.13 -1.84458 -0.368345 0
M  V30 41793 O 3984.49 -1.29766 -1.26612 0
M  V30 41794 C 3984.54 -3.18355 1.69358 0
M  V30 41795 O 3983.64 -4.0136 0.947817 0
M  V30 41796 H 3982.98 -0.5458 0.378151 0
M  V30 41797 H 3985.51 -1.24617 1.62271 0
M  V30 41798 H 3985.52 -3.68982 1.74116 0
M  V30 41799 H 3984.2 -3.12428 2.7452 0
M  V30 41800 H 3982.77 -3.59893 0.976308 0
M  V30 41801 N 3984.96 -1.03439 -1.18904 0
M  V30 41802 C 3986.23 -0.648535 -1.84536 0
M  V30 41803 C 3986.61 0.872411 -1.9223 0
M  V30 41804 O 3985.96 1.77135 -1.44345 0
M  V30 41805 C 3986.17 -1.31703 -3.23195 0
M  V30 41806 C 3987.52 -1.44381 -3.99299 0
M  V30 41807 O 3988.54 -1.27464 -3.32613 0
M  V30 41808 O 3987.4 -1.71889 -5.18764 0
M  V30 41809 H 3984.5 -0.226128 -0.795484 0
M  V30 41810 H 3987.04 -1.13289 -1.26348 0
M  V30 41811 H 3985.82 -2.35549 -3.12462 0
M  V30 41812 H 3985.44 -0.820897 -3.89033 0
M  V30 41813 N 3986.44 1.35011 -0.813001 0
M  V30 41814 C 3987.4 2.28008 -0.233413 0
M  V30 41815 C 3988.4 1.49861 0.582954 0
M  V30 41816 O 3989.59 1.69534 0.400503 0
M  V30 41817 C 3986.72 3.34173 0.673872 0
M  V30 41818 H 3987.91 2.80779 -1.05371 0
M  V30 41819 H 3985.47 1.44975 -0.584122 0
M  V30 41820 H 3986.2 2.86599 1.51761 0
M  V30 41821 H 3985.99 3.91996 0.0901159 0
M  V30 41822 H 3987.48 4.03566 1.07351 0
M  V30 41823 N 3987.91 0.567071 1.47044 0
M  V30 41824 C 3988.84 -0.16315 2.32929 0
M  V30 41825 C 3989.82 -0.899117 1.44395 0
M  V30 41826 O 3991.01 -0.87765 1.73237 0
M  V30 41827 C 3988.14 -1.18739 3.26372 0
M  V30 41828 C 3987.09 -0.56726 4.24224 0
M  V30 41829 C 3986.42 -1.69684 5.07061 0
M  V30 41830 C 3987.72 0.48541 5.20039 0
M  V30 41831 H 3989.41 0.553889 2.94232 0
M  V30 41832 H 3986.96 0.267814 1.41488 0
M  V30 41833 H 3988.91 -1.70648 3.85302 0
M  V30 41834 H 3987.64 -1.9345 2.63144 0
M  V30 41835 H 3986.3 -0.0693881 3.66534 0
M  V30 41836 H 3985.94 -2.43324 4.4023 0
M  V30 41837 H 3985.64 -1.28764 5.73318 0
M  V30 41838 H 3987.17 -2.219 5.68852 0
M  V30 41839 H 3988.58 0.0520056 5.73276 0
M  V30 41840 H 3986.98 0.814047 5.94553 0
M  V30 41841 H 3988.05 1.37762 4.64919 0
M  V30 41842 N 3989.39 -1.5464 0.304027 0
M  V30 41843 C 3990.34 -2.23632 -0.570723 0
M  V30 41844 C 3991.31 -1.22 -1.12718 0
M  V30 41845 O 3992.49 -1.50628 -1.17114 0
M  V30 41846 C 3989.63 -2.98299 -1.73527 0
M  V30 41847 C 3988.75 -4.14711 -1.20992 0
M  V30 41848 C 3987.88 -4.76952 -2.33859 0
M  V30 41849 C 3986.92 -5.85503 -1.78473 0
M  V30 41850 N 3986.06 -6.41687 -2.84924 0
M  V30 41851 H 3990.9 -2.9799 0.0242204 0
M  V30 41852 H 3988.43 -1.47081 0.0237229 0
M  V30 41853 H 3990.39 -3.39823 -2.42025 0
M  V30 41854 H 3989.02 -2.26312 -2.3018 0
M  V30 41855 H 3988.07 -3.78106 -0.417114 0
M  V30 41856 H 3989.39 -4.92907 -0.76449 0
M  V30 41857 H 3988.54 -5.21345 -3.10297 0
M  V30 41858 H 3987.28 -3.98095 -2.8173 0
M  V30 41859 H 3986.28 -5.40532 -1.00524 0
M  V30 41860 H 3987.51 -6.66246 -1.31502 0
M  V30 41861 H 3985.46 -5.65712 -3.32123 0
M  V30 41862 H 3985.37 -7.15239 -2.44885 0
M  V30 41863 H 3986.64 -6.90737 -3.61251 0
M  V30 41864 N 3990.87 -0.0318079 -1.57568 0
M  V30 41865 C 3992.29 0.324606 -1.56264 0
M  V30 41866 C 3992.49 1.72727 -1.03768 0
M  V30 41867 O 3991.54 2.43014 -0.685608 0
M  V30 41868 C 3992.85 0.170754 -3.00215 0
M  V30 41869 C 3994.4 0.243318 -3.12053 0
M  V30 41870 C 3994.88 0.118224 -4.57847 0
M  V30 41871 N 3996.37 0.175122 -4.62869 0
M  V30 41872 C 3997.1 0.102151 -5.73309 0
M  V30 41873 N 3996.6 -0.0220591 -6.92796 0
M  V30 41874 N 3998.39 0.156333 -5.61883 0
M  V30 41875 H 3990.54 -0.949001 -1.9002 0
M  V30 41876 H 3992.81 -0.366708 -0.874202 0
M  V30 41877 H 3992.51 -0.795577 -3.42584 0
M  V30 41878 H 3992.39 0.939843 -3.65304 0
M  V30 41879 H 3994.77 1.20011 -2.69595 0
M  V30 41880 H 3994.85 -0.556194 -2.4968 0
M  V30 41881 H 3994.5 -0.83516 -5.00987 0
M  V30 41882 H 3994.43 0.936635 -5.18203 0
M  V30 41883 H 3996.92 0.271159 -3.76926 0
M  V30 41884 H 3997.23 -0.0709734 -7.72767 0
M  V30 41885 H 3995.58 -0.0568786 -6.94977 0
M  V30 41886 H 3998.77 0.251791 -4.67422 0
M  V30 41887 H 3998.94 0.0960038 -6.47929 0
M  V30 41888 N 3992.35 1.55741 0.241371 0
M  V30 41889 C 3993.28 1.87236 1.32194 0
M  V30 41890 C 3994.29 0.75904 1.44022 0
M  V30 41891 O 3995.48 1.0372 1.45273 0
M  V30 41892 C 3992.58 2.04838 2.6999 0
M  V30 41893 C 3991.76 3.35734 2.8036 0
M  V30 41894 C 3990.81 3.4301 3.99037 0
M  V30 41895 O 3989.84 4.16182 3.88305 0
M  V30 41896 N 3991.04 2.72705 5.12457 0
M  V30 41897 H 3993.81 2.80514 1.05509 0
M  V30 41898 H 3991.37 1.56045 0.431463 0
M  V30 41899 H 3993.36 2.07041 3.4773 0
M  V30 41900 H 3991.93 1.18279 2.89359 0
M  V30 41901 H 3991.15 3.45799 1.89252 0
M  V30 41902 H 3992.44 4.22 2.84242 0
M  V30 41903 H 3991.84 2.12997 5.24069 0
M  V30 41904 H 3990.39 2.80594 5.88311 0
M  V30 41905 N 3993.83 -0.507266 1.49213 0
M  V30 41906 C 3995.08 -1.25837 1.57632 0
M  V30 41907 C 3995.39 -1.93791 0.265377 0
M  V30 41908 O 3996.59 -2.70541 0.228044 0
M  V30 41909 C 3995.05 -2.28452 2.78097 0
M  V30 41910 C 3994.66 -1.66465 4.15925 0
M  V30 41911 C 3996.4 -3.0443 2.95842 0
M  V30 41912 C 3994.31 -2.67153 5.2762 0
M  V30 41913 H 3993.24 -0.473349 0.586904 0
M  V30 41914 H 3995.89 -0.532987 1.75589 0
M  V30 41915 H 3994.27 -3.04126 2.53621 0
M  V30 41916 H 3995.45 -0.968258 4.50512 0
M  V30 41917 H 3993.76 -1.02899 4.03486 0
M  V30 41918 H 3996.36 -3.79714 3.76459 0
M  V30 41919 H 3996.7 -3.61667 2.06162 0
M  V30 41920 H 3997.23 -2.35871 3.20328 0
M  V30 41921 H 3993.97 -2.14705 6.1934 0
M  V30 41922 H 3993.49 -3.35051 4.97494 0
M  V30 41923 H 3995.17 -3.29702 5.56692 0
M  V30 41924 N 3995.3 -1.38182 -0.757851 0
M  V30 41925 C 3996.72 -1.19286 -1.06033 0
M  V30 41926 C 3996.92 -0.0385836 -2.01463 0
M  V30 41927 O 3995.98 0.616987 -2.44846 0
M  V30 41928 C 3997.29 -2.51747 -1.6445 0
M  V30 41929 C 3998.84 -2.58392 -1.76642 0
M  V30 41930 C 3999.31 -3.91018 -2.38471 0
M  V30 41931 N 4000.8 -3.92535 -2.45907 0
M  V30 41932 C 4001.54 -4.91914 -2.94632 0
M  V30 41933 N 4001.03 -6.0169 -3.43425 0
M  V30 41934 N 4002.83 -4.79308 -2.93633 0
M  V30 41935 H 3994.98 -2.12035 -0.124495 0
M  V30 41936 H 3997.24 -0.940645 -0.11786 0
M  V30 41937 H 3996.95 -3.36645 -1.01798 0
M  V30 41938 H 3996.82 -2.69836 -2.63568 0
M  V30 41939 H 3999.21 -1.73892 -2.38423 0
M  V30 41940 H 3999.29 -2.44174 -0.762407 0
M  V30 41941 H 3998.93 -4.75939 -1.77325 0
M  V30 41942 H 3998.86 -4.02546 -3.39506 0
M  V30 41943 H 4001.35 -3.13244 -2.11393 0
M  V30 41944 H 4001.67 -6.73456 -3.79047 0
M  V30 41945 H 4000.01 -6.05316 -3.41493 0
M  V30 41946 H 4003.2 -3.92661 -2.54823 0
M  V30 41947 H 4003.38 -5.56909 -3.31295 0
M  V30 41948 N 3996.78 0.985565 -1.22981 0
M  V30 41949 C 3998.03 1.72038 -1.05289 0
M  V30 41950 C 3998.34 1.91229 0.411179 0
M  V30 41951 O 3999.55 2.62108 0.707924 0
M  V30 41952 C 3998.01 3.09573 -1.83555 0
M  V30 41953 C 3997.61 2.98287 -3.34259 0
M  V30 41954 C 3999.36 3.87049 -1.74336 0
M  V30 41955 C 3997.27 4.31022 -4.04937 0
M  V30 41956 H 3996.2 0.645076 -0.390375 0
M  V30 41957 H 3998.85 1.09966 -1.469 0
M  V30 41958 H 3997.23 3.7237 -1.34748 0
M  V30 41959 H 3998.4 2.44611 -3.90515 0
M  V30 41960 H 3996.72 2.34288 -3.44235 0
M  V30 41961 H 3999.31 4.85307 -2.24458 0
M  V30 41962 H 3999.66 4.10284 -0.70515 0
M  V30 41963 H 4000.19 3.30945 -2.20727 0
M  V30 41964 H 3996.93 4.12984 -5.09043 0
M  V30 41965 H 3996.45 4.84582 -3.53469 0
M  V30 41966 H 3998.13 4.99734 -4.10944 0
M  V30 41967 N 3998.26 1.04068 1.18353 0
M  V30 41968 C 3999.22 0.636187 2.20194 0
M  V30 41969 C 4000.22 -0.306429 1.57853 0
M  V30 41970 O 4001.41 -0.091827 1.73958 0
M  V30 41971 C 3998.55 -0.0672824 3.40834 0
M  V30 41972 H 3999.74 1.53742 2.57494 0
M  V30 41973 H 3997.29 0.833237 1.32238 0
M  V30 41974 H 3998.03 -0.982317 3.09065 0
M  V30 41975 H 3997.81 0.610213 3.87323 0
M  V30 41976 H 3999.3 -0.336796 4.1624 0
M  V30 41977 N 3999.74 -1.34578 0.820149 0
M  V30 41978 C 4000.98 -2.0019 0.412725 0
M  V30 41979 C 4001.34 -1.63616 -1.00468 0
M  V30 41980 O 4002.54 -2.2205 -1.51483 0
M  V30 41981 C 4000.81 -3.52229 0.605779 0
M  V30 41982 S 4002.37 -4.37835 0.290792 0
M  V30 41983 H 3999.19 -0.693658 0.156076 0
M  V30 41984 H 4001.79 -1.63922 1.06536 0
M  V30 41985 H 4000.5 -3.76334 1.63709 0
M  V30 41986 H 4000.03 -3.93352 -0.0616891 0
M  V30 41987 H 4002.04 -4.88033 -0.896553 0
M  V30 41988 N 4001.22 -0.574861 -1.46742 0
M  V30 41989 C 4002.63 -0.235938 -1.57846 0
M  V30 41990 C 4002.83 1.26172 -1.57108 0
M  V30 41991 O 4001.89 2.04299 -1.48386 0
M  V30 41992 C 4003.2 -0.878209 -2.8759 0
M  V30 41993 C 4004.75 -0.851071 -3.01207 0
M  V30 41994 C 4005.22 -1.47274 -4.33676 0
M  V30 41995 N 4006.72 -1.43672 -4.40355 0
M  V30 41996 C 4007.45 -1.88719 -5.41454 0
M  V30 41997 N 4006.95 -2.41703 -6.4927 0
M  V30 41998 N 4008.74 -1.79683 -5.32607 0
M  V30 41999 H 4000.89 -1.54769 -1.45466 0
M  V30 42000 H 4003.15 -0.646453 -0.693399 0
M  V30 42001 H 4002.86 -1.93144 -2.93919 0
M  V30 42002 H 4002.73 -0.381731 -3.75263 0
M  V30 42003 H 4005.12 0.193521 -2.94465 0
M  V30 42004 H 4005.2 -1.38549 -2.1503 0
M  V30 42005 H 4004.85 -2.51649 -4.41175 0
M  V30 42006 H 4004.78 -0.913611 -5.18614 0
M  V30 42007 H 4007.27 -1.04934 -3.63039 0
M  V30 42008 H 4007.58 -2.73954 -7.22613 0
M  V30 42009 H 4005.92 -2.45725 -6.50111 0
M  V30 42010 H 4009.12 -1.38053 -4.47279 0
M  V30 42011 H 4009.29 -2.15106 -6.11255 0
M  V30 42012 N 4002.69 1.54476 -0.312224 0
M  V30 42013 C 4003.64 2.23932 0.558855 0
M  V30 42014 C 4004.61 1.22596 1.12069 0
M  V30 42015 O 4005.8 1.51247 1.16314 0
M  V30 42016 C 4002.94 2.99215 1.71943 0
M  V30 42017 C 4002.05 4.15346 1.18791 0
M  V30 42018 C 4001.18 4.78186 2.31326 0
M  V30 42019 C 4000.22 5.86441 1.75365 0
M  V30 42020 N 3999.36 6.43189 2.81517 0
M  V30 42021 H 4004.2 2.97973 -0.0400232 0
M  V30 42022 H 4001.74 1.47066 -0.0315226 0
M  V30 42023 H 4003.7 3.41102 2.40219 0
M  V30 42024 H 4002.33 2.27529 2.28977 0
M  V30 42025 H 4001.38 3.78322 0.397056 0
M  V30 42026 H 4002.69 4.93305 0.738339 0
M  V30 42027 H 4001.84 5.22983 3.07528 0
M  V30 42028 H 4000.58 3.99583 2.79615 0
M  V30 42029 H 3999.59 5.41058 0.976563 0
M  V30 42030 H 4000.81 6.66934 1.27967 0
M  V30 42031 H 3998.76 5.67465 3.29119 0
M  V30 42032 H 3998.68 7.16528 2.41089 0
M  V30 42033 H 3999.94 6.92643 3.57583 0
M  V30 42034 N 4004.17 0.0401637 1.57549 0
M  V30 42035 C 4005.41 -0.640088 1.94119 0
M  V30 42036 C 4005.78 -1.68654 0.917604 0
M  V30 42037 O 4006.98 -2.42007 1.16987 0
M  V30 42038 C 4005.25 -1.23059 3.35546 0
M  V30 42039 S 4006.81 -1.93038 3.94058 0
M  V30 42040 H 4003.63 -0.210463 0.679136 0
M  V30 42041 H 4006.23 0.10647 1.9521 0
M  V30 42042 H 4004.93 -0.4567 4.07851 0
M  V30 42043 H 4004.46 -2.01421 3.37925 0
M  V30 42044 H 4006.48 -3.20992 3.78389 0
M  V30 42045 N 4005.65 -1.55866 -0.233109 0
M  V30 42046 C 4006.6 -1.92307 -1.30847 0
M  V30 42047 C 4007.59 -0.80372 -1.4912 0
M  V30 42048 O 4008.8 -0.98846 -1.50431 0
M  V30 42049 H 4005.17 -0.610961 -0.43844 0
M  V30 42050 H 4007.14 -2.82061 -0.973876 0
M  V30 42051 C 4005.89 -2.24616 -2.65411 0
M  V30 42052 H 4005.22 -3.10255 -2.52154 0
M  V30 42053 H 4006.66 -2.54006 -3.39495 0
M  V30 42054 C 4005.12 -1.06726 -3.19549 0
M  V30 42055 O 4005.65 -0.322379 -4.00404 0
M  V30 42056 N 4003.85 -0.854172 -2.77763 0
M  V30 42057 H 4003.4 -1.46161 -2.12119 0
M  V30 42058 H 4003.36 -0.0670878 -3.14328 0
M  V30 42059 N 4007.13 0.499346 -1.4948 0
M  V30 42060 C 4008.06 1.60931 -1.69185 0
M  V30 42061 C 4009.04 1.61282 -0.540558 0
M  V30 42062 O 4010.23 1.77997 -0.776585 0
M  V30 42063 C 4007.36 2.99407 -1.7599 0
M  V30 42064 C 4006.31 3.13921 -2.90925 0
M  V30 42065 C 4005.64 4.53765 -2.82845 0
M  V30 42066 C 4006.94 2.93791 -4.31838 0
M  V30 42067 H 4008.63 1.44695 -2.62114 0
M  V30 42068 H 4006.18 0.694665 -1.26136 0
M  V30 42069 H 4008.13 3.76959 -1.88361 0
M  V30 42070 H 4006.85 3.16736 -0.796612 0
M  V30 42071 H 4005.51 2.38795 -2.78159 0
M  V30 42072 H 4005.16 4.67972 -1.84421 0
M  V30 42073 H 4004.86 4.64417 -3.59987 0
M  V30 42074 H 4006.38 5.33375 -2.97226 0
M  V30 42075 H 4007.8 3.61111 -4.45277 0
M  V30 42076 H 4006.19 3.15913 -5.10215 0
M  V30 42077 H 4007.26 1.899 -4.46168 0
M  V30 42078 N 4008.61 1.38582 0.750513 0
M  V30 42079 C 4009.57 1.35855 1.84597 0
M  V30 42080 C 4010.57 0.258489 1.58709 0
M  V30 42081 O 4011.76 0.515549 1.66396 0
M  V30 42082 C 4008.89 1.11579 3.22123 0
M  V30 42083 H 4010.09 2.33318 1.88422 0
M  V30 42084 H 4007.64 1.23921 0.952542 0
M  V30 42085 H 4008.37 0.147352 3.23965 0
M  V30 42086 H 4008.16 1.91227 3.42308 0
M  V30 42087 H 4009.65 1.12374 4.02196 0
M  V30 42088 N 4010.09 -0.979029 1.23502 0
M  V30 42089 C 4011.33 -1.72051 1.06794 0
M  V30 42090 C 4011.66 -1.90447 -0.394969 0
M  V30 42091 O 4010.92 -1.45505 -1.30869 0
M  V30 42092 C 4011.21 -3.12179 1.74009 0
M  V30 42093 C 4010.88 -3.13657 3.2393 0
M  V30 42094 C 4009.54 -3.13767 3.64834 0
M  V30 42095 C 4011.89 -3.08865 4.19824 0
M  V30 42096 C 4009.22 -3.06804 5.00088 0
M  V30 42097 C 4011.57 -3.03444 5.55072 0
M  V30 42098 C 4010.24 -3.01877 5.95337 0
M  V30 42099 H 4009.51 -0.629577 0.390785 0
M  V30 42100 H 4012.16 -1.14561 1.53454 0
M  V30 42101 H 4010.46 -3.73063 1.19712 0
M  V30 42102 H 4012.16 -3.68321 1.58557 0
M  V30 42103 H 4008.75 -3.14329 2.91368 0
M  V30 42104 H 4012.93 -3.07918 3.8923 0
M  V30 42105 H 4008.19 -3.03945 5.30497 0
M  V30 42106 H 4012.36 -2.98694 6.29091 0
M  V30 42107 H 4009.99 -2.96237 7.00105 0
M  V30 42108 N 4011.56 -1.04695 -1.178 0
M  V30 42109 C 4012.98 -0.767355 -1.39942 0
M  V30 42110 C 4013.18 0.640417 -1.91052 0
M  V30 42111 O 4012.24 1.40363 -2.09892 0
M  V30 42112 C 4013.55 -1.81875 -2.39461 0
M  V30 42113 C 4015.1 -1.84039 -2.53177 0
M  V30 42114 C 4015.57 -2.88188 -3.55965 0
M  V30 42115 N 4017.06 -2.8712 -3.63479 0
M  V30 42116 C 4017.8 -3.64356 -4.42756 0
M  V30 42117 N 4017.29 -4.51362 -5.25589 0
M  V30 42118 N 4019.09 -3.52817 -4.3758 0
M  V30 42119 H 4011.24 -1.95531 -0.829532 0
M  V30 42120 H 4013.5 -0.846392 -0.426994 0
M  V30 42121 H 4013.21 -2.82887 -2.08969 0
M  V30 42122 H 4013.08 -1.65618 -3.38896 0
M  V30 42123 H 4015.47 -0.836958 -2.82982 0
M  V30 42124 H 4015.55 -2.04374 -1.53834 0
M  V30 42125 H 4015.19 -3.88715 -3.26899 0
M  V30 42126 H 4015.12 -2.65107 -4.55001 0
M  V30 42127 H 4017.61 -2.2403 -3.04334 0
M  V30 42128 H 4017.93 -5.06991 -5.8325 0
M  V30 42129 H 4016.27 -4.55426 -5.24988 0
M  V30 42130 H 4019.46 -2.84243 -3.71919 0
M  V30 42131 H 4019.64 -4.13258 -4.99121 0
M  V30 42132 N 4013.04 1.34141 -0.827275 0
M  V30 42133 C 4013.97 2.31968 -0.267056 0
M  V30 42134 C 4014.95 1.58442 0.618878 0
M  V30 42135 O 4016.14 1.864 0.544849 0
M  V30 42136 C 4013.27 3.42618 0.568319 0
M  V30 42137 C 4012.22 4.2743 -0.220842 0
M  V30 42138 C 4011.55 5.29589 0.73755 0
M  V30 42139 C 4012.85 5.02301 -1.43146 0
M  V30 42140 H 4014.54 2.79071 -1.08441 0
M  V30 42141 H 4012.09 1.34171 -0.522903 0
M  V30 42142 H 4014.04 4.10073 0.970453 0
M  V30 42143 H 4012.76 2.94174 1.41877 0
M  V30 42144 H 4011.42 3.61583 -0.604397 0
M  V30 42145 H 4011.07 4.77406 1.58408 0
M  V30 42146 H 4010.77 5.87211 0.213712 0
M  V30 42147 H 4012.3 5.99912 1.13745 0
M  V30 42148 H 4013.71 5.62587 -1.10311 0
M  V30 42149 H 4012.11 5.69519 -1.89125 0
M  V30 42150 H 4013.18 4.31744 -2.20737 0
M  V30 42151 N 4014.52 0.582635 1.46435 0
M  V30 42152 C 4015.75 0.073802 2.06768 0
M  V30 42153 C 4016.16 -1.23112 1.43139 0
M  V30 42154 O 4015.52 -1.74431 0.536664 0
M  V30 42155 C 4015.57 -0.098757 3.61365 0
M  V30 42156 O 4015.29 1.15452 4.22614 0
M  V30 42157 C 4016.79 -0.641948 4.38627 0
M  V30 42158 H 4014.01 0.0574196 0.668539 0
M  V30 42159 H 4016.56 0.803283 1.88063 0
M  V30 42160 H 4014.71 -0.778459 3.79498 0
M  V30 42161 H 4015.13 0.968294 5.15485 0
M  V30 42162 H 4016.6 -0.71187 5.47391 0
M  V30 42163 H 4017.08 -1.6589 4.06666 0
M  V30 42164 H 4017.68 0.00288328 4.253 0
M  V30 42165 N 4016 -1.54309 0.320412 0
M  V30 42166 C 4017.23 -2.04925 -0.285161 0
M  V30 42167 C 4017.64 -1.19672 -1.46027 0
M  V30 42168 O 4017 -0.226681 -1.81087 0
M  V30 42169 C 4017.05 -3.54203 -0.722673 0
M  V30 42170 O 4016.77 -4.36218 0.405687 0
M  V30 42171 C 4018.27 -4.20898 -1.39138 0
M  V30 42172 H 4015.49 -0.668388 -0.0591494 0
M  V30 42173 H 4018.03 -1.99127 0.465685 0
M  V30 42174 H 4016.19 -3.60299 -1.4235 0
M  V30 42175 H 4016.6 -5.24464 0.0615448 0
M  V30 42176 H 4018.08 -5.2681 -1.64848 0
M  V30 42177 H 4018.55 -3.71819 -2.33768 0
M  V30 42178 H 4019.16 -4.18932 -0.733218 0
M  V30 42179 N 4017.48 -0.0485183 -1.57525 0
M  V30 42180 C 4018.7 0.639027 -1.9731 0
M  V30 42181 C 4019.13 1.6374 -0.925782 0
M  V30 42182 O 4018.48 1.80958 0.111272 0
M  V30 42183 C 4018.53 1.30469 -3.3617 0
M  V30 42184 O 4017.64 2.42032 -3.33907 0
M  V30 42185 H 4016.98 0.16634 -0.642827 0
M  V30 42186 H 4019.51 -0.116131 -2.0427 0
M  V30 42187 H 4019.52 1.65699 -3.72838 0
M  V30 42188 H 4018.19 0.572985 -4.11934 0
M  V30 42189 H 4016.77 2.0877 -3.08982 0
M  V30 42190 N 4018.95 1.55988 0.224839 0
M  V30 42191 C 4019.9 1.92146 1.27862 0
M  V30 42192 C 4020.87 0.778253 1.46739 0
M  V30 42193 O 4022.06 1.03386 1.60362 0
M  V30 42194 C 4019.2 2.24068 2.62464 0
M  V30 42195 C 4018.31 3.51306 2.51412 0
M  V30 42196 C 4017.44 3.72691 3.78517 0
M  V30 42197 C 4016.48 4.93454 3.62173 0
M  V30 42198 N 4015.62 5.11246 4.81219 0
M  V30 42199 H 4020.46 2.82002 0.96326 0
M  V30 42200 H 4018 1.39579 0.464337 0
M  V30 42201 H 4019.95 2.40586 3.40844 0
M  V30 42202 H 4018.58 1.37389 2.92103 0
M  V30 42203 H 4017.64 3.43 1.64485 0
M  V30 42204 H 4018.95 4.39837 2.35256 0
M  V30 42205 H 4018.1 3.89287 4.65339 0
M  V30 42206 H 4016.84 2.82435 3.97595 0
M  V30 42207 H 4015.85 4.76812 2.73735 0
M  V30 42208 H 4017.07 5.85192 3.44568 0
M  V30 42209 H 4015.02 4.23932 5.00618 0
M  V30 42210 H 4014.93 5.93903 4.67777 0
M  V30 42211 H 4016.2 5.32274 5.69478 0
M  V30 42212 N 4020.43 -0.491412 1.49743 0
M  V30 42213 C 4021.36 -1.60031 1.70036 0
M  V30 42214 C 4022.34 -1.60993 0.549104 0
M  V30 42215 O 4023.53 -1.77582 0.786014 0
M  V30 42216 C 4020.66 -2.9847 1.77575 0
M  V30 42217 C 4019.61 -3.12374 2.92586 0
M  V30 42218 C 4018.94 -4.52259 2.85247 0
M  V30 42219 C 4020.24 -2.91497 4.3339 0
M  V30 42220 H 4021.93 -1.43303 2.62878 0
M  V30 42221 H 4019.48 -0.687966 1.26503 0
M  V30 42222 H 4021.43 -3.75955 1.90358 0
M  V30 42223 H 4020.15 -3.16309 0.813398 0
M  V30 42224 H 4018.81 -2.37317 2.79421 0
M  V30 42225 H 4018.46 -4.66988 1.869 0
M  V30 42226 H 4018.16 -4.62501 3.62445 0
M  V30 42227 H 4019.69 -5.31791 3.0005 0
M  V30 42228 H 4021.1 -3.58744 4.47186 0
M  V30 42229 H 4019.5 -3.13202 5.11883 0
M  V30 42230 H 4020.57 -1.87532 4.47169 0
M  V30 42231 N 4021.91 -1.38978 -0.743153 0
M  V30 42232 C 4023.33 -1.20404 -1.04762 0
M  V30 42233 C 4023.53 -0.0599493 -2.01411 0
M  V30 42234 O 4022.58 0.590983 -2.45487 0
M  V30 42235 C 4023.9 -2.53477 -1.61771 0
M  V30 42236 C 4025.44 -2.60251 -1.73891 0
M  V30 42237 C 4025.92 -3.93526 -2.34311 0
M  V30 42238 N 4027.41 -3.95121 -2.4173 0
M  V30 42239 C 4028.14 -4.95012 -2.89398 0
M  V30 42240 N 4027.64 -6.05299 -3.37024 0
M  V30 42241 N 4029.43 -4.82395 -2.88533 0
M  V30 42242 H 4021.58 -2.12155 -0.101999 0
M  V30 42243 H 4023.85 -0.941842 -0.107876 0
M  V30 42244 H 4023.55 -3.37706 -0.982215 0
M  V30 42245 H 4023.43 -2.72617 -2.60691 0
M  V30 42246 H 4025.81 -1.76411 -2.36565 0
M  V30 42247 H 4025.9 -2.44969 -0.736466 0
M  V30 42248 H 4025.54 -4.77793 -1.72267 0
M  V30 42249 H 4025.47 -4.06125 -3.35217 0
M  V30 42250 H 4027.96 -3.15468 -2.08058 0
M  V30 42251 H 4028.27 -6.77438 -3.71883 0
M  V30 42252 H 4026.62 -6.08904 -3.35054 0
M  V30 42253 H 4029.81 -3.95342 -2.50644 0
M  V30 42254 H 4029.98 -5.60392 -3.25369 0
M  V30 42255 N 4023.39 0.972465 -1.2402 0
M  V30 42256 C 4024.35 2.0478 -1.02945 0
M  V30 42257 C 4025.35 1.60796 0.0115578 0
M  V30 42258 O 4026.54 1.72689 -0.228953 0
M  V30 42259 C 4023.67 3.36281 -0.559305 0
M  V30 42260 H 4024.87 2.2491 -1.98383 0
M  V30 42261 H 4022.42 1.14702 -1.06175 0
M  V30 42262 H 4023.15 3.21842 0.398488 0
M  V30 42263 H 4022.94 3.69548 -1.3106 0
M  V30 42264 H 4024.43 4.15352 -0.432742 0
M  V30 42265 N 4024.87 1.05318 1.17243 0
M  V30 42266 C 4025.81 0.649213 2.23356 0
M  V30 42267 C 4026.81 -0.330121 1.66152 0
M  V30 42268 O 4028.01 -0.196047 1.78929 0
M  V30 42269 H 4024.39 0.191775 0.727136 0
M  V30 42270 H 4026.36 1.55427 2.54725 0
M  V30 42271 C 4025.11 0.041266 3.47676 0
M  V30 42272 H 4024.43 0.785927 3.91999 0
M  V30 42273 H 4025.87 -0.203999 4.23509 0
M  V30 42274 C 4024.33 -1.21241 3.14328 0
M  V30 42275 O 4024.86 -2.30164 3.29222 0
M  V30 42276 N 4023.07 -1.11055 2.68542 0
M  V30 42277 H 4022.61 -0.224167 2.56623 0
M  V30 42278 H 4022.57 -1.95024 2.46603 0
M  V30 42279 N 4026.34 -1.33701 0.834377 0
M  V30 42280 C 4027.62 -1.92442 0.350037 0
M  V30 42281 C 4028 -1.76104 -1.16406 0
M  V30 42282 O 4027.35 -1.1467 -1.97644 0
M  V30 42283 C 4027.56 -3.39895 0.791988 0
M  V30 42284 C 4028.91 -4.17045 0.797412 0
M  V30 42285 O 4029.93 -3.48528 0.735303 0
M  V30 42286 O 4028.79 -5.39351 0.881057 0
M  V30 42287 H 4025.88 -0.821159 0.0981192 0
M  V30 42288 H 4028.43 -1.42602 0.91993 0
M  V30 42289 H 4027.2 -3.45638 1.83439 0
M  V30 42290 H 4026.83 -3.97105 0.198419 0
M  V30 42291 N 4027.82 -0.590393 -1.46124 0
M  V30 42292 C 4028.77 0.151127 -2.32109 0
M  V30 42293 C 4029.76 0.876778 -1.44945 0
M  V30 42294 O 4030.97 0.794295 -1.61527 0
M  V30 42295 H 4027.35 0.0676027 -0.748955 0
M  V30 42296 H 4029.32 -0.592774 -2.92453 0
M  V30 42297 C 4028.07 1.14648 -3.28255 0
M  V30 42298 H 4027.39 0.597528 -3.9531 0
M  V30 42299 H 4028.83 1.63557 -3.91184 0
M  V30 42300 C 4027.29 2.21137 -2.54166 0
M  V30 42301 O 4027.82 3.28612 -2.31034 0
M  V30 42302 N 4026.02 1.95952 -2.14595 0
M  V30 42303 H 4025.57 1.0856 -2.33608 0
M  V30 42304 H 4025.53 2.67411 -1.65344 0
M  V30 42305 N 4029.3 1.54136 -0.328591 0
M  V30 42306 C 4030.55 1.99839 0.273392 0
M  V30 42307 C 4030.86 1.22052 1.52849 0
M  V30 42308 O 4032.07 1.58156 2.20678 0
M  V30 42309 C 4030.52 3.55861 0.537694 0
M  V30 42310 C 4030.13 4.42487 -0.70064 0
M  V30 42311 C 4031.88 4.10018 1.09936 0
M  V30 42312 C 4029.78 5.89991 -0.407964 0
M  V30 42313 H 4028.71 0.746521 0.105934 0
M  V30 42314 H 4031.36 1.78107 -0.441596 0
M  V30 42315 H 4029.75 3.73599 1.313 0
M  V30 42316 H 4030.92 4.36525 -1.4759 0
M  V30 42317 H 4029.24 3.99246 -1.18287 0
M  V30 42318 H 4031.83 5.17817 1.33303 0
M  V30 42319 H 4032.18 3.62311 2.05029 0
M  V30 42320 H 4032.71 3.95931 0.385113 0
M  V30 42321 H 4029.45 6.41903 -1.32821 0
M  V30 42322 H 4028.97 5.98894 0.329499 0
M  V30 42323 H 4030.65 6.46997 -0.0196528 0
M  V30 42324 N 4030.78 0.0568716 1.57497 0
M  V30 42325 C 4031.71 -0.91339 2.14894 0
M  V30 42326 C 4032.69 -1.32063 1.07208 0
M  V30 42327 O 4033.87 -1.39433 1.35174 0
M  V30 42328 C 4031 -2.18624 2.69853 0
M  V30 42329 C 4029.96 -1.91889 3.82574 0
M  V30 42330 C 4029.28 -3.25678 4.24073 0
M  V30 42331 C 4030.58 -1.23597 5.07465 0
M  V30 42332 H 4032.28 -0.435295 2.96219 0
M  V30 42333 H 4029.82 -0.207935 1.42491 0
M  V30 42334 H 4031.78 -2.86905 3.08648 0
M  V30 42335 H 4030.5 -2.6865 1.85728 0
M  V30 42336 H 4029.16 -1.26018 3.4426 0
M  V30 42337 H 4028.81 -3.73515 3.36891 0
M  V30 42338 H 4028.51 -3.08586 5.00049 0
M  V30 42339 H 4030.03 -3.95181 4.65473 0
M  V30 42340 H 4031.45 -1.81922 5.4367 0
M  V30 42341 H 4029.84 -1.16813 5.88621 0
M  V30 42342 H 4030.91 -0.212832 4.84433 0
M  V30 42343 N 4032.26 -1.56105 -0.216564 0
M  V30 42344 C 4033.48 -1.83785 -0.961131 0
M  V30 42345 C 4033.91 -0.637823 -1.76956 0
M  V30 42346 O 4033.26 0.413418 -1.76524 0
M  V30 42347 C 4033.31 -3.09503 -1.85042 0
M  V30 42348 O 4032.42 -2.88547 -2.94643 0
M  V30 42349 H 4031.76 -0.605789 -0.271874 0
M  V30 42350 H 4034.29 -2.03322 -0.228368 0
M  V30 42351 H 4034.3 -3.39737 -2.25926 0
M  V30 42352 H 4032.97 -3.96473 -1.25626 0
M  V30 42353 H 4031.55 -2.69558 -2.57668 0
M  V30 42354 N 4033.73 0.483463 -1.50001 0
M  V30 42355 C 4034.98 1.23826 -1.60608 0
M  V30 42356 C 4035.31 1.91872 -0.299812 0
M  V30 42357 O 4034.59 1.81548 0.697894 0
M  V30 42358 C 4034.87 2.2916 -2.77773 0
M  V30 42359 C 4034.72 1.655 -4.18246 0
M  V30 42360 C 4036.04 3.30579 -2.90527 0
M  V30 42361 H 4033.16 0.44883 -0.584569 0
M  V30 42362 H 4035.8 0.533823 -1.82347 0
M  V30 42363 H 4033.95 2.8924 -2.59369 0
M  V30 42364 H 4035.63 1.09112 -4.4821 0
M  V30 42365 H 4033.87 0.958502 -4.23078 0
M  V30 42366 H 4034.54 2.41985 -4.96132 0
M  V30 42367 H 4037.02 2.80508 -3.07335 0
M  V30 42368 H 4035.89 4.01623 -3.74153 0
M  V30 42369 H 4036.15 3.93961 -2.00616 0
M  V30 42370 N 4035.21 1.39371 0.735772 0
M  V30 42371 C 4036.63 1.20958 1.04122 0
M  V30 42372 C 4036.83 0.0706298 2.01376 0
M  V30 42373 O 4035.88 -0.577956 2.45796 0
M  V30 42374 C 4037.2 2.54331 1.60424 0
M  V30 42375 C 4038.75 2.6117 1.72509 0
M  V30 42376 C 4039.22 3.94763 2.3222 0
M  V30 42377 N 4040.71 3.96398 2.39631 0
M  V30 42378 C 4041.45 4.96539 2.86769 0
M  V30 42379 N 4040.94 6.07078 3.33809 0
M  V30 42380 N 4042.74 4.83919 2.85971 0
M  V30 42381 H 4034.89 2.12206 0.0907461 0
M  V30 42382 H 4037.15 0.942401 0.10288 0
M  V30 42383 H 4036.86 3.38222 0.964292 0
M  V30 42384 H 4036.73 2.73995 2.59242 0
M  V30 42385 H 4039.12 1.77663 2.35626 0
M  V30 42386 H 4039.2 2.45356 0.723464 0
M  V30 42387 H 4038.84 4.787 1.69731 0
M  V30 42388 H 4038.77 4.07897 3.33058 0
M  V30 42389 H 4041.26 3.16567 2.06382 0
M  V30 42390 H 4041.58 6.79401 3.68285 0
M  V30 42391 H 4039.92 6.10672 3.3182 0
M  V30 42392 H 4043.11 3.96665 2.48544 0
M  V30 42393 H 4043.28 5.62109 3.22393 0
M  V30 42394 N 4036.69 -0.965875 1.24534 0
M  V30 42395 C 4037.94 -1.70908 1.08612 0
M  V30 42396 C 4038.27 -1.90856 -0.374747 0
M  V30 42397 O 4037.52 -1.46885 -1.29319 0
M  V30 42398 C 4037.82 -3.10316 1.77311 0
M  V30 42399 C 4037.49 -3.10203 3.27238 0
M  V30 42400 C 4036.15 -3.0988 3.68141 0
M  V30 42401 C 4038.5 -3.04395 4.23076 0
M  V30 42402 C 4035.83 -3.01483 5.03314 0
M  V30 42403 C 4038.18 -2.9754 5.58259 0
M  V30 42404 C 4036.84 -2.95546 5.98505 0
M  V30 42405 H 4036.11 -0.625397 0.397441 0
M  V30 42406 H 4038.76 -1.12927 1.5466 0
M  V30 42407 H 4037.07 -3.71773 1.23662 0
M  V30 42408 H 4038.76 -3.66619 1.62455 0
M  V30 42409 H 4035.35 -3.11221 2.94686 0
M  V30 42410 H 4039.54 -3.03772 3.92474 0
M  V30 42411 H 4034.79 -2.98301 5.33691 0
M  V30 42412 H 4038.97 -2.92005 6.32223 0
M  V30 42413 H 4036.59 -2.88795 7.03208 0
M  V30 42414 N 4038.17 -1.05938 -1.16683 0
M  V30 42415 C 4039.4 -0.794586 -1.91034 0
M  V30 42416 C 4039.81 0.650632 -1.77235 0
M  V30 42417 O 4039.17 1.44512 -1.11456 0
M  V30 42418 C 4039.22 -1.17542 -3.41857 0
M  V30 42419 O 4038.94 -2.56392 -3.55239 0
M  V30 42420 C 4040.44 -0.93785 -4.33266 0
M  V30 42421 H 4037.66 -0.288336 -0.605891 0
M  V30 42422 H 4040.21 -1.41206 -1.47923 0
M  V30 42423 H 4038.36 -0.602553 -3.82685 0
M  V30 42424 H 4038.78 -2.71539 -4.48739 0
M  V30 42425 H 4040.25 -1.25398 -5.37568 0
M  V30 42426 H 4040.73 0.126596 -4.39018 0
M  V30 42427 H 4041.33 -1.49493 -3.98161 0
M  V30 42428 N 4039.65 1.33256 -0.841456 0
M  V30 42429 C 4040.61 2.27462 -0.281725 0
M  V30 42430 C 4041.61 1.51064 0.551035 0
M  V30 42431 O 4042.8 1.70345 0.364452 0
M  V30 42432 C 4039.93 3.35527 0.602837 0
M  V30 42433 H 4041.13 2.78481 -1.11303 0
M  V30 42434 H 4038.68 1.43703 -0.614742 0
M  V30 42435 H 4039.41 2.89754 1.45647 0
M  V30 42436 H 4039.2 3.92099 0.00694742 0
M  V30 42437 H 4040.69 4.05752 0.987664 0
M  V30 42438 N 4041.13 0.598134 1.45809 0
M  V30 42439 C 4042.07 -0.138816 2.32185 0
M  V30 42440 C 4043.07 -0.869079 1.45408 0
M  V30 42441 O 4044.27 -0.785717 1.61946 0
M  V30 42442 H 4040.65 -0.0636299 0.749303 0
M  V30 42443 H 4042.62 0.608275 2.92135 0
M  V30 42444 C 4041.37 -1.12905 3.28858 0
M  V30 42445 H 4040.69 -0.576555 3.95621 0
M  V30 42446 H 4042.13 -1.6148 3.92046 0
M  V30 42447 C 4040.59 -2.19786 2.55335 0
M  V30 42448 O 4041.12 -3.27382 2.32774 0
M  V30 42449 N 4039.33 -1.94811 2.15631 0
M  V30 42450 H 4038.87 -1.07319 2.3418 0
M  V30 42451 H 4038.83 -2.6653 1.6676 0
M  V30 42452 N 4042.6 -1.5396 0.33676 0
M  V30 42453 C 4043.55 -2.24793 -0.523159 0
M  V30 42454 C 4044.52 -1.24363 -1.10104 0
M  V30 42455 O 4045.71 -1.53079 -1.13893 0
M  V30 42456 C 4042.85 -3.01913 -1.67161 0
M  V30 42457 C 4041.96 -4.17184 -1.12169 0
M  V30 42458 C 4041.09 -4.81806 -2.23689 0
M  V30 42459 C 4040.13 -5.89157 -1.66013 0
M  V30 42460 N 4039.27 -6.47587 -2.71249 0
M  V30 42461 H 4044.11 -2.97872 0.087423 0
M  V30 42462 H 4041.65 -1.46997 0.0549156 0
M  V30 42463 H 4043.6 -3.4488 -2.34762 0
M  V30 42464 H 4042.23 -2.31143 -2.25328 0
M  V30 42465 H 4041.29 -3.78906 -0.336818 0
M  V30 42466 H 4042.6 -4.94417 -0.659765 0
M  V30 42467 H 4041.75 -5.27809 -2.99169 0
M  V30 42468 H 4040.49 -4.03981 -2.73222 0
M  V30 42469 H 4039.5 -5.42543 -0.890362 0
M  V30 42470 H 4040.72 -6.68886 -1.1734 0
M  V30 42471 H 4038.67 -5.7263 -3.20049 0
M  V30 42472 H 4038.58 -7.20273 -2.29659 0
M  V30 42473 H 4039.85 -6.98245 -3.46518 0
M  V30 42474 N 4044.08 -0.0652232 -1.57465 0
M  V30 42475 C 4045.33 0.604927 -1.92415 0
M  V30 42476 C 4045.64 1.71166 -0.946659 0
M  V30 42477 O 4046.85 2.44093 -1.18873 0
M  V30 42478 C 4045.31 1.12735 -3.41788 0
M  V30 42479 C 4044.91 0.0519797 -4.4797 0
M  V30 42480 C 4046.66 1.77194 -3.85749 0
M  V30 42481 C 4044.56 0.588078 -5.88469 0
M  V30 42482 H 4043.49 0.229729 -0.718151 0
M  V30 42483 H 4046.15 -0.136393 -1.82992 0
M  V30 42484 H 4044.53 1.92143 -3.46262 0
M  V30 42485 H 4045.7 -0.722295 -4.55104 0
M  V30 42486 H 4044.02 -0.495989 -4.13435 0
M  V30 42487 H 4046.61 2.18324 -4.88097 0
M  V30 42488 H 4046.96 2.62931 -3.22758 0
M  V30 42489 H 4047.49 1.04419 -3.83851 0
M  V30 42490 H 4044.23 -0.23198 -6.55089 0
M  V30 42491 H 4043.75 1.33002 -5.84868 0
M  V30 42492 H 4045.43 1.06656 -6.38148 0
M  V30 42493 N 4045.56 1.56218 0.208282 0
M  V30 42494 C 4046.81 1.80112 0.932072 0
M  V30 42495 C 4047.14 0.637094 1.83452 0
M  V30 42496 O 4046.41 -0.363033 1.91082 0
M  V30 42497 C 4046.7 3.14179 1.75964 0
M  V30 42498 C 4046.55 4.41052 0.882796 0
M  V30 42499 C 4047.87 3.4481 2.73484 0
M  V30 42500 H 4044.99 0.655224 0.337417 0
M  V30 42501 H 4047.63 1.88943 0.200166 0
M  V30 42502 H 4045.78 3.06782 2.38364 0
M  V30 42503 H 4047.45 4.60482 0.274526 0
M  V30 42504 H 4045.69 4.33389 0.188845 0
M  V30 42505 H 4046.37 5.31327 1.49653 0
M  V30 42506 H 4048.84 3.52422 2.21219 0
M  V30 42507 H 4047.72 4.39763 3.28481 0
M  V30 42508 H 4047.98 2.67641 3.51882 0
M  V30 42509 N 4047.04 -0.475502 1.50256 0
M  V30 42510 C 4048.29 -1.22548 1.60706 0
M  V30 42511 C 4048.61 -1.92562 0.307409 0
M  V30 42512 O 4047.88 -1.83909 -0.674853 0
M  V30 42513 H 4046.46 -0.455332 0.592184 0
M  V30 42514 H 4049.12 -0.548893 1.87011 0
M  V30 42515 H 4048.21 -1.97576 2.41599 0
M  V30 42516 N 4048.52 -1.39759 -0.72837 0
M  V30 42517 C 4049.76 -1.37072 -1.48512 0
M  V30 42518 C 4050.08 0.030492 -1.94976 0
M  V30 42519 O 4049.35 0.982957 -1.69454 0
M  V30 42520 H 4047.93 -0.504444 -0.550949 0
M  V30 42521 H 4050.6 -1.7469 -0.864266 0
M  V30 42522 H 4049.69 -2.0376 -2.36407 0
M  V30 42523 N 4049.99 0.959257 -1.25044 0
M  V30 42524 C 4050.96 2.03677 -1.05111 0
M  V30 42525 C 4051.96 1.60799 -0.00549736 0
M  V30 42526 O 4053.15 1.72436 -0.247256 0
M  V30 42527 C 4050.28 3.35668 -0.59494 0
M  V30 42528 H 4051.47 2.22793 -2.00757 0
M  V30 42529 H 4049.02 1.13569 -1.07386 0
M  V30 42530 H 4049.76 3.22247 0.36433 0
M  V30 42531 H 4049.54 3.68137 -1.34973 0
M  V30 42532 H 4051.03 4.14869 -0.476771 0
M  V30 42533 N 4051.47 1.06556 1.16119 0
M  V30 42534 C 4052.88 0.807833 1.68318 0
M  V30 42535 C 4053.23 -0.668202 1.84471 0
M  V30 42536 O 4052.36 -1.51808 1.54218 0
M  V30 42537 C 4052.95 1.45984 3.05735 0
M  V30 42538 C 4051.51 1.24983 3.55044 0
M  V30 42539 C 4050.66 1.53466 2.30962 0
M  V30 42540 H 4053.61 1.22868 1.00445 0
M  V30 42541 H 4053.63 0.876622 3.70264 0
M  V30 42542 H 4053.14 2.53411 2.93947 0
M  V30 42543 H 4051.25 0.195432 3.72087 0
M  V30 42544 H 4051.36 1.9644 4.36976 0
M  V30 42545 H 4049.72 0.95531 2.36106 0
M  V30 42546 H 4050.51 2.62056 2.21769 0
M  V30 42547 N 4052.95 -1.32808 0.848511 0
M  V30 42548 C 4054.18 -2.0166 0.462679 0
M  V30 42549 C 4054.59 -1.638 -0.938877 0
M  V30 42550 O 4053.95 -0.856198 -1.61169 0
M  V30 42551 C 4054 -3.56736 0.584968 0
M  V30 42552 O 4053.72 -3.93233 1.93131 0
M  V30 42553 C 4055.22 -4.42861 0.197343 0
M  V30 42554 H 4052.44 -0.64569 0.182551 0
M  V30 42555 H 4054.99 -1.69525 1.14375 0
M  V30 42556 H 4053.14 -3.8737 -0.048302 0
M  V30 42557 H 4053.56 -4.87949 1.92369 0
M  V30 42558 H 4055.03 -5.50989 0.333929 0
M  V30 42559 H 4055.51 -4.30665 -0.861657 0
M  V30 42560 H 4056.11 -4.17604 0.805436 0
M  V30 42561 N 4054.43 -0.605858 -1.45489 0
M  V30 42562 C 4055.67 -0.108945 -2.03108 0
M  V30 42563 C 4056.03 1.24596 -1.46607 0
M  V30 42564 O 4055.32 1.80925 -0.630617 0
M  V30 42565 C 4055.52 -0.00924859 -3.57399 0
M  V30 42566 C 4055.35 -1.35294 -4.28866 0
M  V30 42567 C 4054.12 -1.93318 -4.66858 0
M  V30 42568 C 4056.31 -2.28133 -4.60934 0
M  V30 42569 N 4054.3 -3.21185 -5.23176 0
M  V30 42570 C 4055.67 -3.40598 -5.18067 0
M  V30 42571 C 4057.72 -2.27526 -4.42873 0
M  V30 42572 C 4056.42 -4.52619 -5.59042 0
M  V30 42573 C 4058.45 -3.38594 -4.84879 0
M  V30 42574 C 4057.81 -4.49781 -5.42104 0
M  V30 42575 H 4053.91 -0.0831939 -0.777562 0
M  V30 42576 H 4056.5 -0.803831 -1.77332 0
M  V30 42577 H 4054.67 0.654854 -3.8284 0
M  V30 42578 H 4056.4 0.494166 -4.01672 0
M  V30 42579 H 4053.15 -1.46543 -4.50358 0
M  V30 42580 H 4053.58 -3.86492 -5.55836 0
M  V30 42581 H 4058.22 -1.42826 -3.97946 0
M  V30 42582 H 4055.94 -5.38046 -6.02936 0
M  V30 42583 H 4059.52 -3.3927 -4.72638 0
M  V30 42584 H 4058.4 -5.34305 -5.74011 0
M  V30 42585 N 4055.91 1.53779 -0.34492 0
M  V30 42586 C 4057.15 2.00936 0.251172 0
M  V30 42587 C 4057.48 1.23272 1.50447 0
M  V30 42588 O 4056.74 0.308772 1.93249 0
M  V30 42589 C 4057.04 3.52166 0.609433 0
M  V30 42590 C 4056.7 4.47568 -0.547141 0
M  V30 42591 C 4055.36 4.7337 -0.864539 0
M  V30 42592 C 4057.72 5.04129 -1.32299 0
M  V30 42593 C 4055.04 5.52988 -1.96013 0
M  V30 42594 C 4057.4 5.84942 -2.40884 0
M  V30 42595 C 4056.06 6.09039 -2.73182 0
M  V30 42596 H 4055.33 0.735278 0.0919104 0
M  V30 42597 H 4057.98 1.85564 -0.473118 0
M  V30 42598 H 4056.28 3.65377 1.41446 0
M  V30 42599 H 4057.98 3.86111 1.08256 0
M  V30 42600 H 4054.57 4.2762 -0.289701 0
M  V30 42601 H 4058.75 4.84159 -1.09104 0
M  V30 42602 H 4054.01 5.69882 -2.21459 0
M  V30 42603 H 4058.18 6.27783 -3.01432 0
M  V30 42604 H 4055.81 6.70519 -3.58202 0
M  V30 42605 N 4057.38 0.0735731 1.57428 0
M  V30 42606 C 4058.33 -0.910711 2.1403 0
M  V30 42607 C 4059.33 -1.30703 1.07764 0
M  V30 42608 O 4060.53 -1.28407 1.26141 0
M  V30 42609 H 4056.91 -0.31164 0.684386 0
M  V30 42610 H 4058.88 -0.408416 2.95592 0
M  V30 42611 C 4057.63 -2.16815 2.71821 0
M  V30 42612 H 4056.95 -1.87203 3.53263 0
M  V30 42613 H 4058.39 -2.83794 3.15019 0
M  V30 42614 C 4056.85 -2.92786 1.66667 0
M  V30 42615 O 4057.38 -3.86552 1.09272 0
M  V30 42616 N 4055.59 -2.55926 1.3766 0
M  V30 42617 H 4055.13 -1.79749 1.84521 0
M  V30 42618 H 4055.09 -3.07061 0.675361 0
M  V30 42619 N 4058.86 -1.56326 -0.199995 0
M  V30 42620 C 4059.83 -1.93304 -1.23151 0
M  V30 42621 C 4060.83 -0.813665 -1.38694 0
M  V30 42622 O 4062.02 -1.08115 -1.3659 0
M  V30 42623 C 4059.15 -2.20279 -2.60173 0
M  V30 42624 H 4060.34 -2.85583 -0.915566 0
M  V30 42625 H 4057.89 -1.4994 -0.441314 0
M  V30 42626 H 4058.63 -1.30622 -2.96831 0
M  V30 42627 H 4058.41 -3.01845 -2.50264 0
M  V30 42628 H 4059.9 -2.49909 -3.34567 0
M  V30 42629 N 4060.34 0.467527 -1.50506 0
M  V30 42630 C 4061.27 1.57306 -1.7256 0
M  V30 42631 C 4062.25 1.60099 -0.574647 0
M  V30 42632 O 4063.44 1.76309 -0.814166 0
M  V30 42633 C 4060.57 2.95607 -1.82301 0
M  V30 42634 C 4059.52 3.0768 -2.97518 0
M  V30 42635 C 4058.85 4.47664 -2.92406 0
M  V30 42636 C 4060.15 2.84565 -4.37973 0
M  V30 42637 H 4061.84 1.39102 -2.65124 0
M  V30 42638 H 4059.39 0.667754 -1.27582 0
M  V30 42639 H 4061.34 3.72879 -1.96315 0
M  V30 42640 H 4060.06 3.14975 -0.863617 0
M  V30 42641 H 4058.72 2.32842 -2.83161 0
M  V30 42642 H 4058.37 4.63955 -1.94305 0
M  V30 42643 H 4058.07 4.56676 -3.69757 0
M  V30 42644 H 4059.59 5.26951 -3.08473 0
M  V30 42645 H 4061.01 3.51585 -4.52837 0
M  V30 42646 H 4059.41 3.05019 -5.16801 0
M  V30 42647 H 4060.48 1.80394 -4.50096 0
M  V30 42648 N 4061.82 1.40143 0.720948 0
M  V30 42649 C 4063.23 1.22055 1.02833 0
M  V30 42650 C 4063.43 0.0919844 2.0129 0
M  V30 42651 O 4062.49 -0.551854 2.46396 0
M  V30 42652 C 4063.8 2.56019 1.57718 0
M  V30 42653 C 4065.35 2.62985 1.69729 0
M  V30 42654 C 4065.83 3.97204 2.2802 0
M  V30 42655 N 4067.32 3.98917 2.35413 0
M  V30 42656 C 4068.05 4.99553 2.81486 0
M  V30 42657 N 4067.55 6.10584 3.27351 0
M  V30 42658 N 4069.34 4.86924 2.80822 0
M  V30 42659 H 4061.49 2.1229 0.0682337 0
M  V30 42660 H 4063.76 0.943439 0.0928786 0
M  V30 42661 H 4063.46 3.39226 0.928365 0
M  V30 42662 H 4063.34 2.7673 2.56321 0
M  V30 42663 H 4065.72 1.80152 2.33729 0
M  V30 42664 H 4065.8 2.4611 0.6974 0
M  V30 42665 H 4065.45 4.80473 1.64644 0
M  V30 42666 H 4065.38 4.11406 3.28713 0
M  V30 42667 H 4067.87 3.18738 2.03013 0
M  V30 42668 H 4068.18 6.83269 3.61059 0
M  V30 42669 H 4066.53 6.14157 3.25324 0
M  V30 42670 H 4069.72 3.99279 2.44323 0
M  V30 42671 H 4069.89 5.65497 3.16413 0
M  V30 42672 N 4063.3 -0.952612 1.25551 0
M  V30 42673 C 4064.57 -1.67392 1.01189 0
M  V30 42674 C 4064.95 -2.05999 -0.461255 0
M  V30 42675 O 4064.3 -1.77492 -1.43906 0
M  V30 42676 C 4064.51 -2.89469 1.94959 0
M  V30 42677 C 4065.86 -3.61376 2.22918 0
M  V30 42678 O 4066.88 -2.99554 1.92733 0
M  V30 42679 O 4065.74 -4.72702 2.74254 0
M  V30 42680 H 4062.84 -0.732503 0.383887 0
M  V30 42681 H 4065.38 -1.00536 1.36714 0
M  V30 42682 H 4064.15 -2.57745 2.9442 0
M  V30 42683 H 4063.78 -3.64055 1.59843 0
M  V30 42684 N 4064.77 -1.0717 -1.15553 0
M  V30 42685 C 4066.02 -0.793751 -1.86295 0
M  V30 42686 C 4066.35 0.680113 -1.82222 0
M  V30 42687 O 4065.6 1.51483 -1.23901 0
M  V30 42688 C 4065.9 -1.2449 -3.35018 0
M  V30 42689 C 4065.57 -2.7244 -3.59287 0
M  V30 42690 C 4064.23 -3.12851 -3.6562 0
M  V30 42691 C 4066.58 -3.67947 -3.69141 0
M  V30 42692 C 4063.91 -4.4759 -3.79315 0
M  V30 42693 C 4066.26 -5.02445 -3.84359 0
M  V30 42694 C 4064.93 -5.4248 -3.88936 0
M  V30 42695 H 4064.2 -0.290454 -0.681702 0
M  V30 42696 H 4066.84 -1.34239 -1.36573 0
M  V30 42697 H 4065.15 -0.615614 -3.86933 0
M  V30 42698 H 4066.85 -1.00676 -3.88156 0
M  V30 42699 H 4063.44 -2.40155 -3.54998 0
M  V30 42700 H 4067.62 -3.37853 -3.6355 0
M  V30 42701 H 4062.88 -4.78081 -3.81115 0
M  V30 42702 H 4067.05 -5.76325 -3.90925 0
M  V30 42703 H 4064.68 -6.46887 -3.99301 0
M  V30 42704 N 4066.25 1.32356 -0.855542 0
M  V30 42705 C 4067.48 2.01412 -0.473367 0
M  V30 42706 C 4067.9 1.64296 0.930177 0
M  V30 42707 O 4067.25 0.864733 1.60713 0
M  V30 42708 C 4067.3 3.5642 -0.603878 0
M  V30 42709 O 4067.03 3.92203 -1.95214 0
M  V30 42710 C 4068.53 4.4275 -0.220826 0
M  V30 42711 H 4065.75 0.644713 -0.185973 0
M  V30 42712 H 4068.29 1.68916 -1.15273 0
M  V30 42713 H 4066.45 3.8739 0.0277582 0
M  V30 42714 H 4066.86 4.86922 -1.94954 0
M  V30 42715 H 4068.33 5.50804 -0.363145 0
M  V30 42716 H 4068.81 4.31116 0.838805 0
M  V30 42717 H 4069.42 4.17171 -0.827571 0
M  V30 42718 N 4067.73 0.613565 1.45166 0
M  V30 42719 C 4068.66 -0.088963 2.3333 0
M  V30 42720 C 4069.64 -0.852724 1.47182 0
M  V30 42721 O 4070.83 -0.822091 1.75941 0
M  V30 42722 C 4067.96 -1.08295 3.29984 0
M  V30 42723 C 4066.91 -0.43201 4.25814 0
M  V30 42724 C 4066.24 -1.53467 5.12203 0
M  V30 42725 C 4067.54 0.650611 5.18232 0
M  V30 42726 H 4069.23 0.647216 2.92321 0
M  V30 42727 H 4066.78 0.312692 1.40564 0
M  V30 42728 H 4068.73 -1.58303 3.90536 0
M  V30 42729 H 4067.45 -1.8498 2.69165 0
M  V30 42730 H 4066.11 0.0472571 3.6657 0
M  V30 42731 H 4065.76 -2.29195 4.47748 0
M  V30 42732 H 4065.46 -1.10459 5.77124 0
M  V30 42733 H 4066.99 -2.0369 5.75624 0
M  V30 42734 H 4068.4 0.234363 5.72821 0
M  V30 42735 H 4066.8 1.00279 5.91662 0
M  V30 42736 H 4067.87 1.52483 4.60301 0
M  V30 42737 N 4069.21 -1.53594 0.353071 0
M  V30 42738 C 4070.16 -2.25335 -0.499287 0
M  V30 42739 C 4071.13 -1.25524 -1.08779 0
M  V30 42740 O 4072.31 -1.54278 -1.12263 0
M  V30 42741 C 4069.45 -3.03669 -1.63949 0
M  V30 42742 C 4068.56 -4.1835 -1.07737 0
M  V30 42743 C 4067.7 -4.84151 -2.18566 0
M  V30 42744 C 4066.74 -5.90885 -1.59755 0
M  V30 42745 N 4065.88 -6.50427 -2.64365 0
M  V30 42746 H 4070.72 -2.97762 0.119011 0
M  V30 42747 H 4068.25 -1.46931 0.0705035 0
M  V30 42748 H 4070.21 -3.47351 -2.31091 0
M  V30 42749 H 4068.84 -2.3352 -2.22864 0
M  V30 42750 H 4067.89 -3.79242 -0.296611 0
M  V30 42751 H 4069.2 -4.95089 -0.607288 0
M  V30 42752 H 4068.36 -5.30953 -2.93554 0
M  V30 42753 H 4067.1 -4.06856 -2.68922 0
M  V30 42754 H 4066.1 -5.43457 -0.832768 0
M  V30 42755 H 4067.33 -6.70093 -1.10239 0
M  V30 42756 H 4065.27 -5.75992 -3.13958 0
M  V30 42757 H 4065.19 -7.22668 -2.22006 0
M  V30 42758 H 4066.46 -7.01881 -3.39093 0
M  V30 42759 N 4070.69 -0.0819208 -1.57387 0
M  V30 42760 C 4071.94 0.58371 -1.93487 0
M  V30 42761 C 4072.26 1.69534 -0.963496 0
M  V30 42762 O 4071.53 1.95895 -0.0133211 0
M  V30 42763 H 4070.11 0.218609 -0.714296 0
M  V30 42764 H 4072.77 -0.142158 -1.94381 0
M  V30 42765 H 4071.86 1.00247 -2.95562 0
M  V30 42766 N 4072.17 1.5643 0.191702 0
M  V30 42767 C 4073.4 1.84669 0.926331 0
M  V30 42768 C 4073.8 0.662705 1.77214 0
M  V30 42769 O 4073.15 -0.377807 1.79773 0
M  V30 42770 C 4073.21 3.07056 1.86967 0
M  V30 42771 C 4072.87 4.40814 1.20548 0
M  V30 42772 C 4073.87 5.16646 0.580761 0
M  V30 42773 C 4071.55 4.8755 1.20832 0
M  V30 42774 C 4073.55 6.37392 -0.0322523 0
M  V30 42775 C 4071.24 6.08231 0.591473 0
M  V30 42776 C 4072.23 6.82994 -0.0277297 0
M  V30 42777 O 4071.92 8.01389 -0.634901 0
M  V30 42778 H 4071.65 0.617265 0.275609 0
M  V30 42779 H 4074.21 2.04395 0.202891 0
M  V30 42780 H 4072.44 2.83223 2.6329 0
M  V30 42781 H 4074.13 3.21913 2.47238 0
M  V30 42782 H 4074.89 4.81631 0.570684 0
M  V30 42783 H 4070.77 4.29311 1.67968 0
M  V30 42784 H 4074.32 6.95688 -0.51617 0
M  V30 42785 H 4070.21 6.42714 0.599064 0
M  V30 42786 H 4070.98 8.16768 -0.53214 0
M  V30 42787 N 4073.64 -0.459538 1.50751 0
M  V30 42788 C 4074.89 -1.21255 1.62558 0
M  V30 42789 C 4075.22 -1.9137 0.330299 0
M  V30 42790 O 4074.5 -1.82635 -0.668923 0
M  V30 42791 C 4074.78 -2.24712 2.81384 0
M  V30 42792 C 4074.63 -1.58825 4.20826 0
M  V30 42793 C 4075.95 -3.25915 2.95749 0
M  V30 42794 H 4073.07 -0.439473 0.591636 0
M  V30 42795 H 4075.71 -0.504745 1.83173 0
M  V30 42796 H 4073.86 -2.85077 2.63938 0
M  V30 42797 H 4075.54 -1.01967 4.49889 0
M  V30 42798 H 4073.78 -0.891073 4.2455 0
M  V30 42799 H 4074.45 -2.34061 4.99919 0
M  V30 42800 H 4076.93 -2.75583 3.11758 0
M  V30 42801 H 4075.8 -3.9562 3.80495 0
M  V30 42802 H 4076.06 -3.9072 2.06858 0
M  V30 42803 N 4075.12 -1.40523 -0.713506 0
M  V30 42804 C 4076.05 -1.4371 -1.84037 0
M  V30 42805 C 4077.03 -0.297781 -1.67473 0
M  V30 42806 O 4078.22 -0.506695 -1.87473 0
M  V30 42807 C 4075.35 -1.301 -3.22011 0
M  V30 42808 C 4074.3 -2.41656 -3.53251 0
M  V30 42809 C 4073.63 -2.13121 -4.90391 0
M  V30 42810 C 4074.93 -3.83998 -3.54038 0
M  V30 42811 H 4076.62 -2.38016 -1.81628 0
M  V30 42812 H 4074.17 -1.14564 -0.872417 0
M  V30 42813 H 4076.12 -1.30945 -4.00539 0
M  V30 42814 H 4074.84 -0.322705 -3.25002 0
M  V30 42815 H 4073.5 -2.40064 -2.77065 0
M  V30 42816 H 4073.15 -1.13678 -4.89986 0
M  V30 42817 H 4072.85 -2.87862 -5.12259 0
M  V30 42818 H 4074.38 -2.15652 -5.7125 0
M  V30 42819 H 4075.79 -3.87402 -4.22602 0
M  V30 42820 H 4074.19 -4.58275 -3.87433 0
M  V30 42821 H 4075.26 -4.13433 -2.5338 0
M  V30 42822 N 4076.6 0.94594 -1.26054 0
M  V30 42823 C 4077.56 2.02551 -1.07265 0
M  V30 42824 C 4078.56 1.60784 -0.0225519 0
M  V30 42825 O 4079.75 1.72164 -0.265531 0
M  V30 42826 C 4076.88 3.35018 -0.630509 0
M  V30 42827 H 4078.08 2.20651 -2.03109 0
M  V30 42828 H 4075.63 1.12424 -1.08584 0
M  V30 42829 H 4076.37 3.22615 0.330131 0
M  V30 42830 H 4076.15 3.66685 -1.3887 0
M  V30 42831 H 4077.64 4.1434 -0.520747 0
M  V30 42832 N 4078.08 1.07781 1.14983 0
M  V30 42833 C 4079.31 0.824878 1.89746 0
M  V30 42834 C 4079.72 -0.622353 1.78248 0
M  V30 42835 O 4079.08 -1.42721 1.13741 0
M  V30 42836 C 4079.13 1.22966 3.39944 0
M  V30 42837 O 4078.85 2.62011 3.51115 0
M  V30 42838 C 4080.35 1.00666 4.31719 0
M  V30 42839 H 4077.57 0.297938 0.601227 0
M  V30 42840 H 4080.11 1.43541 1.45657 0
M  V30 42841 H 4078.27 0.663359 3.81678 0
M  V30 42842 H 4078.68 2.78643 4.44363 0
M  V30 42843 H 4080.16 1.33935 5.35505 0
M  V30 42844 H 4080.63 -0.0567359 4.39163 0
M  V30 42845 H 4081.24 1.55808 3.95732 0
M  V30 42846 N 4079.56 -1.31901 0.862549 0
M  V30 42847 C 4080.8 -1.96243 0.465991 0
M  V30 42848 C 4081.12 -1.68976 -0.985213 0
M  V30 42849 O 4082.32 -2.2712 -1.48757 0
M  V30 42850 C 4080.78 -3.51293 0.78238 0
M  V30 42851 C 4080.39 -3.87409 2.24984 0
M  V30 42852 C 4082.13 -4.22066 0.453931 0
M  V30 42853 C 4080.04 -5.35538 2.50904 0
M  V30 42854 H 4078.97 -0.734463 0.170528 0
M  V30 42855 H 4081.62 -1.5018 1.05442 0
M  V30 42856 H 4080 -3.95808 0.123286 0
M  V30 42857 H 4081.18 -3.53878 2.95138 0
M  V30 42858 H 4079.49 -3.29682 2.54359 0
M  V30 42859 H 4082.09 -5.31036 0.624905 0
M  V30 42860 H 4082.43 -4.11879 -0.605073 0
M  V30 42861 H 4082.96 -3.8316 1.06925 0
M  V30 42862 H 4079.7 -5.50753 3.55459 0
M  V30 42863 H 4079.22 -5.70448 1.85336 0
M  V30 42864 H 4080.9 -6.02714 2.35254 0
M  V30 42865 N 4081.03 -0.621255 -1.44838 0
M  V30 42866 C 4082.28 -0.119325 -2.01347 0
M  V30 42867 C 4082.6 1.26279 -1.49375 0
M  V30 42868 O 4083.8 1.8582 -1.97948 0
M  V30 42869 C 4082.26 -0.162599 -3.59533 0
M  V30 42870 C 4081.87 -1.54541 -4.20501 0
M  V30 42871 C 4083.61 0.283379 -4.23553 0
M  V30 42872 C 4081.52 -1.54433 -5.7088 0
M  V30 42873 H 4080.45 -0.0408425 -0.752893 0
M  V30 42874 H 4083.1 -0.7786 -1.66163 0
M  V30 42875 H 4081.48 0.56359 -3.91969 0
M  V30 42876 H 4082.65 -2.2944 -3.99617 0
M  V30 42877 H 4080.97 -1.93464 -3.68729 0
M  V30 42878 H 4083.57 0.303577 -5.33838 0
M  V30 42879 H 4083.91 1.30877 -3.95192 0
M  V30 42880 H 4084.44 -0.389989 -3.95884 0
M  V30 42881 H 4081.18 -2.54777 -6.03961 0
M  V30 42882 H 4080.7 -0.838133 -5.93915 0
M  V30 42883 H 4082.38 -1.27394 -6.34334 0
M  V30 42884 N 4082.51 1.53405 -0.361211 0
M  V30 42885 C 4083.76 2.01489 0.230187 0
M  V30 42886 C 4084.09 1.24817 1.48776 0
M  V30 42887 O 4083.37 0.340645 1.91494 0
M  V30 42888 C 4083.65 3.5623 0.52655 0
M  V30 42889 C 4083.5 4.43598 -0.744355 0
M  V30 42890 C 4084.82 4.19556 1.32893 0
M  V30 42891 H 4081.94 0.732403 0.082188 0
M  V30 42892 H 4084.58 1.83699 -0.48524 0
M  V30 42893 H 4082.73 3.71519 1.13603 0
M  V30 42894 H 4084.4 4.40113 -1.38195 0
M  V30 42895 H 4082.65 4.11744 -1.36562 0
M  V30 42896 H 4083.32 5.49803 -0.49201 0
M  V30 42897 H 4085.79 4.08072 0.813403 0
M  V30 42898 H 4084.67 5.27863 1.50504 0
M  V30 42899 H 4084.93 3.75333 2.33619 0
M  V30 42900 N 4083.99 0.0902663 1.57341 0
M  V30 42901 C 4085.24 -0.574575 1.94177 0
M  V30 42902 C 4085.57 -1.6849 0.971665 0
M  V30 42903 O 4084.82 -1.95698 -0.00958288 0
M  V30 42904 C 4085.12 -1.17398 3.37568 0
M  V30 42905 C 4084.79 -0.18794 4.50508 0
M  V30 42906 C 4083.45 0.0832768 4.81128 0
M  V30 42907 C 4085.8 0.48561 5.18933 0
M  V30 42908 C 4083.13 1.03482 5.77502 0
M  V30 42909 C 4085.48 1.42559 6.16328 0
M  V30 42910 C 4084.14 1.70509 6.45355 0
M  V30 42911 H 4083.41 -0.210252 0.710546 0
M  V30 42912 H 4086.06 0.165073 1.90787 0
M  V30 42913 H 4084.37 -1.98978 3.37513 0
M  V30 42914 H 4086.06 -1.69601 3.63368 0
M  V30 42915 H 4082.65 -0.409515 4.26639 0
M  V30 42916 H 4086.84 0.289213 4.95457 0
M  V30 42917 H 4082.09 1.25842 5.98309 0
M  V30 42918 H 4086.27 1.95335 6.68444 0
M  V30 42919 H 4083.89 2.444 7.19842 0
M  V30 42920 N 4085.47 -1.56529 -0.183403 0
M  V30 42921 C 4086.4 -1.98496 -1.22969 0
M  V30 42922 C 4087.38 -0.858678 -1.46836 0
M  V30 42923 O 4088.56 -1.12388 -1.58375 0
M  V30 42924 C 4085.69 -2.33451 -2.57134 0
M  V30 42925 C 4084.65 -3.48927 -2.47859 0
M  V30 42926 C 4083.97 -3.69589 -3.86404 0
M  V30 42927 C 4085.27 -4.82754 -1.99363 0
M  V30 42928 H 4086.97 -2.86148 -0.880887 0
M  V30 42929 H 4084.51 -1.37669 -0.422297 0
M  V30 42930 H 4086.47 -2.61406 -3.30522 0
M  V30 42931 H 4085.19 -1.42695 -2.93779 0
M  V30 42932 H 4083.85 -3.2108 -1.76926 0
M  V30 42933 H 4083.5 -2.76144 -4.20421 0
M  V30 42934 H 4083.2 -4.4728 -3.8107 0
M  V30 42935 H 4084.72 -3.99932 -4.61396 0
M  V30 42936 H 4086.14 -5.09664 -2.62517 0
M  V30 42937 H 4084.53 -5.63998 -2.05004 0
M  V30 42938 H 4085.6 -4.75556 -0.947359 0
M  V30 42939 N 4086.95 0.451537 -1.50993 0
M  V30 42940 C 4088.19 1.21176 -1.64608 0
M  V30 42941 C 4088.55 1.88821 -0.347922 0
M  V30 42942 O 4089.75 2.66383 -0.35969 0
M  V30 42943 C 4088.02 2.21262 -2.80674 0
M  V30 42944 S 4089.58 3.05962 -3.14536 0
M  V30 42945 H 4086.4 0.411135 -0.580077 0
M  V30 42946 H 4089 0.505578 -1.8885 0
M  V30 42947 H 4087.71 1.70181 -3.73452 0
M  V30 42948 H 4087.24 2.96481 -2.58578 0
M  V30 42949 H 4089.25 4.22707 -2.59872 0
M  V30 42950 N 4088.42 1.409 0.706044 0
M  V30 42951 C 4089.39 1.41659 1.80181 0
M  V30 42952 C 4090.39 0.308851 1.57806 0
M  V30 42953 O 4091.58 0.568226 1.64672 0
M  V30 42954 C 4088.71 1.21771 3.1841 0
M  V30 42955 H 4089.9 2.39194 1.80904 0
M  V30 42956 H 4087.46 1.26888 0.912635 0
M  V30 42957 H 4088.19 0.250345 3.23332 0
M  V30 42958 H 4087.98 2.0202 3.36051 0
M  V30 42959 H 4089.47 1.25113 3.98418 0
M  V30 42960 N 4089.9 -0.939242 1.26554 0
M  V30 42961 C 4091.15 -1.68816 1.12379 0
M  V30 42962 C 4091.48 -1.91345 -0.331751 0
M  V30 42963 O 4090.76 -1.49552 -1.24356 0
M  V30 42964 C 4091.04 -3.06176 1.89547 0
M  V30 42965 C 4090.89 -2.9096 3.43019 0
M  V30 42966 C 4092.21 -4.06324 1.69081 0
M  V30 42967 H 4089.33 -0.612678 0.409627 0
M  V30 42968 H 4091.97 -1.09073 1.55573 0
M  V30 42969 H 4090.12 -3.57174 1.52837 0
M  V30 42970 H 4091.79 -2.4717 3.89493 0
M  V30 42971 H 4090.04 -2.26545 3.69946 0
M  V30 42972 H 4090.71 -3.88394 3.92243 0
M  V30 42973 H 4093.18 -3.64295 2.01068 0
M  V30 42974 H 4092.06 -5.00447 2.25487 0
M  V30 42975 H 4092.32 -4.37503 0.635864 0
M  V30 42976 N 4091.38 -1.08389 -1.14409 0
M  V30 42977 C 4092.31 -0.735366 -2.21618 0
M  V30 42978 C 4093.29 0.282103 -1.67744 0
M  V30 42979 O 4094.48 0.152513 -1.936 0
M  V30 42980 C 4091.61 -0.143689 -3.47003 0
M  V30 42981 C 4090.56 -1.08948 -4.13901 0
M  V30 42982 C 4089.89 -0.360034 -5.33486 0
M  V30 42983 C 4091.19 -2.42754 -4.62458 0
M  V30 42984 H 4092.88 -1.63172 -2.51028 0
M  V30 42985 H 4090.43 -0.786002 -1.20657 0
M  V30 42986 H 4092.38 0.112143 -4.21251 0
M  V30 42987 H 4091.1 0.7878 -3.16956 0
M  V30 42988 H 4089.76 -1.33041 -3.41607 0
M  V30 42989 H 4089.41 0.575253 -4.997 0
M  V30 42990 H 4089.11 -0.990553 -5.79191 0
M  V30 42991 H 4090.63 -0.112252 -6.10497 0
M  V30 42992 H 4092.05 -2.22929 -5.28181 0
M  V30 42993 H 4090.45 -3.01497 -5.18864 0
M  V30 42994 H 4091.52 -3.04292 -3.77537 0
M  V30 42995 N 4092.86 1.31442 -0.869532 0
M  V30 42996 C 4093.79 2.26601 -0.269651 0
M  V30 42997 C 4094.77 1.51088 0.60094 0
M  V30 42998 O 4095.95 1.80161 0.55446 0
M  V30 42999 C 4093.08 3.3301 0.618228 0
M  V30 43000 C 4092.13 4.26116 -0.180957 0
M  V30 43001 S 4092.96 5.12299 -1.55917 0
M  V30 43002 C 4094.12 6.22223 -0.677404 0
M  V30 43003 H 4094.35 2.77133 -1.07631 0
M  V30 43004 H 4091.88 1.392 -0.668027 0
M  V30 43005 H 4093.84 3.94789 1.12481 0
M  V30 43006 H 4092.5 2.81232 1.39883 0
M  V30 43007 H 4091.69 5.01554 0.495932 0
M  V30 43008 H 4091.3 3.68832 -0.61962 0
M  V30 43009 H 4093.59 6.77407 0.112181 0
M  V30 43010 H 4094.53 6.94064 -1.4029 0
M  V30 43011 H 4094.94 5.63967 -0.245149 0
M  V30 43012 N 4094.34 0.628927 1.44507 0
M  V30 43013 C 4095.57 0.139344 2.0613 0
M  V30 43014 C 4095.97 -1.19042 1.47057 0
M  V30 43015 O 4095.32 -1.74066 0.587082 0
M  V30 43016 C 4095.38 -0.0521345 3.59462 0
M  V30 43017 C 4095.04 1.19912 4.40988 0
M  V30 43018 C 4096.04 2.12231 4.74609 0
M  V30 43019 C 4093.73 1.43392 4.81398 0
M  V30 43020 C 4095.72 3.26341 5.47522 0
M  V30 43021 C 4093.41 2.578 5.5406 0
M  V30 43022 C 4094.4 3.49101 5.87041 0
M  V30 43023 O 4094.09 4.61514 6.58225 0
M  V30 43024 H 4093.82 0.075888 0.671727 0
M  V30 43025 H 4096.38 0.862777 1.86401 0
M  V30 43026 H 4094.61 -0.83069 3.77672 0
M  V30 43027 H 4096.3 -0.495995 4.02858 0
M  V30 43028 H 4097.06 1.95324 4.4393 0
M  V30 43029 H 4092.94 0.73217 4.55149 0
M  V30 43030 H 4096.49 3.97627 5.73183 0
M  V30 43031 H 4092.38 2.7465 5.84155 0
M  V30 43032 H 4093.15 4.60468 6.76692 0
M  V30 43033 N 4095.82 -1.53211 0.369342 0
M  V30 43034 C 4096.75 -2.28778 -0.467202 0
M  V30 43035 C 4097.73 -1.31357 -1.08071 0
M  V30 43036 O 4098.91 -1.60231 -1.09725 0
M  V30 43037 C 4096.04 -3.07982 -1.60513 0
M  V30 43038 C 4095 -4.13122 -1.11868 0
M  V30 43039 C 4094.32 -4.8043 -2.34714 0
M  V30 43040 C 4095.62 -5.21914 -0.200755 0
M  V30 43041 H 4097.32 -2.98955 0.163253 0
M  V30 43042 H 4094.86 -1.43778 0.0799564 0
M  V30 43043 H 4096.81 -3.59596 -2.19702 0
M  V30 43044 H 4095.54 -2.35503 -2.26288 0
M  V30 43045 H 4094.2 -3.62459 -0.549457 0
M  V30 43046 H 4093.85 -4.04519 -2.98954 0
M  V30 43047 H 4093.55 -5.51481 -2.02836 0
M  V30 43048 H 4095.07 -5.3484 -2.94582 0
M  V30 43049 H 4096.48 -5.69008 -0.700231 0
M  V30 43050 H 4094.88 -6.00094 0.0273277 0
M  V30 43051 H 4095.95 -4.7897 0.756033 0
M  V30 43052 N 4097.29 -0.0986092 -1.57291 0
M  V30 43053 C 4098.53 0.567601 -1.96361 0
M  V30 43054 C 4098.9 1.65132 -0.979566 0
M  V30 43055 O 4100.1 2.37498 -1.25889 0
M  V30 43056 C 4098.37 1.10521 -3.39882 0
M  V30 43057 S 4099.93 1.7828 -4.00951 0
M  V30 43058 H 4096.75 0.185112 -0.68648 0
M  V30 43059 H 4099.35 -0.178848 -1.9468 0
M  V30 43060 H 4098.05 0.305014 -4.09265 0
M  V30 43061 H 4097.58 1.88741 -3.45167 0
M  V30 43062 H 4099.6 3.06727 -3.90042 0
M  V30 43063 N 4098.77 1.56624 0.175099 0
M  V30 43064 C 4099.7 1.99146 1.21915 0
M  V30 43065 C 4100.68 0.866453 1.46378 0
M  V30 43066 O 4101.87 1.13226 1.57777 0
M  V30 43067 C 4099 2.34811 2.55893 0
M  V30 43068 C 4097.95 3.50236 2.46005 0
M  V30 43069 C 4097.28 3.71633 3.84439 0
M  V30 43070 C 4098.58 4.83805 1.968 0
M  V30 43071 H 4100.27 2.86611 0.8657 0
M  V30 43072 H 4097.82 1.37891 0.41499 0
M  V30 43073 H 4099.77 2.63155 3.29131 0
M  V30 43074 H 4098.49 1.4425 2.93018 0
M  V30 43075 H 4097.15 3.22014 1.75221 0
M  V30 43076 H 4096.8 2.78369 4.1895 0
M  V30 43077 H 4096.5 4.49295 3.78692 0
M  V30 43078 H 4098.03 4.02374 4.59269 0
M  V30 43079 H 4099.44 5.11049 2.5981 0
M  V30 43080 H 4097.84 5.65077 2.0201 0
M  V30 43081 H 4098.91 4.76051 0.922126 0
M  V30 43082 N 4100.25 -0.443523 1.5123 0
M  V30 43083 C 4101.66 -1.02359 1.56139 0
M  V30 43084 C 4102.01 -1.92462 0.381169 0
M  V30 43085 O 4101.14 -2.10478 -0.50278 0
M  V30 43086 C 4101.73 -1.86315 2.8297 0
M  V30 43087 C 4100.29 -2.39383 2.9047 0
M  V30 43088 C 4099.44 -1.18433 2.50737 0
M  V30 43089 H 4102.39 -0.225033 1.57096 0
M  V30 43090 H 4102.41 -2.71699 2.66383 0
M  V30 43091 H 4101.92 -1.20711 3.6885 0
M  V30 43092 H 4100.02 -3.0846 2.09006 0
M  V30 43093 H 4100.14 -2.72603 3.93985 0
M  V30 43094 H 4098.5 -1.52774 2.03794 0
M  V30 43095 H 4099.28 -0.544489 3.38955 0
M  V30 43096 N 4101.73 -1.41272 -0.698562 0
M  V30 43097 C 4102.96 -1.43819 -1.48741 0
M  V30 43098 C 4103.37 -0.0426189 -1.88752 0
M  V30 43099 O 4102.73 0.937397 -1.56586 0
M  V30 43100 C 4102.78 -2.34423 -2.75188 0
M  V30 43101 O 4102.5 -3.68548 -2.36863 0
M  V30 43102 C 4104 -2.45741 -3.68953 0
M  V30 43103 H 4101.22 -0.489946 -0.458469 0
M  V30 43104 H 4103.76 -1.85522 -0.860339 0
M  V30 43105 H 4101.92 -1.96036 -3.34139 0
M  V30 43106 H 4102.33 -4.1684 -3.18347 0
M  V30 43107 H 4103.81 -3.1331 -4.54468 0
M  V30 43108 H 4104.28 -1.48774 -4.13235 0
M  V30 43109 H 4104.89 -2.84751 -3.15907 0
M  V30 43110 N 4103.21 0.932517 -1.27051 0
M  V30 43111 C 4104.45 1.67968 -1.13106 0
M  V30 43112 C 4104.78 1.91782 0.324013 0
M  V30 43113 O 4104.04 1.50262 1.25379 0
M  V30 43114 C 4104.33 3.05505 -1.85476 0
M  V30 43115 C 4104 3.01418 -3.35348 0
M  V30 43116 C 4102.66 3.00011 -3.76227 0
M  V30 43117 C 4105.01 2.93071 -4.30998 0
M  V30 43118 C 4102.34 2.88032 -5.1113 0
M  V30 43119 C 4104.69 2.82634 -5.65951 0
M  V30 43120 C 4103.36 2.79574 -6.06131 0
M  V30 43121 H 4102.63 0.61464 -0.413883 0
M  V30 43122 H 4105.28 1.08786 -1.576 0
M  V30 43123 H 4103.58 3.68363 -1.33475 0
M  V30 43124 H 4105.28 3.62183 -1.72118 0
M  V30 43125 H 4101.87 3.03298 -3.02834 0
M  V30 43126 H 4106.05 2.9326 -4.0039 0
M  V30 43127 H 4101.31 2.84047 -5.41413 0
M  V30 43128 H 4105.48 2.7514 -6.39743 0
M  V30 43129 H 4103.11 2.70049 -7.10618 0
M  V30 43130 N 4104.68 1.08995 1.13833 0
M  V30 43131 C 4105.91 0.845105 1.89401 0
M  V30 43132 C 4106.33 -0.59761 1.78354 0
M  V30 43133 O 4105.69 -1.4194 1.12796 0
M  V30 43134 C 4105.74 1.27937 3.37142 0
M  V30 43135 O 4104.84 0.435047 4.10099 0
M  V30 43136 H 4104.18 0.306438 0.58906 0
M  V30 43137 H 4106.71 1.45293 1.44052 0
M  V30 43138 H 4106.72 1.26284 3.87964 0
M  V30 43139 H 4105.4 2.33008 3.445 0
M  V30 43140 H 4103.98 0.515512 3.69319 0
M  V30 43141 N 4106.16 -1.30979 0.87649 0
M  V30 43142 C 4107.09 -2.26455 0.281665 0
M  V30 43143 C 4108.07 -1.51404 -0.592919 0
M  V30 43144 O 4109.26 -1.80453 -0.544897 0
M  V30 43145 C 4106.38 -3.33333 -0.600559 0
M  V30 43146 C 4105.43 -4.26014 0.203553 0
M  V30 43147 S 4106.26 -5.11465 1.58632 0
M  V30 43148 C 4107.42 -6.21855 0.710393 0
M  V30 43149 H 4107.65 -2.76559 1.09099 0
M  V30 43150 H 4105.18 -1.38844 0.6754 0
M  V30 43151 H 4107.14 -3.9538 -1.10385 0
M  V30 43152 H 4105.8 -2.8197 -1.38389 0
M  V30 43153 H 4105 -5.0181 -0.469327 0
M  V30 43154 H 4104.6 -3.68498 0.639171 0
M  V30 43155 H 4106.89 -6.77457 -0.0762545 0
M  V30 43156 H 4107.83 -6.9331 1.43969 0
M  V30 43157 H 4108.24 -5.63829 0.275054 0
M  V30 43158 N 4107.64 -0.636582 -1.44171 0
M  V30 43159 C 4108.89 -0.143464 -2.02292 0
M  V30 43160 C 4109.22 1.23346 -1.49998 0
M  V30 43161 O 4108.49 1.81991 -0.68626 0
M  V30 43162 C 4108.78 -0.136088 -3.59843 0
M  V30 43163 C 4108.63 -1.54574 -4.22406 0
M  V30 43164 C 4109.95 0.536461 -4.36818 0
M  V30 43165 H 4107.07 -0.0536068 -0.735048 0
M  V30 43166 H 4109.71 -0.814096 -1.71675 0
M  V30 43167 H 4107.86 0.43498 -3.86057 0
M  V30 43168 H 4109.53 -2.16611 -4.0728 0
M  V30 43169 H 4107.77 -2.098 -3.79692 0
M  V30 43170 H 4108.45 -1.49257 -5.31438 0
M  V30 43171 H 4110.92 0.0507595 -4.16069 0
M  V30 43172 H 4109.8 0.51083 -5.46518 0
M  V30 43173 H 4110.06 1.60776 -4.11829 0
M  V30 43174 N 4109.12 1.53013 -0.377462 0
M  V30 43175 C 4110.53 1.86436 0.099171 0
M  V30 43176 C 4110.88 1.29762 1.4716 0
M  V30 43177 O 4110 0.624301 2.07199 0
M  V30 43178 C 4110.6 3.38285 0.186729 0
M  V30 43179 C 4109.16 3.71463 0.607635 0
M  V30 43180 C 4108.31 2.76279 -0.237789 0
M  V30 43181 H 4111.26 1.47091 -0.595802 0
M  V30 43182 H 4111.28 3.66903 1.0081 0
M  V30 43183 H 4110.79 3.79504 -0.812286 0
M  V30 43184 H 4108.89 3.35807 1.61445 0
M  V30 43185 H 4109 4.77638 0.374002 0
M  V30 43186 H 4107.37 2.52984 0.295151 0
M  V30 43187 H 4108.15 3.20333 -1.23456 0
M  V30 43188 N 4110.6 0.106949 1.57237 0
M  V30 43189 C 4111.84 -0.554768 1.95065 0
M  V30 43190 C 4112.18 -1.67093 0.989626 0
M  V30 43191 O 4111.45 -1.94484 0.0247199 0
M  V30 43192 C 4111.73 -1.09881 3.42926 0
M  V30 43193 C 4111.59 0.0131048 4.49798 0
M  V30 43194 C 4112.91 -1.99349 3.92362 0
M  V30 43195 H 4110.02 -0.200191 0.70929 0
M  V30 43196 H 4112.67 0.180065 1.89145 0
M  V30 43197 H 4110.82 -1.72504 3.48101 0
M  V30 43198 H 4112.49 0.647885 4.56728 0
M  V30 43199 H 4110.73 0.677901 4.2847 0
M  V30 43200 H 4111.4 -0.408584 5.50486 0
M  V30 43201 H 4113.88 -1.46615 3.89414 0
M  V30 43202 H 4112.75 -2.34338 4.96364 0
M  V30 43203 H 4113.02 -2.91543 3.32348 0
M  V30 43204 N 4112.07 -1.56715 -0.166791 0
M  V30 43205 C 4112.98 -1.99999 -1.22628 0
M  V30 43206 C 4114 -0.912094 -1.48178 0
M  V30 43207 O 4115.18 -1.22007 -1.60238 0
M  V30 43208 C 4112.24 -2.35503 -2.54439 0
M  V30 43209 C 4111.3 -3.58142 -2.36712 0
M  V30 43210 C 4110.54 -3.91943 -3.62238 0
M  V30 43211 O 4110.76 -3.26654 -4.67604 0
M  V30 43212 O 4109.69 -4.85275 -3.56078 0
M  V30 43213 H 4113.52 -2.90401 -0.888874 0
M  V30 43214 H 4111.1 -1.44643 -0.374006 0
M  V30 43215 H 4112.99 -2.59287 -3.32187 0
M  V30 43216 H 4111.66 -1.48261 -2.87751 0
M  V30 43217 H 4110.57 -3.3957 -1.56981 0
M  V30 43218 H 4111.9 -4.45939 -2.08324 0
M  V30 43219 N 4113.55 0.435497 -1.51463 0
M  V30 43220 C 4114.8 1.18478 -1.64223 0
M  V30 43221 C 4115.13 1.91152 -0.359348 0
M  V30 43222 O 4114.38 1.84355 0.65665 0
M  V30 43223 C 4114.68 2.22493 -2.79699 0
M  V30 43224 C 4114.35 1.66818 -4.18906 0
M  V30 43225 C 4113.01 1.51357 -4.56776 0
M  V30 43226 C 4115.36 1.25901 -5.05765 0
M  V30 43227 C 4112.69 0.934569 -5.79209 0
M  V30 43228 C 4115.04 0.694293 -6.28778 0
M  V30 43229 C 4113.71 0.526603 -6.6542 0
M  V30 43230 H 4112.98 0.433541 -0.600935 0
M  V30 43231 H 4115.62 0.475585 -1.85501 0
M  V30 43232 H 4113.93 2.99457 -2.52651 0
M  V30 43233 H 4115.62 2.80292 -2.86771 0
M  V30 43234 H 4112.21 1.79829 -3.8905 0
M  V30 43235 H 4116.4 1.36666 -4.77112 0
M  V30 43236 H 4111.65 0.792425 -6.06243 0
M  V30 43237 H 4115.83 0.368738 -6.95423 0
M  V30 43238 H 4113.46 0.0758202 -7.60162 0
M  V30 43239 N 4115.03 1.41641 0.69106 0
M  V30 43240 C 4116.26 1.44396 1.47761 0
M  V30 43241 C 4116.67 0.0489572 1.89137 0
M  V30 43242 O 4116.01 -0.943083 1.57644 0
M  V30 43243 C 4116.07 2.29356 2.76833 0
M  V30 43244 C 4115.74 3.77457 2.57633 0
M  V30 43245 C 4116.73 4.69509 2.23287 0
M  V30 43246 C 4114.42 4.21549 2.73133 0
M  V30 43247 C 4116.41 6.03641 2.04685 0
M  V30 43248 C 4114.1 5.55744 2.54148 0
M  V30 43249 C 4115.1 6.46606 2.19975 0
M  V30 43250 O 4114.79 7.78325 2.0116 0
M  V30 43251 H 4114.52 0.493737 0.461735 0
M  V30 43252 H 4117.07 1.86623 0.857965 0
M  V30 43253 H 4115.3 1.8195 3.4122 0
M  V30 43254 H 4116.99 2.23758 3.38655 0
M  V30 43255 H 4117.76 4.36734 2.10922 0
M  V30 43256 H 4113.64 3.51128 2.98715 0
M  V30 43257 H 4117.18 6.74526 1.77935 0
M  V30 43258 H 4113.08 5.88097 2.66105 0
M  V30 43259 H 4113.85 7.89516 2.15887 0
M  V30 43260 N 4116.51 -0.925766 1.27543 0
M  V30 43261 C 4117.42 -2.06001 1.12254 0
M  V30 43262 C 4118.43 -1.73922 0.0520793 0
M  V30 43263 O 4119.61 -1.99728 0.258956 0
M  V30 43264 C 4116.68 -3.37966 0.77329 0
M  V30 43265 C 4115.74 -3.8373 1.92483 0
M  V30 43266 C 4114.97 -5.09398 1.59215 0
M  V30 43267 O 4115.19 -5.68196 0.500936 0
M  V30 43268 O 4114.13 -5.50581 2.43195 0
M  V30 43269 H 4117.95 -2.21813 2.07443 0
M  V30 43270 H 4115.54 -1.04523 1.06749 0
M  V30 43271 H 4117.42 -4.17222 0.591936 0
M  V30 43272 H 4116.09 -3.23357 -0.149059 0
M  V30 43273 H 4115 -3.05353 2.16126 0
M  V30 43274 H 4116.33 -4.02884 2.82746 0
M  V30 43275 N 4117.99 -1.09597 -1.13253 0
M  V30 43276 C 4119.26 -0.745442 -1.80838 0
M  V30 43277 C 4119.64 0.769288 -1.96584 0
M  V30 43278 O 4118.99 1.69234 -1.53532 0
M  V30 43279 C 4119.2 -1.4865 -3.1576 0
M  V30 43280 C 4120.55 -1.65344 -3.91084 0
M  V30 43281 O 4121.57 -1.44916 -3.25389 0
M  V30 43282 O 4120.43 -1.99146 -5.08923 0
M  V30 43283 H 4117.53 -0.267977 -0.782379 0
M  V30 43284 H 4120.07 -1.19827 -1.20165 0
M  V30 43285 H 4118.84 -2.5178 -2.99537 0
M  V30 43286 H 4118.47 -1.02596 -3.84135 0
M  V30 43287 N 4119.46 1.30512 -0.883424 0
M  V30 43288 C 4120.88 1.48797 -0.577209 0
M  V30 43289 C 4121.08 1.81004 0.88543 0
M  V30 43290 O 4120.14 1.89672 1.66675 0
M  V30 43291 C 4121.45 2.61244 -1.48902 0
M  V30 43292 C 4123 2.75125 -1.49249 0
M  V30 43293 C 4123.47 3.90684 -2.39019 0
M  V30 43294 N 4124.96 3.97992 -2.36974 0
M  V30 43295 C 4125.7 4.86713 -3.03147 0
M  V30 43296 N 4125.19 5.80241 -3.78539 0
M  V30 43297 N 4126.99 4.80069 -2.92386 0
M  V30 43298 H 4119.14 1.07879 -1.82964 0
M  V30 43299 H 4121.4 0.534302 -0.783087 0
M  V30 43300 H 4121.11 2.44262 -2.5304 0
M  V30 43301 H 4120.98 3.57688 -1.19745 0
M  V30 43302 H 4123.37 2.91514 -0.45863 0
M  V30 43303 H 4123.45 1.79307 -1.82436 0
M  V30 43304 H 4123.09 3.75052 -3.42489 0
M  V30 43305 H 4123.02 4.85837 -2.03149 0
M  V30 43306 H 4125.51 3.31085 -1.82185 0
M  V30 43307 H 4125.83 6.44699 -4.26126 0
M  V30 43308 H 4124.17 5.80178 -3.82647 0
M  V30 43309 H 4127.36 4.05982 -2.33015 0
M  V30 43310 H 4127.54 5.49005 -3.44235 0
M  V30 43311 N 4120.94 0.644219 1.43832 0
M  V30 43312 C 4122.19 0.151343 2.01131 0
M  V30 43313 C 4122.5 -1.23887 1.51365 0
M  V30 43314 O 4123.71 -1.82647 2.00879 0
M  V30 43315 C 4122.17 0.219777 3.59228 0
M  V30 43316 C 4121.77 1.61212 4.17989 0
M  V30 43317 C 4123.52 -0.21596 4.2395 0
M  V30 43318 C 4121.43 1.63496 5.68351 0
M  V30 43319 H 4120.36 0.0528152 0.752148 0
M  V30 43320 H 4123.01 0.804936 1.64903 0
M  V30 43321 H 4121.39 -0.50116 3.92816 0
M  V30 43322 H 4122.56 2.35768 3.95917 0
M  V30 43323 H 4120.88 1.99305 3.65604 0
M  V30 43324 H 4123.47 -0.21861 5.34253 0
M  V30 43325 H 4123.82 -1.24574 3.97224 0
M  V30 43326 H 4124.35 0.452922 3.95213 0
M  V30 43327 H 4121.09 2.64353 5.99831 0
M  V30 43328 H 4120.61 0.932514 5.92507 0
M  V30 43329 H 4122.29 1.37469 6.32227 0
M  V30 43330 N 4122.42 -1.52811 0.385571 0
M  V30 43331 C 4123.35 -2.29261 -0.442911 0
M  V30 43332 C 4124.33 -1.32496 -1.06672 0
M  V30 43333 O 4125.52 -1.61386 -1.08019 0
M  V30 43334 C 4122.65 -3.09667 -1.57238 0
M  V30 43335 C 4121.6 -4.14285 -1.0748 0
M  V30 43336 C 4120.93 -4.82893 -2.29606 0
M  V30 43337 C 4122.23 -5.22098 -0.145387 0
M  V30 43338 H 4123.92 -2.98765 0.194952 0
M  V30 43339 H 4121.47 -1.43685 0.0952015 0
M  V30 43340 H 4123.42 -3.61906 -2.15876 0
M  V30 43341 H 4122.14 -2.37889 -2.23777 0
M  V30 43342 H 4120.8 -3.63021 -0.510983 0
M  V30 43343 H 4120.45 -4.07667 -2.94646 0
M  V30 43344 H 4120.15 -5.53601 -1.96976 0
M  V30 43345 H 4121.67 -5.37934 -2.88893 0
M  V30 43346 H 4123.09 -5.69718 -0.639841 0
M  V30 43347 H 4121.49 -6.00031 0.0909741 0
M  V30 43348 H 4122.56 -4.78141 0.806791 0
M  V30 43349 N 4123.9 -0.115287 -1.57178 0
M  V30 43350 C 4125.18 0.586969 -1.86585 0
M  V30 43351 C 4125.56 1.85054 -1.01579 0
M  V30 43352 O 4124.9 2.28308 -0.0936886 0
M  V30 43353 C 4125.11 0.882981 -3.37645 0
M  V30 43354 C 4126.46 1.23766 -4.06161 0
M  V30 43355 O 4127.49 0.973362 -3.42643 0
M  V30 43356 O 4126.34 1.73354 -5.18277 0
M  V30 43357 H 4123.44 0.295802 -0.772289 0
M  V30 43358 H 4125.98 -0.14951 -1.6904 0
M  V30 43359 H 4124.76 -0.0125871 -3.91298 0
M  V30 43360 H 4124.38 1.67475 -3.60608 0
M  V30 43361 N 4125.38 1.56801 0.158477 0
M  V30 43362 C 4126.62 1.82715 0.873006 0
M  V30 43363 C 4126.95 0.694392 1.81682 0
M  V30 43364 O 4126.21 -0.317446 1.93108 0
M  V30 43365 C 4126.51 3.14886 1.69061 0
M  V30 43366 C 4126.17 4.41936 0.894593 0
M  V30 43367 C 4124.83 4.76443 0.674945 0
M  V30 43368 C 4127.19 5.20109 0.337121 0
M  V30 43369 C 4124.51 5.86591 -0.113068 0
M  V30 43370 C 4126.87 6.31083 -0.437871 0
M  V30 43371 C 4125.53 6.64147 -0.668202 0
M  V30 43372 H 4124.8 0.668602 0.319455 0
M  V30 43373 H 4127.45 1.91008 0.137239 0
M  V30 43374 H 4125.75 3.01993 2.49615 0
M  V30 43375 H 4127.45 3.32149 2.24673 0
M  V30 43376 H 4124.04 4.14878 1.07584 0
M  V30 43377 H 4128.22 4.93834 0.494125 0
M  V30 43378 H 4123.48 6.10658 -0.301134 0
M  V30 43379 H 4127.65 6.90855 -0.877031 0
M  V30 43380 H 4125.28 7.49335 -1.28068 0
M  V30 43381 N 4126.86 -0.427458 1.51692 0
M  V30 43382 C 4127.8 -1.51955 1.73719 0
M  V30 43383 C 4128.77 -1.55678 0.5791 0
M  V30 43384 O 4129.96 -1.72535 0.814635 0
M  V30 43385 C 4127.1 -2.89582 1.87714 0
M  V30 43386 C 4126.21 -2.95311 3.15302 0
M  V30 43387 C 4125.35 -4.24122 3.19834 0
M  V30 43388 C 4124.38 -4.23756 4.41698 0
M  V30 43389 N 4123.52 -5.44108 4.43724 0
M  V30 43390 H 4128.36 -1.32476 2.66935 0
M  V30 43391 H 4125.9 -0.643369 1.32284 0
M  V30 43392 H 4127.86 -3.6945 1.9381 0
M  V30 43393 H 4126.49 -3.07597 0.978966 0
M  V30 43394 H 4125.54 -2.08045 3.18467 0
M  V30 43395 H 4126.85 -2.90903 4.05187 0
M  V30 43396 H 4126 -5.12371 3.24901 0
M  V30 43397 H 4124.74 -4.312 2.27855 0
M  V30 43398 H 4123.75 -3.33899 4.36797 0
M  V30 43399 H 4124.97 -4.18334 5.34952 0
M  V30 43400 H 4122.92 -5.51888 3.5462 0
M  V30 43401 H 4122.84 -5.41621 5.27431 0
M  V30 43402 H 4124.1 -6.34361 4.52997 0
M  V30 43403 N 4128.33 -1.42005 -0.683539 0
M  V30 43404 C 4129.58 -1.42218 -1.44575 0
M  V30 43405 C 4129.91 -0.0353076 -1.94168 0
M  V30 43406 O 4129.19 0.938993 -1.70333 0
M  V30 43407 C 4129.47 -2.43921 -2.64905 0
M  V30 43408 C 4129.32 -3.91764 -2.21 0
M  V30 43409 C 4130.64 -2.42723 -3.67115 0
M  V30 43410 H 4127.76 -0.517888 -0.524367 0
M  V30 43411 H 4130.4 -1.73362 -0.777544 0
M  V30 43412 H 4128.55 -2.17494 -3.21914 0
M  V30 43413 H 4130.23 -4.29139 -1.69225 0
M  V30 43414 H 4128.47 -4.06051 -1.5266 0
M  V30 43415 H 4129.14 -4.58491 -3.07393 0
M  V30 43416 H 4131.62 -2.66203 -3.19805 0
M  V30 43417 H 4130.49 -3.15877 -4.48902 0
M  V30 43418 H 4130.75 -1.45007 -4.17643 0
M  V30 43419 N 4129.81 0.918989 -1.28033 0
M  V30 43420 C 4130.74 2.03759 -1.14038 0
M  V30 43421 C 4131.72 1.70054 -0.0395249 0
M  V30 43422 O 4132.91 1.93 -0.21558 0
M  V30 43423 C 4130.04 3.38056 -0.795953 0
M  V30 43424 C 4128.99 3.85904 -1.851 0
M  V30 43425 C 4128.32 5.17106 -1.36033 0
M  V30 43426 C 4129.62 4.08338 -3.25665 0
M  V30 43427 H 4131.31 2.15725 -2.07613 0
M  V30 43428 H 4128.86 1.03656 -0.999576 0
M  V30 43429 H 4130.81 4.15798 -0.684836 0
M  V30 43430 H 4129.53 3.26128 0.175501 0
M  V30 43431 H 4128.19 3.10362 -1.95117 0
M  V30 43432 H 4127.84 5.01577 -0.378092 0
M  V30 43433 H 4127.54 5.5009 -2.06577 0
M  V30 43434 H 4129.07 5.97409 -1.26233 0
M  V30 43435 H 4130.48 4.76621 -3.18599 0
M  V30 43436 H 4128.88 4.52644 -3.93997 0
M  V30 43437 H 4129.95 3.13329 -3.70072 0
M  V30 43438 N 4131.29 1.10196 1.12671 0
M  V30 43439 C 4132.57 0.755022 1.80441 0
M  V30 43440 C 4132.95 -0.758852 1.96989 0
M  V30 43441 O 4132.29 -1.68418 1.54427 0
M  V30 43442 C 4132.5 1.50323 3.14967 0
M  V30 43443 C 4133.85 1.67415 3.90202 0
M  V30 43444 O 4134.88 1.4664 3.24616 0
M  V30 43445 O 4133.74 2.01842 5.0786 0
M  V30 43446 H 4130.83 0.272122 0.780947 0
M  V30 43447 H 4133.38 1.20463 1.19528 0
M  V30 43448 H 4132.15 2.53365 2.98197 0
M  V30 43449 H 4131.77 1.04632 3.83586 0
M  V30 43450 N 4132.77 -1.30042 0.890333 0
M  V30 43451 C 4133.72 -2.29941 0.3507 0
M  V30 43452 C 4134.71 -1.60388 -0.54516 0
M  V30 43453 O 4135.92 -1.74813 -0.428999 0
M  V30 43454 H 4132.29 -0.746005 0.0947634 0
M  V30 43455 H 4134.26 -2.72908 1.20681 0
M  V30 43456 C 4133.01 -3.45214 -0.415028 0
M  V30 43457 H 4132.33 -3.9892 0.265077 0
M  V30 43458 H 4133.77 -4.17176 -0.757621 0
M  V30 43459 C 4132.23 -2.95714 -1.61415 0
M  V30 43460 O 4132.76 -2.96196 -2.7135 0
M  V30 43461 N 4130.97 -2.5166 -1.45313 0
M  V30 43462 H 4130.52 -2.51467 -0.558763 0
M  V30 43463 H 4130.47 -2.18898 -2.25679 0
M  V30 43464 N 4134.25 -0.651838 -1.43488 0
M  V30 43465 C 4135.49 -0.164343 -2.01431 0
M  V30 43466 C 4135.81 1.22553 -1.51677 0
M  V30 43467 O 4135.08 1.81838 -0.728822 0
M  V30 43468 H 4133.66 -0.0577656 -0.744763 0
M  V30 43469 H 4136.33 -0.843195 -1.75716 0
M  V30 43470 H 4135.42 -0.147903 -3.11749 0
M  V30 43471 N 4135.72 1.52604 -0.39367 0
M  V30 43472 C 4136.97 2.00818 0.188388 0
M  V30 43473 C 4137.29 1.28425 1.47535 0
M  V30 43474 O 4138.49 1.67373 2.13772 0
M  V30 43475 C 4136.95 3.57821 0.386278 0
M  V30 43476 C 4136.56 4.39117 -0.887684 0
M  V30 43477 C 4138.3 4.14311 0.924464 0
M  V30 43478 C 4136.21 5.8773 -0.657832 0
M  V30 43479 H 4135.14 0.750343 0.0741762 0
M  V30 43480 H 4137.79 1.76074 -0.51674 0
M  V30 43481 H 4136.17 3.78832 1.15336 0
M  V30 43482 H 4137.34 4.29872 -1.65972 0
M  V30 43483 H 4135.66 3.93869 -1.35114 0
M  V30 43484 H 4138.26 5.23005 1.11221 0
M  V30 43485 H 4138.6 3.7068 1.89477 0
M  V30 43486 H 4139.13 3.97209 0.216838 0
M  V30 43487 H 4135.87 6.35692 -1.59926 0
M  V30 43488 H 4135.39 5.99753 0.0751909 0
M  V30 43489 H 4137.07 6.46331 -0.294049 0
M  V30 43490 N 4137.2 0.12362 1.57114 0
M  V30 43491 C 4138.45 -0.533097 1.94528 0
M  V30 43492 C 4138.76 -1.67534 1.00953 0
M  V30 43493 O 4139.97 -2.39513 1.27851 0
M  V30 43494 C 4138.43 -0.999722 3.45736 0
M  V30 43495 C 4138.03 0.114317 4.47854 0
M  V30 43496 C 4139.78 -1.62755 3.9206 0
M  V30 43497 C 4137.68 -0.369266 5.90246 0
M  V30 43498 H 4136.61 -0.202917 0.726182 0
M  V30 43499 H 4139.27 0.204215 1.8236 0
M  V30 43500 H 4137.65 -1.79159 3.53154 0
M  V30 43501 H 4138.82 0.890706 4.5211 0
M  V30 43502 H 4137.14 0.649091 4.1131 0
M  V30 43503 H 4139.73 -2.00058 4.95864 0
M  V30 43504 H 4140.08 -2.50771 3.32294 0
M  V30 43505 H 4140.61 -0.901006 3.87462 0
M  V30 43506 H 4137.35 0.474952 6.53777 0
M  V30 43507 H 4136.87 -1.11204 5.89401 0
M  V30 43508 H 4138.55 -0.82898 6.41667 0
M  V30 43509 N 4138.68 -1.56883 -0.15016 0
M  V30 43510 C 4140.1 -1.51477 -0.50269 0
M  V30 43511 C 4140.3 -0.83151 -1.83543 0
M  V30 43512 O 4139.35 -0.400715 -2.493 0
M  V30 43513 C 4140.66 -2.96241 -0.515913 0
M  V30 43514 C 4142.21 -3.07163 -0.601648 0
M  V30 43515 C 4142.69 -4.53427 -0.645563 0
M  V30 43516 N 4144.18 -4.57759 -0.707874 0
M  V30 43517 C 4144.91 -5.68304 -0.762783 0
M  V30 43518 N 4144.41 -6.88426 -0.777232 0
M  V30 43519 N 4146.2 -5.56329 -0.803423 0
M  V30 43520 H 4138.35 -1.99699 0.723477 0
M  V30 43521 H 4140.62 -0.910666 0.263421 0
M  V30 43522 H 4140.32 -3.49474 0.395095 0
M  V30 43523 H 4140.2 -3.52024 -1.35495 0
M  V30 43524 H 4142.58 -2.53952 -1.50308 0
M  V30 43525 H 4142.66 -2.54429 0.264475 0
M  V30 43526 H 4142.31 -5.07276 0.251695 0
M  V30 43527 H 4142.24 -5.0394 -1.52813 0
M  V30 43528 H 4144.73 -3.71282 -0.704135 0
M  V30 43529 H 4145.04 -7.68428 -0.82089 0
M  V30 43530 H 4143.39 -6.90994 -0.745159 0
M  V30 43531 H 4146.58 -4.61398 -0.789284 0
M  V30 43532 H 4146.75 -6.42496 -0.842751 0
M  V30 43533 N 4140.16 0.419408 -1.51917 0
M  V30 43534 C 4141.44 1.17964 -1.56025 0
M  V30 43535 C 4141.82 2.08423 -0.335131 0
M  V30 43536 O 4141.16 2.18188 0.678692 0
M  V30 43537 C 4141.37 1.9659 -2.88363 0
M  V30 43538 C 4142.72 2.53013 -3.40983 0
M  V30 43539 O 4143.75 2.06781 -2.90034 0
M  V30 43540 O 4142.6 3.37381 -4.29926 0
M  V30 43541 H 4139.7 0.538042 -0.628045 0
M  V30 43542 H 4142.24 0.427021 -1.6424 0
M  V30 43543 H 4141.02 1.3026 -3.68982 0
M  V30 43544 H 4140.64 2.78879 -2.83394 0
M  V30 43545 N 4141.64 1.42366 0.675998 0
M  V30 43546 C 4142.88 1.42983 1.43818 0
M  V30 43547 C 4143.22 0.0456043 1.94146 0
M  V30 43548 O 4142.49 -0.929946 1.70828 0
M  V30 43549 C 4142.77 2.45322 2.63607 0
M  V30 43550 C 4142.63 3.92931 2.18919 0
M  V30 43551 C 4143.95 2.44666 3.65823 0
M  V30 43552 H 4141.06 0.520662 0.521613 0
M  V30 43553 H 4143.71 1.73772 0.76834 0
M  V30 43554 H 4141.86 2.19199 3.20756 0
M  V30 43555 H 4143.53 4.30031 1.66947 0
M  V30 43556 H 4141.77 4.06855 1.50504 0
M  V30 43557 H 4142.44 4.60114 3.04957 0
M  V30 43558 H 4144.92 2.67895 3.18389 0
M  V30 43559 H 4143.79 3.18253 4.4722 0
M  V30 43560 H 4144.06 1.4722 4.16868 0
M  V30 43561 N 4143.11 -0.912187 1.28518 0
M  V30 43562 C 4144.06 -2.03617 1.1244 0
M  V30 43563 C 4145.06 -1.69345 0.0432628 0
M  V30 43564 O 4146.26 -1.78861 0.202148 0
M  V30 43565 H 4142.64 -0.667179 0.346952 0
M  V30 43566 H 4144.61 -2.1432 2.07629 0
M  V30 43567 C 4143.36 -3.38261 0.804663 0
M  V30 43568 H 4142.68 -3.65128 1.62855 0
M  V30 43569 H 4144.12 -4.17631 0.732129 0
M  V30 43570 C 4142.58 -3.33293 -0.491656 0
M  V30 43571 O 4143.11 -3.71771 -1.52149 0
M  V30 43572 N 4141.32 -2.86388 -0.492957 0
M  V30 43573 H 4140.86 -2.55272 0.345535 0
M  V30 43574 H 4140.82 -2.83447 -1.36033 0
M  V30 43575 N 4144.59 -1.10792 -1.12085 0
M  V30 43576 C 4146 -0.869747 -1.65204 0
M  V30 43577 C 4146.35 0.599276 -1.86824 0
M  V30 43578 O 4145.48 1.4598 -1.59746 0
M  V30 43579 C 4146.07 -1.57231 -3.00106 0
M  V30 43580 C 4144.63 -1.38074 -3.50161 0
M  V30 43581 C 4143.78 -1.61932 -2.25107 0
M  V30 43582 H 4146.73 -1.26511 -0.958153 0
M  V30 43583 H 4146.75 -1.01344 -3.66756 0
M  V30 43584 H 4146.26 -2.64146 -2.84339 0
M  V30 43585 H 4144.37 -0.333396 -3.71105 0
M  V30 43586 H 4144.48 -2.12523 -4.29384 0
M  V30 43587 H 4142.84 -1.04228 -2.32397 0
M  V30 43588 H 4143.63 -2.70107 -2.1189 0
M  V30 43589 N 4146.07 1.29568 -0.897217 0
M  V30 43590 C 4147.35 1.90553 -0.441455 0
M  V30 43591 C 4147.73 1.81458 1.07872 0
M  V30 43592 O 4147.08 1.23969 1.91948 0
M  V30 43593 C 4147.29 3.35729 -0.953254 0
M  V30 43594 C 4148.63 4.12765 -0.995481 0
M  V30 43595 O 4149.66 3.44623 -0.900753 0
M  V30 43596 O 4148.52 5.34533 -1.13739 0
M  V30 43597 H 4145.61 0.815542 -0.137186 0
M  V30 43598 H 4148.16 1.38051 -0.98692 0
M  V30 43599 H 4146.93 3.36493 -1.99721 0
M  V30 43600 H 4146.55 3.95706 -0.387657 0
M  V30 43601 N 4147.55 0.659438 1.4314 0
M  V30 43602 C 4148.83 0.105007 1.95318 0
M  V30 43603 C 4149.21 -1.37648 1.6005 0
M  V30 43604 O 4148.55 -2.10506 0.888783 0
M  V30 43605 C 4148.76 0.35783 3.47161 0
M  V30 43606 C 4150.11 0.266095 4.23765 0
M  V30 43607 O 4151.14 0.290729 3.55012 0
M  V30 43608 O 4149.99 0.195117 5.46152 0
M  V30 43609 H 4147.09 -0.00602826 0.826978 0
M  V30 43610 H 4149.63 0.733106 1.53048 0
M  V30 43611 H 4148.41 1.38471 3.6598 0
M  V30 43612 H 4148.03 -0.303032 3.96444 0
M  V30 43613 N 4149.03 -1.52393 0.401757 0
M  V30 43614 C 4149.97 -2.26809 -0.427346 0
M  V30 43615 C 4150.94 -1.28921 -1.04731 0
M  V30 43616 O 4152.13 -1.57772 -1.07298 0
M  V30 43617 C 4149.27 -3.08731 -1.54205 0
M  V30 43618 C 4148.38 -4.21566 -0.943734 0
M  V30 43619 C 4147.52 -4.90859 -2.03053 0
M  V30 43620 C 4146.56 -5.95668 -1.40876 0
M  V30 43621 N 4145.69 -6.58509 -2.43538 0
M  V30 43622 H 4150.53 -2.97233 0.213682 0
M  V30 43623 H 4148.07 -1.46632 0.117213 0
M  V30 43624 H 4150.03 -3.54527 -2.19923 0
M  V30 43625 H 4148.66 -2.40492 -2.15322 0
M  V30 43626 H 4147.71 -3.79994 -0.175808 0
M  V30 43627 H 4149.02 -4.96771 -0.449472 0
M  V30 43628 H 4148.18 -5.40023 -2.76513 0
M  V30 43629 H 4146.91 -4.15206 -2.55842 0
M  V30 43630 H 4145.92 -5.45831 -0.65945 0
M  V30 43631 H 4147.14 -6.73261 -0.888648 0
M  V30 43632 H 4145.09 -5.85689 -2.95474 0
M  V30 43633 H 4145.01 -7.29365 -1.98903 0
M  V30 43634 H 4146.28 -7.12313 -3.16591 0
M  V30 43635 N 4150.5 -0.131951 -1.57047 0
M  V30 43636 C 4151.74 0.525822 -1.97521 0
M  V30 43637 C 4152.11 1.63017 -1.01437 0
M  V30 43638 O 4153.31 2.34775 -1.30898 0
M  V30 43639 C 4151.58 1.03287 -3.4215 0
M  V30 43640 S 4153.14 1.69735 -4.04642 0
M  V30 43641 H 4149.96 0.170509 -0.690252 0
M  V30 43642 H 4152.56 -0.220102 -1.94257 0
M  V30 43643 H 4151.26 0.218134 -4.0982 0
M  V30 43644 H 4150.79 1.81377 -3.49093 0
M  V30 43645 H 4152.81 2.98385 -3.96461 0
M  V30 43646 N 4151.98 1.5696 0.141838 0
M  V30 43647 C 4153.23 1.83631 0.853577 0
M  V30 43648 C 4153.56 0.713623 1.80936 0
M  V30 43649 O 4152.81 -0.296947 1.93434 0
M  V30 43650 C 4153.11 3.16661 1.65712 0
M  V30 43651 C 4152.78 4.4286 0.84767 0
M  V30 43652 C 4151.44 4.77132 0.624374 0
M  V30 43653 C 4153.79 5.20437 0.281938 0
M  V30 43654 C 4151.12 5.86438 -0.175278 0
M  V30 43655 C 4153.47 6.30583 -0.504781 0
M  V30 43656 C 4152.14 6.63401 -0.738606 0
M  V30 43657 H 4151.41 0.671953 0.312346 0
M  V30 43658 H 4154.05 1.91142 0.116973 0
M  V30 43659 H 4152.36 3.04623 2.46398 0
M  V30 43660 H 4154.05 3.34513 2.21138 0
M  V30 43661 H 4150.64 4.15996 1.03178 0
M  V30 43662 H 4154.83 4.9433 0.441719 0
M  V30 43663 H 4150.08 6.10304 -0.365885 0
M  V30 43664 H 4154.26 6.89886 -0.950256 0
M  V30 43665 H 4151.89 7.47934 -1.36008 0
M  V30 43666 N 4153.46 -0.411345 1.52137 0
M  V30 43667 C 4154.42 -1.48366 1.747 0
M  V30 43668 C 4155.42 -1.48496 0.61689 0
M  V30 43669 O 4156.61 -1.5006 0.884742 0
M  V30 43670 C 4153.75 -2.87787 1.82734 0
M  V30 43671 H 4154.94 -1.29653 2.70426 0
M  V30 43672 H 4152.49 -0.6417 1.4252 0
M  V30 43673 H 4153.23 -3.11873 0.889151 0
M  V30 43674 H 4153.01 -2.89095 2.64889 0
M  V30 43675 H 4154.5 -3.65527 2.0194 0
M  V30 43676 N 4154.94 -1.42722 -0.668439 0
M  V30 43677 C 4155.89 -1.46941 -1.80308 0
M  V30 43678 C 4156.88 -0.344492 -1.6586 0
M  V30 43679 O 4158.09 -0.517798 -1.72392 0
M  V30 43680 H 4154.46 -0.460344 -0.594632 0
M  V30 43681 H 4156.43 -2.42513 -1.73868 0
M  V30 43682 C 4155.18 -1.39485 -3.18495 0
M  V30 43683 H 4154.51 -2.25344 -3.30242 0
M  V30 43684 H 4155.95 -1.46499 -3.97887 0
M  V30 43685 C 4154.4 -0.110445 -3.36719 0
M  V30 43686 O 4154.93 0.834285 -3.92941 0
M  V30 43687 N 4153.14 -0.0255393 -2.90589 0
M  V30 43688 H 4152.69 -0.79512 -2.45022 0
M  V30 43689 H 4152.65 0.833183 -3.03159 0
M  V30 43690 N 4156.42 0.905358 -1.29 0
M  V30 43691 C 4157.36 2.00881 -1.13646 0
M  V30 43692 C 4158.33 1.66071 -0.0312995 0
M  V30 43693 O 4159.52 1.89772 -0.19778 0
M  V30 43694 C 4156.66 3.35385 -0.813086 0
M  V30 43695 C 4155.77 3.83013 -1.99812 0
M  V30 43696 C 4154.91 5.06066 -1.61463 0
M  V30 43697 C 4153.95 5.46049 -2.76581 0
M  V30 43698 N 4153.08 6.6029 -2.38666 0
M  V30 43699 H 4157.92 2.13346 -2.08056 0
M  V30 43700 H 4155.46 1.04488 -1.03541 0
M  V30 43701 H 4157.42 4.12771 -0.60631 0
M  V30 43702 H 4156.05 3.22663 0.0940993 0
M  V30 43703 H 4155.1 3.01711 -2.31677 0
M  V30 43704 H 4156.41 4.08599 -2.86092 0
M  V30 43705 H 4155.57 5.9102 -1.37041 0
M  V30 43706 H 4154.31 4.82308 -0.723239 0
M  V30 43707 H 4153.31 4.59632 -3.01692 0
M  V30 43708 H 4154.54 5.71792 -3.66375 0
M  V30 43709 H 4152.48 6.38145 -1.52008 0
M  V30 43710 H 4152.4 6.85643 -3.1848 0
M  V30 43711 H 4153.67 7.48527 -2.1755 0
M  V30 43712 N 4157.9 1.11385 1.11495 0
M  V30 43713 C 4158.85 0.740762 2.15631 0
M  V30 43714 C 4159.83 -0.254911 1.58868 0
M  V30 43715 O 4161.02 -0.0621121 1.76891 0
M  V30 43716 C 4158.15 0.184953 3.42801 0
M  V30 43717 C 4157.24 1.20826 4.06524 0
M  V30 43718 N 4157.63 2.40227 4.45112 0
M  V30 43719 C 4155.93 1.05106 4.33438 0
M  V30 43720 C 4156.63 3.05485 4.95029 0
M  V30 43721 N 4155.6 2.32967 4.91149 0
M  V30 43722 H 4159.4 1.64953 2.43244 0
M  V30 43723 H 4156.92 0.993007 1.28503 0
M  V30 43724 H 4158.92 -0.100458 4.16779 0
M  V30 43725 H 4157.58 -0.718407 3.16653 0
M  V30 43726 H 4158.59 2.77686 4.37162 0
M  V30 43727 H 4155.26 0.204081 4.17001 0
M  V30 43728 H 4156.65 4.07107 5.34522 0
M  V30 43729 N 4159.37 -1.2909 0.904076 0
M  V30 43730 C 4160.79 -1.4786 0.600809 0
M  V30 43731 C 4160.99 -1.8239 -0.856522 0
M  V30 43732 O 4160.05 -1.923 -1.63637 0
M  V30 43733 C 4161.36 -2.58842 1.53039 0
M  V30 43734 C 4162.91 -2.72716 1.53607 0
M  V30 43735 C 4163.38 -3.86832 2.45204 0
M  V30 43736 N 4164.87 -3.94172 2.43276 0
M  V30 43737 C 4165.61 -4.81829 3.10851 0
M  V30 43738 N 4165.1 -5.74146 3.87722 0
M  V30 43739 N 4166.9 -4.75357 2.99987 0
M  V30 43740 H 4159.05 -1.04954 1.84658 0
M  V30 43741 H 4161.31 -0.521776 0.791489 0
M  V30 43742 H 4161.02 -2.40205 2.56894 0
M  V30 43743 H 4160.89 -3.55738 1.25421 0
M  V30 43744 H 4163.28 -2.90748 0.50495 0
M  V30 43745 H 4163.36 -1.76382 1.85265 0
M  V30 43746 H 4163 -3.69556 3.48412 0
M  V30 43747 H 4162.93 -4.82544 2.10853 0
M  V30 43748 H 4165.42 -3.28144 1.87429 0
M  V30 43749 H 4165.74 -6.37838 4.36329 0
M  V30 43750 H 4164.08 -5.74017 3.91828 0
M  V30 43751 H 4167.27 -4.02224 2.39444 0
M  V30 43752 H 4167.45 -5.43459 3.52926 0
M  V30 43753 N 4160.85 -0.66702 -1.42789 0
M  V30 43754 C 4162.08 -0.192633 -2.06503 0
M  V30 43755 C 4162.5 1.13833 -1.49745 0
M  V30 43756 O 4161.86 1.70629 -0.612827 0
M  V30 43757 C 4161.91 -0.129838 -3.60366 0
M  V30 43758 O 4161.01 0.903947 -4.02371 0
M  V30 43759 H 4160.35 -0.101205 -0.656242 0
M  V30 43760 H 4162.88 -0.913839 -1.83058 0
M  V30 43761 H 4162.89 0.0489022 -4.07971 0
M  V30 43762 H 4161.57 -1.10137 -4.01052 0
M  V30 43763 H 4160.14 0.696879 -3.6633 0
M  V30 43764 N 4162.33 1.52178 -0.409833 0
M  V30 43765 C 4163.58 2.01821 0.165722 0
M  V30 43766 C 4163.9 1.29542 1.45083 0
M  V30 43767 O 4163.16 0.390458 1.91765 0
M  V30 43768 C 4163.46 3.54434 0.459519 0
M  V30 43769 C 4163.12 4.44845 -0.736478 0
M  V30 43770 C 4161.79 4.69277 -1.06453 0
M  V30 43771 C 4164.14 4.98064 -1.53562 0
M  V30 43772 C 4161.47 5.44177 -2.19291 0
M  V30 43773 C 4163.82 5.74199 -2.65477 0
M  V30 43774 C 4162.48 5.96904 -2.98767 0
M  V30 43775 H 4161.75 0.738514 0.0606421 0
M  V30 43776 H 4164.4 1.8339 -0.551396 0
M  V30 43777 H 4162.7 3.71047 1.25821 0
M  V30 43778 H 4164.4 3.90355 0.91782 0
M  V30 43779 H 4160.99 4.26006 -0.470809 0
M  V30 43780 H 4165.18 4.79096 -1.2954 0
M  V30 43781 H 4160.43 5.59977 -2.4543 0
M  V30 43782 H 4164.61 6.14434 -3.27787 0
M  V30 43783 H 4162.23 6.54723 -3.86318 0
M  V30 43784 N 4163.81 0.140278 1.56974 0
M  V30 43785 C 4165.04 -0.51964 2.00268 0
M  V30 43786 C 4165.45 -1.58857 1.02029 0
M  V30 43787 O 4164.81 -1.82493 0.016284 0
M  V30 43788 C 4164.86 -1.12642 3.43502 0
M  V30 43789 O 4164.58 -0.1002 4.37985 0
M  V30 43790 C 4166.08 -1.8676 4.02039 0
M  V30 43791 H 4163.3 -0.135853 0.657103 0
M  V30 43792 H 4165.84 0.232882 2.0317 0
M  V30 43793 H 4164 -1.82961 3.41474 0
M  V30 43794 H 4164.41 -0.543837 5.21673 0
M  V30 43795 H 4165.89 -2.24516 5.04278 0
M  V30 43796 H 4166.36 -2.75097 3.42372 0
M  V30 43797 H 4166.97 -1.21156 4.07678 0
M  V30 43798 N 4165.29 -1.57033 -0.133512 0
M  V30 43799 C 4166.22 -1.95898 -1.18982 0
M  V30 43800 C 4167.23 -0.856451 -1.38451 0
M  V30 43801 O 4168.42 -1.13481 -1.37783 0
M  V30 43802 C 4165.52 -2.2295 -2.55238 0
M  V30 43803 C 4164.69 -3.5425 -2.56566 0
M  V30 43804 C 4163.75 -3.69684 -3.7446 0
M  V30 43805 O 4162.78 -4.41943 -3.58713 0
M  V30 43806 N 4163.98 -3.07359 -4.92454 0
M  V30 43807 H 4166.74 -2.87116 -0.859345 0
M  V30 43808 H 4164.31 -1.58646 -0.322942 0
M  V30 43809 H 4166.3 -2.30504 -3.32641 0
M  V30 43810 H 4164.87 -1.37931 -2.80524 0
M  V30 43811 H 4164.09 -3.58015 -1.64981 0
M  V30 43812 H 4165.38 -4.40578 -2.54496 0
M  V30 43813 H 4164.77 -2.48593 -5.08151 0
M  V30 43814 H 4163.33 -3.20455 -5.67584 0
M  V30 43815 N 4166.76 0.403271 -1.52353 0
M  V30 43816 C 4168.01 1.14808 -1.67901 0
M  V30 43817 C 4168.36 1.88051 -0.406787 0
M  V30 43818 O 4167.66 1.81996 0.599006 0
M  V30 43819 C 4167.85 2.1651 -2.84356 0
M  V30 43820 C 4167.68 1.53255 -4.2278 0
M  V30 43821 C 4166.45 1.30274 -4.88218 0
M  V30 43822 C 4168.65 0.990288 -5.04676 0
M  V30 43823 N 4166.63 0.629739 -6.10662 0
M  V30 43824 C 4168 0.444535 -6.18404 0
M  V30 43825 C 4170.06 0.885317 -4.89966 0
M  V30 43826 C 4168.76 -0.195907 -7.19033 0
M  V30 43827 C 4170.79 0.258719 -5.90834 0
M  V30 43828 C 4170.15 -0.27633 -7.03858 0
M  V30 43829 H 4166.25 0.40658 -0.667995 0
M  V30 43830 H 4168.83 0.439626 -1.89672 0
M  V30 43831 H 4167 2.84708 -2.6419 0
M  V30 43832 H 4168.73 2.83395 -2.88911 0
M  V30 43833 H 4165.49 1.57386 -4.46684 0
M  V30 43834 H 4165.91 0.309693 -6.76291 0
M  V30 43835 H 4170.55 1.2848 -4.02806 0
M  V30 43836 H 4168.27 -0.607434 -8.05814 0
M  V30 43837 H 4171.86 0.178938 -5.81525 0
M  V30 43838 H 4170.74 -0.753543 -7.80571 0
M  V30 43839 N 4168.24 1.43075 0.66086 0
M  V30 43840 C 4169.47 1.47498 1.44665 0
M  V30 43841 C 4169.88 0.0890648 1.8899 0
M  V30 43842 O 4169.22 -0.909432 1.59609 0
M  V30 43843 C 4169.28 2.35176 2.71905 0
M  V30 43844 C 4168.95 3.82837 2.49569 0
M  V30 43845 C 4169.95 4.7414 2.13278 0
M  V30 43846 C 4167.63 4.27248 2.6413 0
M  V30 43847 C 4169.62 6.07847 1.91835 0
M  V30 43848 C 4167.31 5.6101 2.42303 0
M  V30 43849 C 4168.31 6.51127 2.0621 0
M  V30 43850 O 4168 7.82417 1.84605 0
M  V30 43851 H 4167.73 0.50342 0.451159 0
M  V30 43852 H 4170.28 1.88401 0.818187 0
M  V30 43853 H 4168.51 1.89147 3.37284 0
M  V30 43854 H 4170.2 2.30891 3.33832 0
M  V30 43855 H 4170.97 4.4111 2.01611 0
M  V30 43856 H 4166.85 3.57385 2.912 0
M  V30 43857 H 4170.39 6.78148 1.63587 0
M  V30 43858 H 4166.29 5.9361 2.5357 0
M  V30 43859 H 4167.06 7.93917 1.99092 0
M  V30 43860 N 4169.72 -0.898504 1.29478 0
M  V30 43861 C 4170.67 -1.98969 1.11334 0
M  V30 43862 C 4171.65 -1.60867 0.0324162 0
M  V30 43863 O 4172.85 -1.75164 0.25426 0
M  V30 43864 C 4169.98 -3.34012 0.793166 0
M  V30 43865 C 4169.06 -3.78469 1.91369 0
M  V30 43866 N 4169.45 -3.95151 3.15737 0
M  V30 43867 C 4167.75 -4.07755 1.80699 0
M  V30 43868 C 4168.45 -4.32634 3.88848 0
M  V30 43869 N 4167.43 -4.41745 3.168 0
M  V30 43870 H 4171.23 -2.09938 2.05678 0
M  V30 43871 H 4168.74 -1.0874 1.2062 0
M  V30 43872 H 4170.74 -4.11892 0.644221 0
M  V30 43873 H 4169.4 -3.24388 -0.142341 0
M  V30 43874 H 4170.41 -3.8065 3.51178 0
M  V30 43875 H 4167.09 -4.06681 0.944277 0
M  V30 43876 H 4168.48 -4.53376 4.95883 0
M  V30 43877 N 4171.2 -1.11974 -1.10903 0
M  V30 43878 C 4172.11 -0.796068 -2.20681 0
M  V30 43879 C 4173.12 0.213128 -1.7269 0
M  V30 43880 O 4174.3 0.0479196 -2.01343 0
M  V30 43881 C 4171.37 -0.250116 -3.45797 0
M  V30 43882 C 4170.43 -1.31863 -4.08547 0
M  V30 43883 C 4169.66 -0.79863 -5.27691 0
M  V30 43884 O 4169.88 0.369335 -5.69203 0
M  V30 43885 O 4168.82 -1.566 -5.81171 0
M  V30 43886 H 4172.64 -1.71282 -2.50791 0
M  V30 43887 H 4170.23 -0.896045 -1.19547 0
M  V30 43888 H 4172.11 0.0497051 -4.21371 0
M  V30 43889 H 4170.78 0.639271 -3.17325 0
M  V30 43890 H 4169.69 -1.67154 -3.34679 0
M  V30 43891 H 4171.02 -2.1816 -4.41211 0
M  V30 43892 N 4172.68 1.28609 -0.910909 0
M  V30 43893 C 4173.63 2.25005 -0.368333 0
M  V30 43894 C 4174.61 1.52336 0.517943 0
M  V30 43895 O 4175.8 1.73339 0.358129 0
M  V30 43896 C 4172.93 3.41043 0.393036 0
M  V30 43897 C 4172.02 4.21037 -0.508798 0
M  V30 43898 N 4172.41 4.79118 -1.62111 0
M  V30 43899 C 4170.71 4.44931 -0.308656 0
M  V30 43900 C 4171.41 5.3928 -2.18064 0
M  V30 43901 N 4170.38 5.23283 -1.47226 0
M  V30 43902 H 4174.19 2.6748 -1.21786 0
M  V30 43903 H 4171.7 1.43347 -0.763237 0
M  V30 43904 H 4173.7 4.0918 0.798564 0
M  V30 43905 H 4172.36 3.00103 1.23969 0
M  V30 43906 H 4173.37 4.77568 -2.00372 0
M  V30 43907 H 4170.04 4.14511 0.498717 0
M  V30 43908 H 4171.43 5.95269 -3.11616 0
M  V30 43909 N 4174.15 0.674583 1.42433 0
M  V30 43910 C 4175.4 0.197048 2.0184 0
M  V30 43911 C 4175.73 -1.19325 1.53216 0
M  V30 43912 O 4175.01 -1.80108 0.734271 0
M  V30 43913 C 4175.29 0.231446 3.59355 0
M  V30 43914 C 4175.14 1.65719 4.18159 0
M  V30 43915 C 4176.46 -0.420458 4.38087 0
M  V30 43916 H 4173.58 0.0730765 0.733368 0
M  V30 43917 H 4176.22 0.859327 1.69457 0
M  V30 43918 H 4174.37 -0.332471 3.87075 0
M  V30 43919 H 4176.05 2.27334 4.01394 0
M  V30 43920 H 4174.29 2.19793 3.73997 0
M  V30 43921 H 4174.96 1.63294 5.27294 0
M  V30 43922 H 4177.44 0.0595716 4.16057 0
M  V30 43923 H 4176.31 -0.365751 5.4768 0
M  V30 43924 H 4176.57 -1.49801 4.15947 0
M  V30 43925 N 4175.63 -1.51958 0.417898 0
M  V30 43926 C 4176.88 -2.01507 -0.154711 0
M  V30 43927 C 4177.2 -1.305 -1.44896 0
M  V30 43928 O 4176.47 -0.43357 -1.91042 0
M  V30 43929 H 4175.05 -0.744573 -0.0601628 0
M  V30 43930 H 4177.71 -1.86797 0.556151 0
M  V30 43931 H 4176.81 -3.10192 -0.344562 0
M  V30 43932 N 4177.11 -0.1486 -1.56898 0
M  V30 43933 C 4178.36 0.50112 -1.95789 0
M  V30 43934 C 4178.68 1.65295 -1.03453 0
M  V30 43935 O 4177.95 1.95663 -0.0963951 0
M  V30 43936 H 4176.53 0.188117 -0.722925 0
M  V30 43937 H 4179.19 -0.224473 -1.93603 0
M  V30 43938 H 4178.29 0.876205 -2.99548 0
M  V30 43939 N 4178.59 1.57102 0.125182 0
M  V30 43940 C 4179.83 1.84799 0.835288 0
M  V30 43941 C 4180.17 0.733442 1.79817 0
M  V30 43942 O 4179.44 -0.261234 1.92738 0
M  V30 43943 C 4179.73 3.23065 1.59063 0
M  V30 43944 C 4179.58 4.45111 0.647763 0
M  V30 43945 C 4180.9 3.58823 2.54822 0
M  V30 43946 H 4178.02 0.672189 0.30221 0
M  V30 43947 H 4180.66 1.89738 0.0997305 0
M  V30 43948 H 4178.81 3.18986 2.21767 0
M  V30 43949 H 4180.48 4.6129 0.0300482 0
M  V30 43950 H 4178.72 4.3378 -0.0411502 0
M  V30 43951 H 4179.39 5.38512 1.21278 0
M  V30 43952 H 4181.87 3.63653 2.02227 0
M  V30 43953 H 4180.75 4.56557 3.04708 0
M  V30 43954 H 4181.01 2.85917 3.372 0
M  V30 43955 N 4180.07 -0.395186 1.52565 0
M  V30 43956 C 4181.3 -1.1605 1.70927 0
M  V30 43957 C 4181.7 -1.84374 0.424586 0
M  V30 43958 O 4181.05 -1.73266 -0.610297 0
M  V30 43959 C 4181.11 -2.2562 2.79886 0
M  V30 43960 C 4180.77 -1.77315 4.21199 0
M  V30 43961 C 4181.77 -1.25327 5.04568 0
M  V30 43962 C 4179.46 -1.83725 4.67494 0
M  V30 43963 C 4181.45 -0.803894 6.3231 0
M  V30 43964 C 4179.14 -1.38399 5.95222 0
M  V30 43965 C 4180.13 -0.86818 6.7746 0
M  V30 43966 O 4179.82 -0.421513 8.02794 0
M  V30 43967 H 4179.55 -0.354176 0.575791 0
M  V30 43968 H 4182.11 -0.469181 1.9997 0
M  V30 43969 H 4180.34 -2.98157 2.4625 0
M  V30 43970 H 4182.03 -2.87319 2.8671 0
M  V30 43971 H 4182.79 -1.19736 4.69988 0
M  V30 43972 H 4178.67 -2.22816 4.03576 0
M  V30 43973 H 4182.22 -0.400603 6.96449 0
M  V30 43974 H 4178.11 -1.43674 6.29308 0
M  V30 43975 H 4178.88 -0.543555 8.16693 0
M  V30 43976 N 4181.54 -1.43423 -0.653263 0
M  V30 43977 C 4182.82 -1.35516 -1.41049 0
M  V30 43978 C 4183.2 -0.00294509 -2.111 0
M  V30 43979 O 4182.55 1.01361 -2.04788 0
M  V30 43980 C 4182.76 -2.53831 -2.39522 0
M  V30 43981 C 4184.11 -2.96916 -3.03523 0
M  V30 43982 O 4185.13 -2.53878 -2.49849 0
M  V30 43983 O 4183.99 -3.71473 -4.00837 0
M  V30 43984 H 4181.08 -0.535543 -0.630177 0
M  V30 43985 H 4183.63 -1.55473 -0.680175 0
M  V30 43986 H 4182.4 -3.43884 -1.86706 0
M  V30 43987 H 4182.03 -2.35974 -3.20003 0
M  V30 43988 N 4183.02 0.891625 -1.29953 0
M  V30 43989 C 4183.97 2.01803 -1.15665 0
M  V30 43990 C 4184.96 1.69254 -0.0701986 0
M  V30 43991 O 4186.17 1.78517 -0.230577 0
M  V30 43992 H 4182.55 0.661575 -0.357523 0
M  V30 43993 H 4184.52 2.10989 -2.11012 0
M  V30 43994 C 4183.27 3.36938 -0.858375 0
M  V30 43995 H 4182.59 3.62491 -1.68644 0
M  V30 43996 H 4184.03 4.16414 -0.798478 0
M  V30 43997 C 4182.49 3.34033 0.43857 0
M  V30 43998 O 4183.02 3.74144 1.46215 0
M  V30 43999 N 4181.22 2.87136 0.447332 0
M  V30 44000 H 4180.77 2.5469 -0.386102 0
M  V30 44001 H 4180.73 2.85576 1.31507 0
M  V30 44002 N 4184.5 1.12561 1.10308 0
M  V30 44003 C 4185.73 0.904933 1.86616 0
M  V30 44004 C 4186.15 -0.540565 1.80165 0
M  V30 44005 O 4185.51 -1.38279 1.17254 0
M  V30 44006 C 4185.56 1.38598 3.32901 0
M  V30 44007 O 4184.66 0.565297 4.08507 0
M  V30 44008 H 4184 0.325023 0.579013 0
M  V30 44009 H 4186.53 1.49803 1.39357 0
M  V30 44010 H 4186.54 1.38563 3.8375 0
M  V30 44011 H 4185.22 2.4385 3.36912 0
M  V30 44012 H 4183.79 0.632747 3.67492 0
M  V30 44013 N 4185.98 -1.28124 0.917717 0
M  V30 44014 C 4187.23 -1.9409 0.548805 0
M  V30 44015 C 4187.54 -1.73003 -0.912658 0
M  V30 44016 O 4188.75 -2.33225 -1.3899 0
M  V30 44017 C 4187.2 -3.47659 0.930672 0
M  V30 44018 C 4186.81 -3.77518 2.41213 0
M  V30 44019 C 4188.56 -4.19761 0.632535 0
M  V30 44020 C 4186.46 -5.24415 2.73392 0
M  V30 44021 H 4185.39 -0.72657 0.201525 0
M  V30 44022 H 4188.04 -1.45573 1.11717 0
M  V30 44023 H 4186.43 -3.94929 0.291051 0
M  V30 44024 H 4187.6 -3.41042 3.09882 0
M  V30 44025 H 4185.91 -3.18597 2.68113 0
M  V30 44026 H 4188.51 -5.27908 0.849573 0
M  V30 44027 H 4188.85 -4.14075 -0.429836 0
M  V30 44028 H 4189.39 -3.7828 1.2308 0
M  V30 44029 H 4186.13 -5.35182 3.78498 0
M  V30 44030 H 4185.65 -5.62074 2.09364 0
M  V30 44031 H 4187.33 -5.92194 2.60606 0
M  V30 44032 N 4187.46 -0.682127 -1.42073 0
M  V30 44033 C 4188.69 -0.216065 -2.05769 0
M  V30 44034 C 4189.1 1.12959 -1.5128 0
M  V30 44035 O 4188.46 1.7032 -0.655551 0
M  V30 44036 C 4188.51 -0.150414 -3.61187 0
M  V30 44037 O 4188.23 -1.4429 -4.13657 0
M  V30 44038 C 4189.73 0.338262 -4.42008 0
M  V30 44039 H 4186.95 -0.103337 -0.662995 0
M  V30 44040 H 4189.49 -0.930927 -1.82082 0
M  V30 44041 H 4187.65 0.515182 -3.83959 0
M  V30 44042 H 4188.06 -1.3211 -5.0759 0
M  V30 44043 H 4189.54 0.333093 -5.50994 0
M  V30 44044 H 4190.01 1.37482 -4.17128 0
M  V30 44045 H 4190.62 -0.295857 -4.2427 0
M  V30 44046 N 4188.94 1.51735 -0.425951 0
M  V30 44047 C 4190.18 2.03895 0.143622 0
M  V30 44048 C 4190.54 1.30378 1.40945 0
M  V30 44049 O 4191.74 1.72852 2.05854 0
M  V30 44050 C 4190.01 3.55494 0.368621 0
M  V30 44051 S 4191.57 4.29403 0.903231 0
M  V30 44052 H 4188.39 0.710027 0.0371849 0
M  V30 44053 H 4190.99 1.86613 -0.582739 0
M  V30 44054 H 4189.69 4.06573 -0.559177 0
M  V30 44055 H 4189.23 3.77049 1.12238 0
M  V30 44056 H 4191.24 4.45647 2.18205 0
M  V30 44057 N 4190.41 0.156919 1.56817 0
M  V30 44058 C 4191.82 -0.362251 1.83152 0
M  V30 44059 C 4192.18 -1.64057 1.07609 0
M  V30 44060 O 4191.3 -2.13953 0.324517 0
M  V30 44061 C 4191.9 -0.664014 3.32229 0
M  V30 44062 C 4190.45 -1.12767 3.59111 0
M  V30 44063 C 4189.6 -0.155946 2.76861 0
M  V30 44064 H 4192.55 0.381446 1.54048 0
M  V30 44065 H 4192.57 -1.51764 3.48924 0
M  V30 44066 H 4192.09 0.266543 3.87184 0
M  V30 44067 H 4190.19 -2.07383 3.09553 0
M  V30 44068 H 4190.3 -1.04679 4.67525 0
M  V30 44069 H 4188.66 -0.650517 2.46253 0
M  V30 44070 H 4189.45 0.768377 3.34591 0
M  V30 44071 N 4191.89 -1.57166 -0.116849 0
M  V30 44072 C 4192.82 -2.03533 -1.1444 0
M  V30 44073 C 4193.8 -0.920184 -1.43062 0
M  V30 44074 O 4194.99 -1.19004 -1.53466 0
M  V30 44075 C 4192.12 -2.44147 -2.47001 0
M  V30 44076 C 4191.07 -3.59125 -2.32837 0
M  V30 44077 C 4190.4 -3.85645 -3.70381 0
M  V30 44078 C 4191.7 -4.90776 -1.78708 0
M  V30 44079 H 4193.39 -2.89627 -0.75873 0
M  V30 44080 H 4190.94 -1.39336 -0.363527 0
M  V30 44081 H 4192.89 -2.75189 -3.19138 0
M  V30 44082 H 4191.61 -1.55026 -2.87462 0
M  V30 44083 H 4190.27 -3.28296 -1.63149 0
M  V30 44084 H 4189.92 -2.93727 -4.0833 0
M  V30 44085 H 4189.62 -4.6304 -3.61756 0
M  V30 44086 H 4191.15 -4.19142 -4.44019 0
M  V30 44087 H 4192.56 -5.2034 -2.40664 0
M  V30 44088 H 4190.96 -5.72185 -1.80899 0
M  V30 44089 H 4192.03 -4.79146 -0.744807 0
M  V30 44090 N 4193.37 0.38709 -1.52772 0
M  V30 44091 C 4194.6 1.15309 -1.71789 0
M  V30 44092 C 4195.01 1.8367 -0.437114 0
M  V30 44093 O 4194.37 1.7275 0.588543 0
M  V30 44094 C 4194.42 2.19969 -2.86873 0
M  V30 44095 O 4194.14 1.54395 -4.09993 0
M  V30 44096 C 4195.64 3.09282 -3.17584 0
M  V30 44097 H 4192.86 0.345649 -0.575124 0
M  V30 44098 H 4195.41 0.452572 -1.99429 0
M  V30 44099 H 4193.56 2.85653 -2.61689 0
M  V30 44100 H 4193.98 2.23953 -4.74284 0
M  V30 44101 H 4195.45 3.78743 -4.01569 0
M  V30 44102 H 4195.93 3.72896 -2.32046 0
M  V30 44103 H 4196.53 2.4924 -3.44615 0
M  V30 44104 N 4194.85 1.43768 0.645648 0
M  V30 44105 C 4196.09 1.46001 1.40753 0
M  V30 44106 C 4196.43 0.0867754 1.94006 0
M  V30 44107 O 4195.7 -0.893502 1.72762 0
M  V30 44108 C 4195.98 2.50859 2.58344 0
M  V30 44109 C 4195.84 3.97486 2.10535 0
M  V30 44110 C 4197.16 2.52371 3.60551 0
M  V30 44111 H 4194.28 0.531609 0.510452 0
M  V30 44112 H 4196.92 1.75362 0.731307 0
M  V30 44113 H 4195.07 2.25953 3.16034 0
M  V30 44114 H 4196.74 4.33475 1.57788 0
M  V30 44115 H 4194.98 4.09956 1.41841 0
M  V30 44116 H 4195.65 4.66479 2.95129 0
M  V30 44117 H 4198.13 2.74588 3.12635 0
M  V30 44118 H 4197.01 3.27668 4.40369 0
M  V30 44119 H 4197.27 1.56029 4.13651 0
M  V30 44120 N 4196.33 -0.884721 1.30424 0
M  V30 44121 C 4197.29 -1.97202 1.16807 0
M  V30 44122 C 4198.29 -1.60493 0.0992385 0
M  V30 44123 O 4199.48 -1.70701 0.34737 0
M  V30 44124 C 4196.61 -3.31629 0.789633 0
M  V30 44125 H 4197.8 -2.10709 2.13405 0
M  V30 44126 H 4195.36 -1.07115 1.13824 0
M  V30 44127 H 4196.09 -3.23823 -0.175831 0
M  V30 44128 H 4195.88 -3.59641 1.56207 0
M  V30 44129 H 4197.37 -4.11384 0.717841 0
M  V30 44130 N 4197.8 -1.13144 -1.09709 0
M  V30 44131 C 4199.05 -0.892707 -1.82095 0
M  V30 44132 C 4199.38 0.579814 -1.85342 0
M  V30 44133 O 4198.66 1.42894 -1.31952 0
M  V30 44134 C 4198.94 -1.47758 -3.28389 0
M  V30 44135 C 4198.79 -3.01901 -3.33431 0
M  V30 44136 C 4200.11 -1.14336 -4.24989 0
M  V30 44137 H 4197.23 -0.325743 -0.661105 0
M  V30 44138 H 4199.87 -1.39926 -1.28533 0
M  V30 44139 H 4198.02 -1.04677 -3.74132 0
M  V30 44140 H 4199.7 -3.53716 -2.96113 0
M  V30 44141 H 4197.94 -3.37042 -2.73103 0
M  V30 44142 H 4198.61 -3.37922 -4.36478 0
M  V30 44143 H 4201.09 -1.51558 -3.87517 0
M  V30 44144 H 4199.96 -1.57911 -5.25695 0
M  V30 44145 H 4200.22 -0.056636 -4.42064 0
M  V30 44146 N 4199.28 1.27635 -0.924498 0
M  V30 44147 C 4200.53 1.93796 -0.55909 0
M  V30 44148 C 4200.84 1.73484 0.90347 0
M  V30 44149 O 4202.05 2.33959 1.37752 0
M  V30 44150 C 4200.51 3.4716 -0.949096 0
M  V30 44151 C 4200.11 3.76234 -2.43212 0
M  V30 44152 C 4201.86 4.1942 -0.654787 0
M  V30 44153 C 4199.77 5.22957 -2.76169 0
M  V30 44154 H 4198.7 0.725491 -0.205376 0
M  V30 44155 H 4201.35 1.44978 -1.12488 0
M  V30 44156 H 4199.73 3.94769 -0.311991 0
M  V30 44157 H 4200.9 3.39394 -3.11686 0
M  V30 44158 H 4199.22 3.17171 -2.69799 0
M  V30 44159 H 4201.81 5.2745 -0.877558 0
M  V30 44160 H 4202.16 4.14297 0.407871 0
M  V30 44161 H 4202.69 3.77622 -1.25084 0
M  V30 44162 H 4199.43 5.33167 -3.81331 0
M  V30 44163 H 4198.95 5.60955 -2.12342 0
M  V30 44164 H 4200.63 5.90804 -2.63743 0
M  V30 44165 N 4200.76 0.689652 1.41709 0
M  V30 44166 C 4201.72 0.0296203 2.29181 0
M  V30 44167 C 4202.72 -0.713979 1.4408 0
M  V30 44168 O 4203.91 -0.549754 1.65298 0
M  V30 44169 C 4201.05 -0.968525 3.26852 0
M  V30 44170 H 4202.24 0.799707 2.89041 0
M  V30 44171 H 4199.79 0.452817 1.49597 0
M  V30 44172 H 4200.53 -1.76658 2.7196 0
M  V30 44173 H 4200.31 -0.438532 3.8964 0
M  V30 44174 H 4201.8 -1.42832 3.92414 0
M  V30 44175 N 4202.24 -1.51507 0.433991 0
M  V30 44176 C 4203.49 -2.0166 -0.133329 0
M  V30 44177 C 4203.81 -1.32029 -1.43504 0
M  V30 44178 O 4203.08 -0.453808 -1.90571 0
M  V30 44179 H 4201.66 -0.74517 -0.0522622 0
M  V30 44180 H 4204.32 -1.86196 0.575932 0
M  V30 44181 H 4203.42 -3.1054 -0.311642 0
M  V30 44182 N 4203.72 -0.165233 -1.56731 0
M  V30 44183 C 4204.96 0.481989 -1.96989 0
M  V30 44184 C 4205.3 1.63305 -1.05096 0
M  V30 44185 O 4204.57 1.94259 -0.0968844 0
M  V30 44186 C 4204.85 0.970781 -3.46768 0
M  V30 44187 C 4204.71 -0.180035 -4.4944 0
M  V30 44188 C 4206.03 1.8465 -3.9949 0
M  V30 44189 H 4203.14 0.173729 -0.716231 0
M  V30 44190 H 4205.79 -0.250141 -1.88346 0
M  V30 44191 H 4203.94 1.59466 -3.54264 0
M  V30 44192 H 4205.61 -0.81695 -4.54008 0
M  V30 44193 H 4203.85 -0.836458 -4.25659 0
M  V30 44194 H 4204.52 0.203993 -5.51623 0
M  V30 44195 H 4207 1.32061 -3.94587 0
M  V30 44196 H 4205.87 2.15754 -5.04719 0
M  V30 44197 H 4206.14 2.79007 -3.4294 0
M  V30 44198 N 4205.19 1.57226 0.108512 0
M  V30 44199 C 4206.16 2.00155 1.11672 0
M  V30 44200 C 4207.16 0.893144 1.33715 0
M  V30 44201 O 4208.35 1.15894 1.30054 0
M  V30 44202 C 4205.48 2.35073 2.46888 0
M  V30 44203 H 4206.67 2.90435 0.747505 0
M  V30 44204 H 4204.23 1.52258 0.353143 0
M  V30 44205 H 4204.96 1.47706 2.8871 0
M  V30 44206 H 4204.75 3.15923 2.3224 0
M  V30 44207 H 4206.24 2.6899 3.19428 0
M  V30 44208 N 4206.67 -0.378982 1.52975 0
M  V30 44209 C 4207.92 -1.12079 1.68174 0
M  V30 44210 C 4208.24 -1.90217 0.429249 0
M  V30 44211 O 4207.51 -1.87829 -0.556528 0
M  V30 44212 H 4206.09 -0.41675 0.619942 0
M  V30 44213 H 4208.75 -0.428849 1.90123 0
M  V30 44214 H 4207.85 -1.81811 2.53675 0
M  V30 44215 N 4208.15 -1.44108 -0.638015 0
M  V30 44216 C 4209.11 -1.50095 -1.73217 0
M  V30 44217 C 4210.11 -0.38379 -1.56153 0
M  V30 44218 O 4211.3 -0.646146 -1.61773 0
M  V30 44219 C 4208.44 -1.36824 -3.12237 0
M  V30 44220 H 4209.63 -2.47553 -1.69285 0
M  V30 44221 H 4207.18 -1.31098 -0.851056 0
M  V30 44222 H 4207.92 -0.404325 -3.2177 0
M  V30 44223 H 4207.7 -2.17824 -3.26029 0
M  V30 44224 H 4209.19 -1.43979 -3.91995 0
M  V30 44225 N 4209.63 0.877792 -1.30891 0
M  V30 44226 C 4211.04 1.16226 -1.09379 0
M  V30 44227 C 4211.24 2.01007 0.140818 0
M  V30 44228 O 4210.3 2.38385 0.832388 0
M  V30 44229 C 4211.61 1.86197 -2.36117 0
M  V30 44230 C 4213.16 1.98931 -2.41651 0
M  V30 44231 C 4213.64 2.72316 -3.6825 0
M  V30 44232 N 4215.13 2.79857 -3.69099 0
M  V30 44233 C 4215.86 3.37231 -4.63749 0
M  V30 44234 N 4215.36 3.95597 -5.68748 0
M  V30 44235 N 4217.15 3.35114 -4.51281 0
M  V30 44236 H 4209.3 0.312656 -2.10086 0
M  V30 44237 H 4211.57 0.201085 -0.926428 0
M  V30 44238 H 4211.27 1.31347 -3.26253 0
M  V30 44239 H 4211.15 2.86531 -2.45316 0
M  V30 44240 H 4213.53 2.52949 -1.51989 0
M  V30 44241 H 4213.61 0.976633 -2.36422 0
M  V30 44242 H 4213.26 2.18968 -4.58274 0
M  V30 44243 H 4213.19 3.73975 -3.70743 0
M  V30 44244 H 4215.68 2.38425 -2.93193 0
M  V30 44245 H 4215.99 4.37464 -6.3706 0
M  V30 44246 H 4214.34 3.93996 -5.72532 0
M  V30 44247 H 4217.53 2.88749 -3.68431 0
M  V30 44248 H 4217.7 3.79531 -5.25224 0
M  V30 44249 N 4211.11 1.13725 1.09108 0
M  V30 44250 C 4212.36 0.89565 1.80724 0
M  V30 44251 C 4212.67 -0.579692 1.86813 0
M  V30 44252 O 4213.87 -0.938323 2.5477 0
M  V30 44253 C 4212.33 1.55284 3.24677 0
M  V30 44254 C 4211.94 3.06394 3.26844 0
M  V30 44255 C 4213.68 1.39207 4.01026 0
M  V30 44256 C 4211.59 3.64982 4.65341 0
M  V30 44257 H 4210.52 0.331432 0.677251 0
M  V30 44258 H 4213.17 1.36533 1.226 0
M  V30 44259 H 4211.55 1.01082 3.82882 0
M  V30 44260 H 4212.73 3.67203 2.78386 0
M  V30 44261 H 4211.04 3.22025 2.63987 0
M  V30 44262 H 4213.64 1.80388 5.03353 0
M  V30 44263 H 4213.98 0.337309 4.14931 0
M  V30 44264 H 4214.51 1.90406 3.49271 0
M  V30 44265 H 4211.25 4.70279 4.56637 0
M  V30 44266 H 4210.77 3.08952 5.1411 0
M  V30 44267 H 4212.45 3.64851 5.34315 0
M  V30 44268 N 4212.58 -1.27143 0.931254 0
M  V30 44269 C 4214 -1.76188 0.617638 0
M  V30 44270 C 4214.35 -1.75994 -0.867208 0
M  V30 44271 O 4213.47 -1.36569 -1.67862 0
M  V30 44272 C 4214.07 -3.19947 1.11442 0
M  V30 44273 C 4212.63 -3.66644 0.851402 0
M  V30 44274 C 4211.77 -2.46452 1.27109 0
M  V30 44275 H 4214.72 -1.1336 1.11064 0
M  V30 44276 H 4214.74 -3.77664 0.463704 0
M  V30 44277 H 4214.26 -3.20056 2.19513 0
M  V30 44278 H 4212.36 -3.71977 -0.215352 0
M  V30 44279 H 4212.47 -4.55945 1.47144 0
M  V30 44280 H 4210.83 -2.45187 0.689597 0
M  V30 44281 H 4211.62 -2.49268 2.36051 0
M  V30 44282 N 4214.06 -0.697157 -1.41342 0
M  V30 44283 C 4215.34 -0.156756 -1.94971 0
M  V30 44284 C 4215.72 1.33357 -1.63644 0
M  V30 44285 O 4215.07 2.08076 -0.944283 0
M  V30 44286 C 4215.28 -0.449748 -3.4609 0
M  V30 44287 C 4216.63 -0.378355 -4.22911 0
M  V30 44288 O 4217.65 -0.384752 -3.54116 0
M  V30 44289 O 4216.51 -0.339851 -5.45442 0
M  V30 44290 H 4213.6 -0.0158997 -0.826847 0
M  V30 44291 H 4216.15 -0.773426 -1.5105 0
M  V30 44292 H 4214.92 -1.48126 -3.6218 0
M  V30 44293 H 4214.54 0.197816 -3.97108 0
M  V30 44294 N 4215.54 1.51274 -0.44202 0
M  V30 44295 C 4216.79 2.02426 0.123058 0
M  V30 44296 C 4217.12 1.32528 1.41951 0
M  V30 44297 O 4216.4 0.441673 1.89419 0
M  V30 44298 C 4216.68 3.5852 0.33698 0
M  V30 44299 C 4216.53 4.39029 -0.978451 0
M  V30 44300 C 4217.85 4.26011 1.10467 0
M  V30 44301 H 4214.97 0.73573 0.0432494 0
M  V30 44302 H 4217.61 1.80869 -0.581933 0
M  V30 44303 H 4215.76 3.77019 0.937494 0
M  V30 44304 H 4217.43 4.32169 -1.61331 0
M  V30 44305 H 4215.68 4.03926 -1.58196 0
M  V30 44306 H 4216.35 5.46422 -0.782756 0
M  V30 44307 H 4218.82 4.1181 0.595949 0
M  V30 44308 H 4217.7 5.35099 1.22312 0
M  V30 44309 H 4217.96 3.87189 2.13395 0
M  V30 44310 N 4217.02 0.173543 1.56642 0
M  V30 44311 C 4218.43 -0.342805 1.83526 0
M  V30 44312 C 4218.78 -1.62906 1.09343 0
M  V30 44313 O 4217.91 -2.13597 0.347191 0
M  V30 44314 C 4218.5 -0.628739 3.32915 0
M  V30 44315 C 4217.06 -1.08952 3.60287 0
M  V30 44316 C 4216.21 -0.126572 2.77011 0
M  V30 44317 H 4219.16 0.397763 1.53634 0
M  V30 44318 H 4219.18 -1.48055 3.50514 0
M  V30 44319 H 4218.69 0.307594 3.86879 0
M  V30 44320 H 4216.79 -2.04088 3.11735 0
M  V30 44321 H 4216.91 -0.99714 4.68609 0
M  V30 44322 H 4215.27 -0.624362 2.46929 0
M  V30 44323 H 4216.05 0.803822 3.33757 0
M  V30 44324 N 4218.5 -1.57281 -0.100172 0
M  V30 44325 C 4219.73 -1.90031 -0.818274 0
M  V30 44326 C 4220.14 -0.766734 -1.7253 0
M  V30 44327 O 4219.5 0.261545 -1.80616 0
M  V30 44328 C 4219.55 -3.22367 -1.63591 0
M  V30 44329 O 4219.27 -4.31363 -0.765374 0
M  V30 44330 C 4220.77 -3.68946 -2.45752 0
M  V30 44331 H 4217.99 -0.628786 -0.234242 0
M  V30 44332 H 4220.53 -2.04348 -0.0789257 0
M  V30 44333 H 4218.69 -3.09663 -2.32782 0
M  V30 44334 H 4219.1 -5.07327 -1.33117 0
M  V30 44335 H 4220.58 -4.64251 -2.98622 0
M  V30 44336 H 4221.05 -2.96534 -3.23982 0
M  V30 44337 H 4221.66 -3.845 -1.81769 0
M  V30 44338 N 4219.98 0.370864 -1.53174 0
M  V30 44339 C 4221.2 1.13481 -1.73002 0
M  V30 44340 C 4221.62 1.83196 -0.45657 0
M  V30 44341 O 4220.98 1.73364 0.570187 0
M  V30 44342 C 4221.03 2.16913 -2.8919 0
M  V30 44343 O 4220.75 1.50037 -4.11607 0
M  V30 44344 C 4222.25 3.05896 -3.20847 0
M  V30 44345 H 4219.47 0.33953 -0.578758 0
M  V30 44346 H 4222.01 0.431395 -1.99898 0
M  V30 44347 H 4220.17 2.82862 -2.64704 0
M  V30 44348 H 4220.58 2.1891 -4.76633 0
M  V30 44349 H 4222.06 3.74463 -4.05563 0
M  V30 44350 H 4222.53 3.70414 -2.35988 0
M  V30 44351 H 4223.14 2.45571 -3.47239 0
M  V30 44352 N 4221.45 1.44444 0.630363 0
M  V30 44353 C 4222.38 1.54195 1.75346 0
M  V30 44354 C 4223.36 0.394916 1.65452 0
M  V30 44355 O 4224.55 0.615136 1.842 0
M  V30 44356 C 4221.68 1.48653 3.13878 0
M  V30 44357 C 4220.63 2.61841 3.38561 0
M  V30 44358 C 4219.96 2.4135 4.77131 0
M  V30 44359 C 4221.26 4.03986 3.31048 0
M  V30 44360 H 4222.95 2.48201 1.67442 0
M  V30 44361 H 4220.5 1.19455 0.804138 0
M  V30 44362 H 4222.45 1.54075 3.92223 0
M  V30 44363 H 4221.18 0.511642 3.22567 0
M  V30 44364 H 4219.84 2.55809 2.62597 0
M  V30 44365 H 4219.48 1.42052 4.82525 0
M  V30 44366 H 4219.18 3.17239 4.94604 0
M  V30 44367 H 4220.71 2.48591 5.57705 0
M  V30 44368 H 4222.12 4.11382 3.99297 0
M  V30 44369 H 4220.52 4.80083 3.60055 0
M  V30 44370 H 4221.59 4.27502 2.28844 0
M  V30 44371 N 4222.93 -0.870838 1.31355 0
M  V30 44372 C 4223.89 -1.95952 1.18892 0
M  V30 44373 C 4224.89 -1.60379 0.116255 0
M  V30 44374 O 4226.08 -1.70323 0.365456 0
M  V30 44375 C 4223.22 -3.30773 0.824762 0
M  V30 44376 H 4224.41 -2.08434 2.15628 0
M  V30 44377 H 4221.96 -1.05902 1.14954 0
M  V30 44378 H 4222.7 -3.23991 -0.141476 0
M  V30 44379 H 4222.48 -3.57964 1.60012 0
M  V30 44380 H 4223.97 -4.106 0.761433 0
M  V30 44381 N 4224.41 -1.14302 -1.08503 0
M  V30 44382 C 4225.66 -0.921928 -1.81307 0
M  V30 44383 C 4226.01 0.545713 -1.84499 0
M  V30 44384 O 4225.3 1.39902 -1.30912 0
M  V30 44385 C 4225.5 -1.45543 -3.26423 0
M  V30 44386 C 4225.33 -2.97342 -3.37369 0
M  V30 44387 C 4224.1 -3.65779 -3.48617 0
M  V30 44388 C 4226.29 -3.95215 -3.29105 0
M  V30 44389 N 4224.28 -5.05499 -3.48344 0
M  V30 44390 C 4225.65 -5.21181 -3.35813 0
M  V30 44391 C 4227.7 -3.87348 -3.12835 0
M  V30 44392 C 4226.41 -6.40201 -3.27926 0
M  V30 44393 C 4228.43 -5.05913 -3.06278 0
M  V30 44394 C 4227.79 -6.30748 -3.13587 0
M  V30 44395 H 4223.89 -0.390877 -0.677303 0
M  V30 44396 H 4226.48 -1.45296 -1.29604 0
M  V30 44397 H 4224.65 -0.951195 -3.76572 0
M  V30 44398 H 4226.38 -1.17437 -3.87286 0
M  V30 44399 H 4223.13 -3.16329 -3.52467 0
M  V30 44400 H 4223.56 -5.78437 -3.51767 0
M  V30 44401 H 4228.2 -2.9171 -3.06047 0
M  V30 44402 H 4225.92 -7.36084 -3.33475 0
M  V30 44403 H 4229.5 -5.01575 -2.94811 0
M  V30 44404 H 4228.38 -7.20952 -3.08542 0
M  V30 44405 N 4225.89 1.26648 -0.937984 0
M  V30 44406 C 4227.13 1.94188 -0.584717 0
M  V30 44407 C 4227.47 1.73447 0.873485 0
M  V30 44408 O 4226.74 1.0696 1.6245 0
M  V30 44409 C 4227.02 3.48046 -0.923916 0
M  V30 44410 C 4226.88 3.78085 -2.43663 0
M  V30 44411 C 4228.2 4.37924 -0.437063 0
M  V30 44412 H 4225.32 0.705276 -0.213904 0
M  V30 44413 H 4227.96 1.49576 -1.17163 0
M  V30 44414 H 4226.11 3.86174 -0.424457 0
M  V30 44415 H 4227.78 3.4969 -3.00857 0
M  V30 44416 H 4226.02 3.24275 -2.88146 0
M  V30 44417 H 4226.69 4.85618 -2.62448 0
M  V30 44418 H 4229.17 4.07004 -0.865261 0
M  V30 44419 H 4228.05 5.44376 -0.703255 0
M  V30 44420 H 4228.31 4.37101 0.662966 0
M  V30 44421 N 4227.37 0.704643 1.4097 0
M  V30 44422 C 4228.31 0.0337961 2.32575 0
M  V30 44423 C 4229.31 -0.758825 1.51454 0
M  V30 44424 O 4230.51 -0.663425 1.67328 0
M  V30 44425 H 4226.89 -0.00787313 0.751959 0
M  V30 44426 H 4228.86 0.823298 2.86818 0
M  V30 44427 C 4227.61 -0.882001 3.36327 0
M  V30 44428 H 4226.93 -0.281505 3.98808 0
M  V30 44429 H 4228.37 -1.31955 4.02944 0
M  V30 44430 C 4226.83 -2.0024 2.70935 0
M  V30 44431 O 4227.36 -3.09214 2.56417 0
M  V30 44432 N 4225.57 -1.7828 2.29488 0
M  V30 44433 H 4225.11 -0.896527 2.41496 0
M  V30 44434 H 4225.07 -2.53426 1.86071 0
M  V30 44435 N 4228.84 -1.51038 0.450036 0
M  V30 44436 C 4229.79 -2.29651 -0.369227 0
M  V30 44437 C 4230.79 -1.36035 -1.00949 0
M  V30 44438 O 4231.99 -1.53321 -0.943005 0
M  V30 44439 H 4228.37 -0.739249 -0.137894 0
M  V30 44440 H 4230.34 -2.96738 0.314485 0
M  V30 44441 C 4229.09 -3.15987 -1.45077 0
M  V30 44442 H 4228.41 -3.87918 -0.967465 0
M  V30 44443 H 4229.85 -3.74027 -1.997 0
M  V30 44444 C 4228.31 -2.32191 -2.44108 0
M  V30 44445 O 4228.84 -1.99033 -3.48925 0
M  V30 44446 N 4227.05 -1.95171 -2.15306 0
M  V30 44447 H 4226.59 -2.22335 -1.30095 0
M  V30 44448 H 4226.55 -1.39403 -2.81805 0
M  V30 44449 N 4230.32 -0.181847 -1.56547 0
M  V30 44450 C 4231.25 0.775917 -2.15667 0
M  V30 44451 C 4232.27 1.18625 -1.11498 0
M  V30 44452 O 4233.46 1.12428 -1.38644 0
M  V30 44453 C 4230.56 2.05733 -2.69309 0
M  V30 44454 C 4229.73 1.8089 -3.98243 0
M  V30 44455 C 4228.79 2.9335 -4.36843 0
M  V30 44456 O 4227.81 2.6353 -5.0452 0
M  V30 44457 N 4229.02 4.21391 -3.99262 0
M  V30 44458 H 4231.78 0.270432 -2.98477 0
M  V30 44459 H 4229.34 0.000578176 -1.619 0
M  V30 44460 H 4231.33 2.80082 -2.92124 0
M  V30 44461 H 4229.9 2.47442 -1.91027 0
M  V30 44462 H 4229.12 0.903895 -3.83697 0
M  V30 44463 H 4230.41 1.61672 -4.82431 0
M  V30 44464 H 4229.81 4.48476 -3.44798 0
M  V30 44465 H 4228.37 4.92409 -4.27055 0
M  V30 44466 N 4231.8 1.57332 0.09183 0
M  V30 44467 C 4233.05 1.85438 0.793439 0
M  V30 44468 C 4233.36 0.771591 1.79738 0
M  V30 44469 O 4234.57 0.939877 2.54713 0
M  V30 44470 C 4233.02 3.2887 1.46194 0
M  V30 44471 C 4232.63 4.45228 0.497599 0
M  V30 44472 C 4234.38 3.66197 2.14709 0
M  V30 44473 C 4232.28 5.79693 1.17088 0
M  V30 44474 H 4231.21 0.691719 0.300068 0
M  V30 44475 H 4233.86 1.83441 0.046422 0
M  V30 44476 H 4232.25 3.25418 2.25653 0
M  V30 44477 H 4233.42 4.60033 -0.26573 0
M  V30 44478 H 4231.74 4.16319 -0.0820222 0
M  V30 44479 H 4234.33 4.63943 2.65821 0
M  V30 44480 H 4234.68 2.94985 2.93751 0
M  V30 44481 H 4235.21 3.71552 1.42106 0
M  V30 44482 H 4231.95 6.54145 0.421201 0
M  V30 44483 H 4231.47 5.68726 1.90555 0
M  V30 44484 H 4233.15 6.24364 1.69643 0
M  V30 44485 N 4233.28 -0.362736 1.53369 0
M  V30 44486 C 4234.53 -1.1024 1.68908 0
M  V30 44487 C 4234.84 -1.9038 0.448879 0
M  V30 44488 O 4236.05 -2.67135 0.484868 0
M  V30 44489 C 4234.5 -2.00905 2.98605 0
M  V30 44490 C 4234.11 -1.26064 4.29898 0
M  V30 44491 C 4235.85 -2.74846 3.23512 0
M  V30 44492 C 4233.76 -2.15647 5.50682 0
M  V30 44493 H 4232.69 -0.415254 0.629349 0
M  V30 44494 H 4235.34 -0.363199 1.7987 0
M  V30 44495 H 4233.72 -2.78567 2.81454 0
M  V30 44496 H 4234.9 -0.534449 4.5769 0
M  V30 44497 H 4233.21 -0.63973 4.11456 0
M  V30 44498 H 4235.81 -3.42104 4.10937 0
M  V30 44499 H 4236.15 -3.4037 2.39695 0
M  V30 44500 H 4236.69 -2.04265 3.41351 0
M  V30 44501 H 4233.43 -1.54696 6.36985 0
M  V30 44502 H 4232.95 -2.86108 5.27164 0
M  V30 44503 H 4234.62 -2.7514 5.85582 0
M  V30 44504 N 4234.76 -1.44777 -0.622694 0
M  V30 44505 C 4236 -1.48003 -1.38208 0
M  V30 44506 C 4236.33 -0.115869 -1.94155 0
M  V30 44507 O 4235.59 0.883491 -1.74622 0
M  V30 44508 C 4235.89 -2.49467 -2.55931 0
M  V30 44509 C 4235.55 -3.94575 -2.18223 0
M  V30 44510 C 4234.21 -4.3409 -2.07652 0
M  V30 44511 C 4236.57 -4.85894 -1.88565 0
M  V30 44512 C 4233.89 -5.62837 -1.65624 0
M  V30 44513 C 4236.25 -6.15037 -1.48027 0
M  V30 44514 C 4234.91 -6.53498 -1.36004 0
M  V30 44515 H 4234.18 -0.541581 -0.505738 0
M  V30 44516 H 4236.83 -1.78038 -0.705309 0
M  V30 44517 H 4235.13 -2.12946 -3.28879 0
M  V30 44518 H 4236.83 -2.49206 -3.14161 0
M  V30 44519 H 4233.42 -3.63318 -2.27372 0
M  V30 44520 H 4237.6 -4.56114 -1.95637 0
M  V30 44521 H 4232.86 -5.91446 -1.54926 0
M  V30 44522 H 4237.03 -6.8525 -1.2412 0
M  V30 44523 H 4234.66 -7.53161 -1.0321 0
M  V30 44524 N 4236.23 0.863859 -1.31815 0
M  V30 44525 C 4237.48 1.61737 -1.2185 0
M  V30 44526 C 4237.81 1.9323 0.221898 0
M  V30 44527 O 4237.06 1.56697 1.17237 0
M  V30 44528 C 4237.36 2.95244 -2.01409 0
M  V30 44529 C 4237.03 2.83218 -3.50854 0
M  V30 44530 C 4235.69 2.79646 -3.91601 0
M  V30 44531 C 4238.04 2.69812 -4.45927 0
M  V30 44532 C 4235.37 2.60534 -5.2568 0
M  V30 44533 C 4237.72 2.52237 -5.80137 0
M  V30 44534 C 4236.39 2.47051 -6.20098 0
M  V30 44535 H 4235.66 0.591837 -0.445881 0
M  V30 44536 H 4238.3 1.00279 -1.63145 0
M  V30 44537 H 4236.61 3.6077 -1.52814 0
M  V30 44538 H 4238.31 3.5255 -1.91075 0
M  V30 44539 H 4234.9 2.86819 -3.18485 0
M  V30 44540 H 4239.08 2.71624 -4.15372 0
M  V30 44541 H 4234.34 2.54948 -5.55708 0
M  V30 44542 H 4238.51 2.40842 -6.53428 0
M  V30 44543 H 4236.14 2.32001 -7.23933 0
M  V30 44544 N 4237.71 1.14875 1.07895 0
M  V30 44545 C 4238.96 0.921563 1.80652 0
M  V30 44546 C 4239.29 -0.550254 1.86241 0
M  V30 44547 O 4238.57 -1.40777 1.34209 0
M  V30 44548 C 4238.85 1.52964 3.25997 0
M  V30 44549 C 4238.7 3.07167 3.28586 0
M  V30 44550 C 4240.02 1.21083 4.23116 0
M  V30 44551 H 4237.14 0.33622 0.655839 0
M  V30 44552 H 4239.78 1.41953 1.26291 0
M  V30 44553 H 4237.93 1.10616 3.7242 0
M  V30 44554 H 4239.6 3.58382 2.90448 0
M  V30 44555 H 4237.85 3.41344 2.67706 0
M  V30 44556 H 4238.52 3.44823 4.31047 0
M  V30 44557 H 4240.99 1.57704 3.85057 0
M  V30 44558 H 4239.87 1.66255 5.23116 0
M  V30 44559 H 4240.13 0.126957 4.41918 0
M  V30 44560 N 4239.19 -1.26148 0.944687 0
M  V30 44561 C 4240.42 -1.98212 0.610486 0
M  V30 44562 C 4240.84 -1.69844 -0.808372 0
M  V30 44563 O 4240.2 -0.948518 -1.54508 0
M  V30 44564 C 4240.25 -3.50112 0.863379 0
M  V30 44565 O 4239.35 -4.12352 -0.0627765 0
M  V30 44566 H 4238.69 -0.621721 0.23315 0
M  V30 44567 H 4241.22 -1.60525 1.26858 0
M  V30 44568 H 4241.23 -4.00364 0.785672 0
M  V30 44569 H 4239.91 -3.70089 1.89755 0
M  V30 44570 H 4238.48 -3.72841 0.0662876 0
M  V30 44571 N 4240.67 -0.712109 -1.40594 0
M  V30 44572 C 4242.08 -0.385313 -1.54879 0
M  V30 44573 C 4242.28 1.10623 -1.68418 0
M  V30 44574 O 4241.34 1.89225 -1.67183 0
M  V30 44575 C 4242.65 -1.14832 -2.7791 0
M  V30 44576 C 4244.2 -1.13429 -2.91724 0
M  V30 44577 C 4244.68 -1.87938 -4.17664 0
M  V30 44578 N 4246.17 -1.8499 -4.24656 0
M  V30 44579 C 4246.9 -2.39468 -5.21002 0
M  V30 44580 N 4246.4 -3.02487 -6.23276 0
M  V30 44581 N 4248.19 -2.2963 -5.13056 0
M  V30 44582 H 4240.34 -1.67929 -1.30052 0
M  V30 44583 H 4242.61 -0.709601 -0.628626 0
M  V30 44584 H 4242.31 -2.20279 -2.74171 0
M  V30 44585 H 4242.19 -0.737671 -3.69917 0
M  V30 44586 H 4244.57 -0.0880256 -2.94969 0
M  V30 44587 H 4244.65 -1.58413 -2.00845 0
M  V30 44588 H 4244.3 -2.92553 -4.15181 0
M  V30 44589 H 4244.23 -1.40376 -5.07545 0
M  V30 44590 H 4246.72 -1.39059 -3.51384 0
M  V30 44591 H 4247.03 -3.41582 -6.93211 0
M  V30 44592 H 4245.38 -3.0657 -6.2373 0
M  V30 44593 H 4248.57 -1.80057 -4.32085 0
M  V30 44594 H 4248.74 -2.72388 -5.8797 0
M  V30 44595 N 4242.15 1.50797 -0.45804 0
M  V30 44596 C 4243.39 2.02545 0.101581 0
M  V30 44597 C 4243.73 1.34026 1.40537 0
M  V30 44598 O 4243 0.461739 1.8894 0
M  V30 44599 C 4243.28 3.58857 0.298935 0
M  V30 44600 C 4243.14 4.37966 -1.02496 0
M  V30 44601 C 4244.46 4.27158 1.05942 0
M  V30 44602 H 4241.57 0.736147 0.0354435 0
M  V30 44603 H 4244.22 1.80241 -0.601084 0
M  V30 44604 H 4242.37 3.77992 0.897453 0
M  V30 44605 H 4244.04 4.30434 -1.65905 0
M  V30 44606 H 4242.28 4.02226 -1.62471 0
M  V30 44607 H 4242.95 5.45561 -0.840668 0
M  V30 44608 H 4245.43 4.12419 0.552237 0
M  V30 44609 H 4244.3 5.36366 1.16629 0
M  V30 44610 H 4244.57 3.8943 2.09276 0
M  V30 44611 N 4243.63 0.190147 1.56449 0
M  V30 44612 C 4244.87 -0.449923 1.97438 0
M  V30 44613 C 4245.2 -1.6197 1.07685 0
M  V30 44614 O 4244.46 -1.95362 0.114893 0
M  V30 44615 C 4244.75 -0.956928 3.44351 0
M  V30 44616 C 4244.42 0.0989472 4.50791 0
M  V30 44617 C 4243.08 0.389088 4.79624 0
M  V30 44618 C 4245.43 0.814649 5.14794 0
M  V30 44619 C 4242.76 1.39999 5.69752 0
M  V30 44620 C 4245.11 1.81467 6.06014 0
M  V30 44621 C 4243.78 2.11206 6.33205 0
M  V30 44622 H 4243.05 -0.164638 0.722479 0
M  V30 44623 H 4245.7 0.286072 1.89351 0
M  V30 44624 H 4244 -1.7711 3.49484 0
M  V30 44625 H 4245.7 -1.46149 3.73419 0
M  V30 44626 H 4242.29 -0.137359 4.2838 0
M  V30 44627 H 4246.47 0.60372 4.92614 0
M  V30 44628 H 4241.73 1.63637 5.89095 0
M  V30 44629 H 4245.9 2.3745 6.54668 0
M  V30 44630 H 4243.53 2.89684 7.02842 0
M  V30 44631 N 4245.1 -1.57379 -0.083485 0
M  V30 44632 C 4246.07 -2.01906 -1.08473 0
M  V30 44633 C 4247.07 -0.914303 -1.32277 0
M  V30 44634 O 4248.26 -1.17949 -1.28194 0
M  V30 44635 C 4245.39 -2.38971 -2.43117 0
M  V30 44636 H 4246.58 -2.91587 -0.701205 0
M  V30 44637 H 4244.13 -1.52801 -0.328876 0
M  V30 44638 H 4244.87 -1.5228 -2.86324 0
M  V30 44639 H 4244.65 -3.19577 -2.27184 0
M  V30 44640 H 4246.14 -2.74038 -3.15108 0
M  V30 44641 N 4246.58 0.354597 -1.53559 0
M  V30 44642 C 4247.53 1.45522 -1.81456 0
M  V30 44643 C 4248.52 1.54962 -0.684329 0
M  V30 44644 O 4249.73 1.57718 -0.867473 0
M  V30 44645 H 4246.1 0.484993 -0.574705 0
M  V30 44646 H 4248.08 1.19203 -2.73557 0
M  V30 44647 C 4246.82 2.82205 -2.03115 0
M  V30 44648 H 4246.15 2.75703 -2.8953 0
M  V30 44649 H 4247.59 3.58365 -2.26606 0
M  V30 44650 C 4246.05 3.26933 -0.81343 0
M  V30 44651 O 4246.58 4.01699 -0.00745205 0
M  V30 44652 N 4244.78 2.83605 -0.633764 0
M  V30 44653 H 4244.33 2.22926 -1.2908 0
M  V30 44654 H 4244.29 3.13887 0.179566 0
M  V30 44655 N 4248.06 1.45105 0.615008 0
M  V30 44656 C 4249.29 1.52246 1.40103 0
M  V30 44657 C 4249.7 0.152594 1.88182 0
M  V30 44658 O 4249.06 -0.844509 1.61785 0
M  V30 44659 C 4249.11 2.50068 2.61052 0
M  V30 44660 O 4248.83 3.81731 2.14973 0
M  V30 44661 C 4250.33 2.66834 3.53998 0
M  V30 44662 H 4247.55 0.515843 0.429124 0
M  V30 44663 H 4250.1 1.90222 0.750711 0
M  V30 44664 H 4248.25 2.15184 3.22141 0
M  V30 44665 H 4248.67 4.34691 2.93502 0
M  V30 44666 H 4250.14 3.39273 4.35428 0
M  V30 44667 H 4250.62 1.72614 4.03858 0
M  V30 44668 H 4251.22 3.02685 2.98767 0
M  V30 44669 N 4249.54 -0.856857 1.32271 0
M  V30 44670 C 4250.79 -1.6077 1.22464 0
M  V30 44671 C 4251.11 -1.93821 -0.21413 0
M  V30 44672 O 4250.38 -1.59435 -1.1383 0
M  V30 44673 H 4248.96 -0.596043 0.450269 0
M  V30 44674 H 4251.62 -1.02507 1.65766 0
M  V30 44675 H 4250.71 -2.5456 1.8057 0
M  V30 44676 N 4251.02 -1.15446 -1.07285 0
M  V30 44677 C 4252.24 -0.954093 -1.84152 0
M  V30 44678 C 4252.67 0.492608 -1.81535 0
M  V30 44679 O 4252.02 1.35122 -1.20879 0
M  V30 44680 C 4252.07 -1.47376 -3.29109 0
M  V30 44681 O 4251.18 -0.673406 -4.06865 0
M  V30 44682 H 4250.52 -0.34026 -0.570192 0
M  V30 44683 H 4253.05 -1.53445 -1.35336 0
M  V30 44684 H 4253.06 -1.48689 -3.79942 0
M  V30 44685 H 4251.73 -2.52697 -3.30329 0
M  V30 44686 H 4250.31 -0.729959 -3.65686 0
M  V30 44687 N 4252.49 1.25646 -0.951364 0
M  V30 44688 C 4253.74 1.93557 -0.60528 0
M  V30 44689 C 4254.07 1.74364 0.85504 0
M  V30 44690 O 4253.35 1.08677 1.61306 0
M  V30 44691 C 4253.63 3.47046 -0.960779 0
M  V30 44692 C 4253.48 3.7548 -2.47659 0
M  V30 44693 C 4254.8 4.37436 -0.483486 0
M  V30 44694 H 4251.92 0.702967 -0.221373 0
M  V30 44695 H 4254.56 1.48325 -1.18742 0
M  V30 44696 H 4252.71 3.85702 -0.465392 0
M  V30 44697 H 4254.39 3.46479 -3.04549 0
M  V30 44698 H 4252.63 3.212 -2.9157 0
M  V30 44699 H 4253.3 4.82807 -2.67584 0
M  V30 44700 H 4255.78 4.06064 -0.90838 0
M  V30 44701 H 4254.65 5.436 -0.760954 0
M  V30 44702 H 4254.91 4.37779 0.616568 0
M  V30 44703 N 4253.97 0.719555 1.40215 0
M  V30 44704 C 4255.21 0.265249 2.02672 0
M  V30 44705 C 4255.58 -1.12162 1.55833 0
M  V30 44706 O 4256.78 -1.67313 2.1038 0
M  V30 44707 C 4255.05 0.346621 3.55715 0
M  V30 44708 S 4256.61 -0.0301156 4.3879 0
M  V30 44709 H 4253.42 0.10494 0.703213 0
M  V30 44710 H 4256.03 0.942654 1.71273 0
M  V30 44711 H 4254.73 1.35755 3.87297 0
M  V30 44712 H 4254.26 -0.349128 3.91848 0
M  V30 44713 H 4256.28 -1.25099 4.80172 0
M  V30 44714 N 4255.45 -1.50552 0.466031 0
M  V30 44715 C 4256.68 -2.06411 -0.0884121 0
M  V30 44716 C 4257.09 -1.33059 -1.34506 0
M  V30 44717 O 4256.43 -0.3919 -1.79471 0
M  V30 44718 C 4256.49 -3.56704 -0.447517 0
M  V30 44719 C 4256.16 -4.51508 0.706389 0
M  V30 44720 C 4257.15 -4.95088 1.58696 0
M  V30 44721 C 4254.84 -4.94257 0.895278 0
M  V30 44722 C 4256.83 -5.80118 2.64086 0
M  V30 44723 C 4254.52 -5.79072 1.95241 0
M  V30 44724 C 4255.52 -6.21903 2.82357 0
M  V30 44725 O 4255.21 -7.05028 3.86252 0
M  V30 44726 H 4254.94 -0.675998 0.00148253 0
M  V30 44727 H 4257.49 -1.94766 0.652342 0
M  V30 44728 H 4255.72 -3.66233 -1.24139 0
M  V30 44729 H 4257.41 -3.9495 -0.93645 0
M  V30 44730 H 4258.18 -4.62733 1.45269 0
M  V30 44731 H 4254.06 -4.60442 0.226689 0
M  V30 44732 H 4257.6 -6.1347 3.32114 0
M  V30 44733 H 4253.5 -6.10839 2.08677 0
M  V30 44734 H 4254.26 -7.23268 3.83179 0
M  V30 44735 N 4256.93 -0.198441 -1.56346 0
M  V30 44736 C 4258.16 0.444954 -2.02059 0
M  V30 44737 C 4258.57 1.54961 -1.07855 0
M  V30 44738 O 4257.93 1.82307 -0.0840038 0
M  V30 44739 C 4257.98 0.998159 -3.47446 0
M  V30 44740 O 4257.7 -0.0624246 -4.38056 0
M  V30 44741 C 4259.2 1.7171 -4.08694 0
M  V30 44742 H 4256.42 0.111372 -0.661693 0
M  V30 44743 H 4258.96 -0.308127 -2.02165 0
M  V30 44744 H 4257.12 1.70161 -3.48029 0
M  V30 44745 H 4257.53 0.349847 -5.23332 0
M  V30 44746 H 4259.01 2.05645 -5.12264 0
M  V30 44747 H 4259.48 2.622 -3.52346 0
M  V30 44748 H 4260.09 1.05942 -4.11894 0
M  V30 44749 N 4258.41 1.57421 0.0751377 0
M  V30 44750 C 4259.82 1.75844 0.62736 0
M  V30 44751 C 4260.17 0.823429 1.78085 0
M  V30 44752 O 4259.29 0.00671287 2.16399 0
M  V30 44753 C 4259.89 3.18871 1.14484 0
M  V30 44754 C 4258.45 3.3865 1.64295 0
M  V30 44755 C 4257.59 2.71567 0.560946 0
M  V30 44756 H 4260.55 1.5798 -0.151021 0
M  V30 44757 H 4260.57 3.22846 2.01372 0
M  V30 44758 H 4260.08 3.86899 0.305097 0
M  V30 44759 H 4258.18 2.75732 2.50605 0
M  V30 44760 H 4258.29 4.47076 1.7222 0
M  V30 44761 H 4256.66 2.34026 1.00519 0
M  V30 44762 H 4257.44 3.42248 -0.268549 0
M  V30 44763 N 4259.88 -0.346449 1.53745 0
M  V30 44764 C 4261.13 -1.08442 1.70068 0
M  V30 44765 C 4261.45 -1.89893 0.469046 0
M  V30 44766 O 4262.65 -2.66606 0.513174 0
M  V30 44767 C 4261.11 -1.97727 3.00719 0
M  V30 44768 C 4260.72 -1.21497 4.31211 0
M  V30 44769 C 4262.46 -2.71399 3.26409 0
M  V30 44770 C 4260.37 -2.09794 5.52938 0
M  V30 44771 H 4259.3 -0.408556 0.633718 0
M  V30 44772 H 4261.95 -0.344101 1.80245 0
M  V30 44773 H 4260.33 -2.75567 2.84392 0
M  V30 44774 H 4261.5 -0.485875 4.58231 0
M  V30 44775 H 4259.82 -0.596054 4.12112 0
M  V30 44776 H 4262.42 -3.37726 4.14542 0
M  V30 44777 H 4262.76 -3.37809 2.43292 0
M  V30 44778 H 4263.29 -2.00633 3.43498 0
M  V30 44779 H 4260.03 -1.47931 6.3859 0
M  V30 44780 H 4259.55 -2.80501 5.30169 0
M  V30 44781 H 4261.23 -2.68914 5.88468 0
M  V30 44782 N 4261.36 -1.45429 -0.607304 0
M  V30 44783 C 4262.64 -1.39935 -1.36666 0
M  V30 44784 C 4263.02 -0.0701034 -2.10984 0
M  V30 44785 O 4262.37 0.947947 -2.07909 0
M  V30 44786 C 4262.58 -2.61323 -2.31325 0
M  V30 44787 C 4263.93 -3.06422 -2.93923 0
M  V30 44788 O 4264.95 -2.61698 -2.41646 0
M  V30 44789 O 4263.81 -3.84037 -3.88816 0
M  V30 44790 H 4260.9 -0.55532 -0.61282 0
M  V30 44791 H 4263.45 -1.57558 -0.630369 0
M  V30 44792 H 4262.22 -3.4965 -1.75671 0
M  V30 44793 H 4261.84 -2.46035 -3.12334 0
M  V30 44794 N 4262.84 0.84983 -1.32724 0
M  V30 44795 C 4263.75 1.99105 -1.24073 0
M  V30 44796 C 4264.77 1.73323 -0.153392 0
M  V30 44797 O 4265.94 1.97879 -0.374963 0
M  V30 44798 C 4263.01 3.32883 -0.969019 0
M  V30 44799 C 4262.07 3.71855 -2.14528 0
M  V30 44800 C 4261.3 4.99249 -1.88643 0
M  V30 44801 O 4261.52 5.64309 -0.831358 0
M  V30 44802 O 4260.46 5.35466 -2.74882 0
M  V30 44803 H 4264.28 2.09341 -2.20023 0
M  V30 44804 H 4261.87 0.981212 -1.12661 0
M  V30 44805 H 4263.75 4.13061 -0.834182 0
M  V30 44806 H 4262.43 3.23676 -0.0397204 0
M  V30 44807 H 4261.33 2.92233 -2.33561 0
M  V30 44808 H 4262.67 3.85714 -3.05754 0
M  V30 44809 N 4264.32 1.16013 1.06671 0
M  V30 44810 C 4265.57 0.933783 1.78783 0
M  V30 44811 C 4265.88 -0.539936 1.88 0
M  V30 44812 O 4267.09 -0.884072 2.56703 0
M  V30 44813 C 4265.54 1.62136 3.2131 0
M  V30 44814 C 4265.15 3.13257 3.20271 0
M  V30 44815 C 4266.89 1.47682 3.97983 0
M  V30 44816 C 4264.8 3.7477 4.57494 0
M  V30 44817 H 4263.73 0.345723 0.670068 0
M  V30 44818 H 4266.38 1.39103 1.19677 0
M  V30 44819 H 4264.76 1.09181 3.80651 0
M  V30 44820 H 4265.94 3.73025 2.70535 0
M  V30 44821 H 4264.25 3.27552 2.57097 0
M  V30 44822 H 4266.85 1.91024 4.99413 0
M  V30 44823 H 4267.19 0.425246 4.14122 0
M  V30 44824 H 4267.73 1.97772 3.45154 0
M  V30 44825 H 4264.47 4.79859 4.46559 0
M  V30 44826 H 4263.99 3.19787 5.07441 0
M  V30 44827 H 4265.66 3.76102 5.26456 0
M  V30 44828 N 4265.8 -1.25139 0.958014 0
M  V30 44829 C 4267.21 -1.74838 0.654871 0
M  V30 44830 C 4267.56 -1.77794 -0.829682 0
M  V30 44831 O 4266.68 -1.40099 -1.64928 0
M  V30 44832 C 4267.28 -3.17511 1.18203 0
M  V30 44833 C 4265.84 -3.64756 0.928981 0
M  V30 44834 C 4264.98 -2.43701 1.32308 0
M  V30 44835 H 4267.94 -1.10978 1.13444 0
M  V30 44836 H 4267.96 -3.76595 0.543708 0
M  V30 44837 H 4267.47 -3.15328 2.26252 0
M  V30 44838 H 4265.57 -3.7235 -0.136402 0
M  V30 44839 H 4265.68 -4.52721 1.56782 0
M  V30 44840 H 4264.05 -2.43669 0.741449 0
M  V30 44841 H 4264.83 -2.44205 2.41285 0
M  V30 44842 N 4267.27 -0.726981 -1.39831 0
M  V30 44843 C 4268.5 -0.281011 -2.0468 0
M  V30 44844 C 4268.91 1.08628 -1.54908 0
M  V30 44845 O 4268.26 1.69608 -0.705598 0
M  V30 44846 C 4268.32 -0.195615 -3.58967 0
M  V30 44847 C 4267.98 -1.50006 -4.3168 0
M  V30 44848 C 4268.98 -2.44421 -4.58862 0
M  V30 44849 C 4266.66 -1.76214 -4.70376 0
M  V30 44850 C 4268.66 -3.63284 -5.2374 0
M  V30 44851 C 4266.34 -2.95355 -5.34985 0
M  V30 44852 C 4267.34 -3.88712 -5.61598 0
M  V30 44853 O 4267.03 -5.05762 -6.24868 0
M  V30 44854 H 4266.76 -0.121982 -0.664903 0
M  V30 44855 H 4269.32 -0.989135 -1.80015 0
M  V30 44856 H 4267.55 0.568546 -3.82498 0
M  V30 44857 H 4269.24 0.217296 -4.05318 0
M  V30 44858 H 4270 -2.25441 -4.2942 0
M  V30 44859 H 4265.88 -1.04397 -4.49024 0
M  V30 44860 H 4269.42 -4.36168 -5.44429 0
M  V30 44861 H 4265.32 -3.14239 -5.63847 0
M  V30 44862 H 4266.09 -5.0599 -6.43363 0
M  V30 44863 N 4268.75 1.50303 -0.474008 0
M  V30 44864 C 4269.7 2.2859 0.318645 0
M  V30 44865 C 4270.67 1.33771 0.984604 0
M  V30 44866 O 4271.85 1.62711 0.99648 0
M  V30 44867 C 4268.99 3.15737 1.393 0
M  V30 44868 C 4268.11 4.25588 0.741525 0
M  V30 44869 C 4267.24 4.99988 1.79402 0
M  V30 44870 C 4266.28 6.01711 1.12295 0
M  V30 44871 N 4265.42 6.69378 2.11843 0
M  V30 44872 H 4270.26 2.95875 -0.355252 0
M  V30 44873 H 4267.8 1.45906 -0.187039 0
M  V30 44874 H 4269.75 3.64616 2.02758 0
M  V30 44875 H 4268.38 2.50492 2.03602 0
M  V30 44876 H 4267.44 3.804 -0.00569214 0
M  V30 44877 H 4268.75 4.9835 0.211944 0
M  V30 44878 H 4267.9 5.52601 2.50433 0
M  V30 44879 H 4266.64 4.2694 2.35741 0
M  V30 44880 H 4265.65 5.48356 0.398276 0
M  V30 44881 H 4266.87 6.76734 0.566414 0
M  V30 44882 H 4264.82 5.99119 2.67194 0
M  V30 44883 H 4264.73 7.38025 1.63877 0
M  V30 44884 H 4266 7.26607 2.82245 0
M  V30 44885 N 4270.23 0.20673 1.56238 0
M  V30 44886 C 4271.46 -0.437309 2.02737 0
M  V30 44887 C 4271.88 -1.53597 1.0858 0
M  V30 44888 O 4271.24 -1.8116 0.0713213 0
M  V30 44889 C 4271.29 -0.959913 3.47589 0
M  V30 44890 O 4270.39 -2.07217 3.5656 0
M  V30 44891 H 4269.73 -0.100833 0.656299 0
M  V30 44892 H 4272.26 0.321021 2.02066 0
M  V30 44893 H 4272.27 -1.27354 3.87614 0
M  V30 44894 H 4270.95 -0.155707 4.15608 0
M  V30 44895 H 4269.52 -1.7663 3.28415 0
M  V30 44896 N 4271.71 -1.57458 -0.0667882 0
M  V30 44897 C 4272.96 -1.87494 -0.764992 0
M  V30 44898 C 4273.28 -0.799137 -1.77325 0
M  V30 44899 O 4272.54 0.204319 -1.9463 0
M  V30 44900 C 4272.84 -3.24207 -1.50415 0
M  V30 44901 C 4272.5 -4.464 -0.63541 0
M  V30 44902 C 4271.17 -4.79568 -0.396017 0
M  V30 44903 C 4273.52 -5.21189 -0.0333096 0
M  V30 44904 C 4270.85 -5.84934 0.454875 0
M  V30 44905 C 4273.2 -6.27456 0.805065 0
M  V30 44906 C 4271.86 -6.59121 1.05428 0
M  V30 44907 H 4271.13 -0.68609 -0.279931 0
M  V30 44908 H 4273.78 -1.91483 -0.025643 0
M  V30 44909 H 4272.08 -3.16032 -2.31583 0
M  V30 44910 H 4273.78 -3.44683 -2.04926 0
M  V30 44911 H 4270.37 -4.20445 -0.832127 0
M  V30 44912 H 4274.55 -4.95875 -0.205365 0
M  V30 44913 H 4269.81 -6.07864 0.656652 0
M  V30 44914 H 4273.98 -6.84567 1.27833 0
M  V30 44915 H 4271.61 -7.40593 1.71538 0
M  V30 44916 N 4273.19 0.33829 -1.53926 0
M  V30 44917 C 4274.41 1.10227 -1.75684 0
M  V30 44918 C 4274.84 1.81412 -0.497119 0
M  V30 44919 O 4274.2 1.72739 0.550547 0
M  V30 44920 C 4274.24 2.08738 -2.94042 0
M  V30 44921 O 4273.35 3.16359 -2.64558 0
M  V30 44922 H 4272.69 0.318534 -0.582608 0
M  V30 44923 H 4275.22 0.387078 -2.00905 0
M  V30 44924 H 4275.23 2.51868 -3.20978 0
M  V30 44925 H 4273.9 1.56324 -3.85403 0
M  V30 44926 H 4272.48 2.78009 -2.48526 0
M  V30 44927 N 4274.67 1.45749 0.599583 0
M  V30 44928 C 4275.94 1.40658 1.35922 0
M  V30 44929 C 4276.32 0.0812914 2.10943 0
M  V30 44930 O 4275.67 -0.936908 2.08409 0
M  V30 44931 C 4275.88 2.62546 2.29936 0
M  V30 44932 C 4277.23 3.07976 2.92294 0
M  V30 44933 O 4278.25 2.62976 2.40255 0
M  V30 44934 O 4277.11 3.86094 3.86774 0
M  V30 44935 H 4274.21 0.558563 0.609866 0
M  V30 44936 H 4276.75 1.5789 0.622004 0
M  V30 44937 H 4275.52 3.50577 1.73814 0
M  V30 44938 H 4275.15 2.47688 3.11025 0
M  V30 44939 N 4276.14 -0.84278 1.33173 0
M  V30 44940 C 4277.37 -1.63516 1.27582 0
M  V30 44941 C 4277.79 -1.87492 -0.151118 0
M  V30 44942 O 4277.15 -1.43622 -1.10645 0
M  V30 44943 C 4277.2 -2.96476 2.05266 0
M  V30 44944 O 4276.3 -3.87599 1.40859 0
M  V30 44945 H 4275.64 -0.49807 0.439115 0
M  V30 44946 H 4278.17 -1.0488 1.75674 0
M  V30 44947 H 4278.18 -3.46205 2.15885 0
M  V30 44948 H 4276.86 -2.78348 3.09023 0
M  V30 44949 H 4275.44 -3.46081 1.38861 0
M  V30 44950 N 4277.62 -1.16577 -1.06054 0
M  V30 44951 C 4278.87 -0.946907 -1.78544 0
M  V30 44952 C 4279.19 0.526456 -1.87759 0
M  V30 44953 O 4278.46 1.38241 -1.38803 0
M  V30 44954 H 4277.04 -0.347352 -0.661328 0
M  V30 44955 H 4279.7 -1.46891 -1.28098 0
M  V30 44956 H 4278.8 -1.36772 -2.80535 0
M  V30 44957 N 4279.1 1.2463 -0.964637 0
M  V30 44958 C 4280.34 1.94363 -0.632656 0
M  V30 44959 C 4280.7 1.73768 0.81661 0
M  V30 44960 O 4281.9 2.3751 1.25867 0
M  V30 44961 C 4280.18 3.43314 -0.993488 0
M  V30 44962 S 4281.73 4.31891 -0.775594 0
M  V30 44963 H 4278.55 0.672015 -0.232201 0
M  V30 44964 H 4281.15 1.51066 -1.24094 0
M  V30 44965 H 4279.86 3.55808 -2.0452 0
M  V30 44966 H 4279.39 3.916 -0.375858 0
M  V30 44967 H 4281.4 4.94974 0.348606 0
M  V30 44968 N 4280.58 0.734386 1.39444 0
M  V30 44969 C 4281.83 0.278948 1.99762 0
M  V30 44970 C 4282.14 -1.14009 1.58938 0
M  V30 44971 O 4283.35 -1.69502 2.12088 0
M  V30 44972 C 4281.8 0.447788 3.57103 0
M  V30 44973 C 4281.41 1.87468 4.0689 0
M  V30 44974 C 4283.15 0.0540938 4.24466 0
M  V30 44975 C 4281.06 1.9931 5.56803 0
M  V30 44976 H 4279.99 0.100542 0.747267 0
M  V30 44977 H 4282.64 0.908179 1.5945 0
M  V30 44978 H 4281.02 -0.25033 3.95208 0
M  V30 44979 H 4282.2 2.6047 3.80121 0
M  V30 44980 H 4280.51 2.22153 3.52189 0
M  V30 44981 H 4283.11 0.121598 5.34562 0
M  V30 44982 H 4283.45 -0.990594 4.04343 0
M  V30 44983 H 4283.99 0.703346 3.91533 0
M  V30 44984 H 4280.72 3.01965 5.81805 0
M  V30 44985 H 4280.24 1.30744 5.85377 0
M  V30 44986 H 4281.92 1.77398 6.22205 0
M  V30 44987 N 4282.06 -1.50049 0.481972 0
M  V30 44988 C 4282.99 -2.31614 -0.296213 0
M  V30 44989 C 4283.97 -1.39012 -0.980295 0
M  V30 44990 O 4285.15 -1.67929 -0.975372 0
M  V30 44991 C 4282.28 -3.1904 -1.37226 0
M  V30 44992 C 4281.24 -4.20282 -0.809158 0
M  V30 44993 C 4280.56 -4.96517 -1.98431 0
M  V30 44994 C 4281.86 -5.21965 0.186942 0
M  V30 44995 H 4283.56 -2.9692 0.384561 0
M  V30 44996 H 4281.1 -1.42789 0.186387 0
M  V30 44997 H 4283.05 -3.74902 -1.92423 0
M  V30 44998 H 4281.78 -2.51639 -2.08195 0
M  V30 44999 H 4280.44 -3.65536 -0.27908 0
M  V30 45000 H 4280.09 -4.2558 -2.68124 0
M  V30 45001 H 4279.79 -5.65007 -1.6137 0
M  V30 45002 H 4281.31 -5.55218 -2.54097 0
M  V30 45003 H 4282.72 -5.72634 -0.276226 0
M  V30 45004 H 4281.12 -5.98238 0.472387 0
M  V30 45005 H 4282.19 -4.72042 1.10924 0
M  V30 45006 N 4283.53 -0.215012 -1.56126 0
M  V30 45007 C 4284.94 0.294026 -1.8437 0
M  V30 45008 C 4285.3 1.5995 -1.13624 0
M  V30 45009 O 4284.42 2.12601 -0.4037 0
M  V30 45010 C 4285.02 0.540252 -3.34465 0
M  V30 45011 C 4283.57 0.993613 -3.63049 0
M  V30 45012 C 4282.72 0.0530832 -2.77249 0
M  V30 45013 H 4285.67 -0.438357 -1.52526 0
M  V30 45014 H 4285.69 1.38709 -3.54316 0
M  V30 45015 H 4285.21 -0.41006 -3.85928 0
M  V30 45016 H 4283.31 1.95751 -3.17037 0
M  V30 45017 H 4283.42 0.872546 -4.71088 0
M  V30 45018 H 4281.78 0.558674 -2.48497 0
M  V30 45019 H 4282.57 -0.892029 -3.31508 0
M  V30 45020 N 4285.01 1.57492 0.0584368 0
M  V30 45021 C 4286.24 1.92521 0.771384 0
M  V30 45022 C 4286.66 0.812591 1.69642 0
M  V30 45023 O 4286.02 -0.233753 1.79787 0
M  V30 45024 C 4286.07 3.26547 1.5297 0
M  V30 45025 O 4285.17 3.16722 2.64123 0
M  V30 45026 H 4284.51 0.630065 0.209558 0
M  V30 45027 H 4287.04 2.04587 0.022685 0
M  V30 45028 H 4287.05 3.6074 1.90606 0
M  V30 45029 H 4285.73 4.07099 0.851064 0
M  V30 45030 H 4284.3 2.9411 2.29246 0
M  V30 45031 N 4286.49 -0.330122 1.54104 0
M  V30 45032 C 4287.4 -1.42915 1.86045 0
M  V30 45033 C 4288.42 -1.56922 0.751767 0
M  V30 45034 O 4289.59 -1.72143 1.04541 0
M  V30 45035 C 4286.66 -2.77721 2.07538 0
M  V30 45036 C 4285.72 -2.72945 3.3136 0
M  V30 45037 C 4284.95 -4.01321 3.51819 0
M  V30 45038 O 4285.17 -4.99264 2.75846 0
M  V30 45039 O 4284.11 -4.04978 4.45282 0
M  V30 45040 H 4287.93 -1.18834 2.79485 0
M  V30 45041 H 4285.52 -0.523544 1.39926 0
M  V30 45042 H 4287.4 -3.57533 2.23043 0
M  V30 45043 H 4286.08 -3.01705 1.17286 0
M  V30 45044 H 4284.98 -1.91706 3.21247 0
M  V30 45045 H 4286.32 -2.53915 4.21649 0
M  V30 45046 N 4287.97 -1.46065 -0.591845 0
M  V30 45047 C 4289.21 -1.52453 -1.36152 0
M  V30 45048 C 4289.57 -0.1684 -1.9126 0
M  V30 45049 O 4290.77 -0.107011 -2.68587 0
M  V30 45050 C 4289.04 -2.5857 -2.46732 0
M  V30 45051 S 4290.6 -2.84298 -3.34246 0
M  V30 45052 H 4287.42 -0.538743 -0.463979 0
M  V30 45053 H 4290.02 -1.83244 -0.681326 0
M  V30 45054 H 4288.73 -3.5575 -2.04623 0
M  V30 45055 H 4288.26 -2.29482 -3.19534 0
M  V30 45056 H 4290.27 -2.18873 -4.45319 0
M  V30 45057 N 4289.45 0.835705 -1.33618 0
M  V30 45058 C 4290.67 1.62317 -1.283 0
M  V30 45059 C 4291.09 1.88239 0.145463 0
M  V30 45060 O 4290.45 1.46478 1.0886 0
M  V30 45061 C 4290.5 2.97154 -2.05868 0
M  V30 45062 O 4290.22 2.72369 -3.43142 0
M  V30 45063 C 4291.72 3.9158 -2.07798 0
M  V30 45064 H 4288.94 0.504958 -0.441881 0
M  V30 45065 H 4291.48 1.04072 -1.76038 0
M  V30 45066 H 4289.64 3.51991 -1.61805 0
M  V30 45067 H 4290.05 3.58255 -3.83084 0
M  V30 45068 H 4291.53 4.83396 -2.66519 0
M  V30 45069 H 4292 4.25991 -1.06905 0
M  V30 45070 H 4292.61 3.4268 -2.51894 0
M  V30 45071 N 4290.92 1.17138 1.05434 0
M  V30 45072 C 4291.86 0.829319 2.12597 0
M  V30 45073 C 4292.84 -0.202828 1.6133 0
M  V30 45074 O 4294.02 -0.0849208 1.88309 0
M  V30 45075 C 4291.15 0.236673 3.37872 0
M  V30 45076 C 4290.19 1.24382 4.0796 0
M  V30 45077 S 4291.03 2.79412 4.56825 0
M  V30 45078 C 4292.18 2.21621 5.8535 0
M  V30 45079 H 4292.41 1.73692 2.41285 0
M  V30 45080 H 4289.95 0.995775 1.17999 0
M  V30 45081 H 4291.91 -0.0987817 4.10381 0
M  V30 45082 H 4290.57 -0.64883 3.07326 0
M  V30 45083 H 4289.76 0.777747 4.97963 0
M  V30 45084 H 4289.36 1.5248 3.41505 0
M  V30 45085 H 4291.65 1.59025 6.58572 0
M  V30 45086 H 4292.6 3.09868 6.367 0
M  V30 45087 H 4293 1.65167 5.39796 0
M  V30 45088 N 4292.4 -1.24116 0.971232 0
M  V30 45089 C 4293.65 -1.92284 0.635056 0
M  V30 45090 C 4293.98 -1.7589 -0.830229 0
M  V30 45091 O 4293.23 -1.10789 -1.61321 0
M  V30 45092 C 4293.53 -3.44261 0.960152 0
M  V30 45093 C 4293.2 -3.80827 2.41415 0
M  V30 45094 C 4291.86 -3.9052 2.81155 0
M  V30 45095 C 4294.21 -3.98639 3.35762 0
M  V30 45096 C 4291.54 -4.15443 4.14275 0
M  V30 45097 C 4293.89 -4.2506 4.68515 0
M  V30 45098 C 4292.56 -4.32972 5.08027 0
M  V30 45099 H 4291.83 -0.703618 0.232383 0
M  V30 45100 H 4294.47 -1.47328 1.22338 0
M  V30 45101 H 4292.78 -3.90728 0.289629 0
M  V30 45102 H 4294.47 -3.9522 0.678383 0
M  V30 45103 H 4291.06 -3.73851 2.09603 0
M  V30 45104 H 4295.25 -3.9055 3.06243 0
M  V30 45105 H 4290.5 -4.19789 4.44508 0
M  V30 45106 H 4294.68 -4.37786 5.41587 0
M  V30 45107 H 4292.31 -4.52038 6.112 0
M  V30 45108 N 4293.88 -0.741771 -1.39052 0
M  V30 45109 C 4295.3 -0.418079 -1.54027 0
M  V30 45110 C 4295.5 1.07026 -1.70727 0
M  V30 45111 O 4294.55 1.85637 -1.71159 0
M  V30 45112 C 4295.87 -1.20701 -2.75412 0
M  V30 45113 C 4297.41 -1.19591 -2.89252 0
M  V30 45114 C 4297.89 -1.96755 -4.13583 0
M  V30 45115 N 4299.38 -1.93956 -4.20637 0
M  V30 45116 C 4300.11 -2.50465 -5.15805 0
M  V30 45117 N 4299.61 -3.1564 -6.1672 0
M  V30 45118 N 4301.4 -2.40461 -5.0807 0
M  V30 45119 H 4293.55 -1.7065 -1.26461 0
M  V30 45120 H 4295.82 -0.722775 -0.613433 0
M  V30 45121 H 4295.52 -2.26045 -2.69437 0
M  V30 45122 H 4295.4 -0.81597 -3.68269 0
M  V30 45123 H 4297.78 -0.150573 -2.94716 0
M  V30 45124 H 4297.87 -1.62638 -1.9744 0
M  V30 45125 H 4297.51 -3.01294 -4.08882 0
M  V30 45126 H 4297.44 -1.5111 -5.04453 0
M  V30 45127 H 4299.93 -1.46481 -3.48356 0
M  V30 45128 H 4300.24 -3.56209 -6.8581 0
M  V30 45129 H 4298.59 -3.19732 -6.17087 0
M  V30 45130 H 4301.78 -1.89181 -4.28168 0
M  V30 45131 H 4301.95 -2.84799 -5.8206 0
M  V30 45132 N 4295.36 1.49792 -0.489923 0
M  V30 45133 C 4296.64 1.95225 0.120993 0
M  V30 45134 C 4297.02 1.43104 1.55191 0
M  V30 45135 O 4296.36 0.640031 2.19353 0
M  V30 45136 C 4296.57 3.48971 0.0450097 0
M  V30 45137 C 4297.92 4.24006 0.224496 0
M  V30 45138 O 4298.95 3.55995 0.120718 0
M  V30 45139 O 4297.8 5.44757 0.436173 0
M  V30 45140 H 4294.9 0.820762 0.10138 0
M  V30 45141 H 4297.44 1.60483 -0.551671 0
M  V30 45142 H 4296.22 3.7951 -0.953309 0
M  V30 45143 H 4295.84 3.90302 0.758309 0
M  V30 45144 N 4296.84 0.223289 1.5601 0
M  V30 45145 C 4297.8 -0.672603 2.19109 0
M  V30 45146 C 4298.8 -1.12036 1.15346 0
M  V30 45147 O 4299.99 -1.02888 1.40569 0
M  V30 45148 C 4297.12 -1.9216 2.8158 0
M  V30 45149 H 4298.31 -0.122447 2.9965 0
M  V30 45150 H 4295.87 -0.0263209 1.56278 0
M  V30 45151 H 4296.6 -2.51358 2.04913 0
M  V30 45152 H 4296.39 -1.60899 3.57567 0
M  V30 45153 H 4297.88 -2.55985 3.29942 0
M  V30 45154 N 4298.31 -1.5752 -0.0500839 0
M  V30 45155 C 4299.22 -2.08544 -1.07455 0
M  V30 45156 C 4300.24 -1.0195 -1.41004 0
M  V30 45157 O 4301.42 -1.33557 -1.50746 0
M  V30 45158 C 4298.48 -2.53727 -2.36269 0
M  V30 45159 C 4297.54 -3.74714 -2.09494 0
M  V30 45160 C 4296.78 -4.17734 -3.32166 0
M  V30 45161 O 4297 -3.6044 -4.42085 0
M  V30 45162 O 4295.93 -5.10351 -3.19101 0
M  V30 45163 H 4299.76 -2.96194 -0.671013 0
M  V30 45164 H 4297.34 -1.47019 -0.265683 0
M  V30 45165 H 4299.23 -2.83214 -3.12038 0
M  V30 45166 H 4297.9 -1.69197 -2.7596 0
M  V30 45167 H 4296.81 -3.50279 -1.3136 0
M  V30 45168 H 4298.14 -4.60164 -1.74671 0
M  V30 45169 N 4299.79 0.321945 -1.54277 0
M  V30 45170 C 4301.04 1.05761 -1.72218 0
M  V30 45171 C 4301.36 1.88493 -0.499551 0
M  V30 45172 O 4300.63 1.89765 0.486433 0
M  V30 45173 H 4299.21 0.393454 -0.634983 0
M  V30 45174 H 4301.87 0.357991 -1.91584 0
M  V30 45175 H 4300.97 1.72271 -2.60248 0
M  V30 45176 N 4301.27 1.46377 0.58409 0
M  V30 45177 C 4302.69 1.31301 0.907313 0
M  V30 45178 C 4302.89 0.283423 1.99497 0
M  V30 45179 O 4301.94 -0.314492 2.50534 0
M  V30 45180 C 4303.26 2.69886 1.32598 0
M  V30 45181 C 4304.8 2.77965 1.4389 0
M  V30 45182 C 4305.28 4.17129 1.89123 0
M  V30 45183 N 4306.77 4.19539 1.96319 0
M  V30 45184 C 4307.5 5.24108 2.3259 0
M  V30 45185 N 4307 6.39005 2.67664 0
M  V30 45186 N 4308.79 5.11474 2.33133 0
M  V30 45187 H 4300.94 2.11974 -0.134419 0
M  V30 45188 H 4303.21 0.947997 0.00253286 0
M  V30 45189 H 4302.91 3.4653 0.600808 0
M  V30 45190 H 4302.79 2.99901 2.28778 0
M  V30 45191 H 4305.17 2.0161 2.15494 0
M  V30 45192 H 4305.26 2.51636 0.459648 0
M  V30 45193 H 4304.9 4.93979 1.18099 0
M  V30 45194 H 4304.83 4.40864 2.88004 0
M  V30 45195 H 4307.32 3.36637 1.71709 0
M  V30 45196 H 4307.63 7.14572 2.9429 0
M  V30 45197 H 4305.98 6.42369 2.65305 0
M  V30 45198 H 4309.17 4.20749 2.05154 0
M  V30 45199 H 4309.34 5.93081 2.61072 0
M  V30 45200 N 4302.75 -0.828607 1.34059 0
M  V30 45201 C 4303.68 -1.94405 1.19507 0
M  V30 45202 C 4304.66 -1.62361 0.088055 0
M  V30 45203 O 4305.84 -1.86806 0.252173 0
M  V30 45204 C 4302.97 -3.28239 0.835269 0
M  V30 45205 C 4302.02 -3.79248 1.95123 0
M  V30 45206 S 4302.85 -3.9969 3.56382 0
M  V30 45207 C 4304.01 -5.36459 3.22431 0
M  V30 45208 H 4304.24 -2.06451 2.13928 0
M  V30 45209 H 4301.77 -0.983546 1.1902 0
M  V30 45210 H 4303.73 -4.05567 0.634464 0
M  V30 45211 H 4302.39 -3.1397 -0.0905084 0
M  V30 45212 H 4301.58 -4.76118 1.6531 0
M  V30 45213 H 4301.19 -3.08848 2.10923 0
M  V30 45214 H 4303.48 -6.19668 2.73893 0
M  V30 45215 H 4304.42 -5.71253 4.1842 0
M  V30 45216 H 4304.83 -5.01701 2.5876 0
M  V30 45217 N 4304.23 -1.17696 -1.04812 0
M  V30 45218 C 4305.46 -0.992362 -1.81548 0
M  V30 45219 C 4305.87 0.459343 -1.83127 0
M  V30 45220 O 4305.23 1.31901 -1.26129 0
M  V30 45221 C 4305.28 -1.53073 -3.27492 0
M  V30 45222 O 4305 -2.92559 -3.26099 0
M  V30 45223 C 4306.5 -1.39126 -4.20902 0
M  V30 45224 H 4303.72 -0.350859 -0.571961 0
M  V30 45225 H 4306.26 -1.56073 -1.32142 0
M  V30 45226 H 4304.42 -1.0043 -3.74156 0
M  V30 45227 H 4304.83 -3.17519 -4.17471 0
M  V30 45228 H 4306.31 -1.81604 -5.21271 0
M  V30 45229 H 4306.78 -0.338889 -4.37891 0
M  V30 45230 H 4307.39 -1.90804 -3.80097 0
M  V30 45231 N 4305.71 1.23599 -0.977801 0
M  V30 45232 C 4307.12 1.73774 -0.682603 0
M  V30 45233 C 4307.47 1.79091 0.801291 0
M  V30 45234 O 4306.59 1.42705 1.62678 0
M  V30 45235 C 4307.19 3.15591 -1.23239 0
M  V30 45236 C 4305.75 3.63232 -0.986893 0
M  V30 45237 C 4304.89 2.41565 -1.36168 0
M  V30 45238 H 4307.84 1.09159 -1.15195 0
M  V30 45239 H 4307.87 3.75683 -0.603552 0
M  V30 45240 H 4307.38 3.11688 -2.3124 0
M  V30 45241 H 4305.48 3.7252 0.0771469 0
M  V30 45242 H 4305.59 4.50169 -1.63964 0
M  V30 45243 H 4303.96 2.42459 -0.780121 0
M  V30 45244 H 4304.74 2.40336 -2.4514 0
M  V30 45245 N 4307.18 0.749135 1.38657 0
M  V30 45246 C 4308.41 0.313539 2.04207 0
M  V30 45247 C 4308.82 -1.0615 1.56617 0
M  V30 45248 O 4308.16 -1.68464 0.732492 0
M  V30 45249 C 4308.23 0.252699 3.58611 0
M  V30 45250 C 4307.89 1.56854 4.29238 0
M  V30 45251 C 4308.89 2.51691 4.54915 0
M  V30 45252 C 4306.57 1.83675 4.67513 0
M  V30 45253 C 4308.57 3.7157 5.17894 0
M  V30 45254 C 4306.25 3.03829 5.30218 0
M  V30 45255 C 4307.25 3.97597 5.55343 0
M  V30 45256 O 4306.94 5.15639 6.16743 0
M  V30 45257 H 4306.67 0.132544 0.662879 0
M  V30 45258 H 4309.23 1.01765 1.78418 0
M  V30 45259 H 4307.46 -0.507622 3.83354 0
M  V30 45260 H 4309.14 -0.152786 4.05612 0
M  V30 45261 H 4309.91 2.32245 4.25779 0
M  V30 45262 H 4305.79 1.11528 4.47306 0
M  V30 45263 H 4309.33 4.44774 5.37421 0
M  V30 45264 H 4305.23 3.2317 5.58777 0
M  V30 45265 H 4306 5.16161 6.35232 0
M  V30 45266 N 4308.66 -1.4953 0.49786 0
M  V30 45267 C 4309.9 -2.04348 -0.0461779 0
M  V30 45268 C 4310.27 -1.36955 -1.34564 0
M  V30 45269 O 4311.47 -1.82476 -1.97372 0
M  V30 45270 C 4309.74 -3.56848 -0.19859 0
M  V30 45271 S 4311.3 -4.33224 -0.697329 0
M  V30 45272 H 4308.11 -0.710992 -0.00326621 0
M  V30 45273 H 4310.72 -1.8362 0.671111 0
M  V30 45274 H 4309.42 -4.03442 0.752521 0
M  V30 45275 H 4308.95 -3.81975 -0.941211 0
M  V30 45276 H 4310.97 -4.5555 -1.96694 0
M  V30 45277 N 4310.14 -0.23156 -1.5589 0
M  V30 45278 C 4311.09 0.688011 -2.17372 0
M  V30 45279 C 4312.07 1.15034 -1.12499 0
M  V30 45280 O 4313.27 1.10266 -1.38457 0
M  V30 45281 C 4310.39 1.89151 -2.8649 0
M  V30 45282 C 4309.48 1.4484 -3.986 0
M  V30 45283 N 4309.87 0.718516 -5.00671 0
M  V30 45284 C 4308.17 1.73491 -4.10873 0
M  V30 45285 C 4308.87 0.491169 -5.79623 0
M  V30 45286 N 4307.85 1.05085 -5.33346 0
M  V30 45287 H 4311.65 0.122044 -2.93646 0
M  V30 45288 H 4309.16 -0.0332288 -1.62366 0
M  V30 45289 H 4311.16 2.56114 -3.28954 0
M  V30 45290 H 4309.82 2.46185 -2.11714 0
M  V30 45291 H 4310.83 0.370177 -5.16575 0
M  V30 45292 H 4307.51 2.31773 -3.47257 0
M  V30 45293 H 4308.9 -0.0904517 -6.71839 0
M  V30 45294 N 4311.62 1.57545 0.0417295 0
M  V30 45295 C 4312.89 1.79816 0.769768 0
M  V30 45296 C 4313.27 0.826561 1.94245 0
M  V30 45297 O 4312.62 -0.134018 2.28107 0
M  V30 45298 C 4312.83 3.2718 1.21466 0
M  V30 45299 C 4314.18 3.91826 1.63578 0
M  V30 45300 O 4315.2 3.31253 1.30957 0
M  V30 45301 O 4314.06 4.98449 2.24079 0
M  V30 45302 H 4311.16 0.739012 0.371201 0
M  V30 45303 H 4313.7 1.69689 0.0194831 0
M  V30 45304 H 4312.48 3.8948 0.376945 0
M  V30 45305 H 4312.1 3.42148 2.02535 0
M  V30 45306 N 4313.1 -0.313759 1.54445 0
M  V30 45307 C 4314.51 -0.887582 1.64252 0
M  V30 45308 C 4314.86 -1.88539 0.54291 0
M  V30 45309 O 4313.98 -2.13982 -0.322589 0
M  V30 45310 C 4314.58 -1.61663 2.97742 0
M  V30 45311 C 4313.14 -2.13904 3.09713 0
M  V30 45312 C 4312.28 -0.967572 2.59872 0
M  V30 45313 H 4315.23 -0.0910832 1.58438 0
M  V30 45314 H 4315.26 -2.48145 2.88451 0
M  V30 45315 H 4314.77 -0.890164 3.77753 0
M  V30 45316 H 4312.87 -2.89637 2.34396 0
M  V30 45317 H 4312.98 -2.38232 4.15671 0
M  V30 45318 H 4311.35 -1.34953 2.16009 0
M  V30 45319 H 4312.13 -0.255265 3.4235 0
M  V30 45320 N 4314.57 -1.46684 -0.576319 0
M  V30 45321 C 4315.8 -1.55907 -1.36017 0
M  V30 45322 C 4316.22 -0.202434 -1.87712 0
M  V30 45323 O 4315.57 0.801317 -1.63967 0
M  V30 45324 C 4315.62 -2.56902 -2.5433 0
M  V30 45325 O 4315.35 -3.87296 -2.04776 0
M  V30 45326 C 4316.85 -2.76126 -3.46799 0
M  V30 45327 H 4314.07 -0.527039 -0.415296 0
M  V30 45328 H 4316.61 -1.92146 -0.700013 0
M  V30 45329 H 4314.77 -2.23649 -3.16322 0
M  V30 45330 H 4315.18 -4.4232 -2.81874 0
M  V30 45331 H 4316.65 -3.50699 -4.2628 0
M  V30 45332 H 4317.13 -1.8326 -3.99139 0
M  V30 45333 H 4317.74 -3.105 -2.90637 0
M  V30 45334 N 4316.05 0.821486 -1.34497 0
M  V30 45335 C 4317.3 1.58012 -1.27122 0
M  V30 45336 C 4317.63 1.93555 0.158129 0
M  V30 45337 O 4316.91 1.60141 1.10387 0
M  V30 45338 C 4317.19 2.87867 -2.16343 0
M  V30 45339 C 4317.04 2.58896 -3.67822 0
M  V30 45340 C 4318.36 3.89451 -2.04977 0
M  V30 45341 H 4315.48 0.57331 -0.463125 0
M  V30 45342 H 4318.12 0.946235 -1.64762 0
M  V30 45343 H 4316.27 3.41963 -1.84373 0
M  V30 45344 H 4317.94 2.11098 -4.10165 0
M  V30 45345 H 4316.19 1.92317 -3.8884 0
M  V30 45346 H 4316.86 3.51501 -4.25618 0
M  V30 45347 H 4319.33 3.44713 -2.3305 0
M  V30 45348 H 4318.21 4.78113 -2.69628 0
M  V30 45349 H 4318.47 4.30002 -1.02718 0
M  V30 45350 N 4317.53 1.1825 1.04186 0
M  V30 45351 C 4318.46 0.93191 2.14097 0
M  V30 45352 C 4319.44 -0.129931 1.69603 0
M  V30 45353 O 4320.63 0.0224111 1.94187 0
M  V30 45354 C 4317.76 0.455524 3.443 0
M  V30 45355 C 4316.71 1.45771 4.02411 0
M  V30 45356 C 4316.04 0.838889 5.28078 0
M  V30 45357 C 4317.34 2.83405 4.38724 0
M  V30 45358 H 4319.03 1.8511 2.35318 0
M  V30 45359 H 4316.58 0.891441 1.1309 0
M  V30 45360 H 4318.53 0.267579 4.2055 0
M  V30 45361 H 4317.25 -0.499234 3.22762 0
M  V30 45362 H 4315.91 1.63257 3.28242 0
M  V30 45363 H 4315.56 -0.123019 5.0285 0
M  V30 45364 H 4315.26 1.508 5.6792 0
M  V30 45365 H 4316.78 0.661447 6.07007 0
M  V30 45366 H 4318.2 2.69577 5.05965 0
M  V30 45367 H 4316.6 3.46987 4.89612 0
M  V30 45368 H 4317.67 3.37048 3.48607 0
M  V30 45369 N 4319.01 -1.23079 0.984342 0
M  V30 45370 C 4320.42 -1.7341 0.691809 0
M  V30 45371 C 4320.77 -1.79514 -0.791783 0
M  V30 45372 O 4319.9 -1.43566 -1.61919 0
M  V30 45373 C 4320.49 -3.14933 1.24911 0
M  V30 45374 C 4319.05 -3.62703 1.00614 0
M  V30 45375 C 4318.2 -2.40839 1.37447 0
M  V30 45376 H 4321.15 -1.08547 1.15772 0
M  V30 45377 H 4321.17 -3.75357 0.623467 0
M  V30 45378 H 4320.68 -3.10458 2.3289 0
M  V30 45379 H 4318.78 -3.72556 -0.0573901 0
M  V30 45380 H 4318.89 -4.49294 1.66349 0
M  V30 45381 H 4317.26 -2.42042 0.792968 0
M  V30 45382 H 4318.04 -2.39032 2.46411 0
M  V30 45383 N 4320.49 -0.756478 -1.38258 0
M  V30 45384 C 4321.73 -0.313306 -1.99657 0
M  V30 45385 C 4322.06 1.10964 -1.60349 0
M  V30 45386 O 4321.33 1.75931 -0.861697 0
M  V30 45387 H 4319.91 -0.112851 -0.738426 0
M  V30 45388 H 4322.57 -0.971214 -1.68978 0
M  V30 45389 H 4321.66 -0.378744 -3.09793 0
M  V30 45390 N 4321.96 1.49264 -0.505783 0
M  V30 45391 C 4322.93 2.27731 0.259107 0
M  V30 45392 C 4323.93 1.33946 0.889666 0
M  V30 45393 O 4325.12 1.57063 0.753457 0
M  V30 45394 C 4322.25 3.12061 1.37226 0
M  V30 45395 H 4323.44 2.96808 -0.429503 0
M  V30 45396 H 4321 1.54107 -0.260903 0
M  V30 45397 H 4321.73 2.47559 2.09487 0
M  V30 45398 H 4321.52 3.8102 0.92552 0
M  V30 45399 H 4323.01 3.71313 1.91092 0
M  V30 45400 N 4323.44 0.239823 1.55765 0
M  V30 45401 C 4324.69 -0.386881 1.9877 0
M  V30 45402 C 4325.02 -1.58462 1.12784 0
M  V30 45403 O 4324.27 -1.94898 0.176988 0
M  V30 45404 C 4324.57 -0.846891 3.47221 0
M  V30 45405 C 4324.24 0.242313 4.50248 0
M  V30 45406 C 4322.9 0.54148 4.78144 0
M  V30 45407 C 4325.25 0.978015 5.11942 0
M  V30 45408 C 4322.58 1.58055 5.65009 0
M  V30 45409 C 4324.93 2.00655 5.99934 0
M  V30 45410 C 4323.6 2.31244 6.26165 0
M  V30 45411 H 4322.87 -0.14157 0.727351 0
M  V30 45412 H 4325.51 0.346168 1.88345 0
M  V30 45413 H 4323.82 -1.65902 3.54942 0
M  V30 45414 H 4325.51 -1.34195 3.77879 0
M  V30 45415 H 4322.1 -0.00100397 4.286 0
M  V30 45416 H 4326.29 0.760136 4.90444 0
M  V30 45417 H 4321.54 1.82296 5.83591 0
M  V30 45418 H 4325.72 2.58158 6.46783 0
M  V30 45419 H 4323.35 3.11898 6.9327 0
M  V30 45420 N 4324.92 -1.57565 -0.0333739 0
M  V30 45421 C 4325.88 -2.05255 -1.01995 0
M  V30 45422 C 4326.88 -0.955923 -1.29301 0
M  V30 45423 O 4328.07 -1.21967 -1.24377 0
M  V30 45424 C 4325.21 -2.46585 -2.35391 0
M  V30 45425 H 4326.4 -2.9367 -0.608084 0
M  V30 45426 H 4323.95 -1.5377 -0.280097 0
M  V30 45427 H 4324.69 -1.61312 -2.81334 0
M  V30 45428 H 4324.47 -3.26643 -2.16902 0
M  V30 45429 H 4325.96 -2.83924 -3.0623 0
M  V30 45430 N 4326.4 0.305564 -1.54609 0
M  V30 45431 C 4327.63 1.05887 -1.77402 0
M  V30 45432 C 4328.04 1.81585 -0.531359 0
M  V30 45433 O 4327.38 1.76529 0.50824 0
M  V30 45434 C 4327.44 2.08918 -2.92564 0
M  V30 45435 C 4327.11 1.52456 -4.3082 0
M  V30 45436 C 4328.1 0.956959 -5.11017 0
M  V30 45437 C 4325.79 1.56156 -4.7741 0
M  V30 45438 C 4327.78 0.433871 -6.35922 0
M  V30 45439 C 4325.47 1.03461 -6.02278 0
M  V30 45440 C 4326.47 0.471725 -6.81369 0
M  V30 45441 O 4326.15 -0.0472563 -8.03886 0
M  V30 45442 H 4325.89 0.320003 -0.595461 0
M  V30 45443 H 4328.44 0.351795 -2.02365 0
M  V30 45444 H 4326.67 2.83293 -2.63215 0
M  V30 45445 H 4328.36 2.70114 -3.02974 0
M  V30 45446 H 4329.13 0.921307 -4.76169 0
M  V30 45447 H 4325 1.98908 -4.15881 0
M  V30 45448 H 4328.55 -0.00612779 -6.976 0
M  V30 45449 H 4324.45 1.06739 -6.36614 0
M  V30 45450 H 4325.21 0.0664745 -8.18473 0
M  V30 45451 N 4327.88 1.46988 0.568532 0
M  V30 45452 C 4329.1 1.56869 1.35672 0
M  V30 45453 C 4329.53 0.215336 1.86863 0
M  V30 45454 O 4328.88 -0.806939 1.62352 0
M  V30 45455 C 4328.93 2.58862 2.51043 0
M  V30 45456 O 4328.04 2.13348 3.52926 0
M  V30 45457 H 4327.38 0.527365 0.403462 0
M  V30 45458 H 4329.91 1.92678 0.688224 0
M  V30 45459 H 4329.92 2.78923 2.97768 0
M  V30 45460 H 4328.59 3.57134 2.13139 0
M  V30 45461 H 4327.17 2.03337 3.12583 0
M  V30 45462 N 4329.35 -0.814342 1.3493 0
M  V30 45463 C 4330.29 -1.9336 1.23063 0
M  V30 45464 C 4331.3 -1.62054 0.155704 0
M  V30 45465 O 4332.49 -1.73767 0.408308 0
M  V30 45466 C 4329.59 -3.27528 0.87055 0
M  V30 45467 C 4328.76 -3.86796 2.04224 0
M  V30 45468 C 4327.82 -4.99357 1.65918 0
M  V30 45469 O 4326.85 -5.17196 2.3769 0
M  V30 45470 N 4328.05 -5.77612 0.578305 0
M  V30 45471 H 4330.81 -2.0407 2.1949 0
M  V30 45472 H 4328.37 -0.991368 1.27998 0
M  V30 45473 H 4330.37 -4.00288 0.595921 0
M  V30 45474 H 4328.94 -3.126 -0.00379062 0
M  V30 45475 H 4328.16 -3.06324 2.48111 0
M  V30 45476 H 4329.44 -4.23126 2.82564 0
M  V30 45477 H 4328.84 -5.65697 -0.0181737 0
M  V30 45478 H 4327.4 -6.50786 0.363434 0
M  V30 45479 N 4330.83 -1.18801 -1.03557 0
M  V30 45480 C 4331.77 -0.863037 -2.11251 0
M  V30 45481 C 4332.74 0.177136 -1.61632 0
M  V30 45482 O 4333.93 0.0549518 -1.8842 0
M  V30 45483 C 4331.05 -0.290396 -3.37453 0
M  V30 45484 C 4330.1 -1.30856 -4.0593 0
M  V30 45485 S 4330.93 -2.86644 -4.52322 0
M  V30 45486 C 4332.09 -2.30905 -5.8175 0
M  V30 45487 H 4332.32 -1.77509 -2.38491 0
M  V30 45488 H 4329.86 -1.01442 -1.164 0
M  V30 45489 H 4331.81 0.0334812 -4.10486 0
M  V30 45490 H 4330.47 0.599855 -3.08319 0
M  V30 45491 H 4329.67 -0.85687 -4.96663 0
M  V30 45492 H 4329.27 -1.57894 -3.39036 0
M  V30 45493 H 4331.56 -1.69482 -6.55959 0
M  V30 45494 H 4332.5 -3.19959 -6.3169 0
M  V30 45495 H 4332.91 -1.73734 -5.371 0
M  V30 45496 N 4332.31 1.22555 -0.990855 0
M  V30 45497 C 4333.73 1.43369 -0.701239 0
M  V30 45498 C 4333.93 1.87857 0.728843 0
M  V30 45499 O 4332.98 2.03116 1.50001 0
M  V30 45500 C 4334.3 2.47685 -1.70507 0
M  V30 45501 C 4335.84 2.61486 -1.72029 0
M  V30 45502 C 4336.32 3.69021 -2.7127 0
M  V30 45503 N 4337.81 3.76476 -2.69851 0
M  V30 45504 C 4338.55 4.5927 -3.43305 0
M  V30 45505 N 4338.04 5.46072 -4.26353 0
M  V30 45506 N 4339.83 4.53562 -3.32021 0
M  V30 45507 H 4331.99 0.919841 -1.91449 0
M  V30 45508 H 4334.25 0.466012 -0.825552 0
M  V30 45509 H 4333.95 2.21938 -2.72831 0
M  V30 45510 H 4333.83 3.46253 -1.49629 0
M  V30 45511 H 4336.22 2.86579 -0.70404 0
M  V30 45512 H 4336.3 1.632 -1.96976 0
M  V30 45513 H 4335.94 3.44676 -3.73042 0
M  V30 45514 H 4335.87 4.66872 -2.43593 0
M  V30 45515 H 4338.36 3.14453 -2.09589 0
M  V30 45516 H 4338.67 6.06265 -4.79231 0
M  V30 45517 H 4337.02 5.45661 -4.3044 0
M  V30 45518 H 4340.21 3.84773 -2.66584 0
M  V30 45519 H 4340.38 5.17856 -3.89525 0
M  V30 45520 N 4333.79 0.763799 1.37855 0
M  V30 45521 C 4335.2 0.390941 1.82561 0
M  V30 45522 C 4335.55 -1.08185 1.63678 0
M  V30 45523 O 4334.68 -1.83718 1.14353 0
M  V30 45524 C 4335.27 0.702804 3.3143 0
M  V30 45525 C 4333.83 0.383099 3.74445 0
M  V30 45526 C 4332.98 0.950742 2.60492 0
M  V30 45527 H 4335.93 0.959112 1.26439 0
M  V30 45528 H 4335.95 -0.015386 3.80497 0
M  V30 45529 H 4335.46 1.77478 3.45142 0
M  V30 45530 H 4333.56 -0.681882 3.66307 0
M  V30 45531 H 4333.68 0.885791 4.7084 0
M  V30 45532 H 4332.04 0.375471 2.51917 0
M  V30 45533 H 4332.82 2.02796 2.77 0
M  V30 45534 N 4335.27 -1.48993 0.513692 0
M  V30 45535 C 4336.22 -2.26306 -0.277442 0
M  V30 45536 C 4337.2 -1.31698 -0.924363 0
M  V30 45537 O 4338.39 -1.5634 -0.829863 0
M  V30 45538 C 4335.52 -3.16335 -1.33367 0
M  V30 45539 C 4334.61 -4.1841 -0.692357 0
M  V30 45540 N 4335 -5.05354 0.212438 0
M  V30 45541 C 4333.3 -4.35733 -0.951474 0
M  V30 45542 C 4334 -5.78793 0.580804 0
M  V30 45543 N 4332.97 -5.43573 -0.0542901 0
M  V30 45544 H 4336.78 -2.909 0.418883 0
M  V30 45545 H 4334.29 -1.58999 0.330613 0
M  V30 45546 H 4336.29 -3.70366 -1.91401 0
M  V30 45547 H 4334.95 -2.53295 -2.03154 0
M  V30 45548 H 4335.96 -5.14596 0.584048 0
M  V30 45549 H 4332.64 -3.83892 -1.64114 0
M  V30 45550 H 4334.03 -6.58771 1.32177 0
M  V30 45551 N 4336.75 -0.248081 -1.55635 0
M  V30 45552 C 4337.99 0.376892 -1.99267 0
M  V30 45553 C 4338.32 1.57504 -1.13605 0
M  V30 45554 O 4337.6 1.93472 -0.19972 0
M  V30 45555 C 4337.88 0.785602 -3.51426 0
M  V30 45556 C 4337.74 -0.41802 -4.47853 0
M  V30 45557 C 4339.05 1.63214 -4.08717 0
M  V30 45558 H 4336.17 0.135519 -0.724433 0
M  V30 45559 H 4338.82 -0.349627 -1.86755 0
M  V30 45560 H 4336.97 1.40463 -3.62219 0
M  V30 45561 H 4338.64 -1.05646 -4.4904 0
M  V30 45562 H 4336.88 -1.06091 -4.20627 0
M  V30 45563 H 4337.55 -0.0886972 -5.51929 0
M  V30 45564 H 4340.03 1.10959 -4.01033 0
M  V30 45565 H 4338.9 1.88697 -5.15446 0
M  V30 45566 H 4339.16 2.60436 -3.57247 0
M  V30 45567 N 4338.22 1.5758 0.0250174 0
M  V30 45568 C 4339.64 1.54992 0.380729 0
M  V30 45569 C 4339.84 0.974734 1.76355 0
M  V30 45570 O 4338.9 0.597554 2.45327 0
M  V30 45571 C 4340.21 2.99404 0.278873 0
M  V30 45572 C 4341.76 3.10973 0.355658 0
M  V30 45573 C 4342.23 4.57124 0.283205 0
M  V30 45574 N 4343.72 4.61937 0.341876 0
M  V30 45575 C 4344.46 5.72568 0.308768 0
M  V30 45576 N 4343.95 6.92426 0.227715 0
M  V30 45577 N 4345.75 5.60954 0.358795 0
M  V30 45578 H 4337.9 1.93318 -0.87988 0
M  V30 45579 H 4340.16 0.886854 -0.334954 0
M  V30 45580 H 4339.87 3.45229 -0.671556 0
M  V30 45581 H 4339.74 3.61678 1.07093 0
M  V30 45582 H 4342.13 2.65093 1.29652 0
M  V30 45583 H 4342.21 2.51523 -0.465821 0
M  V30 45584 H 4341.85 5.03672 -0.654007 0
M  V30 45585 H 4341.78 5.1449 1.12284 0
M  V30 45586 H 4344.27 3.75703 0.406868 0
M  V30 45587 H 4344.59 7.72521 0.207662 0
M  V30 45588 H 4342.93 6.9473 0.193704 0
M  V30 45589 H 4346.12 4.66211 0.420137 0
M  V30 45590 H 4346.3 6.47162 0.329526 0
M  V30 45591 N 4339.7 -0.29736 1.54769 0
M  V30 45592 C 4340.93 -1.04945 1.77961 0
M  V30 45593 C 4341.34 -1.81301 0.540982 0
M  V30 45594 O 4340.68 -1.76796 -0.498871 0
M  V30 45595 C 4340.74 -2.07363 2.93668 0
M  V30 45596 C 4340.41 -1.50169 4.31623 0
M  V30 45597 C 4341.41 -0.929845 5.11517 0
M  V30 45598 C 4339.09 -1.53622 4.78232 0
M  V30 45599 C 4341.08 -0.400141 6.36143 0
M  V30 45600 C 4338.77 -1.00265 6.02818 0
M  V30 45601 C 4339.77 -0.435583 6.8161 0
M  V30 45602 O 4339.46 0.0898876 8.0385 0
M  V30 45603 H 4339.19 -0.316841 0.59715 0
M  V30 45604 H 4341.74 -0.341058 2.02549 0
M  V30 45605 H 4339.97 -2.81893 2.64713 0
M  V30 45606 H 4341.66 -2.68503 3.04402 0
M  V30 45607 H 4342.43 -0.896042 4.76651 0
M  V30 45608 H 4338.31 -1.96699 4.1693 0
M  V30 45609 H 4341.85 0.0431231 6.97587 0
M  V30 45610 H 4337.75 -1.03361 6.37171 0
M  V30 45611 H 4338.52 -0.0230679 8.18497 0
M  V30 45612 N 4341.18 -1.47287 -0.560729 0
M  V30 45613 C 4342.46 -1.44212 -1.32145 0
M  V30 45614 C 4342.84 -0.137191 -2.10654 0
M  V30 45615 O 4342.18 0.881323 -2.1082 0
M  V30 45616 C 4342.39 -2.6855 -2.22894 0
M  V30 45617 C 4343.74 -3.15618 -2.84026 0
M  V30 45618 O 4344.77 -2.69253 -2.33198 0
M  V30 45619 O 4343.63 -3.96212 -3.76401 0
M  V30 45620 H 4340.72 -0.574536 -0.594843 0
M  V30 45621 H 4343.27 -1.59483 -0.579924 0
M  V30 45622 H 4342.04 -3.55062 -1.64458 0
M  V30 45623 H 4341.66 -2.55847 -3.04348 0
M  V30 45624 N 4342.66 0.807175 -1.3536 0
M  V30 45625 C 4343.59 1.93361 -1.30896 0
M  V30 45626 C 4344.57 1.69107 -0.183504 0
M  V30 45627 O 4345.75 1.90478 -0.378372 0
M  V30 45628 C 4342.88 3.30094 -1.07959 0
M  V30 45629 C 4341.84 3.68828 -2.1714 0
M  V30 45630 C 4341.16 5.03717 -1.79369 0
M  V30 45631 C 4342.46 3.79268 -3.591 0
M  V30 45632 H 4344.16 1.97354 -2.25149 0
M  V30 45633 H 4341.7 0.948112 -1.08383 0
M  V30 45634 H 4343.66 4.08498 -1.03476 0
M  V30 45635 H 4342.38 3.26442 -0.101526 0
M  V30 45636 H 4341.04 2.92709 -2.20719 0
M  V30 45637 H 4340.69 4.96568 -0.801821 0
M  V30 45638 H 4340.39 5.30604 -2.52455 0
M  V30 45639 H 4341.91 5.84561 -1.7641 0
M  V30 45640 H 4343.33 4.47905 -3.57846 0
M  V30 45641 H 4341.72 4.17624 -4.30941 0
M  V30 45642 H 4342.79 2.80838 -3.95295 0
M  V30 45643 N 4344.14 1.19348 1.02926 0
M  V30 45644 C 4345.37 1.01964 1.79686 0
M  V30 45645 C 4345.77 -0.434746 1.84137 0
M  V30 45646 O 4345.12 -1.31375 1.28399 0
M  V30 45647 C 4345.18 1.51219 3.26149 0
M  V30 45648 C 4344.84 2.99323 3.45333 0
M  V30 45649 C 4345.84 3.97089 3.35584 0
M  V30 45650 C 4343.52 3.38007 3.7156 0
M  V30 45651 C 4345.52 5.31531 3.51786 0
M  V30 45652 C 4343.21 4.72609 3.87406 0
M  V30 45653 C 4344.2 5.6918 3.77522 0
M  V30 45654 O 4343.89 7.01344 3.92901 0
M  V30 45655 H 4343.62 0.359739 0.572332 0
M  V30 45656 H 4346.18 1.5859 1.30531 0
M  V30 45657 H 4344.41 0.889671 3.76327 0
M  V30 45658 H 4346.1 1.30049 3.84503 0
M  V30 45659 H 4346.86 3.68548 3.15274 0
M  V30 45660 H 4342.74 2.63391 3.78346 0
M  V30 45661 H 4346.29 6.06893 3.43986 0
M  V30 45662 H 4342.18 5.00846 4.07214 0
M  V30 45663 H 4342.95 7.08411 4.09994 0
M  V30 45664 N 4345.61 -1.22028 0.997341 0
M  V30 45665 C 4346.89 -1.86443 0.591483 0
M  V30 45666 C 4347.27 -1.89456 -0.93111 0
M  V30 45667 O 4346.62 -1.3883 -1.8149 0
M  V30 45668 C 4346.83 -3.27092 1.21703 0
M  V30 45669 C 4348.18 -4.0355 1.32034 0
M  V30 45670 O 4349.2 -3.36375 1.17176 0
M  V30 45671 O 4348.06 -5.23805 1.55856 0
M  V30 45672 H 4345.15 -0.802062 0.201559 0
M  V30 45673 H 4347.7 -1.29771 1.0935 0
M  V30 45674 H 4346.47 -3.19558 2.25829 0
M  V30 45675 H 4346.09 -3.91374 0.700879 0
M  V30 45676 N 4347.09 -0.771099 -1.37448 0
M  V30 45677 C 4348.34 -0.334465 -1.99313 0
M  V30 45678 C 4348.66 1.09257 -1.61517 0
M  V30 45679 O 4347.93 1.75007 -0.880309 0
M  V30 45680 H 4346.51 -0.120677 -0.737188 0
M  V30 45681 H 4349.17 -0.989082 -1.67938 0
M  V30 45682 H 4348.27 -0.41158 -3.09374 0
M  V30 45683 N 4348.57 1.48719 -0.521586 0
M  V30 45684 C 4349.52 2.31151 0.259237 0
M  V30 45685 C 4350.51 1.40697 0.943438 0
M  V30 45686 O 4351.72 1.57646 0.86878 0
M  V30 45687 H 4348.09 0.744986 0.102467 0
M  V30 45688 H 4350.06 2.949 -0.455705 0
M  V30 45689 C 4348.81 3.22549 1.29835 0
M  V30 45690 H 4348.14 3.92092 0.781283 0
M  V30 45691 H 4349.58 3.83129 1.81627 0
M  V30 45692 C 4348.04 2.43573 2.32752 0
M  V30 45693 O 4348.57 2.15454 3.39032 0
M  V30 45694 N 4346.77 2.05221 2.05749 0
M  V30 45695 H 4346.32 2.28289 1.19339 0
M  V30 45696 H 4346.28 1.5269 2.74833 0
M  V30 45697 N 4350.05 0.256331 1.55501 0
M  V30 45698 C 4350.98 -0.680103 2.1783 0
M  V30 45699 C 4351.96 -1.166 1.13328 0
M  V30 45700 O 4353.14 -1.24241 1.41762 0
M  V30 45701 C 4350.27 -1.92536 2.78653 0
M  V30 45702 C 4349.32 -1.57654 3.96292 0
M  V30 45703 S 4350.15 -0.670968 5.3128 0
M  V30 45704 C 4351.31 -1.92502 5.95562 0
M  V30 45705 H 4351.54 -0.150452 2.96919 0
M  V30 45706 H 4349.07 0.0407141 1.54346 0
M  V30 45707 H 4351.03 -2.6402 3.1433 0
M  V30 45708 H 4349.69 -2.42614 1.99492 0
M  V30 45709 H 4348.88 -2.50265 4.37474 0
M  V30 45710 H 4348.49 -0.94205 3.61941 0
M  V30 45711 H 4350.78 -2.87119 6.13652 0
M  V30 45712 H 4351.72 -1.55653 6.90781 0
M  V30 45713 H 4352.13 -2.0814 5.24726 0
M  V30 45714 N 4351.53 -1.57591 -0.0166602 0
M  V30 45715 C 4352.77 -1.89833 -0.704955 0
M  V30 45716 C 4353.1 -0.855147 -1.74693 0
M  V30 45717 O 4352.36 0.142295 -1.95182 0
M  V30 45718 C 4352.66 -3.28828 -1.40024 0
M  V30 45719 C 4352.32 -4.48196 -0.493069 0
M  V30 45720 C 4350.98 -4.80585 -0.243246 0
M  V30 45721 C 4353.34 -5.21032 0.13252 0
M  V30 45722 C 4350.66 -5.83191 0.640737 0
M  V30 45723 C 4353.02 -6.24577 1.00428 0
M  V30 45724 C 4351.68 -6.55434 1.26344 0
M  V30 45725 H 4350.95 -0.694649 -0.257961 0
M  V30 45726 H 4353.6 -1.91467 0.0352888 0
M  V30 45727 H 4351.9 -3.2324 -2.21412 0
M  V30 45728 H 4353.6 -3.51028 -1.93856 0
M  V30 45729 H 4350.19 -4.22879 -0.697945 0
M  V30 45730 H 4354.37 -4.96277 -0.047502 0
M  V30 45731 H 4349.63 -6.05467 0.849707 0
M  V30 45732 H 4353.8 -6.80153 1.49547 0
M  V30 45733 H 4351.43 -7.34761 1.95013 0
M  V30 45734 N 4353 0.289148 -1.54925 0
M  V30 45735 C 4354.25 1.02056 -1.73976 0
M  V30 45736 C 4354.57 1.88021 -0.5392 0
M  V30 45737 O 4355.77 2.64518 -0.61177 0
M  V30 45738 C 4354.23 1.86429 -3.07851 0
M  V30 45739 C 4353.84 1.05409 -4.35423 0
M  V30 45740 C 4355.58 2.59098 -3.36257 0
M  V30 45741 C 4353.49 1.89128 -5.60343 0
M  V30 45742 H 4352.42 0.384754 -0.648444 0
M  V30 45743 H 4355.07 0.276968 -1.81398 0
M  V30 45744 H 4353.45 2.64822 -2.94424 0
M  V30 45745 H 4354.62 0.31547 -4.59719 0
M  V30 45746 H 4352.94 0.44269 -4.1404 0
M  V30 45747 H 4355.54 3.22108 -4.26791 0
M  V30 45748 H 4355.88 3.28546 -2.55662 0
M  V30 45749 H 4356.41 1.87747 -3.50708 0
M  V30 45750 H 4353.15 1.24129 -6.4364 0
M  V30 45751 H 4352.67 2.6063 -5.40215 0
M  V30 45752 H 4354.35 2.46888 -5.98043 0
M  V30 45753 N 4354.48 1.47583 0.55291 0
M  V30 45754 C 4355.43 1.60392 1.65961 0
M  V30 45755 C 4356.4 0.446782 1.59978 0
M  V30 45756 O 4357.58 0.667383 1.78747 0
M  V30 45757 C 4354.72 1.6282 3.04276 0
M  V30 45758 C 4353.84 2.89481 3.20663 0
M  V30 45759 C 4352.97 2.83217 4.49401 0
M  V30 45760 C 4352.01 4.04684 4.59236 0
M  V30 45761 N 4351.15 3.96631 5.79334 0
M  V30 45762 H 4355.99 2.54912 1.54351 0
M  V30 45763 H 4353.53 1.26436 0.751821 0
M  V30 45764 H 4355.48 1.62211 3.84374 0
M  V30 45765 H 4354.11 0.718103 3.14711 0
M  V30 45766 H 4353.17 2.99939 2.33968 0
M  V30 45767 H 4354.48 3.7942 3.23793 0
M  V30 45768 H 4353.63 2.80881 5.37765 0
M  V30 45769 H 4352.37 1.90969 4.48756 0
M  V30 45770 H 4351.38 4.0732 3.69283 0
M  V30 45771 H 4352.6 4.98065 4.61637 0
M  V30 45772 H 4350.55 3.07188 5.7963 0
M  V30 45773 H 4350.46 4.80252 5.83861 0
M  V30 45774 H 4351.73 3.98318 6.70047 0
M  V30 45775 N 4355.96 -0.799985 1.35787 0
M  V30 45776 C 4357.21 -1.55739 1.29428 0
M  V30 45777 C 4357.54 -1.94069 -0.129453 0
M  V30 45778 O 4356.79 -1.62112 -1.09628 0
M  V30 45779 C 4357.09 -2.85298 2.15266 0
M  V30 45780 C 4356.76 -2.66156 3.63967 0
M  V30 45781 C 4355.42 -2.60643 4.04498 0
M  V30 45782 C 4357.77 -2.48229 4.58292 0
M  V30 45783 C 4355.1 -2.35156 5.37511 0
M  V30 45784 C 4357.45 -2.2427 5.91511 0
M  V30 45785 C 4356.11 -2.17184 6.31179 0
M  V30 45786 H 4355.38 -0.569889 0.473611 0
M  V30 45787 H 4358.03 -0.923813 1.67744 0
M  V30 45788 H 4356.34 -3.53068 1.69853 0
M  V30 45789 H 4358.03 -3.43032 2.07678 0
M  V30 45790 H 4354.62 -2.71297 3.31807 0
M  V30 45791 H 4358.81 -2.51496 4.27859 0
M  V30 45792 H 4354.06 -2.28144 5.67239 0
M  V30 45793 H 4358.24 -2.09391 6.64175 0
M  V30 45794 H 4355.86 -1.97197 7.34178 0
M  V30 45795 N 4357.44 -1.19892 -1.02292 0
M  V30 45796 C 4358.85 -1.00663 -1.57238 0
M  V30 45797 C 4359.2 0.438786 -1.91231 0
M  V30 45798 O 4358.33 1.31916 -1.71543 0
M  V30 45799 C 4358.92 -1.82099 -2.85701 0
M  V30 45800 C 4357.48 -1.67254 -3.37199 0
M  V30 45801 C 4356.63 -1.80427 -2.10574 0
M  V30 45802 H 4359.58 -1.34177 -0.847487 0
M  V30 45803 H 4359.6 -1.32062 -3.56847 0
M  V30 45804 H 4359.11 -2.87293 -2.6093 0
M  V30 45805 H 4357.21 -0.64671 -3.66945 0
M  V30 45806 H 4357.32 -2.48149 -4.09828 0
M  V30 45807 H 4355.69 -1.23549 -2.22728 0
M  V30 45808 H 4356.47 -2.87093 -1.88236 0
M  V30 45809 N 4358.92 1.21498 -1.0038 0
M  V30 45810 C 4359.83 2.27508 -0.572465 0
M  V30 45811 C 4360.84 1.69711 0.383952 0
M  V30 45812 O 4362.02 1.99866 0.248084 0
M  V30 45813 C 4359.08 3.46569 0.0953077 0
M  V30 45814 C 4358.14 4.19643 -0.90544 0
M  V30 45815 C 4357.38 5.33019 -0.269439 0
M  V30 45816 O 4357.6 5.627 0.934045 0
M  V30 45817 O 4356.53 5.93872 -0.979767 0
M  V30 45818 H 4360.36 2.66594 -1.4547 0
M  V30 45819 H 4357.95 1.27872 -0.772608 0
M  V30 45820 H 4359.83 4.18784 0.46886 0
M  V30 45821 H 4358.5 3.09386 0.951939 0
M  V30 45822 H 4357.41 3.49655 -1.33013 0
M  V30 45823 H 4358.74 4.60734 -1.73162 0
M  V30 45824 N 4360.39 0.778378 1.37037 0
M  V30 45825 C 4361.64 0.346225 1.99823 0
M  V30 45826 C 4361.97 -1.07631 1.61645 0
M  V30 45827 O 4361.25 -1.74165 0.865847 0
M  V30 45828 C 4361.53 0.49737 3.56649 0
M  V30 45829 C 4361.38 1.9628 4.04715 0
M  V30 45830 C 4362.7 -0.0943374 4.39999 0
M  V30 45831 H 4359.82 0.127275 0.725927 0
M  V30 45832 H 4362.46 0.982658 1.62616 0
M  V30 45833 H 4360.61 -0.0444321 3.88475 0
M  V30 45834 H 4362.29 2.56482 3.83425 0
M  V30 45835 H 4360.53 2.4693 3.56662 0
M  V30 45836 H 4361.2 2.01958 5.13729 0
M  V30 45837 H 4363.68 0.368029 4.14469 0
M  V30 45838 H 4362.55 0.0415124 5.48884 0
M  V30 45839 H 4362.81 -1.18534 4.25913 0
M  V30 45840 N 4361.87 -1.4844 0.529465 0
M  V30 45841 C 4363.12 -2.02799 -0.00482819 0
M  V30 45842 C 4363.45 -1.40578 -1.33983 0
M  V30 45843 O 4362.73 -0.551358 -1.86522 0
M  V30 45844 C 4363.01 -3.59875 -0.12738 0
M  V30 45845 C 4362.86 -4.32577 1.23275 0
M  V30 45846 C 4364.18 -4.31727 -0.85441 0
M  V30 45847 H 4361.3 -0.737 -0.000280625 0
M  V30 45848 H 4363.94 -1.77168 0.686395 0
M  V30 45849 H 4362.09 -3.81843 -0.716086 0
M  V30 45850 H 4363.77 -4.22028 1.86253 0
M  V30 45851 H 4362.01 -3.94016 1.81477 0
M  V30 45852 H 4362.68 -5.40929 1.1 0
M  V30 45853 H 4365.16 -4.14584 -0.354838 0
M  V30 45854 H 4364.03 -5.4132 -0.909056 0
M  V30 45855 H 4364.29 -3.98972 -1.90457 0
M  V30 45856 N 4363.35 -0.264574 -1.55363 0
M  V30 45857 C 4364.6 0.35521 -1.9936 0
M  V30 45858 C 4364.93 1.56647 -1.1529 0
M  V30 45859 O 4364.18 1.94592 -0.207972 0
M  V30 45860 C 4364.48 0.791544 -3.48525 0
M  V30 45861 C 4364.15 -0.313913 -4.49806 0
M  V30 45862 C 4362.81 -0.61748 -4.77222 0
M  V30 45863 C 4365.16 -1.05934 -5.10321 0
M  V30 45864 C 4362.49 -1.67023 -5.62423 0
M  V30 45865 C 4364.84 -2.10174 -5.96665 0
M  V30 45866 C 4363.5 -2.41176 -6.22407 0
M  V30 45867 H 4362.77 0.12998 -0.729511 0
M  V30 45868 H 4365.42 -0.376088 -1.87771 0
M  V30 45869 H 4363.73 1.60234 -3.57536 0
M  V30 45870 H 4365.42 1.28166 -3.79966 0
M  V30 45871 H 4362.01 -0.0671827 -4.28547 0
M  V30 45872 H 4366.2 -0.838065 -4.89173 0
M  V30 45873 H 4361.45 -1.91557 -5.80617 0
M  V30 45874 H 4365.63 -2.68415 -6.42594 0
M  V30 45875 H 4363.25 -3.22888 -6.8822 0
M  V30 45876 N 4364.83 1.57598 0.00830251 0
M  V30 45877 C 4365.74 2.1132 1.01888 0
M  V30 45878 C 4366.76 1.05652 1.38252 0
M  V30 45879 O 4367.93 1.37507 1.47152 0
M  V30 45880 C 4365 2.59903 2.29459 0
M  V30 45881 C 4364.06 3.80137 1.99485 0
M  V30 45882 C 4363.29 4.26394 3.20974 0
M  V30 45883 O 4363.51 3.72034 4.32373 0
M  V30 45884 O 4362.45 5.18632 3.05458 0
M  V30 45885 H 4366.27 2.97869 0.592247 0
M  V30 45886 H 4363.86 1.47671 0.226611 0
M  V30 45887 H 4365.74 2.91387 3.0442 0
M  V30 45888 H 4364.42 1.76454 2.71377 0
M  V30 45889 H 4363.32 3.53639 1.22027 0
M  V30 45890 H 4364.66 4.64633 1.6241 0
M  V30 45891 N 4366.31 -0.280928 1.55076 0
M  V30 45892 C 4367.53 -1.0363 1.79654 0
M  V30 45893 C 4367.96 -1.79442 0.564106 0
M  V30 45894 O 4367.32 -1.74663 -0.486057 0
M  V30 45895 C 4367.36 -1.97681 3.01587 0
M  V30 45896 O 4366.47 -3.06322 2.76117 0
M  V30 45897 H 4365.81 -0.296691 0.594029 0
M  V30 45898 H 4368.34 -0.312246 2.02203 0
M  V30 45899 H 4368.35 -2.39781 3.30105 0
M  V30 45900 H 4367.02 -1.41912 3.9094 0
M  V30 45901 H 4365.6 -2.68594 2.58673 0
M  V30 45902 N 4367.79 -1.47874 -0.545076 0
M  V30 45903 C 4369.01 -1.58757 -1.32679 0
M  V30 45904 C 4369.43 -0.242205 -1.8724 0
M  V30 45905 O 4368.79 0.766357 -1.6563 0
M  V30 45906 C 4368.84 -2.62238 -2.48824 0
M  V30 45907 O 4368.56 -3.91553 -1.96515 0
M  V30 45908 C 4370.06 -2.8342 -3.40864 0
M  V30 45909 H 4367.28 -0.535729 -0.404023 0
M  V30 45910 H 4369.82 -1.93588 -0.659098 0
M  V30 45911 H 4367.98 -2.30308 -3.11507 0
M  V30 45912 H 4368.39 -4.482 -2.72428 0
M  V30 45913 H 4369.87 -3.59662 -4.18745 0
M  V30 45914 H 4370.34 -1.91686 -3.95162 0
M  V30 45915 H 4370.95 -3.16595 -2.83986 0
M  V30 45916 N 4369.26 0.792773 -1.36209 0
M  V30 45917 C 4370.19 1.91962 -1.3294 0
M  V30 45918 C 4371.17 1.68903 -0.20143 0
M  V30 45919 O 4372.36 1.90066 -0.398554 0
M  V30 45920 C 4369.49 3.2893 -1.11454 0
M  V30 45921 C 4368.44 3.66504 -2.2104 0
M  V30 45922 C 4367.77 5.01786 -1.84702 0
M  V30 45923 C 4369.07 3.75438 -3.63103 0
M  V30 45924 H 4370.76 1.94954 -2.27229 0
M  V30 45925 H 4368.31 0.936563 -1.09382 0
M  V30 45926 H 4370.26 4.07378 -1.07803 0
M  V30 45927 H 4368.99 3.26316 -0.136144 0
M  V30 45928 H 4367.65 2.90352 -2.23811 0
M  V30 45929 H 4367.29 4.9569 -0.854443 0
M  V30 45930 H 4366.99 5.27896 -2.58068 0
M  V30 45931 H 4368.52 5.82657 -1.826 0
M  V30 45932 H 4369.93 4.44084 -3.62577 0
M  V30 45933 H 4368.33 4.1303 -4.35346 0
M  V30 45934 H 4369.4 2.76629 -3.98251 0
M  V30 45935 N 4370.74 1.20433 1.01654 0
M  V30 45936 C 4372.16 0.959198 1.2756 0
M  V30 45937 C 4372.36 -0.361233 1.98236 0
M  V30 45938 O 4371.41 -1.08975 2.27774 0
M  V30 45939 C 4372.73 2.14185 2.11057 0
M  V30 45940 C 4374.27 2.18284 2.24324 0
M  V30 45941 C 4374.75 3.36035 3.11198 0
M  V30 45942 N 4376.24 3.36049 3.18787 0
M  V30 45943 C 4376.98 4.23808 3.86231 0
M  V30 45944 N 4376.47 5.21744 4.55801 0
M  V30 45945 N 4378.26 4.11649 3.82755 0
M  V30 45946 H 4370.42 2.05368 0.542021 0
M  V30 45947 H 4372.68 0.898662 0.301845 0
M  V30 45948 H 4372.38 3.09811 1.66463 0
M  V30 45949 H 4372.26 2.12283 3.11794 0
M  V30 45950 H 4374.65 1.23221 2.68143 0
M  V30 45951 H 4374.73 2.24235 1.23095 0
M  V30 45952 H 4374.37 4.31385 2.68084 0
M  V30 45953 H 4374.3 3.27322 4.12514 0
M  V30 45954 H 4376.79 2.65165 2.69251 0
M  V30 45955 H 4377.1 5.85032 5.04933 0
M  V30 45956 H 4375.45 5.25681 4.54626 0
M  V30 45957 H 4378.64 3.34406 3.27551 0
M  V30 45958 H 4378.81 4.80253 4.35042 0
M  V30 45959 N 4372.22 -1.20963 1.01023 0
M  V30 45960 C 4373.47 -1.89485 0.691265 0
M  V30 45961 C 4373.78 -1.79296 -0.781814 0
M  V30 45962 O 4374.99 -2.42893 -1.21307 0
M  V30 45963 C 4373.44 -3.39797 1.18599 0
M  V30 45964 C 4373.05 -3.58586 2.68552 0
M  V30 45965 C 4374.8 -4.13913 0.942161 0
M  V30 45966 C 4372.7 -5.0269 3.11539 0
M  V30 45967 H 4371.63 -0.709619 0.254865 0
M  V30 45968 H 4374.28 -1.36885 1.22208 0
M  V30 45969 H 4372.67 -3.91682 0.583198 0
M  V30 45970 H 4373.84 -3.17116 3.34326 0
M  V30 45971 H 4372.15 -2.97831 2.91008 0
M  V30 45972 H 4374.75 -5.20151 1.23882 0
M  V30 45973 H 4375.09 -4.16123 -0.121501 0
M  V30 45974 H 4375.63 -3.68109 1.50801 0
M  V30 45975 H 4372.37 -5.05631 4.17154 0
M  V30 45976 H 4371.89 -5.44995 2.50481 0
M  V30 45977 H 4373.57 -5.71231 3.03815 0
M  V30 45978 N 4373.7 -0.785634 -1.36622 0
M  V30 45979 C 4374.93 -0.368104 -2.03599 0
M  V30 45980 C 4375.34 1.01427 -1.59242 0
M  V30 45981 O 4374.7 1.64988 -0.780084 0
M  V30 45982 C 4374.75 -0.41792 -3.59076 0
M  V30 45983 O 4374.47 -1.74577 -4.01814 0
M  V30 45984 C 4375.97 0.00945924 -4.43299 0
M  V30 45985 H 4373.19 -0.152232 -0.653503 0
M  V30 45986 H 4375.73 -1.06343 -1.74675 0
M  V30 45987 H 4373.89 0.228951 -3.86723 0
M  V30 45988 H 4374.3 -1.69398 -4.96392 0
M  V30 45989 H 4375.78 -0.0765388 -5.51947 0
M  V30 45990 H 4376.25 1.06162 -4.26176 0
M  V30 45991 H 4376.86 -0.609754 -4.20906 0
M  V30 45992 N 4375.18 1.48157 -0.53733 0
M  V30 45993 C 4376.59 1.58396 -0.195691 0
M  V30 45994 C 4376.79 1.53846 1.3013 0
M  V30 45995 O 4375.85 1.43138 2.08009 0
M  V30 45996 C 4377.16 2.89732 -0.804735 0
M  V30 45997 C 4378.71 3.03276 -0.774139 0
M  V30 45998 C 4379.18 4.37283 -1.36189 0
M  V30 45999 N 4380.67 4.43869 -1.32419 0
M  V30 46000 C 4381.41 5.46082 -1.74878 0
M  V30 46001 N 4380.91 6.55211 -2.25102 0
M  V30 46002 N 4382.7 5.37008 -1.6607 0
M  V30 46003 H 4374.85 1.49357 -1.51017 0
M  V30 46004 H 4377.11 0.709626 -0.628597 0
M  V30 46005 H 4376.82 2.98739 -1.85602 0
M  V30 46006 H 4376.69 3.76113 -0.286105 0
M  V30 46007 H 4379.08 2.93877 0.268398 0
M  V30 46008 H 4379.16 2.18486 -1.33032 0
M  V30 46009 H 4378.8 4.47436 -2.4034 0
M  V30 46010 H 4378.73 5.20771 -0.78133 0
M  V30 46011 H 4381.23 3.65592 -0.956608 0
M  V30 46012 H 4381.54 7.2935 -2.55475 0
M  V30 46013 H 4379.88 6.56154 -2.291 0
M  V30 46014 H 4383.07 4.50648 -1.26626 0
M  V30 46015 H 4383.25 6.16532 -1.99481 0
M  V30 46016 N 4376.65 0.272809 1.55221 0
M  V30 46017 C 4377.88 -0.348042 2.03952 0
M  V30 46018 C 4378.3 -1.49638 1.15125 0
M  V30 46019 O 4377.65 -1.81698 0.170889 0
M  V30 46020 C 4377.71 -0.831251 3.51813 0
M  V30 46021 O 4377.43 0.271355 4.37259 0
M  V30 46022 C 4378.93 -1.52015 4.16421 0
M  V30 46023 H 4376.15 -0.0796748 0.666253 0
M  V30 46024 H 4378.69 0.404232 2.00465 0
M  V30 46025 H 4376.85 -1.53362 3.55751 0
M  V30 46026 H 4377.26 -0.09976 5.24405 0
M  V30 46027 H 4378.73 -1.8097 5.21492 0
M  V30 46028 H 4379.21 -2.45091 3.64455 0
M  V30 46029 H 4379.82 -0.861695 4.16479 0
M  V30 46030 N 4378.13 -1.576 5.54043e-05 0
M  V30 46031 C 4379.06 -2.11461 -0.990267 0
M  V30 46032 C 4380.04 -1.02377 -1.35842 0
M  V30 46033 O 4381.23 -1.3006 -1.44216 0
M  V30 46034 C 4378.36 -2.61796 -2.28211 0
M  V30 46035 C 4377.31 -3.75407 -2.05556 0
M  V30 46036 C 4376.64 -4.12057 -3.40754 0
M  V30 46037 C 4377.94 -5.0268 -1.41811 0
M  V30 46038 H 4379.63 -2.94457 -0.541801 0
M  V30 46039 H 4377.18 -1.41649 -0.259169 0
M  V30 46040 H 4379.13 -2.98104 -2.97846 0
M  V30 46041 H 4377.86 -1.75922 -2.75171 0
M  V30 46042 H 4376.51 -3.39493 -1.38347 0
M  V30 46043 H 4376.16 -3.23206 -3.85417 0
M  V30 46044 H 4375.86 -4.88599 -3.26412 0
M  V30 46045 H 4377.39 -4.50923 -4.11704 0
M  V30 46046 H 4378.8 -5.36758 -2.01403 0
M  V30 46047 H 4377.2 -5.84027 -1.37957 0
M  V30 46048 H 4378.27 -4.83351 -0.387336 0
M  V30 46049 N 4379.61 0.2727 -1.55223 0
M  V30 46050 C 4380.84 1.02676 -1.80201 0
M  V30 46051 C 4381.26 1.7914 -0.573614 0
M  V30 46052 O 4380.62 1.74918 0.476787 0
M  V30 46053 C 4380.67 1.96079 -3.02631 0
M  V30 46054 O 4379.77 3.04854 -2.77737 0
M  V30 46055 H 4379.11 0.293537 -0.595594 0
M  V30 46056 H 4381.64 0.301519 -2.02366 0
M  V30 46057 H 4381.65 2.38027 -3.31372 0
M  V30 46058 H 4380.33 1.39837 -3.91687 0
M  V30 46059 H 4378.9 2.67218 -2.60094 0
M  V30 46060 N 4381.09 1.48161 0.537226 0
M  V30 46061 C 4382.32 1.59459 1.31835 0
M  V30 46062 C 4382.73 0.252131 1.87109 0
M  V30 46063 O 4382.09 -0.757563 1.66034 0
M  V30 46064 C 4382.14 2.63554 2.4743 0
M  V30 46065 O 4381.86 3.92589 1.94436 0
M  V30 46066 C 4383.36 2.85224 3.39356 0
M  V30 46067 H 4380.58 0.537865 0.401177 0
M  V30 46068 H 4383.13 1.93934 0.648823 0
M  V30 46069 H 4381.28 2.31957 3.10282 0
M  V30 46070 H 4381.69 4.49638 2.70048 0
M  V30 46071 H 4383.17 3.61878 4.16832 0
M  V30 46072 H 4383.65 1.93778 3.9414 0
M  V30 46073 H 4384.25 3.18096 2.82303 0
M  V30 46074 N 4382.57 -0.785538 1.36627 0
M  V30 46075 C 4383.5 -1.90706 1.27137 0
M  V30 46076 C 4384.51 -1.61687 0.190042 0
M  V30 46077 O 4385.7 -1.72862 0.445075 0
M  V30 46078 C 4382.8 -3.25608 0.939827 0
M  V30 46079 C 4381.97 -3.82377 2.12383 0
M  V30 46080 C 4381.03 -4.95725 1.76473 0
M  V30 46081 O 4380.06 -5.12038 2.48607 0
M  V30 46082 N 4381.26 -5.76256 0.700695 0
M  V30 46083 H 4384.03 -1.99368 2.23769 0
M  V30 46084 H 4381.59 -0.963995 1.30072 0
M  V30 46085 H 4383.58 -3.98934 0.680694 0
M  V30 46086 H 4382.15 -3.12537 0.0625173 0
M  V30 46087 H 4381.37 -3.00992 2.54553 0
M  V30 46088 H 4382.66 -4.17037 2.91475 0
M  V30 46089 H 4382.05 -5.65608 0.101823 0
M  V30 46090 H 4380.61 -6.49869 0.501393 0
M  V30 46091 N 4384.04 -1.20971 -1.01014 0
M  V30 46092 C 4385.27 -1.0481 -1.78041 0
M  V30 46093 C 4385.68 0.405397 -1.84806 0
M  V30 46094 O 4385.03 1.29316 -1.30473 0
M  V30 46095 C 4385.09 -1.56388 -3.23702 0
M  V30 46096 C 4384.75 -3.04779 -3.40527 0
M  V30 46097 C 4385.75 -4.02377 -3.29224 0
M  V30 46098 C 4383.43 -3.43875 -3.66135 0
M  V30 46099 C 4385.43 -5.37061 -3.43285 0
M  V30 46100 C 4383.11 -4.78713 -3.79839 0
M  V30 46101 C 4384.11 -5.75114 -3.68419 0
M  V30 46102 O 4383.8 -7.07506 -3.81694 0
M  V30 46103 H 4383.53 -0.368798 -0.566537 0
M  V30 46104 H 4386.09 -1.60647 -1.27991 0
M  V30 46105 H 4384.32 -0.949429 -3.74864 0
M  V30 46106 H 4386.01 -1.36149 -3.82385 0
M  V30 46107 H 4386.77 -3.73517 -3.09371 0
M  V30 46108 H 4382.65 -2.69377 -3.74108 0
M  V30 46109 H 4386.19 -6.12289 -3.34288 0
M  V30 46110 H 4382.09 -5.07261 -3.99195 0
M  V30 46111 H 4382.86 -7.14844 -3.98672 0
M  V30 46112 N 4385.52 1.20426 -1.01663 0
M  V30 46113 C 4386.76 1.91504 -0.714523 0
M  V30 46114 C 4387.13 1.77076 0.742174 0
M  V30 46115 O 4388.33 2.42635 1.1568 0
M  V30 46116 C 4386.6 3.38791 -1.13821 0
M  V30 46117 S 4388.16 4.28213 -0.958076 0
M  V30 46118 H 4384.98 0.661561 -0.260495 0
M  V30 46119 H 4387.58 1.45667 -1.30389 0
M  V30 46120 H 4386.28 3.46814 -2.19427 0
M  V30 46121 H 4385.81 3.89654 -0.541611 0
M  V30 46122 H 4387.83 4.96007 0.138357 0
M  V30 46123 N 4387 0.792868 1.36203 0
M  V30 46124 C 4388.42 0.474957 1.52369 0
M  V30 46125 C 4388.62 -1.00616 1.74581 0
M  V30 46126 O 4387.67 -1.79156 1.77931 0
M  V30 46127 C 4388.99 1.3084 2.70742 0
M  V30 46128 C 4390.53 1.30244 2.84615 0
M  V30 46129 C 4391.01 2.1197 4.05996 0
M  V30 46130 N 4392.5 2.09434 4.13149 0
M  V30 46131 C 4393.23 2.69437 5.06154 0
M  V30 46132 N 4392.73 3.38312 6.0458 0
M  V30 46133 N 4394.52 2.59152 4.98795 0
M  V30 46134 H 4386.67 1.75226 1.2004 0
M  V30 46135 H 4388.94 0.745044 0.586185 0
M  V30 46136 H 4388.64 2.3589 2.60862 0
M  V30 46137 H 4388.52 0.952088 3.64986 0
M  V30 46138 H 4390.9 0.259851 2.93954 0
M  V30 46139 H 4390.99 1.69854 1.91268 0
M  V30 46140 H 4390.63 3.16262 3.97418 0
M  V30 46141 H 4390.56 1.69729 4.98497 0
M  V30 46142 H 4393.05 1.59309 3.42679 0
M  V30 46143 H 4393.36 3.81417 6.72117 0
M  V30 46144 H 4391.71 3.42414 6.04795 0
M  V30 46145 H 4394.9 2.04942 4.20852 0
M  V30 46146 H 4395.07 3.06205 5.71089 0
M  V30 46147 N 4388.48 -1.4787 0.54518 0
M  V30 46148 C 4389.73 -2.02493 0.016657 0
M  V30 46149 C 4390.05 -1.42078 -1.32831 0
M  V30 46150 O 4389.31 -0.561525 -1.87471 0
M  V30 46151 C 4389.61 -3.57131 -0.138544 0
M  V30 46152 C 4389.27 -4.36407 1.134 0
M  V30 46153 C 4387.94 -4.57787 1.48272 0
M  V30 46154 C 4390.29 -4.82216 1.97781 0
M  V30 46155 C 4387.62 -5.22223 2.67394 0
M  V30 46156 C 4389.97 -5.47966 3.16096 0
M  V30 46157 C 4388.63 -5.67581 3.51295 0
M  V30 46158 H 4387.9 -0.740975 0.00609523 0
M  V30 46159 H 4390.55 -1.77681 0.714269 0
M  V30 46160 H 4388.85 -3.80869 -0.919038 0
M  V30 46161 H 4390.55 -3.97033 -0.562642 0
M  V30 46162 H 4387.14 -4.20037 0.852445 0
M  V30 46163 H 4391.32 -4.65487 1.72149 0
M  V30 46164 H 4386.58 -5.35606 2.9485 0
M  V30 46165 H 4390.75 -5.82426 3.81775 0
M  V30 46166 H 4388.38 -6.17282 4.43696 0
M  V30 46167 N 4389.96 -0.281037 -1.55074 0
M  V30 46168 C 4391.2 0.333385 -1.99331 0
M  V30 46169 C 4391.53 1.55932 -1.1709 0
M  V30 46170 O 4390.8 1.94142 -0.261873 0
M  V30 46171 H 4389.38 0.126172 -0.736267 0
M  V30 46172 H 4392.04 -0.387745 -1.91004 0
M  V30 46173 H 4391.13 0.619184 -3.05896 0
M  V30 46174 N 4391.44 1.57598 -0.00841331 0
M  V30 46175 C 4392.66 1.9562 0.689035 0
M  V30 46176 C 4393.09 0.883811 1.66043 0
M  V30 46177 O 4392.44 -0.157289 1.80616 0
M  V30 46178 C 4392.49 3.32741 1.38982 0
M  V30 46179 O 4391.6 3.2764 2.50452 0
M  V30 46180 H 4390.94 0.638386 0.182646 0
M  V30 46181 H 4393.47 2.045 -0.0641079 0
M  V30 46182 H 4393.48 3.685 1.75134 0
M  V30 46183 H 4392.15 4.10342 0.677634 0
M  V30 46184 H 4390.73 3.03569 2.16565 0
M  V30 46185 N 4392.91 -0.264465 1.55365 0
M  V30 46186 C 4394.15 -1.00248 1.78128 0
M  V30 46187 C 4394.52 -1.83185 0.575081 0
M  V30 46188 O 4395.72 -2.60027 0.681133 0
M  V30 46189 C 4393.99 -1.85468 3.0551 0
M  V30 46190 S 4395.55 -2.65418 3.49426 0
M  V30 46191 H 4392.37 -0.3375 0.625791 0
M  V30 46192 H 4394.97 -0.272043 1.93598 0
M  V30 46193 H 4393.67 -1.23477 3.91384 0
M  V30 46194 H 4393.2 -2.62817 2.9273 0
M  V30 46195 H 4395.22 -3.87947 3.09373 0
M  V30 46196 N 4394.39 -1.48444 -0.529361 0
M  V30 46197 C 4395.3 -1.65696 -1.66078 0
M  V30 46198 C 4396.32 -0.53949 -1.65425 0
M  V30 46199 O 4397.49 -0.810637 -1.84365 0
M  V30 46200 C 4394.56 -1.69326 -3.02539 0
M  V30 46201 C 4393.62 -2.92705 -3.14042 0
M  V30 46202 C 4392.85 -2.96152 -4.43993 0
M  V30 46203 O 4393.08 -2.07991 -5.31127 0
M  V30 46204 O 4392.01 -3.88329 -4.59874 0
M  V30 46205 H 4395.84 -2.61488 -1.54459 0
M  V30 46206 H 4393.42 -1.31852 -0.70252 0
M  V30 46207 H 4395.3 -1.74231 -3.83695 0
M  V30 46208 H 4393.98 -0.767077 -3.1448 0
M  V30 46209 H 4392.88 -2.93332 -2.32179 0
M  V30 46210 H 4394.22 -3.8471 -3.07017 0
M  V30 46211 N 4395.87 0.778281 -1.37042 0
M  V30 46212 C 4397.1 1.56502 -1.34873 0
M  V30 46213 C 4397.51 1.89073 0.0694138 0
M  V30 46214 O 4396.85 1.51438 1.03982 0
M  V30 46215 C 4396.91 2.90633 -2.11595 0
M  V30 46216 C 4396.58 2.80733 -3.60608 0
M  V30 46217 C 4397.57 2.5221 -4.54627 0
M  V30 46218 C 4395.26 2.9896 -4.03644 0
M  V30 46219 C 4397.25 2.42033 -5.8966 0
M  V30 46220 C 4394.94 2.88404 -5.38764 0
M  V30 46221 C 4395.94 2.5998 -6.31585 0
M  V30 46222 O 4395.63 2.49438 -7.64222 0
M  V30 46223 H 4395.36 0.491707 -0.463897 0
M  V30 46224 H 4397.91 0.972989 -1.80892 0
M  V30 46225 H 4396.14 3.5193 -1.60256 0
M  V30 46226 H 4397.83 3.51985 -2.02143 0
M  V30 46227 H 4398.6 2.3782 -4.2269 0
M  V30 46228 H 4394.48 3.20087 -3.3176 0
M  V30 46229 H 4398.02 2.19768 -6.62078 0
M  V30 46230 H 4393.92 3.0236 -5.70306 0
M  V30 46231 H 4394.68 2.64836 -7.7447 0
M  V30 46232 N 4397.35 1.21505 1.00371 0
M  V30 46233 C 4398.31 0.977 2.07334 0
M  V30 46234 C 4399.31 -0.0524757 1.60714 0
M  V30 46235 O 4400.5 0.18493 1.73216 0
M  V30 46236 C 4397.63 0.473542 3.37595 0
M  V30 46237 H 4398.83 1.92595 2.29885 0
M  V30 46238 H 4396.38 1.03222 1.17367 0
M  V30 46239 H 4397.11 -0.480266 3.20724 0
M  V30 46240 H 4396.9 1.21613 3.72763 0
M  V30 46241 H 4398.39 0.326897 4.16319 0
M  V30 46242 N 4398.83 -1.19885 1.023 0
M  V30 46243 C 4399.76 -2.22332 0.556865 0
M  V30 46244 C 4400.77 -1.58675 -0.364143 0
M  V30 46245 O 4401.96 -1.77768 -0.161471 0
M  V30 46246 C 4399.06 -3.38258 -0.208575 0
M  V30 46247 C 4398.23 -4.31501 0.715922 0
M  V30 46248 C 4397.29 -5.262 -0.00307099 0
M  V30 46249 O 4396.32 -5.65796 0.621556 0
M  V30 46250 N 4397.52 -5.66307 -1.27579 0
M  V30 46251 H 4400.28 -2.62952 1.43793 0
M  V30 46252 H 4397.85 -1.34492 0.901309 0
M  V30 46253 H 4399.84 -3.98618 -0.69897 0
M  V30 46254 H 4398.41 -2.96476 -0.990998 0
M  V30 46255 H 4397.63 -3.69012 1.38651 0
M  V30 46256 H 4398.92 -4.90716 1.34446 0
M  V30 46257 H 4398.31 -5.36161 -1.8041 0
M  V30 46258 H 4396.87 -6.28948 -1.7108 0
M  V30 46259 N 4400.3 -0.80008 -1.35781 0
M  V30 46260 C 4401.21 -0.207286 -2.33682 0
M  V30 46261 C 4402.23 0.646254 -1.61554 0
M  V30 46262 O 4403.41 0.559536 -1.93471 0
M  V30 46263 C 4400.47 0.639539 -3.4075 0
M  V30 46264 C 4399.53 -0.233736 -4.28663 0
M  V30 46265 C 4398.76 0.572768 -5.30618 0
M  V30 46266 O 4398.99 1.80797 -5.40989 0
M  V30 46267 O 4397.92 -0.0329401 -6.01891 0
M  V30 46268 H 4401.75 -1.01702 -2.86165 0
M  V30 46269 H 4399.33 -0.56174 -1.38437 0
M  V30 46270 H 4401.21 1.12209 -4.06186 0
M  V30 46271 H 4399.89 1.42698 -2.90549 0
M  V30 46272 H 4398.8 -0.763276 -3.66231 0
M  V30 46273 H 4400.13 -0.984954 -4.82244 0
M  V30 46274 N 4401.78 1.47579 -0.553014 0
M  V30 46275 C 4403.03 2.02082 -0.0273414 0
M  V30 46276 C 4403.35 1.43015 1.32558 0
M  V30 46277 O 4402.62 0.60381 1.86362 0
M  V30 46278 H 4401.2 0.746966 -0.00711808 0
M  V30 46279 H 4403.86 1.81031 -0.722071 0
M  V30 46280 H 4402.96 3.12035 0.0638854 0
M  V30 46281 N 4403.26 0.289257 1.54923 0
M  V30 46282 C 4404.51 -0.323927 2.00196 0
M  V30 46283 C 4404.84 -1.54437 1.17741 0
M  V30 46284 O 4404.11 -1.92874 0.250946 0
M  V30 46285 C 4404.4 -0.692152 3.53385 0
M  V30 46286 C 4404.25 0.536614 4.46588 0
M  V30 46287 C 4405.57 -1.5232 4.129 0
M  V30 46288 H 4402.69 -0.116264 0.727772 0
M  V30 46289 H 4405.33 0.399019 1.85763 0
M  V30 46290 H 4403.48 -1.3081 3.65816 0
M  V30 46291 H 4405.15 1.17514 4.46081 0
M  V30 46292 H 4403.39 1.17206 4.17666 0
M  V30 46293 H 4404.07 0.235 5.515 0
M  V30 46294 H 4406.54 -1.00288 4.03834 0
M  V30 46295 H 4405.42 -1.74964 5.20268 0
M  V30 46296 H 4405.68 -2.50873 3.64026 0
M  V30 46297 N 4404.74 -1.57591 0.016771 0
M  V30 46298 C 4405.98 -1.93148 -0.668834 0
M  V30 46299 C 4406.34 -0.892466 -1.69997 0
M  V30 46300 O 4407.54 -1.13382 -2.43717 0
M  V30 46301 C 4405.81 -3.33682 -1.28027 0
M  V30 46302 S 4407.37 -3.91149 -1.98867 0
M  V30 46303 H 4404.19 -0.675937 -0.220522 0
M  V30 46304 H 4406.79 -1.95346 0.0774792 0
M  V30 46305 H 4405.5 -4.07128 -0.517196 0
M  V30 46306 H 4405.03 -3.34897 -2.06416 0
M  V30 46307 H 4407.04 -3.73583 -3.26574 0
M  V30 46308 N 4406.22 0.256222 -1.55503 0
M  V30 46309 C 4407.47 0.983425 -1.76101 0
M  V30 46310 C 4407.78 1.86835 -0.578961 0
M  V30 46311 O 4408.98 2.63161 -0.66774 0
M  V30 46312 C 4407.44 1.79857 -3.11736 0
M  V30 46313 C 4407.05 0.961494 -4.37561 0
M  V30 46314 C 4408.79 2.51907 -3.41677 0
M  V30 46315 C 4406.7 1.772 -5.64229 0
M  V30 46316 H 4405.63 0.370913 -0.65646 0
M  V30 46317 H 4408.28 0.238428 -1.81944 0
M  V30 46318 H 4406.66 2.58517 -2.99975 0
M  V30 46319 H 4407.84 0.217886 -4.60285 0
M  V30 46320 H 4406.15 0.354767 -4.14886 0
M  V30 46321 H 4408.75 3.12982 -4.33527 0
M  V30 46322 H 4409.09 3.2305 -2.62573 0
M  V30 46323 H 4409.62 1.80265 -3.54611 0
M  V30 46324 H 4406.36 1.10448 -6.46128 0
M  V30 46325 H 4405.88 2.49113 -5.45621 0
M  V30 46326 H 4407.56 2.34147 -6.03145 0
M  V30 46327 N 4407.69 1.48722 0.521481 0
M  V30 46328 C 4408.92 1.60848 1.30137 0
M  V30 46329 C 4409.34 0.271962 1.86831 0
M  V30 46330 O 4408.69 -0.73991 1.66828 0
M  V30 46331 C 4408.75 2.66164 2.4462 0
M  V30 46332 O 4408.47 3.9463 1.90261 0
M  V30 46333 C 4409.97 2.88807 3.36312 0
M  V30 46334 H 4407.19 0.542089 0.395449 0
M  V30 46335 H 4409.73 1.94612 0.628217 0
M  V30 46336 H 4407.89 2.35235 3.07804 0
M  V30 46337 H 4408.3 4.52477 2.65263 0
M  V30 46338 H 4409.77 3.66278 4.1297 0
M  V30 46339 H 4410.25 1.97948 3.92063 0
M  V30 46340 H 4410.86 3.21073 2.78913 0
M  V30 46341 N 4409.17 -0.771003 1.37453 0
M  V30 46342 C 4410.4 -1.56011 1.35898 0
M  V30 46343 C 4410.82 -1.88718 -0.055486 0
M  V30 46344 O 4410.17 -1.51505 -1.01747 0
M  V30 46345 C 4410.22 -2.86993 2.19811 0
M  V30 46346 O 4409.94 -2.55687 3.55746 0
M  V30 46347 C 4411.45 -3.8122 2.26244 0
M  V30 46348 H 4408.67 -0.4833 0.46547 0
M  V30 46349 H 4411.21 -0.955547 1.80803 0
M  V30 46350 H 4409.36 -3.43871 1.78414 0
M  V30 46351 H 4409.78 -3.3957 3.99741 0
M  V30 46352 H 4411.25 -4.70129 2.89279 0
M  V30 46353 H 4411.73 -4.20405 1.27107 0
M  V30 46354 H 4412.34 -3.30271 2.67957 0
M  V30 46355 N 4410.65 -1.22035 -0.997255 0
M  V30 46356 C 4411.6 -0.983708 -2.10775 0
M  V30 46357 C 4412.59 0.0716969 -1.69248 0
M  V30 46358 O 4413.8 -0.0803673 -1.7982 0
M  V30 46359 H 4410.17 -0.300901 -0.689175 0
M  V30 46360 H 4412.14 -1.92614 -2.27909 0
M  V30 46361 C 4410.89 -0.57338 -3.4294 0
M  V30 46362 H 4410.22 -1.37715 -3.75333 0
M  V30 46363 H 4411.66 -0.447179 -4.21635 0
M  V30 46364 C 4410.12 0.716584 -3.29191 0
M  V30 46365 O 4410.65 1.77014 -3.60595 0
M  V30 46366 N 4408.85 0.686068 -2.82385 0
M  V30 46367 H 4408.4 -0.171598 -2.57028 0
M  V30 46368 H 4408.36 1.54945 -2.73568 0
M  V30 46369 N 4412.13 1.19341 -1.02934 0
M  V30 46370 C 4413.38 1.88662 -0.72464 0
M  V30 46371 C 4413.7 1.80038 0.749081 0
M  V30 46372 O 4412.97 1.21115 1.53974 0
M  V30 46373 H 4411.55 0.698397 -0.265049 0
M  V30 46374 H 4414.21 1.4488 -1.30367 0
M  V30 46375 H 4413.31 2.94984 -1.01936 0
M  V30 46376 N 4413.61 0.80727 1.35355 0
M  V30 46377 C 4414.83 0.399381 2.03518 0
M  V30 46378 C 4415.26 -0.98193 1.60436 0
M  V30 46379 O 4414.61 -1.63599 0.781357 0
M  V30 46380 C 4414.66 0.491678 3.57232 0
M  V30 46381 O 4413.77 -0.49461 4.09423 0
M  V30 46382 H 4413.11 0.166704 0.642733 0
M  V30 46383 H 4415.64 1.09334 1.72937 0
M  V30 46384 H 4415.65 0.36173 4.06393 0
M  V30 46385 H 4414.32 1.49921 3.87939 0
M  V30 46386 H 4412.9 -0.324846 3.71482 0
M  V30 46387 N 4415.08 -1.47283 0.560833 0
M  V30 46388 C 4416.33 -2.03347 0.0464369 0
M  V30 46389 C 4416.69 -1.42707 -1.29045 0
M  V30 46390 O 4415.98 -0.574683 -1.82778 0
M  V30 46391 C 4416.17 -3.57258 -0.100658 0
M  V30 46392 C 4416 -4.32823 1.22042 0
M  V30 46393 C 4414.77 -4.72582 1.7887 0
M  V30 46394 C 4416.97 -4.67731 2.13851 0
M  V30 46395 N 4414.95 -5.32805 3.04945 0
M  V30 46396 C 4416.32 -5.28295 3.24506 0
M  V30 46397 C 4418.38 -4.4966 2.138 0
M  V30 46398 C 4417.08 -5.72696 4.35215 0
M  V30 46399 C 4419.11 -4.95062 3.23523 0
M  V30 46400 C 4418.47 -5.55678 4.32898 0
M  V30 46401 H 4414.57 -0.779753 0.059244 0
M  V30 46402 H 4417.15 -1.7972 0.74892 0
M  V30 46403 H 4415.32 -3.80645 -0.77227 0
M  V30 46404 H 4417.05 -3.99962 -0.617449 0
M  V30 46405 H 4413.81 -4.54651 1.32625 0
M  V30 46406 H 4414.23 -5.67458 3.69217 0
M  V30 46407 H 4418.88 -4.02149 1.30521 0
M  V30 46408 H 4416.59 -6.19196 5.19251 0
M  V30 46409 H 4420.18 -4.82847 3.24576 0
M  V30 46410 H 4419.06 -5.90169 5.16401 0
M  V30 46411 N 4416.56 -0.297469 -1.54767 0
M  V30 46412 C 4417.53 0.567297 -2.22068 0
M  V30 46413 C 4418.53 1.06405 -1.2056 0
M  V30 46414 O 4419.72 0.96064 -1.45318 0
M  V30 46415 C 4416.85 1.78507 -2.90427 0
M  V30 46416 H 4418.04 -0.0206588 -2.99893 0
M  V30 46417 H 4415.59 -0.0482713 -1.56225 0
M  V30 46418 H 4416.33 2.41295 -2.16673 0
M  V30 46419 H 4416.11 1.43656 -3.64836 0
M  V30 46420 H 4417.6 2.39952 -3.41779 0
M  V30 46421 N 4418.04 1.5758 -0.0251282 0
M  V30 46422 C 4419.29 1.90813 0.6537 0
M  V30 46423 C 4419.6 0.902791 1.7352 0
M  V30 46424 O 4420.81 1.12623 2.47039 0
M  V30 46425 C 4419.26 3.38808 1.21397 0
M  V30 46426 C 4418.87 4.47692 0.165969 0
M  V30 46427 C 4420.62 3.81115 1.86954 0
M  V30 46428 C 4418.52 5.86782 0.737649 0
M  V30 46429 H 4417.45 0.712072 0.247931 0
M  V30 46430 H 4420.1 1.8328 -0.0897781 0
M  V30 46431 H 4418.49 3.41259 2.00893 0
M  V30 46432 H 4419.66 4.56795 -0.60624 0
M  V30 46433 H 4417.98 4.14564 -0.390612 0
M  V30 46434 H 4420.57 4.82383 2.30675 0
M  V30 46435 H 4420.92 3.15962 2.7106 0
M  V30 46436 H 4421.45 3.81069 1.14154 0
M  V30 46437 H 4418.19 6.55468 -0.0651881 0
M  V30 46438 H 4417.71 5.81294 1.47844 0
M  V30 46439 H 4419.39 6.35227 1.22862 0
M  V30 46440 N 4419.52 -0.247971 1.55637 0
M  V30 46441 C 4420.77 -0.976161 1.77419 0
M  V30 46442 C 4421.09 -1.85359 0.589258 0
M  V30 46443 O 4420.35 -1.90974 -0.427462 0
M  V30 46444 C 4420.65 -1.86808 3.04693 0
M  V30 46445 C 4420.31 -1.14609 4.36091 0
M  V30 46446 C 4418.98 -0.946557 4.71798 0
M  V30 46447 C 4421.33 -0.634281 5.17326 0
M  V30 46448 C 4418.66 -0.222885 5.86276 0
M  V30 46449 C 4421.01 0.0759183 6.32554 0
M  V30 46450 C 4419.67 0.286945 6.66883 0
M  V30 46451 H 4418.94 -0.357203 0.64922 0
M  V30 46452 H 4421.59 -0.246348 1.89909 0
M  V30 46453 H 4419.89 -2.66492 2.8721 0
M  V30 46454 H 4421.59 -2.43317 3.18744 0
M  V30 46455 H 4418.18 -1.31156 4.08039 0
M  V30 46456 H 4422.36 -0.775988 4.90196 0
M  V30 46457 H 4417.62 -0.0489036 6.1138 0
M  V30 46458 H 4421.79 0.480144 6.94743 0
M  V30 46459 H 4419.42 0.849655 7.55437 0
M  V30 46460 N 4421 -1.48997 -0.513587 0
M  V30 46461 C 4421.95 -1.65204 -1.63739 0
M  V30 46462 C 4422.94 -0.518147 -1.61281 0
M  V30 46463 O 4424.15 -0.697393 -1.65941 0
M  V30 46464 H 4420.52 -0.520709 -0.542556 0
M  V30 46465 H 4422.49 -2.59557 -1.47217 0
M  V30 46466 C 4421.24 -1.72419 -3.01939 0
M  V30 46467 H 4420.56 -2.59039 -3.0453 0
M  V30 46468 H 4422 -1.87798 -3.80142 0
M  V30 46469 C 4420.46 -0.466297 -3.33657 0
M  V30 46470 O 4420.99 0.413603 -3.99565 0
M  V30 46471 N 4419.2 -0.333032 -2.88685 0
M  V30 46472 H 4418.75 -1.05005 -2.35227 0
M  V30 46473 H 4418.7 0.507556 -3.10276 0
M  V30 46474 N 4422.48 0.763702 -1.3786 0
M  V30 46475 C 4423.75 1.5124 -1.2404 0
M  V30 46476 C 4424.13 2.10473 0.162575 0
M  V30 46477 O 4423.48 1.9621 1.17105 0
M  V30 46478 C 4423.69 2.58686 -2.3427 0
M  V30 46479 C 4425.04 3.25868 -2.72204 0
M  V30 46480 O 4426.06 2.68985 -2.33507 0
M  V30 46481 O 4424.92 4.28728 -3.38902 0
M  V30 46482 H 4422.02 0.670226 -0.484486 0
M  V30 46483 H 4424.56 0.799979 -1.49661 0
M  V30 46484 H 4423.33 2.13093 -3.28187 0
M  V30 46485 H 4422.96 3.3752 -2.10158 0
M  V30 46486 N 4423.95 1.22562 0.990769 0
M  V30 46487 C 4424.9 0.96488 2.06577 0
M  V30 46488 C 4425.89 -0.0852908 1.60674 0
M  V30 46489 O 4427.08 0.125505 1.76554 0
M  V30 46490 C 4424.21 0.546826 3.38917 0
M  V30 46491 C 4423.29 1.63184 3.91448 0
M  V30 46492 N 4423.69 2.86 4.17179 0
M  V30 46493 C 4421.98 1.50402 4.19875 0
M  V30 46494 C 4422.68 3.56175 4.59907 0
M  V30 46495 N 4421.66 2.83654 4.63726 0
M  V30 46496 H 4425.46 1.89777 2.24414 0
M  V30 46497 H 4422.98 1.12347 1.17269 0
M  V30 46498 H 4424.97 0.341336 4.155 0
M  V30 46499 H 4423.63 -0.379141 3.22479 0
M  V30 46500 H 4424.64 3.22406 4.05308 0
M  V30 46501 H 4421.32 0.644399 4.12497 0
M  V30 46502 H 4422.71 4.61407 4.88419 0
M  V30 46503 N 4425.43 -1.18793 1.03566 0
M  V30 46504 C 4426.38 -2.20159 0.592802 0
M  V30 46505 C 4427.37 -1.56773 -0.362078 0
M  V30 46506 O 4428.56 -1.76062 -0.181947 0
M  V30 46507 C 4425.69 -3.43266 -0.0479818 0
M  V30 46508 C 4424.77 -4.13783 0.929745 0
M  V30 46509 N 4425.16 -4.60381 2.09484 0
M  V30 46510 C 4423.46 -4.39569 0.754654 0
M  V30 46511 C 4424.16 -5.14609 2.71205 0
M  V30 46512 N 4423.14 -5.05819 1.99117 0
M  V30 46513 H 4426.94 -2.53872 1.48075 0
M  V30 46514 H 4424.45 -1.34943 0.903561 0
M  V30 46515 H 4426.45 -4.15138 -0.382912 0
M  V30 46516 H 4425.11 -3.11051 -0.931527 0
M  V30 46517 H 4426.12 -4.5499 2.47395 0
M  V30 46518 H 4422.8 -4.17425 -0.0792246 0
M  V30 46519 H 4424.19 -5.60904 3.69915 0
M  V30 46520 N 4426.91 -0.814437 -1.34925 0
M  V30 46521 C 4427.84 -0.244909 -2.32212 0
M  V30 46522 C 4428.82 0.633969 -1.57844 0
M  V30 46523 O 4430.01 0.562611 -1.85872 0
M  V30 46524 C 4427.14 0.600986 -3.42061 0
M  V30 46525 C 4426.09 -0.180046 -4.27621 0
M  V30 46526 C 4425.42 0.788051 -5.28861 0
M  V30 46527 C 4426.72 -1.38347 -5.03644 0
M  V30 46528 H 4428.41 -1.05773 -2.80094 0
M  V30 46529 H 4425.96 -0.510076 -1.34663 0
M  V30 46530 H 4427.91 1.00954 -4.09129 0
M  V30 46531 H 4426.63 1.44678 -2.92807 0
M  V30 46532 H 4425.29 -0.569866 -3.62144 0
M  V30 46533 H 4424.94 1.62956 -4.75872 0
M  V30 46534 H 4424.64 0.269736 -5.86981 0
M  V30 46535 H 4426.16 1.19464 -5.98799 0
M  V30 46536 H 4427.58 -1.04938 -5.63614 0
M  V30 46537 H 4425.97 -1.83682 -5.71297 0
M  V30 46538 H 4427.04 -2.16607 -4.33831 0
M  V30 46539 N 4428.39 1.46984 -0.568636 0
M  V30 46540 C 4429.34 2.31859 0.185567 0
M  V30 46541 C 4430.33 1.43627 0.898199 0
M  V30 46542 O 4431.54 1.6033 0.818186 0
M  V30 46543 H 4427.91 0.747869 0.0787136 0
M  V30 46544 H 4429.88 2.93301 -0.549294 0
M  V30 46545 C 4428.63 3.26517 1.19508 0
M  V30 46546 H 4427.95 3.94379 0.656146 0
M  V30 46547 H 4429.39 3.88713 1.69346 0
M  V30 46548 C 4427.85 2.50855 2.24885 0
M  V30 46549 O 4428.38 2.26131 3.32006 0
M  V30 46550 N 4426.59 2.11663 1.99116 0
M  V30 46551 H 4426.14 2.3197 1.12016 0
M  V30 46552 H 4426.09 1.61356 2.69836 0
M  V30 46553 N 4429.87 0.305673 1.54607 0
M  V30 46554 C 4431.28 -0.0475667 1.59529 0
M  V30 46555 C 4431.48 -1.52021 1.32257 0
M  V30 46556 O 4430.54 -2.27364 1.09826 0
M  V30 46557 C 4431.85 0.354576 2.98602 0
M  V30 46558 C 4433.4 0.303732 3.11523 0
M  V30 46559 C 4433.87 0.680767 4.52912 0
M  V30 46560 N 4435.36 0.633481 4.58848 0
M  V30 46561 C 4436.1 0.897631 5.6633 0
M  V30 46562 N 4435.6 1.22799 6.8183 0
M  V30 46563 N 4437.39 0.824381 5.56022 0
M  V30 46564 H 4429.54 1.26536 1.70594 0
M  V30 46565 H 4431.8 0.513319 0.796999 0
M  V30 46566 H 4431.51 1.37992 3.23498 0
M  V30 46567 H 4431.38 -0.289435 3.76088 0
M  V30 46568 H 4433.77 -0.712371 2.86373 0
M  V30 46569 H 4433.85 0.982431 2.36182 0
M  V30 46570 H 4433.49 1.6947 4.78793 0
M  V30 46571 H 4433.42 -0.0200534 5.26596 0
M  V30 46572 H 4435.92 0.38927 3.7589 0
M  V30 46573 H 4436.23 1.4154 7.59728 0
M  V30 46574 H 4434.57 1.26607 6.83371 0
M  V30 46575 H 4437.76 0.565912 4.64667 0
M  V30 46576 H 4437.94 1.03361 6.39703 0
M  V30 46577 N 4431.34 -1.57564 0.0334847 0
M  V30 46578 C 4432.75 -1.79748 -0.504735 0
M  V30 46579 C 4433.11 -0.944151 -1.71989 0
M  V30 46580 O 4432.23 -0.15577 -2.15839 0
M  V30 46581 C 4432.83 -3.26 -0.922452 0
M  V30 46582 C 4431.38 -3.49164 -1.40576 0
M  V30 46583 C 4430.53 -2.74786 -0.372537 0
M  V30 46584 H 4433.48 -1.56564 0.259492 0
M  V30 46585 H 4433.5 -3.35951 -1.78654 0
M  V30 46586 H 4433.02 -3.88082 -0.037846 0
M  V30 46587 H 4431.12 -2.92341 -2.31015 0
M  V30 46588 H 4431.23 -4.57878 -1.41012 0
M  V30 46589 H 4429.59 -2.40394 -0.841588 0
M  V30 46590 H 4430.38 -3.39585 0.503678 0
M  V30 46591 N 4432.82 0.239714 -1.55766 0
M  V30 46592 C 4434.07 0.964829 -1.77582 0
M  V30 46593 C 4434.39 1.8558 -0.598764 0
M  V30 46594 O 4433.66 1.92076 0.385159 0
M  V30 46595 H 4432.24 0.359242 -0.654946 0
M  V30 46596 H 4434.9 0.255933 -1.93212 0
M  V30 46597 H 4434 1.58233 -2.69014 0
M  V30 46598 N 4434.3 1.49267 0.505678 0
M  V30 46599 C 4435.55 1.58752 1.26196 0
M  V30 46600 C 4435.88 0.271295 1.92296 0
M  V30 46601 O 4435.15 -0.724768 1.80492 0
M  V30 46602 C 4435.44 2.74341 2.33258 0
M  V30 46603 C 4435.29 4.15743 1.7169 0
M  V30 46604 C 4436.61 2.85587 3.34855 0
M  V30 46605 H 4433.73 0.577842 0.457458 0
M  V30 46606 H 4436.37 1.81534 0.560833 0
M  V30 46607 H 4434.52 2.55047 2.93059 0
M  V30 46608 H 4436.19 4.46541 1.15753 0
M  V30 46609 H 4434.43 4.21609 1.0212 0
M  V30 46610 H 4435.11 4.92485 2.49323 0
M  V30 46611 H 4437.58 3.03137 2.85039 0
M  V30 46612 H 4436.46 3.68149 4.07133 0
M  V30 46613 H 4436.72 1.94746 3.96896 0
M  V30 46614 N 4435.78 -0.756381 1.38263 0
M  V30 46615 C 4437.01 -1.54336 1.37346 0
M  V30 46616 C 4437.42 -1.89159 -0.0393252 0
M  V30 46617 O 4436.76 -1.53073 -1.01559 0
M  V30 46618 C 4436.82 -2.8723 2.16192 0
M  V30 46619 C 4436.49 -2.7496 3.65028 0
M  V30 46620 C 4437.48 -2.44946 4.58582 0
M  V30 46621 C 4435.17 -2.92501 4.08349 0
M  V30 46622 C 4437.16 -2.32621 5.93436 0
M  V30 46623 C 4434.85 -2.79796 5.43284 0
M  V30 46624 C 4435.85 -2.49899 6.35641 0
M  V30 46625 O 4435.53 -2.37248 7.68094 0
M  V30 46626 H 4435.27 -0.484265 0.471661 0
M  V30 46627 H 4437.82 -0.944088 1.82417 0
M  V30 46628 H 4436.05 -3.49336 1.65834 0
M  V30 46629 H 4437.74 -3.48724 2.07717 0
M  V30 46630 H 4438.51 -2.31066 4.2642 0
M  V30 46631 H 4434.38 -3.14769 3.36811 0
M  V30 46632 H 4437.93 -2.09207 6.65491 0
M  V30 46633 H 4433.83 -2.93249 5.75044 0
M  V30 46634 H 4434.59 -2.52482 7.78585 0
M  V30 46635 N 4437.26 -1.23086 -0.984255 0
M  V30 46636 C 4438.5 -1.07233 -1.74013 0
M  V30 46637 C 4438.86 0.3847 -1.88107 0
M  V30 46638 O 4440.06 0.664319 -2.60462 0
M  V30 46639 C 4438.33 -1.77358 -3.10288 0
M  V30 46640 S 4439.89 -1.77028 -4.01505 0
M  V30 46641 H 4436.71 -0.38384 -0.598488 0
M  V30 46642 H 4439.31 -1.56162 -1.17617 0
M  V30 46643 H 4438.02 -2.82516 -2.97679 0
M  V30 46644 H 4437.55 -1.28695 -3.71754 0
M  V30 46645 H 4439.56 -0.826128 -4.89275 0
M  V30 46646 N 4438.73 1.18243 -1.04194 0
M  V30 46647 C 4439.98 1.87883 -0.744609 0
M  V30 46648 C 4440.3 1.80823 0.729943 0
M  V30 46649 O 4439.57 1.22742 1.5268 0
M  V30 46650 H 4438.15 0.695546 -0.272442 0
M  V30 46651 H 4440.82 1.4349 -1.31897 0
M  V30 46652 H 4439.91 2.93886 -1.05059 0
M  V30 46653 N 4440.21 0.821581 1.34491 0
M  V30 46654 C 4441.44 0.420944 2.03083 0
M  V30 46655 C 4441.86 -0.964858 1.61469 0
M  V30 46656 O 4441.22 -1.62761 0.798664 0
M  V30 46657 C 4441.27 0.529539 3.56691 0
M  V30 46658 O 4440.37 -0.451158 4.09925 0
M  V30 46659 H 4439.71 0.173512 0.640929 0
M  V30 46660 H 4442.24 1.11163 1.71767 0
M  V30 46661 H 4442.25 0.404814 4.05987 0
M  V30 46662 H 4440.93 1.54027 3.86327 0
M  V30 46663 H 4439.51 -0.285427 3.71806 0
M  V30 46664 N 4441.69 -1.4668 0.576422 0
M  V30 46665 C 4442.97 -1.95599 -0.00696561 0
M  V30 46666 C 4443.35 -1.51909 -1.46584 0
M  V30 46667 O 4442.7 -0.766831 -2.15249 0
M  V30 46668 C 4442.91 -3.4864 0.158527 0
M  V30 46669 C 4444.25 -4.24594 0.0230932 0
M  V30 46670 O 4445.28 -3.56094 0.0870425 0
M  V30 46671 O 4444.14 -5.46373 -0.117823 0
M  V30 46672 H 4441.23 -0.825277 -0.053355 0
M  V30 46673 H 4443.78 -1.56993 0.644299 0
M  V30 46674 H 4442.55 -3.73306 1.17295 0
M  V30 46675 H 4442.17 -3.94059 -0.529462 0
M  V30 46676 N 4443.17 -0.313868 -1.54443 0
M  V30 46677 C 4444.42 0.291605 -2.00389 0
M  V30 46678 C 4444.74 1.529 -1.20216 0
M  V30 46679 O 4444 1.93832 -0.269775 0
M  V30 46680 C 4444.3 0.680262 -3.50866 0
M  V30 46681 C 4443.96 -0.456856 -4.4858 0
M  V30 46682 C 4442.63 -0.768991 -4.75016 0
M  V30 46683 C 4444.98 -1.22115 -5.06692 0
M  V30 46684 C 4442.31 -1.84832 -5.56825 0
M  V30 46685 C 4444.66 -2.2905 -5.89677 0
M  V30 46686 C 4443.32 -2.60856 -6.14419 0
M  V30 46687 H 4442.59 0.106706 -0.733277 0
M  V30 46688 H 4445.24 -0.435636 -1.86479 0
M  V30 46689 H 4443.54 1.48778 -3.62453 0
M  V30 46690 H 4445.24 1.16013 -3.83852 0
M  V30 46691 H 4441.83 -0.203488 -4.28117 0
M  V30 46692 H 4446.01 -0.993267 -4.86259 0
M  V30 46693 H 4441.27 -2.09932 -5.74229 0
M  V30 46694 H 4445.44 -2.88722 -6.33729 0
M  V30 46695 H 4443.07 -3.4462 -6.776 0
M  V30 46696 N 4444.65 1.57544 -0.0418402 0
M  V30 46697 C 4445.9 1.91496 0.633425 0
M  V30 46698 C 4446.21 0.921144 1.72552 0
M  V30 46699 O 4447.41 1.15237 2.45831 0
M  V30 46700 C 4445.87 3.40076 1.17797 0
M  V30 46701 C 4445.48 4.47843 0.118475 0
M  V30 46702 C 4447.22 3.83076 1.82901 0
M  V30 46703 C 4445.13 5.87531 0.675372 0
M  V30 46704 H 4444.06 0.714661 0.240365 0
M  V30 46705 H 4446.71 1.83175 -0.109212 0
M  V30 46706 H 4445.09 3.43371 1.97262 0
M  V30 46707 H 4446.27 4.56126 -0.654655 0
M  V30 46708 H 4444.58 4.14126 -0.43456 0
M  V30 46709 H 4447.18 4.84802 2.25546 0
M  V30 46710 H 4447.52 3.1882 2.67693 0
M  V30 46711 H 4448.05 3.82259 1.10106 0
M  V30 46712 H 4444.79 6.55362 -0.134706 0
M  V30 46713 H 4444.31 5.82829 1.4167 0
M  V30 46714 H 4445.99 6.36495 1.16118 0
M  V30 46715 N 4446.12 -0.23145 1.55891 0
M  V30 46716 C 4447.4 -0.981036 1.69219 0
M  V30 46717 C 4447.78 -2.02797 0.586235 0
M  V30 46718 O 4447.13 -2.24825 -0.408174 0
M  V30 46719 C 4447.34 -1.60043 3.10141 0
M  V30 46720 C 4448.69 -2.09645 3.69235 0
M  V30 46721 O 4449.71 -1.69956 3.13039 0
M  V30 46722 O 4448.57 -2.82564 4.67782 0
M  V30 46723 H 4445.66 -0.457628 0.688843 0
M  V30 46724 H 4448.21 -0.224014 1.68215 0
M  V30 46725 H 4446.98 -0.843971 3.8209 0
M  V30 46726 H 4446.61 -2.42325 3.15221 0
M  V30 46727 N 4447.6 -1.49533 -0.497755 0
M  V30 46728 C 4448.85 -1.5843 -1.24831 0
M  V30 46729 C 4449.16 -0.277711 -1.93619 0
M  V30 46730 O 4450.37 -0.245265 -2.7039 0
M  V30 46731 C 4448.83 -2.79546 -2.26676 0
M  V30 46732 C 4448.43 -4.16976 -1.63813 0
M  V30 46733 C 4450.18 -2.97775 -3.0254 0
M  V30 46734 C 4448.09 -5.29311 -2.63788 0
M  V30 46735 H 4447.02 -0.589906 -0.469603 0
M  V30 46736 H 4449.67 -1.75925 -0.521795 0
M  V30 46737 H 4448.05 -2.55552 -3.02505 0
M  V30 46738 H 4449.22 -4.5112 -0.939553 0
M  V30 46739 H 4447.54 -4.04133 -1.00328 0
M  V30 46740 H 4450.13 -3.78869 -3.77309 0
M  V30 46741 H 4450.48 -2.08461 -3.60347 0
M  V30 46742 H 4451.01 -3.21823 -2.33827 0
M  V30 46743 H 4447.75 -6.20694 -2.10757 0
M  V30 46744 H 4447.27 -4.99618 -3.31877 0
M  V30 46745 H 4448.95 -5.5878 -3.26151 0
M  V30 46746 N 4449.08 0.749038 -1.38662 0
M  V30 46747 C 4450.33 1.51051 -1.35319 0
M  V30 46748 C 4450.66 1.94121 0.0553069 0
M  V30 46749 O 4449.93 1.65767 1.01743 0
M  V30 46750 C 4450.22 2.75995 -2.31298 0
M  V30 46751 C 4450.07 2.39034 -3.81029 0
M  V30 46752 C 4451.39 3.78038 -2.25333 0
M  V30 46753 H 4448.51 0.547955 -0.492864 0
M  V30 46754 H 4451.15 0.857568 -1.69546 0
M  V30 46755 H 4449.3 3.31709 -2.02241 0
M  V30 46756 H 4450.97 1.8906 -4.20778 0
M  V30 46757 H 4449.22 1.71435 -3.98488 0
M  V30 46758 H 4449.89 3.28446 -4.43652 0
M  V30 46759 H 4452.36 3.31875 -2.50995 0
M  V30 46760 H 4451.24 4.63148 -2.94593 0
M  V30 46761 H 4451.5 4.23952 -1.25367 0
M  V30 46762 N 4450.56 1.23606 0.977714 0
M  V30 46763 C 4451.98 0.999295 1.24444 0
M  V30 46764 C 4452.18 -0.297983 1.99284 0
M  V30 46765 O 4451.23 -1.01673 2.31125 0
M  V30 46766 C 4452.54 2.20791 2.04136 0
M  V30 46767 C 4454.09 2.2531 2.17266 0
M  V30 46768 C 4454.57 3.45766 3.0035 0
M  V30 46769 N 4456.06 3.46021 3.07934 0
M  V30 46770 C 4456.79 4.35881 3.72553 0
M  V30 46771 N 4456.29 5.35981 4.38972 0
M  V30 46772 N 4458.08 4.23618 3.69465 0
M  V30 46773 H 4450.23 2.06988 0.47641 0
M  V30 46774 H 4452.5 0.90781 0.273102 0
M  V30 46775 H 4452.2 3.1495 1.56522 0
M  V30 46776 H 4452.08 2.22095 3.04883 0
M  V30 46777 H 4454.46 1.31689 2.64087 0
M  V30 46778 H 4454.54 2.28037 1.15899 0
M  V30 46779 H 4454.19 4.39696 2.54225 0
M  V30 46780 H 4454.12 3.4028 4.01892 0
M  V30 46781 H 4456.61 2.73597 2.60678 0
M  V30 46782 H 4456.92 6.008 4.86065 0
M  V30 46783 H 4455.27 5.39878 4.37672 0
M  V30 46784 H 4458.46 3.44658 3.16747 0
M  V30 46785 H 4458.63 4.9385 4.19542 0
M  V30 46786 N 4452.04 -1.17688 1.0482 0
M  V30 46787 C 4453.45 -1.3986 0.768843 0
M  V30 46788 C 4453.65 -1.9112 -0.638384 0
M  V30 46789 O 4452.71 -2.10041 -1.40139 0
M  V30 46790 C 4454.02 -2.39268 1.8213 0
M  V30 46791 C 4455.57 -2.52981 1.84309 0
M  V30 46792 C 4456.05 -3.55659 2.88567 0
M  V30 46793 N 4457.54 -3.63173 2.87506 0
M  V30 46794 C 4458.27 -4.42368 3.64827 0
M  V30 46795 N 4457.77 -5.25109 4.51921 0
M  V30 46796 N 4459.56 -4.37205 3.53283 0
M  V30 46797 H 4451.71 -0.827451 1.9562 0
M  V30 46798 H 4453.97 -0.426093 0.846846 0
M  V30 46799 H 4453.68 -2.08668 2.83109 0
M  V30 46800 H 4453.55 -3.3872 1.65978 0
M  V30 46801 H 4455.94 -2.82893 0.839969 0
M  V30 46802 H 4456.02 -1.53616 2.04538 0
M  V30 46803 H 4455.67 -3.26486 3.89062 0
M  V30 46804 H 4455.6 -4.54719 2.65591 0
M  V30 46805 H 4458.09 -3.04095 2.24353 0
M  V30 46806 H 4458.4 -5.8271 5.07611 0
M  V30 46807 H 4456.75 -5.24503 4.55984 0
M  V30 46808 H 4459.94 -3.71616 2.84638 0
M  V30 46809 H 4460.11 -4.98681 4.13789 0
M  V30 46810 N 4453.52 -0.828702 -1.34053 0
M  V30 46811 C 4454.45 -0.269524 -2.31939 0
M  V30 46812 C 4455.43 0.617192 -1.58508 0
M  V30 46813 O 4456.61 0.542865 -1.86458 0
M  V30 46814 C 4453.74 0.564672 -3.42679 0
M  V30 46815 C 4452.7 -0.225391 -4.27406 0
M  V30 46816 C 4452.02 0.731914 -5.29667 0
M  V30 46817 C 4453.32 -1.43681 -5.02149 0
M  V30 46818 H 4455.02 -1.08738 -2.78956 0
M  V30 46819 H 4452.56 -0.52433 -1.34115 0
M  V30 46820 H 4454.51 0.966089 -4.10176 0
M  V30 46821 H 4453.24 1.41564 -2.94325 0
M  V30 46822 H 4451.9 -0.608244 -3.61519 0
M  V30 46823 H 4451.55 1.579 -4.77574 0
M  V30 46824 H 4451.25 0.207463 -5.87234 0
M  V30 46825 H 4452.77 1.13106 -6.00033 0
M  V30 46826 H 4454.18 -1.1091 -5.6247 0
M  V30 46827 H 4452.58 -1.89731 -5.69317 0
M  V30 46828 H 4453.65 -2.21197 -4.31509 0
M  V30 46829 N 4454.99 1.46373 -0.584193 0
M  V30 46830 C 4455.96 2.28784 0.138028 0
M  V30 46831 C 4456.96 1.38474 0.817413 0
M  V30 46832 O 4458.15 1.60836 0.669142 0
M  V30 46833 C 4455.28 3.18896 1.20492 0
M  V30 46834 H 4456.47 2.94115 -0.586231 0
M  V30 46835 H 4454.02 1.52507 -0.342225 0
M  V30 46836 H 4454.76 2.58316 1.9607 0
M  V30 46837 H 4454.54 3.85391 0.722248 0
M  V30 46838 H 4456.03 3.8092 1.71141 0
M  V30 46839 N 4456.47 0.322054 1.54274 0
M  V30 46840 C 4457.72 -0.28139 2.00838 0
M  V30 46841 C 4458.05 -1.51905 1.2099 0
M  V30 46842 O 4457.33 -1.92299 0.291801 0
M  V30 46843 C 4457.61 -0.617038 3.54774 0
M  V30 46844 C 4457.46 0.631221 4.45349 0
M  V30 46845 C 4458.78 -1.43528 4.16038 0
M  V30 46846 H 4455.9 -0.100801 0.730074 0
M  V30 46847 H 4458.54 0.438333 1.84875 0
M  V30 46848 H 4456.69 -1.23021 3.68508 0
M  V30 46849 H 4458.36 1.2695 4.43488 0
M  V30 46850 H 4456.61 1.26039 4.15086 0
M  V30 46851 H 4457.28 0.351929 5.50877 0
M  V30 46852 H 4459.75 -0.916991 4.0587 0
M  V30 46853 H 4458.63 -1.63889 5.23862 0
M  V30 46854 H 4458.89 -2.43095 3.69266 0
M  V30 46855 N 4457.95 -1.5752 0.0501946 0
M  V30 46856 C 4459.17 -1.97378 -0.636927 0
M  V30 46857 C 4459.6 -0.927524 -1.63642 0
M  V30 46858 O 4458.96 0.109346 -1.8097 0
M  V30 46859 C 4459.01 -3.36309 -1.30111 0
M  V30 46860 O 4458.11 -3.34165 -2.41677 0
M  V30 46861 H 4457.45 -0.643004 -0.165656 0
M  V30 46862 H 4459.98 -2.04258 0.118305 0
M  V30 46863 H 4459.99 -3.73014 -1.65302 0
M  V30 46864 H 4458.67 -4.11995 -0.568601 0
M  V30 46865 H 4457.24 -3.09204 -2.08441 0
M  V30 46866 N 4459.43 0.223179 -1.56012 0
M  V30 46867 C 4460.36 1.27981 -1.95303 0
M  V30 46868 C 4461.34 1.48973 -0.821032 0
M  V30 46869 O 4462.52 1.61184 -1.08321 0
M  V30 46870 C 4459.65 2.62992 -2.26831 0
M  V30 46871 C 4458.61 2.56659 -3.42506 0
M  V30 46872 C 4457.93 3.95685 -3.59636 0
M  V30 46873 C 4459.23 2.11584 -4.77524 0
M  V30 46874 H 4460.93 0.953425 -2.83814 0
M  V30 46875 H 4458.47 0.457196 -1.36549 0
M  V30 46876 H 4460.43 3.37068 -2.5291 0
M  V30 46877 H 4459.15 2.97315 -1.35172 0
M  V30 46878 H 4457.81 1.8504 -3.16474 0
M  V30 46879 H 4457.46 4.27312 -2.65355 0
M  V30 46880 H 4457.16 3.92329 -4.37438 0
M  V30 46881 H 4458.68 4.71425 -3.88061 0
M  V30 46882 H 4460.1 2.75402 -5.02818 0
M  V30 46883 H 4458.49 2.19291 -5.58598 0
M  V30 46884 H 4459.56 1.06808 -4.72991 0
M  V30 46885 N 4460.91 1.49795 0.489818 0
M  V30 46886 C 4462.15 1.59845 1.24321 0
M  V30 46887 C 4462.48 0.290203 1.92323 0
M  V30 46888 O 4461.74 -0.722685 1.81867 0
M  V30 46889 C 4462.03 2.71496 2.32432 0
M  V30 46890 C 4461.7 4.1262 1.81812 0
M  V30 46891 C 4460.36 4.51023 1.67726 0
M  V30 46892 C 4462.71 5.00897 1.44053 0
M  V30 46893 C 4460.04 5.75463 1.14277 0
M  V30 46894 C 4462.39 6.25867 0.920522 0
M  V30 46895 C 4461.06 6.63089 0.76615 0
M  V30 46896 H 4460.33 0.584915 0.454924 0
M  V30 46897 H 4462.98 1.83665 0.542151 0
M  V30 46898 H 4461.28 2.41691 3.08371 0
M  V30 46899 H 4462.98 2.76479 2.90448 0
M  V30 46900 H 4459.57 3.82314 1.93737 0
M  V30 46901 H 4463.75 4.71875 1.53777 0
M  V30 46902 H 4459.01 6.02992 1.01047 0
M  V30 46903 H 4463.18 6.93642 0.619204 0
M  V30 46904 H 4460.81 7.59395 0.349816 0
M  V30 46905 N 4462.38 -0.741673 1.39057 0
M  V30 46906 C 4463.32 -1.86565 1.3314 0
M  V30 46907 C 4464.33 -1.61001 0.241386 0
M  V30 46908 O 4465.52 -1.71359 0.499844 0
M  V30 46909 C 4462.62 -3.22453 1.04294 0
M  V30 46910 C 4461.79 -3.75427 2.2444 0
M  V30 46911 C 4460.85 -4.8986 1.92155 0
M  V30 46912 O 4459.88 -5.0387 2.64771 0
M  V30 46913 N 4461.08 -5.73735 0.883672 0
M  V30 46914 H 4463.84 -1.92148 2.29998 0
M  V30 46915 H 4461.4 -0.922125 1.33073 0
M  V30 46916 H 4463.4 -3.96567 0.807267 0
M  V30 46917 H 4461.97 -3.1218 0.161917 0
M  V30 46918 H 4461.19 -2.92741 2.64 0
M  V30 46919 H 4462.47 -4.07553 3.04595 0
M  V30 46920 H 4461.87 -5.64998 0.281716 0
M  V30 46921 H 4460.43 -6.47945 0.70789 0
M  V30 46922 N 4463.86 -1.24123 -0.971145 0
M  V30 46923 C 4465.27 -1.07241 -1.52827 0
M  V30 46924 C 4465.62 0.357284 -1.92919 0
M  V30 46925 O 4464.75 1.24522 -1.76984 0
M  V30 46926 C 4465.34 -1.94053 -2.77721 0
M  V30 46927 C 4463.9 -1.81405 -3.29802 0
M  V30 46928 C 4463.05 -1.89196 -2.02732 0
M  V30 46929 H 4466 -1.3765 -0.789815 0
M  V30 46930 H 4466.02 -1.47078 -3.50925 0
M  V30 46931 H 4465.53 -2.98102 -2.4851 0
M  V30 46932 H 4463.63 -0.801762 -3.63872 0
M  V30 46933 H 4463.75 -2.65308 -3.98934 0
M  V30 46934 H 4462.11 -1.32884 -2.17287 0
M  V30 46935 H 4462.89 -2.94818 -1.7589 0
M  V30 46936 N 4465.34 1.17131 -1.05443 0
M  V30 46937 C 4466.59 1.86788 -0.761114 0
M  V30 46938 C 4466.9 1.82074 0.714731 0
M  V30 46939 O 4468.11 2.47227 1.12209 0
M  V30 46940 C 4466.56 3.35161 -1.31129 0
M  V30 46941 C 4466.17 3.48372 -2.81676 0
M  V30 46942 C 4467.92 4.10131 -1.09513 0
M  V30 46943 C 4465.82 4.90781 -3.29981 0
M  V30 46944 H 4464.75 0.699671 -0.281027 0
M  V30 46945 H 4467.4 1.32255 -1.27204 0
M  V30 46946 H 4465.79 3.89248 -0.728166 0
M  V30 46947 H 4466.96 3.0449 -3.45865 0
M  V30 46948 H 4465.28 2.86826 -3.01861 0
M  V30 46949 H 4467.87 5.15195 -1.43102 0
M  V30 46950 H 4468.22 4.16287 -0.0330236 0
M  V30 46951 H 4468.75 3.62258 -1.64359 0
M  V30 46952 H 4465.49 4.898 -4.35633 0
M  V30 46953 H 4465.01 5.35323 -2.70535 0
M  V30 46954 H 4466.69 5.59562 -3.24807 0
M  V30 46955 N 4466.82 0.835799 1.33612 0
M  V30 46956 C 4468.05 0.443415 2.02093 0
M  V30 46957 C 4468.46 -0.954465 1.62897 0
M  V30 46958 O 4467.82 -1.61979 0.84078 0
M  V30 46959 C 4467.87 0.550901 3.57278 0
M  V30 46960 O 4467.59 1.8937 3.95058 0
M  V30 46961 C 4469.09 0.155075 4.43029 0
M  V30 46962 H 4466.31 0.176382 0.647403 0
M  V30 46963 H 4468.86 1.12752 1.70608 0
M  V30 46964 H 4467.01 -0.0852635 3.87306 0
M  V30 46965 H 4467.42 1.87704 4.89763 0
M  V30 46966 H 4468.9 0.281338 5.51283 0
M  V30 46967 H 4469.38 -0.902712 4.29823 0
M  V30 46968 H 4469.98 0.765551 4.18353 0
M  V30 46969 N 4468.3 -1.46061 0.591947 0
M  V30 46970 C 4469.53 -2.06417 0.0868402 0
M  V30 46971 C 4469.93 -1.4398 -1.22746 0
M  V30 46972 O 4469.28 -0.542593 -1.75504 0
M  V30 46973 C 4469.34 -3.59213 -0.143599 0
M  V30 46974 C 4469 -4.43897 1.0865 0
M  V30 46975 C 4470 -4.79857 2.00084 0
M  V30 46976 C 4467.69 -4.84891 1.31094 0
M  V30 46977 C 4469.68 -5.5565 3.12301 0
M  V30 46978 C 4467.37 -5.60441 2.43616 0
M  V30 46979 C 4468.36 -5.95736 3.34048 0
M  V30 46980 O 4468.05 -6.69757 4.44613 0
M  V30 46981 H 4467.78 -0.673441 0.0587684 0
M  V30 46982 H 4470.34 -1.88536 0.81506 0
M  V30 46983 H 4468.57 -3.75436 -0.926536 0
M  V30 46984 H 4470.26 -4.01465 -0.598359 0
M  V30 46985 H 4471.02 -4.48757 1.83963 0
M  V30 46986 H 4466.9 -4.56865 0.6161 0
M  V30 46987 H 4470.45 -5.83116 3.82911 0
M  V30 46988 H 4466.34 -5.90956 2.59695 0
M  V30 46989 H 4467.11 -6.88191 4.43097 0
M  V30 46990 N 4469.77 -0.330231 -1.54101 0
M  V30 46991 C 4471.02 0.270335 -2.00687 0
M  V30 46992 C 4471.35 1.51617 -1.21831 0
M  V30 46993 O 4470.6 1.93535 -0.290318 0
M  V30 46994 C 4470.9 0.64301 -3.51568 0
M  V30 46995 C 4470.57 -0.504409 -4.4807 0
M  V30 46996 C 4469.23 -0.81933 -4.74173 0
M  V30 46997 C 4471.58 -1.27483 -5.05369 0
M  V30 46998 C 4468.91 -1.90727 -5.54833 0
M  V30 46999 C 4471.26 -2.35291 -5.87214 0
M  V30 47000 C 4469.93 -2.67358 -6.11618 0
M  V30 47001 H 4469.2 0.0989224 -0.734367 0
M  V30 47002 H 4471.84 -0.45539 -1.86007 0
M  V30 47003 H 4470.15 1.44926 -3.64011 0
M  V30 47004 H 4471.85 1.11935 -3.8506 0
M  V30 47005 H 4468.44 -0.248884 -4.27877 0
M  V30 47006 H 4472.62 -1.04479 -4.85178 0
M  V30 47007 H 4467.88 -2.16011 -5.7197 0
M  V30 47008 H 4472.05 -2.95428 -6.30631 0
M  V30 47009 H 4469.68 -3.51787 -6.73906 0
M  V30 47010 N 4471.25 1.57491 -0.0585476 0
M  V30 47011 C 4472.18 2.08919 0.942621 0
M  V30 47012 C 4473.2 1.01855 1.27002 0
M  V30 47013 O 4474.39 1.29403 1.22952 0
M  V30 47014 C 4471.49 2.52349 2.26215 0
M  V30 47015 C 4470.66 3.82835 2.11557 0
M  V30 47016 C 4469.72 4.12499 3.26698 0
M  V30 47017 O 4468.74 4.82305 3.02275 0
M  V30 47018 N 4469.95 3.64994 4.51398 0
M  V30 47019 H 4472.71 2.95438 0.503619 0
M  V30 47020 H 4470.27 1.61397 0.127513 0
M  V30 47021 H 4472.26 2.69265 3.02124 0
M  V30 47022 H 4470.83 1.71039 2.61657 0
M  V30 47023 H 4470.05 3.75429 1.20195 0
M  V30 47024 H 4471.34 4.6827 1.98999 0
M  V30 47025 H 4470.74 3.08575 4.74129 0
M  V30 47026 H 4469.3 3.87134 5.24377 0
M  V30 47027 N 4472.73 -0.214903 1.56128 0
M  V30 47028 C 4473.66 -1.26943 1.95979 0
M  V30 47029 C 4474.64 -1.48536 0.82892 0
M  V30 47030 O 4475.83 -1.60607 1.09174 0
M  V30 47031 C 4472.96 -2.61786 2.28223 0
M  V30 47032 C 4471.91 -2.54839 3.43862 0
M  V30 47033 C 4471.24 -3.93772 3.61729 0
M  V30 47034 C 4472.54 -2.09049 4.7864 0
M  V30 47035 H 4474.23 -0.93836 2.84315 0
M  V30 47036 H 4471.78 -0.449948 1.3679 0
M  V30 47037 H 4473.73 -3.35722 2.54694 0
M  V30 47038 H 4472.45 -2.96594 1.36747 0
M  V30 47039 H 4471.11 -1.83359 3.17451 0
M  V30 47040 H 4470.76 -4.25899 2.67617 0
M  V30 47041 H 4470.46 -3.90004 4.39512 0
M  V30 47042 H 4471.98 -4.6936 3.90555 0
M  V30 47043 H 4473.4 -2.72732 5.04272 0
M  V30 47044 H 4471.8 -2.16326 5.59753 0
M  V30 47045 H 4472.87 -1.04298 4.7355 0
M  V30 47046 N 4474.21 -1.50053 -0.481867 0
M  V30 47047 C 4475.44 -1.64242 -1.25826 0
M  V30 47048 C 4475.85 -0.321402 -1.86044 0
M  V30 47049 O 4475.21 0.695418 -1.68731 0
M  V30 47050 C 4475.26 -2.72556 -2.37477 0
M  V30 47051 O 4474.98 -3.99535 -1.79731 0
M  V30 47052 C 4476.48 -2.97622 -3.28536 0
M  V30 47053 H 4473.7 -0.552383 -0.380938 0
M  V30 47054 H 4476.25 -1.96209 -0.576398 0
M  V30 47055 H 4474.4 -2.43313 -3.01459 0
M  V30 47056 H 4474.81 -4.59351 -2.53174 0
M  V30 47057 H 4476.29 -3.77099 -4.03114 0
M  V30 47058 H 4476.77 -2.08273 -3.86677 0
M  V30 47059 H 4477.37 -3.28355 -2.70302 0
M  V30 47060 N 4475.69 0.734288 -1.39449 0
M  V30 47061 C 4476.91 1.52353 -1.39987 0
M  V30 47062 C 4477.33 1.88799 0.00543113 0
M  V30 47063 O 4476.69 1.54149 0.976944 0
M  V30 47064 C 4476.74 2.81064 -2.27343 0
M  V30 47065 O 4476.46 2.46166 -3.62401 0
M  V30 47066 C 4477.96 3.75087 -2.36272 0
M  V30 47067 H 4475.18 0.470789 -0.47812 0
M  V30 47068 H 4477.72 0.907275 -1.83272 0
M  V30 47069 H 4475.88 3.39019 -1.87469 0
M  V30 47070 H 4476.29 3.28852 -4.08603 0
M  V30 47071 H 4477.77 4.62294 -3.01642 0
M  V30 47072 H 4478.24 4.16887 -1.38209 0
M  V30 47073 H 4478.85 3.23051 -2.76619 0
M  V30 47074 N 4477.16 1.24636 0.964549 0
M  V30 47075 C 4478.39 1.11602 1.74814 0
M  V30 47076 C 4478.81 -0.327165 1.85233 0
M  V30 47077 O 4478.17 -1.2369 1.32554 0
M  V30 47078 C 4478.22 1.76408 3.14504 0
M  V30 47079 O 4477.32 1.03699 3.9915 0
M  V30 47080 H 4476.67 0.390215 0.537241 0
M  V30 47081 H 4479.2 1.65006 1.20971 0
M  V30 47082 H 4479.21 1.82292 3.65012 0
M  V30 47083 H 4477.88 2.81411 3.06236 0
M  V30 47084 H 4476.46 1.05623 3.57628 0
M  V30 47085 N 4478.64 -1.1657 1.06062 0
M  V30 47086 C 4479.57 -2.23055 0.690566 0
M  V30 47087 C 4480.55 -1.67142 -0.315842 0
M  V30 47088 O 4481.74 -1.93254 -0.191488 0
M  V30 47089 C 4478.87 -3.47222 0.0737471 0
M  V30 47090 C 4477.82 -4.16012 1.00587 0
M  V30 47091 C 4477.15 -5.34104 0.252477 0
M  V30 47092 C 4478.45 -4.67255 2.33387 0
M  V30 47093 H 4480.14 -2.54265 1.58081 0
M  V30 47094 H 4477.69 -1.22216 0.761533 0
M  V30 47095 H 4479.64 -4.20939 -0.196992 0
M  V30 47096 H 4478.37 -3.15305 -0.851499 0
M  V30 47097 H 4477.02 -3.44218 1.26132 0
M  V30 47098 H 4476.67 -4.98439 -0.675813 0
M  V30 47099 H 4476.37 -5.81069 0.873659 0
M  V30 47100 H 4477.9 -6.10599 -0.010771 0
M  V30 47101 H 4479.31 -5.32566 2.12242 0
M  V30 47102 H 4477.71 -5.24833 2.90982 0
M  V30 47103 H 4478.78 -3.83591 2.96624 0
M  V30 47104 N 4480.12 -0.842873 -1.33167 0
M  V30 47105 C 4481.37 -0.441169 -1.97943 0
M  V30 47106 C 4481.7 0.997965 -1.66596 0
M  V30 47107 O 4480.98 1.69835 -0.947957 0
M  V30 47108 C 4481.26 -0.666965 -3.53869 0
M  V30 47109 C 4481.11 -2.15366 -3.94889 0
M  V30 47110 C 4482.43 -0.115699 -4.39948 0
M  V30 47111 H 4479.55 -0.161765 -0.719028 0
M  V30 47112 H 4482.19 -1.05913 -1.57742 0
M  V30 47113 H 4480.34 -0.140965 -3.88244 0
M  V30 47114 H 4482.01 -2.74483 -3.70751 0
M  V30 47115 H 4480.26 -2.63665 -3.44475 0
M  V30 47116 H 4480.93 -2.26239 -5.03508 0
M  V30 47117 H 4483.4 -0.565358 -4.12241 0
M  V30 47118 H 4482.28 -0.303345 -5.48061 0
M  V30 47119 H 4482.54 0.980783 -4.31084 0
M  V30 47120 N 4481.6 1.45745 -0.599685 0
M  V30 47121 C 4482.53 2.33235 0.111224 0
M  V30 47122 C 4483.51 1.46362 0.866729 0
M  V30 47123 O 4484.7 1.75149 0.838843 0
M  V30 47124 C 4481.83 3.28936 1.11439 0
M  V30 47125 C 4480.78 4.25383 0.472622 0
M  V30 47126 C 4480.11 5.10715 1.58347 0
M  V30 47127 C 4481.41 5.18829 -0.601131 0
M  V30 47128 H 4483.1 2.92925 -0.619293 0
M  V30 47129 H 4480.65 1.40856 -0.299265 0
M  V30 47130 H 4482.6 3.89007 1.62023 0
M  V30 47131 H 4481.32 2.67388 1.8754 0
M  V30 47132 H 4479.98 3.66598 -0.0122761 0
M  V30 47133 H 4479.63 4.45541 2.33457 0
M  V30 47134 H 4479.33 5.76044 1.15961 0
M  V30 47135 H 4480.85 5.73654 2.09173 0
M  V30 47136 H 4482.27 5.73018 -0.179692 0
M  V30 47137 H 4480.66 5.92592 -0.946284 0
M  V30 47138 H 4481.73 4.61735 -1.48084 0
M  V30 47139 N 4483.08 0.338398 1.53924 0
M  V30 47140 C 4484.33 -0.259175 2.00431 0
M  V30 47141 C 4484.65 -1.51479 1.22797 0
M  V30 47142 O 4483.92 -1.93036 0.333747 0
M  V30 47143 H 4482.5 -0.0987585 0.740443 0
M  V30 47144 H 4485.16 0.458368 1.89433 0
M  V30 47145 H 4484.25 -0.505226 3.07984 0
M  V30 47146 N 4484.56 -1.57458 0.0668989 0
M  V30 47147 C 4485.8 -1.92479 -0.602879 0
M  V30 47148 C 4486.12 -0.948479 -1.71065 0
M  V30 47149 O 4487.32 -1.19133 -2.43966 0
M  V30 47150 C 4485.78 -3.41907 -1.12371 0
M  V30 47151 C 4485.39 -4.47975 -0.0472125 0
M  V30 47152 C 4487.13 -3.85938 -1.76784 0
M  V30 47153 C 4485.04 -5.88531 -0.581815 0
M  V30 47154 H 4483.97 -0.718395 -0.228965 0
M  V30 47155 H 4486.62 -1.82978 0.13834 0
M  V30 47156 H 4485 -3.46466 -1.91774 0
M  V30 47157 H 4486.18 -4.55027 0.727138 0
M  V30 47158 H 4484.49 -4.13382 0.500389 0
M  V30 47159 H 4487.09 -4.88329 -2.17804 0
M  V30 47160 H 4487.43 -3.23038 -2.62587 0
M  V30 47161 H 4487.96 -3.83962 -1.0401 0
M  V30 47162 H 4484.7 -6.55064 0.238951 0
M  V30 47163 H 4484.22 -5.85009 -1.3238 0
M  V30 47164 H 4485.9 -6.38262 -1.05977 0
M  V30 47165 N 4486.03 0.20662 -1.5624 0
M  V30 47166 C 4487.28 0.926944 -1.79589 0
M  V30 47167 C 4487.6 1.84268 -0.637994 0
M  V30 47168 O 4486.87 1.9285 0.34433 0
M  V30 47169 H 4485.45 0.345269 -0.662419 0
M  V30 47170 H 4488.11 0.214892 -1.93712 0
M  V30 47171 H 4487.21 1.52491 -2.7231 0
M  V30 47172 N 4487.51 1.50306 0.473902 0
M  V30 47173 C 4488.44 1.71892 1.58036 0
M  V30 47174 C 4489.42 0.567855 1.60342 0
M  V30 47175 O 4490.61 0.806685 1.76653 0
M  V30 47176 C 4487.74 1.81047 2.96377 0
M  V30 47177 C 4486.69 2.96211 3.08938 0
M  V30 47178 C 4486.02 2.90506 4.48899 0
M  V30 47179 C 4487.32 4.36762 2.86419 0
M  V30 47180 H 4489.01 2.64532 1.40225 0
M  V30 47181 H 4486.56 1.27297 0.673156 0
M  V30 47182 H 4488.51 1.94732 3.73708 0
M  V30 47183 H 4487.23 0.850258 3.15338 0
M  V30 47184 H 4485.89 2.82172 2.3404 0
M  V30 47185 H 4485.54 1.92337 4.64775 0
M  V30 47186 H 4485.24 3.67818 4.5824 0
M  V30 47187 H 4486.77 3.06236 5.28253 0
M  V30 47188 H 4488.18 4.51342 3.53501 0
M  V30 47189 H 4486.58 5.15503 3.07207 0
M  V30 47190 H 4487.65 4.49327 1.823 0
M  V30 47191 N 4488.99 -0.726883 1.39836 0
M  V30 47192 C 4490.23 -1.49915 1.38942 0
M  V30 47193 C 4490.59 -1.91996 -0.0126208 0
M  V30 47194 O 4491.79 -2.684 -0.14662 0
M  V30 47195 C 4490.07 -2.70005 2.34163 0
M  V30 47196 S 4491.62 -3.59554 2.51528 0
M  V30 47197 H 4488.44 -0.512693 0.492613 0
M  V30 47198 H 4491.04 -0.851008 1.76006 0
M  V30 47199 H 4489.75 -2.37243 3.34879 0
M  V30 47200 H 4489.28 -3.39741 1.98343 0
M  V30 47201 H 4491.29 -4.63966 1.75925 0
M  V30 47202 N 4490.47 -1.25146 -0.957926 0
M  V30 47203 C 4491.43 -1.05328 -2.03565 0
M  V30 47204 C 4492.43 -0.00720853 -1.60798 0
M  V30 47205 O 4493.62 -0.249091 -1.7241 0
M  V30 47206 C 4490.75 -0.598512 -3.35605 0
M  V30 47207 H 4491.95 -2.00994 -2.22579 0
M  V30 47208 H 4489.5 -1.07506 -1.13455 0
M  V30 47209 H 4490.23 0.360901 -3.22286 0
M  V30 47210 H 4490.02 -1.35364 -3.67993 0
M  V30 47211 H 4491.51 -0.481186 -4.14818 0
M  V30 47212 N 4491.95 1.16006 -1.06679 0
M  V30 47213 C 4493.19 1.8663 -0.785847 0
M  V30 47214 C 4493.52 1.81932 0.687832 0
M  V30 47215 O 4492.78 1.23258 1.52006 0
M  V30 47216 C 4493.07 3.35543 -1.23068 0
M  V30 47217 C 4492.74 3.60439 -2.70914 0
M  V30 47218 C 4491.4 3.66943 -3.11298 0
M  V30 47219 C 4493.75 3.70697 -3.66378 0
M  V30 47220 C 4491.08 3.81209 -4.45978 0
M  V30 47221 C 4493.43 3.86485 -5.00811 0
M  V30 47222 C 4492.1 3.91233 -5.40827 0
M  V30 47223 H 4491.37 0.682927 -0.287562 0
M  V30 47224 H 4494.02 1.37141 -1.33659 0
M  V30 47225 H 4492.32 3.87191 -0.599206 0
M  V30 47226 H 4494.02 3.8858 -0.9903 0
M  V30 47227 H 4490.61 3.56013 -2.38648 0
M  V30 47228 H 4494.79 3.64979 -3.36309 0
M  V30 47229 H 4490.05 3.83139 -4.76461 0
M  V30 47230 H 4494.22 3.93365 -5.74663 0
M  V30 47231 H 4491.85 4.0204 -6.45189 0
M  V30 47232 N 4493.42 0.849923 1.32718 0
M  V30 47233 C 4494.35 0.30639 2.31481 0
M  V30 47234 C 4495.33 -0.591896 1.5947 0
M  V30 47235 O 4496.52 -0.513133 1.87298 0
M  V30 47236 C 4493.65 -0.510084 3.43534 0
M  V30 47237 C 4492.6 0.293359 4.26993 0
M  V30 47238 C 4491.93 -0.647556 5.30764 0
M  V30 47239 C 4493.23 1.51651 4.99799 0
M  V30 47240 H 4494.92 1.13162 2.77191 0
M  V30 47241 H 4492.47 0.5456 1.33264 0
M  V30 47242 H 4494.42 -0.900711 4.11661 0
M  V30 47243 H 4493.15 -1.36863 2.9654 0
M  V30 47244 H 4491.81 0.665682 3.60506 0
M  V30 47245 H 4491.45 -1.50282 4.80025 0
M  V30 47246 H 4491.15 -0.114013 5.87489 0
M  V30 47247 H 4492.68 -1.03546 6.01756 0
M  V30 47248 H 4494.09 1.19844 5.60634 0
M  V30 47249 H 4492.49 1.98765 5.66227 0
M  V30 47250 H 4493.56 2.28033 4.27935 0
M  V30 47251 N 4494.9 -1.45425 0.607406 0
M  V30 47252 C 4496.13 -2.06613 0.108886 0
M  V30 47253 C 4496.55 -1.45208 -1.20665 0
M  V30 47254 O 4495.9 -0.566193 -1.73495 0
M  V30 47255 C 4495.95 -3.61481 -0.0374077 0
M  V30 47256 O 4495.67 -4.20593 1.22608 0
M  V30 47257 C 4497.18 -4.39654 -0.567406 0
M  V30 47258 H 4494.4 -0.667468 0.0687585 0
M  V30 47259 H 4496.94 -1.86672 0.835087 0
M  V30 47260 H 4495.09 -3.80765 -0.713934 0
M  V30 47261 H 4495.51 -5.13767 1.05565 0
M  V30 47262 H 4496.98 -5.4852 -0.618858 0
M  V30 47263 H 4497.46 -4.09423 -1.58964 0
M  V30 47264 H 4498.07 -4.25234 0.0750697 0
M  V30 47265 N 4496.38 -0.346557 -1.53742 0
M  V30 47266 C 4497.31 0.501113 -2.28059 0
M  V30 47267 C 4498.29 1.10009 -1.29738 0
M  V30 47268 O 4499.48 1.12092 -1.58585 0
M  V30 47269 C 4496.61 1.65068 -3.05565 0
M  V30 47270 C 4495.56 1.17989 -4.11415 0
M  V30 47271 C 4494.89 2.41821 -4.76893 0
M  V30 47272 C 4496.19 0.278211 -5.21559 0
M  V30 47273 H 4497.88 -0.118855 -2.99164 0
M  V30 47274 H 4495.43 -0.0586037 -1.43881 0
M  V30 47275 H 4497.38 2.25016 -3.56295 0
M  V30 47276 H 4496.1 2.29759 -2.32117 0
M  V30 47277 H 4494.76 0.603204 -3.61603 0
M  V30 47278 H 4494.41 3.04926 -4.00037 0
M  V30 47279 H 4494.11 2.11001 -5.48409 0
M  V30 47280 H 4495.63 3.02489 -5.30408 0
M  V30 47281 H 4497.05 0.784623 -5.67905 0
M  V30 47282 H 4495.45 0.0617598 -6.00068 0
M  V30 47283 H 4496.52 -0.684846 -4.80039 0
M  V30 47284 N 4497.86 1.5742 -0.0752483 0
M  V30 47285 C 4498.79 2.15945 0.888248 0
M  V30 47286 C 4499.77 1.08741 1.30803 0
M  V30 47287 O 4500.95 1.36792 1.37846 0
M  V30 47288 C 4498.08 2.72386 2.1546 0
M  V30 47289 C 4497.04 3.84787 1.87411 0
M  V30 47290 C 4496.36 4.27845 3.20706 0
M  V30 47291 C 4497.66 5.08873 1.17666 0
M  V30 47292 H 4499.36 2.96707 0.400695 0
M  V30 47293 H 4496.9 1.42724 0.191292 0
M  V30 47294 H 4498.86 3.11975 2.83284 0
M  V30 47295 H 4497.58 1.88851 2.66464 0
M  V30 47296 H 4496.24 3.45707 1.21992 0
M  V30 47297 H 4495.89 3.41227 3.69558 0
M  V30 47298 H 4495.59 5.03616 3.02729 0
M  V30 47299 H 4497.11 4.70053 3.89721 0
M  V30 47300 H 4498.53 5.45756 1.75564 0
M  V30 47301 H 4496.92 5.89944 1.09935 0
M  V30 47302 H 4497.99 4.84648 0.156283 0
M  V30 47303 N 4499.34 -0.198331 1.56347 0
M  V30 47304 C 4500.58 -0.919223 1.80434 0
M  V30 47305 C 4500.91 -1.83391 0.64793 0
M  V30 47306 O 4500.17 -1.92238 -0.366488 0
M  V30 47307 C 4500.47 -1.7702 3.10481 0
M  V30 47308 C 4500.13 -1.00677 4.39517 0
M  V30 47309 C 4498.79 -0.795978 4.74571 0
M  V30 47310 C 4501.15 -0.469377 5.19082 0
M  V30 47311 C 4498.47 -0.0362526 5.86689 0
M  V30 47312 C 4500.83 0.277122 6.31993 0
M  V30 47313 C 4499.49 0.498964 6.65632 0
M  V30 47314 H 4498.76 -0.336367 0.660256 0
M  V30 47315 H 4501.41 -0.185805 1.90596 0
M  V30 47316 H 4499.71 -2.5722 2.95542 0
M  V30 47317 H 4501.41 -2.33054 3.26324 0
M  V30 47318 H 4498 -1.18108 4.12005 0
M  V30 47319 H 4502.18 -0.619643 4.92417 0
M  V30 47320 H 4497.44 0.145627 6.11227 0
M  V30 47321 H 4501.61 0.700928 6.92864 0
M  V30 47322 H 4499.24 1.08956 7.52351 0
M  V30 47323 N 4500.81 -1.50555 -0.465925 0
M  V30 47324 C 4502.04 -1.65327 -1.23897 0
M  V30 47325 C 4502.45 -0.338116 -1.86154 0
M  V30 47326 O 4501.8 0.690458 -1.7023 0
M  V30 47327 C 4501.86 -2.69056 -2.3843 0
M  V30 47328 C 4501.52 -4.12469 -1.9677 0
M  V30 47329 C 4502.52 -4.98173 -1.48728 0
M  V30 47330 C 4500.2 -4.58414 -2.05333 0
M  V30 47331 C 4502.2 -6.27872 -1.09798 0
M  V30 47332 C 4499.88 -5.88118 -1.66015 0
M  V30 47333 C 4500.88 -6.72672 -1.18326 0
M  V30 47334 O 4500.57 -7.99954 -0.795544 0
M  V30 47335 H 4500.3 -0.558642 -0.38065 0
M  V30 47336 H 4502.86 -1.97563 -0.561953 0
M  V30 47337 H 4501.09 -2.32073 -3.0932 0
M  V30 47338 H 4502.78 -2.72995 -3.0038 0
M  V30 47339 H 4503.54 -4.6389 -1.4153 0
M  V30 47340 H 4499.42 -3.92743 -2.414 0
M  V30 47341 H 4502.96 -6.93822 -0.725049 0
M  V30 47342 H 4498.86 -6.2192 -1.72874 0
M  V30 47343 H 4499.63 -8.13269 -0.923936 0
M  V30 47344 N 4502.29 0.719457 -1.4022 0
M  V30 47345 C 4503.52 1.50641 -1.41389 0
M  V30 47346 C 4503.93 1.89197 -0.0108409 0
M  V30 47347 O 4503.27 1.55712 0.974653 0
M  V30 47348 C 4503.34 2.81397 -2.23732 0
M  V30 47349 C 4503 2.65186 -3.7219 0
M  V30 47350 C 4504 2.32701 -4.64915 0
M  V30 47351 C 4501.68 2.81571 -4.1596 0
M  V30 47352 C 4503.68 2.16806 -5.99395 0
M  V30 47353 C 4501.36 2.65294 -5.50511 0
M  V30 47354 C 4502.36 2.32958 -6.42043 0
M  V30 47355 O 4502.05 2.168 -7.74114 0
M  V30 47356 H 4501.78 0.471589 -0.484334 0
M  V30 47357 H 4504.33 0.895391 -1.84856 0
M  V30 47358 H 4502.56 3.44817 -1.75038 0
M  V30 47359 H 4504.25 3.43094 -2.1689 0
M  V30 47360 H 4505.02 2.19679 -4.32396 0
M  V30 47361 H 4500.9 3.05728 -3.45038 0
M  V30 47362 H 4504.44 1.91489 -6.70804 0
M  V30 47363 H 4500.34 2.77899 -5.82617 0
M  V30 47364 H 4501.11 2.3175 -7.85006 0
M  V30 47365 N 4503.77 1.25652 0.951275 0
M  V30 47366 C 4505.02 1.09994 1.69069 0
M  V30 47367 C 4505.33 -0.358288 1.92291 0
M  V30 47368 O 4506.54 -0.635373 2.63961 0
M  V30 47369 C 4504.99 1.92023 3.04393 0
M  V30 47370 C 4504.6 3.42358 2.88955 0
M  V30 47371 C 4506.35 1.84943 3.82095 0
M  V30 47372 C 4504.25 4.1667 4.19691 0
M  V30 47373 H 4503.18 0.408016 0.634066 0
M  V30 47374 H 4505.83 1.49877 1.05873 0
M  V30 47375 H 4504.22 1.44965 3.68512 0
M  V30 47376 H 4505.39 3.97112 2.33748 0
M  V30 47377 H 4503.71 3.50565 2.24706 0
M  V30 47378 H 4506.3 2.37756 4.78932 0
M  V30 47379 H 4506.65 0.818026 4.08184 0
M  V30 47380 H 4507.18 2.29769 3.24732 0
M  V30 47381 H 4503.92 5.20238 3.98789 0
M  V30 47382 H 4503.44 3.66698 4.7465 0
M  V30 47383 H 4505.12 4.24568 4.88212 0
M  V30 47384 N 4505.25 -1.15438 1.07293 0
M  V30 47385 C 4506.2 -2.22222 0.68703 0
M  V30 47386 C 4507.19 -1.66689 -0.301872 0
M  V30 47387 O 4508.4 -1.79236 -0.165649 0
M  V30 47388 H 4504.77 -0.723776 0.204089 0
M  V30 47389 H 4506.74 -2.5205 1.59728 0
M  V30 47390 C 4505.49 -3.47555 0.100272 0
M  V30 47391 H 4504.81 -3.90609 0.852348 0
M  V30 47392 H 4506.25 -4.23794 -0.132086 0
M  V30 47393 C 4504.71 -3.16341 -1.15889 0
M  V30 47394 O 4505.24 -3.33082 -2.24543 0
M  V30 47395 N 4503.45 -2.70389 -1.06481 0
M  V30 47396 H 4503 -2.56966 -0.180577 0
M  V30 47397 H 4502.95 -2.49878 -1.9081 0
M  V30 47398 N 4506.73 -0.85695 -1.32265 0
M  V30 47399 C 4507.67 -0.301253 -2.28825 0
M  V30 47400 C 4508.64 0.59305 -1.55152 0
M  V30 47401 O 4509.83 0.527472 -1.83364 0
M  V30 47402 C 4506.97 0.502403 -3.41423 0
M  V30 47403 C 4506.08 -0.417948 -4.29973 0
M  V30 47404 C 4505.22 0.398562 -5.29703 0
M  V30 47405 C 4504.26 -0.519042 -6.09895 0
M  V30 47406 N 4503.39 0.260427 -7.01617 0
M  V30 47407 H 4508.23 -1.12993 -2.75747 0
M  V30 47408 H 4505.77 -0.56863 -1.35665 0
M  V30 47409 H 4507.73 0.983999 -4.0543 0
M  V30 47410 H 4506.36 1.29589 -2.95646 0
M  V30 47411 H 4505.41 -1.01794 -3.66527 0
M  V30 47412 H 4506.72 -1.12209 -4.86015 0
M  V30 47413 H 4505.88 0.943224 -5.99323 0
M  V30 47414 H 4504.61 1.13605 -4.74284 0
M  V30 47415 H 4503.62 -1.07557 -5.39177 0
M  V30 47416 H 4504.84 -1.25518 -6.67399 0
M  V30 47417 H 4502.79 0.98097 -6.48624 0
M  V30 47418 H 4502.71 -0.384629 -7.55021 0
M  V30 47419 H 4503.98 0.786742 -7.7552 0
M  V30 47420 N 4508.2 1.45101 -0.61511 0
M  V30 47421 C 4509.45 2.02483 -0.113418 0
M  V30 47422 C 4509.78 1.48151 1.25559 0
M  V30 47423 O 4509.06 0.659168 1.8299 0
M  V30 47424 C 4509.34 3.60005 -0.0826543 0
M  V30 47425 C 4509.19 4.24654 -1.48286 0
M  V30 47426 C 4510.51 4.35974 0.601248 0
M  V30 47427 H 4507.63 0.735763 -0.0426891 0
M  V30 47428 H 4510.27 1.72865 -0.788521 0
M  V30 47429 H 4508.42 3.85369 0.492242 0
M  V30 47430 H 4510.1 4.10451 -2.10541 0
M  V30 47431 H 4508.34 3.82765 -2.0414 0
M  V30 47432 H 4509.01 5.33595 -1.41351 0
M  V30 47433 H 4511.49 4.15948 0.11252 0
M  V30 47434 H 4510.36 5.45699 0.591905 0
M  V30 47435 H 4510.62 4.09397 1.66872 0
M  V30 47436 N 4509.68 0.354705 1.53557 0
M  V30 47437 C 4510.63 -0.496889 2.25388 0
M  V30 47438 C 4511.6 -1.08646 1.2564 0
M  V30 47439 O 4512.79 -1.12098 1.54397 0
M  V30 47440 C 4509.93 -1.63626 3.03843 0
M  V30 47441 C 4509.04 -1.07292 4.18464 0
M  V30 47442 C 4508.17 -2.18051 4.84383 0
M  V30 47443 C 4507.21 -1.59126 5.91054 0
M  V30 47444 N 4506.35 -2.63673 6.50708 0
M  V30 47445 H 4511.19 0.12218 2.97749 0
M  V30 47446 H 4508.73 0.0720671 1.46923 0
M  V30 47447 H 4510.68 -2.30721 3.47597 0
M  V30 47448 H 4509.31 -2.22615 2.33757 0
M  V30 47449 H 4508.37 -0.292575 3.79273 0
M  V30 47450 H 4509.68 -0.602019 4.95154 0
M  V30 47451 H 4508.83 -2.92989 5.31265 0
M  V30 47452 H 4507.57 -2.68489 4.07142 0
M  V30 47453 H 4506.58 -0.826984 5.43545 0
M  V30 47454 H 4507.8 -1.09526 6.7021 0
M  V30 47455 H 4505.75 -3.13345 5.76326 0
M  V30 47456 H 4505.66 -2.21237 7.22904 0
M  V30 47457 H 4506.93 -3.38345 7.02241 0
M  V30 47458 N 4511.16 -1.57378 0.0835957 0
M  V30 47459 C 4512.58 -1.57247 -0.273054 0
M  V30 47460 C 4512.78 -1.09391 -1.69222 0
M  V30 47461 O 4511.83 -0.765135 -2.40628 0
M  V30 47462 C 4513.15 -3.00614 -0.0719572 0
M  V30 47463 C 4514.69 -3.12684 -0.14059 0
M  V30 47464 C 4515.17 -4.57989 0.0323704 0
M  V30 47465 N 4516.66 -4.63194 -0.0228457 0
M  V30 47466 C 4517.4 -5.73335 0.0863957 0
M  V30 47467 N 4516.89 -6.92349 0.249824 0
M  V30 47468 N 4518.68 -5.62093 0.0284862 0
M  V30 47469 H 4510.84 -1.86798 1.01096 0
M  V30 47470 H 4513.1 -0.861673 0.395252 0
M  V30 47471 H 4512.8 -3.39783 0.907781 0
M  V30 47472 H 4512.68 -3.68196 -0.819231 0
M  V30 47473 H 4515.07 -2.73395 -1.11082 0
M  V30 47474 H 4515.15 -2.47716 0.637983 0
M  V30 47475 H 4514.79 -4.9797 0.999422 0
M  V30 47476 H 4514.72 -5.21003 -0.765754 0
M  V30 47477 H 4517.21 -3.77614 -0.147087 0
M  V30 47478 H 4517.52 -7.72116 0.325004 0
M  V30 47479 H 4515.87 -6.94414 0.285341 0
M  V30 47480 H 4519.06 -4.67997 -0.0979763 0
M  V30 47481 H 4519.23 -6.47894 0.117073 0
M  V30 47482 N 4512.64 0.190037 -1.5645 0
M  V30 47483 C 4513.6 1.21918 -1.94084 0
M  V30 47484 C 4514.6 1.38173 -0.82248 0
M  V30 47485 O 4515.79 1.35899 -1.08982 0
M  V30 47486 C 4512.92 2.58765 -2.21931 0
M  V30 47487 H 4514.12 0.897363 -2.8616 0
M  V30 47488 H 4511.67 0.431757 -1.50218 0
M  V30 47489 H 4512.41 2.95993 -1.32509 0
M  V30 47490 H 4512.19 2.48337 -3.03432 0
M  V30 47491 H 4513.68 3.32969 -2.52034 0
M  V30 47492 N 4514.12 1.508 0.457934 0
M  V30 47493 C 4515.36 1.62446 1.20903 0
M  V30 47494 C 4515.69 0.330932 1.91664 0
M  V30 47495 O 4514.95 -0.683945 1.83359 0
M  V30 47496 C 4515.25 2.76365 2.26621 0
M  V30 47497 C 4514.91 4.16384 1.73019 0
M  V30 47498 C 4513.57 4.54479 1.58122 0
M  V30 47499 C 4515.93 5.0384 1.33396 0
M  V30 47500 C 4513.25 5.77757 1.02045 0
M  V30 47501 C 4515.61 6.27678 0.787559 0
M  V30 47502 C 4514.27 6.64564 0.625327 0
M  V30 47503 H 4513.54 0.594433 0.442415 0
M  V30 47504 H 4516.19 1.84774 0.503071 0
M  V30 47505 H 4514.49 2.48178 3.03175 0
M  V30 47506 H 4516.19 2.82578 2.84518 0
M  V30 47507 H 4512.78 3.86337 1.85584 0
M  V30 47508 H 4516.96 4.75031 1.43734 0
M  V30 47509 H 4512.22 6.05 0.882335 0
M  V30 47510 H 4516.39 6.94799 0.471933 0
M  V30 47511 H 4514.02 7.59966 0.188659 0
M  V30 47512 N 4515.6 -0.71201 1.40599 0
M  V30 47513 C 4516.56 -1.8078 1.40894 0
M  V30 47514 C 4517.56 -1.57936 0.302158 0
M  V30 47515 O 4518.75 -1.64911 0.56124 0
M  V30 47516 C 4515.88 -3.18923 1.2042 0
M  V30 47517 H 4517.07 -1.81916 2.38425 0
M  V30 47518 H 4514.63 -0.918006 1.265 0
M  V30 47519 H 4515.36 -3.23436 0.236636 0
M  V30 47520 H 4515.15 -3.36904 2.00594 0
M  V30 47521 H 4516.64 -3.98944 1.23422 0
M  V30 47522 N 4517.07 -1.26155 -0.944598 0
M  V30 47523 C 4518.35 -1.02253 -1.66745 0
M  V30 47524 C 4518.73 0.448129 -2.06289 0
M  V30 47525 O 4518.08 1.42773 -1.78404 0
M  V30 47526 C 4518.29 -1.96798 -2.88221 0
M  V30 47527 C 4519.64 -2.25214 -3.5995 0
M  V30 47528 O 4520.66 -1.94637 -2.9832 0
M  V30 47529 O 4519.52 -2.77259 -4.70946 0
M  V30 47530 H 4516.61 -0.388543 -0.730043 0
M  V30 47531 H 4519.16 -1.37351 -0.996632 0
M  V30 47532 H 4517.93 -2.96055 -2.55865 0
M  V30 47533 H 4517.55 -1.62158 -3.6303 0
M  V30 47534 N 4518.55 1.14868 -1.07903 0
M  V30 47535 C 4519.78 1.89383 -0.825697 0
M  V30 47536 C 4520.19 1.78567 0.625343 0
M  V30 47537 O 4519.53 1.13923 1.44109 0
M  V30 47538 C 4519.59 3.40202 -1.16203 0
M  V30 47539 C 4519.26 3.74803 -2.6148 0
M  V30 47540 C 4520.26 3.75354 -3.59729 0
M  V30 47541 C 4517.94 4.04939 -2.97203 0
M  V30 47542 C 4519.93 4.05557 -4.91734 0
M  V30 47543 C 4517.62 4.34806 -4.29403 0
M  V30 47544 C 4518.62 4.35097 -5.26478 0
M  V30 47545 O 4518.31 4.64244 -6.56302 0
M  V30 47546 H 4518.04 0.606884 -0.297772 0
M  V30 47547 H 4520.59 1.46433 -1.44036 0
M  V30 47548 H 4518.82 3.83579 -0.490349 0
M  V30 47549 H 4520.51 3.96015 -0.890332 0
M  V30 47550 H 4521.28 3.52164 -3.33474 0
M  V30 47551 H 4517.16 4.03868 -2.22287 0
M  V30 47552 H 4520.7 4.05699 -5.67498 0
M  V30 47553 H 4516.6 4.57464 -4.55408 0
M  V30 47554 H 4517.37 4.81984 -6.61539 0
M  V30 47555 N 4520.03 0.863952 1.31809 0
M  V30 47556 C 4521.26 0.486182 2.01107 0
M  V30 47557 C 4521.67 -0.919697 1.64885 0
M  V30 47558 O 4521.03 -1.60159 0.874949 0
M  V30 47559 C 4521.08 0.62656 3.56029 0
M  V30 47560 O 4520.8 1.97707 3.90952 0
M  V30 47561 C 4522.3 0.249013 4.426 0
M  V30 47562 H 4519.52 0.190074 0.643516 0
M  V30 47563 H 4522.07 1.16346 1.68178 0
M  V30 47564 H 4520.22 -0.00309098 3.874 0
M  V30 47565 H 4520.64 1.98051 4.85671 0
M  V30 47566 H 4522.11 0.39821 5.50562 0
M  V30 47567 H 4522.59 -0.811337 4.31641 0
M  V30 47568 H 4523.19 0.854118 4.16635 0
M  V30 47569 N 4521.51 -1.44772 0.622796 0
M  V30 47570 C 4522.44 -2.28857 -0.125405 0
M  V30 47571 C 4523.45 -1.40814 -0.817019 0
M  V30 47572 O 4524.64 -1.65046 -0.67986 0
M  V30 47573 C 4521.74 -3.16967 -1.19938 0
M  V30 47574 C 4520.91 -4.33376 -0.591912 0
M  V30 47575 C 4519.97 -5.02583 -1.55875 0
M  V30 47576 O 4519 -5.58877 -1.07913 0
M  V30 47577 N 4520.2 -5.03266 -2.89316 0
M  V30 47578 H 4522.97 -2.93711 0.596171 0
M  V30 47579 H 4520.53 -1.55128 0.463358 0
M  V30 47580 H 4522.52 -3.60129 -1.84632 0
M  V30 47581 H 4521.09 -2.53919 -1.82328 0
M  V30 47582 H 4520.31 -3.93508 0.23346 0
M  V30 47583 H 4521.6 -5.08527 -0.166559 0
M  V30 47584 H 4521 -4.58847 -3.30871 0
M  V30 47585 H 4519.55 -5.50244 -3.49392 0
M  V30 47586 N 4522.99 -0.362844 -1.53366 0
M  V30 47587 C 4524.23 0.22781 -2.03127 0
M  V30 47588 C 4524.59 1.46216 -1.24439 0
M  V30 47589 O 4525.79 2.12825 -1.64192 0
M  V30 47590 C 4524.06 0.515303 -3.53666 0
M  V30 47591 S 4525.62 1.08002 -4.25301 0
M  V30 47592 H 4522.44 0.0665128 -0.707882 0
M  V30 47593 H 4525.04 -0.505076 -1.88863 0
M  V30 47594 H 4523.74 -0.39058 -4.08537 0
M  V30 47595 H 4523.28 1.27734 -3.72086 0
M  V30 47596 H 4525.29 2.36446 -4.36243 0
M  V30 47597 N 4524.46 1.57332 -0.0919406 0
M  V30 47598 C 4525.43 2.12711 0.853616 0
M  V30 47599 C 4526.43 1.05565 1.21296 0
M  V30 47600 O 4527.62 1.31465 1.14291 0
M  V30 47601 C 4524.75 2.6451 2.15052 0
M  V30 47602 H 4525.94 2.97574 0.372795 0
M  V30 47603 H 4523.5 1.55509 0.157018 0
M  V30 47604 H 4524.23 1.83158 2.67626 0
M  V30 47605 H 4524.02 3.42846 1.9026 0
M  V30 47606 H 4525.51 3.07361 2.827 0
M  V30 47607 N 4525.94 -0.181737 1.56549 0
M  V30 47608 C 4527.19 -0.901367 1.81668 0
M  V30 47609 C 4527.52 -1.82345 0.668139 0
M  V30 47610 O 4526.8 -1.91671 -0.330548 0
M  V30 47611 C 4527.08 -1.70606 3.17121 0
M  V30 47612 C 4526.93 -0.807809 4.42487 0
M  V30 47613 C 4528.25 -2.67593 3.49403 0
M  V30 47614 H 4525.37 -0.326247 0.660857 0
M  V30 47615 H 4528.01 -0.168068 1.89255 0
M  V30 47616 H 4526.16 -2.33122 3.10783 0
M  V30 47617 H 4527.83 -0.196328 4.60882 0
M  V30 47618 H 4526.08 -0.115258 4.33647 0
M  V30 47619 H 4526.75 -1.40613 5.3379 0
M  V30 47620 H 4529.22 -2.15206 3.56126 0
M  V30 47621 H 4528.1 -3.2097 4.45275 0
M  V30 47622 H 4528.36 -3.47288 2.73575 0
M  V30 47623 N 4527.42 -1.51041 -0.44993 0
M  V30 47624 C 4528.67 -1.62321 -1.19728 0
M  V30 47625 C 4528.98 -0.339169 -1.92637 0
M  V30 47626 O 4530.19 -0.331164 -2.69473 0
M  V30 47627 C 4528.64 -2.86616 -2.17668 0
M  V30 47628 C 4528.25 -4.21977 -1.50464 0
M  V30 47629 C 4530 -3.07249 -2.92913 0
M  V30 47630 C 4527.9 -5.37435 -2.46815 0
M  V30 47631 H 4526.83 -0.604548 -0.450598 0
M  V30 47632 H 4529.48 -1.77496 -0.465562 0
M  V30 47633 H 4527.87 -2.65047 -2.94221 0
M  V30 47634 H 4529.04 -4.53881 -0.795557 0
M  V30 47635 H 4527.36 -4.0712 -0.874201 0
M  V30 47636 H 4529.95 -3.90681 -3.65065 0
M  V30 47637 H 4530.3 -2.19819 -3.53532 0
M  V30 47638 H 4530.83 -3.29099 -2.2347 0
M  V30 47639 H 4527.57 -6.27085 -1.90904 0
M  V30 47640 H 4527.09 -5.09923 -3.15814 0
M  V30 47641 H 4528.77 -5.68873 -3.08208 0
M  V30 47642 N 4528.9 0.704544 -1.40975 0
M  V30 47643 C 4529.86 1.8003 -1.41851 0
M  V30 47644 C 4530.86 1.57773 -0.31053 0
M  V30 47645 O 4532.05 1.64611 -0.569978 0
M  V30 47646 C 4529.18 3.1828 -1.22109 0
M  V30 47647 H 4530.38 1.80649 -2.39387 0
M  V30 47648 H 4527.93 0.911284 -1.26985 0
M  V30 47649 H 4528.66 3.23305 -0.253785 0
M  V30 47650 H 4528.45 3.35836 -2.02378 0
M  V30 47651 H 4529.94 3.98284 -1.25536 0
M  V30 47652 N 4530.38 1.26654 0.937895 0
M  V30 47653 C 4531.62 1.12559 1.68696 0
M  V30 47654 C 4531.96 -0.329714 1.91381 0
M  V30 47655 O 4531.23 -1.24197 1.49684 0
M  V30 47656 C 4531.51 1.89872 3.05975 0
M  V30 47657 C 4531.37 3.43329 2.90595 0
M  V30 47658 C 4532.69 1.69514 4.06144 0
M  V30 47659 H 4529.8 0.410279 0.612242 0
M  V30 47660 H 4532.45 1.55689 1.08908 0
M  V30 47661 H 4530.6 1.53217 3.57011 0
M  V30 47662 H 4532.27 3.89756 2.46755 0
M  V30 47663 H 4530.51 3.70187 2.26151 0
M  V30 47664 H 4531.18 3.92656 3.87976 0
M  V30 47665 H 4533.66 2.01455 3.64081 0
M  V30 47666 H 4532.53 2.26019 5.00207 0
M  V30 47667 H 4532.8 0.640519 4.37435 0
M  V30 47668 N 4531.85 -1.14294 1.08511 0
M  V30 47669 C 4533.1 -1.85631 0.816647 0
M  V30 47670 C 4533.43 -1.82786 -0.655957 0
M  V30 47671 O 4532.71 -1.25931 -1.48229 0
M  V30 47672 C 4532.99 -3.34218 1.34053 0
M  V30 47673 C 4532.84 -3.45629 2.87855 0
M  V30 47674 C 4534.16 -4.29353 0.966651 0
M  V30 47675 H 4531.28 -0.674009 0.298128 0
M  V30 47676 H 4533.92 -1.34209 1.34491 0
M  V30 47677 H 4532.07 -3.78141 0.891173 0
M  V30 47678 H 4533.75 -3.10486 3.41169 0
M  V30 47679 H 4531.99 -2.86806 3.25461 0
M  V30 47680 H 4532.66 -4.50078 3.19584 0
M  V30 47681 H 4535.14 -3.93452 1.35405 0
M  V30 47682 H 4534.01 -5.31775 1.36039 0
M  V30 47683 H 4534.27 -4.4192 -0.126207 0
M  V30 47684 N 4533.33 -0.87093 -1.31349 0
M  V30 47685 C 4534.3 -0.332323 -2.26778 0
M  V30 47686 C 4535.3 0.517248 -1.52254 0
M  V30 47687 O 4536.49 0.326417 -1.71114 0
M  V30 47688 C 4533.62 0.527948 -3.36787 0
M  V30 47689 H 4534.81 -1.17478 -2.75933 0
M  V30 47690 H 4532.36 -0.6466 -1.42298 0
M  V30 47691 H 4533.1 1.39157 -2.92926 0
M  V30 47692 H 4532.88 -0.080396 -3.92018 0
M  V30 47693 H 4534.37 0.897036 -4.07852 0
M  V30 47694 N 4534.81 1.4444 -0.630465 0
M  V30 47695 C 4535.77 2.29107 0.0651718 0
M  V30 47696 C 4536.77 1.41004 0.772945 0
M  V30 47697 O 4537.96 1.62883 0.617635 0
M  V30 47698 C 4535.1 3.22568 1.10285 0
M  V30 47699 H 4536.29 2.92101 -0.679504 0
M  V30 47700 H 4533.84 1.51341 -0.390571 0
M  V30 47701 H 4534.58 2.64423 1.87753 0
M  V30 47702 H 4534.36 3.87493 0.599274 0
M  V30 47703 H 4535.85 3.86172 1.58936 0
M  V30 47704 N 4536.29 0.370972 1.53172 0
M  V30 47705 C 4537.53 -0.217352 2.01632 0
M  V30 47706 C 4537.87 -1.47979 1.25762 0
M  V30 47707 O 4537.14 -1.91273 0.352832 0
M  V30 47708 C 4537.43 -0.503857 3.56558 0
M  V30 47709 C 4537.28 0.772586 4.43115 0
M  V30 47710 C 4538.6 -1.30219 4.20394 0
M  V30 47711 H 4535.72 -0.0775228 0.732911 0
M  V30 47712 H 4538.36 0.496927 1.83387 0
M  V30 47713 H 4536.51 -1.11235 3.72235 0
M  V30 47714 H 4538.18 1.40995 4.39224 0
M  V30 47715 H 4536.42 1.39181 4.10866 0
M  V30 47716 H 4537.09 0.527008 5.49479 0
M  V30 47717 H 4539.57 -0.787403 4.08582 0
M  V30 47718 H 4538.45 -1.4714 5.28811 0
M  V30 47719 H 4538.71 -2.31224 3.76813 0
M  V30 47720 N 4537.77 -1.57281 0.100283 0
M  V30 47721 C 4538.7 -2.17331 -0.853781 0
M  V30 47722 C 4539.68 -1.10809 -1.29056 0
M  V30 47723 O 4540.86 -1.38968 -1.35652 0
M  V30 47724 C 4537.99 -2.75779 -2.111 0
M  V30 47725 C 4536.95 -3.8772 -1.81266 0
M  V30 47726 C 4536.27 -4.32893 -3.13859 0
M  V30 47727 C 4537.57 -5.10681 -1.09556 0
M  V30 47728 H 4539.27 -2.97307 -0.353441 0
M  V30 47729 H 4536.81 -1.4301 -0.168562 0
M  V30 47730 H 4538.77 -3.16442 -2.78284 0
M  V30 47731 H 4537.49 -1.93066 -2.63426 0
M  V30 47732 H 4536.15 -3.47604 -1.16477 0
M  V30 47733 H 4535.8 -3.47063 -3.64082 0
M  V30 47734 H 4535.5 -5.08368 -2.94678 0
M  V30 47735 H 4537.02 -4.76193 -3.82194 0
M  V30 47736 H 4538.43 -5.4848 -1.6686 0
M  V30 47737 H 4536.83 -5.91619 -1.00536 0
M  V30 47738 H 4537.9 -4.84835 -0.0791595 0
M  V30 47739 N 4539.25 0.173432 -1.56643 0
M  V30 47740 C 4540.19 1.2341 -1.97162 0
M  V30 47741 C 4541.19 1.45943 -0.860064 0
M  V30 47742 O 4542.39 1.46548 -1.04517 0
M  V30 47743 H 4538.77 0.414796 -0.627255 0
M  V30 47744 H 4540.74 0.865481 -2.85573 0
M  V30 47745 C 4539.49 2.56642 -2.34585 0
M  V30 47746 H 4538.81 2.40126 -3.19656 0
M  V30 47747 H 4540.25 3.2955 -2.66782 0
M  V30 47748 C 4538.71 3.15241 -1.18847 0
M  V30 47749 O 4539.24 3.98882 -0.475009 0
M  V30 47750 N 4537.45 2.74299 -0.959593 0
M  V30 47751 H 4536.99 2.06385 -1.54153 0
M  V30 47752 H 4536.95 3.13843 -0.187042 0
M  V30 47753 N 4540.72 1.51278 0.441914 0
M  V30 47754 C 4541.95 1.67803 1.21889 0
M  V30 47755 C 4542.37 0.372929 1.84366 0
M  V30 47756 O 4541.73 -0.666441 1.68607 0
M  V30 47757 C 4541.78 2.79207 2.28201 0
M  V30 47758 O 4540.88 2.42491 3.33574 0
M  V30 47759 H 4540.22 0.559662 0.357316 0
M  V30 47760 H 4542.75 1.97817 0.522453 0
M  V30 47761 H 4542.76 3.03155 2.73058 0
M  V30 47762 H 4541.44 3.73913 1.82104 0
M  V30 47763 H 4540.02 2.29097 2.94226 0
M  V30 47764 N 4542.2 -0.697058 1.41347 0
M  V30 47765 C 4543.13 -1.82348 1.45848 0
M  V30 47766 C 4544.11 -1.67114 0.317305 0
M  V30 47767 O 4545.3 -1.86869 0.52854 0
M  V30 47768 C 4542.43 -3.20471 1.33849 0
M  V30 47769 C 4541.38 -3.50407 2.45762 0
M  V30 47770 C 4540.71 -4.87871 2.1883 0
M  V30 47771 C 4542.01 -3.49533 3.88103 0
M  V30 47772 H 4543.7 -1.78838 2.40119 0
M  V30 47773 H 4541.25 -0.858987 1.15574 0
M  V30 47774 H 4543.2 -3.98983 1.3561 0
M  V30 47775 H 4541.92 -3.24603 0.360612 0
M  V30 47776 H 4540.58 -2.74244 2.43281 0
M  V30 47777 H 4540.23 -4.88626 1.19388 0
M  V30 47778 H 4539.93 -5.08865 2.93821 0
M  V30 47779 H 4541.46 -5.68694 2.22304 0
M  V30 47780 H 4542.87 -4.18052 3.92308 0
M  V30 47781 H 4541.27 -3.82058 4.62765 0
M  V30 47782 H 4542.34 -2.48537 4.16362 0
M  V30 47783 N 4543.68 -1.2715 -0.931165 0
M  V30 47784 C 4544.92 -1.14517 -1.69308 0
M  V30 47785 C 4545.28 0.304572 -1.89569 0
M  V30 47786 O 4546.48 0.553251 -2.63045 0
M  V30 47787 C 4544.76 -1.90359 -3.02487 0
M  V30 47788 S 4546.31 -1.93898 -3.93636 0
M  V30 47789 H 4543.13 -0.408878 -0.58167 0
M  V30 47790 H 4545.73 -1.6101 -1.10887 0
M  V30 47791 H 4544.44 -2.94887 -2.85429 0
M  V30 47792 H 4543.97 -1.44346 -3.65961 0
M  V30 47793 H 4545.98 -1.0329 -4.8533 0
M  V30 47794 N 4545.16 1.13717 -1.09116 0
M  V30 47795 C 4546.41 1.84273 -0.820154 0
M  V30 47796 C 4546.72 1.84256 0.656444 0
M  V30 47797 O 4547.93 2.50672 1.04287 0
M  V30 47798 C 4546.38 3.3082 -1.41725 0
M  V30 47799 C 4545.99 3.39234 -2.92616 0
M  V30 47800 C 4547.73 4.06439 -1.22506 0
M  V30 47801 C 4545.64 4.80035 -3.45428 0
M  V30 47802 H 4544.57 0.690376 -0.303144 0
M  V30 47803 H 4547.22 1.28141 -1.31347 0
M  V30 47804 H 4545.6 3.86734 -0.851634 0
M  V30 47805 H 4546.78 2.93332 -3.55377 0
M  V30 47806 H 4545.09 2.77077 -3.10833 0
M  V30 47807 H 4547.69 5.10382 -1.5942 0
M  V30 47808 H 4548.03 4.15971 -0.165445 0
M  V30 47809 H 4548.57 3.56846 -1.75801 0
M  V30 47810 H 4545.3 4.75693 -4.50995 0
M  V30 47811 H 4544.82 5.26445 -2.87429 0
M  V30 47812 H 4546.5 5.48945 -3.42444 0
M  V30 47813 N 4546.64 0.877884 1.30885 0
M  V30 47814 C 4547.88 0.499371 1.98206 0
M  V30 47815 C 4548.24 -0.93259 1.6783 0
M  V30 47816 O 4549.44 -1.41686 2.28426 0
M  V30 47817 C 4547.71 0.758343 3.49262 0
M  V30 47818 S 4549.27 0.480873 4.36157 0
M  V30 47819 H 4546.09 0.186086 0.686216 0
M  V30 47820 H 4548.69 1.13562 1.59135 0
M  V30 47821 H 4547.39 1.79916 3.68861 0
M  V30 47822 H 4546.93 0.109385 3.93248 0
M  V30 47823 H 4548.94 -0.683525 4.9147 0
M  V30 47824 N 4548.11 -1.44104 0.638116 0
M  V30 47825 C 4549.36 -2.01977 0.145401 0
M  V30 47826 C 4549.69 -1.50238 -1.23527 0
M  V30 47827 O 4548.94 -0.679613 -1.8352 0
M  V30 47828 C 4549.24 -3.5729 0.0888583 0
M  V30 47829 C 4548.91 -4.28312 1.40924 0
M  V30 47830 C 4547.57 -4.47431 1.77085 0
M  V30 47831 C 4549.92 -4.68662 2.28048 0
M  V30 47832 C 4547.25 -5.04161 3.00065 0
M  V30 47833 C 4549.6 -5.26754 3.50304 0
M  V30 47834 C 4548.27 -5.44091 3.8668 0
M  V30 47835 H 4547.54 -0.739087 0.0532061 0
M  V30 47836 H 4550.18 -1.72779 0.825822 0
M  V30 47837 H 4548.49 -3.85942 -0.674959 0
M  V30 47838 H 4550.19 -3.99808 -0.309005 0
M  V30 47839 H 4546.78 -4.13766 1.11785 0
M  V30 47840 H 4550.96 -4.53597 2.01404 0
M  V30 47841 H 4546.22 -5.1577 3.28316 0
M  V30 47842 H 4550.39 -5.56968 4.18043 0
M  V30 47843 H 4548.02 -5.87815 4.82055 0
M  V30 47844 N 4549.59 -0.37909 -1.52973 0
M  V30 47845 C 4550.84 0.206656 -2.01744 0
M  V30 47846 C 4551.17 1.4731 -1.26545 0
M  V30 47847 O 4550.45 1.91083 -0.36297 0
M  V30 47848 C 4550.73 0.48494 -3.5682 0
M  V30 47849 C 4550.58 -0.796074 -4.42699 0
M  V30 47850 C 4551.9 1.27988 -4.21079 0
M  V30 47851 H 4549.02 0.0736349 -0.733312 0
M  V30 47852 H 4551.66 -0.506646 -1.8312 0
M  V30 47853 H 4549.81 1.09259 -3.7282 0
M  V30 47854 H 4551.48 -1.43322 -4.38471 0
M  V30 47855 H 4549.73 -1.41358 -4.10122 0
M  V30 47856 H 4550.4 -0.55614 -5.49191 0
M  V30 47857 H 4552.87 0.765723 -4.08994 0
M  V30 47858 H 4551.75 1.44333 -5.29584 0
M  V30 47859 H 4552.01 2.29222 -3.78034 0
M  V30 47860 N 4551.07 1.57225 -0.108623 0
M  V30 47861 C 4552.03 2.13605 0.831007 0
M  V30 47862 C 4553.03 1.06846 1.20169 0
M  V30 47863 O 4554.22 1.3267 1.1289 0
M  V30 47864 C 4551.35 2.66776 2.12234 0
M  V30 47865 H 4552.55 2.97953 0.341213 0
M  V30 47866 H 4550.1 1.55667 0.140515 0
M  V30 47867 H 4550.84 1.85987 2.65668 0
M  V30 47868 H 4550.62 3.44845 1.86613 0
M  V30 47869 H 4552.11 3.10342 2.79424 0
M  V30 47870 N 4552.55 -0.165123 1.56733 0
M  V30 47871 C 4553.77 -0.900187 1.86846 0
M  V30 47872 C 4554.2 -1.74763 0.695658 0
M  V30 47873 O 4553.56 -1.77787 -0.355157 0
M  V30 47874 C 4553.6 -1.74766 3.15419 0
M  V30 47875 O 4552.71 -2.84997 2.98078 0
M  V30 47876 H 4552.05 -0.25181 0.6144 0
M  V30 47877 H 4554.58 -0.161397 2.03962 0
M  V30 47878 H 4554.59 -2.14634 3.46981 0
M  V30 47879 H 4553.26 -1.12522 4.00389 0
M  V30 47880 H 4551.84 -2.48666 2.77884 0
M  V30 47881 N 4554.03 -1.5151 -0.433885 0
M  V30 47882 C 4555.28 -1.63582 -1.17999 0
M  V30 47883 C 4555.59 -0.359581 -1.92266 0
M  V30 47884 O 4556.79 -0.359726 -2.69106 0
M  V30 47885 C 4555.25 -2.88908 -2.14616 0
M  V30 47886 C 4554.86 -4.23549 -1.4598 0
M  V30 47887 C 4556.6 -3.10339 -2.89638 0
M  V30 47888 C 4554.51 -5.40023 -2.41101 0
M  V30 47889 H 4553.44 -0.609293 -0.44416 0
M  V30 47890 H 4556.09 -1.7798 -0.44671 0
M  V30 47891 H 4554.47 -2.68153 -2.91394 0
M  V30 47892 H 4555.65 -4.54699 -0.747372 0
M  V30 47893 H 4553.96 -4.08024 -0.830971 0
M  V30 47894 H 4556.56 -3.94531 -3.60901 0
M  V30 47895 H 4556.9 -2.23557 -3.51181 0
M  V30 47896 H 4557.43 -3.31451 -2.19967 0
M  V30 47897 H 4554.17 -6.29075 -1.84242 0
M  V30 47898 H 4553.69 -5.13244 -3.10388 0
M  V30 47899 H 4555.37 -5.7211 -3.02157 0
M  V30 47900 N 4555.5 0.689552 -1.41714 0
M  V30 47901 C 4556.92 1.26968 -1.36879 0
M  V30 47902 C 4557.27 1.96123 -0.0548169 0
M  V30 47903 O 4556.39 1.99144 0.8468 0
M  V30 47904 C 4556.99 2.30903 -2.4793 0
M  V30 47905 C 4555.55 2.84478 -2.46474 0
M  V30 47906 C 4554.69 1.58595 -2.2747 0
M  V30 47907 H 4557.64 0.483906 -1.51142 0
M  V30 47908 H 4557.66 3.12324 -2.17334 0
M  V30 47909 H 4557.18 1.80542 -3.4355 0
M  V30 47910 H 4555.28 3.38999 -1.54629 0
M  V30 47911 H 4555.39 3.34498 -3.42998 0
M  V30 47912 H 4553.75 1.84626 -1.75458 0
M  V30 47913 H 4554.54 1.10221 -3.25125 0
M  V30 47914 N 4556.98 1.27642 0.924409 0
M  V30 47915 C 4557.91 1.13173 2.0424 0
M  V30 47916 C 4558.89 0.0323158 1.70069 0
M  V30 47917 O 4560.08 0.207396 1.93089 0
M  V30 47918 C 4557.21 0.781615 3.3839 0
M  V30 47919 C 4556.16 1.83463 3.86685 0
M  V30 47920 C 4555.49 1.3384 5.17678 0
M  V30 47921 C 4556.79 3.23931 4.09714 0
M  V30 47922 H 4558.48 2.06697 2.16603 0
M  V30 47923 H 4556.03 0.995173 1.04078 0
M  V30 47924 H 4557.98 0.667203 4.16085 0
M  V30 47925 H 4556.71 -0.189324 3.26051 0
M  V30 47926 H 4555.36 1.938 3.11187 0
M  V30 47927 H 4555.01 0.356826 5.01733 0
M  V30 47928 H 4554.71 2.04244 5.50961 0
M  V30 47929 H 4556.24 1.237 5.97939 0
M  V30 47930 H 4557.65 3.16576 4.77967 0
M  V30 47931 H 4556.05 3.92075 4.5431 0
M  V30 47932 H 4557.12 3.6874 3.14895 0
M  V30 47933 N 4558.46 -1.13137 1.09717 0
M  V30 47934 C 4559.7 -1.86127 0.844749 0
M  V30 47935 C 4560.06 -1.81768 -0.618428 0
M  V30 47936 O 4561.27 -2.50027 -0.986902 0
M  V30 47937 C 4559.54 -3.30146 1.36889 0
M  V30 47938 S 4561.1 -4.20596 1.25079 0
M  V30 47939 H 4557.91 -0.642045 0.305449 0
M  V30 47940 H 4560.52 -1.36339 1.40114 0
M  V30 47941 H 4559.22 -3.30874 2.42797 0
M  V30 47942 H 4558.75 -3.84997 0.808749 0
M  V30 47943 H 4560.77 -4.95782 0.203661 0
M  V30 47944 N 4559.94 -0.884812 -1.30418 0
M  V30 47945 C 4561.19 -0.499233 -1.95424 0
M  V30 47946 C 4561.5 0.95639 -1.70624 0
M  V30 47947 O 4562.71 1.44881 -2.29612 0
M  V30 47948 C 4561.16 -0.841893 -3.49915 0
M  V30 47949 C 4560.77 -2.31528 -3.83535 0
M  V30 47950 C 4562.51 -0.525504 -4.21235 0
M  V30 47951 C 4560.42 -2.59957 -5.31202 0
M  V30 47952 H 4559.35 -0.182969 -0.731463 0
M  V30 47953 H 4562 -1.07976 -1.48369 0
M  V30 47954 H 4560.38 -0.19045 -3.95542 0
M  V30 47955 H 4561.56 -3.01102 -3.48818 0
M  V30 47956 H 4559.87 -2.59918 -3.25317 0
M  V30 47957 H 4562.47 -0.714949 -5.29899 0
M  V30 47958 H 4562.81 0.535077 -4.12847 0
M  V30 47959 H 4563.35 -1.13413 -3.8129 0
M  V30 47960 H 4560.09 -3.64756 -5.44641 0
M  V30 47961 H 4559.61 -1.94992 -5.6722 0
M  V30 47962 H 4561.28 -2.4545 -5.98634 0
M  V30 47963 N 4561.42 1.43763 -0.645749 0
M  V30 47964 C 4562.66 2.02196 -0.156342 0
M  V30 47965 C 4563 1.50781 1.22388 0
M  V30 47966 O 4562.27 0.697834 1.8155 0
M  V30 47967 C 4562.55 3.59749 -0.158998 0
M  V30 47968 C 4562.41 4.21413 -1.5726 0
M  V30 47969 C 4563.73 4.37151 0.508636 0
M  V30 47970 H 4560.84 0.734692 -0.0582861 0
M  V30 47971 H 4563.49 1.71154 -0.825011 0
M  V30 47972 H 4561.64 3.86326 0.410389 0
M  V30 47973 H 4563.31 4.05893 -2.192 0
M  V30 47974 H 4561.55 3.78349 -2.12213 0
M  V30 47975 H 4562.22 5.30477 -1.52638 0
M  V30 47976 H 4564.7 4.16093 0.0242658 0
M  V30 47977 H 4563.57 5.46832 0.476021 0
M  V30 47978 H 4563.84 4.12845 1.58151 0
M  V30 47979 N 4562.89 0.387197 1.5277 0
M  V30 47980 C 4564.31 -0.0872979 1.86496 0
M  V30 47981 C 4564.66 -1.46331 1.30697 0
M  V30 47982 O 4563.78 -2.06797 0.637481 0
M  V30 47983 C 4564.38 -0.165186 3.38397 0
M  V30 47984 C 4562.94 -0.58397 3.71842 0
M  V30 47985 C 4562.08 0.255376 2.76122 0
M  V30 47986 H 4565.03 0.605156 1.46709 0
M  V30 47987 H 4565.05 -0.984718 3.67537 0
M  V30 47988 H 4564.57 0.836434 3.78979 0
M  V30 47989 H 4562.67 -1.59303 3.36828 0
M  V30 47990 H 4562.78 -0.343581 4.77866 0
M  V30 47991 H 4561.14 -0.279037 2.53167 0
M  V30 47992 H 4561.93 1.25494 3.19541 0
M  V30 47993 N 4564.37 -1.57165 0.116959 0
M  V30 47994 C 4565.6 -1.99185 -0.548516 0
M  V30 47995 C 4566.01 -0.995492 -1.60893 0
M  V30 47996 O 4565.35 0.0200647 -1.83689 0
M  V30 47997 C 4565.42 -3.37616 -1.23515 0
M  V30 47998 C 4565.08 -4.55858 -0.322917 0
M  V30 47999 C 4566.08 -5.18055 0.437658 0
M  V30 48000 C 4563.76 -5.01752 -0.234585 0
M  V30 48001 C 4565.76 -6.24532 1.27432 0
M  V30 48002 C 4563.44 -6.08091 0.605709 0
M  V30 48003 C 4564.44 -6.69347 1.35879 0
M  V30 48004 O 4564.13 -7.73632 2.18514 0
M  V30 48005 H 4563.86 -0.659153 -0.149976 0
M  V30 48006 H 4566.41 -2.04429 0.1995 0
M  V30 48007 H 4564.64 -3.2912 -2.03019 0
M  V30 48008 H 4566.33 -3.63938 -1.79733 0
M  V30 48009 H 4567.1 -4.83515 0.379275 0
M  V30 48010 H 4562.98 -4.5382 -0.810441 0
M  V30 48011 H 4566.52 -6.72274 1.86261 0
M  V30 48012 H 4562.42 -6.4206 0.665494 0
M  V30 48013 H 4563.19 -7.9072 2.11433 0
M  V30 48014 N 4565.85 0.156809 -1.56818 0
M  V30 48015 C 4567.08 0.88625 -1.86958 0
M  V30 48016 C 4567.49 1.75182 -0.704037 0
M  V30 48017 O 4566.85 1.79556 0.326489 0
M  V30 48018 C 4566.9 1.75106 -3.1626 0
M  V30 48019 O 4566.62 0.920386 -4.28323 0
M  V30 48020 C 4568.12 2.58893 -3.59846 0
M  V30 48021 H 4565.34 0.256758 -0.619932 0
M  V30 48022 H 4567.89 0.152544 -2.0393 0
M  V30 48023 H 4566.04 2.43794 -3.0107 0
M  V30 48024 H 4566.46 1.5132 -5.02198 0
M  V30 48025 H 4567.93 3.15165 -4.53184 0
M  V30 48026 H 4568.41 3.34462 -2.84661 0
M  V30 48027 H 4569.01 1.95512 -3.77697 0
M  V30 48028 N 4567.33 1.51738 0.425844 0
M  V30 48029 C 4568.29 1.73277 1.50026 0
M  V30 48030 C 4569.29 0.602692 1.49078 0
M  V30 48031 O 4570.48 0.870383 1.50897 0
M  V30 48032 C 4567.61 1.7998 2.89517 0
M  V30 48033 H 4568.81 2.69176 1.32227 0
M  V30 48034 H 4566.36 1.41901 0.65527 0
M  V30 48035 H 4567.09 0.859351 3.12707 0
M  V30 48036 H 4566.88 2.62119 2.9161 0
M  V30 48037 H 4568.37 1.98443 3.67437 0
M  V30 48038 N 4568.81 -0.682027 1.42078 0
M  V30 48039 C 4569.74 -1.8079 1.47774 0
M  V30 48040 C 4570.72 -1.66768 0.335012 0
M  V30 48041 O 4571.9 -1.86298 0.54833 0
M  V30 48042 C 4569.03 -3.19033 1.3724 0
M  V30 48043 C 4567.99 -3.47781 2.49465 0
M  V30 48044 C 4567.31 -4.85522 2.23992 0
M  V30 48045 C 4568.61 -3.45397 3.91789 0
M  V30 48046 H 4570.31 -1.76281 2.42003 0
M  V30 48047 H 4567.85 -0.846681 1.16479 0
M  V30 48048 H 4569.81 -3.97523 1.39835 0
M  V30 48049 H 4568.53 -3.24202 0.395021 0
M  V30 48050 H 4567.19 -2.71649 2.46176 0
M  V30 48051 H 4566.84 -4.87332 1.24564 0
M  V30 48052 H 4566.54 -5.0572 2.99201 0
M  V30 48053 H 4568.06 -5.66304 2.28324 0
M  V30 48054 H 4569.48 -4.13868 3.9672 0
M  V30 48055 H 4567.87 -3.77129 4.66791 0
M  V30 48056 H 4568.94 -2.44107 4.18974 0
M  V30 48057 N 4570.29 -1.2813 -0.917626 0
M  V30 48058 C 4571.52 -1.17727 -1.69776 0
M  V30 48059 C 4571.92 0.267195 -1.87304 0
M  V30 48060 O 4571.27 1.19281 -1.39706 0
M  V30 48061 C 4571.33 -1.79969 -3.1121 0
M  V30 48062 C 4570.99 -3.29199 -3.16982 0
M  V30 48063 C 4571.99 -4.2569 -2.9847 0
M  V30 48064 C 4569.67 -3.70087 -3.39619 0
M  V30 48065 C 4571.67 -5.61045 -3.02501 0
M  V30 48066 C 4569.36 -5.05569 -3.43282 0
M  V30 48067 C 4570.35 -6.00858 -3.24743 0
M  V30 48068 O 4570.04 -7.3387 -3.28161 0
M  V30 48069 H 4569.77 -0.409807 -0.537619 0
M  V30 48070 H 4572.33 -1.69698 -1.15722 0
M  V30 48071 H 4570.56 -1.22488 -3.66788 0
M  V30 48072 H 4572.25 -1.64138 -3.71232 0
M  V30 48073 H 4573.01 -3.95436 -2.80812 0
M  V30 48074 H 4568.89 -2.96385 -3.53096 0
M  V30 48075 H 4572.44 -6.35399 -2.87949 0
M  V30 48076 H 4568.33 -5.35475 -3.60468 0
M  V30 48077 H 4569.1 -7.42448 -3.44549 0
M  V30 48078 N 4571.76 1.12553 -1.10316 0
M  V30 48079 C 4572.99 1.87589 -0.865682 0
M  V30 48080 C 4573.4 1.79853 0.587326 0
M  V30 48081 O 4572.74 1.16954 1.4166 0
M  V30 48082 C 4572.81 3.3766 -1.23393 0
M  V30 48083 C 4572.47 3.69172 -2.69372 0
M  V30 48084 C 4573.47 3.67639 -3.6761 0
M  V30 48085 C 4571.15 3.98544 -3.05725 0
M  V30 48086 C 4573.15 3.95035 -5.00226 0
M  V30 48087 C 4570.83 4.256 -4.38529 0
M  V30 48088 C 4571.83 4.23832 -5.35589 0
M  V30 48089 O 4571.52 4.50218 -6.66002 0
M  V30 48090 H 4571.25 0.600431 -0.310578 0
M  V30 48091 H 4573.81 1.43345 -1.4711 0
M  V30 48092 H 4572.04 3.82452 -0.571601 0
M  V30 48093 H 4573.72 3.94037 -0.974132 0
M  V30 48094 H 4574.49 3.45012 -3.40869 0
M  V30 48095 H 4570.37 3.99062 -2.30803 0
M  V30 48096 H 4573.91 3.93571 -5.75976 0
M  V30 48097 H 4569.81 4.47702 -4.65009 0
M  V30 48098 H 4570.58 4.67843 -6.71614 0
M  V30 48099 N 4573.24 0.891716 1.29947 0
M  V30 48100 C 4574.47 0.527964 1.9974 0
M  V30 48101 C 4574.88 -0.889731 1.66974 0
M  V30 48102 O 4574.22 -1.59763 0.906723 0
M  V30 48103 C 4574.28 0.630928 3.5392 0
M  V30 48104 C 4573.95 2.01415 4.10221 0
M  V30 48105 C 4574.95 2.98437 4.25713 0
M  V30 48106 C 4572.63 2.32137 4.45441 0
M  V30 48107 C 4574.62 4.24309 4.75647 0
M  V30 48108 C 4572.31 3.58254 4.95073 0
M  V30 48109 C 4573.31 4.54155 5.1013 0
M  V30 48110 O 4573 5.78034 5.58688 0
M  V30 48111 H 4572.73 0.201976 0.645121 0
M  V30 48112 H 4575.28 1.20082 1.66642 0
M  V30 48113 H 4573.51 -0.0989257 3.86573 0
M  V30 48114 H 4575.2 0.277481 4.0495 0
M  V30 48115 H 4575.97 2.76015 3.98799 0
M  V30 48116 H 4571.85 1.58256 4.32985 0
M  V30 48117 H 4575.39 4.9917 4.87314 0
M  V30 48118 H 4571.29 3.80509 5.21424 0
M  V30 48119 H 4572.06 5.8051 5.77018 0
M  V30 48120 N 4574.72 -1.43419 0.653364 0
M  V30 48121 C 4575.68 -2.29182 -0.0287145 0
M  V30 48122 C 4576.68 -1.42216 -0.750415 0
M  V30 48123 O 4577.87 -1.63845 -0.591644 0
M  V30 48124 C 4575 -3.24282 -1.05139 0
M  V30 48125 H 4576.2 -2.90983 0.725889 0
M  V30 48126 H 4573.75 -1.50701 0.414598 0
M  V30 48127 H 4574.49 -2.67376 -1.83522 0
M  V30 48128 H 4574.27 -3.88398 -0.537551 0
M  V30 48129 H 4575.76 -3.88652 -1.52772 0
M  V30 48130 N 4576.2 -0.395293 -1.52562 0
M  V30 48131 C 4577.43 0.184871 -2.06072 0
M  V30 48132 C 4577.84 1.40017 -1.26652 0
M  V30 48133 O 4577.2 1.79766 -0.314735 0
M  V30 48134 C 4577.25 0.549054 -3.57306 0
M  V30 48135 O 4576.97 -0.617966 -4.3372 0
M  V30 48136 C 4578.47 1.18444 -4.27184 0
M  V30 48137 H 4575.69 0.0264789 -0.670477 0
M  V30 48138 H 4578.23 -0.562253 -1.96619 0
M  V30 48139 H 4576.39 1.24607 -3.66813 0
M  V30 48140 H 4576.8 -0.317275 -5.2354 0
M  V30 48141 H 4578.28 1.38957 -5.34224 0
M  V30 48142 H 4578.75 2.15354 -3.82778 0
M  V30 48143 H 4579.36 0.528014 -4.2201 0
M  V30 48144 N 4577.68 1.57101 -0.125292 0
M  V30 48145 C 4578.92 1.95409 0.531179 0
M  V30 48146 C 4579.25 1.00896 1.66284 0
M  V30 48147 O 4578.51 0.0340119 1.9567 0
M  V30 48148 C 4578.8 3.401 1.0985 0
M  V30 48149 C 4578.47 4.50815 0.0875405 0
M  V30 48150 C 4577.13 4.80823 -0.190429 0
M  V30 48151 C 4579.48 5.17722 -0.601084 0
M  V30 48152 C 4576.81 5.75053 -1.1632 0
M  V30 48153 C 4579.16 6.12999 -1.56253 0
M  V30 48154 C 4577.83 6.41397 -1.84842 0
M  V30 48155 H 4577.1 0.715053 0.194372 0
M  V30 48156 H 4579.75 1.90372 -0.20753 0
M  V30 48157 H 4578.05 3.41862 1.9141 0
M  V30 48158 H 4579.75 3.67056 1.61465 0
M  V30 48159 H 4576.34 4.27445 0.314378 0
M  V30 48160 H 4580.52 4.94689 -0.399507 0
M  V30 48161 H 4575.78 5.95358 -1.39138 0
M  V30 48162 H 4579.95 6.63927 -2.10176 0
M  V30 48163 H 4577.58 7.14219 -2.60374 0
M  V30 48164 N 4579.15 -0.14849 1.56899 0
M  V30 48165 C 4580.38 -0.875052 1.87153 0
M  V30 48166 C 4580.79 -1.75319 0.711324 0
M  V30 48167 O 4580.13 -1.80746 -0.328088 0
M  V30 48168 C 4580.2 -1.78429 3.12095 0
M  V30 48169 C 4579.86 -1.08346 4.43971 0
M  V30 48170 C 4580.86 -0.438065 5.18051 0
M  V30 48171 C 4578.54 -1.07341 4.90697 0
M  V30 48172 C 4580.54 0.208014 6.3706 0
M  V30 48173 C 4578.22 -0.423516 6.09631 0
M  V30 48174 C 4579.22 0.216069 6.82658 0
M  V30 48175 O 4578.91 0.855659 7.99333 0
M  V30 48176 H 4578.64 -0.258482 0.62463 0
M  V30 48177 H 4581.2 -0.146448 2.04877 0
M  V30 48178 H 4579.43 -2.55379 2.90376 0
M  V30 48179 H 4581.11 -2.38267 3.28609 0
M  V30 48180 H 4581.88 -0.437647 4.83021 0
M  V30 48181 H 4577.76 -1.56065 4.3378 0
M  V30 48182 H 4581.3 0.707824 6.94 0
M  V30 48183 H 4577.2 -0.421595 6.44122 0
M  V30 48184 H 4577.97 0.757178 8.1499 0
M  V30 48185 N 4580.63 -1.51961 -0.417791 0
M  V30 48186 C 4581.88 -1.65595 -1.16553 0
M  V30 48187 C 4582.21 -0.381632 -1.90719 0
M  V30 48188 O 4581.46 0.635091 -1.85108 0
M  V30 48189 C 4581.76 -2.82277 -2.19214 0
M  V30 48190 C 4581.43 -4.20825 -1.61918 0
M  V30 48191 C 4580.09 -4.58511 -1.46016 0
M  V30 48192 C 4582.44 -5.072 -1.1999 0
M  V30 48193 C 4579.77 -5.8026 -0.866909 0
M  V30 48194 C 4582.12 -6.29546 -0.620865 0
M  V30 48195 C 4580.78 -6.65989 -0.44891 0
M  V30 48196 H 4580.05 -0.605954 -0.426499 0
M  V30 48197 H 4582.7 -1.86043 -0.453904 0
M  V30 48198 H 4581.01 -2.56128 -2.96489 0
M  V30 48199 H 4582.7 -2.90022 -2.76926 0
M  V30 48200 H 4579.29 -3.91122 -1.75276 0
M  V30 48201 H 4583.48 -4.78675 -1.31088 0
M  V30 48202 H 4578.73 -6.07127 -0.72162 0
M  V30 48203 H 4582.91 -6.95806 -0.287554 0
M  V30 48204 H 4580.53 -7.60199 0.0128993 0
M  V30 48205 N 4582.11 0.674483 -1.42438 0
M  V30 48206 C 4583.34 1.46278 -1.46323 0
M  V30 48207 C 4583.75 1.88652 -0.07465 0
M  V30 48208 O 4583.11 1.58154 0.910685 0
M  V30 48209 C 4583.16 2.71169 -2.3906 0
M  V30 48210 O 4582.88 2.30573 -3.72515 0
M  V30 48211 C 4584.38 3.64729 -2.51968 0
M  V30 48212 H 4581.6 0.450087 -0.497657 0
M  V30 48213 H 4584.15 0.828726 -1.86956 0
M  V30 48214 H 4582.3 3.30763 -2.01679 0
M  V30 48215 H 4582.72 3.11226 -4.22183 0
M  V30 48216 H 4584.19 4.49085 -3.20978 0
M  V30 48217 H 4584.67 4.1065 -1.55766 0
M  V30 48218 H 4585.27 3.11028 -2.90072 0
M  V30 48219 N 4583.59 1.28615 0.910818 0
M  V30 48220 C 4584.54 1.12657 2.03497 0
M  V30 48221 C 4585.53 0.0450649 1.6934 0
M  V30 48222 O 4586.74 0.204051 1.7884 0
M  V30 48223 H 4583.11 0.347662 0.66681 0
M  V30 48224 H 4585.08 2.07856 2.14099 0
M  V30 48225 C 4583.83 0.808262 3.38175 0
M  V30 48226 H 4583.15 1.63244 3.64954 0
M  V30 48227 H 4584.59 0.736573 4.17553 0
M  V30 48228 C 4583.05 -0.488109 3.33345 0
M  V30 48229 O 4583.58 -1.51753 3.71933 0
M  V30 48230 N 4581.79 -0.489909 2.86441 0
M  V30 48231 H 4581.34 0.348251 2.55235 0
M  V30 48232 H 4581.29 -1.35731 2.83592 0
M  V30 48233 N 4585.07 -1.11967 1.10911 0
M  V30 48234 C 4585.98 -2.2143 0.774974 0
M  V30 48235 C 4586.99 -1.72479 -0.229596 0
M  V30 48236 O 4588.17 -2.01288 -0.06713 0
M  V30 48237 C 4585.23 -3.4602 0.217107 0
M  V30 48238 C 4584.29 -4.09787 1.27958 0
M  V30 48239 C 4583.53 -5.28429 0.748241 0
M  V30 48240 O 4583.75 -5.68825 -0.423633 0
M  V30 48241 O 4582.68 -5.82639 1.51047 0
M  V30 48242 H 4586.51 -2.52414 1.68882 0
M  V30 48243 H 4584.1 -1.20396 0.884597 0
M  V30 48244 H 4585.98 -4.21304 -0.0899109 0
M  V30 48245 H 4584.65 -3.167 -0.669522 0
M  V30 48246 H 4583.56 -3.36259 1.63953 0
M  V30 48247 H 4584.89 -4.43272 2.1394 0
M  V30 48248 N 4586.54 -0.898595 -1.29472 0
M  V30 48249 C 4587.96 -0.572599 -1.77703 0
M  V30 48250 C 4588.31 0.911717 -1.7373 0
M  V30 48251 O 4587.43 1.71284 -1.32253 0
M  V30 48252 C 4588.03 -1.03263 -3.2268 0
M  V30 48253 C 4586.59 -0.757817 -3.68692 0
M  V30 48254 C 4585.73 -1.20795 -2.49607 0
M  V30 48255 H 4588.68 -1.08143 -1.16149 0
M  V30 48256 H 4588.7 -0.36744 -3.78722 0
M  V30 48257 H 4588.22 -2.11296 -3.25539 0
M  V30 48258 H 4586.32 0.309948 -3.71309 0
M  V30 48259 H 4586.43 -1.35492 -4.59542 0
M  V30 48260 H 4584.79 -0.626975 -2.46863 0
M  V30 48261 H 4585.58 -2.29631 -2.55195 0
M  V30 48262 N 4588.02 1.4307 -0.660961 0
M  V30 48263 C 4588.99 2.29194 0.01656 0
M  V30 48264 C 4589.99 1.42612 0.742862 0
M  V30 48265 O 4591.18 1.64157 0.582946 0
M  V30 48266 C 4588.31 3.24835 1.03418 0
M  V30 48267 H 4589.5 2.90594 -0.74131 0
M  V30 48268 H 4587.05 1.50479 -0.422584 0
M  V30 48269 H 4587.79 2.68346 1.82102 0
M  V30 48270 H 4587.57 3.88677 0.516946 0
M  V30 48271 H 4589.06 3.89457 1.50709 0
M  V30 48272 N 4589.5 0.403378 1.5235 0
M  V30 48273 C 4590.75 -0.174276 2.01749 0
M  V30 48274 C 4591.08 -1.45631 1.28926 0
M  V30 48275 O 4590.33 -1.91929 0.382325 0
M  V30 48276 C 4590.63 -0.47454 3.54236 0
M  V30 48277 C 4590.3 0.717614 4.45153 0
M  V30 48278 C 4588.96 1.04463 4.69724 0
M  V30 48279 C 4591.31 1.51449 4.98711 0
M  V30 48280 C 4588.64 2.16982 5.45102 0
M  V30 48281 C 4590.99 2.6304 5.7532 0
M  V30 48282 C 4589.65 2.96234 5.98165 0
M  V30 48283 H 4588.92 -0.0637722 0.738251 0
M  V30 48284 H 4591.57 0.543617 1.83622 0
M  V30 48285 H 4589.88 -1.27393 3.70511 0
M  V30 48286 H 4591.57 -0.934359 3.89962 0
M  V30 48287 H 4588.16 0.452746 4.26202 0
M  V30 48288 H 4592.35 1.27508 4.79641 0
M  V30 48289 H 4587.6 2.43054 5.61012 0
M  V30 48290 H 4591.78 3.25179 6.15818 0
M  V30 48291 H 4589.4 3.8354 6.56355 0
M  V30 48292 N 4590.98 -1.57033 0.133622 0
M  V30 48293 C 4592.23 -1.94863 -0.5207 0
M  V30 48294 C 4592.54 -1.02018 -1.66888 0
M  V30 48295 O 4593.75 -1.29373 -2.38694 0
M  V30 48296 C 4592.2 -3.46366 -0.977687 0
M  V30 48297 C 4591.81 -4.47772 0.142832 0
M  V30 48298 C 4593.55 -3.93088 -1.60256 0
M  V30 48299 C 4591.46 -5.90469 -0.331676 0
M  V30 48300 H 4590.39 -0.72746 -0.198289 0
M  V30 48301 H 4593.04 -1.82226 0.215823 0
M  V30 48302 H 4591.42 -3.54288 -1.76907 0
M  V30 48303 H 4592.6 -4.51533 0.919476 0
M  V30 48304 H 4590.91 -4.10888 0.675268 0
M  V30 48305 H 4593.51 -4.97128 -1.96897 0
M  V30 48306 H 4593.85 -3.33884 -2.4865 0
M  V30 48307 H 4594.39 -3.88028 -0.876317 0
M  V30 48308 H 4591.13 -6.53461 0.516571 0
M  V30 48309 H 4590.65 -5.90097 -1.07448 0
M  V30 48310 H 4592.32 -6.42182 -0.788106 0
M  V30 48311 N 4592.46 0.140167 -1.56975 0
M  V30 48312 C 4593.39 1.20259 -1.93941 0
M  V30 48313 C 4594.37 1.41209 -0.806149 0
M  V30 48314 O 4595.55 1.5571 -1.06239 0
M  V30 48315 C 4592.68 2.5603 -2.21735 0
M  V30 48316 C 4591.72 2.51634 -3.44358 0
M  V30 48317 S 4592.56 1.97661 -4.97685 0
M  V30 48318 C 4593.71 3.35146 -5.28609 0
M  V30 48319 H 4593.95 0.887258 -2.83752 0
M  V30 48320 H 4591.48 0.346066 -1.50472 0
M  V30 48321 H 4593.44 3.34159 -2.38428 0
M  V30 48322 H 4592.1 2.8475 -1.32576 0
M  V30 48323 H 4591.29 3.51595 -3.61105 0
M  V30 48324 H 4590.89 1.81617 -3.26942 0
M  V30 48325 H 4593.19 4.31283 -5.22495 0
M  V30 48326 H 4594.13 3.23247 -6.30014 0
M  V30 48327 H 4594.54 3.32598 -4.56113 0
M  V30 48328 N 4593.93 1.52181 0.409726 0
M  V30 48329 C 4594.88 1.71862 1.49825 0
M  V30 48330 C 4595.87 0.572522 1.5037 0
M  V30 48331 O 4597.06 0.829564 1.56356 0
M  V30 48332 C 4594.19 1.87216 2.87759 0
M  V30 48333 C 4593.28 3.07695 2.91864 0
M  V30 48334 N 4593.67 4.30412 2.65668 0
M  V30 48335 C 4591.96 3.07516 3.23032 0
M  V30 48336 C 4592.67 5.11878 2.76326 0
M  V30 48337 N 4591.64 4.47112 3.09179 0
M  V30 48338 H 4595.44 2.64385 1.28365 0
M  V30 48339 H 4592.96 1.50205 0.617426 0
M  V30 48340 H 4594.95 1.99432 3.66104 0
M  V30 48341 H 4593.61 0.958923 3.10217 0
M  V30 48342 H 4594.63 4.58895 2.40074 0
M  V30 48343 H 4591.3 2.25927 3.51088 0
M  V30 48344 H 4592.69 6.19643 2.59792 0
M  V30 48345 N 4595.41 -0.666919 1.42793 0
M  V30 48346 C 4596.66 -1.42905 1.43896 0
M  V30 48347 C 4596.99 -1.94113 0.0579654 0
M  V30 48348 O 4596.27 -1.71417 -0.91905 0
M  V30 48349 C 4596.55 -2.6204 2.46996 0
M  V30 48350 C 4596.4 -2.16412 3.94317 0
M  V30 48351 C 4597.72 -3.64258 2.46991 0
M  V30 48352 H 4594.84 -0.518287 0.523973 0
M  V30 48353 H 4597.48 -0.757259 1.74257 0
M  V30 48354 H 4595.63 -3.19354 2.21236 0
M  V30 48355 H 4597.3 -1.64205 4.31085 0
M  V30 48356 H 4595.55 -1.47911 4.07805 0
M  V30 48357 H 4596.22 -3.02021 4.62047 0
M  V30 48358 H 4598.69 -3.16677 2.69917 0
M  V30 48359 H 4597.57 -4.45185 3.21094 0
M  V30 48360 H 4597.83 -4.15922 1.49871 0
M  V30 48361 N 4596.89 -1.29096 -0.903985 0
M  V30 48362 C 4598.12 -1.19815 -1.6929 0
M  V30 48363 C 4598.54 0.238415 -1.86583 0
M  V30 48364 O 4597.9 1.17225 -1.38304 0
M  V30 48365 C 4597.95 -1.91212 -3.05729 0
M  V30 48366 O 4597.05 -1.22624 -3.93747 0
M  V30 48367 H 4596.39 -0.415403 -0.518012 0
M  V30 48368 H 4598.92 -1.7059 -1.12961 0
M  V30 48369 H 4598.93 -1.995 -3.55899 0
M  V30 48370 H 4597.61 -2.95702 -2.92461 0
M  V30 48371 H 4596.18 -1.22566 -3.52182 0
M  V30 48372 N 4598.37 1.11377 -1.11503 0
M  V30 48373 C 4599.62 1.83594 -0.875488 0
M  V30 48374 C 4599.97 1.8305 0.59249 0
M  V30 48375 O 4599.26 1.27309 1.43188 0
M  V30 48376 C 4599.46 3.30021 -1.37189 0
M  V30 48377 C 4599.29 3.44827 -2.8866 0
M  V30 48378 C 4598.06 3.57813 -3.56789 0
M  V30 48379 C 4600.25 3.39056 -3.86711 0
M  V30 48380 N 4598.24 3.61096 -4.96471 0
M  V30 48381 C 4599.61 3.48968 -5.12466 0
M  V30 48382 C 4601.66 3.22592 -3.79261 0
M  V30 48383 C 4600.37 3.44113 -6.31648 0
M  V30 48384 C 4602.39 3.19054 -4.97954 0
M  V30 48385 C 4601.75 3.29538 -6.22563 0
M  V30 48386 H 4597.85 0.687031 -0.373514 0
M  V30 48387 H 4600.44 1.3326 -1.4195 0
M  V30 48388 H 4598.61 3.78871 -0.855052 0
M  V30 48389 H 4600.34 3.9015 -1.07543 0
M  V30 48390 H 4597.09 3.60403 -3.07257 0
M  V30 48391 H 4597.52 3.66374 -5.69297 0
M  V30 48392 H 4602.16 3.13372 -2.83827 0
M  V30 48393 H 4599.88 3.521 -7.27359 0
M  V30 48394 H 4603.46 3.0748 -4.9391 0
M  V30 48395 H 4602.34 3.2679 -7.12866 0
M  V30 48396 N 4599.85 0.905449 1.28994 0
M  V30 48397 C 4601.08 0.549119 1.99169 0
M  V30 48398 C 4601.49 -0.871971 1.67909 0
M  V30 48399 O 4600.83 -1.58792 0.923617 0
M  V30 48400 C 4600.89 0.668431 3.53231 0
M  V30 48401 C 4600.55 2.05755 4.08061 0
M  V30 48402 C 4601.55 3.02935 4.22524 0
M  V30 48403 C 4599.24 2.36848 4.42954 0
M  V30 48404 C 4601.23 4.2933 4.7112 0
M  V30 48405 C 4598.92 3.63485 4.91245 0
M  V30 48406 C 4599.92 4.5954 5.05284 0
M  V30 48407 O 4599.6 5.83927 5.52526 0
M  V30 48408 H 4599.34 0.208807 0.642943 0
M  V30 48409 H 4601.89 1.21842 1.65359 0
M  V30 48410 H 4600.12 -0.0579188 3.86657 0
M  V30 48411 H 4601.81 0.320415 4.04633 0
M  V30 48412 H 4602.57 2.80229 3.95849 0
M  V30 48413 H 4598.45 1.62839 4.31282 0
M  V30 48414 H 4602 5.0431 4.81993 0
M  V30 48415 H 4597.89 3.86018 5.17359 0
M  V30 48416 H 4598.66 5.86598 5.70829 0
M  V30 48417 N 4601.33 -1.42718 0.668539 0
M  V30 48418 C 4602.57 -2.00846 0.185459 0
M  V30 48419 C 4602.89 -1.53446 -1.213 0
M  V30 48420 O 4604.09 -2.0395 -1.79211 0
M  V30 48421 C 4602.55 -3.58804 0.280718 0
M  V30 48422 C 4602.16 -4.15193 1.68283 0
M  V30 48423 C 4603.9 -4.24256 -0.143971 0
M  V30 48424 C 4601.81 -5.65494 1.73119 0
M  V30 48425 H 4600.74 -0.751143 0.0655739 0
M  V30 48426 H 4603.39 -1.63513 0.83281 0
M  V30 48427 H 4601.77 -3.9361 -0.434415 0
M  V30 48428 H 4602.95 -3.91858 2.42454 0
M  V30 48429 H 4601.26 -3.62169 2.05482 0
M  V30 48430 H 4603.86 -5.34547 -0.127898 0
M  V30 48431 H 4604.2 -3.99281 -1.17813 0
M  V30 48432 H 4604.73 -3.94387 0.519937 0
M  V30 48433 H 4601.47 -5.95258 2.74496 0
M  V30 48434 H 4600.99 -5.90839 1.03295 0
M  V30 48435 H 4602.67 -6.29803 1.48181 0
M  V30 48436 N 4602.8 -0.411452 -1.52134 0
M  V30 48437 C 4603.74 0.457535 -2.23566 0
M  V30 48438 C 4604.71 1.04609 -1.24482 0
M  V30 48439 O 4605.9 1.09351 -1.5354 0
M  V30 48440 C 4603.03 1.63529 -2.96607 0
M  V30 48441 C 4602.07 1.16991 -4.10141 0
M  V30 48442 S 4602.9 0.133142 -5.35334 0
M  V30 48443 C 4604.06 1.31617 -6.11905 0
M  V30 48444 H 4604.29 -0.148987 -2.96926 0
M  V30 48445 H 4601.83 -0.195767 -1.53154 0
M  V30 48446 H 4603.78 2.31062 -3.39294 0
M  V30 48447 H 4602.45 2.21316 -2.22885 0
M  V30 48448 H 4601.64 2.04989 -4.6043 0
M  V30 48449 H 4601.24 0.573189 -3.69582 0
M  V30 48450 H 4603.53 2.23934 -6.39421 0
M  V30 48451 H 4604.48 0.853767 -7.02934 0
M  V30 48452 H 4604.88 1.54302 -5.43002 0
M  V30 48453 N 4604.28 1.56959 -0.141948 0
M  V30 48454 C 4605.53 1.95962 0.510423 0
M  V30 48455 C 4605.86 1.02654 1.65204 0
M  V30 48456 O 4605.11 0.0547635 1.95623 0
M  V30 48457 C 4605.41 3.41246 1.06237 0
M  V30 48458 C 4605.08 4.50883 0.0397206 0
M  V30 48459 C 4603.74 4.80594 -0.241416 0
M  V30 48460 C 4606.09 5.17056 -0.655962 0
M  V30 48461 C 4603.42 5.73787 -1.22413 0
M  V30 48462 C 4605.77 6.11307 -1.62746 0
M  V30 48463 C 4604.43 6.394 -1.91635 0
M  V30 48464 H 4603.7 0.717074 0.186777 0
M  V30 48465 H 4606.35 1.90141 -0.22771 0
M  V30 48466 H 4604.66 3.43873 1.87773 0
M  V30 48467 H 4606.35 3.68748 1.57563 0
M  V30 48468 H 4602.94 4.27755 0.269024 0
M  V30 48469 H 4607.13 4.94238 -0.451952 0
M  V30 48470 H 4602.38 5.93848 -1.45445 0
M  V30 48471 H 4606.56 6.6166 -2.17206 0
M  V30 48472 H 4604.18 7.11418 -2.67935 0
M  V30 48473 N 4605.76 -0.13184 1.57048 0
M  V30 48474 C 4607.01 -0.840204 1.83807 0
M  V30 48475 C 4607.33 -1.81014 0.725184 0
M  V30 48476 O 4606.6 -1.94273 -0.251926 0
M  V30 48477 H 4605.18 -0.313271 0.678138 0
M  V30 48478 H 4607.84 -0.122225 1.94516 0
M  V30 48479 H 4606.94 -1.39326 2.79275 0
M  V30 48480 N 4607.24 -1.52396 -0.40165 0
M  V30 48481 C 4608.65 -1.58903 -0.980146 0
M  V30 48482 C 4609 -0.434099 -1.91337 0
M  V30 48483 O 4608.12 0.444545 -2.11785 0
M  V30 48484 C 4608.72 -2.88 -1.78441 0
M  V30 48485 C 4607.28 -2.96961 -2.31281 0
M  V30 48486 C 4606.43 -2.53907 -1.11474 0
M  V30 48487 H 4609.38 -1.57657 -0.181625 0
M  V30 48488 H 4609.4 -2.73774 -2.6425 0
M  V30 48489 H 4608.91 -3.72039 -1.10493 0
M  V30 48490 H 4607.01 -2.17433 -3.02579 0
M  V30 48491 H 4607.12 -4.01353 -2.61635 0
M  V30 48492 H 4605.49 -2.0793 -1.47096 0
M  V30 48493 H 4606.27 -3.40327 -0.450809 0
M  V30 48494 N 4608.72 0.659337 -1.43145 0
M  V30 48495 C 4609.96 1.41513 -1.43726 0
M  V30 48496 C 4610.28 1.95499 -0.0628863 0
M  V30 48497 O 4611.48 2.71447 0.0538729 0
M  V30 48498 C 4609.94 2.56071 -2.52894 0
M  V30 48499 C 4609.55 2.08719 -3.96409 0
M  V30 48500 C 4611.29 3.33481 -2.62661 0
M  V30 48501 C 4609.2 3.20452 -4.97056 0
M  V30 48502 H 4608.13 0.531686 -0.534627 0
M  V30 48503 H 4610.78 0.712284 -1.69112 0
M  V30 48504 H 4609.16 3.28798 -2.20699 0
M  V30 48505 H 4610.34 1.43044 -4.38035 0
M  V30 48506 H 4608.65 1.44206 -3.90632 0
M  V30 48507 H 4611.25 4.16723 -3.35032 0
M  V30 48508 H 4611.59 3.81104 -1.67526 0
M  V30 48509 H 4612.12 2.67832 -2.94127 0
M  V30 48510 H 4608.86 2.77803 -5.93722 0
M  V30 48511 H 4608.38 3.84858 -4.60048 0
M  V30 48512 H 4610.06 3.85679 -5.19481 0
M  V30 48513 N 4610.19 1.29574 0.897126 0
M  V30 48514 C 4611.44 1.17869 1.6503 0
M  V30 48515 C 4611.77 -0.268661 1.92333 0
M  V30 48516 O 4611.05 -1.19372 1.5356 0
M  V30 48517 C 4611.33 1.99511 2.99779 0
M  V30 48518 C 4611.18 3.524 2.79525 0
M  V30 48519 C 4612.5 1.82349 4.00546 0
M  V30 48520 H 4609.62 0.429549 0.59888 0
M  V30 48521 H 4612.26 1.59075 1.03899 0
M  V30 48522 H 4610.41 1.64497 3.51956 0
M  V30 48523 H 4612.09 3.97409 2.3423 0
M  V30 48524 H 4610.33 3.77194 2.14259 0
M  V30 48525 H 4611 4.048 3.75288 0
M  V30 48526 H 4613.48 2.12936 3.57488 0
M  V30 48527 H 4612.35 2.41818 4.92763 0
M  V30 48528 H 4612.61 0.779362 4.35176 0
M  V30 48529 N 4611.67 -1.10784 1.12092 0
M  V30 48530 C 4613.08 -1.64178 0.888968 0
M  V30 48531 C 4613.43 -1.8751 -0.577432 0
M  V30 48532 O 4612.56 -1.61439 -1.44106 0
M  V30 48533 C 4613.15 -2.98251 1.60723 0
M  V30 48534 C 4611.71 -3.48525 1.42152 0
M  V30 48535 C 4610.86 -2.23202 1.64548 0
M  V30 48536 H 4613.81 -0.943323 1.27621 0
M  V30 48537 H 4613.83 -3.65548 1.05617 0
M  V30 48538 H 4613.34 -2.81237 2.67446 0
M  V30 48539 H 4611.44 -3.70691 0.376682 0
M  V30 48540 H 4611.56 -4.26875 2.1752 0
M  V30 48541 H 4609.92 -2.31165 1.06933 0
M  V30 48542 H 4610.7 -2.08723 2.72561 0
M  V30 48543 N 4613.15 -0.912277 -1.28512 0
M  V30 48544 C 4614.4 -0.540573 -1.94321 0
M  V30 48545 C 4614.71 0.919983 -1.72614 0
M  V30 48546 O 4615.92 1.39978 -2.32634 0
M  V30 48547 C 4614.37 -0.915926 -3.4805 0
M  V30 48548 C 4613.98 -2.39611 -3.78538 0
M  V30 48549 C 4615.73 -0.614735 -4.20025 0
M  V30 48550 C 4613.63 -2.71167 -5.25569 0
M  V30 48551 H 4612.56 -0.198444 -0.727417 0
M  V30 48552 H 4615.21 -1.11099 -1.46045 0
M  V30 48553 H 4613.6 -0.274307 -3.95049 0
M  V30 48554 H 4614.77 -3.08434 -3.42353 0
M  V30 48555 H 4613.09 -2.6676 -3.19731 0
M  V30 48556 H 4615.68 -0.827187 -5.28263 0
M  V30 48557 H 4616.03 0.447385 -4.13889 0
M  V30 48558 H 4616.56 -1.21475 -3.78799 0
M  V30 48559 H 4613.3 -3.76226 -5.36781 0
M  V30 48560 H 4612.82 -2.0698 -5.62956 0
M  V30 48561 H 4614.5 -2.58093 -5.93293 0
M  V30 48562 N 4614.63 1.42361 -0.676098 0
M  V30 48563 C 4615.87 2.02335 -0.20788 0
M  V30 48564 C 4616.23 1.5251 1.17297 0
M  V30 48565 O 4615.52 0.718111 1.77634 0
M  V30 48566 C 4615.72 3.56928 -0.183556 0
M  V30 48567 C 4615.55 4.21756 -1.5605 0
M  V30 48568 C 4614.32 4.56873 -2.15859 0
M  V30 48569 C 4616.51 4.49258 -2.50343 0
M  V30 48570 N 4614.5 5.06888 -3.4632 0
M  V30 48571 C 4615.87 5.00838 -3.65461 0
M  V30 48572 C 4617.92 4.31248 -2.48856 0
M  V30 48573 C 4616.62 5.36301 -4.79348 0
M  V30 48574 C 4618.65 4.67788 -3.61841 0
M  V30 48575 C 4618.01 5.19521 -4.75686 0
M  V30 48576 H 4614.11 0.772579 -0.12102 0
M  V30 48577 H 4616.7 1.732 -0.889367 0
M  V30 48578 H 4614.87 3.85578 0.467348 0
M  V30 48579 H 4616.6 4.03604 0.297666 0
M  V30 48580 H 4613.35 4.42674 -1.68335 0
M  V30 48581 H 4613.78 5.36323 -4.13142 0
M  V30 48582 H 4618.42 3.90506 -1.62065 0
M  V30 48583 H 4616.14 5.75976 -5.66814 0
M  V30 48584 H 4619.72 4.55528 -3.61919 0
M  V30 48585 H 4618.6 5.47267 -5.61666 0
M  V30 48586 N 4616.11 0.419515 1.51914 0
M  V30 48587 C 4617.04 -0.445672 2.23806 0
M  V30 48588 C 4618.02 -1.03947 1.25035 0
M  V30 48589 O 4619.2 -1.08535 1.54118 0
M  V30 48590 C 4616.33 -1.61954 2.9747 0
M  V30 48591 C 4615.37 -1.14814 4.10755 0
M  V30 48592 S 4616.21 -0.10475 5.35398 0
M  V30 48593 C 4617.36 -1.2837 6.12594 0
M  V30 48594 H 4617.6 0.164732 2.96843 0
M  V30 48595 H 4615.13 0.203886 1.53048 0
M  V30 48596 H 4617.09 -2.29259 3.40515 0
M  V30 48597 H 4615.75 -2.20131 2.24056 0
M  V30 48598 H 4614.94 -2.02544 4.6151 0
M  V30 48599 H 4614.54 -0.553582 3.6988 0
M  V30 48600 H 4616.84 -2.2054 6.406 0
M  V30 48601 H 4617.78 -0.816477 7.03377 0
M  V30 48602 H 4618.19 -1.5142 5.43813 0
M  V30 48603 N 4617.58 -1.56882 0.15027 0
M  V30 48604 C 4618.81 -2.00595 -0.506878 0
M  V30 48605 C 4619.23 -1.03039 -1.58204 0
M  V30 48606 O 4618.58 -0.0279037 -1.82479 0
M  V30 48607 C 4618.64 -3.44213 -1.10453 0
M  V30 48608 O 4618.36 -4.3804 -0.0723096 0
M  V30 48609 C 4619.86 -4.0322 -1.84197 0
M  V30 48610 H 4617.08 -0.657955 -0.131667 0
M  V30 48611 H 4619.62 -2.03017 0.245814 0
M  V30 48612 H 4617.78 -3.42632 -1.80783 0
M  V30 48613 H 4618.19 -5.22009 -0.510609 0
M  V30 48614 H 4619.66 -5.05698 -2.213 0
M  V30 48615 H 4620.14 -3.44116 -2.72911 0
M  V30 48616 H 4620.75 -4.08441 -1.18558 0
M  V30 48617 N 4619.06 0.12351 -1.57115 0
M  V30 48618 C 4620.3 0.838032 -1.86431 0
M  V30 48619 C 4620.67 1.77264 -0.737674 0
M  V30 48620 O 4621.87 2.52838 -0.912478 0
M  V30 48621 C 4620.14 1.57208 -3.20968 0
M  V30 48622 S 4621.7 2.3288 -3.71904 0
M  V30 48623 H 4618.52 0.279788 -0.653636 0
M  V30 48624 H 4621.12 0.0966348 -1.95261 0
M  V30 48625 H 4619.82 0.877381 -4.00912 0
M  V30 48626 H 4619.35 2.35394 -3.15204 0
M  V30 48627 H 4621.37 3.58518 -3.43045 0
M  V30 48628 N 4620.54 1.52607 0.393562 0
M  V30 48629 C 4621.79 1.67676 1.14073 0
M  V30 48630 C 4622.12 0.413188 1.89754 0
M  V30 48631 O 4621.39 -0.588886 1.85371 0
M  V30 48632 C 4621.68 2.90887 2.12265 0
M  V30 48633 C 4621.53 4.27333 1.40379 0
M  V30 48634 C 4622.85 3.09639 3.12748 0
M  V30 48635 H 4619.97 0.610183 0.413335 0
M  V30 48636 H 4622.61 1.85194 0.424631 0
M  V30 48637 H 4620.76 2.76082 2.73333 0
M  V30 48638 H 4622.43 4.53897 0.82311 0
M  V30 48639 H 4620.68 4.28022 0.705651 0
M  V30 48640 H 4621.35 5.09623 2.12105 0
M  V30 48641 H 4623.82 3.23445 2.61768 0
M  V30 48642 H 4622.7 3.97335 3.78703 0
M  V30 48643 H 4622.96 2.2365 3.81357 0
M  V30 48644 N 4622.02 -0.651737 1.43493 0
M  V30 48645 C 4623.25 -1.43723 1.48416 0
M  V30 48646 C 4623.66 -1.8893 0.101097 0
M  V30 48647 O 4623 -1.60185 -0.899251 0
M  V30 48648 C 4623.06 -2.70402 2.36903 0
M  V30 48649 C 4622.73 -2.47126 3.84419 0
M  V30 48650 C 4623.72 -2.10254 4.75488 0
M  V30 48651 C 4621.41 -2.61405 4.28921 0
M  V30 48652 C 4623.4 -1.87961 6.09056 0
M  V30 48653 C 4621.09 -2.38726 5.62542 0
M  V30 48654 C 4622.09 -2.0206 6.52427 0
M  V30 48655 O 4621.77 -1.79619 7.83576 0
M  V30 48656 H 4621.51 -0.447944 0.506283 0
M  V30 48657 H 4624.06 -0.806174 1.88918 0
M  V30 48658 H 4622.29 -3.36073 1.9129 0
M  V30 48659 H 4623.98 -3.32355 2.33012 0
M  V30 48660 H 4624.75 -1.98798 4.42385 0
M  V30 48661 H 4620.62 -2.88918 3.59232 0
M  V30 48662 H 4624.17 -1.59266 6.79176 0
M  V30 48663 H 4620.07 -2.49785 5.95212 0
M  V30 48664 H 4620.83 -1.94032 7.95169 0
M  V30 48665 N 4623.5 -1.30048 -0.890242 0
M  V30 48666 C 4624.72 -1.21478 -1.67483 0
M  V30 48667 C 4625.14 0.223175 -1.87476 0
M  V30 48668 O 4624.5 1.14823 -1.41851 0
M  V30 48669 C 4624.55 -1.93405 -3.05412 0
M  V30 48670 O 4624.27 -3.31586 -2.86325 0
M  V30 48671 C 4625.77 -1.91428 -3.99838 0
M  V30 48672 H 4622.99 -0.420623 -0.522798 0
M  V30 48673 H 4625.53 -1.71584 -1.11262 0
M  V30 48674 H 4623.69 -1.47111 -3.58381 0
M  V30 48675 H 4624.1 -3.67943 -3.73789 0
M  V30 48676 H 4625.58 -2.46303 -4.94003 0
M  V30 48677 H 4626.05 -0.891984 -4.30047 0
M  V30 48678 H 4626.66 -2.37509 -3.52803 0
M  V30 48679 N 4624.97 1.10188 -1.12678 0
M  V30 48680 C 4626.22 1.82472 -0.88498 0
M  V30 48681 C 4626.55 1.85095 0.587665 0
M  V30 48682 O 4625.83 1.31345 1.43453 0
M  V30 48683 C 4626.11 3.29013 -1.46365 0
M  V30 48684 C 4625.96 3.34708 -3.00484 0
M  V30 48685 C 4627.28 4.25469 -1.12534 0
M  V30 48686 H 4624.4 0.66248 -0.322938 0
M  V30 48687 H 4627.04 1.29125 -1.3938 0
M  V30 48688 H 4625.19 3.74573 -1.0309 0
M  V30 48689 H 4626.87 2.97609 -3.52458 0
M  V30 48690 H 4625.11 2.74529 -3.35881 0
M  V30 48691 H 4625.78 4.37906 -3.36068 0
M  V30 48692 H 4628.26 3.88156 -1.49914 0
M  V30 48693 H 4627.13 5.2636 -1.55682 0
M  V30 48694 H 4627.39 4.42084 -0.0378961 0
M  V30 48695 N 4626.45 0.919079 1.28026 0
M  V30 48696 C 4627.42 0.416261 2.25388 0
M  V30 48697 C 4628.42 -0.460384 1.54069 0
M  V30 48698 O 4629.61 -0.262684 1.72208 0
M  V30 48699 C 4626.74 -0.402588 3.38514 0
M  V30 48700 H 4627.93 1.27638 2.71382 0
M  V30 48701 H 4625.48 0.698968 1.398 0
M  V30 48702 H 4626.22 -1.28189 2.97889 0
M  V30 48703 H 4626 0.225835 3.91449 0
M  V30 48704 H 4627.49 -0.745046 4.109 0
M  V30 48705 N 4627.93 -1.42001 0.683638 0
M  V30 48706 C 4628.86 -2.28166 -0.0395118 0
M  V30 48707 C 4629.84 -1.41564 -0.799893 0
M  V30 48708 O 4631.03 -1.70999 -0.793188 0
M  V30 48709 C 4628.15 -3.21579 -1.06324 0
M  V30 48710 C 4627.2 -4.24644 -0.397413 0
M  V30 48711 S 4628.03 -5.28687 0.851482 0
M  V30 48712 C 4629.19 -6.25667 -0.170946 0
M  V30 48713 H 4629.42 -2.8915 0.69133 0
M  V30 48714 H 4626.95 -1.46961 0.473487 0
M  V30 48715 H 4628.91 -3.75934 -1.64876 0
M  V30 48716 H 4627.57 -2.59713 -1.76658 0
M  V30 48717 H 4626.77 -4.90227 -1.17017 0
M  V30 48718 H 4626.37 -3.73824 0.114742 0
M  V30 48719 H 4628.66 -6.69656 -1.02795 0
M  V30 48720 H 4629.6 -7.06665 0.450646 0
M  V30 48721 H 4630.01 -5.62096 -0.520381 0
M  V30 48722 N 4629.41 -0.427565 -1.51689 0
M  V30 48723 C 4630.65 0.141452 -2.0391 0
M  V30 48724 C 4631.01 1.40806 -1.30528 0
M  V30 48725 O 4632.21 2.0567 -1.73071 0
M  V30 48726 C 4630.49 0.364837 -3.55533 0
M  V30 48727 S 4632.04 0.898661 -4.29499 0
M  V30 48728 H 4628.86 0.0364292 -0.710066 0
M  V30 48729 H 4631.46 -0.584725 -1.86551 0
M  V30 48730 H 4630.17 -0.563503 -4.06513 0
M  V30 48731 H 4629.7 1.11837 -3.77168 0
M  V30 48732 H 4631.71 2.17731 -4.45879 0
M  V30 48733 N 4630.89 1.568 -0.158588 0
M  V30 48734 C 4632.13 1.96492 0.48961 0
M  V30 48735 C 4632.46 1.044 1.64106 0
M  V30 48736 O 4631.72 0.0755089 1.95554 0
M  V30 48737 C 4632.02 3.42353 1.02611 0
M  V30 48738 C 4631.68 4.50899 -0.00810378 0
M  V30 48739 C 4630.34 4.80311 -0.292376 0
M  V30 48740 C 4632.7 5.16331 -0.710766 0
M  V30 48741 C 4630.02 5.72457 -1.28492 0
M  V30 48742 C 4632.38 6.09547 -1.6922 0
M  V30 48743 C 4631.04 6.37332 -1.98405 0
M  V30 48744 H 4630.31 0.719015 0.179161 0
M  V30 48745 H 4632.96 1.89889 -0.247864 0
M  V30 48746 H 4631.26 3.45845 1.84116 0
M  V30 48747 H 4632.96 3.70398 1.53643 0
M  V30 48748 H 4629.55 4.28016 0.223639 0
M  V30 48749 H 4633.73 4.93731 -0.504348 0
M  V30 48750 H 4628.99 5.92272 -1.51735 0
M  V30 48751 H 4633.16 6.59319 -2.24212 0
M  V30 48752 H 4630.79 7.08536 -2.75465 0
M  V30 48753 N 4632.37 -0.115176 1.57179 0
M  V30 48754 C 4633.78 -0.468823 1.52559 0
M  V30 48755 C 4633.98 -1.81646 0.872189 0
M  V30 48756 O 4633.04 -2.48346 0.456148 0
M  V30 48757 C 4634.35 -0.449796 2.97317 0
M  V30 48758 C 4635.9 -0.533077 3.08427 0
M  V30 48759 C 4636.37 -0.5444 4.54753 0
M  V30 48760 N 4637.86 -0.60573 4.59222 0
M  V30 48761 C 4638.6 -0.636002 5.69862 0
M  V30 48762 N 4638.1 -0.623689 6.89987 0
M  V30 48763 N 4639.89 -0.6793 5.5798 0
M  V30 48764 H 4632.04 0.767781 1.98038 0
M  V30 48765 H 4634.3 0.283641 0.904573 0
M  V30 48766 H 4634.01 0.472844 3.48507 0
M  V30 48767 H 4633.88 -1.2762 3.54955 0
M  V30 48768 H 4636.27 -1.44614 2.57237 0
M  V30 48769 H 4636.35 0.321084 2.53777 0
M  V30 48770 H 4635.99 0.36463 5.06589 0
M  V30 48771 H 4635.92 -1.4155 5.07219 0
M  V30 48772 H 4638.42 -0.621255 3.72758 0
M  V30 48773 H 4638.73 -0.649516 7.70066 0
M  V30 48774 H 4637.07 -0.591053 6.92482 0
M  V30 48775 H 4640.26 -0.686309 4.63041 0
M  V30 48776 H 4640.44 -0.699424 6.44214 0
M  V30 48777 N 4633.84 -1.52813 -0.385464 0
M  V30 48778 C 4634.79 -1.74224 -1.47072 0
M  V30 48779 C 4635.78 -0.596372 -1.4944 0
M  V30 48780 O 4636.97 -0.854334 -1.55017 0
M  V30 48781 C 4634.1 -1.9177 -2.84744 0
M  V30 48782 C 4633.18 -3.12299 -2.86932 0
M  V30 48783 N 4633.58 -4.34584 -2.58786 0
M  V30 48784 C 4631.87 -3.12617 -3.18099 0
M  V30 48785 C 4632.57 -5.16209 -2.68147 0
M  V30 48786 N 4631.55 -4.51974 -3.02027 0
M  V30 48787 H 4635.35 -2.66394 -1.24143 0
M  V30 48788 H 4632.87 -1.51168 -0.593451 0
M  V30 48789 H 4634.86 -2.05231 -3.62885 0
M  V30 48790 H 4633.52 -1.00815 -3.08652 0
M  V30 48791 H 4634.53 -4.62657 -2.32743 0
M  V30 48792 H 4631.21 -2.31484 -3.4745 0
M  V30 48793 H 4632.6 -6.23698 -2.49902 0
M  V30 48794 N 4635.32 0.644118 -1.43836 0
M  V30 48795 C 4636.57 1.4039 -1.45935 0
M  V30 48796 C 4636.9 1.94305 -0.0870341 0
M  V30 48797 O 4636.15 1.73291 0.909317 0
M  V30 48798 C 4636.45 2.59607 -2.4564 0
M  V30 48799 C 4636.12 2.24056 -3.91292 0
M  V30 48800 C 4634.78 2.14073 -4.30959 0
M  V30 48801 C 4637.13 1.95758 -4.83041 0
M  V30 48802 C 4634.46 1.73961 -5.60316 0
M  V30 48803 C 4636.81 1.57141 -6.12772 0
M  V30 48804 C 4635.47 1.4569 -6.51407 0
M  V30 48805 H 4634.74 0.513722 -0.534014 0
M  V30 48806 H 4637.39 0.731662 -1.76972 0
M  V30 48807 H 4635.7 3.32004 -2.0804 0
M  V30 48808 H 4637.39 3.17826 -2.44515 0
M  V30 48809 H 4633.98 2.3274 -3.59903 0
M  V30 48810 H 4638.17 2.02387 -4.53159 0
M  V30 48811 H 4633.42 1.63689 -5.89081 0
M  V30 48812 H 4637.6 1.34279 -6.83332 0
M  V30 48813 H 4635.22 1.1438 -7.51546 0
M  V30 48814 N 4636.8 1.30518 0.883332 0
M  V30 48815 C 4638.05 1.19436 1.63528 0
M  V30 48816 C 4638.37 -0.250559 1.92879 0
M  V30 48817 O 4637.63 -1.19551 1.54939 0
M  V30 48818 C 4637.93 1.97004 2.98202 0
M  V30 48819 C 4637.59 3.4661 2.88396 0
M  V30 48820 C 4636.26 3.87407 2.85428 0
M  V30 48821 C 4638.61 4.41872 2.76403 0
M  V30 48822 C 4635.94 5.21754 2.68309 0
M  V30 48823 C 4638.29 5.76329 2.60821 0
M  V30 48824 C 4636.95 6.16363 2.56229 0
M  V30 48825 H 4636.22 0.437046 0.598391 0
M  V30 48826 H 4638.87 1.61638 1.0269 0
M  V30 48827 H 4637.17 1.47441 3.62999 0
M  V30 48828 H 4638.87 1.8582 3.55348 0
M  V30 48829 H 4635.46 3.14192 2.91515 0
M  V30 48830 H 4639.65 4.11294 2.7776 0
M  V30 48831 H 4634.9 5.51862 2.6317 0
M  V30 48832 H 4639.08 6.49781 2.50515 0
M  V30 48833 H 4636.7 7.2041 2.42722 0
M  V30 48834 N 4638.28 -1.09589 1.13261 0
M  V30 48835 C 4639.52 -1.82178 0.904585 0
M  V30 48836 C 4639.88 -1.83969 -0.563294 0
M  V30 48837 O 4639.17 -1.29571 -1.41145 0
M  V30 48838 C 4639.37 -3.27797 1.42422 0
M  V30 48839 C 4639.19 -3.40191 2.94109 0
M  V30 48840 C 4637.96 -3.52091 3.62436 0
M  V30 48841 C 4640.16 -3.32861 3.92056 0
M  V30 48842 N 4638.14 -3.53152 5.02152 0
M  V30 48843 C 4639.52 -3.40771 5.17953 0
M  V30 48844 C 4641.57 -3.16517 3.84345 0
M  V30 48845 C 4640.27 -3.3402 6.37042 0
M  V30 48846 C 4642.3 -3.11092 5.02967 0
M  V30 48847 C 4641.66 -3.19591 6.27727 0
M  V30 48848 H 4637.76 -0.681002 0.384397 0
M  V30 48849 H 4640.34 -1.30985 1.44052 0
M  V30 48850 H 4638.52 -3.77463 0.915219 0
M  V30 48851 H 4640.25 -3.88389 1.13736 0
M  V30 48852 H 4637 -3.55469 3.12952 0
M  V30 48853 H 4637.43 -3.5727 5.75054 0
M  V30 48854 H 4642.07 -3.08817 2.88776 0
M  V30 48855 H 4639.79 -3.40484 7.32869 0
M  V30 48856 H 4643.37 -2.99584 4.98739 0
M  V30 48857 H 4642.25 -3.15407 7.17975 0
M  V30 48858 N 4639.76 -0.925856 -1.27537 0
M  V30 48859 C 4641 -0.56616 -1.94737 0
M  V30 48860 C 4641.33 0.889996 -1.72606 0
M  V30 48861 O 4640.61 1.63463 -1.05405 0
M  V30 48862 C 4640.89 -0.890663 -3.48911 0
M  V30 48863 C 4640.75 -2.40044 -3.80393 0
M  V30 48864 C 4642.06 -0.395255 -4.38322 0
M  V30 48865 H 4639.18 -0.207165 -0.707285 0
M  V30 48866 H 4641.83 -1.1573 -1.50687 0
M  V30 48867 H 4639.98 -0.387588 -3.86562 0
M  V30 48868 H 4641.65 -2.97506 -3.52545 0
M  V30 48869 H 4639.89 -2.85039 -3.27009 0
M  V30 48870 H 4640.56 -2.57802 -4.88101 0
M  V30 48871 H 4643.04 -0.826384 -4.07811 0
M  V30 48872 H 4641.91 -0.651277 -5.45023 0
M  V30 48873 H 4642.17 0.704645 -4.36448 0
M  V30 48874 N 4641.23 1.41636 -0.691159 0
M  V30 48875 C 4642.16 2.3347 -0.0373301 0
M  V30 48876 C 4643.14 1.51578 0.771894 0
M  V30 48877 O 4644.33 1.80129 0.725757 0
M  V30 48878 C 4641.46 3.35357 0.902946 0
M  V30 48879 C 4640.41 4.27527 0.201138 0
M  V30 48880 C 4639.74 5.19752 1.25547 0
M  V30 48881 C 4641.04 5.13956 -0.92987 0
M  V30 48882 H 4642.73 2.88394 -0.804328 0
M  V30 48883 H 4640.28 1.38668 -0.388238 0
M  V30 48884 H 4642.23 3.98524 1.36955 0
M  V30 48885 H 4640.96 2.78773 1.70156 0
M  V30 48886 H 4639.62 3.65778 -0.245394 0
M  V30 48887 H 4639.26 4.59486 2.0465 0
M  V30 48888 H 4638.96 5.82253 0.790923 0
M  V30 48889 H 4640.49 5.85795 1.72268 0
M  V30 48890 H 4641.9 5.70716 -0.543747 0
M  V30 48891 H 4640.3 5.85375 -1.32124 0
M  V30 48892 H 4641.37 4.51383 -1.77149 0
M  V30 48893 N 4642.71 0.435603 1.5146 0
M  V30 48894 C 4643.68 -0.365057 2.26274 0
M  V30 48895 C 4644.68 -0.951181 1.2965 0
M  V30 48896 O 4645.87 -0.825904 1.53377 0
M  V30 48897 C 4643 -1.51634 3.0532 0
M  V30 48898 H 4644.19 0.290579 2.98489 0
M  V30 48899 H 4641.74 0.18873 1.55156 0
M  V30 48900 H 4642.48 -2.20808 2.37517 0
M  V30 48901 H 4642.26 -1.10225 3.76288 0
M  V30 48902 H 4643.75 -2.08206 3.61995 0
M  V30 48903 N 4644.19 -1.56714 0.166901 0
M  V30 48904 C 4645.42 -2.0083 -0.484869 0
M  V30 48905 C 4645.83 -1.04618 -1.57645 0
M  V30 48906 O 4645.17 -0.0383847 -1.8366 0
M  V30 48907 C 4645.23 -3.41374 -1.12711 0
M  V30 48908 C 4644.9 -4.56654 -0.177726 0
M  V30 48909 C 4645.89 -5.164 0.602251 0
M  V30 48910 C 4643.58 -5.02244 -0.0748373 0
M  V30 48911 C 4645.57 -6.20161 1.47236 0
M  V30 48912 C 4643.26 -6.05856 0.798862 0
M  V30 48913 C 4644.26 -6.64686 1.57105 0
M  V30 48914 O 4643.95 -7.66289 2.43016 0
M  V30 48915 H 4643.68 -0.663591 -0.128929 0
M  V30 48916 H 4646.23 -2.03691 0.264436 0
M  V30 48917 H 4644.46 -3.35413 -1.92445 0
M  V30 48918 H 4646.15 -3.69472 -1.68063 0
M  V30 48919 H 4646.92 -4.82063 0.532909 0
M  V30 48920 H 4642.8 -4.56169 -0.665652 0
M  V30 48921 H 4646.34 -6.66008 2.07554 0
M  V30 48922 H 4642.24 -6.39618 0.869423 0
M  V30 48923 H 4643.01 -7.83593 2.36483 0
M  V30 48924 N 4645.67 0.106839 -1.57237 0
M  V30 48925 C 4646.92 0.812461 -1.85487 0
M  V30 48926 C 4647.24 1.79301 -0.75375 0
M  V30 48927 O 4646.5 1.94047 0.253785 0
M  V30 48928 C 4646.8 1.58617 -3.20274 0
M  V30 48929 C 4646.46 0.74881 -4.44639 0
M  V30 48930 C 4645.13 0.517936 -4.78404 0
M  V30 48931 C 4647.48 0.165938 -5.20936 0
M  V30 48932 C 4644.81 -0.305865 -5.85902 0
M  V30 48933 C 4647.16 -0.645121 -6.29302 0
M  V30 48934 C 4645.82 -0.886198 -6.61591 0
M  V30 48935 H 4645.09 0.2973 -0.678744 0
M  V30 48936 H 4647.74 0.0743659 -1.91356 0
M  V30 48937 H 4646.04 2.39551 -3.10036 0
M  V30 48938 H 4647.74 2.13632 -3.39356 0
M  V30 48939 H 4644.33 0.938859 -4.18191 0
M  V30 48940 H 4648.51 0.331496 -4.95192 0
M  V30 48941 H 4643.77 -0.501742 -6.09338 0
M  V30 48942 H 4647.94 -1.10369 -6.87598 0
M  V30 48943 H 4645.57 -1.52635 -7.44719 0
M  V30 48944 N 4647.15 1.53016 0.377354 0
M  V30 48945 C 4648.37 1.72822 1.14662 0
M  V30 48946 C 4648.8 0.450789 1.82618 0
M  V30 48947 O 4648.15 -0.59433 1.71282 0
M  V30 48948 C 4648.2 2.88634 2.16154 0
M  V30 48949 O 4647.31 2.56421 3.22989 0
M  V30 48950 H 4646.65 0.574313 0.333257 0
M  V30 48951 H 4649.18 1.99855 0.438081 0
M  V30 48952 H 4649.19 3.14464 2.59955 0
M  V30 48953 H 4647.86 3.813 1.66082 0
M  V30 48954 H 4646.44 2.4137 2.84244 0
M  V30 48955 N 4648.62 -0.636481 1.44176 0
M  V30 48956 C 4649.57 -1.74869 1.5063 0
M  V30 48957 C 4650.54 -1.62273 0.354477 0
M  V30 48958 O 4651.73 -1.82274 0.563973 0
M  V30 48959 C 4648.87 -3.13097 1.45136 0
M  V30 48960 C 4647.98 -3.36707 2.70652 0
M  V30 48961 C 4647.11 -4.64876 2.57029 0
M  V30 48962 C 4646.15 -4.81647 3.77734 0
M  V30 48963 N 4645.29 -6.01088 3.62819 0
M  V30 48964 H 4650.13 -1.68689 2.45658 0
M  V30 48965 H 4647.67 -0.822961 1.21925 0
M  V30 48966 H 4649.63 -3.93029 1.39943 0
M  V30 48967 H 4648.26 -3.18306 0.536783 0
M  V30 48968 H 4647.31 -2.50753 2.86054 0
M  V30 48969 H 4648.62 -3.4498 3.60264 0
M  V30 48970 H 4647.77 -5.52961 2.49639 0
M  V30 48971 H 4646.51 -4.58952 1.64969 0
M  V30 48972 H 4645.52 -3.91993 3.85515 0
M  V30 48973 H 4646.74 -4.89389 4.70824 0
M  V30 48974 H 4644.69 -5.96264 2.73506 0
M  V30 48975 H 4644.61 -6.10394 4.46044 0
M  V30 48976 H 4645.87 -6.91749 3.59311 0
M  V30 48977 N 4650.1 -1.30985 -0.876398 0
M  V30 48978 C 4651.05 -1.18092 -1.983 0
M  V30 48979 C 4652.02 -0.0682846 -1.6596 0
M  V30 48980 O 4653.2 -0.240004 -1.89285 0
M  V30 48981 C 4650.34 -0.887592 -3.3349 0
M  V30 48982 C 4649.46 -2.08294 -3.78467 0
M  V30 48983 C 4648.59 -1.72695 -5.02344 0
M  V30 48984 C 4647.63 -2.88676 -5.39752 0
M  V30 48985 N 4646.77 -2.53315 -6.5481 0
M  V30 48986 H 4651.61 -2.12757 -2.08659 0
M  V30 48987 H 4649.15 -1.05843 -1.02156 0
M  V30 48988 H 4651.1 -0.698106 -4.11318 0
M  V30 48989 H 4649.73 0.0222015 -3.22792 0
M  V30 48990 H 4648.79 -2.38341 -2.96476 0
M  V30 48991 H 4650.1 -2.95122 -4.02125 0
M  V30 48992 H 4649.25 -1.50172 -5.87821 0
M  V30 48993 H 4647.99 -0.830496 -4.80577 0
M  V30 48994 H 4647 -3.11856 -4.52798 0
M  V30 48995 H 4648.22 -3.79021 -5.63489 0
M  V30 48996 H 4646.17 -1.66185 -6.34601 0
M  V30 48997 H 4646.08 -3.33674 -6.78379 0
M  V30 48998 H 4647.35 -2.34169 -7.43495 0
M  V30 48999 N 4651.58 1.08987 -1.13841 0
M  V30 49000 C 4652.53 2.13927 -0.788611 0
M  V30 49001 C 4653.51 1.59396 0.21946 0
M  V30 49002 O 4654.71 1.76985 0.0226935 0
M  V30 49003 C 4651.84 3.42304 -0.261268 0
M  V30 49004 C 4650.92 4.03732 -1.29851 0
M  V30 49005 N 4651.31 4.3965 -2.50082 0
M  V30 49006 C 4649.61 4.30989 -1.14735 0
M  V30 49007 C 4650.31 4.88102 -3.16436 0
M  V30 49008 N 4649.29 4.85838 -2.43849 0
M  V30 49009 H 4653.09 2.3951 -1.7033 0
M  V30 49010 H 4650.6 1.2626 -1.02139 0
M  V30 49011 H 4652.6 4.16899 0.00759393 0
M  V30 49012 H 4651.26 3.18175 0.647693 0
M  V30 49013 H 4652.27 4.30868 -2.87355 0
M  V30 49014 H 4648.95 4.16443 -0.296919 0
M  V30 49015 H 4650.34 5.25321 -4.18912 0
M  V30 49016 N 4653.06 0.932607 1.27044 0
M  V30 49017 C 4654.3 0.57648 1.94434 0
M  V30 49018 C 4654.64 -0.88083 1.73075 0
M  V30 49019 O 4653.91 -1.62902 1.0627 0
M  V30 49020 C 4654.2 0.909154 3.48434 0
M  V30 49021 C 4654.05 2.42058 3.79115 0
M  V30 49022 C 4655.37 0.418495 4.38106 0
M  V30 49023 H 4652.49 0.210913 0.706176 0
M  V30 49024 H 4655.13 1.16527 1.50071 0
M  V30 49025 H 4653.28 0.408083 3.86351 0
M  V30 49026 H 4654.95 2.99372 3.50962 0
M  V30 49027 H 4653.19 2.86769 3.25493 0
M  V30 49028 H 4653.86 2.60387 4.86727 0
M  V30 49029 H 4656.34 0.847999 4.07367 0
M  V30 49030 H 4655.22 0.680172 5.4467 0
M  V30 49031 H 4655.48 -0.681489 4.36816 0
M  V30 49032 N 4654.54 -1.41267 0.698661 0
M  V30 49033 C 4655.45 -2.34573 0.0358716 0
M  V30 49034 C 4656.46 -1.56396 -0.762646 0
M  V30 49035 O 4657.64 -1.88862 -0.699497 0
M  V30 49036 C 4654.7 -3.35162 -0.886972 0
M  V30 49037 C 4653.76 -4.29225 -0.0803125 0
M  V30 49038 C 4653 -5.2501 -0.959203 0
M  V30 49039 O 4653.22 -5.26322 -2.19868 0
M  V30 49040 O 4652.15 -6.00521 -0.407228 0
M  V30 49041 H 4655.98 -2.92835 0.80506 0
M  V30 49042 H 4653.57 -1.42174 0.459016 0
M  V30 49043 H 4655.45 -3.96895 -1.41607 0
M  V30 49044 H 4654.12 -2.79338 -1.6356 0
M  V30 49045 H 4653.03 -3.70831 0.493459 0
M  V30 49046 H 4654.36 -4.88155 0.629718 0
M  V30 49047 N 4656.01 -0.44363 -1.51227 0
M  V30 49048 C 4657.26 0.120904 -2.02439 0
M  V30 49049 C 4657.59 1.4181 -1.32679 0
M  V30 49050 O 4656.87 1.89372 -0.443689 0
M  V30 49051 C 4657.15 0.333165 -3.58555 0
M  V30 49052 C 4657 -0.983122 -4.38925 0
M  V30 49053 C 4658.32 1.10013 -4.26128 0
M  V30 49054 H 4655.44 0.0424664 -0.735776 0
M  V30 49055 H 4658.08 -0.583857 -1.80807 0
M  V30 49056 H 4656.23 0.933481 -3.77119 0
M  V30 49057 H 4657.91 -1.6179 -4.31997 0
M  V30 49058 H 4656.15 -1.58626 -4.03758 0
M  V30 49059 H 4656.82 -0.788571 -5.46338 0
M  V30 49060 H 4659.3 0.591566 -4.11873 0
M  V30 49061 H 4658.17 1.21742 -5.35229 0
M  V30 49062 H 4658.43 2.12982 -3.87416 0
M  V30 49063 N 4657.49 1.56623 -0.175209 0
M  V30 49064 C 4658.74 1.97 0.468742 0
M  V30 49065 C 4659.07 1.06135 1.6299 0
M  V30 49066 O 4658.32 0.0962458 1.95463 0
M  V30 49067 C 4658.62 3.43422 0.989743 0
M  V30 49068 C 4658.29 4.50865 -0.0559272 0
M  V30 49069 C 4656.95 4.79974 -0.343303 0
M  V30 49070 C 4659.3 5.15548 -0.765489 0
M  V30 49071 C 4656.63 5.71062 -1.34556 0
M  V30 49072 C 4658.98 6.07718 -1.75676 0
M  V30 49073 C 4657.65 6.35191 -2.05154 0
M  V30 49074 H 4656.92 0.720875 0.171525 0
M  V30 49075 H 4659.56 1.89616 -0.267991 0
M  V30 49076 H 4657.87 3.47778 1.80437 0
M  V30 49077 H 4659.57 3.72007 1.49705 0
M  V30 49078 H 4656.16 4.28229 0.17823 0
M  V30 49079 H 4660.34 4.93168 -0.556686 0
M  V30 49080 H 4655.6 5.9063 -1.58008 0
M  V30 49081 H 4659.77 6.56904 -2.31192 0
M  V30 49082 H 4657.4 7.05574 -2.82964 0
M  V30 49083 N 4658.97 -0.0984986 1.57292 0
M  V30 49084 C 4660.2 -0.816251 1.90118 0
M  V30 49085 C 4660.61 -1.72448 0.76857 0
M  V30 49086 O 4659.97 -1.80644 -0.259623 0
M  V30 49087 C 4660.02 -1.63248 3.22541 0
M  V30 49088 O 4659.74 -0.760783 4.31444 0
M  V30 49089 C 4661.24 -2.45359 3.69207 0
M  V30 49090 H 4658.46 -0.233573 0.629035 0
M  V30 49091 H 4661.01 -0.076751 2.04356 0
M  V30 49092 H 4659.16 -2.32452 3.09911 0
M  V30 49093 H 4659.58 -1.32577 5.07468 0
M  V30 49094 H 4661.05 -2.98128 4.64568 0
M  V30 49095 H 4661.53 -3.23666 2.96878 0
M  V30 49096 H 4662.13 -1.8136 3.84693 0
M  V30 49097 N 4660.45 -1.53214 -0.369234 0
M  V30 49098 C 4661.73 -1.59819 -1.12771 0
M  V30 49099 C 4662.11 -0.403474 -2.07208 0
M  V30 49100 O 4661.45 0.60659 -2.20301 0
M  V30 49101 C 4661.66 -2.94671 -1.87003 0
M  V30 49102 C 4663.01 -3.49118 -2.41665 0
M  V30 49103 O 4664.04 -2.96676 -1.97134 0
M  V30 49104 O 4662.9 -4.40786 -3.23063 0
M  V30 49105 H 4659.99 -0.645395 -0.517102 0
M  V30 49106 H 4662.54 -1.65555 -0.372792 0
M  V30 49107 H 4661.31 -3.73066 -1.18058 0
M  V30 49108 H 4660.93 -2.9241 -2.69411 0
M  V30 49109 N 4661.93 0.628826 -1.44511 0
M  V30 49110 C 4663.18 1.3856 -1.47124 0
M  V30 49111 C 4663.5 1.94712 -0.105967 0
M  V30 49112 O 4662.77 1.75915 0.862017 0
M  V30 49113 H 4661.35 0.514314 -0.541747 0
M  V30 49114 H 4664.01 0.739955 -1.80307 0
M  V30 49115 H 4663.1 2.21575 -2.19797 0
M  V30 49116 N 4663.41 1.31448 0.869439 0
M  V30 49117 C 4664.35 1.19142 1.97671 0
M  V30 49118 C 4665.32 0.0770849 1.65921 0
M  V30 49119 O 4666.51 0.250038 1.89155 0
M  V30 49120 C 4663.65 0.905266 3.33015 0
M  V30 49121 C 4662.76 2.10299 3.77357 0
M  V30 49122 C 4661.9 1.75357 5.01421 0
M  V30 49123 C 4660.93 2.91534 5.38214 0
M  V30 49124 N 4660.07 2.56785 6.53457 0
M  V30 49125 H 4664.91 2.1386 2.07528 0
M  V30 49126 H 4662.45 1.06383 1.01593 0
M  V30 49127 H 4664.41 0.719909 4.10942 0
M  V30 49128 H 4663.04 -0.00508276 3.228 0
M  V30 49129 H 4662.09 2.3991 2.95208 0
M  V30 49130 H 4663.4 2.97251 4.00554 0
M  V30 49131 H 4662.55 1.53287 5.87016 0
M  V30 49132 H 4661.29 0.85597 4.8013 0
M  V30 49133 H 4660.3 3.14253 4.51138 0
M  V30 49134 H 4661.52 3.82004 5.61471 0
M  V30 49135 H 4659.47 1.69548 6.33711 0
M  V30 49136 H 4659.39 3.37267 6.766 0
M  V30 49137 H 4660.65 2.38109 7.42243 0
M  V30 49138 N 4664.88 -1.08381 1.14417 0
M  V30 49139 C 4665.81 -2.17318 0.85412 0
M  V30 49140 C 4666.79 -1.69024 -0.19099 0
M  V30 49141 O 4667.98 -1.94142 -0.0476097 0
M  V30 49142 C 4665.11 -3.45718 0.331104 0
M  V30 49143 C 4664.06 -4.07405 1.31169 0
M  V30 49144 C 4663.39 -5.30759 0.647966 0
M  V30 49145 C 4664.69 -4.48656 2.67404 0
M  V30 49146 H 4666.38 -2.41838 1.76506 0
M  V30 49147 H 4663.93 -1.1623 0.850092 0
M  V30 49148 H 4665.88 -4.21241 0.115793 0
M  V30 49149 H 4664.61 -3.20752 -0.615268 0
M  V30 49150 H 4663.27 -3.33914 1.51318 0
M  V30 49151 H 4662.91 -5.02079 -0.304221 0
M  V30 49152 H 4662.61 -5.72987 1.30228 0
M  V30 49153 H 4664.14 -6.08997 0.442186 0
M  V30 49154 H 4665.55 -5.15355 2.51162 0
M  V30 49155 H 4663.95 -5.01803 3.29111 0
M  V30 49156 H 4665.02 -3.60531 3.24261 0
M  V30 49157 N 4666.36 -0.939331 -1.26548 0
M  V30 49158 C 4667.31 -0.438231 -2.28434 0
M  V30 49159 C 4668.3 0.48353 -1.62353 0
M  V30 49160 O 4669.51 0.361947 -1.76323 0
M  V30 49161 H 4665.88 -0.123175 -0.741844 0
M  V30 49162 H 4667.86 -1.31012 -2.68102 0
M  V30 49163 C 4666.6 0.28293 -3.46547 0
M  V30 49164 H 4665.93 -0.417182 -3.97617 0
M  V30 49165 H 4667.37 0.5978 -4.19765 0
M  V30 49166 C 4665.83 1.50007 -3.01661 0
M  V30 49167 O 4666.36 2.59844 -3.06339 0
M  V30 49168 N 4664.56 1.35599 -2.57024 0
M  V30 49169 H 4664.11 0.462351 -2.53417 0
M  V30 49170 H 4664.07 2.17157 -2.27355 0
M  V30 49171 N 4667.84 1.40895 -0.706143 0
M  V30 49172 C 4669.08 2.02916 -0.245898 0
M  V30 49173 C 4669.44 1.54755 1.13643 0
M  V30 49174 O 4670.64 2.08774 1.69313 0
M  V30 49175 C 4668.92 3.5603 -0.312662 0
M  V30 49176 S 4670.47 4.38741 0.0719846 0
M  V30 49177 H 4667.29 0.704182 -0.0982255 0
M  V30 49178 H 4669.89 1.72164 -0.926268 0
M  V30 49179 H 4668.6 3.88575 -1.32053 0
M  V30 49180 H 4668.13 3.91497 0.386503 0
M  V30 49181 H 4670.14 4.78956 1.29675 0
M  V30 49182 N 4669.32 0.451643 1.5099 0
M  V30 49183 C 4670.54 -0.110594 2.07105 0
M  V30 49184 C 4670.97 -1.34455 1.31542 0
M  V30 49185 O 4670.33 -1.77742 0.357428 0
M  V30 49186 C 4670.37 -0.397112 3.58407 0
M  V30 49187 O 4669.48 -1.48111 3.84886 0
M  V30 49188 H 4668.82 0.00441605 0.663985 0
M  V30 49189 H 4671.35 0.637095 1.94428 0
M  V30 49190 H 4671.36 -0.643368 4.02895 0
M  V30 49191 H 4670.03 0.504698 4.12826 0
M  V30 49192 H 4668.61 -1.22369 3.5225 0
M  V30 49193 N 4670.8 -1.56528 0.183513 0
M  V30 49194 C 4672.04 -1.97246 -0.458288 0
M  V30 49195 C 4672.37 -1.06998 -1.62425 0
M  V30 49196 O 4671.63 -0.10661 -1.95409 0
M  V30 49197 C 4671.92 -3.43942 -0.971516 0
M  V30 49198 C 4671.59 -4.50829 0.0798369 0
M  V30 49199 C 4670.25 -4.79785 0.368752 0
M  V30 49200 C 4672.6 -5.15135 0.792819 0
M  V30 49201 C 4669.93 -5.7034 1.37583 0
M  V30 49202 C 4672.28 -6.06777 1.78896 0
M  V30 49203 C 4670.95 -6.34094 2.0852 0
M  V30 49204 H 4670.22 -0.721774 -0.167699 0
M  V30 49205 H 4672.87 -1.89471 0.278043 0
M  V30 49206 H 4671.17 -3.4873 -1.7859 0
M  V30 49207 H 4672.87 -3.72796 -1.4773 0
M  V30 49208 H 4669.46 -4.28318 -0.155517 0
M  V30 49209 H 4673.64 -4.92866 0.582832 0
M  V30 49210 H 4668.9 -5.89783 1.61138 0
M  V30 49211 H 4673.07 -6.55669 2.34673 0
M  V30 49212 H 4670.7 -7.04064 2.86702 0
M  V30 49213 N 4672.27 0.0901557 -1.57342 0
M  V30 49214 C 4673.21 1.13534 -1.99105 0
M  V30 49215 C 4674.22 1.36037 -0.894306 0
M  V30 49216 O 4675.41 1.34601 -1.17238 0
M  V30 49217 C 4672.51 2.48993 -2.29904 0
M  V30 49218 C 4671.68 2.46699 -3.6119 0
M  V30 49219 C 4670.74 3.64123 -3.79869 0
M  V30 49220 O 4669.77 3.46389 -4.51667 0
M  V30 49221 N 4670.97 4.8379 -3.20823 0
M  V30 49222 H 4673.73 0.77984 -2.89376 0
M  V30 49223 H 4671.29 0.279069 -1.59477 0
M  V30 49224 H 4673.29 3.26158 -2.39589 0
M  V30 49225 H 4671.86 2.76614 -1.45615 0
M  V30 49226 H 4671.08 1.55046 -3.62429 0
M  V30 49227 H 4672.36 2.4225 -4.47429 0
M  V30 49228 H 4671.76 5.01103 -2.62512 0
M  V30 49229 H 4670.32 5.58531 -3.35985 0
M  V30 49230 N 4673.75 1.53407 0.361103 0
M  V30 49231 C 4675.03 1.60415 1.11921 0
M  V30 49232 C 4675.41 0.414458 2.06991 0
M  V30 49233 O 4674.76 -0.594898 2.2062 0
M  V30 49234 C 4674.97 2.95659 1.85437 0
M  V30 49235 C 4676.32 3.50394 2.3981 0
M  V30 49236 O 4677.34 2.97717 1.95558 0
M  V30 49237 O 4676.2 4.42493 3.20721 0
M  V30 49238 H 4673.29 0.648128 0.513672 0
M  V30 49239 H 4675.84 1.6575 0.364007 0
M  V30 49240 H 4674.61 3.73686 1.16078 0
M  V30 49241 H 4674.23 2.93835 2.67856 0
M  V30 49242 N 4675.23 -0.621153 1.44843 0
M  V30 49243 C 4676.19 -1.71454 1.52106 0
M  V30 49244 C 4677.19 -1.55694 0.401988 0
M  V30 49245 O 4678.38 -1.61008 0.664982 0
M  V30 49246 C 4675.52 -3.10619 1.40458 0
M  V30 49247 H 4676.71 -1.66385 2.49512 0
M  V30 49248 H 4674.26 -0.835698 1.32082 0
M  V30 49249 H 4675 -3.21276 0.44185 0
M  V30 49250 H 4674.78 -3.23465 2.21614 0
M  V30 49251 H 4676.27 -3.90288 1.48544 0
M  V30 49252 N 4676.71 -1.31907 -0.862456 0
M  V30 49253 C 4677.67 -1.20138 -1.95191 0
M  V30 49254 C 4678.67 -0.126465 -1.60302 0
M  V30 49255 O 4679.86 -0.376294 -1.70087 0
M  V30 49256 C 4676.99 -0.845807 -3.30241 0
M  V30 49257 H 4678.19 -2.16951 -2.07057 0
M  V30 49258 H 4675.74 -1.15626 -1.05168 0
M  V30 49259 H 4676.47 0.120843 -3.24075 0
M  V30 49260 H 4676.26 -1.62288 -3.56938 0
M  V30 49261 H 4677.75 -0.787562 -4.10106 0
M  V30 49262 N 4678.19 1.07773 -1.1499 0
M  V30 49263 C 4679.41 1.84554 -0.946278 0
M  V30 49264 C 4679.84 1.81325 0.500299 0
M  V30 49265 O 4679.19 1.20305 1.35633 0
M  V30 49266 C 4679.24 3.29731 -1.45979 0
M  V30 49267 O 4678.35 4.07147 -0.656153 0
M  V30 49268 H 4677.69 0.571629 -0.33784 0
M  V30 49269 H 4680.22 1.35985 -1.5287 0
M  V30 49270 H 4680.23 3.80569 -1.47077 0
M  V30 49271 H 4678.9 3.31397 -2.51295 0
M  V30 49272 H 4677.48 3.65992 -0.71445 0
M  V30 49273 N 4679.66 0.946029 1.26048 0
M  V30 49274 C 4680.61 0.450339 2.28199 0
M  V30 49275 C 4681.61 -0.474913 1.62607 0
M  V30 49276 O 4682.81 -0.352591 1.76513 0
M  V30 49277 H 4679.19 0.127108 0.74118 0
M  V30 49278 H 4681.16 1.32432 2.67403 0
M  V30 49279 C 4679.91 -0.264548 3.46692 0
M  V30 49280 H 4679.23 0.438263 3.97391 0
M  V30 49281 H 4680.67 -0.575531 4.20076 0
M  V30 49282 C 4679.13 -1.48405 3.02452 0
M  V30 49283 O 4679.66 -2.58216 3.07713 0
M  V30 49284 N 4677.87 -1.34234 2.57739 0
M  V30 49285 H 4677.41 -0.448905 2.53658 0
M  V30 49286 H 4677.37 -2.15949 2.28503 0
M  V30 49287 N 4681.14 -1.40518 0.713605 0
M  V30 49288 C 4682.39 -2.00154 0.249263 0
M  V30 49289 C 4682.7 -1.57228 -1.16356 0
M  V30 49290 O 4683.91 -2.09548 -1.72632 0
M  V30 49291 C 4682.37 -3.57729 0.394726 0
M  V30 49292 C 4681.97 -4.09629 1.81407 0
M  V30 49293 C 4683.72 -4.24499 -0.00892441 0
M  V30 49294 C 4681.63 -5.597 1.91022 0
M  V30 49295 H 4680.56 -0.748677 0.0894378 0
M  V30 49296 H 4683.21 -1.60781 0.884408 0
M  V30 49297 H 4681.59 -3.94793 -0.308971 0
M  V30 49298 H 4682.76 -3.83946 2.54798 0
M  V30 49299 H 4681.08 -3.55448 2.169 0
M  V30 49300 H 4683.67 -5.34683 0.0422284 0
M  V30 49301 H 4684.02 -4.02827 -1.05051 0
M  V30 49302 H 4684.55 -3.92534 0.645145 0
M  V30 49303 H 4681.29 -5.86224 2.93295 0
M  V30 49304 H 4680.81 -5.87253 1.22039 0
M  V30 49305 H 4682.49 -6.2477 1.68142 0
M  V30 49306 N 4682.62 -0.459644 -1.50748 0
M  V30 49307 C 4683.87 0.0992784 -2.02256 0
M  V30 49308 C 4684.2 1.40746 -1.34242 0
M  V30 49309 O 4683.45 1.90378 -0.453295 0
M  V30 49310 C 4683.75 0.342741 -3.55753 0
M  V30 49311 C 4683.42 -0.882335 -4.42183 0
M  V30 49312 C 4682.08 -1.21825 -4.65524 0
M  V30 49313 C 4684.43 -1.69854 -4.92746 0
M  V30 49314 C 4681.76 -2.37064 -5.36673 0
M  V30 49315 C 4684.11 -2.84212 -5.65161 0
M  V30 49316 C 4682.77 -3.18231 -5.86758 0
M  V30 49317 H 4682.04 0.0363285 -0.740109 0
M  V30 49318 H 4684.69 -0.611393 -1.81478 0
M  V30 49319 H 4683 1.13554 -3.74984 0
M  V30 49320 H 4684.69 0.788983 -3.93162 0
M  V30 49321 H 4681.28 -0.610616 -4.24228 0
M  V30 49322 H 4685.47 -1.45222 -4.74578 0
M  V30 49323 H 4680.72 -2.63708 -5.51605 0
M  V30 49324 H 4684.9 -3.47811 -6.03324 0
M  V30 49325 H 4682.52 -4.07635 -6.41668 0
M  V30 49326 N 4684.1 1.56428 -0.191812 0
M  V30 49327 C 4685.34 1.97779 0.448485 0
M  V30 49328 C 4685.68 1.07853 1.61498 0
M  V30 49329 O 4684.95 0.129842 1.94066 0
M  V30 49330 C 4685.24 3.48365 0.911784 0
M  V30 49331 C 4685.09 4.49069 -0.256294 0
M  V30 49332 C 4686.41 4.02567 1.77842 0
M  V30 49333 H 4683.53 0.719077 0.161547 0
M  V30 49334 H 4686.17 1.87895 -0.282073 0
M  V30 49335 H 4684.32 3.5692 1.5343 0
M  V30 49336 H 4685.99 4.52556 -0.893892 0
M  V30 49337 H 4684.23 4.24178 -0.908585 0
M  V30 49338 H 4684.9 5.5189 0.110336 0
M  V30 49339 H 4687.38 3.96772 1.25345 0
M  V30 49340 H 4686.26 5.08308 2.07156 0
M  V30 49341 H 4686.52 3.47626 2.73146 0
M  V30 49342 N 4685.58 -0.0818102 1.57388 0
M  V30 49343 C 4686.83 -0.781616 1.8594 0
M  V30 49344 C 4687.14 -1.79243 0.78302 0
M  V30 49345 O 4688.34 -2.54109 0.956076 0
M  V30 49346 C 4686.8 -1.44097 3.29794 0
M  V30 49347 C 4686.41 -0.469239 4.45536 0
M  V30 49348 C 4688.15 -2.12373 3.67557 0
M  V30 49349 C 4686.06 -1.13394 5.80427 0
M  V30 49350 H 4684.99 -0.295657 0.693616 0
M  V30 49351 H 4687.64 -0.0347406 1.83467 0
M  V30 49352 H 4686.02 -2.23577 3.26848 0
M  V30 49353 H 4687.2 0.295017 4.59855 0
M  V30 49354 H 4685.51 0.108529 4.16259 0
M  V30 49355 H 4688.11 -2.62862 4.65626 0
M  V30 49356 H 4688.45 -2.91866 2.9685 0
M  V30 49357 H 4688.98 -1.39737 3.72449 0
M  V30 49358 H 4685.72 -0.379541 6.544 0
M  V30 49359 H 4685.24 -1.8693 5.69927 0
M  V30 49360 H 4686.92 -1.65664 6.25431 0
M  V30 49361 N 4687.06 -1.53597 -0.352963 0
M  V30 49362 C 4688 -1.8161 -1.45329 0
M  V30 49363 C 4689 -0.685978 -1.54889 0
M  V30 49364 O 4690.2 -0.86915 -1.57625 0
M  V30 49365 H 4686.58 -0.575221 -0.484381 0
M  V30 49366 H 4688.55 -2.73683 -1.18911 0
M  V30 49367 C 4687.3 -2.03416 -2.81988 0
M  V30 49368 H 4686.62 -2.89823 -2.75395 0
M  V30 49369 H 4688.06 -2.26987 -3.58124 0
M  V30 49370 C 4686.52 -0.816908 -3.26846 0
M  V30 49371 O 4687.05 -0.0117268 -4.01698 0
M  V30 49372 N 4685.26 -0.636782 -2.83537 0
M  V30 49373 H 4684.8 -1.29317 -2.22789 0
M  V30 49374 H 4684.76 0.176225 -3.13906 0
M  V30 49375 N 4688.53 0.613463 -1.4517 0
M  V30 49376 C 4689.48 1.72451 -1.53393 0
M  V30 49377 C 4690.45 1.61689 -0.380248 0
M  V30 49378 O 4691.64 1.81354 -0.592899 0
M  V30 49379 C 4688.78 3.10748 -1.50099 0
M  V30 49380 C 4687.89 3.32359 -2.75974 0
M  V30 49381 C 4687.02 4.60728 -2.64392 0
M  V30 49382 C 4686.06 4.75577 -3.85348 0
M  V30 49383 N 4685.2 5.9524 -3.72336 0
M  V30 49384 H 4690.04 1.64759 -2.48311 0
M  V30 49385 H 4687.58 0.80346 -1.23219 0
M  V30 49386 H 4689.53 3.90753 -1.46178 0
M  V30 49387 H 4688.16 3.17411 -0.587355 0
M  V30 49388 H 4687.22 2.4617 -2.90008 0
M  V30 49389 H 4688.53 3.39205 -3.65707 0
M  V30 49390 H 4687.68 5.48919 -2.58404 0
M  V30 49391 H 4686.42 4.56269 -1.72249 0
M  V30 49392 H 4685.43 3.8581 -3.91702 0
M  V30 49393 H 4686.65 4.81837 -4.7855 0
M  V30 49394 H 4684.6 5.91837 -2.82958 0
M  V30 49395 H 4684.51 6.0322 -4.55699 0
M  V30 49396 H 4685.78 6.85945 -3.7027 0
M  V30 49397 N 4690.01 1.32363 0.855449 0
M  V30 49398 C 4691.29 1.13496 1.59305 0
M  V30 49399 C 4691.67 -0.304957 2.08886 0
M  V30 49400 O 4691.02 -1.30144 1.87816 0
M  V30 49401 C 4691.23 2.16185 2.7398 0
M  V30 49402 C 4692.57 2.49475 3.4358 0
M  V30 49403 O 4693.6 2.14725 2.84204 0
M  V30 49404 O 4692.46 3.09042 4.50727 0
M  V30 49405 H 4689.55 0.437911 0.701543 0
M  V30 49406 H 4692.1 1.4389 0.899646 0
M  V30 49407 H 4690.87 3.12978 2.34862 0
M  V30 49408 H 4690.49 1.86781 3.50997 0
M  V30 49409 N 4691.49 -1.07162 1.1556 0
M  V30 49410 C 4692.72 -1.83511 0.955583 0
M  V30 49411 C 4693.13 -1.82164 -0.496146 0
M  V30 49412 O 4692.49 -1.23446 -1.34415 0
M  V30 49413 C 4692.54 -3.30509 1.46444 0
M  V30 49414 O 4692.26 -3.31927 2.8593 0
M  V30 49415 C 4693.76 -4.2362 1.30618 0
M  V30 49416 H 4690.98 -0.578914 0.339264 0
M  V30 49417 H 4693.53 -1.3526 1.53379 0
M  V30 49418 H 4691.68 -3.76103 0.928716 0
M  V30 49419 H 4692.1 -4.23783 3.09044 0
M  V30 49420 H 4693.57 -5.24825 1.71065 0
M  V30 49421 H 4694.05 -4.38485 0.250596 0
M  V30 49422 H 4694.65 -3.83864 1.83108 0
M  V30 49423 N 4692.97 -0.9527 -1.25544 0
M  V30 49424 C 4694.2 -0.622661 -1.96994 0
M  V30 49425 C 4694.61 0.809052 -1.71029 0
M  V30 49426 O 4693.95 1.55255 -0.981915 0
M  V30 49427 C 4694.01 -0.799069 -3.50507 0
M  V30 49428 C 4693.67 -2.20758 -4.00144 0
M  V30 49429 C 4694.67 -3.18408 -4.10989 0
M  V30 49430 C 4692.36 -2.53125 -4.33858 0
M  V30 49431 C 4694.35 -4.4652 -4.54861 0
M  V30 49432 C 4692.04 -3.81467 -4.77416 0
M  V30 49433 C 4693.04 -4.77977 -4.8788 0
M  V30 49434 O 4692.72 -6.04031 -5.30473 0
M  V30 49435 H 4692.46 -0.232526 -0.63475 0
M  V30 49436 H 4695.01 -1.27896 -1.60723 0
M  V30 49437 H 4693.24 -0.0856262 -3.86605 0
M  V30 49438 H 4694.93 -0.470372 -4.03165 0
M  V30 49439 H 4695.69 -2.94728 -3.85176 0
M  V30 49440 H 4691.57 -1.78734 -4.24941 0
M  V30 49441 H 4695.12 -5.21852 -4.62943 0
M  V30 49442 H 4691.01 -4.04954 -5.02675 0
M  V30 49443 H 4691.78 -6.0738 -5.48664 0
M  V30 49444 N 4694.45 1.40138 -0.721047 0
M  V30 49445 C 4695.41 2.29058 -0.0806639 0
M  V30 49446 C 4696.41 1.45634 0.681707 0
M  V30 49447 O 4697.6 1.66481 0.512797 0
M  V30 49448 C 4694.73 3.28929 0.895477 0
M  V30 49449 H 4695.92 2.87188 -0.863894 0
M  V30 49450 H 4693.48 1.48551 -0.486027 0
M  V30 49451 H 4694.21 2.75828 1.70557 0
M  V30 49452 H 4694 3.9052 0.351629 0
M  V30 49453 H 4695.49 3.95498 1.34055 0
M  V30 49454 N 4695.92 0.467632 1.50502 0
M  V30 49455 C 4696.89 -0.316979 2.26998 0
M  V30 49456 C 4697.89 -0.923466 1.31639 0
M  V30 49457 O 4699.08 -0.793185 1.55094 0
M  V30 49458 C 4696.21 -1.45123 3.08467 0
M  V30 49459 H 4697.4 0.353827 2.97805 0
M  V30 49460 H 4694.95 0.221599 1.54721 0
M  V30 49461 H 4695.69 -2.1572 2.42148 0
M  V30 49462 H 4695.47 -1.02219 3.78542 0
M  V30 49463 H 4696.96 -2.0048 3.6633 0
M  V30 49464 N 4697.4 -1.56324 0.200105 0
M  V30 49465 C 4698.33 -2.22321 -0.713838 0
M  V30 49466 C 4699.31 -1.18792 -1.21748 0
M  V30 49467 O 4700.5 -1.47314 -1.2654 0
M  V30 49468 C 4697.63 -2.88646 -1.93134 0
M  V30 49469 C 4696.58 -3.98463 -1.56241 0
M  V30 49470 C 4695.91 -4.51977 -2.85693 0
M  V30 49471 C 4697.21 -5.16614 -0.768565 0
M  V30 49472 H 4698.9 -2.98952 -0.16365 0
M  V30 49473 H 4696.45 -1.43793 -0.0772713 0
M  V30 49474 H 4698.4 -3.335 -2.57597 0
M  V30 49475 H 4697.12 -2.09428 -2.50614 0
M  V30 49476 H 4695.78 -3.54308 -0.941346 0
M  V30 49477 H 4695.43 -3.69515 -3.41274 0
M  V30 49478 H 4695.13 -5.2608 -2.61751 0
M  V30 49479 H 4696.66 -4.99536 -3.51136 0
M  V30 49480 H 4698.07 -5.57982 -1.31641 0
M  V30 49481 H 4696.47 -5.96815 -0.627076 0
M  V30 49482 H 4697.54 -4.84357 0.229338 0
M  V30 49483 N 4698.88 0.0734624 -1.57429 0
M  V30 49484 C 4700.3 0.42821 -1.53748 0
M  V30 49485 C 4700.5 1.79269 -0.920043 0
M  V30 49486 O 4699.55 2.47049 -0.521832 0
M  V30 49487 C 4700.86 0.370809 -2.98405 0
M  V30 49488 C 4702.41 0.451116 -3.09732 0
M  V30 49489 C 4702.89 0.423639 -4.56037 0
M  V30 49490 N 4704.38 0.483763 -4.60667 0
M  V30 49491 C 4705.11 0.48469 -5.71348 0
M  V30 49492 N 4704.61 0.440532 -6.91398 0
M  V30 49493 N 4706.4 0.531122 -5.59585 0
M  V30 49494 H 4698.55 -0.820017 -1.95932 0
M  V30 49495 H 4700.82 -0.307525 -0.896734 0
M  V30 49496 H 4700.52 -0.565078 -3.47131 0
M  V30 49497 H 4700.4 1.18164 -3.58214 0
M  V30 49498 H 4702.78 1.37743 -2.60981 0
M  V30 49499 H 4702.86 -0.388256 -2.52836 0
M  V30 49500 H 4702.51 -0.498815 -5.05445 0
M  V30 49501 H 4702.44 1.28052 -5.10794 0
M  V30 49502 H 4704.93 0.522207 -3.74275 0
M  V30 49503 H 4705.24 0.445119 -7.71517 0
M  V30 49504 H 4703.59 0.407246 -6.93806 0
M  V30 49505 H 4706.78 0.563301 -4.64698 0
M  V30 49506 H 4706.95 0.528376 -6.45842 0
M  V30 49507 N 4700.36 1.53782 0.344812 0
M  V30 49508 C 4701.31 1.82378 1.44364 0
M  V30 49509 C 4702.3 0.694182 1.54523 0
M  V30 49510 O 4703.51 0.877497 1.57162 0
M  V30 49511 H 4699.88 0.577782 0.481324 0
M  V30 49512 H 4701.85 2.7431 1.17458 0
M  V30 49513 C 4700.6 2.04908 2.80906 0
M  V30 49514 H 4699.92 2.9128 2.73854 0
M  V30 49515 H 4701.36 2.28883 3.56915 0
M  V30 49516 C 4699.82 0.83423 3.26408 0
M  V30 49517 O 4700.35 0.0330297 4.01686 0
M  V30 49518 N 4698.56 0.65181 2.83196 0
M  V30 49519 H 4698.11 1.30497 2.221 0
M  V30 49520 H 4698.06 -0.159576 3.13995 0
M  V30 49521 N 4701.84 -0.605756 1.45494 0
M  V30 49522 C 4703.06 -1.3962 1.53366 0
M  V30 49523 C 4703.49 -1.87351 0.167711 0
M  V30 49524 O 4702.84 -1.60246 -0.847995 0
M  V30 49525 C 4702.89 -2.5755 2.52389 0
M  V30 49526 O 4702 -3.58241 2.04297 0
M  V30 49527 H 4701.34 -0.416753 0.516927 0
M  V30 49528 H 4703.87 -0.737036 1.90864 0
M  V30 49529 H 4703.88 -3.0477 2.71255 0
M  V30 49530 H 4702.55 -2.22158 3.51594 0
M  V30 49531 H 4701.13 -3.17657 1.95316 0
M  V30 49532 N 4703.31 -1.32814 -0.848417 0
M  V30 49533 C 4704.24 -1.24888 -1.97295 0
M  V30 49534 C 4705.23 -0.131416 -1.69592 0
M  V30 49535 O 4706.41 -0.31962 -1.91552 0
M  V30 49536 C 4703.54 -0.977577 -3.33258 0
M  V30 49537 C 4702.49 -2.05695 -3.75331 0
M  V30 49538 C 4701.82 -1.63795 -5.08995 0
M  V30 49539 C 4703.12 -3.47268 -3.90131 0
M  V30 49540 H 4704.81 -2.18974 -2.04184 0
M  V30 49541 H 4702.36 -1.05416 -0.980992 0
M  V30 49542 H 4704.31 -0.908658 -4.11487 0
M  V30 49543 H 4703.04 -0.00109483 -3.266 0
M  V30 49544 H 4701.7 -2.11613 -2.99358 0
M  V30 49545 H 4701.34 -0.648744 -4.98799 0
M  V30 49546 H 4701.04 -2.36019 -5.38116 0
M  V30 49547 H 4702.57 -1.58351 -5.8971 0
M  V30 49548 H 4703.98 -3.43904 -4.58697 0
M  V30 49549 H 4702.38 -4.17895 -4.30678 0
M  V30 49550 H 4703.45 -3.86472 -2.9286 0
M  V30 49551 N 4704.79 1.06547 -1.16127 0
M  V30 49552 C 4706.02 1.83001 -0.965302 0
M  V30 49553 C 4706.44 1.82425 0.486478 0
M  V30 49554 O 4705.79 1.24157 1.33758 0
M  V30 49555 C 4705.84 3.29728 -1.48194 0
M  V30 49556 O 4705.56 3.30406 -2.87686 0
M  V30 49557 C 4707.07 4.22921 -1.32863 0
M  V30 49558 H 4704.29 0.577106 -0.342329 0
M  V30 49559 H 4706.83 1.34445 -1.54094 0
M  V30 49560 H 4704.98 3.75605 -0.948649 0
M  V30 49561 H 4705.4 4.22138 -3.11287 0
M  V30 49562 H 4706.87 5.2391 -1.73846 0
M  V30 49563 H 4707.35 4.38345 -0.273846 0
M  V30 49564 H 4707.96 3.82888 -1.85141 0
M  V30 49565 N 4706.27 0.959345 1.25037 0
M  V30 49566 C 4707.22 0.474517 2.27708 0
M  V30 49567 C 4708.21 -0.457639 1.63101 0
M  V30 49568 O 4709.42 -0.33385 1.76877 0
M  V30 49569 H 4705.79 0.134962 0.73979 0
M  V30 49570 H 4707.76 1.3526 2.65983 0
M  V30 49571 C 4706.51 -0.227762 3.46953 0
M  V30 49572 H 4705.84 0.480387 3.96903 0
M  V30 49573 H 4707.28 -0.530944 4.20663 0
M  V30 49574 C 4705.74 -1.45189 3.04009 0
M  V30 49575 O 4706.27 -2.54938 3.10435 0
M  V30 49576 N 4704.47 -1.31493 2.59149 0
M  V30 49577 H 4704.02 -0.421976 2.5412 0
M  V30 49578 H 4703.98 -2.13513 2.30781 0
M  V30 49579 N 4707.75 -1.39754 0.728469 0
M  V30 49580 C 4709.03 -1.94573 0.200147 0
M  V30 49581 C 4709.41 -1.66574 -1.29678 0
M  V30 49582 O 4708.75 -0.990398 -2.05921 0
M  V30 49583 C 4708.96 -3.45002 0.526729 0
M  V30 49584 C 4710.31 -4.21963 0.472466 0
M  V30 49585 O 4711.34 -3.53171 0.463538 0
M  V30 49586 O 4710.19 -5.4455 0.461266 0
M  V30 49587 H 4707.29 -0.826288 0.0343141 0
M  V30 49588 H 4709.83 -1.4929 0.806882 0
M  V30 49589 H 4708.61 -3.58791 1.56157 0
M  V30 49590 H 4708.23 -3.9745 -0.10931 0
M  V30 49591 N 4709.23 -0.475607 -1.50252 0
M  V30 49592 C 4710.19 0.304936 -2.27162 0
M  V30 49593 C 4711.19 0.916472 -1.32127 0
M  V30 49594 O 4712.38 0.784949 -1.55513 0
M  V30 49595 C 4709.51 1.43485 -3.09232 0
M  V30 49596 H 4710.7 -0.369616 -2.97614 0
M  V30 49597 H 4708.26 -0.229801 -1.54601 0
M  V30 49598 H 4708.99 2.14433 -2.43288 0
M  V30 49599 H 4708.78 1.0021 -3.79078 0
M  V30 49600 H 4710.27 1.98535 -3.67388 0
M  V30 49601 N 4710.7 1.56216 -0.208392 0
M  V30 49602 C 4711.93 2.02045 0.431452 0
M  V30 49603 C 4712.34 1.0876 1.54815 0
M  V30 49604 O 4711.69 0.0870654 1.83494 0
M  V30 49605 C 4711.75 3.44243 1.0362 0
M  V30 49606 C 4711.41 4.56965 0.0565895 0
M  V30 49607 C 4712.41 5.14622 -0.738954 0
M  V30 49608 C 4710.09 5.02266 -0.0583501 0
M  V30 49609 C 4712.09 6.1604 -1.63627 0
M  V30 49610 C 4709.77 6.03525 -0.959213 0
M  V30 49611 C 4710.77 6.60287 -1.74673 0
M  V30 49612 O 4710.46 7.59576 -2.63247 0
M  V30 49613 H 4710.19 0.666776 0.11129 0
M  V30 49614 H 4712.75 2.02918 -0.318348 0
M  V30 49615 H 4710.98 3.40397 1.83485 0
M  V30 49616 H 4712.67 3.73798 1.58208 0
M  V30 49617 H 4713.43 4.80481 -0.660533 0
M  V30 49618 H 4709.31 4.57773 0.544472 0
M  V30 49619 H 4712.85 6.60271 -2.25139 0
M  V30 49620 H 4708.75 6.37088 -1.0387 0
M  V30 49621 H 4709.52 7.77048 -2.57175 0
M  V30 49622 N 4712.18 -0.0651125 1.57465 0
M  V30 49623 C 4713.41 -0.779538 1.92193 0
M  V30 49624 C 4713.83 -1.69985 0.805392 0
M  V30 49625 O 4713.19 -1.79686 -0.241372 0
M  V30 49626 C 4713.24 -1.54352 3.25895 0
M  V30 49627 O 4712.34 -2.65463 3.156 0
M  V30 49628 H 4711.68 -0.212227 0.629171 0
M  V30 49629 H 4714.21 -0.0313574 2.04576 0
M  V30 49630 H 4714.22 -1.92133 3.59929 0
M  V30 49631 H 4712.9 -0.868314 4.06735 0
M  V30 49632 H 4711.48 -2.3049 2.93136 0
M  V30 49633 N 4713.66 -1.53962 -0.336652 0
M  V30 49634 C 4715.08 -1.4438 -0.68019 0
M  V30 49635 C 4715.28 -0.606101 -1.92168 0
M  V30 49636 O 4714.33 -0.0997767 -2.52303 0
M  V30 49637 C 4715.65 -2.87948 -0.866398 0
M  V30 49638 C 4717.19 -2.97767 -0.964577 0
M  V30 49639 C 4717.67 -4.42457 -1.18305 0
M  V30 49640 N 4719.16 -4.46012 -1.25009 0
M  V30 49641 C 4719.89 -5.55107 -1.43678 0
M  V30 49642 N 4719.39 -6.74196 -1.59474 0
M  V30 49643 N 4721.18 -5.42732 -1.46281 0
M  V30 49644 H 4713.33 -2.06916 0.479527 0
M  V30 49645 H 4715.6 -0.935629 0.152652 0
M  V30 49646 H 4715.3 -3.51691 -0.0255701 0
M  V30 49647 H 4715.18 -3.33299 -1.76611 0
M  V30 49648 H 4717.56 -2.3416 -1.79592 0
M  V30 49649 H 4717.65 -2.55766 -0.0416181 0
M  V30 49650 H 4717.29 -5.06647 -0.35661 0
M  V30 49651 H 4717.22 -4.82055 -2.11968 0
M  V30 49652 H 4719.71 -3.602 -1.14299 0
M  V30 49653 H 4720.02 -7.53101 -1.73374 0
M  V30 49654 H 4718.37 -6.77128 -1.56597 0
M  V30 49655 H 4721.56 -4.48651 -1.33527 0
M  V30 49656 H 4721.73 -6.27812 -1.60488 0
M  V30 49657 N 4715.14 0.598031 -1.45813 0
M  V30 49658 C 4716.39 1.35676 -1.50327 0
M  V30 49659 C 4716.71 1.9393 -0.148807 0
M  V30 49660 O 4715.97 1.76097 0.853725 0
M  V30 49661 C 4716.27 2.5166 -2.53775 0
M  V30 49662 C 4715.93 2.11494 -3.98222 0
M  V30 49663 C 4714.6 2.00254 -4.37552 0
M  V30 49664 C 4716.95 1.80291 -4.89024 0
M  V30 49665 C 4714.28 1.56047 -5.65567 0
M  V30 49666 C 4716.63 1.37567 -6.17461 0
M  V30 49667 C 4715.29 1.24893 -6.55712 0
M  V30 49668 H 4714.56 0.496473 -0.550087 0
M  V30 49669 H 4717.21 0.674989 -1.7921 0
M  V30 49670 H 4715.51 3.25217 -2.18497 0
M  V30 49671 H 4717.21 3.09886 -2.54503 0
M  V30 49672 H 4713.8 2.21172 -3.67125 0
M  V30 49673 H 4717.98 1.87867 -4.59369 0
M  V30 49674 H 4713.24 1.44865 -5.9399 0
M  V30 49675 H 4717.41 1.12471 -6.87258 0
M  V30 49676 H 4715.04 0.904121 -7.54804 0
M  V30 49677 N 4716.62 1.33262 0.841362 0
M  V30 49678 C 4717.55 1.25933 1.96629 0
M  V30 49679 C 4718.53 0.140408 1.6952 0
M  V30 49680 O 4719.71 0.329774 1.9138 0
M  V30 49681 C 4716.84 0.995237 3.32735 0
M  V30 49682 C 4715.8 2.07683 3.74235 0
M  V30 49683 C 4715.12 1.66492 5.08119 0
M  V30 49684 C 4716.42 3.49332 3.88284 0
M  V30 49685 H 4718.12 2.20053 2.03019 0
M  V30 49686 H 4715.66 1.05935 0.975388 0
M  V30 49687 H 4717.62 0.930467 4.10999 0
M  V30 49688 H 4716.34 0.0184152 3.26595 0
M  V30 49689 H 4715 2.13198 2.98232 0
M  V30 49690 H 4714.65 0.675187 4.98448 0
M  V30 49691 H 4714.35 2.38869 5.36857 0
M  V30 49692 H 4715.87 1.61476 5.88861 0
M  V30 49693 H 4717.29 3.46332 4.56867 0
M  V30 49694 H 4715.68 4.20173 4.28456 0
M  V30 49695 H 4716.75 3.8802 2.90807 0
M  V30 49696 N 4718.1 -1.0593 1.1669 0
M  V30 49697 C 4719.34 -1.78443 0.948807 0
M  V30 49698 C 4719.66 -1.87815 -0.524457 0
M  V30 49699 O 4718.93 -1.3895 -1.38093 0
M  V30 49700 H 4717.51 -0.660958 0.348056 0
M  V30 49701 H 4720.18 -1.27942 1.47027 0
M  V30 49702 H 4719.27 -2.80389 1.37071 0
M  V30 49703 N 4719.57 -0.965962 -1.24527 0
M  V30 49704 C 4720.5 -0.513556 -2.27782 0
M  V30 49705 C 4721.48 0.445916 -1.64151 0
M  V30 49706 O 4722.67 0.342418 -1.91157 0
M  V30 49707 C 4719.8 0.198717 -3.46731 0
M  V30 49708 C 4718.75 -0.676605 -4.22618 0
M  V30 49709 C 4718.08 0.16706 -5.34439 0
M  V30 49710 C 4719.38 -1.96034 -4.84116 0
M  V30 49711 H 4721.07 -1.37659 -2.65877 0
M  V30 49712 H 4718.62 -0.663366 -1.2781 0
M  V30 49713 H 4720.57 0.52642 -4.18099 0
M  V30 49714 H 4719.3 1.09609 -3.07658 0
M  V30 49715 H 4717.96 -0.987554 -3.53048 0
M  V30 49716 H 4717.6 1.06453 -4.91606 0
M  V30 49717 H 4717.3 -0.415387 -5.8613 0
M  V30 49718 H 4718.83 0.489474 -6.08635 0
M  V30 49719 H 4720.24 -1.69833 -5.47567 0
M  V30 49720 H 4718.64 -2.48937 -5.46032 0
M  V30 49721 H 4719.71 -2.65636 -4.05667 0
M  V30 49722 N 4721.05 1.39365 -0.73587 0
M  V30 49723 C 4722.3 2.00496 -0.284194 0
M  V30 49724 C 4722.63 1.58391 1.12883 0
M  V30 49725 O 4721.88 0.804422 1.78403 0
M  V30 49726 C 4722.18 3.55829 -0.334776 0
M  V30 49727 C 4721.85 4.17587 -1.70095 0
M  V30 49728 C 4720.51 4.34169 -2.07487 0
M  V30 49729 C 4722.86 4.51839 -2.59791 0
M  V30 49730 C 4720.19 4.82292 -3.34082 0
M  V30 49731 C 4722.54 5.01371 -3.85759 0
M  V30 49732 C 4721.2 5.16161 -4.23243 0
M  V30 49733 H 4720.47 0.733666 -0.103994 0
M  V30 49734 H 4723.12 1.66679 -0.942883 0
M  V30 49735 H 4721.43 3.89675 0.407488 0
M  V30 49736 H 4723.12 4.00987 0.0328517 0
M  V30 49737 H 4719.71 4.05082 -1.40023 0
M  V30 49738 H 4723.9 4.38645 -2.32172 0
M  V30 49739 H 4719.15 4.91928 -3.63066 0
M  V30 49740 H 4723.33 5.26847 -4.55418 0
M  V30 49741 H 4720.95 5.53211 -5.21403 0
M  V30 49742 N 4722.53 0.483569 1.49998 0
M  V30 49743 C 4723.48 -0.31798 2.30416 0
M  V30 49744 C 4724.47 -0.978939 1.3825 0
M  V30 49745 O 4725.68 -0.908618 1.55384 0
M  V30 49746 H 4722.05 -0.121393 0.742137 0
M  V30 49747 H 4724.02 0.380507 2.95964 0
M  V30 49748 C 4722.77 -1.38002 3.19141 0
M  V30 49749 H 4722.1 -0.880815 3.89977 0
M  V30 49750 H 4723.54 -1.91319 3.78382 0
M  V30 49751 C 4721.99 -2.38876 2.37571 0
M  V30 49752 O 4722.52 -3.44405 2.06756 0
M  V30 49753 N 4720.73 -2.10905 1.99918 0
M  V30 49754 H 4720.28 -1.2511 2.25178 0
M  V30 49755 H 4720.24 -2.7863 1.45646 0
M  V30 49756 N 4724.01 -1.56103 0.216674 0
M  V30 49757 C 4724.95 -2.20073 -0.695454 0
M  V30 49758 C 4725.92 -1.15475 -1.19393 0
M  V30 49759 O 4727.11 -1.43811 -1.25391 0
M  V30 49760 C 4724.25 -2.88079 -1.90011 0
M  V30 49761 C 4723.36 -4.07259 -1.44099 0
M  V30 49762 C 4722.5 -4.63062 -2.60283 0
M  V30 49763 C 4721.54 -5.74552 -2.11083 0
M  V30 49764 N 4720.67 -6.24668 -3.20523 0
M  V30 49765 H 4725.51 -2.97656 -0.143223 0
M  V30 49766 H 4723.05 -1.46982 -0.0589417 0
M  V30 49767 H 4725.01 -3.2569 -2.60733 0
M  V30 49768 H 4723.64 -2.13023 -2.4253 0
M  V30 49769 H 4722.69 -3.75166 -0.628868 0
M  V30 49770 H 4724 -4.87834 -1.04019 0
M  V30 49771 H 4723.16 -5.0309 -3.39095 0
M  V30 49772 H 4721.9 -3.81639 -3.03649 0
M  V30 49773 H 4720.9 -5.34031 -1.30732 0
M  V30 49774 H 4722.13 -6.57807 -1.68722 0
M  V30 49775 H 4720.07 -5.46161 -3.6338 0
M  V30 49776 H 4719.99 -7.00353 -2.84679 0
M  V30 49777 H 4721.26 -6.69352 -3.99485 0
M  V30 49778 N 4725.49 0.0567608 -1.57498 0
M  V30 49779 C 4726.72 0.764448 -1.91937 0
M  V30 49780 C 4727.12 1.70874 -0.81233 0
M  V30 49781 O 4726.47 1.82352 0.222149 0
M  V30 49782 C 4726.53 1.59929 -3.21967 0
M  V30 49783 C 4726.19 0.822767 -4.49533 0
M  V30 49784 C 4727.19 0.135281 -5.19724 0
M  V30 49785 C 4724.87 0.785492 -4.9612 0
M  V30 49786 C 4726.87 -0.579084 -6.34764 0
M  V30 49787 C 4724.56 0.0673636 -6.11063 0
M  V30 49788 C 4725.55 -0.61371 -6.80237 0
M  V30 49789 O 4725.24 -1.32024 -7.92985 0
M  V30 49790 H 4724.97 0.221624 -0.638638 0
M  V30 49791 H 4727.53 0.0267496 -2.05383 0
M  V30 49792 H 4725.76 2.38015 -3.04772 0
M  V30 49793 H 4727.45 2.18703 -3.41941 0
M  V30 49794 H 4728.21 0.155288 -4.84751 0
M  V30 49795 H 4724.09 1.30509 -4.42141 0
M  V30 49796 H 4727.64 -1.11124 -6.88692 0
M  V30 49797 H 4723.53 0.0453367 -6.45484 0
M  V30 49798 H 4724.3 -1.23105 -8.09189 0
M  V30 49799 N 4726.96 1.54139 0.328482 0
M  V30 49800 C 4727.91 1.83181 1.40405 0
M  V30 49801 C 4728.88 0.678547 1.51608 0
M  V30 49802 O 4730.07 0.924489 1.66907 0
M  V30 49803 C 4727.21 2.06045 2.76838 0
M  V30 49804 C 4726.32 3.33737 2.74306 0
M  V30 49805 C 4725.45 3.46588 4.02555 0
M  V30 49806 C 4724.49 4.68173 3.9431 0
M  V30 49807 N 4723.63 4.77977 5.14279 0
M  V30 49808 H 4728.47 2.74942 1.14939 0
M  V30 49809 H 4726.01 1.36168 0.55649 0
M  V30 49810 H 4727.96 2.17292 3.56146 0
M  V30 49811 H 4726.59 1.1758 3.00624 0
M  V30 49812 H 4725.65 3.31253 1.87018 0
M  V30 49813 H 4726.96 4.23149 2.64096 0
M  V30 49814 H 4726.11 3.5735 4.90291 0
M  V30 49815 H 4724.85 2.55259 4.15565 0
M  V30 49816 H 4723.86 4.57472 3.04958 0
M  V30 49817 H 4725.08 5.60881 3.8287 0
M  V30 49818 H 4723.03 3.89562 5.27804 0
M  V30 49819 H 4722.94 5.61347 5.06384 0
M  V30 49820 H 4724.21 4.93065 6.03744 0
M  V30 49821 N 4728.44 -0.59029 1.46128 0
M  V30 49822 C 4729.67 -1.37299 1.54378 0
M  V30 49823 C 4730.08 -1.88331 0.181137 0
M  V30 49824 O 4729.42 -1.63855 -0.830502 0
M  V30 49825 C 4729.48 -2.60111 2.48158 0
M  V30 49826 C 4729.15 -2.30599 3.94554 0
M  V30 49827 C 4730.15 -1.89898 4.83978 0
M  V30 49828 C 4727.83 -2.42977 4.39622 0
M  V30 49829 C 4729.82 -1.6196 6.1648 0
M  V30 49830 C 4727.51 -2.14652 5.72161 0
M  V30 49831 C 4728.51 -1.74207 6.6041 0
M  V30 49832 O 4728.2 -1.46224 7.9049 0
M  V30 49833 H 4727.93 -0.426068 0.524826 0
M  V30 49834 H 4730.48 -0.725322 1.92167 0
M  V30 49835 H 4728.71 -3.27657 2.05372 0
M  V30 49836 H 4730.4 -3.22174 2.46899 0
M  V30 49837 H 4731.17 -1.79856 4.50418 0
M  V30 49838 H 4727.05 -2.73422 3.71162 0
M  V30 49839 H 4730.59 -1.30317 6.8532 0
M  V30 49840 H 4726.49 -2.24316 6.05271 0
M  V30 49841 H 4727.26 -1.60132 8.02683 0
M  V30 49842 N 4729.92 -1.33707 -0.834283 0
M  V30 49843 C 4731.17 -1.25423 -1.58982 0
M  V30 49844 C 4731.49 0.1788 -1.93676 0
M  V30 49845 O 4730.75 1.13718 -1.59269 0
M  V30 49846 C 4731.05 -2.07936 -2.90684 0
M  V30 49847 C 4730.71 -3.57075 -2.75333 0
M  V30 49848 C 4729.38 -3.97734 -2.70853 0
M  V30 49849 C 4731.73 -4.51826 -2.59812 0
M  V30 49850 C 4729.06 -5.31353 -2.48759 0
M  V30 49851 C 4731.41 -5.85612 -2.39251 0
M  V30 49852 C 4730.07 -6.25448 -2.33177 0
M  V30 49853 H 4729.34 -0.458954 -0.581758 0
M  V30 49854 H 4731.99 -1.65338 -0.966203 0
M  V30 49855 H 4730.29 -1.60812 -3.57277 0
M  V30 49856 H 4731.99 -1.98881 -3.48206 0
M  V30 49857 H 4728.58 -3.24795 -2.79654 0
M  V30 49858 H 4732.77 -4.2132 -2.62304 0
M  V30 49859 H 4728.02 -5.61249 -2.42506 0
M  V30 49860 H 4732.2 -6.58631 -2.26226 0
M  V30 49861 H 4729.82 -7.28922 -2.15818 0
M  V30 49862 N 4731.4 1.0531 -1.1725 0
M  V30 49863 C 4732.62 1.82506 -0.985212 0
M  V30 49864 C 4733.05 1.82345 0.461724 0
M  V30 49865 O 4732.41 1.23155 1.33051 0
M  V30 49866 C 4732.45 3.2656 -1.5294 0
M  V30 49867 O 4731.56 4.05663 -0.742367 0
M  V30 49868 H 4730.9 0.564335 -0.349889 0
M  V30 49869 H 4733.43 1.32712 -1.5572 0
M  V30 49870 H 4733.44 3.77363 -1.55116 0
M  V30 49871 H 4732.11 3.25992 -2.58267 0
M  V30 49872 H 4730.69 3.64394 -0.791922 0
M  V30 49873 N 4732.88 0.972553 1.24013 0
M  V30 49874 C 4734.12 0.635843 1.91837 0
M  V30 49875 C 4734.45 -0.83225 1.76348 0
M  V30 49876 O 4733.72 -1.59456 1.13801 0
M  V30 49877 H 4732.3 0.232182 0.71 0
M  V30 49878 H 4734.96 1.23467 1.50804 0
M  V30 49879 H 4734.05 0.88065 2.99418 0
M  V30 49880 N 4734.35 -1.38973 0.74325 0
M  V30 49881 C 4735.32 -2.28901 0.117095 0
M  V30 49882 C 4736.32 -1.46701 -0.658452 0
M  V30 49883 O 4737.51 -1.67276 -0.486247 0
M  V30 49884 C 4734.64 -3.30312 -0.843034 0
M  V30 49885 H 4735.83 -2.85777 0.909473 0
M  V30 49886 H 4733.39 -1.47759 0.509599 0
M  V30 49887 H 4734.12 -2.78506 -1.66147 0
M  V30 49888 H 4733.91 -3.9103 -0.289456 0
M  V30 49889 H 4735.4 -3.97581 -1.27746 0
M  V30 49890 N 4735.83 -0.491517 -1.49739 0
M  V30 49891 C 4736.77 0.338384 -2.25677 0
M  V30 49892 C 4737.74 0.978631 -1.29852 0
M  V30 49893 O 4738.93 1.01058 -1.59121 0
M  V30 49894 C 4736.05 1.47577 -3.04859 0
M  V30 49895 C 4735.1 0.950854 -4.15766 0
M  V30 49896 S 4735.93 -0.150815 -5.35288 0
M  V30 49897 C 4737.09 0.989961 -6.18022 0
M  V30 49898 H 4737.32 -0.306172 -2.95719 0
M  V30 49899 H 4734.86 -0.276675 -1.51901 0
M  V30 49900 H 4736.81 2.12752 -3.51065 0
M  V30 49901 H 4735.47 2.0919 -2.34304 0
M  V30 49902 H 4734.67 1.80295 -4.70648 0
M  V30 49903 H 4734.27 0.376476 -3.721 0
M  V30 49904 H 4736.56 1.89725 -6.50393 0
M  V30 49905 H 4737.5 0.479957 -7.06472 0
M  V30 49906 H 4737.91 1.25301 -5.50418 0
M  V30 49907 N 4737.31 1.55986 -0.224949 0
M  V30 49908 C 4738.22 2.24068 0.695031 0
M  V30 49909 C 4739.24 1.24944 1.211 0
M  V30 49910 O 4740.41 1.57765 1.25189 0
M  V30 49911 C 4737.48 2.9099 1.88483 0
M  V30 49912 C 4736.54 4.05467 1.4105 0
M  V30 49913 C 4735.77 4.69188 2.54358 0
M  V30 49914 O 4735.99 4.31908 3.72574 0
M  V30 49915 O 4734.93 5.58116 2.25366 0
M  V30 49916 H 4738.75 3.03353 0.145042 0
M  V30 49917 H 4736.34 1.49399 0.00564224 0
M  V30 49918 H 4738.22 3.33219 2.5796 0
M  V30 49919 H 4736.9 2.14662 2.42285 0
M  V30 49920 H 4735.8 3.678 0.683645 0
M  V30 49921 H 4737.14 4.83548 0.918815 0
M  V30 49922 N 4738.79 -0.0484076 1.57526 0
M  V30 49923 C 4740.02 -0.755354 1.92619 0
M  V30 49924 C 4740.43 -1.69916 0.823044 0
M  V30 49925 O 4739.79 -1.81378 -0.202021 0
M  V30 49926 C 4739.84 -1.52904 3.27571 0
M  V30 49927 O 4739.56 -0.623137 4.33646 0
M  V30 49928 C 4741.06 -2.33489 3.76826 0
M  V30 49929 H 4738.28 -0.213442 0.636147 0
M  V30 49930 H 4740.83 -0.0116979 2.04497 0
M  V30 49931 H 4738.98 -2.22475 3.17149 0
M  V30 49932 H 4739.39 -1.16365 5.11429 0
M  V30 49933 H 4740.87 -2.83197 4.73818 0
M  V30 49934 H 4741.35 -3.14058 3.07025 0
M  V30 49935 H 4741.95 -1.69029 3.90268 0
M  V30 49936 N 4740.27 -1.54311 -0.320303 0
M  V30 49937 C 4741.23 -1.832 -1.37733 0
M  V30 49938 C 4742.23 -0.703957 -1.44572 0
M  V30 49939 O 4743.42 -0.972265 -1.44543 0
M  V30 49940 C 4740.55 -1.99496 -2.76431 0
M  V30 49941 H 4741.74 -2.77646 -1.1337 0
M  V30 49942 H 4739.3 -1.46078 -0.555961 0
M  V30 49943 H 4740.03 -1.07273 -3.06044 0
M  V30 49944 H 4739.82 -2.81584 -2.7286 0
M  V30 49945 H 4741.31 -2.23284 -3.52894 0
M  V30 49946 N 4741.74 0.582532 -1.46439 0
M  V30 49947 C 4742.71 1.67361 -1.56598 0
M  V30 49948 C 4743.71 1.54574 -0.443126 0
M  V30 49949 O 4744.9 1.59188 -0.707436 0
M  V30 49950 C 4742.03 3.06786 -1.48645 0
M  V30 49951 H 4743.22 1.59711 -2.53835 0
M  V30 49952 H 4740.78 0.800385 -1.34252 0
M  V30 49953 H 4741.51 3.19991 -0.526875 0
M  V30 49954 H 4741.3 3.17476 -2.30112 0
M  V30 49955 H 4742.79 3.86212 -1.5884 0
M  V30 49956 N 4743.22 1.34147 0.82718 0
M  V30 49957 C 4744.45 1.29143 1.61262 0
M  V30 49958 C 4744.86 -0.137531 1.88699 0
M  V30 49959 O 4744.2 -1.09374 1.47591 0
M  V30 49960 C 4744.27 2.0098 2.98073 0
M  V30 49961 C 4743.93 3.50253 2.93551 0
M  V30 49962 C 4744.93 4.45239 2.68436 0
M  V30 49963 C 4742.61 3.92603 3.13317 0
M  V30 49964 C 4744.61 5.80551 2.63133 0
M  V30 49965 C 4742.29 5.28016 3.07639 0
M  V30 49966 C 4743.29 6.21802 2.8258 0
M  V30 49967 O 4742.98 7.54733 2.76827 0
M  V30 49968 H 4742.71 0.445869 0.508111 0
M  V30 49969 H 4745.26 1.77267 1.03757 0
M  V30 49970 H 4743.49 1.47464 3.57479 0
M  V30 49971 H 4745.18 1.89322 3.59043 0
M  V30 49972 H 4745.95 4.13841 2.52904 0
M  V30 49973 H 4741.83 3.20005 3.3184 0
M  V30 49974 H 4745.37 6.53725 2.43493 0
M  V30 49975 H 4741.27 5.59035 3.22723 0
M  V30 49976 H 4742.04 7.64419 2.92584 0
M  V30 49977 N 4744.7 -1.04686 1.17807 0
M  V30 49978 C 4746.12 -1.2996 0.926424 0
M  V30 49979 C 4746.32 -1.97252 -0.411566 0
M  V30 49980 O 4745.37 -2.24926 -1.14736 0
M  V30 49981 C 4746.69 -2.1644 2.08745 0
M  V30 49982 C 4748.23 -2.29806 2.12504 0
M  V30 49983 C 4748.71 -3.19649 3.28007 0
M  V30 49984 N 4750.2 -3.27236 3.27828 0
M  V30 49985 C 4750.93 -3.96892 4.13841 0
M  V30 49986 N 4750.43 -4.68932 5.09975 0
M  V30 49987 N 4752.22 -3.93108 4.01775 0
M  V30 49988 H 4744.37 -0.59411 2.03922 0
M  V30 49989 H 4746.64 -0.324617 0.890689 0
M  V30 49990 H 4746.34 -1.74293 3.05475 0
M  V30 49991 H 4746.22 -3.17096 2.04279 0
M  V30 49992 H 4748.6 -2.71192 1.16357 0
M  V30 49993 H 4748.69 -1.28762 2.21029 0
M  V30 49994 H 4748.33 -2.78976 4.24423 0
M  V30 49995 H 4748.26 -4.20711 3.16718 0
M  V30 49996 H 4750.75 -2.75912 2.58227 0
M  V30 49997 H 4751.06 -5.19658 5.71992 0
M  V30 49998 H 4749.41 -4.67857 5.1394 0
M  V30 49999 H 4752.6 -3.35956 3.25962 0
M  V30 50000 H 4752.77 -4.47123 4.69026 0
M  V30 50001 N 4746.18 -0.979116 -1.23495 0
M  V30 50002 C 4747.09 -0.526512 -2.28615 0
M  V30 50003 C 4748.11 0.418067 -1.68903 0
M  V30 50004 O 4749.28 0.288302 -1.99326 0
M  V30 50005 C 4746.35 0.165113 -3.46307 0
M  V30 50006 C 4745.41 -0.820708 -4.21382 0
M  V30 50007 C 4744.64 -0.161994 -5.33454 0
M  V30 50008 O 4744.86 1.04723 -5.60704 0
M  V30 50009 O 4743.8 -0.859917 -5.95726 0
M  V30 50010 H 4747.62 -1.40069 -2.6947 0
M  V30 50011 H 4745.21 -0.746688 -1.29402 0
M  V30 50012 H 4747.09 0.55314 -4.17754 0
M  V30 50013 H 4745.77 1.01408 -3.07405 0
M  V30 50014 H 4744.67 -1.25941 -3.52264 0
M  V30 50015 H 4746.01 -1.63844 -4.64129 0
M  V30 50016 N 4747.66 1.38577 -0.75061 0
M  V30 50017 C 4748.62 2.28835 -0.129232 0
M  V30 50018 C 4749.62 1.47048 0.650662 0
M  V30 50019 O 4750.81 1.67532 0.477369 0
M  V30 50020 C 4747.94 3.30754 0.825505 0
M  V30 50021 H 4749.14 2.85291 -0.924616 0
M  V30 50022 H 4746.69 1.47487 -0.517428 0
M  V30 50023 H 4747.42 2.79383 1.64667 0
M  V30 50024 H 4747.21 3.91178 0.268715 0
M  V30 50025 H 4748.7 3.98253 1.25636 0
M  V30 50026 N 4749.14 0.499451 1.49477 0
M  V30 50027 C 4750.1 -0.268758 2.27619 0
M  V30 50028 C 4751.1 -0.895336 1.33568 0
M  V30 50029 O 4752.29 -0.760108 1.56742 0
M  V30 50030 C 4749.42 -1.38548 3.11476 0
M  V30 50031 H 4750.61 0.416917 2.96988 0
M  V30 50032 H 4748.17 0.254368 1.54216 0
M  V30 50033 H 4748.9 -2.10535 2.46669 0
M  V30 50034 H 4748.69 -0.941664 3.80625 0
M  V30 50035 H 4750.18 -1.92665 3.705 0
M  V30 50036 N 4750.61 -1.55865 0.233218 0
M  V30 50037 C 4751.58 -2.19533 -0.658638 0
M  V30 50038 C 4752.58 -1.16057 -1.11299 0
M  V30 50039 O 4753.77 -1.41222 -1.01991 0
M  V30 50040 C 4750.9 -2.82798 -1.90364 0
M  V30 50041 H 4752.09 -2.99722 -0.103365 0
M  V30 50042 H 4749.64 -1.56291 -0.0163695 0
M  V30 50043 H 4750.38 -2.0651 -2.50048 0
M  V30 50044 H 4750.16 -3.58584 -1.58619 0
M  V30 50045 H 4751.65 -3.31565 -2.53879 0
M  V30 50046 N 4752.09 0.0400529 -1.57549 0
M  V30 50047 C 4753.33 0.738031 -1.90611 0
M  V30 50048 C 4753.7 1.73104 -0.8306 0
M  V30 50049 O 4754.9 2.47646 -1.04522 0
M  V30 50050 C 4753.17 1.39973 -3.2885 0
M  V30 50051 S 4754.73 2.12839 -3.83725 0
M  V30 50052 H 4751.54 0.244747 -0.667548 0
M  V30 50053 H 4754.15 -0.00700472 -1.95499 0
M  V30 50054 H 4752.85 0.663633 -4.04999 0
M  V30 50055 H 4752.38 2.18355 -3.27238 0
M  V30 50056 H 4754.4 3.3983 -3.61567 0
M  V30 50057 N 4753.57 1.54478 0.312115 0
M  V30 50058 C 4754.52 1.81042 1.38592 0
M  V30 50059 C 4755.5 0.666992 1.46424 0
M  V30 50060 O 4756.7 0.927322 1.50764 0
M  V30 50061 C 4753.82 2.05137 2.7527 0
M  V30 50062 C 4752.91 3.25634 2.71705 0
M  V30 50063 N 4753.3 4.46436 2.37757 0
M  V30 50064 C 4751.6 3.27437 3.02821 0
M  V30 50065 C 4752.3 5.28415 2.43213 0
M  V30 50066 N 4751.28 4.6587 2.80118 0
M  V30 50067 H 4755.08 2.72014 1.11292 0
M  V30 50068 H 4752.59 1.53828 0.520651 0
M  V30 50069 H 4754.59 2.22311 3.5268 0
M  V30 50070 H 4753.25 1.15427 3.03491 0
M  V30 50071 H 4754.26 4.73234 2.10404 0
M  V30 50072 H 4750.94 2.47798 3.3601 0
M  V30 50073 H 4752.33 6.34911 2.19859 0
M  V30 50074 N 4755.05 -0.574758 1.46746 0
M  V30 50075 C 4755.98 -1.69331 1.60777 0
M  V30 50076 C 4756.96 -1.63824 0.457794 0
M  V30 50077 O 4758.14 -1.81717 0.685011 0
M  V30 50078 C 4755.27 -3.07974 1.60527 0
M  V30 50079 C 4754.23 -3.28318 2.74575 0
M  V30 50080 C 4753.55 -4.67569 2.5939 0
M  V30 50081 C 4754.85 -3.15383 4.1633 0
M  V30 50082 H 4756.55 -1.57844 2.54412 0
M  V30 50083 H 4754.09 -0.757947 1.22438 0
M  V30 50084 H 4756.05 -3.86055 1.68937 0
M  V30 50085 H 4754.77 -3.20379 0.634418 0
M  V30 50086 H 4753.43 -2.52639 2.65648 0
M  V30 50087 H 4753.08 -4.7675 1.6037 0
M  V30 50088 H 4752.78 -4.82132 3.3589 0
M  V30 50089 H 4754.3 -5.47808 2.69702 0
M  V30 50090 H 4755.72 -3.833 4.26326 0
M  V30 50091 H 4754.11 -3.41464 4.9348 0
M  V30 50092 H 4755.18 -2.12356 4.35927 0
M  V30 50093 N 4756.53 -1.34584 -0.820054 0
M  V30 50094 C 4757.49 -1.26287 -1.9127 0
M  V30 50095 C 4758.49 -0.1774 -1.59818 0
M  V30 50096 O 4759.68 -0.430215 -1.68804 0
M  V30 50097 C 4756.81 -0.950442 -3.27383 0
M  V30 50098 H 4758 -2.23428 -2.0005 0
M  V30 50099 H 4755.56 -1.18913 -1.01436 0
M  V30 50100 H 4756.29 0.0176798 -3.24295 0
M  V30 50101 H 4756.08 -1.73562 -3.51595 0
M  V30 50102 H 4757.57 -0.917636 -4.07393 0
M  V30 50103 N 4758 1.0406 -1.18361 0
M  V30 50104 C 4758.95 2.12074 -0.910678 0
M  V30 50105 C 4759.92 1.65422 0.149942 0
M  V30 50106 O 4761.11 1.90797 0.0102943 0
M  V30 50107 C 4758.25 3.4225 -0.442592 0
M  V30 50108 C 4757.36 4.02514 -1.56864 0
M  V30 50109 C 4756.49 5.20653 -1.05327 0
M  V30 50110 C 4755.53 5.72948 -2.15401 0
M  V30 50111 N 4754.67 6.82374 -1.65257 0
M  V30 50112 H 4759.51 2.34758 -1.83556 0
M  V30 50113 H 4757.05 1.15153 -0.915319 0
M  V30 50114 H 4759 4.16921 -0.15268 0
M  V30 50115 H 4757.63 3.19714 0.445316 0
M  V30 50116 H 4756.69 3.25171 -1.97403 0
M  V30 50117 H 4758 4.37354 -2.3984 0
M  V30 50118 H 4757.15 6.02438 -0.717888 0
M  V30 50119 H 4755.89 4.87318 -0.193101 0
M  V30 50120 H 4754.9 4.89784 -2.49783 0
M  V30 50121 H 4756.12 6.08327 -3.01853 0
M  V30 50122 H 4754.07 6.50914 -0.815293 0
M  V30 50123 H 4753.98 7.16278 -2.41831 0
M  V30 50124 H 4755.25 7.67783 -1.34646 0
M  V30 50125 N 4759.48 0.985651 1.22974 0
M  V30 50126 C 4760.44 0.535149 2.22865 0
M  V30 50127 C 4761.44 -0.378068 1.56292 0
M  V30 50128 O 4762.63 -0.171031 1.73358 0
M  V30 50129 C 4759.77 -0.222582 3.40173 0
M  V30 50130 H 4760.96 1.41844 2.64235 0
M  V30 50131 H 4758.51 0.77209 1.35899 0
M  V30 50132 H 4759.25 -1.12218 3.04266 0
M  V30 50133 H 4759.03 0.433017 3.89702 0
M  V30 50134 H 4760.52 -0.526189 4.14272 0
M  V30 50135 N 4760.96 -1.38177 0.757949 0
M  V30 50136 C 4761.89 -2.33026 0.148679 0
M  V30 50137 C 4762.87 -1.55088 -0.698695 0
M  V30 50138 O 4764.06 -1.83386 -0.638988 0
M  V30 50139 C 4761.19 -3.39283 -0.741915 0
M  V30 50140 C 4760.14 -4.28 0.00306992 0
M  V30 50141 C 4759.47 -5.2515 -1.00606 0
M  V30 50142 C 4760.77 -5.08934 1.17403 0
M  V30 50143 H 4762.46 -2.84228 0.941009 0
M  V30 50144 H 4760.01 -1.36657 0.453956 0
M  V30 50145 H 4761.96 -4.04604 -1.17785 0
M  V30 50146 H 4760.68 -2.86574 -1.56661 0
M  V30 50147 H 4759.34 -3.6419 0.419632 0
M  V30 50148 H 4758.99 -4.68727 -1.82494 0
M  V30 50149 H 4758.69 -5.85363 -0.512222 0
M  V30 50150 H 4760.21 -5.93347 -1.44122 0
M  V30 50151 H 4761.63 -5.67471 0.815423 0
M  V30 50152 H 4760.03 -5.78404 1.59902 0
M  V30 50153 H 4761.1 -4.42417 1.98483 0
M  V30 50154 N 4762.44 -0.507371 -1.4921 0
M  V30 50155 C 4763.37 0.304452 -2.27169 0
M  V30 50156 C 4764.38 0.924909 -1.33975 0
M  V30 50157 O 4765.57 0.807171 -1.59207 0
M  V30 50158 C 4762.67 1.4442 -3.06588 0
M  V30 50159 C 4761.85 0.929876 -4.27402 0
M  V30 50160 C 4760.9 1.948 -4.88814 0
M  V30 50161 O 4759.93 1.51399 -5.48696 0
M  V30 50162 N 4761.13 3.27883 -4.79033 0
M  V30 50163 H 4763.9 -0.364054 -2.97481 0
M  V30 50164 H 4761.46 -0.340304 -1.58283 0
M  V30 50165 H 4763.45 2.12299 -3.44545 0
M  V30 50166 H 4762.02 2.01676 -2.38843 0
M  V30 50167 H 4761.24 0.0757858 -3.94127 0
M  V30 50168 H 4762.53 0.564754 -5.05656 0
M  V30 50169 H 4761.93 3.65828 -4.31493 0
M  V30 50170 H 4760.48 3.91458 -5.21156 0
M  V30 50171 N 4763.92 1.55739 -0.241481 0
M  V30 50172 C 4765.14 2.03209 0.389063 0
M  V30 50173 C 4765.56 1.12087 1.51927 0
M  V30 50174 O 4764.92 0.134247 1.82006 0
M  V30 50175 C 4764.97 3.50067 0.901964 0
M  V30 50176 O 4764.69 4.37717 -0.183203 0
M  V30 50177 C 4766.19 4.13273 1.60374 0
M  V30 50178 H 4763.41 0.664512 0.093082 0
M  V30 50179 H 4765.95 2.01239 -0.363761 0
M  V30 50180 H 4764.11 3.52589 1.60499 0
M  V30 50181 H 4764.52 5.24098 0.205395 0
M  V30 50182 H 4766 5.1774 1.9144 0
M  V30 50183 H 4766.47 3.59443 2.52384 0
M  V30 50184 H 4767.08 4.14659 0.94543 0
M  V30 50185 N 4765.39 -0.0316971 1.57568 0
M  V30 50186 C 4766.62 -0.733816 1.93129 0
M  V30 50187 C 4767.03 -1.6956 0.839412 0
M  V30 50188 O 4766.38 -1.82682 -0.193111 0
M  V30 50189 C 4766.44 -1.54787 3.24471 0
M  V30 50190 C 4766.1 -0.751146 4.50785 0
M  V30 50191 C 4767.1 -0.0525805 5.19873 0
M  V30 50192 C 4764.78 -0.706464 4.97307 0
M  V30 50193 C 4766.78 0.679996 6.33762 0
M  V30 50194 C 4764.46 0.0298598 6.11093 0
M  V30 50195 C 4765.46 0.721852 6.79175 0
M  V30 50196 O 4765.15 1.44623 7.90784 0
M  V30 50197 H 4764.88 -0.211436 0.642083 0
M  V30 50198 H 4767.44 0.00592835 2.05399 0
M  V30 50199 H 4765.67 -2.33136 3.0852 0
M  V30 50200 H 4767.36 -2.13235 3.45377 0
M  V30 50201 H 4768.12 -0.0781483 4.84937 0
M  V30 50202 H 4764 -1.23458 4.44161 0
M  V30 50203 H 4767.54 1.22067 6.86837 0
M  V30 50204 H 4763.44 0.05736 6.45475 0
M  V30 50205 H 4764.21 1.35963 8.07128 0
M  V30 50206 N 4766.87 -1.54642 -0.303919 0
M  V30 50207 C 4768.1 -1.78096 -1.06286 0
M  V30 50208 C 4768.52 -0.537406 -1.8026 0
M  V30 50209 O 4767.88 0.511932 -1.73922 0
M  V30 50210 C 4767.93 -2.98619 -2.02137 0
M  V30 50211 O 4767.03 -2.71539 -3.10387 0
M  V30 50212 H 4766.37 -0.589559 -0.305477 0
M  V30 50213 H 4768.9 -2.01718 -0.342229 0
M  V30 50214 H 4768.91 -3.26509 -2.44655 0
M  V30 50215 H 4767.59 -3.8879 -1.477 0
M  V30 50216 H 4766.17 -2.54657 -2.72404 0
M  V30 50217 N 4768.35 0.566968 -1.47048 0
M  V30 50218 C 4769.26 1.70241 -1.61416 0
M  V30 50219 C 4770.28 1.66745 -0.497215 0
M  V30 50220 O 4771.45 1.86369 -0.763455 0
M  V30 50221 C 4768.52 3.0675 -1.61572 0
M  V30 50222 C 4767.58 3.21389 -2.84618 0
M  V30 50223 C 4766.81 4.51386 -2.84757 0
M  V30 50224 O 4767.03 5.36248 -1.94407 0
M  V30 50225 O 4765.97 4.69608 -3.76499 0
M  V30 50226 H 4769.79 1.61064 -2.57472 0
M  V30 50227 H 4767.38 0.735848 -1.30022 0
M  V30 50228 H 4769.26 3.88004 -1.64409 0
M  V30 50229 H 4767.94 3.1633 -0.686795 0
M  V30 50230 H 4766.84 2.39569 -2.87329 0
M  V30 50231 H 4768.18 3.16708 -3.76772 0
M  V30 50232 N 4769.83 1.35017 0.812906 0
M  V30 50233 C 4771.06 1.31036 1.60116 0
M  V30 50234 C 4771.47 -0.113492 1.88459 0
M  V30 50235 O 4770.83 -1.06358 1.48305 0
M  V30 50236 C 4770.88 2.10882 2.93617 0
M  V30 50237 O 4770.6 3.47716 2.66506 0
M  V30 50238 C 4772.1 2.14414 3.87997 0
M  V30 50239 H 4769.32 0.450388 0.497385 0
M  V30 50240 H 4771.87 1.77779 1.01069 0
M  V30 50241 H 4770.02 1.67756 3.49194 0
M  V30 50242 H 4770.43 3.8911 3.51701 0
M  V30 50243 H 4771.91 2.74686 4.78802 0
M  V30 50244 H 4772.39 1.1412 4.24115 0
M  V30 50245 H 4772.99 2.57674 3.38355 0
M  V30 50246 N 4771.31 -1.03431 1.18911 0
M  V30 50247 C 4772.55 -1.76391 0.986444 0
M  V30 50248 C 4772.88 -1.88885 -0.484501 0
M  V30 50249 O 4772.15 -1.41848 -1.35115 0
M  V30 50250 H 4770.73 -0.653427 0.361998 0
M  V30 50251 H 4773.39 -1.24794 1.49708 0
M  V30 50252 H 4772.48 -2.77419 1.42987 0
M  V30 50253 N 4772.78 -0.992159 -1.2245 0
M  V30 50254 C 4774.01 -0.685713 -1.95736 0
M  V30 50255 C 4774.43 0.74294 -1.72806 0
M  V30 50256 O 4773.79 1.50774 -1.00681 0
M  V30 50257 C 4773.84 -0.996414 -3.4656 0
M  V30 50258 O 4772.94 -0.0946961 -4.12291 0
M  V30 50259 H 4772.29 -0.256716 -0.612367 0
M  V30 50260 H 4774.82 -1.32894 -1.55565 0
M  V30 50261 H 4774.83 -0.937949 -3.97072 0
M  V30 50262 H 4773.5 -2.03745 -3.62575 0
M  V30 50263 H 4772.08 -0.208582 -3.72316 0
M  V30 50264 N 4774.26 1.37773 -0.765266 0
M  V30 50265 C 4775.54 1.93974 -0.251665 0
M  V30 50266 C 4775.92 1.69953 1.25216 0
M  V30 50267 O 4775.27 1.04465 2.03223 0
M  V30 50268 C 4775.48 3.43484 -0.618015 0
M  V30 50269 C 4776.83 4.20562 -0.584176 0
M  V30 50270 O 4777.85 3.51818 -0.557012 0
M  V30 50271 O 4776.71 5.43135 -0.605482 0
M  V30 50272 H 4773.8 0.825088 -0.0562096 0
M  V30 50273 H 4776.35 1.47098 -0.846179 0
M  V30 50274 H 4775.12 3.54524 -1.65615 0
M  V30 50275 H 4774.74 3.976 0.00389433 0
M  V30 50276 N 4775.74 0.515277 1.48938 0
M  V30 50277 C 4776.67 -0.244546 2.32216 0
M  V30 50278 C 4777.65 -0.949087 1.41161 0
M  V30 50279 O 4778.84 -0.937723 1.7006 0
M  V30 50280 C 4775.97 -1.30085 3.22017 0
M  V30 50281 C 4774.92 -0.715338 4.2198 0
M  V30 50282 C 4774.25 -1.87321 5.00814 0
M  V30 50283 C 4775.55 0.303165 5.21419 0
M  V30 50284 H 4777.24 0.450605 2.9599 0
M  V30 50285 H 4774.79 0.218148 1.42338 0
M  V30 50286 H 4776.74 -1.84024 3.79095 0
M  V30 50287 H 4775.46 -2.02538 2.56214 0
M  V30 50288 H 4774.12 -0.197586 3.66067 0
M  V30 50289 H 4773.77 -2.58577 4.31447 0
M  V30 50290 H 4773.47 -1.48744 5.68462 0
M  V30 50291 H 4775 -2.41667 5.6074 0
M  V30 50292 H 4776.41 -0.148601 5.73107 0
M  V30 50293 H 4774.81 0.60553 5.97037 0
M  V30 50294 H 4775.88 1.21411 4.69454 0
M  V30 50295 N 4777.22 -1.55609 0.249737 0
M  V30 50296 C 4778.15 -2.24479 -0.642747 0
M  V30 50297 C 4779.13 -1.22605 -1.17907 0
M  V30 50298 O 4780.32 -1.51265 -1.21789 0
M  V30 50299 C 4777.45 -2.94645 -1.83853 0
M  V30 50300 C 4776.4 -4.03232 -1.43485 0
M  V30 50301 C 4775.73 -4.60838 -2.71169 0
M  V30 50302 C 4777.03 -5.18798 -0.603819 0
M  V30 50303 H 4778.72 -2.99322 -0.0684573 0
M  V30 50304 H 4776.27 -1.43966 -0.0314857 0
M  V30 50305 H 4778.22 -3.41526 -2.46856 0
M  V30 50306 H 4776.94 -2.17295 -2.43824 0
M  V30 50307 H 4775.6 -3.57124 -0.828149 0
M  V30 50308 H 4775.25 -3.80185 -3.29345 0
M  V30 50309 H 4774.95 -5.34141 -2.44882 0
M  V30 50310 H 4776.47 -5.10454 -3.35066 0
M  V30 50311 H 4777.89 -5.61887 -1.13822 0
M  V30 50312 H 4776.28 -5.98508 -0.436887 0
M  V30 50313 H 4777.35 -4.83383 0.383317 0
M  V30 50314 N 4778.7 0.0233405 -1.57583 0
M  V30 50315 C 4779.93 0.723563 -1.93515 0
M  V30 50316 C 4780.34 1.69112 -0.848392 0
M  V30 50317 O 4779.68 1.82782 0.18342 0
M  V30 50318 C 4779.74 1.53064 -3.25287 0
M  V30 50319 C 4779.4 0.727229 -4.51177 0
M  V30 50320 C 4780.4 0.0250096 -5.19894 0
M  V30 50321 C 4778.09 0.680081 -4.97675 0
M  V30 50322 C 4780.08 -0.713597 -6.33393 0
M  V30 50323 C 4777.77 -0.0622671 -6.11068 0
M  V30 50324 C 4778.77 -0.757861 -6.78782 0
M  V30 50325 O 4778.45 -1.48814 -7.90006 0
M  V30 50326 H 4778.19 0.208028 -0.643195 0
M  V30 50327 H 4780.74 -0.0168211 -2.05393 0
M  V30 50328 H 4778.97 2.31497 -3.09752 0
M  V30 50329 H 4780.66 2.11401 -3.46503 0
M  V30 50330 H 4781.42 0.0524298 -4.84972 0
M  V30 50331 H 4777.3 1.21101 -4.4481 0
M  V30 50332 H 4780.85 -1.25707 -6.8618 0
M  V30 50333 H 4776.74 -0.0915903 -6.45435 0
M  V30 50334 H 4777.51 -1.40242 -8.06396 0
M  V30 50335 N 4780.18 1.54801 0.295713 0
M  V30 50336 C 4781.11 1.82497 1.38664 0
M  V30 50337 C 4782.12 0.708186 1.4659 0
M  V30 50338 O 4783.31 0.985739 1.48813 0
M  V30 50339 C 4780.41 1.95266 2.76992 0
M  V30 50340 C 4779.58 3.25719 2.91935 0
M  V30 50341 C 4778.64 3.28838 4.10794 0
M  V30 50342 O 4777.67 4.02342 4.02628 0
M  V30 50343 N 4778.87 2.54608 5.21685 0
M  V30 50344 H 4781.63 2.7665 1.15259 0
M  V30 50345 H 4779.2 1.5444 0.485795 0
M  V30 50346 H 4781.19 1.94748 3.54761 0
M  V30 50347 H 4779.76 1.08083 2.9332 0
M  V30 50348 H 4778.98 3.38966 2.01235 0
M  V30 50349 H 4780.27 4.11797 2.98833 0
M  V30 50350 H 4779.66 1.94531 5.31201 0
M  V30 50351 H 4778.22 2.59839 5.97768 0
M  V30 50352 N 4781.65 -0.559161 1.47347 0
M  V30 50353 C 4783.06 -1.14129 1.47755 0
M  V30 50354 C 4783.42 -1.94833 0.231171 0
M  V30 50355 O 4782.54 -2.05959 -0.664064 0
M  V30 50356 C 4783.14 -2.07643 2.67712 0
M  V30 50357 C 4781.69 -2.61132 2.71085 0
M  V30 50358 C 4780.84 -1.37471 2.40825 0
M  V30 50359 H 4783.79 -0.345862 1.54885 0
M  V30 50360 H 4783.81 -2.91488 2.44571 0
M  V30 50361 H 4783.33 -1.48877 3.58409 0
M  V30 50362 H 4781.43 -3.23701 1.84522 0
M  V30 50363 H 4781.54 -3.02259 3.71721 0
M  V30 50364 H 4779.9 -1.68079 1.91368 0
M  V30 50365 H 4780.69 -0.805017 3.33728 0
M  V30 50366 N 4783.13 -1.35446 -0.805734 0
M  V30 50367 C 4784.54 -1.25773 -1.37978 0
M  V30 50368 C 4784.89 0.109511 -1.95894 0
M  V30 50369 O 4784.02 1.01049 -1.91358 0
M  V30 50370 C 4784.61 -2.27736 -2.50842 0
M  V30 50371 C 4783.17 -2.21801 -3.04107 0
M  V30 50372 C 4782.32 -2.134 -1.77076 0
M  V30 50373 H 4785.27 -1.46562 -0.6087 0
M  V30 50374 H 4785.29 -1.90433 -3.29417 0
M  V30 50375 H 4784.8 -3.27235 -2.0866 0
M  V30 50376 H 4782.9 -1.25716 -3.50751 0
M  V30 50377 H 4783.02 -3.138 -3.62031 0
M  V30 50378 H 4781.38 -1.59391 -1.98662 0
M  V30 50379 H 4782.16 -3.1476 -1.37045 0
M  V30 50380 N 4784.61 1.02799 -1.19458 0
M  V30 50381 C 4785.56 2.1321 -0.929748 0
M  V30 50382 C 4786.55 1.69011 0.114746 0
M  V30 50383 O 4787.76 1.79967 -0.034578 0
M  V30 50384 H 4784.13 0.69661 -0.283264 0
M  V30 50385 H 4786.1 2.32737 -1.86751 0
M  V30 50386 C 4784.85 3.44288 -0.485918 0
M  V30 50387 H 4784.18 3.78716 -1.28118 0
M  V30 50388 H 4785.62 4.22637 -0.339731 0
M  V30 50389 C 4784.07 3.27261 0.800129 0
M  V30 50390 O 4784.6 3.55973 1.86134 0
M  V30 50391 N 4782.81 2.80548 0.757711 0
M  V30 50392 H 4782.36 2.57381 -0.10613 0
M  V30 50393 H 4782.32 2.69536 1.61857 0
M  V30 50394 N 4786.09 0.998639 1.21922 0
M  V30 50395 C 4787.33 0.686015 1.92544 0
M  V30 50396 C 4787.69 -0.76838 1.75954 0
M  V30 50397 O 4788.89 -1.19269 2.40891 0
M  V30 50398 C 4787.16 1.08779 3.40444 0
M  V30 50399 S 4788.72 0.894402 4.29588 0
M  V30 50400 H 4785.54 0.250645 0.665356 0
M  V30 50401 H 4788.14 1.28213 1.47586 0
M  V30 50402 H 4786.85 2.14254 3.50033 0
M  V30 50403 H 4786.38 0.483707 3.90415 0
M  V30 50404 H 4788.39 -0.211974 4.95747 0
M  V30 50405 N 4787.57 -1.37365 0.772562 0
M  V30 50406 C 4788.79 -2.04469 0.347457 0
M  V30 50407 C 4789.22 -1.57885 -1.02244 0
M  V30 50408 O 4788.57 -0.739469 -1.65534 0
M  V30 50409 C 4788.62 -3.58368 0.400605 0
M  V30 50410 O 4787.73 -4.08032 -0.598646 0
M  V30 50411 H 4787.07 -0.646767 0.150293 0
M  V30 50412 H 4789.6 -1.75663 1.04898 0
M  V30 50413 H 4789.61 -4.07182 0.258189 0
M  V30 50414 H 4788.28 -3.91628 1.4 0
M  V30 50415 H 4786.86 -3.70535 -0.419281 0
M  V30 50416 N 4789.04 -0.523168 -1.48663 0
M  V30 50417 C 4790.29 0.0153691 -2.01694 0
M  V30 50418 C 4790.61 1.3597 -1.40611 0
M  V30 50419 O 4791.81 1.98621 -1.851 0
M  V30 50420 C 4790.27 0.0778038 -3.59816 0
M  V30 50421 C 4789.88 -1.26122 -4.29881 0
M  V30 50422 C 4791.62 0.56553 -4.20716 0
M  V30 50423 C 4789.53 -1.15974 -5.79917 0
M  V30 50424 H 4788.46 0.00951513 -0.75394 0
M  V30 50425 H 4791.11 -0.665925 -1.7099 0
M  V30 50426 H 4789.49 0.824029 -3.87332 0
M  V30 50427 H 4790.66 -2.02248 -4.14044 0
M  V30 50428 H 4788.98 -1.68414 -3.80822 0
M  V30 50429 H 4791.58 0.659313 -5.3062 0
M  V30 50430 H 4791.92 1.5697 -3.85572 0
M  V30 50431 H 4792.45 -0.12481 -3.97604 0
M  V30 50432 H 4789.19 -2.13886 -6.19623 0
M  V30 50433 H 4788.71 -0.439739 -5.98186 0
M  V30 50434 H 4790.39 -0.847586 -6.41424 0
M  V30 50435 N 4790.52 1.55474 -0.257986 0
M  V30 50436 C 4791.75 2.0361 0.367488 0
M  V30 50437 C 4792.17 1.13692 1.5073 0
M  V30 50438 O 4791.52 0.153543 1.81853 0
M  V30 50439 C 4791.57 3.51004 0.864784 0
M  V30 50440 O 4791.29 4.37498 -0.229619 0
M  V30 50441 C 4792.8 4.14951 1.55982 0
M  V30 50442 H 4790.02 0.665462 0.0860287 0
M  V30 50443 H 4792.56 2.00842 -0.385085 0
M  V30 50444 H 4790.71 3.54271 1.5675 0
M  V30 50445 H 4791.13 5.24286 0.149795 0
M  V30 50446 H 4792.6 5.19741 1.85938 0
M  V30 50447 H 4793.08 3.62099 2.48557 0
M  V30 50448 H 4793.69 4.15638 0.901397 0
M  V30 50449 N 4792 -0.0149831 1.57593 0
M  V30 50450 C 4793.23 -0.717999 1.94575 0
M  V30 50451 C 4793.65 -1.67337 0.859064 0
M  V30 50452 O 4793.01 -1.80363 -0.184084 0
M  V30 50453 C 4793.06 -1.43906 3.30641 0
M  V30 50454 O 4792.16 -2.55288 3.23885 0
M  V30 50455 H 4791.5 -0.192103 0.635604 0
M  V30 50456 H 4794.03 0.0337427 2.04572 0
M  V30 50457 H 4794.04 -1.80585 3.65859 0
M  V30 50458 H 4792.72 -0.738475 4.09291 0
M  V30 50459 H 4791.29 -2.21048 3.0032 0
M  V30 50460 N 4793.48 -1.54955 -0.2875 0
M  V30 50461 C 4794.73 -1.74531 -1.01898 0
M  V30 50462 C 4795.05 -0.541414 -1.87333 0
M  V30 50463 O 4794.32 0.444041 -1.90801 0
M  V30 50464 H 4792.9 -0.643589 -0.379212 0
M  V30 50465 H 4795.56 -1.92334 -0.315226 0
M  V30 50466 H 4794.66 -2.64021 -1.66431 0
M  V30 50467 N 4794.96 0.551339 -1.47641 0
M  V30 50468 C 4796.2 1.31018 -1.54797 0
M  V30 50469 C 4796.54 1.93039 -0.212035 0
M  V30 50470 O 4795.81 1.78178 0.779927 0
M  V30 50471 C 4796.09 2.41584 -2.67038 0
M  V30 50472 C 4795.95 1.84394 -4.10267 0
M  V30 50473 C 4797.27 3.43479 -2.75155 0
M  V30 50474 H 4794.38 0.475011 -0.563501 0
M  V30 50475 H 4797.03 0.616391 -1.79724 0
M  V30 50476 H 4795.18 3.00763 -2.45914 0
M  V30 50477 H 4796.85 1.2943 -4.4277 0
M  V30 50478 H 4795.09 1.15037 -4.18269 0
M  V30 50479 H 4795.76 2.6435 -4.84586 0
M  V30 50480 H 4798.24 2.94226 -2.94228 0
M  V30 50481 H 4797.11 4.18261 -3.55456 0
M  V30 50482 H 4797.38 4.02697 -1.82449 0
M  V30 50483 N 4796.43 1.35872 0.79854 0
M  V30 50484 C 4797.36 1.32125 1.92523 0
M  V30 50485 C 4798.35 0.194268 1.68987 0
M  V30 50486 O 4799.53 0.390493 1.90234 0
M  V30 50487 C 4796.66 1.10059 3.294 0
M  V30 50488 C 4795.61 2.19484 3.67438 0
M  V30 50489 C 4794.94 1.82573 5.02565 0
M  V30 50490 C 4796.24 3.61508 3.76974 0
M  V30 50491 H 4797.93 2.26401 1.95916 0
M  V30 50492 H 4795.48 1.08984 0.941192 0
M  V30 50493 H 4797.43 1.06075 4.07831 0
M  V30 50494 H 4796.16 0.12231 3.26371 0
M  V30 50495 H 4794.82 2.22578 2.91298 0
M  V30 50496 H 4794.46 0.833423 4.96047 0
M  V30 50497 H 4794.16 2.55828 5.28986 0
M  V30 50498 H 4795.69 1.80129 5.83426 0
M  V30 50499 H 4797.1 3.60691 4.45617 0
M  V30 50500 H 4795.5 4.33592 4.14871 0
M  V30 50501 H 4796.57 3.97075 2.78315 0
M  V30 50502 N 4797.91 -1.02164 1.20001 0
M  V30 50503 C 4798.84 -2.10702 0.902068 0
M  V30 50504 C 4799.86 -1.6244 -0.108159 0
M  V30 50505 O 4801.05 -1.78081 0.122203 0
M  V30 50506 C 4798.15 -3.3729 0.329953 0
M  V30 50507 C 4797.32 -4.14709 1.3905 0
M  V30 50508 C 4796.38 -5.19603 0.830614 0
M  V30 50509 O 4795.4 -5.48803 1.51008 0
M  V30 50510 N 4796.61 -5.79367 -0.362493 0
M  V30 50511 H 4799.37 -2.3685 1.83636 0
M  V30 50512 H 4796.93 -1.18514 1.103 0
M  V30 50513 H 4798.92 -4.04658 -0.0586211 0
M  V30 50514 H 4797.49 -3.08432 -0.508782 0
M  V30 50515 H 4796.71 -3.42385 1.95362 0
M  V30 50516 H 4798 -4.63218 2.10491 0
M  V30 50517 H 4797.4 -5.57972 -0.931885 0
M  V30 50518 H 4795.96 -6.48108 -0.692762 0
M  V30 50519 N 4799.39 -1.00509 -1.21391 0
M  V30 50520 C 4800.62 -0.706435 -1.94998 0
M  V30 50521 C 4801.04 0.724569 -1.73585 0
M  V30 50522 O 4800.4 1.49698 -1.02275 0
M  V30 50523 C 4800.45 -1.03312 -3.45484 0
M  V30 50524 O 4799.55 -0.13842 -4.12168 0
M  V30 50525 H 4798.89 -0.263196 -0.609609 0
M  V30 50526 H 4801.42 -1.34536 -1.54147 0
M  V30 50527 H 4801.43 -0.980012 -3.96055 0
M  V30 50528 H 4800.11 -2.0758 -3.60394 0
M  V30 50529 H 4798.68 -0.248059 -3.72074 0
M  V30 50530 N 4800.87 1.36954 -0.779835 0
M  V30 50531 C 4802.12 1.99096 -0.347149 0
M  V30 50532 C 4802.44 1.6221 1.08227 0
M  V30 50533 O 4801.71 0.891434 1.74443 0
M  V30 50534 H 4800.29 0.736405 -0.125368 0
M  V30 50535 H 4802.95 1.67305 -0.999755 0
M  V30 50536 H 4802.05 3.09106 -0.431271 0
M  V30 50537 N 4802.35 0.531045 1.48384 0
M  V30 50538 C 4803.28 -0.219903 2.32462 0
M  V30 50539 C 4804.26 -0.934061 1.42159 0
M  V30 50540 O 4805.44 -0.919633 1.71045 0
M  V30 50541 C 4802.57 -1.26662 3.23379 0
M  V30 50542 C 4801.53 -0.670541 4.22715 0
M  V30 50543 C 4800.85 -1.81999 5.02773 0
M  V30 50544 C 4802.15 0.358451 5.21069 0
M  V30 50545 H 4803.85 0.481974 2.95495 0
M  V30 50546 H 4801.39 0.233232 1.42099 0
M  V30 50547 H 4803.35 -1.79993 3.81026 0
M  V30 50548 H 4802.07 -1.99809 2.58348 0
M  V30 50549 H 4800.73 -0.158749 3.66256 0
M  V30 50550 H 4800.38 -2.53987 4.34166 0
M  V30 50551 H 4800.08 -1.42707 5.70008 0
M  V30 50552 H 4801.6 -2.35706 5.63272 0
M  V30 50553 H 4803.01 -0.0878066 5.73233 0
M  V30 50554 H 4801.41 0.66882 5.96361 0
M  V30 50555 H 4802.48 1.26384 4.6814 0
M  V30 50556 N 4803.82 -1.55335 0.266227 0
M  V30 50557 C 4805.07 -1.99693 -0.353611 0
M  V30 50558 C 4805.4 -1.15435 -1.56168 0
M  V30 50559 O 4804.68 -0.222286 -1.93226 0
M  V30 50560 C 4804.96 -3.52319 -0.744536 0
M  V30 50561 C 4804.81 -4.47335 0.470258 0
M  V30 50562 C 4806.13 -4.10594 -1.58433 0
M  V30 50563 H 4803.25 -0.725966 -0.127055 0
M  V30 50564 H 4805.89 -1.86335 0.371399 0
M  V30 50565 H 4804.04 -3.63833 -1.36226 0
M  V30 50566 H 4805.72 -4.47776 1.10879 0
M  V30 50567 H 4803.96 -4.1936 1.10993 0
M  V30 50568 H 4804.63 -5.51788 0.153104 0
M  V30 50569 H 4807.11 -4.023 -1.06271 0
M  V30 50570 H 4805.98 -5.17613 -1.82668 0
M  V30 50571 H 4806.24 -3.60262 -2.56249 0
M  V30 50572 N 4805.3 0.0066254 -1.57599 0
M  V30 50573 C 4806.25 1.00017 -2.08003 0
M  V30 50574 C 4807.22 1.34546 -0.97399 0
M  V30 50575 O 4808.41 1.44497 -1.246 0
M  V30 50576 C 4805.55 2.28901 -2.5826 0
M  V30 50577 C 4804.66 2.00333 -3.82741 0
M  V30 50578 C 4803.79 3.2325 -4.21525 0
M  V30 50579 C 4802.83 2.90338 -5.3886 0
M  V30 50580 N 4801.97 4.05773 -5.72969 0
M  V30 50581 H 4806.81 0.563396 -2.92626 0
M  V30 50582 H 4804.35 0.266541 -1.44665 0
M  V30 50583 H 4806.3 3.04237 -2.85474 0
M  V30 50584 H 4804.93 2.70259 -1.76522 0
M  V30 50585 H 4803.99 1.15393 -3.62476 0
M  V30 50586 H 4805.3 1.7207 -4.68181 0
M  V30 50587 H 4804.45 4.06937 -4.49986 0
M  V30 50588 H 4803.19 3.54645 -3.3478 0
M  V30 50589 H 4802.2 2.05057 -5.10129 0
M  V30 50590 H 4803.42 2.60197 -6.27275 0
M  V30 50591 H 4801.37 4.37077 -4.89183 0
M  V30 50592 H 4801.28 3.81011 -6.52968 0
M  V30 50593 H 4802.55 4.90268 -6.06018 0
M  V30 50594 N 4806.78 1.55106 0.279278 0
M  V30 50595 C 4807.71 1.82471 1.37038 0
M  V30 50596 C 4808.69 0.677313 1.47822 0
M  V30 50597 O 4809.88 0.919636 1.64545 0
M  V30 50598 C 4807 1.98076 2.74743 0
M  V30 50599 C 4806.05 3.20604 2.81275 0
M  V30 50600 S 4806.88 4.78125 2.41158 0
M  V30 50601 C 4808.04 4.96694 3.8085 0
M  V30 50602 H 4808.27 2.74732 1.1362 0
M  V30 50603 H 4805.8 1.46796 0.478573 0
M  V30 50604 H 4807.76 2.07751 3.54048 0
M  V30 50605 H 4806.42 1.06715 2.95416 0
M  V30 50606 H 4805.62 3.2839 3.8233 0
M  V30 50607 H 4805.22 3.09487 2.09986 0
M  V30 50608 H 4807.51 4.8205 4.76061 0
M  V30 50609 H 4808.45 5.98754 3.78019 0
M  V30 50610 H 4808.86 4.24711 3.71861 0
M  V30 50611 N 4808.26 -0.543502 1.47932 0
M  V30 50612 C 4809.48 -1.3299 1.59149 0
M  V30 50613 C 4809.91 -1.86471 0.247022 0
M  V30 50614 O 4809.27 -1.63698 -0.779266 0
M  V30 50615 C 4809.32 -2.46613 2.63086 0
M  V30 50616 O 4808.42 -3.49253 2.19307 0
M  V30 50617 H 4807.76 -0.394453 0.534137 0
M  V30 50618 H 4810.29 -0.655421 1.93818 0
M  V30 50619 H 4810.3 -2.92991 2.83937 0
M  V30 50620 H 4808.98 -2.07046 3.607 0
M  V30 50621 H 4807.55 -3.09087 2.08614 0
M  V30 50622 N 4809.74 -1.36293 -0.791323 0
M  V30 50623 C 4810.69 -1.26995 -1.89358 0
M  V30 50624 C 4811.67 -0.161851 -1.60084 0
M  V30 50625 O 4812.86 -0.394487 -1.72548 0
M  V30 50626 C 4809.99 -1.05956 -3.2654 0
M  V30 50627 C 4809.08 -2.21224 -3.6183 0
M  V30 50628 N 4809.47 -3.46531 -3.68442 0
M  V30 50629 C 4807.77 -2.12947 -3.9188 0
M  V30 50630 C 4808.47 -4.22424 -3.99916 0
M  V30 50631 N 4807.44 -3.51343 -4.148 0
M  V30 50632 H 4811.25 -2.21915 -1.92694 0
M  V30 50633 H 4808.76 -1.28985 -0.986742 0
M  V30 50634 H 4810.76 -0.973809 -4.05367 0
M  V30 50635 H 4809.42 -0.119337 -3.24481 0
M  V30 50636 H 4810.43 -3.8069 -3.51135 0
M  V30 50637 H 4807.11 -1.26869 -3.97757 0
M  V30 50638 H 4808.5 -5.30781 -4.11972 0
M  V30 50639 N 4811.22 1.01526 -1.20541 0
M  V30 50640 C 4812.63 1.56594 -1.01662 0
M  V30 50641 C 4812.98 1.91506 0.426601 0
M  V30 50642 O 4812.1 1.7238 1.30821 0
M  V30 50643 C 4812.7 2.84536 -1.83915 0
M  V30 50644 C 4811.26 3.36127 -1.69398 0
M  V30 50645 C 4810.4 2.0942 -1.81765 0
M  V30 50646 H 4813.35 0.838926 -1.34713 0
M  V30 50647 H 4813.38 3.55999 -1.34331 0
M  V30 50648 H 4812.89 2.59095 -2.88949 0
M  V30 50649 H 4810.99 3.66525 -0.670061 0
M  V30 50650 H 4811.1 4.0824 -2.50753 0
M  V30 50651 H 4809.47 2.21937 -1.24965 0
M  V30 50652 H 4810.25 1.86404 -2.88285 0
M  V30 50653 N 4812.69 1.01151 1.20856 0
M  V30 50654 C 4813.92 0.716766 1.94621 0
M  V30 50655 C 4814.34 -0.715354 1.73966 0
M  V30 50656 O 4813.7 -1.49154 1.03067 0
M  V30 50657 C 4813.75 1.05142 3.44931 0
M  V30 50658 O 4812.85 0.160276 4.12088 0
M  V30 50659 H 4812.19 0.266426 0.608205 0
M  V30 50660 H 4814.72 1.35352 1.53431 0
M  V30 50661 H 4814.73 1.001 3.9553 0
M  V30 50662 H 4813.41 2.09488 3.59288 0
M  V30 50663 H 4811.99 0.267788 3.71937 0
M  V30 50664 N 4814.17 -1.36538 0.787088 0
M  V30 50665 C 4815.42 -1.98909 0.357703 0
M  V30 50666 C 4815.74 -1.62781 -1.07365 0
M  V30 50667 O 4815.01 -0.900673 -1.73968 0
M  V30 50668 H 4813.59 -0.735729 0.129272 0
M  V30 50669 H 4816.25 -1.66772 1.00861 0
M  V30 50670 H 4815.35 -3.08873 0.447657 0
M  V30 50671 N 4815.65 -0.538906 -1.481 0
M  V30 50672 C 4816.93 0.0567421 -1.95518 0
M  V30 50673 C 4817.31 1.50403 -1.48129 0
M  V30 50674 O 4816.65 2.1713 -0.711803 0
M  V30 50675 C 4816.86 -0.0697488 -3.4893 0
M  V30 50676 C 4818.21 0.0849709 -4.24515 0
M  V30 50677 O 4819.24 0.00360948 -3.562 0
M  V30 50678 O 4818.1 0.256833 -5.45896 0
M  V30 50679 H 4815.19 0.0743405 -0.823652 0
M  V30 50680 H 4817.74 -0.604136 -1.58582 0
M  V30 50681 H 4816.51 -1.07757 -3.7617 0
M  V30 50682 H 4816.13 0.629576 -3.92584 0
M  V30 50683 N 4817.13 1.55192 -0.274461 0
M  V30 50684 C 4818.37 1.99878 0.343016 0
M  V30 50685 C 4818.71 1.16262 1.55553 0
M  V30 50686 O 4817.98 0.23253 1.93105 0
M  V30 50687 C 4818.26 3.52709 0.725841 0
M  V30 50688 C 4818.12 4.47079 -0.493975 0
M  V30 50689 C 4819.44 4.11428 1.56253 0
M  V30 50690 H 4816.56 0.726629 0.123203 0
M  V30 50691 H 4819.2 1.86135 -0.381275 0
M  V30 50692 H 4817.35 3.64551 1.34294 0
M  V30 50693 H 4819.02 4.47182 -1.13253 0
M  V30 50694 H 4817.26 4.18766 -1.13216 0
M  V30 50695 H 4817.93 5.51699 -0.182364 0
M  V30 50696 H 4820.41 4.02858 1.04136 0
M  V30 50697 H 4819.29 5.18575 1.79921 0
M  V30 50698 H 4819.55 3.61616 2.54335 0
M  V30 50699 N 4818.61 0.00173253 1.576 0
M  V30 50700 C 4819.52 -1.00541 2.11964 0
M  V30 50701 C 4820.53 -1.37576 1.0653 0
M  V30 50702 O 4821.71 -1.46274 1.38441 0
M  V30 50703 C 4818.77 -2.278 2.61358 0
M  V30 50704 C 4817.83 -1.97061 3.814 0
M  V30 50705 C 4817.07 -3.18252 4.28429 0
M  V30 50706 O 4817.29 -4.29996 3.7478 0
M  V30 50707 O 4816.22 -3.02149 5.20567 0
M  V30 50708 H 4820.05 -0.573268 2.9824 0
M  V30 50709 H 4817.63 -0.217203 1.47813 0
M  V30 50710 H 4819.52 -3.02558 2.9332 0
M  V30 50711 H 4818.19 -2.70248 1.78179 0
M  V30 50712 H 4817.1 -1.19773 3.54408 0
M  V30 50713 H 4818.43 -1.59448 4.65658 0
M  V30 50714 N 4820.08 -1.55252 -0.271048 0
M  V30 50715 C 4821.05 -1.87489 -1.31835 0
M  V30 50716 C 4822.05 -0.749595 -1.42259 0
M  V30 50717 O 4823.24 -1.01776 -1.41377 0
M  V30 50718 C 4820.37 -2.0819 -2.69944 0
M  V30 50719 H 4821.56 -2.81112 -1.0448 0
M  V30 50720 H 4819.12 -1.47773 -0.509206 0
M  V30 50721 H 4819.85 -1.16955 -3.02476 0
M  V30 50722 H 4819.64 -2.90123 -2.63764 0
M  V30 50723 H 4821.13 -2.34398 -3.45612 0
M  V30 50724 N 4821.56 0.535649 -1.48218 0
M  V30 50725 C 4822.8 1.30232 -1.5754 0
M  V30 50726 C 4823.17 1.90478 -0.241296 0
M  V30 50727 O 4824.37 2.67983 -0.209474 0
M  V30 50728 C 4822.64 2.3668 -2.67801 0
M  V30 50729 S 4824.2 3.23148 -2.96851 0
M  V30 50730 H 4821.02 0.443073 -0.556064 0
M  V30 50731 H 4823.62 0.610871 -1.85711 0
M  V30 50732 H 4822.32 1.90892 -3.63302 0
M  V30 50733 H 4821.85 3.1054 -2.41513 0
M  V30 50734 H 4823.87 4.36639 -2.35714 0
M  V30 50735 N 4823.04 1.36711 0.784084 0
M  V30 50736 C 4823.97 1.25834 1.90371 0
M  V30 50737 C 4824.95 0.141388 1.61984 0
M  V30 50738 O 4826.14 0.313454 1.85876 0
M  V30 50739 C 4823.26 0.942735 3.25316 0
M  V30 50740 C 4822.31 2.07487 3.72628 0
M  V30 50741 S 4823.14 3.6933 3.87757 0
M  V30 50742 C 4824.3 3.39895 5.25569 0
M  V30 50743 H 4824.53 2.206 1.99306 0
M  V30 50744 H 4822.06 1.22189 0.943883 0
M  V30 50745 H 4824.02 0.767463 4.03262 0
M  V30 50746 H 4822.68 0.012767 3.14097 0
M  V30 50747 H 4821.88 1.80874 4.70426 0
M  V30 50748 H 4821.48 2.20964 3.01747 0
M  V30 50749 H 4823.77 2.94118 6.10328 0
M  V30 50750 H 4824.71 4.36976 5.57188 0
M  V30 50751 H 4825.12 2.75115 4.92922 0
M  V30 50752 N 4824.52 -1.00885 1.21078 0
M  V30 50753 C 4825.76 -1.74862 1.02718 0
M  V30 50754 C 4826.1 -1.89179 -0.438721 0
M  V30 50755 O 4825.37 -1.4233 -1.32562 0
M  V30 50756 C 4825.66 -3.16341 1.72047 0
M  V30 50757 C 4825.51 -3.09771 3.26132 0
M  V30 50758 C 4826.83 -4.15181 1.45988 0
M  V30 50759 H 4823.95 -0.634723 0.374561 0
M  V30 50760 H 4826.59 -1.17641 1.492 0
M  V30 50761 H 4824.74 -3.65196 1.3253 0
M  V30 50762 H 4826.41 -2.6866 3.74993 0
M  V30 50763 H 4824.65 -2.4697 3.56635 0
M  V30 50764 H 4825.32 -4.09816 3.69804 0
M  V30 50765 H 4827.8 -3.75015 1.80285 0
M  V30 50766 H 4826.68 -5.12324 1.97017 0
M  V30 50767 H 4826.94 -4.40385 0.389079 0
M  V30 50768 N 4826 -1.01791 -1.20318 0
M  V30 50769 C 4826.93 -0.547435 -2.22566 0
M  V30 50770 C 4827.94 0.370866 -1.58519 0
M  V30 50771 O 4829.13 0.169005 -1.77698 0
M  V30 50772 C 4826.23 0.222912 -3.38166 0
M  V30 50773 C 4825.4 -0.697623 -4.31801 0
M  V30 50774 C 4824.46 0.025377 -5.26194 0
M  V30 50775 O 4823.49 -0.597566 -5.66055 0
M  V30 50776 N 4824.69 1.29979 -5.65761 0
M  V30 50777 H 4827.46 -1.42677 -2.63559 0
M  V30 50778 H 4825.02 -0.895599 -1.34873 0
M  V30 50779 H 4827.01 0.715862 -3.98318 0
M  V30 50780 H 4825.58 1.00356 -2.96053 0
M  V30 50781 H 4824.8 -1.37086 -3.69596 0
M  V30 50782 H 4826.09 -1.32364 -4.91281 0
M  V30 50783 H 4825.48 1.82681 -5.35392 0
M  V30 50784 H 4824.04 1.73744 -6.28217 0
M  V30 50785 N 4827.47 1.36119 -0.794317 0
M  V30 50786 C 4828.72 1.99405 -0.369522 0
M  V30 50787 C 4829.05 1.6289 1.05738 0
M  V30 50788 O 4828.33 0.886114 1.73142 0
M  V30 50789 C 4828.61 3.56044 -0.538958 0
M  V30 50790 C 4828.46 4.02397 -2.0099 0
M  V30 50791 C 4829.78 4.40079 0.0429812 0
M  V30 50792 H 4826.9 0.724392 -0.135738 0
M  V30 50793 H 4829.54 1.61458 -1.00157 0
M  V30 50794 H 4827.69 3.885 -0.000907581 0
M  V30 50795 H 4829.37 3.80406 -2.60939 0
M  V30 50796 H 4827.61 3.53756 -2.51075 0
M  V30 50797 H 4828.28 5.11337 -2.0794 0
M  V30 50798 H 4830.76 4.14012 -0.416374 0
M  V30 50799 H 4829.63 5.48798 -0.105567 0
M  V30 50800 H 4829.89 4.27268 1.13556 0
M  V30 50801 N 4828.95 0.546753 1.47812 0
M  V30 50802 C 4830.18 0.0233584 2.06887 0
M  V30 50803 C 4830.6 -1.26566 1.40094 0
M  V30 50804 O 4829.95 -1.75688 0.493968 0
M  V30 50805 C 4830 -0.186849 3.61017 0
M  V30 50806 O 4829.72 1.05112 4.25304 0
M  V30 50807 C 4831.23 -0.748719 4.36931 0
M  V30 50808 H 4828.45 0.0410998 0.66974 0
M  V30 50809 H 4830.99 0.757184 1.89966 0
M  V30 50810 H 4829.14 -0.870771 3.77487 0
M  V30 50811 H 4829.56 0.842303 5.17692 0
M  V30 50812 H 4831.03 -0.845142 5.45492 0
M  V30 50813 H 4831.51 -1.75758 4.02499 0
M  V30 50814 H 4832.12 -0.100829 4.2518 0
M  V30 50815 N 4830.43 -1.55044 0.282687 0
M  V30 50816 C 4831.67 -2.01669 -0.333017 0
M  V30 50817 C 4832.03 -1.16676 -1.52482 0
M  V30 50818 O 4833.24 -1.52915 -2.21067 0
M  V30 50819 C 4831.51 -3.50511 -0.698319 0
M  V30 50820 S 4833.07 -4.19117 -1.29948 0
M  V30 50821 H 4829.88 -0.703471 -0.103194 0
M  V30 50822 H 4832.49 -1.91232 0.406289 0
M  V30 50823 H 4831.19 -4.10015 0.177837 0
M  V30 50824 H 4830.72 -3.64948 -1.46889 0
M  V30 50825 H 4832.74 -4.23371 -2.58788 0
M  V30 50826 N 4831.91 -0.0100904 -1.57597 0
M  V30 50827 C 4833.16 0.671304 -1.90625 0
M  V30 50828 C 4833.48 1.7375 -0.885212 0
M  V30 50829 O 4832.75 1.95753 0.0759922 0
M  V30 50830 H 4831.33 0.250943 -0.703588 0
M  V30 50831 H 4833.99 -0.053401 -1.94827 0
M  V30 50832 H 4833.09 1.13616 -2.90685 0
M  V30 50833 N 4833.39 1.55393 0.262811 0
M  V30 50834 C 4834.61 1.80851 1.01527 0
M  V30 50835 C 4835.04 0.585009 1.78772 0
M  V30 50836 O 4834.39 -0.46564 1.75218 0
M  V30 50837 C 4834.44 3.03873 1.94148 0
M  V30 50838 O 4833.55 2.79673 3.03079 0
M  V30 50839 H 4832.89 0.597451 0.289738 0
M  V30 50840 H 4835.42 2.02554 0.288627 0
M  V30 50841 H 4835.43 3.3288 2.35912 0
M  V30 50842 H 4834.1 3.92569 1.3734 0
M  V30 50843 H 4832.68 2.6179 2.65557 0
M  V30 50844 N 4834.87 -0.527781 1.485 0
M  V30 50845 C 4835.8 -1.64886 1.57759 0
M  V30 50846 C 4836.78 -1.56868 0.427922 0
M  V30 50847 O 4837.96 -1.77309 0.639827 0
M  V30 50848 C 4835.09 -3.03296 1.50763 0
M  V30 50849 C 4834.13 -3.29665 2.70598 0
M  V30 50850 S 4834.97 -3.15697 4.32546 0
M  V30 50851 C 4836.12 -4.56549 4.28152 0
M  V30 50852 H 4836.36 -1.56783 2.52599 0
M  V30 50853 H 4833.89 -0.710911 1.3706 0
M  V30 50854 H 4835.85 -3.83118 1.47414 0
M  V30 50855 H 4834.51 -3.08837 0.572562 0
M  V30 50856 H 4833.7 -4.30641 2.61848 0
M  V30 50857 H 4833.3 -2.57517 2.71221 0
M  V30 50858 H 4835.59 -5.48112 3.98221 0
M  V30 50859 H 4836.54 -4.70353 5.29315 0
M  V30 50860 H 4836.95 -4.35974 3.5859 0
M  V30 50861 N 4836.34 -1.37125 -0.776822 0
M  V30 50862 C 4837.57 -1.35236 -1.56585 0
M  V30 50863 C 4837.99 0.0634854 -1.88693 0
M  V30 50864 O 4837.34 1.02388 -1.51072 0
M  V30 50865 C 4837.39 -2.18593 -2.87923 0
M  V30 50866 O 4837.12 -3.54659 -2.57193 0
M  V30 50867 C 4838.62 -2.24626 -3.82175 0
M  V30 50868 H 4835.84 -0.463417 -0.485269 0
M  V30 50869 H 4838.38 -1.80396 -0.963203 0
M  V30 50870 H 4836.54 -1.76955 -3.44624 0
M  V30 50871 H 4836.95 -3.98298 -3.41261 0
M  V30 50872 H 4838.42 -2.87284 -4.71351 0
M  V30 50873 H 4838.9 -1.25324 -4.2094 0
M  V30 50874 H 4839.51 -2.66554 -3.31404 0
M  V30 50875 N 4837.82 1.00242 -1.21611 0
M  V30 50876 C 4838.75 2.10918 -1.0018 0
M  V30 50877 C 4839.73 1.69939 0.0740989 0
M  V30 50878 O 4840.92 1.94008 -0.0862435 0
M  V30 50879 C 4838.05 3.42616 -0.568476 0
M  V30 50880 C 4837 3.97401 -1.58923 0
M  V30 50881 C 4836.33 5.25035 -1.01206 0
M  V30 50882 C 4837.63 4.29169 -2.97676 0
M  V30 50883 H 4839.32 2.29105 -1.92747 0
M  V30 50884 H 4836.87 1.10098 -0.928141 0
M  V30 50885 H 4838.82 4.19443 -0.405702 0
M  V30 50886 H 4837.54 3.24229 0.392847 0
M  V30 50887 H 4836.2 3.22697 -1.73961 0
M  V30 50888 H 4835.85 5.02982 -0.0423734 0
M  V30 50889 H 4835.55 5.62655 -1.6939 0
M  V30 50890 H 4837.08 6.04504 -0.860661 0
M  V30 50891 H 4838.49 4.96829 -2.86067 0
M  V30 50892 H 4836.89 4.77939 -3.62897 0
M  V30 50893 H 4837.96 3.37337 -3.48327 0
M  V30 50894 N 4839.3 1.02428 1.19776 0
M  V30 50895 C 4840.25 0.594553 2.24873 0
M  V30 50896 C 4841.24 -0.37054 1.65298 0
M  V30 50897 O 4842.45 -0.239622 1.78398 0
M  V30 50898 H 4838.82 0.173987 0.731596 0
M  V30 50899 H 4840.79 1.49169 2.5844 0
M  V30 50900 C 4839.54 -0.043529 3.47673 0
M  V30 50901 H 4838.87 0.690102 3.93799 0
M  V30 50902 H 4840.31 -0.307213 4.22886 0
M  V30 50903 C 4838.76 -1.2887 3.11278 0
M  V30 50904 O 4839.29 -2.38124 3.23512 0
M  V30 50905 N 4837.5 -1.17571 2.65754 0
M  V30 50906 H 4837.05 -0.286679 2.56 0
M  V30 50907 H 4837.01 -2.00979 2.41774 0
M  V30 50908 N 4840.78 -1.35696 0.801525 0
M  V30 50909 C 4842.03 -1.98519 0.37878 0
M  V30 50910 C 4842.35 -1.63911 -1.05632 0
M  V30 50911 O 4841.62 -0.919074 -1.73002 0
M  V30 50912 H 4840.2 -0.734317 0.137068 0
M  V30 50913 H 4842.86 -1.65693 1.02625 0
M  V30 50914 H 4841.95 -3.08381 0.480392 0
M  V30 50915 N 4842.26 -0.554584 -1.4752 0
M  V30 50916 C 4843.19 0.182892 -2.32783 0
M  V30 50917 C 4844.17 0.911327 -1.43627 0
M  V30 50918 O 4845.35 0.892305 -1.72486 0
M  V30 50919 C 4842.48 1.21502 -3.25353 0
M  V30 50920 C 4841.44 0.603206 -4.23728 0
M  V30 50921 C 4840.76 1.73977 -5.05605 0
M  V30 50922 C 4842.06 -0.441304 -5.20432 0
M  V30 50923 H 4843.76 -0.528923 -2.94691 0
M  V30 50924 H 4841.3 -0.255809 -1.4171 0
M  V30 50925 H 4843.25 1.73908 -3.83841 0
M  V30 50926 H 4841.98 1.95674 -2.61494 0
M  V30 50927 H 4840.64 0.100461 -3.66462 0
M  V30 50928 H 4840.29 2.47047 -4.38151 0
M  V30 50929 H 4839.99 1.3362 -5.72206 0
M  V30 50930 H 4841.51 2.26715 -5.6695 0
M  V30 50931 H 4842.92 -0.00340085 -5.733 0
M  V30 50932 H 4841.32 -0.763611 -5.95222 0
M  V30 50933 H 4842.39 -1.33815 -4.6607 0
M  V30 50934 N 4843.73 1.54892 -0.290906 0
M  V30 50935 C 4844.98 2.00951 0.314713 0
M  V30 50936 C 4845.33 1.17575 1.52295 0
M  V30 50937 O 4844.63 0.241625 1.9007 0
M  V30 50938 C 4844.82 3.49818 0.732274 0
M  V30 50939 C 4844.65 4.47601 -0.433957 0
M  V30 50940 C 4843.42 4.96803 -0.922774 0
M  V30 50941 C 4845.62 4.98229 -1.27563 0
M  V30 50942 N 4843.6 5.78419 -2.05682 0
M  V30 50943 C 4844.97 5.77447 -2.25732 0
M  V30 50944 C 4847.03 4.80435 -1.30717 0
M  V30 50945 C 4845.73 6.40767 -3.26819 0
M  V30 50946 C 4847.76 5.44566 -2.30656 0
M  V30 50947 C 4847.12 6.23608 -3.27555 0
M  V30 50948 H 4843.22 0.777908 0.0798984 0
M  V30 50949 H 4845.8 1.90149 -0.418525 0
M  V30 50950 H 4843.97 3.6093 1.4347 0
M  V30 50951 H 4845.7 3.82686 1.31657 0
M  V30 50952 H 4842.46 4.70959 -0.499426 0
M  V30 50953 H 4842.88 6.23914 -2.62794 0
M  V30 50954 H 4847.52 4.18916 -0.571769 0
M  V30 50955 H 4845.24 7.01425 -4.01283 0
M  V30 50956 H 4848.83 5.32731 -2.33857 0
M  V30 50957 H 4847.71 6.72353 -4.03622 0
M  V30 50958 N 4845.21 0.018448 1.57589 0
M  V30 50959 C 4846.14 -0.965521 2.12603 0
M  V30 50960 C 4847.12 -1.34638 1.03955 0
M  V30 50961 O 4848.31 -1.42688 1.31734 0
M  V30 50962 C 4845.44 -2.2514 2.64441 0
M  V30 50963 C 4844.39 -2.01161 3.77781 0
M  V30 50964 C 4843.72 -3.35922 4.16005 0
M  V30 50965 C 4845.02 -1.35935 5.043 0
M  V30 50966 H 4846.71 -0.5074 2.95069 0
M  V30 50967 H 4844.26 -0.242621 1.41941 0
M  V30 50968 H 4846.21 -2.94346 3.0156 0
M  V30 50969 H 4844.93 -2.73099 1.79122 0
M  V30 50970 H 4843.59 -1.34376 3.41085 0
M  V30 50971 H 4843.24 -3.81619 3.27682 0
M  V30 50972 H 4842.94 -3.20688 4.92375 0
M  V30 50973 H 4844.47 -4.06414 4.55697 0
M  V30 50974 H 4845.88 -1.95125 5.39072 0
M  V30 50975 H 4844.28 -1.31132 5.85598 0
M  V30 50976 H 4845.35 -0.330901 4.8377 0
M  V30 50977 N 4846.69 -1.5553 -0.254567 0
M  V30 50978 C 4847.97 -1.67744 -1.00605 0
M  V30 50979 C 4848.35 -0.556065 -2.03645 0
M  V30 50980 O 4847.69 0.441504 -2.24194 0
M  V30 50981 C 4847.9 -3.07731 -1.64629 0
M  V30 50982 C 4849.25 -3.66082 -2.15103 0
M  V30 50983 O 4850.28 -3.10482 -1.74584 0
M  V30 50984 O 4849.14 -4.63536 -2.89477 0
M  V30 50985 H 4846.23 -0.681974 -0.467804 0
M  V30 50986 H 4848.78 -1.67864 -0.248961 0
M  V30 50987 H 4847.55 -3.80795 -0.9006 0
M  V30 50988 H 4847.17 -3.11589 -2.46978 0
M  V30 50989 N 4848.17 0.519898 -1.48778 0
M  V30 50990 C 4849.12 1.64437 -1.64509 0
M  V30 50991 C 4850.11 1.61499 -0.511305 0
M  V30 50992 O 4851.32 1.66235 -0.690353 0
M  V30 50993 H 4847.69 0.544758 -0.518404 0
M  V30 50994 H 4849.66 1.48316 -2.5893 0
M  V30 50995 C 4848.41 3.02667 -1.71138 0
M  V30 50996 H 4847.73 3.05625 -2.57746 0
M  V30 50997 H 4849.17 3.80934 -1.86185 0
M  V30 50998 C 4847.63 3.33852 -0.452149 0
M  V30 50999 O 4848.16 3.99386 0.430538 0
M  V30 51000 N 4846.37 2.88824 -0.320792 0
M  V30 51001 H 4845.92 2.3567 -1.04007 0
M  V30 51002 H 4845.87 3.10058 0.520705 0
M  V30 51003 N 4849.65 1.37535 0.769539 0
M  V30 51004 C 4850.87 1.36064 1.55866 0
M  V30 51005 C 4851.29 -0.0534777 1.88724 0
M  V30 51006 O 4850.65 -1.01586 1.51613 0
M  V30 51007 C 4850.7 2.20117 2.86759 0
M  V30 51008 O 4850.42 3.56018 2.55309 0
M  V30 51009 C 4851.92 2.2665 3.80979 0
M  V30 51010 H 4849.14 0.465984 0.482805 0
M  V30 51011 H 4851.68 1.80904 0.953623 0
M  V30 51012 H 4849.84 1.7878 3.43681 0
M  V30 51013 H 4850.25 4.00102 3.39144 0
M  V30 51014 H 4851.73 2.89779 4.69821 0
M  V30 51015 H 4852.2 1.27555 4.20269 0
M  V30 51016 H 4852.81 2.68308 3.29986 0
M  V30 51017 N 4851.12 -0.995956 1.22141 0
M  V30 51018 C 4852.37 -1.73763 1.04567 0
M  V30 51019 C 4852.7 -1.89634 -0.418631 0
M  V30 51020 O 4851.98 -1.43728 -1.31044 0
M  V30 51021 C 4852.26 -3.14499 1.75393 0
M  V30 51022 C 4852.11 -3.06295 3.29399 0
M  V30 51023 C 4853.43 -4.1361 1.50383 0
M  V30 51024 H 4850.55 -0.630714 0.381272 0
M  V30 51025 H 4853.19 -1.16052 1.50439 0
M  V30 51026 H 4851.34 -3.6377 1.36396 0
M  V30 51027 H 4853.02 -2.64668 3.77821 0
M  V30 51028 H 4851.26 -2.43173 3.59234 0
M  V30 51029 H 4851.93 -4.0587 3.7413 0
M  V30 51030 H 4854.41 -3.73082 1.84252 0
M  V30 51031 H 4853.28 -5.10205 2.02439 0
M  V30 51032 H 4853.54 -4.39947 0.435766 0
M  V30 51033 N 4852.6 -1.03061 -1.19231 0
M  V30 51034 C 4853.85 -0.738907 -1.89504 0
M  V30 51035 C 4854.2 0.724744 -1.78228 0
M  V30 51036 O 4853.5 1.52114 -1.16499 0
M  V30 51037 C 4853.69 -1.12692 -3.39169 0
M  V30 51038 C 4853.52 -2.62675 -3.6501 0
M  V30 51039 C 4852.29 -3.29672 -3.82942 0
M  V30 51040 C 4854.49 -3.60885 -3.66424 0
M  V30 51041 N 4852.47 -4.6874 -3.96429 0
M  V30 51042 C 4853.84 -4.85579 -3.85503 0
M  V30 51043 C 4855.9 -3.54659 -3.49459 0
M  V30 51044 C 4854.6 -6.04797 -3.89375 0
M  V30 51045 C 4856.62 -4.73293 -3.54609 0
M  V30 51046 C 4855.99 -5.96802 -3.74175 0
M  V30 51047 H 4852.09 -0.322281 -0.712502 0
M  V30 51048 H 4854.67 -1.31827 -1.43282 0
M  V30 51049 H 4852.84 -0.575747 -3.84109 0
M  V30 51050 H 4854.57 -0.787285 -3.96968 0
M  V30 51051 H 4851.33 -2.80083 -3.81904 0
M  V30 51052 H 4851.75 -5.40985 -4.07018 0
M  V30 51053 H 4856.39 -2.60155 -3.33286 0
M  V30 51054 H 4854.11 -6.99668 -4.0434 0
M  V30 51055 H 4857.7 -4.70106 -3.4277 0
M  V30 51056 H 4856.58 -6.87065 -3.78037 0
M  V30 51057 N 4854.08 1.35269 -0.80871 0
M  V30 51058 C 4855.32 2.00532 -0.395738 0
M  V30 51059 C 4855.68 1.62759 1.01851 0
M  V30 51060 O 4856.89 2.20758 1.5336 0
M  V30 51061 C 4855.16 3.5273 -0.575895 0
M  V30 51062 S 4856.72 4.38066 -0.253661 0
M  V30 51063 H 4853.53 0.694956 -0.150189 0
M  V30 51064 H 4856.14 1.64819 -1.05142 0
M  V30 51065 H 4854.84 3.77709 -1.60513 0
M  V30 51066 H 4854.37 3.93285 0.0950356 0
M  V30 51067 H 4856.39 4.87256 0.937897 0
M  V30 51068 N 4855.56 0.5624 1.47224 0
M  V30 51069 C 4856.97 0.13039 1.86244 0
M  V30 51070 C 4857.32 -1.30122 1.46842 0
M  V30 51071 O 4856.45 -1.97971 0.873875 0
M  V30 51072 C 4857.04 0.229857 3.38019 0
M  V30 51073 C 4855.6 -0.147148 3.76112 0
M  V30 51074 C 4854.75 0.575066 2.71272 0
M  V30 51075 H 4857.7 0.771822 1.38667 0
M  V30 51076 H 4857.72 -0.550183 3.76501 0
M  V30 51077 H 4857.23 1.27191 3.66666 0
M  V30 51078 H 4855.33 -1.19011 3.53082 0
M  V30 51079 H 4855.44 0.215027 4.78617 0
M  V30 51080 H 4853.81 0.0175652 2.54694 0
M  V30 51081 H 4854.59 1.61837 3.0276 0
M  V30 51082 N 4857.04 -1.54735 0.299116 0
M  V30 51083 C 4858.45 -1.59508 -0.0543288 0
M  V30 51084 C 4858.65 -1.31612 -1.5258 0
M  V30 51085 O 4857.71 -1.08861 -2.27828 0
M  V30 51086 C 4859.02 -2.9875 0.341915 0
M  V30 51087 C 4860.57 -3.11649 0.290523 0
M  V30 51088 C 4861.04 -4.53197 0.661561 0
M  V30 51089 N 4862.54 -4.59112 0.614025 0
M  V30 51090 C 4863.27 -5.66706 0.873616 0
M  V30 51091 N 4862.77 -6.82344 1.19908 0
M  V30 51092 N 4864.56 -5.56366 0.800804 0
M  V30 51093 H 4856.71 -1.71129 1.25812 0
M  V30 51094 H 4858.97 -0.799168 0.509936 0
M  V30 51095 H 4858.68 -3.2408 1.36619 0
M  V30 51096 H 4858.55 -3.75962 -0.305375 0
M  V30 51097 H 4860.94 -2.86068 -0.724504 0
M  V30 51098 H 4861.02 -2.36596 0.97241 0
M  V30 51099 H 4860.67 -4.79507 1.67439 0
M  V30 51100 H 4860.6 -5.26583 -0.0423761 0
M  V30 51101 H 4863.09 -3.76051 0.373333 0
M  V30 51102 H 4863.4 -7.60321 1.38318 0
M  V30 51103 H 4861.74 -6.83901 1.23709 0
M  V30 51104 H 4864.94 -4.64902 0.546209 0
M  V30 51105 H 4865.11 -6.40136 1.00648 0
M  V30 51106 N 4858.51 -0.0268051 -1.57577 0
M  V30 51107 C 4859.46 0.96493 -2.06575 0
M  V30 51108 C 4860.45 1.28691 -0.965792 0
M  V30 51109 O 4861.64 1.2734 -1.22937 0
M  V30 51110 C 4858.77 2.24812 -2.59451 0
M  V30 51111 C 4857.86 1.95461 -3.76372 0
M  V30 51112 N 4858.25 1.3637 -4.8707 0
M  V30 51113 C 4856.54 2.25464 -3.84814 0
M  V30 51114 C 4857.25 1.24099 -5.68308 0
M  V30 51115 N 4856.22 1.73572 -5.15145 0
M  V30 51116 H 4860.02 0.502993 -2.89564 0
M  V30 51117 H 4857.54 0.178265 -1.61419 0
M  V30 51118 H 4859.53 2.9673 -2.92843 0
M  V30 51119 H 4858.19 2.71634 -1.77891 0
M  V30 51120 H 4859.21 1.03901 -5.07371 0
M  V30 51121 H 4855.88 2.74976 -3.14157 0
M  V30 51122 H 4857.27 0.78427 -6.67307 0
M  V30 51123 N 4859.99 1.55663 0.246315 0
M  V30 51124 C 4861.24 1.77785 0.975716 0
M  V30 51125 C 4861.57 0.592168 1.84951 0
M  V30 51126 O 4860.85 -0.409521 1.9014 0
M  V30 51127 C 4861.13 3.09795 1.83573 0
M  V30 51128 C 4860.98 4.38768 0.990087 0
M  V30 51129 C 4862.3 3.38039 2.81812 0
M  V30 51130 H 4859.42 0.646801 0.353294 0
M  V30 51131 H 4862.06 1.88398 0.246182 0
M  V30 51132 H 4860.21 3.00878 2.45774 0
M  V30 51133 H 4861.88 4.59676 0.386736 0
M  V30 51134 H 4860.13 4.32799 0.294473 0
M  V30 51135 H 4860.8 5.27519 1.62565 0
M  V30 51136 H 4863.27 3.46923 2.29747 0
M  V30 51137 H 4862.15 4.31622 3.39107 0
M  V30 51138 H 4862.41 2.5898 3.58304 0
M  V30 51139 N 4861.47 -0.512001 1.49051 0
M  V30 51140 C 4862.4 -1.63204 1.59499 0
M  V30 51141 C 4863.38 -1.56405 0.444536 0
M  V30 51142 O 4864.57 -1.7662 0.658597 0
M  V30 51143 C 4861.69 -3.01679 1.53972 0
M  V30 51144 C 4860.74 -3.26777 2.74079 0
M  V30 51145 S 4861.57 -3.11091 4.3587 0
M  V30 51146 C 4862.73 -4.51982 4.3297 0
M  V30 51147 H 4862.96 -1.54095 2.54248 0
M  V30 51148 H 4860.49 -0.696334 1.37806 0
M  V30 51149 H 4862.45 -3.81533 1.51469 0
M  V30 51150 H 4861.11 -3.08213 0.605287 0
M  V30 51151 H 4860.31 -4.2784 2.66401 0
M  V30 51152 H 4859.91 -2.54626 2.73937 0
M  V30 51153 H 4862.2 -5.43857 4.04012 0
M  V30 51154 H 4863.14 -4.64712 5.34274 0
M  V30 51155 H 4863.55 -4.32147 3.63194 0
M  V30 51156 N 4862.95 -1.37941 -0.762235 0
M  V30 51157 C 4864.19 -1.35081 -1.53403 0
M  V30 51158 C 4864.55 0.0614786 -1.91902 0
M  V30 51159 O 4865.75 0.214879 -2.6794 0
M  V30 51160 C 4864.02 -2.27216 -2.75876 0
M  V30 51161 S 4865.58 -2.42296 -3.65839 0
M  V30 51162 H 4862.4 -0.479405 -0.525063 0
M  V30 51163 H 4865 -1.73783 -0.895525 0
M  V30 51164 H 4863.71 -3.28733 -2.45688 0
M  V30 51165 H 4863.24 -1.89632 -3.44678 0
M  V30 51166 H 4865.25 -1.6406 -4.68293 0
M  V30 51167 N 4864.43 0.989464 -1.22668 0
M  V30 51168 C 4865.84 1.54402 -1.04961 0
M  V30 51169 C 4866.19 1.92368 0.385883 0
M  V30 51170 O 4865.31 1.75116 1.27136 0
M  V30 51171 C 4865.91 2.80571 -1.89909 0
M  V30 51172 C 4864.47 3.32458 -1.76489 0
M  V30 51173 C 4863.62 2.05518 -1.86166 0
M  V30 51174 H 4866.57 0.810163 -1.36463 0
M  V30 51175 H 4866.59 3.5307 -1.41853 0
M  V30 51176 H 4866.1 2.52908 -2.9438 0
M  V30 51177 H 4864.2 3.65022 -0.747656 0
M  V30 51178 H 4864.31 4.02829 -2.59356 0
M  V30 51179 H 4862.68 2.19236 -1.29644 0
M  V30 51180 H 4863.46 1.80247 -2.92174 0
M  V30 51181 N 4865.91 1.03692 1.18683 0
M  V30 51182 C 4866.87 0.629192 2.20395 0
M  V30 51183 C 4867.87 -0.311439 1.57755 0
M  V30 51184 O 4869.06 -0.0973495 1.73928 0
M  V30 51185 C 4866.19 -0.0781033 3.40811 0
M  V30 51186 H 4867.38 1.52924 2.57981 0
M  V30 51187 H 4864.94 0.829035 1.32502 0
M  V30 51188 H 4865.67 -0.992124 3.08751 0
M  V30 51189 H 4865.46 0.597913 3.87514 0
M  V30 51190 H 4866.95 -0.350009 4.16131 0
M  V30 51191 N 4867.38 -1.34838 0.815872 0
M  V30 51192 C 4868.66 -1.92907 0.323483 0
M  V30 51193 C 4869.04 -1.74483 -1.18822 0
M  V30 51194 O 4868.39 -1.11935 -1.99205 0
M  V30 51195 C 4868.6 -3.40954 0.745072 0
M  V30 51196 C 4869.95 -4.18104 0.739863 0
M  V30 51197 O 4870.97 -3.49508 0.687203 0
M  V30 51198 O 4869.83 -5.40514 0.806646 0
M  V30 51199 H 4866.92 -0.822433 0.0867935 0
M  V30 51200 H 4869.47 -1.43856 0.900191 0
M  V30 51201 H 4868.24 -3.48133 1.78658 0
M  V30 51202 H 4867.86 -3.9734 0.143675 0
M  V30 51203 N 4868.86 -0.570199 -1.46923 0
M  V30 51204 C 4869.79 0.207828 -2.28256 0
M  V30 51205 C 4870.81 0.867253 -1.37777 0
M  V30 51206 O 4872 0.738919 -1.62488 0
M  V30 51207 C 4869.1 1.31287 -3.12437 0
M  V30 51208 C 4868.27 0.747763 -4.30961 0
M  V30 51209 C 4867.33 1.73893 -4.96636 0
M  V30 51210 O 4866.35 1.27991 -5.54623 0
M  V30 51211 N 4867.56 3.07271 -4.92509 0
M  V30 51212 H 4870.32 -0.489898 -2.95669 0
M  V30 51213 H 4867.88 -0.407131 -1.56697 0
M  V30 51214 H 4869.87 1.97495 -3.53239 0
M  V30 51215 H 4868.44 1.91364 -2.47181 0
M  V30 51216 H 4867.66 -0.0914452 -3.94094 0
M  V30 51217 H 4868.95 0.34978 -5.07596 0
M  V30 51218 H 4868.35 3.47198 -4.46621 0
M  V30 51219 H 4866.91 3.69002 -5.3729 0
M  V30 51220 N 4870.34 1.54575 -0.307318 0
M  V30 51221 C 4871.27 2.2671 0.55899 0
M  V30 51222 C 4872.25 1.26897 1.13275 0
M  V30 51223 O 4873.44 1.55681 1.16091 0
M  V30 51224 C 4870.57 3.01265 1.72791 0
M  V30 51225 C 4869.52 4.08279 1.28421 0
M  V30 51226 C 4868.85 4.70584 2.53879 0
M  V30 51227 C 4870.15 5.20682 0.410855 0
M  V30 51228 H 4871.84 2.9937 -0.0426812 0
M  V30 51229 H 4869.39 1.43983 -0.0219679 0
M  V30 51230 H 4871.34 3.50453 2.34011 0
M  V30 51231 H 4870.06 2.26195 2.35592 0
M  V30 51232 H 4868.72 3.59951 0.695035 0
M  V30 51233 H 4868.37 3.92147 3.15008 0
M  V30 51234 H 4868.07 5.42862 2.24889 0
M  V30 51235 H 4869.59 5.22538 3.1589 0
M  V30 51236 H 4871.01 5.65725 0.928898 0
M  V30 51237 H 4869.4 5.99717 0.214454 0
M  V30 51238 H 4870.47 4.81627 -0.562457 0
M  V30 51239 N 4871.82 0.0351614 1.57561 0
M  V30 51240 C 4873.04 -0.655733 1.96761 0
M  V30 51241 C 4873.47 -1.64519 0.911866 0
M  V30 51242 O 4872.83 -1.80857 -0.12661 0
M  V30 51243 C 4872.87 -1.33314 3.35052 0
M  V30 51244 O 4871.98 -2.44855 3.31843 0
M  V30 51245 H 4871.32 -0.171784 0.641394 0
M  V30 51246 H 4873.85 0.0988087 2.04361 0
M  V30 51247 H 4873.86 -1.68854 3.71419 0
M  V30 51248 H 4872.53 -0.607888 4.11434 0
M  V30 51249 H 4871.11 -2.11382 3.07201 0
M  V30 51250 N 4873.3 -1.55792 -0.238056 0
M  V30 51251 C 4874.57 -1.68802 -0.988201 0
M  V30 51252 C 4874.95 -0.577633 -2.03043 0
M  V30 51253 O 4874.3 0.417701 -2.2465 0
M  V30 51254 C 4874.51 -3.09459 -1.61356 0
M  V30 51255 C 4875.86 -3.68343 -2.11208 0
M  V30 51256 O 4876.88 -3.12316 -1.71281 0
M  V30 51257 O 4875.74 -4.6658 -2.84544 0
M  V30 51258 H 4872.84 -0.686897 -0.460544 0
M  V30 51259 H 4875.38 -1.68118 -0.231143 0
M  V30 51260 H 4874.15 -3.81729 -0.860161 0
M  V30 51261 H 4873.78 -3.14191 -2.43659 0
M  V30 51262 N 4874.77 0.504089 -1.49321 0
M  V30 51263 C 4876.18 1.08567 -1.51889 0
M  V30 51264 C 4876.54 1.93841 -0.303323 0
M  V30 51265 O 4875.66 2.08282 0.587166 0
M  V30 51266 C 4876.26 1.97564 -2.75234 0
M  V30 51267 C 4874.81 2.5089 -2.8059 0
M  V30 51268 C 4873.96 1.28439 -2.45762 0
M  V30 51269 H 4876.91 0.288139 -1.56062 0
M  V30 51270 H 4876.93 2.8221 -2.55221 0
M  V30 51271 H 4876.45 1.35473 -3.63688 0
M  V30 51272 H 4874.55 3.16629 -1.96409 0
M  V30 51273 H 4874.66 2.88254 -3.82683 0
M  V30 51274 H 4873.02 1.60861 -1.97474 0
M  V30 51275 H 4873.81 0.680602 -3.36486 0
M  V30 51276 N 4876.25 1.38343 0.754909 0
M  V30 51277 C 4877.2 1.3558 1.89 0
M  V30 51278 C 4878.19 0.241883 1.67664 0
M  V30 51279 O 4879.4 0.410846 1.75249 0
M  V30 51280 H 4875.77 0.42292 0.621806 0
M  V30 51281 H 4877.75 2.31366 1.88447 0
M  V30 51282 C 4876.49 1.19643 3.26467 0
M  V30 51283 H 4875.82 2.04617 3.4347 0
M  V30 51284 H 4877.26 1.21763 4.0614 0
M  V30 51285 C 4875.72 -0.0967521 3.36761 0
M  V30 51286 O 4876.25 -1.07426 3.87069 0
M  V30 51287 N 4874.45 -0.15314 2.90196 0
M  V30 51288 H 4874 0.642996 2.49446 0
M  V30 51289 H 4873.96 -1.01797 2.97464 0
M  V30 51290 N 4877.73 -0.982945 1.23191 0
M  V30 51291 C 4878.96 -1.75662 1.0875 0
M  V30 51292 C 4879.37 -1.85663 -0.36413 0
M  V30 51293 O 4878.71 -1.33321 -1.26377 0
M  V30 51294 C 4878.77 -3.20138 1.6356 0
M  V30 51295 C 4878.44 -3.33654 3.12289 0
M  V30 51296 C 4879.43 -3.2018 4.09611 0
M  V30 51297 C 4877.12 -3.58384 3.51946 0
M  V30 51298 C 4879.11 -3.31236 5.44574 0
M  V30 51299 C 4876.8 -3.69081 4.87055 0
M  V30 51300 C 4877.8 -3.55517 5.83178 0
M  V30 51301 O 4877.49 -3.65839 7.15833 0
M  V30 51302 H 4877.22 -0.558181 0.381327 0
M  V30 51303 H 4879.77 -1.24381 1.63458 0
M  V30 51304 H 4878 -3.72656 1.0327 0
M  V30 51305 H 4879.69 -3.79257 1.44633 0
M  V30 51306 H 4880.46 -3.00974 3.80315 0
M  V30 51307 H 4876.34 -3.68015 2.77644 0
M  V30 51308 H 4879.88 -3.20566 6.19583 0
M  V30 51309 H 4875.78 -3.87796 5.16027 0
M  V30 51310 H 4876.54 -3.8265 7.23548 0
M  V30 51311 N 4879.21 -1.0432 -1.18132 0
M  V30 51312 C 4880.49 -0.662231 -1.84049 0
M  V30 51313 C 4880.87 0.858102 -1.92873 0
M  V30 51314 O 4880.21 1.76057 -1.45658 0
M  V30 51315 C 4880.42 -1.34102 -3.22208 0
M  V30 51316 C 4881.77 -1.47344 -3.98215 0
M  V30 51317 O 4882.8 -1.29933 -3.31656 0
M  V30 51318 O 4881.65 -1.7574 -5.17473 0
M  V30 51319 H 4878.75 -0.232033 -0.793782 0
M  V30 51320 H 4881.29 -1.14225 -1.25502 0
M  V30 51321 H 4880.07 -2.37864 -3.10703 0
M  V30 51322 H 4879.69 -0.849786 -3.88413 0
M  V30 51323 N 4880.69 1.34403 -0.823012 0
M  V30 51324 C 4881.65 2.27829 -0.250351 0
M  V30 51325 C 4882.65 1.5029 0.571801 0
M  V30 51326 O 4883.84 1.69826 0.387893 0
M  V30 51327 C 4880.97 3.34665 0.649019 0
M  V30 51328 H 4882.16 2.79989 -1.07454 0
M  V30 51329 H 4879.72 1.44537 -0.59488 0
M  V30 51330 H 4880.45 2.87719 1.49626 0
M  V30 51331 H 4880.24 3.92053 0.0609821 0
M  V30 51332 H 4881.73 4.04353 1.04349 0
M  V30 51333 N 4882.16 0.577983 1.46619 0
M  V30 51334 C 4883.09 -0.145835 2.33044 0
M  V30 51335 C 4884.08 -0.888361 1.45059 0
M  V30 51336 O 4885.26 -0.864751 1.73884 0
M  V30 51337 C 4882.39 -1.1631 3.27245 0
M  V30 51338 C 4881.34 -0.535718 4.24634 0
M  V30 51339 C 4880.67 -1.65912 5.08308 0
M  V30 51340 C 4881.97 0.524044 5.19664 0
M  V30 51341 H 4883.66 0.575739 2.93812 0
M  V30 51342 H 4881.21 0.278322 1.41285 0
M  V30 51343 H 4883.16 -1.6778 3.86559 0
M  V30 51344 H 4881.89 -1.91489 2.64574 0
M  V30 51345 H 4880.55 -0.042147 3.66576 0
M  V30 51346 H 4880.19 -2.40045 4.42026 0
M  V30 51347 H 4879.89 -1.245 5.74259 0
M  V30 51348 H 4881.42 -2.17666 5.70486 0
M  V30 51349 H 4882.83 0.0946075 5.73222 0
M  V30 51350 H 4881.23 0.858209 5.93932 0
M  V30 51351 H 4882.3 1.41213 4.63882 0
M  V30 51352 N 4883.64 -1.54409 0.315511 0
M  V30 51353 C 4884.57 -2.27004 -0.546959 0
M  V30 51354 C 4885.55 -1.27495 -1.12601 0
M  V30 51355 O 4886.74 -1.56294 -1.15264 0
M  V30 51356 C 4883.87 -3.02177 -1.71191 0
M  V30 51357 C 4882.82 -4.08955 -1.26254 0
M  V30 51358 C 4882.15 -4.71924 -2.5138 0
M  V30 51359 C 4883.45 -5.20892 -0.383236 0
M  V30 51360 H 4885.14 -2.99343 0.0585569 0
M  V30 51361 H 4882.69 -1.4397 0.0296034 0
M  V30 51362 H 4884.64 -3.51689 -2.32149 0
M  V30 51363 H 4883.37 -2.27441 -2.34389 0
M  V30 51364 H 4882.02 -3.60315 -0.675936 0
M  V30 51365 H 4881.67 -3.93812 -3.12924 0
M  V30 51366 H 4881.37 -5.44047 -2.22007 0
M  V30 51367 H 4882.9 -5.24206 -3.13114 0
M  V30 51368 H 4884.31 -5.66209 -0.898883 0
M  V30 51369 H 4882.71 -5.99822 -0.182646 0
M  V30 51370 H 4883.78 -4.81322 0.587991 0
M  V30 51371 N 4885.12 -0.0435168 -1.5754 0
M  V30 51372 C 4886.37 0.631387 -1.91563 0
M  V30 51373 C 4886.68 1.72454 -0.92298 0
M  V30 51374 O 4887.89 2.45708 -1.15498 0
M  V30 51375 C 4886.34 1.17435 -3.40202 0
M  V30 51376 C 4885.95 0.11371 -4.47856 0
M  V30 51377 C 4887.7 1.82493 -3.83271 0
M  V30 51378 C 4885.6 0.669119 -5.87603 0
M  V30 51379 H 4884.53 0.239604 -0.714917 0
M  V30 51380 H 4887.18 -0.111162 -1.83163 0
M  V30 51381 H 4885.57 1.96897 -3.43581 0
M  V30 51382 H 4886.74 -0.659508 -4.56056 0
M  V30 51383 H 4885.06 -0.438966 -4.1408 0
M  V30 51384 H 4887.65 2.2503 -4.85042 0
M  V30 51385 H 4888 2.67354 -3.19104 0
M  V30 51386 H 4888.53 1.09699 -3.82375 0
M  V30 51387 H 4885.27 -0.14168 -6.55347 0
M  V30 51388 H 4884.79 1.4105 -5.82979 0
M  V30 51389 H 4886.47 1.1544 -6.36618 0
M  V30 51390 N 4886.6 1.55916 0.229791 0
M  V30 51391 C 4887.82 1.82964 0.976678 0
M  V30 51392 C 4888.25 0.622798 1.7749 0
M  V30 51393 O 4887.61 -0.428369 1.76167 0
M  V30 51394 C 4887.65 3.07923 1.87659 0
M  V30 51395 O 4886.76 2.86039 2.97078 0
M  V30 51396 H 4886.1 0.603462 0.277 0
M  V30 51397 H 4888.63 2.03121 0.245597 0
M  V30 51398 H 4888.64 3.3781 2.28798 0
M  V30 51399 H 4887.31 3.95394 1.28982 0
M  V30 51400 H 4885.89 2.67364 2.59944 0
M  V30 51401 N 4888.08 -0.496163 1.49586 0
M  V30 51402 C 4889.01 -1.61503 1.61221 0
M  V30 51403 C 4889.99 -1.55925 0.4611 0
M  V30 51404 O 4891.17 -1.75912 0.677293 0
M  V30 51405 C 4888.3 -3.00029 1.57163 0
M  V30 51406 C 4887.34 -3.23851 2.7753 0
M  V30 51407 S 4888.18 -3.06451 4.39145 0
M  V30 51408 C 4889.33 -4.47364 4.3774 0
M  V30 51409 H 4889.57 -1.51389 2.55868 0
M  V30 51410 H 4887.1 -0.681679 1.38537 0
M  V30 51411 H 4889.06 -3.79905 1.55507 0
M  V30 51412 H 4887.72 -3.07553 0.637943 0
M  V30 51413 H 4886.91 -4.2499 2.70923 0
M  V30 51414 H 4886.51 -2.51706 2.76623 0
M  V30 51415 H 4888.81 -5.39542 4.09757 0
M  V30 51416 H 4889.75 -4.59019 5.39172 0
M  V30 51417 H 4890.16 -4.2827 3.67757 0
M  V30 51418 N 4889.55 -1.38742 -0.747561 0
M  V30 51419 C 4890.78 -1.38527 -1.53682 0
M  V30 51420 C 4891.2 0.0234465 -1.88785 0
M  V30 51421 O 4890.55 0.991609 -1.5321 0
M  V30 51422 C 4890.61 -2.24651 -2.83221 0
M  V30 51423 O 4890.33 -3.60035 -2.49612 0
M  V30 51424 C 4891.83 -2.32682 -3.77325 0
M  V30 51425 H 4889.05 -0.473606 -0.47533 0
M  V30 51426 H 4891.59 -1.82398 -0.924722 0
M  V30 51427 H 4889.75 -1.84225 -3.40793 0
M  V30 51428 H 4890.16 -4.05447 -3.32736 0
M  V30 51429 H 4891.63 -2.97217 -4.65152 0
M  V30 51430 H 4892.11 -1.34225 -4.18187 0
M  V30 51431 H 4892.72 -2.73524 -3.25676 0
M  V30 51432 N 4891.03 0.976398 -1.2371 0
M  V30 51433 C 4891.98 2.09075 -1.01934 0
M  V30 51434 C 4892.97 1.69346 0.0429598 0
M  V30 51435 O 4894.18 1.79658 -0.110877 0
M  V30 51436 H 4890.56 0.683969 -0.312555 0
M  V30 51437 H 4892.53 2.24607 -1.96454 0
M  V30 51438 C 4891.28 3.41917 -0.631505 0
M  V30 51439 H 4890.6 3.72941 -1.44066 0
M  V30 51440 H 4892.04 4.20816 -0.51868 0
M  V30 51441 C 4890.5 3.3036 0.660607 0
M  V30 51442 O 4891.03 3.63548 1.70868 0
M  V30 51443 N 4889.23 2.83509 0.638039 0
M  V30 51444 H 4888.78 2.567 -0.215199 0
M  V30 51445 H 4888.74 2.76158 1.50279 0
M  V30 51446 N 4892.51 1.04945 1.17577 0
M  V30 51447 C 4893.46 0.618455 2.19452 0
M  V30 51448 C 4894.44 -0.343758 1.57185 0
M  V30 51449 O 4895.64 -0.161388 1.76263 0
M  V30 51450 C 4892.77 -0.00791778 3.43299 0
M  V30 51451 C 4891.85 0.977972 4.1267 0
M  V30 51452 N 4892.24 2.14842 4.57904 0
M  V30 51453 C 4890.54 0.805902 4.38658 0
M  V30 51454 C 4891.24 2.77192 5.11409 0
M  V30 51455 N 4890.22 2.05007 5.03461 0
M  V30 51456 H 4894.02 1.51027 2.52127 0
M  V30 51457 H 4891.53 0.919248 1.33879 0
M  V30 51458 H 4893.53 -0.334438 4.15556 0
M  V30 51459 H 4892.19 -0.895162 3.12117 0
M  V30 51460 H 4893.2 2.52689 4.52072 0
M  V30 51461 H 4889.88 -0.0305038 4.17489 0
M  V30 51462 H 4891.27 3.76435 5.56548 0
M  V30 51463 N 4893.99 -1.33965 0.830128 0
M  V30 51464 C 4895.21 -2.02811 0.433867 0
M  V30 51465 C 4895.64 -1.6208 -0.954557 0
M  V30 51466 O 4895 -0.809012 -1.62249 0
M  V30 51467 C 4895.05 -3.56346 0.552241 0
M  V30 51468 O 4894.15 -4.10204 -0.425047 0
M  V30 51469 H 4893.49 -0.639811 0.17759 0
M  V30 51470 H 4896.02 -1.71056 1.12254 0
M  V30 51471 H 4896.03 -4.05721 0.430656 0
M  V30 51472 H 4894.71 -3.85338 1.56484 0
M  V30 51473 H 4893.28 -3.7198 -0.261747 0
M  V30 51474 N 4895.47 -0.585751 -1.4631 0
M  V30 51475 C 4896.71 -0.0724922 -2.0237 0
M  V30 51476 C 4897.04 1.28862 -1.45687 0
M  V30 51477 O 4896.3 1.85851 -0.61301 0
M  V30 51478 C 4896.6 0.0400055 -3.57378 0
M  V30 51479 C 4896.26 -1.25391 -4.33114 0
M  V30 51480 C 4894.92 -1.6084 -4.53524 0
M  V30 51481 C 4897.28 -2.11004 -4.76578 0
M  V30 51482 C 4894.6 -2.81694 -5.14651 0
M  V30 51483 C 4896.96 -3.31087 -5.3904 0
M  V30 51484 C 4895.62 -3.66814 -5.57677 0
M  V30 51485 H 4894.89 -0.0265268 -0.740525 0
M  V30 51486 H 4897.54 -0.762997 -1.75643 0
M  V30 51487 H 4895.84 0.813656 -3.83258 0
M  V30 51488 H 4897.54 0.452938 -3.98434 0
M  V30 51489 H 4894.13 -0.967955 -4.17527 0
M  V30 51490 H 4898.31 -1.8492 -4.60563 0
M  V30 51491 H 4893.57 -3.09508 -5.27271 0
M  V30 51492 H 4897.74 -3.97692 -5.71677 0
M  V30 51493 H 4895.37 -4.60551 -6.04812 0
M  V30 51494 N 4896.95 1.5424 -0.323695 0
M  V30 51495 C 4898.17 2.05453 0.283532 0
M  V30 51496 C 4898.6 1.19828 1.44992 0
M  V30 51497 O 4897.95 0.207421 1.8011 0
M  V30 51498 C 4898 3.53826 0.69567 0
M  V30 51499 O 4897.11 3.7114 1.79802 0
M  V30 51500 H 4896.45 0.662026 0.0511685 0
M  V30 51501 H 4898.98 1.99078 -0.472143 0
M  V30 51502 H 4898.99 3.96098 0.978295 0
M  V30 51503 H 4897.66 4.15602 -0.157433 0
M  V30 51504 H 4896.24 3.40773 1.51419 0
M  V30 51505 N 4898.42 0.0518709 1.57515 0
M  V30 51506 C 4899.67 -0.622677 1.93004 0
M  V30 51507 C 4900 -1.70453 0.930559 0
M  V30 51508 O 4899.28 -1.94452 -0.0433402 0
M  V30 51509 C 4899.56 -1.21812 3.38871 0
M  V30 51510 C 4899.41 -0.144276 4.49569 0
M  V30 51511 C 4900.73 -2.12955 3.85147 0
M  V30 51512 H 4897.85 -0.224885 0.701852 0
M  V30 51513 H 4900.49 0.113778 1.89659 0
M  V30 51514 H 4898.64 -1.84578 3.41853 0
M  V30 51515 H 4900.32 0.487691 4.58715 0
M  V30 51516 H 4898.56 0.527575 4.3058 0
M  V30 51517 H 4899.23 -0.600934 5.48719 0
M  V30 51518 H 4901.71 -1.6015 3.84046 0
M  V30 51519 H 4900.58 -2.51561 4.87861 0
M  V30 51520 H 4900.84 -3.02992 3.21944 0
M  V30 51521 N 4899.9 -1.56035 -0.221519 0
M  V30 51522 C 4900.83 -1.88905 -1.29799 0
M  V30 51523 C 4901.85 -0.777319 -1.43044 0
M  V30 51524 O 4903.04 -1.05562 -1.43941 0
M  V30 51525 C 4900.14 -2.08259 -2.6736 0
M  V30 51526 C 4899.31 -3.39277 -2.76062 0
M  V30 51527 C 4898.37 -3.48063 -3.94637 0
M  V30 51528 O 4897.39 -4.21094 -3.82974 0
M  V30 51529 N 4898.6 -2.79209 -5.08943 0
M  V30 51530 H 4901.36 -2.81835 -1.01928 0
M  V30 51531 H 4898.92 -1.56582 -0.411557 0
M  V30 51532 H 4900.91 -2.11453 -3.45065 0
M  V30 51533 H 4899.48 -1.21954 -2.8783 0
M  V30 51534 H 4898.7 -3.48181 -1.84833 0
M  V30 51535 H 4899.99 -4.25585 -2.78845 0
M  V30 51536 H 4899.39 -2.19654 -5.21314 0
M  V30 51537 H 4897.95 -2.88063 -5.8469 0
M  V30 51538 N 4901.38 0.488223 -1.49847 0
M  V30 51539 C 4902.33 1.5883 -1.67456 0
M  V30 51540 C 4903.3 1.57885 -0.515912 0
M  V30 51541 O 4904.48 1.75677 -0.744465 0
M  V30 51542 C 4901.62 2.96909 -1.75895 0
M  V30 51543 C 4900.73 3.07774 -3.03149 0
M  V30 51544 C 4899.87 4.36663 -3.02488 0
M  V30 51545 C 4898.91 4.41207 -4.24267 0
M  V30 51546 N 4898.05 5.61542 -4.21444 0
M  V30 51547 H 4902.89 1.43122 -2.61381 0
M  V30 51548 H 4900.42 0.69614 -1.29585 0
M  V30 51549 H 4902.38 3.76958 -1.78769 0
M  V30 51550 H 4901.01 3.11292 -0.85425 0
M  V30 51551 H 4900.06 2.20706 -3.09827 0
M  V30 51552 H 4901.37 3.06991 -3.93139 0
M  V30 51553 H 4900.53 5.25044 -3.03996 0
M  V30 51554 H 4899.27 4.40029 -2.10299 0
M  V30 51555 H 4898.27 3.51225 -4.2299 0
M  V30 51556 H 4899.5 4.39546 -5.17664 0
M  V30 51557 H 4897.44 5.65727 -3.32098 0
M  V30 51558 H 4897.36 5.62429 -5.05182 0
M  V30 51559 H 4898.63 6.52096 -4.27072 0
M  V30 51560 N 4902.86 1.39136 0.740193 0
M  V30 51561 C 4903.81 1.33935 1.84514 0
M  V30 51562 C 4904.79 0.221153 1.59373 0
M  V30 51563 O 4905.98 0.458255 1.70965 0
M  V30 51564 C 4903.11 1.18002 3.22382 0
M  V30 51565 C 4902.2 2.345 3.5337 0
M  V30 51566 N 4902.59 3.59967 3.55327 0
M  V30 51567 C 4900.89 2.27345 3.83706 0
M  V30 51568 C 4901.59 4.36975 3.83963 0
M  V30 51569 N 4900.56 3.66496 4.01474 0
M  V30 51570 H 4904.37 2.28914 1.84325 0
M  V30 51571 H 4901.88 1.32558 0.93819 0
M  V30 51572 H 4903.88 1.12359 4.01474 0
M  V30 51573 H 4902.54 0.239684 3.23814 0
M  V30 51574 H 4903.55 3.9346 3.36764 0
M  V30 51575 H 4900.23 1.41544 3.92774 0
M  V30 51576 H 4901.62 5.45706 3.91988 0
M  V30 51577 N 4904.34 -0.969824 1.24226 0
M  V30 51578 C 4905.58 -1.70683 1.07472 0
M  V30 51579 C 4905.9 -1.91737 -0.386794 0
M  V30 51580 O 4907.1 -2.62988 -0.674488 0
M  V30 51581 C 4905.56 -3.0721 1.87483 0
M  V30 51582 C 4905.17 -2.94006 3.3803 0
M  V30 51583 C 4906.91 -3.84798 1.79251 0
M  V30 51584 C 4904.82 -4.2583 4.10394 0
M  V30 51585 H 4903.75 -0.640053 0.398558 0
M  V30 51586 H 4906.4 -1.08087 1.48289 0
M  V30 51587 H 4904.78 -3.70623 1.39479 0
M  V30 51588 H 4905.96 -2.39618 3.93599 0
M  V30 51589 H 4904.27 -2.29886 3.47191 0
M  V30 51590 H 4906.87 -4.82409 2.3062 0
M  V30 51591 H 4907.21 -4.09353 0.757341 0
M  V30 51592 H 4907.74 -3.28107 2.24923 0
M  V30 51593 H 4904.48 -4.06468 5.14261 0
M  V30 51594 H 4904 -4.80042 3.59611 0
M  V30 51595 H 4905.68 -4.94461 4.17274 0
M  V30 51596 N 4905.81 -1.05567 -1.17018 0
M  V30 51597 C 4907.06 -0.766485 -1.87001 0
M  V30 51598 C 4907.38 0.70879 -1.81662 0
M  V30 51599 O 4906.65 1.51237 -1.24515 0
M  V30 51600 H 4905.23 -0.280541 -0.692319 0
M  V30 51601 H 4907.89 -1.33562 -1.41941 0
M  V30 51602 H 4906.99 -1.08482 -2.9264 0
M  V30 51603 N 4907.29 1.33523 -0.837221 0
M  V30 51604 C 4908.25 2.2755 -0.274501 0
M  V30 51605 C 4909.25 1.50888 0.555828 0
M  V30 51606 O 4910.44 1.70228 0.369859 0
M  V30 51607 C 4907.58 3.35334 0.613487 0
M  V30 51608 H 4908.77 2.78833 -1.10418 0
M  V30 51609 H 4906.32 1.43898 -0.610177 0
M  V30 51610 H 4907.06 2.8929 1.46566 0
M  V30 51611 H 4906.84 3.92095 0.0193962 0
M  V30 51612 H 4908.33 4.05437 1.00054 0
M  V30 51613 N 4908.77 0.593501 1.45998 0
M  V30 51614 C 4910.18 0.169866 1.85926 0
M  V30 51615 C 4910.53 -1.26978 1.49569 0
M  V30 51616 O 4909.66 -1.96073 0.915671 0
M  V30 51617 C 4910.25 0.301504 3.37456 0
M  V30 51618 C 4908.81 -0.0673361 3.7634 0
M  V30 51619 C 4907.96 0.632477 2.69991 0
M  V30 51620 H 4910.91 0.801062 1.36999 0
M  V30 51621 H 4910.93 -0.470198 3.77584 0
M  V30 51622 H 4910.44 1.3494 3.63886 0
M  V30 51623 H 4908.54 -1.11495 3.55527 0
M  V30 51624 H 4908.66 0.3165 4.78053 0
M  V30 51625 H 4907.02 0.0715856 2.54599 0
M  V30 51626 H 4907.8 1.68223 2.99259 0
M  V30 51627 N 4910.25 -1.54066 0.33187 0
M  V30 51628 C 4911.21 -2.23277 -0.51769 0
M  V30 51629 C 4912.21 -1.229 -1.03693 0
M  V30 51630 O 4913.4 -1.47422 -0.928032 0
M  V30 51631 C 4910.53 -2.94332 -1.71993 0
M  V30 51632 H 4911.73 -2.99772 0.0874561 0
M  V30 51633 H 4909.28 -1.56079 0.0830591 0
M  V30 51634 H 4910.01 -2.21994 -2.36409 0
M  V30 51635 H 4909.8 -3.67946 -1.35494 0
M  V30 51636 H 4911.29 -3.47039 -2.32279 0
M  V30 51637 N 4911.73 -0.0602235 -1.57485 0
M  V30 51638 C 4912.67 0.928824 -2.1325 0
M  V30 51639 C 4913.67 1.31612 -1.06652 0
M  V30 51640 O 4914.87 1.29472 -1.25048 0
M  V30 51641 H 4911.25 0.317431 -0.68172 0
M  V30 51642 H 4913.22 0.433462 -2.95235 0
M  V30 51643 C 4911.97 2.19112 -2.69973 0
M  V30 51644 H 4911.29 1.90191 -3.51664 0
M  V30 51645 H 4912.73 2.86454 -3.12602 0
M  V30 51646 C 4911.19 2.94189 -1.64178 0
M  V30 51647 O 4911.72 3.87465 -1.05991 0
M  V30 51648 N 4909.93 2.57084 -1.35485 0
M  V30 51649 H 4909.47 1.81307 -1.8299 0
M  V30 51650 H 4909.43 3.07622 -0.649304 0
M  V30 51651 N 4913.2 1.56151 0.213241 0
M  V30 51652 C 4914.13 1.96114 1.26735 0
M  V30 51653 C 4915.12 0.830501 1.48448 0
M  V30 51654 O 4916.3 1.09345 1.60491 0
M  V30 51655 C 4913.43 2.28501 2.61543 0
M  V30 51656 C 4912.38 3.44133 2.54473 0
M  V30 51657 C 4911.71 3.62148 3.93387 0
M  V30 51658 C 4913.01 4.78862 2.08539 0
M  V30 51659 H 4914.7 2.84415 0.935334 0
M  V30 51660 H 4912.25 1.36838 0.448492 0
M  V30 51661 H 4914.2 2.55051 3.35451 0
M  V30 51662 H 4912.93 1.37062 2.96448 0
M  V30 51663 H 4911.59 3.17646 1.83021 0
M  V30 51664 H 4911.23 2.6807 4.25614 0
M  V30 51665 H 4910.93 4.39927 3.89536 0
M  V30 51666 H 4912.46 3.91054 4.68944 0
M  V30 51667 H 4913.87 5.04562 2.72195 0
M  V30 51668 H 4912.27 5.59983 2.1573 0
M  V30 51669 H 4913.34 4.73661 1.03794 0
M  V30 51670 N 4914.68 -0.48027 1.50104 0
M  V30 51671 C 4916.1 -0.813247 1.37326 0
M  V30 51672 C 4916.3 -1.97026 0.422276 0
M  V30 51673 O 4915.35 -2.5212 -0.138474 0
M  V30 51674 C 4916.67 -1.13395 2.785 0
M  V30 51675 C 4918.22 -1.24094 2.87349 0
M  V30 51676 C 4918.69 -1.59482 4.29336 0
M  V30 51677 N 4920.18 -1.66491 4.32244 0
M  V30 51678 C 4920.92 -1.95359 5.39094 0
M  V30 51679 N 4920.41 -2.2231 6.56163 0
M  V30 51680 N 4922.21 -1.96785 5.26529 0
M  V30 51681 H 4914.36 0.282365 2.10515 0
M  V30 51682 H 4916.62 0.0637852 0.945852 0
M  V30 51683 H 4916.33 -0.356941 3.49884 0
M  V30 51684 H 4916.2 -2.0724 3.15169 0
M  V30 51685 H 4918.59 -2.00863 2.1619 0
M  V30 51686 H 4918.67 -0.282504 2.54235 0
M  V30 51687 H 4918.31 -0.83256 5.0103 0
M  V30 51688 H 4918.24 -2.5646 4.5993 0
M  V30 51689 H 4920.73 -1.47741 3.47823 0
M  V30 51690 H 4921.05 -2.43585 7.33407 0
M  V30 51691 H 4919.39 -2.19722 6.59354 0
M  V30 51692 H 4922.58 -1.7522 4.34069 0
M  V30 51693 H 4922.75 -2.18947 6.0989 0
M  V30 51694 N 4916.16 -1.39527 -0.732804 0
M  V30 51695 C 4917.41 -1.37073 -1.49462 0
M  V30 51696 C 4917.74 0.0326483 -1.94173 0
M  V30 51697 O 4917.01 0.998013 -1.66943 0
M  V30 51698 C 4917.3 -2.34503 -2.73277 0
M  V30 51699 C 4917.15 -3.83792 -2.34571 0
M  V30 51700 C 4918.47 -2.2973 -3.75383 0
M  V30 51701 H 4915.59 -0.499225 -0.542166 0
M  V30 51702 H 4918.23 -1.70535 -0.837723 0
M  V30 51703 H 4916.38 -2.06098 -3.29326 0
M  V30 51704 H 4918.05 -4.22956 -1.84136 0
M  V30 51705 H 4916.3 -4.00461 -1.66773 0
M  V30 51706 H 4916.97 -4.47455 -3.23246 0
M  V30 51707 H 4919.44 -2.54851 -3.28923 0
M  V30 51708 H 4918.32 -2.99978 -4.59679 0
M  V30 51709 H 4918.58 -1.30306 -4.2246 0
M  V30 51710 N 4917.64 0.963222 -1.24739 0
M  V30 51711 C 4918.88 1.70929 -1.09137 0
M  V30 51712 C 4919.22 1.90677 0.368206 0
M  V30 51713 O 4918.49 1.47151 1.27188 0
M  V30 51714 C 4918.78 3.09738 -1.83669 0
M  V30 51715 C 4918.63 2.97453 -3.37404 0
M  V30 51716 C 4919.95 4.09477 -1.61296 0
M  V30 51717 H 4917.07 0.620384 -0.39786 0
M  V30 51718 H 4919.71 1.12022 -1.53463 0
M  V30 51719 H 4917.86 3.60026 -1.45993 0
M  V30 51720 H 4919.53 2.54557 -3.84705 0
M  V30 51721 H 4917.77 2.33563 -3.65555 0
M  V30 51722 H 4918.44 3.95808 -3.84759 0
M  V30 51723 H 4920.92 3.68066 -1.94079 0
M  V30 51724 H 4919.8 5.04659 -2.15895 0
M  V30 51725 H 4920.06 4.38637 -0.552257 0
M  V30 51726 N 4919.12 1.06186 1.16457 0
M  V30 51727 C 4920.36 0.776392 1.86592 0
M  V30 51728 C 4920.69 -0.699146 1.82036 0
M  V30 51729 O 4919.96 -1.50575 1.25316 0
M  V30 51730 H 4918.54 0.284208 0.690822 0
M  V30 51731 H 4921.2 1.34313 1.4123 0
M  V30 51732 H 4920.29 1.10032 2.9206 0
M  V30 51733 N 4920.59 -1.33077 0.84429 0
M  V30 51734 C 4921.54 -2.26588 0.253368 0
M  V30 51735 C 4922.53 -1.49503 -0.594784 0
M  V30 51736 O 4923.72 -1.71292 -0.445864 0
M  V30 51737 C 4920.85 -3.38601 -0.566057 0
M  V30 51738 C 4919.94 -4.2308 0.293905 0
M  V30 51739 N 4920.33 -4.86746 1.37522 0
M  V30 51740 C 4918.62 -4.45925 0.0818653 0
M  V30 51741 C 4919.33 -5.49677 1.90342 0
M  V30 51742 N 4918.3 -5.30097 1.2041 0
M  V30 51743 H 4922.1 -2.7333 1.08018 0
M  V30 51744 H 4919.62 -1.47045 0.68931 0
M  V30 51745 H 4921.61 -4.04587 -1.00573 0
M  V30 51746 H 4920.27 -2.93406 -1.39079 0
M  V30 51747 H 4921.29 -4.87145 1.75813 0
M  V30 51748 H 4917.96 -4.11436 -0.708984 0
M  V30 51749 H 4919.35 -6.10354 2.80924 0
M  V30 51750 N 4922.07 -0.601236 -1.45681 0
M  V30 51751 C 4923.04 0.111318 -2.2893 0
M  V30 51752 C 4924.04 0.801197 -1.39418 0
M  V30 51753 O 4925.23 0.650327 -1.61606 0
M  V30 51754 C 4922.36 1.16762 -3.2028 0
M  V30 51755 H 4923.55 -0.620515 -2.9341 0
M  V30 51756 H 4921.1 -0.36 -1.52098 0
M  V30 51757 H 4921.84 1.93042 -2.60586 0
M  V30 51758 H 4921.62 0.677222 -3.86207 0
M  V30 51759 H 4923.11 1.66684 -3.82892 0
M  V30 51760 N 4923.55 1.53888 -0.340036 0
M  V30 51761 C 4924.48 2.21189 0.561327 0
M  V30 51762 C 4925.46 1.19467 1.10302 0
M  V30 51763 O 4926.65 1.48272 1.16394 0
M  V30 51764 C 4923.77 2.88656 1.77187 0
M  V30 51765 C 4922.82 4.04237 1.35996 0
M  V30 51766 S 4923.65 5.34131 0.382721 0
M  V30 51767 C 4924.81 6.05099 1.60018 0
M  V30 51768 H 4925.04 2.97298 -0.0103137 0
M  V30 51769 H 4922.57 1.539 -0.12411 0
M  V30 51770 H 4924.53 3.28146 2.46638 0
M  V30 51771 H 4923.19 2.12319 2.31473 0
M  V30 51772 H 4922.39 4.50366 2.26244 0
M  V30 51773 H 4921.99 3.66505 0.744969 0
M  V30 51774 H 4924.28 6.28279 2.53519 0
M  V30 51775 H 4925.22 6.98186 1.18074 0
M  V30 51776 H 4925.63 5.35213 1.79464 0
M  V30 51777 N 4925.03 0.0685745 1.57451 0
M  V30 51778 C 4925.96 -0.929299 2.09515 0
M  V30 51779 C 4926.97 -1.26351 1.02661 0
M  V30 51780 O 4928.16 -1.22126 1.30183 0
M  V30 51781 C 4925.26 -2.24603 2.53785 0
M  V30 51782 C 4924.44 -2.09115 3.84174 0
M  V30 51783 C 4923.5 -3.24064 4.1457 0
M  V30 51784 O 4922.52 -2.99198 4.8422 0
M  V30 51785 N 4923.72 -4.49064 3.67861 0
M  V30 51786 H 4926.49 -0.484797 2.95753 0
M  V30 51787 H 4924.05 -0.117234 1.61475 0
M  V30 51788 H 4926.04 -3.00403 2.71183 0
M  V30 51789 H 4924.61 -2.60563 1.72701 0
M  V30 51790 H 4923.83 -1.17802 3.76187 0
M  V30 51791 H 4925.12 -1.96013 4.69528 0
M  V30 51792 H 4924.52 -4.72154 3.11587 0
M  V30 51793 H 4923.07 -5.21901 3.90465 0
M  V30 51794 N 4926.51 -1.56262 -0.204957 0
M  V30 51795 C 4927.76 -1.79687 -0.925033 0
M  V30 51796 C 4928.08 -0.639955 -1.842 0
M  V30 51797 O 4927.35 0.342277 -1.92887 0
M  V30 51798 H 4925.93 -0.662786 -0.344563 0
M  V30 51799 H 4928.59 -1.93734 -0.212831 0
M  V30 51800 H 4927.68 -2.72472 -1.52202 0
M  V30 51801 N 4927.99 0.472303 -1.50356 0
M  V30 51802 C 4929.21 1.24778 -1.65039 0
M  V30 51803 C 4929.63 1.85836 -0.333241 0
M  V30 51804 O 4928.99 1.6917 0.684661 0
M  V30 51805 C 4929.04 2.35737 -2.74063 0
M  V30 51806 O 4928.76 1.77183 -4.00672 0
M  V30 51807 C 4930.26 3.26634 -2.99708 0
M  V30 51808 H 4927.48 0.377413 -0.554798 0
M  V30 51809 H 4930.02 0.563893 -1.96572 0
M  V30 51810 H 4928.18 2.99903 -2.45228 0
M  V30 51811 H 4928.59 2.50244 -4.60954 0
M  V30 51812 H 4930.07 4.00704 -3.79658 0
M  V30 51813 H 4930.54 3.85343 -2.10731 0
M  V30 51814 H 4931.15 2.68206 -3.30069 0
M  V30 51815 N 4929.46 1.39914 0.725394 0
M  V30 51816 C 4930.39 1.42144 1.85249 0
M  V30 51817 C 4931.37 0.283572 1.6772 0
M  V30 51818 O 4932.56 0.490783 1.87896 0
M  V30 51819 C 4929.69 1.27365 3.23103 0
M  V30 51820 C 4928.64 2.38652 3.55287 0
M  V30 51821 C 4927.97 2.08956 4.9218 0
M  V30 51822 C 4929.27 3.80982 3.57281 0
M  V30 51823 H 4930.96 2.36468 1.83639 0
M  V30 51824 H 4928.51 1.1382 0.882098 0
M  V30 51825 H 4930.46 1.27544 4.01635 0
M  V30 51826 H 4929.19 0.29514 3.25264 0
M  V30 51827 H 4927.85 2.37706 2.7909 0
M  V30 51828 H 4927.49 1.0952 4.90932 0
M  V30 51829 H 4927.19 2.83509 5.14681 0
M  V30 51830 H 4928.72 2.10801 5.73058 0
M  V30 51831 H 4930.13 3.83805 4.25871 0
M  V30 51832 H 4928.53 4.54973 3.91304 0
M  V30 51833 H 4929.6 4.1127 2.56876 0
M  V30 51834 N 4930.94 -0.956593 1.25248 0
M  V30 51835 C 4931.87 -2.07054 1.07939 0
M  V30 51836 C 4932.85 -1.70096 -0.0109763 0
M  V30 51837 O 4934.04 -1.93555 0.158189 0
M  V30 51838 C 4931.17 -3.4027 0.695244 0
M  V30 51839 C 4930.12 -3.91229 1.73562 0
M  V30 51840 C 4929.45 -5.20917 1.20622 0
M  V30 51841 C 4930.75 -4.17826 3.13399 0
M  V30 51842 H 4932.44 -2.21793 2.01117 0
M  V30 51843 H 4929.99 -1.06577 0.968363 0
M  V30 51844 H 4931.94 -4.17648 0.561096 0
M  V30 51845 H 4930.66 -3.25463 -0.272241 0
M  V30 51846 H 4929.32 -3.16018 1.85818 0
M  V30 51847 H 4928.97 -5.02478 0.229023 0
M  V30 51848 H 4928.67 -5.55981 1.90156 0
M  V30 51849 H 4930.2 -6.00893 1.08443 0
M  V30 51850 H 4931.61 -4.85869 3.04309 0
M  V30 51851 H 4930.01 -4.64141 3.80386 0
M  V30 51852 H 4931.08 -3.24177 3.60607 0
M  V30 51853 N 4932.42 -1.06802 -1.15892 0
M  V30 51854 C 4933.37 -0.683391 -2.2045 0
M  V30 51855 C 4934.34 0.322492 -1.62939 0
M  V30 51856 O 4935.52 0.210209 -1.89639 0
M  V30 51857 C 4932.66 -0.0814479 -3.45004 0
M  V30 51858 C 4931.77 -1.13813 -4.16738 0
M  V30 51859 C 4930.91 -0.501784 -5.28825 0
M  V30 51860 C 4929.95 -1.54165 -5.92368 0
M  V30 51861 N 4929.09 -0.928283 -6.95936 0
M  V30 51862 H 4933.93 -1.57941 -2.52703 0
M  V30 51863 H 4931.46 -0.789588 -1.24113 0
M  V30 51864 H 4933.42 0.285128 -4.16225 0
M  V30 51865 H 4932.05 0.77795 -3.13285 0
M  V30 51866 H 4931.1 -1.62235 -3.4407 0
M  V30 51867 H 4932.41 -1.9268 -4.60082 0
M  V30 51868 H 4931.57 -0.0825295 -6.06644 0
M  V30 51869 H 4930.31 0.318712 -4.86657 0
M  V30 51870 H 4929.31 -1.97074 -5.13266 0
M  V30 51871 H 4930.54 -2.36433 -6.36613 0
M  V30 51872 H 4928.48 -0.12859 -6.55874 0
M  V30 51873 H 4928.4 -1.65427 -7.37679 0
M  V30 51874 H 4929.67 -0.534344 -7.77666 0
M  V30 51875 N 4933.9 1.32627 -0.851335 0
M  V30 51876 C 4934.83 2.31448 -0.308853 0
M  V30 51877 C 4935.81 1.59533 0.590199 0
M  V30 51878 O 4936.99 1.87353 0.511139 0
M  V30 51879 C 4934.12 3.43588 0.506428 0
M  V30 51880 C 4933.08 4.26962 -0.297903 0
M  V30 51881 C 4932.4 5.30833 0.641907 0
M  V30 51882 C 4933.7 4.99637 -1.52183 0
M  V30 51883 H 4935.4 2.7707 -1.13457 0
M  V30 51884 H 4932.94 1.33206 -0.547018 0
M  V30 51885 H 4934.9 4.11757 0.89633 0
M  V30 51886 H 4933.62 2.96685 1.36548 0
M  V30 51887 H 4932.28 3.60434 -0.669518 0
M  V30 51888 H 4931.93 4.80185 1.49771 0
M  V30 51889 H 4931.63 5.87501 0.107761 0
M  V30 51890 H 4933.15 6.01866 1.02906 0
M  V30 51891 H 4934.57 5.60506 -1.20441 0
M  V30 51892 H 4932.96 5.66015 -1.99367 0
M  V30 51893 H 4934.03 4.27693 -2.28489 0
M  V30 51894 N 4935.38 0.608953 1.4536 0
M  V30 51895 C 4936.6 0.111085 2.06602 0
M  V30 51896 C 4937.02 -1.2051 1.45336 0
M  V30 51897 O 4936.38 -1.73435 0.568039 0
M  V30 51898 C 4936.43 -0.0335609 3.61484 0
M  V30 51899 O 4936.15 1.23056 4.20463 0
M  V30 51900 C 4937.65 -0.562727 4.39714 0
M  V30 51901 H 4934.87 0.0694688 0.667394 0
M  V30 51902 H 4937.41 0.837073 1.86583 0
M  V30 51903 H 4935.57 -0.709882 3.8084 0
M  V30 51904 H 4935.98 1.06112 5.13654 0
M  V30 51905 H 4937.46 -0.61302 5.48586 0
M  V30 51906 H 4937.93 -1.58528 4.09592 0
M  V30 51907 H 4938.54 0.0795948 4.25226 0
M  V30 51908 N 4936.85 -1.53705 0.348193 0
M  V30 51909 C 4938.1 -2.01287 -0.247261 0
M  V30 51910 C 4938.43 -1.23551 -1.49829 0
M  V30 51911 O 4937.71 -0.324398 -1.91776 0
M  V30 51912 C 4937.99 -3.5577 -0.556732 0
M  V30 51913 C 4937.84 -4.44213 0.70672 0
M  V30 51914 C 4939.16 -4.18414 -1.36445 0
M  V30 51915 H 4936.28 -0.73168 -0.0883944 0
M  V30 51916 H 4938.92 -1.84104 0.469649 0
M  V30 51917 H 4937.07 -3.70543 -1.16748 0
M  V30 51918 H 4938.75 -4.41269 1.34459 0
M  V30 51919 H 4936.99 -4.12887 1.33066 0
M  V30 51920 H 4937.66 -5.502 0.445379 0
M  V30 51921 H 4940.14 -4.07368 -0.84797 0
M  V30 51922 H 4939.01 -5.26568 -1.54974 0
M  V30 51923 H 4939.27 -3.73339 -2.36792 0
M  V30 51924 N 4938.33 -0.0769235 -1.57412 0
M  V30 51925 C 4939.61 0.632294 -1.85098 0
M  V30 51926 C 4939.99 1.87476 -0.970366 0
M  V30 51927 O 4939.34 2.28468 -0.0379865 0
M  V30 51928 C 4939.55 0.965056 -3.35392 0
M  V30 51929 C 4940.9 1.33634 -4.03022 0
M  V30 51930 O 4941.92 1.05663 -3.40167 0
M  V30 51931 O 4940.78 1.85941 -5.13895 0
M  V30 51932 H 4937.87 0.314547 -0.764846 0
M  V30 51933 H 4940.42 -0.108244 -1.69354 0
M  V30 51934 H 4939.19 0.082837 -3.91212 0
M  V30 51935 H 4938.81 1.76218 -3.56417 0
M  V30 51936 N 4939.81 1.56368 0.196667 0
M  V30 51937 C 4941.06 1.80799 0.918661 0
M  V30 51938 C 4941.39 0.650709 1.82974 0
M  V30 51939 O 4940.66 -0.348822 1.91346 0
M  V30 51940 C 4940.95 3.15478 1.73625 0
M  V30 51941 C 4940.8 4.41696 0.849995 0
M  V30 51942 C 4942.12 3.46833 2.70914 0
M  V30 51943 H 4939.24 0.657714 0.332538 0
M  V30 51944 H 4941.88 1.89086 0.186119 0
M  V30 51945 H 4940.03 3.08545 2.36077 0
M  V30 51946 H 4941.7 4.60674 0.240297 0
M  V30 51947 H 4939.95 4.33517 0.156633 0
M  V30 51948 H 4940.62 5.32424 1.457 0
M  V30 51949 H 4943.09 3.54056 2.18594 0
M  V30 51950 H 4941.97 4.42192 3.25204 0
M  V30 51951 H 4942.23 2.70248 3.49883 0
M  V30 51952 N 4941.29 -0.464322 1.50605 0
M  V30 51953 C 4942.25 -1.54387 1.69402 0
M  V30 51954 C 4943.25 -1.50564 0.564557 0
M  V30 51955 O 4944.44 -1.53063 0.831699 0
M  V30 51956 C 4941.57 -2.94004 1.72553 0
M  V30 51957 H 4942.77 -1.39035 2.65724 0
M  V30 51958 H 4940.32 -0.691171 1.40187 0
M  V30 51959 H 4941.05 -3.14793 0.779491 0
M  V30 51960 H 4940.84 -2.98186 2.54613 0
M  V30 51961 H 4942.33 -3.72369 1.89028 0
M  V30 51962 N 4942.77 -1.40296 -0.717964 0
M  V30 51963 C 4943.71 -1.40543 -1.85339 0
M  V30 51964 C 4944.71 -0.286251 -1.66964 0
M  V30 51965 O 4945.91 -0.457166 -1.74098 0
M  V30 51966 H 4942.29 -0.439257 -0.610374 0
M  V30 51967 H 4944.26 -2.36281 -1.82247 0
M  V30 51968 C 4943.01 -1.28256 -3.2318 0
M  V30 51969 H 4942.33 -2.13652 -3.37924 0
M  V30 51970 H 4943.77 -1.32488 -4.02769 0
M  V30 51971 C 4942.23 0.00743186 -3.36899 0
M  V30 51972 O 4942.76 0.971254 -3.89781 0
M  V30 51973 N 4940.97 0.0761458 -2.905 0
M  V30 51974 H 4940.51 -0.708906 -2.47654 0
M  V30 51975 H 4940.47 0.93874 -3.00058 0
M  V30 51976 N 4944.24 0.949938 -1.25754 0
M  V30 51977 C 4945.66 1.50985 -1.0982 0
M  V30 51978 C 4946.01 1.93498 0.324488 0
M  V30 51979 O 4945.13 1.79072 1.215 0
M  V30 51980 C 4945.73 2.74387 -1.98739 0
M  V30 51981 C 4944.29 3.26675 -1.86977 0
M  V30 51982 C 4943.43 1.99491 -1.9261 0
M  V30 51983 H 4946.38 0.766338 -1.38971 0
M  V30 51984 H 4946.4 3.48378 -1.53013 0
M  V30 51985 H 4945.92 2.43414 -3.02277 0
M  V30 51986 H 4944.02 3.62458 -0.863407 0
M  V30 51987 H 4944.13 3.94374 -2.72041 0
M  V30 51988 H 4942.49 2.15001 -1.36553 0
M  V30 51989 H 4943.28 1.70861 -2.97761 0
M  V30 51990 N 4945.72 1.07416 1.15324 0
M  V30 51991 C 4946.95 0.818923 1.90548 0
M  V30 51992 C 4947.37 -0.622132 1.77514 0
M  V30 51993 O 4946.73 -1.43481 1.10829 0
M  V30 51994 C 4946.78 1.23279 3.38873 0
M  V30 51995 O 4945.88 0.37849 4.10659 0
M  V30 51996 H 4945.22 0.298291 0.593227 0
M  V30 51997 H 4947.75 1.43294 1.46041 0
M  V30 51998 H 4947.76 1.20926 3.89668 0
M  V30 51999 H 4946.44 2.28238 3.47678 0
M  V30 52000 H 4945.02 0.464567 3.69995 0
M  V30 52001 N 4947.2 -1.32174 0.858357 0
M  V30 52002 C 4948.43 -2.01311 0.477652 0
M  V30 52003 C 4948.84 -1.64493 -0.926679 0
M  V30 52004 O 4948.2 -0.868152 -1.60528 0
M  V30 52005 C 4948.25 -3.56291 0.611462 0
M  V30 52006 O 4947.97 -3.91787 1.96048 0
M  V30 52007 C 4949.47 -4.42702 0.230248 0
M  V30 52008 H 4946.69 -0.644316 0.187345 0
M  V30 52009 H 4949.24 -1.6867 1.15632 0
M  V30 52010 H 4947.39 -3.87395 -0.0195132 0
M  V30 52011 H 4947.81 -4.86506 1.9599 0
M  V30 52012 H 4949.28 -5.50726 0.374867 0
M  V30 52013 H 4949.76 -4.31293 -0.829628 0
M  V30 52014 H 4950.36 -4.16994 0.836448 0
M  V30 52015 N 4948.68 -0.616653 -1.45035 0
M  V30 52016 C 4950.09 -0.199424 -1.85632 0
M  V30 52017 C 4950.44 1.24583 -1.5157 0
M  V30 52018 O 4949.57 1.94591 -0.946748 0
M  V30 52019 C 4950.16 -0.355152 -3.36933 0
M  V30 52020 C 4948.72 0.00745516 -3.76399 0
M  V30 52021 C 4947.87 -0.675351 -2.6895 0
M  V30 52022 H 4950.82 -0.822756 -1.35707 0
M  V30 52023 H 4950.84 0.410068 -3.78284 0
M  V30 52024 H 4950.35 -1.40712 -3.61693 0
M  V30 52025 H 4948.45 1.05825 -3.57256 0
M  V30 52026 H 4948.56 -0.392514 -4.77489 0
M  V30 52027 H 4946.93 -0.112081 -2.54453 0
M  V30 52028 H 4947.71 -1.72963 -2.96545 0
M  V30 52029 N 4950.16 1.53519 -0.356339 0
M  V30 52030 C 4951.12 2.24072 0.482103 0
M  V30 52031 C 4952.12 1.24534 1.01724 0
M  V30 52032 O 4953.31 1.4888 0.904461 0
M  V30 52033 C 4950.44 2.97031 1.67289 0
M  V30 52034 H 4951.63 2.99595 -0.135136 0
M  V30 52035 H 4949.19 1.55927 -0.107879 0
M  V30 52036 H 4949.92 2.25727 2.32847 0
M  V30 52037 H 4949.71 3.70055 1.29623 0
M  V30 52038 H 4951.2 3.50691 2.26728 0
M  V30 52039 N 4951.63 0.0852704 1.57369 0
M  V30 52040 C 4952.86 -0.588536 1.9804 0
M  V30 52041 C 4953.27 -1.62866 0.962874 0
M  V30 52042 O 4952.62 -1.83611 -0.0570695 0
M  V30 52043 C 4952.68 -1.30292 3.35059 0
M  V30 52044 C 4952.34 -0.414696 4.55115 0
M  V30 52045 C 4953.34 0.333194 5.18831 0
M  V30 52046 C 4951.02 -0.335628 5.01177 0
M  V30 52047 C 4953.02 1.14823 6.26972 0
M  V30 52048 C 4950.7 0.483071 6.09188 0
M  V30 52049 C 4951.7 1.22366 6.71949 0
M  V30 52050 O 4951.39 2.02883 7.77878 0
M  V30 52051 H 4951.12 -0.163226 0.655998 0
M  V30 52052 H 4953.68 0.158272 2.04789 0
M  V30 52053 H 4951.91 -2.09609 3.24963 0
M  V30 52054 H 4953.6 -1.87028 3.60243 0
M  V30 52055 H 4954.36 0.281781 4.84181 0
M  V30 52056 H 4950.24 -0.90171 4.52095 0
M  V30 52057 H 4953.78 1.72678 6.75891 0
M  V30 52058 H 4949.68 0.535999 6.43271 0
M  V30 52059 H 4950.45 1.95459 7.94819 0
M  V30 52060 N 4953.11 -1.5647 -0.188372 0
M  V30 52061 C 4954.34 -1.85134 -0.923738 0
M  V30 52062 C 4954.76 -0.668599 -1.76565 0
M  V30 52063 O 4954.11 0.362599 -1.78862 0
M  V30 52064 C 4954.16 -3.12667 -1.81442 0
M  V30 52065 O 4953.89 -4.26382 -1.0065 0
M  V30 52066 C 4955.39 -3.54557 -2.6609 0
M  V30 52067 H 4952.61 -0.614634 -0.269196 0
M  V30 52068 H 4955.15 -2.03582 -0.1936 0
M  V30 52069 H 4953.31 -2.96097 -2.4981 0
M  V30 52070 H 4953.72 -4.99047 -1.61407 0
M  V30 52071 H 4955.19 -4.46742 -3.24231 0
M  V30 52072 H 4955.67 -2.77865 -3.40129 0
M  V30 52073 H 4956.28 -3.73681 -2.03082 0
M  V30 52074 N 4954.59 0.456329 -1.50849 0
M  V30 52075 C 4955.84 1.2073 -1.62575 0
M  V30 52076 C 4956.17 1.91629 -0.332971 0
M  V30 52077 O 4955.42 1.83432 0.681994 0
M  V30 52078 C 4955.72 2.26326 -2.76606 0
M  V30 52079 C 4955.39 1.72575 -4.16568 0
M  V30 52080 C 4954.05 1.57638 -4.54647 0
M  V30 52081 C 4956.4 1.32859 -5.03982 0
M  V30 52082 C 4953.73 1.0143 -5.77866 0
M  V30 52083 C 4956.08 0.780879 -6.27762 0
M  V30 52084 C 4954.74 0.618254 -6.64631 0
M  V30 52085 H 4954.01 0.441782 -0.594903 0
M  V30 52086 H 4956.66 0.501104 -1.84827 0
M  V30 52087 H 4954.97 3.02911 -2.485 0
M  V30 52088 H 4956.66 2.84217 -2.82881 0
M  V30 52089 H 4953.25 1.85173 -3.86534 0
M  V30 52090 H 4957.44 1.43228 -4.75184 0
M  V30 52091 H 4952.69 0.875896 -6.05093 0
M  V30 52092 H 4956.87 0.464539 -6.94849 0
M  V30 52093 H 4954.49 0.180571 -7.59986 0
M  V30 52094 N 4956.07 1.40675 0.710514 0
M  V30 52095 C 4957.3 1.42552 1.49955 0
M  V30 52096 C 4957.71 0.0266148 1.88781 0
M  V30 52097 O 4957.07 -0.950639 1.55785 0
M  V30 52098 C 4957.12 2.32081 2.77165 0
M  V30 52099 O 4956.84 3.66527 2.39979 0
M  V30 52100 C 4958.34 2.42604 3.71023 0
M  V30 52101 H 4955.56 0.486042 0.462606 0
M  V30 52102 H 4958.11 1.84786 0.876037 0
M  V30 52103 H 4956.26 1.93196 3.35789 0
M  V30 52104 H 4956.68 4.14126 3.21869 0
M  V30 52105 H 4958.15 3.09445 4.57108 0
M  V30 52106 H 4958.63 1.45265 4.14481 0
M  V30 52107 H 4959.23 2.82062 3.18309 0
M  V30 52108 N 4957.55 -0.943255 1.26256 0
M  V30 52109 C 4958.78 -1.72363 1.14449 0
M  V30 52110 C 4959.19 -1.86393 -0.300506 0
M  V30 52111 O 4958.55 -1.36982 -1.20591 0
M  V30 52112 C 4958.6 -3.13149 1.80611 0
M  V30 52113 O 4958.32 -2.99792 3.19463 0
M  V30 52114 C 4959.82 -4.07411 1.74731 0
M  V30 52115 H 4957.04 -0.539744 0.398645 0
M  V30 52116 H 4959.58 -1.18262 1.66836 0
M  V30 52117 H 4957.74 -3.64158 1.32166 0
M  V30 52118 H 4958.15 -3.88684 3.52172 0
M  V30 52119 H 4959.63 -5.03765 2.25665 0
M  V30 52120 H 4960.1 -4.33367 0.713396 0
M  V30 52121 H 4960.71 -3.62322 2.22717 0
M  V30 52122 N 4959.03 -1.08026 -1.14753 0
M  V30 52123 C 4960.27 -0.80877 -1.85975 0
M  V30 52124 C 4960.6 0.6637 -1.82507 0
M  V30 52125 O 4959.88 1.48761 -1.25301 0
M  V30 52126 C 4960.16 -1.32635 -3.34783 0
M  V30 52127 C 4960.02 -2.86387 -3.46846 0
M  V30 52128 C 4961.33 -0.948442 -4.29759 0
M  V30 52129 H 4958.45 -0.295268 -0.675267 0
M  V30 52130 H 4961.1 -1.33921 -1.34778 0
M  V30 52131 H 4959.25 -0.875135 -3.78515 0
M  V30 52132 H 4960.92 -3.3985 -3.11929 0
M  V30 52133 H 4959.16 -3.24242 -2.88183 0
M  V30 52134 H 4959.83 -3.17674 -4.51428 0
M  V30 52135 H 4962.31 -1.33735 -3.94023 0
M  V30 52136 H 4961.18 -1.33783 -5.32347 0
M  V30 52137 H 4961.44 0.144939 -4.41862 0
M  V30 52138 N 4960.5 1.31717 -0.865354 0
M  V30 52139 C 4961.45 2.28629 -0.315817 0
M  V30 52140 C 4962.42 1.55526 0.583159 0
M  V30 52141 O 4963.61 1.83696 0.515786 0
M  V30 52142 C 4960.75 3.41736 0.480653 0
M  V30 52143 C 4959.86 4.29699 -0.445318 0
M  V30 52144 C 4958.99 5.29946 0.364826 0
M  V30 52145 C 4958.03 6.09553 -0.557866 0
M  V30 52146 N 4957.17 7.01768 0.215747 0
M  V30 52147 H 4962.01 2.75022 -1.14746 0
M  V30 52148 H 4959.55 1.353 -0.577257 0
M  V30 52149 H 4961.5 4.06048 0.958163 0
M  V30 52150 H 4960.13 2.96465 1.27703 0
M  V30 52151 H 4959.19 3.65872 -1.04126 0
M  V30 52152 H 4960.5 4.85291 -1.15301 0
M  V30 52153 H 4959.65 5.99912 0.905044 0
M  V30 52154 H 4958.39 4.74998 1.10583 0
M  V30 52155 H 4957.4 5.38481 -1.10988 0
M  V30 52156 H 4958.62 6.66587 -1.29765 0
M  V30 52157 H 4956.57 6.49235 0.93965 0
M  V30 52158 H 4956.48 7.54761 -0.432697 0
M  V30 52159 H 4957.75 7.76005 0.737345 0
M  V30 52160 N 4961.98 0.624336 1.44706 0
M  V30 52161 C 4963.39 0.209266 1.85523 0
M  V30 52162 C 4963.74 -1.23777 1.52229 0
M  V30 52163 O 4962.87 -1.94086 0.957055 0
M  V30 52164 C 4963.46 0.373015 3.3674 0
M  V30 52165 C 4962.02 0.0125063 3.76398 0
M  V30 52166 C 4961.17 0.689604 2.68588 0
M  V30 52167 H 4964.12 0.829941 1.35269 0
M  V30 52168 H 4964.14 -0.390001 3.78496 0
M  V30 52169 H 4963.65 1.42628 3.60942 0
M  V30 52170 H 4961.75 -1.03928 3.57812 0
M  V30 52171 H 4961.87 0.417831 4.77275 0
M  V30 52172 H 4960.23 0.125574 2.5439 0
M  V30 52173 H 4961.01 1.74533 2.95623 0
M  V30 52174 N 4963.46 -1.53328 0.364476 0
M  V30 52175 C 4964.71 -2.00842 -0.225118 0
M  V30 52176 C 4965.03 -1.2535 -1.49373 0
M  V30 52177 O 4964.3 -0.366464 -1.92442 0
M  V30 52178 H 4962.88 -0.742013 -0.0861766 0
M  V30 52179 H 4965.54 -1.88628 0.490455 0
M  V30 52180 H 4964.64 -3.08797 -0.452879 0
M  V30 52181 N 4964.94 -0.0936148 -1.57322 0
M  V30 52182 C 4965.9 0.851352 -2.12802 0
M  V30 52183 C 4966.9 1.21183 -1.05694 0
M  V30 52184 O 4968.09 1.14151 -1.31587 0
M  V30 52185 C 4965.22 2.1477 -2.64739 0
M  V30 52186 H 4966.42 0.369628 -2.97613 0
M  V30 52187 H 4963.97 0.155363 -1.55526 0
M  V30 52188 H 4964.7 2.67431 -1.83443 0
M  V30 52189 H 4964.49 1.89895 -3.43049 0
M  V30 52190 H 4965.98 2.82373 -3.07661 0
M  V30 52191 N 4966.42 1.56568 0.180071 0
M  V30 52192 C 4967.38 1.94857 1.2068 0
M  V30 52193 C 4968.38 0.831261 1.37647 0
M  V30 52194 O 4969.57 1.09845 1.35202 0
M  V30 52195 C 4966.7 2.23574 2.57347 0
M  V30 52196 H 4967.89 2.86725 0.879124 0
M  V30 52197 H 4965.45 1.5049 0.422184 0
M  V30 52198 H 4966.18 1.34391 2.95143 0
M  V30 52199 H 4965.97 3.05007 2.464 0
M  V30 52200 H 4967.46 2.54149 3.31358 0
M  V30 52201 N 4967.89 -0.448323 1.51089 0
M  V30 52202 C 4969.14 -1.19866 1.63213 0
M  V30 52203 C 4969.47 -1.91449 0.343129 0
M  V30 52204 O 4968.72 -1.83791 -0.672256 0
M  V30 52205 C 4969.02 -2.24856 2.77803 0
M  V30 52206 C 4968.69 -1.70364 4.17477 0
M  V30 52207 C 4967.35 -1.55225 4.55476 0
M  V30 52208 C 4969.7 -1.30185 5.04679 0
M  V30 52209 C 4967.03 -0.983641 5.78396 0
M  V30 52210 C 4969.38 -0.747577 6.28167 0
M  V30 52211 C 4968.05 -0.582999 6.64949 0
M  V30 52212 H 4967.32 -0.438621 0.597238 0
M  V30 52213 H 4969.96 -0.491295 1.85091 0
M  V30 52214 H 4968.27 -3.01589 2.50103 0
M  V30 52215 H 4969.97 -2.82713 2.84384 0
M  V30 52216 H 4966.56 -1.83121 3.87511 0
M  V30 52217 H 4970.74 -1.40706 4.75936 0
M  V30 52218 H 4966 -0.843794 6.05549 0
M  V30 52219 H 4970.17 -0.427683 6.95085 0
M  V30 52220 H 4967.8 -0.140265 7.60071 0
M  V30 52221 N 4969.37 -1.4105 -0.703043 0
M  V30 52222 C 4970.6 -1.43542 -1.49701 0
M  V30 52223 C 4971.02 -0.0402514 -1.88057 0
M  V30 52224 O 4970.38 0.954731 -1.54125 0
M  V30 52225 C 4970.43 -2.3434 -2.74075 0
M  V30 52226 O 4969.53 -1.79529 -3.71272 0
M  V30 52227 H 4968.87 -0.48747 -0.450854 0
M  V30 52228 H 4971.4 -1.85425 -0.864795 0
M  V30 52229 H 4971.41 -2.49958 -3.22467 0
M  V30 52230 H 4970.09 -3.35716 -2.45494 0
M  V30 52231 H 4968.67 -1.73321 -3.30173 0
M  V30 52232 N 4970.85 0.936546 -1.26754 0
M  V30 52233 C 4972.1 1.68576 -1.12738 0
M  V30 52234 C 4972.43 1.91416 0.327678 0
M  V30 52235 O 4971.7 1.49816 1.24038 0
M  V30 52236 C 4971.99 3.05772 -1.90198 0
M  V30 52237 C 4971.84 2.9023 -3.43638 0
M  V30 52238 C 4973.16 4.05964 -1.69946 0
M  V30 52239 H 4970.28 0.611805 -0.41093 0
M  V30 52240 H 4972.92 1.08742 -1.55805 0
M  V30 52241 H 4971.07 3.56848 -1.53596 0
M  V30 52242 H 4972.74 2.4634 -3.90018 0
M  V30 52243 H 4970.99 2.25757 -3.70427 0
M  V30 52244 H 4971.66 3.87558 -3.93068 0
M  V30 52245 H 4974.13 3.63866 -2.01843 0
M  V30 52246 H 4973.01 4.99966 -2.26551 0
M  V30 52247 H 4973.27 4.37367 -0.645174 0
M  V30 52248 N 4972.33 1.08633 1.14178 0
M  V30 52249 C 4973.26 0.740081 2.21461 0
M  V30 52250 C 4974.24 -0.278532 1.67804 0
M  V30 52251 O 4975.42 -0.148393 1.93632 0
M  V30 52252 C 4972.55 0.151074 3.46971 0
M  V30 52253 C 4971.51 1.09829 4.13668 0
M  V30 52254 C 4970.83 0.371388 5.33409 0
M  V30 52255 C 4972.13 2.43738 4.61941 0
M  V30 52256 H 4973.83 1.63706 2.50681 0
M  V30 52257 H 4971.37 0.788568 1.20489 0
M  V30 52258 H 4973.33 -0.103177 4.21274 0
M  V30 52259 H 4972.05 -0.781053 3.17123 0
M  V30 52260 H 4970.71 1.33768 3.41323 0
M  V30 52261 H 4970.36 -0.564616 4.99821 0
M  V30 52262 H 4970.06 1.00288 5.78979 0
M  V30 52263 H 4971.58 0.125245 6.10472 0
M  V30 52264 H 4973 2.24052 5.27706 0
M  V30 52265 H 4971.39 3.026 5.18221 0
M  V30 52266 H 4972.46 3.05095 3.76888 0
M  V30 52267 N 4973.81 -1.31256 0.872327 0
M  V30 52268 C 4974.77 -2.26742 0.334736 0
M  V30 52269 C 4975.77 -1.52309 -0.515628 0
M  V30 52270 O 4976.96 -1.71149 -0.324595 0
M  V30 52271 C 4974.09 -3.36843 -0.524363 0
M  V30 52272 H 4975.28 -2.75808 1.17772 0
M  V30 52273 H 4972.84 -1.42229 0.648114 0
M  V30 52274 H 4973.57 -2.93074 -1.38845 0
M  V30 52275 H 4973.36 -3.92009 0.0845677 0
M  V30 52276 H 4974.85 -4.07947 -0.892695 0
M  V30 52277 N 4975.28 -0.632002 -1.44373 0
M  V30 52278 C 4976.52 -0.140161 -2.03919 0
M  V30 52279 C 4976.89 1.21529 -1.48643 0
M  V30 52280 O 4978.09 1.79929 -1.99697 0
M  V30 52281 C 4976.36 -0.1273 -3.57173 0
M  V30 52282 S 4977.92 0.299792 -4.37775 0
M  V30 52283 H 4974.74 -0.061514 -0.708334 0
M  V30 52284 H 4977.34 -0.835586 -1.76743 0
M  V30 52285 H 4976.04 -1.1169 -3.94909 0
M  V30 52286 H 4975.57 0.589345 -3.88961 0
M  V30 52287 H 4977.59 1.54379 -4.71573 0
M  V30 52288 N 4976.76 1.53132 -0.372602 0
M  V30 52289 C 4977.99 2.05477 0.21513 0
M  V30 52290 C 4978.4 1.24539 1.42431 0
M  V30 52291 O 4977.74 0.280834 1.81541 0
M  V30 52292 C 4977.81 3.53278 0.665944 0
M  V30 52293 C 4977.47 4.54996 -0.427502 0
M  V30 52294 C 4978.47 5.03907 -1.27961 0
M  V30 52295 C 4976.15 4.98826 -0.589754 0
M  V30 52296 C 4978.15 5.95255 -2.27926 0
M  V30 52297 C 4975.83 5.89978 -1.59275 0
M  V30 52298 C 4976.83 6.38084 -2.43594 0
M  V30 52299 O 4976.52 7.27439 -3.42182 0
M  V30 52300 H 4976.25 0.674811 0.0400753 0
M  V30 52301 H 4978.8 1.98407 -0.531382 0
M  V30 52302 H 4977.03 3.57909 1.46417 0
M  V30 52303 H 4978.72 3.88446 1.17746 0
M  V30 52304 H 4979.49 4.70788 -1.16549 0
M  V30 52305 H 4975.37 4.60965 0.0567836 0
M  V30 52306 H 4978.91 6.32726 -2.93775 0
M  V30 52307 H 4974.81 6.22512 -1.70733 0
M  V30 52308 H 4975.58 7.45455 -3.37993 0
M  V30 52309 N 4978.24 0.101957 1.5727 0
M  V30 52310 C 4979.19 -0.871958 2.15638 0
M  V30 52311 C 4980.18 -1.28738 1.10104 0
M  V30 52312 O 4981.39 -1.26111 1.28437 0
M  V30 52313 H 4977.76 -0.299245 0.689896 0
M  V30 52314 H 4979.73 -0.355033 2.9628 0
M  V30 52315 C 4978.48 -2.11877 2.75687 0
M  V30 52316 H 4977.81 -1.80801 3.56583 0
M  V30 52317 H 4979.25 -2.78065 3.20087 0
M  V30 52318 C 4977.71 -2.89733 1.7192 0
M  V30 52319 O 4978.24 -3.84518 1.16227 0
M  V30 52320 N 4976.44 -2.53402 1.42253 0
M  V30 52321 H 4975.99 -1.76392 1.87733 0
M  V30 52322 H 4975.95 -3.05793 0.730636 0
M  V30 52323 N 4979.72 -1.56661 -0.171765 0
M  V30 52324 C 4980.97 -1.81609 -0.88671 0
M  V30 52325 C 4981.29 -0.678882 -1.82801 0
M  V30 52326 O 4980.56 0.301286 -1.93569 0
M  V30 52327 H 4979.14 -0.669945 -0.330427 0
M  V30 52328 H 4981.8 -1.94142 -0.171689 0
M  V30 52329 H 4980.9 -2.75639 -1.46388 0
M  V30 52330 N 4981.2 0.440304 -1.51324 0
M  V30 52331 C 4982.61 0.776551 -1.39434 0
M  V30 52332 C 4982.81 1.95837 -0.474365 0
M  V30 52333 O 4981.87 2.52399 0.0715804 0
M  V30 52334 C 4983.18 1.05971 -2.81408 0
M  V30 52335 C 4984.73 1.16432 -2.90538 0
M  V30 52336 C 4985.2 1.48043 -4.33414 0
M  V30 52337 N 4986.7 1.54973 -4.36506 0
M  V30 52338 C 4987.43 1.80998 -5.44084 0
M  V30 52339 N 4986.93 2.04835 -6.61827 0
M  V30 52340 N 4988.72 1.82755 -5.31561 0
M  V30 52341 H 4980.87 -0.33808 -2.09692 0
M  V30 52342 H 4983.13 -0.0888404 -0.943828 0
M  V30 52343 H 4982.84 0.26405 -3.50707 0
M  V30 52344 H 4982.71 1.98811 -3.20553 0
M  V30 52345 H 4985.1 1.95061 -2.21439 0
M  V30 52346 H 4985.18 0.214999 -2.54895 0
M  V30 52347 H 4984.83 0.699428 -5.03061 0
M  V30 52348 H 4984.76 2.44176 -4.66568 0
M  V30 52349 H 4987.25 1.38467 -3.51618 0
M  V30 52350 H 4987.56 2.24054 -7.39608 0
M  V30 52351 H 4985.9 2.02163 -6.64947 0
M  V30 52352 H 4989.1 1.6365 -4.38562 0
M  V30 52353 H 4989.27 2.027 -6.15481 0
M  V30 52354 N 4982.68 1.41421 0.695553 0
M  V30 52355 C 4984.09 1.3634 1.27548 0
M  V30 52356 C 4984.44 0.0465026 1.96145 0
M  V30 52357 O 4983.56 -0.855234 1.98783 0
M  V30 52358 C 4984.16 2.46949 2.31952 0
M  V30 52359 C 4982.72 2.45266 2.8552 0
M  V30 52360 C 4981.86 2.26796 1.59558 0
M  V30 52361 H 4984.81 1.50936 0.490309 0
M  V30 52362 H 4984.84 2.16008 3.13242 0
M  V30 52363 H 4984.35 3.42781 1.81996 0
M  V30 52364 H 4982.45 1.53191 3.39652 0
M  V30 52365 H 4982.56 3.41577 3.35949 0
M  V30 52366 H 4980.93 1.74674 1.85368 0
M  V30 52367 H 4981.71 3.24655 1.11599 0
M  V30 52368 N 4984.15 -0.929811 1.27249 0
M  V30 52369 C 4985.38 -1.7114 1.16271 0
M  V30 52370 C 4985.8 -1.86701 -0.28072 0
M  V30 52371 O 4985.15 -1.38253 -1.19131 0
M  V30 52372 C 4985.2 -3.11215 1.83922 0
M  V30 52373 O 4984.93 -2.96386 3.22625 0
M  V30 52374 C 4986.43 -4.05535 1.79042 0
M  V30 52375 H 4983.65 -0.535485 0.404347 0
M  V30 52376 H 4986.19 -1.16486 1.68081 0
M  V30 52377 H 4984.35 -3.62735 1.36021 0
M  V30 52378 H 4984.76 -3.84927 3.56274 0
M  V30 52379 H 4986.23 -5.01343 2.30995 0
M  V30 52380 H 4986.71 -4.32586 0.75932 0
M  V30 52381 H 4987.32 -3.59939 2.26547 0
M  V30 52382 N 4985.63 -1.09237 -1.13601 0
M  V30 52383 C 4986.88 -0.82559 -1.84468 0
M  V30 52384 C 4987.2 0.650637 -1.83825 0
M  V30 52385 O 4986.47 1.472 -1.29264 0
M  V30 52386 H 4985.05 -0.302424 -0.683044 0
M  V30 52387 H 4987.71 -1.3801 -1.3762 0
M  V30 52388 H 4986.81 -1.17737 -2.8904 0
M  V30 52389 N 4987.11 1.30792 -0.879276 0
M  V30 52390 C 4988.34 2.00526 -0.509619 0
M  V30 52391 C 4988.75 1.65947 0.900392 0
M  V30 52392 O 4988.11 0.893581 1.59127 0
M  V30 52393 C 4988.16 3.55273 -0.668068 0
M  V30 52394 O 4987.88 3.88618 -2.02256 0
M  V30 52395 C 4989.38 4.42279 -0.300649 0
M  V30 52396 H 4986.6 0.641254 -0.197571 0
M  V30 52397 H 4989.15 1.66809 -1.18301 0
M  V30 52398 H 4987.3 3.87377 -0.0421205 0
M  V30 52399 H 4987.72 4.83326 -2.03705 0
M  V30 52400 H 4989.19 5.5006 -0.462435 0
M  V30 52401 H 4989.67 4.32558 0.760908 0
M  V30 52402 H 4990.27 4.1561 -0.902683 0
M  V30 52403 N 4988.59 0.639649 1.44036 0
M  V30 52404 C 4989.83 0.147551 2.01962 0
M  V30 52405 C 4990.16 -1.23367 1.50369 0
M  V30 52406 O 4989.42 -1.83448 0.681565 0
M  V30 52407 C 4989.72 0.0926604 3.5728 0
M  V30 52408 C 4989.38 1.4138 4.28162 0
M  V30 52409 C 4988.04 1.77561 4.47242 0
M  V30 52410 C 4990.4 2.28546 4.68419 0
M  V30 52411 C 4987.72 3.00601 5.03841 0
M  V30 52412 C 4990.08 3.50865 5.26381 0
M  V30 52413 C 4988.74 3.87259 5.43679 0
M  V30 52414 H 4988.01 0.0539926 0.73903 0
M  V30 52415 H 4990.66 0.82766 1.72691 0
M  V30 52416 H 4988.96 -0.670852 3.86014 0
M  V30 52417 H 4990.66 -0.30475 3.9984 0
M  V30 52418 H 4987.25 1.12225 4.13647 0
M  V30 52419 H 4991.43 2.01886 4.53382 0
M  V30 52420 H 4986.69 3.28864 5.1542 0
M  V30 52421 H 4990.86 4.18635 5.56523 0
M  V30 52422 H 4988.49 4.8268 5.87302 0
M  V30 52423 N 4990.07 -1.52932 0.380717 0
M  V30 52424 C 4991.29 -2.05887 -0.204526 0
M  V30 52425 C 4991.71 -1.2531 -1.41219 0
M  V30 52426 O 4991.07 -0.297567 -1.80058 0
M  V30 52427 C 4991.12 -3.56766 -0.583124 0
M  V30 52428 O 4990.84 -4.3429 0.576551 0
M  V30 52429 C 4992.34 -4.26034 -1.22515 0
M  V30 52430 H 4989.56 -0.670194 -0.0328756 0
M  V30 52431 H 4992.1 -1.97146 0.543466 0
M  V30 52432 H 4990.26 -3.65607 -1.28102 0
M  V30 52433 H 4990.67 -5.23818 0.267303 0
M  V30 52434 H 4992.15 -5.32873 -1.44049 0
M  V30 52435 H 4992.62 -3.80706 -2.18997 0
M  V30 52436 H 4993.23 -4.21487 -0.568259 0
M  V30 52437 N 4991.54 -0.110296 -1.57214 0
M  V30 52438 C 4992.79 0.550616 -1.95182 0
M  V30 52439 C 4993.12 1.66882 -0.99318 0
M  V30 52440 O 4992.4 1.94479 -0.0288591 0
M  V30 52441 C 4992.68 1.09151 -3.43159 0
M  V30 52442 C 4992.53 -0.022678 -4.49794 0
M  V30 52443 C 4993.85 1.98514 -3.92785 0
M  V30 52444 H 4990.97 0.198681 -0.709715 0
M  V30 52445 H 4993.61 -0.18409 -1.89106 0
M  V30 52446 H 4991.76 1.71763 -3.48468 0
M  V30 52447 H 4993.44 -0.657604 -4.56589 0
M  V30 52448 H 4991.68 -0.687019 -4.28325 0
M  V30 52449 H 4992.35 0.396867 -5.50571 0
M  V30 52450 H 4994.83 1.45786 -3.89725 0
M  V30 52451 H 4993.7 2.33281 -4.96861 0
M  V30 52452 H 4993.96 2.90835 -3.32968 0
M  V30 52453 N 4993.02 1.5675 0.163455 0
M  V30 52454 C 4994.27 1.82707 0.880104 0
M  V30 52455 C 4994.6 0.689374 1.81552 0
M  V30 52456 O 4993.88 -0.308156 1.92043 0
M  V30 52457 C 4994.16 3.1909 1.66894 0
M  V30 52458 C 4994.01 4.43399 0.756114 0
M  V30 52459 C 4995.33 3.52502 2.63497 0
M  V30 52460 H 4992.45 0.664619 0.318512 0
M  V30 52461 H 4995.09 1.89438 0.14597 0
M  V30 52462 H 4993.24 3.13483 2.29479 0
M  V30 52463 H 4994.91 4.6108 0.142528 0
M  V30 52464 H 4993.16 4.33752 0.0646419 0
M  V30 52465 H 4993.83 5.35395 1.34374 0
M  V30 52466 H 4996.3 3.58613 2.11035 0
M  V30 52467 H 4995.18 4.4899 3.15751 0
M  V30 52468 H 4995.44 2.77609 3.44072 0
M  V30 52469 N 4994.5 -0.432272 1.51556 0
M  V30 52470 C 4995.43 -1.54519 1.67926 0
M  V30 52471 C 4996.41 -1.53829 0.526818 0
M  V30 52472 O 4997.59 -1.72881 0.751294 0
M  V30 52473 C 4994.72 -2.93094 1.69746 0
M  V30 52474 C 4993.77 -3.11789 2.91016 0
M  V30 52475 S 4994.6 -2.87549 4.51747 0
M  V30 52476 C 4995.76 -4.28396 4.5632 0
M  V30 52477 H 4995.99 -1.40401 2.62059 0
M  V30 52478 H 4993.52 -0.622307 1.41304 0
M  V30 52479 H 4995.48 -3.72968 1.7148 0
M  V30 52480 H 4994.14 -3.04571 0.767812 0
M  V30 52481 H 4993.33 -4.13117 2.88705 0
M  V30 52482 H 4992.94 -2.39747 2.87049 0
M  V30 52483 H 4995.23 -5.21677 4.32272 0
M  V30 52484 H 4996.17 -4.35738 5.58156 0
M  V30 52485 H 4996.58 -4.12287 3.8559 0
M  V30 52486 N 4995.98 -1.41788 -0.688044 0
M  V30 52487 C 4997.39 -1.24422 -0.999564 0
M  V30 52488 C 4997.59 -0.138939 -2.0102 0
M  V30 52489 O 4996.65 0.494196 -2.47617 0
M  V30 52490 C 4997.96 -2.5963 -1.517 0
M  V30 52491 C 4999.51 -2.66875 -1.63545 0
M  V30 52492 C 4999.99 -4.02417 -2.18688 0
M  V30 52493 N 5001.48 -4.04303 -2.26038 0
M  V30 52494 C 5002.21 -5.05987 -2.6975 0
M  V30 52495 N 5001.71 -6.18058 -3.13012 0
M  V30 52496 N 5003.5 -4.93346 -2.69381 0
M  V30 52497 H 4995.65 -2.12392 -0.018668 0
M  V30 52498 H 4997.91 -0.94535 -0.0708341 0
M  V30 52499 H 4997.62 -3.413 -0.848939 0
M  V30 52500 H 4997.49 -2.82637 -2.49793 0
M  V30 52501 H 4999.88 -1.85558 -2.2946 0
M  V30 52502 H 4999.96 -2.4767 -0.63977 0
M  V30 52503 H 4999.61 -4.84185 -1.53385 0
M  V30 52504 H 4999.54 -4.18966 -3.19022 0
M  V30 52505 H 5002.03 -3.2339 -1.95519 0
M  V30 52506 H 5002.34 -6.9151 -3.45013 0
M  V30 52507 H 5000.69 -6.21583 -3.10901 0
M  V30 52508 H 5003.88 -4.04873 -2.34937 0
M  V30 52509 H 5004.05 -5.72728 -3.03128 0
M  V30 52510 N 4997.46 0.92305 -1.2774 0
M  V30 52511 C 4998.87 1.48622 -1.12998 0
M  V30 52512 C 4999.22 1.94143 0.283371 0
M  V30 52513 O 4998.34 1.81609 1.17674 0
M  V30 52514 C 4998.94 2.7011 -2.04514 0
M  V30 52515 C 4997.5 3.22636 -1.93864 0
M  V30 52516 C 4996.64 1.95361 -1.96798 0
M  V30 52517 H 4999.6 0.736688 -1.40565 0
M  V30 52518 H 4999.62 3.45054 -1.60369 0
M  V30 52519 H 4999.13 2.36948 -3.07372 0
M  V30 52520 H 4997.23 3.60545 -0.940095 0
M  V30 52521 H 4997.34 3.88515 -2.80345 0
M  V30 52522 H 4995.71 2.12056 -1.41083 0
M  V30 52523 H 4996.49 1.64506 -3.01318 0
M  V30 52524 N 4998.93 1.09838 1.1302 0
M  V30 52525 C 4999.88 0.73636 2.20637 0
M  V30 52526 C 5000.88 -0.264666 1.6732 0
M  V30 52527 O 5002.08 -0.125682 1.79561 0
M  V30 52528 H 4998.46 0.220161 0.71905 0
M  V30 52529 H 5000.43 1.65303 2.4843 0
M  V30 52530 C 4999.18 0.177666 3.47246 0
M  V30 52531 H 4998.5 0.939146 3.88613 0
M  V30 52532 H 4999.94 -0.0376517 4.23983 0
M  V30 52533 C 4998.4 -1.08813 3.18844 0
M  V30 52534 O 4998.93 -2.17068 3.38001 0
M  V30 52535 N 4997.14 -1.00432 2.72694 0
M  V30 52536 H 4996.68 -0.123292 2.57305 0
M  V30 52537 H 4996.64 -1.85197 2.54066 0
M  V30 52538 N 5000.41 -1.30324 0.8862 0
M  V30 52539 C 5001.64 -1.99962 0.519492 0
M  V30 52540 C 5002.05 -1.66596 -0.896801 0
M  V30 52541 O 5001.39 -0.899942 -1.60146 0
M  V30 52542 C 5001.46 -3.54185 0.615919 0
M  V30 52543 C 5001.12 -4.11071 1.99674 0
M  V30 52544 C 5002.12 -4.26974 2.96629 0
M  V30 52545 C 4999.8 -4.46421 2.30246 0
M  V30 52546 C 5001.8 -4.77442 4.22289 0
M  V30 52547 C 4999.48 -4.96587 3.56152 0
M  V30 52548 C 5000.48 -5.1205 4.51988 0
M  V30 52549 O 5000.17 -5.61133 5.7566 0
M  V30 52550 H 4999.9 -0.645972 0.19924 0
M  V30 52551 H 5002.45 -1.6715 1.19374 0
M  V30 52552 H 5000.68 -3.86528 -0.115312 0
M  V30 52553 H 5002.37 -4.05064 0.260312 0
M  V30 52554 H 5003.14 -3.99965 2.74322 0
M  V30 52555 H 4999.02 -4.33652 1.56419 0
M  V30 52556 H 5002.56 -4.89426 4.97099 0
M  V30 52557 H 4998.46 -5.23032 3.78296 0
M  V30 52558 H 4999.23 -5.79474 5.78059 0
M  V30 52559 N 5001.89 -0.647279 -1.43694 0
M  V30 52560 C 5003.12 -0.165823 -2.06234 0
M  V30 52561 C 5003.53 1.16615 -1.4848 0
M  V30 52562 O 5002.89 1.71868 -0.613822 0
M  V30 52563 C 5002.94 -0.0622921 -3.61446 0
M  V30 52564 O 5002.66 -1.3416 -4.17052 0
M  V30 52565 C 5004.16 0.445947 -4.41051 0
M  V30 52566 H 5001.38 -0.0871391 -0.665318 0
M  V30 52567 H 5003.93 -0.886248 -1.84298 0
M  V30 52568 H 5002.08 0.608659 -3.82589 0
M  V30 52569 H 5002.5 -1.19693 -5.1066 0
M  V30 52570 H 5003.97 0.467357 -5.50018 0
M  V30 52571 H 5004.45 1.47613 -4.13651 0
M  V30 52572 H 5005.05 -0.192308 -4.24865 0
M  V30 52573 N 5003.37 1.52728 -0.388822 0
M  V30 52574 C 5004.62 2.00757 0.194763 0
M  V30 52575 C 5004.93 1.27956 1.47942 0
M  V30 52576 O 5006.14 1.66694 2.14302 0
M  V30 52577 C 5004.59 3.57697 0.397636 0
M  V30 52578 C 5004.2 4.39397 -0.873738 0
M  V30 52579 C 5005.94 4.14016 0.937613 0
M  V30 52580 C 5003.85 5.87936 -0.639169 0
M  V30 52581 H 5002.78 0.750103 0.0765581 0
M  V30 52582 H 5005.43 1.76237 -0.511148 0
M  V30 52583 H 5003.81 3.78464 1.16538 0
M  V30 52584 H 5004.99 4.30397 -1.64607 0
M  V30 52585 H 5003.3 3.94296 -1.33863 0
M  V30 52586 H 5005.9 5.22649 1.12881 0
M  V30 52587 H 5006.24 3.70077 1.90653 0
M  V30 52588 H 5006.78 3.97138 0.229448 0
M  V30 52589 H 5003.52 6.36196 -1.57907 0
M  V30 52590 H 5003.04 5.99726 0.0942322 0
M  V30 52591 H 5004.71 6.46422 -0.273527 0
M  V30 52592 N 5004.85 0.118632 1.57153 0
M  V30 52593 C 5005.79 -0.831713 2.15293 0
M  V30 52594 C 5006.76 -1.26381 1.07783 0
M  V30 52595 O 5007.95 -1.34139 1.35689 0
M  V30 52596 C 5005.09 -2.07654 2.75633 0
M  V30 52597 C 5004.2 -1.69285 3.9745 0
M  V30 52598 C 5003.34 -2.88731 4.45879 0
M  V30 52599 C 5002.38 -2.46599 5.60228 0
M  V30 52600 N 5001.51 -3.58958 6.03401 0
M  V30 52601 H 5006.35 -0.329079 2.96177 0
M  V30 52602 H 5003.89 -0.15074 1.46326 0
M  V30 52603 H 5005.85 -2.8059 3.08748 0
M  V30 52604 H 5004.48 -2.55377 1.9744 0
M  V30 52605 H 5003.53 -0.862244 3.70499 0
M  V30 52606 H 5004.84 -1.34321 4.80374 0
M  V30 52607 H 5004 -3.69892 4.809 0
M  V30 52608 H 5002.73 -3.2692 3.61904 0
M  V30 52609 H 5001.74 -1.63871 5.24811 0
M  V30 52610 H 5002.96 -2.09528 6.45968 0
M  V30 52611 H 5000.91 -3.96822 5.22368 0
M  V30 52612 H 5000.83 -3.27918 6.8118 0
M  V30 52613 H 5002.1 -4.4056 6.43061 0
M  V30 52614 N 5006.32 -1.56835 -0.15514 0
M  V30 52615 C 5007.57 -1.82539 -0.867398 0
M  V30 52616 C 5007.89 -0.698232 -1.82071 0
M  V30 52617 O 5007.16 0.280739 -1.93878 0
M  V30 52618 H 5005.74 -0.673412 -0.323303 0
M  V30 52619 H 5008.41 -1.94313 -0.151088 0
M  V30 52620 H 5007.5 -2.77176 -1.43456 0
M  V30 52621 N 5007.8 0.424229 -1.51783 0
M  V30 52622 C 5009.03 1.19922 -1.69214 0
M  V30 52623 C 5009.45 1.83918 -0.39442 0
M  V30 52624 O 5008.81 1.69373 0.646719 0
M  V30 52625 C 5008.86 2.24927 -2.81851 0
M  V30 52626 O 5007.96 3.30722 -2.46367 0
M  V30 52627 H 5007.3 0.35076 -0.563794 0
M  V30 52628 H 5009.83 0.499331 -1.98413 0
M  V30 52629 H 5009.84 2.69502 -3.06321 0
M  V30 52630 H 5008.52 1.77728 -3.76013 0
M  V30 52631 H 5007.1 2.91532 -2.32516 0
M  V30 52632 N 5009.28 1.4215 0.680515 0
M  V30 52633 C 5010.53 1.42315 1.44058 0
M  V30 52634 C 5010.86 0.0375564 1.94464 0
M  V30 52635 O 5010.11 -0.953124 1.70921 0
M  V30 52636 C 5010.41 2.38954 2.65774 0
M  V30 52637 C 5010.08 3.85463 2.33942 0
M  V30 52638 C 5008.74 4.25372 2.24972 0
M  V30 52639 C 5011.09 4.77902 2.07987 0
M  V30 52640 C 5008.42 5.55708 1.88164 0
M  V30 52641 C 5010.77 6.08574 1.72685 0
M  V30 52642 C 5009.43 6.47488 1.62221 0
M  V30 52643 H 5008.7 0.520767 0.527146 0
M  V30 52644 H 5011.35 1.75052 0.776463 0
M  V30 52645 H 5009.66 1.99523 3.37191 0
M  V30 52646 H 5011.35 2.36348 3.23946 0
M  V30 52647 H 5007.94 3.53863 2.41824 0
M  V30 52648 H 5012.13 4.47862 2.13854 0
M  V30 52649 H 5007.38 5.84724 1.78627 0
M  V30 52650 H 5011.56 6.79693 1.51626 0
M  V30 52651 H 5009.18 7.48392 1.33469 0
M  V30 52652 N 5010.76 -0.916262 1.28228 0
M  V30 52653 C 5011.69 -2.03515 1.14471 0
M  V30 52654 C 5012.67 -1.70045 0.0431441 0
M  V30 52655 O 5013.85 -1.92953 0.219687 0
M  V30 52656 C 5010.98 -3.37886 0.803146 0
M  V30 52657 C 5009.94 -3.85509 1.85921 0
M  V30 52658 C 5009.26 -5.16816 1.37134 0
M  V30 52659 C 5010.56 -4.07644 3.26533 0
M  V30 52660 H 5012.26 -2.15283 2.08072 0
M  V30 52661 H 5009.8 -1.03443 1.00178 0
M  V30 52662 H 5011.76 -4.15651 0.693684 0
M  V30 52663 H 5010.48 -3.26165 -0.168559 0
M  V30 52664 H 5009.14 -3.09946 1.95777 0
M  V30 52665 H 5008.79 -5.01495 0.388766 0
M  V30 52666 H 5008.49 -5.4965 2.07748 0
M  V30 52667 H 5010.01 -5.97139 1.27505 0
M  V30 52668 H 5011.43 -4.75942 3.19613 0
M  V30 52669 H 5009.82 -4.51804 3.94959 0
M  V30 52670 H 5010.89 -3.1254 3.70738 0
M  V30 52671 N 5012.24 -1.10435 -1.12436 0
M  V30 52672 C 5013.48 -0.856583 -1.85586 0
M  V30 52673 C 5013.84 0.606841 -1.82158 0
M  V30 52674 O 5015.04 0.970962 -2.50651 0
M  V30 52675 C 5013.31 -1.38988 -3.29267 0
M  V30 52676 S 5014.87 -1.27754 -4.19791 0
M  V30 52677 H 5011.69 -0.309531 -0.640087 0
M  V30 52678 H 5014.29 -1.4098 -1.35444 0
M  V30 52679 H 5013 -2.44899 -3.29321 0
M  V30 52680 H 5012.53 -0.833247 -3.84474 0
M  V30 52681 H 5014.54 -0.235225 -4.95642 0
M  V30 52682 N 5013.72 1.29852 -0.893099 0
M  V30 52683 C 5014.96 1.95438 -0.514635 0
M  V30 52684 C 5015.28 1.70798 0.940899 0
M  V30 52685 O 5014.55 1.03607 1.6626 0
M  V30 52686 H 5013.13 0.72313 -0.187328 0
M  V30 52687 H 5015.8 1.5823 -1.13795 0
M  V30 52688 H 5014.89 3.04339 -0.691688 0
M  V30 52689 N 5015.19 0.65489 1.43349 0
M  V30 52690 C 5016.42 0.175118 2.06659 0
M  V30 52691 C 5016.84 -1.15099 1.48774 0
M  V30 52692 O 5016.2 -1.71142 0.598339 0
M  V30 52693 C 5016.25 0.0992811 3.60463 0
M  V30 52694 O 5015.35 -0.938028 4.0159 0
M  V30 52695 H 5014.69 0.0956379 0.657076 0
M  V30 52696 H 5017.22 0.898286 1.83826 0
M  V30 52697 H 5017.23 -0.0834886 4.07915 0
M  V30 52698 H 5015.91 1.06733 4.01971 0
M  V30 52699 H 5014.49 -0.727912 3.65726 0
M  V30 52700 N 5016.67 -1.5252 0.396917 0
M  V30 52701 C 5017.91 -2.03584 -0.182507 0
M  V30 52702 C 5018.28 -1.27665 -1.43407 0
M  V30 52703 O 5019.48 -1.68892 -2.09115 0
M  V30 52704 C 5017.75 -3.54726 -0.436394 0
M  V30 52705 S 5019.31 -4.27601 -0.985012 0
M  V30 52706 H 5016.12 -0.709188 -0.0507279 0
M  V30 52707 H 5018.73 -1.87691 0.547021 0
M  V30 52708 H 5017.43 -4.07566 0.481486 0
M  V30 52709 H 5016.96 -3.74839 -1.19413 0
M  V30 52710 H 5018.98 -4.41401 -2.2667 0
M  V30 52711 N 5018.15 -0.126964 -1.57088 0
M  V30 52712 C 5019.4 0.528054 -1.95079 0
M  V30 52713 C 5019.72 1.66705 -1.01166 0
M  V30 52714 O 5018.99 1.95777 -0.0694216 0
M  V30 52715 H 5017.57 0.198061 -0.720264 0
M  V30 52716 H 5020.23 -0.197772 -1.93894 0
M  V30 52717 H 5019.33 0.917403 -2.98312 0
M  V30 52718 N 5019.63 1.56915 0.14682 0
M  V30 52719 C 5020.85 1.87884 0.87832 0
M  V30 52720 C 5021.28 0.716006 1.7394 0
M  V30 52721 O 5020.64 -0.334384 1.7819 0
M  V30 52722 C 5020.68 3.17437 1.71073 0
M  V30 52723 O 5019.79 3.01384 2.81498 0
M  V30 52724 H 5019.13 0.617297 0.244623 0
M  V30 52725 H 5021.66 2.04137 0.137582 0
M  V30 52726 H 5021.67 3.49463 2.1057 0
M  V30 52727 H 5020.34 4.01675 1.07842 0
M  V30 52728 H 5018.92 2.80767 2.45406 0
M  V30 52729 N 5021.11 -0.416173 1.52006 0
M  V30 52730 C 5022.35 -1.16549 1.65964 0
M  V30 52731 C 5022.68 -1.90346 0.384973 0
M  V30 52732 O 5021.96 -1.84476 -0.61634 0
M  V30 52733 C 5022.24 -2.1656 2.87704 0
M  V30 52734 C 5022.1 -1.46707 4.25202 0
M  V30 52735 C 5023.41 -3.1731 3.04962 0
M  V30 52736 H 5020.53 -0.422348 0.60398 0
M  V30 52737 H 5023.18 -0.452076 1.84543 0
M  V30 52738 H 5021.33 -2.77401 2.71994 0
M  V30 52739 H 5023 -0.890401 4.52625 0
M  V30 52740 H 5021.24 -0.769113 4.26927 0
M  V30 52741 H 5021.91 -2.19647 5.06418 0
M  V30 52742 H 5024.39 -2.66541 3.19523 0
M  V30 52743 H 5023.26 -3.8456 3.9167 0
M  V30 52744 H 5023.52 -3.84635 2.17964 0
M  V30 52745 N 5022.58 -1.42509 -0.672966 0
M  V30 52746 C 5023.83 -1.42794 -1.43018 0
M  V30 52747 C 5024.15 -0.0460423 -1.94946 0
M  V30 52748 O 5023.42 0.915704 -1.73181 0
M  V30 52749 H 5022 -0.525676 -0.53073 0
M  V30 52750 H 5024.66 -1.77947 -0.79505 0
M  V30 52751 H 5023.76 -2.1288 -2.2823 0
M  V30 52752 N 5024.06 0.909449 -1.28712 0
M  V30 52753 C 5025.29 1.69023 -1.18806 0
M  V30 52754 C 5025.7 1.8747 0.255264 0
M  V30 52755 O 5025.04 1.40462 1.18389 0
M  V30 52756 C 5025.1 3.10057 -1.81947 0
M  V30 52757 C 5024.77 3.14879 -3.3121 0
M  V30 52758 C 5025.77 2.95753 -4.27581 0
M  V30 52759 C 5023.45 3.37255 -3.72242 0
M  V30 52760 C 5025.44 2.98923 -5.6296 0
M  V30 52761 C 5023.13 3.40056 -5.07745 0
M  V30 52762 C 5024.13 3.20911 -6.02914 0
M  V30 52763 O 5023.82 3.23482 -7.35945 0
M  V30 52764 H 5023.55 0.534999 -0.413222 0
M  V30 52765 H 5026.1 1.14639 -1.70432 0
M  V30 52766 H 5024.33 3.66001 -1.24821 0
M  V30 52767 H 5026.02 3.7018 -1.66499 0
M  V30 52768 H 5026.79 2.78288 -3.97216 0
M  V30 52769 H 5022.67 3.51201 -2.98628 0
M  V30 52770 H 5026.21 2.83897 -6.37219 0
M  V30 52771 H 5022.11 3.57051 -5.37759 0
M  V30 52772 H 5022.88 3.39814 -7.44626 0
M  V30 52773 N 5025.54 1.1103 1.11848 0
M  V30 52774 C 5026.77 0.878884 1.87305 0
M  V30 52775 C 5027.18 -0.571047 1.79957 0
M  V30 52776 O 5026.54 -1.39405 1.17782 0
M  V30 52777 C 5026.59 1.32652 3.36282 0
M  V30 52778 O 5026.31 2.7196 3.43467 0
M  V30 52779 C 5027.81 1.12989 4.28659 0
M  V30 52780 H 5025.03 0.315036 0.592447 0
M  V30 52781 H 5027.58 1.47654 1.41487 0
M  V30 52782 H 5025.73 0.772402 3.79622 0
M  V30 52783 H 5026.15 2.91256 4.362 0
M  V30 52784 H 5027.62 1.49217 5.31449 0
M  V30 52785 H 5028.1 0.0690671 4.39146 0
M  V30 52786 H 5028.7 1.67078 3.91107 0
M  V30 52787 N 5027.02 -1.29376 0.899973 0
M  V30 52788 C 5027.97 -2.27711 0.376323 0
M  V30 52789 C 5028.94 -1.57018 -0.541718 0
M  V30 52790 O 5030.12 -1.84999 -0.466901 0
M  V30 52791 C 5027.26 -3.42891 -0.389879 0
M  V30 52792 C 5026.37 -4.28367 0.559088 0
M  V30 52793 C 5025.51 -5.30727 -0.224192 0
M  V30 52794 C 5024.55 -6.07859 0.719282 0
M  V30 52795 N 5023.68 -7.02094 -0.0296101 0
M  V30 52796 H 5028.52 -2.71883 1.21997 0
M  V30 52797 H 5026.06 -1.33722 0.612926 0
M  V30 52798 H 5028.02 -4.08446 -0.85017 0
M  V30 52799 H 5026.65 -2.99747 -1.19798 0
M  V30 52800 H 5025.7 -3.62982 1.1379 0
M  V30 52801 H 5027.01 -4.82063 1.28127 0
M  V30 52802 H 5026.17 -6.021 -0.74567 0
M  V30 52803 H 5024.91 -4.77762 -0.979506 0
M  V30 52804 H 5023.91 -5.35349 1.25226 0
M  V30 52805 H 5025.14 -6.62912 1.47393 0
M  V30 52806 H 5023.08 -6.51498 -0.767186 0
M  V30 52807 H 5023 -7.53348 0.632656 0
M  V30 52808 H 5024.27 -7.77687 -0.531342 0
M  V30 52809 N 5028.5 -0.662483 -1.43 0
M  V30 52810 C 5029.41 0.0238374 -2.34588 0
M  V30 52811 C 5030.42 0.802201 -1.54404 0
M  V30 52812 O 5031.6 0.747335 -1.87021 0
M  V30 52813 C 5028.66 0.971981 -3.32796 0
M  V30 52814 C 5027.72 0.189522 -4.28881 0
M  V30 52815 C 5026.96 1.0925 -5.22398 0
M  V30 52816 O 5027.18 2.33191 -5.20556 0
M  V30 52817 O 5026.11 0.559926 -5.9929 0
M  V30 52818 H 5029.94 -0.730275 -2.94789 0
M  V30 52819 H 5027.53 -0.422685 -1.43296 0
M  V30 52820 H 5029.41 1.51662 -3.93162 0
M  V30 52821 H 5028.08 1.70616 -2.75085 0
M  V30 52822 H 5026.99 -0.398925 -3.71967 0
M  V30 52823 H 5028.32 -0.505282 -4.896 0
M  V30 52824 N 5029.97 1.52307 -0.404999 0
M  V30 52825 C 5031.22 2.01369 0.171789 0
M  V30 52826 C 5031.54 1.29266 1.45997 0
M  V30 52827 O 5030.81 0.417357 1.91403 0
M  V30 52828 H 5029.39 0.744037 0.0664732 0
M  V30 52829 H 5032.06 1.87261 -0.540294 0
M  V30 52830 H 5031.15 3.09889 0.370848 0
M  V30 52831 N 5031.45 0.135293 1.57018 0
M  V30 52832 C 5032.68 -0.529272 2.00533 0
M  V30 52833 C 5033.1 -1.58387 1.01465 0
M  V30 52834 O 5032.46 -1.81296 -0.0113349 0
M  V30 52835 C 5032.51 -1.11736 3.42852 0
M  V30 52836 O 5031.61 -2.23255 3.46743 0
M  V30 52837 H 5030.95 -0.130646 0.65102 0
M  V30 52838 H 5033.48 0.228575 2.03319 0
M  V30 52839 H 5033.49 -1.44891 3.81406 0
M  V30 52840 H 5032.17 -0.345001 4.14467 0
M  V30 52841 H 5030.75 -1.91417 3.20022 0
M  V30 52842 N 5032.93 -1.5699 -0.138497 0
M  V30 52843 C 5034.18 -1.84084 -0.850926 0
M  V30 52844 C 5034.51 -0.718171 -1.80433 0
M  V30 52845 O 5033.78 0.277565 -1.92509 0
M  V30 52846 C 5034.07 -3.21705 -1.61796 0
M  V30 52847 C 5033.92 -4.44546 -0.685477 0
M  V30 52848 C 5035.24 -3.56649 -2.57855 0
M  V30 52849 H 5032.36 -0.669603 -0.307898 0
M  V30 52850 H 5035 -1.89647 -0.115813 0
M  V30 52851 H 5033.15 -3.17094 -2.24463 0
M  V30 52852 H 5034.82 -4.61248 -0.0691558 0
M  V30 52853 H 5033.07 -4.338 0.00437243 0
M  V30 52854 H 5033.74 -5.37465 -1.25839 0
M  V30 52855 H 5036.21 -3.61925 -2.05303 0
M  V30 52856 H 5035.09 -4.53957 -3.08568 0
M  V30 52857 H 5035.35 -2.83048 -3.39612 0
M  V30 52858 N 5034.41 0.408106 -1.52224 0
M  V30 52859 C 5035.66 1.15206 -1.65561 0
M  V30 52860 C 5035.97 1.91628 -0.392163 0
M  V30 52861 O 5037.18 2.68457 -0.40535 0
M  V30 52862 C 5035.63 2.09681 -2.9251 0
M  V30 52863 C 5035.24 1.3877 -4.25966 0
M  V30 52864 C 5036.98 2.84329 -3.1521 0
M  V30 52865 C 5034.89 2.319 -5.44037 0
M  V30 52866 H 5033.82 0.433755 -0.616744 0
M  V30 52867 H 5036.47 0.416437 -1.78712 0
M  V30 52868 H 5034.85 2.868 -2.7306 0
M  V30 52869 H 5036.03 0.670087 -4.55902 0
M  V30 52870 H 5034.34 0.761597 -4.09376 0
M  V30 52871 H 5036.94 3.54152 -4.006 0
M  V30 52872 H 5037.28 3.47336 -2.29485 0
M  V30 52873 H 5037.82 2.14309 -3.35136 0
M  V30 52874 H 5034.56 1.73538 -6.32111 0
M  V30 52875 H 5034.08 3.01632 -5.18438 0
M  V30 52876 H 5035.75 2.92403 -5.77156 0
M  V30 52877 N 5035.89 1.42864 0.665399 0
M  V30 52878 C 5036.83 1.47325 1.79995 0
M  V30 52879 C 5037.83 0.348021 1.65787 0
M  V30 52880 O 5039.03 0.521466 1.72281 0
M  V30 52881 H 5035.41 0.461608 0.593651 0
M  V30 52882 H 5037.38 2.42882 1.73352 0
M  V30 52883 C 5036.13 1.40163 3.18198 0
M  V30 52884 H 5035.45 2.26047 3.29762 0
M  V30 52885 H 5036.89 1.47345 3.97574 0
M  V30 52886 C 5035.35 0.117611 3.36695 0
M  V30 52887 O 5035.88 -0.82592 3.93118 0
M  V30 52888 N 5034.09 0.0317239 2.90583 0
M  V30 52889 H 5033.63 0.800333 2.44852 0
M  V30 52890 H 5033.59 -0.826729 3.03336 0
M  V30 52891 N 5037.36 -0.902611 1.29192 0
M  V30 52892 C 5038.61 -1.65283 1.16995 0
M  V30 52893 C 5038.94 -1.92486 -0.279165 0
M  V30 52894 O 5038.19 -1.53147 -1.21838 0
M  V30 52895 C 5038.49 -3.01093 1.92555 0
M  V30 52896 C 5038.16 -2.93509 3.42291 0
M  V30 52897 C 5036.82 -2.91148 3.83127 0
M  V30 52898 C 5039.17 -2.82932 4.3772 0
M  V30 52899 C 5036.5 -2.76025 5.17714 0
M  V30 52900 C 5038.85 -2.69348 5.72394 0
M  V30 52901 C 5037.52 -2.65351 6.12491 0
M  V30 52902 H 5036.79 -0.604813 0.428115 0
M  V30 52903 H 5039.43 -1.05078 1.60096 0
M  V30 52904 H 5037.74 -3.65148 1.42036 0
M  V30 52905 H 5039.44 -3.58067 1.80524 0
M  V30 52906 H 5036.03 -2.96148 3.0983 0
M  V30 52907 H 5040.21 -2.83835 4.07126 0
M  V30 52908 H 5035.47 -2.71333 5.47895 0
M  V30 52909 H 5039.64 -2.60134 6.4599 0
M  V30 52910 H 5037.27 -2.5339 7.16727 0
M  V30 52911 N 5038.84 -1.11622 -1.11258 0
M  V30 52912 C 5040.08 -0.876219 -1.84667 0
M  V30 52913 C 5040.45 0.587487 -1.82791 0
M  V30 52914 O 5041.65 0.944323 -2.51666 0
M  V30 52915 C 5039.92 -1.42473 -3.27775 0
M  V30 52916 S 5041.48 -1.322 -4.18412 0
M  V30 52917 H 5038.3 -0.316303 -0.636768 0
M  V30 52918 H 5040.9 -1.42408 -1.33941 0
M  V30 52919 H 5039.6 -2.48378 -3.26705 0
M  V30 52920 H 5039.13 -0.873979 -3.83569 0
M  V30 52921 H 5041.15 -0.287781 -4.95365 0
M  V30 52922 N 5040.32 1.28897 -0.906821 0
M  V30 52923 C 5041.55 1.9911 -0.551238 0
M  V30 52924 C 5041.96 1.68001 0.870184 0
M  V30 52925 O 5041.3 0.925306 1.58694 0
M  V30 52926 C 5041.36 3.5316 -0.672189 0
M  V30 52927 C 5041.03 4.07842 -2.06189 0
M  V30 52928 C 5042.02 4.22201 -3.03384 0
M  V30 52929 C 5039.71 4.42702 -2.37319 0
M  V30 52930 C 5041.7 4.70663 -4.29832 0
M  V30 52931 C 5039.39 4.90858 -3.64007 0
M  V30 52932 C 5040.39 5.04795 -4.60077 0
M  V30 52933 O 5040.08 5.51904 -5.84514 0
M  V30 52934 H 5039.81 0.64272 -0.209491 0
M  V30 52935 H 5042.36 1.65229 -1.22018 0
M  V30 52936 H 5040.59 3.86663 0.0538041 0
M  V30 52937 H 5042.28 4.04599 -0.324721 0
M  V30 52938 H 5043.05 3.95551 -2.80651 0
M  V30 52939 H 5038.93 4.31109 -1.63298 0
M  V30 52940 H 5042.47 4.81456 -5.04823 0
M  V30 52941 H 5038.37 5.16948 -3.86569 0
M  V30 52942 H 5039.14 5.70204 -5.87205 0
M  V30 52943 N 5041.8 0.670057 1.42646 0
M  V30 52944 C 5042.73 -0.0612821 2.28118 0
M  V30 52945 C 5043.71 -0.813365 1.40795 0
M  V30 52946 O 5044.89 -0.809469 1.70235 0
M  V30 52947 C 5042.02 -1.09387 3.2055 0
M  V30 52948 C 5041.07 -0.437915 4.24246 0
M  V30 52949 S 5041.9 0.800994 5.29476 0
M  V30 52950 C 5043.06 -0.230641 6.25475 0
M  V30 52951 H 5043.29 0.663707 2.89797 0
M  V30 52952 H 5040.82 0.459442 1.47406 0
M  V30 52953 H 5042.78 -1.68456 3.74343 0
M  V30 52954 H 5041.44 -1.79128 2.58016 0
M  V30 52955 H 5040.63 -1.2169 4.89089 0
M  V30 52956 H 5040.24 0.079066 3.73916 0
M  V30 52957 H 5042.53 -1.0918 6.68645 0
M  V30 52958 H 5043.47 0.383194 7.07062 0
M  V30 52959 H 5043.88 -0.573993 5.61574 0
M  V30 52960 N 5043.28 -1.5209 0.413071 0
M  V30 52961 C 5044.23 -2.23948 -0.427914 0
M  V30 52962 C 5045.21 -1.25233 -1.01023 0
M  V30 52963 O 5046.4 -1.50451 -0.932391 0
M  V30 52964 C 5043.53 -3.06725 -1.54189 0
M  V30 52965 C 5042.62 -4.12854 -0.970162 0
M  V30 52966 N 5043.01 -5.05644 -0.125433 0
M  V30 52967 C 5041.31 -4.28408 -1.24027 0
M  V30 52968 C 5042.01 -5.81379 0.193081 0
M  V30 52969 N 5040.98 -5.41998 -0.417082 0
M  V30 52970 H 5044.79 -2.93047 0.223731 0
M  V30 52971 H 5042.3 -1.60852 0.223721 0
M  V30 52972 H 5044.3 -3.56761 -2.15701 0
M  V30 52973 H 5042.96 -2.39166 -2.19612 0
M  V30 52974 H 5043.97 -5.17347 0.239177 0
M  V30 52975 H 5040.65 -3.72078 -1.89378 0
M  V30 52976 H 5042.04 -6.66126 0.878996 0
M  V30 52977 N 5044.76 -0.143618 -1.56944 0
M  V30 52978 C 5045.69 0.828278 -2.13711 0
M  V30 52979 C 5046.7 1.21309 -1.08573 0
M  V30 52980 O 5047.89 1.15775 -1.35861 0
M  V30 52981 C 5044.99 2.12239 -2.64212 0
M  V30 52982 C 5044.16 1.90547 -3.93714 0
M  V30 52983 C 5043.22 3.03916 -4.2956 0
M  V30 52984 O 5042.25 2.75754 -4.97944 0
M  V30 52985 N 5043.45 4.31002 -3.88867 0
M  V30 52986 H 5046.21 0.343137 -2.97729 0
M  V30 52987 H 5043.78 0.0400583 -1.6185 0
M  V30 52988 H 5045.77 2.87122 -2.85207 0
M  V30 52989 H 5044.34 2.52026 -1.84936 0
M  V30 52990 H 5043.56 0.997193 -3.81379 0
M  V30 52991 H 5044.85 1.73388 -4.78345 0
M  V30 52992 H 5044.24 4.56751 -3.3376 0
M  V30 52993 H 5042.8 5.02677 -4.14921 0
M  V30 52994 N 5046.23 1.57062 0.130169 0
M  V30 52995 C 5047.17 1.94702 1.19022 0
M  V30 52996 C 5048.14 0.815124 1.40693 0
M  V30 52997 O 5049.33 1.07228 1.5503 0
M  V30 52998 C 5046.46 2.23361 2.54613 0
M  V30 52999 C 5045.5 3.45953 2.49436 0
M  V30 53000 S 5046.33 4.98934 1.94488 0
M  V30 53001 C 5047.49 5.30732 3.31774 0
M  V30 53002 H 5047.72 2.84311 0.869172 0
M  V30 53003 H 5045.26 1.50689 0.336478 0
M  V30 53004 H 5047.21 2.40551 3.32634 0
M  V30 53005 H 5045.88 1.34386 2.839 0
M  V30 53006 H 5045.07 3.63336 3.49289 0
M  V30 53007 H 5044.67 3.28092 1.79531 0
M  V30 53008 H 5046.96 5.2523 4.27948 0
M  V30 53009 H 5047.91 6.32059 3.19229 0
M  V30 53010 H 5048.31 4.58221 3.29687 0
M  V30 53011 N 5047.71 -0.400028 1.52439 0
M  V30 53012 C 5048.62 -1.51247 1.79336 0
M  V30 53013 C 5049.64 -1.60186 0.679453 0
M  V30 53014 O 5050.81 -1.76729 0.965853 0
M  V30 53015 C 5047.88 -2.86893 1.94662 0
M  V30 53016 C 5046.94 -2.87766 3.18574 0
M  V30 53017 C 5046.17 -4.16942 3.33159 0
M  V30 53018 O 5046.4 -5.1132 2.52801 0
M  V30 53019 O 5045.33 -4.24855 4.26358 0
M  V30 53020 H 5049.16 -1.31451 2.73778 0
M  V30 53021 H 5046.74 -0.586786 1.37394 0
M  V30 53022 H 5048.62 -3.67329 2.06513 0
M  V30 53023 H 5047.3 -3.06738 1.03411 0
M  V30 53024 H 5046.2 -2.06151 3.12174 0
M  V30 53025 H 5047.54 -2.72872 4.09636 0
M  V30 53026 N 5049.19 -1.43215 -0.657814 0
M  V30 53027 C 5050.12 -1.50821 -1.78256 0
M  V30 53028 C 5051.1 -0.36327 -1.66176 0
M  V30 53029 O 5052.29 -0.579872 -1.85341 0
M  V30 53030 C 5049.42 -1.42636 -3.16658 0
M  V30 53031 C 5048.37 -2.55332 -3.43496 0
M  V30 53032 C 5047.7 -2.32201 -4.8165 0
M  V30 53033 C 5049 -3.97595 -3.38697 0
M  V30 53034 H 5050.69 -2.4496 -1.72148 0
M  V30 53035 H 5048.24 -1.17899 -0.826788 0
M  V30 53036 H 5050.19 -1.46562 -3.95092 0
M  V30 53037 H 5048.91 -0.449991 -3.23485 0
M  V30 53038 H 5047.57 -2.50751 -2.67431 0
M  V30 53039 H 5047.22 -1.32818 -4.85148 0
M  V30 53040 H 5046.92 -3.07742 -5.00568 0
M  V30 53041 H 5048.44 -2.37903 -5.62347 0
M  V30 53042 H 5049.86 -4.03687 -4.07074 0
M  V30 53043 H 5048.25 -4.73125 -3.69151 0
M  V30 53044 H 5049.32 -4.23057 -2.36961 0
M  V30 53045 N 5050.67 0.895746 -1.29669 0
M  V30 53046 C 5051.63 1.98185 -1.15131 0
M  V30 53047 C 5052.63 1.60572 -0.0856281 0
M  V30 53048 O 5053.82 1.7099 -0.332886 0
M  V30 53049 C 5050.95 3.32286 -0.761488 0
M  V30 53050 H 5052.15 2.12511 -2.11611 0
M  V30 53051 H 5049.7 1.08077 -1.12912 0
M  V30 53052 H 5050.43 3.23662 0.203279 0
M  V30 53053 H 5050.22 3.60953 -1.53152 0
M  V30 53054 H 5051.71 4.11978 -0.682937 0
M  V30 53055 N 5052.15 1.1221 1.10665 0
M  V30 53056 C 5053.09 0.782995 2.19025 0
M  V30 53057 C 5054.09 -0.229116 1.67843 0
M  V30 53058 O 5055.29 -0.0875663 1.79787 0
M  V30 53059 H 5051.67 0.235364 0.714218 0
M  V30 53060 H 5053.64 1.70536 2.44868 0
M  V30 53061 C 5052.39 0.251282 3.46791 0
M  V30 53062 H 5051.71 1.02137 3.86534 0
M  V30 53063 H 5053.15 0.0522899 4.23968 0
M  V30 53064 C 5051.61 -1.02026 3.2108 0
M  V30 53065 O 5052.14 -2.09849 3.42529 0
M  V30 53066 N 5050.35 -0.946251 2.74763 0
M  V30 53067 H 5049.89 -0.0686865 2.57508 0
M  V30 53068 H 5049.85 -1.79766 2.57937 0
M  V30 53069 N 5053.62 -1.28415 0.913644 0
M  V30 53070 C 5054.87 -1.94594 0.545662 0
M  V30 53071 C 5055.19 -1.72274 -0.913607 0
M  V30 53072 O 5054.46 -1.06239 -1.64591 0
M  V30 53073 H 5053.04 -0.720058 0.198809 0
M  V30 53074 H 5055.7 -1.564 1.16298 0
M  V30 53075 H 5054.8 -3.032 0.740018 0
M  V30 53076 N 5055.1 -0.677613 -1.42289 0
M  V30 53077 C 5056.33 -0.209531 -2.05836 0
M  V30 53078 C 5056.74 1.13439 -1.50921 0
M  V30 53079 O 5056.1 1.70527 -0.65014 0
M  V30 53080 C 5056.15 -0.138946 -3.61233 0
M  V30 53081 O 5055.87 -1.42976 -4.14113 0
M  V30 53082 C 5057.37 0.352293 -4.41898 0
M  V30 53083 H 5054.59 -0.101232 -0.66332 0
M  V30 53084 H 5057.14 -0.925141 -1.82377 0
M  V30 53085 H 5055.29 0.52737 -3.83794 0
M  V30 53086 H 5055.71 -1.30498 -5.08006 0
M  V30 53087 H 5057.18 0.350585 -5.50886 0
M  V30 53088 H 5057.66 1.38806 -4.16689 0
M  V30 53089 H 5058.26 -0.282385 -4.24361 0
M  V30 53090 N 5056.58 1.51869 -0.421131 0
M  V30 53091 C 5057.53 2.24172 0.416032 0
M  V30 53092 C 5058.51 1.25767 1.00357 0
M  V30 53093 O 5059.71 1.50943 0.924399 0
M  V30 53094 C 5056.84 3.07539 1.52561 0
M  V30 53095 C 5055.92 4.13363 0.948253 0
M  V30 53096 N 5056.31 5.05704 0.0986155 0
M  V30 53097 C 5054.61 4.2906 1.21753 0
M  V30 53098 C 5055.31 5.81269 -0.22391 0
M  V30 53099 N 5054.29 5.42211 0.388333 0
M  V30 53100 H 5058.09 2.92924 -0.239269 0
M  V30 53101 H 5055.6 1.60731 -0.232248 0
M  V30 53102 H 5057.6 3.579 2.13806 0
M  V30 53103 H 5056.26 2.40328 2.18341 0
M  V30 53104 H 5057.27 5.17213 -0.26661 0
M  V30 53105 H 5053.95 3.73077 1.87402 0
M  V30 53106 H 5055.34 6.6565 -0.91431 0
M  V30 53107 N 5058.06 0.151939 1.56866 0
M  V30 53108 C 5059.29 -0.504743 2.00649 0
M  V30 53109 C 5059.7 -1.58094 1.03207 0
M  V30 53110 O 5059.06 -1.82476 0.0298456 0
M  V30 53111 C 5059.11 -1.10087 3.4433 0
M  V30 53112 O 5058.83 -0.0676481 4.38048 0
M  V30 53113 C 5060.33 -1.83767 4.03416 0
M  V30 53114 H 5057.55 -0.130966 0.658095 0
M  V30 53115 H 5060.1 0.247975 2.02991 0
M  V30 53116 H 5058.25 -1.80418 3.42824 0
M  V30 53117 H 5058.66 -0.505054 5.22063 0
M  V30 53118 H 5060.14 -2.20762 5.05933 0
M  V30 53119 H 5060.62 -2.72545 3.44407 0
M  V30 53120 H 5061.22 -1.18123 4.08567 0
M  V30 53121 N 5059.54 -1.57128 -0.121838 0
M  V30 53122 C 5060.78 -1.84338 -0.828484 0
M  V30 53123 C 5061.11 -0.736695 -1.80549 0
M  V30 53124 O 5060.38 0.239551 -1.9443 0
M  V30 53125 H 5058.96 -0.680119 -0.308946 0
M  V30 53126 H 5061.62 -1.9459 -0.109837 0
M  V30 53127 H 5060.71 -2.80157 -1.37544 0
M  V30 53128 N 5061.01 0.391938 -1.52649 0
M  V30 53129 C 5062.24 1.16306 -1.7172 0
M  V30 53130 C 5062.66 1.8304 -0.433343 0
M  V30 53131 O 5062.02 1.70707 0.610647 0
M  V30 53132 C 5062.07 2.18898 -2.86559 0
M  V30 53133 O 5061.17 3.25421 -2.53327 0
M  V30 53134 H 5060.52 0.338722 -0.571107 0
M  V30 53135 H 5063.05 0.457132 -1.99428 0
M  V30 53136 H 5063.06 2.62944 -3.11969 0
M  V30 53137 H 5061.73 1.69713 -3.79698 0
M  V30 53138 H 5060.31 2.86534 -2.38647 0
M  V30 53139 N 5062.49 1.43562 0.650209 0
M  V30 53140 C 5063.46 1.48621 1.74484 0
M  V30 53141 C 5064.46 0.370538 1.56473 0
M  V30 53142 O 5065.65 0.632408 1.62315 0
M  V30 53143 C 5062.78 1.34172 3.13386 0
M  V30 53144 H 5063.97 2.46109 1.71378 0
M  V30 53145 H 5061.52 1.30372 0.86214 0
M  V30 53146 H 5062.26 0.377031 3.22101 0
M  V30 53147 H 5062.04 2.15052 3.27864 0
M  V30 53148 H 5063.53 1.40651 3.93201 0
M  V30 53149 N 5063.97 -0.888857 1.30143 0
M  V30 53150 C 5065.22 -1.64033 1.18741 0
M  V30 53151 C 5065.55 -1.92771 -0.258733 0
M  V30 53152 O 5064.8 -1.54431 -1.20206 0
M  V30 53153 C 5065.1 -2.99034 1.95738 0
M  V30 53154 C 5064.77 -2.89862 3.45385 0
M  V30 53155 C 5063.43 -2.87068 3.86194 0
M  V30 53156 C 5065.78 -2.78273 4.40697 0
M  V30 53157 C 5063.11 -2.70518 5.20612 0
M  V30 53158 C 5065.46 -2.63262 5.75218 0
M  V30 53159 C 5064.12 -2.5884 6.15271 0
M  V30 53160 H 5063.39 -0.600238 0.434506 0
M  V30 53161 H 5066.04 -1.03374 1.61202 0
M  V30 53162 H 5064.35 -3.63621 1.45901 0
M  V30 53163 H 5066.04 -3.56132 1.84312 0
M  V30 53164 H 5062.63 -2.92845 3.12954 0
M  V30 53165 H 5066.82 -2.79501 4.10113 0
M  V30 53166 H 5062.07 -2.65507 5.50742 0
M  V30 53167 H 5066.25 -2.53268 6.48713 0
M  V30 53168 H 5063.87 -2.45774 7.19374 0
M  V30 53169 N 5065.45 -1.12795 -1.10068 0
M  V30 53170 C 5066.73 -0.796929 -1.78629 0
M  V30 53171 C 5067.11 0.712669 -1.98706 0
M  V30 53172 O 5066.45 1.64767 -1.58316 0
M  V30 53173 C 5066.66 -1.57633 -3.11373 0
M  V30 53174 C 5068.01 -1.76477 -3.86188 0
M  V30 53175 O 5069.04 -1.54176 -3.21105 0
M  V30 53176 O 5067.89 -2.1364 -5.03011 0
M  V30 53177 H 5064.99 -0.290275 -0.774383 0
M  V30 53178 H 5067.53 -1.2322 -1.16683 0
M  V30 53179 H 5066.31 -2.60256 -2.92203 0
M  V30 53180 H 5065.93 -1.13556 -3.81039 0
M  V30 53181 N 5066.93 1.27928 -0.920441 0
M  V30 53182 C 5068.17 1.94302 -0.555975 0
M  V30 53183 C 5068.5 1.72756 0.904458 0
M  V30 53184 O 5067.77 1.0711 1.64025 0
M  V30 53185 H 5066.35 0.718994 -0.202624 0
M  V30 53186 H 5069.01 1.55781 -1.17126 0
M  V30 53187 H 5068.1 3.02803 -0.756087 0
M  V30 53188 N 5068.4 0.685149 1.41928 0
M  V30 53189 C 5069.63 0.220444 2.05722 0
M  V30 53190 C 5070.05 -1.12637 1.5152 0
M  V30 53191 O 5069.4 -1.7018 0.659174 0
M  V30 53192 C 5069.46 0.158101 3.61154 0
M  V30 53193 O 5069.18 1.45171 4.13349 0
M  V30 53194 C 5070.68 -0.328853 4.42079 0
M  V30 53195 H 5067.9 0.104748 0.662774 0
M  V30 53196 H 5070.44 0.9348 1.81884 0
M  V30 53197 H 5068.6 -0.507009 3.84068 0
M  V30 53198 H 5069.01 1.3319 5.07307 0
M  V30 53199 H 5070.48 -0.321365 5.51064 0
M  V30 53200 H 5070.96 -1.36594 4.17419 0
M  V30 53201 H 5071.57 0.304886 4.24206 0
M  V30 53202 N 5069.88 -1.51644 0.429179 0
M  V30 53203 C 5070.82 -2.24085 -0.431413 0
M  V30 53204 C 5071.79 -1.25694 -1.03149 0
M  V30 53205 O 5072.98 -1.54806 -1.07552 0
M  V30 53206 C 5070.1 -2.98496 -1.60057 0
M  V30 53207 C 5069.15 -4.11478 -1.12196 0
M  V30 53208 S 5069.98 -5.35453 -0.0706567 0
M  V30 53209 C 5071.14 -6.13399 -1.24467 0
M  V30 53210 H 5071.37 -2.96732 0.18363 0
M  V30 53211 H 5068.91 -1.52915 0.213628 0
M  V30 53212 H 5070.86 -3.41968 -2.27087 0
M  V30 53213 H 5069.52 -2.25453 -2.187 0
M  V30 53214 H 5068.72 -4.62791 -1.99602 0
M  V30 53215 H 5068.32 -3.70225 -0.530019 0
M  V30 53216 H 5070.61 -6.41991 -2.16457 0
M  V30 53217 H 5071.55 -7.03883 -0.771674 0
M  V30 53218 H 5071.96 -5.44766 -1.47954 0
M  V30 53219 N 5071.36 -0.160256 -1.56783 0
M  V30 53220 C 5072.59 0.493378 -2.00622 0
M  V30 53221 C 5073 1.58087 -1.03948 0
M  V30 53222 O 5072.34 1.83675 -0.0305989 0
M  V30 53223 C 5072.4 1.14157 -3.40894 0
M  V30 53224 C 5072.07 0.197082 -4.56575 0
M  V30 53225 C 5073.07 -0.580355 -5.16651 0
M  V30 53226 C 5070.75 0.0961272 -5.02208 0
M  V30 53227 C 5072.74 -1.44606 -6.2078 0
M  V30 53228 C 5070.43 -0.773172 -6.06189 0
M  V30 53229 C 5071.43 -1.54286 -6.65346 0
M  V30 53230 O 5071.12 -2.39765 -7.67312 0
M  V30 53231 H 5070.85 0.131741 -0.663039 0
M  V30 53232 H 5073.4 -0.255799 -2.03801 0
M  V30 53233 H 5071.63 1.93865 -3.34594 0
M  V30 53234 H 5073.32 1.69628 -3.68756 0
M  V30 53235 H 5074.09 -0.512469 -4.82285 0
M  V30 53236 H 5069.97 0.684983 -4.55883 0
M  V30 53237 H 5073.51 -2.04729 -6.66882 0
M  V30 53238 H 5069.41 -0.842302 -6.39981 0
M  V30 53239 H 5070.18 -2.33159 -7.84589 0
M  V30 53240 N 5072.84 1.57191 0.113503 0
M  V30 53241 C 5074.09 1.84775 0.818696 0
M  V30 53242 C 5074.41 0.74626 1.80155 0
M  V30 53243 O 5073.68 -0.229237 1.94554 0
M  V30 53244 H 5072.26 0.681747 0.305335 0
M  V30 53245 H 5074.92 1.94646 0.099516 0
M  V30 53246 H 5074.02 2.80882 1.36057 0
M  V30 53247 N 5074.32 -0.383837 1.52854 0
M  V30 53248 C 5075.28 -1.45191 1.77348 0
M  V30 53249 C 5076.28 -1.47359 0.643574 0
M  V30 53250 O 5077.47 -1.4844 0.911665 0
M  V30 53251 C 5074.6 -2.84444 1.87895 0
M  V30 53252 H 5075.8 -1.24754 2.7272 0
M  V30 53253 H 5073.35 -0.615889 1.43654 0
M  V30 53254 H 5074.08 -3.10218 0.94526 0
M  V30 53255 H 5073.87 -2.8427 2.70061 0
M  V30 53256 H 5075.36 -3.61825 2.085 0
M  V30 53257 N 5075.8 -1.43905 -0.642587 0
M  V30 53258 C 5077.04 -1.46084 -1.40234 0
M  V30 53259 C 5077.37 -0.0891018 -1.94296 0
M  V30 53260 O 5076.63 0.907472 -1.73388 0
M  V30 53261 C 5076.92 -2.45916 -2.59345 0
M  V30 53262 C 5076.59 -3.9153 -2.2364 0
M  V30 53263 C 5075.25 -4.31187 -2.13615 0
M  V30 53264 C 5077.6 -4.83249 -1.95244 0
M  V30 53265 C 5074.93 -5.60501 -1.73365 0
M  V30 53266 C 5077.28 -6.12939 -1.56489 0
M  V30 53267 C 5075.95 -6.51561 -1.44997 0
M  V30 53268 H 5075.22 -0.53456 -0.513154 0
M  V30 53269 H 5077.87 -1.77049 -0.729778 0
M  V30 53270 H 5076.17 -2.08393 -3.31782 0
M  V30 53271 H 5077.87 -2.44853 -3.17565 0
M  V30 53272 H 5074.46 -3.6015 -2.32357 0
M  V30 53273 H 5078.64 -4.53374 -2.01904 0
M  V30 53274 H 5073.9 -5.89254 -1.63062 0
M  V30 53275 H 5078.07 -6.83474 -1.33552 0
M  V30 53276 H 5075.7 -7.51667 -1.1358 0
M  V30 53277 N 5077.27 0.881943 -1.30612 0
M  V30 53278 C 5078.21 1.99062 -1.11578 0
M  V30 53279 C 5079.18 1.62584 -0.0225731 0
M  V30 53280 O 5080.37 1.8767 -0.17671 0
M  V30 53281 C 5077.5 3.31338 -0.702353 0
M  V30 53282 C 5076.54 3.86801 -1.79686 0
M  V30 53283 S 5077.37 4.13723 -3.39991 0
M  V30 53284 C 5078.53 5.49014 -3.00557 0
M  V30 53285 H 5078.76 2.14902 -2.05437 0
M  V30 53286 H 5076.3 1.0307 -1.14961 0
M  V30 53287 H 5078.25 4.07794 -0.470558 0
M  V30 53288 H 5076.92 3.1335 0.216924 0
M  V30 53289 H 5076.11 4.82392 -1.45994 0
M  V30 53290 H 5075.71 3.17095 -1.9831 0
M  V30 53291 H 5078 6.302 -2.48706 0
M  V30 53292 H 5078.95 5.87646 -3.95067 0
M  V30 53293 H 5079.35 5.11718 -2.38338 0
M  V30 53294 N 5078.75 1.13378 1.09468 0
M  V30 53295 C 5080.03 0.806391 1.78204 0
M  V30 53296 C 5080.41 -0.702121 1.99082 0
M  V30 53297 O 5079.76 -1.63926 1.59188 0
M  V30 53298 C 5079.97 1.59282 3.10532 0
M  V30 53299 C 5081.31 1.78522 3.85247 0
M  V30 53300 O 5082.34 1.55877 3.20282 0
M  V30 53301 O 5081.2 2.16305 5.01871 0
M  V30 53302 H 5078.29 0.294378 0.772833 0
M  V30 53303 H 5080.84 1.23837 1.16028 0
M  V30 53304 H 5079.61 2.61802 2.90818 0
M  V30 53305 H 5079.23 1.15575 3.80432 0
M  V30 53306 N 5080.23 -1.27438 0.927213 0
M  V30 53307 C 5081.18 -2.26862 0.424539 0
M  V30 53308 C 5082.15 -1.58132 -0.508291 0
M  V30 53309 O 5083.33 -1.85948 -0.427555 0
M  V30 53310 C 5080.47 -3.4364 -0.317059 0
M  V30 53311 C 5079.58 -4.27085 0.649826 0
M  V30 53312 C 5078.72 -5.31083 -0.111567 0
M  V30 53313 C 5077.76 -6.06197 0.848056 0
M  V30 53314 N 5076.9 -7.01999 0.119321 0
M  V30 53315 H 5081.74 -2.69235 1.27737 0
M  V30 53316 H 5079.27 -1.32392 0.641153 0
M  V30 53317 H 5081.23 -4.10157 -0.763341 0
M  V30 53318 H 5079.86 -3.02221 -1.13413 0
M  V30 53319 H 5078.91 -3.60487 1.21464 0
M  V30 53320 H 5080.22 -4.79237 1.38323 0
M  V30 53321 H 5079.38 -6.03546 -0.617787 0
M  V30 53322 H 5078.12 -4.79733 -0.877946 0
M  V30 53323 H 5077.12 -5.32572 1.36553 0
M  V30 53324 H 5078.35 -6.59636 1.61421 0
M  V30 53325 H 5076.29 -6.52979 -0.628821 0
M  V30 53326 H 5076.21 -7.51837 0.79231 0
M  V30 53327 H 5077.48 -7.78639 -0.366264 0
M  V30 53328 N 5081.71 -0.692666 -1.41562 0
M  V30 53329 C 5082.64 0.0136327 -2.29196 0
M  V30 53330 C 5083.65 0.747366 -1.44632 0
M  V30 53331 O 5084.84 0.598551 -1.68165 0
M  V30 53332 C 5081.94 1.04335 -3.2244 0
M  V30 53333 C 5081.11 0.379831 -4.35748 0
M  V30 53334 C 5080.17 1.31177 -5.09587 0
M  V30 53335 O 5079.2 0.805257 -5.63475 0
M  V30 53336 N 5080.4 2.64425 -5.16778 0
M  V30 53337 H 5083.17 -0.738717 -2.90453 0
M  V30 53338 H 5080.73 -0.538468 -1.52683 0
M  V30 53339 H 5082.72 1.66847 -3.68706 0
M  V30 53340 H 5081.29 1.69727 -2.6251 0
M  V30 53341 H 5080.51 -0.425113 -3.91901 0
M  V30 53342 H 5081.8 -0.0816692 -5.08734 0
M  V30 53343 H 5081.2 3.08097 -4.74439 0
M  V30 53344 H 5079.75 3.22139 -5.6663 0
M  V30 53345 N 5083.19 1.51414 -0.437215 0
M  V30 53346 C 5084.43 2.02386 0.129484 0
M  V30 53347 C 5084.76 1.32076 1.42371 0
M  V30 53348 O 5084.04 0.435657 1.89558 0
M  V30 53349 C 5084.32 3.58411 0.348361 0
M  V30 53350 C 5084.18 4.39337 -0.964507 0
M  V30 53351 C 5085.49 4.25658 1.11819 0
M  V30 53352 H 5082.61 0.735589 0.045585 0
M  V30 53353 H 5085.26 1.81053 -0.576188 0
M  V30 53354 H 5083.41 3.76719 0.949459 0
M  V30 53355 H 5085.08 4.32679 -1.59958 0
M  V30 53356 H 5083.32 4.04427 -1.56913 0
M  V30 53357 H 5083.99 5.46668 -0.765404 0
M  V30 53358 H 5086.47 4.11619 0.60902 0
M  V30 53359 H 5085.34 5.34708 1.2401 0
M  V30 53360 H 5085.6 3.86509 2.14623 0
M  V30 53361 N 5084.66 0.168568 1.56696 0
M  V30 53362 C 5085.61 -0.775025 2.14423 0
M  V30 53363 C 5086.6 -1.19473 1.07773 0
M  V30 53364 O 5087.79 -1.15755 1.33902 0
M  V30 53365 C 5084.92 -2.0054 2.78637 0
M  V30 53366 C 5084 -1.60781 3.92441 0
M  V30 53367 N 5084.4 -0.919637 4.97369 0
M  V30 53368 C 5082.69 -1.89903 4.03551 0
M  V30 53369 C 5083.39 -0.724282 5.77173 0
M  V30 53370 N 5082.37 -1.26486 5.2868 0
M  V30 53371 H 5086.17 -0.240246 2.92916 0
M  V30 53372 H 5083.69 -0.0322104 1.62368 0
M  V30 53373 H 5085.68 -2.69159 3.18369 0
M  V30 53374 H 5084.34 -2.54515 2.01624 0
M  V30 53375 H 5085.35 -0.577989 5.14665 0
M  V30 53376 H 5082.03 -2.45575 3.37638 0
M  V30 53377 H 5083.42 -0.180285 6.71658 0
M  V30 53378 N 5086.14 -1.57249 -0.105165 0
M  V30 53379 C 5087.07 -1.98012 -1.15429 0
M  V30 53380 C 5088.09 -0.881284 -1.36884 0
M  V30 53381 O 5089.28 -1.15948 -1.35714 0
M  V30 53382 C 5086.38 -2.27518 -2.51175 0
M  V30 53383 C 5085.55 -3.5882 -2.50134 0
M  V30 53384 C 5084.61 -3.76378 -3.67731 0
M  V30 53385 O 5083.63 -4.48342 -3.50683 0
M  V30 53386 N 5084.84 -3.16192 -4.8683 0
M  V30 53387 H 5087.6 -2.88619 -0.807418 0
M  V30 53388 H 5085.16 -1.59203 -0.294274 0
M  V30 53389 H 5087.15 -2.36466 -3.28429 0
M  V30 53390 H 5085.72 -1.42969 -2.7799 0
M  V30 53391 H 5084.94 -3.60933 -1.58497 0
M  V30 53392 H 5086.23 -4.45097 -2.46508 0
M  V30 53393 H 5085.63 -2.57718 -5.03585 0
M  V30 53394 H 5084.19 -3.3064 -5.61712 0
M  V30 53395 N 5087.62 0.375726 -1.53056 0
M  V30 53396 C 5088.87 1.12108 -1.68996 0
M  V30 53397 C 5089.2 1.89258 -0.435305 0
M  V30 53398 O 5088.47 1.86046 0.567213 0
M  V30 53399 C 5088.76 2.08856 -2.93345 0
M  V30 53400 C 5088.61 1.35382 -4.28943 0
M  V30 53401 C 5089.93 3.09113 -3.13268 0
M  V30 53402 H 5087.05 0.406186 -0.614965 0
M  V30 53403 H 5089.69 0.402989 -1.85677 0
M  V30 53404 H 5087.84 2.70092 -2.79254 0
M  V30 53405 H 5089.51 0.770082 -4.54827 0
M  V30 53406 H 5087.76 0.655651 -4.28817 0
M  V30 53407 H 5088.43 2.06143 -5.12064 0
M  V30 53408 H 5090.9 2.57975 -3.26478 0
M  V30 53409 H 5089.78 3.7404 -4.01728 0
M  V30 53410 H 5090.04 3.78721 -2.28085 0
M  V30 53411 N 5089.1 1.44244 0.634946 0
M  V30 53412 C 5090.03 1.46799 1.76019 0
M  V30 53413 C 5091.04 0.361836 1.58728 0
M  V30 53414 O 5092.23 0.627356 1.67112 0
M  V30 53415 C 5089.33 1.28259 3.13692 0
M  V30 53416 C 5088.51 2.52051 3.57476 0
M  V30 53417 C 5087.56 2.28467 4.74014 0
M  V30 53418 O 5086.59 3.01932 4.8252 0
M  V30 53419 N 5087.79 1.31284 5.6546 0
M  V30 53420 H 5090.56 2.43803 1.74299 0
M  V30 53421 H 5088.12 1.39634 0.819389 0
M  V30 53422 H 5090.11 1.10335 3.89369 0
M  V30 53423 H 5088.68 0.396339 3.10077 0
M  V30 53424 H 5087.9 2.85277 2.72049 0
M  V30 53425 H 5089.19 3.34396 3.8348 0
M  V30 53426 H 5088.59 0.706015 5.61277 0
M  V30 53427 H 5087.14 1.19339 6.40782 0
M  V30 53428 N 5090.58 -0.875004 1.31078 0
M  V30 53429 C 5091.51 -1.99771 1.20888 0
M  V30 53430 C 5092.49 -1.69822 0.0972209 0
M  V30 53431 O 5093.67 -1.92157 0.280962 0
M  V30 53432 C 5090.8 -3.3516 0.910235 0
M  V30 53433 C 5089.76 -3.79399 1.98092 0
M  V30 53434 C 5089.08 -5.12191 1.53506 0
M  V30 53435 C 5090.38 -3.97049 3.39337 0
M  V30 53436 H 5092.08 -2.08554 2.14815 0
M  V30 53437 H 5089.62 -1.00203 1.03418 0
M  V30 53438 H 5091.58 -4.13234 0.825569 0
M  V30 53439 H 5090.3 -3.26536 -0.0647073 0
M  V30 53440 H 5088.96 -3.03561 2.05539 0
M  V30 53441 H 5088.61 -5.00005 0.548117 0
M  V30 53442 H 5088.31 -5.42762 2.25129 0
M  V30 53443 H 5089.83 -5.9278 1.46438 0
M  V30 53444 H 5091.24 -4.65533 3.34592 0
M  V30 53445 H 5089.64 -4.3901 4.09133 0
M  V30 53446 H 5090.71 -3.00588 3.80493 0
M  V30 53447 N 5092.05 -1.13957 -1.08865 0
M  V30 53448 C 5093.28 -0.928235 -1.84909 0
M  V30 53449 C 5093.7 0.523134 -1.81408 0
M  V30 53450 O 5093.05 1.36233 -1.21437 0
M  V30 53451 C 5093.11 -1.41521 -3.32647 0
M  V30 53452 O 5092.83 -2.80971 -3.36135 0
M  V30 53453 C 5094.33 -1.24315 -4.25512 0
M  V30 53454 H 5091.55 -0.330633 -0.583886 0
M  V30 53455 H 5094.09 -1.51354 -1.37522 0
M  V30 53456 H 5092.25 -0.872781 -3.7744 0
M  V30 53457 H 5092.66 -3.02719 -4.28324 0
M  V30 53458 H 5094.13 -1.63255 -5.27306 0
M  V30 53459 H 5094.61 -0.185475 -4.38808 0
M  V30 53460 H 5095.22 -1.77389 -3.8654 0
M  V30 53461 N 5093.53 1.26945 -0.933958 0
M  V30 53462 C 5094.81 1.89211 -0.49585 0
M  V30 53463 C 5095.19 1.84473 1.0263 0
M  V30 53464 O 5094.54 1.29416 1.88318 0
M  V30 53465 C 5094.75 3.32861 -1.04902 0
M  V30 53466 C 5096.1 4.09745 -1.11329 0
M  V30 53467 O 5097.12 3.41902 -0.999086 0
M  V30 53468 O 5095.98 5.31056 -1.29001 0
M  V30 53469 H 5093.07 0.811278 -0.160487 0
M  V30 53470 H 5095.62 1.35167 -1.02605 0
M  V30 53471 H 5094.39 3.30634 -2.09276 0
M  V30 53472 H 5094.01 3.94433 -0.500831 0
M  V30 53473 N 5095.01 0.700164 1.41193 0
M  V30 53474 C 5095.96 0.0377463 2.30769 0
M  V30 53475 C 5096.93 -0.766492 1.47357 0
M  V30 53476 O 5098.11 -0.733588 1.76134 0
M  V30 53477 C 5095.25 -0.889335 3.33444 0
M  V30 53478 C 5094.37 -0.0762212 4.31933 0
M  V30 53479 C 5093.5 -1.00137 5.21676 0
M  V30 53480 C 5092.54 -0.181429 6.11831 0
M  V30 53481 N 5091.68 -1.06062 6.94043 0
M  V30 53482 H 5096.52 0.807361 2.86855 0
M  V30 53483 H 5094.05 0.409848 1.41275 0
M  V30 53484 H 5096.01 -1.44093 3.91527 0
M  V30 53485 H 5094.64 -1.6253 2.78898 0
M  V30 53486 H 5093.69 0.592355 3.7576 0
M  V30 53487 H 5095.01 0.55925 4.95655 0
M  V30 53488 H 5094.16 -1.62203 5.84615 0
M  V30 53489 H 5092.9 -1.67068 4.58191 0
M  V30 53490 H 5091.9 0.452278 5.47937 0
M  V30 53491 H 5093.13 0.484163 6.77372 0
M  V30 53492 H 5091.07 -1.71588 6.33162 0
M  V30 53493 H 5090.99 -0.480829 7.54469 0
M  V30 53494 H 5092.26 -1.66795 7.61446 0
M  V30 53495 N 5096.49 -1.5118 0.445239 0
M  V30 53496 C 5097.72 -2.06269 -0.116849 0
M  V30 53497 C 5098.13 -1.31193 -1.36327 0
M  V30 53498 O 5097.47 -0.36713 -1.79994 0
M  V30 53499 C 5097.53 -3.56053 -0.496632 0
M  V30 53500 C 5097.2 -4.52438 0.644099 0
M  V30 53501 C 5098.19 -4.97228 1.51858 0
M  V30 53502 C 5095.88 -4.95444 0.827079 0
M  V30 53503 C 5097.87 -5.83703 2.56066 0
M  V30 53504 C 5095.56 -5.81707 1.87243 0
M  V30 53505 C 5096.56 -6.25735 2.7376 0
M  V30 53506 O 5096.24 -7.10284 3.76499 0
M  V30 53507 H 5095.98 -0.675955 -0.00783357 0
M  V30 53508 H 5098.53 -1.95646 0.625439 0
M  V30 53509 H 5096.76 -3.64487 -1.29174 0
M  V30 53510 H 5098.45 -3.93622 -0.99079 0
M  V30 53511 H 5099.22 -4.64691 1.38878 0
M  V30 53512 H 5095.09 -4.60711 0.163213 0
M  V30 53513 H 5098.64 -6.17989 3.23628 0
M  V30 53514 H 5094.54 -6.13657 2.00239 0
M  V30 53515 H 5095.3 -7.2848 3.73175 0
M  V30 53516 N 5097.97 -0.176876 -1.56604 0
M  V30 53517 C 5099.21 0.469035 -1.98946 0
M  V30 53518 C 5099.57 1.60045 -1.06065 0
M  V30 53519 O 5100.77 2.30929 -1.37569 0
M  V30 53520 C 5099.04 0.93445 -3.44968 0
M  V30 53521 S 5100.6 1.58076 -4.09338 0
M  V30 53522 H 5097.42 0.15067 -0.694852 0
M  V30 53523 H 5100.02 -0.275648 -1.93547 0
M  V30 53524 H 5098.73 0.100669 -4.10277 0
M  V30 53525 H 5098.26 1.71304 -3.54145 0
M  V30 53526 H 5100.27 2.86907 -4.04844 0
M  V30 53527 N 5099.44 1.57302 0.0968247 0
M  V30 53528 C 5100.67 1.90583 0.818102 0
M  V30 53529 C 5101.09 0.770981 1.71574 0
M  V30 53530 O 5100.45 -0.277525 1.79163 0
M  V30 53531 C 5100.5 3.22719 1.60887 0
M  V30 53532 O 5099.6 3.10187 2.71768 0
M  V30 53533 H 5098.95 0.624767 0.22486 0
M  V30 53534 H 5101.48 2.04471 0.0725681 0
M  V30 53535 H 5101.49 3.55985 1.99346 0
M  V30 53536 H 5100.16 4.04903 0.950085 0
M  V30 53537 H 5098.74 2.88432 2.3635 0
M  V30 53538 N 5100.92 -0.367603 1.53253 0
M  V30 53539 C 5102.17 -1.1121 1.69588 0
M  V30 53540 C 5102.5 -1.89025 0.445336 0
M  V30 53541 O 5101.78 -1.86344 -0.557338 0
M  V30 53542 C 5102.06 -2.07298 2.94448 0
M  V30 53543 C 5101.91 -1.33105 4.29655 0
M  V30 53544 C 5103.23 -3.07448 3.14903 0
M  V30 53545 H 5100.35 -0.402919 0.617111 0
M  V30 53546 H 5102.99 -0.393136 1.85888 0
M  V30 53547 H 5101.14 -2.68607 2.80682 0
M  V30 53548 H 5102.82 -0.745951 4.55229 0
M  V30 53549 H 5101.06 -0.6329 4.29158 0
M  V30 53550 H 5101.73 -2.03425 5.1315 0
M  V30 53551 H 5104.21 -2.5624 3.27841 0
M  V30 53552 H 5103.08 -3.71904 4.03706 0
M  V30 53553 H 5103.34 -3.77506 2.30091 0
M  V30 53554 N 5102.4 -1.44578 -0.627288 0
M  V30 53555 C 5103.35 -1.52045 -1.76026 0
M  V30 53556 C 5104.34 -0.391854 -1.64806 0
M  V30 53557 O 5105.55 -0.56696 -1.70838 0
M  V30 53558 H 5101.92 -0.477186 -0.581204 0
M  V30 53559 H 5103.9 -2.47393 -1.66851 0
M  V30 53560 C 5102.64 -1.4855 -3.1437 0
M  V30 53561 H 5101.97 -2.3471 -3.23653 0
M  V30 53562 H 5103.41 -1.57834 -3.93528 0
M  V30 53563 C 5101.87 -0.206838 -3.36264 0
M  V30 53564 O 5102.4 0.721402 -3.95169 0
M  V30 53565 N 5100.6 -0.108756 -2.90396 0
M  V30 53566 H 5100.15 -0.864969 -2.42644 0
M  V30 53567 H 5100.11 0.746014 -3.05421 0
M  V30 53568 N 5103.88 0.86804 -1.3154 0
M  V30 53569 C 5105.13 1.62363 -1.21516 0
M  V30 53570 C 5105.46 1.92883 0.225752 0
M  V30 53571 O 5104.73 1.5618 1.15922 0
M  V30 53572 C 5105.02 2.95261 -2.06139 0
M  V30 53573 C 5104.87 2.71606 -3.58539 0
M  V30 53574 C 5106.19 3.96384 -1.91226 0
M  V30 53575 H 5103.31 0.589163 -0.442783 0
M  V30 53576 H 5105.95 1.0033 -1.6135 0
M  V30 53577 H 5104.1 3.48204 -1.72296 0
M  V30 53578 H 5105.77 2.2532 -4.02528 0
M  V30 53579 H 5104.01 2.05804 -3.81873 0
M  V30 53580 H 5104.69 3.66177 -4.13059 0
M  V30 53581 H 5107.16 3.52656 -2.20847 0
M  V30 53582 H 5106.04 4.87254 -2.52735 0
M  V30 53583 H 5106.3 4.33332 -0.876105 0
M  V30 53584 N 5105.36 1.14532 1.0826 0
M  V30 53585 C 5106.6 0.915823 1.80943 0
M  V30 53586 C 5106.94 -0.556164 1.86066 0
M  V30 53587 O 5106.21 -1.41203 1.33761 0
M  V30 53588 C 5106.49 1.51928 3.26481 0
M  V30 53589 C 5106.35 3.06122 3.29559 0
M  V30 53590 C 5107.67 1.19739 4.23498 0
M  V30 53591 H 5104.79 0.334136 0.656904 0
M  V30 53592 H 5107.43 1.41551 1.26741 0
M  V30 53593 H 5105.58 1.09433 3.72769 0
M  V30 53594 H 5107.25 3.57458 2.91584 0
M  V30 53595 H 5105.49 3.40493 2.68788 0
M  V30 53596 H 5106.16 3.43453 4.32139 0
M  V30 53597 H 5108.64 1.56481 3.85555 0
M  V30 53598 H 5107.52 1.64593 5.23641 0
M  V30 53599 H 5107.78 0.112926 4.41956 0
M  V30 53600 N 5106.84 -1.26448 0.940677 0
M  V30 53601 C 5107.8 -2.24649 0.454457 0
M  V30 53602 C 5108.8 -1.54828 -0.434167 0
M  V30 53603 O 5109.99 -1.72629 -0.233417 0
M  V30 53604 C 5107.12 -3.39149 -0.345073 0
M  V30 53605 H 5108.31 -2.69177 1.32226 0
M  V30 53606 H 5105.87 -1.38594 0.722596 0
M  V30 53607 H 5106.6 -3.00022 -1.23114 0
M  V30 53608 H 5106.39 -3.91009 0.292244 0
M  V30 53609 H 5107.88 -4.12105 -0.675196 0
M  V30 53610 N 5108.31 -0.707642 -1.4082 0
M  V30 53611 C 5109.56 -0.252899 -2.01822 0
M  V30 53612 C 5109.91 1.1387 -1.55085 0
M  V30 53613 O 5109.21 1.7599 -0.757501 0
M  V30 53614 C 5109.4 -0.263018 -3.56431 0
M  V30 53615 C 5109.23 -1.65407 -4.18176 0
M  V30 53616 C 5108 -2.25982 -4.51952 0
M  V30 53617 C 5110.2 -2.60288 -4.4357 0
M  V30 53618 N 5108.18 -3.57526 -4.99048 0
M  V30 53619 C 5109.55 -3.76526 -4.92573 0
M  V30 53620 C 5111.61 -2.58401 -4.25598 0
M  V30 53621 C 5110.31 -4.91175 -5.2549 0
M  V30 53622 C 5112.34 -3.72171 -4.59612 0
M  V30 53623 C 5111.7 -4.87141 -5.08796 0
M  V30 53624 H 5107.8 -0.138199 -0.769691 0
M  V30 53625 H 5110.38 -0.927727 -1.71176 0
M  V30 53626 H 5108.55 0.381343 -3.86523 0
M  V30 53627 H 5110.28 0.207688 -4.04167 0
M  V30 53628 H 5107.04 -1.78154 -4.38815 0
M  V30 53629 H 5107.46 -4.24986 -5.26987 0
M  V30 53630 H 5112.1 -1.70723 -3.86799 0
M  V30 53631 H 5109.82 -5.79503 -5.63207 0
M  V30 53632 H 5113.41 -3.71976 -4.47353 0
M  V30 53633 H 5112.29 -5.73717 -5.3462 0
M  V30 53634 N 5109.79 1.50942 -0.45325 0
M  V30 53635 C 5110.72 2.31006 0.340359 0
M  V30 53636 C 5111.7 1.37116 1.00665 0
M  V30 53637 O 5112.89 1.66037 1.00724 0
M  V30 53638 C 5110.02 3.16363 1.43289 0
M  V30 53639 C 5108.97 4.18661 0.889216 0
M  V30 53640 C 5108.3 4.9264 2.0787 0
M  V30 53641 C 5109.6 5.22227 -0.0872978 0
M  V30 53642 H 5111.29 2.976 -0.327828 0
M  V30 53643 H 5108.84 1.43118 -0.159104 0
M  V30 53644 H 5110.79 3.71162 1.99542 0
M  V30 53645 H 5109.51 2.4762 2.1296 0
M  V30 53646 H 5108.17 3.64937 0.348787 0
M  V30 53647 H 5107.82 4.20386 2.76197 0
M  V30 53648 H 5107.52 5.61825 1.72123 0
M  V30 53649 H 5109.05 5.50268 2.64647 0
M  V30 53650 H 5110.46 5.72003 0.385455 0
M  V30 53651 H 5108.86 5.9903 -0.358136 0
M  V30 53652 H 5109.93 4.74073 -1.01895 0
M  V30 53653 N 5111.27 0.185179 1.56508 0
M  V30 53654 C 5112.5 -0.461398 2.01382 0
M  V30 53655 C 5112.91 -1.56413 1.0645 0
M  V30 53656 O 5112.25 -1.83603 0.059816 0
M  V30 53657 C 5112.31 -1.08719 3.42667 0
M  V30 53658 C 5111.98 -0.12442 4.56831 0
M  V30 53659 C 5112.97 0.662477 5.15662 0
M  V30 53660 C 5110.66 -0.0162181 5.02297 0
M  V30 53661 C 5112.65 1.54464 6.18401 0
M  V30 53662 C 5110.34 0.869514 6.04882 0
M  V30 53663 C 5111.34 1.64852 6.62807 0
M  V30 53664 O 5111.03 2.51942 7.63401 0
M  V30 53665 H 5110.76 -0.121176 0.665051 0
M  V30 53666 H 5113.31 0.28819 2.03368 0
M  V30 53667 H 5111.54 -1.88518 3.37636 0
M  V30 53668 H 5113.23 -1.6374 3.71408 0
M  V30 53669 H 5114 0.589132 4.81409 0
M  V30 53670 H 5109.88 -0.612369 4.56915 0
M  V30 53671 H 5113.42 2.15313 6.63541 0
M  V30 53672 H 5109.32 0.94401 6.3856 0
M  V30 53673 H 5110.08 2.45611 7.8078 0
M  V30 53674 N 5112.75 -1.57351 -0.0884812 0
M  V30 53675 C 5113.71 -2.01561 -1.09114 0
M  V30 53676 C 5114.71 -0.910099 -1.32566 0
M  V30 53677 O 5115.9 -1.17541 -1.28568 0
M  V30 53678 C 5113.03 -2.38198 -2.43874 0
M  V30 53679 H 5114.23 -2.91363 -0.710459 0
M  V30 53680 H 5111.78 -1.52696 -0.333725 0
M  V30 53681 H 5112.51 -1.5137 -2.86806 0
M  V30 53682 H 5112.3 -3.18854 -2.28198 0
M  V30 53683 H 5113.79 -2.73036 -3.15977 0
M  V30 53684 N 5114.23 0.359471 -1.53446 0
M  V30 53685 C 5115.19 1.42351 -1.79635 0
M  V30 53686 C 5116.19 1.46317 -0.666936 0
M  V30 53687 O 5117.38 1.4697 -0.935165 0
M  V30 53688 C 5114.51 2.81418 -1.92397 0
M  V30 53689 H 5115.7 1.20399 -2.74671 0
M  V30 53690 H 5113.26 0.592957 -1.44616 0
M  V30 53691 H 5113.99 3.08675 -0.994493 0
M  V30 53692 H 5113.78 2.79938 -2.74549 0
M  V30 53693 H 5115.27 3.58462 -2.1423 0
M  V30 53694 N 5115.7 1.44909 0.619611 0
M  V30 53695 C 5116.95 1.47573 1.37495 0
M  V30 53696 C 5117.27 0.116775 1.95251 0
M  V30 53697 O 5118.47 0.0210045 2.71492 0
M  V30 53698 C 5116.93 2.5986 2.49 0
M  V30 53699 C 5116.54 4.02015 1.97708 0
M  V30 53700 C 5118.28 2.71758 3.2611 0
M  V30 53701 C 5116.19 5.05704 3.06623 0
M  V30 53702 H 5115.12 0.549086 0.51674 0
M  V30 53703 H 5117.77 1.71012 0.665377 0
M  V30 53704 H 5116.15 2.29683 3.22586 0
M  V30 53705 H 5117.32 4.41814 1.3091 0
M  V30 53706 H 5115.64 3.94461 1.33378 0
M  V30 53707 H 5118.24 3.46396 4.07325 0
M  V30 53708 H 5118.58 1.77972 3.7634 0
M  V30 53709 H 5119.11 3.01401 2.59619 0
M  V30 53710 H 5115.85 6.01157 2.61324 0
M  V30 53711 H 5115.37 4.70486 3.72025 0
M  V30 53712 H 5117.05 5.29919 3.71207 0
M  V30 53713 N 5117.18 -0.861052 1.31999 0
M  V30 53714 C 5118.11 -1.98477 1.23 0
M  V30 53715 C 5119.09 -1.69709 0.115227 0
M  V30 53716 O 5120.28 -1.91848 0.301327 0
M  V30 53717 C 5117.41 -3.34175 0.945732 0
M  V30 53718 C 5116.36 -3.77277 2.02105 0
M  V30 53719 C 5115.69 -5.10534 1.5893 0
M  V30 53720 C 5116.99 -3.93427 3.43529 0
M  V30 53721 H 5118.68 -2.06264 2.17015 0
M  V30 53722 H 5116.23 -0.991006 1.04475 0
M  V30 53723 H 5118.18 -4.12335 0.869351 0
M  V30 53724 H 5116.91 -3.26586 -0.0300701 0
M  V30 53725 H 5115.56 -3.01364 2.08747 0
M  V30 53726 H 5115.21 -4.99395 0.601118 0
M  V30 53727 H 5114.91 -5.40344 2.30873 0
M  V30 53728 H 5116.44 -5.91194 1.52717 0
M  V30 53729 H 5117.85 -4.61958 3.39511 0
M  V30 53730 H 5116.25 -4.34646 4.13766 0
M  V30 53731 H 5117.32 -2.96535 3.8366 0
M  V30 53732 N 5118.66 -1.15105 -1.07651 0
M  V30 53733 C 5119.61 -0.84079 -2.16872 0
M  V30 53734 C 5120.6 0.184535 -1.68392 0
M  V30 53735 O 5121.81 0.0398682 -1.79956 0
M  V30 53736 H 5118.18 -0.254217 -0.707727 0
M  V30 53737 H 5120.15 -1.76968 -2.4026 0
M  V30 53738 C 5118.9 -0.343139 -3.46003 0
M  V30 53739 H 5118.23 -1.12349 -3.8369 0
M  V30 53740 H 5119.67 -0.164679 -4.2368 0
M  V30 53741 C 5118.13 0.934768 -3.23672 0
M  V30 53742 O 5118.66 2.00694 -3.47972 0
M  V30 53743 N 5116.86 0.87307 -2.77175 0
M  V30 53744 H 5116.41 0.000388513 -2.576 0
M  V30 53745 H 5116.37 1.72864 -2.62613 0
M  V30 53746 N 5120.14 1.25947 -0.94737 0
M  V30 53747 C 5121.39 1.93079 -0.597064 0
M  V30 53748 C 5121.71 1.74635 0.867611 0
M  V30 53749 O 5120.98 1.10565 1.61716 0
M  V30 53750 H 5119.56 0.714534 -0.21783 0
M  V30 53751 H 5122.22 1.53261 -1.20404 0
M  V30 53752 H 5121.32 3.01131 -0.820146 0
M  V30 53753 N 5121.62 0.7151 1.40442 0
M  V30 53754 C 5122.86 0.258813 2.02755 0
M  V30 53755 C 5123.22 -1.12656 1.55476 0
M  V30 53756 O 5124.42 -1.6798 2.09848 0
M  V30 53757 C 5122.69 0.335326 3.55823 0
M  V30 53758 S 5124.25 -0.0440467 4.38778 0
M  V30 53759 H 5121.07 0.102707 0.703543 0
M  V30 53760 H 5123.67 0.937211 1.71571 0
M  V30 53761 H 5122.38 1.34524 3.87726 0
M  V30 53762 H 5121.91 -0.361567 3.91735 0
M  V30 53763 H 5123.92 -1.26622 4.79772 0
M  V30 53764 N 5123.09 -1.50699 0.461248 0
M  V30 53765 C 5124.06 -2.26861 -0.326599 0
M  V30 53766 C 5125.06 -1.31246 -0.929038 0
M  V30 53767 O 5126.25 -1.54757 -0.799752 0
M  V30 53768 C 5123.38 -3.07849 -1.4643 0
M  V30 53769 H 5124.57 -2.97953 0.3412 0
M  V30 53770 H 5122.13 -1.54814 0.215038 0
M  V30 53771 H 5122.86 -2.41231 -2.16744 0
M  V30 53772 H 5122.65 -3.78105 -1.03823 0
M  V30 53773 H 5124.14 -3.65477 -2.02031 0
M  V30 53774 N 5124.57 -0.193476 -1.56408 0
M  V30 53775 C 5125.82 0.43976 -1.98589 0
M  V30 53776 C 5126.17 1.5935 -1.07821 0
M  V30 53777 O 5125.47 1.91209 -0.122293 0
M  V30 53778 C 5125.66 0.949597 -3.44554 0
M  V30 53779 C 5125.49 -0.153203 -4.49439 0
M  V30 53780 C 5124.26 -0.610296 -5.01601 0
M  V30 53781 C 5126.46 -0.961575 -5.05231 0
M  V30 53782 N 5124.44 -1.69109 -5.90149 0
M  V30 53783 C 5125.81 -1.8918 -5.90433 0
M  V30 53784 C 5127.87 -1.00417 -4.87669 0
M  V30 53785 C 5126.57 -2.86109 -6.5995 0
M  V30 53786 C 5128.59 -1.9615 -5.57924 0
M  V30 53787 C 5127.96 -2.87917 -6.42871 0
M  V30 53788 H 5124.06 0.128388 -0.771389 0
M  V30 53789 H 5126.64 -0.298798 -1.92394 0
M  V30 53790 H 5124.81 1.6576 -3.51252 0
M  V30 53791 H 5126.54 1.5533 -3.73704 0
M  V30 53792 H 5123.3 -0.203938 -4.73161 0
M  V30 53793 H 5123.72 -2.23264 -6.39126 0
M  V30 53794 H 5128.36 -0.308684 -4.21672 0
M  V30 53795 H 5126.08 -3.56635 -7.25146 0
M  V30 53796 H 5129.67 -2.00085 -5.46312 0
M  V30 53797 H 5128.55 -3.60787 -6.96277 0
M  V30 53798 N 5126.05 1.57396 0.0801353 0
M  V30 53799 C 5127.3 1.86839 0.780861 0
M  V30 53800 C 5127.63 0.784075 1.77996 0
M  V30 53801 O 5126.88 -0.220812 1.9445 0
M  V30 53802 C 5127.18 3.2292 1.53158 0
M  V30 53803 C 5126.85 4.45846 0.673233 0
M  V30 53804 C 5125.51 4.79215 0.436661 0
M  V30 53805 C 5127.86 5.21142 0.0774953 0
M  V30 53806 C 5125.19 5.85299 -0.405268 0
M  V30 53807 C 5127.54 6.28116 -0.75184 0
M  V30 53808 C 5126.2 6.59992 -0.998363 0
M  V30 53809 H 5125.47 0.683692 0.285737 0
M  V30 53810 H 5128.12 1.91454 0.0418762 0
M  V30 53811 H 5126.43 3.14058 2.34254 0
M  V30 53812 H 5128.12 3.42933 2.07841 0
M  V30 53813 H 5124.71 4.19724 0.867743 0
M  V30 53814 H 5128.9 4.95683 0.247398 0
M  V30 53815 H 5124.15 6.08398 -0.605094 0
M  V30 53816 H 5128.33 6.85626 -1.22024 0
M  V30 53817 H 5125.95 7.42021 -1.65253 0
M  V30 53818 N 5127.53 -0.351328 1.53634 0
M  V30 53819 C 5128.77 -1.09405 1.70758 0
M  V30 53820 C 5129.11 -1.88542 0.465359 0
M  V30 53821 O 5128.38 -1.86924 -0.537543 0
M  V30 53822 C 5128.67 -2.04163 2.9663 0
M  V30 53823 C 5128.52 -1.28541 4.31042 0
M  V30 53824 C 5129.84 -3.0409 3.18146 0
M  V30 53825 H 5126.96 -0.396351 0.621349 0
M  V30 53826 H 5129.6 -0.373398 1.86295 0
M  V30 53827 H 5127.75 -2.65615 2.83515 0
M  V30 53828 H 5129.42 -0.697626 4.55994 0
M  V30 53829 H 5127.66 -0.587347 4.29805 0
M  V30 53830 H 5128.33 -1.9797 5.15278 0
M  V30 53831 H 5130.81 -2.52749 3.30541 0
M  V30 53832 H 5129.69 -3.67602 4.07628 0
M  V30 53833 H 5129.95 -3.75044 2.34082 0
M  V30 53834 N 5129.01 -1.45235 -0.611918 0
M  V30 53835 C 5129.95 -1.53576 -1.72288 0
M  V30 53836 C 5130.92 -0.381969 -1.61648 0
M  V30 53837 O 5132.11 -0.594829 -1.81291 0
M  V30 53838 C 5129.25 -1.5043 -3.10588 0
M  V30 53839 C 5128.36 -2.76328 -3.32065 0
M  V30 53840 C 5127.5 -2.64882 -4.60446 0
M  V30 53841 C 5126.54 -3.85854 -4.75166 0
M  V30 53842 N 5125.67 -3.7297 -5.94843 0
M  V30 53843 H 5130.51 -2.48486 -1.64495 0
M  V30 53844 H 5128.05 -1.23304 -0.802148 0
M  V30 53845 H 5130.01 -1.46594 -3.90597 0
M  V30 53846 H 5128.64 -0.590732 -3.17349 0
M  V30 53847 H 5127.69 -2.90269 -2.45861 0
M  V30 53848 H 5129 -3.66067 -3.38816 0
M  V30 53849 H 5128.16 -2.58988 -5.48644 0
M  V30 53850 H 5126.89 -1.72735 -4.56085 0
M  V30 53851 H 5125.9 -3.92112 -3.85393 0
M  V30 53852 H 5127.12 -4.79062 -4.81327 0
M  V30 53853 H 5125.07 -2.83588 -5.91535 0
M  V30 53854 H 5124.99 -4.5634 -6.02735 0
M  V30 53855 H 5126.26 -3.71 -6.8555 0
M  V30 53856 N 5130.49 0.85404 -1.32453 0
M  V30 53857 C 5131.9 1.42423 -1.20717 0
M  V30 53858 C 5132.25 1.95372 0.180062 0
M  V30 53859 O 5131.37 1.87591 1.07882 0
M  V30 53860 C 5131.97 2.58889 -2.18545 0
M  V30 53861 C 5130.53 3.11906 -2.10694 0
M  V30 53862 C 5129.67 1.84654 -2.06877 0
M  V30 53863 H 5132.62 0.661141 -1.44273 0
M  V30 53864 H 5132.65 3.36068 -1.78434 0
M  V30 53865 H 5132.16 2.20321 -3.195 0
M  V30 53866 H 5130.26 3.55055 -1.12989 0
M  V30 53867 H 5130.37 3.73108 -3.00545 0
M  V30 53868 H 5128.74 2.04279 -1.52125 0
M  V30 53869 H 5129.52 1.48303 -3.09615 0
M  V30 53870 N 5131.96 1.15674 1.07039 0
M  V30 53871 C 5132.91 0.85228 2.16423 0
M  V30 53872 C 5133.91 -0.175602 1.68487 0
M  V30 53873 O 5135.11 -0.0303242 1.79974 0
M  V30 53874 H 5131.49 0.257967 0.706369 0
M  V30 53875 H 5133.46 1.7824 2.39318 0
M  V30 53876 C 5132.21 0.361484 3.45816 0
M  V30 53877 H 5131.53 1.14382 3.83088 0
M  V30 53878 H 5132.97 0.187146 4.23587 0
M  V30 53879 C 5131.43 -0.917589 3.24163 0
M  V30 53880 O 5131.96 -1.98846 3.49032 0
M  V30 53881 N 5130.16 -0.858358 2.77634 0
M  V30 53882 H 5129.71 0.0132726 2.57597 0
M  V30 53883 H 5129.67 -1.71469 2.63526 0
M  V30 53884 N 5133.44 -1.25443 0.954036 0
M  V30 53885 C 5134.86 -1.45388 0.658368 0
M  V30 53886 C 5135.06 -1.8561 -0.78429 0
M  V30 53887 O 5134.11 -1.98573 -1.55965 0
M  V30 53888 C 5135.43 -2.52638 1.63079 0
M  V30 53889 C 5136.97 -2.66478 1.6419 0
M  V30 53890 C 5137.45 -3.76912 2.60195 0
M  V30 53891 N 5138.94 -3.84322 2.58556 0
M  V30 53892 C 5139.68 -4.69259 3.29519 0
M  V30 53893 N 5139.17 -5.58489 4.09954 0
M  V30 53894 N 5140.96 -4.63219 3.18409 0
M  V30 53895 H 5133.12 -0.976271 1.88634 0
M  V30 53896 H 5135.38 -0.490315 0.811354 0
M  V30 53897 H 5135.08 -2.29939 2.66122 0
M  V30 53898 H 5134.96 -3.50542 1.39284 0
M  V30 53899 H 5137.35 -2.88542 0.618653 0
M  V30 53900 H 5137.43 -1.68976 1.92044 0
M  V30 53901 H 5137.07 -3.55599 3.62646 0
M  V30 53902 H 5137 -4.73898 2.29626 0
M  V30 53903 H 5139.49 -3.20537 2.00161 0
M  V30 53904 H 5139.8 -6.20225 4.61022 0
M  V30 53905 H 5138.15 -5.58199 4.14052 0
M  V30 53906 H 5141.34 -3.92518 2.55044 0
M  V30 53907 H 5141.51 -5.29191 3.7398 0
M  V30 53908 N 5134.92 -0.722538 -1.40061 0
M  V30 53909 C 5136.15 -0.27491 -2.05065 0
M  V30 53910 C 5136.56 1.0858 -1.54453 0
M  V30 53911 O 5135.92 1.68372 -0.704062 0
M  V30 53912 C 5135.97 -0.253799 -3.60608 0
M  V30 53913 O 5135.69 -1.56079 -4.09354 0
M  V30 53914 C 5137.19 0.211528 -4.42795 0
M  V30 53915 H 5134.41 -0.122284 -0.659763 0
M  V30 53916 H 5136.96 -0.982695 -1.79341 0
M  V30 53917 H 5135.11 0.405002 -3.85277 0
M  V30 53918 H 5135.53 -1.46594 -5.03598 0
M  V30 53919 H 5137 0.175147 -5.51722 0
M  V30 53920 H 5137.48 1.25479 -4.20894 0
M  V30 53921 H 5138.08 -0.417249 -4.23248 0
M  V30 53922 N 5136.4 1.50453 -0.469234 0
M  V30 53923 C 5137.62 2.0722 0.0864163 0
M  V30 53924 C 5138.05 1.33102 1.32911 0
M  V30 53925 O 5137.41 0.378147 1.77313 0
M  V30 53926 C 5137.45 3.58846 0.355258 0
M  V30 53927 O 5136.56 3.86588 1.43609 0
M  V30 53928 H 5135.9 0.663889 -0.0121647 0
M  V30 53929 H 5138.43 1.93671 -0.659742 0
M  V30 53930 H 5138.44 4.03619 0.596305 0
M  V30 53931 H 5137.11 4.12209 -0.552843 0
M  V30 53932 H 5135.69 3.53654 1.1825 0
M  V30 53933 N 5137.88 0.201768 1.56303 0
M  V30 53934 C 5139.12 -0.435882 1.9806 0
M  V30 53935 C 5139.45 -1.60807 1.08879 0
M  V30 53936 O 5138.73 -1.9398 0.142197 0
M  V30 53937 C 5139.01 -0.889584 3.48939 0
M  V30 53938 C 5138.87 0.284882 4.48897 0
M  V30 53939 C 5140.18 -1.75275 4.03691 0
M  V30 53940 H 5137.3 -0.156965 0.720091 0
M  V30 53941 H 5139.95 0.294031 1.87711 0
M  V30 53942 H 5138.1 -1.51154 3.57889 0
M  V30 53943 H 5139.77 0.92269 4.51978 0
M  V30 53944 H 5138.01 0.935576 4.23591 0
M  V30 53945 H 5138.68 -0.0751925 5.51949 0
M  V30 53946 H 5141.16 -1.22816 3.97562 0
M  V30 53947 H 5140.03 -2.03915 5.09617 0
M  V30 53948 H 5140.29 -2.70927 3.49358 0
M  V30 53949 N 5139.35 -1.57436 -0.071787 0
M  V30 53950 C 5140.6 -1.87528 -0.772083 0
M  V30 53951 C 5140.93 -0.794052 -1.77224 0
M  V30 53952 O 5140.21 0.195665 -1.93513 0
M  V30 53953 C 5140.49 -3.28278 -1.48006 0
M  V30 53954 C 5140.34 -4.47053 -0.496313 0
M  V30 53955 C 5141.66 -3.67265 -2.42497 0
M  V30 53956 H 5138.78 -0.682059 -0.279221 0
M  V30 53957 H 5141.42 -1.89967 -0.0352732 0
M  V30 53958 H 5139.57 -3.26329 -2.10812 0
M  V30 53959 H 5141.25 -4.61126 0.126538 0
M  V30 53960 H 5139.49 -4.33391 0.188358 0
M  V30 53961 H 5140.16 -5.42318 -1.0293 0
M  V30 53962 H 5142.64 -3.70307 -1.89768 0
M  V30 53963 H 5141.51 -4.66636 -2.89037 0
M  V30 53964 H 5141.77 -2.97197 -3.27301 0
M  V30 53965 N 5140.83 0.343176 -1.53818 0
M  V30 53966 C 5142.06 1.10784 -1.75333 0
M  V30 53967 C 5142.48 1.81569 -0.491356 0
M  V30 53968 O 5141.84 1.72563 0.556029 0
M  V30 53969 C 5141.89 2.09671 -2.93378 0
M  V30 53970 O 5140.99 3.17197 -2.63552 0
M  V30 53971 H 5140.33 0.320382 -0.581594 0
M  V30 53972 H 5142.86 0.393454 -2.00781 0
M  V30 53973 H 5142.87 2.52885 -3.20176 0
M  V30 53974 H 5141.55 1.57547 -3.84905 0
M  V30 53975 H 5140.12 2.78797 -2.47642 0
M  V30 53976 N 5142.31 1.45558 0.604207 0
M  V30 53977 C 5143.56 1.49751 1.36312 0
M  V30 53978 C 5143.88 0.140585 1.93991 0
M  V30 53979 O 5143.14 -0.861182 1.75733 0
M  V30 53980 C 5143.44 2.52706 2.52734 0
M  V30 53981 C 5143.1 3.97322 2.13181 0
M  V30 53982 C 5141.77 4.36699 2.02107 0
M  V30 53983 C 5144.12 4.88255 1.82362 0
M  V30 53984 C 5141.45 5.64901 1.58443 0
M  V30 53985 C 5143.8 6.16872 1.40183 0
M  V30 53986 C 5142.46 6.55177 1.27671 0
M  V30 53987 H 5141.73 0.547977 0.4988 0
M  V30 53988 H 5144.38 1.78922 0.68258 0
M  V30 53989 H 5142.68 2.17116 3.26141 0
M  V30 53990 H 5144.38 2.53187 3.10962 0
M  V30 53991 H 5140.97 3.66184 2.22726 0
M  V30 53992 H 5145.16 4.58568 1.89813 0
M  V30 53993 H 5140.41 5.93371 1.47381 0
M  V30 53994 H 5144.59 6.86775 1.15384 0
M  V30 53995 H 5142.21 7.54414 0.93611 0
M  V30 53996 N 5143.79 -0.847003 1.32905 0
M  V30 53997 C 5144.74 -1.9776 1.22448 0
M  V30 53998 C 5145.73 -1.68919 0.127606 0
M  V30 53999 O 5146.94 -1.77632 0.291036 0
M  V30 54000 H 5143.31 -0.649059 0.379771 0
M  V30 54001 H 5145.28 -2.03706 2.18052 0
M  V30 54002 C 5144.03 -3.3383 0.972242 0
M  V30 54003 H 5143.35 -3.56558 1.8085 0
M  V30 54004 H 5144.79 -4.13464 0.939354 0
M  V30 54005 C 5143.25 -3.35329 -0.324942 0
M  V30 54006 O 5143.78 -3.78892 -1.33432 0
M  V30 54007 N 5141.99 -2.88489 -0.349616 0
M  V30 54008 H 5141.54 -2.53233 0.472325 0
M  V30 54009 H 5141.49 -2.89875 -1.21738 0
M  V30 54010 N 5145.27 -1.1624 -1.06424 0
M  V30 54011 C 5146.18 -0.882052 -2.17387 0
M  V30 54012 C 5147.19 0.145198 -1.73393 0
M  V30 54013 O 5148.37 -0.0311266 -2.01376 0
M  V30 54014 C 5145.43 -0.385617 -3.44549 0
M  V30 54015 C 5144.49 -1.47793 -4.03058 0
M  V30 54016 C 5143.73 -1.00509 -5.2415 0
M  V30 54017 O 5143.95 0.145689 -5.70214 0
M  V30 54018 O 5142.88 -1.79285 -5.74578 0
M  V30 54019 H 5146.71 -1.80992 -2.43876 0
M  V30 54020 H 5144.3 -0.942267 -1.15938 0
M  V30 54021 H 5146.18 -0.115684 -4.21241 0
M  V30 54022 H 5144.85 0.514257 -3.19589 0
M  V30 54023 H 5143.76 -1.80159 -3.27862 0
M  V30 54024 H 5145.09 -2.35306 -4.3231 0
M  V30 54025 N 5146.74 1.24935 -0.960675 0
M  V30 54026 C 5147.99 1.93423 -0.629223 0
M  V30 54027 C 5148.35 1.73787 0.825574 0
M  V30 54028 O 5147.64 1.07601 1.58533 0
M  V30 54029 C 5147.83 3.45063 -0.93093 0
M  V30 54030 C 5147.66 3.79447 -2.41351 0
M  V30 54031 C 5146.43 4.01185 -3.07212 0
M  V30 54032 C 5148.63 3.8648 -3.39319 0
M  V30 54033 N 5146.61 4.2261 -4.45279 0
M  V30 54034 C 5147.98 4.12666 -4.62717 0
M  V30 54035 C 5150.04 3.69187 -3.34074 0
M  V30 54036 C 5148.74 4.23356 -5.81517 0
M  V30 54037 C 5150.77 3.81119 -4.52219 0
M  V30 54038 C 5150.13 4.07723 -5.74405 0
M  V30 54039 H 5146.23 0.729781 -0.280968 0
M  V30 54040 H 5148.81 1.50593 -1.23409 0
M  V30 54041 H 5146.98 3.86775 -0.354937 0
M  V30 54042 H 5148.71 4.00824 -0.558768 0
M  V30 54043 H 5145.47 3.9731 -2.57764 0
M  V30 54044 H 5145.89 4.37317 -5.16801 0
M  V30 54045 H 5150.54 3.47631 -2.40651 0
M  V30 54046 H 5148.25 4.43726 -6.75376 0
M  V30 54047 H 5151.84 3.69117 -4.49715 0
M  V30 54048 H 5150.72 4.16745 -6.64299 0
M  V30 54049 N 5148.22 0.729956 1.39676 0
M  V30 54050 C 5149.19 0.0952473 2.29002 0
M  V30 54051 C 5150.19 -0.67242 1.46066 0
M  V30 54052 O 5151.38 -0.502186 1.66804 0
M  V30 54053 C 5148.51 -0.874515 3.29492 0
M  V30 54054 H 5149.7 0.882162 2.86632 0
M  V30 54055 H 5147.25 0.495476 1.48239 0
M  V30 54056 H 5147.99 -1.68797 2.76908 0
M  V30 54057 H 5147.77 -0.326756 3.90736 0
M  V30 54058 H 5149.26 -1.31534 3.96344 0
M  V30 54059 N 5149.7 -1.50202 0.477206 0
M  V30 54060 C 5150.63 -2.31518 -0.303565 0
M  V30 54061 C 5151.61 -1.387 -0.984704 0
M  V30 54062 O 5152.8 -1.67618 -0.980699 0
M  V30 54063 C 5149.93 -3.18602 -1.38238 0
M  V30 54064 C 5148.88 -4.20023 -0.822498 0
M  V30 54065 C 5148.21 -4.95885 -2.00006 0
M  V30 54066 C 5149.51 -5.22022 0.170369 0
M  V30 54067 H 5151.2 -2.97041 0.375132 0
M  V30 54068 H 5148.75 -1.42847 0.181853 0
M  V30 54069 H 5150.7 -3.74289 -1.93612 0
M  V30 54070 H 5149.42 -2.50977 -2.08993 0
M  V30 54071 H 5148.08 -3.65446 -0.290684 0
M  V30 54072 H 5147.73 -4.24727 -2.69474 0
M  V30 54073 H 5147.43 -5.64492 -1.63163 0
M  V30 54074 H 5148.95 -5.54408 -2.55859 0
M  V30 54075 H 5150.37 -5.72544 -0.294405 0
M  V30 54076 H 5148.77 -5.98385 0.453391 0
M  V30 54077 H 5149.84 -4.72392 1.09425 0
M  V30 54078 N 5151.18 -0.210054 -1.56194 0
M  V30 54079 C 5152.14 0.691155 -2.18531 0
M  V30 54080 C 5153.14 1.13009 -1.14392 0
M  V30 54081 O 5154.33 1.04076 -1.39692 0
M  V30 54082 C 5151.46 1.94541 -2.79941 0
M  V30 54083 H 5152.66 0.147848 -2.99535 0
M  V30 54084 H 5150.21 0.0395693 -1.5625 0
M  V30 54085 H 5150.94 2.53086 -2.02775 0
M  V30 54086 H 5150.73 1.63925 -3.5619 0
M  V30 54087 H 5152.22 2.58773 -3.27759 0
M  V30 54088 N 5152.66 1.57472 0.0634368 0
M  V30 54089 C 5153.6 2.05311 1.09316 0
M  V30 54090 C 5154.6 0.960044 1.39569 0
M  V30 54091 O 5155.8 1.14512 1.38878 0
M  V30 54092 H 5152.18 0.654733 0.369904 0
M  V30 54093 H 5154.15 2.90928 0.663604 0
M  V30 54094 C 5152.9 2.51963 2.39604 0
M  V30 54095 H 5152.22 3.35669 2.17178 0
M  V30 54096 H 5153.66 2.8918 3.10082 0
M  V30 54097 C 5152.12 1.40607 3.06156 0
M  V30 54098 O 5152.65 0.752861 3.94582 0
M  V30 54099 N 5150.86 1.14911 2.66915 0
M  V30 54100 H 5150.4 1.68212 1.95096 0
M  V30 54101 H 5150.36 0.406116 3.11766 0
M  V30 54102 N 5154.13 -0.335013 1.53998 0
M  V30 54103 C 5155.07 -1.43263 1.78908 0
M  V30 54104 C 5156.08 -1.48345 0.67065 0
M  V30 54105 O 5157.27 -1.51274 0.947547 0
M  V30 54106 C 5154.37 -2.81871 1.88154 0
M  V30 54107 C 5153.54 -3.00129 3.18184 0
M  V30 54108 C 5152.6 -4.1903 3.18277 0
M  V30 54109 O 5151.63 -4.12737 3.91965 0
M  V30 54110 N 5152.83 -5.27995 2.41249 0
M  V30 54111 H 5155.59 -1.22262 2.73628 0
M  V30 54112 H 5153.15 -0.524942 1.53153 0
M  V30 54113 H 5155.15 -3.59602 1.85657 0
M  V30 54114 H 5153.72 -2.95976 1.00583 0
M  V30 54115 H 5152.94 -2.09796 3.33735 0
M  V30 54116 H 5154.22 -3.09216 4.04058 0
M  V30 54117 H 5153.62 -5.35979 1.80949 0
M  V30 54118 H 5152.18 -6.04188 2.44542 0
M  V30 54119 N 5155.61 -1.45876 -0.596479 0
M  V30 54120 C 5156.86 -1.50472 -1.35516 0
M  V30 54121 C 5157.19 -0.15087 -1.93914 0
M  V30 54122 O 5156.44 0.851851 -1.76187 0
M  V30 54123 C 5156.74 -2.54043 -2.5139 0
M  V30 54124 C 5156.41 -3.98447 -2.1107 0
M  V30 54125 C 5155.07 -4.37765 -1.99789 0
M  V30 54126 C 5157.42 -4.89216 -1.79771 0
M  V30 54127 C 5154.75 -5.65733 -1.55445 0
M  V30 54128 C 5157.1 -6.17607 -1.3691 0
M  V30 54129 C 5155.77 -6.55844 -1.24195 0
M  V30 54130 H 5155.04 -0.550615 -0.495887 0
M  V30 54131 H 5157.68 -1.79282 -0.673082 0
M  V30 54132 H 5155.99 -2.18843 -3.24985 0
M  V30 54133 H 5157.68 -2.54833 -3.09615 0
M  V30 54134 H 5154.27 -3.6736 -2.20781 0
M  V30 54135 H 5158.46 -4.59568 -1.87379 0
M  V30 54136 H 5153.71 -5.94144 -1.44232 0
M  V30 54137 H 5157.89 -6.87377 -1.1174 0
M  V30 54138 H 5155.52 -7.549 -0.896088 0
M  V30 54139 N 5157.09 0.839943 -1.33352 0
M  V30 54140 C 5158.32 1.62723 -1.27784 0
M  V30 54141 C 5158.73 1.88192 0.151439 0
M  V30 54142 O 5158.09 1.46132 1.09324 0
M  V30 54143 C 5158.14 2.97806 -2.04924 0
M  V30 54144 O 5157.86 2.73457 -3.42276 0
M  V30 54145 C 5159.36 3.92238 -2.06554 0
M  V30 54146 H 5156.58 0.506358 -0.440275 0
M  V30 54147 H 5159.13 1.04631 -1.75706 0
M  V30 54148 H 5157.28 3.52503 -1.60686 0
M  V30 54149 H 5157.7 3.5947 -3.81945 0
M  V30 54150 H 5159.17 4.8424 -2.64983 0
M  V30 54151 H 5159.65 4.26328 -1.05552 0
M  V30 54152 H 5160.25 3.43478 -2.50805 0
M  V30 54153 N 5158.57 1.16803 1.05806 0
M  V30 54154 C 5159.48 0.893569 2.16916 0
M  V30 54155 C 5160.49 -0.136001 1.73468 0
M  V30 54156 O 5161.67 0.0418056 2.01357 0
M  V30 54157 C 5158.74 0.403884 3.44339 0
M  V30 54158 C 5157.8 1.49928 4.02269 0
M  V30 54159 C 5157.03 1.03287 5.2361 0
M  V30 54160 O 5157.25 -0.115447 5.70283 0
M  V30 54161 O 5156.19 1.8233 5.7362 0
M  V30 54162 H 5160.01 1.82283 2.42913 0
M  V30 54163 H 5157.6 0.948402 1.15437 0
M  V30 54164 H 5159.48 0.138022 4.21174 0
M  V30 54165 H 5158.15 -0.497301 3.19857 0
M  V30 54166 H 5157.06 1.81895 3.26902 0
M  V30 54167 H 5158.39 2.37595 4.31056 0
M  V30 54168 N 5160.05 -1.24424 0.967287 0
M  V30 54169 C 5161.29 -1.92485 0.628948 0
M  V30 54170 C 5161.62 -1.75626 -0.835809 0
M  V30 54171 O 5160.88 -1.10276 -1.61671 0
M  V30 54172 C 5161.18 -3.44564 0.949217 0
M  V30 54173 C 5160.84 -3.81592 2.40205 0
M  V30 54174 C 5159.5 -3.9141 2.79913 0
M  V30 54175 C 5161.86 -3.99703 3.34495 0
M  V30 54176 C 5159.18 -4.16756 4.12954 0
M  V30 54177 C 5161.54 -4.26546 4.67163 0
M  V30 54178 C 5160.2 -4.34583 5.0665 0
M  V30 54179 H 5159.47 -0.704353 0.230148 0
M  V30 54180 H 5162.12 -1.47716 1.2187 0
M  V30 54181 H 5160.42 -3.90818 0.277223 0
M  V30 54182 H 5162.12 -3.95434 0.665831 0
M  V30 54183 H 5158.71 -3.74515 2.08415 0
M  V30 54184 H 5162.89 -3.9152 3.05001 0
M  V30 54185 H 5158.15 -4.21198 4.43173 0
M  V30 54186 H 5162.32 -4.39504 5.40194 0
M  V30 54187 H 5159.95 -4.53976 6.09762 0
M  V30 54188 N 5161.53 -0.737353 -1.39287 0
M  V30 54189 C 5162.77 -0.286751 -2.00762 0
M  V30 54190 C 5163.1 1.12383 -1.58379 0
M  V30 54191 O 5162.38 1.76658 -0.813761 0
M  V30 54192 C 5162.66 -0.391273 -3.57968 0
M  V30 54193 C 5162.52 -1.84179 -4.10363 0
M  V30 54194 C 5163.83 0.224918 -4.39525 0
M  V30 54195 H 5160.95 -0.105668 -0.729386 0
M  V30 54196 H 5163.6 -0.93395 -1.65461 0
M  V30 54197 H 5161.75 0.159739 -3.88171 0
M  V30 54198 H 5163.42 -2.44986 -3.9087 0
M  V30 54199 H 5161.66 -2.36233 -3.63836 0
M  V30 54200 H 5162.33 -1.86618 -5.19498 0
M  V30 54201 H 5164.81 -0.244823 -4.15379 0
M  V30 54202 H 5163.68 0.121453 -5.48766 0
M  V30 54203 H 5163.94 1.31126 -4.22207 0
M  V30 54204 N 5163 1.49946 -0.485165 0
M  V30 54205 C 5164.25 2.01996 0.0648065 0
M  V30 54206 C 5164.57 1.36824 1.3894 0
M  V30 54207 O 5163.84 0.518229 1.88921 0
M  V30 54208 H 5162.42 0.746514 0.02694 0
M  V30 54209 H 5165.08 1.84134 -0.638797 0
M  V30 54210 H 5164.18 3.11419 0.206061 0
M  V30 54211 N 5164.48 0.218335 1.5608 0
M  V30 54212 C 5165.71 -0.419186 2.02609 0
M  V30 54213 C 5166.12 -1.53575 1.09819 0
M  V30 54214 O 5165.48 -1.82185 0.107213 0
M  V30 54215 C 5165.53 -0.953833 3.48689 0
M  V30 54216 O 5165.25 0.118204 4.37941 0
M  V30 54217 C 5166.75 -1.66492 4.10847 0
M  V30 54218 H 5163.97 -0.102936 0.663057 0
M  V30 54219 H 5166.52 0.333847 2.01757 0
M  V30 54220 H 5164.67 -1.65715 3.50167 0
M  V30 54221 H 5165.09 -0.283175 5.23735 0
M  V30 54222 H 5166.56 -1.99105 5.14841 0
M  V30 54223 H 5167.04 -2.57692 3.55656 0
M  V30 54224 H 5167.64 -1.00688 4.13209 0
M  V30 54225 N 5165.96 -1.57504 -0.0550848 0
M  V30 54226 C 5166.89 -2.01584 -1.09071 0
M  V30 54227 C 5167.9 -0.924387 -1.34011 0
M  V30 54228 O 5169.09 -1.20207 -1.31957 0
M  V30 54229 C 5166.19 -2.35393 -2.4381 0
M  V30 54230 C 5165.37 -3.66596 -2.38592 0
M  V30 54231 C 5164.43 -3.87886 -3.55571 0
M  V30 54232 O 5163.45 -4.59271 -3.36242 0
M  V30 54233 N 5164.65 -3.3152 -4.76524 0
M  V30 54234 H 5167.42 -2.91042 -0.715187 0
M  V30 54235 H 5164.98 -1.60059 -0.243476 0
M  V30 54236 H 5166.97 -2.46795 -3.2074 0
M  V30 54237 H 5165.54 -1.51741 -2.73301 0
M  V30 54238 H 5164.76 -3.65792 -1.46934 0
M  V30 54239 H 5166.05 -4.52714 -2.32223 0
M  V30 54240 H 5165.45 -2.73609 -4.95131 0
M  V30 54241 H 5164 -3.48344 -5.50908 0
M  V30 54242 N 5167.44 0.326842 -1.54174 0
M  V30 54243 C 5168.66 1.08918 -1.76498 0
M  V30 54244 C 5169.09 1.81038 -0.510587 0
M  V30 54245 O 5168.45 1.73143 0.537695 0
M  V30 54246 C 5168.49 2.06547 -2.95585 0
M  V30 54247 O 5167.6 3.14384 -2.66901 0
M  V30 54248 H 5166.94 0.314195 -0.584959 0
M  V30 54249 H 5169.47 0.372137 -2.01187 0
M  V30 54250 H 5169.48 2.49475 -3.22841 0
M  V30 54251 H 5168.15 1.53456 -3.86554 0
M  V30 54252 H 5166.73 2.76155 -2.50585 0
M  V30 54253 N 5168.92 1.46191 0.588735 0
M  V30 54254 C 5170.16 1.51412 1.34915 0
M  V30 54255 C 5170.49 0.162839 1.93516 0
M  V30 54256 O 5169.77 -0.82502 1.76135 0
M  V30 54257 C 5170.05 2.60803 2.48302 0
M  V30 54258 C 5169.91 4.05441 1.94775 0
M  V30 54259 C 5171.22 2.66325 3.5037 0
M  V30 54260 H 5168.34 0.55123 0.489198 0
M  V30 54261 H 5170.99 1.78097 0.66193 0
M  V30 54262 H 5169.14 2.3818 3.06924 0
M  V30 54263 H 5170.81 4.39333 1.40656 0
M  V30 54264 H 5169.05 4.15206 1.25644 0
M  V30 54265 H 5169.72 4.77701 2.76596 0
M  V30 54266 H 5172.2 2.86645 3.01619 0
M  V30 54267 H 5171.07 3.44696 4.27172 0
M  V30 54268 H 5171.33 1.72141 4.0721 0
M  V30 54269 N 5170.39 -0.832859 1.33795 0
M  V30 54270 C 5171.67 -1.57355 1.16184 0
M  V30 54271 C 5172.05 -2.09373 -0.269458 0
M  V30 54272 O 5171.4 -1.89998 -1.26937 0
M  V30 54273 C 5171.61 -2.70271 2.20804 0
M  V30 54274 C 5172.96 -3.39296 2.55271 0
M  V30 54275 O 5173.98 -2.80518 2.19518 0
M  V30 54276 O 5172.84 -4.45417 3.16648 0
M  V30 54277 H 5169.93 -0.694009 0.449755 0
M  V30 54278 H 5172.48 -0.875093 1.45397 0
M  V30 54279 H 5171.25 -2.29516 3.16919 0
M  V30 54280 H 5170.87 -3.47776 1.92712 0
M  V30 54281 N 5171.87 -1.17362 -1.05185 0
M  V30 54282 C 5172.8 -0.833842 -2.1242 0
M  V30 54283 C 5173.78 0.199394 -1.61373 0
M  V30 54284 O 5174.97 0.0809128 -1.88326 0
M  V30 54285 C 5172.09 -0.243864 -3.37821 0
M  V30 54286 C 5171.14 -1.2525 -4.07694 0
M  V30 54287 S 5171.97 -2.80384 -4.56229 0
M  V30 54288 C 5173.13 -2.22866 -5.84877 0
M  V30 54289 H 5173.36 -1.74205 -2.40914 0
M  V30 54290 H 5170.89 -0.998284 -1.17786 0
M  V30 54291 H 5172.85 0.0900472 -4.10401 0
M  V30 54292 H 5171.51 0.642288 -3.07463 0
M  V30 54293 H 5170.71 -0.788343 -4.97796 0
M  V30 54294 H 5170.31 -1.53206 -3.4118 0
M  V30 54295 H 5172.6 -1.60426 -6.58232 0
M  V30 54296 H 5173.54 -3.11223 -6.36039 0
M  V30 54297 H 5173.95 -1.66315 -5.39444 0
M  V30 54298 N 5173.35 1.23909 -0.973872 0
M  V30 54299 C 5174.28 2.27451 -0.528049 0
M  V30 54300 C 5175.26 1.64432 0.435455 0
M  V30 54301 O 5176.45 1.91372 0.330239 0
M  V30 54302 C 5173.58 3.46851 0.176635 0
M  V30 54303 C 5172.53 4.22179 -0.703501 0
M  V30 54304 C 5171.86 5.34534 0.133027 0
M  V30 54305 C 5173.16 4.82858 -1.99113 0
M  V30 54306 H 5174.85 2.64995 -1.39349 0
M  V30 54307 H 5172.4 1.27385 -0.671491 0
M  V30 54308 H 5174.35 4.18426 0.499787 0
M  V30 54309 H 5173.07 3.0835 1.07648 0
M  V30 54310 H 5171.73 3.52412 -1.01001 0
M  V30 54311 H 5171.38 4.92274 1.03321 0
M  V30 54312 H 5171.08 5.85854 -0.4527 0
M  V30 54313 H 5172.6 6.08934 0.45071 0
M  V30 54314 H 5174.02 5.46475 -1.73316 0
M  V30 54315 H 5172.41 5.44435 -2.52409 0
M  V30 54316 H 5173.48 4.03967 -2.68214 0
M  V30 54317 N 5174.83 0.744729 1.38894 0
M  V30 54318 C 5175.79 0.119531 2.28888 0
M  V30 54319 C 5176.79 -0.65689 1.46771 0
M  V30 54320 O 5177.98 -0.484466 1.67328 0
M  V30 54321 C 5175.11 -0.839519 3.30401 0
M  V30 54322 H 5176.31 0.912514 2.8568 0
M  V30 54323 H 5173.86 0.511171 1.47705 0
M  V30 54324 H 5174.59 -1.6585 2.78683 0
M  V30 54325 H 5174.38 -0.285295 3.91061 0
M  V30 54326 H 5175.87 -1.27323 3.97717 0
M  V30 54327 N 5176.31 -1.49687 0.49311 0
M  V30 54328 C 5177.55 -2.02727 -0.0542806 0
M  V30 54329 C 5177.89 -1.37269 -1.37371 0
M  V30 54330 O 5177.16 -0.50571 -1.87811 0
M  V30 54331 C 5177.44 -3.59457 -0.215099 0
M  V30 54332 C 5177.3 -4.35455 1.1269 0
M  V30 54333 C 5178.62 -4.29515 -0.959435 0
M  V30 54334 H 5175.73 -0.736774 -0.0182527 0
M  V30 54335 H 5178.38 -1.78789 0.642987 0
M  V30 54336 H 5176.53 -3.79984 -0.808988 0
M  V30 54337 H 5178.2 -4.26444 1.75906 0
M  V30 54338 H 5176.44 -3.98324 1.71815 0
M  V30 54339 H 5177.11 -5.4345 0.967769 0
M  V30 54340 H 5179.59 -4.13596 -0.455831 0
M  V30 54341 H 5178.46 -5.38942 -1.04079 0
M  V30 54342 H 5178.73 -3.94209 -2.0013 0
M  V30 54343 N 5177.78 -0.226609 -1.55962 0
M  V30 54344 C 5178.73 0.681427 -2.20511 0
M  V30 54345 C 5179.7 1.18656 -1.16233 0
M  V30 54346 O 5180.89 1.24473 -1.44607 0
M  V30 54347 C 5178.03 1.88173 -2.89283 0
M  V30 54348 C 5177.14 1.41503 -4.08168 0
M  V30 54349 C 5176.27 2.5733 -4.64709 0
M  V30 54350 C 5175.31 2.07421 -5.75885 0
M  V30 54351 N 5174.45 3.16539 -6.26696 0
M  V30 54352 H 5179.29 0.124267 -2.97741 0
M  V30 54353 H 5176.83 0.0495816 -1.47016 0
M  V30 54354 H 5178.79 2.58654 -3.27344 0
M  V30 54355 H 5177.42 2.41169 -2.14563 0
M  V30 54356 H 5176.47 0.604967 -3.75559 0
M  V30 54357 H 5177.78 1.0091 -4.88486 0
M  V30 54358 H 5176.93 3.35885 -5.05239 0
M  V30 54359 H 5175.67 3.01213 -3.83565 0
M  V30 54360 H 5174.68 1.27329 -5.34853 0
M  V30 54361 H 5175.9 1.64531 -6.58868 0
M  V30 54362 H 5173.85 3.59895 -5.48463 0
M  V30 54363 H 5173.77 2.80214 -7.02151 0
M  V30 54364 H 5175.03 3.95214 -6.71882 0
M  V30 54365 N 5179.26 1.57531 0.0467312 0
M  V30 54366 C 5180.49 1.92699 0.753303 0
M  V30 54367 C 5180.91 0.824852 1.69828 0
M  V30 54368 O 5180.26 -0.200091 1.814 0
M  V30 54369 C 5180.31 3.27733 1.52555 0
M  V30 54370 O 5180.03 4.33712 0.618522 0
M  V30 54371 C 5181.54 3.77074 2.33087 0
M  V30 54372 H 5178.76 0.636374 0.212765 0
M  V30 54373 H 5181.3 2.04498 0.00952172 0
M  V30 54374 H 5179.45 3.17386 2.22137 0
M  V30 54375 H 5179.87 5.11552 1.15821 0
M  V30 54376 H 5181.34 4.74119 2.82693 0
M  V30 54377 H 5181.82 3.07359 3.13731 0
M  V30 54378 H 5182.43 3.90448 1.68614 0
M  V30 54379 N 5180.74 -0.318661 1.54345 0
M  V30 54380 C 5181.99 -1.05394 1.72443 0
M  V30 54381 C 5182.31 -1.88386 0.503562 0
M  V30 54382 O 5181.58 -1.89868 -0.482393 0
M  V30 54383 H 5180.16 -0.392102 0.635819 0
M  V30 54384 H 5182.82 -0.353913 1.9166 0
M  V30 54385 H 5181.92 -1.71716 2.60614 0
M  V30 54386 N 5182.22 -1.46501 -0.580974 0
M  V30 54387 C 5183.46 -1.52126 -1.34111 0
M  V30 54388 C 5183.8 -0.173099 -1.93427 0
M  V30 54389 O 5183.07 0.815667 -1.7657 0
M  V30 54390 C 5183.36 -2.62116 -2.46915 0
M  V30 54391 C 5183.21 -4.06469 -1.92622 0
M  V30 54392 C 5184.53 -2.68179 -3.48953 0
M  V30 54393 H 5181.65 -0.553817 -0.486268 0
M  V30 54394 H 5184.29 -1.78445 -0.652476 0
M  V30 54395 H 5182.44 -2.39805 -3.05657 0
M  V30 54396 H 5184.11 -4.40073 -1.38324 0
M  V30 54397 H 5182.35 -4.15866 -1.2344 0
M  V30 54398 H 5183.02 -4.79161 -2.74059 0
M  V30 54399 H 5185.5 -2.88241 -3.00094 0
M  V30 54400 H 5184.38 -3.46957 -4.25338 0
M  V30 54401 H 5184.64 -1.74298 -4.06291 0
M  V30 54402 N 5183.7 0.825752 -1.34235 0
M  V30 54403 C 5184.66 1.91804 -1.25475 0
M  V30 54404 C 5185.66 1.59892 -0.170623 0
M  V30 54405 O 5186.85 1.68985 -0.423056 0
M  V30 54406 C 5183.98 3.27783 -0.936556 0
M  V30 54407 H 5185.17 2.00995 -2.22578 0
M  V30 54408 H 5182.73 1.01939 -1.18482 0
M  V30 54409 H 5183.46 3.24285 0.0314268 0
M  V30 54410 H 5183.25 3.52327 -1.7207 0
M  V30 54411 H 5184.74 4.07779 -0.900358 0
M  V30 54412 N 5185.17 1.17918 1.04561 0
M  V30 54413 C 5186.42 0.965878 1.7707 0
M  V30 54414 C 5186.74 -0.505938 1.88943 0
M  V30 54415 O 5187.94 -0.837626 2.58256 0
M  V30 54416 C 5186.4 1.67905 3.18333 0
M  V30 54417 C 5186.01 3.18983 3.14569 0
M  V30 54418 C 5187.75 1.54837 3.95254 0
M  V30 54419 C 5185.66 3.82961 4.5066 0
M  V30 54420 H 5184.59 0.357753 0.663724 0
M  V30 54421 H 5187.24 1.41239 1.17148 0
M  V30 54422 H 5185.62 1.16029 3.7862 0
M  V30 54423 H 5186.79 3.77844 2.63762 0
M  V30 54424 H 5185.11 3.32136 2.51147 0
M  V30 54425 H 5187.71 2.00001 4.95887 0
M  V30 54426 H 5188.05 0.499873 4.13288 0
M  V30 54427 H 5188.58 2.03965 3.4153 0
M  V30 54428 H 5185.32 4.87836 4.37831 0
M  V30 54429 H 5184.84 3.28888 5.0159 0
M  V30 54430 H 5186.52 3.85537 5.19587 0
M  V30 54431 N 5186.65 -1.23391 0.980429 0
M  V30 54432 C 5187.56 -2.28559 0.528944 0
M  V30 54433 C 5188.58 -1.68947 -0.416269 0
M  V30 54434 O 5189.75 -1.99356 -0.28618 0
M  V30 54435 C 5186.82 -3.46324 -0.161428 0
M  V30 54436 C 5185.88 -4.21295 0.825192 0
M  V30 54437 C 5185.11 -5.33437 0.167671 0
M  V30 54438 O 5185.34 -5.60815 -1.04126 0
M  V30 54439 O 5184.27 -5.95634 0.866256 0
M  V30 54440 H 5188.1 -2.69321 1.40356 0
M  V30 54441 H 5185.68 -1.29323 0.748065 0
M  V30 54442 H 5187.56 -4.17813 -0.548694 0
M  V30 54443 H 5186.24 -3.07513 -1.01081 0
M  V30 54444 H 5185.15 -3.52129 1.26316 0
M  V30 54445 H 5186.48 -4.63955 1.64338 0
M  V30 54446 N 5188.13 -0.752084 -1.38497 0
M  V30 54447 C 5189.06 -0.0835894 -2.29048 0
M  V30 54448 C 5190.08 0.68535 -1.47671 0
M  V30 54449 O 5191.26 0.526688 -1.70553 0
M  V30 54450 C 5188.36 0.905657 -3.26575 0
M  V30 54451 C 5187.54 0.194674 -4.36967 0
M  V30 54452 C 5186.6 1.09445 -5.14692 0
M  V30 54453 O 5185.62 0.565544 -5.66383 0
M  V30 54454 N 5186.82 2.42269 -5.27528 0
M  V30 54455 H 5189.59 -0.861243 -2.87059 0
M  V30 54456 H 5187.15 -0.602742 -1.50262 0
M  V30 54457 H 5189.14 1.51059 -3.75451 0
M  V30 54458 H 5187.71 1.5844 -2.69473 0
M  V30 54459 H 5186.93 -0.590949 -3.89745 0
M  V30 54460 H 5188.22 -0.297367 -5.0793 0
M  V30 54461 H 5187.62 2.87697 -4.8708 0
M  V30 54462 H 5186.18 2.97816 -5.79783 0
M  V30 54463 N 5189.61 1.49423 -0.501041 0
M  V30 54464 C 5190.54 2.31972 0.266694 0
M  V30 54465 C 5191.52 1.40249 0.962513 0
M  V30 54466 O 5192.71 1.69157 0.953908 0
M  V30 54467 C 5189.84 3.20761 1.33152 0
M  V30 54468 C 5188.79 4.21278 0.755572 0
M  V30 54469 C 5188.12 4.99004 1.92092 0
M  V30 54470 C 5189.42 5.21685 -0.253396 0
M  V30 54471 H 5191.11 2.96406 -0.422341 0
M  V30 54472 H 5188.66 1.4254 -0.204555 0
M  V30 54473 H 5190.61 3.77322 1.87633 0
M  V30 54474 H 5189.33 2.5427 2.04974 0
M  V30 54475 H 5187.99 3.65862 0.232508 0
M  V30 54476 H 5187.64 4.2896 2.62682 0
M  V30 54477 H 5187.34 5.67017 1.54162 0
M  V30 54478 H 5188.86 5.58409 2.47006 0
M  V30 54479 H 5190.28 5.72939 0.203281 0
M  V30 54480 H 5188.67 5.97588 -0.548532 0
M  V30 54481 H 5189.74 4.70591 -1.16926 0
M  V30 54482 N 5191.09 0.234877 1.5584 0
M  V30 54483 C 5192.02 -0.664138 2.23856 0
M  V30 54484 C 5193 -1.19071 1.21474 0
M  V30 54485 O 5194.18 -1.23227 1.50096 0
M  V30 54486 C 5191.31 -1.86656 2.92877 0
M  V30 54487 C 5190.27 -1.47327 4.01844 0
M  V30 54488 C 5189.59 -2.75555 4.58229 0
M  V30 54489 C 5190.89 -0.653297 5.18198 0
M  V30 54490 H 5192.59 -0.0970161 2.99243 0
M  V30 54491 H 5190.13 -0.0452218 1.43929 0
M  V30 54492 H 5192.09 -2.50104 3.39155 0
M  V30 54493 H 5190.81 -2.45887 2.14959 0
M  V30 54494 H 5189.47 -0.862189 3.56317 0
M  V30 54495 H 5189.12 -3.32958 3.77025 0
M  V30 54496 H 5188.82 -2.49968 5.3178 0
M  V30 54497 H 5190.34 -3.39922 5.07233 0
M  V30 54498 H 5191.76 -1.19179 5.60776 0
M  V30 54499 H 5190.15 -0.493978 5.98063 0
M  V30 54500 H 5191.22 0.337174 4.83726 0
M  V30 54501 N 5192.57 -1.57553 -0.0383763 0
M  V30 54502 C 5193.8 -1.92816 -0.741996 0
M  V30 54503 C 5194.2 -0.832216 -1.69914 0
M  V30 54504 O 5193.55 0.200853 -1.82599 0
M  V30 54505 C 5193.61 -3.23812 -1.56161 0
M  V30 54506 C 5193.27 -4.50462 -0.770248 0
M  V30 54507 C 5194.27 -5.19846 -0.0746179 0
M  V30 54508 C 5191.95 -4.97003 -0.727539 0
M  V30 54509 C 5193.95 -6.34045 0.653125 0
M  V30 54510 C 5191.64 -6.111 0.00395475 0
M  V30 54511 C 5192.63 -6.79475 0.693055 0
M  V30 54512 O 5192.32 -7.9139 1.41269 0
M  V30 54513 H 5192.05 -0.641181 -0.214156 0
M  V30 54514 H 5194.61 -2.054 -0.00277875 0
M  V30 54515 H 5192.84 -3.07529 -2.34442 0
M  V30 54516 H 5194.53 -3.4447 -2.14697 0
M  V30 54517 H 5195.29 -4.849 -0.0987045 0
M  V30 54518 H 5191.17 -4.43634 -1.2534 0
M  V30 54519 H 5194.72 -6.87349 1.19154 0
M  V30 54520 H 5190.61 -6.45493 0.0299973 0
M  V30 54521 H 5191.38 -8.07698 1.32541 0
M  V30 54522 N 5194.04 0.310471 -1.54512 0
M  V30 54523 C 5195.01 1.36564 -1.84073 0
M  V30 54524 C 5196.01 1.44121 -0.713148 0
M  V30 54525 O 5197.2 1.43921 -0.981449 0
M  V30 54526 C 5194.33 2.75155 -2.01252 0
M  V30 54527 H 5195.52 1.116 -2.78362 0
M  V30 54528 H 5193.07 0.546648 -1.46429 0
M  V30 54529 H 5193.81 3.05355 -1.09219 0
M  V30 54530 H 5193.59 2.71062 -2.83316 0
M  V30 54531 H 5195.08 3.51465 -2.25526 0
M  V30 54532 N 5195.52 1.46807 0.573196 0
M  V30 54533 C 5196.77 1.51873 1.32731 0
M  V30 54534 C 5197.08 0.178834 1.94781 0
M  V30 54535 O 5198.29 0.107367 2.71288 0
M  V30 54536 C 5196.75 2.6765 2.40607 0
M  V30 54537 C 5196.35 4.08101 1.84818 0
M  V30 54538 C 5198.1 2.81995 3.173 0
M  V30 54539 C 5196 5.15203 2.90379 0
M  V30 54540 H 5194.93 0.565248 0.49901 0
M  V30 54541 H 5197.59 1.73042 0.610634 0
M  V30 54542 H 5195.97 2.39829 3.15116 0
M  V30 54543 H 5197.14 4.45755 1.16788 0
M  V30 54544 H 5195.46 3.98504 1.20761 0
M  V30 54545 H 5198.05 3.5918 3.96098 0
M  V30 54546 H 5198.4 1.89855 3.70487 0
M  V30 54547 H 5198.93 3.09508 2.49899 0
M  V30 54548 H 5195.67 6.09167 2.42067 0
M  V30 54549 H 5195.19 4.82084 3.56869 0
M  V30 54550 H 5196.87 5.41461 3.5416 0
M  V30 54551 N 5197 -0.818622 1.34671 0
M  V30 54552 C 5197.93 -1.9375 1.22449 0
M  V30 54553 C 5198.94 -1.62102 0.150558 0
M  V30 54554 O 5200.13 -1.73896 0.402789 0
M  V30 54555 C 5197.23 -3.27803 0.860146 0
M  V30 54556 C 5196.41 -3.87443 2.02995 0
M  V30 54557 C 5195.47 -4.99881 1.64332 0
M  V30 54558 O 5194.49 -5.17948 2.36047 0
M  V30 54559 N 5195.69 -5.77793 0.559963 0
M  V30 54560 H 5198.46 -2.04766 2.1884 0
M  V30 54561 H 5196.02 -0.995427 1.27683 0
M  V30 54562 H 5198.01 -4.00476 0.583209 0
M  V30 54563 H 5196.58 -3.12597 -0.0137154 0
M  V30 54564 H 5195.8 -3.0711 2.47138 0
M  V30 54565 H 5197.09 -4.24021 2.81219 0
M  V30 54566 H 5196.49 -5.65688 -0.0361341 0
M  V30 54567 H 5195.04 -6.50898 0.34277 0
M  V30 54568 N 5198.48 -1.18471 -1.03934 0
M  V30 54569 C 5199.41 -0.87069 -2.12018 0
M  V30 54570 C 5200.42 0.132261 -1.62262 0
M  V30 54571 O 5201.61 -0.0957528 -1.78243 0
M  V30 54572 C 5198.71 -0.279846 -3.37743 0
M  V30 54573 C 5197.88 -1.32878 -4.16728 0
M  V30 54574 C 5196.94 -0.753387 -5.20779 0
M  V30 54575 O 5195.97 -1.42845 -5.50985 0
M  V30 54576 N 5197.17 0.44846 -5.78765 0
M  V30 54577 H 5199.94 -1.801 -2.3955 0
M  V30 54578 H 5197.5 -1.08528 -1.20138 0
M  V30 54579 H 5199.49 0.118686 -4.04526 0
M  V30 54580 H 5198.06 0.554513 -3.07643 0
M  V30 54581 H 5197.28 -1.90257 -3.45247 0
M  V30 54582 H 5198.57 -2.03591 -4.66292 0
M  V30 54583 H 5197.97 1.01461 -5.56527 0
M  V30 54584 H 5196.52 0.788898 -6.47008 0
M  V30 54585 N 5199.96 1.22869 -0.986959 0
M  V30 54586 C 5200.89 2.26878 -0.552144 0
M  V30 54587 C 5201.87 1.64884 0.41799 0
M  V30 54588 O 5203.05 1.91711 0.309923 0
M  V30 54589 C 5200.18 3.47018 0.139837 0
M  V30 54590 C 5199.14 4.21409 -0.748239 0
M  V30 54591 C 5198.46 5.34646 0.0763252 0
M  V30 54592 C 5199.76 4.80719 -2.04223 0
M  V30 54593 H 5201.46 2.63502 -1.42152 0
M  V30 54594 H 5199 1.26666 -0.684964 0
M  V30 54595 H 5200.95 4.18932 0.455379 0
M  V30 54596 H 5199.68 3.09474 1.04371 0
M  V30 54597 H 5198.34 3.51321 -1.04734 0
M  V30 54598 H 5197.99 4.93342 0.980936 0
M  V30 54599 H 5197.69 5.8534 -0.514812 0
M  V30 54600 H 5199.21 6.09378 0.386099 0
M  V30 54601 H 5200.62 5.44606 -1.79103 0
M  V30 54602 H 5199.02 5.41728 -2.58169 0
M  V30 54603 H 5200.09 4.011 -2.72483 0
M  V30 54604 N 5201.43 0.759419 1.38096 0
M  V30 54605 C 5202.66 0.328706 2.03968 0
M  V30 54606 C 5203.07 -1.04983 1.57401 0
M  V30 54607 O 5202.41 -1.67915 0.744991 0
M  V30 54608 C 5202.48 0.279342 3.58413 0
M  V30 54609 C 5202.14 1.6004 4.28061 0
M  V30 54610 C 5203.14 2.55064 4.53032 0
M  V30 54611 C 5200.82 1.87144 4.66136 0
M  V30 54612 C 5202.82 3.75408 5.15119 0
M  V30 54613 C 5200.5 3.07761 5.27945 0
M  V30 54614 C 5201.5 4.01713 5.52373 0
M  V30 54615 O 5201.19 5.20208 6.12894 0
M  V30 54616 H 5200.92 0.137467 0.661875 0
M  V30 54617 H 5203.48 1.03088 1.77657 0
M  V30 54618 H 5201.71 -0.479119 3.8372 0
M  V30 54619 H 5203.39 -0.122638 4.05715 0
M  V30 54620 H 5204.16 2.35402 4.24041 0
M  V30 54621 H 5200.04 1.14849 4.46465 0
M  V30 54622 H 5203.58 4.48756 5.34101 0
M  V30 54623 H 5199.48 3.27313 5.5636 0
M  V30 54624 H 5200.25 5.20868 6.31379 0
M  V30 54625 N 5202.91 -1.49156 0.508959 0
M  V30 54626 C 5204.14 -2.06879 -0.0293007 0
M  V30 54627 C 5204.55 -1.36828 -1.30091 0
M  V30 54628 O 5203.91 -0.449097 -1.76888 0
M  V30 54629 C 5203.96 -3.60424 -0.278665 0
M  V30 54630 O 5203.68 -4.27841 0.942539 0
M  V30 54631 C 5205.18 -4.34884 -0.859673 0
M  V30 54632 H 5202.4 -0.670569 0.024042 0
M  V30 54633 H 5204.95 -1.91831 0.708593 0
M  V30 54634 H 5203.1 -3.75149 -0.966557 0
M  V30 54635 H 5203.52 -5.19668 0.71028 0
M  V30 54636 H 5204.99 -5.43164 -0.983693 0
M  V30 54637 H 5205.47 -3.97896 -1.85944 0
M  V30 54638 H 5206.07 -4.24786 -0.209003 0
M  V30 54639 N 5204.39 -0.243138 -1.55713 0
M  V30 54640 C 5205.64 0.381894 -1.98459 0
M  V30 54641 C 5205.96 1.58741 -1.13253 0
M  V30 54642 O 5205.23 1.94723 -0.214453 0
M  V30 54643 H 5203.81 0.144088 -0.732972 0
M  V30 54644 H 5206.47 -0.341053 -1.91893 0
M  V30 54645 H 5205.57 0.693595 -3.04295 0
M  V30 54646 N 5205.87 1.57571 0.0300203 0
M  V30 54647 C 5207.12 1.89229 0.721024 0
M  V30 54648 C 5207.44 0.840306 1.75411 0
M  V30 54649 O 5206.7 -0.158838 1.95054 0
M  V30 54650 C 5207 3.27629 1.42807 0
M  V30 54651 C 5206.66 4.47762 0.53105 0
M  V30 54652 C 5205.33 4.80361 0.283981 0
M  V30 54653 C 5207.68 5.21125 -0.0883414 0
M  V30 54654 C 5205.01 5.83713 -0.591271 0
M  V30 54655 C 5207.36 6.25406 -0.95129 0
M  V30 54656 C 5206.02 6.56481 -1.20783 0
M  V30 54657 H 5205.29 0.692437 0.263841 0
M  V30 54658 H 5207.94 1.91491 -0.0190547 0
M  V30 54659 H 5206.24 3.21351 2.24144 0
M  V30 54660 H 5207.94 3.49372 1.96825 0
M  V30 54661 H 5204.53 4.22272 0.733772 0
M  V30 54662 H 5208.71 4.96219 0.0895752 0
M  V30 54663 H 5203.97 6.06165 -0.798345 0
M  V30 54664 H 5208.14 6.81397 -1.43775 0
M  V30 54665 H 5205.77 7.36388 -1.88776 0
M  V30 54666 N 5207.35 -0.302273 1.54674 0
M  V30 54667 C 5208.28 -1.39436 1.81907 0
M  V30 54668 C 5209.29 -1.46889 0.701965 0
M  V30 54669 O 5210.48 -1.4923 0.979421 0
M  V30 54670 C 5207.58 -2.77817 1.9409 0
M  V30 54671 C 5206.75 -2.93313 3.24479 0
M  V30 54672 C 5205.81 -4.12184 3.27094 0
M  V30 54673 O 5204.84 -4.0433 4.00631 0
M  V30 54674 N 5206.04 -5.22759 2.52395 0
M  V30 54675 H 5208.81 -1.16431 2.76159 0
M  V30 54676 H 5206.37 -0.492337 1.54232 0
M  V30 54677 H 5208.36 -3.55583 1.93243 0
M  V30 54678 H 5206.93 -2.93776 1.06838 0
M  V30 54679 H 5206.15 -2.0267 3.3811 0
M  V30 54680 H 5207.44 -3.00576 4.10526 0
M  V30 54681 H 5206.83 -5.32021 1.92277 0
M  V30 54682 H 5205.39 -5.98865 2.57302 0
M  V30 54683 N 5208.82 -1.47109 -0.565403 0
M  V30 54684 C 5210.07 -1.53009 -1.32032 0
M  V30 54685 C 5210.39 -0.190521 -1.94067 0
M  V30 54686 O 5209.66 0.78472 -1.79496 0
M  V30 54687 H 5208.24 -0.563596 -0.490274 0
M  V30 54688 H 5210.91 -1.83354 -0.660864 0
M  V30 54689 H 5210 -2.29223 -2.1181 0
M  V30 54690 N 5210.3 0.811468 -1.35103 0
M  V30 54691 C 5211.25 1.92304 -1.27624 0
M  V30 54692 C 5212.22 1.65429 -0.149149 0
M  V30 54693 O 5213.4 1.87889 -0.33204 0
M  V30 54694 C 5210.54 3.28764 -1.04919 0
M  V30 54695 C 5209.66 3.67857 -2.26506 0
M  V30 54696 C 5208.79 4.93323 -1.96991 0
M  V30 54697 C 5207.83 5.2503 -3.14658 0
M  V30 54698 N 5206.97 6.41675 -2.84952 0
M  V30 54699 H 5211.81 1.98033 -2.22681 0
M  V30 54700 H 5209.35 0.968716 -1.10699 0
M  V30 54701 H 5211.3 4.07423 -0.897892 0
M  V30 54702 H 5209.93 3.22516 -0.135264 0
M  V30 54703 H 5208.99 2.84498 -2.52517 0
M  V30 54704 H 5210.3 3.87252 -3.14384 0
M  V30 54705 H 5209.45 5.79797 -1.78664 0
M  V30 54706 H 5208.19 4.75954 -1.0639 0
M  V30 54707 H 5207.2 4.37049 -3.33569 0
M  V30 54708 H 5208.42 5.44332 -4.06054 0
M  V30 54709 H 5206.37 6.2574 -1.9694 0
M  V30 54710 H 5206.28 6.61297 -3.66364 0
M  V30 54711 H 5207.55 7.31189 -2.70154 0
M  V30 54712 N 5211.78 1.19021 1.03304 0
M  V30 54713 C 5212.71 0.881921 2.11553 0
M  V30 54714 C 5213.73 -0.123654 1.6233 0
M  V30 54715 O 5214.91 0.105204 1.7819 0
M  V30 54716 C 5212.01 0.297753 3.37589 0
M  V30 54717 C 5211.19 1.35086 4.16017 0
M  V30 54718 C 5210.25 0.780995 5.20372 0
M  V30 54719 O 5209.27 1.45765 5.50219 0
M  V30 54720 N 5210.47 -0.417761 5.78995 0
M  V30 54721 H 5213.24 1.81368 2.38591 0
M  V30 54722 H 5210.8 1.09164 1.19561 0
M  V30 54723 H 5212.79 -0.0972317 4.04583 0
M  V30 54724 H 5211.36 -0.53819 3.07932 0
M  V30 54725 H 5210.58 1.92086 3.44234 0
M  V30 54726 H 5211.87 2.06061 4.65206 0
M  V30 54727 H 5211.27 -0.985085 5.57057 0
M  V30 54728 H 5209.83 -0.754574 6.47417 0
M  V30 54729 N 5213.26 -1.22344 0.993461 0
M  V30 54730 C 5214.51 -1.90419 0.665086 0
M  V30 54731 C 5214.82 -1.78201 -0.806449 0
M  V30 54732 O 5216.03 -2.41198 -1.24643 0
M  V30 54733 C 5214.48 -3.41399 1.13905 0
M  V30 54734 C 5214.09 -3.62253 2.63585 0
M  V30 54735 C 5215.83 -4.15172 0.88503 0
M  V30 54736 C 5213.74 -5.06936 3.04582 0
M  V30 54737 H 5212.67 -0.713064 0.245062 0
M  V30 54738 H 5215.32 -1.38556 1.2031 0
M  V30 54739 H 5213.7 -3.92449 0.529165 0
M  V30 54740 H 5214.88 -3.21694 3.29924 0
M  V30 54741 H 5213.19 -3.01814 2.86875 0
M  V30 54742 H 5215.79 -5.21809 1.16702 0
M  V30 54743 H 5216.13 -4.15916 -0.178836 0
M  V30 54744 H 5216.67 -3.70152 1.45714 0
M  V30 54745 H 5213.41 -5.11332 4.10146 0
M  V30 54746 H 5212.93 -5.48395 2.42946 0
M  V30 54747 H 5214.6 -5.75364 2.95914 0
M  V30 54748 N 5214.74 -0.766732 -1.37692 0
M  V30 54749 C 5215.67 -0.163514 -2.32927 0
M  V30 54750 C 5216.65 0.688806 -1.5553 0
M  V30 54751 O 5217.83 0.627298 -1.8379 0
M  V30 54752 C 5214.96 0.720296 -3.39748 0
M  V30 54753 C 5213.92 -0.0303223 -4.27989 0
M  V30 54754 C 5213.24 0.972603 -5.2578 0
M  V30 54755 C 5214.54 -1.20641 -5.08176 0
M  V30 54756 H 5216.24 -0.959088 -2.83623 0
M  V30 54757 H 5213.78 -0.462648 -1.36366 0
M  V30 54758 H 5215.74 1.15206 -4.05346 0
M  V30 54759 H 5214.46 1.54834 -2.87566 0
M  V30 54760 H 5213.12 -0.442813 -3.63916 0
M  V30 54761 H 5212.77 1.79506 -4.69879 0
M  V30 54762 H 5212.47 0.47494 -5.85677 0
M  V30 54763 H 5213.99 1.40342 -5.94253 0
M  V30 54764 H 5215.4 -0.85154 -5.66941 0
M  V30 54765 H 5213.8 -1.63582 -5.77374 0
M  V30 54766 H 5214.87 -2.01296 -4.41144 0
M  V30 54767 N 5216.21 1.48884 -0.516862 0
M  V30 54768 C 5217.46 2.02088 0.0219455 0
M  V30 54769 C 5217.78 1.3974 1.36006 0
M  V30 54770 O 5217.05 0.558185 1.87779 0
M  V30 54771 H 5215.63 0.746918 0.0110992 0
M  V30 54772 H 5218.3 1.82738 -0.677711 0
M  V30 54773 H 5217.39 3.11786 0.139958 0
M  V30 54774 N 5217.69 0.251393 1.55582 0
M  V30 54775 C 5218.92 -0.379064 2.03907 0
M  V30 54776 C 5219.34 -1.50424 1.12934 0
M  V30 54777 O 5218.7 -1.80881 0.123178 0
M  V30 54778 C 5218.75 -0.859967 3.50196 0
M  V30 54779 O 5217.85 -1.96919 3.62349 0
M  V30 54780 H 5217.19 -0.0819951 0.658918 0
M  V30 54781 H 5219.72 0.378762 2.01064 0
M  V30 54782 H 5219.73 -1.162 3.91103 0
M  V30 54783 H 5218.41 -0.0366097 4.15884 0
M  V30 54784 H 5216.99 -1.67151 3.33339 0
M  V30 54785 N 5219.17 -1.57585 -0.0216635 0
M  V30 54786 C 5220.4 -1.93873 -0.722551 0
M  V30 54787 C 5220.81 -0.851765 -1.68495 0
M  V30 54788 O 5220.17 0.171207 -1.81695 0
M  V30 54789 C 5220.22 -3.30119 -1.47322 0
M  V30 54790 O 5219.94 -4.34641 -0.549444 0
M  V30 54791 C 5221.44 -3.80735 -2.27059 0
M  V30 54792 H 5218.66 -0.639678 -0.202614 0
M  V30 54793 H 5221.21 -2.04487 0.0230133 0
M  V30 54794 H 5219.36 -3.2088 -2.1706 0
M  V30 54795 H 5219.78 -5.1333 -1.07668 0
M  V30 54796 H 5221.25 -4.78556 -2.75114 0
M  V30 54797 H 5221.73 -3.12312 -3.08801 0
M  V30 54798 H 5222.33 -3.93081 -1.62381 0
M  V30 54799 N 5220.65 0.294066 -1.54832 0
M  V30 54800 C 5221.58 1.38773 -1.81155 0
M  V30 54801 C 5222.56 1.48461 -0.663176 0
M  V30 54802 O 5223.74 1.65415 -0.903893 0
M  V30 54803 C 5220.87 2.7662 -1.95445 0
M  V30 54804 C 5219.92 2.84321 -3.17905 0
M  V30 54805 S 5220.75 2.45709 -4.75802 0
M  V30 54806 C 5221.91 3.85572 -4.93037 0
M  V30 54807 H 5222.14 1.16237 -2.73635 0
M  V30 54808 H 5219.67 0.492559 -1.46333 0
M  V30 54809 H 5221.63 3.56014 -2.04363 0
M  V30 54810 H 5220.29 2.96421 -1.03891 0
M  V30 54811 H 5219.48 3.85446 -3.24727 0
M  V30 54812 H 5219.09 2.12929 -3.07469 0
M  V30 54813 H 5221.38 4.80639 -4.77485 0
M  V30 54814 H 5222.32 3.83716 -5.9512 0
M  V30 54815 H 5222.73 3.75897 -4.21144 0
M  V30 54816 N 5222.13 1.47406 0.557593 0
M  V30 54817 C 5223.06 1.62742 1.67443 0
M  V30 54818 C 5224.04 0.476882 1.63278 0
M  V30 54819 O 5225.22 0.706171 1.80906 0
M  V30 54820 C 5222.35 1.64111 3.0608 0
M  V30 54821 C 5221.31 2.78388 3.25091 0
M  V30 54822 C 5220.63 2.64829 4.6451 0
M  V30 54823 C 5221.93 4.19982 3.10503 0
M  V30 54824 H 5223.63 2.56237 1.54864 0
M  V30 54825 H 5221.17 1.23315 0.743606 0
M  V30 54826 H 5223.13 1.7343 3.84057 0
M  V30 54827 H 5221.85 0.671764 3.19617 0
M  V30 54828 H 5220.51 2.68578 2.49522 0
M  V30 54829 H 5220.16 1.65923 4.74846 0
M  V30 54830 H 5219.86 3.41494 4.78179 0
M  V30 54831 H 5221.38 2.76076 5.44623 0
M  V30 54832 H 5222.8 4.30771 3.78298 0
M  V30 54833 H 5221.19 4.97431 3.35682 0
M  V30 54834 H 5222.26 4.38376 2.07254 0
M  V30 54835 N 5223.61 -0.804292 1.35532 0
M  V30 54836 C 5224.52 -1.94779 1.3076 0
M  V30 54837 C 5225.53 -1.72702 0.212132 0
M  V30 54838 O 5226.71 -1.96492 0.44191 0
M  V30 54839 C 5223.77 -3.29402 1.08145 0
M  V30 54840 C 5222.83 -3.64359 2.27026 0
M  V30 54841 C 5222.07 -4.92558 2.0548 0
M  V30 54842 O 5222.29 -5.61162 1.02241 0
M  V30 54843 O 5221.22 -5.25827 2.92898 0
M  V30 54844 H 5225.05 -2.01753 2.27001 0
M  V30 54845 H 5222.63 -0.942408 1.15927 0
M  V30 54846 H 5224.52 -4.09992 0.9739 0
M  V30 54847 H 5223.19 -3.23354 0.149558 0
M  V30 54848 H 5222.1 -2.84137 2.43345 0
M  V30 54849 H 5223.43 -3.75114 3.18669 0
M  V30 54850 N 5225.08 -1.19567 -1.02672 0
M  V30 54851 C 5226.36 -0.908918 -1.73199 0
M  V30 54852 C 5226.74 0.584857 -2.02836 0
M  V30 54853 O 5226.09 1.54366 -1.68474 0
M  V30 54854 C 5226.3 -1.77116 -3.00717 0
M  V30 54855 C 5227.65 -2.0068 -3.74183 0
M  V30 54856 O 5228.67 -1.74285 -3.1065 0
M  V30 54857 O 5227.53 -2.45198 -4.88406 0
M  V30 54858 H 5224.62 -0.338935 -0.754355 0
M  V30 54859 H 5227.17 -1.30391 -1.08611 0
M  V30 54860 H 5225.94 -2.78312 -2.7506 0
M  V30 54861 H 5225.56 -1.37559 -3.73046 0
M  V30 54862 N 5226.56 1.21816 -0.999936 0
M  V30 54863 C 5227.47 2.27689 -0.565239 0
M  V30 54864 C 5228.49 1.69588 0.389339 0
M  V30 54865 O 5229.66 1.99786 0.254428 0
M  V30 54866 C 5226.73 3.46537 0.106311 0
M  V30 54867 C 5225.79 4.19928 -0.892112 0
M  V30 54868 C 5225.02 5.33102 -0.252515 0
M  V30 54869 O 5225.25 5.62401 0.951905 0
M  V30 54870 O 5224.18 5.9418 -0.960907 0
M  V30 54871 H 5228.01 2.67054 -1.44623 0
M  V30 54872 H 5225.59 1.28116 -0.768544 0
M  V30 54873 H 5227.47 4.18633 0.482154 0
M  V30 54874 H 5226.15 3.09082 0.961757 0
M  V30 54875 H 5225.05 3.50075 -1.31902 0
M  V30 54876 H 5226.39 4.61281 -1.71698 0
M  V30 54877 N 5228.04 0.774023 1.37283 0
M  V30 54878 C 5229.29 0.339377 1.99636 0
M  V30 54879 C 5229.61 -1.08473 1.61443 0
M  V30 54880 O 5228.87 -1.76117 0.853314 0
M  V30 54881 C 5229.17 0.432776 3.5477 0
M  V30 54882 C 5228.83 1.81546 4.12737 0
M  V30 54883 C 5227.5 2.19381 4.28282 0
M  V30 54884 C 5229.85 2.72153 4.44502 0
M  V30 54885 C 5227.18 3.47255 4.72896 0
M  V30 54886 C 5229.53 3.99439 4.90542 0
M  V30 54887 C 5228.19 4.37316 5.04292 0
M  V30 54888 H 5227.46 0.124187 0.730519 0
M  V30 54889 H 5230.11 0.98849 1.64016 0
M  V30 54890 H 5228.41 -0.299872 3.90651 0
M  V30 54891 H 5230.11 0.0777409 4.00925 0
M  V30 54892 H 5226.7 1.5114 4.01067 0
M  V30 54893 H 5230.89 2.44181 4.32076 0
M  V30 54894 H 5226.14 3.76494 4.81728 0
M  V30 54895 H 5230.32 4.69774 5.14087 0
M  V30 54896 H 5227.94 5.36461 5.38622 0
M  V30 54897 N 5229.52 -1.48607 0.52475 0
M  V30 54898 C 5230.75 -2.06899 -0.00735672 0
M  V30 54899 C 5231.16 -1.382 -1.28632 0
M  V30 54900 O 5230.52 -0.467833 -1.76402 0
M  V30 54901 C 5230.57 -3.607 -0.240421 0
M  V30 54902 O 5230.29 -4.26817 0.987865 0
M  V30 54903 C 5231.79 -4.35772 -0.813499 0
M  V30 54904 H 5229.01 -0.670276 0.0311529 0
M  V30 54905 H 5231.55 -1.91069 0.7289 0
M  V30 54906 H 5229.71 -3.76153 -0.926713 0
M  V30 54907 H 5230.12 -5.18886 0.765358 0
M  V30 54908 H 5231.6 -5.44177 -0.926028 0
M  V30 54909 H 5232.07 -3.99846 -1.81714 0
M  V30 54910 H 5232.68 -4.24984 -0.163937 0
M  V30 54911 N 5231 -0.25964 -1.55447 0
M  V30 54912 C 5232.41 0.2411 -1.85137 0
M  V30 54913 C 5232.76 1.5663 -1.18158 0
M  V30 54914 O 5231.88 2.11358 -0.464425 0
M  V30 54915 C 5232.48 0.444237 -3.35875 0
M  V30 54916 C 5231.04 0.889225 -3.65745 0
M  V30 54917 C 5230.18 -0.0263449 -2.77287 0
M  V30 54918 H 5233.13 -0.481861 -1.51208 0
M  V30 54919 H 5233.16 1.28505 -3.58144 0
M  V30 54920 H 5232.67 -0.520425 -3.84595 0
M  V30 54921 H 5230.77 1.86591 -3.22513 0
M  V30 54922 H 5230.88 0.737265 -4.73393 0
M  V30 54923 H 5229.25 0.487273 -2.49995 0
M  V30 54924 H 5230.03 -0.986609 -3.28817 0
M  V30 54925 N 5232.47 1.57594 0.0133061 0
M  V30 54926 C 5233.38 2.10995 1.02559 0
M  V30 54927 C 5234.4 1.05213 1.38587 0
M  V30 54928 O 5235.58 1.37039 1.47588 0
M  V30 54929 C 5232.64 2.59173 2.30283 0
M  V30 54930 C 5231.7 3.79502 2.00691 0
M  V30 54931 C 5230.93 4.25372 3.22326 0
M  V30 54932 O 5231.16 3.7066 4.33552 0
M  V30 54933 O 5230.09 5.1766 3.07103 0
M  V30 54934 H 5233.92 2.9768 0.601701 0
M  V30 54935 H 5231.5 1.47599 0.231298 0
M  V30 54936 H 5233.38 2.90419 3.05343 0
M  V30 54937 H 5232.06 1.75592 2.71936 0
M  V30 54938 H 5230.97 3.53249 1.23149 0
M  V30 54939 H 5232.3 4.64115 1.63884 0
M  V30 54940 N 5233.95 -0.28585 1.54986 0
M  V30 54941 C 5235.23 -1.03964 1.65683 0
M  V30 54942 C 5235.61 -2.04724 0.514923 0
M  V30 54943 O 5234.96 -2.23259 -0.486584 0
M  V30 54944 C 5235.17 -1.70796 3.04351 0
M  V30 54945 C 5236.52 -2.22435 3.61674 0
M  V30 54946 O 5237.54 -1.80804 3.06901 0
M  V30 54947 O 5236.4 -2.98757 4.57609 0
M  V30 54948 H 5233.49 -0.481449 0.67241 0
M  V30 54949 H 5236.04 -0.282731 1.67328 0
M  V30 54950 H 5234.81 -0.977138 3.78903 0
M  V30 54951 H 5234.43 -2.53206 3.0655 0
M  V30 54952 N 5235.43 -1.477 -0.549768 0
M  V30 54953 C 5236.68 -1.54936 -1.30854 0
M  V30 54954 C 5237.01 -0.214089 -1.93016 0
M  V30 54955 O 5236.28 0.778031 -1.78261 0
M  V30 54956 C 5236.57 -2.67295 -2.413 0
M  V30 54957 C 5236.42 -4.10463 -1.83957 0
M  V30 54958 C 5237.74 -2.75521 -3.43186 0
M  V30 54959 H 5234.86 -0.564006 -0.474411 0
M  V30 54960 H 5237.5 -1.79789 -0.614478 0
M  V30 54961 H 5235.65 -2.46234 -3.00501 0
M  V30 54962 H 5237.32 -4.42908 -1.28959 0
M  V30 54963 H 5235.57 -4.18391 -1.14592 0
M  V30 54964 H 5236.24 -4.84867 -2.63834 0
M  V30 54965 H 5238.71 -2.94541 -2.93913 0
M  V30 54966 H 5237.59 -3.55901 -4.17883 0
M  V30 54967 H 5237.85 -1.82877 -4.02503 0
M  V30 54968 N 5236.91 0.797093 -1.35957 0
M  V30 54969 C 5237.86 1.9308 -1.29704 0
M  V30 54970 C 5238.85 1.68329 -0.190211 0
M  V30 54971 O 5240.06 1.76429 -0.356762 0
M  V30 54972 H 5236.43 0.634517 -0.403599 0
M  V30 54973 H 5238.4 1.95473 -2.25462 0
M  V30 54974 C 5237.15 3.29992 -1.09547 0
M  V30 54975 H 5236.47 3.496 -1.93959 0
M  V30 54976 H 5237.91 4.09692 -1.09216 0
M  V30 54977 C 5236.37 3.36304 0.200262 0
M  V30 54978 O 5236.9 3.83583 1.19277 0
M  V30 54979 N 5235.11 2.89588 0.242305 0
M  V30 54980 H 5234.66 2.51305 -0.565986 0
M  V30 54981 H 5234.61 2.94193 1.10896 0
M  V30 54982 N 5238.39 1.2011 1.02036 0
M  V30 54983 C 5239.32 0.889869 2.10135 0
M  V30 54984 C 5240.3 -0.156538 1.61845 0
M  V30 54985 O 5241.48 -0.030953 1.88475 0
M  V30 54986 C 5238.61 0.333345 3.37056 0
M  V30 54987 C 5237.65 1.36015 4.0423 0
M  V30 54988 S 5238.49 2.92381 4.48635 0
M  V30 54989 C 5239.64 2.38295 5.78763 0
M  V30 54990 H 5239.88 1.80532 2.36211 0
M  V30 54991 H 5237.41 1.02916 1.15098 0
M  V30 54992 H 5239.37 0.0187951 4.10496 0
M  V30 54993 H 5238.03 -0.560544 3.09058 0
M  V30 54994 H 5237.22 0.920048 4.95531 0
M  V30 54995 H 5236.82 1.62198 3.36998 0
M  V30 54996 H 5239.12 1.77822 6.53747 0
M  V30 54997 H 5240.06 3.27977 6.27564 0
M  V30 54998 H 5240.47 1.80559 5.34844 0
M  V30 54999 N 5239.86 -1.21284 1.00638 0
M  V30 55000 C 5240.8 -2.23079 0.526172 0
M  V30 55001 C 5241.81 -1.58158 -0.385976 0
M  V30 55002 O 5243 -1.77529 -0.185954 0
M  V30 55003 C 5240.1 -3.37938 -0.255171 0
M  V30 55004 C 5239.27 -4.32447 0.656388 0
M  V30 55005 C 5238.33 -5.26146 -0.0755865 0
M  V30 55006 O 5237.36 -5.66599 0.543525 0
M  V30 55007 N 5238.56 -5.64495 -1.35371 0
M  V30 55008 H 5241.32 -2.64908 1.40156 0
M  V30 55009 H 5238.88 -1.35721 0.882689 0
M  V30 55010 H 5240.88 -3.97617 -0.753838 0
M  V30 55011 H 5239.45 -2.95082 -1.03176 0
M  V30 55012 H 5238.67 -3.70887 1.33553 0
M  V30 55013 H 5239.95 -4.92522 1.2767 0
M  V30 55014 H 5239.35 -5.33624 -1.87781 0
M  V30 55015 H 5237.91 -6.2653 -1.79731 0
M  V30 55016 N 5241.34 -0.781292 -1.36871 0
M  V30 55017 C 5242.59 -0.34659 -1.987 0
M  V30 55018 C 5242.9 1.08549 -1.62716 0
M  V30 55019 O 5244.11 1.62206 -2.17719 0
M  V30 55020 C 5242.57 -0.568736 -3.55378 0
M  V30 55021 C 5242.17 -2.0117 -4.00293 0
M  V30 55022 C 5243.92 -0.198132 -4.24037 0
M  V30 55023 C 5241.83 -2.18094 -5.49717 0
M  V30 55024 H 5240.76 -0.125847 -0.743423 0
M  V30 55025 H 5243.41 -0.961775 -1.56276 0
M  V30 55026 H 5241.79 0.116046 -3.9583 0
M  V30 55027 H 5242.96 -2.73222 -3.71061 0
M  V30 55028 H 5241.28 -2.33979 -3.44446 0
M  V30 55029 H 5243.87 -0.302966 -5.33841 0
M  V30 55030 H 5244.22 0.852784 -4.07472 0
M  V30 55031 H 5244.75 -0.835832 -3.8892 0
M  V30 55032 H 5241.49 -3.21539 -5.71221 0
M  V30 55033 H 5241.01 -1.50537 -5.80602 0
M  V30 55034 H 5242.69 -1.98415 -6.15825 0
M  V30 55035 N 5242.82 1.48327 -0.532624 0
M  V30 55036 C 5243.75 2.26525 0.276021 0
M  V30 55037 C 5244.73 1.32502 0.942449 0
M  V30 55038 O 5245.92 1.61847 0.966319 0
M  V30 55039 C 5243.04 3.08812 1.39114 0
M  V30 55040 C 5242.09 4.1823 0.835837 0
M  V30 55041 S 5242.92 5.34668 -0.298374 0
M  V30 55042 C 5244.08 6.20516 0.819152 0
M  V30 55043 H 5244.31 2.94762 -0.387606 0
M  V30 55044 H 5241.84 1.5108 -0.31846 0
M  V30 55045 H 5243.8 3.56799 2.0299 0
M  V30 55046 H 5242.46 2.39983 2.02649 0
M  V30 55047 H 5241.66 4.75441 1.67247 0
M  V30 55048 H 5241.26 3.72997 0.273719 0
M  V30 55049 H 5243.55 6.55377 1.71717 0
M  V30 55050 H 5244.49 7.07526 0.28495 0
M  V30 55051 H 5244.9 5.53664 1.10075 0
M  V30 55052 N 5244.3 0.26788 1.55307 0
M  V30 55053 C 5245.55 -0.350273 1.99041 0
M  V30 55054 C 5245.87 -1.5692 1.15764 0
M  V30 55055 O 5245.14 -1.94357 0.245404 0
M  V30 55056 H 5243.72 -0.132409 0.735171 0
M  V30 55057 H 5246.38 0.371538 1.91326 0
M  V30 55058 H 5245.48 -0.645096 3.0536 0
M  V30 55059 N 5245.78 -1.57599 -0.00494828 0
M  V30 55060 C 5247.02 -1.90634 -0.691852 0
M  V30 55061 C 5247.36 -0.868504 -1.73697 0
M  V30 55062 O 5246.63 0.113414 -1.94169 0
M  V30 55063 C 5246.91 -3.3426 -1.3395 0
M  V30 55064 C 5246.77 -4.48756 -0.306256 0
M  V30 55065 C 5248.09 -3.77219 -2.26701 0
M  V30 55066 H 5245.2 -0.693288 -0.250041 0
M  V30 55067 H 5247.85 -1.89946 0.0453301 0
M  V30 55068 H 5246 -3.34976 -1.96782 0
M  V30 55069 H 5247.67 -4.60175 0.322003 0
M  V30 55070 H 5245.91 -4.32202 0.372004 0
M  V30 55071 H 5246.58 -5.46196 -0.798362 0
M  V30 55072 H 5249.06 -3.78023 -1.73891 0
M  V30 55073 H 5247.93 -4.78475 -2.68985 0
M  V30 55074 H 5248.2 -3.10812 -3.14402 0
M  V30 55075 N 5247.25 0.277627 -1.55135 0
M  V30 55076 C 5248.5 1.01134 -1.75783 0
M  V30 55077 C 5248.83 1.86107 -0.554785 0
M  V30 55078 O 5248.11 1.89276 0.447746 0
M  V30 55079 C 5248.39 1.89778 -3.06033 0
M  V30 55080 C 5248.24 1.07829 -4.36684 0
M  V30 55081 C 5249.56 2.88565 -3.32292 0
M  V30 55082 H 5246.68 0.366254 -0.639552 0
M  V30 55083 H 5249.32 0.284089 -1.87864 0
M  V30 55084 H 5247.47 2.51786 -2.95865 0
M  V30 55085 H 5249.15 0.47927 -4.58804 0
M  V30 55086 H 5247.39 0.381612 -4.32118 0
M  V30 55087 H 5248.06 1.7316 -5.24137 0
M  V30 55088 H 5250.54 2.3669 -3.42223 0
M  V30 55089 H 5249.41 3.47735 -4.24702 0
M  V30 55090 H 5249.67 3.63449 -2.51709 0
M  V30 55091 N 5248.73 1.4799 0.541927 0
M  V30 55092 C 5249.67 1.56178 1.66384 0
M  V30 55093 C 5250.64 0.412934 1.57269 0
M  V30 55094 O 5251.83 0.622878 1.77911 0
M  V30 55095 C 5248.96 1.47862 3.0472 0
M  V30 55096 C 5248 2.6744 3.32232 0
M  V30 55097 S 5248.83 4.29514 3.1981 0
M  V30 55098 C 5249.99 4.23776 4.60613 0
M  V30 55099 H 5250.22 2.51092 1.59186 0
M  V30 55100 H 5247.76 1.36375 0.723957 0
M  V30 55101 H 5249.71 1.43751 3.84507 0
M  V30 55102 H 5248.38 0.543066 3.0937 0
M  V30 55103 H 5247.57 2.57727 4.3312 0
M  V30 55104 H 5247.17 2.68752 2.60093 0
M  V30 55105 H 5249.46 3.92972 5.51887 0
M  V30 55106 H 5250.41 5.24802 4.75382 0
M  V30 55107 H 5250.81 3.54413 4.39376 0
M  V30 55108 N 5250.21 -0.789872 1.36377 0
M  V30 55109 C 5251.14 -1.91109 1.26531 0
M  V30 55110 C 5252.16 -1.61746 0.184908 0
M  V30 55111 O 5253.35 -1.73003 0.439585 0
M  V30 55112 C 5250.45 -3.25905 0.929485 0
M  V30 55113 C 5249.62 -3.8305 2.11168 0
M  V30 55114 C 5248.68 -4.96283 1.74898 0
M  V30 55115 O 5247.7 -5.12825 2.4698 0
M  V30 55116 N 5248.91 -5.76475 0.682396 0
M  V30 55117 H 5251.67 -2.00078 2.23135 0
M  V30 55118 H 5249.23 -0.96812 1.29765 0
M  V30 55119 H 5251.22 -3.99148 0.668025 0
M  V30 55120 H 5249.79 -3.12556 0.0525941 0
M  V30 55121 H 5249.01 -3.01799 2.53596 0
M  V30 55122 H 5250.3 -4.1796 2.9015 0
M  V30 55123 H 5249.7 -5.65638 0.083865 0
M  V30 55124 H 5248.26 -6.50025 0.480758 0
M  V30 55125 N 5251.69 -1.20649 -1.01398 0
M  V30 55126 C 5252.91 -1.04468 -1.79168 0
M  V30 55127 C 5253.34 0.401524 -1.83765 0
M  V30 55128 O 5252.7 1.2893 -1.27463 0
M  V30 55129 C 5252.75 -1.63594 -3.21355 0
M  V30 55130 O 5251.85 -0.875339 -4.03003 0
M  V30 55131 H 5251.19 -0.368254 -0.552526 0
M  V30 55132 H 5253.72 -1.59999 -1.27521 0
M  V30 55133 H 5253.73 -1.67439 -3.72059 0
M  V30 55134 H 5252.41 -2.68846 -3.17324 0
M  V30 55135 H 5250.98 -0.911299 -3.61593 0
M  V30 55136 N 5253.17 1.20748 -1.0128 0
M  V30 55137 C 5254.42 1.89643 -0.698572 0
M  V30 55138 C 5254.74 1.78989 0.773821 0
M  V30 55139 O 5254.01 1.18982 1.55628 0
M  V30 55140 H 5252.59 0.701983 -0.255399 0
M  V30 55141 H 5255.25 1.46663 -1.28358 0
M  V30 55142 H 5254.34 2.9636 -0.978616 0
M  V30 55143 N 5254.65 0.78854 1.36454 0
M  V30 55144 C 5255.89 0.361066 1.9956 0
M  V30 55145 C 5256.22 -1.06427 1.6244 0
M  V30 55146 O 5255.5 -1.73516 0.878766 0
M  V30 55147 C 5255.78 0.523861 3.56269 0
M  V30 55148 C 5255.64 1.99283 4.03245 0
M  V30 55149 C 5256.95 -0.0616361 4.40057 0
M  V30 55150 H 5254.07 0.132666 0.724961 0
M  V30 55151 H 5256.72 0.994716 1.61881 0
M  V30 55152 H 5254.87 -0.0155613 3.88497 0
M  V30 55153 H 5256.54 2.59324 3.81508 0
M  V30 55154 H 5254.78 2.49574 3.54818 0
M  V30 55155 H 5255.45 2.0577 5.12213 0
M  V30 55156 H 5257.93 0.39882 4.14184 0
M  V30 55157 H 5256.8 0.0823018 5.48838 0
M  V30 55158 H 5257.06 -1.15366 4.26782 0
M  V30 55159 N 5256.12 -1.48042 0.540482 0
M  V30 55160 C 5257.54 -1.58354 0.199061 0
M  V30 55161 C 5257.74 -1.54122 -1.29802 0
M  V30 55162 O 5256.8 -1.43581 -2.07704 0
M  V30 55163 C 5258.11 -2.8956 0.810899 0
M  V30 55164 C 5259.66 -3.0311 0.780592 0
M  V30 55165 C 5260.13 -4.36992 1.3712 0
M  V30 55166 N 5261.62 -4.43586 1.33363 0
M  V30 55167 C 5262.36 -5.45708 1.7604 0
M  V30 55168 N 5261.85 -6.5473 2.26496 0
M  V30 55169 N 5263.65 -5.36653 1.67213 0
M  V30 55170 H 5255.8 -1.49036 1.51334 0
M  V30 55171 H 5258.06 -0.708287 0.630106 0
M  V30 55172 H 5257.77 -2.98343 1.86237 0
M  V30 55173 H 5257.64 -3.76052 0.294109 0
M  V30 55174 H 5260.03 -2.93933 -0.262143 0
M  V30 55175 H 5260.11 -2.18203 1.33496 0
M  V30 55176 H 5259.75 -4.46924 2.41291 0
M  V30 55177 H 5259.68 -5.20604 0.792412 0
M  V30 55178 H 5262.17 -3.65387 0.964387 0
M  V30 55179 H 5262.49 -7.28805 2.57027 0
M  V30 55180 H 5260.83 -6.55665 2.30496 0
M  V30 55181 H 5264.02 -4.50377 1.27584 0
M  V30 55182 H 5264.2 -6.16106 2.00792 0
M  V30 55183 N 5257.6 -0.276112 -1.55162 0
M  V30 55184 C 5258.55 0.610928 -2.22568 0
M  V30 55185 C 5259.52 1.14898 -1.19949 0
M  V30 55186 O 5260.7 1.19809 -1.48494 0
M  V30 55187 C 5257.84 1.78874 -2.95124 0
M  V30 55188 C 5256.96 1.28446 -4.12463 0
M  V30 55189 C 5256.09 2.42415 -4.72661 0
M  V30 55190 C 5255.13 1.88994 -5.82192 0
M  V30 55191 N 5254.27 2.96441 -6.36449 0
M  V30 55192 H 5259.11 0.0294802 -2.97985 0
M  V30 55193 H 5256.64 0.00278436 -1.471 0
M  V30 55194 H 5258.6 2.48109 -3.35407 0
M  V30 55195 H 5257.23 2.34221 -2.22127 0
M  V30 55196 H 5256.28 0.485179 -3.77293 0
M  V30 55197 H 5257.6 0.853185 -4.91449 0
M  V30 55198 H 5256.75 3.19641 -5.15669 0
M  V30 55199 H 5255.49 2.88858 -3.92954 0
M  V30 55200 H 5254.49 1.10248 -5.38633 0
M  V30 55201 H 5255.72 1.43486 -6.63768 0
M  V30 55202 H 5253.67 3.42263 -5.59635 0
M  V30 55203 H 5253.58 2.57734 -7.1071 0
M  V30 55204 H 5254.85 3.73639 -6.84116 0
M  V30 55205 N 5259.08 1.576 -0.00340966 0
M  V30 55206 C 5260.33 1.90998 0.681732 0
M  V30 55207 C 5260.66 0.877704 1.73234 0
M  V30 55208 O 5259.93 -0.103115 1.94226 0
M  V30 55209 C 5260.22 3.34965 1.32175 0
M  V30 55210 C 5260.07 4.48912 0.282453 0
M  V30 55211 C 5261.39 3.78416 2.24698 0
M  V30 55212 H 5258.51 0.694604 0.246361 0
M  V30 55213 H 5261.15 1.89919 -0.0554028 0
M  V30 55214 H 5259.3 3.36015 1.95002 0
M  V30 55215 H 5260.97 4.59998 -0.346403 0
M  V30 55216 H 5259.21 4.31999 -0.39492 0
M  V30 55217 H 5259.89 5.46612 0.769384 0
M  V30 55218 H 5262.36 3.7894 1.71884 0
M  V30 55219 H 5261.24 4.79895 2.66444 0
M  V30 55220 H 5261.5 3.12475 3.12749 0
M  V30 55221 N 5260.56 -0.269396 1.5528 0
M  V30 55222 C 5261.79 -1.01866 1.80086 0
M  V30 55223 C 5262.2 -1.798 0.57598 0
M  V30 55224 O 5261.56 -1.76737 -0.455019 0
M  V30 55225 C 5261.61 -1.97439 3.0282 0
M  V30 55226 O 5261.33 -1.22662 4.20578 0
M  V30 55227 C 5262.83 -2.84148 3.40257 0
M  V30 55228 H 5260.05 -0.30076 0.59982 0
M  V30 55229 H 5262.59 -0.299089 2.02301 0
M  V30 55230 H 5260.75 -2.64854 2.82721 0
M  V30 55231 H 5261.16 -1.87112 4.89989 0
M  V30 55232 H 5262.64 -3.46999 4.29296 0
M  V30 55233 H 5263.11 -3.54104 2.59822 0
M  V30 55234 H 5263.72 -2.22219 3.62628 0
M  V30 55235 N 5262.04 -1.48275 -0.534071 0
M  V30 55236 C 5263.27 -1.59507 -1.31305 0
M  V30 55237 C 5263.67 -0.252906 -1.87502 0
M  V30 55238 O 5263.02 0.76734 -1.66906 0
M  V30 55239 C 5263.08 -2.57908 -2.50447 0
M  V30 55240 C 5262.74 -4.0307 -2.15368 0
M  V30 55241 C 5263.74 -4.90875 -1.71282 0
M  V30 55242 C 5261.42 -4.48578 -2.26016 0
M  V30 55243 C 5263.42 -6.22214 -1.38306 0
M  V30 55244 C 5261.11 -5.79938 -1.92651 0
M  V30 55245 C 5262.1 -6.66579 -1.48867 0
M  V30 55246 O 5261.79 -7.95496 -1.15938 0
M  V30 55247 H 5261.52 -0.54071 -0.40572 0
M  V30 55248 H 5264.08 -1.94796 -0.651428 0
M  V30 55249 H 5262.31 -2.17732 -3.19578 0
M  V30 55250 H 5264 -2.59019 -3.12513 0
M  V30 55251 H 5264.76 -4.56957 -1.62529 0
M  V30 55252 H 5260.64 -3.8133 -2.59052 0
M  V30 55253 H 5264.19 -6.89795 -1.04058 0
M  V30 55254 H 5260.08 -6.13393 -2.01044 0
M  V30 55255 H 5260.85 -8.08211 -1.29371 0
M  V30 55256 N 5263.51 0.782628 -1.36794 0
M  V30 55257 C 5264.76 1.53774 -1.31141 0
M  V30 55258 C 5265.08 1.94707 0.106945 0
M  V30 55259 O 5264.35 1.65468 1.04867 0
M  V30 55260 H 5262.93 0.570311 -0.482446 0
M  V30 55261 H 5265.6 0.93212 -1.71165 0
M  V30 55262 H 5264.69 2.44218 -1.9433 0
M  V30 55263 N 5264.99 1.21185 1.00757 0
M  V30 55264 C 5266.22 1.05341 1.78075 0
M  V30 55265 C 5266.64 -0.396923 1.84581 0
M  V30 55266 O 5265.99 -1.27544 1.30533 0
M  V30 55267 C 5266.04 1.641 3.22108 0
M  V30 55268 O 5265.76 3.03459 3.15981 0
M  V30 55269 C 5267.27 1.53332 4.15938 0
M  V30 55270 H 5264.49 0.37007 0.559723 0
M  V30 55271 H 5267.03 1.60468 1.26769 0
M  V30 55272 H 5265.18 1.13072 3.70531 0
M  V30 55273 H 5265.6 3.31506 4.06453 0
M  V30 55274 H 5267.07 1.99192 5.14807 0
M  V30 55275 H 5267.55 0.48732 4.36488 0
M  V30 55276 H 5268.16 2.03595 3.73402 0
M  V30 55277 N 5266.47 -1.20209 1.01919 0
M  V30 55278 C 5267.43 -2.21304 0.596405 0
M  V30 55279 C 5268.43 -1.57275 -0.334824 0
M  V30 55280 O 5269.62 -1.73764 -0.123159 0
M  V30 55281 C 5266.76 -3.40657 -0.128688 0
M  V30 55282 H 5267.95 -2.60223 1.49077 0
M  V30 55283 H 5265.5 -1.33718 0.809273 0
M  V30 55284 H 5266.24 -3.07244 -1.03785 0
M  V30 55285 H 5266.02 -3.88359 0.54032 0
M  V30 55286 H 5267.51 -4.15565 -0.411746 0
M  V30 55287 N 5267.95 -0.795765 -1.36034 0
M  V30 55288 C 5268.9 -0.171517 -2.27354 0
M  V30 55289 C 5269.88 0.648294 -1.47262 0
M  V30 55290 O 5271.07 0.507326 -1.69574 0
M  V30 55291 C 5268.2 0.687758 -3.3634 0
M  V30 55292 C 5267.29 -0.14119 -4.23865 0
M  V30 55293 N 5267.68 -1.19885 -4.91387 0
M  V30 55294 C 5265.98 0.0789478 -4.4593 0
M  V30 55295 C 5266.68 -1.70402 -5.56182 0
M  V30 55296 N 5265.66 -1.01221 -5.34093 0
M  V30 55297 H 5269.46 -0.980944 -2.77046 0
M  V30 55298 H 5266.97 -0.635851 -1.49435 0
M  V30 55299 H 5268.97 1.15093 -4.00698 0
M  V30 55300 H 5267.63 1.49566 -2.88202 0
M  V30 55301 H 5268.64 -1.58137 -4.93166 0
M  V30 55302 H 5265.32 0.85685 -4.08613 0
M  V30 55303 H 5266.71 -2.58737 -6.20084 0
M  V30 55304 N 5269.43 1.47754 -0.548326 0
M  V30 55305 C 5270.67 2.03379 -0.0291953 0
M  V30 55306 C 5271.03 1.41607 1.3025 0
M  V30 55307 O 5270.32 0.559166 1.83259 0
M  V30 55308 C 5270.51 3.5716 0.130943 0
M  V30 55309 C 5270.34 4.33842 -1.18368 0
M  V30 55310 C 5269.11 4.74081 -1.74857 0
M  V30 55311 C 5271.31 4.69527 -2.09877 0
M  V30 55312 N 5269.29 5.35372 -3.00417 0
M  V30 55313 C 5270.66 5.31028 -3.20015 0
M  V30 55314 C 5272.72 4.51456 -2.0998 0
M  V30 55315 C 5271.42 5.76365 -4.30344 0
M  V30 55316 C 5273.45 4.97787 -3.19315 0
M  V30 55317 C 5272.81 5.59328 -4.28172 0
M  V30 55318 H 5268.91 0.780227 -0.0526311 0
M  V30 55319 H 5271.49 1.80348 -0.733656 0
M  V30 55320 H 5269.66 3.79976 0.804514 0
M  V30 55321 H 5271.4 3.99424 0.651336 0
M  V30 55322 H 5268.15 4.55759 -1.28766 0
M  V30 55323 H 5268.58 5.70567 -3.64392 0
M  V30 55324 H 5273.22 4.03242 -1.27107 0
M  V30 55325 H 5270.94 6.23576 -5.13983 0
M  V30 55326 H 5274.52 4.85582 -3.20471 0
M  V30 55327 H 5273.4 5.94526 -5.11379 0
M  V30 55328 N 5270.9 0.284337 1.55014 0
M  V30 55329 C 5271.83 -0.592584 2.25855 0
M  V30 55330 C 5272.82 -1.15147 1.25201 0
M  V30 55331 O 5274 -1.1839 1.5394 0
M  V30 55332 C 5271.13 -1.77244 2.98667 0
M  V30 55333 C 5270.08 -1.34468 4.06328 0
M  V30 55334 C 5269.41 -2.60837 4.66764 0
M  V30 55335 C 5270.71 -0.488105 5.20014 0
M  V30 55336 H 5272.4 -0.00176516 2.994 0
M  V30 55337 H 5269.95 0.000591025 1.44 0
M  V30 55338 H 5271.9 -2.39187 3.4694 0
M  V30 55339 H 5270.63 -2.38924 2.22673 0
M  V30 55340 H 5269.29 -0.748393 3.5888 0
M  V30 55341 H 5268.93 -3.20794 3.87427 0
M  V30 55342 H 5268.63 -2.32923 5.39463 0
M  V30 55343 H 5270.16 -3.23612 5.17791 0
M  V30 55344 H 5271.57 -1.01278 5.64283 0
M  V30 55345 H 5269.97 -0.303459 5.99332 0
M  V30 55346 H 5271.04 0.490897 4.82409 0
M  V30 55347 N 5272.38 -1.57596 0.0117675 0
M  V30 55348 C 5273.63 -1.91074 -0.6706 0
M  V30 55349 C 5273.96 -0.886518 -1.73122 0
M  V30 55350 O 5273.21 0.107067 -1.95407 0
M  V30 55351 C 5273.51 -3.313 -1.3407 0
M  V30 55352 C 5273.18 -4.49012 -0.412147 0
M  V30 55353 C 5271.84 -4.80945 -0.156522 0
M  V30 55354 C 5274.19 -5.20708 0.226477 0
M  V30 55355 C 5271.52 -5.8194 0.745824 0
M  V30 55356 C 5273.87 -6.22664 1.11677 0
M  V30 55357 C 5272.54 -6.53048 1.38146 0
M  V30 55358 H 5271.81 -0.699189 -0.24539 0
M  V30 55359 H 5274.45 -1.91373 0.0698184 0
M  V30 55360 H 5272.76 -3.27181 -2.15545 0
M  V30 55361 H 5274.45 -3.54468 -1.87493 0
M  V30 55362 H 5271.04 -4.24069 -0.621556 0
M  V30 55363 H 5275.23 -4.96282 0.04202 0
M  V30 55364 H 5270.48 -6.03836 0.958778 0
M  V30 55365 H 5274.66 -6.77345 1.61791 0
M  V30 55366 H 5272.29 -7.31124 2.08234 0
M  V30 55367 N 5273.86 0.261157 -1.55421 0
M  V30 55368 C 5274.82 1.30639 -1.88325 0
M  V30 55369 C 5275.82 1.41779 -0.758638 0
M  V30 55370 O 5277.01 1.40726 -1.02674 0
M  V30 55371 C 5274.15 2.68613 -2.09904 0
M  V30 55372 H 5275.34 1.02688 -2.81772 0
M  V30 55373 H 5272.89 0.499786 -1.48094 0
M  V30 55374 H 5273.63 3.01726 -1.18879 0
M  V30 55375 H 5273.41 2.61911 -2.91796 0
M  V30 55376 H 5274.9 3.44112 -2.36593 0
M  V30 55377 N 5275.34 1.48556 0.526201 0
M  V30 55378 C 5276.57 1.60434 1.30647 0
M  V30 55379 C 5276.98 0.266029 1.86916 0
M  V30 55380 O 5276.34 -0.745203 1.66592 0
M  V30 55381 C 5276.39 2.65386 2.45464 0
M  V30 55382 O 5276.11 3.94023 1.91513 0
M  V30 55383 C 5277.61 2.87738 3.37227 0
M  V30 55384 H 5274.83 0.540831 0.397168 0
M  V30 55385 H 5277.38 1.94411 0.634392 0
M  V30 55386 H 5275.53 2.34257 3.08549 0
M  V30 55387 H 5275.94 4.51633 2.66699 0
M  V30 55388 H 5277.42 3.64965 4.14131 0
M  V30 55389 H 5277.9 1.96702 3.92689 0
M  V30 55390 H 5278.5 3.20186 2.79931 0
M  V30 55391 N 5276.82 -0.775363 1.37207 0
M  V30 55392 C 5277.75 -1.90253 1.35374 0
M  V30 55393 C 5278.73 -1.68633 0.222923 0
M  V30 55394 O 5279.91 -1.89543 0.422726 0
M  V30 55395 C 5277.04 -3.27484 1.15634 0
M  V30 55396 C 5276 -3.6366 2.25689 0
M  V30 55397 C 5275.32 -4.99393 1.91077 0
M  V30 55398 C 5276.62 -3.70784 3.67854 0
M  V30 55399 H 5278.32 -1.92045 2.29693 0
M  V30 55400 H 5275.86 -0.922558 1.10566 0
M  V30 55401 H 5277.82 -4.05972 1.12982 0
M  V30 55402 H 5276.54 -3.26116 0.177687 0
M  V30 55403 H 5275.2 -2.87478 2.2749 0
M  V30 55404 H 5274.85 -4.94561 0.917498 0
M  V30 55405 H 5274.55 -5.24567 2.6477 0
M  V30 55406 H 5276.07 -5.80285 1.90005 0
M  V30 55407 H 5277.48 -4.39431 3.68203 0
M  V30 55408 H 5275.88 -4.07452 4.40571 0
M  V30 55409 H 5276.95 -2.71535 4.01742 0
M  V30 55410 N 5278.3 -1.21718 -1.00112 0
M  V30 55411 C 5279.54 -1.0383 -1.74205 0
M  V30 55412 C 5279.87 0.426666 -1.89455 0
M  V30 55413 O 5279.15 1.31653 -1.43171 0
M  V30 55414 C 5279.43 -1.74058 -3.15239 0
M  V30 55415 C 5279.29 -3.28098 -3.07688 0
M  V30 55416 C 5280.6 -1.48628 -4.14243 0
M  V30 55417 H 5277.72 -0.378595 -0.632325 0
M  V30 55418 H 5280.37 -1.49946 -1.16688 0
M  V30 55419 H 5278.52 -1.34852 -3.64345 0
M  V30 55420 H 5280.19 -3.76696 -2.66267 0
M  V30 55421 H 5278.43 -3.582 -2.44694 0
M  V30 55422 H 5279.1 -3.72406 -4.07453 0
M  V30 55423 H 5281.58 -1.82669 -3.7386 0
M  V30 55424 H 5280.45 -2.00275 -5.11059 0
M  V30 55425 H 5280.71 -0.417112 -4.40128 0
M  V30 55426 N 5279.77 1.19667 -1.02555 0
M  V30 55427 C 5281 1.93771 -0.739431 0
M  V30 55428 C 5281.42 1.74789 0.695002 0
M  V30 55429 O 5280.78 1.04801 1.47941 0
M  V30 55430 C 5280.83 3.43681 -1.09161 0
M  V30 55431 O 5279.93 4.11873 -0.208358 0
M  V30 55432 H 5279.27 0.605054 -0.273506 0
M  V30 55433 H 5281.8 1.51841 -1.37133 0
M  V30 55434 H 5281.81 3.94335 -1.04709 0
M  V30 55435 H 5280.49 3.56818 -2.13667 0
M  V30 55436 H 5279.07 3.71599 -0.311176 0
M  V30 55437 N 5281.25 0.802969 1.3561 0
M  V30 55438 C 5282.48 0.394002 2.03114 0
M  V30 55439 C 5282.89 -0.993904 1.60521 0
M  V30 55440 O 5282.25 -1.63981 0.801031 0
M  V30 55441 C 5282.3 0.463612 3.58515 0
M  V30 55442 O 5282.02 1.7968 3.99558 0
M  V30 55443 C 5283.52 0.0469936 4.43275 0
M  V30 55444 H 5280.74 0.160542 0.651512 0
M  V30 55445 H 5283.29 1.08558 1.73307 0
M  V30 55446 H 5281.44 -0.179685 3.86983 0
M  V30 55447 H 5281.86 1.75705 4.94194 0
M  V30 55448 H 5283.33 0.14682 5.51805 0
M  V30 55449 H 5283.81 -1.00726 4.27494 0
M  V30 55450 H 5284.41 0.663305 4.20096 0
M  V30 55451 N 5282.73 -1.47461 0.556154 0
M  V30 55452 C 5283.96 -2.06568 0.0364782 0
M  V30 55453 C 5284.37 -1.40944 -1.2622 0
M  V30 55454 O 5283.71 -0.499634 -1.76775 0
M  V30 55455 C 5283.77 -3.58756 -0.231152 0
M  V30 55456 C 5283.44 -4.46414 0.977933 0
M  V30 55457 C 5284.43 -4.84593 1.88322 0
M  V30 55458 C 5282.12 -4.87944 1.19231 0
M  V30 55459 C 5284.11 -5.631 2.98659 0
M  V30 55460 C 5281.8 -5.66216 2.29876 0
M  V30 55461 C 5282.8 -6.03704 3.19421 0
M  V30 55462 O 5282.49 -6.804 4.28149 0
M  V30 55463 H 5282.22 -0.674673 0.0423287 0
M  V30 55464 H 5284.77 -1.90468 0.768842 0
M  V30 55465 H 5283 -3.73065 -1.01781 0
M  V30 55466 H 5284.69 -3.99887 -0.696081 0
M  V30 55467 H 5285.46 -4.53109 1.72965 0
M  V30 55468 H 5281.34 -4.58231 0.504508 0
M  V30 55469 H 5284.88 -5.9228 3.68578 0
M  V30 55470 H 5280.78 -5.97113 2.45207 0
M  V30 55471 H 5281.54 -6.98792 4.26184 0
M  V30 55472 N 5284.21 -0.292554 -1.54861 0
M  V30 55473 C 5285.45 0.319666 -2.00265 0
M  V30 55474 C 5285.79 1.54186 -1.18069 0
M  V30 55475 O 5285.06 1.9282 -0.25505 0
M  V30 55476 C 5285.34 0.684629 -3.53532 0
M  V30 55477 C 5285.2 -0.546118 -4.46472 0
M  V30 55478 C 5286.52 1.51441 -4.13223 0
M  V30 55479 H 5283.64 0.114715 -0.728018 0
M  V30 55480 H 5286.28 -0.402972 -1.85678 0
M  V30 55481 H 5284.43 1.30031 -3.66093 0
M  V30 55482 H 5286.1 -1.18464 -4.4583 0
M  V30 55483 H 5284.34 -1.18095 -4.17416 0
M  V30 55484 H 5285.01 -0.246737 -5.51448 0
M  V30 55485 H 5287.49 0.994279 -4.04046 0
M  V30 55486 H 5286.37 1.73856 -5.20639 0
M  V30 55487 H 5286.63 2.50098 -3.64559 0
M  V30 55488 N 5285.69 1.57587 -0.020125 0
M  V30 55489 C 5286.93 1.90605 0.659755 0
M  V30 55490 C 5287.25 0.897278 1.73805 0
M  V30 55491 O 5288.45 1.11838 2.47396 0
M  V30 55492 C 5286.91 3.38421 1.22472 0
M  V30 55493 C 5286.52 4.47638 0.180182 0
M  V30 55494 C 5288.26 3.80519 1.88163 0
M  V30 55495 C 5286.17 5.86544 0.756276 0
M  V30 55496 H 5285.1 0.711281 0.250191 0
M  V30 55497 H 5287.75 1.83308 -0.0839587 0
M  V30 55498 H 5286.13 3.4062 2.01975 0
M  V30 55499 H 5287.31 4.56985 -0.591734 0
M  V30 55500 H 5285.62 4.14686 -0.377448 0
M  V30 55501 H 5288.22 4.81648 2.32205 0
M  V30 55502 H 5288.56 3.151 2.72062 0
M  V30 55503 H 5289.09 3.80705 1.15363 0
M  V30 55504 H 5285.83 6.55485 -0.0443772 0
M  V30 55505 H 5285.35 5.80821 1.49688 0
M  V30 55506 H 5287.03 6.34834 1.24878 0
M  V30 55507 N 5287.16 -0.252911 1.55557 0
M  V30 55508 C 5288.41 -0.979674 1.7631 0
M  V30 55509 C 5288.73 -1.86712 0.582936 0
M  V30 55510 O 5289.93 -2.63018 0.67334 0
M  V30 55511 C 5288.39 -1.79194 3.12118 0
M  V30 55512 C 5288 -0.952179 4.37764 0
M  V30 55513 C 5289.74 -2.51179 3.42212 0
M  V30 55514 C 5287.65 -1.75998 5.64605 0
M  V30 55515 H 5286.58 -0.369515 0.657248 0
M  V30 55516 H 5289.23 -0.234555 1.81995 0
M  V30 55517 H 5287.61 -2.57878 3.00525 0
M  V30 55518 H 5288.78 -0.208089 4.6033 0
M  V30 55519 H 5287.1 -0.345936 4.14961 0
M  V30 55520 H 5289.7 -3.12059 4.34193 0
M  V30 55521 H 5290.04 -3.2249 2.6326 0
M  V30 55522 H 5290.57 -1.7951 3.54994 0
M  V30 55523 H 5287.31 -1.09073 6.46362 0
M  V30 55524 H 5286.83 -2.47951 5.4615 0
M  V30 55525 H 5288.51 -2.32863 6.03642 0
M  V30 55526 N 5288.64 -1.48833 -0.518315 0
M  V30 55527 C 5289.57 -1.67125 -1.63069 0
M  V30 55528 C 5290.55 -0.520005 -1.61957 0
M  V30 55529 O 5291.74 -0.753887 -1.7897 0
M  V30 55530 C 5288.87 -1.72168 -3.01621 0
M  V30 55531 C 5287.82 -2.86909 -3.17596 0
M  V30 55532 C 5287.15 -2.77051 -4.57326 0
M  V30 55533 C 5288.45 -4.28067 -2.99259 0
M  V30 55534 H 5290.14 -2.60253 -1.48016 0
M  V30 55535 H 5287.69 -1.25243 -0.71065 0
M  V30 55536 H 5289.64 -1.83552 -3.79324 0
M  V30 55537 H 5288.36 -0.756269 -3.17723 0
M  V30 55538 H 5287.02 -2.751 -2.42313 0
M  V30 55539 H 5286.67 -1.78454 -4.7028 0
M  V30 55540 H 5286.37 -3.54052 -4.68957 0
M  V30 55541 H 5287.9 -2.90419 -5.37112 0
M  V30 55542 H 5289.31 -4.40649 -3.66744 0
M  V30 55543 H 5287.71 -5.06156 -3.22375 0
M  V30 55544 H 5288.78 -4.43717 -1.95559 0
M  V30 55545 N 5290.12 0.768075 -1.37617 0
M  V30 55546 C 5291.05 1.89072 -1.29555 0
M  V30 55547 C 5292.06 1.61432 -0.210617 0
M  V30 55548 O 5293.25 1.72281 -0.467052 0
M  V30 55549 C 5290.35 3.24385 -0.981216 0
M  V30 55550 C 5289.53 3.79642 -2.17235 0
M  V30 55551 C 5288.59 4.93438 -1.82771 0
M  V30 55552 O 5287.61 5.08831 -2.55108 0
M  V30 55553 N 5288.81 5.75317 -0.774022 0
M  V30 55554 H 5291.58 1.96502 -2.26289 0
M  V30 55555 H 5289.14 0.947353 -1.31289 0
M  V30 55556 H 5291.13 3.98035 -0.731441 0
M  V30 55557 H 5289.7 3.12433 -0.102312 0
M  V30 55558 H 5288.92 2.97726 -2.58366 0
M  V30 55559 H 5290.21 4.13291 -2.96762 0
M  V30 55560 H 5289.61 5.65433 -0.173842 0
M  V30 55561 H 5288.16 6.49177 -0.58411 0
M  V30 55562 N 5291.6 1.22247 0.994655 0
M  V30 55563 C 5292.56 0.992381 2.06602 0
M  V30 55564 C 5293.56 -0.0405307 1.60749 0
M  V30 55565 O 5294.75 0.197798 1.73073 0
M  V30 55566 C 5291.88 0.498618 3.37234 0
M  V30 55567 H 5293.08 1.94298 2.28448 0
M  V30 55568 H 5290.63 1.04091 1.16597 0
M  V30 55569 H 5291.36 -0.456418 3.21072 0
M  V30 55570 H 5291.15 1.2438 3.71849 0
M  V30 55571 H 5292.64 0.357827 4.16064 0
M  V30 55572 N 5293.08 -1.19122 1.03188 0
M  V30 55573 C 5294.3 -1.92835 0.749818 0
M  V30 55574 C 5294.72 -1.75669 -0.69179 0
M  V30 55575 O 5294.08 -1.08056 -1.47072 0
M  V30 55576 C 5294.13 -3.44505 1.09538 0
M  V30 55577 O 5293.85 -3.61122 2.48038 0
M  V30 55578 C 5295.35 -4.35335 0.83655 0
M  V30 55579 H 5292.57 -0.61245 0.274127 0
M  V30 55580 H 5295.11 -1.51176 1.37718 0
M  V30 55581 H 5293.27 -3.83986 0.513141 0
M  V30 55582 H 5293.68 -4.5495 2.61 0
M  V30 55583 H 5295.16 -5.40346 1.12827 0
M  V30 55584 H 5295.63 -4.38603 -0.228948 0
M  V30 55585 H 5296.24 -4.01539 1.40166 0
M  V30 55586 N 5294.55 -0.810149 -1.35183 0
M  V30 55587 C 5295.5 -0.221008 -2.29739 0
M  V30 55588 C 5296.47 0.64697 -1.52982 0
M  V30 55589 O 5297.66 0.591303 -1.81406 0
M  V30 55590 C 5294.8 0.621551 -3.39457 0
M  V30 55591 C 5293.91 -0.267256 -4.31173 0
M  V30 55592 C 5293.04 0.583648 -5.27984 0
M  V30 55593 C 5292.08 -0.305338 -6.11338 0
M  V30 55594 N 5291.22 0.505745 -7.00276 0
M  V30 55595 H 5296.06 -1.03276 -2.79532 0
M  V30 55596 H 5293.6 -0.520816 -1.37571 0
M  V30 55597 H 5295.56 1.12525 -4.01739 0
M  V30 55598 H 5294.19 1.39853 -2.90931 0
M  V30 55599 H 5293.24 -0.88908 -3.69864 0
M  V30 55600 H 5294.55 -0.951354 -4.89643 0
M  V30 55601 H 5293.7 1.15233 -5.95656 0
M  V30 55602 H 5292.44 1.3013 -4.70019 0
M  V30 55603 H 5291.45 -0.886266 -5.4261 0
M  V30 55604 H 5292.67 -1.02091 -6.71382 0
M  V30 55605 H 5290.62 1.20731 -6.44795 0
M  V30 55606 H 5290.54 -0.120232 -7.55904 0
M  V30 55607 H 5291.8 1.05759 -7.72292 0
M  V30 55608 N 5296.03 1.47164 -0.563966 0
M  V30 55609 C 5297.28 2.02456 -0.0424422 0
M  V30 55610 C 5297.61 1.43758 1.31011 0
M  V30 55611 O 5296.86 0.585353 1.86741 0
M  V30 55612 C 5297.16 3.57279 0.0930541 0
M  V30 55613 C 5296.83 4.34928 -1.18948 0
M  V30 55614 C 5295.49 4.55862 -1.54089 0
M  V30 55615 C 5297.84 4.79658 -2.03906 0
M  V30 55616 C 5295.17 5.18776 -2.74023 0
M  V30 55617 C 5297.52 5.43896 -3.23048 0
M  V30 55618 C 5296.19 5.63061 -3.58495 0
M  V30 55619 H 5295.46 0.740837 -0.0155307 0
M  V30 55620 H 5298.1 1.76757 -0.736838 0
M  V30 55621 H 5296.41 3.82008 0.870461 0
M  V30 55622 H 5298.1 3.97717 0.512036 0
M  V30 55623 H 5294.69 4.18918 -0.905866 0
M  V30 55624 H 5298.88 4.63257 -1.78063 0
M  V30 55625 H 5294.13 5.31807 -3.01647 0
M  V30 55626 H 5298.31 5.77517 -3.89161 0
M  V30 55627 H 5295.94 6.11582 -4.51521 0
M  V30 55628 N 5297.51 0.300763 1.54704 0
M  V30 55629 C 5298.74 -0.311198 2.04546 0
M  V30 55630 C 5299.15 -1.47537 1.17806 0
M  V30 55631 O 5298.51 -1.8136 0.203634 0
M  V30 55632 C 5298.56 -0.767659 3.53255 0
M  V30 55633 O 5298.28 0.35018 4.36698 0
M  V30 55634 C 5299.78 -1.4448 4.19095 0
M  V30 55635 H 5297 -0.0676445 0.667582 0
M  V30 55636 H 5299.55 0.440324 1.99703 0
M  V30 55637 H 5297.7 -1.46921 3.58459 0
M  V30 55638 H 5298.12 -0.00515599 5.245 0
M  V30 55639 H 5299.59 -1.71535 5.24671 0
M  V30 55640 H 5300.07 -2.38477 3.68816 0
M  V30 55641 H 5300.67 -0.786434 4.17966 0
M  V30 55642 N 5298.99 -1.57574 0.028482 0
M  V30 55643 C 5299.92 -2.13213 -0.951964 0
M  V30 55644 C 5300.9 -1.0481 -1.33973 0
M  V30 55645 O 5302.08 -1.3264 -1.41846 0
M  V30 55646 C 5299.21 -2.6587 -2.23452 0
M  V30 55647 C 5298.17 -3.79054 -1.98752 0
M  V30 55648 C 5297.49 -4.18136 -3.33266 0
M  V30 55649 C 5298.79 -5.05156 -1.32721 0
M  V30 55650 H 5300.49 -2.95386 -0.488601 0
M  V30 55651 H 5298.03 -1.42093 -0.233578 0
M  V30 55652 H 5299.99 -3.03428 -2.9242 0
M  V30 55653 H 5298.71 -1.80857 -2.71953 0
M  V30 55654 H 5297.37 -3.41933 -1.32201 0
M  V30 55655 H 5297.02 -3.30106 -3.79525 0
M  V30 55656 H 5296.72 -4.94407 -3.17546 0
M  V30 55657 H 5298.24 -4.58276 -4.03504 0
M  V30 55658 H 5299.66 -5.40304 -1.91689 0
M  V30 55659 H 5298.05 -5.86421 -1.274 0
M  V30 55660 H 5299.12 -4.83971 -0.300091 0
M  V30 55661 N 5300.47 0.244658 -1.55689 0
M  V30 55662 C 5301.71 0.96956 -1.78805 0
M  V30 55663 C 5302.07 1.82878 -0.597781 0
M  V30 55664 O 5301.36 1.87186 0.408912 0
M  V30 55665 C 5301.55 1.86159 -3.05089 0
M  V30 55666 C 5301.38 1.09021 -4.36285 0
M  V30 55667 C 5300.15 0.79441 -4.99016 0
M  V30 55668 C 5302.35 0.466703 -5.12178 0
M  V30 55669 N 5300.33 -0.000795761 -6.139 0
M  V30 55670 C 5301.7 -0.192972 -6.197 0
M  V30 55671 C 5303.76 0.377396 -4.96468 0
M  V30 55672 C 5302.46 -0.933383 -7.13218 0
M  V30 55673 C 5304.49 -0.349489 -5.90366 0
M  V30 55674 C 5303.85 -0.997794 -6.97297 0
M  V30 55675 H 5299.95 0.335821 -0.706221 0
M  V30 55676 H 5302.53 0.242491 -1.93184 0
M  V30 55677 H 5300.7 2.56067 -2.92035 0
M  V30 55678 H 5302.44 2.52223 -3.1649 0
M  V30 55679 H 5299.19 1.10675 -4.60487 0
M  V30 55680 H 5299.62 -0.386557 -6.75896 0
M  V30 55681 H 5304.26 0.864285 -4.13872 0
M  V30 55682 H 5301.98 -1.43187 -7.95313 0
M  V30 55683 H 5305.56 -0.419286 -5.80287 0
M  V30 55684 H 5304.44 -1.55127 -7.68704 0
M  V30 55685 N 5301.94 1.49106 0.510415 0
M  V30 55686 C 5302.89 1.65552 1.63387 0
M  V30 55687 C 5303.89 0.521578 1.6117 0
M  V30 55688 O 5305.09 0.700924 1.65792 0
M  V30 55689 H 5301.47 0.521862 0.541446 0
M  V30 55690 H 5303.44 2.59869 1.46664 0
M  V30 55691 C 5302.19 1.73062 3.01571 0
M  V30 55692 H 5301.51 2.59687 3.03978 0
M  V30 55693 H 5302.95 1.88607 3.79741 0
M  V30 55694 C 5301.41 0.473397 3.33557 0
M  V30 55695 O 5301.94 -0.405098 3.99652 0
M  V30 55696 N 5300.15 0.339176 2.88614 0
M  V30 55697 H 5299.69 1.05505 2.35003 0
M  V30 55698 H 5299.65 -0.500951 3.10383 0
M  V30 55699 N 5303.42 -0.760766 1.38022 0
M  V30 55700 C 5304.65 -1.54772 1.36855 0
M  V30 55701 C 5305.06 -1.89146 -0.0453306 0
M  V30 55702 O 5304.4 -1.5275 -1.02045 0
M  V30 55703 C 5304.47 -2.87915 2.15279 0
M  V30 55704 C 5304.13 -2.76118 3.64154 0
M  V30 55705 C 5305.13 -2.464 4.57802 0
M  V30 55706 C 5302.81 -2.93796 4.07418 0
M  V30 55707 C 5304.81 -2.34504 5.92694 0
M  V30 55708 C 5302.49 -2.8152 5.42393 0
M  V30 55709 C 5303.49 -2.51916 6.34844 0
M  V30 55710 O 5303.18 -2.39686 7.67337 0
M  V30 55711 H 5302.91 -0.48576 0.470121 0
M  V30 55712 H 5305.46 -0.949875 1.82117 0
M  V30 55713 H 5303.69 -3.49861 1.64724 0
M  V30 55714 H 5305.38 -3.49382 2.06609 0
M  V30 55715 H 5306.15 -2.32418 4.25684 0
M  V30 55716 H 5302.03 -3.15837 3.3581 0
M  V30 55717 H 5305.57 -2.11319 6.64823 0
M  V30 55718 H 5301.47 -2.95073 5.7411 0
M  V30 55719 H 5302.24 -2.54952 7.7778 0
M  V30 55720 N 5304.9 -1.22773 -0.988158 0
M  V30 55721 C 5305.83 -1.02634 -2.09734 0
M  V30 55722 C 5306.81 0.0542613 -1.70013 0
M  V30 55723 O 5308 -0.108879 -1.93895 0
M  V30 55724 C 5305.13 -0.608422 -3.41929 0
M  V30 55725 C 5304.08 -1.6355 -3.95519 0
M  V30 55726 C 5303.41 -1.07326 -5.23818 0
M  V30 55727 C 5304.71 -3.02664 -4.25666 0
M  V30 55728 H 5306.4 -1.95408 -2.2684 0
M  V30 55729 H 5303.95 -0.940926 -1.09007 0
M  V30 55730 H 5305.9 -0.454625 -4.1894 0
M  V30 55731 H 5304.62 0.354981 -3.24665 0
M  V30 55732 H 5303.28 -1.77715 -3.20645 0
M  V30 55733 H 5302.93 -0.101071 -5.02898 0
M  V30 55734 H 5302.63 -1.75945 -5.6064 0
M  V30 55735 H 5304.15 -0.93115 -6.03458 0
M  V30 55736 H 5305.57 -2.91845 -4.93456 0
M  V30 55737 H 5303.97 -3.6845 -4.73671 0
M  V30 55738 H 5305.04 -3.5224 -3.33249 0
M  V30 55739 N 5306.38 1.18573 -1.03818 0
M  V30 55740 C 5307.63 1.88491 -0.740102 0
M  V30 55741 C 5307.95 1.802 0.731992 0
M  V30 55742 O 5307.21 1.19515 1.54967 0
M  V30 55743 C 5307.51 3.38444 -1.14849 0
M  V30 55744 C 5307.17 3.66938 -2.62044 0
M  V30 55745 C 5305.84 3.74425 -3.02258 0
M  V30 55746 C 5308.19 3.79521 -3.5723 0
M  V30 55747 C 5305.52 3.91971 -4.3655 0
M  V30 55748 C 5307.87 3.98583 -4.91237 0
M  V30 55749 C 5306.53 4.04305 -5.31125 0
M  V30 55750 H 5305.8 0.689736 -0.270823 0
M  V30 55751 H 5308.45 1.4036 -1.30275 0
M  V30 55752 H 5306.75 3.88537 -0.504609 0
M  V30 55753 H 5308.45 3.90879 -0.895248 0
M  V30 55754 H 5305.04 3.61726 -2.29896 0
M  V30 55755 H 5309.22 3.73072 -3.27309 0
M  V30 55756 H 5304.48 3.94643 -4.66976 0
M  V30 55757 H 5308.65 4.07261 -5.64899 0
M  V30 55758 H 5306.28 4.17653 -6.35193 0
M  V30 55759 N 5307.86 0.817307 1.34751 0
M  V30 55760 C 5308.77 0.237028 2.334 0
M  V30 55761 C 5309.78 -0.625628 1.62363 0
M  V30 55762 O 5310.96 -0.534853 1.94168 0
M  V30 55763 C 5308.02 -0.596095 3.41537 0
M  V30 55764 C 5307.09 0.288305 4.28331 0
M  V30 55765 C 5306.32 -0.50515 5.31304 0
M  V30 55766 O 5306.54 -1.73893 5.43247 0
M  V30 55767 O 5305.48 0.109585 6.018 0
M  V30 55768 H 5309.3 1.05338 2.84847 0
M  V30 55769 H 5306.89 0.579324 1.37711 0
M  V30 55770 H 5308.77 -1.07027 4.07582 0
M  V30 55771 H 5307.44 -1.38986 2.92343 0
M  V30 55772 H 5306.35 0.809852 3.65229 0
M  V30 55773 H 5307.68 1.04629 4.80951 0
M  V30 55774 N 5309.34 -1.46863 0.571763 0
M  V30 55775 C 5310.56 -2.06817 0.0584702 0
M  V30 55776 C 5310.98 -1.42222 -1.2417 0
M  V30 55777 O 5310.34 -0.523717 -1.74824 0
M  V30 55778 C 5310.39 -3.61282 -0.125546 0
M  V30 55779 O 5310.11 -4.23458 1.12315 0
M  V30 55780 C 5311.61 -4.38139 -0.67445 0
M  V30 55781 H 5308.83 -0.668946 0.0524615 0
M  V30 55782 H 5311.37 -1.88653 0.789318 0
M  V30 55783 H 5309.53 -3.7891 -0.806574 0
M  V30 55784 H 5309.94 -5.16188 0.93005 0
M  V30 55785 H 5311.42 -5.46848 -0.752433 0
M  V30 55786 H 5311.89 -4.05425 -1.68901 0
M  V30 55787 H 5312.5 -4.2529 -0.0286484 0
M  V30 55788 N 5310.81 -0.308963 -1.54542 0
M  V30 55789 C 5312.06 0.298783 -1.99475 0
M  V30 55790 C 5312.38 1.54388 -1.20098 0
M  V30 55791 O 5313.58 2.22672 -1.55337 0
M  V30 55792 C 5312.04 0.582905 -3.55148 0
M  V30 55793 C 5311.65 -0.644313 -4.43343 0
M  V30 55794 C 5313.39 1.15141 -4.08586 0
M  V30 55795 C 5311.3 -0.332902 -5.90462 0
M  V30 55796 H 5310.23 0.115419 -0.745114 0
M  V30 55797 H 5312.88 -0.418911 -1.78654 0
M  V30 55798 H 5311.26 1.3604 -3.71899 0
M  V30 55799 H 5312.43 -1.42027 -4.38366 0
M  V30 55800 H 5310.75 -1.132 -4.00718 0
M  V30 55801 H 5313.35 1.39878 -5.1608 0
M  V30 55802 H 5313.69 2.0962 -3.59674 0
M  V30 55803 H 5314.22 0.435432 -3.9541 0
M  V30 55804 H 5310.96 -1.24647 -6.4354 0
M  V30 55805 H 5310.48 0.405633 -5.98427 0
M  V30 55806 H 5312.16 0.0626271 -6.4697 0
M  V30 55807 N 5312.29 1.57557 -0.0368381 0
M  V30 55808 C 5313.7 1.79855 0.500908 0
M  V30 55809 C 5314.05 0.94781 1.71788 0
M  V30 55810 O 5313.18 0.160363 2.15805 0
M  V30 55811 C 5313.77 3.26196 0.915512 0
M  V30 55812 C 5312.33 3.49462 1.39832 0
M  V30 55813 C 5311.48 2.74865 0.366688 0
M  V30 55814 H 5314.43 1.56509 -0.262823 0
M  V30 55815 H 5314.45 3.3633 1.77939 0
M  V30 55816 H 5313.96 3.88089 0.0295863 0
M  V30 55817 H 5312.06 2.92832 2.30392 0
M  V30 55818 H 5312.18 4.58177 1.40037 0
M  V30 55819 H 5310.54 2.40573 0.836469 0
M  V30 55820 H 5311.32 3.39477 -0.510905 0
M  V30 55821 N 5313.77 -0.236398 1.55817 0
M  V30 55822 C 5315 -0.980231 1.82206 0
M  V30 55823 C 5315.41 -1.78537 0.613988 0
M  V30 55824 O 5314.77 -1.77662 -0.417428 0
M  V30 55825 C 5314.82 -1.90971 3.0694 0
M  V30 55826 O 5314.54 -1.13713 4.23085 0
M  V30 55827 C 5316.04 -2.76867 3.46207 0
M  V30 55828 H 5313.26 -0.287969 0.606065 0
M  V30 55829 H 5315.81 -0.25611 2.0289 0
M  V30 55830 H 5313.96 -2.58797 2.88275 0
M  V30 55831 H 5314.38 -1.76677 4.93848 0
M  V30 55832 H 5315.85 -3.37815 4.3656 0
M  V30 55833 H 5316.33 -3.48513 2.67274 0
M  V30 55834 H 5316.93 -2.14477 3.6726 0
M  V30 55835 N 5315.25 -1.49374 -0.5025 0
M  V30 55836 C 5316.18 -1.62051 -1.62087 0
M  V30 55837 C 5317.19 -0.503275 -1.54826 0
M  V30 55838 O 5318.38 -0.775265 -1.60785 0
M  V30 55839 C 5315.48 -1.55981 -3.0087 0
M  V30 55840 C 5314.65 -2.83212 -3.33331 0
M  V30 55841 C 5313.71 -2.70216 -4.51519 0
M  V30 55842 O 5312.74 -3.44148 -4.53377 0
M  V30 55843 N 5313.94 -1.81661 -5.51343 0
M  V30 55844 H 5316.71 -2.58506 -1.5164 0
M  V30 55845 H 5314.27 -1.46444 -0.690344 0
M  V30 55846 H 5316.26 -1.44943 -3.77854 0
M  V30 55847 H 5314.83 -0.673902 -3.0525 0
M  V30 55848 H 5314.05 -3.08612 -2.45259 0
M  V30 55849 H 5315.34 -3.67564 -3.51816 0
M  V30 55850 H 5314.74 -1.20848 -5.52641 0
M  V30 55851 H 5313.29 -1.76546 -6.27435 0
M  V30 55852 N 5316.73 0.753436 -1.38424 0
M  V30 55853 C 5317.66 1.88075 -1.38383 0
M  V30 55854 C 5318.64 1.68257 -0.249723 0
M  V30 55855 O 5319.82 1.88847 -0.452827 0
M  V30 55856 C 5316.95 3.25603 -1.20829 0
M  V30 55857 C 5315.91 3.60023 -2.31446 0
M  V30 55858 C 5315.23 4.9629 -1.98997 0
M  V30 55859 C 5316.53 3.64885 -3.73706 0
M  V30 55860 H 5318.23 1.88366 -2.3272 0
M  V30 55861 H 5315.77 0.904851 -1.1202 0
M  V30 55862 H 5317.72 4.04123 -1.19426 0
M  V30 55863 H 5316.45 3.25792 -0.229547 0
M  V30 55864 H 5315.11 2.83823 -2.32035 0
M  V30 55865 H 5314.76 4.93039 -0.996062 0
M  V30 55866 H 5314.46 5.20289 -2.73082 0
M  V30 55867 H 5315.98 5.77189 -1.99213 0
M  V30 55868 H 5317.39 4.33518 -3.75147 0
M  V30 55869 H 5315.79 4.00392 -4.46997 0
M  V30 55870 H 5316.86 2.6511 -4.06011 0
M  V30 55871 N 5318.2 1.23295 0.981634 0
M  V30 55872 C 5319.45 1.0643 1.72276 0
M  V30 55873 C 5319.78 -0.398988 1.90364 0
M  V30 55874 O 5319.03 -1.31176 1.45229 0
M  V30 55875 C 5319.33 1.7335 3.12545 0
M  V30 55876 C 5319 3.23267 3.1434 0
M  V30 55877 C 5317.66 3.6417 3.14537 0
M  V30 55878 C 5320.01 4.19171 3.0975 0
M  V30 55879 C 5317.34 4.99439 3.07859 0
M  V30 55880 C 5319.69 5.5443 3.04615 0
M  V30 55881 C 5318.36 5.94699 3.03133 0
M  V30 55882 H 5317.63 0.389456 0.630401 0
M  V30 55883 H 5320.27 1.53212 1.14884 0
M  V30 55884 H 5318.58 1.18924 3.73315 0
M  V30 55885 H 5320.28 1.5778 3.68655 0
M  V30 55886 H 5316.87 2.90704 3.14943 0
M  V30 55887 H 5321.05 3.88579 3.08739 0
M  V30 55888 H 5316.31 5.29855 3.05064 0
M  V30 55889 H 5320.48 6.28459 3.00021 0
M  V30 55890 H 5318.11 6.99479 2.97714 0
M  V30 55891 N 5319.68 -1.1802 1.04446 0
M  V30 55892 C 5321.09 -1.69746 0.777372 0
M  V30 55893 C 5321.44 -1.83237 -0.701334 0
M  V30 55894 O 5320.57 -1.51457 -1.54563 0
M  V30 55895 C 5321.16 -3.08316 1.40451 0
M  V30 55896 C 5319.72 -3.57238 1.18565 0
M  V30 55897 C 5318.87 -2.3369 1.49279 0
M  V30 55898 H 5321.82 -1.02642 1.21038 0
M  V30 55899 H 5321.84 -3.71784 0.809759 0
M  V30 55900 H 5321.35 -2.98465 2.48073 0
M  V30 55901 H 5319.45 -3.72379 0.128352 0
M  V30 55902 H 5319.57 -4.40445 1.88534 0
M  V30 55903 H 5317.93 -2.37789 0.91261 0
M  V30 55904 H 5318.71 -2.26455 2.58018 0
M  V30 55905 N 5321.16 -0.824441 -1.34316 0
M  V30 55906 C 5322.09 -0.262159 -2.32024 0
M  V30 55907 C 5323.07 0.622221 -1.58311 0
M  V30 55908 O 5324.26 0.548782 -1.86285 0
M  V30 55909 C 5321.39 0.575549 -3.42498 0
M  V30 55910 C 5320.34 -0.21182 -4.27476 0
M  V30 55911 C 5319.67 0.748727 -5.29432 0
M  V30 55912 C 5320.97 -1.42086 -5.02602 0
M  V30 55913 H 5322.66 -1.07852 -2.793 0
M  V30 55914 H 5320.21 -0.520069 -1.34281 0
M  V30 55915 H 5322.16 0.979107 -4.09868 0
M  V30 55916 H 5320.88 1.42498 -2.93874 0
M  V30 55917 H 5319.54 -0.596763 -3.6171 0
M  V30 55918 H 5319.19 1.59415 -4.7707 0
M  V30 55919 H 5318.89 0.226106 -5.87165 0
M  V30 55920 H 5320.41 1.15011 -5.99671 0
M  V30 55921 H 5321.83 -1.09123 -5.62819 0
M  V30 55922 H 5320.23 -1.87923 -5.69917 0
M  V30 55923 H 5321.3 -2.19825 -4.32209 0
M  V30 55924 N 5322.64 1.46557 -0.579543 0
M  V30 55925 C 5323.57 2.3306 0.143355 0
M  V30 55926 C 5324.55 1.45154 0.886817 0
M  V30 55927 O 5325.73 1.73976 0.8629 0
M  V30 55928 C 5322.86 3.27369 1.15962 0
M  V30 55929 C 5321.82 4.24691 0.531199 0
M  V30 55930 C 5321.14 5.08485 1.6537 0
M  V30 55931 C 5322.44 5.19608 -0.529574 0
M  V30 55932 H 5324.14 2.93751 -0.578866 0
M  V30 55933 H 5321.68 1.41255 -0.279825 0
M  V30 55934 H 5323.64 3.86737 1.67368 0
M  V30 55935 H 5322.36 2.64778 1.91207 0
M  V30 55936 H 5321.02 3.6658 0.038246 0
M  V30 55937 H 5320.67 4.42281 2.39575 0
M  V30 55938 H 5320.37 5.74391 1.23889 0
M  V30 55939 H 5321.89 5.70717 2.17059 0
M  V30 55940 H 5323.31 5.73212 -0.100707 0
M  V30 55941 H 5321.7 5.9384 -0.864529 0
M  V30 55942 H 5322.77 4.63732 -1.41707 0
M  V30 55943 N 5324.12 0.317154 1.54376 0
M  V30 55944 C 5325.36 -0.287339 2.00451 0
M  V30 55945 C 5325.69 -1.52644 1.20541 0
M  V30 55946 O 5324.95 -1.93774 0.273899 0
M  V30 55947 C 5325.25 -0.672793 3.5101 0
M  V30 55948 C 5324.91 0.466403 4.48481 0
M  V30 55949 C 5323.57 0.7791 4.74851 0
M  V30 55950 C 5325.93 1.23194 5.06431 0
M  V30 55951 C 5323.25 1.86017 5.5643 0
M  V30 55952 C 5325.61 2.30304 5.89188 0
M  V30 55953 C 5324.27 2.62163 6.13862 0
M  V30 55954 H 5323.54 -0.105145 0.733502 0
M  V30 55955 H 5326.19 0.439604 1.86386 0
M  V30 55956 H 5324.49 -1.48007 3.62769 0
M  V30 55957 H 5326.19 -1.15196 3.84098 0
M  V30 55958 H 5322.78 0.212599 4.28072 0
M  V30 55959 H 5326.96 1.00361 4.86047 0
M  V30 55960 H 5322.22 2.11154 5.7378 0
M  V30 55961 H 5326.39 2.9007 6.33113 0
M  V30 55962 H 5324.02 3.46061 6.76865 0
M  V30 55963 N 5325.59 -1.57535 0.0451932 0
M  V30 55964 C 5326.84 -1.92738 -0.630853 0
M  V30 55965 C 5327.17 -0.923325 -1.70846 0
M  V30 55966 O 5326.45 0.0515828 -1.94432 0
M  V30 55967 C 5326.73 -3.38352 -1.23248 0
M  V30 55968 C 5326.58 -4.49503 -0.163332 0
M  V30 55969 C 5327.9 -3.84241 -2.14586 0
M  V30 55970 H 5325.02 -0.700892 -0.227858 0
M  V30 55971 H 5327.66 -1.89706 0.105737 0
M  V30 55972 H 5325.81 -3.41067 -1.86025 0
M  V30 55973 H 5327.49 -4.58917 0.468241 0
M  V30 55974 H 5325.73 -4.308 0.509318 0
M  V30 55975 H 5326.4 -5.4846 -0.624189 0
M  V30 55976 H 5328.88 -3.83364 -1.61776 0
M  V30 55977 H 5327.75 -4.8679 -2.53626 0
M  V30 55978 H 5328.01 -3.20657 -3.04354 0
M  V30 55979 N 5327.07 0.228132 -1.5594 0
M  V30 55980 C 5328.3 0.970554 -1.82723 0
M  V30 55981 C 5328.72 1.78209 -0.623448 0
M  V30 55982 O 5328.07 1.77881 0.408001 0
M  V30 55983 C 5328.12 1.89341 -3.07949 0
M  V30 55984 O 5327.84 1.11468 -4.23682 0
M  V30 55985 C 5329.35 2.75027 -3.47671 0
M  V30 55986 H 5326.57 0.284751 -0.607584 0
M  V30 55987 H 5329.11 0.245347 -2.03023 0
M  V30 55988 H 5327.26 2.57265 -2.89644 0
M  V30 55989 H 5327.68 1.74055 -4.94778 0
M  V30 55990 H 5329.15 3.35495 -4.38346 0
M  V30 55991 H 5329.63 3.4709 -2.69119 0
M  V30 55992 H 5330.24 2.12527 -3.68392 0
M  V30 55993 N 5328.55 1.49639 0.494571 0
M  V30 55994 C 5329.48 1.61393 1.61331 0
M  V30 55995 C 5330.46 0.462759 1.55876 0
M  V30 55996 O 5331.65 0.679164 1.7584 0
M  V30 55997 C 5328.77 1.57482 2.99862 0
M  V30 55998 C 5327.82 2.77874 3.23556 0
M  V30 55999 S 5328.65 4.39471 3.05983 0
M  V30 56000 C 5329.81 4.38216 4.46898 0
M  V30 56001 H 5330.04 2.56029 1.51117 0
M  V30 56002 H 5327.57 1.38609 0.680204 0
M  V30 56003 H 5329.53 1.55911 3.79739 0
M  V30 56004 H 5328.19 0.641215 3.07485 0
M  V30 56005 H 5327.39 2.71375 4.24701 0
M  V30 56006 H 5326.99 2.7689 2.51411 0
M  V30 56007 H 5329.28 4.10331 5.39105 0
M  V30 56008 H 5330.22 5.39661 4.58445 0
M  V30 56009 H 5330.63 3.68212 4.27879 0
M  V30 56010 N 5330.03 -0.746085 1.38821 0
M  V30 56011 C 5330.99 -1.84162 1.36444 0
M  V30 56012 C 5331.99 -1.58625 0.263555 0
M  V30 56013 O 5333.18 -1.66231 0.520859 0
M  V30 56014 C 5330.31 -3.21765 1.12607 0
M  V30 56015 H 5331.51 -1.87676 2.33918 0
M  V30 56016 H 5329.06 -0.948581 1.24224 0
M  V30 56017 H 5329.79 -3.23916 0.157694 0
M  V30 56018 H 5329.58 -3.41696 1.92319 0
M  V30 56019 H 5331.07 -4.01836 1.13657 0
M  V30 56020 N 5331.51 -1.23814 -0.975081 0
M  V30 56021 C 5332.75 -1.07342 -1.71709 0
M  V30 56022 C 5333.08 0.388887 -1.90573 0
M  V30 56023 O 5332.34 1.30404 -1.45922 0
M  V30 56024 C 5332.64 -1.75005 -3.11622 0
M  V30 56025 C 5332.3 -3.24929 -3.12621 0
M  V30 56026 C 5330.96 -3.65833 -3.12601 0
M  V30 56027 C 5333.32 -4.20807 -3.07523 0
M  V30 56028 C 5330.64 -5.01065 -3.05206 0
M  V30 56029 C 5333 -5.56037 -3.01671 0
M  V30 56030 C 5331.66 -5.96298 -2.99975 0
M  V30 56031 H 5330.93 -0.392793 -0.628327 0
M  V30 56032 H 5333.58 -1.53819 -1.1407 0
M  V30 56033 H 5331.88 -1.20902 -3.72679 0
M  V30 56034 H 5333.58 -1.59733 -3.67813 0
M  V30 56035 H 5330.17 -2.9237 -3.13397 0
M  V30 56036 H 5334.35 -3.90211 -3.06674 0
M  V30 56037 H 5329.61 -5.31465 -3.0225 0
M  V30 56038 H 5333.78 -6.30041 -2.96684 0
M  V30 56039 H 5331.41 -7.01048 -2.94 0
M  V30 56040 N 5332.98 1.17465 -1.0507 0
M  V30 56041 C 5334.23 1.87973 -0.761179 0
M  V30 56042 C 5334.56 1.80758 0.709932 0
M  V30 56043 O 5333.84 1.21475 1.51902 0
M  V30 56044 C 5334.12 3.38051 -1.24072 0
M  V30 56045 C 5333.97 3.54022 -2.77467 0
M  V30 56046 C 5335.29 4.32033 -0.838764 0
M  V30 56047 H 5332.41 0.682563 -0.277987 0
M  V30 56048 H 5335.05 1.38143 -1.30448 0
M  V30 56049 H 5333.2 3.8062 -0.778522 0
M  V30 56050 H 5334.88 3.20477 -3.31801 0
M  V30 56051 H 5333.12 2.96341 -3.16803 0
M  V30 56052 H 5333.79 4.59367 -3.06082 0
M  V30 56053 H 5336.27 3.97299 -1.23665 0
M  V30 56054 H 5335.14 5.35579 -1.20192 0
M  V30 56055 H 5335.4 4.4135 0.257343 0
M  V30 56056 N 5334.46 0.831553 1.33877 0
M  V30 56057 C 5335.4 0.20468 2.2728 0
M  V30 56058 C 5336.37 -0.64394 1.49306 0
M  V30 56059 O 5337.56 -0.6058 1.785 0
M  V30 56060 C 5334.68 -0.713293 3.31104 0
M  V30 56061 C 5333.73 0.0589153 4.26459 0
M  V30 56062 S 5334.56 1.4119 5.16552 0
M  V30 56063 C 5335.72 0.499026 6.23907 0
M  V30 56064 H 5335.95 0.99654 2.80101 0
M  V30 56065 H 5333.49 0.62791 1.41055 0
M  V30 56066 H 5335.44 -1.23735 3.91408 0
M  V30 56067 H 5334.1 -1.47875 2.77113 0
M  V30 56068 H 5333.3 -0.63929 4.99929 0
M  V30 56069 H 5332.9 0.513795 3.70454 0
M  V30 56070 H 5335.19 -0.30603 6.76808 0
M  V30 56071 H 5336.13 1.20366 6.97795 0
M  V30 56072 H 5336.54 0.0836227 5.64438 0
M  V30 56073 N 5335.94 -1.46248 0.587307 0
M  V30 56074 C 5336.87 -2.33132 -0.130994 0
M  V30 56075 C 5337.85 -1.45622 -0.879107 0
M  V30 56076 O 5339.04 -1.74431 -0.853662 0
M  V30 56077 C 5336.17 -3.27979 -1.14224 0
M  V30 56078 C 5335.12 -4.24967 -0.508669 0
M  V30 56079 C 5334.45 -5.09355 -1.62672 0
M  V30 56080 C 5335.75 -5.1932 0.557122 0
M  V30 56081 H 5337.44 -2.9344 0.594436 0
M  V30 56082 H 5334.99 -1.41105 0.287312 0
M  V30 56083 H 5336.94 -3.8762 -1.65315 0
M  V30 56084 H 5335.66 -2.65788 -1.89801 0
M  V30 56085 H 5334.32 -3.66595 -0.0188049 0
M  V30 56086 H 5333.97 -4.43546 -2.37226 0
M  V30 56087 H 5333.67 -5.7504 -1.20841 0
M  V30 56088 H 5335.2 -5.7186 -2.14029 0
M  V30 56089 H 5336.61 -5.7315 0.131105 0
M  V30 56090 H 5335.01 -5.93373 0.89601 0
M  V30 56091 H 5336.08 -4.62974 1.44164 0
M  V30 56092 N 5337.42 -0.325336 -1.54205 0
M  V30 56093 C 5338.35 0.532494 -2.27347 0
M  V30 56094 C 5339.33 1.11787 -1.2821 0
M  V30 56095 O 5340.52 1.14266 -1.57025 0
M  V30 56096 C 5337.65 1.69263 -3.03261 0
M  V30 56097 C 5336.6 1.23647 -4.0975 0
M  V30 56098 C 5335.93 2.4837 -4.73515 0
M  V30 56099 C 5337.23 0.350061 -5.21126 0
M  V30 56100 H 5338.92 -0.0776161 -2.99299 0
M  V30 56101 H 5336.47 -0.0387699 -1.43948 0
M  V30 56102 H 5338.42 2.29905 -3.5316 0
M  V30 56103 H 5337.14 2.32936 -2.28929 0
M  V30 56104 H 5335.8 0.652979 -3.60738 0
M  V30 56105 H 5335.45 3.1041 -3.95796 0
M  V30 56106 H 5335.15 2.18538 -5.45449 0
M  V30 56107 H 5336.67 3.0977 -5.26189 0
M  V30 56108 H 5338.09 0.862812 -5.6677 0
M  V30 56109 H 5336.48 0.144449 -5.99926 0
M  V30 56110 H 5337.55 -0.618626 -4.80938 0
M  V30 56111 N 5338.9 1.57509 -0.0535471 0
M  V30 56112 C 5340.14 1.9307 0.620623 0
M  V30 56113 C 5340.48 0.932372 1.70354 0
M  V30 56114 O 5339.75 -0.0412709 1.94456 0
M  V30 56115 C 5340.03 3.39001 1.21451 0
M  V30 56116 C 5339.89 4.49584 0.139492 0
M  V30 56117 C 5341.21 3.85373 2.12545 0
M  V30 56118 H 5338.33 0.702091 0.224138 0
M  V30 56119 H 5340.97 1.89647 -0.115796 0
M  V30 56120 H 5339.12 3.42049 1.84214 0
M  V30 56121 H 5340.79 4.58663 -0.492572 0
M  V30 56122 H 5339.03 4.30524 -0.532157 0
M  V30 56123 H 5339.7 5.48783 0.595094 0
M  V30 56124 H 5342.18 3.84216 1.59741 0
M  V30 56125 H 5341.06 4.88129 2.51041 0
M  V30 56126 H 5341.32 3.22267 3.02649 0
M  V30 56127 N 5340.38 -0.219858 1.56059 0
M  V30 56128 C 5341.32 -1.27248 1.92553 0
M  V30 56129 C 5342.29 -1.4649 0.782934 0
M  V30 56130 O 5343.48 -1.60031 1.03897 0
M  V30 56131 C 5340.62 -2.61748 2.24905 0
M  V30 56132 C 5339.73 -2.5029 3.52107 0
M  V30 56133 C 5338.87 -3.77325 3.73898 0
M  V30 56134 C 5337.9 -3.60596 4.94608 0
M  V30 56135 N 5337.04 -4.79585 5.12779 0
M  V30 56136 H 5341.88 -0.954252 2.82308 0
M  V30 56137 H 5339.42 -0.459879 1.39727 0
M  V30 56138 H 5341.38 -3.40074 2.41672 0
M  V30 56139 H 5340.01 -2.91663 1.38321 0
M  V30 56140 H 5339.06 -1.63389 3.43523 0
M  V30 56141 H 5340.37 -2.3385 4.40585 0
M  V30 56142 H 5339.52 -4.64094 3.90771 0
M  V30 56143 H 5338.26 -3.96692 2.83702 0
M  V30 56144 H 5337.27 -2.72211 4.77683 0
M  V30 56145 H 5338.49 -3.42698 5.86289 0
M  V30 56146 H 5336.44 -4.99262 4.25528 0
M  V30 56147 H 5336.36 -4.65878 5.95394 0
M  V30 56148 H 5337.62 -5.67775 5.34089 0
M  V30 56149 N 5341.85 -1.49899 -0.486629 0
M  V30 56150 C 5342.8 -1.64016 -1.58375 0
M  V30 56151 C 5343.79 -0.495269 -1.53088 0
M  V30 56152 O 5344.98 -0.748932 -1.60375 0
M  V30 56153 C 5342.11 -1.72331 -2.96912 0
M  V30 56154 C 5341.19 -2.92446 -3.07142 0
M  V30 56155 N 5341.59 -4.16337 -2.87224 0
M  V30 56156 C 5339.88 -2.90681 -3.38261 0
M  V30 56157 C 5340.58 -4.97155 -3.02013 0
M  V30 56158 N 5339.56 -4.30801 -3.31529 0
M  V30 56159 H 5343.36 -2.57511 -1.41652 0
M  V30 56160 H 5340.88 -1.46869 -0.693054 0
M  V30 56161 H 5342.87 -1.80545 -3.75778 0
M  V30 56162 H 5341.53 -0.799835 -3.14695 0
M  V30 56163 H 5342.54 -4.46086 -2.63112 0
M  V30 56164 H 5339.22 -2.07771 -3.62129 0
M  V30 56165 H 5340.61 -6.05622 -2.90985 0
M  V30 56166 N 5343.33 0.738712 -1.39215 0
M  V30 56167 C 5344.28 1.85269 -1.37638 0
M  V30 56168 C 5345.25 1.64406 -0.236629 0
M  V30 56169 O 5346.43 1.85864 -0.431169 0
M  V30 56170 C 5343.57 3.22741 -1.22199 0
M  V30 56171 C 5342.69 3.55334 -2.45687 0
M  V30 56172 C 5341.82 4.82188 -2.22864 0
M  V30 56173 C 5340.86 5.07613 -3.42047 0
M  V30 56174 N 5340 6.25668 -3.18565 0
M  V30 56175 H 5344.84 1.85951 -2.32865 0
M  V30 56176 H 5342.37 0.908675 -1.15678 0
M  V30 56177 H 5344.33 4.02091 -1.1126 0
M  V30 56178 H 5342.96 3.21346 -0.306033 0
M  V30 56179 H 5342.01 2.70713 -2.67243 0
M  V30 56180 H 5343.33 3.70042 -3.3447 0
M  V30 56181 H 5342.48 5.69511 -2.09146 0
M  V30 56182 H 5341.22 4.69645 -1.3147 0
M  V30 56183 H 5340.22 4.18752 -3.56267 0
M  V30 56184 H 5341.45 5.22042 -4.34337 0
M  V30 56185 H 5339.4 6.14421 -2.29832 0
M  V30 56186 H 5339.31 6.40947 -4.00903 0
M  V30 56187 H 5340.58 7.15841 -3.08533 0
M  V30 56188 N 5344.81 1.24329 0.968501 0
M  V30 56189 C 5345.76 1.00198 2.04803 0
M  V30 56190 C 5346.74 -0.0562959 1.60801 0
M  V30 56191 O 5347.94 0.15733 1.76299 0
M  V30 56192 C 5345.06 0.607868 3.37875 0
M  V30 56193 C 5344.15 1.70218 3.88441 0
M  V30 56194 N 5344.54 2.93478 4.11952 0
M  V30 56195 C 5342.84 1.57951 4.17094 0
M  V30 56196 C 5343.54 3.64412 4.53408 0
M  V30 56197 N 5342.52 2.91972 4.58534 0
M  V30 56198 H 5346.32 1.93794 2.20955 0
M  V30 56199 H 5343.83 1.14444 1.15223 0
M  V30 56200 H 5345.83 0.416225 4.14817 0
M  V30 56201 H 5344.49 -0.320913 3.2311 0
M  V30 56202 H 5345.5 3.29664 3.99427 0
M  V30 56203 H 5342.18 0.718697 4.11268 0
M  V30 56204 H 5343.57 4.70142 4.80017 0
M  V30 56205 N 5346.29 -1.16906 1.05692 0
M  V30 56206 C 5347.52 -1.91201 0.790552 0
M  V30 56207 C 5347.93 -1.77097 -0.654372 0
M  V30 56208 O 5347.29 -1.11151 -1.44747 0
M  V30 56209 C 5347.34 -3.42104 1.1682 0
M  V30 56210 O 5347.06 -3.55779 2.55642 0
M  V30 56211 C 5348.56 -4.33463 0.928703 0
M  V30 56212 H 5345.78 -0.606498 0.287056 0
M  V30 56213 H 5348.32 -1.4822 1.40893 0
M  V30 56214 H 5346.48 -3.82812 0.594474 0
M  V30 56215 H 5346.89 -4.49311 2.70591 0
M  V30 56216 H 5348.37 -5.37831 1.24263 0
M  V30 56217 H 5348.84 -4.3899 -0.135862 0
M  V30 56218 H 5349.45 -3.98476 1.48652 0
M  V30 56219 N 5347.77 -0.838641 -1.33434 0
M  V30 56220 C 5349.01 -0.434239 -1.97789 0
M  V30 56221 C 5349.34 1.00646 -1.66435 0
M  V30 56222 O 5348.6 1.71845 -0.93637 0
M  V30 56223 C 5348.89 -0.601548 -3.52301 0
M  V30 56224 C 5348.56 -2.01031 -4.03605 0
M  V30 56225 C 5347.22 -2.39565 -4.17327 0
M  V30 56226 C 5349.57 -2.9305 -4.31011 0
M  V30 56227 C 5346.9 -3.69422 -4.55789 0
M  V30 56228 C 5349.25 -4.22388 -4.70926 0
M  V30 56229 C 5347.92 -4.60878 -4.82853 0
M  V30 56230 H 5347.19 -0.158899 -0.723762 0
M  V30 56231 H 5349.84 -1.06562 -1.59113 0
M  V30 56232 H 5348.14 0.113146 -3.91637 0
M  V30 56233 H 5349.84 -0.268939 -4.00097 0
M  V30 56234 H 5346.43 -1.70104 -3.93399 0
M  V30 56235 H 5350.61 -2.64517 -4.19934 0
M  V30 56236 H 5345.87 -3.99049 -4.63217 0
M  V30 56237 H 5350.04 -4.93766 -4.91088 0
M  V30 56238 H 5347.67 -5.61548 -5.12413 0
M  V30 56239 N 5349.24 1.45934 -0.595055 0
M  V30 56240 C 5350.17 2.33198 0.118628 0
M  V30 56241 C 5351.15 1.46086 0.871372 0
M  V30 56242 O 5352.34 1.74881 0.844399 0
M  V30 56243 C 5349.47 3.2858 1.12483 0
M  V30 56244 C 5348.42 4.2523 0.486125 0
M  V30 56245 C 5347.75 5.1021 1.59968 0
M  V30 56246 C 5349.05 5.19017 -0.584655 0
M  V30 56247 H 5350.74 2.9312 -0.609989 0
M  V30 56248 H 5348.29 1.4095 -0.294791 0
M  V30 56249 H 5350.24 3.88491 1.63257 0
M  V30 56250 H 5348.97 2.66791 1.88388 0
M  V30 56251 H 5347.63 3.666 -0.00063684 0
M  V30 56252 H 5347.27 4.44798 2.3487 0
M  V30 56253 H 5346.97 5.75673 1.1779 0
M  V30 56254 H 5348.5 5.72987 2.10994 0
M  V30 56255 H 5349.91 5.73072 -0.161499 0
M  V30 56256 H 5348.31 5.9289 -0.927465 0
M  V30 56257 H 5349.38 4.62203 -1.46617 0
M  V30 56258 N 5350.72 0.33351 1.54031 0
M  V30 56259 C 5351.95 -0.267741 2.0516 0
M  V30 56260 C 5352.37 -1.45005 1.20909 0
M  V30 56261 O 5351.72 -1.80888 0.242058 0
M  V30 56262 C 5351.77 -0.692555 3.54804 0
M  V30 56263 O 5351.49 0.442732 4.35857 0
M  V30 56264 C 5353 -1.35558 4.22065 0
M  V30 56265 H 5350.22 -0.0534689 0.668866 0
M  V30 56266 H 5352.76 0.482585 1.98724 0
M  V30 56267 H 5350.91 -1.39284 3.61495 0
M  V30 56268 H 5351.33 0.106099 5.24393 0
M  V30 56269 H 5352.8 -1.60367 5.28192 0
M  V30 56270 H 5353.28 -2.30601 3.73791 0
M  V30 56271 H 5353.89 -0.6976 4.1954 0
M  V30 56272 N 5352.2 -1.57478 0.0618994 0
M  V30 56273 C 5353.13 -2.15185 -0.906525 0
M  V30 56274 C 5354.11 -1.07629 -1.3172 0
M  V30 56275 O 5355.3 -1.35619 -1.39001 0
M  V30 56276 C 5352.43 -2.7055 -2.17762 0
M  V30 56277 C 5351.38 -3.83184 -1.90667 0
M  V30 56278 C 5350.71 -4.25111 -3.24322 0
M  V30 56279 C 5352.01 -5.07857 -1.21976 0
M  V30 56280 H 5353.7 -2.96356 -0.425836 0
M  V30 56281 H 5351.25 -1.42556 -0.203385 0
M  V30 56282 H 5353.2 -3.09562 -2.85918 0
M  V30 56283 H 5351.92 -1.86585 -2.68055 0
M  V30 56284 H 5350.58 -3.44661 -1.24919 0
M  V30 56285 H 5350.23 -3.38082 -3.72438 0
M  V30 56286 H 5349.93 -5.01031 -3.06988 0
M  V30 56287 H 5351.45 -4.66732 -3.93692 0
M  V30 56288 H 5352.87 -5.44248 -1.80185 0
M  V30 56289 H 5351.27 -5.88991 -1.14933 0
M  V30 56290 H 5352.34 -4.84498 -0.197366 0
M  V30 56291 N 5353.68 0.211579 -1.56173 0
M  V30 56292 C 5354.93 0.934487 -1.79649 0
M  V30 56293 C 5355.25 1.83933 -0.632359 0
M  V30 56294 O 5354.51 1.9192 0.382773 0
M  V30 56295 C 5354.81 1.79646 -3.08969 0
M  V30 56296 C 5354.47 1.044 -4.38647 0
M  V30 56297 C 5353.14 0.836184 -4.73879 0
M  V30 56298 C 5355.49 0.513368 -5.18666 0
M  V30 56299 C 5352.82 0.0859913 -5.86637 0
M  V30 56300 C 5355.17 -0.223531 -6.32205 0
M  V30 56301 C 5353.83 -0.442513 -6.66032 0
M  V30 56302 H 5353.1 0.341953 -0.65738 0
M  V30 56303 H 5355.75 0.201957 -1.90432 0
M  V30 56304 H 5354.05 2.59716 -2.93351 0
M  V30 56305 H 5355.75 2.35812 -3.24336 0
M  V30 56306 H 5352.34 1.21597 -4.10989 0
M  V30 56307 H 5356.52 0.661368 -4.91874 0
M  V30 56308 H 5351.78 -0.0938016 -6.11328 0
M  V30 56309 H 5355.95 -0.642161 -6.93433 0
M  V30 56310 H 5353.58 -1.02574 -7.53248 0
M  V30 56311 N 5355.16 1.50155 0.478672 0
M  V30 56312 C 5356.09 1.71389 1.58581 0
M  V30 56313 C 5357.07 0.562762 1.60521 0
M  V30 56314 O 5358.25 0.801073 1.76908 0
M  V30 56315 C 5355.38 1.80105 2.96951 0
M  V30 56316 C 5354.34 2.95229 3.09877 0
M  V30 56317 C 5353.66 2.89079 4.49819 0
M  V30 56318 C 5354.96 4.35851 2.87804 0
M  V30 56319 H 5356.66 2.64086 1.41064 0
M  V30 56320 H 5354.2 1.27083 0.677194 0
M  V30 56321 H 5356.16 1.93545 3.74324 0
M  V30 56322 H 5354.88 0.840242 3.15607 0
M  V30 56323 H 5353.54 2.81427 2.34934 0
M  V30 56324 H 5353.19 1.9086 4.65383 0
M  V30 56325 H 5352.89 3.66361 4.59405 0
M  V30 56326 H 5354.41 3.04558 5.29223 0
M  V30 56327 H 5355.82 4.50218 3.54932 0
M  V30 56328 H 5354.22 5.14525 3.08842 0
M  V30 56329 H 5355.29 4.48746 1.83726 0
M  V30 56330 N 5356.63 -0.731319 1.39605 0
M  V30 56331 C 5357.56 -1.8585 1.41358 0
M  V30 56332 C 5358.55 -1.67838 0.276459 0
M  V30 56333 O 5359.73 -1.88103 0.482813 0
M  V30 56334 C 5356.86 -3.2364 1.25994 0
M  V30 56335 C 5355.81 -3.56296 2.37144 0
M  V30 56336 C 5355.14 -4.93062 2.06868 0
M  V30 56337 C 5356.44 -3.58893 3.79464 0
M  V30 56338 H 5358.13 -1.8464 2.35687 0
M  V30 56339 H 5355.68 -0.886915 1.13445 0
M  V30 56340 H 5357.63 -4.02172 1.25841 0
M  V30 56341 H 5356.36 -3.25386 0.281349 0
M  V30 56342 H 5355.02 -2.80095 2.36521 0
M  V30 56343 H 5354.66 -4.91392 1.07437 0
M  V30 56344 H 5354.36 -5.15878 2.81324 0
M  V30 56345 H 5355.89 -5.73946 2.0837 0
M  V30 56346 H 5357.3 -4.27494 3.81997 0
M  V30 56347 H 5355.7 -3.9323 4.53311 0
M  V30 56348 H 5356.77 -2.58617 4.10177 0
M  V30 56349 N 5358.11 -1.24841 -0.961894 0
M  V30 56350 C 5359.52 -1.08374 -1.52026 0
M  V30 56351 C 5359.87 0.342937 -1.9318 0
M  V30 56352 O 5359 1.23203 -1.77904 0
M  V30 56353 C 5359.59 -1.96112 -2.76271 0
M  V30 56354 C 5358.15 -1.83851 -3.28444 0
M  V30 56355 C 5357.3 -1.90698 -2.0132 0
M  V30 56356 H 5360.25 -1.38233 -0.779564 0
M  V30 56357 H 5360.27 -1.49682 -3.49822 0
M  V30 56358 H 5359.78 -2.9994 -2.46288 0
M  V30 56359 H 5357.89 -0.828781 -3.63266 0
M  V30 56360 H 5358 -2.68265 -3.96952 0
M  V30 56361 H 5356.36 -1.34495 -2.16294 0
M  V30 56362 H 5357.15 -2.96117 -1.73694 0
M  V30 56363 N 5359.59 1.16344 -1.0631 0
M  V30 56364 C 5360.84 1.87155 -0.781073 0
M  V30 56365 C 5361.17 1.81501 0.69072 0
M  V30 56366 O 5360.44 1.23079 1.50605 0
M  V30 56367 C 5360.73 3.36716 -1.2765 0
M  V30 56368 C 5360.58 3.5106 -2.81207 0
M  V30 56369 C 5361.9 4.31119 -0.884539 0
M  V30 56370 H 5359.02 0.679576 -0.285211 0
M  V30 56371 H 5361.66 1.36751 -1.31906 0
M  V30 56372 H 5359.81 3.79772 -0.818848 0
M  V30 56373 H 5361.48 3.1694 -3.35182 0
M  V30 56374 H 5359.73 2.92965 -3.19928 0
M  V30 56375 H 5360.4 4.56094 -3.10937 0
M  V30 56376 H 5362.87 3.95965 -1.27871 0
M  V30 56377 H 5361.75 5.34274 -1.25866 0
M  V30 56378 H 5362.01 4.41598 0.210518 0
M  V30 56379 N 5361.07 0.845705 1.32987 0
M  V30 56380 C 5362.03 0.288985 2.27371 0
M  V30 56381 C 5363.03 -0.54621 1.51239 0
M  V30 56382 O 5364.22 -0.359012 1.7046 0
M  V30 56383 C 5361.35 -0.592122 3.35718 0
M  V30 56384 H 5362.55 1.12191 2.78124 0
M  V30 56385 H 5360.1 0.619327 1.43506 0
M  V30 56386 H 5360.83 -1.44721 2.90218 0
M  V30 56387 H 5360.62 0.00557039 3.921 0
M  V30 56388 H 5362.11 -0.974705 4.06066 0
M  V30 56389 N 5362.55 -1.45617 0.602786 0
M  V30 56390 C 5363.8 -2.01482 0.0937103 0
M  V30 56391 C 5364.11 -1.47757 -1.28168 0
M  V30 56392 O 5365.31 -1.95569 -1.88322 0
M  V30 56393 C 5363.77 -3.5971 0.116864 0
M  V30 56394 C 5363.38 -4.22432 1.49181 0
M  V30 56395 C 5365.12 -4.23158 -0.33722 0
M  V30 56396 C 5363.03 -5.72798 1.47161 0
M  V30 56397 H 5361.96 -0.753352 0.0312647 0
M  V30 56398 H 5364.61 -1.67139 0.757406 0
M  V30 56399 H 5362.99 -3.91221 -0.613391 0
M  V30 56400 H 5364.17 -4.02503 2.24339 0
M  V30 56401 H 5362.48 -3.71159 1.88759 0
M  V30 56402 H 5365.08 -5.33408 -0.37144 0
M  V30 56403 H 5365.42 -3.93496 -1.35892 0
M  V30 56404 H 5365.95 -3.96348 0.339614 0
M  V30 56405 H 5362.69 -6.07152 2.47076 0
M  V30 56406 H 5362.21 -5.94933 0.762538 0
M  V30 56407 H 5363.89 -6.35903 1.19317 0
M  V30 56408 N 5364.02 -0.341674 -1.53852 0
M  V30 56409 C 5365.26 0.255782 -2.02793 0
M  V30 56410 C 5365.63 1.47917 -1.22412 0
M  V30 56411 O 5366.83 2.15068 -1.61243 0
M  V30 56412 C 5365.1 0.563993 -3.52922 0
M  V30 56413 S 5366.66 1.13853 -4.23772 0
M  V30 56414 H 5363.48 0.0762618 -0.706898 0
M  V30 56415 H 5366.08 -0.479001 -1.89541 0
M  V30 56416 H 5364.78 -0.334242 -4.09037 0
M  V30 56417 H 5364.31 1.32849 -3.7029 0
M  V30 56418 H 5366.33 2.42436 -4.32943 0
M  V30 56419 N 5365.5 1.57443 -0.07025 0
M  V30 56420 C 5366.43 2.15662 0.8951 0
M  V30 56421 C 5367.41 1.08326 1.31147 0
M  V30 56422 O 5368.6 1.36354 1.3828 0
M  V30 56423 C 5365.73 2.71701 2.16324 0
M  V30 56424 C 5364.68 3.8419 1.88632 0
M  V30 56425 C 5364.01 4.26825 3.22063 0
M  V30 56426 C 5365.31 5.08497 1.19281 0
M  V30 56427 H 5367 2.96578 0.410113 0
M  V30 56428 H 5364.55 1.42662 0.195822 0
M  V30 56429 H 5366.5 3.11074 2.84273 0
M  V30 56430 H 5365.23 1.88004 2.67062 0
M  V30 56431 H 5363.89 3.45318 1.23089 0
M  V30 56432 H 5363.53 3.40052 3.70639 0
M  V30 56433 H 5363.23 5.02652 3.04326 0
M  V30 56434 H 5364.76 4.68813 3.91212 0
M  V30 56435 H 5366.17 5.45196 1.77296 0
M  V30 56436 H 5364.57 5.89592 1.11808 0
M  V30 56437 H 5365.64 4.84596 0.171669 0
M  V30 56438 N 5366.98 -0.203294 1.56283 0
M  V30 56439 C 5368.21 -0.941362 1.84244 0
M  V30 56440 C 5368.62 -1.77195 0.651721 0
M  V30 56441 O 5367.98 -1.78507 -0.37965 0
M  V30 56442 C 5368.03 -1.84418 3.10922 0
M  V30 56443 O 5367.75 -1.04714 4.25402 0
M  V30 56444 C 5369.25 -2.69461 3.52002 0
M  V30 56445 H 5366.47 -0.275049 0.612037 0
M  V30 56446 H 5369.02 -0.213017 2.03388 0
M  V30 56447 H 5367.17 -2.52624 2.937 0
M  V30 56448 H 5367.59 -1.66162 4.97484 0
M  V30 56449 H 5369.06 -3.28479 4.43628 0
M  V30 56450 H 5369.54 -3.42765 2.74607 0
M  V30 56451 H 5370.14 -2.06639 3.71726 0
M  V30 56452 N 5368.46 -1.50407 -0.470702 0
M  V30 56453 C 5369.69 -1.64933 -1.24422 0
M  V30 56454 C 5370.1 -0.332204 -1.86261 0
M  V30 56455 O 5369.44 0.695859 -1.7001 0
M  V30 56456 C 5369.5 -2.68298 -2.39283 0
M  V30 56457 C 5369.17 -4.11842 -1.98078 0
M  V30 56458 C 5370.16 -4.97698 -1.50309 0
M  V30 56459 C 5367.85 -4.5776 -2.06787 0
M  V30 56460 C 5369.84 -6.2752 -1.11791 0
M  V30 56461 C 5367.53 -5.87588 -1.67881 0
M  V30 56462 C 5368.53 -6.72293 -1.20461 0
M  V30 56463 O 5368.22 -7.99697 -0.820938 0
M  V30 56464 H 5367.95 -0.557431 -0.382422 0
M  V30 56465 H 5370.5 -1.97384 -0.568222 0
M  V30 56466 H 5368.73 -2.3109 -3.10055 0
M  V30 56467 H 5370.42 -2.7204 -3.01246 0
M  V30 56468 H 5371.19 -4.63439 -1.43002 0
M  V30 56469 H 5367.07 -3.91975 -2.42646 0
M  V30 56470 H 5370.61 -6.93588 -0.747073 0
M  V30 56471 H 5366.51 -6.21368 -1.74847 0
M  V30 56472 H 5367.27 -8.12971 -0.949752 0
M  V30 56473 N 5369.94 0.723905 -1.39991 0
M  V30 56474 C 5370.9 1.81968 -1.39356 0
M  V30 56475 C 5371.9 1.58186 -0.288757 0
M  V30 56476 O 5373.09 1.65381 -0.547239 0
M  V30 56477 C 5370.22 3.19932 -1.17712 0
M  V30 56478 H 5371.42 1.83931 -2.36874 0
M  V30 56479 H 5368.97 0.928698 -1.25718 0
M  V30 56480 H 5369.7 3.23625 -0.209206 0
M  V30 56481 H 5369.49 3.38593 -1.97731 0
M  V30 56482 H 5370.98 3.99976 -1.20036 0
M  V30 56483 N 5371.42 1.2535 0.95526 0
M  V30 56484 C 5372.36 1.05468 2.07314 0
M  V30 56485 C 5373.36 -0.0142103 1.69394 0
M  V30 56486 O 5374.56 0.141355 1.79444 0
M  V30 56487 H 5370.94 0.324119 0.678565 0
M  V30 56488 H 5372.91 2.00238 2.2124 0
M  V30 56489 C 5371.66 0.689449 3.40796 0
M  V30 56490 H 5370.98 1.50375 3.70442 0
M  V30 56491 H 5372.42 0.590031 4.19875 0
M  V30 56492 C 5370.88 -0.604439 3.31433 0
M  V30 56493 O 5371.41 -1.64673 3.66396 0
M  V30 56494 N 5369.62 -0.589827 2.84551 0
M  V30 56495 H 5369.16 0.258738 2.56297 0
M  V30 56496 H 5369.12 -1.45571 2.78669 0
M  V30 56497 N 5372.89 -1.15778 1.06926 0
M  V30 56498 C 5374.14 -1.85804 0.784839 0
M  V30 56499 C 5374.46 -1.82969 -0.691487 0
M  V30 56500 O 5375.66 -2.48636 -1.09052 0
M  V30 56501 C 5374.12 -3.33464 1.35386 0
M  V30 56502 C 5373.73 -3.44756 2.86089 0
M  V30 56503 C 5375.47 -4.08703 1.14727 0
M  V30 56504 C 5373.38 -4.8654 3.36204 0
M  V30 56505 H 5372.31 -0.696036 0.289914 0
M  V30 56506 H 5374.96 -1.30624 1.28878 0
M  V30 56507 H 5373.34 -3.88289 0.777676 0
M  V30 56508 H 5374.51 -3.0006 3.49715 0
M  V30 56509 H 5372.83 -2.82958 3.05489 0
M  V30 56510 H 5375.43 -5.13331 1.49651 0
M  V30 56511 H 5375.77 -4.16211 0.0860331 0
M  V30 56512 H 5376.3 -3.60136 1.68959 0
M  V30 56513 H 5373.04 -4.84213 4.41835 0
M  V30 56514 H 5372.56 -5.31835 2.7733 0
M  V30 56515 H 5374.24 -5.5538 3.31906 0
M  V30 56516 N 5374.37 -0.852746 -1.32537 0
M  V30 56517 C 5375.62 -0.455867 -1.9761 0
M  V30 56518 C 5375.95 0.985557 -1.67333 0
M  V30 56519 O 5375.23 1.69126 -0.960553 0
M  V30 56520 C 5375.51 -0.693245 -3.53364 0
M  V30 56521 C 5375.36 -2.18295 -3.93278 0
M  V30 56522 C 5376.68 -0.148391 -4.3985 0
M  V30 56523 H 5373.8 -0.167104 -0.717806 0
M  V30 56524 H 5376.44 -1.07082 -1.56951 0
M  V30 56525 H 5374.59 -0.169813 -3.88129 0
M  V30 56526 H 5376.26 -2.77231 -3.68701 0
M  V30 56527 H 5374.51 -2.66218 -3.42506 0
M  V30 56528 H 5375.18 -2.29974 -5.01813 0
M  V30 56529 H 5377.65 -0.595978 -4.1181 0
M  V30 56530 H 5376.53 -0.344066 -5.47821 0
M  V30 56531 H 5376.79 0.94872 -4.31801 0
M  V30 56532 N 5375.85 1.45295 -0.6105 0
M  V30 56533 C 5377.08 2.0629 -0.113119 0
M  V30 56534 C 5377.49 1.45531 1.20902 0
M  V30 56535 O 5376.83 0.564898 1.74799 0
M  V30 56536 C 5376.89 3.59367 0.0978429 0
M  V30 56537 C 5376.56 4.42477 -1.14294 0
M  V30 56538 C 5377.55 4.7727 -2.06178 0
M  V30 56539 C 5375.24 4.83183 -1.37258 0
M  V30 56540 C 5377.23 5.51628 -3.19352 0
M  V30 56541 C 5374.92 5.57294 -2.50733 0
M  V30 56542 C 5375.92 5.91433 -3.41607 0
M  V30 56543 O 5375.61 6.6404 -4.53106 0
M  V30 56544 H 5375.34 0.672638 -0.0673396 0
M  V30 56545 H 5377.89 1.87483 -0.839003 0
M  V30 56546 H 5376.12 3.76585 0.878651 0
M  V30 56547 H 5377.81 4.02195 0.547186 0
M  V30 56548 H 5378.58 4.46378 -1.89663 0
M  V30 56549 H 5374.46 4.56043 -0.67423 0
M  V30 56550 H 5378 5.78193 -3.90306 0
M  V30 56551 H 5373.9 5.87601 -2.672 0
M  V30 56552 H 5374.66 6.82493 -4.51825 0
M  V30 56553 N 5377.33 0.349828 1.53668 0
M  V30 56554 C 5378.24 -0.512341 2.28937 0
M  V30 56555 C 5379.25 -1.10645 1.34289 0
M  V30 56556 O 5380.43 -1.12078 1.67333 0
M  V30 56557 C 5377.49 -1.64438 3.05223 0
M  V30 56558 C 5376.56 -1.07941 4.15508 0
M  V30 56559 C 5375.79 -2.15751 4.88147 0
M  V30 56560 O 5376.01 -3.36584 4.60508 0
M  V30 56561 O 5374.95 -1.79692 5.74451 0
M  V30 56562 H 5378.77 0.0997068 3.03536 0
M  V30 56563 H 5376.36 0.114681 1.48959 0
M  V30 56564 H 5378.24 -2.3029 3.52909 0
M  V30 56565 H 5376.91 -2.24212 2.33475 0
M  V30 56566 H 5375.82 -0.38525 3.72111 0
M  V30 56567 H 5377.15 -0.526449 4.89376 0
M  V30 56568 N 5378.81 -1.57404 0.0785986 0
M  V30 56569 C 5380.22 -1.8112 -0.453047 0
M  V30 56570 C 5380.57 -0.993023 -1.69214 0
M  V30 56571 O 5379.69 -0.217524 -2.15304 0
M  V30 56572 C 5380.29 -3.28509 -0.828705 0
M  V30 56573 C 5378.85 -3.53047 -1.30518 0
M  V30 56574 C 5377.99 -2.7574 -0.293683 0
M  V30 56575 H 5380.94 -1.55757 0.304226 0
M  V30 56576 H 5380.97 -3.4093 -1.68959 0
M  V30 56577 H 5380.48 -3.88031 0.073319 0
M  V30 56578 H 5378.58 -2.98837 -2.22547 0
M  V30 56579 H 5378.69 -4.61729 -1.2784 0
M  V30 56580 H 5377.06 -2.42706 -0.772392 0
M  V30 56581 H 5377.84 -3.38003 0.600732 0
M  V30 56582 N 5380.28 0.195003 -1.56389 0
M  V30 56583 C 5381.51 0.931577 -1.84741 0
M  V30 56584 C 5381.93 1.76847 -0.661109 0
M  V30 56585 O 5381.28 1.78706 0.370178 0
M  V30 56586 C 5381.34 1.82766 -3.11895 0
M  V30 56587 O 5381.06 1.02456 -4.25951 0
M  V30 56588 C 5382.56 2.67591 -3.53426 0
M  V30 56589 H 5379.78 0.271799 -0.613487 0
M  V30 56590 H 5382.32 0.202228 -2.03498 0
M  V30 56591 H 5380.48 2.51063 -2.95036 0
M  V30 56592 H 5380.89 1.63521 -4.98358 0
M  V30 56593 H 5382.36 3.26122 -4.45363 0
M  V30 56594 H 5382.84 3.41304 -2.7642 0
M  V30 56595 H 5383.45 2.04665 -3.72817 0
M  V30 56596 N 5381.76 1.50654 0.462719 0
M  V30 56597 C 5382.99 1.65831 1.23725 0
M  V30 56598 C 5383.41 0.345067 1.8562 0
M  V30 56599 O 5382.76 -0.673875 1.69603 0
M  V30 56600 C 5382.81 2.75558 2.33987 0
M  V30 56601 O 5382.53 4.01792 1.74629 0
M  V30 56602 C 5384.04 3.01782 3.24719 0
M  V30 56603 H 5381.26 0.55719 0.373873 0
M  V30 56604 H 5383.8 1.96927 0.551365 0
M  V30 56605 H 5381.95 2.47132 2.98336 0
M  V30 56606 H 5382.37 4.62538 2.47303 0
M  V30 56607 H 5383.84 3.82202 3.98279 0
M  V30 56608 H 5384.32 2.1318 3.83993 0
M  V30 56609 H 5384.93 3.3177 2.66099 0
M  V30 56610 N 5383.24 -0.716471 1.40373 0
M  V30 56611 C 5384.65 -1.29557 1.34431 0
M  V30 56612 C 5385 -1.96192 0.0173796 0
M  V30 56613 O 5384.13 -1.97492 -0.884649 0
M  V30 56614 C 5384.72 -2.35592 2.43478 0
M  V30 56615 C 5383.28 -2.8913 2.41 0
M  V30 56616 C 5382.43 -1.62907 2.24402 0
M  V30 56617 H 5385.38 -0.512662 1.50191 0
M  V30 56618 H 5385.4 -3.16414 2.11334 0
M  V30 56619 H 5384.91 -1.87065 3.40042 0
M  V30 56620 H 5383.01 -3.41889 1.48132 0
M  V30 56621 H 5383.13 -3.40983 3.36552 0
M  V30 56622 H 5381.49 -1.8794 1.71902 0
M  V30 56623 H 5382.27 -1.16406 3.22962 0
M  V30 56624 N 5384.72 -1.25855 -0.948599 0
M  V30 56625 C 5385.97 -1.10353 -1.68834 0
M  V30 56626 C 5386.28 0.354194 -1.92366 0
M  V30 56627 O 5387.49 0.629754 -2.64095 0
M  V30 56628 C 5385.94 -1.9267 -3.03984 0
M  V30 56629 C 5385.55 -3.42972 -2.88226 0
M  V30 56630 C 5387.29 -1.85756 -3.817 0
M  V30 56631 C 5385.2 -4.17562 -4.18803 0
M  V30 56632 H 5384.13 -0.409364 -0.633196 0
M  V30 56633 H 5386.78 -1.50102 -1.05554 0
M  V30 56634 H 5385.16 -1.45749 -3.68203 0
M  V30 56635 H 5386.34 -3.97609 -2.32903 0
M  V30 56636 H 5384.65 -3.51043 -2.2396 0
M  V30 56637 H 5387.25 -2.38774 -4.78425 0
M  V30 56638 H 5387.59 -0.826712 -4.08009 0
M  V30 56639 H 5388.13 -2.3046 -3.24242 0
M  V30 56640 H 5384.87 -5.21086 -3.97681 0
M  V30 56641 H 5384.39 -3.67707 -4.73869 0
M  V30 56642 H 5386.06 -4.25607 -4.87307 0
M  V30 56643 N 5386.2 1.1521 -1.07538 0
M  V30 56644 C 5387.42 1.9046 -0.82095 0
M  V30 56645 C 5387.85 1.7758 0.620243 0
M  V30 56646 O 5387.2 1.10981 1.43363 0
M  V30 56647 C 5387.25 3.38741 -1.23639 0
M  V30 56648 O 5386.36 4.10619 -0.38286 0
M  V30 56649 H 5385.7 0.59291 -0.298922 0
M  V30 56650 H 5388.23 1.45888 -1.4345 0
M  V30 56651 H 5388.24 3.89539 -1.2134 0
M  V30 56652 H 5386.91 3.47435 -2.28608 0
M  V30 56653 H 5385.49 3.69945 -0.468504 0
M  V30 56654 N 5387.67 0.859763 1.32083 0
M  V30 56655 C 5388.9 0.478936 2.01794 0
M  V30 56656 C 5389.32 -0.918217 1.64166 0
M  V30 56657 O 5388.68 -1.60406 0.844953 0
M  V30 56658 C 5388.73 0.631481 3.55028 0
M  V30 56659 O 5387.83 -0.333567 4.11049 0
M  V30 56660 H 5387.18 0.191798 0.635696 0
M  V30 56661 H 5389.71 1.16037 1.68513 0
M  V30 56662 H 5389.72 0.520925 4.04661 0
M  V30 56663 H 5388.39 1.65029 3.81757 0
M  V30 56664 H 5386.97 -0.178822 3.72471 0
M  V30 56665 N 5389.15 -1.44969 0.618196 0
M  V30 56666 C 5390.12 -2.29044 -0.0845934 0
M  V30 56667 C 5391.12 -1.40344 -0.784872 0
M  V30 56668 O 5392.31 -1.62354 -0.631422 0
M  V30 56669 C 5389.44 -3.21621 -1.13016 0
M  V30 56670 H 5390.63 -2.92666 0.654715 0
M  V30 56671 H 5388.18 -1.51667 0.377726 0
M  V30 56672 H 5388.92 -2.62821 -1.89988 0
M  V30 56673 H 5388.7 -3.86971 -0.632104 0
M  V30 56674 H 5390.19 -3.84811 -1.62204 0
M  V30 56675 N 5390.63 -0.357973 -1.53481 0
M  V30 56676 C 5391.56 0.48415 -2.28426 0
M  V30 56677 C 5392.54 1.09042 -1.30552 0
M  V30 56678 O 5393.73 1.1091 -1.59413 0
M  V30 56679 C 5390.86 1.62792 -3.06783 0
M  V30 56680 C 5389.81 1.14928 -4.12281 0
M  V30 56681 C 5389.14 2.3827 -4.78677 0
M  V30 56682 C 5390.44 0.239444 -5.21751 0
M  V30 56683 H 5392.13 -0.141084 -2.99067 0
M  V30 56684 H 5389.68 -0.0692946 -1.43833 0
M  V30 56685 H 5391.63 2.22362 -3.57957 0
M  V30 56686 H 5390.35 2.28027 -2.33818 0
M  V30 56687 H 5389.01 0.576315 -3.62042 0
M  V30 56688 H 5388.66 3.01944 -4.02292 0
M  V30 56689 H 5388.36 2.06919 -5.49962 0
M  V30 56690 H 5389.88 2.98539 -5.32641 0
M  V30 56691 H 5391.3 0.742398 -5.68473 0
M  V30 56692 H 5389.7 0.0171638 -6.00098 0
M  V30 56693 H 5390.77 -0.720501 -4.79517 0
M  V30 56694 N 5392.11 1.5736 -0.086945 0
M  V30 56695 C 5393.36 1.93231 0.578319 0
M  V30 56696 C 5393.67 0.970187 1.69843 0
M  V30 56697 O 5394.88 1.2223 2.42429 0
M  V30 56698 C 5393.33 3.43311 1.08008 0
M  V30 56699 C 5392.94 4.47999 -0.00983885 0
M  V30 56700 C 5394.68 3.88158 1.71855 0
M  V30 56701 C 5392.59 5.89224 0.506821 0
M  V30 56702 H 5391.52 0.721252 0.219798 0
M  V30 56703 H 5394.17 1.82787 -0.16163 0
M  V30 56704 H 5392.55 3.4888 1.87347 0
M  V30 56705 H 5393.73 4.54064 -0.785024 0
M  V30 56706 H 5392.04 4.12712 -0.55299 0
M  V30 56707 H 5394.64 4.91063 2.11568 0
M  V30 56708 H 5394.98 3.26356 2.58452 0
M  V30 56709 H 5395.52 3.85255 0.991124 0
M  V30 56710 H 5392.26 6.54707 -0.322351 0
M  V30 56711 H 5391.78 5.86647 1.24919 0
M  V30 56712 H 5393.45 6.39559 0.978403 0
M  V30 56713 N 5393.59 -0.186707 1.5649 0
M  V30 56714 C 5394.55 -1.21505 1.94343 0
M  V30 56715 C 5395.55 -1.37998 0.825418 0
M  V30 56716 O 5396.74 -1.35667 1.09271 0
M  V30 56717 C 5393.87 -2.58292 2.22481 0
M  V30 56718 H 5395.06 -0.89127 2.8635 0
M  V30 56719 H 5392.62 -0.428559 1.5031 0
M  V30 56720 H 5393.35 -2.9571 1.33139 0
M  V30 56721 H 5393.14 -2.47691 3.0396 0
M  V30 56722 H 5394.63 -3.32432 2.52742 0
M  V30 56723 N 5395.07 -1.50897 -0.454723 0
M  V30 56724 C 5396.31 -1.62944 -1.20735 0
M  V30 56725 C 5396.64 -0.336407 -1.91264 0
M  V30 56726 O 5395.92 0.663088 -1.82848 0
M  V30 56727 C 5396.2 -2.821 -2.23812 0
M  V30 56728 C 5396.06 -4.21331 -1.57481 0
M  V30 56729 C 5397.37 -2.96788 -3.24969 0
M  V30 56730 H 5394.49 -0.593036 -0.437582 0
M  V30 56731 H 5397.14 -1.83333 -0.498895 0
M  V30 56732 H 5395.29 -2.64847 -2.84233 0
M  V30 56733 H 5396.96 -4.50213 -1.0053 0
M  V30 56734 H 5395.2 -4.24832 -0.877515 0
M  V30 56735 H 5395.87 -5.00664 -2.32464 0
M  V30 56736 H 5398.35 -3.12637 -2.74586 0
M  V30 56737 H 5397.22 -3.81756 -3.94403 0
M  V30 56738 H 5397.48 -2.08105 -3.90057 0
M  V30 56739 N 5396.54 0.709016 -1.40751 0
M  V30 56740 C 5397.51 1.8048 -1.41279 0
M  V30 56741 C 5398.51 1.57871 -0.305519 0
M  V30 56742 O 5399.7 1.64791 -0.564749 0
M  V30 56743 C 5396.83 3.18666 -1.21098 0
M  V30 56744 H 5398.02 1.81408 -2.38812 0
M  V30 56745 H 5395.57 0.915312 -1.26695 0
M  V30 56746 H 5396.31 3.23384 -0.243519 0
M  V30 56747 H 5396.09 3.36476 -2.01311 0
M  V30 56748 H 5397.58 3.98681 -1.24271 0
M  V30 56749 N 5398.02 1.26356 0.941911 0
M  V30 56750 C 5398.97 1.07661 2.06184 0
M  V30 56751 C 5399.96 0.00375696 1.694 0
M  V30 56752 O 5401.17 0.160379 1.79284 0
M  V30 56753 H 5397.54 0.331298 0.675089 0
M  V30 56754 H 5399.52 2.02574 2.19104 0
M  V30 56755 C 5398.26 0.725556 3.40046 0
M  V30 56756 H 5397.59 1.54296 3.68826 0
M  V30 56757 H 5399.03 0.634531 4.19225 0
M  V30 56758 C 5397.49 -0.569252 3.32056 0
M  V30 56759 O 5398.02 -1.60778 3.68121 0
M  V30 56760 N 5396.22 -0.559613 2.85161 0
M  V30 56761 H 5395.77 0.285907 2.56008 0
M  V30 56762 H 5395.73 -1.42607 2.80198 0
M  V30 56763 N 5399.5 -1.14638 1.08148 0
M  V30 56764 C 5400.75 -1.86112 0.820599 0
M  V30 56765 C 5401.1 -1.8121 -0.646571 0
M  V30 56766 O 5400.39 -1.23002 -1.46905 0
M  V30 56767 C 5400.59 -3.33948 1.27331 0
M  V30 56768 C 5400.42 -3.53245 2.78296 0
M  V30 56769 C 5399.19 -3.68247 3.46009 0
M  V30 56770 C 5401.38 -3.50387 3.76475 0
M  V30 56771 N 5399.37 -3.75675 4.85532 0
M  V30 56772 C 5400.74 -3.64027 5.01881 0
M  V30 56773 C 5402.79 -3.33709 3.69517 0
M  V30 56774 C 5401.5 -3.62713 6.21154 0
M  V30 56775 C 5403.52 -3.33696 4.88263 0
M  V30 56776 C 5402.88 -3.47874 6.12505 0
M  V30 56777 H 5398.98 -0.697817 0.352953 0
M  V30 56778 H 5401.57 -1.37415 1.37932 0
M  V30 56779 H 5399.74 -3.81243 0.7422 0
M  V30 56780 H 5401.47 -3.9317 0.959129 0
M  V30 56781 H 5398.22 -3.69365 2.96422 0
M  V30 56782 H 5398.65 -3.83113 5.5817 0
M  V30 56783 H 5403.29 -3.2166 2.74399 0
M  V30 56784 H 5401.01 -3.73538 7.16586 0
M  V30 56785 H 5404.59 -3.22008 4.84564 0
M  V30 56786 H 5403.47 -3.47808 7.02851 0
M  V30 56787 N 5400.98 -0.866756 -1.31625 0
M  V30 56788 C 5401.91 -0.335843 -2.31072 0
M  V30 56789 C 5402.89 0.57154 -1.60211 0
M  V30 56790 O 5404.07 0.48924 -1.87936 0
M  V30 56791 C 5401.2 0.466295 -3.44155 0
M  V30 56792 C 5400.16 -0.347711 -4.26585 0
M  V30 56793 C 5399.48 0.579913 -5.31546 0
M  V30 56794 C 5400.78 -1.58004 -4.97827 0
M  V30 56795 H 5402.48 -1.16683 -2.75727 0
M  V30 56796 H 5400.02 -0.562527 -1.32558 0
M  V30 56797 H 5401.98 0.848215 -4.12775 0
M  V30 56798 H 5400.7 1.33076 -2.98259 0
M  V30 56799 H 5399.36 -0.711537 -3.59629 0
M  V30 56800 H 5399.01 1.44157 -4.819 0
M  V30 56801 H 5398.71 0.0391899 -5.87587 0
M  V30 56802 H 5400.23 0.958746 -6.03026 0
M  V30 56803 H 5401.65 -1.26974 -5.59062 0
M  V30 56804 H 5400.04 -2.05959 -5.6365 0
M  V30 56805 H 5401.11 -2.33465 -4.24997 0
M  V30 56806 N 5402.46 1.44639 -0.625876 0
M  V30 56807 C 5403.42 2.29085 0.0724454 0
M  V30 56808 C 5404.42 1.40758 0.777418 0
M  V30 56809 O 5405.61 1.62686 0.622803 0
M  V30 56810 C 5402.74 3.22216 1.11309 0
M  V30 56811 H 5403.93 2.92315 -0.670227 0
M  V30 56812 H 5401.49 1.51465 -0.385764 0
M  V30 56813 H 5402.22 2.63825 1.88592 0
M  V30 56814 H 5402.01 3.87301 0.611573 0
M  V30 56815 H 5403.5 3.85666 1.60161 0
M  V30 56816 N 5403.93 0.366107 1.53289 0
M  V30 56817 C 5405.34 -0.112991 1.86358 0
M  V30 56818 C 5405.7 -1.48118 1.28668 0
M  V30 56819 O 5404.82 -2.07656 0.608922 0
M  V30 56820 C 5405.42 -0.211805 3.38137 0
M  V30 56821 C 5403.97 -0.635158 3.71002 0
M  V30 56822 C 5403.12 0.2173 2.76447 0
M  V30 56823 H 5406.07 0.584881 1.47529 0
M  V30 56824 H 5406.09 -1.03528 3.66145 0
M  V30 56825 H 5405.61 0.784127 3.80096 0
M  V30 56826 H 5403.71 -1.6393 3.34601 0
M  V30 56827 H 5403.82 -0.409403 4.77348 0
M  V30 56828 H 5402.18 -0.313899 2.52758 0
M  V30 56829 H 5402.97 1.21078 3.2124 0
M  V30 56830 N 5405.41 -1.57312 0.095289 0
M  V30 56831 C 5406.64 -1.98699 -0.57675 0
M  V30 56832 C 5407.05 -0.974404 -1.61712 0
M  V30 56833 O 5406.41 0.0359579 -1.82465 0
M  V30 56834 C 5406.46 -3.40138 -1.22428 0
M  V30 56835 O 5406.18 -4.37519 -0.225524 0
M  V30 56836 C 5407.68 -3.96529 -1.98191 0
M  V30 56837 H 5404.9 -0.652946 -0.154606 0
M  V30 56838 H 5407.45 -2.03753 0.174633 0
M  V30 56839 H 5405.6 -3.36097 -1.9266 0
M  V30 56840 H 5406.02 -5.19903 -0.692934 0
M  V30 56841 H 5407.49 -4.97645 -2.38858 0
M  V30 56842 H 5407.97 -3.34357 -2.84784 0
M  V30 56843 H 5408.57 -4.04043 -1.32776 0
M  V30 56844 N 5406.89 0.178405 -1.56587 0
M  V30 56845 C 5407.84 1.24035 -1.96769 0
M  V30 56846 C 5408.83 1.46215 -0.855426 0
M  V30 56847 O 5410.04 1.46879 -1.04051 0
M  V30 56848 H 5406.41 0.416785 -0.625935 0
M  V30 56849 H 5408.38 0.874544 -2.85297 0
M  V30 56850 C 5407.13 2.57385 -2.33769 0
M  V30 56851 H 5406.46 2.41139 -3.18892 0
M  V30 56852 H 5407.9 3.30396 -2.65734 0
M  V30 56853 C 5406.35 3.15617 -1.17846 0
M  V30 56854 O 5406.88 3.9903 -0.462342 0
M  V30 56855 N 5405.09 2.74603 -0.950879 0
M  V30 56856 H 5404.64 2.06873 -1.53497 0
M  V30 56857 H 5404.6 3.13901 -0.177077 0
M  V30 56858 N 5408.37 1.51136 0.446714 0
M  V30 56859 C 5409.33 1.71193 1.524 0
M  V30 56860 C 5410.33 0.58209 1.49894 0
M  V30 56861 O 5411.52 0.849505 1.52082 0
M  V30 56862 C 5408.65 1.75973 2.9197 0
M  V30 56863 H 5409.85 2.67329 1.35924 0
M  V30 56864 H 5407.4 1.40985 0.674763 0
M  V30 56865 H 5408.13 0.816175 3.13862 0
M  V30 56866 H 5407.92 2.58075 2.95194 0
M  V30 56867 H 5409.41 1.9336 3.70137 0
M  V30 56868 N 5409.85 -0.701542 1.41125 0
M  V30 56869 C 5411.08 -1.48828 1.43296 0
M  V30 56870 C 5411.48 -1.89168 0.0349333 0
M  V30 56871 O 5410.83 -1.5694 -0.954745 0
M  V30 56872 C 5410.89 -2.78525 2.27297 0
M  V30 56873 C 5410.55 -2.60425 3.75537 0
M  V30 56874 C 5411.55 -2.26762 4.67841 0
M  V30 56875 C 5409.24 -2.76251 4.19512 0
M  V30 56876 C 5411.23 -2.09155 6.02107 0
M  V30 56877 C 5408.92 -2.58262 5.53845 0
M  V30 56878 C 5409.91 -2.24763 6.44958 0
M  V30 56879 O 5409.6 -2.06925 7.76812 0
M  V30 56880 H 5409.33 -0.465383 0.4903 0
M  V30 56881 H 5411.89 -0.871778 1.85982 0
M  V30 56882 H 5410.12 -3.4256 1.79415 0
M  V30 56883 H 5411.81 -3.40304 2.21241 0
M  V30 56884 H 5412.57 -2.14154 4.35158 0
M  V30 56885 H 5408.45 -3.0131 3.48903 0
M  V30 56886 H 5412 -1.82931 6.73188 0
M  V30 56887 H 5407.89 -2.70457 5.86108 0
M  V30 56888 H 5408.66 -2.21735 7.87893 0
M  V30 56889 N 5411.32 -1.26854 -0.935197 0
M  V30 56890 C 5412.26 -1.03251 -2.03505 0
M  V30 56891 C 5413.24 0.0446751 -1.62539 0
M  V30 56892 O 5414.42 -0.0989567 -1.8824 0
M  V30 56893 C 5411.55 -0.564744 -3.33959 0
M  V30 56894 C 5410.59 -1.63538 -3.939 0
M  V30 56895 S 5411.43 -3.22592 -4.27428 0
M  V30 56896 C 5412.58 -2.77598 -5.60972 0
M  V30 56897 H 5412.81 -1.96375 -2.23213 0
M  V30 56898 H 5410.35 -1.10601 -1.07735 0
M  V30 56899 H 5412.31 -0.301532 -4.09391 0
M  V30 56900 H 5410.97 0.346309 -3.12185 0
M  V30 56901 H 5410.16 -1.25922 -4.88016 0
M  V30 56902 H 5409.76 -1.85028 -3.25024 0
M  V30 56903 H 5412.05 -2.22435 -6.39945 0
M  V30 56904 H 5413 -3.70429 -6.0348 0
M  V30 56905 H 5413.4 -2.16975 -5.21136 0
M  V30 56906 N 5412.8 1.14063 -1.08754 0
M  V30 56907 C 5414.22 1.3717 -0.815871 0
M  V30 56908 C 5414.42 1.93177 0.573147 0
M  V30 56909 O 5413.47 2.14677 1.32929 0
M  V30 56910 C 5414.79 2.32948 -1.90146 0
M  V30 56911 C 5416.34 2.46579 -1.92789 0
M  V30 56912 C 5416.81 3.45659 -3.00472 0
M  V30 56913 N 5418.3 3.53205 -2.99667 0
M  V30 56914 C 5419.04 4.2973 -3.79631 0
M  V30 56915 N 5418.53 5.09467 -4.69484 0
M  V30 56916 N 5420.33 4.24962 -3.67918 0
M  V30 56917 H 5412.48 0.760578 -1.98315 0
M  V30 56918 H 5414.74 0.397105 -0.860821 0
M  V30 56919 H 5414.45 1.98938 -2.90028 0
M  V30 56920 H 5414.32 3.32891 -1.77379 0
M  V30 56921 H 5416.71 2.79879 -0.935503 0
M  V30 56922 H 5416.79 1.46585 -2.09634 0
M  V30 56923 H 5416.43 3.13092 -3.9992 0
M  V30 56924 H 5416.36 4.45442 -2.80872 0
M  V30 56925 H 5418.85 2.96305 -2.34545 0
M  V30 56926 H 5419.17 5.65145 -5.27097 0
M  V30 56927 H 5417.51 5.08724 -4.73524 0
M  V30 56928 H 5420.7 3.61741 -2.97088 0
M  V30 56929 H 5420.87 4.84349 -4.30476 0
M  V30 56930 N 5414.28 0.873724 1.31163 0
M  V30 56931 C 5415.51 0.501114 2.0074 0
M  V30 56932 C 5415.92 -0.907418 1.65564 0
M  V30 56933 O 5415.28 -1.59504 0.886827 0
M  V30 56934 C 5415.33 0.653002 3.55553 0
M  V30 56935 O 5415.05 2.00607 3.89472 0
M  V30 56936 C 5416.55 0.281898 4.42403 0
M  V30 56937 H 5413.77 0.194851 0.642086 0
M  V30 56938 H 5416.32 1.17592 1.67309 0
M  V30 56939 H 5414.47 0.0256989 3.87391 0
M  V30 56940 H 5414.89 2.01655 4.84186 0
M  V30 56941 H 5416.36 0.439114 5.50251 0
M  V30 56942 H 5416.84 -0.779237 4.32232 0
M  V30 56943 H 5417.44 0.885056 4.15989 0
M  V30 56944 N 5415.76 -1.44305 0.633538 0
M  V30 56945 C 5416.99 -2.06383 0.146136 0
M  V30 56946 C 5417.4 -1.47361 -1.18026 0
M  V30 56947 O 5416.76 -0.597394 -1.72446 0
M  V30 56948 C 5416.81 -3.61489 0.0277993 0
M  V30 56949 O 5416.53 -4.18314 1.30175 0
M  V30 56950 C 5418.03 -4.40606 -0.488013 0
M  V30 56951 H 5415.25 -0.666119 0.0807866 0
M  V30 56952 H 5417.8 -1.85136 0.868622 0
M  V30 56953 H 5415.95 -3.8199 -0.645139 0
M  V30 56954 H 5416.36 -5.11779 1.14815 0
M  V30 56955 H 5417.84 -5.49547 -0.51982 0
M  V30 56956 H 5418.32 -4.12224 -1.51553 0
M  V30 56957 H 5418.92 -4.25029 0.151758 0
M  V30 56958 N 5417.24 -0.374231 -1.53092 0
M  V30 56959 C 5418.19 0.484769 -2.22787 0
M  V30 56960 C 5419.17 1.04177 -1.22621 0
M  V30 56961 O 5420.36 0.970378 -1.48029 0
M  V30 56962 C 5417.49 1.61945 -3.02702 0
M  V30 56963 C 5416.58 1.07492 -4.10252 0
M  V30 56964 N 5416.97 0.254076 -5.05161 0
M  V30 56965 C 5415.27 1.34889 -4.25113 0
M  V30 56966 C 5415.97 -0.0450603 -5.81683 0
M  V30 56967 N 5414.94 0.554883 -5.40761 0
M  V30 56968 H 5418.75 -0.14908 -2.93522 0
M  V30 56969 H 5416.26 -0.182712 -1.61369 0
M  V30 56970 H 5418.26 2.24711 -3.51156 0
M  V30 56971 H 5416.92 2.25628 -2.335 0
M  V30 56972 H 5417.93 -0.107438 -5.17789 0
M  V30 56973 H 5414.6 1.98786 -3.67138 0
M  V30 56974 H 5415.99 -0.709186 -6.68147 0
M  V30 56975 N 5418.71 1.57259 -0.10363 0
M  V30 56976 C 5419.94 1.99002 0.566205 0
M  V30 56977 C 5420.36 0.982966 1.61193 0
M  V30 56978 O 5419.71 -0.0262809 1.82481 0
M  V30 56979 C 5419.77 3.40782 1.20623 0
M  V30 56980 O 5419.49 4.37633 0.202318 0
M  V30 56981 C 5420.99 3.97574 1.96086 0
M  V30 56982 H 5418.21 0.653756 0.151141 0
M  V30 56983 H 5420.75 2.03658 -0.185436 0
M  V30 56984 H 5418.91 3.37114 1.90875 0
M  V30 56985 H 5419.32 5.20263 0.665352 0
M  V30 56986 H 5420.79 4.98905 2.36215 0
M  V30 56987 H 5421.27 3.35863 2.83007 0
M  V30 56988 H 5421.88 4.04741 1.30631 0
M  V30 56989 N 5420.19 -0.170098 1.56679 0
M  V30 56990 C 5421.47 -0.913877 1.72938 0
M  V30 56991 C 5421.85 -2.0034 0.665363 0
M  V30 56992 O 5421.2 -2.26253 -0.319636 0
M  V30 56993 C 5421.41 -1.4775 3.16182 0
M  V30 56994 C 5422.76 -1.94994 3.77177 0
M  V30 56995 O 5423.78 -1.57541 3.19467 0
M  V30 56996 O 5422.64 -2.6399 4.7851 0
M  V30 56997 H 5419.73 -0.430245 0.706271 0
M  V30 56998 H 5422.28 -0.157832 1.68964 0
M  V30 56999 H 5421.05 -0.693385 3.85108 0
M  V30 57000 H 5420.67 -2.29769 3.24487 0
M  V30 57001 N 5421.67 -1.51371 -0.438693 0
M  V30 57002 C 5422.92 -1.63206 -1.18518 0
M  V30 57003 C 5423.23 -0.353475 -1.9238 0
M  V30 57004 O 5424.44 -0.351181 -2.69219 0
M  V30 57005 C 5422.89 -2.88226 -2.15532 0
M  V30 57006 C 5422.5 -4.23083 -1.47324 0
M  V30 57007 C 5424.25 -3.09417 -2.90622 0
M  V30 57008 C 5422.15 -5.39254 -2.42814 0
M  V30 57009 H 5421.08 -0.60788 -0.446092 0
M  V30 57010 H 5423.73 -1.77837 -0.452359 0
M  V30 57011 H 5422.12 -2.67226 -2.92243 0
M  V30 57012 H 5423.29 -4.54459 -0.761804 0
M  V30 57013 H 5421.61 -4.07758 -0.843922 0
M  V30 57014 H 5424.2 -3.93383 -3.62152 0
M  V30 57015 H 5424.55 -2.2244 -3.51889 0
M  V30 57016 H 5425.08 -3.30751 -2.21018 0
M  V30 57017 H 5421.82 -6.28487 -1.86238 0
M  V30 57018 H 5421.34 -5.12256 -3.12016 0
M  V30 57019 H 5423.02 -5.71148 -3.03972 0
M  V30 57020 N 5423.15 0.694048 -1.41495 0
M  V30 57021 C 5424.4 1.45122 -1.40655 0
M  V30 57022 C 5424.72 1.94993 -0.0170974 0
M  V30 57023 O 5423.99 1.71803 0.941312 0
M  V30 57024 H 5422.57 0.538475 -0.517739 0
M  V30 57025 H 5425.23 0.821379 -1.76747 0
M  V30 57026 H 5424.33 2.31365 -2.09468 0
M  V30 57027 N 5424.63 1.27348 0.928456 0
M  V30 57028 C 5425.87 1.1381 1.67855 0
M  V30 57029 C 5426.21 -0.315483 1.9162 0
M  V30 57030 O 5425.48 -1.23081 1.50603 0
M  V30 57031 C 5425.76 1.92141 3.04555 0
M  V30 57032 C 5425.62 3.45479 2.88036 0
M  V30 57033 C 5426.94 1.72527 4.04873 0
M  V30 57034 H 5424.06 0.414817 0.609176 0
M  V30 57035 H 5426.7 1.56494 1.07748 0
M  V30 57036 H 5424.85 1.55865 3.55863 0
M  V30 57037 H 5426.52 3.91579 2.43852 0
M  V30 57038 H 5424.76 3.71857 2.23394 0
M  V30 57039 H 5425.43 3.95528 3.85047 0
M  V30 57040 H 5427.91 2.04155 3.62574 0
M  V30 57041 H 5426.79 2.2973 4.98513 0
M  V30 57042 H 5427.05 0.67301 4.36947 0
M  V30 57043 N 5426.11 -1.13484 1.09357 0
M  V30 57044 C 5427.34 -1.88316 0.849747 0
M  V30 57045 C 5427.74 -1.79349 -0.602553 0
M  V30 57046 O 5427.09 -1.15749 -1.42646 0
M  V30 57047 C 5427.15 -3.38694 1.20526 0
M  V30 57048 C 5426.81 -3.71442 2.66232 0
M  V30 57049 C 5427.81 -3.70743 3.6448 0
M  V30 57050 C 5425.49 -4.01122 3.02335 0
M  V30 57051 C 5427.49 -3.99262 4.96859 0
M  V30 57052 C 5425.18 -4.29303 4.34905 0
M  V30 57053 C 5426.17 -4.28358 5.31976 0
M  V30 57054 O 5425.86 -4.55849 6.62161 0
M  V30 57055 H 5425.59 -0.603042 0.305476 0
M  V30 57056 H 5428.15 -1.44587 1.45889 0
M  V30 57057 H 5426.38 -3.82923 0.539156 0
M  V30 57058 H 5428.07 -3.94849 0.940691 0
M  V30 57059 H 5428.83 -3.47889 3.37932 0
M  V30 57060 H 5424.71 -4.01005 2.27412 0
M  V30 57061 H 5428.26 -3.9844 5.72618 0
M  V30 57062 H 5424.15 -4.51628 4.61197 0
M  V30 57063 H 5424.92 -4.7352 6.67623 0
M  V30 57064 N 5427.58 -0.880667 -1.30698 0
M  V30 57065 C 5428.83 -0.493025 -1.95582 0
M  V30 57066 C 5429.15 0.961803 -1.70319 0
M  V30 57067 O 5430.35 1.45609 -2.29151 0
M  V30 57068 C 5428.81 -0.830779 -3.5018 0
M  V30 57069 C 5428.42 -2.30309 -3.84268 0
M  V30 57070 C 5430.16 -0.512127 -4.21399 0
M  V30 57071 C 5428.07 -2.5827 -5.32025 0
M  V30 57072 H 5427 -0.180646 -0.73204 0
M  V30 57073 H 5429.65 -1.07505 -1.48711 0
M  V30 57074 H 5428.03 -0.177891 -3.956 0
M  V30 57075 H 5429.2 -2.99993 -3.49772 0
M  V30 57076 H 5427.52 -2.58884 -3.26141 0
M  V30 57077 H 5430.12 -0.698121 -5.30123 0
M  V30 57078 H 5430.46 0.548182 -4.12675 0
M  V30 57079 H 5430.99 -1.12202 -3.81648 0
M  V30 57080 H 5427.73 -3.63025 -5.45796 0
M  V30 57081 H 5427.25 -1.9319 -5.67836 0
M  V30 57082 H 5428.93 -2.43549 -5.99411 0
M  V30 57083 N 5429.06 1.43967 -0.641182 0
M  V30 57084 C 5430.29 2.06817 -0.15539 0
M  V30 57085 C 5430.71 1.47669 1.16513 0
M  V30 57086 O 5430.07 0.581981 1.71705 0
M  V30 57087 C 5430.12 3.60542 -0.0648804 0
M  V30 57088 O 5429.22 4.00677 0.976306 0
M  V30 57089 H 5428.56 0.657959 -0.0893636 0
M  V30 57090 H 5431.09 1.84675 -0.880704 0
M  V30 57091 H 5431.1 4.07816 0.122409 0
M  V30 57092 H 5429.78 4.02971 -1.02893 0
M  V30 57093 H 5428.35 3.65015 0.762777 0
M  V30 57094 N 5430.54 0.382345 1.52892 0
M  V30 57095 C 5431.47 -0.500116 2.22652 0
M  V30 57096 C 5432.45 -1.06965 1.22463 0
M  V30 57097 O 5433.63 -1.12261 1.51425 0
M  V30 57098 C 5430.76 -1.6916 2.93433 0
M  V30 57099 C 5429.81 -1.24796 4.07833 0
M  V30 57100 S 5430.64 -0.235278 5.34983 0
M  V30 57101 C 5431.8 -1.4327 6.09282 0
M  V30 57102 H 5432.03 0.0922958 2.97157 0
M  V30 57103 H 5429.56 0.166504 1.535 0
M  V30 57104 H 5431.52 -2.37495 3.34823 0
M  V30 57105 H 5430.18 -2.25529 2.18621 0
M  V30 57106 H 5429.37 -2.13738 4.56434 0
M  V30 57107 H 5428.98 -0.643614 3.6842 0
M  V30 57108 H 5431.27 -2.36096 6.35031 0
M  V30 57109 H 5432.21 -0.987757 7.01177 0
M  V30 57110 H 5432.62 -1.64636 5.39959 0
M  V30 57111 N 5432.02 -1.57202 0.111969 0
M  V30 57112 C 5433.24 -1.99725 -0.558983 0
M  V30 57113 C 5433.67 -0.991024 -1.59876 0
M  V30 57114 O 5433.03 0.0382473 -1.8126 0
M  V30 57115 C 5433.07 -3.41155 -1.16814 0
M  V30 57116 O 5432.18 -3.43391 -2.28378 0
M  V30 57117 H 5431.52 -0.649009 -0.140296 0
M  V30 57118 H 5434.05 -2.03636 0.198367 0
M  V30 57119 H 5434.06 -3.79213 -1.50537 0
M  V30 57120 H 5432.73 -4.13909 -0.406491 0
M  V30 57121 H 5431.31 -3.17145 -1.96147 0
M  V30 57122 N 5433.5 0.161787 -1.56767 0
M  V30 57123 C 5434.43 1.20218 -2.00174 0
M  V30 57124 C 5435.41 1.45637 -0.878858 0
M  V30 57125 O 5436.59 1.56809 -1.14562 0
M  V30 57126 C 5433.72 2.53888 -2.36977 0
M  V30 57127 C 5432.68 2.43021 -3.52314 0
M  V30 57128 C 5432 3.81267 -3.74886 0
M  V30 57129 C 5433.3 1.92683 -4.85459 0
M  V30 57130 H 5435 0.841319 -2.87336 0
M  V30 57131 H 5432.54 0.40326 -1.38238 0
M  V30 57132 H 5434.49 3.26884 -2.65942 0
M  V30 57133 H 5433.22 2.91782 -1.46735 0
M  V30 57134 H 5431.88 1.72479 -3.23491 0
M  V30 57135 H 5431.53 4.1657 -2.81919 0
M  V30 57136 H 5431.23 3.74861 -4.52496 0
M  V30 57137 H 5432.75 4.55834 -4.06261 0
M  V30 57138 H 5434.16 2.55459 -5.13238 0
M  V30 57139 H 5432.56 1.97202 -5.66773 0
M  V30 57140 H 5433.63 0.881649 -4.76818 0
M  V30 57141 N 5434.97 1.51602 0.430659 0
M  V30 57142 C 5436.22 1.64844 1.18128 0
M  V30 57143 C 5436.55 0.366792 1.90705 0
M  V30 57144 O 5435.83 -0.633915 1.8388 0
M  V30 57145 C 5436.11 2.85625 2.19296 0
M  V30 57146 C 5435.96 4.23783 1.50758 0
M  V30 57147 C 5437.28 3.01921 3.20206 0
M  V30 57148 H 5434.4 0.599922 0.428092 0
M  V30 57149 H 5437.04 1.84104 0.469665 0
M  V30 57150 H 5435.19 2.69335 2.79984 0
M  V30 57151 H 5436.87 4.51755 0.933551 0
M  V30 57152 H 5435.11 4.26174 0.809817 0
M  V30 57153 H 5435.78 5.04299 2.24469 0
M  V30 57154 H 5438.26 3.16966 2.69578 0
M  V30 57155 H 5437.13 3.87982 3.8828 0
M  V30 57156 H 5437.39 2.14284 3.86697 0
M  V30 57157 N 5436.45 -0.686534 1.41861 0
M  V30 57158 C 5437.38 -1.81259 1.47199 0
M  V30 57159 C 5438.36 -1.66874 0.329716 0
M  V30 57160 O 5439.55 -1.86471 0.542412 0
M  V30 57161 C 5436.68 -3.19468 1.36227 0
M  V30 57162 C 5435.63 -3.48571 2.48359 0
M  V30 57163 C 5434.96 -4.86231 2.22449 0
M  V30 57164 C 5436.26 -3.46639 3.9069 0
M  V30 57165 H 5437.95 -1.77049 2.41442 0
M  V30 57166 H 5435.5 -0.850374 1.16209 0
M  V30 57167 H 5437.45 -3.97965 1.38572 0
M  V30 57168 H 5436.17 -3.24326 0.384725 0
M  V30 57169 H 5434.83 -2.72429 2.45312 0
M  V30 57170 H 5434.48 -4.87725 1.23016 0
M  V30 57171 H 5434.18 -5.06667 2.97594 0
M  V30 57172 H 5435.71 -5.67026 2.26524 0
M  V30 57173 H 5437.12 -4.15125 3.95404 0
M  V30 57174 H 5435.52 -3.78609 4.65591 0
M  V30 57175 H 5436.59 -2.45436 4.18197 0
M  V30 57176 N 5437.93 -1.27838 -0.92169 0
M  V30 57177 C 5439.18 -1.14698 -1.67249 0
M  V30 57178 C 5439.51 0.305316 -1.91785 0
M  V30 57179 O 5438.78 1.22281 -1.51253 0
M  V30 57180 C 5439.07 -1.93754 -3.03532 0
M  V30 57181 C 5438.92 -3.47001 -2.86199 0
M  V30 57182 C 5440.24 -1.74672 -4.03953 0
M  V30 57183 H 5437.36 -0.418042 -0.606968 0
M  V30 57184 H 5440 -1.57063 -1.06916 0
M  V30 57185 H 5438.15 -1.5775 -3.55031 0
M  V30 57186 H 5439.82 -3.92867 -2.41772 0
M  V30 57187 H 5438.06 -3.73037 -2.21419 0
M  V30 57188 H 5438.74 -3.97565 -3.82944 0
M  V30 57189 H 5441.21 -2.06075 -3.61486 0
M  V30 57190 H 5440.09 -2.32371 -4.97288 0
M  V30 57191 H 5440.35 -0.696172 -4.36584 0
M  V30 57192 N 5439.41 1.12903 -1.09958 0
M  V30 57193 C 5440.66 1.83658 -0.833826 0
M  V30 57194 C 5440.97 1.84738 0.642733 0
M  V30 57195 O 5442.18 2.5144 1.02421 0
M  V30 57196 C 5440.63 3.29758 -1.4418 0
M  V30 57197 C 5440.24 3.3705 -2.95129 0
M  V30 57198 C 5441.98 4.05517 -1.25523 0
M  V30 57199 C 5439.89 4.77455 -3.48986 0
M  V30 57200 H 5438.82 0.688105 -0.308266 0
M  V30 57201 H 5441.47 1.27162 -1.32296 0
M  V30 57202 H 5439.85 3.8609 -0.880351 0
M  V30 57203 H 5441.03 2.90683 -3.57547 0
M  V30 57204 H 5439.34 2.74759 -3.12884 0
M  V30 57205 H 5441.94 5.09183 -1.63209 0
M  V30 57206 H 5442.28 4.15837 -0.196354 0
M  V30 57207 H 5442.82 3.55529 -1.78448 0
M  V30 57208 H 5439.56 4.72328 -4.54518 0
M  V30 57209 H 5439.08 5.24295 -2.91333 0
M  V30 57210 H 5440.75 5.46385 -3.46515 0
M  V30 57211 N 5440.89 0.887586 1.30229 0
M  V30 57212 C 5442.13 0.5081 1.96332 0
M  V30 57213 C 5442.47 -0.940845 1.69887 0
M  V30 57214 O 5441.74 -1.6652 1.00506 0
M  V30 57215 C 5442.02 0.786689 3.51402 0
M  V30 57216 C 5441.88 2.28645 3.87352 0
M  V30 57217 C 5443.2 0.264957 4.39302 0
M  V30 57218 H 5440.31 0.186076 0.713123 0
M  V30 57219 H 5442.96 1.11205 1.54056 0
M  V30 57220 H 5441.11 0.272659 3.87542 0
M  V30 57221 H 5442.78 2.86909 3.61221 0
M  V30 57222 H 5441.02 2.75205 3.35327 0
M  V30 57223 H 5441.69 2.43198 4.95539 0
M  V30 57224 H 5444.17 0.704953 4.10085 0
M  V30 57225 H 5443.04 0.48919 5.46716 0
M  V30 57226 H 5443.31 -0.833902 4.34164 0
M  V30 57227 N 5442.36 -1.43625 0.648807 0
M  V30 57228 C 5443.61 -2.02163 0.160645 0
M  V30 57229 C 5443.94 -1.51041 -1.22067 0
M  V30 57230 O 5443.22 -0.701697 -1.81401 0
M  V30 57231 C 5443.5 -3.59714 0.166654 0
M  V30 57232 C 5443.35 -4.21078 1.58157 0
M  V30 57233 C 5444.67 -4.37258 -0.499331 0
M  V30 57234 H 5441.79 -0.734566 0.0598496 0
M  V30 57235 H 5444.43 -1.70978 0.828652 0
M  V30 57236 H 5442.58 -3.86413 -0.402166 0
M  V30 57237 H 5444.26 -4.05425 2.20064 0
M  V30 57238 H 5442.5 -3.77896 2.13018 0
M  V30 57239 H 5443.17 -5.30151 1.53766 0
M  V30 57240 H 5445.65 -4.16097 -0.0154099 0
M  V30 57241 H 5444.52 -5.46932 -0.464381 0
M  V30 57242 H 5444.78 -4.1318 -1.57272 0
M  V30 57243 N 5443.84 -0.390448 -1.52687 0
M  V30 57244 C 5444.79 0.444149 -2.26486 0
M  V30 57245 C 5445.76 1.05684 -1.28141 0
M  V30 57246 O 5446.94 1.08464 -1.56972 0
M  V30 57247 C 5444.08 1.5649 -3.07579 0
M  V30 57248 C 5443.2 0.974963 -4.20854 0
M  V30 57249 C 5442.33 2.06686 -4.89341 0
M  V30 57250 C 5441.37 1.45288 -5.94607 0
M  V30 57251 N 5440.51 2.48414 -6.56685 0
M  V30 57252 H 5445.35 -0.191639 -2.97383 0
M  V30 57253 H 5442.89 -0.106338 -1.46715 0
M  V30 57254 H 5444.84 2.22546 -3.52887 0
M  V30 57255 H 5443.47 2.17099 -2.38889 0
M  V30 57256 H 5442.53 0.203976 -3.79853 0
M  V30 57257 H 5443.84 0.48629 -4.96424 0
M  V30 57258 H 5442.99 2.8051 -5.37958 0
M  V30 57259 H 5441.73 2.58914 -4.13298 0
M  V30 57260 H 5440.74 0.699899 -5.45327 0
M  V30 57261 H 5441.96 0.938539 -6.72583 0
M  V30 57262 H 5439.91 2.99808 -5.83482 0
M  V30 57263 H 5439.82 2.04305 -7.27871 0
M  V30 57264 H 5441.09 3.21864 -7.09947 0
M  V30 57265 N 5445.32 1.5714 -0.120304 0
M  V30 57266 C 5446.74 1.57841 0.236279 0
M  V30 57267 C 5446.94 1.1331 1.66622 0
M  V30 57268 O 5445.99 0.821088 2.38777 0
M  V30 57269 C 5447.31 3.007 0.0017764 0
M  V30 57270 C 5448.85 3.12927 0.0675738 0
M  V30 57271 C 5449.33 4.57788 -0.139253 0
M  V30 57272 N 5450.82 4.63122 -0.0852668 0
M  V30 57273 C 5451.55 5.72977 -0.220184 0
M  V30 57274 N 5451.05 6.91578 -0.411345 0
M  V30 57275 N 5452.84 5.61873 -0.159667 0
M  V30 57276 H 5444.99 1.84387 -1.05428 0
M  V30 57277 H 5447.26 0.852213 -0.415255 0
M  V30 57278 H 5446.96 3.37571 -0.986837 0
M  V30 57279 H 5446.84 3.70008 0.733073 0
M  V30 57280 H 5449.22 2.75913 1.04671 0
M  V30 57281 H 5449.31 2.4616 -0.695625 0
M  V30 57282 H 5448.95 4.95502 -1.11537 0
M  V30 57283 H 5448.88 5.22648 0.643947 0
M  V30 57284 H 5451.37 3.77854 0.0589151 0
M  V30 57285 H 5451.68 7.71147 -0.505122 0
M  V30 57286 H 5450.03 6.93559 -0.447335 0
M  V30 57287 H 5453.22 4.68099 -0.0112777 0
M  V30 57288 H 5453.39 6.47445 -0.268255 0
M  V30 57289 N 5446.8 -0.153471 1.56851 0
M  V30 57290 C 5447.73 -1.19155 2.00809 0
M  V30 57291 C 5448.71 -1.45169 0.886569 0
M  V30 57292 O 5449.89 -1.56199 1.15392 0
M  V30 57293 C 5447.02 -2.52628 2.3832 0
M  V30 57294 C 5445.98 -2.41149 3.53597 0
M  V30 57295 C 5445.3 -3.79274 3.76902 0
M  V30 57296 C 5446.6 -1.90105 4.86474 0
M  V30 57297 H 5448.3 -0.826069 2.87778 0
M  V30 57298 H 5445.84 -0.395923 1.3845 0
M  V30 57299 H 5447.8 -3.25469 2.67671 0
M  V30 57300 H 5446.52 -2.90999 1.4828 0
M  V30 57301 H 5445.18 -1.70761 3.24401 0
M  V30 57302 H 5444.83 -4.15069 2.84124 0
M  V30 57303 H 5444.53 -3.72456 4.54478 0
M  V30 57304 H 5446.05 -4.53673 4.08673 0
M  V30 57305 H 5447.47 -2.52734 5.14586 0
M  V30 57306 H 5445.86 -1.94194 5.6781 0
M  V30 57307 H 5446.93 -0.856349 4.77278 0
M  V30 57308 N 5448.28 -1.51828 -0.422613 0
M  V30 57309 C 5449.51 -1.68808 -1.19112 0
M  V30 57310 C 5449.91 -0.391294 -1.8511 0
M  V30 57311 O 5449.26 0.641419 -1.72138 0
M  V30 57312 C 5449.32 -2.75775 -2.30626 0
M  V30 57313 C 5448.98 -4.17935 -1.84876 0
M  V30 57314 C 5449.98 -5.02228 -1.34399 0
M  V30 57315 C 5447.67 -4.64107 -1.92119 0
M  V30 57316 C 5449.66 -6.30759 -0.917703 0
M  V30 57317 C 5447.35 -5.92631 -1.49102 0
M  V30 57318 C 5448.34 -6.75785 -0.990114 0
M  V30 57319 O 5448.03 -8.01904 -0.566105 0
M  V30 57320 H 5447.76 -0.569315 -0.364494 0
M  V30 57321 H 5450.32 -1.99092 -0.505138 0
M  V30 57322 H 5448.55 -2.40837 -3.02546 0
M  V30 57323 H 5450.24 -2.81487 -2.92438 0
M  V30 57324 H 5451 -4.67754 -1.28186 0
M  V30 57325 H 5446.88 -3.99496 -2.30052 0
M  V30 57326 H 5450.43 -6.95614 -0.526035 0
M  V30 57327 H 5446.32 -6.26617 -1.5499 0
M  V30 57328 H 5447.09 -8.15581 -0.690631 0
M  V30 57329 N 5449.75 0.679002 -1.42223 0
M  V30 57330 C 5450.7 1.81392 -1.45601 0
M  V30 57331 C 5451.7 1.66111 -0.332186 0
M  V30 57332 O 5452.9 1.72771 -0.505003 0
M  V30 57333 H 5449.28 0.598029 -0.455923 0
M  V30 57334 H 5451.25 1.75661 -2.41217 0
M  V30 57335 C 5450 3.19521 -1.3712 0
M  V30 57336 H 5449.32 3.31904 -2.2289 0
M  V30 57337 H 5450.76 3.98962 -1.43545 0
M  V30 57338 C 5449.22 3.36792 -0.0854777 0
M  V30 57339 O 5449.75 3.92312 0.863395 0
M  V30 57340 N 5447.96 2.906 -0.00399445 0
M  V30 57341 H 5447.5 2.45604 -0.776932 0
M  V30 57342 H 5447.46 3.02533 0.855636 0
M  V30 57343 N 5451.23 1.28325 0.914897 0
M  V30 57344 C 5452.64 1.13942 1.47899 0
M  V30 57345 C 5452.99 -0.271003 1.94319 0
M  V30 57346 O 5452.12 -1.16516 1.82354 0
M  V30 57347 C 5452.71 2.0623 2.68802 0
M  V30 57348 C 5451.27 1.95914 3.21395 0
M  V30 57349 C 5450.42 1.98038 1.94104 0
M  V30 57350 H 5453.37 1.41032 0.727723 0
M  V30 57351 H 5453.39 1.62562 3.44026 0
M  V30 57352 H 5452.9 3.08874 2.34986 0
M  V30 57353 H 5451.01 0.963033 3.59939 0
M  V30 57354 H 5451.12 2.82813 3.86722 0
M  V30 57355 H 5449.48 1.4243 2.11153 0
M  V30 57356 H 5450.27 3.02359 1.62584 0
M  V30 57357 N 5452.71 -1.12318 1.10555 0
M  V30 57358 C 5453.94 -1.88217 0.871159 0
M  V30 57359 C 5454.36 -1.79162 -0.572942 0
M  V30 57360 O 5453.72 -1.14743 -1.4037 0
M  V30 57361 C 5453.77 -3.35344 1.32577 0
M  V30 57362 O 5452.87 -4.0946 0.491594 0
M  V30 57363 H 5452.21 -0.584776 0.314537 0
M  V30 57364 H 5454.74 -1.42034 1.47267 0
M  V30 57365 H 5454.75 -3.86185 1.31625 0
M  V30 57366 H 5453.43 -3.41252 2.3774 0
M  V30 57367 H 5452 -3.68573 0.566424 0
M  V30 57368 N 5454.19 -0.89448 -1.29757 0
M  V30 57369 C 5455.12 -0.384781 -2.30308 0
M  V30 57370 C 5456.1 0.537429 -1.61387 0
M  V30 57371 O 5457.29 0.449265 -1.88932 0
M  V30 57372 C 5454.42 0.393189 -3.45067 0
M  V30 57373 C 5453.37 -0.438118 -4.25752 0
M  V30 57374 C 5452.7 0.467034 -5.32656 0
M  V30 57375 C 5454 -1.68528 -4.94364 0
M  V30 57376 H 5455.69 -1.22505 -2.7319 0
M  V30 57377 H 5453.24 -0.590518 -1.31335 0
M  V30 57378 H 5455.19 0.760468 -4.14481 0
M  V30 57379 H 5453.91 1.2672 -3.01014 0
M  V30 57380 H 5452.57 -0.787659 -3.58038 0
M  V30 57381 H 5452.22 1.33902 -4.8485 0
M  V30 57382 H 5451.92 -0.0854548 -5.87538 0
M  V30 57383 H 5453.44 0.83062 -6.04924 0
M  V30 57384 H 5454.86 -1.38804 -5.56243 0
M  V30 57385 H 5453.25 -2.17869 -5.59154 0
M  V30 57386 H 5454.32 -2.42427 -4.19949 0
M  V30 57387 N 5455.67 1.43279 -0.656415 0
M  V30 57388 C 5456.89 2.06641 -0.177317 0
M  V30 57389 C 5457.32 1.48897 1.14941 0
M  V30 57390 O 5456.68 0.60016 1.71078 0
M  V30 57391 C 5456.72 3.60453 -0.103117 0
M  V30 57392 O 5455.83 4.0169 0.933754 0
M  V30 57393 H 5455.17 0.656974 -0.0963371 0
M  V30 57394 H 5457.7 1.8373 -0.900242 0
M  V30 57395 H 5457.71 4.07923 0.0791476 0
M  V30 57396 H 5456.38 4.01857 -1.07161 0
M  V30 57397 H 5454.96 3.65804 0.724019 0
M  V30 57398 N 5457.15 0.398539 1.52478 0
M  V30 57399 C 5458.09 -0.446921 2.28266 0
M  V30 57400 C 5459.09 -1.05506 1.32532 0
M  V30 57401 O 5460.29 -0.994475 1.50034 0
M  V30 57402 H 5456.67 -0.162893 0.734146 0
M  V30 57403 H 5458.64 0.213639 2.97634 0
M  V30 57404 C 5457.39 -1.55713 3.10884 0
M  V30 57405 H 5456.71 -1.0985 3.84412 0
M  V30 57406 H 5458.15 -2.12274 3.67037 0
M  V30 57407 C 5456.61 -2.51845 2.23776 0
M  V30 57408 O 5457.14 -3.55476 1.87081 0
M  V30 57409 N 5455.35 -2.21803 1.87754 0
M  V30 57410 H 5454.89 -1.37563 2.17794 0
M  V30 57411 H 5454.85 -2.86372 1.29763 0
M  V30 57412 N 5458.62 -1.57074 0.128636 0
M  V30 57413 C 5459.87 -1.95522 -0.527019 0
M  V30 57414 C 5460.2 -1.01249 -1.66069 0
M  V30 57415 O 5459.45 -0.0381764 -1.95663 0
M  V30 57416 C 5459.75 -3.40333 -1.09126 0
M  V30 57417 C 5459.42 -4.50833 -0.0779454 0
M  V30 57418 C 5458.08 -4.80781 0.200662 0
M  V30 57419 C 5460.43 -5.17593 0.612102 0
M  V30 57420 C 5457.76 -5.74805 1.17544 0
M  V30 57421 C 5460.11 -6.12665 1.57557 0
M  V30 57422 C 5458.78 -6.41002 1.86207 0
M  V30 57423 H 5458.05 -0.715465 -0.19285 0
M  V30 57424 H 5460.69 -1.90328 0.211582 0
M  V30 57425 H 5459 -3.42268 -1.90682 0
M  V30 57426 H 5460.7 -3.67399 -1.60683 0
M  V30 57427 H 5457.29 -4.27511 -0.305279 0
M  V30 57428 H 5461.47 -4.94603 0.410034 0
M  V30 57429 H 5456.73 -5.9506 1.40405 0
M  V30 57430 H 5460.9 -6.63478 2.11589 0
M  V30 57431 H 5458.53 -7.13664 2.61893 0
M  V30 57432 N 5460.1 0.14515 -1.5693 0
M  V30 57433 C 5461.06 1.16309 -1.97496 0
M  V30 57434 C 5462.06 1.35761 -0.861716 0
M  V30 57435 O 5463.25 1.32722 -1.1283 0
M  V30 57436 C 5460.39 2.52303 -2.29251 0
M  V30 57437 H 5461.58 0.815036 -2.88612 0
M  V30 57438 H 5459.13 0.388557 -1.51393 0
M  V30 57439 H 5459.87 2.92076 -1.40932 0
M  V30 57440 H 5459.65 2.39545 -3.1042 0
M  V30 57441 H 5461.14 3.25614 -2.61467 0
M  V30 57442 N 5461.58 1.5205 0.414556 0
M  V30 57443 C 5462.51 1.77961 1.51169 0
M  V30 57444 C 5463.49 0.630338 1.5799 0
M  V30 57445 O 5464.68 0.875384 1.73351 0
M  V30 57446 C 5461.81 1.92537 2.89044 0
M  V30 57447 C 5460.76 3.08106 2.97077 0
M  V30 57448 C 5460.09 3.07897 4.37154 0
M  V30 57449 C 5461.39 4.47665 2.69059 0
M  V30 57450 H 5463.08 2.69831 1.29736 0
M  V30 57451 H 5460.63 1.29841 0.622685 0
M  V30 57452 H 5462.58 2.09247 3.65778 0
M  V30 57453 H 5461.3 0.973345 3.11759 0
M  V30 57454 H 5459.96 2.91138 2.22787 0
M  V30 57455 H 5459.61 2.10427 4.56869 0
M  V30 57456 H 5459.31 3.85516 4.43453 0
M  V30 57457 H 5460.83 3.2673 5.1583 0
M  V30 57458 H 5462.25 4.64867 3.35518 0
M  V30 57459 H 5460.64 5.27162 2.86742 0
M  V30 57460 H 5461.71 4.56135 1.64528 0
M  V30 57461 N 5463.06 -0.67145 1.42581 0
M  V30 57462 C 5464.02 -1.76671 1.46014 0
M  V30 57463 C 5465.02 -1.57005 0.347268 0
M  V30 57464 O 5466.21 -1.63236 0.608242 0
M  V30 57465 C 5463.34 -3.15343 1.29505 0
M  V30 57466 H 5464.54 -1.75013 2.43538 0
M  V30 57467 H 5462.09 -0.881399 1.29078 0
M  V30 57468 H 5462.82 -3.22625 0.329173 0
M  V30 57469 H 5462.61 -3.31021 2.10161 0
M  V30 57470 H 5464.1 -3.95246 1.34798 0
M  V30 57471 N 5464.54 -1.28809 -0.908079 0
M  V30 57472 C 5465.47 -1.15765 -2.02782 0
M  V30 57473 C 5466.45 -0.0539707 -1.70014 0
M  V30 57474 O 5467.63 -0.231969 -1.9281 0
M  V30 57475 C 5464.76 -0.824644 -3.37368 0
M  V30 57476 C 5463.72 -1.88372 -3.84318 0
M  V30 57477 C 5463.04 -1.40422 -5.15932 0
M  V30 57478 C 5464.34 -3.29122 -4.05556 0
M  V30 57479 H 5466.04 -2.09438 -2.13953 0
M  V30 57480 H 5463.58 -1.00835 -1.02803 0
M  V30 57481 H 5465.53 -0.720136 -4.15201 0
M  V30 57482 H 5464.26 0.147788 -3.26265 0
M  V30 57483 H 5462.92 -1.97747 -3.08693 0
M  V30 57484 H 5462.57 -0.420691 -5.01238 0
M  V30 57485 H 5462.27 -2.11243 -5.48316 0
M  V30 57486 H 5463.79 -1.31304 -5.96315 0
M  V30 57487 H 5465.2 -3.22637 -4.73897 0
M  V30 57488 H 5463.6 -3.97828 -4.4928 0
M  V30 57489 H 5464.67 -3.7272 -3.10173 0
M  V30 57490 N 5466.01 1.1173 -1.11149 0
M  V30 57491 C 5467.25 1.85036 -0.868383 0
M  V30 57492 C 5467.62 1.8254 0.59523 0
M  V30 57493 O 5468.82 2.51264 0.954982 0
M  V30 57494 C 5467.09 3.28376 -1.41082 0
M  V30 57495 S 5468.65 4.18969 -1.30425 0
M  V30 57496 H 5465.47 0.638103 -0.313601 0
M  V30 57497 H 5468.07 1.34543 -1.41839 0
M  V30 57498 H 5466.77 3.27755 -2.46991 0
M  V30 57499 H 5466.3 3.83936 -0.857711 0
M  V30 57500 H 5468.32 4.95482 -0.26678 0
M  V30 57501 N 5467.49 0.901349 1.29281 0
M  V30 57502 C 5468.72 0.542893 2.00169 0
M  V30 57503 C 5469.14 -0.865524 1.67004 0
M  V30 57504 O 5468.5 -1.57637 0.895557 0
M  V30 57505 C 5468.55 0.744111 3.52839 0
M  V30 57506 O 5467.65 -0.202626 4.11902 0
M  V30 57507 H 5466.99 0.211925 0.629273 0
M  V30 57508 H 5469.52 1.21339 1.64736 0
M  V30 57509 H 5469.53 0.649401 4.02799 0
M  V30 57510 H 5468.21 1.77091 3.76313 0
M  V30 57511 H 5466.78 -0.0602327 3.72851 0
M  V30 57512 N 5468.97 -1.42929 0.664004 0
M  V30 57513 C 5470.22 -2.01284 0.18145 0
M  V30 57514 C 5470.54 -1.52712 -1.2126 0
M  V30 57515 O 5469.81 -0.744245 -1.81212 0
M  V30 57516 H 5468.39 -0.744246 0.0640907 0
M  V30 57517 H 5471.05 -1.74994 0.858093 0
M  V30 57518 H 5470.15 -3.11612 0.174383 0
M  V30 57519 N 5470.45 -0.40662 -1.52264 0
M  V30 57520 C 5471.69 0.170234 -2.02084 0
M  V30 57521 C 5472.03 1.45003 -1.29181 0
M  V30 57522 O 5471.3 1.90397 -0.397377 0
M  V30 57523 C 5471.59 0.420501 -3.57636 0
M  V30 57524 C 5471.44 -0.875795 -4.41191 0
M  V30 57525 C 5472.76 1.20372 -4.23319 0
M  V30 57526 H 5469.88 0.0603961 -0.734521 0
M  V30 57527 H 5472.52 -0.539593 -1.82177 0
M  V30 57528 H 5470.67 1.02517 -3.7473 0
M  V30 57529 H 5472.34 -1.51208 -4.35814 0
M  V30 57530 H 5470.58 -1.48733 -4.07506 0
M  V30 57531 H 5471.25 -0.655109 -5.48099 0
M  V30 57532 H 5473.73 0.691828 -4.10308 0
M  V30 57533 H 5472.61 1.34758 -5.32101 0
M  V30 57534 H 5472.87 2.22366 -3.82107 0
M  V30 57535 N 5471.93 1.57004 -0.136964 0
M  V30 57536 C 5472.86 2.12007 0.844287 0
M  V30 57537 C 5473.84 1.04103 1.24905 0
M  V30 57538 O 5475.02 1.31871 1.34693 0
M  V30 57539 C 5472.15 2.63154 2.13231 0
M  V30 57540 C 5471.19 3.83111 1.87425 0
M  V30 57541 S 5472.03 5.24614 1.07429 0
M  V30 57542 C 5473.18 5.79142 2.37372 0
M  V30 57543 H 5473.42 2.94906 0.37651 0
M  V30 57544 H 5470.95 1.54207 0.0771435 0
M  V30 57545 H 5472.91 2.93274 2.87229 0
M  V30 57546 H 5471.57 1.80404 2.57125 0
M  V30 57547 H 5470.76 4.17109 2.82907 0
M  V30 57548 H 5470.36 3.537 1.2154 0
M  V30 57549 H 5472.66 5.89962 3.33093 0
M  V30 57550 H 5473.6 6.76894 2.07894 0
M  V30 57551 H 5474.01 5.0732 2.47561 0
M  V30 57552 N 5473.4 -0.136826 1.57005 0
M  V30 57553 C 5474.65 -0.844082 1.85059 0
M  V30 57554 C 5475.01 -1.78326 0.722341 0
M  V30 57555 O 5474.3 -1.89558 -0.278993 0
M  V30 57556 C 5474.49 -1.647 3.17189 0
M  V30 57557 C 5474.32 -0.787073 4.42759 0
M  V30 57558 C 5473.09 -0.448761 5.03303 0
M  V30 57559 C 5475.29 -0.112766 5.14176 0
M  V30 57560 N 5473.27 0.423697 6.12436 0
M  V30 57561 C 5474.64 0.619412 6.16898 0
M  V30 57562 C 5476.7 -0.0344937 4.97888 0
M  V30 57563 C 5475.4 1.42249 7.05094 0
M  V30 57564 C 5477.43 0.75535 5.86556 0
M  V30 57565 C 5476.79 1.47578 6.88767 0
M  V30 57566 H 5472.89 -0.286373 0.727678 0
M  V30 57567 H 5475.47 -0.108835 1.94396 0
M  V30 57568 H 5473.64 -2.35341 3.08981 0
M  V30 57569 H 5475.37 -2.29821 3.33113 0
M  V30 57570 H 5472.13 -0.786904 4.67017 0
M  V30 57571 H 5472.55 0.851249 6.71627 0
M  V30 57572 H 5477.2 -0.577124 4.18843 0
M  V30 57573 H 5474.91 1.97634 7.8356 0
M  V30 57574 H 5478.5 0.818038 5.7602 0
M  V30 57575 H 5477.38 2.07713 7.56191 0
M  V30 57576 N 5474.88 -1.52268 -0.406486 0
M  V30 57577 C 5475.81 -1.7876 -1.50223 0
M  V30 57578 C 5476.79 -0.638707 -1.57653 0
M  V30 57579 O 5477.98 -0.884565 -1.72885 0
M  V30 57580 C 5475.11 -1.94067 -2.88019 0
M  V30 57581 C 5474.06 -3.09677 -2.95438 0
M  V30 57582 C 5473.39 -3.10211 -4.35515 0
M  V30 57583 C 5474.69 -4.49086 -2.66681 0
M  V30 57584 H 5476.38 -2.70515 -1.28304 0
M  V30 57585 H 5473.93 -1.30169 -0.61579 0
M  V30 57586 H 5475.88 -2.11184 -3.64663 0
M  V30 57587 H 5474.61 -0.989865 -3.11238 0
M  V30 57588 H 5473.26 -2.92316 -2.2124 0
M  V30 57589 H 5472.91 -2.12847 -4.55747 0
M  V30 57590 H 5472.61 -3.87863 -4.41403 0
M  V30 57591 H 5474.14 -3.29461 -5.1409 0
M  V30 57592 H 5475.55 -4.66639 -3.33048 0
M  V30 57593 H 5473.95 -5.28675 -2.83942 0
M  V30 57594 H 5475.02 -4.57001 -1.62106 0
M  V30 57595 N 5476.36 0.663879 -1.42935 0
M  V30 57596 C 5477.59 1.44976 -1.47192 0
M  V30 57597 C 5478 1.89009 -0.0850755 0
M  V30 57598 O 5477.34 1.59417 0.912799 0
M  V30 57599 C 5477.4 2.72401 -2.34602 0
M  V30 57600 C 5477.07 2.50376 -3.8231 0
M  V30 57601 C 5478.06 2.14278 -4.73689 0
M  V30 57602 C 5475.75 2.65032 -4.26689 0
M  V30 57603 C 5477.74 1.93118 -6.07441 0
M  V30 57604 C 5475.43 2.43487 -5.60498 0
M  V30 57605 C 5476.43 2.07584 -6.5069 0
M  V30 57606 O 5476.12 1.86256 -7.82025 0
M  V30 57607 H 5475.85 0.45222 -0.502467 0
M  V30 57608 H 5478.4 0.822162 -1.88228 0
M  V30 57609 H 5476.63 3.37682 -1.88434 0
M  V30 57610 H 5478.32 3.34319 -2.30186 0
M  V30 57611 H 5479.09 2.02542 -4.40683 0
M  V30 57612 H 5474.97 2.91953 -3.56769 0
M  V30 57613 H 5478.51 1.65018 -6.77801 0
M  V30 57614 H 5474.41 2.54823 -5.93073 0
M  V30 57615 H 5475.18 2.00767 -7.93495 0
M  V30 57616 N 5477.84 1.29288 0.901235 0
M  V30 57617 C 5479.07 1.20054 1.68507 0
M  V30 57618 C 5479.48 -0.239062 1.8728 0
M  V30 57619 O 5478.84 -1.16022 1.40873 0
M  V30 57620 C 5478.89 1.90809 3.07041 0
M  V30 57621 O 5478.61 3.29147 2.89126 0
M  V30 57622 C 5480.11 1.88031 4.01446 0
M  V30 57623 H 5477.33 0.416175 0.526345 0
M  V30 57624 H 5479.88 1.70634 1.12713 0
M  V30 57625 H 5478.03 1.44068 3.59615 0
M  V30 57626 H 5478.44 3.6476 3.76895 0
M  V30 57627 H 5479.92 2.42106 4.96073 0
M  V30 57628 H 5480.4 0.855492 4.30788 0
M  V30 57629 H 5481 2.34509 3.54804 0
M  V30 57630 N 5479.32 -1.11139 1.1174 0
M  V30 57631 C 5480.55 -1.86471 0.889501 0
M  V30 57632 C 5480.95 -1.80586 -0.564375 0
M  V30 57633 O 5480.3 -1.18748 -1.40159 0
M  V30 57634 C 5480.36 -3.36061 1.27683 0
M  V30 57635 C 5480.02 -3.65712 2.74051 0
M  V30 57636 C 5481.02 -3.62928 3.72262 0
M  V30 57637 C 5478.71 -3.94618 3.10776 0
M  V30 57638 C 5480.7 -3.88633 5.05216 0
M  V30 57639 C 5478.39 -4.19981 4.43913 0
M  V30 57640 C 5479.38 -4.16977 5.40943 0
M  V30 57641 O 5479.07 -4.41701 6.71681 0
M  V30 57642 H 5478.8 -0.596427 0.318199 0
M  V30 57643 H 5481.36 -1.4146 1.48923 0
M  V30 57644 H 5479.59 -3.81693 0.620259 0
M  V30 57645 H 5481.28 -3.92765 1.02423 0
M  V30 57646 H 5482.04 -3.40643 3.45235 0
M  V30 57647 H 5477.92 -3.96091 2.35867 0
M  V30 57648 H 5481.47 -3.86204 5.80941 0
M  V30 57649 H 5477.36 -4.41744 4.70673 0
M  V30 57650 H 5478.13 -4.59253 6.77517 0
M  V30 57651 N 5480.79 -0.908192 -1.28801 0
M  V30 57652 C 5482.02 -0.553501 -1.99878 0
M  V30 57653 C 5482.44 0.856655 -1.67461 0
M  V30 57654 O 5481.8 1.5716 -0.903904 0
M  V30 57655 C 5481.85 -0.762812 -3.52439 0
M  V30 57656 O 5480.95 0.180779 -4.12004 0
M  V30 57657 H 5480.3 -0.215259 -0.62814 0
M  V30 57658 H 5482.83 -1.22211 -1.6409 0
M  V30 57659 H 5482.84 -0.670753 -4.02449 0
M  V30 57660 H 5481.51 -1.79084 -3.75369 0
M  V30 57661 H 5480.09 0.0404586 -3.72878 0
M  V30 57662 N 5482.27 1.42575 -0.671575 0
M  V30 57663 C 5483.52 2.00806 -0.189733 0
M  V30 57664 C 5483.83 1.53704 1.20973 0
M  V30 57665 O 5485.04 2.04331 1.78777 0
M  V30 57666 C 5483.5 3.58743 -0.288353 0
M  V30 57667 C 5483.1 4.14833 -1.69166 0
M  V30 57668 C 5484.85 4.24285 0.134941 0
M  V30 57669 C 5482.76 5.65125 -1.74322 0
M  V30 57670 H 5481.69 0.751002 -0.0671724 0
M  V30 57671 H 5484.34 1.63335 -0.836288 0
M  V30 57672 H 5482.72 3.93702 0.426037 0
M  V30 57673 H 5483.89 3.91341 -2.43288 0
M  V30 57674 H 5482.21 3.6173 -2.06252 0
M  V30 57675 H 5484.8 5.34573 0.116521 0
M  V30 57676 H 5485.15 3.99531 1.16963 0
M  V30 57677 H 5485.68 3.94276 -0.528329 0
M  V30 57678 H 5482.42 5.94672 -2.75763 0
M  V30 57679 H 5481.94 5.90617 -1.04552 0
M  V30 57680 H 5483.62 6.29486 -1.49521 0
M  V30 57681 N 5483.75 0.414689 1.52046 0
M  V30 57682 C 5485 -0.158964 2.01474 0
M  V30 57683 C 5485.32 -1.45171 1.30193 0
M  V30 57684 O 5484.59 -1.91133 0.429536 0
M  V30 57685 H 5483.17 -0.0617343 0.744445 0
M  V30 57686 H 5485.83 0.552207 1.86914 0
M  V30 57687 H 5484.93 -0.351108 3.10119 0
M  V30 57688 N 5485.23 -1.56929 0.145288 0
M  V30 57689 C 5486.14 -2.20241 -0.808142 0
M  V30 57690 C 5487.16 -1.1862 -1.273 0
M  V30 57691 O 5488.33 -1.5119 -1.33054 0
M  V30 57692 C 5485.4 -2.81023 -2.03045 0
M  V30 57693 C 5484.46 -3.97765 -1.61498 0
M  V30 57694 C 5483.69 -4.55638 -2.77902 0
M  V30 57695 O 5483.91 -4.12391 -3.94068 0
M  V30 57696 O 5482.85 -5.45926 -2.53473 0
M  V30 57697 H 5486.67 -3.02222 -0.299208 0
M  V30 57698 H 5484.26 -1.49177 -0.0816526 0
M  V30 57699 H 5486.14 -3.19661 -2.74581 0
M  V30 57700 H 5484.82 -2.02056 -2.52894 0
M  V30 57701 H 5483.72 -3.63845 -0.869905 0
M  V30 57702 H 5485.06 -4.78246 -1.16367 0
M  V30 57703 N 5486.71 0.128498 -1.57075 0
M  V30 57704 C 5487.67 1.14208 -1.98719 0
M  V30 57705 C 5488.67 1.3484 -0.876067 0
M  V30 57706 O 5489.86 1.31518 -1.14231 0
M  V30 57707 C 5486.99 2.49857 -2.31914 0
M  V30 57708 H 5488.19 0.784379 -2.89461 0
M  V30 57709 H 5485.74 0.372477 -1.51797 0
M  V30 57710 H 5486.47 2.90565 -1.44022 0
M  V30 57711 H 5486.26 2.36239 -3.12944 0
M  V30 57712 H 5487.75 3.22823 -2.64906 0
M  V30 57713 N 5488.19 1.52481 0.398405 0
M  V30 57714 C 5489.41 1.71225 1.17033 0
M  V30 57715 C 5489.84 0.42558 1.83222 0
M  V30 57716 O 5489.19 -0.617878 1.70446 0
M  V30 57717 C 5489.24 2.85628 2.20111 0
M  V30 57718 O 5488.35 2.51945 3.26492 0
M  V30 57719 H 5487.69 0.569666 0.34114 0
M  V30 57720 H 5490.22 1.99232 0.465582 0
M  V30 57721 H 5490.23 3.10852 2.64264 0
M  V30 57722 H 5488.9 3.78975 1.71321 0
M  V30 57723 H 5487.48 2.3743 2.87544 0
M  V30 57724 N 5489.66 -0.656289 1.43285 0
M  V30 57725 C 5490.89 -1.449 1.48387 0
M  V30 57726 C 5491.31 -1.87823 0.102059 0
M  V30 57727 O 5490.67 -1.57181 -0.903542 0
M  V30 57728 C 5490.72 -2.66223 2.43224 0
M  V30 57729 O 5489.82 -3.65169 1.91638 0
M  V30 57730 H 5489.16 -0.434583 0.502029 0
M  V30 57731 H 5491.69 -0.803363 1.88168 0
M  V30 57732 H 5491.7 -3.14074 2.60425 0
M  V30 57733 H 5490.38 -2.34324 3.43606 0
M  V30 57734 H 5488.96 -3.24296 1.84083 0
M  V30 57735 N 5491.14 -1.29765 -0.894366 0
M  V30 57736 C 5492.55 -1.1628 -1.46068 0
M  V30 57737 C 5492.9 0.240055 -1.94726 0
M  V30 57738 O 5492.03 1.136 -1.84185 0
M  V30 57739 C 5492.62 -2.10481 -2.65487 0
M  V30 57740 C 5491.18 -2.01003 -3.18237 0
M  V30 57741 C 5490.33 -2.01101 -1.90928 0
M  V30 57742 H 5493.28 -1.42171 -0.705194 0
M  V30 57743 H 5493.3 -1.68015 -3.41396 0
M  V30 57744 H 5492.81 -3.12574 -2.30042 0
M  V30 57745 H 5490.91 -1.02017 -3.58362 0
M  V30 57746 H 5491.03 -2.8893 -3.82173 0
M  V30 57747 H 5489.39 -1.45772 -2.08861 0
M  V30 57748 H 5490.17 -3.04908 -1.57754 0
M  V30 57749 N 5492.62 1.10545 -1.12328 0
M  V30 57750 C 5493.87 1.81848 -0.872595 0
M  V30 57751 C 5494.18 1.8606 0.603402 0
M  V30 57752 O 5495.39 2.53556 0.970646 0
M  V30 57753 C 5493.84 3.26625 -1.51142 0
M  V30 57754 C 5493.45 3.30714 -3.02212 0
M  V30 57755 C 5495.2 4.02763 -1.34096 0
M  V30 57756 C 5493.1 4.69945 -3.59035 0
M  V30 57757 H 5492.03 0.681411 -0.322793 0
M  V30 57758 H 5494.68 1.24327 -1.34963 0
M  V30 57759 H 5493.07 3.84136 -0.962048 0
M  V30 57760 H 5494.24 2.83033 -3.63633 0
M  V30 57761 H 5492.55 2.68061 -3.18641 0
M  V30 57762 H 5495.15 5.05606 -1.73972 0
M  V30 57763 H 5495.49 4.15327 -0.284515 0
M  V30 57764 H 5496.03 3.51664 -1.85949 0
M  V30 57765 H 5492.77 4.62581 -4.64434 0
M  V30 57766 H 5492.29 5.17997 -3.02389 0
M  V30 57767 H 5493.97 5.38912 -3.58026 0
M  V30 57768 N 5494.1 0.91501 1.28317 0
M  V30 57769 C 5495.06 0.409103 2.25519 0
M  V30 57770 C 5496.06 -0.465273 1.53922 0
M  V30 57771 O 5497.25 -0.26815 1.72124 0
M  V30 57772 C 5494.38 -0.413333 3.38385 0
M  V30 57773 H 5495.58 1.26776 2.71786 0
M  V30 57774 H 5493.13 0.694526 1.40022 0
M  V30 57775 H 5493.86 -1.29134 2.97481 0
M  V30 57776 H 5493.65 0.213406 3.91519 0
M  V30 57777 H 5495.14 -0.758088 4.10661 0
M  V30 57778 N 5495.58 -1.42217 0.679127 0
M  V30 57779 C 5496.81 -2.05515 0.211414 0
M  V30 57780 C 5497.21 -1.51134 -1.13821 0
M  V30 57781 O 5496.56 -0.647654 -1.71904 0
M  V30 57782 C 5496.62 -3.59424 0.0737271 0
M  V30 57783 C 5496.28 -4.3652 1.35275 0
M  V30 57784 C 5497.28 -4.66889 2.28714 0
M  V30 57785 C 5494.96 -4.76084 1.60155 0
M  V30 57786 C 5496.96 -5.35763 3.45307 0
M  V30 57787 C 5494.65 -5.44696 2.77036 0
M  V30 57788 C 5495.64 -5.74461 3.69436 0
M  V30 57789 O 5495.33 -6.41666 4.84273 0
M  V30 57790 H 5495.06 -0.668659 0.0993553 0
M  V30 57791 H 5497.62 -1.83267 0.927498 0
M  V30 57792 H 5495.85 -3.80349 -0.697977 0
M  V30 57793 H 5497.54 -4.04347 -0.35467 0
M  V30 57794 H 5498.3 -4.3682 2.10744 0
M  V30 57795 H 5494.18 -4.52307 0.891046 0
M  V30 57796 H 5497.73 -5.58912 4.17448 0
M  V30 57797 H 5493.62 -5.74183 2.9493 0
M  V30 57798 H 5494.39 -6.60158 4.83873 0
M  V30 57799 N 5497.05 -0.422747 -1.51824 0
M  V30 57800 C 5497.98 0.386832 -2.30273 0
M  V30 57801 C 5498.96 1.03407 -1.3506 0
M  V30 57802 O 5500.15 1.04049 -1.63974 0
M  V30 57803 C 5497.28 1.49634 -3.13412 0
M  V30 57804 C 5496.23 0.973385 -4.16784 0
M  V30 57805 C 5495.56 2.17753 -4.88352 0
M  V30 57806 C 5496.86 0.0179358 -5.22297 0
M  V30 57807 H 5498.55 -0.267802 -2.982 0
M  V30 57808 H 5496.1 -0.130237 -1.4341 0
M  V30 57809 H 5498.05 2.0698 -3.67066 0
M  V30 57810 H 5496.78 2.17905 -2.43279 0
M  V30 57811 H 5495.44 0.422242 -3.6416 0
M  V30 57812 H 5495.08 2.8461 -4.14736 0
M  V30 57813 H 5494.78 1.83407 -5.58243 0
M  V30 57814 H 5496.31 2.7568 -5.44824 0
M  V30 57815 H 5497.72 0.500621 -5.7111 0
M  V30 57816 H 5496.12 -0.237374 -5.9963 0
M  V30 57817 H 5497.19 -0.923232 -4.7603 0
M  V30 57818 N 5498.53 1.5685 -0.153609 0
M  V30 57819 C 5499.78 1.96626 0.496581 0
M  V30 57820 C 5500.11 1.03882 1.6408 0
M  V30 57821 O 5499.39 0.0824795 1.94325 0
M  V30 57822 C 5499.67 3.46038 0.996464 0
M  V30 57823 C 5499.52 4.49561 -0.146709 0
M  V30 57824 C 5500.84 3.9811 1.87606 0
M  V30 57825 H 5497.96 0.714924 0.179034 0
M  V30 57826 H 5500.6 1.88526 -0.23617 0
M  V30 57827 H 5498.75 3.53072 1.62088 0
M  V30 57828 H 5500.42 4.54602 -0.783267 0
M  V30 57829 H 5498.67 4.26268 -0.804877 0
M  V30 57830 H 5499.34 5.51457 0.244884 0
M  V30 57831 H 5501.81 3.93597 1.34983 0
M  V30 57832 H 5500.69 5.03106 2.1949 0
M  V30 57833 H 5500.95 3.40862 2.81542 0
M  V30 57834 N 5500.01 -0.120166 1.57141 0
M  V30 57835 C 5501.26 -0.828157 1.84791 0
M  V30 57836 C 5501.59 -1.79934 0.738522 0
M  V30 57837 O 5500.84 -1.93825 -0.270227 0
M  V30 57838 C 5501.14 -1.61326 3.18918 0
M  V30 57839 C 5500.81 -0.78648 4.43988 0
M  V30 57840 C 5499.47 -0.558477 4.77948 0
M  V30 57841 C 5501.82 -0.210098 5.20776 0
M  V30 57842 C 5499.15 0.256181 5.8614 0
M  V30 57843 C 5501.5 0.591745 6.29826 0
M  V30 57844 C 5500.16 0.830075 6.62319 0
M  V30 57845 H 5499.43 -0.303044 0.676199 0
M  V30 57846 H 5502.08 -0.0905866 1.91286 0
M  V30 57847 H 5500.39 -2.42171 3.07994 0
M  V30 57848 H 5502.08 -2.16501 3.37533 0
M  V30 57849 H 5498.67 -0.974279 4.1738 0
M  V30 57850 H 5502.86 -0.373467 4.94893 0
M  V30 57851 H 5498.11 0.450064 6.09741 0
M  V30 57852 H 5502.29 1.04536 6.88509 0
M  V30 57853 H 5499.91 1.46316 7.45986 0
M  V30 57854 N 5501.49 -1.5269 -0.390313 0
M  V30 57855 C 5502.73 -1.67918 -1.13716 0
M  V30 57856 C 5503.07 -0.417226 -1.89665 0
M  V30 57857 O 5502.34 0.58494 -1.85496 0
M  V30 57858 C 5502.63 -2.91338 -2.11646 0
M  V30 57859 C 5502.48 -4.27631 -1.39469 0
M  V30 57860 C 5503.8 -3.10304 -3.12089 0
M  V30 57861 H 5500.92 -0.611061 -0.412035 0
M  V30 57862 H 5503.56 -1.85284 -0.420688 0
M  V30 57863 H 5501.71 -2.76664 -2.72744 0
M  V30 57864 H 5503.38 -4.54071 -0.813448 0
M  V30 57865 H 5501.62 -4.28171 -0.696539 0
M  V30 57866 H 5502.29 -5.10073 -2.1102 0
M  V30 57867 H 5504.77 -3.24001 -2.61079 0
M  V30 57868 H 5503.65 -3.9814 -3.77856 0
M  V30 57869 H 5503.91 -2.24461 -3.8088 0
M  V30 57870 N 5502.97 0.648681 -1.43631 0
M  V30 57871 C 5504.19 1.43615 -1.48937 0
M  V30 57872 C 5504.61 1.88487 -0.108665 0
M  V30 57873 O 5503.97 1.59771 0.88201 0
M  V30 57874 C 5504.02 2.66813 -2.43912 0
M  V30 57875 O 5503.74 2.23817 -3.76613 0
M  V30 57876 C 5505.24 3.60125 -2.58506 0
M  V30 57877 H 5502.46 0.441037 -0.505695 0
M  V30 57878 H 5505 0.79487 -1.8842 0
M  V30 57879 H 5503.16 3.27072 -2.07612 0
M  V30 57880 H 5503.57 3.0356 -4.27728 0
M  V30 57881 H 5505.05 4.43222 -3.29026 0
M  V30 57882 H 5505.52 4.07774 -1.63148 0
M  V30 57883 H 5506.13 3.05745 -2.95635 0
M  V30 57884 N 5504.44 1.30237 0.887472 0
M  V30 57885 C 5505.67 1.21835 1.67224 0
M  V30 57886 C 5506.09 -0.219185 1.87523 0
M  V30 57887 O 5505.44 -1.14521 1.42095 0
M  V30 57888 C 5505.5 1.94054 3.05 0
M  V30 57889 O 5505.22 3.32195 2.85619 0
M  V30 57890 C 5506.72 1.92279 3.99429 0
M  V30 57891 H 5503.94 0.421734 0.521901 0
M  V30 57892 H 5506.48 1.7182 1.10897 0
M  V30 57893 H 5504.64 1.47874 3.58067 0
M  V30 57894 H 5505.05 3.68737 3.73005 0
M  V30 57895 H 5506.52 2.47354 4.93478 0
M  V30 57896 H 5507 0.901135 4.29856 0
M  V30 57897 H 5507.61 2.38259 3.52296 0
M  V30 57898 N 5505.92 -1.09948 1.12913 0
M  V30 57899 C 5506.85 -2.18474 0.82409 0
M  V30 57900 C 5507.83 -1.68745 -0.214265 0
M  V30 57901 O 5509.02 -1.94058 -0.0743599 0
M  V30 57902 C 5506.15 -3.46142 0.28343 0
M  V30 57903 C 5505.1 -4.09174 1.25542 0
M  V30 57904 C 5504.43 -5.31602 0.574761 0
M  V30 57905 C 5505.73 -4.52299 2.61196 0
M  V30 57906 H 5507.42 -2.44248 1.73157 0
M  V30 57907 H 5504.97 -1.17391 0.833993 0
M  V30 57908 H 5506.92 -4.2136 0.0577312 0
M  V30 57909 H 5505.65 -3.19874 -0.659413 0
M  V30 57910 H 5504.3 -3.35968 1.46702 0
M  V30 57911 H 5503.95 -5.01612 -0.373384 0
M  V30 57912 H 5503.65 -5.74728 1.22319 0
M  V30 57913 H 5505.18 -6.09548 0.358218 0
M  V30 57914 H 5506.59 -5.18767 2.44036 0
M  V30 57915 H 5504.99 -5.06291 3.22164 0
M  V30 57916 H 5506.06 -3.64966 3.19262 0
M  V30 57917 N 5507.4 -0.921802 -1.2783 0
M  V30 57918 C 5508.63 -0.575272 -1.98742 0
M  V30 57919 C 5509.04 0.845345 -1.68818 0
M  V30 57920 O 5508.4 1.56103 -0.945415 0
M  V30 57921 C 5508.45 -0.784513 -3.52885 0
M  V30 57922 O 5508.17 -2.14924 -3.81758 0
M  V30 57923 C 5509.67 -0.445899 -4.41052 0
M  V30 57924 H 5506.89 -0.218548 -0.634411 0
M  V30 57925 H 5509.44 -1.23721 -1.62829 0
M  V30 57926 H 5507.59 -0.169459 -3.87029 0
M  V30 57927 H 5508.01 -2.19486 -4.76368 0
M  V30 57928 H 5509.48 -0.643033 -5.48242 0
M  V30 57929 H 5509.96 0.61828 -4.34826 0
M  V30 57930 H 5510.56 -1.03884 -4.12418 0
M  V30 57931 N 5508.88 1.41855 -0.686659 0
M  V30 57932 C 5510.1 2.06218 -0.221109 0
M  V30 57933 C 5510.53 1.51301 1.11756 0
M  V30 57934 O 5509.89 0.636313 1.69767 0
M  V30 57935 C 5509.93 3.60153 -0.179551 0
M  V30 57936 O 5509.04 4.0358 0.84834 0
M  V30 57937 H 5508.38 0.654783 -0.110251 0
M  V30 57938 H 5510.91 1.81779 -0.939012 0
M  V30 57939 H 5510.92 4.07999 -0.00739675 0
M  V30 57940 H 5509.59 3.99494 -1.15661 0
M  V30 57941 H 5508.17 3.67257 0.646264 0
M  V30 57942 N 5510.36 0.430792 1.51598 0
M  V30 57943 C 5511.63 -0.197475 1.94601 0
M  V30 57944 C 5512.01 -1.60685 1.36907 0
M  V30 57945 O 5511.36 -2.21695 0.5535 0
M  V30 57946 C 5511.57 -0.181854 3.48526 0
M  V30 57947 C 5512.92 -0.390634 4.22799 0
M  V30 57948 O 5513.94 -0.26026 3.55248 0
M  V30 57949 O 5512.8 -0.649511 5.42627 0
M  V30 57950 H 5509.9 -0.133495 0.816154 0
M  V30 57951 H 5512.44 0.4883 1.62523 0
M  V30 57952 H 5511.21 0.803718 3.82957 0
M  V30 57953 H 5510.84 -0.910815 3.87027 0
M  V30 57954 N 5511.83 -1.56766 0.161924 0
M  V30 57955 C 5513.06 -2.00675 -0.491243 0
M  V30 57956 C 5513.47 -1.04117 -1.57976 0
M  V30 57957 O 5512.82 -0.0325534 -1.83671 0
M  V30 57958 C 5512.88 -3.41015 -1.13794 0
M  V30 57959 C 5512.54 -4.56596 -0.192223 0
M  V30 57960 C 5513.54 -5.16589 0.585853 0
M  V30 57961 C 5511.22 -5.02218 -0.0907828 0
M  V30 57962 C 5513.22 -6.20626 1.45267 0
M  V30 57963 C 5510.9 -6.06107 0.779623 0
M  V30 57964 C 5511.9 -6.65181 1.54994 0
M  V30 57965 O 5511.59 -7.67056 2.40582 0
M  V30 57966 H 5511.32 -0.663178 -0.131036 0
M  V30 57967 H 5513.88 -2.03774 0.257968 0
M  V30 57968 H 5512.11 -3.348 -1.93509 0
M  V30 57969 H 5513.8 -3.68937 -1.69235 0
M  V30 57970 H 5514.56 -4.8223 0.517601 0
M  V30 57971 H 5510.44 -4.55955 -0.680131 0
M  V30 57972 H 5513.98 -6.66664 2.05439 0
M  V30 57973 H 5509.88 -6.39891 0.849112 0
M  V30 57974 H 5510.65 -7.8434 2.33994 0
M  V30 57975 N 5513.31 0.11183 -1.57203 0
M  V30 57976 C 5514.54 0.83234 -1.89419 0
M  V30 57977 C 5514.96 1.73094 -0.753922 0
M  V30 57978 O 5514.31 1.80417 0.274929 0
M  V30 57979 C 5514.36 1.65976 -3.21145 0
M  V30 57980 O 5514.09 0.797334 -4.30783 0
M  V30 57981 C 5515.59 2.4848 -3.67114 0
M  V30 57982 H 5512.81 0.238897 -0.627032 0
M  V30 57983 H 5515.35 0.0940738 -2.04284 0
M  V30 57984 H 5513.51 2.35071 -3.07929 0
M  V30 57985 H 5513.92 1.36874 -5.06326 0
M  V30 57986 H 5515.39 3.02056 -4.62024 0
M  V30 57987 H 5515.87 3.26172 -2.94124 0
M  V30 57988 H 5516.48 1.84615 -3.83142 0
M  V30 57989 N 5514.79 1.52895 0.38221 0
M  V30 57990 C 5516.04 1.67493 1.12379 0
M  V30 57991 C 5516.35 0.424632 1.90935 0
M  V30 57992 O 5517.56 0.450858 2.6773 0
M  V30 57993 C 5516.02 2.96026 2.04686 0
M  V30 57994 C 5515.62 4.2826 1.3152 0
M  V30 57995 C 5517.37 3.1999 2.78938 0
M  V30 57996 C 5515.27 5.47895 2.22633 0
M  V30 57997 H 5514.2 0.624017 0.423224 0
M  V30 57998 H 5516.86 1.79393 0.386044 0
M  V30 57999 H 5515.24 2.77888 2.82124 0
M  V30 58000 H 5516.41 4.56973 0.59261 0
M  V30 58001 H 5514.73 4.1061 0.692003 0
M  V30 58002 H 5517.32 4.06553 3.47302 0
M  V30 58003 H 5517.67 2.35347 3.43391 0
M  V30 58004 H 5518.2 3.38726 2.0859 0
M  V30 58005 H 5514.94 6.34966 1.62784 0
M  V30 58006 H 5514.46 5.23483 2.92789 0
M  V30 58007 H 5516.14 5.82036 2.82565 0
M  V30 58008 N 5516.27 -0.641055 1.43973 0
M  V30 58009 C 5517.5 -1.42823 1.49697 0
M  V30 58010 C 5517.91 -1.88427 0.11866 0
M  V30 58011 O 5517.27 -1.60237 -0.873524 0
M  V30 58012 C 5517.32 -2.65516 2.45323 0
M  V30 58013 O 5517.04 -2.21816 3.77795 0
M  V30 58014 C 5518.54 -3.58749 2.60412 0
M  V30 58015 H 5515.76 -0.438349 0.508026 0
M  V30 58016 H 5518.31 -0.784866 1.88839 0
M  V30 58017 H 5516.46 -3.25966 2.09344 0
M  V30 58018 H 5516.88 -3.01288 4.29332 0
M  V30 58019 H 5518.35 -4.41471 3.31372 0
M  V30 58020 H 5518.83 -4.06903 1.65308 0
M  V30 58021 H 5519.43 -3.04173 2.97252 0
M  V30 58022 N 5517.75 -1.30706 -0.880552 0
M  V30 58023 C 5518.99 -1.19961 -1.63515 0
M  V30 58024 C 5519.33 0.244147 -1.92659 0
M  V30 58025 O 5518.6 1.17407 -1.55067 0
M  V30 58026 C 5518.88 -2.03312 -2.97214 0
M  V30 58027 C 5518.74 -3.55931 -2.75015 0
M  V30 58028 C 5520.06 -1.87435 -3.98191 0
M  V30 58029 H 5517.18 -0.437141 -0.593361 0
M  V30 58030 H 5519.82 -1.60385 -1.01865 0
M  V30 58031 H 5517.97 -1.68966 -3.49833 0
M  V30 58032 H 5519.64 -4.0036 -2.2915 0
M  V30 58033 H 5517.88 -3.79892 -2.09439 0
M  V30 58034 H 5518.55 -4.09546 -3.70102 0
M  V30 58035 H 5521.03 -2.17471 -3.54747 0
M  V30 58036 H 5519.91 -2.48074 -4.89643 0
M  V30 58037 H 5520.17 -0.834716 -4.34148 0
M  V30 58038 N 5519.23 1.09347 -1.13494 0
M  V30 58039 C 5520.47 1.8154 -0.897186 0
M  V30 58040 C 5520.8 1.85756 0.576638 0
M  V30 58041 O 5520.06 1.32218 1.44281 0
M  V30 58042 C 5520.35 3.27493 -1.43119 0
M  V30 58043 C 5520.02 3.4341 -2.922 0
M  V30 58044 C 5518.68 3.47461 -3.32903 0
M  V30 58045 C 5521.03 3.4788 -3.88109 0
M  V30 58046 C 5518.36 3.53563 -4.68199 0
M  V30 58047 C 5520.71 3.55516 -5.2325 0
M  V30 58048 C 5519.38 3.57837 -5.63479 0
M  V30 58049 H 5518.65 0.664302 -0.328304 0
M  V30 58050 H 5521.3 1.28814 -1.41701 0
M  V30 58051 H 5519.6 3.82862 -0.832081 0
M  V30 58052 H 5521.3 3.81885 -1.2233 0
M  V30 58053 H 5517.89 3.40941 -2.59725 0
M  V30 58054 H 5522.07 3.4399 -3.57749 0
M  V30 58055 H 5517.33 3.53647 -4.98742 0
M  V30 58056 H 5521.5 3.57921 -5.97383 0
M  V30 58057 H 5519.13 3.62318 -6.68304 0
M  V30 58058 N 5520.7 0.928568 1.2734 0
M  V30 58059 C 5521.95 0.570304 1.94616 0
M  V30 58060 C 5522.28 -0.88632 1.72795 0
M  V30 58061 O 5521.56 -1.63238 1.05752 0
M  V30 58062 C 5521.84 0.898087 3.48721 0
M  V30 58063 C 5521.69 2.40853 3.79882 0
M  V30 58064 C 5523.01 0.404583 4.38236 0
M  V30 58065 H 5520.13 0.208669 0.706842 0
M  V30 58066 H 5522.77 1.1605 1.5044 0
M  V30 58067 H 5520.92 0.395815 3.86478 0
M  V30 58068 H 5522.6 2.98256 3.51911 0
M  V30 58069 H 5520.84 2.85734 3.26402 0
M  V30 58070 H 5521.51 2.5884 4.87551 0
M  V30 58071 H 5523.99 0.835062 4.07635 0
M  V30 58072 H 5522.86 0.662876 5.44883 0
M  V30 58073 H 5523.12 -0.695354 4.36597 0
M  V30 58074 N 5522.18 -1.41489 0.694172 0
M  V30 58075 C 5523.41 -2.05578 0.233539 0
M  V30 58076 C 5523.82 -1.52234 -1.1167 0
M  V30 58077 O 5523.18 -0.669997 -1.69757 0
M  V30 58078 C 5523.23 -3.61046 0.181094 0
M  V30 58079 O 5522.95 -4.12416 1.478 0
M  V30 58080 C 5524.45 -4.42279 -0.300698 0
M  V30 58081 H 5521.67 -0.662093 0.108966 0
M  V30 58082 H 5524.22 -1.81285 0.946363 0
M  V30 58083 H 5522.37 -3.84383 -0.482543 0
M  V30 58084 H 5522.79 -5.06449 1.36418 0
M  V30 58085 H 5524.26 -5.51257 -0.28627 0
M  V30 58086 H 5524.74 -4.1828 -1.33933 0
M  V30 58087 H 5525.34 -4.24003 0.33189 0
M  V30 58088 N 5523.66 -0.438826 -1.51367 0
M  V30 58089 C 5524.91 0.12733 -2.024 0
M  V30 58090 C 5525.24 1.4223 -1.32228 0
M  V30 58091 O 5524.51 1.89512 -0.437674 0
M  V30 58092 C 5524.8 0.344547 -3.58448 0
M  V30 58093 C 5524.65 -0.969181 -4.39234 0
M  V30 58094 C 5525.97 1.11366 -4.25777 0
M  V30 58095 H 5523.09 0.0448022 -0.735637 0
M  V30 58096 H 5525.73 -0.578114 -1.80991 0
M  V30 58097 H 5523.88 0.94545 -3.7682 0
M  V30 58098 H 5525.55 -1.60418 -4.32509 0
M  V30 58099 H 5523.79 -1.57343 -4.04259 0
M  V30 58100 H 5524.47 -0.771221 -5.46586 0
M  V30 58101 H 5526.94 0.60464 -4.11684 0
M  V30 58102 H 5525.82 1.23441 -5.3484 0
M  V30 58103 H 5526.08 2.14211 -3.86738 0
M  V30 58104 N 5525.14 1.56678 -0.170236 0
M  V30 58105 C 5526.09 2.19225 0.777382 0
M  V30 58106 C 5527.08 1.15597 1.2383 0
M  V30 58107 O 5528.29 1.33798 1.20408 0
M  V30 58108 H 5524.66 0.702254 0.268967 0
M  V30 58109 H 5526.63 2.97544 0.225885 0
M  V30 58110 C 5525.38 2.84638 1.9969 0
M  V30 58111 H 5524.7 3.64106 1.65127 0
M  V30 58112 H 5526.14 3.31874 2.63886 0
M  V30 58113 C 5524.6 1.84354 2.81984 0
M  V30 58114 O 5525.13 1.32835 3.79101 0
M  V30 58115 N 5523.34 1.53136 2.46977 0
M  V30 58116 H 5522.89 1.95224 1.68063 0
M  V30 58117 H 5522.84 0.862893 3.02327 0
M  V30 58118 N 5526.62 -0.103492 1.5726 0
M  V30 58119 C 5527.55 -1.12706 2.04498 0
M  V30 58120 C 5528.53 -1.42275 0.932305 0
M  V30 58121 O 5529.71 -1.52449 1.20303 0
M  V30 58122 C 5526.84 -2.44918 2.46236 0
M  V30 58123 C 5525.8 -2.29778 3.6109 0
M  V30 58124 C 5525.12 -3.67091 3.88778 0
M  V30 58125 C 5526.42 -1.74532 4.92276 0
M  V30 58126 H 5528.12 -0.734096 2.90261 0
M  V30 58127 H 5525.66 -0.351676 1.3964 0
M  V30 58128 H 5527.61 -3.16788 2.77891 0
M  V30 58129 H 5526.34 -2.86135 1.57463 0
M  V30 58130 H 5525 -1.60354 3.2967 0
M  V30 58131 H 5524.65 -4.0582 2.97185 0
M  V30 58132 H 5524.35 -3.57809 4.66097 0
M  V30 58133 H 5525.87 -4.40442 4.22899 0
M  V30 58134 H 5527.28 -2.36235 5.22366 0
M  V30 58135 H 5525.68 -1.76031 5.73701 0
M  V30 58136 H 5526.75 -0.704073 4.79761 0
M  V30 58137 N 5528.09 -1.53096 -0.374097 0
M  V30 58138 C 5529.06 -1.78269 -1.44058 0
M  V30 58139 C 5530.06 -0.652944 -1.46947 0
M  V30 58140 O 5531.25 -0.921098 -1.47856 0
M  V30 58141 C 5528.38 -1.89703 -2.83242 0
M  V30 58142 H 5529.57 -2.73509 -1.23015 0
M  V30 58143 H 5527.13 -1.44043 -0.606729 0
M  V30 58144 H 5527.86 -0.964993 -3.0961 0
M  V30 58145 H 5527.65 -2.71865 -2.82545 0
M  V30 58146 H 5529.14 -2.108 -3.6049 0
M  V30 58147 N 5529.57 0.633411 -1.44311 0
M  V30 58148 C 5530.52 1.74548 -1.51002 0
M  V30 58149 C 5531.49 1.62198 -0.35793 0
M  V30 58150 O 5532.67 1.82154 -0.567851 0
M  V30 58151 C 5529.81 3.12787 -1.45802 0
M  V30 58152 C 5528.93 3.3613 -2.71368 0
M  V30 58153 C 5528.06 4.64328 -2.58018 0
M  V30 58154 C 5527.1 4.80842 -3.78758 0
M  V30 58155 N 5526.24 6.00314 -3.64098 0
M  V30 58156 H 5531.08 1.68166 -2.46017 0
M  V30 58157 H 5528.62 0.820364 -1.221 0
M  V30 58158 H 5530.57 3.9273 -1.40779 0
M  V30 58159 H 5529.2 3.18191 -0.543557 0
M  V30 58160 H 5528.26 2.50143 -2.86588 0
M  V30 58161 H 5529.57 3.44213 -3.60997 0
M  V30 58162 H 5528.72 5.52428 -2.50815 0
M  V30 58163 H 5527.46 4.58599 -1.65945 0
M  V30 58164 H 5526.47 3.91172 -3.86348 0
M  V30 58165 H 5527.69 4.88386 -4.71864 0
M  V30 58166 H 5525.64 5.9568 -2.74775 0
M  V30 58167 H 5525.55 6.09443 -4.47342 0
M  V30 58168 H 5526.82 6.90982 -3.60782 0
M  V30 58169 N 5531.05 1.31171 0.873608 0
M  V30 58170 C 5532.3 1.20826 1.62877 0
M  V30 58171 C 5532.63 -0.233926 1.92786 0
M  V30 58172 O 5531.9 -1.16583 1.55688 0
M  V30 58173 C 5532.19 2.04885 2.96132 0
M  V30 58174 C 5532.04 3.57384 2.73124 0
M  V30 58175 C 5533.36 1.89544 3.97191 0
M  V30 58176 H 5530.48 0.440281 0.591034 0
M  V30 58177 H 5533.12 1.60923 1.01013 0
M  V30 58178 H 5531.27 1.70819 3.48932 0
M  V30 58179 H 5532.94 4.01569 2.27024 0
M  V30 58180 H 5531.19 3.80997 2.07421 0
M  V30 58181 H 5531.86 4.11503 3.67925 0
M  V30 58182 H 5534.33 2.1935 3.53589 0
M  V30 58183 H 5533.21 2.50667 4.88321 0
M  V30 58184 H 5533.47 0.857728 4.337 0
M  V30 58185 N 5532.53 -1.08744 1.14072 0
M  V30 58186 C 5533.77 -1.82669 0.917137 0
M  V30 58187 C 5534.13 -1.84054 -0.546623 0
M  V30 58188 O 5535.33 -2.53707 -0.888029 0
M  V30 58189 C 5533.6 -3.2452 1.49739 0
M  V30 58190 S 5535.16 -4.15364 1.41487 0
M  V30 58191 H 5531.98 -0.629564 0.330409 0
M  V30 58192 H 5534.58 -1.30735 1.45357 0
M  V30 58193 H 5533.29 -3.21092 2.55594 0
M  V30 58194 H 5532.82 -3.81527 0.959203 0
M  V30 58195 H 5534.83 -4.94601 0.398054 0
M  V30 58196 N 5534.01 -0.935308 -1.26845 0
M  V30 58197 C 5535.23 -0.596319 -1.9812 0
M  V30 58198 C 5535.65 0.827392 -1.69705 0
M  V30 58199 O 5535.01 1.55091 -0.961919 0
M  V30 58200 C 5535.06 -0.821897 -3.52033 0
M  V30 58201 O 5534.78 -2.18961 -3.79457 0
M  V30 58202 C 5536.28 -0.492653 -4.40554 0
M  V30 58203 H 5533.5 -0.225264 -0.632058 0
M  V30 58204 H 5536.04 -1.25441 -1.61508 0
M  V30 58205 H 5534.2 -0.210499 -3.86828 0
M  V30 58206 H 5534.61 -2.24526 -4.74013 0
M  V30 58207 H 5536.09 -0.701145 -5.47529 0
M  V30 58208 H 5536.56 0.572127 -4.35458 0
M  V30 58209 H 5537.17 -1.08252 -4.11293 0
M  V30 58210 N 5535.48 1.41118 -0.701666 0
M  V30 58211 C 5536.71 2.05153 -0.244083 0
M  V30 58212 C 5537.12 1.52926 1.11402 0
M  V30 58213 O 5536.47 0.67492 1.70852 0
M  V30 58214 C 5536.53 3.59262 -0.130899 0
M  V30 58215 C 5536.19 4.34313 -1.42203 0
M  V30 58216 C 5537.19 4.63192 -2.36113 0
M  V30 58217 C 5534.87 4.73475 -1.67709 0
M  V30 58218 C 5536.87 5.30201 -3.53787 0
M  V30 58219 C 5534.55 5.4022 -2.85667 0
M  V30 58220 C 5535.55 5.68511 -3.78529 0
M  V30 58221 O 5535.24 6.3388 -4.9442 0
M  V30 58222 H 5534.97 0.666993 -0.109981 0
M  V30 58223 H 5537.53 1.81768 -0.956537 0
M  V30 58224 H 5535.76 3.81411 0.637378 0
M  V30 58225 H 5537.45 4.04861 0.290297 0
M  V30 58226 H 5538.21 4.33412 -2.17667 0
M  V30 58227 H 5534.09 4.50832 -0.962891 0
M  V30 58228 H 5537.63 5.522 -4.26287 0
M  V30 58229 H 5533.53 5.69418 -3.04028 0
M  V30 58230 H 5534.3 6.52377 -4.94315 0
M  V30 58231 N 5536.96 0.446847 1.51133 0
M  V30 58232 C 5537.93 -0.348232 2.26539 0
M  V30 58233 C 5538.93 -0.94152 1.30354 0
M  V30 58234 O 5540.12 -0.814483 1.53986 0
M  V30 58235 C 5537.25 -1.49361 3.06438 0
M  V30 58236 H 5538.44 0.312753 2.98265 0
M  V30 58237 H 5535.99 0.200256 1.55012 0
M  V30 58238 H 5536.73 -2.19036 2.39152 0
M  V30 58239 H 5536.51 -1.07426 3.77097 0
M  V30 58240 H 5538 -2.0551 3.63532 0
M  V30 58241 N 5538.44 -1.56585 0.178542 0
M  V30 58242 C 5539.69 -1.96274 -0.464676 0
M  V30 58243 C 5540 -1.06756 -1.63898 0
M  V30 58244 O 5541.21 -1.36156 -2.34891 0
M  V30 58245 C 5539.66 -3.49024 -0.878084 0
M  V30 58246 C 5539.27 -4.47179 0.271018 0
M  V30 58247 C 5541.02 -3.97517 -1.48932 0
M  V30 58248 C 5538.92 -5.91177 -0.162425 0
M  V30 58249 H 5537.85 -0.73284 -0.177373 0
M  V30 58250 H 5540.5 -1.81533 0.267925 0
M  V30 58251 H 5538.89 -3.59209 -1.66687 0
M  V30 58252 H 5540.06 -4.48715 1.04842 0
M  V30 58253 H 5538.38 -4.08786 0.792672 0
M  V30 58254 H 5540.97 -5.02563 -1.82578 0
M  V30 58255 H 5541.32 -3.40869 -2.38985 0
M  V30 58256 H 5541.85 -3.90378 -0.764823 0
M  V30 58257 H 5538.59 -6.51714 0.703515 0
M  V30 58258 H 5538.11 -5.92933 -0.905034 0
M  V30 58259 H 5539.79 -6.44176 -0.603857 0
M  V30 58260 N 5539.92 0.0951507 -1.57313 0
M  V30 58261 C 5541.17 0.798654 -1.86085 0
M  V30 58262 C 5541.49 1.78736 -0.767054 0
M  V30 58263 O 5540.75 1.94231 0.239357 0
M  V30 58264 C 5541.05 1.56232 -3.21444 0
M  V30 58265 C 5540.71 0.715746 -4.45183 0
M  V30 58266 C 5539.38 0.482369 -4.78776 0
M  V30 58267 C 5541.73 0.12722 -5.21045 0
M  V30 58268 C 5539.06 -0.349399 -5.85659 0
M  V30 58269 C 5541.41 -0.69187 -6.28805 0
M  V30 58270 C 5540.07 -0.93534 -6.60914 0
M  V30 58271 H 5539.34 0.292248 -0.680935 0
M  V30 58272 H 5541.99 0.0601432 -1.91406 0
M  V30 58273 H 5540.29 2.3724 -3.11808 0
M  V30 58274 H 5541.99 2.11104 -3.40934 0
M  V30 58275 H 5538.58 0.907755 -4.18877 0
M  V30 58276 H 5542.76 0.294686 -4.95424 0
M  V30 58277 H 5538.02 -0.547011 -6.08948 0
M  V30 58278 H 5542.19 -1.15476 -6.86759 0
M  V30 58279 H 5539.82 -1.58165 -7.43564 0
M  V30 58280 N 5541.4 1.53292 0.365972 0
M  V30 58281 C 5542.36 1.7903 1.43111 0
M  V30 58282 C 5543.36 0.660727 1.46598 0
M  V30 58283 O 5544.55 0.928926 1.47366 0
M  V30 58284 C 5541.68 1.91202 2.82232 0
M  V30 58285 H 5542.87 2.74158 1.21563 0
M  V30 58286 H 5540.43 1.44363 0.599082 0
M  V30 58287 H 5541.16 0.981399 3.09094 0
M  V30 58288 H 5540.95 2.7336 2.81099 0
M  V30 58289 H 5542.44 2.12709 3.59367 0
M  V30 58290 N 5542.88 -0.625749 1.44645 0
M  V30 58291 C 5544.11 -1.41023 1.50984 0
M  V30 58292 C 5544.51 -1.88717 0.135158 0
M  V30 58293 O 5543.86 -1.61781 -0.870212 0
M  V30 58294 C 5543.92 -2.66085 2.41741 0
M  V30 58295 C 5543.58 -2.40152 3.88814 0
M  V30 58296 C 5544.58 -2.01644 4.79203 0
M  V30 58297 C 5542.26 -2.53625 4.33566 0
M  V30 58298 C 5544.26 -1.76945 6.12347 0
M  V30 58299 C 5541.95 -2.2854 5.66756 0
M  V30 58300 C 5542.94 -1.90259 6.55965 0
M  V30 58301 O 5542.63 -1.65457 7.86689 0
M  V30 58302 H 5542.36 -0.438739 0.51428 0
M  V30 58303 H 5544.92 -0.771967 1.90341 0
M  V30 58304 H 5543.15 -3.32568 1.97321 0
M  V30 58305 H 5544.84 -3.28099 2.38969 0
M  V30 58306 H 5545.6 -1.90787 4.45899 0
M  V30 58307 H 5541.48 -2.82391 3.64384 0
M  V30 58308 H 5545.03 -1.4699 6.81938 0
M  V30 58309 H 5540.92 -2.39009 5.99621 0
M  V30 58310 H 5541.69 -1.79658 7.98539 0
M  V30 58311 N 5544.35 -1.31632 -0.86664 0
M  V30 58312 C 5545.58 -1.24615 -1.65789 0
M  V30 58313 C 5546 0.184878 -1.87189 0
M  V30 58314 O 5545.36 1.13215 -1.41605 0
M  V30 58315 C 5545.41 -1.9989 -3.00127 0
M  V30 58316 O 5544.51 -1.33851 -3.90074 0
M  V30 58317 H 5543.85 -0.430069 -0.505902 0
M  V30 58318 H 5546.38 -1.73756 -1.08029 0
M  V30 58319 H 5546.39 -2.09611 -3.50039 0
M  V30 58320 H 5545.07 -3.03957 -2.83871 0
M  V30 58321 H 5543.65 -1.32602 -3.48527 0
M  V30 58322 N 5545.83 1.08138 -1.14647 0
M  V30 58323 C 5547.24 1.62058 -0.927043 0
M  V30 58324 C 5547.59 1.88807 0.533511 0
M  V30 58325 O 5546.72 1.64758 1.40299 0
M  V30 58326 C 5547.31 2.94419 -1.6764 0
M  V30 58327 C 5545.87 3.45113 -1.50247 0
M  V30 58328 C 5545.02 2.19301 -1.69713 0
M  V30 58329 H 5547.97 0.913281 -1.29788 0
M  V30 58330 H 5547.99 3.62983 -1.1412 0
M  V30 58331 H 5547.5 2.74918 -2.73937 0
M  V30 58332 H 5545.6 3.69711 -0.463097 0
M  V30 58333 H 5545.72 4.21682 -2.27423 0
M  V30 58334 H 5544.08 2.28607 -1.12299 0
M  V30 58335 H 5544.86 2.02305 -2.77358 0
M  V30 58336 N 5547.31 0.942022 1.26348 0
M  V30 58337 C 5548.24 0.409584 2.25511 0
M  V30 58338 C 5549.25 -0.46761 1.5594 0
M  V30 58339 O 5550.44 -0.27792 1.76323 0
M  V30 58340 C 5547.54 -0.430368 3.36156 0
M  V30 58341 C 5546.72 0.430867 4.35273 0
M  V30 58342 C 5545.78 -0.348791 5.25043 0
M  V30 58343 O 5544.8 0.24847 5.68657 0
M  V30 58344 N 5546 -1.64511 5.56701 0
M  V30 58345 H 5548.77 1.26206 2.71831 0
M  V30 58346 H 5546.33 0.810996 1.40123 0
M  V30 58347 H 5548.32 -0.959363 3.93164 0
M  V30 58348 H 5546.89 -1.18365 2.89324 0
M  V30 58349 H 5546.11 1.14107 3.77324 0
M  V30 58350 H 5547.4 1.01914 4.98489 0
M  V30 58351 H 5546.8 -2.15247 5.23149 0
M  V30 58352 H 5545.35 -2.12033 6.16348 0
M  V30 58353 N 5548.79 -1.40744 0.70914 0
M  V30 58354 C 5549.72 -2.33404 0.0670584 0
M  V30 58355 C 5550.7 -1.52548 -0.752529 0
M  V30 58356 O 5551.88 -1.81038 -0.702759 0
M  V30 58357 C 5549.01 -3.36479 -0.860167 0
M  V30 58358 C 5547.97 -4.27749 -0.146678 0
M  V30 58359 C 5547.29 -5.21308 -1.18918 0
M  V30 58360 C 5548.59 -5.1273 0.995244 0
M  V30 58361 H 5550.29 -2.87346 0.840989 0
M  V30 58362 H 5547.83 -1.38162 0.405865 0
M  V30 58363 H 5549.79 -4.00236 -1.31869 0
M  V30 58364 H 5548.51 -2.80918 -1.66592 0
M  V30 58365 H 5547.17 -3.65436 0.291954 0
M  V30 58366 H 5546.82 -4.62055 -1.98782 0
M  V30 58367 H 5546.52 -5.83213 -0.716712 0
M  V30 58368 H 5548.04 -5.87942 -1.64794 0
M  V30 58369 H 5549.46 -5.69977 0.616381 0
M  V30 58370 H 5547.85 -5.83645 1.39567 0
M  V30 58371 H 5548.92 -4.4909 1.82883 0
M  V30 58372 N 5550.27 -0.454856 -1.50893 0
M  V30 58373 C 5551.49 0.103863 -2.06639 0
M  V30 58374 C 5551.91 1.34939 -1.32049 0
M  V30 58375 O 5551.27 1.78392 -0.385035 0
M  V30 58376 C 5551.32 0.40842 -3.59185 0
M  V30 58377 O 5551.04 -0.787686 -4.30961 0
M  V30 58378 C 5552.54 1.01589 -4.31503 0
M  V30 58379 H 5549.76 0.00014825 -0.671 0
M  V30 58380 H 5552.3 -0.638976 -1.94261 0
M  V30 58381 H 5550.46 1.10117 -3.7142 0
M  V30 58382 H 5550.87 -0.522473 -5.21891 0
M  V30 58383 H 5552.35 1.17887 -5.39265 0
M  V30 58384 H 5552.82 2.00168 -3.90934 0
M  V30 58385 H 5553.43 0.362006 -4.23757 0
M  V30 58386 N 5551.74 1.56489 -0.186844 0
M  V30 58387 C 5552.67 2.21708 0.732661 0
M  V30 58388 C 5553.65 1.17755 1.22751 0
M  V30 58389 O 5554.84 1.46235 1.27784 0
M  V30 58390 C 5551.97 2.86998 1.95574 0
M  V30 58391 C 5550.92 3.97124 1.59614 0
M  V30 58392 C 5550.25 4.49539 2.89515 0
M  V30 58393 C 5551.55 5.15944 0.812337 0
M  V30 58394 H 5553.24 2.98803 0.188989 0
M  V30 58395 H 5550.79 1.43722 0.0894594 0
M  V30 58396 H 5552.74 3.31304 2.60415 0
M  V30 58397 H 5551.47 2.07296 2.52381 0
M  V30 58398 H 5550.13 3.53497 0.971351 0
M  V30 58399 H 5549.77 3.66608 3.44394 0
M  V30 58400 H 5549.47 5.23842 2.66202 0
M  V30 58401 H 5551 4.96541 3.55359 0
M  V30 58402 H 5552.41 5.56846 1.36367 0
M  V30 58403 H 5550.81 5.96262 0.677652 0
M  V30 58404 H 5551.88 4.84534 -0.188265 0
M  V30 58405 N 5553.22 -0.0868067 1.57361 0
M  V30 58406 C 5554.47 -0.789943 1.86783 0
M  V30 58407 C 5554.8 -1.77974 0.777105 0
M  V30 58408 O 5554.08 -1.93318 -0.214122 0
M  V30 58409 C 5554.36 -1.51132 3.2685 0
M  V30 58410 C 5554.21 -0.538949 4.46559 0
M  V30 58411 C 5555.53 -2.4599 3.64934 0
M  V30 58412 H 5552.65 -0.285717 0.679364 0
M  V30 58413 H 5555.29 -0.0533987 1.89925 0
M  V30 58414 H 5553.44 -2.13916 3.24302 0
M  V30 58415 H 5555.11 0.0825301 4.61226 0
M  V30 58416 H 5553.36 0.146994 4.33551 0
M  V30 58417 H 5554.03 -1.08101 5.41312 0
M  V30 58418 H 5556.5 -1.93293 3.6848 0
M  V30 58419 H 5555.38 -2.93476 4.63857 0
M  V30 58420 H 5555.64 -3.30122 2.94061 0
M  V30 58421 N 5554.7 -1.53484 -0.357838 0
M  V30 58422 C 5555.95 -1.70041 -1.09965 0
M  V30 58423 C 5556.27 -0.456178 -1.89075 0
M  V30 58424 O 5555.53 0.561963 -1.87458 0
M  V30 58425 C 5555.83 -2.90662 -2.07968 0
M  V30 58426 C 5555.49 -4.26854 -1.4528 0
M  V30 58427 C 5554.16 -4.63888 -1.27911 0
M  V30 58428 C 5556.51 -5.11518 -0.999949 0
M  V30 58429 C 5553.84 -5.83215 -0.63854 0
M  V30 58430 C 5556.19 -6.31497 -0.373346 0
M  V30 58431 C 5554.85 -6.67237 -0.187222 0
M  V30 58432 H 5554.12 -0.622223 -0.402392 0
M  V30 58433 H 5556.77 -1.87681 -0.380549 0
M  V30 58434 H 5555.07 -2.67566 -2.86209 0
M  V30 58435 H 5556.77 -3.00666 -2.65332 0
M  V30 58436 H 5553.36 -3.97699 -1.59793 0
M  V30 58437 H 5557.55 -4.8345 -1.12204 0
M  V30 58438 H 5552.8 -6.09491 -0.48282 0
M  V30 58439 H 5556.98 -6.96399 -0.0142898 0
M  V30 58440 H 5554.6 -7.59563 0.3112 0
M  V30 58441 N 5556.18 0.618069 -1.44975 0
M  V30 58442 C 5557.59 1.19989 -1.43037 0
M  V30 58443 C 5557.94 1.95607 -0.152491 0
M  V30 58444 O 5557.06 2.03117 0.7465 0
M  V30 58445 C 5557.66 2.1826 -2.59129 0
M  V30 58446 C 5556.22 2.71841 -2.60345 0
M  V30 58447 C 5555.37 1.47062 -2.35092 0
M  V30 58448 H 5558.32 0.40798 -1.53366 0
M  V30 58449 H 5558.34 3.01104 -2.32629 0
M  V30 58450 H 5557.85 1.63196 -3.5212 0
M  V30 58451 H 5555.95 3.30872 -1.71332 0
M  V30 58452 H 5556.06 3.16989 -3.59242 0
M  V30 58453 H 5554.43 1.75652 -1.84441 0
M  V30 58454 H 5555.21 0.938812 -3.30214 0
M  V30 58455 N 5557.66 1.3209 0.859647 0
M  V30 58456 C 5558.57 1.22594 2.0002 0
M  V30 58457 C 5559.58 0.140538 1.73432 0
M  V30 58458 O 5560.76 0.360282 1.98151 0
M  V30 58459 C 5557.82 0.944313 3.33592 0
M  V30 58460 C 5556.88 2.11765 3.73435 0
M  V30 58461 C 5556.12 1.84937 5.00634 0
M  V30 58462 O 5556.34 0.789498 5.6491 0
M  V30 58463 O 5555.27 2.70904 5.37489 0
M  V30 58464 H 5559.1 2.18465 2.10967 0
M  V30 58465 H 5556.69 1.11931 0.989538 0
M  V30 58466 H 5558.57 0.803535 4.13668 0
M  V30 58467 H 5557.24 0.0157221 3.23696 0
M  V30 58468 H 5556.15 2.31388 2.93956 0
M  V30 58469 H 5557.48 3.02886 3.8797 0
M  V30 58470 N 5559.13 -1.07528 1.15219 0
M  V30 58471 C 5560.38 -1.80357 0.927326 0
M  V30 58472 C 5560.71 -1.86416 -0.544305 0
M  V30 58473 O 5559.99 -1.34658 -1.40348 0
M  V30 58474 C 5560.27 -3.25507 1.54004 0
M  V30 58475 C 5560.12 -3.27603 3.08214 0
M  V30 58476 C 5561.44 -4.22727 1.22433 0
M  V30 58477 H 5558.56 -0.654763 0.338312 0
M  V30 58478 H 5561.2 -1.25837 1.42356 0
M  V30 58479 H 5559.35 -3.72065 1.11805 0
M  V30 58480 H 5561.03 -2.89302 3.59308 0
M  V30 58481 H 5559.27 -2.66615 3.42197 0
M  V30 58482 H 5559.94 -4.29943 3.46197 0
M  V30 58483 H 5562.42 -3.84551 1.58932 0
M  V30 58484 H 5561.29 -5.22583 1.67924 0
M  V30 58485 H 5561.55 -4.41875 0.141065 0
M  V30 58486 N 5560.61 -0.948709 -1.25846 0
M  V30 58487 C 5561.56 -0.462983 -2.26109 0
M  V30 58488 C 5562.53 0.481378 -1.58972 0
M  V30 58489 O 5563.71 0.395932 -1.86647 0
M  V30 58490 C 5560.85 0.258687 -3.44129 0
M  V30 58491 C 5559.97 -0.722222 -4.2592 0
M  V30 58492 C 5559.1 0.021409 -5.31196 0
M  V30 58493 C 5558.14 -0.950824 -6.0467 0
M  V30 58494 N 5557.28 -0.238455 -7.01695 0
M  V30 58495 H 5562.12 -1.32288 -2.67028 0
M  V30 58496 H 5559.66 -0.663532 -1.31285 0
M  V30 58497 H 5561.61 0.693615 -4.11394 0
M  V30 58498 H 5560.24 1.08267 -3.04102 0
M  V30 58499 H 5559.3 -1.27565 -3.58373 0
M  V30 58500 H 5560.61 -1.46438 -4.7682 0
M  V30 58501 H 5559.76 0.515258 -6.04508 0
M  V30 58502 H 5558.5 0.796393 -4.81154 0
M  V30 58503 H 5557.51 -1.45573 -5.30178 0
M  V30 58504 H 5558.73 -1.72594 -6.56801 0
M  V30 58505 H 5556.68 0.517899 -6.53952 0
M  V30 58506 H 5556.59 -0.919806 -7.50384 0
M  V30 58507 H 5557.86 0.234051 -7.79149 0
M  V30 58508 N 5562.09 1.40366 -0.716594 0
M  V30 58509 C 5563.02 2.28196 -0.0137513 0
M  V30 58510 C 5564 1.43393 0.766635 0
M  V30 58511 O 5565.19 1.72804 0.753062 0
M  V30 58512 C 5562.31 3.23973 0.987892 0
M  V30 58513 C 5561.36 4.25456 0.298196 0
M  V30 58514 S 5562.19 5.26556 -0.974641 0
M  V30 58515 C 5563.35 6.25895 0.0248732 0
M  V30 58516 H 5563.58 2.87458 -0.758628 0
M  V30 58517 H 5561.11 1.45816 -0.507658 0
M  V30 58518 H 5563.07 3.79679 1.56057 0
M  V30 58519 H 5561.73 2.63765 1.70548 0
M  V30 58520 H 5560.93 4.92825 1.05544 0
M  V30 58521 H 5560.53 3.73454 -0.201959 0
M  V30 58522 H 5562.82 6.71873 0.871378 0
M  V30 58523 H 5563.76 7.0542 -0.615454 0
M  V30 58524 H 5564.17 5.63158 0.38905 0
M  V30 58525 N 5563.57 0.462852 1.5065 0
M  V30 58526 C 5564.82 -0.096613 2.01468 0
M  V30 58527 C 5565.13 -1.41525 1.35019 0
M  V30 58528 O 5566.34 -2.05917 1.76948 0
M  V30 58529 C 5564.79 -0.222699 3.5921 0
M  V30 58530 C 5564.4 1.08701 4.34613 0
M  V30 58531 C 5566.14 -0.734564 4.18096 0
M  V30 58532 C 5564.05 0.925169 5.84119 0
M  V30 58533 H 5562.98 -0.0398813 0.752945 0
M  V30 58534 H 5565.63 0.596498 1.73534 0
M  V30 58535 H 5564.01 -0.979404 3.83697 0
M  V30 58536 H 5565.19 1.85403 4.21856 0
M  V30 58537 H 5563.5 1.52935 3.87298 0
M  V30 58538 H 5566.1 -0.872548 5.27533 0
M  V30 58539 H 5566.44 -1.72376 3.78936 0
M  V30 58540 H 5566.98 -0.035474 3.97784 0
M  V30 58541 H 5563.72 1.88749 6.27737 0
M  V30 58542 H 5563.24 0.198392 5.99472 0
M  V30 58543 H 5564.91 0.588488 6.44318 0
M  V30 58544 N 5565.05 -1.56387 0.19514 0
M  V30 58545 C 5565.98 -2.22093 -0.720893 0
M  V30 58546 C 5566.96 -1.18405 -1.22124 0
M  V30 58547 O 5568.14 -1.46911 -1.27007 0
M  V30 58548 C 5565.27 -2.88032 -1.94049 0
M  V30 58549 C 5564.23 -3.97965 -1.57506 0
M  V30 58550 C 5563.55 -4.51068 -2.87127 0
M  V30 58551 C 5564.85 -5.16368 -0.784963 0
M  V30 58552 H 5566.55 -2.98899 -0.17314 0
M  V30 58553 H 5564.09 -1.43767 -0.0818362 0
M  V30 58554 H 5566.05 -3.3268 -2.58654 0
M  V30 58555 H 5564.77 -2.08631 -2.51278 0
M  V30 58556 H 5563.43 -3.54007 -0.952591 0
M  V30 58557 H 5563.08 -3.6843 -3.42445 0
M  V30 58558 H 5562.78 -5.25246 -2.6342 0
M  V30 58559 H 5564.3 -4.98418 -3.5272 0
M  V30 58560 H 5565.71 -5.57561 -1.33412 0
M  V30 58561 H 5564.11 -5.96613 -0.646022 0
M  V30 58562 H 5565.18 -4.84428 0.213959 0
M  V30 58563 N 5566.52 0.0784603 -1.57405 0
M  V30 58564 C 5567.45 1.09439 -2.06265 0
M  V30 58565 C 5568.44 1.40773 -0.954821 0
M  V30 58566 O 5569.62 1.50516 -1.22713 0
M  V30 58567 C 5566.75 2.4097 -2.50102 0
M  V30 58568 C 5565.7 2.24004 -3.647 0
M  V30 58569 C 5565.03 3.60859 -3.94569 0
M  V30 58570 C 5566.33 1.66678 -4.9499 0
M  V30 58571 H 5568.02 0.687825 -2.91392 0
M  V30 58572 H 5565.57 0.329416 -1.40181 0
M  V30 58573 H 5567.52 3.12327 -2.82895 0
M  V30 58574 H 5566.25 2.83593 -1.61995 0
M  V30 58575 H 5564.91 1.55089 -3.32179 0
M  V30 58576 H 5564.55 4.01041 -3.03604 0
M  V30 58577 H 5564.25 3.50349 -4.7173 0
M  V30 58578 H 5565.78 4.33658 -4.29853 0
M  V30 58579 H 5567.19 2.27894 -5.26058 0
M  V30 58580 H 5565.59 1.66882 -5.76429 0
M  V30 58581 H 5566.66 0.627658 -4.80821 0
M  V30 58582 N 5568 1.53671 0.349693 0
M  V30 58583 C 5568.93 1.84213 1.43485 0
M  V30 58584 C 5569.91 0.696779 1.55174 0
M  V30 58585 O 5571.1 0.948121 1.69482 0
M  V30 58586 C 5568.23 2.04623 2.80618 0
M  V30 58587 C 5567.18 3.20429 2.83741 0
M  V30 58588 C 5566.51 3.26162 4.23701 0
M  V30 58589 C 5567.81 4.58674 2.4983 0
M  V30 58590 H 5569.5 2.75091 1.18175 0
M  V30 58591 H 5567.05 1.32365 0.567054 0
M  V30 58592 H 5569 2.24572 3.56574 0
M  V30 58593 H 5567.73 1.1047 3.0735 0
M  V30 58594 H 5566.38 3.00326 2.10238 0
M  V30 58595 H 5566.03 2.29615 4.47533 0
M  V30 58596 H 5565.73 4.03978 4.26703 0
M  V30 58597 H 5567.26 3.48314 5.01508 0
M  V30 58598 H 5568.67 4.78679 3.15499 0
M  V30 58599 H 5567.07 5.38849 2.64125 0
M  V30 58600 H 5568.14 4.62702 1.45033 0
M  V30 58601 N 5569.48 -0.610372 1.453 0
M  V30 58602 C 5570.71 -1.39413 1.52471 0
M  V30 58603 C 5571.12 -1.88563 0.155166 0
M  V30 58604 O 5570.46 -1.62695 -0.853004 0
M  V30 58605 C 5570.52 -2.63506 2.4455 0
M  V30 58606 C 5570.19 -2.36015 3.91339 0
M  V30 58607 C 5571.18 -1.9655 4.81315 0
M  V30 58608 C 5568.87 -2.49013 4.36232 0
M  V30 58609 C 5570.86 -1.7044 6.1419 0
M  V30 58610 C 5568.55 -2.22516 5.69148 0
M  V30 58611 C 5569.55 -1.83291 6.57946 0
M  V30 58612 O 5569.24 -1.57103 7.88399 0
M  V30 58613 H 5568.97 -0.43326 0.518904 0
M  V30 58614 H 5571.52 -0.751736 1.91149 0
M  V30 58615 H 5569.75 -3.30456 2.00837 0
M  V30 58616 H 5571.44 -3.25545 2.42435 0
M  V30 58617 H 5572.21 -1.86046 4.47897 0
M  V30 58618 H 5568.09 -2.78511 3.67359 0
M  V30 58619 H 5571.63 -1.39749 6.83459 0
M  V30 58620 H 5567.53 -2.32636 6.02122 0
M  V30 58621 H 5568.3 -1.71179 8.004 0
M  V30 58622 N 5570.96 -1.32544 -0.85263 0
M  V30 58623 C 5572.19 -1.26225 -1.63935 0
M  V30 58624 C 5572.6 0.169389 -1.88039 0
M  V30 58625 O 5571.96 1.10714 -1.45082 0
M  V30 58626 C 5572.01 -2.02073 -2.99748 0
M  V30 58627 O 5571.73 -3.39651 -2.76711 0
M  V30 58628 C 5573.23 -2.02801 -3.94191 0
M  V30 58629 H 5570.45 -0.435423 -0.510536 0
M  V30 58630 H 5573 -1.747 -1.06302 0
M  V30 58631 H 5571.15 -1.57315 -3.54021 0
M  V30 58632 H 5571.56 -3.78497 -3.63098 0
M  V30 58633 H 5573.04 -2.6035 -4.86746 0
M  V30 58634 H 5573.52 -1.01479 -4.27316 0
M  V30 58635 H 5574.12 -2.47516 -3.45856 0
M  V30 58636 N 5572.44 1.06915 -1.15788 0
M  V30 58637 C 5573.68 1.81187 -0.946082 0
M  V30 58638 C 5574.04 1.84901 0.517273 0
M  V30 58639 O 5575.24 2.55088 0.847553 0
M  V30 58640 C 5573.51 3.22097 -1.54883 0
M  V30 58641 S 5575.07 4.1306 -1.48077 0
M  V30 58642 H 5571.89 0.624228 -0.340383 0
M  V30 58643 H 5574.49 1.28406 -1.47418 0
M  V30 58644 H 5573.2 3.16985 -2.6067 0
M  V30 58645 H 5572.73 3.79953 -1.01978 0
M  V30 58646 H 5574.74 4.93905 -0.476691 0
M  V30 58647 N 5573.92 0.95537 1.25341 0
M  V30 58648 C 5574.85 0.494226 2.2821 0
M  V30 58649 C 5575.83 -0.459817 1.63767 0
M  V30 58650 O 5577.01 -0.358612 1.9086 0
M  V30 58651 C 5574.14 -0.228106 3.4655 0
M  V30 58652 C 5573.1 0.64075 4.23177 0
M  V30 58653 C 5572.42 -0.212365 5.34278 0
M  V30 58654 C 5573.72 1.91923 4.8576 0
M  V30 58655 H 5575.42 1.354 2.67034 0
M  V30 58656 H 5572.96 0.652507 1.28368 0
M  V30 58657 H 5574.91 -0.561848 4.17638 0
M  V30 58658 H 5573.64 -1.12213 3.06718 0
M  V30 58659 H 5572.3 0.957587 3.53873 0
M  V30 58660 H 5571.95 -1.10617 4.90686 0
M  V30 58661 H 5571.65 0.365679 5.86461 0
M  V30 58662 H 5573.17 -0.541057 6.08198 0
M  V30 58663 H 5574.58 1.65185 5.48987 0
M  V30 58664 H 5572.98 2.44299 5.48122 0
M  V30 58665 H 5574.05 2.62187 4.07904 0
M  V30 58666 N 5575.39 -1.39984 0.724028 0
M  V30 58667 C 5576.64 -2.00333 0.266658 0
M  V30 58668 C 5576.96 -1.57718 -1.14674 0
M  V30 58669 O 5576.23 -0.820433 -1.77892 0
M  V30 58670 H 5574.81 -0.740857 0.0955991 0
M  V30 58671 H 5577.47 -1.71197 0.931541 0
M  V30 58672 H 5576.57 -3.10592 0.306391 0
M  V30 58673 N 5576.87 -0.470835 -1.50402 0
M  V30 58674 C 5578.12 0.0842448 -2.02325 0
M  V30 58675 C 5578.45 1.39744 -1.35284 0
M  V30 58676 O 5577.7 1.90036 -0.46743 0
M  V30 58677 C 5578 0.316294 -3.55998 0
M  V30 58678 C 5577.67 -0.915172 -4.41515 0
M  V30 58679 C 5576.33 -1.25281 -4.64605 0
M  V30 58680 C 5578.68 -1.73512 -4.9147 0
M  V30 58681 C 5576.01 -2.41045 -5.34896 0
M  V30 58682 C 5578.36 -2.88404 -5.63033 0
M  V30 58683 C 5577.02 -3.22582 -5.84377 0
M  V30 58684 H 5576.29 0.0308274 -0.740358 0
M  V30 58685 H 5578.94 -0.624863 -1.81019 0
M  V30 58686 H 5577.25 1.10764 -3.75817 0
M  V30 58687 H 5578.94 0.759743 -3.93737 0
M  V30 58688 H 5575.53 -0.642126 -4.23763 0
M  V30 58689 H 5579.72 -1.48745 -4.73486 0
M  V30 58690 H 5574.97 -2.678 -5.4963 0
M  V30 58691 H 5579.15 -3.52285 -6.00723 0
M  V30 58692 H 5576.77 -4.12393 -6.38621 0
M  V30 58693 N 5578.35 1.56282 -0.203431 0
M  V30 58694 C 5579.28 2.15397 0.753608 0
M  V30 58695 C 5580.26 1.09307 1.20377 0
M  V30 58696 O 5581.44 1.37465 1.28979 0
M  V30 58697 C 5578.57 2.71961 2.01878 0
M  V30 58698 C 5577.62 3.90716 1.71007 0
M  V30 58699 S 5578.45 5.28698 0.850813 0
M  V30 58700 C 5579.61 5.88689 2.12595 0
M  V30 58701 H 5579.84 2.96238 0.251092 0
M  V30 58702 H 5577.37 1.54396 0.0116696 0
M  V30 58703 H 5579.33 3.05193 2.74532 0
M  V30 58704 H 5577.99 1.91147 2.49242 0
M  V30 58705 H 5577.18 4.28732 2.64961 0
M  V30 58706 H 5576.79 3.58537 1.06429 0
M  V30 58707 H 5579.08 6.03559 3.07771 0
M  V30 58708 H 5580.02 6.85103 1.78997 0
M  V30 58709 H 5580.43 5.17363 2.25821 0
M  V30 58710 N 5579.83 -0.0701116 1.57444 0
M  V30 58711 C 5581.07 -0.774272 1.89168 0
M  V30 58712 C 5581.43 -1.74658 0.797414 0
M  V30 58713 O 5582.63 -2.49596 0.99777 0
M  V30 58714 C 5580.9 -1.46223 3.26119 0
M  V30 58715 S 5582.46 -2.20123 3.79594 0
M  V30 58716 H 5579.28 -0.257441 0.662756 0
M  V30 58717 H 5581.88 -0.0303047 1.95477 0
M  V30 58718 H 5580.59 -0.7408 4.03659 0
M  V30 58719 H 5580.12 -2.2456 3.23012 0
M  V30 58720 H 5582.13 -3.46668 3.55016 0
M  V30 58721 N 5581.31 -1.53855 -0.341539 0
M  V30 58722 C 5582.53 -1.75138 -1.10156 0
M  V30 58723 C 5582.95 -0.491479 -1.82291 0
M  V30 58724 O 5582.31 0.536969 -1.74422 0
M  V30 58725 C 5582.36 -2.9328 -2.1135 0
M  V30 58726 O 5582.08 -4.14398 -1.42148 0
M  V30 58727 C 5583.58 -3.26631 -2.99711 0
M  V30 58728 H 5580.8 -0.585137 -0.328413 0
M  V30 58729 H 5583.34 -2.00686 -0.393133 0
M  V30 58730 H 5581.5 -2.70058 -2.77754 0
M  V30 58731 H 5581.91 -4.80727 -2.09766 0
M  V30 58732 H 5583.39 -4.12642 -3.66648 0
M  V30 58733 H 5583.86 -2.4302 -3.65838 0
M  V30 58734 H 5584.47 -3.51867 -2.38893 0
M  V30 58735 N 5582.78 0.602658 -1.45622 0
M  V30 58736 C 5584.02 1.37279 -1.5144 0
M  V30 58737 C 5584.39 1.9138 -0.154216 0
M  V30 58738 O 5585.59 2.68659 -0.0870954 0
M  V30 58739 C 5583.86 2.48642 -2.56733 0
M  V30 58740 S 5585.42 3.36345 -2.81812 0
M  V30 58741 H 5582.24 0.467961 -0.535288 0
M  V30 58742 H 5584.84 0.694893 -1.82733 0
M  V30 58743 H 5583.54 2.07255 -3.54223 0
M  V30 58744 H 5583.07 3.21226 -2.27106 0
M  V30 58745 H 5585.09 4.4693 -2.15565 0
M  V30 58746 N 5584.26 1.32995 0.845589 0
M  V30 58747 C 5585.49 1.26909 1.63027 0
M  V30 58748 C 5585.9 -0.163523 1.88492 0
M  V30 58749 O 5585.24 -1.11397 1.4607 0
M  V30 58750 C 5585.3 1.96853 3.00814 0
M  V30 58751 C 5584.97 3.46174 2.9835 0
M  V30 58752 C 5585.97 4.41498 2.74546 0
M  V30 58753 C 5583.65 3.88248 3.18698 0
M  V30 58754 C 5585.64 5.7687 2.71109 0
M  V30 58755 C 5583.33 5.23727 3.14887 0
M  V30 58756 C 5584.33 6.17849 2.91122 0
M  V30 58757 O 5584.02 7.50847 2.87201 0
M  V30 58758 H 5583.75 0.438824 0.514208 0
M  V30 58759 H 5586.3 1.7582 1.0619 0
M  V30 58760 H 5584.53 1.42524 3.59477 0
M  V30 58761 H 5586.22 1.84356 3.61618 0
M  V30 58762 H 5586.99 4.10317 2.58583 0
M  V30 58763 H 5582.87 3.15402 3.36218 0
M  V30 58764 H 5586.41 6.50308 2.52479 0
M  V30 58765 H 5582.31 5.54534 3.30397 0
M  V30 58766 H 5583.08 7.60314 3.03091 0
M  V30 58767 N 5585.74 -1.063 1.16353 0
M  V30 58768 C 5586.99 -1.79098 0.945003 0
M  V30 58769 C 5587.31 -1.87219 -0.527186 0
M  V30 58770 O 5586.57 -1.35997 -1.40724 0
M  V30 58771 C 5586.87 -3.23583 1.51752 0
M  V30 58772 C 5586.53 -3.35542 3.01202 0
M  V30 58773 C 5585.2 -3.38513 3.41998 0
M  V30 58774 C 5587.55 -3.37468 3.97196 0
M  V30 58775 C 5584.88 -3.41025 4.77408 0
M  V30 58776 C 5587.23 -3.41518 5.32492 0
M  V30 58777 C 5585.89 -3.42771 5.72769 0
M  V30 58778 H 5585.16 -0.655364 0.345801 0
M  V30 58779 H 5587.81 -1.25011 1.45067 0
M  V30 58780 H 5586.11 -3.80522 0.933297 0
M  V30 58781 H 5587.81 -3.78508 1.32412 0
M  V30 58782 H 5584.4 -3.33935 2.68673 0
M  V30 58783 H 5588.59 -3.34384 3.66744 0
M  V30 58784 H 5583.84 -3.403 5.07943 0
M  V30 58785 H 5588.02 -3.41956 6.06662 0
M  V30 58786 H 5585.64 -3.44472 6.77675 0
M  V30 58787 N 5587.22 -0.962004 -1.24833 0
M  V30 58788 C 5588.47 -0.619556 -1.92369 0
M  V30 58789 C 5588.79 0.847171 -1.75636 0
M  V30 58790 O 5588.06 1.60415 -1.12445 0
M  V30 58791 H 5586.64 -0.226154 -0.711943 0
M  V30 58792 H 5589.3 -1.22184 -1.51846 0
M  V30 58793 H 5588.4 -0.855233 -3.00154 0
M  V30 58794 N 5588.7 1.39598 -0.731441 0
M  V30 58795 C 5589.94 2.00882 -0.278238 0
M  V30 58796 C 5590.28 1.57901 1.13053 0
M  V30 58797 O 5589.55 0.806265 1.77002 0
M  V30 58798 C 5589.83 3.58131 -0.376095 0
M  V30 58799 C 5589.69 4.1114 -1.82438 0
M  V30 58800 C 5591.01 4.39426 0.243548 0
M  V30 58801 H 5588.12 0.729827 -0.102575 0
M  V30 58802 H 5590.77 1.65856 -0.926927 0
M  V30 58803 H 5588.92 3.881 0.176192 0
M  V30 58804 H 5590.59 3.91905 -2.43327 0
M  V30 58805 H 5588.83 3.64834 -2.34688 0
M  V30 58806 H 5589.5 5.20284 -1.84414 0
M  V30 58807 H 5591.98 4.15479 -0.227213 0
M  V30 58808 H 5590.85 5.48709 0.144714 0
M  V30 58809 H 5591.12 4.21647 1.32915 0
M  V30 58810 N 5590.17 0.478804 1.50151 0
M  V30 58811 C 5591.42 -0.0735139 2.02367 0
M  V30 58812 C 5591.75 -1.39025 1.36023 0
M  V30 58813 O 5591 -1.89785 0.477502 0
M  V30 58814 C 5591.3 -0.29741 3.5616 0
M  V30 58815 C 5590.97 0.938574 4.41023 0
M  V30 58816 C 5589.63 1.27743 4.63934 0
M  V30 58817 C 5591.98 1.76115 4.90543 0
M  V30 58818 C 5589.31 2.43879 5.3361 0
M  V30 58819 C 5591.66 2.91386 5.61496 0
M  V30 58820 C 5590.33 3.25677 5.82658 0
M  V30 58821 H 5589.6 -0.0269006 0.740512 0
M  V30 58822 H 5592.24 0.634454 1.80685 0
M  V30 58823 H 5590.55 -1.0877 3.76399 0
M  V30 58824 H 5592.25 -0.738852 3.94134 0
M  V30 58825 H 5588.84 0.66459 4.23416 0
M  V30 58826 H 5593.02 1.51254 4.7269 0
M  V30 58827 H 5588.28 2.70711 5.48202 0
M  V30 58828 H 5592.45 3.55466 5.98846 0
M  V30 58829 H 5590.08 4.15774 6.36425 0
M  V30 58830 N 5591.65 -1.56171 0.211716 0
M  V30 58831 C 5592.88 -2.02876 -0.430834 0
M  V30 58832 C 5593.3 -1.09069 -1.5325 0
M  V30 58833 O 5592.66 -0.0771045 -1.81136 0
M  V30 58834 C 5592.71 -3.47894 -0.948811 0
M  V30 58835 O 5591.81 -3.5722 -2.06077 0
M  V30 58836 H 5591.15 -0.656618 -0.0987376 0
M  V30 58837 H 5593.68 -2.01962 0.32747 0
M  V30 58838 H 5593.69 -3.88019 -1.26116 0
M  V30 58839 H 5592.37 -4.15656 -0.142438 0
M  V30 58840 H 5590.95 -3.28977 -1.7558 0
M  V30 58841 N 5593.13 0.061761 -1.57479 0
M  V30 58842 C 5594.06 1.07245 -2.07415 0
M  V30 58843 C 5595.04 1.39753 -0.969699 0
M  V30 58844 O 5596.23 1.49206 -1.24303 0
M  V30 58845 C 5593.36 2.38304 -2.52643 0
M  V30 58846 C 5592.31 2.20123 -3.67056 0
M  V30 58847 C 5591.64 3.56654 -3.98374 0
M  V30 58848 C 5592.94 1.61419 -4.9673 0
M  V30 58849 H 5594.63 0.656881 -2.92105 0
M  V30 58850 H 5592.18 0.31453 -1.40523 0
M  V30 58851 H 5594.13 3.09309 -2.86192 0
M  V30 58852 H 5592.85 2.81859 -1.64994 0
M  V30 58853 H 5591.51 1.51557 -3.33805 0
M  V30 58854 H 5591.16 3.97798 -3.0784 0
M  V30 58855 H 5590.86 3.45326 -4.7542 0
M  V30 58856 H 5592.38 4.29074 -4.34428 0
M  V30 58857 H 5593.8 2.22302 -5.28446 0
M  V30 58858 H 5592.2 1.60759 -5.78167 0
M  V30 58859 H 5593.27 0.576626 -4.81459 0
M  V30 58860 N 5594.61 1.54034 0.333374 0
M  V30 58861 C 5595.54 1.85724 1.41523 0
M  V30 58862 C 5596.52 0.713198 1.54426 0
M  V30 58863 O 5597.7 0.966044 1.68467 0
M  V30 58864 C 5594.83 2.07588 2.78432 0
M  V30 58865 C 5593.79 3.23421 2.80327 0
M  V30 58866 C 5593.11 3.30637 4.20218 0
M  V30 58867 C 5594.41 4.61298 2.44951 0
M  V30 58868 H 5596.11 2.76329 1.15251 0
M  V30 58869 H 5593.65 1.32959 0.552983 0
M  V30 58870 H 5595.61 2.28342 3.54172 0
M  V30 58871 H 5594.33 1.13723 3.06161 0
M  V30 58872 H 5592.99 3.02539 2.07041 0
M  V30 58873 H 5592.64 2.34349 4.45073 0
M  V30 58874 H 5592.34 4.08481 4.22394 0
M  V30 58875 H 5593.86 3.53613 4.97785 0
M  V30 58876 H 5595.28 4.81998 3.10404 0
M  V30 58877 H 5593.67 5.4162 2.58395 0
M  V30 58878 H 5594.74 4.64214 1.40118 0
M  V30 58879 N 5596.09 -0.594927 1.4594 0
M  V30 58880 C 5597.03 -1.72595 1.55929 0
M  V30 58881 C 5598.03 -1.63892 0.428468 0
M  V30 58882 O 5599.23 -1.69533 0.604874 0
M  V30 58883 H 5595.61 -0.57043 0.490014 0
M  V30 58884 H 5597.58 -1.61299 2.51048 0
M  V30 58885 C 5596.33 -3.10983 1.55516 0
M  V30 58886 H 5595.65 -3.18344 2.41861 0
M  V30 58887 H 5597.09 -3.89915 1.66561 0
M  V30 58888 C 5595.55 -3.3572 0.281691 0
M  V30 58889 O 5596.08 -3.96678 -0.633197 0
M  V30 58890 N 5594.29 -2.90082 0.173416 0
M  V30 58891 H 5593.83 -2.40657 0.918805 0
M  V30 58892 H 5593.79 -3.07007 -0.677795 0
M  V30 58893 N 5597.56 -1.33441 -0.838524 0
M  V30 58894 C 5598.49 -1.26351 -1.96361 0
M  V30 58895 C 5599.48 -0.144016 -1.69489 0
M  V30 58896 O 5600.66 -0.333847 -1.91309 0
M  V30 58897 C 5597.79 -1.00232 -3.32522 0
M  V30 58898 C 5596.74 -2.08479 -3.73792 0
M  V30 58899 C 5596.07 -1.67573 -5.07763 0
M  V30 58900 C 5597.37 -3.50157 -3.8754 0
M  V30 58901 H 5599.06 -2.20485 -2.02551 0
M  V30 58902 H 5596.61 -1.06142 -0.973131 0
M  V30 58903 H 5598.56 -0.939212 -4.108 0
M  V30 58904 H 5597.29 -0.0253662 -3.2659 0
M  V30 58905 H 5595.95 -2.13832 -2.97777 0
M  V30 58906 H 5595.59 -0.685794 -4.98303 0
M  V30 58907 H 5595.29 -2.40011 -5.36347 0
M  V30 58908 H 5596.82 -1.62729 -5.88516 0
M  V30 58909 H 5598.23 -3.47303 -4.56129 0
M  V30 58910 H 5596.63 -4.21084 -4.27561 0
M  V30 58911 H 5597.7 -3.88638 -2.8998 0
M  V30 58912 N 5599.04 1.05681 -1.16915 0
M  V30 58913 C 5599.99 2.13309 -0.881365 0
M  V30 58914 C 5600.96 1.65199 0.172725 0
M  V30 58915 O 5602.14 1.90765 0.0365872 0
M  V30 58916 C 5599.28 3.42828 -0.395385 0
M  V30 58917 C 5598.4 4.04638 -1.51302 0
M  V30 58918 C 5597.53 5.22055 -0.981422 0
M  V30 58919 C 5596.57 5.75862 -2.07484 0
M  V30 58920 N 5595.71 6.84587 -1.55837 0
M  V30 58921 H 5600.55 2.37265 -1.80304 0
M  V30 58922 H 5598.09 1.16404 -0.899363 0
M  V30 58923 H 5600.04 4.17091 -0.0952099 0
M  V30 58924 H 5598.67 3.1907 0.489333 0
M  V30 58925 H 5597.73 3.27861 -1.92903 0
M  V30 58926 H 5599.04 4.40618 -2.3379 0
M  V30 58927 H 5598.19 6.0337 -0.634798 0
M  V30 58928 H 5596.93 4.87537 -0.125926 0
M  V30 58929 H 5595.94 4.9318 -2.4301 0
M  V30 58930 H 5597.16 6.12429 -2.93441 0
M  V30 58931 H 5595.11 6.51976 -0.725513 0
M  V30 58932 H 5595.02 7.19543 -2.31937 0
M  V30 58933 H 5596.29 7.69566 -1.24052 0
M  V30 58934 N 5600.52 0.96861 1.24321 0
M  V30 58935 C 5601.45 0.518403 2.27673 0
M  V30 58936 C 5602.43 -0.442421 1.64246 0
M  V30 58937 O 5603.62 -0.338348 1.9123 0
M  V30 58938 C 5600.75 -0.191337 3.46773 0
M  V30 58939 C 5599.7 0.685598 4.22473 0
M  V30 58940 C 5599.03 -0.155685 5.34473 0
M  V30 58941 C 5600.33 1.97064 4.83697 0
M  V30 58942 H 5602.02 1.38225 2.65583 0
M  V30 58943 H 5599.57 0.666085 1.27669 0
M  V30 58944 H 5601.52 -0.51752 4.1821 0
M  V30 58945 H 5600.24 -1.08954 3.07891 0
M  V30 58946 H 5598.9 0.995066 3.52837 0
M  V30 58947 H 5598.55 -1.05407 4.91832 0
M  V30 58948 H 5598.25 0.427861 5.8604 0
M  V30 58949 H 5599.77 -0.476519 6.08738 0
M  V30 58950 H 5601.19 1.70998 5.47204 0
M  V30 58951 H 5599.59 2.50098 5.455 0
M  V30 58952 H 5600.66 2.66499 4.05101 0
M  V30 58953 N 5602 -1.39208 0.738834 0
M  V30 58954 C 5603.42 -1.54115 0.414827 0
M  V30 58955 C 5603.62 -1.70501 -1.07386 0
M  V30 58956 O 5602.67 -1.70767 -1.85997 0
M  V30 58957 C 5603.98 -2.75666 1.2012 0
M  V30 58958 C 5605.53 -2.89504 1.1898 0
M  V30 58959 C 5606.01 -4.13998 1.95882 0
M  V30 58960 N 5607.5 -4.21045 1.93068 0
M  V30 58961 C 5608.23 -5.16332 2.49376 0
M  V30 58962 N 5607.73 -6.17385 3.14338 0
M  V30 58963 N 5609.52 -5.08576 2.39388 0
M  V30 58964 H 5601.67 -1.26821 1.70383 0
M  V30 58965 H 5603.94 -0.614957 0.721479 0
M  V30 58966 H 5603.64 -2.69914 2.25476 0
M  V30 58967 H 5603.52 -3.6844 0.808195 0
M  V30 58968 H 5605.9 -2.94747 0.144352 0
M  V30 58969 H 5605.98 -1.97783 1.62221 0
M  V30 58970 H 5605.63 -4.09517 3.0043 0
M  V30 58971 H 5605.56 -5.04771 1.50045 0
M  V30 58972 H 5608.05 -3.48664 1.45745 0
M  V30 58973 H 5608.36 -6.8656 3.54761 0
M  V30 58974 H 5606.71 -6.17761 3.18428 0
M  V30 58975 H 5609.9 -4.28567 1.88277 0
M  V30 58976 H 5610.07 -5.8266 2.83569 0
M  V30 58977 N 5603.48 -0.48676 -1.49895 0
M  V30 58978 C 5604.44 0.288046 -2.27383 0
M  V30 58979 C 5605.44 0.906628 -1.32804 0
M  V30 58980 O 5606.63 0.77337 -1.56092 0
M  V30 58981 C 5603.76 1.41183 -3.1029 0
M  V30 58982 H 5604.96 -0.391723 -2.97331 0
M  V30 58983 H 5602.51 -0.241284 -1.54426 0
M  V30 58984 H 5603.24 2.12619 -2.44875 0
M  V30 58985 H 5603.03 0.973899 -3.79813 0
M  V30 58986 H 5604.52 1.95799 -3.68853 0
M  V30 58987 N 5604.96 1.56057 -0.219996 0
M  V30 58988 C 5606.37 1.84463 0.288138 0
M  V30 58989 C 5606.72 1.14134 1.59587 0
M  V30 58990 O 5605.84 0.410486 2.12471 0
M  V30 58991 C 5606.44 3.34636 0.529571 0
M  V30 58992 C 5605 3.63364 0.982017 0
M  V30 58993 C 5604.14 2.77265 0.0442317 0
M  V30 58994 H 5607.09 1.52385 -0.443224 0
M  V30 58995 H 5607.12 3.54757 1.37577 0
M  V30 58996 H 5606.63 3.85795 -0.422379 0
M  V30 58997 H 5604.73 3.1766 1.94738 0
M  V30 58998 H 5604.84 4.71364 0.857502 0
M  V30 58999 H 5603.21 2.48674 0.550738 0
M  V30 59000 H 5603.99 3.31222 -0.902608 0
M  V30 59001 N 5606.43 -0.0534086 1.57509 0
M  V30 59002 C 5607.37 -1.09384 2.00276 0
M  V30 59003 C 5608.34 -1.3655 0.882775 0
M  V30 59004 O 5609.53 -1.49616 1.14662 0
M  V30 59005 C 5606.66 -2.43415 2.35514 0
M  V30 59006 C 5605.7 -2.32266 3.57708 0
M  V30 59007 S 5606.53 -1.69921 5.07826 0
M  V30 59008 C 5607.69 -3.05493 5.46283 0
M  V30 59009 H 5607.92 -0.729467 2.88212 0
M  V30 59010 H 5605.46 -0.26258 1.52151 0
M  V30 59011 H 5607.41 -3.20506 2.56489 0
M  V30 59012 H 5606.08 -2.77007 1.48073 0
M  V30 59013 H 5605.27 -3.31152 3.7994 0
M  V30 59014 H 5604.87 -1.63315 3.36458 0
M  V30 59015 H 5607.16 -4.01821 5.45478 0
M  V30 59016 H 5608.11 -2.88021 6.46877 0
M  V30 59017 H 5608.51 -3.06945 4.73756 0
M  V30 59018 N 5607.91 -1.54208 -0.325201 0
M  V30 59019 C 5609.16 -1.71995 -1.06124 0
M  V30 59020 C 5609.48 -0.495571 -1.88598 0
M  V30 59021 O 5608.75 0.490437 -1.89662 0
M  V30 59022 H 5607.33 -0.634151 -0.394793 0
M  V30 59023 H 5609.99 -1.91508 -0.362034 0
M  V30 59024 H 5609.09 -2.59884 -1.7282 0
M  V30 59025 N 5609.39 0.587179 -1.46253 0
M  V30 59026 C 5610.64 1.34754 -1.51556 0
M  V30 59027 C 5610.97 1.93499 -0.164898 0
M  V30 59028 O 5610.24 1.76223 0.823145 0
M  V30 59029 C 5610.53 2.48024 -2.61067 0
M  V30 59030 C 5610.38 1.94343 -4.05648 0
M  V30 59031 C 5611.7 3.50086 -2.66698 0
M  V30 59032 H 5608.82 0.488611 -0.55175 0
M  V30 59033 H 5611.46 0.660034 -1.78167 0
M  V30 59034 H 5609.61 3.0667 -2.38507 0
M  V30 59035 H 5611.28 1.40189 -4.39482 0
M  V30 59036 H 5609.52 1.25202 -4.15339 0
M  V30 59037 H 5610.2 2.76088 -4.77995 0
M  V30 59038 H 5612.67 3.01314 -2.86966 0
M  V30 59039 H 5611.55 4.26805 -3.4515 0
M  V30 59040 H 5611.81 4.07026 -1.72575 0
M  V30 59041 N 5610.87 1.33884 0.831435 0
M  V30 59042 C 5612.1 1.28631 1.61672 0
M  V30 59043 C 5612.51 -0.143521 1.88655 0
M  V30 59044 O 5611.85 -1.09842 1.47243 0
M  V30 59045 C 5611.91 2.00033 2.98709 0
M  V30 59046 C 5611.57 3.49319 2.94661 0
M  V30 59047 C 5612.57 4.44385 2.69848 0
M  V30 59048 C 5610.26 3.91607 3.14562 0
M  V30 59049 C 5612.25 5.79713 2.64975 0
M  V30 59050 C 5609.94 5.27037 3.09314 0
M  V30 59051 C 5610.94 6.20902 2.84553 0
M  V30 59052 O 5610.62 7.5385 2.79222 0
M  V30 59053 H 5610.36 0.444253 0.509524 0
M  V30 59054 H 5612.91 1.76937 1.04319 0
M  V30 59055 H 5611.14 1.46328 3.57945 0
M  V30 59056 H 5612.83 1.88181 3.59642 0
M  V30 59057 H 5613.59 4.13036 2.54217 0
M  V30 59058 H 5609.47 3.1895 3.32854 0
M  V30 59059 H 5613.02 6.52949 2.45568 0
M  V30 59060 H 5608.91 5.58007 3.24497 0
M  V30 59061 H 5609.68 7.63486 2.9501 0
M  V30 59062 N 5612.35 -1.0506 1.17474 0
M  V30 59063 C 5613.62 -1.74996 0.873838 0
M  V30 59064 C 5614 -2.01617 -0.625605 0
M  V30 59065 O 5613.35 -1.6533 -1.57729 0
M  V30 59066 C 5613.56 -3.04225 1.71021 0
M  V30 59067 C 5614.91 -3.7815 1.931 0
M  V30 59068 O 5615.93 -3.14098 1.67991 0
M  V30 59069 O 5614.79 -4.93247 2.35308 0
M  V30 59070 H 5611.89 -0.761031 0.323668 0
M  V30 59071 H 5614.43 -1.11216 1.28176 0
M  V30 59072 H 5613.2 -2.80611 2.72714 0
M  V30 59073 H 5612.83 -3.75742 1.30015 0
M  V30 59074 N 5613.82 -0.97519 -1.23806 0
M  V30 59075 C 5615.07 -0.641191 -1.92081 0
M  V30 59076 C 5615.4 0.824609 -1.76155 0
M  V30 59077 O 5614.65 1.60966 -1.11303 0
M  V30 59078 C 5614.95 -0.971137 -3.43953 0
M  V30 59079 C 5614.62 -2.4263 -3.80055 0
M  V30 59080 C 5613.28 -2.824 -3.8962 0
M  V30 59081 C 5615.63 -3.37033 -3.97565 0
M  V30 59082 C 5612.96 -4.15599 -4.14119 0
M  V30 59083 C 5615.31 -4.6987 -4.23562 0
M  V30 59084 C 5613.98 -5.09407 -4.31348 0
M  V30 59085 H 5613.25 -0.234629 -0.702873 0
M  V30 59086 H 5615.89 -1.22808 -1.46937 0
M  V30 59087 H 5614.2 -0.302102 -3.90634 0
M  V30 59088 H 5615.9 -0.690997 -3.95002 0
M  V30 59089 H 5612.49 -2.10796 -3.7318 0
M  V30 59090 H 5616.67 -3.07488 -3.8957 0
M  V30 59091 H 5611.93 -4.45846 -4.18368 0
M  V30 59092 H 5616.1 -5.42981 -4.36055 0
M  V30 59093 H 5613.73 -6.1264 -4.50085 0
M  V30 59094 N 5615.3 1.38815 -0.746207 0
M  V30 59095 C 5616.25 2.3052 -0.113598 0
M  V30 59096 C 5617.22 1.49797 0.717629 0
M  V30 59097 O 5618.4 1.7845 0.675283 0
M  V30 59098 C 5615.54 3.36188 0.779225 0
M  V30 59099 C 5614.66 4.3195 -0.0658303 0
M  V30 59100 C 5613.79 5.24687 0.829308 0
M  V30 59101 C 5612.83 6.12097 -0.0198263 0
M  V30 59102 N 5611.97 6.97155 0.831862 0
M  V30 59103 H 5616.81 2.84045 -0.901236 0
M  V30 59104 H 5614.34 1.39851 -0.456074 0
M  V30 59105 H 5616.3 3.96052 1.31142 0
M  V30 59106 H 5614.93 2.84091 1.53272 0
M  V30 59107 H 5613.98 3.73609 -0.715577 0
M  V30 59108 H 5615.3 4.93548 -0.721908 0
M  V30 59109 H 5614.45 5.89632 1.42894 0
M  V30 59110 H 5613.19 4.63437 1.51914 0
M  V30 59111 H 5612.19 5.46153 -0.632183 0
M  V30 59112 H 5613.42 6.75414 -0.706606 0
M  V30 59113 H 5611.37 6.38461 1.50678 0
M  V30 59114 H 5611.28 7.55642 0.232516 0
M  V30 59115 H 5612.55 7.66518 1.4167 0
M  V30 59116 N 5616.78 0.494703 1.49634 0
M  V30 59117 C 5618.03 -0.0521232 2.02733 0
M  V30 59118 C 5618.36 -1.37225 1.37415 0
M  V30 59119 O 5617.63 -1.87757 0.507708 0
M  V30 59120 C 5617.92 -0.211274 3.5948 0
M  V30 59121 C 5617.77 1.13153 4.35335 0
M  V30 59122 C 5619.09 -0.954864 4.29617 0
M  V30 59123 H 5616.21 -0.0174687 0.736793 0
M  V30 59124 H 5618.85 0.644889 1.78721 0
M  V30 59125 H 5617 -0.804944 3.8007 0
M  V30 59126 H 5618.67 1.7636 4.26257 0
M  V30 59127 H 5616.92 1.72238 3.98141 0
M  V30 59128 H 5617.59 0.973551 5.43347 0
M  V30 59129 H 5620.06 -0.45143 4.13644 0
M  V30 59130 H 5618.94 -1.03505 5.39053 0
M  V30 59131 H 5619.2 -1.9971 3.94421 0
M  V30 59132 N 5618.26 -1.55938 0.228269 0
M  V30 59133 C 5619.48 -2.03321 -0.409292 0
M  V30 59134 C 5619.91 -1.10689 -1.52084 0
M  V30 59135 O 5619.27 -0.0963121 -1.81044 0
M  V30 59136 C 5619.31 -3.4888 -0.911859 0
M  V30 59137 O 5618.42 -3.59385 -2.02277 0
M  V30 59138 H 5617.76 -0.657628 -0.0917678 0
M  V30 59139 H 5620.29 -2.01604 0.348873 0
M  V30 59140 H 5620.3 -3.89335 -1.21993 0
M  V30 59141 H 5618.97 -4.15784 -0.098344 0
M  V30 59142 H 5617.55 -3.30821 -1.72081 0
M  V30 59143 N 5619.74 0.0450548 -1.57536 0
M  V30 59144 C 5620.96 0.751252 -1.92779 0
M  V30 59145 C 5621.38 1.6974 -0.826658 0
M  V30 59146 O 5620.74 1.81421 0.198161 0
M  V30 59147 C 5620.79 1.52206 -3.27896 0
M  V30 59148 O 5620.51 0.613906 -4.33777 0
M  V30 59149 C 5622.01 2.32686 -3.77322 0
M  V30 59150 H 5619.23 0.212088 -0.6366 0
M  V30 59151 H 5621.77 0.00734551 -2.04499 0
M  V30 59152 H 5619.93 2.21799 -3.17622 0
M  V30 59153 H 5620.34 1.15276 -5.11675 0
M  V30 59154 H 5621.82 2.82188 -4.7442 0
M  V30 59155 H 5622.29 3.13403 -3.07693 0
M  V30 59156 H 5622.9 1.68198 -3.90627 0
M  V30 59157 N 5621.21 1.54379 0.317018 0
M  V30 59158 C 5622.15 1.80568 1.41166 0
M  V30 59159 C 5623.16 0.687917 1.47552 0
M  V30 59160 O 5624.35 0.965137 1.50158 0
M  V30 59161 C 5621.45 1.9143 2.79656 0
M  V30 59162 C 5620.62 3.21665 2.96396 0
M  V30 59163 C 5619.68 3.23146 4.15287 0
M  V30 59164 O 5618.71 3.96755 4.08135 0
M  V30 59165 N 5619.91 2.47395 5.25144 0
M  V30 59166 H 5622.67 2.75036 1.19061 0
M  V30 59167 H 5620.23 1.53756 0.507032 0
M  V30 59168 H 5622.23 1.89841 3.57411 0
M  V30 59169 H 5620.8 1.0403 2.94782 0
M  V30 59170 H 5620.02 3.36161 2.05887 0
M  V30 59171 H 5621.3 4.07639 3.04479 0
M  V30 59172 H 5620.7 1.87192 5.33831 0
M  V30 59173 H 5619.26 2.51576 6.01292 0
M  V30 59174 N 5622.69 -0.579414 1.46562 0
M  V30 59175 C 5623.6 -1.71604 1.59967 0
M  V30 59176 C 5624.62 -1.6716 0.483061 0
M  V30 59177 O 5625.79 -1.87009 0.747627 0
M  V30 59178 C 5622.86 -3.08109 1.58965 0
M  V30 59179 C 5621.92 -3.23791 2.81883 0
M  V30 59180 C 5621.15 -4.53784 2.8092 0
M  V30 59181 O 5621.38 -5.37877 1.89854 0
M  V30 59182 O 5620.31 -4.72783 3.72504 0
M  V30 59183 H 5624.14 -1.63241 2.56098 0
M  V30 59184 H 5621.72 -0.746845 1.29393 0
M  V30 59185 H 5623.6 -3.89384 1.61114 0
M  V30 59186 H 5622.28 -3.16901 0.659952 0
M  V30 59187 H 5621.19 -2.41996 2.85287 0
M  V30 59188 H 5622.52 -3.19891 3.74073 0
M  V30 59189 N 5624.17 -1.34323 -0.824323 0
M  V30 59190 C 5625.42 -1.26601 -1.58046 0
M  V30 59191 C 5625.75 0.164402 -1.93804 0
M  V30 59192 O 5625 1.12531 -1.6011 0
M  V30 59193 C 5625.3 -2.1009 -2.89131 0
M  V30 59194 C 5624.97 -3.59112 -2.72671 0
M  V30 59195 C 5623.63 -3.99735 -2.6789 0
M  V30 59196 C 5625.98 -4.53745 -2.56447 0
M  V30 59197 C 5623.31 -5.33187 -2.44804 0
M  V30 59198 C 5625.66 -5.87374 -2.34893 0
M  V30 59199 C 5624.32 -6.27163 -2.28522 0
M  V30 59200 H 5623.59 -0.463265 -0.578331 0
M  V30 59201 H 5626.24 -1.66052 -0.953889 0
M  V30 59202 H 5624.55 -1.63463 -3.56072 0
M  V30 59203 H 5626.24 -2.01463 -3.46719 0
M  V30 59204 H 5622.83 -3.26864 -2.77232 0
M  V30 59205 H 5627.02 -4.23258 -2.59165 0
M  V30 59206 H 5622.27 -5.63036 -2.38329 0
M  V30 59207 H 5626.45 -6.60294 -2.21326 0
M  V30 59208 H 5624.07 -7.30505 -2.10395 0
M  V30 59209 N 5625.65 1.04435 -1.1803 0
M  V30 59210 C 5627.06 1.29762 -0.929188 0
M  V30 59211 C 5627.26 1.97339 0.407367 0
M  V30 59212 O 5626.32 2.2517 1.14257 0
M  V30 59213 C 5627.63 2.15995 -2.09205 0
M  V30 59214 C 5629.18 2.29353 -2.12993 0
M  V30 59215 C 5629.66 3.1895 -3.28686 0
M  V30 59216 N 5631.15 3.26537 -3.28523 0
M  V30 59217 C 5631.88 3.9601 -4.14685 0
M  V30 59218 N 5631.38 4.67845 -5.10972 0
M  V30 59219 N 5633.17 3.92252 -4.0261 0
M  V30 59220 H 5625.32 0.589769 -2.04048 0
M  V30 59221 H 5627.59 0.322721 -0.891378 0
M  V30 59222 H 5627.29 1.73643 -3.05845 0
M  V30 59223 H 5627.17 3.1666 -2.04954 0
M  V30 59224 H 5629.55 2.70944 -1.16934 0
M  V30 59225 H 5629.63 1.28291 -2.21303 0
M  V30 59226 H 5629.28 2.78072 -4.25016 0
M  V30 59227 H 5629.21 4.20035 -3.17613 0
M  V30 59228 H 5631.7 2.75361 -2.58814 0
M  V30 59229 H 5632.01 5.1844 -5.73097 0
M  V30 59230 H 5630.36 4.66762 -5.14935 0
M  V30 59231 H 5633.55 3.35261 -3.26676 0
M  V30 59232 H 5633.72 4.46124 -4.69976 0
M  V30 59233 N 5627.13 0.981742 1.23287 0
M  V30 59234 C 5628.37 0.651369 1.91738 0
M  V30 59235 C 5628.7 -0.815256 1.76589 0
M  V30 59236 O 5627.96 -1.60373 1.12155 0
M  V30 59237 C 5628.26 0.989364 3.43433 0
M  V30 59238 C 5627.92 2.44642 3.78763 0
M  V30 59239 C 5626.58 2.84462 3.88117 0
M  V30 59240 C 5628.94 3.39137 3.95772 0
M  V30 59241 C 5626.26 4.1779 4.11909 0
M  V30 59242 C 5628.62 4.72109 4.21065 0
M  V30 59243 C 5627.28 5.11687 4.28641 0
M  V30 59244 H 5626.55 0.238353 0.701619 0
M  V30 59245 H 5629.2 1.23585 1.46284 0
M  V30 59246 H 5627.5 0.322814 3.90468 0
M  V30 59247 H 5629.2 0.711935 3.9463 0
M  V30 59248 H 5625.79 2.12772 3.72057 0
M  V30 59249 H 5629.97 3.0955 3.87934 0
M  V30 59250 H 5625.23 4.48058 4.15997 0
M  V30 59251 H 5629.4 5.45286 4.3317 0
M  V30 59252 H 5627.03 6.15018 4.46829 0
M  V30 59253 N 5628.6 -1.38417 0.753558 0
M  V30 59254 C 5629.54 -2.28079 0.0742485 0
M  V30 59255 C 5630.52 -1.45375 -0.728347 0
M  V30 59256 O 5631.7 -1.7474 -0.706981 0
M  V30 59257 C 5628.83 -3.26478 -0.901649 0
M  V30 59258 C 5627.87 -4.26097 -0.185289 0
M  V30 59259 S 5628.71 -5.23787 1.11391 0
M  V30 59260 C 5629.86 -6.25741 0.141081 0
M  V30 59261 H 5630.09 -2.85346 0.834575 0
M  V30 59262 H 5627.63 -1.44418 0.546139 0
M  V30 59263 H 5629.59 -3.83683 -1.45936 0
M  V30 59264 H 5628.25 -2.68194 -1.63495 0
M  V30 59265 H 5627.44 -4.9545 -0.924404 0
M  V30 59266 H 5627.04 -3.72788 0.300903 0
M  V30 59267 H 5629.33 -6.73947 -0.692937 0
M  V30 59268 H 5630.28 -7.03541 0.802267 0
M  V30 59269 H 5630.68 -5.63991 -0.239601 0
M  V30 59270 N 5630.08 -0.502631 -1.4937 0
M  V30 59271 C 5631.31 0.0380702 -2.06865 0
M  V30 59272 C 5631.73 1.30669 -1.36275 0
M  V30 59273 O 5631.08 1.77077 -0.441594 0
M  V30 59274 C 5631.13 0.293941 -3.60303 0
M  V30 59275 O 5630.85 -0.924394 -4.28237 0
M  V30 59276 C 5632.36 0.8781 -4.34516 0
M  V30 59277 H 5629.58 -0.0211992 -0.670665 0
M  V30 59278 H 5632.12 -0.700455 -1.9213 0
M  V30 59279 H 5630.27 0.982451 -3.74735 0
M  V30 59280 H 5630.69 -0.688244 -5.19965 0
M  V30 59281 H 5632.16 1.00671 -5.42742 0
M  V30 59282 H 5632.64 1.87629 -3.97104 0
M  V30 59283 H 5633.25 0.227008 -4.24694 0
M  V30 59284 N 5631.56 1.55815 -0.236535 0
M  V30 59285 C 5632.52 2.19672 0.653964 0
M  V30 59286 C 5633.52 1.16294 1.11052 0
M  V30 59287 O 5634.71 1.41438 1.0169 0
M  V30 59288 C 5631.85 2.83202 1.89761 0
M  V30 59289 H 5633.04 2.99743 0.0969858 0
M  V30 59290 H 5630.59 1.56295 0.0130431 0
M  V30 59291 H 5631.33 2.07042 2.49608 0
M  V30 59292 H 5631.11 3.58921 1.57856 0
M  V30 59293 H 5632.6 3.32104 2.53173 0
M  V30 59294 N 5633.04 -0.0366996 1.57557 0
M  V30 59295 C 5633.99 -1.05816 2.07137 0
M  V30 59296 C 5634.98 -1.37919 0.983595 0
M  V30 59297 O 5636.19 -1.36914 1.16853 0
M  V30 59298 H 5632.56 -0.358737 0.660917 0
M  V30 59299 H 5634.53 -0.614129 2.92012 0
M  V30 59300 C 5633.28 -2.35293 2.55993 0
M  V30 59301 H 5632.61 -2.11449 3.39307 0
M  V30 59302 H 5634.05 -3.05129 2.94402 0
M  V30 59303 C 5632.5 -3.03725 1.45783 0
M  V30 59304 O 5633.03 -3.93247 0.819726 0
M  V30 59305 N 5631.24 -2.64926 1.19425 0
M  V30 59306 H 5630.79 -1.92213 1.71499 0
M  V30 59307 H 5630.75 -3.11032 0.458974 0
M  V30 59308 N 5634.52 -1.54545 -0.308827 0
M  V30 59309 C 5635.47 -1.85698 -1.40068 0
M  V30 59310 C 5636.46 -0.730058 -1.52861 0
M  V30 59311 O 5637.67 -0.913939 -1.55071 0
M  V30 59312 H 5634.04 -0.588858 -0.467707 0
M  V30 59313 H 5636.01 -2.76977 -1.11024 0
M  V30 59314 C 5634.76 -2.11408 -2.76047 0
M  V30 59315 H 5634.08 -2.97592 -2.66981 0
M  V30 59316 H 5635.52 -2.37151 -3.51476 0
M  V30 59317 C 5633.98 -0.910185 -3.24372 0
M  V30 59318 O 5634.51 -0.126771 -4.015 0
M  V30 59319 N 5632.72 -0.717728 -2.81597 0
M  V30 59320 H 5632.27 -1.35645 -2.18994 0
M  V30 59321 H 5632.22 0.086248 -3.14282 0
M  V30 59322 N 5636 0.571634 -1.46868 0
M  V30 59323 C 5636.93 1.68988 -1.61137 0
M  V30 59324 C 5637.91 1.63726 -0.46128 0
M  V30 59325 O 5639.09 1.81571 -0.688877 0
M  V30 59326 C 5636.22 3.07632 -1.61183 0
M  V30 59327 C 5635.18 3.27733 -2.75273 0
M  V30 59328 C 5634.5 4.67016 -2.60384 0
M  V30 59329 C 5635.8 3.14497 -4.17 0
M  V30 59330 H 5637.5 1.57302 -2.54748 0
M  V30 59331 H 5635.04 0.755339 -1.22599 0
M  V30 59332 H 5636.99 3.85695 -1.69758 0
M  V30 59333 H 5635.72 3.20243 -0.641235 0
M  V30 59334 H 5634.38 2.52074 -2.66185 0
M  V30 59335 H 5634.03 4.76407 -1.61384 0
M  V30 59336 H 5633.73 4.81416 -3.36916 0
M  V30 59337 H 5635.25 5.47233 -2.70867 0
M  V30 59338 H 5636.66 3.82392 -4.27141 0
M  V30 59339 H 5635.06 3.40413 -4.94205 0
M  V30 59340 H 5636.13 2.11428 -4.36378 0
M  V30 59341 N 5637.47 1.34758 0.817188 0
M  V30 59342 C 5638.7 1.30527 1.60531 0
M  V30 59343 C 5639.12 -0.119475 1.88422 0
M  V30 59344 O 5638.47 -1.06828 1.47966 0
M  V30 59345 C 5638.52 2.09949 2.94285 0
M  V30 59346 O 5638.25 3.46868 2.67609 0
M  V30 59347 C 5639.75 2.13181 3.88675 0
M  V30 59348 H 5636.97 0.448806 0.498813 0
M  V30 59349 H 5639.51 1.77457 1.01633 0
M  V30 59350 H 5637.67 1.66646 3.49725 0
M  V30 59351 H 5638.08 3.87991 3.52935 0
M  V30 59352 H 5639.55 2.73164 4.79672 0
M  V30 59353 H 5640.03 1.12773 4.24475 0
M  V30 59354 H 5640.64 2.56598 3.39172 0
M  V30 59355 N 5638.95 -1.03808 1.18582 0
M  V30 59356 C 5639.91 -2.10045 0.917254 0
M  V30 59357 C 5640.91 -1.60498 -0.0984558 0
M  V30 59358 O 5642.1 -1.73674 0.135274 0
M  V30 59359 C 5639.24 -3.38812 0.376718 0
M  V30 59360 H 5640.43 -2.35304 1.85936 0
M  V30 59361 H 5637.98 -1.20273 0.998198 0
M  V30 59362 H 5638.72 -3.19218 -0.571871 0
M  V30 59363 H 5638.5 -3.76092 1.10894 0
M  V30 59364 H 5639.99 -4.17084 0.207599 0
M  V30 59365 N 5640.43 -0.988266 -1.22764 0
M  V30 59366 C 5641.84 -0.697342 -1.73188 0
M  V30 59367 C 5642.19 0.786048 -1.79766 0
M  V30 59368 O 5641.32 1.6146 -1.44082 0
M  V30 59369 C 5641.91 -1.25916 -3.14532 0
M  V30 59370 C 5640.47 -1.01772 -3.6238 0
M  V30 59371 C 5639.62 -1.38215 -2.40399 0
M  V30 59372 H 5642.57 -1.16118 -1.08177 0
M  V30 59373 H 5642.59 -0.635447 -3.75156 0
M  V30 59374 H 5642.1 -2.3388 -3.09713 0
M  V30 59375 H 5640.2 0.045496 -3.72572 0
M  V30 59376 H 5640.32 -1.67783 -4.4876 0
M  V30 59377 H 5638.68 -0.800692 -2.41787 0
M  V30 59378 H 5639.46 -2.47173 -2.38245 0
M  V30 59379 N 5641.91 1.38015 -0.760888 0
M  V30 59380 C 5643.32 1.53435 -0.439293 0
M  V30 59381 C 5643.52 1.72187 1.0466 0
M  V30 59382 O 5642.58 1.73704 1.83257 0
M  V30 59383 C 5643.89 2.7372 -1.2449 0
M  V30 59384 C 5645.44 2.87575 -1.23571 0
M  V30 59385 C 5645.92 4.10829 -2.02444 0
M  V30 59386 N 5647.41 4.17921 -1.99742 0
M  V30 59387 C 5648.14 5.123 -2.57559 0
M  V30 59388 N 5647.64 6.12306 -3.2412 0
M  V30 59389 N 5649.43 5.04703 -2.47449 0
M  V30 59390 H 5641.58 1.24094 -1.72379 0
M  V30 59391 H 5643.84 0.603401 -0.731171 0
M  V30 59392 H 5643.55 2.66292 -2.29742 0
M  V30 59393 H 5643.42 3.67108 -0.866708 0
M  V30 59394 H 5645.81 2.9448 -0.191225 0
M  V30 59395 H 5645.89 1.95177 -1.65347 0
M  V30 59396 H 5645.54 4.04686 -3.06907 0
M  V30 59397 H 5645.47 5.0232 -1.58057 0
M  V30 59398 H 5647.96 3.46301 -1.51274 0
M  V30 59399 H 5648.27 6.80829 -3.65639 0
M  V30 59400 H 5646.62 6.12617 -3.28216 0
M  V30 59401 H 5649.81 4.25517 -1.95072 0
M  V30 59402 H 5649.98 5.78075 -2.92803 0
M  V30 59403 N 5643.39 0.510546 1.49101 0
M  V30 59404 C 5644.33 -0.276368 2.30952 0
M  V30 59405 C 5645.33 -0.953843 1.39994 0
M  V30 59406 O 5646.53 -0.880444 1.56997 0
M  V30 59407 H 5642.91 -0.107987 0.744206 0
M  V30 59408 H 5644.88 0.433828 2.9523 0
M  V30 59409 C 5643.63 -1.32223 3.21578 0
M  V30 59410 H 5642.95 -0.810331 3.91502 0
M  V30 59411 H 5644.39 -1.84463 3.81771 0
M  V30 59412 C 5642.85 -2.34552 2.41841 0
M  V30 59413 O 5643.38 -3.4062 2.12934 0
M  V30 59414 N 5641.59 -2.07265 2.0369 0
M  V30 59415 H 5641.13 -1.21028 2.27398 0
M  V30 59416 H 5641.09 -2.75957 1.50648 0
M  V30 59417 N 5644.86 -1.55687 0.244795 0
M  V30 59418 C 5646.09 -2.03744 -0.387704 0
M  V30 59419 C 5646.51 -1.12295 -1.50902 0
M  V30 59420 O 5645.87 -0.115509 -1.80932 0
M  V30 59421 C 5645.92 -3.49828 -0.874804 0
M  V30 59422 O 5645.02 -3.61511 -1.98454 0
M  V30 59423 H 5644.36 -0.658564 -0.0847876 0
M  V30 59424 H 5646.89 -2.01222 0.370236 0
M  V30 59425 H 5646.9 -3.90607 -1.17857 0
M  V30 59426 H 5645.58 -4.15865 -0.054239 0
M  V30 59427 H 5644.16 -3.32627 -1.68563 0
M  V30 59428 N 5646.34 0.0283435 -1.57575 0
M  V30 59429 C 5647.59 0.714594 -1.90434 0
M  V30 59430 C 5647.94 1.72926 -0.84347 0
M  V30 59431 O 5647.24 1.91029 0.147747 0
M  V30 59432 C 5647.43 1.42458 -3.27781 0
M  V30 59433 C 5647.26 0.480196 -4.47129 0
M  V30 59434 C 5646.03 0.10098 -5.05199 0
M  V30 59435 C 5648.23 -0.241707 -5.13732 0
M  V30 59436 N 5646.21 -0.844584 -6.08062 0
M  V30 59437 C 5647.58 -1.04291 -6.11166 0
M  V30 59438 C 5649.64 -0.308573 -4.96943 0
M  V30 59439 C 5648.34 -1.90483 -6.9362 0
M  V30 59440 C 5650.36 -1.15762 -5.7996 0
M  V30 59441 C 5649.73 -1.94675 -6.76965 0
M  V30 59442 H 5645.83 0.235564 -0.745677 0
M  V30 59443 H 5648.41 -0.0253387 -1.94684 0
M  V30 59444 H 5646.58 2.13497 -3.24459 0
M  V30 59445 H 5648.31 2.06328 -3.48154 0
M  V30 59446 H 5645.07 0.463317 -4.71328 0
M  V30 59447 H 5645.49 -1.3119 -6.64167 0
M  V30 59448 H 5650.13 0.287221 -4.21823 0
M  V30 59449 H 5647.85 -2.51142 -7.68084 0
M  V30 59450 H 5651.44 -1.2129 -5.69017 0
M  V30 59451 H 5650.32 -2.59312 -7.40086 0
M  V30 59452 N 5647.82 1.54706 0.300627 0
M  V30 59453 C 5648.73 1.8874 1.39335 0
M  V30 59454 C 5649.75 0.781604 1.55457 0
M  V30 59455 O 5650.92 1.0781 1.70114 0
M  V30 59456 C 5647.99 2.12805 2.73706 0
M  V30 59457 C 5647.05 3.36514 2.66565 0
M  V30 59458 C 5646.28 3.59421 3.94528 0
M  V30 59459 O 5646.5 2.85333 4.93904 0
M  V30 59460 O 5645.44 4.52937 3.96399 0
M  V30 59461 H 5649.26 2.81704 1.13474 0
M  V30 59462 H 5646.85 1.40901 0.496721 0
M  V30 59463 H 5648.73 2.29832 3.53207 0
M  V30 59464 H 5647.41 1.23027 2.99409 0
M  V30 59465 H 5646.31 3.2485 1.85535 0
M  V30 59466 H 5647.65 4.26422 2.45814 0
M  V30 59467 N 5649.3 -0.563837 1.47169 0
M  V30 59468 C 5650.26 -1.65353 1.58717 0
M  V30 59469 C 5651.26 -1.53997 0.462774 0
M  V30 59470 O 5652.45 -1.58275 0.727651 0
M  V30 59471 C 5649.58 -3.04868 1.52539 0
M  V30 59472 H 5650.78 -1.56466 2.55849 0
M  V30 59473 H 5648.33 -0.783224 1.3526 0
M  V30 59474 H 5649.06 -3.19295 0.567582 0
M  V30 59475 H 5648.85 -3.1452 2.34136 0
M  V30 59476 H 5650.34 -3.84158 1.63745 0
M  V30 59477 N 5650.78 -1.3519 -0.81003 0
M  V30 59478 C 5651.71 -1.22178 -1.92738 0
M  V30 59479 C 5652.69 -0.11045 -1.62224 0
M  V30 59480 O 5653.87 -0.277925 -1.8644 0
M  V30 59481 C 5651 -0.880482 -3.27055 0
M  V30 59482 C 5650.04 -2.00338 -3.7652 0
M  V30 59483 S 5650.88 -3.61863 -3.94734 0
M  V30 59484 C 5652.03 -3.29803 -5.31959 0
M  V30 59485 H 5652.27 -2.16756 -2.0348 0
M  V30 59486 H 5649.8 -1.20366 -0.967029 0
M  V30 59487 H 5651.76 -0.690366 -4.04653 0
M  V30 59488 H 5650.42 0.0471764 -3.14065 0
M  V30 59489 H 5649.61 -1.71864 -4.73792 0
M  V30 59490 H 5649.21 -2.15165 -3.05909 0
M  V30 59491 H 5651.51 -2.82418 -6.1583 0
M  V30 59492 H 5652.45 -4.26263 -5.65425 0
M  V30 59493 H 5652.86 -2.65658 -4.98082 0
M  V30 59494 N 5652.25 1.03178 -1.19131 0
M  V30 59495 C 5653.22 2.09556 -0.92838 0
M  V30 59496 C 5654.22 1.60548 0.0899428 0
M  V30 59497 O 5655.41 1.736 -0.144483 0
M  V30 59498 C 5652.54 3.38608 -0.39468 0
M  V30 59499 H 5653.73 2.34315 -1.87181 0
M  V30 59500 H 5651.29 1.19742 -1.00456 0
M  V30 59501 H 5652.02 3.19517 0.554934 0
M  V30 59502 H 5651.81 3.75498 -1.12887 0
M  V30 59503 H 5653.3 4.16968 -0.229715 0
M  V30 59504 N 5653.73 0.994763 1.22238 0
M  V30 59505 C 5654.66 0.566579 2.26522 0
M  V30 59506 C 5655.64 -0.407483 1.65147 0
M  V30 59507 O 5656.83 -0.29771 1.91904 0
M  V30 59508 C 5653.96 -0.117738 3.471 0
M  V30 59509 C 5652.91 0.775056 4.20924 0
M  V30 59510 C 5652.24 -0.0422807 5.34683 0
M  V30 59511 C 5653.54 2.0728 4.79408 0
M  V30 59512 H 5655.23 1.43827 2.62591 0
M  V30 59513 H 5652.78 0.693016 1.26227 0
M  V30 59514 H 5654.73 -0.428695 4.19214 0
M  V30 59515 H 5653.46 -1.02399 3.10132 0
M  V30 59516 H 5652.11 1.06968 3.50647 0
M  V30 59517 H 5651.76 -0.949503 4.93957 0
M  V30 59518 H 5651.46 0.552072 5.85001 0
M  V30 59519 H 5652.99 -0.347289 6.09612 0
M  V30 59520 H 5654.4 1.82567 5.43454 0
M  V30 59521 H 5652.8 2.61613 5.40073 0
M  V30 59522 H 5653.87 2.75031 3.99357 0
M  V30 59523 N 5655.21 -1.3761 0.768196 0
M  V30 59524 C 5656.16 -2.32179 0.139822 0
M  V30 59525 C 5657.15 -1.54757 -0.688969 0
M  V30 59526 O 5658.36 -1.70179 -0.586429 0
M  V30 59527 H 5654.73 -0.751536 0.0264265 0
M  V30 59528 H 5656.7 -2.82765 0.953238 0
M  V30 59529 C 5655.45 -3.4 -0.727709 0
M  V30 59530 H 5654.78 -3.99677 -0.0993446 0
M  V30 59531 H 5656.22 -4.08542 -1.13442 0
M  V30 59532 C 5654.68 -2.79784 -1.87676 0
M  V30 59533 O 5655.21 -2.70251 -2.97199 0
M  V30 59534 N 5653.41 -2.37379 -1.67629 0
M  V30 59535 H 5652.96 -2.45333 -0.785466 0
M  V30 59536 H 5652.92 -1.97435 -2.44677 0
M  V30 59537 N 5656.69 -0.518446 -1.48828 0
M  V30 59538 C 5657.94 0.0198341 -2.0249 0
M  V30 59539 C 5658.26 1.3537 -1.39661 0
M  V30 59540 O 5657.52 1.88452 -0.527652 0
M  V30 59541 C 5657.82 0.202875 -3.56824 0
M  V30 59542 C 5657.48 -1.05517 -4.3838 0
M  V30 59543 C 5656.15 -1.39998 -4.60384 0
M  V30 59544 C 5658.5 -1.89059 -4.85702 0
M  V30 59545 C 5655.83 -2.57941 -5.26957 0
M  V30 59546 C 5658.18 -3.0617 -5.53573 0
M  V30 59547 C 5656.84 -3.41011 -5.73819 0
M  V30 59548 H 5656.11 0.00725783 -0.740964 0
M  V30 59549 H 5658.76 -0.682136 -1.78939 0
M  V30 59550 H 5657.06 0.987519 -3.79151 0
M  V30 59551 H 5658.76 0.634094 -3.95955 0
M  V30 59552 H 5655.35 -0.776618 -4.21505 0
M  V30 59553 H 5659.53 -1.63733 -4.68514 0
M  V30 59554 H 5654.79 -2.85151 -5.40832 0
M  V30 59555 H 5658.96 -3.71218 -5.89211 0
M  V30 59556 H 5656.59 -4.32501 -6.25177 0
M  V30 59557 N 5658.17 1.55555 -0.253048 0
M  V30 59558 C 5659.11 2.21636 0.643901 0
M  V30 59559 C 5660.08 1.1823 1.16666 0
M  V30 59560 O 5661.27 1.46699 1.22001 0
M  V30 59561 C 5658.41 2.92436 1.83236 0
M  V30 59562 C 5657.52 4.10511 1.34555 0
M  V30 59563 C 5656.66 4.6901 2.49405 0
M  V30 59564 C 5655.7 5.79322 1.97616 0
M  V30 59565 N 5654.83 6.31978 3.05856 0
M  V30 59566 H 5659.67 2.97909 0.0737131 0
M  V30 59567 H 5657.21 1.47079 0.0246211 0
M  V30 59568 H 5659.17 3.31687 2.53061 0
M  V30 59569 H 5657.8 2.18626 2.37492 0
M  V30 59570 H 5656.85 3.76531 0.541135 0
M  V30 59571 H 5658.16 4.90128 0.926047 0
M  V30 59572 H 5657.32 5.10867 3.27261 0
M  V30 59573 H 5656.05 3.88622 2.94659 0
M  V30 59574 H 5655.06 5.36937 1.18232 0
M  V30 59575 H 5656.28 6.61565 1.53324 0
M  V30 59576 H 5654.23 5.54493 3.50534 0
M  V30 59577 H 5654.15 7.06806 2.68256 0
M  V30 59578 H 5655.42 6.78494 3.83753 0
M  V30 59579 N 5659.64 -0.0199865 1.57587 0
M  V30 59580 C 5660.57 -1.01708 2.10185 0
M  V30 59581 C 5661.56 -1.37133 1.00641 0
M  V30 59582 O 5662.74 -1.45858 1.28215 0
M  V30 59583 C 5659.87 -2.31522 2.58873 0
M  V30 59584 C 5658.82 -2.10314 3.72763 0
M  V30 59585 C 5658.15 -3.45967 4.0769 0
M  V30 59586 C 5659.45 -1.48192 5.00836 0
M  V30 59587 H 5661.14 -0.579203 2.93744 0
M  V30 59588 H 5658.69 -0.277162 1.41308 0
M  V30 59589 H 5660.64 -3.01613 2.94292 0
M  V30 59590 H 5659.37 -2.77386 1.72409 0
M  V30 59591 H 5658.03 -1.42653 3.37706 0
M  V30 59592 H 5657.67 -3.89496 3.18279 0
M  V30 59593 H 5657.37 -3.32599 4.84408 0
M  V30 59594 H 5658.9 -4.17405 4.45651 0
M  V30 59595 H 5660.31 -2.08213 5.34154 0
M  V30 59596 H 5658.71 -1.45373 5.82226 0
M  V30 59597 H 5659.78 -0.448773 4.82819 0
M  V30 59598 N 5661.12 -1.54863 -0.292418 0
M  V30 59599 C 5662.37 -1.7376 -1.02423 0
M  V30 59600 C 5662.69 -0.535231 -1.88135 0
M  V30 59601 O 5663.89 -0.606185 -2.64646 0
M  V30 59602 C 5662.35 -3.07457 -1.87079 0
M  V30 59603 C 5661.96 -4.35199 -1.06328 0
M  V30 59604 C 5663.7 -3.35709 -2.59807 0
M  V30 59605 C 5661.61 -5.59943 -1.9031 0
M  V30 59606 H 5660.54 -0.647631 -0.386122 0
M  V30 59607 H 5663.19 -1.81339 -0.280796 0
M  V30 59608 H 5661.57 -2.93864 -2.65443 0
M  V30 59609 H 5662.74 -4.59651 -0.325173 0
M  V30 59610 H 5661.06 -4.13946 -0.451429 0
M  V30 59611 H 5663.66 -4.2611 -3.23008 0
M  V30 59612 H 5664 -2.54968 -3.29085 0
M  V30 59613 H 5664.53 -3.50311 -1.88486 0
M  V30 59614 H 5661.27 -6.43376 -1.25487 0
M  V30 59615 H 5660.79 -5.39663 -2.6177 0
M  V30 59616 H 5662.47 -5.9752 -2.4815 0
M  V30 59617 N 5662.6 0.556024 -1.47466 0
M  V30 59618 C 5663.85 1.31055 -1.53847 0
M  V30 59619 C 5664.17 1.93942 -0.202875 0
M  V30 59620 O 5663.44 1.79992 0.773275 0
M  V30 59621 H 5662.02 0.486676 -0.566706 0
M  V30 59622 H 5664.68 0.649175 -1.83771 0
M  V30 59623 H 5663.78 2.10346 -2.30567 0
M  V30 59624 N 5664.08 1.35617 0.802849 0
M  V30 59625 C 5665.33 1.28434 1.55524 0
M  V30 59626 C 5665.64 -0.138207 1.95111 0
M  V30 59627 O 5666.85 -0.332341 2.69458 0
M  V30 59628 C 5665.3 2.25261 2.80688 0
M  V30 59629 C 5664.91 3.7288 2.48323 0
M  V30 59630 C 5666.66 2.27027 3.58691 0
M  V30 59631 C 5664.56 4.6152 3.69801 0
M  V30 59632 H 5663.49 0.477201 0.583777 0
M  V30 59633 H 5666.14 1.60903 0.882182 0
M  V30 59634 H 5664.53 1.85768 3.49723 0
M  V30 59635 H 5665.7 4.2103 1.8727 0
M  V30 59636 H 5664.01 3.73759 1.83558 0
M  V30 59637 H 5666.61 2.90467 4.48924 0
M  V30 59638 H 5666.95 1.27505 3.96293 0
M  V30 59639 H 5667.49 2.65068 2.9662 0
M  V30 59640 H 5664.23 5.62055 3.37305 0
M  V30 59641 H 5663.75 4.18094 4.30067 0
M  V30 59642 H 5665.43 4.77128 4.36987 0
M  V30 59643 N 5665.56 -1.02544 1.19676 0
M  V30 59644 C 5666.81 -1.75653 0.999525 0
M  V30 59645 C 5667.13 -1.8924 -0.47045 0
M  V30 59646 O 5666.4 -1.42848 -1.34057 0
M  V30 59647 H 5664.98 -0.650719 0.366844 0
M  V30 59648 H 5667.64 -1.23678 1.50631 0
M  V30 59649 H 5666.73 -2.76348 1.45045 0
M  V30 59650 N 5667.04 -1.00123 -1.21709 0
M  V30 59651 C 5668.28 -0.680444 -1.90301 0
M  V30 59652 C 5668.6 0.790865 -1.78242 0
M  V30 59653 O 5667.87 1.56756 -1.17492 0
M  V30 59654 H 5666.45 -0.248689 -0.704388 0
M  V30 59655 H 5669.12 -1.26953 -1.47881 0
M  V30 59656 H 5668.21 -0.950292 -2.97281 0
M  V30 59657 N 5668.51 1.37201 -0.775483 0
M  V30 59658 C 5669.74 2.03866 -0.352999 0
M  V30 59659 C 5670.16 1.58486 1.02604 0
M  V30 59660 O 5669.51 0.76783 1.65562 0
M  V30 59661 C 5669.56 3.59376 -0.391286 0
M  V30 59662 O 5669.29 4.03097 -1.71593 0
M  V30 59663 C 5670.79 4.4328 0.042325 0
M  V30 59664 H 5668.01 0.654614 -0.147383 0
M  V30 59665 H 5670.55 1.75459 -1.05045 0
M  V30 59666 H 5668.71 3.86542 0.257616 0
M  V30 59667 H 5669.12 4.97634 -1.65713 0
M  V30 59668 H 5670.59 5.51989 -0.0356156 0
M  V30 59669 H 5671.07 4.25378 1.09318 0
M  V30 59670 H 5671.68 4.21347 -0.578532 0
M  V30 59671 N 5669.99 0.526331 1.48551 0
M  V30 59672 C 5671.4 0.084935 1.86507 0
M  V30 59673 C 5671.75 -1.33665 1.43625 0
M  V30 59674 O 5670.88 -2.00043 0.825339 0
M  V30 59675 C 5671.47 0.14736 3.38479 0
M  V30 59676 C 5670.03 -0.238822 3.75642 0
M  V30 59677 C 5669.18 0.508744 2.72593 0
M  V30 59678 H 5672.13 0.737778 1.40508 0
M  V30 59679 H 5672.15 -0.641832 3.75048 0
M  V30 59680 H 5671.66 1.18212 3.69659 0
M  V30 59681 H 5669.76 -1.27586 3.50075 0
M  V30 59682 H 5669.88 0.0982492 4.78999 0
M  V30 59683 H 5668.24 -0.0445486 2.54661 0
M  V30 59684 H 5669.02 1.54406 3.06616 0
M  V30 59685 N 5671.47 -1.55419 0.261294 0
M  V30 59686 C 5672.71 -2.01191 -0.360777 0
M  V30 59687 C 5673.07 -1.14563 -1.54076 0
M  V30 59688 O 5674.27 -1.49854 -2.23153 0
M  V30 59689 C 5672.55 -3.49516 -0.746557 0
M  V30 59690 S 5674.1 -4.17286 -1.35712 0
M  V30 59691 H 5670.92 -0.701982 -0.112879 0
M  V30 59692 H 5673.52 -1.91773 0.379897 0
M  V30 59693 H 5672.23 -4.10221 0.121316 0
M  V30 59694 H 5671.76 -3.62889 -1.51905 0
M  V30 59695 H 5673.77 -4.19765 -2.64598 0
M  V30 59696 N 5672.95 0.011629 -1.57596 0
M  V30 59697 C 5674.2 0.698023 -1.89237 0
M  V30 59698 C 5674.51 1.75578 -0.862078 0
M  V30 59699 O 5675.72 2.49599 -1.06831 0
M  V30 59700 C 5674.17 1.29265 -3.35885 0
M  V30 59701 C 5673.78 0.270333 -4.47184 0
M  V30 59702 C 5675.52 1.95791 -3.76651 0
M  V30 59703 C 5673.43 0.874296 -5.84902 0
M  V30 59704 H 5672.36 0.26447 -0.706096 0
M  V30 59705 H 5675.01 -0.0470096 -1.8344 0
M  V30 59706 H 5673.39 2.08797 -3.36481 0
M  V30 59707 H 5674.57 -0.499542 -4.58084 0
M  V30 59708 H 5672.88 -0.293822 -4.15362 0
M  V30 59709 H 5675.48 2.41862 -4.76872 0
M  V30 59710 H 5675.82 2.78355 -3.09555 0
M  V30 59711 H 5676.36 1.2301 -3.78303 0
M  V30 59712 H 5673.09 0.0876959 -6.55441 0
M  V30 59713 H 5672.61 1.6136 -5.77688 0
M  V30 59714 H 5674.29 1.37643 -6.32189 0
M  V30 59715 N 5674.43 1.55016 0.284201 0
M  V30 59716 C 5675.37 1.87127 1.35101 0
M  V30 59717 C 5676.34 0.721691 1.49602 0
M  V30 59718 O 5677.53 0.971913 1.6419 0
M  V30 59719 C 5674.67 2.13889 2.70824 0
M  V30 59720 C 5673.78 3.41456 2.64635 0
M  V30 59721 C 5672.92 3.57975 3.92463 0
M  V30 59722 C 5671.95 4.79274 3.8074 0
M  V30 59723 N 5671.09 4.9251 5.00378 0
M  V30 59724 H 5675.93 2.78121 1.07017 0
M  V30 59725 H 5673.47 1.37705 0.517263 0
M  V30 59726 H 5675.43 2.27404 3.49776 0
M  V30 59727 H 5674.06 1.26142 2.97133 0
M  V30 59728 H 5673.11 3.36473 1.77454 0
M  V30 59729 H 5674.42 4.30539 2.51868 0
M  V30 59730 H 5673.57 3.71246 4.79855 0
M  V30 59731 H 5672.31 2.67057 4.08083 0
M  V30 59732 H 5671.32 4.66019 2.91731 0
M  V30 59733 H 5672.54 5.71617 3.66649 0
M  V30 59734 H 5670.49 4.04519 5.1643 0
M  V30 59735 H 5670.41 5.7562 4.90099 0
M  V30 59736 H 5671.67 5.10155 5.89374 0
M  V30 59737 N 5675.9 -0.548196 1.47758 0
M  V30 59738 C 5677.15 -1.30689 1.55075 0
M  V30 59739 C 5677.48 -1.92993 0.216143 0
M  V30 59740 O 5676.76 -1.78344 -0.776133 0
M  V30 59741 C 5677.04 -2.41015 2.67552 0
M  V30 59742 C 5676.89 -1.8352 4.10659 0
M  V30 59743 C 5678.21 -3.42892 2.75886 0
M  V30 59744 H 5675.33 -0.47381 0.564511 0
M  V30 59745 H 5677.97 -0.612564 1.79855 0
M  V30 59746 H 5676.12 -3.00239 2.46554 0
M  V30 59747 H 5677.8 -1.28487 4.43045 0
M  V30 59748 H 5676.04 -1.14146 4.18513 0
M  V30 59749 H 5676.71 -2.63318 4.85147 0
M  V30 59750 H 5679.19 -2.93599 2.94854 0
M  V30 59751 H 5678.06 -4.17504 3.56345 0
M  V30 59752 H 5678.32 -4.02308 1.83305 0
M  V30 59753 N 5677.38 -1.36041 -0.795646 0
M  V30 59754 C 5678.35 -1.29716 -1.88961 0
M  V30 59755 C 5679.35 -0.206198 -1.59472 0
M  V30 59756 O 5680.54 -0.460593 -1.68001 0
M  V30 59757 C 5677.67 -1.00934 -3.25615 0
M  V30 59758 H 5678.86 -2.27 -1.95987 0
M  V30 59759 H 5676.41 -1.20724 -0.992748 0
M  V30 59760 H 5677.15 -0.0408167 -3.24274 0
M  V30 59761 H 5676.93 -1.79875 -3.48407 0
M  V30 59762 H 5678.42 -0.990969 -4.05672 0
M  V30 59763 N 5678.86 1.01908 -1.20218 0
M  V30 59764 C 5679.82 2.0856 -0.950554 0
M  V30 59765 C 5680.82 1.60635 0.0729094 0
M  V30 59766 O 5682.01 1.73437 -0.162887 0
M  V30 59767 C 5679.15 3.3817 -0.430572 0
M  V30 59768 H 5680.34 2.32316 -1.89656 0
M  V30 59769 H 5677.89 1.1867 -1.01721 0
M  V30 59770 H 5678.63 3.20087 0.521014 0
M  V30 59771 H 5678.41 3.7428 -1.16863 0
M  V30 59772 H 5679.9 4.16701 -0.273927 0
M  V30 59773 N 5680.34 1.00767 1.21176 0
M  V30 59774 C 5681.27 0.515131 2.2231 0
M  V30 59775 C 5682.25 -0.43261 1.56739 0
M  V30 59776 O 5683.43 -0.354705 1.85133 0
M  V30 59777 C 5680.56 -0.251426 3.37766 0
M  V30 59778 C 5679.61 0.644518 4.21602 0
M  V30 59779 S 5680.44 2.10849 4.92243 0
M  V30 59780 C 5681.6 1.35184 6.11127 0
M  V30 59781 H 5681.83 1.37208 2.63745 0
M  V30 59782 H 5679.36 0.815829 1.31086 0
M  V30 59783 H 5681.32 -0.687618 4.047 0
M  V30 59784 H 5679.98 -1.08383 2.94808 0
M  V30 59785 H 5679.17 0.0539224 5.03971 0
M  V30 59786 H 5678.78 1.0181 3.59876 0
M  V30 59787 H 5681.07 0.627137 6.74591 0
M  V30 59788 H 5682.01 2.15135 6.74628 0
M  V30 59789 H 5682.42 0.85864 5.57932 0
M  V30 59790 N 5681.82 -1.36787 0.782749 0
M  V30 59791 C 5682.75 -2.28804 0.13459 0
M  V30 59792 C 5683.76 -1.49161 -0.652286 0
M  V30 59793 O 5684.95 -1.71684 -0.488566 0
M  V30 59794 C 5682.05 -3.28511 -0.832687 0
M  V30 59795 C 5681.22 -4.37292 -0.0972898 0
M  V30 59796 C 5680.28 -5.17002 -0.979534 0
M  V30 59797 O 5679.31 -5.67503 -0.439239 0
M  V30 59798 N 5680.51 -5.32794 -2.30458 0
M  V30 59799 H 5683.28 -2.85069 0.924973 0
M  V30 59800 H 5680.84 -1.48882 0.636064 0
M  V30 59801 H 5682.83 -3.78723 -1.42658 0
M  V30 59802 H 5681.4 -2.72935 -1.52398 0
M  V30 59803 H 5680.62 -3.88332 0.67762 0
M  V30 59804 H 5681.91 -5.07142 0.410437 0
M  V30 59805 H 5681.3 -4.93367 -2.76776 0
M  V30 59806 H 5679.86 -5.86274 -2.84827 0
M  V30 59807 N 5683.29 -0.534202 -1.4827 0
M  V30 59808 C 5684.52 -0.00375755 -2.074 0
M  V30 59809 C 5684.94 1.26999 -1.38755 0
M  V30 59810 O 5684.3 1.75501 -0.454879 0
M  V30 59811 C 5684.35 0.198908 -3.60051 0
M  V30 59812 O 5683.45 1.26665 -3.92466 0
M  V30 59813 H 5682.8 -0.0410169 -0.662732 0
M  V30 59814 H 5685.33 -0.74332 -1.9062 0
M  V30 59815 H 5685.34 0.420261 -4.0583 0
M  V30 59816 H 5684.01 -0.731534 -4.09416 0
M  V30 59817 H 5682.59 1.02762 -3.58461 0
M  V30 59818 N 5684.77 1.55278 -0.269533 0
M  V30 59819 C 5685.72 2.22307 0.620357 0
M  V30 59820 C 5686.69 1.19461 1.15405 0
M  V30 59821 O 5687.87 1.47984 1.20438 0
M  V30 59822 C 5685.01 2.94363 1.80124 0
M  V30 59823 C 5684.13 4.11915 1.30193 0
M  V30 59824 C 5683.26 4.71629 2.44416 0
M  V30 59825 C 5682.3 5.81386 1.9146 0
M  V30 59826 N 5681.44 6.35187 2.99136 0
M  V30 59827 H 5686.28 2.9797 0.0421118 0
M  V30 59828 H 5683.82 1.47097 0.00902002 0
M  V30 59829 H 5685.77 3.34352 2.49529 0
M  V30 59830 H 5684.4 2.21132 2.3516 0
M  V30 59831 H 5683.46 3.77084 0.501169 0
M  V30 59832 H 5684.77 4.91083 0.874011 0
M  V30 59833 H 5683.92 5.14309 3.21824 0
M  V30 59834 H 5682.66 3.91725 2.90521 0
M  V30 59835 H 5681.67 5.38161 1.1253 0
M  V30 59836 H 5682.89 6.63154 1.46298 0
M  V30 59837 H 5680.84 5.58179 3.44633 0
M  V30 59838 H 5680.75 7.09611 2.60744 0
M  V30 59839 H 5682.02 6.82526 3.76536 0
M  V30 59840 N 5686.25 -0.00327115 1.576 0
M  V30 59841 C 5687.18 -0.994728 2.11252 0
M  V30 59842 C 5688.16 -1.36058 1.0209 0
M  V30 59843 O 5689.35 -1.4449 1.29755 0
M  V30 59844 C 5686.48 -2.28763 2.61314 0
M  V30 59845 C 5685.43 -2.06348 3.74972 0
M  V30 59846 C 5684.76 -3.41623 4.11336 0
M  V30 59847 C 5686.06 -1.42872 5.02379 0
M  V30 59848 H 5687.75 -0.548015 2.94342 0
M  V30 59849 H 5685.3 -0.262159 1.41594 0
M  V30 59850 H 5687.25 -2.98474 2.97475 0
M  V30 59851 H 5685.97 -2.75541 1.75341 0
M  V30 59852 H 5684.63 -1.39064 3.392 0
M  V30 59853 H 5684.28 -3.86099 3.22392 0
M  V30 59854 H 5683.98 -3.27443 4.87909 0
M  V30 59855 H 5685.5 -4.12655 4.50053 0
M  V30 59856 H 5686.92 -2.02536 5.36332 0
M  V30 59857 H 5685.32 -1.3919 5.83735 0
M  V30 59858 H 5686.39 -0.397538 4.83268 0
M  V30 59859 N 5687.73 -1.55165 -0.275976 0
M  V30 59860 C 5688.96 -1.79653 -1.02628 0
M  V30 59861 C 5689.37 -0.568353 -1.80042 0
M  V30 59862 O 5688.73 0.462507 -1.76542 0
M  V30 59863 C 5688.78 -3.01981 -1.98721 0
M  V30 59864 O 5688.5 -4.20054 -1.24444 0
M  V30 59865 C 5690 -3.39049 -2.85588 0
M  V30 59866 H 5687.22 -0.59854 -0.3033 0
M  V30 59867 H 5689.77 -2.02172 -0.307662 0
M  V30 59868 H 5687.92 -2.81596 -2.6605 0
M  V30 59869 H 5688.33 -4.89191 -1.89188 0
M  V30 59870 H 5689.81 -4.27822 -3.48816 0
M  V30 59871 H 5690.29 -2.58318 -3.55202 0
M  V30 59872 H 5690.89 -3.61682 -2.23754 0
M  V30 59873 N 5689.21 0.540352 -1.48047 0
M  V30 59874 C 5690.48 1.30143 -1.46022 0
M  V30 59875 C 5690.86 2.10444 -0.166245 0
M  V30 59876 O 5690.21 2.12016 0.852149 0
M  V30 59877 C 5690.42 2.19167 -2.716 0
M  V30 59878 C 5691.77 2.79644 -3.19507 0
M  V30 59879 O 5692.79 2.2946 -2.72445 0
M  V30 59880 O 5691.65 3.70898 -4.01369 0
M  V30 59881 H 5688.75 0.586858 -0.582689 0
M  V30 59882 H 5691.29 0.557862 -1.60268 0
M  V30 59883 H 5690.06 1.59543 -3.57298 0
M  V30 59884 H 5689.69 3.00789 -2.60022 0
M  V30 59885 N 5690.69 1.36461 0.78842 0
M  V30 59886 C 5691.62 1.33552 1.91536 0
M  V30 59887 C 5692.6 0.206821 1.68838 0
M  V30 59888 O 5693.78 0.40462 1.89938 0
M  V30 59889 C 5690.91 1.12504 3.28573 0
M  V30 59890 C 5689.87 2.22208 3.65797 0
M  V30 59891 C 5689.19 1.86303 5.01194 0
M  V30 59892 C 5690.49 3.64299 3.74277 0
M  V30 59893 H 5692.19 2.27851 1.94228 0
M  V30 59894 H 5689.73 1.09681 0.933066 0
M  V30 59895 H 5691.68 1.09103 4.07031 0
M  V30 59896 H 5690.41 0.146561 3.26271 0
M  V30 59897 H 5689.07 2.24737 2.89636 0
M  V30 59898 H 5688.72 0.870264 4.95414 0
M  V30 59899 H 5688.42 2.59752 5.2707 0
M  V30 59900 H 5689.94 1.84459 5.82071 0
M  V30 59901 H 5691.35 3.63993 4.42924 0
M  V30 59902 H 5689.75 4.36663 4.11638 0
M  V30 59903 H 5690.82 3.99133 2.75356 0
M  V30 59904 N 5692.16 -1.01269 1.20757 0
M  V30 59905 C 5693.11 -2.09891 0.959926 0
M  V30 59906 C 5694.08 -1.65727 -0.111293 0
M  V30 59907 O 5695.27 -1.90769 0.0342392 0
M  V30 59908 C 5692.41 -3.41124 0.52235 0
M  V30 59909 C 5691.52 -3.98743 1.66216 0
M  V30 59910 C 5690.65 -5.18053 1.1745 0
M  V30 59911 C 5689.69 -5.67764 2.28714 0
M  V30 59912 N 5688.83 -6.78331 1.81138 0
M  V30 59913 H 5693.67 -2.3041 1.88985 0
M  V30 59914 H 5691.21 -1.12986 0.941946 0
M  V30 59915 H 5693.16 -4.16451 0.249945 0
M  V30 59916 H 5691.79 -3.20666 -0.370575 0
M  V30 59917 H 5690.85 -3.20475 2.04938 0
M  V30 59918 H 5692.16 -4.31637 2.49982 0
M  V30 59919 H 5691.31 -6.00598 0.858298 0
M  V30 59920 H 5690.05 -4.86734 0.306785 0
M  V30 59921 H 5689.06 -4.83821 2.61146 0
M  V30 59922 H 5690.28 -6.01116 3.15969 0
M  V30 59923 H 5688.23 -6.48834 0.966989 0
M  V30 59924 H 5688.14 -7.10439 2.58482 0
M  V30 59925 H 5689.41 -7.64431 1.52529 0
M  V30 59926 N 5693.64 -1.01408 -1.2064 0
M  V30 59927 C 5694.88 -0.710479 -1.91655 0
M  V30 59928 C 5695.25 0.74591 -1.76919 0
M  V30 59929 O 5696.45 1.16192 -2.4239 0
M  V30 59930 C 5694.72 -1.13105 -3.39031 0
M  V30 59931 S 5696.28 -0.949035 -4.28414 0
M  V30 59932 H 5693.09 -0.259098 -0.66211 0
M  V30 59933 H 5695.7 -1.30082 -1.45942 0
M  V30 59934 H 5694.4 -2.18695 -3.47276 0
M  V30 59935 H 5693.93 -0.533385 -3.89767 0
M  V30 59936 H 5695.95 0.148826 -4.95977 0
M  V30 59937 N 5695.12 1.3637 -0.789992 0
M  V30 59938 C 5696.35 2.03481 -0.374602 0
M  V30 59939 C 5696.76 1.59565 1.00918 0
M  V30 59940 O 5696.12 0.785347 1.64738 0
M  V30 59941 C 5696.17 3.58941 -0.429381 0
M  V30 59942 O 5695.89 4.01255 -1.75859 0
M  V30 59943 C 5697.39 4.433 -0.00469314 0
M  V30 59944 H 5694.61 0.653014 -0.154318 0
M  V30 59945 H 5697.16 1.74335 -1.069 0
M  V30 59946 H 5695.31 3.86794 0.216604 0
M  V30 59947 H 5695.73 4.95848 -1.70982 0
M  V30 59948 H 5697.2 5.5192 -0.0941594 0
M  V30 59949 H 5697.68 4.26513 1.04801 0
M  V30 59950 H 5698.28 4.20709 -0.623189 0
M  V30 59951 N 5696.6 0.542057 1.47985 0
M  V30 59952 C 5697.82 0.0147564 2.07395 0
M  V30 59953 C 5698.25 -1.26261 1.39427 0
M  V30 59954 O 5697.61 -1.75257 0.464179 0
M  V30 59955 C 5697.65 -0.179811 3.60151 0
M  V30 59956 O 5696.76 -1.24582 3.93132 0
M  V30 59957 H 5696.1 0.0445309 0.662505 0
M  V30 59958 H 5698.63 0.753419 1.90223 0
M  V30 59959 H 5698.64 -0.398733 4.06047 0
M  V30 59960 H 5697.31 0.753237 4.09022 0
M  V30 59961 H 5695.89 -1.0086 3.59001 0
M  V30 59962 N 5698.08 -1.55133 0.277764 0
M  V30 59963 C 5699.32 -1.99951 -0.338761 0
M  V30 59964 C 5699.65 -1.16592 -1.55306 0
M  V30 59965 O 5698.93 -0.236639 -1.93055 0
M  V30 59966 C 5699.21 -3.52863 -0.718333 0
M  V30 59967 C 5699.07 -4.46973 0.503489 0
M  V30 59968 C 5700.38 -4.1176 -1.55377 0
M  V30 59969 H 5697.5 -0.72689 -0.121656 0
M  V30 59970 H 5700.15 -1.86054 0.385236 0
M  V30 59971 H 5698.3 -3.64836 -1.33518 0
M  V30 59972 H 5699.97 -4.4694 1.14204 0
M  V30 59973 H 5698.21 -4.18524 1.14107 0
M  V30 59974 H 5698.88 -5.51659 0.194106 0
M  V30 59975 H 5701.36 -4.03079 -1.03279 0
M  V30 59976 H 5700.23 -5.18957 -1.78817 0
M  V30 59977 H 5700.49 -3.62156 -2.53565 0
M  V30 59978 N 5699.55 -0.00508679 -1.57599 0
M  V30 59979 C 5700.8 0.679699 -1.9107 0
M  V30 59980 C 5701.13 1.7314 -0.879547 0
M  V30 59981 O 5700.41 1.94237 0.101048 0
M  V30 59982 C 5700.69 1.31818 -3.35106 0
M  V30 59983 C 5700.54 0.277675 -4.48942 0
M  V30 59984 C 5701.86 2.24295 -3.78655 0
M  V30 59985 H 5698.98 0.245622 -0.694866 0
M  V30 59986 H 5701.62 -0.0574238 -1.89913 0
M  V30 59987 H 5699.77 1.94645 -3.36223 0
M  V30 59988 H 5701.45 -0.351298 -4.5996 0
M  V30 59989 H 5699.69 -0.399517 -4.31956 0
M  V30 59990 H 5700.36 0.763567 -5.46693 0
M  V30 59991 H 5702.84 1.7148 -3.79122 0
M  V30 59992 H 5701.71 2.65933 -4.80178 0
M  V30 59993 H 5701.97 3.12416 -3.12807 0
M  V30 59994 N 5701.03 1.55309 0.267743 0
M  V30 59995 C 5701.96 1.91559 1.33519 0
M  V30 59996 C 5702.94 0.778054 1.51262 0
M  V30 59997 O 5704.13 1.03663 1.64218 0
M  V30 59998 C 5701.26 2.19211 2.69377 0
M  V30 59999 C 5700.21 3.35019 2.66357 0
M  V30 60000 C 5699.54 3.48162 4.05816 0
M  V30 60001 C 5700.84 4.71272 2.25166 0
M  V30 60002 H 5702.53 2.80968 1.03427 0
M  V30 60003 H 5700.08 1.35185 0.496093 0
M  V30 60004 H 5702.03 2.43158 3.44169 0
M  V30 60005 H 5700.75 1.26606 3.01062 0
M  V30 60006 H 5699.41 3.11048 1.94023 0
M  V30 60007 H 5699.06 2.53015 4.34733 0
M  V30 60008 H 5698.76 4.26029 4.04689 0
M  V30 60009 H 5700.29 3.74408 4.82339 0
M  V30 60010 H 5701.7 4.9473 2.89682 0
M  V30 60011 H 5700.1 5.52092 2.3519 0
M  V30 60012 H 5701.17 4.6974 1.20303 0
M  V30 60013 N 5702.51 -0.532493 1.48332 0
M  V30 60014 C 5703.44 -1.64657 1.65561 0
M  V30 60015 C 5704.42 -1.62445 0.504527 0
M  V30 60016 O 5705.61 -1.79681 0.736775 0
M  V30 60017 C 5702.74 -3.0325 1.69282 0
M  V30 60018 C 5701.69 -3.20319 2.83866 0
M  V30 60019 C 5701.02 -4.59948 2.72675 0
M  V30 60020 C 5702.32 -3.0333 4.25192 0
M  V30 60021 H 5704.01 -1.50493 2.58829 0
M  V30 60022 H 5701.56 -0.722569 1.24559 0
M  V30 60023 H 5703.51 -3.81058 1.79924 0
M  V30 60024 H 5702.23 -3.18431 0.725916 0
M  V30 60025 H 5700.89 -2.44927 2.72775 0
M  V30 60026 H 5700.54 -4.71961 1.73959 0
M  V30 60027 H 5700.24 -4.72314 3.49561 0
M  V30 60028 H 5701.76 -5.39859 2.85281 0
M  V30 60029 H 5703.18 -3.70932 4.37129 0
M  V30 60030 H 5701.57 -3.27191 5.03057 0
M  V30 60031 H 5702.64 -1.99784 4.41831 0
M  V30 60032 N 5703.99 -1.36878 -0.781172 0
M  V30 60033 C 5705.21 -1.34906 -1.57528 0
M  V30 60034 C 5705.64 0.0654588 -1.87986 0
M  V30 60035 O 5705 1.03981 -1.48518 0
M  V30 60036 C 5705.04 -2.18573 -2.86807 0
M  V30 60037 O 5704.15 -1.58388 -3.80772 0
M  V30 60038 H 5703.49 -0.461372 -0.477527 0
M  V30 60039 H 5706.02 -1.80274 -0.967597 0
M  V30 60040 H 5706.03 -2.31448 -3.36 0
M  V30 60041 H 5704.7 -3.21395 -2.63966 0
M  V30 60042 H 5703.28 -1.54499 -3.39388 0
M  V30 60043 N 5705.47 1.00628 -1.21292 0
M  V30 60044 C 5706.71 1.74643 -1.0309 0
M  V30 60045 C 5707.05 1.89272 0.434694 0
M  V30 60046 O 5706.32 1.42611 1.32258 0
M  V30 60047 C 5706.6 3.15974 -1.7272 0
M  V30 60048 C 5706.46 3.09076 -3.2679 0
M  V30 60049 C 5707.78 4.1487 -1.46871 0
M  V30 60050 H 5704.89 0.633924 -0.375911 0
M  V30 60051 H 5707.54 1.17323 -1.4945 0
M  V30 60052 H 5705.69 3.64913 -1.33307 0
M  V30 60053 H 5707.36 2.67861 -3.75564 0
M  V30 60054 H 5705.6 2.4621 -3.5716 0
M  V30 60055 H 5706.27 4.09028 -3.70675 0
M  V30 60056 H 5708.75 3.74631 -1.81083 0
M  V30 60057 H 5707.62 5.11903 -1.98106 0
M  V30 60058 H 5707.89 4.40301 -0.398451 0
M  V30 60059 N 5706.94 1.02047 1.20101 0
M  V30 60060 C 5707.87 0.6145 2.25269 0
M  V30 60061 C 5708.86 -0.372361 1.65974 0
M  V30 60062 O 5710.04 -0.256937 1.92493 0
M  V30 60063 C 5707.17 -0.0440864 3.47272 0
M  V30 60064 C 5706.12 0.864166 4.19185 0
M  V30 60065 C 5705.45 0.0711431 5.34653 0
M  V30 60066 C 5706.75 2.17402 4.74904 0
M  V30 60067 H 5708.44 1.49365 2.59481 0
M  V30 60068 H 5705.99 0.719634 1.24729 0
M  V30 60069 H 5707.94 -0.339677 4.20029 0
M  V30 60070 H 5706.67 -0.957973 3.12235 0
M  V30 60071 H 5705.33 1.14382 3.48299 0
M  V30 60072 H 5704.97 -0.844514 4.9586 0
M  V30 60073 H 5704.67 0.676035 5.83698 0
M  V30 60074 H 5706.2 -0.217904 6.10211 0
M  V30 60075 H 5707.61 1.94053 5.39459 0
M  V30 60076 H 5706.01 2.7301 5.34402 0
M  V30 60077 H 5707.08 2.83441 3.93433 0
M  V30 60078 N 5708.42 -1.3595 0.797213 0
M  V30 60079 C 5709.35 -2.28649 0.15885 0
M  V30 60080 C 5710.37 -1.49845 -0.636428 0
M  V30 60081 O 5711.56 -1.72192 -0.470329 0
M  V30 60082 C 5708.66 -3.29376 -0.797797 0
M  V30 60083 C 5707.83 -4.3737 -0.0509037 0
M  V30 60084 C 5706.89 -5.18012 -0.924644 0
M  V30 60085 O 5705.91 -5.67937 -0.379023 0
M  V30 60086 N 5707.12 -5.35208 -2.24794 0
M  V30 60087 H 5709.88 -2.84072 0.955156 0
M  V30 60088 H 5707.44 -1.48199 0.651819 0
M  V30 60089 H 5709.43 -3.80214 -1.38633 0
M  V30 60090 H 5708 -2.74536 -1.49495 0
M  V30 60091 H 5707.22 -3.87592 0.718769 0
M  V30 60092 H 5708.51 -5.06678 0.464203 0
M  V30 60093 H 5707.91 -4.96275 -2.71528 0
M  V30 60094 H 5706.47 -5.89262 -2.78593 0
M  V30 60095 N 5709.9 -0.549898 -1.47695 0
M  V30 60096 C 5710.83 0.239265 -2.27948 0
M  V30 60097 C 5711.85 0.886158 -1.36569 0
M  V30 60098 O 5713.03 0.761241 -1.61454 0
M  V30 60099 C 5710.13 1.3558 -3.10598 0
M  V30 60100 C 5709.31 0.807083 -4.29889 0
M  V30 60101 C 5708.37 1.8072 -4.94193 0
M  V30 60102 O 5707.39 1.35622 -5.52807 0
M  V30 60103 N 5708.59 3.14029 -4.88227 0
M  V30 60104 H 5711.36 -0.449106 -2.96316 0
M  V30 60105 H 5708.92 -0.385498 -1.57244 0
M  V30 60106 H 5710.91 2.02344 -3.50484 0
M  V30 60107 H 5709.48 1.94752 -2.44521 0
M  V30 60108 H 5708.7 -0.0371263 -3.94183 0
M  V30 60109 H 5709.99 0.419698 -5.07066 0
M  V30 60110 H 5709.39 3.5332 -4.41794 0
M  V30 60111 H 5707.95 3.76371 -5.32154 0
M  V30 60112 N 5711.38 1.54983 -0.285987 0
M  V30 60113 C 5712.31 2.25918 0.59018 0
M  V30 60114 C 5713.29 1.25323 1.15013 0
M  V30 60115 O 5714.47 1.54066 1.18226 0
M  V30 60116 C 5711.6 2.98855 1.76926 0
M  V30 60117 C 5710.56 4.06471 1.34035 0
M  V30 60118 C 5709.88 4.67041 2.6034 0
M  V30 60119 C 5711.18 5.20066 0.482571 0
M  V30 60120 H 5712.88 2.994 -0.00142096 0
M  V30 60121 H 5710.42 1.44 -0.00212343 0
M  V30 60122 H 5712.38 3.47194 2.38818 0
M  V30 60123 H 5711.1 2.22927 2.38686 0
M  V30 60124 H 5709.76 3.58959 0.744574 0
M  V30 60125 H 5709.41 3.87768 3.20382 0
M  V30 60126 H 5709.11 5.39711 2.32349 0
M  V30 60127 H 5710.63 5.18135 3.23061 0
M  V30 60128 H 5712.05 5.64391 1.00677 0
M  V30 60129 H 5710.44 5.99364 0.29708 0
M  V30 60130 H 5711.51 4.82356 -0.49603 0
M  V30 60131 N 5712.86 0.0134446 1.57594 0
M  V30 60132 C 5713.81 -0.982409 2.05749 0
M  V30 60133 C 5714.79 -1.29505 0.954846 0
M  V30 60134 O 5715.98 -1.28378 1.21853 0
M  V30 60135 C 5713.11 -2.27003 2.57535 0
M  V30 60136 C 5712.2 -1.98645 3.74701 0
M  V30 60137 N 5712.59 -1.40495 4.85896 0
M  V30 60138 C 5710.89 -2.28719 3.82889 0
M  V30 60139 C 5711.59 -1.28913 5.67236 0
M  V30 60140 N 5710.56 -1.77933 5.13654 0
M  V30 60141 H 5714.37 -0.527524 2.89127 0
M  V30 60142 H 5711.88 -0.191944 1.61262 0
M  V30 60143 H 5713.88 -2.99202 2.90317 0
M  V30 60144 H 5712.54 -2.73132 1.75581 0
M  V30 60145 H 5713.55 -1.08199 5.06472 0
M  V30 60146 H 5710.22 -2.7763 3.11814 0
M  V30 60147 H 5711.61 -0.840817 6.66618 0
M  V30 60148 N 5714.33 -1.55449 -0.259503 0
M  V30 60149 C 5715.26 -1.92265 -1.32501 0
M  V30 60150 C 5716.25 -0.786065 -1.50848 0
M  V30 60151 O 5717.43 -1.04532 -1.63666 0
M  V30 60152 C 5714.56 -2.20636 -2.68211 0
M  V30 60153 C 5713.51 -3.36427 -2.64577 0
M  V30 60154 C 5712.84 -3.5031 -4.03964 0
M  V30 60155 C 5714.14 -4.7246 -2.22663 0
M  V30 60156 H 5715.83 -2.81513 -1.01936 0
M  V30 60157 H 5713.38 -1.35446 -0.488917 0
M  V30 60158 H 5715.33 -2.4498 -3.42874 0
M  V30 60159 H 5714.06 -1.28201 -3.00386 0
M  V30 60160 H 5712.72 -3.12072 -1.92371 0
M  V30 60161 H 5712.36 -2.55317 -4.33385 0
M  V30 60162 H 5712.06 -4.28169 -4.02424 0
M  V30 60163 H 5713.59 -3.76961 -4.80347 0
M  V30 60164 H 5715 -4.96259 -2.87054 0
M  V30 60165 H 5713.4 -5.53331 -2.32259 0
M  V30 60166 H 5714.47 -4.70371 -1.1781 0
M  V30 60167 N 5715.81 0.524619 -1.48612 0
M  V30 60168 C 5716.72 1.65548 -1.66226 0
M  V30 60169 C 5717.74 1.65252 -0.544768 0
M  V30 60170 O 5718.91 1.84106 -0.816519 0
M  V30 60171 C 5715.98 3.01997 -1.70291 0
M  V30 60172 C 5715.04 3.13106 -2.93706 0
M  V30 60173 C 5714.27 4.43045 -2.97568 0
M  V30 60174 O 5714.5 5.3046 -2.09686 0
M  V30 60175 O 5713.43 4.58632 -3.89795 0
M  V30 60176 H 5717.26 1.53624 -2.6198 0
M  V30 60177 H 5714.84 0.698307 -1.32076 0
M  V30 60178 H 5716.72 3.83136 -1.75455 0
M  V30 60179 H 5715.4 3.14233 -0.777113 0
M  V30 60180 H 5714.31 2.31241 -2.94072 0
M  V30 60181 H 5715.64 3.05787 -3.85688 0
M  V30 60182 N 5717.29 1.3729 0.773902 0
M  V30 60183 C 5718.25 1.32706 1.86874 0
M  V30 60184 C 5719.25 0.231542 1.59124 0
M  V30 60185 O 5720.44 0.487262 1.67247 0
M  V30 60186 C 5717.58 1.06101 3.23968 0
M  V30 60187 H 5718.77 2.30089 1.92351 0
M  V30 60188 H 5716.32 1.22288 0.973416 0
M  V30 60189 H 5717.06 0.0924008 3.24168 0
M  V30 60190 H 5716.84 1.85395 3.45501 0
M  V30 60191 H 5718.33 1.05538 4.04044 0
M  V30 60192 N 5718.77 -0.999829 1.21824 0
M  V30 60193 C 5719.72 -2.10982 0.979257 0
M  V30 60194 C 5720.71 -1.69233 -0.0752692 0
M  V30 60195 O 5721.92 -1.79837 0.0765715 0
M  V30 60196 H 5718.29 -0.689809 0.299446 0
M  V30 60197 H 5720.26 -2.28315 1.92132 0
M  V30 60198 C 5719.01 -3.4306 0.56614 0
M  V30 60199 H 5718.33 -3.75623 1.36922 0
M  V30 60200 H 5719.77 -4.21729 0.438279 0
M  V30 60201 C 5718.23 -3.29039 -0.723531 0
M  V30 60202 O 5718.76 -3.60221 -1.77775 0
M  V30 60203 N 5716.97 -2.8224 -0.692027 0
M  V30 60204 H 5716.52 -2.57063 0.166172 0
M  V30 60205 H 5716.47 -2.7324 -1.55522 0
M  V30 60206 N 5720.25 -1.02682 -1.19558 0
M  V30 60207 C 5721.47 -0.741492 -1.93692 0
M  V30 60208 C 5721.9 0.693142 -1.74863 0
M  V30 60209 O 5721.26 1.47829 -1.04958 0
M  V30 60210 C 5721.3 -1.09526 -3.43564 0
M  V30 60211 O 5720.41 -0.212741 -4.11851 0
M  V30 60212 H 5719.75 -0.274149 -0.604763 0
M  V30 60213 H 5722.28 -1.37295 -1.51695 0
M  V30 60214 H 5722.29 -1.05129 -3.94223 0
M  V30 60215 H 5720.96 -2.14046 -3.56591 0
M  V30 60216 H 5719.54 -0.31513 -3.71566 0
M  V30 60217 N 5721.73 1.35525 -0.804411 0
M  V30 60218 C 5723.14 1.5196 -0.487885 0
M  V30 60219 C 5723.34 1.7543 0.991291 0
M  V30 60220 O 5722.4 1.79446 1.77638 0
M  V30 60221 C 5723.71 2.69621 -1.33135 0
M  V30 60222 C 5725.26 2.83498 -1.32658 0
M  V30 60223 C 5725.73 4.04181 -2.15411 0
M  V30 60224 N 5727.22 4.11354 -2.12936 0
M  V30 60225 C 5727.96 5.03846 -2.73727 0
M  V30 60226 N 5727.46 6.01684 -3.43436 0
M  V30 60227 N 5729.25 4.96576 -2.6338 0
M  V30 60228 H 5721.4 1.18547 -1.7624 0
M  V30 60229 H 5723.66 0.579834 -0.749998 0
M  V30 60230 H 5723.37 2.58848 -2.38097 0
M  V30 60231 H 5723.24 3.64164 -0.983062 0
M  V30 60232 H 5725.63 2.93722 -0.284815 0
M  V30 60233 H 5725.71 1.89818 -1.71473 0
M  V30 60234 H 5725.35 3.94717 -3.19627 0
M  V30 60235 H 5725.28 4.97037 -1.73958 0
M  V30 60236 H 5727.78 3.41313 -1.62215 0
M  V30 60237 H 5728.09 6.68852 -3.87114 0
M  V30 60238 H 5726.43 6.01865 -3.4754 0
M  V30 60239 H 5729.62 4.19096 -2.0851 0
M  V30 60240 H 5729.8 5.68467 -3.11046 0
M  V30 60241 N 5723.2 0.557723 1.47402 0
M  V30 60242 C 5724.17 -0.179231 2.28498 0
M  V30 60243 C 5725.17 -0.842233 1.36978 0
M  V30 60244 O 5726.36 -0.698016 1.59604 0
M  V30 60245 C 5723.49 -1.26218 3.16673 0
M  V30 60246 H 5724.68 0.533137 2.95123 0
M  V30 60247 H 5722.23 0.314688 1.53099 0
M  V30 60248 H 5722.97 -2.00693 2.54741 0
M  V30 60249 H 5722.75 -0.791577 3.84027 0
M  V30 60250 H 5724.24 -1.77978 3.77775 0
M  V30 60251 N 5724.68 -1.5483 0.294202 0
M  V30 60252 C 5725.93 -2.01017 -0.310436 0
M  V30 60253 C 5726.28 -1.17899 -1.52045 0
M  V30 60254 O 5725.58 -0.24567 -1.90018 0
M  V30 60255 C 5725.77 -3.49973 -0.724827 0
M  V30 60256 C 5725.6 -4.47508 0.443482 0
M  V30 60257 C 5724.37 -4.96605 0.933345 0
M  V30 60258 C 5726.57 -4.97956 1.28624 0
M  V30 60259 N 5724.55 -5.7798 2.06913 0
M  V30 60260 C 5725.92 -5.76965 2.26961 0
M  V30 60261 C 5727.97 -4.80155 1.31739 0
M  V30 60262 C 5726.68 -6.4007 3.28182 0
M  V30 60263 C 5728.7 -5.44074 2.31814 0
M  V30 60264 C 5728.07 -6.22909 3.28882 0
M  V30 60265 H 5724.16 -0.778076 -0.0782426 0
M  V30 60266 H 5726.75 -1.90059 0.422571 0
M  V30 60267 H 5724.92 -3.61235 -1.42702 0
M  V30 60268 H 5726.65 -3.82965 -1.30842 0
M  V30 60269 H 5723.41 -4.70852 0.509448 0
M  V30 60270 H 5723.83 -6.23353 2.64121 0
M  V30 60271 H 5728.47 -4.18793 0.580684 0
M  V30 60272 H 5726.19 -7.0057 4.02775 0
M  V30 60273 H 5729.78 -5.32232 2.3499 0
M  V30 60274 H 5728.66 -6.71493 4.05052 0
M  V30 60275 N 5726.16 -0.021802 -1.57585 0
M  V30 60276 C 5727.12 0.947473 -2.087 0
M  V30 60277 C 5728.12 1.25876 -1.0006 0
M  V30 60278 O 5729.31 1.20031 -1.26247 0
M  V30 60279 C 5726.44 2.26615 -2.54673 0
M  V30 60280 H 5727.64 0.504912 -2.95619 0
M  V30 60281 H 5725.19 0.226098 -1.54656 0
M  V30 60282 H 5725.93 2.75515 -1.71061 0
M  V30 60283 H 5725.71 2.05335 -3.34036 0
M  V30 60284 H 5727.2 2.96104 -2.94469 0
M  V30 60285 N 5727.64 1.55584 0.251256 0
M  V30 60286 C 5728.88 1.77212 0.979904 0
M  V30 60287 C 5729.21 0.585344 1.85483 0
M  V30 60288 O 5728.47 -0.431492 1.90884 0
M  V30 60289 C 5728.77 3.04298 1.87451 0
M  V30 60290 C 5728.43 4.35848 1.1553 0
M  V30 60291 C 5727.09 4.71598 0.956513 0
M  V30 60292 C 5729.45 5.17191 0.645199 0
M  V30 60293 C 5726.77 5.86228 0.235259 0
M  V30 60294 C 5729.13 6.32569 -0.0625664 0
M  V30 60295 C 5727.79 6.66942 -0.272868 0
M  V30 60296 H 5727.06 0.648465 0.358572 0
M  V30 60297 H 5729.71 1.89856 0.250356 0
M  V30 60298 H 5728.01 2.86646 2.67097 0
M  V30 60299 H 5729.71 3.1823 2.4399 0
M  V30 60300 H 5726.3 4.07762 1.32017 0
M  V30 60301 H 5730.48 4.90031 0.786333 0
M  V30 60302 H 5725.74 6.11369 0.0618083 0
M  V30 60303 H 5729.91 6.94843 -0.465478 0
M  V30 60304 H 5727.54 7.55615 -0.833707 0
M  V30 60305 N 5729.12 -0.516731 1.48888 0
M  V30 60306 C 5730.36 -1.28216 1.59186 0
M  V30 60307 C 5730.72 -1.90155 0.265533 0
M  V30 60308 O 5731.92 -2.67694 0.243583 0
M  V30 60309 C 5730.19 -2.33251 2.70793 0
M  V30 60310 S 5731.75 -3.19342 3.00942 0
M  V30 60311 H 5728.57 -0.435956 0.561661 0
M  V30 60312 H 5731.17 -0.587172 1.86474 0
M  V30 60313 H 5729.87 -1.8625 3.65704 0
M  V30 60314 H 5729.41 -3.07439 2.45448 0
M  V30 60315 H 5731.42 -4.33601 2.41256 0
M  V30 60316 N 5730.59 -1.37698 -0.766611 0
M  V30 60317 C 5731.84 -1.33387 -1.5276 0
M  V30 60318 C 5732.17 0.0799887 -1.94035 0
M  V30 60319 O 5731.45 1.03843 -1.6446 0
M  V30 60320 C 5731.73 -2.2777 -2.78914 0
M  V30 60321 C 5731.58 -3.77958 -2.4386 0
M  V30 60322 C 5732.9 -2.20507 -3.80873 0
M  V30 60323 H 5730.02 -0.485855 -0.554178 0
M  V30 60324 H 5732.66 -1.68441 -0.87906 0
M  V30 60325 H 5730.81 -1.98006 -3.34254 0
M  V30 60326 H 5732.49 -4.1834 -1.94395 0
M  V30 60327 H 5730.73 -3.96275 -1.76489 0
M  V30 60328 H 5731.4 -4.39439 -3.34061 0
M  V30 60329 H 5733.88 -2.46754 -3.3504 0
M  V30 60330 H 5732.75 -2.88679 -4.66857 0
M  V30 60331 H 5733.01 -1.19966 -4.25512 0
M  V30 60332 N 5732.07 0.993354 -1.22353 0
M  V30 60333 C 5733.02 2.08337 -0.993196 0
M  V30 60334 C 5733.99 1.65883 0.0849134 0
M  V30 60335 O 5735.17 1.90691 -0.0645846 0
M  V30 60336 C 5732.31 3.4025 -0.576554 0
M  V30 60337 C 5731.43 3.96049 -1.72538 0
M  V30 60338 C 5730.56 5.16119 -1.25677 0
M  V30 60339 C 5729.6 5.64054 -2.37718 0
M  V30 60340 N 5728.74 6.75364 -1.91907 0
M  V30 60341 H 5733.58 2.27374 -1.92627 0
M  V30 60342 H 5731.11 1.11473 -0.959802 0
M  V30 60343 H 5733.07 4.16 -0.316167 0
M  V30 60344 H 5731.7 3.21215 0.319513 0
M  V30 60345 H 5730.75 3.17174 -2.10011 0
M  V30 60346 H 5732.07 4.27605 -2.56817 0
M  V30 60347 H 5731.22 5.99157 -0.953739 0
M  V30 60348 H 5729.96 4.86184 -0.384181 0
M  V30 60349 H 5728.96 4.79605 -2.6881 0
M  V30 60350 H 5730.19 5.96013 -3.25492 0
M  V30 60351 H 5728.14 6.47213 -1.07009 0
M  V30 60352 H 5728.05 7.06236 -2.69752 0
M  V30 60353 H 5729.32 7.61908 -1.64671 0
M  V30 60354 N 5733.55 1.03315 1.19012 0
M  V30 60355 C 5734.79 0.74088 1.905 0
M  V30 60356 C 5735.15 -0.71767 1.78083 0
M  V30 60357 O 5736.35 -1.12321 2.44208 0
M  V30 60358 C 5734.63 1.18485 3.37189 0
M  V30 60359 S 5736.18 1.01707 4.2685 0
M  V30 60360 H 5733 0.269598 0.657904 0
M  V30 60361 H 5735.6 1.32387 1.43854 0
M  V30 60362 H 5734.31 2.24192 3.43753 0
M  V30 60363 H 5733.84 0.595326 3.88869 0
M  V30 60364 H 5735.85 -0.0699016 4.96151 0
M  V30 60365 N 5735.03 -1.35096 0.811587 0
M  V30 60366 C 5735.98 -2.27138 0.198038 0
M  V30 60367 C 5736.96 -1.48008 -0.631064 0
M  V30 60368 O 5738.15 -1.70154 -0.487502 0
M  V30 60369 C 5735.28 -3.3712 -0.648459 0
M  V30 60370 C 5734.37 -4.23671 0.190647 0
M  V30 60371 N 5734.76 -4.89954 1.25611 0
M  V30 60372 C 5733.06 -4.45992 -0.0269004 0
M  V30 60373 C 5733.76 -5.54155 1.76881 0
M  V30 60374 N 5732.74 -5.32875 1.07447 0
M  V30 60375 H 5736.54 -2.75883 1.01321 0
M  V30 60376 H 5734.05 -1.48682 0.653247 0
M  V30 60377 H 5736.05 -4.02014 -1.10409 0
M  V30 60378 H 5734.71 -2.89927 -1.46192 0
M  V30 60379 H 5735.72 -4.91287 1.63881 0
M  V30 60380 H 5732.4 -4.09585 -0.809104 0
M  V30 60381 H 5733.79 -6.17023 2.65956 0
M  V30 60382 N 5736.51 -0.565532 -1.47104 0
M  V30 60383 C 5737.45 0.190461 -2.31819 0
M  V30 60384 C 5738.45 0.901229 -1.43437 0
M  V30 60385 O 5739.65 0.821568 -1.60157 0
M  V30 60386 H 5736.03 0.080292 -0.747701 0
M  V30 60387 H 5738 -0.543102 -2.93416 0
M  V30 60388 C 5736.75 1.20197 -3.26264 0
M  V30 60389 H 5736.07 0.664469 -3.9424 0
M  V30 60390 H 5737.51 1.70167 -3.88355 0
M  V30 60391 C 5735.97 2.25414 -2.5038 0
M  V30 60392 O 5736.5 3.32482 -2.25429 0
M  V30 60393 N 5734.71 1.99563 -2.11242 0
M  V30 60394 H 5734.25 1.12505 -2.31733 0
M  V30 60395 H 5734.21 2.70176 -1.60786 0
M  V30 60396 N 5737.98 1.54671 -0.302409 0
M  V30 60397 C 5739.26 1.92265 0.359643 0
M  V30 60398 C 5739.64 1.22979 1.71579 0
M  V30 60399 O 5738.99 0.366021 2.25549 0
M  V30 60400 C 5739.2 3.45781 0.472898 0
M  V30 60401 C 5740.55 4.18047 0.743105 0
M  V30 60402 O 5741.57 3.51824 0.556654 0
M  V30 60403 O 5740.43 5.35287 1.10136 0
M  V30 60404 H 5737.52 0.802119 0.201331 0
M  V30 60405 H 5740.07 1.66039 -0.350571 0
M  V30 60406 H 5738.84 3.8834 -0.480401 0
M  V30 60407 H 5738.47 3.78047 1.23152 0
M  V30 60408 N 5739.46 0.0301588 1.57571 0
M  V30 60409 C 5740.71 -0.647605 1.91021 0
M  V30 60410 C 5741.02 -1.7323 0.908326 0
M  V30 60411 O 5742.23 -2.46678 1.13411 0
M  V30 60412 C 5740.69 -1.20315 3.39194 0
M  V30 60413 C 5740.29 -0.151675 4.47743 0
M  V30 60414 C 5742.04 -1.85736 3.8171 0
M  V30 60415 C 5739.95 -0.718913 5.87014 0
M  V30 60416 H 5738.88 -0.245657 0.71286 0
M  V30 60417 H 5741.53 0.0956289 1.83251 0
M  V30 60418 H 5739.91 -1.99802 3.41899 0
M  V30 60419 H 5741.08 0.62082 4.56599 0
M  V30 60420 H 5739.4 0.403845 4.14437 0
M  V30 60421 H 5741.99 -2.29134 4.83117 0
M  V30 60422 H 5742.34 -2.7005 3.16826 0
M  V30 60423 H 5742.87 -1.12937 3.81432 0
M  V30 60424 H 5739.61 0.0861136 6.55443 0
M  V30 60425 H 5739.13 -1.45987 5.81763 0
M  V30 60426 H 5740.81 -1.20833 6.35616 0
M  V30 60427 N 5740.94 -1.55715 -0.243001 0
M  V30 60428 C 5741.87 -1.93659 -1.30454 0
M  V30 60429 C 5742.85 -0.80202 -1.50005 0
M  V30 60430 O 5744.04 -1.06262 -1.62548 0
M  V30 60431 C 5741.17 -2.23468 -2.65856 0
M  V30 60432 C 5740.12 -3.39214 -2.60994 0
M  V30 60433 C 5739.45 -3.54575 -4.00226 0
M  V30 60434 C 5740.75 -4.74795 -2.1764 0
M  V30 60435 H 5742.44 -2.82578 -0.98944 0
M  V30 60436 H 5739.99 -1.35957 -0.474524 0
M  V30 60437 H 5741.94 -2.48603 -3.40257 0
M  V30 60438 H 5740.66 -1.3138 -2.9901 0
M  V30 60439 H 5739.32 -3.14095 -1.8905 0
M  V30 60440 H 5738.97 -2.59899 -4.30652 0
M  V30 60441 H 5738.67 -4.32413 -3.9786 0
M  V30 60442 H 5740.19 -3.82034 -4.76322 0
M  V30 60443 H 5741.61 -4.99276 -2.81774 0
M  V30 60444 H 5740.01 -5.55764 -2.26377 0
M  V30 60445 H 5741.08 -4.71594 -1.12814 0
M  V30 60446 N 5742.42 0.508828 -1.4916 0
M  V30 60447 C 5743.38 1.59348 -1.64744 0
M  V30 60448 C 5744.38 1.52173 -0.51961 0
M  V30 60449 O 5745.57 1.55465 -0.785892 0
M  V30 60450 C 5742.7 2.98997 -1.63749 0
M  V30 60451 H 5743.9 1.46862 -2.61479 0
M  V30 60452 H 5741.45 0.732483 -1.38074 0
M  V30 60453 H 5742.18 3.16968 -0.685695 0
M  V30 60454 H 5741.97 3.05613 -2.45648 0
M  V30 60455 H 5743.46 3.77816 -1.7789 0
M  V30 60456 N 5743.9 1.38103 0.759297 0
M  V30 60457 C 5744.86 1.3468 1.85456 0
M  V30 60458 C 5745.86 0.248406 1.5887 0
M  V30 60459 O 5747.05 0.504973 1.6672 0
M  V30 60460 C 5744.18 1.09531 3.22825 0
M  V30 60461 H 5745.37 2.32117 1.899 0
M  V30 60462 H 5742.93 1.23313 0.960391 0
M  V30 60463 H 5743.66 0.126778 3.24052 0
M  V30 60464 H 5743.45 1.8905 3.43515 0
M  V30 60465 H 5744.94 1.09818 4.02902 0
M  V30 60466 N 5745.37 -0.986851 1.22878 0
M  V30 60467 C 5746.6 -1.76262 1.08348 0
M  V30 60468 C 5747.02 -1.85228 -0.365537 0
M  V30 60469 O 5746.37 -1.32679 -1.2531 0
M  V30 60470 C 5746.43 -3.19276 1.69544 0
M  V30 60471 O 5746.15 -3.10785 3.08778 0
M  V30 60472 C 5747.65 -4.13275 1.6037 0
M  V30 60473 H 5744.87 -0.553361 0.379517 0
M  V30 60474 H 5747.41 -1.24027 1.62596 0
M  V30 60475 H 5745.57 -3.68559 1.19345 0
M  V30 60476 H 5745.98 -4.00768 3.38357 0
M  V30 60477 H 5747.45 -5.11352 2.07901 0
M  V30 60478 H 5747.93 -4.35598 0.561335 0
M  V30 60479 H 5748.54 -3.69892 2.09904 0
M  V30 60480 N 5746.85 -1.03945 -1.18462 0
M  V30 60481 C 5748.13 -0.656384 -1.84258 0
M  V30 60482 C 5748.51 0.864221 -1.92599 0
M  V30 60483 O 5747.86 1.76519 -1.45098 0
M  V30 60484 C 5748.07 -1.33078 -3.22632 0
M  V30 60485 C 5749.42 -1.46079 -3.9868 0
M  V30 60486 O 5750.44 -1.28879 -3.32067 0
M  V30 60487 O 5749.3 -1.74096 -5.18028 0
M  V30 60488 H 5746.39 -0.229512 -0.794514 0
M  V30 60489 H 5748.94 -1.13826 -1.25864 0
M  V30 60490 H 5747.71 -2.36877 -3.11457 0
M  V30 60491 H 5747.33 -0.83745 -3.88681 0
M  V30 60492 N 5748.33 1.34664 -0.81874 0
M  V30 60493 C 5749.74 1.80837 -0.464203 0
M  V30 60494 C 5750.09 1.67905 1.015 0
M  V30 60495 O 5749.22 1.21664 1.7896 0
M  V30 60496 C 5749.81 3.28328 -0.835814 0
M  V30 60497 C 5748.37 3.72597 -0.533706 0
M  V30 60498 C 5747.52 2.56449 -1.05496 0
M  V30 60499 H 5750.47 1.2247 -1.00929 0
M  V30 60500 H 5750.49 3.8025 -0.137984 0
M  V30 60501 H 5750 3.37709 -1.91245 0
M  V30 60502 H 5748.1 3.68758 0.53369 0
M  V30 60503 H 5748.22 4.66888 -1.07484 0
M  V30 60504 H 5746.58 2.50199 -0.4767 0
M  V30 60505 H 5747.36 2.68601 -2.13795 0
M  V30 60506 N 5749.81 0.573325 1.46802 0
M  V30 60507 C 5751.03 0.0587446 2.07317 0
M  V30 60508 C 5751.46 -1.23275 1.42073 0
M  V30 60509 O 5750.82 -1.74233 0.50125 0
M  V30 60510 C 5750.87 -0.103377 3.60452 0
M  V30 60511 O 5749.97 -1.16215 3.95686 0
M  V30 60512 H 5749.31 0.0585736 0.661411 0
M  V30 60513 H 5751.84 0.793598 1.88582 0
M  V30 60514 H 5751.85 -0.312515 4.06801 0
M  V30 60515 H 5750.53 0.839827 4.07332 0
M  V30 60516 H 5749.1 -0.93222 3.6106 0
M  V30 60517 N 5751.29 -1.54509 0.310607 0
M  V30 60518 C 5752.2 -2.27559 -0.570438 0
M  V30 60519 C 5753.21 -1.3143 -1.14027 0
M  V30 60520 O 5754.39 -1.64427 -1.16301 0
M  V30 60521 C 5751.45 -3.00939 -1.72153 0
M  V30 60522 C 5750.52 -4.12627 -1.18481 0
M  V30 60523 C 5749.75 -4.82498 -2.28104 0
M  V30 60524 O 5749.97 -4.51793 -3.48195 0
M  V30 60525 O 5748.91 -5.69692 -1.94253 0
M  V30 60526 H 5752.73 -3.03692 0.0224262 0
M  V30 60527 H 5750.32 -1.49203 0.0767345 0
M  V30 60528 H 5752.2 -3.46934 -2.39196 0
M  V30 60529 H 5750.87 -2.27693 -2.30082 0
M  V30 60530 H 5749.78 -3.7101 -0.479825 0
M  V30 60531 H 5751.11 -4.87878 -0.650822 0
M  V30 60532 N 5752.77 -0.0385148 -1.57553 0
M  V30 60533 C 5753.73 0.925284 -2.09693 0
M  V30 60534 C 5754.73 1.24807 -1.01389 0
M  V30 60535 O 5755.92 1.18685 -1.27513 0
M  V30 60536 C 5753.05 2.23901 -2.57062 0
M  V30 60537 H 5754.24 0.473529 -2.96138 0
M  V30 60538 H 5751.8 0.209682 -1.54887 0
M  V30 60539 H 5752.53 2.73685 -1.73974 0
M  V30 60540 H 5752.32 2.01781 -3.36195 0
M  V30 60541 H 5753.81 2.92964 -2.97593 0
M  V30 60542 N 5754.24 1.55842 0.23474 0
M  V30 60543 C 5755.49 1.78241 0.961053 0
M  V30 60544 C 5755.82 0.604984 1.84852 0
M  V30 60545 O 5755.07 -0.411222 1.91331 0
M  V30 60546 C 5755.37 3.06269 1.84213 0
M  V30 60547 C 5755.04 4.37049 1.109 0
M  V30 60548 C 5753.7 4.72586 0.90644 0
M  V30 60549 C 5756.05 5.17846 0.590308 0
M  V30 60550 C 5753.38 5.86445 0.173069 0
M  V30 60551 C 5755.73 6.32467 -0.129655 0
M  V30 60552 C 5754.4 6.66615 -0.343591 0
M  V30 60553 H 5753.67 0.652232 0.351674 0
M  V30 60554 H 5756.31 1.90111 0.230205 0
M  V30 60555 H 5754.62 2.89463 2.64042 0
M  V30 60556 H 5756.32 3.208 2.40601 0
M  V30 60557 H 5752.91 4.09139 1.27684 0
M  V30 60558 H 5757.09 4.90838 0.734314 0
M  V30 60559 H 5752.35 6.114 -0.00303903 0
M  V30 60560 H 5756.52 6.9431 -0.539149 0
M  V30 60561 H 5754.15 7.54688 -0.913804 0
M  V30 60562 N 5755.72 -0.50091 1.49428 0
M  V30 60563 C 5756.63 -1.62883 1.68838 0
M  V30 60564 C 5757.65 -1.64365 0.57099 0
M  V30 60565 O 5758.82 -1.82783 0.845705 0
M  V30 60566 C 5755.89 -2.99249 1.75074 0
M  V30 60567 C 5754.95 -3.08393 2.9865 0
M  V30 60568 C 5754.18 -4.38255 3.04579 0
M  V30 60569 O 5754.41 -5.27057 2.18099 0
M  V30 60570 O 5753.34 -4.52373 3.97042 0
M  V30 60571 H 5757.17 -1.49437 2.64391 0
M  V30 60572 H 5754.75 -0.677207 1.3317 0
M  V30 60573 H 5756.63 -3.80297 1.81528 0
M  V30 60574 H 5755.31 -3.12957 0.827006 0
M  V30 60575 H 5754.21 -2.26533 2.97714 0
M  V30 60576 H 5755.55 -2.99612 3.90504 0
M  V30 60577 N 5757.2 -1.38504 -0.751963 0
M  V30 60578 C 5758.15 -1.35864 -1.86573 0
M  V30 60579 C 5759.12 -0.220931 -1.64624 0
M  V30 60580 O 5760.3 -0.413414 -1.86267 0
M  V30 60581 C 5757.44 -1.19114 -3.23892 0
M  V30 60582 C 5756.55 -2.42285 -3.57662 0
M  V30 60583 C 5755.69 -2.18253 -4.84292 0
M  V30 60584 C 5754.73 -3.37187 -5.10853 0
M  V30 60585 N 5753.87 -3.1258 -6.2868 0
M  V30 60586 H 5758.71 -2.3108 -1.88165 0
M  V30 60587 H 5756.24 -1.14806 -0.919672 0
M  V30 60588 H 5758.2 -1.07418 -4.03134 0
M  V30 60589 H 5756.83 -0.275356 -3.21623 0
M  V30 60590 H 5755.88 -2.64648 -2.7325 0
M  V30 60591 H 5757.19 -3.30924 -3.73217 0
M  V30 60592 H 5756.35 -2.03702 -5.71481 0
M  V30 60593 H 5755.09 -1.26983 -4.70879 0
M  V30 60594 H 5754.09 -3.52255 -4.22133 0
M  V30 60595 H 5755.32 -4.29336 -5.26163 0
M  V30 60596 H 5753.26 -2.23958 -6.16586 0
M  V30 60597 H 5753.18 -3.94769 -6.44743 0
M  V30 60598 H 5754.45 -3.01688 -7.18752 0
M  V30 60599 N 5758.68 0.980321 -1.234 0
M  V30 60600 C 5759.92 1.72162 -1.06613 0
M  V30 60601 C 5760.25 1.90406 0.396962 0
M  V30 60602 O 5759.51 1.45368 1.31021 0
M  V30 60603 C 5759.81 3.12361 -1.73682 0
M  V30 60604 C 5759.47 3.13995 -3.23601 0
M  V30 60605 C 5758.13 3.14149 -3.64505 0
M  V30 60606 C 5760.49 3.09304 -4.195 0
M  V30 60607 C 5757.81 3.07328 -4.99767 0
M  V30 60608 C 5760.17 3.04025 -5.54754 0
M  V30 60609 C 5758.83 3.025 -5.95021 0
M  V30 60610 H 5758.1 0.629986 -0.390126 0
M  V30 60611 H 5760.75 1.14721 -1.53334 0
M  V30 60612 H 5759.05 3.73188 -1.19321 0
M  V30 60613 H 5760.75 3.68487 -1.58172 0
M  V30 60614 H 5757.34 3.14633 -2.91039 0
M  V30 60615 H 5761.52 3.08325 -3.88908 0
M  V30 60616 H 5756.78 3.045 -5.30179 0
M  V30 60617 H 5760.95 2.99352 -6.28778 0
M  V30 60618 H 5758.58 2.9697 -6.99795 0
M  V30 60619 N 5760.16 1.04571 1.17909 0
M  V30 60620 C 5761.4 0.753203 1.88294 0
M  V30 60621 C 5761.73 -0.717588 1.80456 0
M  V30 60622 O 5761.01 -1.52415 1.2083 0
M  V30 60623 C 5761.29 1.22638 3.38573 0
M  V30 60624 C 5761.15 2.75964 3.55195 0
M  V30 60625 C 5762.46 0.820442 4.32385 0
M  V30 60626 H 5759.58 0.275091 0.683735 0
M  V30 60627 H 5762.23 1.29861 1.38694 0
M  V30 60628 H 5760.38 0.76238 3.80946 0
M  V30 60629 H 5762.05 3.3044 3.21881 0
M  V30 60630 H 5760.29 3.15544 2.97682 0
M  V30 60631 H 5760.96 3.04132 4.6066 0
M  V30 60632 H 5763.44 1.21979 3.97819 0
M  V30 60633 H 5762.31 1.17921 5.36084 0
M  V30 60634 H 5762.57 -0.27605 4.41237 0
M  V30 60635 N 5761.63 -1.34228 0.82587 0
M  V30 60636 C 5762.86 -2.02948 0.427426 0
M  V30 60637 C 5763.28 -1.61776 -0.959699 0
M  V30 60638 O 5762.64 -0.803856 -1.62505 0
M  V30 60639 C 5762.69 -3.5652 0.540924 0
M  V30 60640 O 5761.79 -4.10067 -0.438069 0
M  V30 60641 H 5761.13 -0.640371 0.175557 0
M  V30 60642 H 5763.66 -1.71412 1.1171 0
M  V30 60643 H 5763.67 -4.05855 0.417773 0
M  V30 60644 H 5762.35 -3.85833 1.5526 0
M  V30 60645 H 5760.93 -3.71895 -0.273556 0
M  V30 60646 N 5763.11 -0.581102 -1.46496 0
M  V30 60647 C 5764.04 0.140875 -2.33075 0
M  V30 60648 C 5765.02 0.885272 -1.45248 0
M  V30 60649 O 5766.21 0.861048 -1.74068 0
M  V30 60650 C 5763.34 1.15613 -3.27492 0
M  V30 60651 C 5762.29 0.526679 -4.24747 0
M  V30 60652 C 5761.62 1.64829 -5.0866 0
M  V30 60653 C 5762.92 -0.535103 -5.19552 0
M  V30 60654 H 5764.61 -0.581991 -2.93689 0
M  V30 60655 H 5762.16 -0.281328 -1.41225 0
M  V30 60656 H 5764.11 1.66956 -3.86915 0
M  V30 60657 H 5762.83 1.90926 -2.64981 0
M  V30 60658 H 5761.49 0.034345 -3.66584 0
M  V30 60659 H 5761.14 2.39104 -4.42536 0
M  V30 60660 H 5760.84 1.23277 -5.74523 0
M  V30 60661 H 5762.37 2.16452 -5.70948 0
M  V30 60662 H 5763.78 -0.106807 -5.732 0
M  V30 60663 H 5762.18 -0.870848 -5.93748 0
M  V30 60664 H 5763.25 -1.422 -4.63581 0
M  V30 60665 N 5764.59 1.54342 -0.318797 0
M  V30 60666 C 5765.84 2.00481 0.285206 0
M  V30 60667 C 5766.17 1.20703 1.52516 0
M  V30 60668 O 5765.42 0.275961 1.93745 0
M  V30 60669 C 5765.72 3.51082 0.669058 0
M  V30 60670 C 5765.39 4.48431 -0.471175 0
M  V30 60671 C 5764.05 4.74768 -0.784152 0
M  V30 60672 C 5766.4 5.063 -1.23732 0
M  V30 60673 C 5763.73 5.56232 -1.86609 0
M  V30 60674 C 5766.08 5.88943 -2.30931 0
M  V30 60675 C 5764.74 6.13583 -2.62816 0
M  V30 60676 H 5764.01 0.733614 0.104364 0
M  V30 60677 H 5766.66 1.86339 -0.441587 0
M  V30 60678 H 5764.97 3.62926 1.4762 0
M  V30 60679 H 5766.66 3.8422 1.14787 0
M  V30 60680 H 5763.25 4.2805 -0.217154 0
M  V30 60681 H 5767.44 4.85939 -1.00879 0
M  V30 60682 H 5762.69 5.73555 -2.11764 0
M  V30 60683 H 5766.87 6.32804 -2.90744 0
M  V30 60684 H 5764.49 6.76496 -3.46781 0
M  V30 60685 N 5766.07 0.0468696 1.5753 0
M  V30 60686 C 5767.03 -0.914151 2.10181 0
M  V30 60687 C 5768.03 -1.24268 1.0205 0
M  V30 60688 O 5769.22 -1.18007 1.2814 0
M  V30 60689 C 5766.35 -2.22535 2.58246 0
M  V30 60690 H 5767.55 -0.457818 2.96385 0
M  V30 60691 H 5765.1 -0.201465 1.54996 0
M  V30 60692 H 5765.83 -2.72759 1.75423 0
M  V30 60693 H 5765.62 -1.99995 3.3726 0
M  V30 60694 H 5767.11 -2.91382 2.99143 0
M  V30 60695 N 5767.55 -1.55964 -0.226472 0
M  V30 60696 C 5768.77 -1.82827 -0.968609 0
M  V30 60697 C 5769.19 -0.625344 -1.78143 0
M  V30 60698 O 5768.55 0.406108 -1.77924 0
M  V30 60699 C 5768.6 -3.0815 -1.89013 0
M  V30 60700 O 5768.32 -4.238 -1.11017 0
M  V30 60701 C 5769.82 -3.47963 -2.74657 0
M  V30 60702 H 5767.04 -0.607886 -0.284104 0
M  V30 60703 H 5769.58 -2.03049 -0.243186 0
M  V30 60704 H 5767.74 -2.89917 -2.56957 0
M  V30 60705 H 5768.15 -4.94963 -1.73529 0
M  V30 60706 H 5769.63 -4.38702 -3.35029 0
M  V30 60707 H 5770.1 -2.69488 -3.46804 0
M  V30 60708 H 5770.71 -3.68618 -2.12134 0
M  V30 60709 N 5769.02 0.492978 -1.49691 0
M  V30 60710 C 5769.95 1.60209 -1.69868 0
M  V30 60711 C 5770.94 1.61051 -0.547419 0
M  V30 60712 O 5772.12 1.77664 -0.784155 0
M  V30 60713 C 5769.25 2.98656 -1.77263 0
M  V30 60714 C 5768.2 3.1268 -2.92259 0
M  V30 60715 C 5767.53 4.52557 -2.84774 0
M  V30 60716 C 5768.83 2.9195 -4.33085 0
M  V30 60717 H 5770.52 1.43578 -2.62728 0
M  V30 60718 H 5768.07 0.68929 -1.26431 0
M  V30 60719 H 5770.02 3.76154 -1.89964 0
M  V30 60720 H 5768.75 3.16394 -0.810088 0
M  V30 60721 H 5767.41 2.37609 -2.79173 0
M  V30 60722 H 5767.05 4.67183 -1.86411 0
M  V30 60723 H 5766.75 4.6288 -3.61961 0
M  V30 60724 H 5768.28 5.32105 -2.99494 0
M  V30 60725 H 5769.69 3.59212 -4.4681 0
M  V30 60726 H 5768.09 3.13738 -5.11555 0
M  V30 60727 H 5769.16 1.87999 -4.46972 0
M  V30 60728 N 5770.5 1.38901 0.744607 0
M  V30 60729 C 5771.44 1.31235 1.86689 0
M  V30 60730 C 5772.41 0.187724 1.61513 0
M  V30 60731 O 5773.6 0.366562 1.84902 0
M  V30 60732 C 5770.72 1.03552 3.22482 0
M  V30 60733 C 5769.77 2.18074 3.66532 0
M  V30 60734 S 5770.6 3.80285 3.7702 0
M  V30 60735 C 5771.76 3.54808 5.15618 0
M  V30 60736 H 5771.99 2.26218 1.92906 0
M  V30 60737 H 5769.53 1.24842 0.9085 0
M  V30 60738 H 5771.48 0.882645 4.00899 0
M  V30 60739 H 5770.14 0.102722 3.13932 0
M  V30 60740 H 5769.34 1.94273 4.65053 0
M  V30 60741 H 5768.94 2.29515 2.95294 0
M  V30 60742 H 5771.23 3.11478 6.01654 0
M  V30 60743 H 5772.17 4.52755 5.44444 0
M  V30 60744 H 5772.58 2.8912 4.8484 0
M  V30 60745 N 5771.98 -0.973763 1.23918 0
M  V30 60746 C 5773.21 -1.75103 1.10212 0
M  V30 60747 C 5773.62 -1.85605 -0.34587 0
M  V30 60748 O 5772.98 -1.34001 -1.23895 0
M  V30 60749 C 5773.03 -3.1746 1.72921 0
M  V30 60750 O 5772.75 -3.07493 3.12057 0
M  V30 60751 C 5774.25 -4.11551 1.64744 0
M  V30 60752 H 5771.47 -0.549304 0.385365 0
M  V30 60753 H 5774.02 -1.22295 1.63903 0
M  V30 60754 H 5772.17 -3.67272 1.23247 0
M  V30 60755 H 5772.59 -3.97157 3.42589 0
M  V30 60756 H 5774.06 -5.09118 2.13313 0
M  V30 60757 H 5774.54 -4.34978 0.607505 0
M  V30 60758 H 5775.14 -3.67645 2.13815 0
M  V30 60759 N 5773.46 -1.05195 -1.17353 0
M  V30 60760 C 5774.71 -0.76205 -1.87614 0
M  V30 60761 C 5775.03 0.710912 -1.81042 0
M  V30 60762 O 5774.29 1.53562 -1.21315 0
M  V30 60763 C 5774.59 -1.18791 -3.37081 0
M  V30 60764 C 5774.25 -2.66309 -3.63855 0
M  V30 60765 C 5772.92 -3.06607 -3.70872 0
M  V30 60766 C 5775.27 -3.61635 -3.75326 0
M  V30 60767 C 5772.6 -4.41094 -3.8685 0
M  V30 60768 C 5774.95 -4.95856 -3.92823 0
M  V30 60769 C 5773.61 -5.35807 -3.98079 0
M  V30 60770 H 5772.88 -0.278854 -0.686529 0
M  V30 60771 H 5775.53 -1.31904 -1.3883 0
M  V30 60772 H 5773.83 -0.549919 -3.87922 0
M  V30 60773 H 5775.53 -0.940804 -3.89807 0
M  V30 60774 H 5772.12 -2.34102 -3.59019 0
M  V30 60775 H 5776.3 -3.31641 -3.69226 0
M  V30 60776 H 5771.56 -4.7155 -3.89167 0
M  V30 60777 H 5775.73 -5.69614 -4.00641 0
M  V30 60778 H 5773.36 -6.40024 -4.10212 0
M  V30 60779 N 5774.94 1.33788 -0.832977 0
M  V30 60780 C 5776.16 2.02718 -0.438182 0
M  V30 60781 C 5776.59 1.62282 0.951106 0
M  V30 60782 O 5775.94 0.812463 1.62076 0
M  V30 60783 C 5775.99 3.56228 -0.559824 0
M  V30 60784 O 5775.1 4.10293 0.416316 0
M  V30 60785 H 5774.44 0.639431 -0.178951 0
M  V30 60786 H 5776.97 1.70817 -1.12618 0
M  V30 60787 H 5776.98 4.05628 -0.43929 0
M  V30 60788 H 5775.65 3.85004 -1.57304 0
M  V30 60789 H 5774.23 3.72035 0.253829 0
M  V30 60790 N 5776.41 0.588863 1.46185 0
M  V30 60791 C 5777.66 0.0766475 2.01955 0
M  V30 60792 C 5777.98 -1.29029 1.46207 0
M  V30 60793 O 5777.25 -1.84833 0.649109 0
M  V30 60794 H 5775.83 0.0253443 0.74657 0
M  V30 60795 H 5778.5 0.766034 1.79215 0
M  V30 60796 H 5777.59 0.0122799 3.12098 0
M  V30 60797 N 5777.89 -1.54171 0.326977 0
M  V30 60798 C 5778.84 -2.25933 -0.552917 0
M  V30 60799 C 5779.83 -1.27467 -1.11574 0
M  V30 60800 O 5781.04 -1.45232 -1.06338 0
M  V30 60801 H 5777.42 -0.725748 -0.196962 0
M  V30 60802 H 5779.39 -2.98307 0.0745652 0
M  V30 60803 C 5778.14 -3.03282 -1.70045 0
M  V30 60804 H 5777.46 -3.7887 -1.27663 0
M  V30 60805 H 5778.9 -3.56735 -2.29164 0
M  V30 60806 C 5777.36 -2.11785 -2.62009 0
M  V30 60807 O 5777.89 -1.70295 -3.63816 0
M  V30 60808 N 5776.09 -1.77203 -2.3032 0
M  V30 60809 H 5775.64 -2.1114 -1.47573 0
M  V30 60810 H 5775.6 -1.16263 -2.92113 0
M  V30 60811 N 5779.37 -0.0552232 -1.57503 0
M  V30 60812 C 5780.62 0.618568 -1.93136 0
M  V30 60813 C 5780.95 1.70255 -0.934185 0
M  V30 60814 O 5780.23 1.9446 0.0392015 0
M  V30 60815 C 5780.51 1.21091 -3.3913 0
M  V30 60816 C 5780.36 0.134707 -4.49598 0
M  V30 60817 C 5781.68 2.12135 -3.85599 0
M  V30 60818 H 5778.8 0.223391 -0.702329 0
M  V30 60819 H 5781.44 -0.117814 -1.89634 0
M  V30 60820 H 5779.59 1.8385 -3.42245 0
M  V30 60821 H 5781.26 -0.497453 -4.5861 0
M  V30 60822 H 5779.51 -0.536738 -4.30467 0
M  V30 60823 H 5780.18 0.589254 -5.48846 0
M  V30 60824 H 5782.65 1.59332 -3.84386 0
M  V30 60825 H 5781.53 2.50522 -4.88395 0
M  V30 60826 H 5781.79 3.02306 -3.22588 0
M  V30 60827 N 5780.85 1.56082 0.218198 0
M  V30 60828 C 5782.13 1.70046 0.966625 0
M  V30 60829 C 5782.51 0.603443 2.02291 0
M  V30 60830 O 5781.85 -0.389059 2.25163 0
M  V30 60831 C 5782.06 3.11489 1.57402 0
M  V30 60832 C 5783.41 3.71003 2.065 0
M  V30 60833 O 5784.44 3.14472 1.6729 0
M  V30 60834 O 5783.3 4.70166 2.78579 0
M  V30 60835 H 5780.39 0.692706 0.45176 0
M  V30 60836 H 5782.94 1.68399 0.209715 0
M  V30 60837 H 5781.71 3.82793 0.81148 0
M  V30 60838 H 5781.33 3.17268 2.39639 0
M  V30 60839 N 5782.33 -0.485033 1.49951 0
M  V30 60840 C 5783.26 -1.59306 1.70716 0
M  V30 60841 C 5784.24 -1.60758 0.555952 0
M  V30 60842 O 5785.42 -1.77246 0.793566 0
M  V30 60843 C 5782.55 -2.97711 1.78844 0
M  V30 60844 C 5781.51 -3.11126 2.93913 0
M  V30 60845 C 5780.83 -4.51041 2.8717 0
M  V30 60846 C 5782.13 -2.89649 4.34627 0
M  V30 60847 H 5783.83 -1.42182 2.63485 0
M  V30 60848 H 5781.37 -0.682575 1.26795 0
M  V30 60849 H 5783.33 -3.75141 1.91956 0
M  V30 60850 H 5782.05 -3.1596 0.826855 0
M  V30 60851 H 5780.71 -2.36125 2.80429 0
M  V30 60852 H 5780.36 -4.66188 1.88886 0
M  V30 60853 H 5780.06 -4.60954 3.6441 0
M  V30 60854 H 5781.58 -5.30509 3.02311 0
M  V30 60855 H 5783 -3.56838 4.48709 0
M  V30 60856 H 5781.39 -3.11021 5.13212 0
M  V30 60857 H 5782.46 -1.85626 4.47963 0
M  V30 60858 N 5783.81 -1.39293 -0.73723 0
M  V30 60859 C 5785.08 -1.26906 -1.48843 0
M  V30 60860 C 5785.46 0.122343 -2.10745 0
M  V30 60861 O 5784.81 1.13336 -1.98412 0
M  V30 60862 C 5785.02 -2.39169 -2.54164 0
M  V30 60863 C 5786.37 -2.78379 -3.20609 0
M  V30 60864 O 5787.39 -2.38602 -2.64476 0
M  V30 60865 O 5786.25 -3.47029 -4.22176 0
M  V30 60866 H 5783.35 -0.497199 -0.660849 0
M  V30 60867 H 5785.89 -1.51162 -0.771246 0
M  V30 60868 H 5784.66 -3.32198 -2.06786 0
M  V30 60869 H 5784.29 -2.16566 -3.33444 0
M  V30 60870 N 5785.28 0.967178 -1.24432 0
M  V30 60871 C 5786.25 2.0434 -1.03816 0
M  V30 60872 C 5787.25 1.60799 0.0047132 0
M  V30 60873 O 5788.44 1.7259 -0.236301 0
M  V30 60874 C 5785.57 3.36039 -0.573614 0
M  V30 60875 H 5786.76 2.24063 -1.99338 0
M  V30 60876 H 5784.31 1.14249 -1.06662 0
M  V30 60877 H 5785.05 3.22009 0.384785 0
M  V30 60878 H 5784.83 3.68987 -1.32632 0
M  V30 60879 H 5786.32 4.15164 -0.450418 0
M  V30 60880 N 5786.76 1.05816 1.16794 0
M  V30 60881 C 5787.69 0.685856 2.232 0
M  V30 60882 C 5788.67 -0.319369 1.67075 0
M  V30 60883 O 5789.86 -0.195567 1.93213 0
M  V30 60884 C 5786.99 0.0664179 3.47236 0
M  V30 60885 C 5785.94 0.997089 4.16224 0
M  V30 60886 C 5785.27 0.241203 5.34156 0
M  V30 60887 C 5786.57 2.32401 4.67747 0
M  V30 60888 H 5788.26 1.57544 2.54598 0
M  V30 60889 H 5785.81 0.758952 1.22376 0
M  V30 60890 H 5787.76 -0.205876 4.20897 0
M  V30 60891 H 5786.48 -0.858153 3.15124 0
M  V30 60892 H 5785.14 1.25405 3.44484 0
M  V30 60893 H 5784.79 -0.686332 4.98296 0
M  V30 60894 H 5784.49 0.861392 5.81252 0
M  V30 60895 H 5786.02 -0.0236593 6.10595 0
M  V30 60896 H 5787.43 2.11117 5.33013 0
M  V30 60897 H 5785.83 2.89873 5.25446 0
M  V30 60898 H 5786.9 2.95814 3.84216 0
M  V30 60899 N 5788.24 -1.33344 0.84006 0
M  V30 60900 C 5789.2 -2.27491 0.279344 0
M  V30 60901 C 5790.2 -1.51006 -0.552616 0
M  V30 60902 O 5791.39 -1.70307 -0.366235 0
M  V30 60903 C 5788.52 -3.35464 -0.606349 0
M  V30 60904 H 5789.72 -2.78597 1.11011 0
M  V30 60905 H 5787.27 -1.43767 0.613238 0
M  V30 60906 H 5788.01 -2.89601 -1.4595 0
M  V30 60907 H 5787.79 -3.92098 -0.0110511 0
M  V30 60908 H 5789.28 -4.05649 -0.99191 0
M  V30 60909 N 5789.72 -0.596607 -1.45871 0
M  V30 60910 C 5790.94 -0.0917194 -2.07197 0
M  V30 60911 C 5791.37 1.20999 -1.44017 0
M  V30 60912 O 5790.73 1.73414 -0.528905 0
M  V30 60913 C 5790.77 0.0460189 -3.60571 0
M  V30 60914 O 5789.88 1.09905 -3.97485 0
M  V30 60915 H 5789.22 -0.0690887 -0.660396 0
M  V30 60916 H 5791.75 -0.823499 -1.87296 0
M  V30 60917 H 5791.76 0.247757 -4.07247 0
M  V30 60918 H 5790.43 -0.904523 -4.05945 0
M  V30 60919 H 5789.01 0.87466 -3.62497 0
M  V30 60920 N 5791.2 1.53995 -0.335149 0
M  V30 60921 C 5792.47 1.92985 0.31878 0
M  V30 60922 C 5792.85 1.26591 1.68932 0
M  V30 60923 O 5792.2 0.413781 2.24722 0
M  V30 60924 C 5792.41 3.46707 0.399446 0
M  V30 60925 C 5793.76 4.19529 0.654264 0
M  V30 60926 O 5794.78 3.52925 0.481902 0
M  V30 60927 O 5793.64 5.37503 0.987567 0
M  V30 60928 H 5790.74 0.806209 0.184272 0
M  V30 60929 H 5793.28 1.65258 -0.385712 0
M  V30 60930 H 5792.05 3.87233 -0.562666 0
M  V30 60931 H 5791.68 3.80574 1.15106 0
M  V30 60932 N 5792.67 0.0635752 1.57472 0
M  V30 60933 C 5793.92 -0.606941 1.92352 0
M  V30 60934 C 5794.24 -1.71265 0.944867 0
M  V30 60935 O 5795.44 -2.44217 1.18618 0
M  V30 60936 C 5793.9 -1.13093 3.41669 0
M  V30 60937 C 5793.51 -0.0566681 4.47964 0
M  V30 60938 C 5795.25 -1.77598 3.85564 0
M  V30 60939 C 5793.16 -0.594236 5.88407 0
M  V30 60940 H 5792.09 -0.230481 0.71791 0
M  V30 60941 H 5794.74 0.134478 1.83007 0
M  V30 60942 H 5793.12 -1.92505 3.4606 0
M  V30 60943 H 5794.29 0.717532 4.55179 0
M  V30 60944 H 5792.61 0.491662 4.13487 0
M  V30 60945 H 5795.21 -2.18835 4.87868 0
M  V30 60946 H 5795.55 -2.63269 3.22483 0
M  V30 60947 H 5796.08 -1.04821 3.83741 0
M  V30 60948 H 5792.82 0.225123 6.55113 0
M  V30 60949 H 5792.34 -1.33614 5.84728 0
M  V30 60950 H 5794.02 -1.07324 6.38037 0
M  V30 60951 N 5794.15 -1.56196 -0.209917 0
M  V30 60952 C 5795.4 -1.79748 -0.932575 0
M  V30 60953 C 5795.73 -0.634316 -1.83866 0
M  V30 60954 O 5794.98 0.380731 -1.91961 0
M  V30 60955 C 5795.28 -3.0916 -1.79317 0
M  V30 60956 C 5794.95 -4.38758 -1.03933 0
M  V30 60957 C 5793.61 -4.73968 -0.831141 0
M  V30 60958 C 5795.96 -5.1872 -0.507848 0
M  V30 60959 C 5793.29 -5.86646 -0.0797485 0
M  V30 60960 C 5795.64 -6.32181 0.230259 0
M  V30 60961 C 5794.31 -6.65984 0.4496 0
M  V30 60962 H 5793.58 -0.657744 -0.341253 0
M  V30 60963 H 5796.22 -1.90453 -0.199931 0
M  V30 60964 H 5794.53 -2.93627 -2.59404 0
M  V30 60965 H 5796.22 -3.24587 -2.35466 0
M  V30 60966 H 5792.81 -4.11118 -1.21159 0
M  V30 60967 H 5797 -4.91944 -0.656133 0
M  V30 60968 H 5792.25 -6.11318 0.100307 0
M  V30 60969 H 5796.43 -6.93364 0.64954 0
M  V30 60970 H 5794.06 -7.53139 1.03375 0
M  V30 60971 N 5795.63 0.477074 -1.50206 0
M  V30 60972 C 5796.91 1.23832 -1.5141 0
M  V30 60973 C 5797.29 2.0955 -0.255352 0
M  V30 60974 O 5796.64 2.15439 0.761459 0
M  V30 60975 C 5796.85 2.07451 -2.80652 0
M  V30 60976 C 5798.19 2.65841 -3.3108 0
M  V30 60977 O 5799.22 2.17698 -2.81932 0
M  V30 60978 O 5798.08 3.53541 -4.16738 0
M  V30 60979 H 5795.17 0.561616 -0.607055 0
M  V30 60980 H 5797.72 0.489385 -1.6249 0
M  V30 60981 H 5796.49 1.44246 -3.63743 0
M  V30 60982 H 5796.11 2.8949 -2.72546 0
M  V30 60983 N 5797.11 1.39683 0.729833 0
M  V30 60984 C 5798.34 1.40472 1.51905 0
M  V30 60985 C 5798.75 0.000596315 1.888 0
M  V30 60986 O 5798.11 -0.972018 1.54461 0
M  V30 60987 C 5798.16 2.28239 2.80337 0
M  V30 60988 O 5797.88 3.63185 2.45007 0
M  V30 60989 C 5799.38 2.37468 3.74331 0
M  V30 60990 H 5796.6 0.47962 0.46926 0
M  V30 60991 H 5799.15 1.83561 0.901419 0
M  V30 60992 H 5797.3 1.8855 3.38419 0
M  V30 60993 H 5797.71 4.09651 3.27546 0
M  V30 60994 H 5799.19 3.03117 4.61329 0
M  V30 60995 H 5799.67 1.39539 4.16444 0
M  V30 60996 H 5800.27 2.77649 3.22166 0
M  V30 60997 N 5798.59 -0.960565 1.24944 0
M  V30 60998 C 5800 -1.51911 1.08536 0
M  V30 60999 C 5800.35 -1.93216 -0.340881 0
M  V30 61000 O 5799.47 -1.78035 -1.23014 0
M  V30 61001 C 5800.07 -2.76062 1.96406 0
M  V30 61002 C 5798.63 -3.28249 1.84201 0
M  V30 61003 C 5797.77 -2.01117 1.90912 0
M  V30 61004 H 5800.73 -0.778093 1.38316 0
M  V30 61005 H 5800.75 -3.49663 1.50054 0
M  V30 61006 H 5800.26 -2.45968 3.00202 0
M  V30 61007 H 5798.36 -3.63177 0.832646 0
M  V30 61008 H 5798.47 -3.96666 2.68687 0
M  V30 61009 H 5796.84 -2.16151 1.34726 0
M  V30 61010 H 5797.62 -1.73379 2.96302 0
M  V30 61011 N 5800.06 -1.06434 -1.16231 0
M  V30 61012 C 5801.29 -0.802739 -1.91235 0
M  V30 61013 C 5801.71 0.637159 -1.7698 0
M  V30 61014 O 5801.07 1.44415 -1.09608 0
M  V30 61015 C 5801.12 -1.20401 -3.39906 0
M  V30 61016 O 5800.22 -0.34366 -4.10966 0
M  V30 61017 H 5799.57 -0.293251 -0.595735 0
M  V30 61018 H 5802.1 -1.42051 -1.4725 0
M  V30 61019 H 5802.11 -1.17618 -3.90679 0
M  V30 61020 H 5800.78 -2.25283 -3.49601 0
M  V30 61021 H 5799.36 -0.433182 -3.70375 0
M  V30 61022 N 5801.54 1.32897 -0.84712 0
M  V30 61023 C 5802.79 1.97801 -0.447486 0
M  V30 61024 C 5803.12 1.66914 0.992641 0
M  V30 61025 O 5802.4 0.953375 1.69532 0
M  V30 61026 C 5802.68 3.53655 -0.678259 0
M  V30 61027 C 5802.53 3.942 -2.16626 0
M  V30 61028 C 5803.85 4.39909 -0.129744 0
M  V30 61029 H 5800.97 0.718508 -0.164059 0
M  V30 61030 H 5803.61 1.57403 -1.06416 0
M  V30 61031 H 5801.76 3.88197 -0.153359 0
M  V30 61032 H 5803.43 3.69873 -2.75666 0
M  V30 61033 H 5801.68 3.43631 -2.64764 0
M  V30 61034 H 5802.35 5.02783 -2.27845 0
M  V30 61035 H 5804.82 4.12059 -0.578516 0
M  V30 61036 H 5803.7 5.47962 -0.32084 0
M  V30 61037 H 5803.96 4.31395 0.967016 0
M  V30 61038 N 5803.02 0.604335 1.45553 0
M  V30 61039 C 5803.95 -0.103777 2.33269 0
M  V30 61040 C 5804.93 -0.862052 1.46638 0
M  V30 61041 O 5806.12 -0.833247 1.75416 0
M  V30 61042 C 5803.25 -1.10389 3.2929 0
M  V30 61043 C 5802.2 -0.459039 4.25531 0
M  V30 61044 C 5801.53 -1.56716 5.11218 0
M  V30 61045 C 5802.83 0.617691 5.18635 0
M  V30 61046 H 5804.52 0.628641 2.92726 0
M  V30 61047 H 5802.07 0.30376 1.4076 0
M  V30 61048 H 5804.02 -1.6078 3.89523 0
M  V30 61049 H 5802.74 -1.86686 2.67985 0
M  V30 61050 H 5801.4 0.0239797 3.66592 0
M  V30 61051 H 5801.05 -2.32033 4.46284 0
M  V30 61052 H 5800.75 -1.14122 5.76411 0
M  V30 61053 H 5802.27 -2.07341 5.74319 0
M  V30 61054 H 5803.69 0.197985 5.72958 0
M  V30 61055 H 5802.09 0.965198 5.92287 0
M  V30 61056 H 5803.16 1.49557 4.6126 0
M  V30 61057 N 5804.5 -1.53815 0.343311 0
M  V30 61058 C 5805.43 -2.22554 -0.547936 0
M  V30 61059 C 5806.44 -1.23206 -1.06415 0
M  V30 61060 O 5807.63 -1.49562 -0.974341 0
M  V30 61061 C 5804.73 -2.89203 -1.76677 0
M  V30 61062 C 5803.91 -4.14864 -1.38589 0
M  V30 61063 C 5802.96 -4.64925 -2.46437 0
M  V30 61064 O 5801.99 -5.29143 -2.09754 0
M  V30 61065 N 5803.19 -4.40833 -3.77686 0
M  V30 61066 H 5805.96 -2.99672 0.0407504 0
M  V30 61067 H 5803.52 -1.61032 0.167424 0
M  V30 61068 H 5805.51 -3.1961 -2.48257 0
M  V30 61069 H 5804.08 -2.15672 -2.26283 0
M  V30 61070 H 5803.3 -3.91005 -0.500863 0
M  V30 61071 H 5804.59 -4.96603 -1.10739 0
M  V30 61072 H 5803.99 -3.89474 -4.10276 0
M  V30 61073 H 5802.54 -4.75846 -4.45437 0
M  V30 61074 N 5805.98 -0.0719254 -1.57436 0
M  V30 61075 C 5806.94 0.880597 -2.11608 0
M  V30 61076 C 5807.94 1.22628 -1.04014 0
M  V30 61077 O 5809.13 1.15954 -1.30001 0
M  V30 61078 C 5806.26 2.18398 -2.61754 0
M  V30 61079 H 5807.45 0.410607 -2.97076 0
M  V30 61080 H 5805.01 0.176781 -1.55297 0
M  V30 61081 H 5805.74 2.69933 -1.7974 0
M  V30 61082 H 5805.53 1.94604 -3.40399 0
M  V30 61083 H 5807.02 2.86586 -3.03741 0
M  V30 61084 N 5807.45 1.56305 0.201631 0
M  V30 61085 C 5808.68 1.84344 0.9394 0
M  V30 61086 C 5809.1 0.653606 1.77125 0
M  V30 61087 O 5808.45 -0.37775 1.78548 0
M  V30 61088 C 5808.51 3.11118 1.84087 0
M  V30 61089 O 5808.23 4.25513 1.04261 0
M  V30 61090 C 5809.73 3.52289 2.69087 0
M  V30 61091 H 5806.95 0.612329 0.274397 0
M  V30 61092 H 5809.49 2.0341 0.210852 0
M  V30 61093 H 5807.65 2.93969 2.52312 0
M  V30 61094 H 5808.06 4.97661 1.65632 0
M  V30 61095 H 5809.53 4.43977 3.28007 0
M  V30 61096 H 5810.01 2.74971 3.42473 0
M  V30 61097 H 5810.62 3.71946 2.06243 0
M  V30 61098 N 5808.93 -0.469102 1.50457 0
M  V30 61099 C 5809.86 -1.57486 1.72396 0
M  V30 61100 C 5810.84 -1.60159 0.572971 0
M  V30 61101 O 5812.03 -1.76394 0.812321 0
M  V30 61102 C 5809.16 -2.95798 1.81992 0
M  V30 61103 C 5808.11 -3.07991 2.97196 0
M  V30 61104 C 5807.44 -4.47969 2.91937 0
M  V30 61105 C 5808.74 -2.85023 4.37675 0
M  V30 61106 H 5810.43 -1.3938 2.64979 0
M  V30 61107 H 5807.98 -0.669089 1.27512 0
M  V30 61108 H 5809.93 -3.73084 1.95924 0
M  V30 61109 H 5808.66 -3.15065 0.860321 0
M  V30 61110 H 5807.32 -2.33138 2.82918 0
M  V30 61111 H 5806.96 -4.64158 1.9382 0
M  V30 61112 H 5806.66 -4.57063 3.69279 0
M  V30 61113 H 5808.19 -5.27273 3.07921 0
M  V30 61114 H 5809.6 -3.52058 4.52469 0
M  V30 61115 H 5808 -3.0556 5.16482 0
M  V30 61116 H 5809.07 -1.80865 4.49907 0
M  V30 61117 N 5810.41 -1.40068 -0.722415 0
M  V30 61118 C 5811.64 -1.41466 -1.51665 0
M  V30 61119 C 5812.06 -0.0143314 -1.88095 0
M  V30 61120 O 5811.42 0.97588 -1.52795 0
M  V30 61121 C 5811.47 -2.3054 -2.77279 0
M  V30 61122 O 5810.57 -1.74395 -3.73711 0
M  V30 61123 H 5809.91 -0.48121 -0.457529 0
M  V30 61124 H 5812.44 -1.84216 -0.890266 0
M  V30 61125 H 5812.45 -2.45491 -3.25881 0
M  V30 61126 H 5811.13 -3.32301 -2.50097 0
M  V30 61127 H 5809.7 -1.68755 -3.3253 0
M  V30 61128 N 5811.89 0.953925 -1.25451 0
M  V30 61129 C 5812.8 2.08448 -1.07641 0
M  V30 61130 C 5813.82 1.73995 -0.0133551 0
M  V30 61131 O 5814.99 2.00255 -0.214437 0
M  V30 61132 C 5812.06 3.39604 -0.697875 0
M  V30 61133 C 5811.12 3.87919 -1.83894 0
M  V30 61134 C 5810.35 5.12816 -1.47837 0
M  V30 61135 O 5810.57 5.6917 -0.374343 0
M  V30 61136 O 5809.51 5.55858 -2.3088 0
M  V30 61137 H 5813.33 2.26375 -2.02455 0
M  V30 61138 H 5810.92 1.06873 -1.04396 0
M  V30 61139 H 5812.8 4.18436 -0.498925 0
M  V30 61140 H 5811.48 3.22945 0.220995 0
M  V30 61141 H 5810.38 3.10088 -2.09276 0
M  V30 61142 H 5811.72 4.09078 -2.73708 0
M  V30 61143 N 5813.37 1.07049 1.15665 0
M  V30 61144 C 5814.61 0.791801 1.86378 0
M  V30 61145 C 5814.94 -0.68202 1.8215 0
M  V30 61146 O 5814.2 -1.51612 1.23743 0
M  V30 61147 C 5814.5 1.24139 3.35148 0
M  V30 61148 C 5814.16 2.72064 3.59572 0
M  V30 61149 C 5812.82 3.12468 3.65947 0
M  V30 61150 C 5815.18 3.6756 3.69525 0
M  V30 61151 C 5812.5 4.47193 3.79783 0
M  V30 61152 C 5814.86 5.02042 3.84885 0
M  V30 61153 C 5813.52 5.42073 3.89504 0
M  V30 61154 H 5812.79 0.28974 0.682005 0
M  V30 61155 H 5815.44 1.34096 1.36714 0
M  V30 61156 H 5813.74 0.611564 3.86998 0
M  V30 61157 H 5815.44 1.0027 3.88261 0
M  V30 61158 H 5812.03 2.39784 3.55249 0
M  V30 61159 H 5816.21 3.37473 3.63904 0
M  V30 61160 H 5811.47 4.77681 3.81616 0
M  V30 61161 H 5815.64 5.75916 3.91528 0
M  V30 61162 H 5813.27 6.46469 3.99978 0
M  V30 61163 N 5814.85 -1.32446 0.854156 0
M  V30 61164 C 5816.07 -2.01996 0.470378 0
M  V30 61165 C 5816.5 -1.63775 -0.925168 0
M  V30 61166 O 5815.85 -0.838145 -1.60763 0
M  V30 61167 C 5815.9 -3.55292 0.616425 0
M  V30 61168 O 5815.01 -4.10904 -0.350989 0
M  V30 61169 H 5814.35 -0.636504 0.189101 0
M  V30 61170 H 5816.88 -1.69004 1.15321 0
M  V30 61171 H 5816.89 -4.04878 0.503767 0
M  V30 61172 H 5815.56 -3.82453 1.63409 0
M  V30 61173 H 5814.14 -3.72392 -0.19461 0
M  V30 61174 N 5816.32 -0.612045 -1.4523 0
M  V30 61175 C 5817.27 0.125691 -2.27653 0
M  V30 61176 C 5818.26 0.834349 -1.37577 0
M  V30 61177 O 5819.45 0.723603 -1.61533 0
M  V30 61178 C 5816.58 1.11944 -3.24536 0
M  V30 61179 C 5815.66 0.411389 -4.221 0
M  V30 61180 N 5816.06 -0.549449 -5.02807 0
M  V30 61181 C 5814.35 0.658359 -4.41114 0
M  V30 61182 C 5815.05 -0.966037 -5.73622 0
M  V30 61183 N 5814.03 -0.30884 -5.42722 0
M  V30 61184 H 5817.83 -0.612216 -2.87453 0
M  V30 61185 H 5815.35 -0.436058 -1.56436 0
M  V30 61186 H 5817.34 1.6624 -3.82322 0
M  V30 61187 H 5816 1.85785 -2.66297 0
M  V30 61188 H 5817.01 -0.926401 -5.09547 0
M  V30 61189 H 5813.69 1.38111 -3.93995 0
M  V30 61190 H 5815.08 -1.75876 -6.48473 0
M  V30 61191 N 5817.8 1.53631 -0.351463 0
M  V30 61192 C 5818.73 2.28218 0.493829 0
M  V30 61193 C 5819.71 1.30089 1.09594 0
M  V30 61194 O 5820.9 1.58942 1.11585 0
M  V30 61195 C 5818.03 3.0609 1.64091 0
M  V30 61196 C 5816.98 4.1179 1.16675 0
M  V30 61197 C 5816.31 4.77663 2.40297 0
M  V30 61198 C 5817.61 5.21645 0.261559 0
M  V30 61199 H 5819.3 2.99125 -0.128405 0
M  V30 61200 H 5816.85 1.43861 -0.0631968 0
M  V30 61201 H 5818.8 3.57011 2.23877 0
M  V30 61202 H 5817.52 2.3285 2.29017 0
M  V30 61203 H 5816.18 3.61794 0.591657 0
M  V30 61204 H 5815.83 4.01008 3.03647 0
M  V30 61205 H 5815.53 5.4908 2.09249 0
M  V30 61206 H 5817.06 5.31371 3.00795 0
M  V30 61207 H 5818.47 5.68153 0.766489 0
M  V30 61208 H 5816.87 6.00085 0.0426023 0
M  V30 61209 H 5817.94 4.79818 -0.700168 0
M  V30 61210 N 5819.28 0.0802736 1.57395 0
M  V30 61211 C 5820.24 -0.869363 2.12072 0
M  V30 61212 C 5821.24 -1.22075 1.04663 0
M  V30 61213 O 5822.43 -1.15263 1.30614 0
M  V30 61214 C 5819.56 -2.17007 2.62908 0
M  V30 61215 H 5820.76 -0.394847 2.97289 0
M  V30 61216 H 5818.31 -0.168543 1.55389 0
M  V30 61217 H 5819.05 -2.68976 1.81169 0
M  V30 61218 H 5818.83 -1.92796 3.41426 0
M  V30 61219 H 5820.32 -2.84971 3.05256 0
M  V30 61220 N 5820.76 -1.5641 -0.193339 0
M  V30 61221 C 5821.99 -1.8484 -0.929611 0
M  V30 61222 C 5822.4 -0.66299 -1.76776 0
M  V30 61223 O 5821.76 0.368276 -1.78746 0
M  V30 61224 C 5821.81 -3.1209 -1.82434 0
M  V30 61225 O 5821.53 -4.2606 -1.02003 0
M  V30 61226 C 5823.03 -3.53711 -2.67214 0
M  V30 61227 H 5820.25 -0.613776 -0.271146 0
M  V30 61228 H 5822.79 -2.03519 -0.200062 0
M  V30 61229 H 5820.95 -2.95303 -2.50749 0
M  V30 61230 H 5821.36 -4.98532 -1.62991 0
M  V30 61231 H 5822.84 -4.4571 -3.25648 0
M  V30 61232 H 5823.31 -2.76783 -3.4101 0
M  V30 61233 H 5823.92 -3.73035 -2.04268 0
M  V30 61234 N 5822.24 0.461116 -1.50703 0
M  V30 61235 C 5823.48 1.21245 -1.62191 0
M  V30 61236 C 5823.81 1.91733 -0.326886 0
M  V30 61237 O 5823.07 1.83215 0.687814 0
M  V30 61238 C 5823.36 2.27203 -2.75887 0
M  V30 61239 C 5823.03 1.73897 -4.16018 0
M  V30 61240 C 5821.69 1.59081 -4.54144 0
M  V30 61241 C 5824.04 1.34459 -5.03558 0
M  V30 61242 C 5821.37 1.03264 -5.77541 0
M  V30 61243 C 5823.72 0.800807 -6.27511 0
M  V30 61244 C 5822.39 0.639353 -6.64431 0
M  V30 61245 H 5821.66 0.443668 -0.593498 0
M  V30 61246 H 5824.31 0.50697 -1.84667 0
M  V30 61247 H 5822.61 3.03698 -2.47537 0
M  V30 61248 H 5824.31 2.85114 -2.81977 0
M  V30 61249 H 5820.9 1.86399 -3.85945 0
M  V30 61250 H 5825.08 1.44736 -4.74726 0
M  V30 61251 H 5820.34 0.895103 -6.04812 0
M  V30 61252 H 5824.51 0.486598 -6.94698 0
M  V30 61253 H 5822.14 0.204699 -7.59924 0
M  V30 61254 N 5823.71 1.40449 0.714977 0
M  V30 61255 C 5824.68 1.40512 1.81077 0
M  V30 61256 C 5825.68 0.298824 1.57999 0
M  V30 61257 O 5826.87 0.557758 1.65029 0
M  V30 61258 C 5824 1.19746 3.19176 0
M  V30 61259 H 5825.19 2.38041 1.82419 0
M  V30 61260 H 5822.75 1.26306 0.920674 0
M  V30 61261 H 5823.48 0.229809 3.23485 0
M  V30 61262 H 5823.27 1.99882 3.37327 0
M  V30 61263 H 5824.76 1.2258 3.99204 0
M  V30 61264 N 5825.19 -0.947259 1.25955 0
M  V30 61265 C 5826.1 -2.07874 1.08745 0
M  V30 61266 C 5827.12 -1.73985 0.0225823 0
M  V30 61267 O 5828.29 -2.00139 0.225054 0
M  V30 61268 C 5825.36 -3.39229 0.715875 0
M  V30 61269 C 5824.42 -3.86939 1.85949 0
M  V30 61270 C 5823.65 -5.12024 1.50555 0
M  V30 61271 O 5823.88 -5.68964 0.404523 0
M  V30 61272 O 5822.81 -5.54626 2.33825 0
M  V30 61273 H 5826.64 -2.25298 2.03653 0
M  V30 61274 H 5824.22 -1.06318 1.04961 0
M  V30 61275 H 5826.1 -4.18166 0.521109 0
M  V30 61276 H 5824.78 -3.23057 -0.203865 0
M  V30 61277 H 5823.69 -3.08974 2.10917 0
M  V30 61278 H 5825.02 -4.07621 2.75874 0
M  V30 61279 N 5826.67 -1.07661 -1.15095 0
M  V30 61280 C 5827.6 -0.721279 -2.22081 0
M  V30 61281 C 5828.58 0.292749 -1.67562 0
M  V30 61282 O 5829.77 0.164804 -1.93499 0
M  V30 61283 C 5826.9 -0.121652 -3.47087 0
M  V30 61284 C 5825.85 -1.06318 -4.14585 0
M  V30 61285 C 5825.18 -0.326152 -5.33704 0
M  V30 61286 C 5826.48 -2.39813 -4.63991 0
M  V30 61287 H 5828.17 -1.61575 -2.52059 0
M  V30 61288 H 5825.72 -0.778325 -1.21153 0
M  V30 61289 H 5827.67 0.138889 -4.21171 0
M  V30 61290 H 5826.39 0.80791 -3.1645 0
M  V30 61291 H 5825.05 -1.3087 -3.42445 0
M  V30 61292 H 5824.7 0.606971 -4.99324 0
M  V30 61293 H 5824.4 -0.953756 -5.79808 0
M  V30 61294 H 5825.92 -0.0734841 -6.10556 0
M  V30 61295 H 5827.34 -2.1957 -5.29586 0
M  V30 61296 H 5825.74 -2.98196 -5.20768 0
M  V30 61297 H 5826.81 -3.01889 -3.79462 0
M  V30 61298 N 5828.15 1.31991 -0.861168 0
M  V30 61299 C 5829.06 2.32494 -0.313636 0
M  V30 61300 C 5830.07 1.64333 0.571908 0
M  V30 61301 O 5831.25 1.95822 0.470725 0
M  V30 61302 C 5828.32 3.43312 0.483482 0
M  V30 61303 C 5827.38 4.27151 -0.428975 0
M  V30 61304 C 5826.61 5.32678 0.330195 0
M  V30 61305 O 5826.83 5.48671 1.55938 0
M  V30 61306 O 5825.77 6.01115 -0.307385 0
M  V30 61307 H 5829.59 2.8123 -1.14646 0
M  V30 61308 H 5827.18 1.35731 -0.624287 0
M  V30 61309 H 5829.06 4.10881 0.935687 0
M  V30 61310 H 5827.73 2.96755 1.293 0
M  V30 61311 H 5826.64 3.62369 -0.929494 0
M  V30 61312 H 5827.97 4.77251 -1.20385 0
M  V30 61313 N 5829.63 0.619739 1.44903 0
M  V30 61314 C 5830.59 -0.0821559 2.29053 0
M  V30 61315 C 5831.59 -0.783378 1.40427 0
M  V30 61316 O 5832.78 -0.629694 1.62421 0
M  V30 61317 C 5829.91 -1.12674 3.21741 0
M  V30 61318 H 5831.1 0.657829 2.92596 0
M  V30 61319 H 5828.66 0.379339 1.51627 0
M  V30 61320 H 5829.39 -1.89708 2.63023 0
M  V30 61321 H 5829.18 -0.627986 3.87038 0
M  V30 61322 H 5830.67 -1.61795 3.84983 0
M  V30 61323 N 5831.1 -1.53442 0.359606 0
M  V30 61324 C 5832.07 -2.24174 -0.477333 0
M  V30 61325 C 5833.07 -1.24751 -1.01459 0
M  V30 61326 O 5834.26 -1.49072 -0.90129 0
M  V30 61327 C 5831.39 -2.97386 -1.66656 0
M  V30 61328 H 5832.58 -2.99566 0.141512 0
M  V30 61329 H 5830.14 -1.55904 0.111198 0
M  V30 61330 H 5830.87 -2.26222 -2.32366 0
M  V30 61331 H 5830.66 -3.7033 -1.28835 0
M  V30 61332 H 5832.15 -3.51173 -2.25981 0
M  V30 61333 N 5832.58 -0.0886195 -1.57351 0
M  V30 61334 C 5833.51 0.902543 -2.10682 0
M  V30 61335 C 5834.53 1.25033 -1.04262 0
M  V30 61336 O 5835.72 1.20458 -1.31728 0
M  V30 61337 C 5832.82 2.21353 -2.56624 0
M  V30 61338 C 5831.99 2.04206 -3.86806 0
M  V30 61339 C 5831.05 3.18759 -4.18664 0
M  V30 61340 O 5830.07 2.93007 -4.87991 0
M  V30 61341 N 5831.28 4.44343 -3.73549 0
M  V30 61342 H 5834.04 0.447095 -2.96346 0
M  V30 61343 H 5831.6 0.096661 -1.61611 0
M  V30 61344 H 5833.59 2.96925 -2.74986 0
M  V30 61345 H 5832.16 2.58342 -1.76006 0
M  V30 61346 H 5831.38 1.13002 -3.77656 0
M  V30 61347 H 5832.67 1.90018 -4.71986 0
M  V30 61348 H 5832.07 4.68148 -3.17575 0
M  V30 61349 H 5830.63 5.16886 -3.97079 0
M  V30 61350 N 5834.06 1.5651 0.185041 0
M  V30 61351 C 5835.01 1.9534 1.22927 0
M  V30 61352 C 5835.98 0.815371 1.4471 0
M  V30 61353 O 5837.16 1.07436 1.57677 0
M  V30 61354 C 5834.3 2.3068 2.56673 0
M  V30 61355 C 5833.42 3.57595 2.42384 0
M  V30 61356 C 5832.55 3.8221 3.68903 0
M  V30 61357 C 5831.59 5.02518 3.49489 0
M  V30 61358 N 5830.73 5.23335 4.68043 0
M  V30 61359 H 5835.57 2.84364 0.89113 0
M  V30 61360 H 5833.1 1.40716 0.42864 0
M  V30 61361 H 5835.06 2.49188 3.34606 0
M  V30 61362 H 5833.69 1.44783 2.88509 0
M  V30 61363 H 5832.74 3.47077 1.55697 0
M  V30 61364 H 5834.06 4.45685 2.23978 0
M  V30 61365 H 5833.21 4.01012 4.55274 0
M  V30 61366 H 5831.95 2.92469 3.90274 0
M  V30 61367 H 5830.95 4.83628 2.61503 0
M  V30 61368 H 5832.18 5.93777 3.29554 0
M  V30 61369 H 5830.12 4.36543 4.89659 0
M  V30 61370 H 5830.04 6.05624 4.525 0
M  V30 61371 H 5831.31 5.46604 5.55737 0
M  V30 61372 N 5835.54 -0.453117 1.50946 0
M  V30 61373 C 5836.5 -1.53124 1.70545 0
M  V30 61374 C 5837.5 -1.5014 0.57573 0
M  V30 61375 O 5838.69 -1.52441 0.843051 0
M  V30 61376 C 5835.82 -2.92713 1.74733 0
M  V30 61377 H 5837.02 -1.37056 2.6675 0
M  V30 61378 H 5834.57 -0.680733 1.40697 0
M  V30 61379 H 5835.3 -3.14205 0.802863 0
M  V30 61380 H 5835.09 -2.96285 2.56822 0
M  V30 61381 H 5836.58 -3.70953 1.9179 0
M  V30 61382 N 5837.02 -1.40826 -0.707518 0
M  V30 61383 C 5838.25 -1.42664 -1.49434 0
M  V30 61384 C 5838.65 -0.026914 -1.89181 0
M  V30 61385 O 5838 0.961389 -1.56534 0
M  V30 61386 C 5838.06 -2.26114 -2.79486 0
M  V30 61387 C 5837.72 -3.7443 -2.62014 0
M  V30 61388 C 5838.72 -4.66875 -2.28743 0
M  V30 61389 C 5836.41 -4.18337 -2.78027 0
M  V30 61390 C 5838.4 -6.01215 -2.11706 0
M  V30 61391 C 5836.09 -5.52745 -2.60607 0
M  V30 61392 C 5837.08 -6.43999 -2.27495 0
M  V30 61393 O 5836.77 -7.75928 -2.10216 0
M  V30 61394 H 5836.5 -0.488323 -0.467458 0
M  V30 61395 H 5839.06 -1.8561 -0.879654 0
M  V30 61396 H 5837.29 -1.77961 -3.43317 0
M  V30 61397 H 5838.98 -2.19797 -3.41239 0
M  V30 61398 H 5839.74 -4.34247 -2.15997 0
M  V30 61399 H 5835.62 -3.47623 -3.02786 0
M  V30 61400 H 5839.17 -6.72406 -1.85783 0
M  V30 61401 H 5835.06 -5.84957 -2.7294 0
M  V30 61402 H 5835.83 -7.86946 -2.25073 0
M  V30 61403 N 5838.5 0.940566 -1.26456 0
M  V30 61404 C 5839.43 2.04318 -1.03859 0
M  V30 61405 C 5840.44 1.628 0.00116894 0
M  V30 61406 O 5841.63 1.76893 -0.238974 0
M  V30 61407 C 5838.73 3.34392 -0.550907 0
M  V30 61408 C 5837.9 4.04675 -1.66004 0
M  V30 61409 C 5836.96 5.13021 -1.1703 0
M  V30 61410 O 5835.99 5.37693 -1.86749 0
M  V30 61411 N 5837.19 5.80497 -0.0190518 0
M  V30 61412 H 5839.95 2.24269 -1.98805 0
M  V30 61413 H 5837.52 1.11009 -1.1785 0
M  V30 61414 H 5839.51 4.04168 -0.207447 0
M  V30 61415 H 5838.08 3.11109 0.304981 0
M  V30 61416 H 5837.3 3.28806 -2.17441 0
M  V30 61417 H 5838.59 4.48383 -2.40478 0
M  V30 61418 H 5837.98 5.6289 0.56317 0
M  V30 61419 H 5836.54 6.5126 0.265327 0
M  V30 61420 N 5839.97 1.0827 1.14523 0
M  V30 61421 C 5840.88 0.723122 2.23177 0
M  V30 61422 C 5841.9 -0.269759 1.71896 0
M  V30 61423 O 5843.08 -0.114056 2.01077 0
M  V30 61424 C 5840.14 0.136351 3.46432 0
M  V30 61425 C 5839.2 1.18366 4.1266 0
M  V30 61426 C 5838.43 0.624798 5.3003 0
M  V30 61427 O 5838.66 -0.556177 5.67682 0
M  V30 61428 O 5837.59 1.37418 5.86003 0
M  V30 61429 H 5841.42 1.62949 2.56284 0
M  V30 61430 H 5839 0.856278 1.22426 0
M  V30 61431 H 5840.88 -0.188142 4.2098 0
M  V30 61432 H 5839.56 -0.743199 3.15053 0
M  V30 61433 H 5838.47 1.56066 3.39991 0
M  V30 61434 H 5839.8 2.03544 4.48141 0
M  V30 61435 N 5841.45 -1.31533 0.868156 0
M  V30 61436 C 5842.41 -2.26848 0.327535 0
M  V30 61437 C 5843.41 -1.52144 -0.520461 0
M  V30 61438 O 5844.6 -1.71045 -0.330028 0
M  V30 61439 C 5841.74 -3.36675 -0.535055 0
M  V30 61440 H 5842.93 -2.7618 1.16896 0
M  V30 61441 H 5840.48 -1.42434 0.643595 0
M  V30 61442 H 5841.22 -2.92632 -1.39775 0
M  V30 61443 H 5841 -3.92034 0.0721213 0
M  V30 61444 H 5842.49 -4.07661 -0.905642 0
M  V30 61445 N 5842.93 -0.627415 -1.44573 0
M  V30 61446 C 5843.86 0.128976 -2.27835 0
M  V30 61447 C 5844.84 0.854804 -1.38318 0
M  V30 61448 O 5846.02 0.85965 -1.67757 0
M  V30 61449 C 5843.15 1.18855 -3.17161 0
M  V30 61450 C 5842.2 0.563668 -4.22759 0
M  V30 61451 S 5843.03 -0.643456 -5.3162 0
M  V30 61452 C 5844.19 0.416223 -6.24515 0
M  V30 61453 H 5844.42 -0.577383 -2.91639 0
M  V30 61454 H 5841.95 -0.415479 -1.48705 0
M  V30 61455 H 5843.91 1.79495 -3.69177 0
M  V30 61456 H 5842.57 1.86709 -2.52584 0
M  V30 61457 H 5841.76 1.36156 -4.8526 0
M  V30 61458 H 5841.37 0.031973 -3.73986 0
M  V30 61459 H 5843.66 1.28982 -6.65109 0
M  V30 61460 H 5844.6 -0.17312 -7.07888 0
M  V30 61461 H 5845.01 0.740454 -5.59623 0
M  V30 61462 N 5844.41 1.5325 -0.367738 0
M  V30 61463 C 5845.68 1.93618 0.277774 0
M  V30 61464 C 5846.06 1.30145 1.66209 0
M  V30 61465 O 5845.41 0.461355 2.23794 0
M  V30 61466 C 5845.62 3.47476 0.325814 0
M  V30 61467 C 5846.97 4.20822 0.565128 0
M  V30 61468 O 5847.99 3.53868 0.406933 0
M  V30 61469 O 5846.85 5.39477 0.873332 0
M  V30 61470 H 5843.95 0.809936 0.167129 0
M  V30 61471 H 5846.49 1.64403 -0.420679 0
M  V30 61472 H 5845.27 3.85953 -0.644677 0
M  V30 61473 H 5844.89 3.8293 1.07007 0
M  V30 61474 N 5845.89 0.096963 1.57301 0
M  V30 61475 C 5847.11 -0.578016 1.99183 0
M  V30 61476 C 5847.54 -1.60814 0.975723 0
M  V30 61477 O 5846.89 -1.81215 -0.0555417 0
M  V30 61478 C 5846.94 -1.20064 3.40025 0
M  V30 61479 O 5846.05 -2.31644 3.41196 0
M  V30 61480 H 5845.39 -0.146483 0.647641 0
M  V30 61481 H 5847.92 0.178926 2.03816 0
M  V30 61482 H 5847.93 -1.54149 3.77759 0
M  V30 61483 H 5846.6 -0.445969 4.13502 0
M  V30 61484 H 5845.18 -1.99164 3.15259 0
M  V30 61485 N 5847.36 -1.56606 -0.176738 0
M  V30 61486 C 5848.61 -1.81327 -0.892472 0
M  V30 61487 C 5848.93 -0.673075 -1.83016 0
M  V30 61488 O 5848.2 0.30743 -1.93473 0
M  V30 61489 H 5846.78 -0.668893 -0.332553 0
M  V30 61490 H 5849.44 -1.94087 -0.177852 0
M  V30 61491 H 5848.54 -2.75173 -1.47262 0
M  V30 61492 N 5848.84 0.445106 -1.51184 0
M  V30 61493 C 5850.12 1.20593 -1.54003 0
M  V30 61494 C 5850.5 2.08961 -0.299743 0
M  V30 61495 O 5849.85 2.17006 0.71559 0
M  V30 61496 C 5850.06 2.01451 -2.84989 0
M  V30 61497 C 5851.4 2.58758 -3.36644 0
M  V30 61498 O 5852.43 2.11669 -2.86487 0
M  V30 61499 O 5851.29 3.44622 -4.24144 0
M  V30 61500 H 5848.38 0.548613 -0.618831 0
M  V30 61501 H 5850.93 0.454808 -1.63492 0
M  V30 61502 H 5849.7 1.36498 -3.66721 0
M  V30 61503 H 5849.32 2.83644 -2.78625 0
M  V30 61504 N 5850.32 1.41199 0.70004 0
M  V30 61505 C 5851.55 1.43663 1.48891 0
M  V30 61506 C 5851.96 0.0406435 1.88756 0
M  V30 61507 O 5851.32 -0.939035 1.56488 0
M  V30 61508 C 5851.37 2.34135 2.75433 0
M  V30 61509 O 5851.09 3.683 2.37248 0
M  V30 61510 C 5852.59 2.45355 3.6921 0
M  V30 61511 H 5849.81 0.489466 0.458981 0
M  V30 61512 H 5852.36 1.85432 0.86228 0
M  V30 61513 H 5850.51 1.95686 3.34344 0
M  V30 61514 H 5850.93 4.16507 3.18783 0
M  V30 61515 H 5852.4 3.12834 4.54796 0
M  V30 61516 H 5852.88 1.48341 4.1339 0
M  V30 61517 H 5853.48 2.8442 3.16204 0
M  V30 61518 N 5851.8 -0.933846 1.26953 0
M  V30 61519 C 5853.02 -1.72038 1.15834 0
M  V30 61520 C 5853.45 -1.85976 -0.281864 0
M  V30 61521 O 5852.81 -1.35533 -1.20418 0
M  V30 61522 C 5852.85 -3.10105 1.8403 0
M  V30 61523 O 5851.96 -3.965 1.13408 0
M  V30 61524 H 5851.3 -0.527559 0.403209 0
M  V30 61525 H 5853.83 -1.16908 1.67909 0
M  V30 61526 H 5853.84 -3.60454 1.91146 0
M  V30 61527 H 5852.51 -2.99277 2.88801 0
M  V30 61528 H 5851.09 -3.54944 1.14319 0
M  V30 61529 N 5853.28 -1.08875 -1.13947 0
M  V30 61530 C 5854.69 -0.841611 -1.66655 0
M  V30 61531 C 5855.04 0.630867 -1.85781 0
M  V30 61532 O 5854.16 1.48668 -1.57248 0
M  V30 61533 C 5854.76 -1.5212 -3.02729 0
M  V30 61534 C 5853.32 -1.32117 -3.52451 0
M  V30 61535 C 5852.46 -1.58092 -2.27821 0
M  V30 61536 H 5855.42 -1.24869 -0.979466 0
M  V30 61537 H 5855.44 -0.951107 -3.68421 0
M  V30 61538 H 5854.95 -2.59287 -2.88777 0
M  V30 61539 H 5853.05 -0.270425 -3.71617 0
M  V30 61540 H 5853.16 -2.05212 -4.32926 0
M  V30 61541 H 5851.53 -1.00273 -2.34131 0
M  V30 61542 H 5852.31 -2.66475 -2.16439 0
M  V30 61543 N 5854.75 1.3107 -0.875119 0
M  V30 61544 C 5855.69 2.27334 -0.291889 0
M  V30 61545 C 5856.7 1.533 0.547982 0
M  V30 61546 O 5857.89 1.74641 0.369136 0
M  V30 61547 C 5854.99 3.33467 0.604404 0
M  V30 61548 C 5854.16 4.36923 -0.204182 0
M  V30 61549 C 5853.22 5.22522 0.621055 0
M  V30 61550 O 5852.25 5.6918 0.047255 0
M  V30 61551 N 5853.45 5.47404 1.93207 0
M  V30 61552 H 5856.21 2.7802 -1.11915 0
M  V30 61553 H 5853.77 1.44147 -0.737115 0
M  V30 61554 H 5855.77 3.8765 1.1623 0
M  V30 61555 H 5854.34 2.82785 1.33234 0
M  V30 61556 H 5853.56 3.82742 -0.943524 0
M  V30 61557 H 5854.84 5.0311 -0.758821 0
M  V30 61558 H 5854.24 5.11262 2.42132 0
M  V30 61559 H 5852.8 6.04502 2.43763 0
M  V30 61560 N 5856.23 0.635073 1.44238 0
M  V30 61561 C 5857.48 0.141347 2.02307 0
M  V30 61562 C 5857.81 -1.23503 1.49869 0
M  V30 61563 O 5857.09 -1.82063 0.684355 0
M  V30 61564 C 5857.37 0.132322 3.59857 0
M  V30 61565 C 5857.22 1.54132 4.22568 0
M  V30 61566 C 5858.54 -0.541033 4.36762 0
M  V30 61567 H 5855.66 0.0528375 0.735104 0
M  V30 61568 H 5858.3 0.812299 1.71761 0
M  V30 61569 H 5856.45 -0.43902 3.86011 0
M  V30 61570 H 5858.12 2.16185 4.07507 0
M  V30 61571 H 5856.37 2.09403 3.79912 0
M  V30 61572 H 5857.04 1.487 5.31594 0
M  V30 61573 H 5859.51 -0.0551141 4.16063 0
M  V30 61574 H 5858.39 -0.51655 5.46464 0
M  V30 61575 H 5858.65 -1.61207 4.11661 0
M  V30 61576 N 5857.71 -1.53052 0.37586 0
M  V30 61577 C 5858.64 -2.28975 -0.457459 0
M  V30 61578 C 5859.62 -1.31816 -1.07511 0
M  V30 61579 O 5860.81 -1.60697 -1.09042 0
M  V30 61580 C 5857.94 -3.08662 -1.59201 0
M  V30 61581 C 5856.89 -4.13594 -1.10109 0
M  V30 61582 C 5856.22 -4.81425 -2.32667 0
M  V30 61583 C 5857.52 -5.21995 -0.178537 0
M  V30 61584 H 5859.21 -2.98882 0.175977 0
M  V30 61585 H 5856.76 -1.43743 0.0860759 0
M  V30 61586 H 5858.71 -3.60528 -2.18169 0
M  V30 61587 H 5857.43 -2.36464 -2.25283 0
M  V30 61588 H 5856.09 -3.6269 -0.534024 0
M  V30 61589 H 5855.74 -4.05788 -2.97229 0
M  V30 61590 H 5855.44 -5.52339 -2.00487 0
M  V30 61591 H 5856.96 -5.36089 -2.92303 0
M  V30 61592 H 5858.38 -5.69301 -0.676004 0
M  V30 61593 H 5856.78 -6.00077 0.0528714 0
M  V30 61594 H 5857.85 -4.78644 0.776414 0
M  V30 61595 N 5859.19 -0.105304 -1.57248 0
M  V30 61596 C 5860.14 0.849936 -2.1458 0
M  V30 61597 C 5861.11 1.2729 -1.06707 0
M  V30 61598 O 5862.29 1.35284 -1.34546 0
M  V30 61599 C 5859.43 2.09984 -2.73863 0
M  V30 61600 C 5858.54 1.72648 -3.96001 0
M  V30 61601 C 5857.68 2.92501 -4.43415 0
M  V30 61602 C 5856.72 2.5134 -5.58117 0
M  V30 61603 N 5855.85 3.64061 -6.00336 0
M  V30 61604 H 5860.69 0.354178 -2.95888 0
M  V30 61605 H 5858.23 0.163141 -1.46193 0
M  V30 61606 H 5860.19 2.83197 -3.06358 0
M  V30 61607 H 5858.82 2.57042 -1.95268 0
M  V30 61608 H 5857.87 0.893624 -3.69755 0
M  V30 61609 H 5859.18 1.38389 -4.79218 0
M  V30 61610 H 5858.34 3.73956 -4.77747 0
M  V30 61611 H 5857.08 3.29977 -3.59119 0
M  V30 61612 H 5856.08 1.68314 -5.23403 0
M  V30 61613 H 5857.31 2.14997 -6.44169 0
M  V30 61614 H 5855.25 4.01236 -5.18985 0
M  V30 61615 H 5855.17 3.33681 -6.78375 0
M  V30 61616 H 5856.44 4.45996 -6.39302 0
M  V30 61617 N 5860.67 1.56697 0.168431 0
M  V30 61618 C 5861.63 1.95748 1.19228 0
M  V30 61619 C 5862.63 0.841467 1.37025 0
M  V30 61620 O 5863.82 1.10847 1.34382 0
M  V30 61621 C 5860.95 2.2548 2.55678 0
M  V30 61622 H 5862.14 2.87371 0.857791 0
M  V30 61623 H 5859.7 1.508 0.410988 0
M  V30 61624 H 5860.43 1.36581 2.94136 0
M  V30 61625 H 5860.22 3.0683 2.44126 0
M  V30 61626 H 5861.71 2.56604 3.2946 0
M  V30 61627 N 5862.14 -0.437082 1.51418 0
M  V30 61628 C 5863.07 -1.53794 1.75697 0
M  V30 61629 C 5864.06 -1.58908 0.606815 0
M  V30 61630 O 5865.24 -1.74632 0.849554 0
M  V30 61631 C 5862.37 -2.91871 1.88225 0
M  V30 61632 C 5861.32 -3.01618 3.03662 0
M  V30 61633 C 5860.65 -4.41676 3.01374 0
M  V30 61634 C 5861.95 -2.75675 4.43622 0
M  V30 61635 H 5863.64 -1.33728 2.67875 0
M  V30 61636 H 5861.19 -0.641891 1.28902 0
M  V30 61637 H 5863.14 -3.68844 2.03794 0
M  V30 61638 H 5861.87 -3.13169 0.926957 0
M  V30 61639 H 5860.53 -2.27084 2.87799 0
M  V30 61640 H 5860.17 -4.59943 2.03622 0
M  V30 61641 H 5859.87 -4.49127 3.78891 0
M  V30 61642 H 5861.4 -5.20623 3.19036 0
M  V30 61643 H 5862.81 -3.42382 4.59834 0
M  V30 61644 H 5861.21 -2.94536 5.22847 0
M  V30 61645 H 5862.28 -1.71281 4.53642 0
M  V30 61646 N 5863.62 -1.41568 -0.692542 0
M  V30 61647 C 5864.55 -1.39589 -1.8179 0
M  V30 61648 C 5865.57 -0.297596 -1.60057 0
M  V30 61649 O 5866.76 -0.559522 -1.69504 0
M  V30 61650 C 5863.86 -1.15518 -3.18605 0
M  V30 61651 C 5863.03 -2.37445 -3.6734 0
M  V30 61652 C 5862.09 -2.09185 -4.82834 0
M  V30 61653 O 5861.11 -2.82247 -4.94293 0
M  V30 61654 N 5862.32 -1.08397 -5.7029 0
M  V30 61655 H 5865.08 -2.36583 -1.83979 0
M  V30 61656 H 5862.64 -1.36219 -0.874978 0
M  V30 61657 H 5864.63 -0.945591 -3.93498 0
M  V30 61658 H 5863.2 -0.271096 -3.11422 0
M  V30 61659 H 5862.42 -2.74086 -2.83321 0
M  V30 61660 H 5863.71 -3.18675 -3.9664 0
M  V30 61661 H 5863.11 -0.47932 -5.63666 0
M  V30 61662 H 5861.67 -0.934269 -6.45069 0
M  V30 61663 N 5865.1 0.927101 -1.27446 0
M  V30 61664 C 5866.05 2.02779 -1.10223 0
M  V30 61665 C 5867.02 1.661 -0.00313682 0
M  V30 61666 O 5868.2 1.9008 -0.165575 0
M  V30 61667 C 5865.34 3.36715 -0.756102 0
M  V30 61668 C 5864.46 3.86346 -1.93289 0
M  V30 61669 C 5863.59 5.08731 -1.52859 0
M  V30 61670 C 5862.63 5.5066 -2.67283 0
M  V30 61671 N 5861.77 6.64242 -2.27437 0
M  V30 61672 H 5866.61 2.16843 -2.04409 0
M  V30 61673 H 5864.14 1.06229 -1.01754 0
M  V30 61674 H 5866.1 4.13739 -0.536235 0
M  V30 61675 H 5864.73 3.22457 0.148795 0
M  V30 61676 H 5863.78 3.05596 -2.26528 0
M  V30 61677 H 5865.1 4.13391 -2.79122 0
M  V30 61678 H 5864.25 5.93259 -1.27 0
M  V30 61679 H 5862.99 4.83464 -0.641357 0
M  V30 61680 H 5861.99 4.64682 -2.93855 0
M  V30 61681 H 5863.22 5.77922 -3.56628 0
M  V30 61682 H 5861.16 6.40631 -1.41166 0
M  V30 61683 H 5861.08 6.90945 -3.06809 0
M  V30 61684 H 5862.35 7.52108 -2.04827 0
M  V30 61685 N 5866.58 1.09478 1.13368 0
M  V30 61686 C 5867.54 0.738249 2.16985 0
M  V30 61687 C 5868.54 -0.232432 1.59111 0
M  V30 61688 O 5869.73 -0.010548 1.74197 0
M  V30 61689 C 5866.86 0.0918438 3.40776 0
M  V30 61690 H 5868.06 1.65591 2.50039 0
M  V30 61691 H 5865.61 0.89404 1.28205 0
M  V30 61692 H 5866.34 -0.837019 3.13312 0
M  V30 61693 H 5866.13 0.790296 3.84053 0
M  V30 61694 H 5867.62 -0.142187 4.17358 0
M  V30 61695 N 5868.06 -1.30604 0.882058 0
M  V30 61696 C 5869.3 -1.96545 0.499772 0
M  V30 61697 C 5869.64 -1.69487 -0.948038 0
M  V30 61698 O 5868.91 -0.997988 -1.66944 0
M  V30 61699 C 5869.19 -3.51732 0.771786 0
M  V30 61700 C 5869.05 -3.88318 2.27001 0
M  V30 61701 C 5870.37 -4.3941 0.246332 0
M  V30 61702 H 5867.49 -0.713906 0.183052 0
M  V30 61703 H 5870.13 -1.54526 1.10551 0
M  V30 61704 H 5868.28 -3.87654 0.256228 0
M  V30 61705 H 5869.95 -3.62434 2.85375 0
M  V30 61706 H 5868.19 -3.36491 2.73782 0
M  V30 61707 H 5868.86 -4.96565 2.41095 0
M  V30 61708 H 5871.34 -4.1038 0.687563 0
M  V30 61709 H 5870.22 -5.46918 0.46601 0
M  V30 61710 H 5870.48 -4.33807 -0.852299 0
M  V30 61711 N 5869.54 -0.642713 -1.43899 0
M  V30 61712 C 5870.48 0.0673109 -2.32503 0
M  V30 61713 C 5871.48 0.823929 -1.48013 0
M  V30 61714 O 5872.68 0.735518 -1.64287 0
M  V30 61715 H 5869.06 0.0405451 -0.750906 0
M  V30 61716 H 5871.03 -0.697872 -2.90125 0
M  V30 61717 C 5869.78 1.02733 -3.32176 0
M  V30 61718 H 5869.1 0.454557 -3.97208 0
M  V30 61719 H 5870.54 1.49341 -3.96829 0
M  V30 61720 C 5869 2.11825 -2.61976 0
M  V30 61721 O 5869.53 3.20065 -2.42737 0
M  V30 61722 N 5867.74 1.88084 -2.21523 0
M  V30 61723 H 5867.28 1.00063 -2.37371 0
M  V30 61724 H 5867.24 2.61273 -1.74882 0
M  V30 61725 N 5871.01 1.52851 -0.383971 0
M  V30 61726 C 5872.26 2.00695 0.201136 0
M  V30 61727 C 5872.58 1.27485 1.48347 0
M  V30 61728 O 5873.78 1.66013 2.1483 0
M  V30 61729 C 5872.24 3.57569 0.408991 0
M  V30 61730 C 5871.85 4.39672 -0.859783 0
M  V30 61731 C 5873.59 4.13716 0.950753 0
M  V30 61732 C 5871.5 5.88136 -0.620499 0
M  V30 61733 H 5870.43 0.749856 0.0789393 0
M  V30 61734 H 5873.08 1.76399 -0.50555 0
M  V30 61735 H 5871.46 3.78092 1.17739 0
M  V30 61736 H 5872.63 4.30917 -1.63239 0
M  V30 61737 H 5870.95 3.94719 -1.3261 0
M  V30 61738 H 5873.55 5.22288 1.1454 0
M  V30 61739 H 5873.89 3.6947 1.91827 0
M  V30 61740 H 5874.42 3.97063 0.242056 0
M  V30 61741 H 5871.16 6.36694 -1.55887 0
M  V30 61742 H 5870.68 5.99693 0.113273 0
M  V30 61743 H 5872.36 6.46505 -0.253002 0
M  V30 61744 N 5872.49 0.113641 1.5719 0
M  V30 61745 C 5873.45 -0.824183 2.13869 0
M  V30 61746 C 5874.45 -1.19828 1.07229 0
M  V30 61747 O 5875.64 -1.12466 1.3303 0
M  V30 61748 C 5872.78 -2.11381 2.67452 0
M  V30 61749 H 5873.97 -0.331699 2.9806 0
M  V30 61750 H 5871.52 -0.135545 1.55711 0
M  V30 61751 H 5872.26 -2.65073 1.86834 0
M  V30 61752 H 5872.04 -1.85511 3.45439 0
M  V30 61753 H 5873.53 -2.78432 3.11232 0
M  V30 61754 N 5873.97 -1.56785 -0.160118 0
M  V30 61755 C 5874.92 -1.97271 -1.19804 0
M  V30 61756 C 5875.89 -0.83829 -1.43394 0
M  V30 61757 O 5877.07 -1.09931 -1.55948 0
M  V30 61758 C 5874.21 -2.34734 -2.5297 0
M  V30 61759 C 5873.32 -3.61405 -2.36664 0
M  V30 61760 C 5872.46 -3.8803 -3.62775 0
M  V30 61761 C 5871.5 -5.08014 -3.4145 0
M  V30 61762 N 5870.64 -5.30715 -4.59658 0
M  V30 61763 H 5875.48 -2.85746 -0.845778 0
M  V30 61764 H 5873.01 -1.4138 -0.406199 0
M  V30 61765 H 5874.97 -2.5448 -3.30599 0
M  V30 61766 H 5873.6 -1.49355 -2.86169 0
M  V30 61767 H 5872.65 -3.49511 -1.50155 0
M  V30 61768 H 5873.96 -4.49192 -2.16859 0
M  V30 61769 H 5873.12 -4.08204 -4.48837 0
M  V30 61770 H 5871.86 -2.9864 -3.85571 0
M  V30 61771 H 5870.86 -4.87727 -2.53776 0
M  V30 61772 H 5872.09 -5.98945 -3.20065 0
M  V30 61773 H 5870.03 -4.44278 -4.82652 0
M  V30 61774 H 5869.95 -6.12746 -4.42808 0
M  V30 61775 H 5871.22 -5.55376 -5.46971 0
M  V30 61776 N 5875.45 0.429046 -1.51647 0
M  V30 61777 C 5876.4 1.54196 -1.74145 0
M  V30 61778 C 5877.39 1.58115 -0.607961 0
M  V30 61779 O 5878.6 1.6176 -0.789543 0
M  V30 61780 H 5874.97 0.512437 -0.550375 0
M  V30 61781 H 5876.94 1.32398 -2.6742 0
M  V30 61782 C 5875.69 2.91772 -1.89114 0
M  V30 61783 H 5875.01 2.89492 -2.75743 0
M  V30 61784 H 5876.45 3.68988 -2.08864 0
M  V30 61785 C 5874.91 3.3051 -0.653061 0
M  V30 61786 O 5875.44 4.01258 0.188412 0
M  V30 61787 N 5873.65 2.86358 -0.494734 0
M  V30 61788 H 5873.2 2.28955 -1.18058 0
M  V30 61789 H 5873.15 3.12638 0.332393 0
M  V30 61790 N 5876.93 1.41934 0.685024 0
M  V30 61791 C 5877.89 1.44322 1.78056 0
M  V30 61792 C 5878.89 0.332271 1.5733 0
M  V30 61793 O 5880.08 0.592638 1.63809 0
M  V30 61794 C 5877.21 1.2649 3.16565 0
M  V30 61795 H 5878.4 2.41856 1.77329 0
M  V30 61796 H 5875.96 1.28231 0.893675 0
M  V30 61797 H 5876.69 0.298373 3.22924 0
M  V30 61798 H 5876.48 2.06993 3.33011 0
M  V30 61799 H 5877.97 1.3102 3.96514 0
M  V30 61800 N 5878.4 -0.920329 1.27936 0
M  V30 61801 C 5879.63 -1.70024 1.17369 0
M  V30 61802 C 5880.04 -1.87247 -0.271148 0
M  V30 61803 O 5879.38 -1.39454 -1.19576 0
M  V30 61804 C 5879.45 -3.11589 1.79312 0
M  V30 61805 C 5879.11 -3.17676 3.28529 0
M  V30 61806 C 5880.11 -2.99368 4.25059 0
M  V30 61807 C 5877.79 -3.40399 3.69369 0
M  V30 61808 C 5879.79 -3.03685 5.60406 0
M  V30 61809 C 5877.47 -3.44349 5.04844 0
M  V30 61810 C 5878.47 -3.26011 6.00172 0
M  V30 61811 O 5878.16 -3.29709 7.33176 0
M  V30 61812 H 5877.89 -0.538483 0.408671 0
M  V30 61813 H 5880.45 -1.1608 1.69454 0
M  V30 61814 H 5878.68 -3.67046 1.21713 0
M  V30 61815 H 5880.36 -3.71578 1.63355 0
M  V30 61816 H 5881.13 -2.81646 3.94842 0
M  V30 61817 H 5877.01 -3.53721 2.95639 0
M  V30 61818 H 5880.55 -2.89289 6.34789 0
M  V30 61819 H 5876.45 -3.61597 5.34713 0
M  V30 61820 H 5877.22 -3.46115 7.41719 0
M  V30 61821 N 5879.88 -1.10078 -1.12786 0
M  V30 61822 C 5880.79 -0.758536 -2.21999 0
M  V30 61823 C 5881.81 0.242378 -1.72304 0
M  V30 61824 O 5882.98 0.0820516 -2.01233 0
M  V30 61825 C 5880.05 -0.191448 -3.46171 0
M  V30 61826 C 5879.11 -1.24917 -4.10724 0
M  V30 61827 C 5878.34 -0.709043 -5.28969 0
M  V30 61828 O 5878.57 0.465794 -5.68495 0
M  V30 61829 O 5877.5 -1.46723 -5.83743 0
M  V30 61830 H 5881.33 -1.67006 -2.53659 0
M  V30 61831 H 5878.91 -0.875647 -1.21049 0
M  V30 61832 H 5880.79 0.121144 -4.21226 0
M  V30 61833 H 5879.47 0.692983 -3.16195 0
M  V30 61834 H 5878.37 -1.61456 -3.37465 0
M  V30 61835 H 5879.71 -2.10648 -4.44846 0
M  V30 61836 N 5881.36 1.30135 -0.888972 0
M  V30 61837 C 5882.31 2.28022 -0.357003 0
M  V30 61838 C 5883.28 1.56553 0.555011 0
M  V30 61839 O 5884.46 1.84597 0.482568 0
M  V30 61840 C 5881.6 3.42548 0.418936 0
M  V30 61841 C 5880.71 4.28826 -0.522751 0
M  V30 61842 C 5879.85 5.30518 0.26918 0
M  V30 61843 C 5878.89 6.08447 -0.667721 0
M  V30 61844 N 5878.03 7.02043 0.0891332 0
M  V30 61845 H 5882.87 2.72908 -1.19688 0
M  V30 61846 H 5880.4 1.34237 -0.601567 0
M  V30 61847 H 5882.36 4.0771 0.884768 0
M  V30 61848 H 5880.99 2.9872 1.22335 0
M  V30 61849 H 5880.04 3.63934 -1.10708 0
M  V30 61850 H 5881.35 4.83132 -1.24035 0
M  V30 61851 H 5880.51 6.01446 0.796689 0
M  V30 61852 H 5879.25 4.76915 1.01998 0
M  V30 61853 H 5878.25 5.36391 -1.20682 0
M  V30 61854 H 5879.48 6.64138 -1.41767 0
M  V30 61855 H 5877.42 6.50825 0.822393 0
M  V30 61856 H 5877.34 7.53857 -0.568764 0
M  V30 61857 H 5878.61 7.77209 0.597256 0
M  V30 61858 N 5882.84 0.650335 1.43556 0
M  V30 61859 C 5884.12 0.092603 1.95381 0
M  V30 61860 C 5884.5 -1.38662 1.59173 0
M  V30 61861 O 5883.84 -2.11066 0.875398 0
M  V30 61862 C 5884.05 0.335779 3.47381 0
M  V30 61863 C 5885.4 0.239181 4.23926 0
M  V30 61864 O 5886.43 0.268181 3.55189 0
M  V30 61865 O 5885.28 0.160434 5.46264 0
M  V30 61866 H 5882.38 -0.0112793 0.826923 0
M  V30 61867 H 5884.92 0.723373 1.5351 0
M  V30 61868 H 5883.7 1.36144 3.66852 0
M  V30 61869 H 5883.32 -0.3282 3.96243 0
M  V30 61870 N 5884.32 -1.52645 0.392072 0
M  V30 61871 C 5885.26 -2.26533 -0.441739 0
M  V30 61872 C 5886.23 -1.28254 -1.05547 0
M  V30 61873 O 5887.42 -1.57087 -1.08297 0
M  V30 61874 C 5884.56 -3.07745 -1.56163 0
M  V30 61875 C 5883.67 -4.20958 -0.970484 0
M  V30 61876 C 5882.81 -4.8956 -2.06165 0
M  V30 61877 C 5881.85 -5.94762 -1.44655 0
M  V30 61878 N 5880.98 -6.56949 -2.47715 0
M  V30 61879 H 5885.82 -2.97363 0.194804 0
M  V30 61880 H 5883.36 -1.46704 0.1079 0
M  V30 61881 H 5885.32 -3.53124 -2.2217 0
M  V30 61882 H 5883.95 -2.3912 -2.16844 0
M  V30 61883 H 5883 -3.79874 -0.199933 0
M  V30 61884 H 5884.31 -4.96475 -0.481007 0
M  V30 61885 H 5883.47 -5.38257 -2.79937 0
M  V30 61886 H 5882.2 -4.13573 -2.58474 0
M  V30 61887 H 5881.21 -5.45401 -0.694096 0
M  V30 61888 H 5882.43 -6.72683 -0.931381 0
M  V30 61889 H 5880.38 -5.83801 -2.99187 0
M  V30 61890 H 5880.3 -7.28088 -2.0353 0
M  V30 61891 H 5881.57 -7.10289 -3.21108 0
M  V30 61892 N 5885.79 -0.121976 -1.57127 0
M  V30 61893 C 5886.76 0.81283 -2.14303 0
M  V30 61894 C 5887.76 1.19257 -1.07863 0
M  V30 61895 O 5888.95 1.11759 -1.33625 0
M  V30 61896 C 5886.08 2.0996 -2.6857 0
M  V30 61897 H 5887.27 0.315887 -2.98232 0
M  V30 61898 H 5884.83 0.127285 -1.55781 0
M  V30 61899 H 5885.56 2.64078 -1.88237 0
M  V30 61900 H 5885.35 1.83676 -3.46418 0
M  V30 61901 H 5886.84 2.76777 -3.12704 0
M  V30 61902 N 5887.27 1.56867 0.151801 0
M  V30 61903 C 5888.52 1.83356 0.866502 0
M  V30 61904 C 5888.85 0.702848 1.81035 0
M  V30 61905 O 5888.13 -0.293876 1.92267 0
M  V30 61906 C 5888.41 3.20322 1.64518 0
M  V30 61907 C 5888.26 4.43949 0.723141 0
M  V30 61908 C 5889.58 3.5445 2.6087 0
M  V30 61909 H 5886.7 0.666968 0.313564 0
M  V30 61910 H 5889.34 1.89542 0.131887 0
M  V30 61911 H 5887.49 3.1518 2.27143 0
M  V30 61912 H 5889.16 4.61173 0.108258 0
M  V30 61913 H 5887.41 4.33788 0.0324057 0
M  V30 61914 H 5888.08 5.36379 1.30391 0
M  V30 61915 H 5890.55 3.60172 2.08364 0
M  V30 61916 H 5889.43 4.51325 3.12406 0
M  V30 61917 H 5889.69 2.80158 3.41999 0
M  V30 61918 N 5888.75 -0.420997 1.51873 0
M  V30 61919 C 5889.71 -1.49472 1.73755 0
M  V30 61920 C 5890.71 -1.48885 0.607448 0
M  V30 61921 O 5891.9 -1.50619 0.875196 0
M  V30 61922 C 5889.04 -2.88941 1.80903 0
M  V30 61923 H 5890.23 -1.31367 2.69597 0
M  V30 61924 H 5887.78 -0.650736 1.4211 0
M  V30 61925 H 5888.52 -3.12431 0.86933 0
M  V30 61926 H 5888.3 -2.90771 2.63048 0
M  V30 61927 H 5889.79 -3.66802 1.99615 0
M  V30 61928 N 5890.23 -1.42295 -0.677488 0
M  V30 61929 C 5891.64 -1.25162 -0.99029 0
M  V30 61930 C 5891.84 -0.153874 -2.00912 0
M  V30 61931 O 5890.9 0.475781 -2.47977 0
M  V30 61932 C 5892.21 -2.6075 -1.49766 0
M  V30 61933 C 5893.76 -2.68083 -1.61557 0
M  V30 61934 C 5894.24 -4.04031 -2.15691 0
M  V30 61935 N 5895.73 -4.05972 -2.23028 0
M  V30 61936 C 5896.46 -5.07977 -2.65983 0
M  V30 61937 N 5895.96 -6.20367 -3.0841 0
M  V30 61938 N 5897.75 -4.95334 -2.65707 0
M  V30 61939 H 5889.9 -2.124 -0.00288355 0
M  V30 61940 H 5892.17 -0.94585 -0.0638067 0
M  V30 61941 H 5891.87 -3.41922 -0.823551 0
M  V30 61942 H 5891.75 -2.84485 -2.47685 0
M  V30 61943 H 5894.13 -1.87259 -2.28075 0
M  V30 61944 H 5894.21 -2.48139 -0.621346 0
M  V30 61945 H 5893.86 -4.85312 -1.49783 0
M  V30 61946 H 5893.79 -4.21325 -3.159 0
M  V30 61947 H 5896.28 -3.24834 -1.9311 0
M  V30 61948 H 5896.59 -6.94055 -3.39865 0
M  V30 61949 H 5894.94 -6.23876 -3.06274 0
M  V30 61950 H 5898.13 -4.06608 -2.31922 0
M  V30 61951 H 5898.3 -5.74965 -2.98864 0
M  V30 61952 N 5891.71 0.913531 -1.28423 0
M  V30 61953 C 5892.65 2.01599 -1.12368 0
M  V30 61954 C 5893.62 1.66087 -0.0207537 0
M  V30 61955 O 5894.81 1.89894 -0.185726 0
M  V30 61956 C 5891.95 3.35894 -0.791773 0
M  V30 61957 C 5891.06 3.84274 -1.97376 0
M  V30 61958 C 5890.2 5.07081 -1.58246 0
M  V30 61959 C 5889.24 5.47794 -2.73108 0
M  V30 61960 N 5888.37 6.61792 -2.34469 0
M  V30 61961 H 5893.21 2.14663 -2.06697 0
M  V30 61962 H 5890.75 1.05143 -1.02875 0
M  V30 61963 H 5892.71 4.13147 -0.580088 0
M  V30 61964 H 5891.34 3.22597 0.114586 0
M  V30 61965 H 5890.39 3.03176 -2.29757 0
M  V30 61966 H 5891.7 4.10407 -2.83491 0
M  V30 61967 H 5890.86 5.91878 -1.33285 0
M  V30 61968 H 5889.59 4.82757 -0.692599 0
M  V30 61969 H 5888.6 4.61539 -2.98767 0
M  V30 61970 H 5889.82 5.74107 -3.62737 0
M  V30 61971 H 5887.77 6.39098 -1.47953 0
M  V30 61972 H 5887.69 6.87652 -3.1412 0
M  V30 61973 H 5888.96 7.49893 -2.12792 0
M  V30 61974 N 5893.18 1.10674 1.122 0
M  V30 61975 C 5894.11 0.779906 2.2009 0
M  V30 61976 C 5895.1 -0.24822 1.68279 0
M  V30 61977 O 5896.28 -0.113443 1.93868 0
M  V30 61978 C 5893.41 0.213633 3.46642 0
M  V30 61979 C 5892.36 1.17273 4.1162 0
M  V30 61980 C 5891.69 0.467539 5.32652 0
M  V30 61981 C 5892.99 2.5203 4.57469 0
M  V30 61982 H 5894.68 1.68201 2.47687 0
M  V30 61983 H 5892.23 0.810173 1.19047 0
M  V30 61984 H 5894.18 -0.0271743 4.21391 0
M  V30 61985 H 5892.91 -0.723725 3.1848 0
M  V30 61986 H 5891.57 1.39903 3.38855 0
M  V30 61987 H 5891.21 -0.474371 5.00758 0
M  V30 61988 H 5890.91 1.10715 5.77075 0
M  V30 61989 H 5892.44 0.235336 6.10146 0
M  V30 61990 H 5893.85 2.33534 5.23579 0
M  V30 61991 H 5892.25 3.11898 5.12679 0
M  V30 61992 H 5893.32 3.11844 3.71324 0
M  V30 61993 N 5894.66 -1.29661 0.89586 0
M  V30 61994 C 5895.57 -2.31581 0.375168 0
M  V30 61995 C 5896.59 -1.65791 -0.528137 0
M  V30 61996 O 5897.76 -1.97001 -0.418641 0
M  V30 61997 C 5894.83 -3.44473 -0.392289 0
M  V30 61998 C 5893.89 -4.25864 0.542076 0
M  V30 61999 C 5893.12 -5.33366 -0.188849 0
M  V30 62000 O 5893.35 -5.52612 -1.41336 0
M  V30 62001 O 5892.28 -6.00088 0.466652 0
M  V30 62002 H 5896.11 -2.78091 1.22062 0
M  V30 62003 H 5893.69 -1.34029 0.660054 0
M  V30 62004 H 5895.57 -4.13217 -0.82642 0
M  V30 62005 H 5894.25 -3.00078 -1.21386 0
M  V30 62006 H 5893.16 -3.59777 1.02524 0
M  V30 62007 H 5894.49 -4.73891 1.32996 0
M  V30 62008 N 5896.14 -0.657939 -1.43209 0
M  V30 62009 C 5897.56 -0.325931 -1.56237 0
M  V30 62010 C 5897.76 1.1697 -1.64074 0
M  V30 62011 O 5896.81 1.95467 -1.5984 0
M  V30 62012 C 5898.13 -1.04144 -2.8209 0
M  V30 62013 C 5899.67 -1.02214 -2.9584 0
M  V30 62014 C 5900.15 -1.71863 -4.24531 0
M  V30 62015 N 5901.64 -1.6865 -4.31406 0
M  V30 62016 C 5902.37 -2.19412 -5.2976 0
M  V30 62017 N 5901.87 -2.78483 -6.34365 0
M  V30 62018 N 5903.66 -2.09884 -5.21445 0
M  V30 62019 H 5895.81 -1.62844 -1.36365 0
M  V30 62020 H 5898.08 -0.685095 -0.655247 0
M  V30 62021 H 5897.78 -2.09657 -2.82377 0
M  V30 62022 H 5897.66 -0.595973 -3.72462 0
M  V30 62023 H 5900.04 0.0245992 -2.9509 0
M  V30 62024 H 5900.13 -1.50634 -2.06744 0
M  V30 62025 H 5899.77 -2.76497 -4.26042 0
M  V30 62026 H 5899.7 -1.20906 -5.12532 0
M  V30 62027 H 5902.19 -1.25549 -3.56435 0
M  V30 62028 H 5902.5 -3.1488 -7.05741 0
M  V30 62029 H 5900.85 -2.82545 -6.34975 0
M  V30 62030 H 5904.04 -1.63437 -4.38641 0
M  V30 62031 H 5904.21 -2.49753 -5.97936 0
M  V30 62032 N 5897.62 1.52435 -0.400162 0
M  V30 62033 C 5898.55 2.23221 0.474098 0
M  V30 62034 C 5899.53 1.23703 1.05529 0
M  V30 62035 O 5900.71 1.52725 1.10486 0
M  V30 62036 C 5897.84 2.95387 1.65724 0
M  V30 62037 C 5896.89 4.09262 1.20028 0
M  V30 62038 S 5897.72 5.35221 0.172827 0
M  V30 62039 C 5898.88 6.10912 1.3615 0
M  V30 62040 H 5899.11 2.97029 -0.126969 0
M  V30 62041 H 5896.64 1.53295 -0.184407 0
M  V30 62042 H 5898.6 3.37572 2.33571 0
M  V30 62043 H 5897.26 2.21238 2.22963 0
M  V30 62044 H 5896.45 4.58897 2.08397 0
M  V30 62045 H 5896.06 3.69146 0.600574 0
M  V30 62046 H 5898.35 6.37744 2.28669 0
M  V30 62047 H 5899.29 7.02282 0.905859 0
M  V30 62048 H 5899.7 5.41843 1.58323 0
M  V30 62049 N 5899.1 0.130307 1.5706 0
M  V30 62050 C 5900.06 -0.801453 2.14731 0
M  V30 62051 C 5901.06 -1.18684 1.08494 0
M  V30 62052 O 5902.25 -1.11049 1.34215 0
M  V30 62053 C 5899.38 -2.08533 2.69679 0
M  V30 62054 H 5900.58 -0.300067 2.98395 0
M  V30 62055 H 5898.13 -0.119022 1.55846 0
M  V30 62056 H 5898.86 -2.63076 1.89635 0
M  V30 62057 H 5898.65 -1.81836 3.47387 0
M  V30 62058 H 5900.14 -2.75115 3.14168 0
M  V30 62059 N 5900.58 -1.56946 -0.14348 0
M  V30 62060 C 5901.85 -1.74464 -0.884393 0
M  V30 62061 C 5902.23 -0.699271 -1.99182 0
M  V30 62062 O 5901.58 0.281187 -2.26763 0
M  V30 62063 C 5901.79 -3.18644 -1.42362 0
M  V30 62064 C 5903.14 -3.80432 -1.88564 0
M  V30 62065 O 5904.16 -3.22095 -1.52096 0
M  V30 62066 O 5903.02 -4.82922 -2.5583 0
M  V30 62067 H 5900.12 -0.713472 -0.418195 0
M  V30 62068 H 5902.66 -1.69208 -0.12913 0
M  V30 62069 H 5901.43 -3.86229 -0.62792 0
M  V30 62070 H 5901.06 -3.2834 -2.24228 0
M  V30 62071 N 5902.05 0.412937 -1.52094 0
M  V30 62072 C 5902.99 1.52181 -1.71387 0
M  V30 62073 C 5904 1.51565 -0.5943 0
M  V30 62074 O 5905.19 1.55899 -0.869348 0
M  V30 62075 C 5902.29 2.9108 -1.73567 0
M  V30 62076 C 5901.46 3.15931 -3.02501 0
M  V30 62077 C 5900.52 4.34682 -2.96544 0
M  V30 62078 O 5899.55 4.32147 -3.70456 0
M  V30 62079 N 5900.75 5.39587 -2.14071 0
M  V30 62080 H 5903.51 1.36027 -2.67052 0
M  V30 62081 H 5901.07 0.60219 -1.50284 0
M  V30 62082 H 5903.07 3.68583 -1.67119 0
M  V30 62083 H 5901.64 3.00711 -0.853926 0
M  V30 62084 H 5900.86 2.26506 -3.22628 0
M  V30 62085 H 5902.14 3.29375 -3.87801 0
M  V30 62086 H 5901.54 5.44492 -1.53443 0
M  V30 62087 H 5900.1 6.15848 -2.13482 0
M  V30 62088 N 5903.53 1.42652 0.669932 0
M  V30 62089 C 5904.49 1.46202 1.76515 0
M  V30 62090 C 5905.49 0.348939 1.56968 0
M  V30 62091 O 5906.68 0.609979 1.63171 0
M  V30 62092 C 5903.82 1.2984 3.15205 0
M  V30 62093 H 5905.01 2.43724 1.74754 0
M  V30 62094 H 5902.56 1.29171 0.880025 0
M  V30 62095 H 5903.3 0.332606 3.2259 0
M  V30 62096 H 5903.08 2.10513 3.30797 0
M  V30 62097 H 5904.57 1.35218 3.95102 0
M  V30 62098 N 5905.01 -0.906708 1.28905 0
M  V30 62099 C 5905.94 -2.01155 1.07759 0
M  V30 62100 C 5906.92 -1.62598 -0.0084579 0
M  V30 62101 O 5908.1 -1.87973 0.140863 0
M  V30 62102 C 5905.23 -3.32618 0.638994 0
M  V30 62103 C 5904.28 -3.9016 1.72272 0
M  V30 62104 S 5905.11 -4.20136 3.32033 0
M  V30 62105 C 5906.27 -5.54649 2.90025 0
M  V30 62106 H 5906.5 -2.18784 2.01298 0
M  V30 62107 H 5904.03 -1.05245 1.12973 0
M  V30 62108 H 5905.99 -4.08618 0.392651 0
M  V30 62109 H 5904.65 -3.12879 -0.276682 0
M  V30 62110 H 5903.84 -4.8509 1.36762 0
M  V30 62111 H 5903.45 -3.20822 1.92222 0
M  V30 62112 H 5905.74 -6.34831 2.36634 0
M  V30 62113 H 5906.68 -5.95078 3.8378 0
M  V30 62114 H 5907.09 -5.16173 2.28529 0
M  V30 62115 N 5906.49 -1.11268 -1.11612 0
M  V30 62116 C 5907.72 -0.882868 -1.87118 0
M  V30 62117 C 5908.13 0.567215 -1.80078 0
M  V30 62118 O 5907.49 1.39154 -1.18079 0
M  V30 62119 C 5907.54 -1.33367 -3.35999 0
M  V30 62120 O 5907.26 -2.7269 -3.42887 0
M  V30 62121 C 5908.76 -1.13902 -4.28417 0
M  V30 62122 H 5905.98 -0.316296 -0.591775 0
M  V30 62123 H 5908.52 -1.47955 -1.41172 0
M  V30 62124 H 5906.68 -0.78048 -3.79457 0
M  V30 62125 H 5907.09 -2.92184 -4.35579 0
M  V30 62126 H 5908.57 -1.50348 -5.3113 0
M  V30 62127 H 5909.04 -0.0784134 -4.3913 0
M  V30 62128 H 5909.65 -1.6791 -3.90751 0
M  V30 62129 N 5907.97 1.29185 -0.902724 0
M  V30 62130 C 5909.19 2.00111 -0.545023 0
M  V30 62131 C 5909.62 1.67096 0.863746 0
M  V30 62132 O 5908.97 0.897234 1.57542 0
M  V30 62133 C 5909.02 3.5276 -0.747865 0
M  V30 62134 O 5908.13 4.11923 0.198243 0
M  V30 62135 H 5907.47 0.629047 -0.212594 0
M  V30 62136 H 5910 1.64607 -1.21514 0
M  V30 62137 H 5910.01 4.02729 -0.653687 0
M  V30 62138 H 5908.68 3.76125 -1.77491 0
M  V30 62139 H 5907.26 3.72858 0.0562649 0
M  V30 62140 N 5909.44 0.665525 1.42858 0
M  V30 62141 C 5910.38 -0.0685243 2.28097 0
M  V30 62142 C 5911.35 -0.817831 1.40536 0
M  V30 62143 O 5912.54 -0.81487 1.69977 0
M  V30 62144 C 5909.67 -1.10404 3.20201 0
M  V30 62145 C 5908.71 -0.451383 4.24105 0
M  V30 62146 S 5909.54 0.78418 5.29727 0
M  V30 62147 C 5910.7 -0.250498 6.25399 0
M  V30 62148 H 5910.93 0.654503 2.90006 0
M  V30 62149 H 5908.47 0.45476 1.47551 0
M  V30 62150 H 5910.42 -1.69644 3.73806 0
M  V30 62151 H 5909.09 -1.79946 2.57446 0
M  V30 62152 H 5908.28 -1.23242 4.887 0
M  V30 62153 H 5907.88 0.0671941 3.7394 0
M  V30 62154 H 5910.17 -1.11303 6.68295 0
M  V30 62155 H 5911.12 0.360743 7.0718 0
M  V30 62156 H 5911.52 -0.59182 5.61389 0
M  V30 62157 N 5910.92 -1.52221 0.40824 0
M  V30 62158 C 5912.15 -2.05923 -0.167114 0
M  V30 62159 C 5912.56 -1.27829 -1.39486 0
M  V30 62160 O 5911.9 -0.323128 -1.80836 0
M  V30 62161 C 5911.96 -3.54736 -0.58331 0
M  V30 62162 C 5911.63 -4.53874 0.533578 0
M  V30 62163 C 5912.63 -5.00783 1.39687 0
M  V30 62164 C 5910.31 -4.97313 0.706016 0
M  V30 62165 C 5912.3 -5.89773 2.41756 0
M  V30 62166 C 5909.99 -5.861 1.73002 0
M  V30 62167 C 5910.99 -6.32225 2.5842 0
M  V30 62168 O 5910.68 -7.19254 3.59066 0
M  V30 62169 H 5910.41 -0.675563 -0.0243148 0
M  V30 62170 H 5912.96 -1.97113 0.577544 0
M  V30 62171 H 5911.19 -3.61229 -1.38024 0
M  V30 62172 H 5912.88 -3.91089 -1.08648 0
M  V30 62173 H 5913.65 -4.6794 1.27505 0
M  V30 62174 H 5909.53 -4.60972 0.0508179 0
M  V30 62175 H 5913.07 -6.25697 3.08462 0
M  V30 62176 H 5908.97 -6.18357 1.85215 0
M  V30 62177 H 5909.74 -7.37363 3.553 0
M  V30 62178 N 5912.4 -0.138635 -1.56989 0
M  V30 62179 C 5913.35 0.804229 -2.16335 0
M  V30 62180 C 5914.32 1.24998 -1.09383 0
M  V30 62181 O 5915.5 1.324 -1.37386 0
M  V30 62182 C 5912.64 2.04127 -2.78255 0
M  V30 62183 C 5911.76 1.64209 -3.99574 0
M  V30 62184 C 5910.89 2.8303 -4.49519 0
M  V30 62185 C 5909.93 2.39445 -5.63323 0
M  V30 62186 N 5909.07 3.51245 -6.07924 0
M  V30 62187 H 5913.91 0.291336 -2.96572 0
M  V30 62188 H 5911.44 0.132094 -1.46506 0
M  V30 62189 H 5913.4 2.76635 -3.12296 0
M  V30 62190 H 5912.03 2.52842 -2.00676 0
M  V30 62191 H 5911.08 0.814993 -3.71567 0
M  V30 62192 H 5912.4 1.28193 -4.82046 0
M  V30 62193 H 5911.55 3.63738 -4.85571 0
M  V30 62194 H 5910.29 3.22285 -3.66038 0
M  V30 62195 H 5909.29 1.57174 -5.26855 0
M  V30 62196 H 5910.52 2.01285 -6.48584 0
M  V30 62197 H 5908.46 3.90138 -5.27379 0
M  V30 62198 H 5908.38 3.19217 -6.853 0
M  V30 62199 H 5909.65 4.32335 -6.48619 0
M  V30 62200 N 5913.88 1.57019 0.135155 0
M  V30 62201 C 5914.81 1.95773 1.19187 0
M  V30 62202 C 5915.82 0.855001 1.38541 0
M  V30 62203 O 5917.01 1.13337 1.37902 0
M  V30 62204 C 5914.11 2.22683 2.55471 0
M  V30 62205 C 5913.29 3.53981 2.56936 0
M  V30 62206 C 5912.34 3.69291 3.74847 0
M  V30 62207 O 5911.37 4.41568 3.59175 0
M  V30 62208 N 5912.57 3.06843 4.92775 0
M  V30 62209 H 5915.34 2.87025 0.86235 0
M  V30 62210 H 5912.9 1.58613 0.324602 0
M  V30 62211 H 5914.89 2.30156 3.32882 0
M  V30 62212 H 5913.46 1.37638 2.80668 0
M  V30 62213 H 5912.68 3.57842 1.65356 0
M  V30 62214 H 5913.97 4.40312 2.54957 0
M  V30 62215 H 5913.37 2.48061 5.08411 0
M  V30 62216 H 5911.92 3.19861 5.67919 0
M  V30 62217 N 5915.36 -0.404866 1.52311 0
M  V30 62218 C 5916.32 -1.47621 1.7533 0
M  V30 62219 C 5917.32 -1.48232 0.623205 0
M  V30 62220 O 5918.51 -1.49682 0.891122 0
M  V30 62221 C 5915.64 -2.87006 1.83957 0
M  V30 62222 H 5916.83 -1.285 2.70975 0
M  V30 62223 H 5914.39 -0.635627 1.42792 0
M  V30 62224 H 5915.12 -3.11491 0.902418 0
M  V30 62225 H 5914.91 -2.87965 2.66118 0
M  V30 62226 H 5916.4 -3.64664 2.03494 0
M  V30 62227 N 5916.83 -1.43006 -0.662357 0
M  V30 62228 C 5918.25 -1.26205 -0.976959 0
M  V30 62229 C 5918.45 -0.175175 -2.00737 0
M  V30 62230 O 5917.51 0.449453 -2.48468 0
M  V30 62231 C 5918.82 -2.62324 -1.46992 0
M  V30 62232 C 5920.37 -2.69781 -1.58705 0
M  V30 62233 C 5920.84 -4.06296 -2.11394 0
M  V30 62234 N 5922.33 -4.08314 -2.18709 0
M  V30 62235 C 5923.07 -5.1077 -2.6058 0
M  V30 62236 N 5922.56 -6.23603 -3.01813 0
M  V30 62237 N 5924.36 -4.98125 -2.60439 0
M  V30 62238 H 5916.51 -2.12391 0.0196444 0
M  V30 62239 H 5918.77 -0.946474 -0.0537711 0
M  V30 62240 H 5918.48 -3.42776 -0.78724 0
M  V30 62241 H 5918.35 -2.87096 -2.44654 0
M  V30 62242 H 5920.74 -1.89667 -2.26076 0
M  V30 62243 H 5920.82 -2.48784 -0.594993 0
M  V30 62244 H 5920.46 -4.86873 -1.44627 0
M  V30 62245 H 5920.39 -4.24652 -3.11413 0
M  V30 62246 H 5922.88 -3.26864 -1.89654 0
M  V30 62247 H 5923.2 -6.9762 -3.32484 0
M  V30 62248 H 5921.54 -6.2709 -2.99639 0
M  V30 62249 H 5924.73 -4.09045 -2.27596 0
M  V30 62250 H 5924.91 -5.78102 -2.92749 0
M  V30 62251 N 5918.31 0.899859 -1.29384 0
M  V30 62252 C 5919.28 1.9855 -1.14501 0
M  V30 62253 C 5920.28 1.60598 -0.0805296 0
M  V30 62254 O 5921.47 1.71095 -0.327455 0
M  V30 62255 C 5918.6 3.32526 -0.750935 0
M  V30 62256 H 5919.79 2.13182 -2.10935 0
M  V30 62257 H 5917.34 1.08434 -1.12568 0
M  V30 62258 H 5918.08 3.23596 0.213554 0
M  V30 62259 H 5917.86 3.61437 -1.52005 0
M  V30 62260 H 5919.35 4.12193 -0.669854 0
M  V30 62261 N 5919.79 1.11858 1.1102 0
M  V30 62262 C 5920.7 0.793758 2.20764 0
M  V30 62263 C 5921.72 -0.214935 1.72667 0
M  V30 62264 O 5922.89 -0.0500268 2.01338 0
M  V30 62265 C 5919.96 0.246496 3.45823 0
M  V30 62266 C 5919.02 1.31435 4.08685 0
M  V30 62267 C 5918.25 0.793107 5.27774 0
M  V30 62268 O 5918.47 -0.375292 5.69164 0
M  V30 62269 O 5917.41 1.55992 5.81335 0
M  V30 62270 H 5921.23 1.7102 2.5097 0
M  V30 62271 H 5918.82 0.894794 1.1964 0
M  V30 62272 H 5920.7 -0.0541151 4.21365 0
M  V30 62273 H 5919.38 -0.642592 3.17258 0
M  V30 62274 H 5918.28 1.66804 3.34854 0
M  V30 62275 H 5919.62 2.17698 4.41439 0
M  V30 62276 N 5921.27 -1.28704 0.909562 0
M  V30 62277 C 5922.55 -1.90122 0.459652 0
M  V30 62278 C 5922.93 -1.82481 -1.06132 0
M  V30 62279 O 5922.27 -1.25798 -1.90754 0
M  V30 62280 C 5922.48 -3.34803 0.985306 0
M  V30 62281 C 5923.83 -4.11795 1.0349 0
M  V30 62282 O 5924.86 -3.43746 0.933657 0
M  V30 62283 O 5923.71 -5.33422 1.18843 0
M  V30 62284 H 5920.81 -0.814193 0.144976 0
M  V30 62285 H 5923.35 -1.37101 1.00007 0
M  V30 62286 H 5922.13 -3.34568 2.02929 0
M  V30 62287 H 5921.75 -3.95317 0.425468 0
M  V30 62288 N 5922.75 -0.673092 -1.42503 0
M  V30 62289 C 5923.69 0.00629953 -2.30799 0
M  V30 62290 C 5924.66 0.794473 -1.45868 0
M  V30 62291 O 5925.85 0.767067 -1.74702 0
M  V30 62292 C 5922.99 0.952806 -3.31686 0
M  V30 62293 C 5922.1 0.158635 -4.31709 0
M  V30 62294 C 5921.24 1.10074 -5.1967 0
M  V30 62295 C 5920.28 0.298155 -6.11373 0
M  V30 62296 N 5919.41 1.19288 -6.91892 0
M  V30 62297 H 5924.25 -0.752471 -2.88343 0
M  V30 62298 H 5921.79 -0.382813 -1.42032 0
M  V30 62299 H 5923.75 1.51538 -3.88705 0
M  V30 62300 H 5922.38 1.67822 -2.75745 0
M  V30 62301 H 5921.43 -0.520539 -3.76822 0
M  V30 62302 H 5922.74 -0.464559 -4.96632 0
M  V30 62303 H 5921.9 1.7333 -5.81413 0
M  V30 62304 H 5920.63 1.75782 -4.5492 0
M  V30 62305 H 5919.64 -0.34763 -5.487 0
M  V30 62306 H 5920.86 -0.354808 -6.78172 0
M  V30 62307 H 5918.81 1.83639 -6.29772 0
M  V30 62308 H 5918.73 0.624721 -7.53414 0
M  V30 62309 H 5920 1.81296 -7.58124 0
M  V30 62310 N 5924.22 1.52002 -0.416307 0
M  V30 62311 C 5925.17 2.27207 0.405644 0
M  V30 62312 C 5926.14 1.29917 1.03493 0
M  V30 62313 O 5927.33 1.5879 1.05784 0
M  V30 62314 C 5924.47 3.10191 1.51247 0
M  V30 62315 C 5923.58 4.22449 0.903391 0
M  V30 62316 C 5922.71 4.92778 1.98351 0
M  V30 62317 C 5921.75 5.96988 1.35175 0
M  V30 62318 N 5920.89 6.60807 2.37232 0
M  V30 62319 H 5925.73 2.97015 -0.242087 0
M  V30 62320 H 5923.27 1.46514 -0.131225 0
M  V30 62321 H 5925.23 3.56613 2.16524 0
M  V30 62322 H 5923.86 2.4254 2.13013 0
M  V30 62323 H 5922.91 3.80144 0.139473 0
M  V30 62324 H 5924.22 4.97178 0.401961 0
M  V30 62325 H 5923.37 5.42642 2.71338 0
M  V30 62326 H 5922.11 4.17633 2.51861 0
M  V30 62327 H 5921.12 5.46436 0.607239 0
M  V30 62328 H 5922.34 6.74079 0.824245 0
M  V30 62329 H 5920.29 5.88487 2.89861 0
M  V30 62330 H 5920.21 7.31233 1.91921 0
M  V30 62331 H 5921.47 7.15307 3.09767 0
M  V30 62332 N 5925.7 0.146958 1.56913 0
M  V30 62333 C 5926.67 -0.778633 2.15569 0
M  V30 62334 C 5927.67 -1.17526 1.09746 0
M  V30 62335 O 5928.86 -1.09619 1.35386 0
M  V30 62336 C 5925.99 -2.05661 2.71876 0
M  V30 62337 H 5927.18 -0.268401 2.98697 0
M  V30 62338 H 5924.73 -0.102485 1.55964 0
M  V30 62339 H 5925.47 -2.6105 1.92414 0
M  V30 62340 H 5925.25 -1.78142 3.49296 0
M  V30 62341 H 5926.74 -2.71767 3.17068 0
M  V30 62342 N 5927.18 -1.57089 -0.126826 0
M  V30 62343 C 5928.13 -1.99768 -1.15592 0
M  V30 62344 C 5929.1 -0.868517 -1.41584 0
M  V30 62345 O 5930.28 -1.13214 -1.53581 0
M  V30 62346 C 5927.42 -2.40047 -2.47934 0
M  V30 62347 C 5926.54 -3.66344 -2.28945 0
M  V30 62348 C 5925.67 -3.95638 -3.54463 0
M  V30 62349 C 5924.71 -5.15142 -3.30598 0
M  V30 62350 N 5923.85 -5.40346 -4.48298 0
M  V30 62351 H 5928.69 -2.87475 -0.784977 0
M  V30 62352 H 5926.22 -1.4221 -0.376119 0
M  V30 62353 H 5928.18 -2.61435 -3.25127 0
M  V30 62354 H 5926.81 -1.55392 -2.82937 0
M  V30 62355 H 5925.86 -3.52617 -1.42708 0
M  V30 62356 H 5927.18 -4.53691 -2.07282 0
M  V30 62357 H 5926.33 -4.17632 -4.40077 0
M  V30 62358 H 5925.07 -3.06752 -3.7915 0
M  V30 62359 H 5924.07 -4.93001 -2.43373 0
M  V30 62360 H 5925.3 -6.05599 -3.07289 0
M  V30 62361 H 5923.25 -4.54416 -4.7312 0
M  V30 62362 H 5923.16 -6.22001 -4.29711 0
M  V30 62363 H 5924.43 -5.66853 -5.35068 0
M  V30 62364 N 5928.66 0.396782 -1.52523 0
M  V30 62365 C 5929.91 1.13972 -1.66413 0
M  V30 62366 C 5930.22 1.91332 -0.406393 0
M  V30 62367 O 5931.43 2.68148 -0.42529 0
M  V30 62368 C 5929.88 2.07502 -2.9406 0
M  V30 62369 C 5929.49 1.35601 -4.26985 0
M  V30 62370 C 5931.24 2.81979 -3.17314 0
M  V30 62371 C 5929.14 2.27851 -5.45745 0
M  V30 62372 H 5928.07 0.429159 -0.61995 0
M  V30 62373 H 5930.72 0.403144 -1.79017 0
M  V30 62374 H 5929.11 2.84763 -2.75184 0
M  V30 62375 H 5930.28 0.636188 -4.56387 0
M  V30 62376 H 5928.59 0.731153 -4.09931 0
M  V30 62377 H 5931.19 3.51166 -4.03221 0
M  V30 62378 H 5931.53 3.45621 -2.3206 0
M  V30 62379 H 5932.07 2.11813 -3.3672 0
M  V30 62380 H 5928.81 1.68836 -6.33384 0
M  V30 62381 H 5928.33 2.97771 -5.20666 0
M  V30 62382 H 5930.01 2.88106 -5.79313 0
M  V30 62383 N 5930.14 1.43355 0.654764 0
M  V30 62384 C 5931.38 1.45105 1.41677 0
M  V30 62385 C 5931.72 0.0744546 1.94057 0
M  V30 62386 O 5930.99 -0.904454 1.72191 0
M  V30 62387 C 5931.27 2.49213 2.59932 0
M  V30 62388 C 5931.13 3.96141 2.13055 0
M  V30 62389 C 5932.45 2.50076 3.62146 0
M  V30 62390 H 5929.57 0.528357 0.513817 0
M  V30 62391 H 5932.21 1.74894 0.742428 0
M  V30 62392 H 5930.36 2.23942 3.17462 0
M  V30 62393 H 5932.03 4.32464 1.60537 0
M  V30 62394 H 5930.27 4.09047 1.44441 0
M  V30 62395 H 5930.94 4.64596 2.98085 0
M  V30 62396 H 5933.42 2.72598 3.14372 0
M  V30 62397 H 5932.3 3.24865 4.42441 0
M  V30 62398 H 5932.56 1.534 4.14634 0
M  V30 62399 N 5931.62 -0.892985 1.2986 0
M  V30 62400 C 5932.84 -1.68266 1.21249 0
M  V30 62401 C 5933.27 -1.86779 -0.222555 0
M  V30 62402 O 5932.62 -1.39295 -1.16045 0
M  V30 62403 C 5932.67 -3.04093 1.93803 0
M  V30 62404 O 5931.78 -3.92691 1.25965 0
M  V30 62405 H 5931.12 -0.514464 0.419789 0
M  V30 62406 H 5933.65 -1.11507 1.71544 0
M  V30 62407 H 5933.66 -3.54191 2.02516 0
M  V30 62408 H 5932.33 -2.89938 2.98176 0
M  V30 62409 H 5930.91 -3.51128 1.25554 0
M  V30 62410 N 5933.09 -1.12445 -1.10425 0
M  V30 62411 C 5934.06 -0.795519 -2.14951 0
M  V30 62412 C 5935.06 0.190164 -1.59672 0
M  V30 62413 O 5936.25 -0.0356409 -1.74164 0
M  V30 62414 C 5933.38 -0.182162 -3.40413 0
M  V30 62415 H 5934.57 -1.72162 -2.45561 0
M  V30 62416 H 5932.12 -0.927717 -1.2579 0
M  V30 62417 H 5932.86 0.753655 -3.15421 0
M  V30 62418 H 5932.64 -0.891843 -3.81823 0
M  V30 62419 H 5934.13 0.0314818 -4.17588 0
M  V30 62420 N 5934.57 1.2822 -0.916375 0
M  V30 62421 C 5935.5 2.25481 -0.351207 0
M  V30 62422 C 5936.48 1.53157 0.546054 0
M  V30 62423 O 5937.67 1.82044 0.489118 0
M  V30 62424 C 5934.79 3.35023 0.497714 0
M  V30 62425 C 5933.84 4.25186 -0.334533 0
M  V30 62426 S 5934.67 5.06342 -1.74294 0
M  V30 62427 C 5935.83 6.19375 -0.90139 0
M  V30 62428 H 5936.06 2.73071 -1.17556 0
M  V30 62429 H 5933.59 1.367 -0.7178 0
M  V30 62430 H 5935.55 3.98589 0.981679 0
M  V30 62431 H 5934.21 2.86095 1.29648 0
M  V30 62432 H 5933.41 5.03016 0.314707 0
M  V30 62433 H 5933.01 3.66357 -0.752249 0
M  V30 62434 H 5935.3 6.77371 -0.132223 0
M  V30 62435 H 5936.24 6.88552 -1.65232 0
M  V30 62436 H 5936.65 5.62716 -0.448403 0
M  V30 62437 N 5936.05 0.68064 1.42144 0
M  V30 62438 C 5936.98 -0.0330636 2.29176 0
M  V30 62439 C 5937.99 -0.759601 1.43993 0
M  V30 62440 O 5939.18 -0.612787 1.67652 0
M  V30 62441 C 5936.28 -1.07065 3.21544 0
M  V30 62442 C 5935.46 -0.416761 4.3541 0
M  V30 62443 C 5934.52 -1.35492 5.08457 0
M  V30 62444 O 5933.54 -0.853 5.62772 0
M  V30 62445 N 5934.74 -2.68797 5.14518 0
M  V30 62446 H 5937.51 0.714065 2.91069 0
M  V30 62447 H 5935.07 0.525504 1.53134 0
M  V30 62448 H 5937.06 -1.69967 3.67278 0
M  V30 62449 H 5935.63 -1.71946 2.61062 0
M  V30 62450 H 5934.85 0.391872 3.92247 0
M  V30 62451 H 5936.14 0.0385353 5.08785 0
M  V30 62452 H 5935.54 -3.12109 4.7181 0
M  V30 62453 H 5934.09 -3.26931 5.63879 0
M  V30 62454 N 5937.53 -1.51779 0.424362 0
M  V30 62455 C 5938.76 -2.06388 -0.145475 0
M  V30 62456 C 5939.17 -1.29304 -1.37572 0
M  V30 62457 O 5938.53 -0.349015 -1.79132 0
M  V30 62458 C 5938.58 -3.5829 -0.480704 0
M  V30 62459 O 5938.3 -4.3246 0.700698 0
M  V30 62460 C 5939.8 -4.29368 -1.10262 0
M  V30 62461 H 5937.02 -0.670861 -0.0136672 0
M  V30 62462 H 5939.56 -1.95509 0.599707 0
M  V30 62463 H 5937.72 -3.69126 -1.17578 0
M  V30 62464 H 5938.13 -5.22838 0.417219 0
M  V30 62465 H 5939.61 -5.3678 -1.28728 0
M  V30 62466 H 5940.08 -3.86822 -2.08004 0
M  V30 62467 H 5940.69 -4.22941 -0.447309 0
M  V30 62468 N 5939.01 -0.155278 -1.56833 0
M  V30 62469 C 5939.94 0.819488 -2.12978 0
M  V30 62470 C 5940.92 1.23682 -1.05554 0
M  V30 62471 O 5942.1 1.33145 -1.33434 0
M  V30 62472 C 5939.23 2.10146 -2.65625 0
M  V30 62473 C 5938.27 1.82941 -3.85273 0
M  V30 62474 S 5939.11 1.01299 -5.25832 0
M  V30 62475 C 5940.26 2.30597 -5.81873 0
M  V30 62476 H 5940.5 0.342068 -2.95326 0
M  V30 62477 H 5938.03 0.0591416 -1.54287 0
M  V30 62478 H 5939.99 2.83787 -2.96606 0
M  V30 62479 H 5938.65 2.55002 -1.83392 0
M  V30 62480 H 5937.84 2.7802 -4.20382 0
M  V30 62481 H 5937.44 1.17404 -3.55095 0
M  V30 62482 H 5939.73 3.26185 -5.93809 0
M  V30 62483 H 5940.68 1.9998 -6.79274 0
M  V30 62484 H 5941.09 2.41624 -5.10175 0
M  V30 62485 N 5940.48 1.57154 0.118493 0
M  V30 62486 C 5941.41 2.03413 1.14653 0
M  V30 62487 C 5942.39 0.918686 1.43158 0
M  V30 62488 O 5943.58 1.18843 1.5359 0
M  V30 62489 C 5940.71 2.43888 2.47257 0
M  V30 62490 C 5939.66 3.58881 2.33213 0
M  V30 62491 C 5938.99 3.85257 3.70784 0
M  V30 62492 C 5940.29 4.90588 1.79222 0
M  V30 62493 H 5941.98 2.89547 0.76176 0
M  V30 62494 H 5939.53 1.39298 0.364985 0
M  V30 62495 H 5941.48 2.74855 3.19426 0
M  V30 62496 H 5940.21 1.54725 2.87624 0
M  V30 62497 H 5938.87 3.28125 1.63492 0
M  V30 62498 H 5938.51 2.93299 4.08637 0
M  V30 62499 H 5938.21 4.62662 3.6224 0
M  V30 62500 H 5939.74 4.18677 4.44457 0
M  V30 62501 H 5941.15 5.20088 2.41208 0
M  V30 62502 H 5939.55 5.71995 1.81497 0
M  V30 62503 H 5940.62 4.79068 0.749821 0
M  V30 62504 N 5941.96 -0.388688 1.52732 0
M  V30 62505 C 5943.21 -1.13369 1.67791 0
M  V30 62506 C 5943.54 -1.89955 0.417992 0
M  V30 62507 O 5942.79 -1.86288 -0.599617 0
M  V30 62508 C 5943.09 -2.13782 2.86413 0
M  V30 62509 C 5942.76 -1.5385 4.23841 0
M  V30 62510 C 5941.42 -1.37232 4.61217 0
M  V30 62511 C 5943.77 -1.1028 5.09399 0
M  V30 62512 C 5941.1 -0.755914 5.8181 0
M  V30 62513 C 5943.45 -0.500501 6.30617 0
M  V30 62514 C 5942.12 -0.321616 6.66725 0
M  V30 62515 H 5941.39 -0.414846 0.61399 0
M  V30 62516 H 5944.03 -0.418285 1.86876 0
M  V30 62517 H 5942.34 -2.91542 2.61745 0
M  V30 62518 H 5944.03 -2.71336 2.95259 0
M  V30 62519 H 5940.62 -1.67773 3.94398 0
M  V30 62520 H 5944.81 -1.21921 4.81091 0
M  V30 62521 H 5940.06 -0.60552 6.08394 0
M  V30 62522 H 5944.24 -0.154594 6.96228 0
M  V30 62523 H 5941.87 0.158104 7.60036 0
M  V30 62524 N 5943.44 -1.437 -0.647152 0
M  V30 62525 C 5944.69 -1.45351 -1.40419 0
M  V30 62526 C 5945.01 -0.0811975 -1.94831 0
M  V30 62527 O 5944.28 0.884318 -1.74805 0
M  V30 62528 H 5942.86 -0.535163 -0.521162 0
M  V30 62529 H 5945.52 -1.79352 -0.762824 0
M  V30 62530 H 5944.62 -2.16962 -2.24353 0
M  V30 62531 N 5944.92 0.886085 -1.30331 0
M  V30 62532 C 5945.85 1.99415 -1.10945 0
M  V30 62533 C 5946.83 1.62591 -0.0174111 0
M  V30 62534 O 5948.01 1.87725 -0.17075 0
M  V30 62535 C 5945.14 3.31559 -0.69183 0
M  V30 62536 C 5944.19 3.8737 -1.78457 0
M  V30 62537 S 5945.02 4.148 -3.38675 0
M  V30 62538 C 5946.18 5.49965 -2.98813 0
M  V30 62539 H 5946.41 2.15554 -2.04753 0
M  V30 62540 H 5943.94 1.03434 -1.14633 0
M  V30 62541 H 5945.9 4.07941 -0.457609 0
M  V30 62542 H 5944.56 3.1328 0.226871 0
M  V30 62543 H 5943.75 4.82853 -1.44462 0
M  V30 62544 H 5943.36 3.17723 -1.97302 0
M  V30 62545 H 5945.65 6.30986 -2.46704 0
M  V30 62546 H 5946.59 5.88898 -3.93199 0
M  V30 62547 H 5947 5.12472 -2.36712 0
M  V30 62548 N 5946.4 1.13029 1.09828 0
M  V30 62549 C 5947.65 0.884156 1.81289 0
M  V30 62550 C 5947.96 -0.591543 1.86441 0
M  V30 62551 O 5949.16 -0.954482 2.54169 0
M  V30 62552 C 5947.62 1.53219 3.25656 0
M  V30 62553 C 5947.23 3.04312 3.28783 0
M  V30 62554 C 5948.97 1.36658 4.01901 0
M  V30 62555 C 5946.88 3.6202 4.67649 0
M  V30 62556 H 5945.81 0.327125 0.679342 0
M  V30 62557 H 5948.46 1.35752 1.23465 0
M  V30 62558 H 5946.84 0.986488 3.83516 0
M  V30 62559 H 5948.02 3.65428 2.80712 0
M  V30 62560 H 5946.33 3.20342 2.66027 0
M  V30 62561 H 5948.93 1.77188 5.04488 0
M  V30 62562 H 5949.27 0.310955 4.15137 0
M  V30 62563 H 5949.8 1.88185 3.50473 0
M  V30 62564 H 5946.54 4.6737 4.59614 0
M  V30 62565 H 5946.06 3.05681 5.16061 0
M  V30 62566 H 5947.74 3.6145 5.36621 0
M  V30 62567 N 5947.87 -1.27732 0.923162 0
M  V30 62568 C 5948.82 -2.26996 0.417334 0
M  V30 62569 C 5949.79 -1.57969 -0.513309 0
M  V30 62570 O 5950.98 -1.85811 -0.433456 0
M  V30 62571 C 5948.12 -3.43538 -0.327968 0
M  V30 62572 C 5947.23 -4.27289 0.636263 0
M  V30 62573 C 5946.36 -5.31045 -0.128428 0
M  V30 62574 C 5945.4 -6.06463 0.828805 0
M  V30 62575 N 5944.54 -7.02033 0.0970326 0
M  V30 62576 H 5949.38 -2.69639 1.26882 0
M  V30 62577 H 5946.92 -1.32595 0.636946 0
M  V30 62578 H 5948.88 -4.09913 -0.77636 0
M  V30 62579 H 5947.51 -3.01859 -1.14372 0
M  V30 62580 H 5946.56 -3.60871 1.20318 0
M  V30 62581 H 5947.87 -4.79674 1.36801 0
M  V30 62582 H 5947.02 -6.03347 -0.636946 0
M  V30 62583 H 5945.76 -4.79451 -0.893172 0
M  V30 62584 H 5944.77 -5.33003 1.34861 0
M  V30 62585 H 5945.99 -6.60145 1.59326 0
M  V30 62586 H 5943.94 -6.52776 -0.64955 0
M  V30 62587 H 5943.86 -7.52084 0.768436 0
M  V30 62588 H 5945.12 -7.78519 -0.390983 0
M  V30 62589 N 5949.35 -0.688168 -1.41782 0
M  V30 62590 C 5950.3 -0.0181802 -2.30793 0
M  V30 62591 C 5951.27 0.778957 -1.46702 0
M  V30 62592 O 5952.45 0.748495 -1.75506 0
M  V30 62593 C 5949.59 0.917573 -3.32678 0
M  V30 62594 C 5948.71 0.112838 -4.31853 0
M  V30 62595 C 5947.84 1.04556 -5.20809 0
M  V30 62596 C 5946.88 0.233294 -6.11655 0
M  V30 62597 N 5946.02 1.11942 -6.93119 0
M  V30 62598 H 5950.86 -0.783012 -2.87529 0
M  V30 62599 H 5948.4 -0.397856 -1.41618 0
M  V30 62600 H 5950.35 1.47407 -3.90291 0
M  V30 62601 H 5948.98 1.64888 -2.7751 0
M  V30 62602 H 5948.04 -0.560477 -3.76248 0
M  V30 62603 H 5949.35 -0.517208 -4.96111 0
M  V30 62604 H 5948.5 1.67153 -5.83219 0
M  V30 62605 H 5947.24 1.70947 -4.56759 0
M  V30 62606 H 5946.25 -0.405807 -5.483 0
M  V30 62607 H 5947.47 -0.426717 -6.77758 0
M  V30 62608 H 5945.42 1.76949 -6.31684 0
M  V30 62609 H 5945.33 0.544777 -7.54035 0
M  V30 62610 H 5946.6 1.73245 -7.60004 0
M  V30 62611 N 5950.83 1.51552 -0.432405 0
M  V30 62612 C 5951.76 2.30515 0.372161 0
M  V30 62613 C 5952.74 1.35715 1.02545 0
M  V30 62614 O 5953.93 1.64633 1.03003 0
M  V30 62615 C 5951.06 3.14358 1.47635 0
M  V30 62616 C 5950.01 4.17396 0.946827 0
M  V30 62617 C 5949.34 4.89729 2.14639 0
M  V30 62618 C 5950.64 5.22298 -0.0153213 0
M  V30 62619 H 5952.33 2.98023 -0.286784 0
M  V30 62620 H 5949.88 1.43324 -0.139366 0
M  V30 62621 H 5951.83 3.68376 2.04638 0
M  V30 62622 H 5950.55 2.44662 2.16352 0
M  V30 62623 H 5949.21 3.64422 0.399046 0
M  V30 62624 H 5948.86 4.1654 2.81964 0
M  V30 62625 H 5948.56 5.594 1.79849 0
M  V30 62626 H 5950.08 5.46568 2.72205 0
M  V30 62627 H 5951.5 5.71417 0.464246 0
M  V30 62628 H 5949.9 5.99467 -0.27555 0
M  V30 62629 H 5950.97 4.75432 -0.953524 0
M  V30 62630 N 5952.31 0.163593 1.56749 0
M  V30 62631 C 5953.59 -0.529282 1.88303 0
M  V30 62632 C 5953.97 -1.81841 1.07225 0
M  V30 62633 O 5953.31 -2.27911 0.16389 0
M  V30 62634 C 5953.52 -0.778676 3.40202 0
M  V30 62635 C 5954.87 -1.11211 4.09777 0
M  V30 62636 O 5955.9 -0.867476 3.45475 0
M  V30 62637 O 5954.75 -1.57325 5.23365 0
M  V30 62638 H 5951.85 -0.2719 0.781025 0
M  V30 62639 H 5954.39 0.201449 1.685 0
M  V30 62640 H 5953.17 0.132976 3.91074 0
M  V30 62641 H 5952.79 -1.563 3.6559 0
M  V30 62642 N 5953.79 -1.57215 -0.110157 0
M  V30 62643 C 5954.73 -2.01976 -1.15363 0
M  V30 62644 C 5955.73 -0.918187 -1.42358 0
M  V30 62645 O 5956.93 -1.10339 -1.42216 0
M  V30 62646 H 5953.31 -0.643463 -0.389178 0
M  V30 62647 H 5955.28 -2.88829 -0.749679 0
M  V30 62648 C 5954.03 -2.44738 -2.46979 0
M  V30 62649 H 5953.35 -3.29074 -2.27047 0
M  V30 62650 H 5954.79 -2.79848 -3.1853 0
M  V30 62651 C 5953.25 -1.31456 -3.10195 0
M  V30 62652 O 5953.78 -0.63539 -3.96643 0
M  V30 62653 N 5951.99 -1.06937 -2.70209 0
M  V30 62654 H 5951.53 -1.62346 -2.00004 0
M  V30 62655 H 5951.49 -0.313383 -3.12834 0
M  V30 62656 N 5955.26 0.380583 -1.52936 0
M  V30 62657 C 5956.54 1.13952 -1.58979 0
M  V30 62658 C 5956.92 2.07502 -0.388101 0
M  V30 62659 O 5956.27 2.19846 0.622906 0
M  V30 62660 C 5956.48 1.89182 -2.93276 0
M  V30 62661 C 5957.83 2.44247 -3.47316 0
M  V30 62662 O 5958.85 1.99328 -2.95206 0
M  V30 62663 O 5957.71 3.26322 -4.38379 0
M  V30 62664 H 5954.8 0.521873 -0.641543 0
M  V30 62665 H 5957.35 0.385056 -1.65274 0
M  V30 62666 H 5956.12 1.20821 -3.7218 0
M  V30 62667 H 5955.75 2.71571 -2.90405 0
M  V30 62668 N 5956.74 1.44041 0.639523 0
M  V30 62669 C 5957.99 1.46599 1.4013 0
M  V30 62670 C 5958.32 0.0950328 1.93967 0
M  V30 62671 O 5957.6 -0.88614 1.73141 0
M  V30 62672 C 5957.88 2.51956 2.57274 0
M  V30 62673 C 5957.73 3.98379 2.08841 0
M  V30 62674 C 5959.05 2.53903 3.59473 0
M  V30 62675 H 5956.17 0.533777 0.508184 0
M  V30 62676 H 5958.81 1.75672 0.723836 0
M  V30 62677 H 5956.96 2.27296 3.15069 0
M  V30 62678 H 5958.64 4.34143 1.55941 0
M  V30 62679 H 5956.88 4.10556 1.40094 0
M  V30 62680 H 5957.55 4.67731 2.93141 0
M  V30 62681 H 5960.03 2.75917 3.11463 0
M  V30 62682 H 5958.9 3.29539 4.3897 0
M  V30 62683 H 5959.16 1.57789 4.12983 0
M  V30 62684 N 5958.22 -0.879161 1.308 0
M  V30 62685 C 5959.15 -2.00153 1.20253 0
M  V30 62686 C 5960.13 -1.69852 0.0918287 0
M  V30 62687 O 5961.32 -1.92245 0.27486 0
M  V30 62688 C 5958.45 -3.35447 0.89959 0
M  V30 62689 C 5957.4 -3.80026 1.96886 0
M  V30 62690 C 5956.73 -5.12676 1.51879 0
M  V30 62691 C 5958.03 -3.98124 3.38075 0
M  V30 62692 H 5959.72 -2.09235 2.14152 0
M  V30 62693 H 5957.27 -1.00531 1.031 0
M  V30 62694 H 5959.22 -4.13494 0.812445 0
M  V30 62695 H 5957.94 -3.26514 -0.0750742 0
M  V30 62696 H 5956.6 -3.04212 2.04574 0
M  V30 62697 H 5956.25 -5.00176 0.532239 0
M  V30 62698 H 5955.95 -5.43474 2.23405 0
M  V30 62699 H 5957.48 -5.93242 1.44555 0
M  V30 62700 H 5958.89 -4.66593 3.33113 0
M  V30 62701 H 5957.29 -4.40307 4.07737 0
M  V30 62702 H 5958.36 -3.01794 3.79537 0
M  V30 62703 N 5959.7 -1.1361 -1.09227 0
M  V30 62704 C 5960.65 -0.810823 -2.1801 0
M  V30 62705 C 5961.64 0.207723 -1.68122 0
M  V30 62706 O 5962.85 0.0646642 -1.79884 0
M  V30 62707 H 5959.22 -0.24444 -0.711163 0
M  V30 62708 H 5961.19 -1.7364 -2.42676 0
M  V30 62709 C 5959.94 -0.295424 -3.46443 0
M  V30 62710 H 5959.27 -1.07051 -3.85202 0
M  V30 62711 H 5960.71 -0.106276 -4.23867 0
M  V30 62712 C 5959.16 0.979284 -3.22353 0
M  V30 62713 O 5959.69 2.05471 -3.45174 0
M  V30 62714 N 5957.9 0.911185 -2.75945 0
M  V30 62715 H 5957.45 0.0358884 -2.57575 0
M  V30 62716 H 5957.41 1.76467 -2.60205 0
M  V30 62717 N 5961.18 1.27241 -0.929923 0
M  V30 62718 C 5962.43 1.93884 -0.570399 0
M  V30 62719 C 5962.75 1.73423 0.891595 0
M  V30 62720 O 5962.02 1.08326 1.63225 0
M  V30 62721 H 5960.6 0.717468 -0.207962 0
M  V30 62722 H 5963.26 1.54906 -1.1828 0
M  V30 62723 H 5962.35 3.02233 -0.778569 0
M  V30 62724 N 5962.66 0.695678 1.41415 0
M  V30 62725 C 5963.9 0.223789 2.00455 0
M  V30 62726 C 5964.22 -1.18346 1.55735 0
M  V30 62727 O 5965.42 -1.75283 2.07336 0
M  V30 62728 C 5963.88 0.349202 3.58202 0
M  V30 62729 C 5963.49 1.76183 4.11902 0
M  V30 62730 C 5965.23 -0.062907 4.24453 0
M  V30 62731 C 5963.14 1.83889 5.62084 0
M  V30 62732 H 5962.07 0.0799096 0.749754 0
M  V30 62733 H 5964.72 0.863891 1.61893 0
M  V30 62734 H 5963.1 -0.359152 3.94368 0
M  V30 62735 H 5964.28 2.49895 3.87155 0
M  V30 62736 H 5962.59 2.12362 3.58178 0
M  V30 62737 H 5965.19 -0.0257705 5.34694 0
M  V30 62738 H 5965.53 -1.10165 4.01459 0
M  V30 62739 H 5966.06 0.595174 3.93322 0
M  V30 62740 H 5962.8 2.85816 5.89906 0
M  V30 62741 H 5962.32 1.14562 5.88758 0
M  V30 62742 H 5964 1.60183 6.26857 0
M  V30 62743 N 5964.13 -1.51321 0.440437 0
M  V30 62744 C 5965.38 -2.01303 -0.12651 0
M  V30 62745 C 5965.7 -1.32903 -1.43513 0
M  V30 62746 O 5966.9 -1.73872 -2.08521 0
M  V30 62747 C 5965.36 -3.5884 -0.276 0
M  V30 62748 C 5964.97 -4.36178 1.02237 0
M  V30 62749 C 5966.71 -4.1696 -0.79655 0
M  V30 62750 C 5964.62 -5.85428 0.838354 0
M  V30 62751 H 5963.55 -0.75227 -0.0510544 0
M  V30 62752 H 5966.2 -1.74401 0.57067 0
M  V30 62753 H 5964.58 -3.82201 -1.03626 0
M  V30 62754 H 5965.75 -4.24562 1.7912 0
M  V30 62755 H 5964.07 -3.89526 1.47169 0
M  V30 62756 H 5966.67 -5.26179 -0.950765 0
M  V30 62757 H 5967.01 -3.76335 -1.77982 0
M  V30 62758 H 5967.54 -3.97688 -0.0945215 0
M  V30 62759 H 5964.28 -6.3047 1.7941 0
M  V30 62760 H 5963.8 -5.997 0.109378 0
M  V30 62761 H 5965.48 -6.45121 0.492774 0
M  V30 62762 N 5965.61 -0.171903 -1.5666 0
M  V30 62763 C 5966.84 0.482325 -2.01714 0
M  V30 62764 C 5967.26 1.55976 -1.05134 0
M  V30 62765 O 5966.62 1.81274 -0.0309815 0
M  V30 62766 C 5966.67 1.03704 -3.45366 0
M  V30 62767 O 5965.77 2.15101 -3.5186 0
M  V30 62768 H 5965.11 0.115416 -0.653892 0
M  V30 62769 H 5967.64 -0.275966 -2.0273 0
M  V30 62770 H 5967.65 1.3595 -3.84684 0
M  V30 62771 H 5966.33 0.248174 -4.15159 0
M  V30 62772 H 5964.9 1.83896 -3.24402 0
M  V30 62773 N 5967.09 1.57271 0.101818 0
M  V30 62774 C 5968.04 2.02584 1.1429 0
M  V30 62775 C 5969.03 0.925723 1.41869 0
M  V30 62776 O 5970.24 1.11091 1.41629 0
M  V30 62777 H 5966.61 0.645518 0.38576 0
M  V30 62778 H 5968.58 2.89223 0.734351 0
M  V30 62779 C 5967.33 2.46045 2.45677 0
M  V30 62780 H 5966.66 3.30273 2.25299 0
M  V30 62781 H 5968.1 2.81533 3.17041 0
M  V30 62782 C 5966.55 1.331 3.09493 0
M  V30 62783 O 5967.08 0.656416 3.963 0
M  V30 62784 N 5965.29 1.08368 2.69638 0
M  V30 62785 H 5964.84 1.63404 1.9914 0
M  V30 62786 H 5964.8 0.329969 3.12664 0
M  V30 62787 N 5968.57 -0.372467 1.53135 0
M  V30 62788 C 5969.53 -1.43869 1.78422 0
M  V30 62789 C 5970.53 -1.46877 0.654507 0
M  V30 62790 O 5971.72 -1.47758 0.922671 0
M  V30 62791 C 5968.85 -2.83039 1.90004 0
M  V30 62792 H 5970.05 -1.22724 2.7364 0
M  V30 62793 H 5967.6 -0.605196 1.44108 0
M  V30 62794 H 5968.33 -3.09507 0.968287 0
M  V30 62795 H 5968.12 -2.82255 2.72166 0
M  V30 62796 H 5969.61 -3.60266 2.11184 0
M  V30 62797 N 5970.05 -1.44378 -0.631875 0
M  V30 62798 C 5971.46 -1.28249 -0.949969 0
M  V30 62799 C 5971.66 -0.217715 -2.0032 0
M  V30 62800 O 5970.72 0.396648 -2.49365 0
M  V30 62801 C 5972.03 -2.65383 -1.41395 0
M  V30 62802 C 5973.58 -2.73087 -1.52946 0
M  V30 62803 C 5974.05 -4.10689 -2.02728 0
M  V30 62804 N 5975.54 -4.12862 -2.09999 0
M  V30 62805 C 5976.28 -5.16182 -2.49687 0
M  V30 62806 N 5975.78 -6.29865 -2.88517 0
M  V30 62807 N 5977.57 -5.03537 -2.49814 0
M  V30 62808 H 5969.72 -2.12301 0.0646913 0
M  V30 62809 H 5971.98 -0.947401 -0.0336829 0
M  V30 62810 H 5971.69 -3.44369 -0.714355 0
M  V30 62811 H 5971.56 -2.92221 -2.38509 0
M  V30 62812 H 5973.95 -1.9442 -2.22002 0
M  V30 62813 H 5974.03 -2.4999 -0.542088 0
M  V30 62814 H 5973.67 -4.89831 -1.34267 0
M  V30 62815 H 5973.6 -4.31162 -3.02335 0
M  V30 62816 H 5976.1 -3.30813 -1.82678 0
M  V30 62817 H 5976.41 -7.04516 -3.17612 0
M  V30 62818 H 5974.75 -6.33304 -2.8627 0
M  V30 62819 H 5977.94 -4.1378 -2.18869 0
M  V30 62820 H 5978.12 -5.84182 -2.8042 0
M  V30 62821 N 5971.52 0.872212 -1.31264 0
M  V30 62822 C 5972.47 2.00061 -1.18652 0
M  V30 62823 C 5973.47 1.69131 -0.0953466 0
M  V30 62824 O 5974.67 1.78155 -0.257084 0
M  V30 62825 H 5971.05 0.656188 -0.367316 0
M  V30 62826 H 5973.02 2.0783 -2.14124 0
M  V30 62827 C 5971.77 3.35625 -0.908359 0
M  V30 62828 H 5971.09 3.59944 -1.74012 0
M  V30 62829 H 5972.53 4.15181 -0.86028 0
M  V30 62830 C 5970.99 3.34648 0.388875 0
M  V30 62831 O 5971.52 3.76276 1.40638 0
M  V30 62832 N 5969.73 2.8777 0.404607 0
M  V30 62833 H 5969.27 2.54088 -0.423914 0
M  V30 62834 H 5969.23 2.87499 1.27248 0
M  V30 62835 N 5973 1.14188 1.08623 0
M  V30 62836 C 5974.25 0.906933 1.80608 0
M  V30 62837 C 5974.57 -0.568116 1.86541 0
M  V30 62838 O 5973.84 -1.41296 1.35692 0
M  V30 62839 H 5972.42 0.332547 0.668896 0
M  V30 62840 H 5975.08 1.44003 1.31336 0
M  V30 62841 H 5974.18 1.30494 2.8351 0
M  V30 62842 N 5974.48 -1.26746 0.936658 0
M  V30 62843 C 5975.72 -1.95723 0.589239 0
M  V30 62844 C 5976.08 -1.71908 -0.855085 0
M  V30 62845 O 5977.29 -2.3465 -1.31122 0
M  V30 62846 C 5975.56 -3.4544 0.916828 0
M  V30 62847 S 5977.12 -4.3351 0.679272 0
M  V30 62848 H 5973.93 -0.677016 0.217186 0
M  V30 62849 H 5976.54 -1.53791 1.20701 0
M  V30 62850 H 5975.24 -3.60273 1.9655 0
M  V30 62851 H 5974.77 -3.9234 0.288604 0
M  V30 62852 H 5976.79 -4.94075 -0.45869 0
M  V30 62853 N 5975.96 -0.703167 -1.41044 0
M  V30 62854 C 5977.21 -0.234417 -2.00333 0
M  V30 62855 C 5977.52 1.17519 -1.56361 0
M  V30 62856 O 5978.73 1.74181 -2.08263 0
M  V30 62857 C 5977.18 -0.368193 -3.58012 0
M  V30 62858 C 5976.79 -1.78365 -4.10962 0
M  V30 62859 C 5978.53 0.0403964 -4.24481 0
M  V30 62860 C 5976.44 -1.86867 -5.61101 0
M  V30 62861 H 5975.37 -0.0838846 -0.749319 0
M  V30 62862 H 5978.02 -0.872464 -1.61432 0
M  V30 62863 H 5976.4 0.338232 -3.94553 0
M  V30 62864 H 5977.58 -2.51945 -3.85824 0
M  V30 62865 H 5975.89 -2.14259 -3.57046 0
M  V30 62866 H 5978.49 -0.002586 -5.347 0
M  V30 62867 H 5978.83 1.08035 -4.02038 0
M  V30 62868 H 5979.37 -0.616025 -3.93001 0
M  V30 62869 H 5976.11 -2.88941 -5.88382 0
M  V30 62870 H 5975.63 -1.17682 -5.88142 0
M  V30 62871 H 5977.3 -1.63506 -6.25999 0
M  V30 62872 N 5977.44 1.51085 -0.448455 0
M  V30 62873 C 5978.85 1.86696 0.0120608 0
M  V30 62874 C 5979.2 1.36488 1.40945 0
M  V30 62875 O 5978.32 0.720312 2.0406 0
M  V30 62876 C 5978.92 3.38788 0.0286623 0
M  V30 62877 C 5977.48 3.73894 0.433627 0
M  V30 62878 C 5976.62 2.74868 -0.366458 0
M  V30 62879 H 5979.58 1.44151 -0.663795 0
M  V30 62880 H 5979.6 3.71207 0.835784 0
M  V30 62881 H 5979.11 3.753 -0.9885 0
M  V30 62882 H 5977.21 3.42975 1.45598 0
M  V30 62883 H 5977.32 4.78863 0.1507 0
M  V30 62884 H 5975.69 2.54086 0.176772 0
M  V30 62885 H 5976.47 3.14223 -1.38271 0
M  V30 62886 N 5978.91 0.180209 1.56566 0
M  V30 62887 C 5979.84 -0.742053 2.21395 0
M  V30 62888 C 5980.83 -1.23249 1.17234 0
M  V30 62889 O 5982.01 -1.28403 1.45692 0
M  V30 62890 C 5979.14 -1.96789 2.86167 0
M  V30 62891 C 5978.09 -1.61296 3.96444 0
M  V30 62892 C 5977.42 -2.91418 4.48307 0
M  V30 62893 C 5978.72 -0.834201 5.15595 0
M  V30 62894 H 5980.41 -0.201654 2.9872 0
M  V30 62895 H 5977.96 -0.0955511 1.43683 0
M  V30 62896 H 5979.91 -2.61817 3.30197 0
M  V30 62897 H 5978.64 -2.53257 2.06224 0
M  V30 62898 H 5977.3 -0.986327 3.53082 0
M  V30 62899 H 5976.94 -3.45945 3.65145 0
M  V30 62900 H 5976.64 -2.6842 5.22709 0
M  V30 62901 H 5978.17 -3.5746 4.9503 0
M  V30 62902 H 5979.58 -1.38726 5.56263 0
M  V30 62903 H 5977.98 -0.702922 5.95969 0
M  V30 62904 H 5979.05 0.167724 4.8461 0
M  V30 62905 N 5980.39 -1.57323 -0.0934766 0
M  V30 62906 C 5981.62 -1.90757 -0.814044 0
M  V30 62907 C 5982.04 -0.774631 -1.71409 0
M  V30 62908 O 5981.4 0.273711 -1.79222 0
M  V30 62909 C 5981.45 -3.23061 -1.602 0
M  V30 62910 O 5980.55 -3.10765 -2.71107 0
M  V30 62911 H 5979.89 -0.625244 -0.22353 0
M  V30 62912 H 5982.42 -2.04486 -0.0682161 0
M  V30 62913 H 5982.43 -3.56408 -1.98588 0
M  V30 62914 H 5981.11 -4.05104 -0.941465 0
M  V30 62915 H 5979.69 -2.88935 -2.35735 0
M  V30 62916 N 5981.87 0.364341 -1.53331 0
M  V30 62917 C 5983.12 1.10849 -1.69824 0
M  V30 62918 C 5983.45 1.8893 -0.449358 0
M  V30 62919 O 5982.72 1.86462 0.553371 0
M  V30 62920 C 5983.01 2.0667 -2.94889 0
M  V30 62921 C 5982.86 1.3219 -4.29937 0
M  V30 62922 C 5984.18 3.06777 -3.15557 0
M  V30 62923 H 5981.3 0.401604 -0.617967 0
M  V30 62924 H 5983.94 0.389179 -1.85971 0
M  V30 62925 H 5982.09 2.68009 -2.81253 0
M  V30 62926 H 5983.76 0.73626 -4.55387 0
M  V30 62927 H 5982.01 0.623765 -4.29292 0
M  V30 62928 H 5982.68 2.02332 -5.13581 0
M  V30 62929 H 5985.15 2.55542 -3.28386 0
M  V30 62930 H 5984.03 3.71044 -4.04496 0
M  V30 62931 H 5984.29 3.77015 -2.30894 0
M  V30 62932 N 5983.35 1.44711 0.624209 0
M  V30 62933 C 5984.6 1.47136 1.37963 0
M  V30 62934 C 5984.91 0.110576 1.95287 0
M  V30 62935 O 5986.12 0.0123847 2.71497 0
M  V30 62936 C 5984.57 2.59068 2.49824 0
M  V30 62937 C 5984.18 4.01385 1.98983 0
M  V30 62938 C 5985.92 2.70721 3.26972 0
M  V30 62939 C 5983.83 5.04728 3.08227 0
M  V30 62940 H 5982.76 0.547442 0.518481 0
M  V30 62941 H 5985.41 1.708 0.670803 0
M  V30 62942 H 5983.79 2.28657 3.23314 0
M  V30 62943 H 5984.97 4.41396 1.32312 0
M  V30 62944 H 5983.28 3.94035 1.3463 0
M  V30 62945 H 5985.88 3.45101 4.08423 0
M  V30 62946 H 5986.22 1.76777 3.76903 0
M  V30 62947 H 5986.76 3.00576 2.60575 0
M  V30 62948 H 5983.5 6.00324 2.63232 0
M  V30 62949 H 5983.02 4.69303 3.73517 0
M  V30 62950 H 5984.69 5.28738 3.72888 0
M  V30 62951 N 5984.83 -0.865239 1.31725 0
M  V30 62952 C 5986.24 -1.43441 1.19505 0
M  V30 62953 C 5986.59 -1.95212 -0.196619 0
M  V30 62954 O 5985.71 -1.8667 -1.09469 0
M  V30 62955 C 5986.31 -2.60733 2.16342 0
M  V30 62956 C 5984.87 -3.13681 2.08042 0
M  V30 62957 C 5984.01 -1.86401 2.05304 0
M  V30 62958 H 5986.97 -0.673349 1.43707 0
M  V30 62959 H 5986.99 -3.37569 1.75578 0
M  V30 62960 H 5986.5 -2.23022 3.1762 0
M  V30 62961 H 5984.6 -3.56 1.09975 0
M  V30 62962 H 5984.71 -3.75643 2.97371 0
M  V30 62963 H 5983.08 -2.05562 1.50388 0
M  V30 62964 H 5983.86 -1.50922 3.08346 0
M  V30 62965 N 5986.31 -1.14762 -1.08016 0
M  V30 62966 C 5987.24 -0.861054 -2.17044 0
M  V30 62967 C 5988.22 0.185593 -1.69084 0
M  V30 62968 O 5989.4 0.0414115 -1.94156 0
M  V30 62969 C 5986.53 -0.34214 -3.45611 0
M  V30 62970 C 5985.49 -1.32469 -4.06984 0
M  V30 62971 C 5984.81 -0.664908 -5.3055 0
M  V30 62972 C 5986.11 -2.68835 -4.478 0
M  V30 62973 H 5987.81 -1.77278 -2.41274 0
M  V30 62974 H 5985.35 -0.853798 -1.15958 0
M  V30 62975 H 5987.3 -0.129241 -4.21202 0
M  V30 62976 H 5986.03 0.605025 -3.20947 0
M  V30 62977 H 5984.69 -1.52383 -3.33429 0
M  V30 62978 H 5984.34 0.288191 -5.02174 0
M  V30 62979 H 5984.04 -1.32056 -5.72569 0
M  V30 62980 H 5985.56 -0.461626 -6.08853 0
M  V30 62981 H 5986.97 -2.52806 -5.14551 0
M  V30 62982 H 5985.37 -3.30711 -5.0075 0
M  V30 62983 H 5986.44 -3.2541 -3.59494 0
M  V30 62984 N 5987.78 1.26247 -0.943366 0
M  V30 62985 C 5989.02 1.95407 -0.59961 0
M  V30 62986 C 5989.39 1.72359 0.845956 0
M  V30 62987 O 5990.59 2.35342 1.29876 0
M  V30 62988 C 5988.86 3.44949 -0.935134 0
M  V30 62989 S 5990.42 4.33144 -0.702253 0
M  V30 62990 H 5987.24 0.675855 -0.220773 0
M  V30 62991 H 5989.84 1.53148 -1.21515 0
M  V30 62992 H 5988.54 3.59225 -1.98458 0
M  V30 62993 H 5988.07 3.92181 -0.309406 0
M  V30 62994 H 5990.09 4.94312 0.432481 0
M  V30 62995 N 5989.26 0.710637 1.40669 0
M  V30 62996 C 5990.22 0.0636794 2.29112 0
M  V30 62997 C 5991.22 -0.692486 1.45125 0
M  V30 62998 O 5992.41 -0.525126 1.66097 0
M  V30 62999 C 5989.55 -0.919839 3.28256 0
M  V30 63000 H 5990.74 0.842578 2.8782 0
M  V30 63001 H 5988.29 0.475001 1.48907 0
M  V30 63002 H 5989.03 -1.72597 2.74556 0
M  V30 63003 H 5988.81 -0.380572 3.90249 0
M  V30 63004 H 5990.3 -1.36984 3.94494 0
M  V30 63005 N 5990.74 -1.50845 0.456461 0
M  V30 63006 C 5991.96 -2.07139 -0.103982 0
M  V30 63007 C 5992.39 -1.31971 -1.34035 0
M  V30 63008 O 5991.75 -0.3631 -1.77627 0
M  V30 63009 C 5991.8 -3.58532 -0.385668 0
M  V30 63010 O 5990.9 -3.85357 -1.46881 0
M  V30 63011 H 5990.24 -0.663968 0.0065358 0
M  V30 63012 H 5992.77 -1.94224 0.643299 0
M  V30 63013 H 5992.78 -4.03099 -0.630503 0
M  V30 63014 H 5991.46 -4.12663 0.517875 0
M  V30 63015 H 5990.03 -3.52639 -1.21244 0
M  V30 63016 N 5992.22 -0.188509 -1.56469 0
M  V30 63017 C 5993.17 0.751744 -2.20117 0
M  V30 63018 C 5994.16 1.22472 -1.17034 0
M  V30 63019 O 5995.37 1.18838 -1.35194 0
M  V30 63020 H 5991.74 0.260754 -0.705345 0
M  V30 63021 H 5993.71 0.191145 -2.97787 0
M  V30 63022 C 5992.46 1.96355 -2.86949 0
M  V30 63023 H 5991.78 1.60866 -3.66008 0
M  V30 63024 H 5993.22 2.59995 -3.34931 0
M  V30 63025 C 5991.68 2.79813 -1.87633 0
M  V30 63026 O 5992.21 3.77525 -1.3725 0
M  V30 63027 N 5990.42 2.45173 -1.56008 0
M  V30 63028 H 5989.97 1.65773 -1.97173 0
M  V30 63029 H 5989.92 3.01299 -0.898118 0
M  V30 63030 N 5993.7 1.5737 0.0851321 0
M  V30 63031 C 5994.64 2.02762 1.10255 0
M  V30 63032 C 5995.61 0.905751 1.39231 0
M  V30 63033 O 5996.8 1.17247 1.50525 0
M  V30 63034 C 5993.94 2.46536 2.41483 0
M  V30 63035 C 5993.05 3.72285 2.19152 0
M  V30 63036 C 5992.19 4.04897 3.43849 0
M  V30 63037 C 5991.22 5.23727 3.16823 0
M  V30 63038 N 5990.36 5.52042 4.33814 0
M  V30 63039 H 5995.2 2.89456 0.708482 0
M  V30 63040 H 5992.74 1.43157 0.338282 0
M  V30 63041 H 5994.7 2.69963 3.18081 0
M  V30 63042 H 5993.33 1.62839 2.78718 0
M  V30 63043 H 5992.38 3.56277 1.33309 0
M  V30 63044 H 5993.69 4.59027 1.95181 0
M  V30 63045 H 5992.84 4.29154 4.2885 0
M  V30 63046 H 5991.58 3.16696 3.70884 0
M  V30 63047 H 5990.59 4.9928 2.30217 0
M  V30 63048 H 5991.81 6.13533 2.91125 0
M  V30 63049 H 5989.76 4.668 4.60905 0
M  V30 63050 H 5989.68 6.33175 4.13068 0
M  V30 63051 H 5990.94 5.80841 5.19851 0
M  V30 63052 N 5995.17 -0.356204 1.53522 0
M  V30 63053 C 5996.1 -1.44265 1.83603 0
M  V30 63054 C 5997.08 -1.55468 0.690195 0
M  V30 63055 O 5998.27 -1.69883 0.940928 0
M  V30 63056 C 5995.4 -2.81483 2.03432 0
M  V30 63057 C 5994.35 -2.85097 3.19223 0
M  V30 63058 C 5993.68 -4.2508 3.24362 0
M  V30 63059 C 5994.98 -2.51772 4.57611 0
M  V30 63060 H 5996.67 -1.1934 2.74587 0
M  V30 63061 H 5994.22 -0.57266 1.32123 0
M  V30 63062 H 5996.17 -3.57523 2.23059 0
M  V30 63063 H 5994.9 -3.07816 1.09166 0
M  V30 63064 H 5993.56 -2.11509 2.99432 0
M  V30 63065 H 5993.2 -4.48502 2.27716 0
M  V30 63066 H 5992.9 -4.28412 4.02165 0
M  V30 63067 H 5994.43 -5.0298 3.46185 0
M  V30 63068 H 5995.84 -3.17525 4.77337 0
M  V30 63069 H 5994.24 -2.66407 5.37724 0
M  V30 63070 H 5995.31 -1.46993 4.62083 0
M  V30 63071 N 5996.65 -1.4504 -0.616526 0
M  V30 63072 C 5998.07 -1.29249 -0.936313 0
M  V30 63073 C 5998.27 -0.238949 -2.00078 0
M  V30 63074 O 5997.32 0.370177 -2.49772 0
M  V30 63075 C 5998.64 -2.66868 -1.38572 0
M  V30 63076 C 6000.18 -2.74694 -1.50041 0
M  V30 63077 C 6000.66 -4.12816 -1.98361 0
M  V30 63078 N 6002.15 -4.15066 -2.05608 0
M  V30 63079 C 6002.89 -5.18801 -2.44198 0
M  V30 63080 N 6002.38 -6.3289 -2.8182 0
M  V30 63081 N 6004.17 -5.06158 -2.44459 0
M  V30 63082 H 5996.33 -2.12221 0.0872051 0
M  V30 63083 H 5998.59 -0.947705 -0.0236326 0
M  V30 63084 H 5998.29 -3.45107 -0.67779 0
M  V30 63085 H 5998.17 -2.94734 -2.35396 0
M  V30 63086 H 6000.56 -1.96764 -2.19928 0
M  V30 63087 H 6000.64 -2.50551 -0.515543 0
M  V30 63088 H 6000.28 -4.91228 -1.29064 0
M  V30 63089 H 6000.21 -4.34345 -2.97745 0
M  V30 63090 H 6002.7 -3.32732 -1.79159 0
M  V30 63091 H 6003.01 -7.07845 -3.10122 0
M  V30 63092 H 6001.36 -6.36305 -2.79537 0
M  V30 63093 H 6004.55 -4.16078 -2.14468 0
M  V30 63094 H 6004.72 -5.87123 -2.74208 0
M  V30 63095 N 5998.13 0.858241 -1.32182 0
M  V30 63096 C 5999.38 1.61455 -1.22719 0
M  V30 63097 C 5999.71 1.93046 0.211411 0
M  V30 63098 O 5998.98 1.57038 1.14758 0
M  V30 63099 C 5999.27 2.9372 -2.08327 0
M  V30 63100 C 5999.12 2.68934 -3.60547 0
M  V30 63101 C 6000.44 3.94952 -1.94167 0
M  V30 63102 H 5997.56 0.585856 -0.447149 0
M  V30 63103 H 6000.2 0.991283 -1.62091 0
M  V30 63104 H 5998.35 3.46914 -1.74879 0
M  V30 63105 H 6000.02 2.22322 -4.04191 0
M  V30 63106 H 5998.26 2.0296 -3.83392 0
M  V30 63107 H 5998.94 3.63098 -4.15769 0
M  V30 63108 H 6001.41 3.51005 -2.23461 0
M  V30 63109 H 6000.29 4.85362 -2.56349 0
M  V30 63110 H 6000.55 4.32669 -0.908284 0
M  V30 63111 N 5999.61 1.15334 1.07405 0
M  V30 63112 C 6000.85 0.929245 1.80258 0
M  V30 63113 C 6001.19 -0.542321 1.86474 0
M  V30 63114 O 6000.46 -1.40205 1.34807 0
M  V30 63115 C 6000.74 1.5435 3.25343 0
M  V30 63116 C 6000.6 3.08563 3.27275 0
M  V30 63117 C 6001.92 1.22883 4.22596 0
M  V30 63118 H 5999.04 0.339008 0.654402 0
M  V30 63119 H 6001.68 1.42489 1.25685 0
M  V30 63120 H 5999.83 1.122 3.71945 0
M  V30 63121 H 6001.5 3.59615 2.8892 0
M  V30 63122 H 5999.74 3.42481 2.66251 0
M  V30 63123 H 6000.41 3.46655 4.29575 0
M  V30 63124 H 6002.89 1.59342 3.84382 0
M  V30 63125 H 6001.77 1.6848 5.22404 0
M  V30 63126 H 6002.03 0.145767 4.4186 0
M  V30 63127 N 6001.09 -1.25745 0.950048 0
M  V30 63128 C 6002.34 -1.9263 0.598056 0
M  V30 63129 C 6002.65 -1.75271 -0.868303 0
M  V30 63130 O 6003.85 -2.36689 -1.33006 0
M  V30 63131 C 6002.31 -3.45176 1.01891 0
M  V30 63132 C 6001.92 -3.71253 2.50749 0
M  V30 63133 C 6003.66 -4.18014 0.739231 0
M  V30 63134 C 6001.57 -5.17282 2.86659 0
M  V30 63135 H 6000.5 -0.721202 0.219964 0
M  V30 63136 H 6003.15 -1.42681 1.15388 0
M  V30 63137 H 6001.53 -3.9406 0.391533 0
M  V30 63138 H 6002.71 -3.3304 3.18467 0
M  V30 63139 H 6001.02 -3.11666 2.7614 0
M  V30 63140 H 6003.62 -5.25573 0.98374 0
M  V30 63141 H 6003.96 -4.15035 -0.324244 0
M  V30 63142 H 6004.49 -3.75023 1.32674 0
M  V30 63143 H 6001.23 -5.25369 3.92005 0
M  V30 63144 H 6000.75 -5.56559 2.23611 0
M  V30 63145 H 6002.43 -5.85365 2.75603 0
M  V30 63146 N 6002.56 -0.718087 -1.4029 0
M  V30 63147 C 6003.98 -0.33074 -1.83747 0
M  V30 63148 C 6004.33 1.13505 -1.60034 0
M  V30 63149 O 6003.45 1.87377 -1.08254 0
M  V30 63150 C 6004.05 -0.593515 -3.33561 0
M  V30 63151 C 6002.61 -0.259849 -3.75502 0
M  V30 63152 C 6001.75 -0.86463 -2.63476 0
M  V30 63153 H 6004.7 -0.917046 -1.29522 0
M  V30 63154 H 6004.72 0.14041 -3.80241 0
M  V30 63155 H 6004.24 -1.66041 -3.50788 0
M  V30 63156 H 6002.34 0.801883 -3.63869 0
M  V30 63157 H 6002.45 -0.730593 -4.73497 0
M  V30 63158 H 6000.81 -0.292488 -2.53015 0
M  V30 63159 H 6001.6 -1.93584 -2.83514 0
M  V30 63160 N 6004.04 1.50601 -0.464455 0
M  V30 63161 C 6005.32 1.94992 0.154078 0
M  V30 63162 C 6005.7 1.40452 1.57596 0
M  V30 63163 O 6005.05 0.602746 2.20407 0
M  V30 63164 C 6005.26 3.48844 0.104173 0
M  V30 63165 C 6006.61 4.23565 0.296357 0
M  V30 63166 O 6007.63 3.5574 0.181062 0
M  V30 63167 O 6006.49 5.43939 0.528477 0
M  V30 63168 H 6003.58 0.818926 0.115282 0
M  V30 63169 H 6006.13 1.61395 -0.524381 0
M  V30 63170 H 6004.9 3.81072 -0.888824 0
M  V30 63171 H 6004.52 3.8896 0.824378 0
M  V30 63172 N 6005.52 0.196805 1.56366 0
M  V30 63173 C 6006.77 -0.441514 1.97628 0
M  V30 63174 C 6007.1 -1.6151 1.08374 0
M  V30 63175 O 6006.35 -1.95312 0.123208 0
M  V30 63176 C 6006.65 -0.942261 3.44755 0
M  V30 63177 C 6006.32 0.118135 4.50745 0
M  V30 63178 C 6004.98 0.4095 4.79454 0
M  V30 63179 C 6007.33 0.836555 5.14443 0
M  V30 63180 C 6004.66 1.42423 5.69151 0
M  V30 63181 C 6007.01 1.84045 6.05236 0
M  V30 63182 C 6005.67 2.13899 6.323 0
M  V30 63183 H 6004.94 -0.161561 0.723173 0
M  V30 63184 H 6007.59 0.29413 1.89228 0
M  V30 63185 H 6005.9 -1.75621 3.50235 0
M  V30 63186 H 6007.59 -1.44558 3.74037 0
M  V30 63187 H 6004.18 -0.119123 4.28434 0
M  V30 63188 H 6008.37 0.624683 4.92353 0
M  V30 63189 H 6003.62 1.66143 5.88393 0
M  V30 63190 H 6007.8 2.40234 6.53652 0
M  V30 63191 H 6005.42 2.92673 7.01603 0
M  V30 63192 N 6007 -1.57413 -0.0767852 0
M  V30 63193 C 6008.23 -1.91226 -0.78994 0
M  V30 63194 C 6008.64 -0.792292 -1.71371 0
M  V30 63195 O 6008 0.234672 -1.80985 0
M  V30 63196 C 6008.05 -3.24763 -1.58781 0
M  V30 63197 O 6007.77 -4.32452 -0.701177 0
M  V30 63198 C 6009.27 -3.72558 -2.40241 0
M  V30 63199 H 6006.49 -0.632198 -0.224871 0
M  V30 63200 H 6009.04 -2.04442 -0.0485455 0
M  V30 63201 H 6007.19 -3.13089 -2.28154 0
M  V30 63202 H 6007.6 -5.09249 -1.25562 0
M  V30 63203 H 6009.08 -4.68638 -2.91689 0
M  V30 63204 H 6009.56 -3.01316 -3.19539 0
M  V30 63205 H 6010.16 -3.87159 -1.76034 0
M  V30 63206 N 6008.48 0.348057 -1.53709 0
M  V30 63207 C 6009.72 1.09042 -1.7099 0
M  V30 63208 C 6010.06 1.88442 -0.469371 0
M  V30 63209 O 6009.33 1.87038 0.533563 0
M  V30 63210 C 6009.61 2.03531 -2.97064 0
M  V30 63211 C 6009.47 1.27623 -4.31315 0
M  V30 63212 C 6010.79 3.03413 -3.18793 0
M  V30 63213 H 6007.9 0.395027 -0.622192 0
M  V30 63214 H 6010.55 0.369432 -1.86374 0
M  V30 63215 H 6008.7 2.65011 -2.8408 0
M  V30 63216 H 6010.37 0.687919 -4.56142 0
M  V30 63217 H 6008.61 0.578198 -4.29929 0
M  V30 63218 H 6009.28 1.96873 -5.15698 0
M  V30 63219 H 6011.76 2.52045 -3.31078 0
M  V30 63220 H 6010.63 3.66733 -4.08409 0
M  V30 63221 H 6010.9 3.74545 -2.34879 0
M  V30 63222 N 6009.95 1.45365 0.608825 0
M  V30 63223 C 6011.2 1.50529 1.36794 0
M  V30 63224 C 6011.56 0.144487 1.91857 0
M  V30 63225 O 6010.85 -0.843441 1.72037 0
M  V30 63226 C 6011.04 2.51902 2.53535 0
M  V30 63227 C 6010.87 3.97707 2.09904 0
M  V30 63228 C 6009.64 4.65682 1.96134 0
M  V30 63229 C 6011.84 4.86278 1.67447 0
M  V30 63230 N 6009.82 5.96213 1.463 0
M  V30 63231 C 6011.19 6.06427 1.2902 0
M  V30 63232 C 6013.25 4.7315 1.55028 0
M  V30 63233 C 6011.95 7.14903 0.794126 0
M  V30 63234 C 6013.98 5.81672 1.06825 0
M  V30 63235 C 6013.34 7.00977 0.693611 0
M  V30 63236 H 6009.44 0.60578 0.494525 0
M  V30 63237 H 6012.02 1.8183 0.696123 0
M  V30 63238 H 6010.19 2.22555 3.18314 0
M  V30 63239 H 6011.92 2.47222 3.20411 0
M  V30 63240 H 6008.68 4.20816 2.17281 0
M  V30 63241 H 6009.1 6.65618 1.23619 0
M  V30 63242 H 6013.75 3.81327 1.82619 0
M  V30 63243 H 6011.46 8.06516 0.505768 0
M  V30 63244 H 6015.05 5.73548 0.976436 0
M  V30 63245 H 6013.93 7.83521 0.326354 0
M  V30 63246 N 6011.43 -0.851219 1.32635 0
M  V30 63247 C 6012.38 -1.98148 1.2182 0
M  V30 63248 C 6013.37 -1.68958 0.122242 0
M  V30 63249 O 6014.58 -1.77723 0.285395 0
M  V30 63250 H 6010.96 -0.650262 0.377709 0
M  V30 63251 H 6012.93 -2.04397 2.17404 0
M  V30 63252 C 6011.68 -3.34137 0.961639 0
M  V30 63253 H 6011 -3.5713 1.79717 0
M  V30 63254 H 6012.44 -4.1376 0.926222 0
M  V30 63255 C 6010.9 -3.35224 -0.335586 0
M  V30 63256 O 6011.43 -3.78466 -1.34634 0
M  V30 63257 N 6009.63 -2.88377 -0.358774 0
M  V30 63258 H 6009.18 -2.53381 0.464283 0
M  V30 63259 H 6009.14 -2.89487 -1.22658 0
M  V30 63260 N 6012.91 -1.15902 -1.06792 0
M  V30 63261 C 6013.84 -0.818729 -2.14078 0
M  V30 63262 C 6014.86 0.17179 -1.61891 0
M  V30 63263 O 6016.04 -0.0522587 -1.78423 0
M  V30 63264 C 6013.14 -0.197402 -3.38325 0
M  V30 63265 C 6012.32 -1.22676 -4.19844 0
M  V30 63266 C 6011.38 -0.626168 -5.22461 0
M  V30 63267 O 6010.4 -1.29366 -5.54304 0
M  V30 63268 N 6011.6 0.589462 -5.77499 0
M  V30 63269 H 6014.37 -1.74205 -2.4387 0
M  V30 63270 H 6011.93 -1.05566 -1.22749 0
M  V30 63271 H 6013.92 0.217297 -4.04116 0
M  V30 63272 H 6012.49 0.629369 -3.06199 0
M  V30 63273 H 6011.71 -1.81782 -3.49784 0
M  V30 63274 H 6013 -1.9216 -4.71118 0
M  V30 63275 H 6012.4 1.15002 -5.53887 0
M  V30 63276 H 6010.96 0.94644 -6.44892 0
M  V30 63277 N 6014.39 1.2524 -0.956703 0
M  V30 63278 C 6015.63 1.93297 -0.613514 0
M  V30 63279 C 6015.97 1.74726 0.84761 0
M  V30 63280 O 6015.24 1.09362 1.60842 0
M  V30 63281 C 6015.53 3.46634 -0.975543 0
M  V30 63282 C 6015.38 3.74422 -2.49255 0
M  V30 63283 C 6016.7 4.37226 -0.502102 0
M  V30 63284 H 6013.82 0.702019 -0.224363 0
M  V30 63285 H 6016.46 1.47818 -1.19373 0
M  V30 63286 H 6014.61 3.85501 -0.481806 0
M  V30 63287 H 6016.28 3.4518 -3.06021 0
M  V30 63288 H 6014.52 3.19956 -2.92934 0
M  V30 63289 H 6015.19 4.81664 -2.69636 0
M  V30 63290 H 6017.67 4.05673 -0.925657 0
M  V30 63291 H 6016.55 5.43271 -0.784086 0
M  V30 63292 H 6016.81 4.38038 0.597928 0
M  V30 63293 N 6015.87 0.725517 1.39907 0
M  V30 63294 C 6017.11 0.26972 2.00998 0
M  V30 63295 C 6017.45 -1.13721 1.5742 0
M  V30 63296 O 6016.72 -1.77342 0.798755 0
M  V30 63297 C 6017 0.36091 3.58287 0
M  V30 63298 C 6016.86 1.80693 4.1191 0
M  V30 63299 C 6018.18 -0.262173 4.39318 0
M  V30 63300 H 6015.3 0.0994804 0.730255 0
M  V30 63301 H 6017.94 0.919888 1.66247 0
M  V30 63302 H 6016.09 -0.192642 3.88022 0
M  V30 63303 H 6017.76 2.41663 3.92933 0
M  V30 63304 H 6016 2.3314 3.65826 0
M  V30 63305 H 6016.67 1.82207 5.21061 0
M  V30 63306 H 6019.15 0.209598 4.15572 0
M  V30 63307 H 6018.03 -0.167973 5.48643 0
M  V30 63308 H 6018.29 -1.34701 4.2108 0
M  V30 63309 N 6017.35 -1.50352 0.472435 0
M  V30 63310 C 6018.57 -2.06746 -0.0797407 0
M  V30 63311 C 6018.99 -1.33615 -1.33389 0
M  V30 63312 O 6018.35 -0.405828 -1.77931 0
M  V30 63313 C 6018.4 -3.59638 -0.366473 0
M  V30 63314 O 6018.12 -4.30012 0.837928 0
M  V30 63315 C 6019.62 -4.32659 -0.965466 0
M  V30 63316 H 6016.84 -0.670956 0.00768263 0
M  V30 63317 H 6019.38 -1.93502 0.661603 0
M  V30 63318 H 6017.54 -3.7268 -1.05775 0
M  V30 63319 H 6017.95 -5.21246 0.583345 0
M  V30 63320 H 6019.43 -5.40604 -1.11585 0
M  V30 63321 H 6019.9 -3.93244 -1.95592 0
M  V30 63322 H 6020.51 -4.2415 -0.312527 0
M  V30 63323 N 6018.82 -0.205094 -1.5626 0
M  V30 63324 C 6020.05 0.435716 -2.01953 0
M  V30 63325 C 6020.46 1.55045 -1.08433 0
M  V30 63326 O 6019.8 1.83512 -0.0831921 0
M  V30 63327 C 6019.87 1.04347 -3.44023 0
M  V30 63328 C 6019.53 0.0662348 -4.56952 0
M  V30 63329 C 6020.53 -0.72809 -5.14777 0
M  V30 63330 C 6018.21 -0.0477484 -5.02277 0
M  V30 63331 C 6020.21 -1.62326 -6.16384 0
M  V30 63332 C 6017.89 -0.946472 -6.03726 0
M  V30 63333 C 6018.89 -1.73279 -6.60654 0
M  V30 63334 O 6018.58 -2.61643 -7.6013 0
M  V30 63335 H 6018.31 0.112697 -0.66654 0
M  V30 63336 H 6020.87 -0.314065 -2.02985 0
M  V30 63337 H 6019.1 1.84203 -3.40009 0
M  V30 63338 H 6020.78 1.58997 -3.73463 0
M  V30 63339 H 6021.55 -0.650389 -4.80619 0
M  V30 63340 H 6017.43 0.554134 -4.57657 0
M  V30 63341 H 6020.97 -2.23745 -6.60745 0
M  V30 63342 H 6016.87 -1.02525 -6.37306 0
M  V30 63343 H 6017.64 -2.55534 -7.77589 0
M  V30 63344 N 6020.3 1.57451 0.0684361 0
M  V30 63345 C 6021.71 1.76109 0.61987 0
M  V30 63346 C 6022.06 0.831002 1.77732 0
M  V30 63347 O 6021.19 0.0159242 2.16394 0
M  V30 63348 C 6021.78 3.19356 1.13125 0
M  V30 63349 C 6020.34 3.39347 1.62852 0
M  V30 63350 C 6019.49 2.71803 0.549381 0
M  V30 63351 H 6022.44 1.57914 -0.157745 0
M  V30 63352 H 6022.46 3.237 1.99996 0
M  V30 63353 H 6021.97 3.87025 0.288626 0
M  V30 63354 H 6020.07 2.76796 2.49429 0
M  V30 63355 H 6020.19 4.47805 1.70315 0
M  V30 63356 H 6018.55 2.34451 0.99522 0
M  V30 63357 H 6019.33 3.42131 -0.283115 0
M  V30 63358 N 6021.78 -0.339901 1.53891 0
M  V30 63359 C 6023 -1.10411 1.75568 0
M  V30 63360 C 6023.43 -1.81464 0.49522 0
M  V30 63361 O 6022.79 -1.72681 -0.552355 0
M  V30 63362 C 6022.84 -2.09046 2.93823 0
M  V30 63363 O 6021.94 -3.16636 2.64226 0
M  V30 63364 H 6021.28 -0.319143 0.582275 0
M  V30 63365 H 6023.81 -0.38918 2.00865 0
M  V30 63366 H 6023.82 -2.52203 3.20714 0
M  V30 63367 H 6022.5 -1.56727 3.85239 0
M  V30 63368 H 6021.07 -2.78269 2.48235 0
M  V30 63369 N 6023.26 -1.45686 -0.601108 0
M  V30 63370 C 6024.19 -1.577 -1.72201 0
M  V30 63371 C 6025.17 -0.428199 -1.64622 0
M  V30 63372 O 6026.35 -0.652155 -1.82922 0
M  V30 63373 C 6023.48 -1.54952 -3.10817 0
M  V30 63374 C 6022.44 -2.68614 -3.33212 0
M  V30 63375 C 6021.76 -2.50922 -4.72167 0
M  V30 63376 C 6023.06 -4.10579 -3.22834 0
M  V30 63377 H 6024.76 -2.51527 -1.62403 0
M  V30 63378 H 6022.3 -1.21053 -0.779887 0
M  V30 63379 H 6024.26 -1.61953 -3.89036 0
M  V30 63380 H 6022.98 -0.576584 -3.2147 0
M  V30 63381 H 6021.64 -2.61052 -2.57385 0
M  V30 63382 H 6021.29 -1.51753 -4.79562 0
M  V30 63383 H 6020.99 -3.27148 -4.88107 0
M  V30 63384 H 6022.51 -2.59787 -5.52579 0
M  V30 63385 H 6023.93 -4.1935 -3.9092 0
M  V30 63386 H 6022.32 -4.87246 -3.50301 0
M  V30 63387 H 6023.39 -4.3203 -2.20177 0
M  V30 63388 N 6024.74 0.844173 -1.33084 0
M  V30 63389 C 6025.68 1.97499 -1.22869 0
M  V30 63390 C 6026.68 1.68891 -0.1312 0
M  V30 63391 O 6027.88 1.77569 -0.294816 0
M  V30 63392 H 6024.26 0.648249 -0.381152 0
M  V30 63393 H 6026.23 2.03241 -2.18485 0
M  V30 63394 C 6024.98 3.33623 -0.979345 0
M  V30 63395 H 6024.3 3.56172 -1.81608 0
M  V30 63396 H 6025.74 4.13263 -0.948152 0
M  V30 63397 C 6024.2 3.35398 0.317804 0
M  V30 63398 O 6024.73 3.79175 1.32625 0
M  V30 63399 N 6022.94 2.88563 0.343476 0
M  V30 63400 H 6022.48 2.53132 -0.477714 0
M  V30 63401 H 6022.44 2.90133 1.21121 0
M  V30 63402 N 6026.21 1.16466 1.06176 0
M  V30 63403 C 6027.44 0.969731 1.82427 0
M  V30 63404 C 6027.85 -0.485328 1.82869 0
M  V30 63405 O 6027.19 -1.34864 1.2473 0
M  V30 63406 C 6027.26 1.42173 3.30193 0
M  V30 63407 C 6026.92 2.89692 3.53451 0
M  V30 63408 C 6027.92 3.87689 3.464 0
M  V30 63409 C 6025.6 3.27639 3.80734 0
M  V30 63410 C 6027.6 5.21635 3.66301 0
M  V30 63411 C 6025.28 4.61753 4.00284 0
M  V30 63412 C 6026.28 5.5856 3.93065 0
M  V30 63413 O 6025.97 6.9025 4.12081 0
M  V30 63414 H 6025.7 0.343829 0.582029 0
M  V30 63415 H 6028.26 1.54933 1.34852 0
M  V30 63416 H 6026.49 0.785619 3.78636 0
M  V30 63417 H 6028.17 1.19402 3.87941 0
M  V30 63418 H 6028.94 3.59719 3.25311 0
M  V30 63419 H 6024.82 2.52864 3.85462 0
M  V30 63420 H 6028.36 5.97182 3.60581 0
M  V30 63421 H 6024.26 4.89433 4.20863 0
M  V30 63422 H 6025.03 6.96843 4.29362 0
M  V30 63423 N 6027.69 -1.2473 0.963332 0
M  V30 63424 C 6028.65 -2.23793 0.494903 0
M  V30 63425 C 6029.65 -1.55586 -0.40617 0
M  V30 63426 O 6030.84 -1.73022 -0.202241 0
M  V30 63427 C 6027.98 -3.39716 -0.283844 0
M  V30 63428 H 6029.17 -2.66748 1.3706 0
M  V30 63429 H 6026.72 -1.37268 0.747476 0
M  V30 63430 H 6027.46 -3.02194 -1.17683 0
M  V30 63431 H 6027.24 -3.90419 0.362724 0
M  V30 63432 H 6028.73 -4.13256 -0.600754 0
M  V30 63433 N 6029.17 -0.732927 -1.3952 0
M  V30 63434 C 6030.42 -0.279408 -2.00159 0
M  V30 63435 C 6030.74 1.13667 -1.58445 0
M  V30 63436 O 6030.01 1.77366 -0.831744 0
M  V30 63437 H 6028.59 -0.100314 -0.740234 0
M  V30 63438 H 6031.25 -0.942423 -1.706 0
M  V30 63439 H 6030.35 -0.326162 -3.10391 0
M  V30 63440 N 6030.65 1.501 -0.480402 0
M  V30 63441 C 6031.61 2.27259 0.297683 0
M  V30 63442 C 6032.61 1.32418 0.912249 0
M  V30 63443 O 6033.8 1.55762 0.77998 0
M  V30 63444 C 6030.93 3.09689 1.42498 0
M  V30 63445 H 6032.13 2.97494 -0.379115 0
M  V30 63446 H 6029.68 1.54527 -0.234736 0
M  V30 63447 H 6030.41 2.43972 2.13655 0
M  V30 63448 H 6030.2 3.79396 0.989991 0
M  V30 63449 H 6031.69 3.6802 1.97361 0
M  V30 63450 N 6032.13 0.213378 1.56149 0
M  V30 63451 C 6033.06 -0.694925 2.22919 0
M  V30 63452 C 6034.04 -1.20734 1.19822 0
M  V30 63453 O 6035.22 -1.25284 1.48383 0
M  V30 63454 C 6032.35 -1.90674 2.90277 0
M  V30 63455 C 6031.31 -1.52851 3.99776 0
M  V30 63456 C 6030.63 -2.81843 4.54388 0
M  V30 63457 C 6031.93 -0.724648 5.17249 0
M  V30 63458 H 6033.63 -0.138246 2.99081 0
M  V30 63459 H 6031.17 -0.0650524 1.43853 0
M  V30 63460 H 6033.13 -2.54754 3.35676 0
M  V30 63461 H 6031.85 -2.48826 2.1155 0
M  V30 63462 H 6030.51 -0.911211 3.55095 0
M  V30 63463 H 6030.16 -3.38122 3.72401 0
M  V30 63464 H 6029.86 -2.57273 5.28285 0
M  V30 63465 H 6031.38 -3.4688 5.02501 0
M  V30 63466 H 6032.79 -1.26896 5.5908 0
M  V30 63467 H 6031.19 -0.57635 5.97326 0
M  V30 63468 H 6032.26 0.270479 4.84145 0
M  V30 63469 N 6033.6 -1.57485 -0.0600851 0
M  V30 63470 C 6034.85 -1.88956 -0.752817 0
M  V30 63471 C 6035.21 -0.808458 -1.7459 0
M  V30 63472 O 6034.5 0.186205 -1.90693 0
M  V30 63473 C 6034.69 -3.24844 -1.49033 0
M  V30 63474 C 6034.52 -4.46071 -0.570184 0
M  V30 63475 C 6033.29 -5.04893 -0.202744 0
M  V30 63476 C 6035.49 -5.14114 0.138154 0
M  V30 63477 N 6033.47 -6.09641 0.721903 0
M  V30 63478 C 6034.84 -6.13143 0.919562 0
M  V30 63479 C 6036.9 -4.97464 0.208388 0
M  V30 63480 C 6035.6 -6.97317 1.7647 0
M  V30 63481 C 6037.63 -5.82174 1.04054 0
M  V30 63482 C 6036.99 -6.80749 1.80996 0
M  V30 63483 H 6033.09 -0.740779 -0.25054 0
M  V30 63484 H 6035.67 -1.94695 -0.0138904 0
M  V30 63485 H 6033.84 -3.20092 -2.19991 0
M  V30 63486 H 6035.57 -3.43926 -2.133 0
M  V30 63487 H 6032.33 -4.70299 -0.558184 0
M  V30 63488 H 6032.75 -6.66676 1.17782 0
M  V30 63489 H 6037.4 -4.21159 -0.37215 0
M  V30 63490 H 6035.11 -7.72988 2.35616 0
M  V30 63491 H 6038.7 -5.71345 1.09801 0
M  V30 63492 H 6037.58 -7.4516 2.44349 0
M  V30 63493 N 6035.08 0.331735 -1.54069 0
M  V30 63494 C 6036.36 1.08837 -1.62524 0
M  V30 63495 C 6036.74 2.06162 -0.45392 0
M  V30 63496 O 6036.09 2.21716 0.552649 0
M  V30 63497 C 6036.3 1.79756 -2.99147 0
M  V30 63498 C 6037.65 2.33074 -3.54911 0
M  V30 63499 O 6038.67 1.89835 -3.01398 0
M  V30 63500 O 6037.53 3.12211 -4.48539 0
M  V30 63501 H 6034.62 0.501199 -0.657821 0
M  V30 63502 H 6037.17 0.332281 -1.66415 0
M  V30 63503 H 6035.94 1.08919 -3.75835 0
M  V30 63504 H 6035.56 2.62195 -2.98898 0
M  V30 63505 N 6036.56 1.46003 0.593373 0
M  V30 63506 C 6037.81 1.50029 1.34811 0
M  V30 63507 C 6038.12 0.151974 1.95009 0
M  V30 63508 O 6039.33 0.0699705 2.7141 0
M  V30 63509 C 6037.78 2.64309 2.44272 0
M  V30 63510 C 6037.39 4.05515 1.90424 0
M  V30 63511 C 6039.14 2.77596 3.21156 0
M  V30 63512 C 6037.04 5.11152 2.97451 0
M  V30 63513 H 6035.97 0.558317 0.506752 0
M  V30 63514 H 6038.62 1.72184 0.634423 0
M  V30 63515 H 6037.01 2.35464 3.18391 0
M  V30 63516 H 6038.18 4.44103 1.22919 0
M  V30 63517 H 6036.5 3.96802 1.26242 0
M  V30 63518 H 6039.09 3.53687 4.01011 0
M  V30 63519 H 6039.44 1.84732 3.73068 0
M  V30 63520 H 6039.97 3.06035 2.5414 0
M  V30 63521 H 6036.71 6.05773 2.50439 0
M  V30 63522 H 6036.23 4.7712 3.63478 0
M  V30 63523 H 6037.91 5.36528 3.61588 0
M  V30 63524 N 6038.04 -0.837103 1.3353 0
M  V30 63525 C 6039.27 -1.62451 1.2813 0
M  V30 63526 C 6039.68 -1.88223 -0.147433 0
M  V30 63527 O 6039.04 -1.46364 -1.09013 0
M  V30 63528 C 6039.09 -2.97369 2.05557 0
M  V30 63529 O 6038.81 -2.72728 3.42857 0
M  V30 63530 C 6040.31 -3.91797 2.07388 0
M  V30 63531 H 6037.53 -0.50542 0.441352 0
M  V30 63532 H 6040.08 -1.04256 1.75929 0
M  V30 63533 H 6038.23 -3.52161 1.61436 0
M  V30 63534 H 6038.64 -3.58656 3.82709 0
M  V30 63535 H 6040.12 -4.83674 2.66013 0
M  V30 63536 H 6040.6 -4.26102 1.06459 0
M  V30 63537 H 6041.2 -3.42943 2.51535 0
M  V30 63538 N 6039.52 -1.17028 -1.05557 0
M  V30 63539 C 6040.76 -0.957805 -1.78757 0
M  V30 63540 C 6041.1 0.512586 -1.87313 0
M  V30 63541 O 6040.37 1.38042 -1.3702 0
M  V30 63542 C 6040.65 -1.59507 -3.22846 0
M  V30 63543 C 6040.51 -3.13731 -3.22325 0
M  V30 63544 C 6041.83 -1.29591 -4.20588 0
M  V30 63545 H 6038.94 -0.349376 -0.648926 0
M  V30 63546 H 6041.59 -1.44471 -1.23402 0
M  V30 63547 H 6039.74 -1.18104 -3.70113 0
M  V30 63548 H 6041.41 -3.64166 -2.83162 0
M  V30 63549 H 6039.65 -3.46673 -2.60768 0
M  V30 63550 H 6040.32 -3.53445 -4.24005 0
M  V30 63551 H 6042.8 -1.65437 -3.81798 0
M  V30 63552 H 6041.67 -1.7677 -5.19657 0
M  V30 63553 H 6041.94 -0.216045 -4.41572 0
M  V30 63554 N 6040.99 1.24218 -0.969933 0
M  V30 63555 C 6042.24 1.91654 -0.628626 0
M  V30 63556 C 6042.56 1.7663 0.840309 0
M  V30 63557 O 6043.76 2.38775 1.29223 0
M  V30 63558 C 6042.22 3.43511 -1.07369 0
M  V30 63559 C 6041.83 3.67217 -2.56624 0
M  V30 63560 C 6043.57 4.16785 -0.805639 0
M  V30 63561 C 6041.48 5.12656 -2.94852 0
M  V30 63562 H 6040.41 0.717611 -0.231409 0
M  V30 63563 H 6043.06 1.40827 -1.17644 0
M  V30 63564 H 6041.44 3.93387 -0.454175 0
M  V30 63565 H 6042.61 3.27931 -3.23725 0
M  V30 63566 H 6040.93 3.07233 -2.81064 0
M  V30 63567 H 6043.53 5.23941 -1.06723 0
M  V30 63568 H 6043.87 4.15499 0.258175 0
M  V30 63569 H 6044.4 3.72865 -1.38623 0
M  V30 63570 H 6041.14 5.19066 -4.00314 0
M  V30 63571 H 6040.66 5.52932 -2.32437 0
M  V30 63572 H 6042.34 5.80906 -2.8488 0
M  V30 63573 N 6042.47 0.740315 1.3913 0
M  V30 63574 C 6043.42 0.0930151 2.32414 0
M  V30 63575 C 6044.41 -0.720008 1.53337 0
M  V30 63576 O 6045.62 -0.620597 1.68963 0
M  V30 63577 H 6042 0.0112796 0.751915 0
M  V30 63578 H 6043.97 0.896075 2.84628 0
M  V30 63579 C 6042.72 -0.796063 3.38464 0
M  V30 63580 H 6042.04 -0.179849 3.99395 0
M  V30 63581 H 6043.48 -1.2165 4.06174 0
M  V30 63582 C 6041.94 -1.93275 2.75946 0
M  V30 63583 O 6042.47 -3.02583 2.64209 0
M  V30 63584 N 6040.67 -1.72377 2.33954 0
M  V30 63585 H 6040.22 -0.834735 2.43701 0
M  V30 63586 H 6040.18 -2.48605 1.92465 0
M  V30 63587 N 6043.95 -1.49843 0.488355 0
M  V30 63588 C 6044.9 -2.30517 -0.310622 0
M  V30 63589 C 6045.89 -1.38562 -0.974521 0
M  V30 63590 O 6047.1 -1.55673 -0.903653 0
M  V30 63591 H 6043.47 -0.742521 -0.119023 0
M  V30 63592 H 6045.44 -2.95841 0.389953 0
M  V30 63593 C 6044.19 -3.1958 -1.36982 0
M  V30 63594 H 6043.52 -3.90256 -0.86836 0
M  V30 63595 H 6044.96 -3.78991 -1.9011 0
M  V30 63596 C 6043.42 -2.38333 -2.38116 0
M  V30 63597 O 6043.95 -2.07854 -3.43743 0
M  V30 63598 N 6042.15 -2.0059 -2.10266 0
M  V30 63599 H 6041.7 -2.25576 -1.24391 0
M  V30 63600 H 6041.66 -1.46535 -2.78163 0
M  V30 63601 N 6045.43 -0.221656 -1.56033 0
M  V30 63602 C 6046.68 0.410625 -1.98599 0
M  V30 63603 C 6047.01 1.59408 -1.10918 0
M  V30 63604 O 6046.28 1.93783 -0.166887 0
M  V30 63605 C 6046.57 0.845076 -3.50044 0
M  V30 63606 C 6046.42 -0.342024 -4.48498 0
M  V30 63607 C 6047.74 1.7012 -4.0589 0
M  V30 63608 H 6044.86 0.147782 -0.722031 0
M  V30 63609 H 6047.5 -0.317912 -1.87321 0
M  V30 63610 H 6045.65 1.46584 -3.59785 0
M  V30 63611 H 6047.32 -0.980172 -4.50766 0
M  V30 63612 H 6045.56 -0.989442 -4.22365 0
M  V30 63613 H 6046.24 0.00489829 -5.52 0
M  V30 63614 H 6048.71 1.17743 -3.99094 0
M  V30 63615 H 6047.59 1.97409 -5.12173 0
M  V30 63616 H 6047.85 2.66456 -3.5278 0
M  V30 63617 N 6046.91 1.57515 0.0517324 0
M  V30 63618 C 6048.18 1.79324 0.78117 0
M  V30 63619 C 6048.56 0.814211 1.94766 0
M  V30 63620 O 6047.91 -0.1485 2.28017 0
M  V30 63621 C 6048.12 3.26402 1.23542 0
M  V30 63622 C 6049.47 3.90779 1.66063 0
M  V30 63623 O 6050.49 3.30415 1.33058 0
M  V30 63624 O 6049.35 4.97016 2.27239 0
M  V30 63625 H 6046.45 0.73664 0.375886 0
M  V30 63626 H 6048.99 1.69673 0.0302577 0
M  V30 63627 H 6047.77 3.89233 0.401669 0
M  V30 63628 H 6047.39 3.40855 2.04704 0
M  V30 63629 N 6048.39 -0.32356 1.54243 0
M  V30 63630 C 6049.33 -1.41833 1.84353 0
M  V30 63631 C 6050.33 -1.53551 0.715438 0
M  V30 63632 O 6051.53 -1.55936 0.8991 0
M  V30 63633 H 6047.91 -0.473305 0.584368 0
M  V30 63634 H 6049.88 -1.13662 2.75905 0
M  V30 63635 C 6048.63 -2.78051 2.08765 0
M  V30 63636 H 6047.95 -2.69809 2.95031 0
M  V30 63637 H 6049.39 -3.53723 2.33787 0
M  V30 63638 C 6047.85 -3.25226 0.879191 0
M  V30 63639 O 6048.38 -4.01603 0.0884537 0
M  V30 63640 N 6046.59 -2.82269 0.690825 0
M  V30 63641 H 6046.13 -2.20278 1.33549 0
M  V30 63642 H 6046.09 -3.14185 -0.116234 0
M  V30 63643 N 6049.86 -1.46316 -0.585622 0
M  V30 63644 C 6050.77 -1.59238 -1.7228 0
M  V30 63645 C 6051.79 -0.47597 -1.67363 0
M  V30 63646 O 6052.97 -0.739693 -1.87325 0
M  V30 63647 C 6050.03 -1.57658 -3.0878 0
M  V30 63648 C 6049.09 -2.80508 -3.24983 0
M  V30 63649 C 6048.32 -2.78994 -4.54971 0
M  V30 63650 O 6048.55 -1.87572 -5.38677 0
M  V30 63651 O 6047.48 -3.70497 -4.74358 0
M  V30 63652 H 6051.31 -2.55403 -1.64325 0
M  V30 63653 H 6048.89 -1.29075 -0.752324 0
M  V30 63654 H 6050.77 -1.59462 -3.90064 0
M  V30 63655 H 6049.45 -0.646512 -3.17178 0
M  V30 63656 H 6048.36 -2.84259 -2.43203 0
M  V30 63657 H 6049.69 -3.72714 -3.21474 0
M  V30 63658 N 6051.34 0.83001 -1.33972 0
M  V30 63659 C 6052.59 1.5808 -1.25274 0
M  V30 63660 C 6052.9 1.94793 0.177489 0
M  V30 63661 O 6054.11 2.68734 0.386562 0
M  V30 63662 C 6052.57 2.85169 -2.1956 0
M  V30 63663 C 6052.17 2.55785 -3.67801 0
M  V30 63664 C 6053.92 3.63192 -2.19754 0
M  V30 63665 C 6051.82 3.79025 -4.53976 0
M  V30 63666 H 6050.75 0.593273 -0.465342 0
M  V30 63667 H 6053.41 0.914421 -1.59093 0
M  V30 63668 H 6051.79 3.53395 -1.78684 0
M  V30 63669 H 6052.96 1.95715 -4.17172 0
M  V30 63670 H 6051.28 1.91051 -3.69984 0
M  V30 63671 H 6053.87 4.54686 -2.81363 0
M  V30 63672 H 6054.22 3.98782 -1.19494 0
M  V30 63673 H 6054.75 3.01901 -2.59038 0
M  V30 63674 H 6051.49 3.4856 -5.55145 0
M  V30 63675 H 6051.01 4.38403 -4.09344 0
M  V30 63676 H 6052.69 4.46511 -4.68227 0
M  V30 63677 N 6052.82 1.17586 1.04935 0
M  V30 63678 C 6054.07 0.967271 1.78246 0
M  V30 63679 C 6054.4 -0.502645 1.87582 0
M  V30 63680 O 6053.67 -1.37314 1.37751 0
M  V30 63681 C 6053.96 1.61216 3.21996 0
M  V30 63682 C 6053.81 3.15435 3.20656 0
M  V30 63683 C 6055.13 1.31819 4.19895 0
M  V30 63684 H 6052.25 0.352813 0.647064 0
M  V30 63685 H 6054.89 1.45123 1.22635 0
M  V30 63686 H 6053.04 1.20065 3.69482 0
M  V30 63687 H 6054.71 3.65663 2.81227 0
M  V30 63688 H 6052.95 3.48051 2.58926 0
M  V30 63689 H 6053.63 3.55689 4.22125 0
M  V30 63690 H 6056.1 1.67459 3.80916 0
M  V30 63691 H 6054.98 1.79523 5.18712 0
M  V30 63692 H 6055.24 0.239459 4.41451 0
M  V30 63693 N 6054.3 -1.23702 0.976507 0
M  V30 63694 C 6055.24 -2.25021 0.513235 0
M  V30 63695 C 6056.21 -1.60004 -0.445847 0
M  V30 63696 O 6057.4 -1.87482 -0.354257 0
M  V30 63697 C 6054.54 -3.4462 -0.181966 0
M  V30 63698 C 6053.65 -4.24206 0.816918 0
M  V30 63699 C 6052.79 -5.31112 0.0969222 0
M  V30 63700 C 6051.83 -6.02402 1.08528 0
M  V30 63701 N 6050.96 -7.0099 0.394701 0
M  V30 63702 H 6055.8 -2.64015 1.38204 0
M  V30 63703 H 6053.34 -1.29774 0.692611 0
M  V30 63704 H 6055.3 -4.12837 -0.601803 0
M  V30 63705 H 6053.93 -3.06438 -1.01466 0
M  V30 63706 H 6052.98 -3.55443 1.35516 0
M  V30 63707 H 6054.29 -4.7344 1.57023 0
M  V30 63708 H 6053.45 -6.05506 -0.380473 0
M  V30 63709 H 6052.19 -4.82808 -0.689017 0
M  V30 63710 H 6051.19 -5.26804 1.57347 0
M  V30 63711 H 6052.42 -6.52794 1.87182 0
M  V30 63712 H 6050.36 -6.54944 -0.3721 0
M  V30 63713 H 6050.28 -7.48149 1.08673 0
M  V30 63714 H 6051.55 -7.79477 -0.0604347 0
M  V30 63715 N 6055.78 -0.747683 -1.38735 0
M  V30 63716 C 6057 -0.310557 -2.05062 0
M  V30 63717 C 6057.43 1.05073 -1.56017 0
M  V30 63718 O 6056.78 1.6684 -0.70952 0
M  V30 63719 C 6056.83 -0.335964 -3.59032 0
M  V30 63720 O 6055.94 0.672074 -4.06887 0
M  V30 63721 H 6055.28 -0.138614 -0.649371 0
M  V30 63722 H 6057.81 -1.01716 -1.77525 0
M  V30 63723 H 6057.82 -0.184774 -4.07581 0
M  V30 63724 H 6056.49 -1.3292 -3.94088 0
M  V30 63725 H 6055.07 0.485982 -3.6972 0
M  V30 63726 N 6057.25 1.49582 -0.496295 0
M  V30 63727 C 6058.48 2.07342 0.0490257 0
M  V30 63728 C 6058.9 1.35478 1.30489 0
M  V30 63729 O 6058.26 0.410067 1.76602 0
M  V30 63730 C 6058.31 3.59428 0.290474 0
M  V30 63731 O 6057.41 3.89115 1.36612 0
M  V30 63732 H 6056.75 0.663561 -0.0241374 0
M  V30 63733 H 6059.28 1.9245 -0.694568 0
M  V30 63734 H 6059.29 4.04629 0.523407 0
M  V30 63735 H 6057.97 4.11145 -0.627104 0
M  V30 63736 H 6056.55 3.5573 1.11851 0
M  V30 63737 N 6058.73 0.229928 1.55914 0
M  V30 63738 C 6060.01 -0.44894 1.90378 0
M  V30 63739 C 6060.39 -1.77129 1.14841 0
M  V30 63740 O 6059.74 -2.27011 0.260408 0
M  V30 63741 C 6059.95 -0.633684 3.43199 0
M  V30 63742 C 6061.29 -0.937308 4.14125 0
M  V30 63743 O 6062.32 -0.720168 3.48844 0
M  V30 63744 O 6061.18 -1.34986 5.29567 0
M  V30 63745 H 6058.27 -0.23853 0.791854 0
M  V30 63746 H 6060.82 0.272735 1.67494 0
M  V30 63747 H 6059.59 0.298724 3.90158 0
M  V30 63748 H 6059.21 -1.40654 3.7189 0
M  V30 63749 N 6060.21 -1.5754 -0.0433783 0
M  V30 63750 C 6061.46 -1.8889 -0.738133 0
M  V30 63751 C 6061.79 -0.825889 -1.75763 0
M  V30 63752 O 6061.06 0.160729 -1.93835 0
M  V30 63753 C 6061.35 -3.30894 -1.42061 0
M  V30 63754 C 6061.2 -4.47876 -0.415596 0
M  V30 63755 C 6062.52 -3.71579 -2.35833 0
M  V30 63756 H 6059.64 -0.686985 -0.266873 0
M  V30 63757 H 6062.28 -1.9 -0.00100278 0
M  V30 63758 H 6060.43 -3.30078 -2.04892 0
M  V30 63759 H 6062.1 -4.60823 0.209691 0
M  V30 63760 H 6060.35 -4.32981 0.266499 0
M  V30 63761 H 6061.02 -5.44087 -0.931317 0
M  V30 63762 H 6063.49 -3.7367 -1.83058 0
M  V30 63763 H 6062.37 -4.71773 -2.80573 0
M  V30 63764 H 6062.63 -3.03053 -3.21887 0
M  V30 63765 N 6061.69 0.315375 -1.54412 0
M  V30 63766 C 6062.93 1.0539 -1.73265 0
M  V30 63767 C 6063.27 1.87404 -0.509237 0
M  V30 63768 O 6062.54 1.88128 0.493769 0
M  V30 63769 C 6062.83 1.97184 -3.01314 0
M  V30 63770 C 6062.68 1.18445 -4.33925 0
M  V30 63771 C 6064 2.96582 -3.25157 0
M  V30 63772 H 6061.12 0.381741 -0.630431 0
M  V30 63773 H 6063.76 0.329817 -1.87116 0
M  V30 63774 H 6061.91 2.58926 -2.89637 0
M  V30 63775 H 6063.58 0.59101 -4.57498 0
M  V30 63776 H 6061.82 0.486873 -4.31059 0
M  V30 63777 H 6062.49 1.8589 -5.19758 0
M  V30 63778 H 6064.97 2.44965 -3.3635 0
M  V30 63779 H 6063.85 3.57988 -4.16096 0
M  V30 63780 H 6064.11 3.69479 -2.42771 0
M  V30 63781 N 6063.17 1.46624 0.577854 0
M  V30 63782 C 6064.44 1.42662 1.33817 0
M  V30 63783 C 6064.82 0.112634 2.10799 0
M  V30 63784 O 6064.17 -0.90583 2.09778 0
M  V30 63785 C 6064.38 2.65935 2.26008 0
M  V30 63786 C 6065.73 3.12287 2.87684 0
M  V30 63787 O 6066.75 2.66517 2.3632 0
M  V30 63788 O 6065.61 3.91799 3.80993 0
M  V30 63789 H 6062.71 0.567565 0.601497 0
M  V30 63790 H 6065.25 1.58797 0.598469 0
M  V30 63791 H 6064.02 3.53122 1.68585 0
M  V30 63792 H 6063.65 2.52283 3.07309 0
M  V30 63793 N 6064.64 -0.822893 1.34411 0
M  V30 63794 C 6065.87 -1.61602 1.29998 0
M  V30 63795 C 6066.29 -1.87696 -0.123235 0
M  V30 63796 O 6065.65 -1.45251 -1.08499 0
M  V30 63797 C 6065.7 -2.93393 2.0965 0
M  V30 63798 O 6064.8 -3.85462 1.46604 0
M  V30 63799 H 6064.15 -0.491489 0.446469 0
M  V30 63800 H 6066.68 -1.02257 1.77213 0
M  V30 63801 H 6066.69 -3.42958 2.21007 0
M  V30 63802 H 6065.36 -2.73725 3.13126 0
M  V30 63803 H 6063.94 -3.43979 1.4399 0
M  V30 63804 N 6066.12 -1.18141 -1.0431 0
M  V30 63805 C 6067.07 -0.902559 -2.14375 0
M  V30 63806 C 6068.06 0.13623 -1.68851 0
M  V30 63807 O 6069.27 -0.0116889 -1.79996 0
M  V30 63808 H 6065.65 -0.274383 -0.700156 0
M  V30 63809 H 6067.62 -1.83777 -2.35093 0
M  V30 63810 C 6066.37 -0.442096 -3.44878 0
M  V30 63811 H 6065.69 -1.23292 -3.80315 0
M  V30 63812 H 6067.13 -0.285957 -4.23035 0
M  V30 63813 C 6065.59 0.841682 -3.26217 0
M  V30 63814 O 6066.12 1.90646 -3.53578 0
M  V30 63815 N 6064.32 0.793327 -2.79562 0
M  V30 63816 H 6063.87 -0.0733902 -2.57495 0
M  V30 63817 H 6063.83 1.65272 -2.67456 0
M  V30 63818 N 6067.6 1.23182 -0.983053 0
M  V30 63819 C 6068.51 2.28446 -0.533808 0
M  V30 63820 C 6069.53 1.69036 0.412673 0
M  V30 63821 O 6070.7 1.99417 0.281937 0
M  V30 63822 C 6067.77 3.46358 0.154057 0
M  V30 63823 C 6066.83 4.21118 -0.834157 0
M  V30 63824 C 6066.06 5.334 -0.179024 0
M  V30 63825 O 6066.28 5.61036 1.02932 0
M  V30 63826 O 6065.22 5.95448 -0.878932 0
M  V30 63827 H 6069.04 2.69022 -1.40929 0
M  V30 63828 H 6066.63 1.29163 -0.750815 0
M  V30 63829 H 6068.51 4.17928 0.5398 0
M  V30 63830 H 6067.19 3.07728 1.00426 0
M  V30 63831 H 6066.09 3.5186 -1.27065 0
M  V30 63832 H 6067.43 4.63604 -1.65325 0
M  V30 63833 N 6069.08 0.75503 1.38337 0
M  V30 63834 C 6070.03 0.117661 2.32302 0
M  V30 63835 C 6071.02 -0.703705 1.54092 0
M  V30 63836 O 6072.23 -0.602641 1.69612 0
M  V30 63837 H 6068.6 0.019254 0.751753 0
M  V30 63838 H 6070.57 0.926213 2.83662 0
M  V30 63839 C 6069.32 -0.76012 3.3929 0
M  V30 63840 H 6068.64 -0.137478 3.99564 0
M  V30 63841 H 6070.08 -1.17335 4.07441 0
M  V30 63842 C 6068.54 -1.90337 2.77981 0
M  V30 63843 O 6069.07 -2.99764 2.67403 0
M  V30 63844 N 6067.28 -1.69886 2.35769 0
M  V30 63845 H 6066.83 -0.80884 2.44572 0
M  V30 63846 H 6066.78 -2.4655 1.95091 0
M  V30 63847 N 6070.56 -1.49316 0.50422 0
M  V30 63848 C 6071.49 -2.32028 -0.261756 0
M  V30 63849 C 6072.47 -1.40453 -0.959526 0
M  V30 63850 O 6073.65 -1.6936 -0.950306 0
M  V30 63851 C 6070.78 -3.21044 -1.32469 0
M  V30 63852 C 6069.74 -4.21438 -0.746604 0
M  V30 63853 C 6069.06 -4.99412 -1.91029 0
M  V30 63854 C 6070.36 -5.2163 0.264499 0
M  V30 63855 H 6072.06 -2.96316 0.428648 0
M  V30 63856 H 6069.6 -1.42496 0.207589 0
M  V30 63857 H 6071.56 -3.7772 -1.86829 0
M  V30 63858 H 6070.28 -2.54706 -2.04432 0
M  V30 63859 H 6068.94 -3.65911 -0.224721 0
M  V30 63860 H 6068.59 -4.29518 -2.61769 0
M  V30 63861 H 6068.29 -5.67343 -1.52955 0
M  V30 63862 H 6069.81 -5.58933 -2.45817 0
M  V30 63863 H 6071.22 -5.72981 -0.191087 0
M  V30 63864 H 6069.62 -5.9747 0.561249 0
M  V30 63865 H 6070.69 -4.70342 1.17927 0
M  V30 63866 N 6072.03 -0.238193 -1.5579 0
M  V30 63867 C 6073.26 0.393351 -2.03126 0
M  V30 63868 C 6073.68 1.52164 -1.11766 0
M  V30 63869 O 6073.03 1.82034 -0.130405 0
M  V30 63870 C 6073.09 0.909351 -3.49876 0
M  V30 63871 O 6072.81 -0.173964 -4.37754 0
M  V30 63872 C 6074.31 1.61246 -4.12934 0
M  V30 63873 H 6071.53 0.0944844 -0.664314 0
M  V30 63874 H 6074.07 -0.359513 -2.01315 0
M  V30 63875 H 6072.23 1.61242 -3.52249 0
M  V30 63876 H 6072.64 0.216456 -5.24053 0
M  V30 63877 H 6074.11 1.92533 -5.17335 0
M  V30 63878 H 6074.59 2.53142 -3.58909 0
M  V30 63879 H 6075.2 0.954181 -4.14458 0
M  V30 63880 N 6073.51 1.57561 0.0350229 0
M  V30 63881 C 6074.76 1.90129 0.72266 0
M  V30 63882 C 6075.11 0.836132 1.73282 0
M  V30 63883 O 6074.41 -0.155844 1.90965 0
M  V30 63884 C 6074.6 3.27174 1.43846 0
M  V30 63885 C 6074.43 4.46921 0.499146 0
M  V30 63886 C 6073.2 5.05152 0.122394 0
M  V30 63887 C 6075.4 5.1383 -0.219927 0
M  V30 63888 N 6073.38 6.08415 -0.8188 0
M  V30 63889 C 6074.75 6.11602 -1.01699 0
M  V30 63890 C 6076.81 4.97069 -0.287504 0
M  V30 63891 C 6075.51 6.94421 -1.87541 0
M  V30 63892 C 6077.53 5.80445 -1.13303 0
M  V30 63893 C 6076.9 6.77784 -1.91803 0
M  V30 63894 H 6073 0.744671 0.238723 0
M  V30 63895 H 6075.58 1.94693 -0.0170857 0
M  V30 63896 H 6073.75 3.23551 2.14871 0
M  V30 63897 H 6075.48 3.47276 2.07802 0
M  V30 63898 H 6072.24 4.71128 0.483293 0
M  V30 63899 H 6072.66 6.64718 -1.28373 0
M  V30 63900 H 6077.3 4.21698 0.3051 0
M  V30 63901 H 6075.02 7.69142 -2.47884 0
M  V30 63902 H 6078.61 5.69526 -1.18877 0
M  V30 63903 H 6077.49 7.41178 -2.56173 0
M  V30 63904 N 6074.99 -0.307182 1.54577 0
M  V30 63905 C 6076.4 -0.880582 1.64629 0
M  V30 63906 C 6076.75 -1.88306 0.550931 0
M  V30 63907 O 6075.88 -2.14117 -0.313478 0
M  V30 63908 C 6076.47 -1.60394 2.98428 0
M  V30 63909 C 6075.03 -2.12584 3.10621 0
M  V30 63910 C 6074.18 -0.956501 2.60281 0
M  V30 63911 H 6077.13 -0.0843382 1.58476 0
M  V30 63912 H 6077.15 -2.46915 2.89505 0
M  V30 63913 H 6076.66 -0.874076 3.78129 0
M  V30 63914 H 6074.76 -2.88636 2.35627 0
M  V30 63915 H 6074.88 -2.3646 4.16681 0
M  V30 63916 H 6073.24 -1.34032 2.16581 0
M  V30 63917 H 6074.02 -0.24069 3.42455 0
M  V30 63918 N 6076.47 -1.46928 -0.57007 0
M  V30 63919 C 6077.4 -1.61317 -1.68817 0
M  V30 63920 C 6078.38 -0.463022 -1.63677 0
M  V30 63921 O 6079.57 -0.690808 -1.81498 0
M  V30 63922 C 6076.7 -1.6151 -3.0746 0
M  V30 63923 C 6075.65 -2.75622 -3.27439 0
M  V30 63924 C 6074.98 -2.60881 -4.66739 0
M  V30 63925 C 6076.28 -4.17335 -3.14053 0
M  V30 63926 H 6077.97 -2.54915 -1.57031 0
M  V30 63927 H 6075.52 -1.2268 -0.754034 0
M  V30 63928 H 6077.47 -1.70168 -3.85514 0
M  V30 63929 H 6076.19 -0.644643 -3.20175 0
M  V30 63930 H 6074.85 -2.66453 -2.5179 0
M  V30 63931 H 6074.5 -1.61891 -4.76235 0
M  V30 63932 H 6074.2 -3.37428 -4.81057 0
M  V30 63933 H 6075.72 -2.71449 -5.46944 0
M  V30 63934 H 6077.14 -4.27548 -3.81937 0
M  V30 63935 H 6075.53 -4.94567 -3.39887 0
M  V30 63936 H 6076.6 -4.36603 -2.10964 0
M  V30 63937 N 6077.95 0.815754 -1.34845 0
M  V30 63938 C 6079.19 1.5747 -1.27794 0
M  V30 63939 C 6079.53 1.93621 0.149888 0
M  V30 63940 O 6078.8 1.60609 1.09704 0
M  V30 63941 C 6079.08 2.86944 -2.17566 0
M  V30 63942 C 6078.94 2.57327 -3.68921 0
M  V30 63943 C 6080.26 3.88575 -2.06633 0
M  V30 63944 H 6077.38 0.571334 -0.465561 0
M  V30 63945 H 6080.02 0.939213 -1.65163 0
M  V30 63946 H 6078.17 3.41175 -1.85827 0
M  V30 63947 H 6079.84 2.0935 -4.1106 0
M  V30 63948 H 6078.08 1.9066 -3.89655 0
M  V30 63949 H 6078.75 3.49687 -4.2711 0
M  V30 63950 H 6081.23 3.43718 -2.34515 0
M  V30 63951 H 6080.11 4.76961 -2.71661 0
M  V30 63952 H 6080.37 4.29561 -1.04548 0
M  V30 63953 N 6079.43 1.18692 1.03682 0
M  V30 63954 C 6080.36 0.941015 2.13699 0
M  V30 63955 C 6081.34 -0.12271 1.69657 0
M  V30 63956 O 6082.52 0.0306767 1.94176 0
M  V30 63957 C 6079.65 0.470175 3.44103 0
M  V30 63958 C 6078.61 1.47483 4.01787 0
M  V30 63959 C 6077.93 0.86136 5.27716 0
M  V30 63960 C 6079.23 2.8527 4.37514 0
M  V30 63961 H 6080.93 1.8611 2.34528 0
M  V30 63962 H 6078.47 0.896247 1.12709 0
M  V30 63963 H 6080.42 0.285478 4.20432 0
M  V30 63964 H 6079.15 -0.485491 3.22971 0
M  V30 63965 H 6077.81 1.64653 3.27544 0
M  V30 63966 H 6077.46 -0.101614 5.02897 0
M  V30 63967 H 6077.16 1.53216 5.67273 0
M  V30 63968 H 6078.68 0.68728 6.0672 0
M  V30 63969 H 6080.09 2.71729 5.04813 0
M  V30 63970 H 6078.49 3.49068 4.8813 0
M  V30 63971 H 6079.56 3.38528 3.47169 0
M  V30 63972 N 6080.9 -1.22659 0.989572 0
M  V30 63973 C 6081.81 -2.2816 0.545915 0
M  V30 63974 C 6082.83 -1.69252 -0.403702 0
M  V30 63975 O 6084.01 -1.99564 -0.271357 0
M  V30 63976 C 6081.07 -3.46434 -0.135686 0
M  V30 63977 C 6080.13 -4.2067 0.856478 0
M  V30 63978 C 6079.36 -5.33297 0.207309 0
M  V30 63979 O 6079.59 -5.61574 -0.999552 0
M  V30 63980 O 6078.52 -5.94974 0.910497 0
M  V30 63981 H 6082.35 -2.68271 1.42354 0
M  V30 63982 H 6079.93 -1.28763 0.757655 0
M  V30 63983 H 6081.81 -4.18209 -0.517629 0
M  V30 63984 H 6080.49 -3.08256 -0.987927 0
M  V30 63985 H 6079.4 -3.51181 1.28929 0
M  V30 63986 H 6080.73 -4.6272 1.67781 0
M  V30 63987 N 6082.38 -0.762356 -1.37934 0
M  V30 63988 C 6083.62 -0.327482 -2.0176 0
M  V30 63989 C 6083.99 1.07314 -1.5921 0
M  V30 63990 O 6085.19 1.60761 -2.15428 0
M  V30 63991 C 6083.46 -0.455904 -3.5448 0
M  V30 63992 S 6085.02 -0.104906 -4.38675 0
M  V30 63993 H 6081.83 -0.126527 -0.699651 0
M  V30 63994 H 6084.44 -0.994905 -1.68291 0
M  V30 63995 H 6083.14 -1.47607 -3.82937 0
M  V30 63996 H 6082.67 0.228398 -3.92736 0
M  V30 63997 H 6084.69 1.10265 -4.83793 0
M  V30 63998 N 6083.86 1.49047 -0.512132 0
M  V30 63999 C 6085.09 2.06885 0.0248975 0
M  V30 64000 C 6085.5 1.37105 1.29799 0
M  V30 64001 O 6084.86 0.45286 1.76792 0
M  V30 64002 C 6084.91 3.60483 0.270993 0
M  V30 64003 O 6084.63 4.27639 -0.951643 0
M  V30 64004 C 6086.13 4.35066 0.850415 0
M  V30 64005 H 6083.35 0.670516 -0.0254691 0
M  V30 64006 H 6085.9 1.9168 -0.712674 0
M  V30 64007 H 6084.05 3.75353 0.95857 0
M  V30 64008 H 6084.47 5.19516 -0.721339 0
M  V30 64009 H 6085.94 5.43372 0.972131 0
M  V30 64010 H 6086.42 3.98291 1.85097 0
M  V30 64011 H 6087.02 4.2483 0.199961 0
M  V30 64012 N 6085.34 0.246452 1.55661 0
M  V30 64013 C 6086.75 -0.108409 1.59231 0
M  V30 64014 C 6086.95 -1.56957 1.2636 0
M  V30 64015 O 6086.01 -2.3139 1.0107 0
M  V30 64016 C 6087.32 0.240371 2.99738 0
M  V30 64017 C 6088.87 0.184633 3.12455 0
M  V30 64018 C 6089.35 0.507439 4.5518 0
M  V30 64019 N 6090.84 0.457923 4.60931 0
M  V30 64020 C 6091.57 0.680864 5.69343 0
M  V30 64021 N 6091.07 0.966909 6.86019 0
M  V30 64022 N 6092.86 0.611602 5.58763 0
M  V30 64023 H 6085.01 1.19934 1.75299 0
M  V30 64024 H 6087.27 0.482532 0.816007 0
M  V30 64025 H 6086.98 1.25546 3.28529 0
M  V30 64026 H 6086.85 -0.43274 3.74709 0
M  V30 64027 H 6089.24 -0.821132 2.83446 0
M  V30 64028 H 6089.32 0.891588 2.39759 0
M  V30 64029 H 6088.97 1.51076 4.84911 0
M  V30 64030 H 6088.9 -0.220989 5.26136 0
M  V30 64031 H 6091.39 0.245547 3.77101 0
M  V30 64032 H 6091.7 1.12446 7.64576 0
M  V30 64033 H 6090.05 1.00438 6.87704 0
M  V30 64034 H 6093.24 0.388182 4.66488 0
M  V30 64035 H 6093.41 0.788745 6.43182 0
M  V30 64036 N 6086.82 -1.57577 -0.0266666 0
M  V30 64037 C 6087.78 -2.05688 -1.0112 0
M  V30 64038 C 6088.78 -0.961419 -1.28893 0
M  V30 64039 O 6089.97 -1.22496 -1.23856 0
M  V30 64040 C 6087.1 -2.47584 -2.34339 0
M  V30 64041 H 6088.29 -2.93927 -0.595578 0
M  V30 64042 H 6085.85 -1.53888 -0.273549 0
M  V30 64043 H 6086.58 -1.62508 -2.80645 0
M  V30 64044 H 6086.37 -3.27564 -2.1551 0
M  V30 64045 H 6087.86 -2.85225 -3.05019 0
M  V30 64046 N 6088.29 0.29898 -1.54738 0
M  V30 64047 C 6089.52 1.05717 -1.78434 0
M  V30 64048 C 6089.94 1.80087 -0.543158 0
M  V30 64049 O 6089.3 1.74085 0.506377 0
M  V30 64050 C 6089.35 2.01182 -2.99263 0
M  V30 64051 O 6088.45 3.09519 -2.72529 0
M  V30 64052 H 6087.79 0.303593 -0.590531 0
M  V30 64053 H 6090.32 0.335788 -2.01826 0
M  V30 64054 H 6090.33 2.43612 -3.27288 0
M  V30 64055 H 6089.01 1.46458 -3.89259 0
M  V30 64056 H 6087.59 2.7159 -2.55526 0
M  V30 64057 N 6089.77 1.47229 0.56227 0
M  V30 64058 C 6091 1.572 1.3452 0
M  V30 64059 C 6091.42 0.220369 1.8751 0
M  V30 64060 O 6090.77 -0.785606 1.64725 0
M  V30 64061 C 6090.82 2.59321 2.51863 0
M  V30 64062 O 6090.54 3.89236 2.01064 0
M  V30 64063 C 6092.05 2.79429 3.44143 0
M  V30 64064 H 6089.27 0.530985 0.410239 0
M  V30 64065 H 6091.81 1.92806 0.681612 0
M  V30 64066 H 6089.96 2.26663 3.1417 0
M  V30 64067 H 6090.38 4.44995 2.77633 0
M  V30 64068 H 6091.85 3.54758 4.22908 0
M  V30 64069 H 6092.33 1.87068 3.97369 0
M  V30 64070 H 6092.94 3.13264 2.87656 0
M  V30 64071 N 6091.25 -0.808591 1.35276 0
M  V30 64072 C 6092.48 -1.60214 1.31705 0
M  V30 64073 C 6092.9 -1.87816 -0.10332 0
M  V30 64074 O 6092.26 -1.46393 -1.06952 0
M  V30 64075 C 6092.31 -2.91153 2.1275 0
M  V30 64076 O 6091.41 -3.83886 1.50684 0
M  V30 64077 H 6090.75 -0.486726 0.451657 0
M  V30 64078 H 6093.28 -1.00372 1.78288 0
M  V30 64079 H 6093.29 -3.40595 2.24632 0
M  V30 64080 H 6091.97 -2.70388 3.16011 0
M  V30 64081 H 6090.54 -3.42432 1.4763 0
M  V30 64082 N 6092.73 -1.1924 -1.03051 0
M  V30 64083 C 6093.69 -0.93061 -2.09457 0
M  V30 64084 C 6094.69 0.0882342 -1.60558 0
M  V30 64085 O 6095.88 -0.14633 -1.73584 0
M  V30 64086 C 6093.01 -0.398284 -3.38565 0
M  V30 64087 H 6094.21 -1.8743 -2.34115 0
M  V30 64088 H 6091.76 -1.00584 -1.19635 0
M  V30 64089 H 6092.49 0.551534 -3.19576 0
M  V30 64090 H 6092.28 -1.13286 -3.75378 0
M  V30 64091 H 6093.77 -0.234152 -4.16943 0
M  V30 64092 N 6094.21 1.22132 -0.996063 0
M  V30 64093 C 6095.45 1.91248 -0.674699 0
M  V30 64094 C 6095.79 1.77334 0.791593 0
M  V30 64095 O 6095.06 1.14424 1.57281 0
M  V30 64096 C 6095.34 3.43355 -1.08533 0
M  V30 64097 C 6095.2 3.66303 -2.61041 0
M  V30 64098 C 6096.52 4.35408 -0.640948 0
M  V30 64099 H 6093.63 0.694525 -0.246584 0
M  V30 64100 H 6096.28 1.43945 -1.24015 0
M  V30 64101 H 6094.43 3.83773 -0.604206 0
M  V30 64102 H 6096.1 3.35269 -3.16847 0
M  V30 64103 H 6094.34 3.10475 -3.02965 0
M  V30 64104 H 6095.01 4.72842 -2.84824 0
M  V30 64105 H 6097.49 4.02523 -1.05425 0
M  V30 64106 H 6096.36 5.40501 -0.956527 0
M  V30 64107 H 6096.63 4.39718 0.458266 0
M  V30 64108 N 6095.68 0.76966 1.37528 0
M  V30 64109 C 6096.63 0.152708 2.30294 0
M  V30 64110 C 6097.6 -0.692101 1.50994 0
M  V30 64111 O 6098.79 -0.644897 1.79571 0
M  V30 64112 C 6095.93 -0.722051 3.37462 0
M  V30 64113 C 6095.04 0.139136 4.31776 0
M  V30 64114 C 6094.17 -0.740132 5.26019 0
M  V30 64115 C 6093.21 0.123716 6.11975 0
M  V30 64116 N 6092.35 -0.713413 6.98466 0
M  V30 64117 H 6097.19 0.949318 2.82475 0
M  V30 64118 H 6094.73 0.479746 1.39057 0
M  V30 64119 H 6096.69 -1.24401 3.98221 0
M  V30 64120 H 6095.32 -1.48428 2.86651 0
M  V30 64121 H 6094.37 0.778887 3.72341 0
M  V30 64122 H 6095.68 0.805575 4.92252 0
M  V30 64123 H 6094.83 -1.32866 5.91973 0
M  V30 64124 H 6093.57 -1.44026 4.65948 0
M  V30 64125 H 6092.58 0.724791 5.45002 0
M  V30 64126 H 6093.8 0.821144 6.74117 0
M  V30 64127 H 6091.75 -1.39819 6.40926 0
M  V30 64128 H 6091.67 -0.104226 7.55928 0
M  V30 64129 H 6092.93 -1.2864 7.68812 0
M  V30 64130 N 6097.16 -1.48773 0.520029 0
M  V30 64131 C 6098.09 -2.32293 -0.237132 0
M  V30 64132 C 6099.07 -1.41463 -0.944575 0
M  V30 64133 O 6100.26 -1.70358 -0.932289 0
M  V30 64134 C 6097.39 -3.22431 -1.29056 0
M  V30 64135 C 6096.34 -4.22206 -0.701863 0
M  V30 64136 C 6095.67 -5.0141 -1.85722 0
M  V30 64137 C 6096.97 -5.2132 0.31981 0
M  V30 64138 H 6098.66 -2.95844 0.460053 0
M  V30 64139 H 6096.21 -1.42268 0.222691 0
M  V30 64140 H 6098.16 -3.79681 -1.82813 0
M  V30 64141 H 6096.89 -2.5686 -2.01719 0
M  V30 64142 H 6095.54 -3.66128 -0.185899 0
M  V30 64143 H 6095.19 -4.32271 -2.57199 0
M  V30 64144 H 6094.89 -5.68934 -1.46929 0
M  V30 64145 H 6096.42 -5.61509 -2.39875 0
M  V30 64146 H 6097.83 -5.73152 -0.130303 0
M  V30 64147 H 6096.23 -5.96841 0.624587 0
M  V30 64148 H 6097.3 -4.69064 1.22909 0
M  V30 64149 N 6098.64 -0.254703 -1.55528 0
M  V30 64150 C 6099.57 0.674429 -2.19053 0
M  V30 64151 C 6100.59 1.13293 -1.16913 0
M  V30 64152 O 6101.77 1.05835 -1.4374 0
M  V30 64153 C 6098.87 1.92941 -2.78616 0
M  V30 64154 C 6098.05 1.62108 -4.06251 0
M  V30 64155 C 6097.11 2.72645 -4.50057 0
M  V30 64156 O 6096.13 2.39699 -5.16269 0
M  V30 64157 N 6097.33 4.023 -4.18491 0
M  V30 64158 H 6100.1 0.13085 -2.99414 0
M  V30 64159 H 6097.66 -0.0749745 -1.61726 0
M  V30 64160 H 6099.65 2.66145 -3.04876 0
M  V30 64161 H 6098.22 2.38258 -2.02366 0
M  V30 64162 H 6097.44 0.723855 -3.87497 0
M  V30 64163 H 6098.73 1.38983 -4.8945 0
M  V30 64164 H 6098.13 4.31897 -3.65351 0
M  V30 64165 H 6096.69 4.71944 -4.49569 0
M  V30 64166 N 6100.12 1.57589 0.0183095 0
M  V30 64167 C 6101.07 2.08358 1.03391 0
M  V30 64168 C 6102.06 0.999623 1.36762 0
M  V30 64169 O 6103.27 1.18443 1.35541 0
M  V30 64170 H 6099.64 0.665059 0.351 0
M  V30 64171 H 6101.61 2.92709 0.580008 0
M  V30 64172 C 6100.36 2.58722 2.32289 0
M  V30 64173 H 6099.68 3.41752 2.07475 0
M  V30 64174 H 6101.12 2.97943 3.01672 0
M  V30 64175 C 6099.58 1.49318 3.02003 0
M  V30 64176 O 6100.11 0.865564 3.92264 0
M  V30 64177 N 6098.32 1.22509 2.63515 0
M  V30 64178 H 6097.87 1.7373 1.90199 0
M  V30 64179 H 6097.82 0.495242 3.10475 0
M  V30 64180 N 6101.6 -0.29077 1.54894 0
M  V30 64181 C 6102.54 -1.37891 1.8732 0
M  V30 64182 C 6103.54 -1.51999 0.747848 0
M  V30 64183 O 6104.74 -1.53994 0.931974 0
M  V30 64184 H 6101.12 -0.460803 0.594276 0
M  V30 64185 H 6103.09 -1.07784 2.78254 0
M  V30 64186 C 6101.84 -2.73561 2.14616 0
M  V30 64187 H 6101.16 -2.6349 3.00687 0
M  V30 64188 H 6102.6 -3.48684 2.41237 0
M  V30 64189 C 6101.06 -3.23288 0.947978 0
M  V30 64190 O 6101.59 -4.01325 0.17362 0
M  V30 64191 N 6099.8 -2.8074 0.750543 0
M  V30 64192 H 6099.34 -2.17396 1.38192 0
M  V30 64193 H 6099.3 -3.14361 -0.0495641 0
M  V30 64194 N 6103.07 -1.47525 -0.554454 0
M  V30 64195 C 6103.98 -1.62856 -1.68864 0
M  V30 64196 C 6105 -0.511364 -1.66316 0
M  V30 64197 O 6106.18 -0.77926 -1.85713 0
M  V30 64198 C 6103.24 -1.64172 -3.05366 0
M  V30 64199 C 6102.3 -2.87338 -3.18959 0
M  V30 64200 C 6101.54 -2.88581 -4.4895 0
M  V30 64201 O 6101.76 -1.98956 -5.34577 0
M  V30 64202 O 6100.69 -3.80475 -4.66393 0
M  V30 64203 H 6104.52 -2.58831 -1.58871 0
M  V30 64204 H 6102.1 -1.30642 -0.724776 0
M  V30 64205 H 6103.99 -1.677 -3.86594 0
M  V30 64206 H 6102.66 -0.713645 -3.15735 0
M  V30 64207 H 6101.57 -2.89354 -2.37119 0
M  V30 64208 H 6102.9 -3.79449 -3.13495 0
M  V30 64209 N 6104.55 0.801406 -1.35703 0
M  V30 64210 C 6105.8 1.55387 -1.28599 0
M  V30 64211 C 6106.12 1.95126 0.13613 0
M  V30 64212 O 6107.32 2.69493 0.329473 0
M  V30 64213 C 6105.78 2.80448 -2.25559 0
M  V30 64214 C 6105.39 2.47926 -3.73144 0
M  V30 64215 C 6107.13 3.58449 -2.27409 0
M  V30 64216 C 6105.04 3.6931 -4.61914 0
M  V30 64217 H 6103.97 0.583269 -0.477822 0
M  V30 64218 H 6106.62 0.880469 -1.60997 0
M  V30 64219 H 6105 3.49525 -1.8614 0
M  V30 64220 H 6106.17 1.86822 -4.21229 0
M  V30 64221 H 6104.49 1.8316 -3.73954 0
M  V30 64222 H 6107.09 4.48615 -2.90944 0
M  V30 64223 H 6107.43 3.96157 -1.27926 0
M  V30 64224 H 6107.96 2.96338 -2.65384 0
M  V30 64225 H 6104.7 3.36706 -5.62414 0
M  V30 64226 H 6104.22 4.29622 -4.18552 0
M  V30 64227 H 6105.9 4.36479 -4.77593 0
M  V30 64228 N 6106.03 1.19785 1.02417 0
M  V30 64229 C 6106.98 0.939854 2.10797 0
M  V30 64230 C 6107.95 -0.127102 1.65613 0
M  V30 64231 O 6109.13 0.016034 1.90793 0
M  V30 64232 C 6106.27 0.489776 3.41607 0
M  V30 64233 C 6105.39 1.62403 4.00311 0
M  V30 64234 C 6104.52 1.12502 5.1915 0
M  V30 64235 C 6103.56 2.23286 5.69921 0
M  V30 64236 N 6102.7 1.74657 6.80029 0
M  V30 64237 H 6107.54 1.86778 2.32202 0
M  V30 64238 H 6105.07 0.931122 1.13879 0
M  V30 64239 H 6107.03 0.210195 4.1667 0
M  V30 64240 H 6105.66 -0.401157 3.20298 0
M  V30 64241 H 6104.71 2.01871 3.22416 0
M  V30 64242 H 6106.03 2.45852 4.34003 0
M  V30 64243 H 6105.18 0.800948 6.0139 0
M  V30 64244 H 6103.92 0.260326 4.87005 0
M  V30 64245 H 6102.92 2.56518 4.86291 0
M  V30 64246 H 6104.15 3.10218 6.04104 0
M  V30 64247 H 6102.1 0.905032 6.49727 0
M  V30 64248 H 6102.01 2.51691 7.12873 0
M  V30 64249 H 6103.28 1.45228 7.65852 0
M  V30 64250 N 6107.51 -1.21603 1.00253 0
M  V30 64251 C 6108.92 -1.72362 0.717506 0
M  V30 64252 C 6109.27 -1.80671 -0.765015 0
M  V30 64253 O 6108.4 -1.45957 -1.59767 0
M  V30 64254 C 6108.99 -3.13041 1.29578 0
M  V30 64255 C 6107.55 -3.61168 1.05994 0
M  V30 64256 C 6106.7 -2.3877 1.41011 0
M  V30 64257 H 6109.65 -1.06814 1.17373 0
M  V30 64258 H 6109.67 -3.74389 0.679186 0
M  V30 64259 H 6109.18 -3.06962 2.37478 0
M  V30 64260 H 6107.28 -3.726 -0.00201208 0
M  V30 64261 H 6107.4 -4.46772 1.73009 0
M  V30 64262 H 6105.76 -2.40836 0.828855 0
M  V30 64263 H 6106.54 -2.35344 2.49936 0
M  V30 64264 N 6108.99 -0.776943 -1.37118 0
M  V30 64265 C 6110.21 -0.353983 -2.04357 0
M  V30 64266 C 6110.64 1.0174 -1.58211 0
M  V30 64267 O 6110 1.65297 -0.744749 0
M  V30 64268 C 6110.04 -0.412044 -3.58238 0
M  V30 64269 O 6109.15 0.585617 -4.08221 0
M  V30 64270 H 6108.49 -0.152357 -0.646284 0
M  V30 64271 H 6111.02 -1.05458 -1.75327 0
M  V30 64272 H 6111.03 -0.271186 -4.07098 0
M  V30 64273 H 6109.7 -1.41249 -3.9118 0
M  V30 64274 H 6108.28 0.40745 -3.70667 0
M  V30 64275 N 6110.47 1.48495 -0.527912 0
M  V30 64276 C 6111.71 2.02099 0.00692668 0
M  V30 64277 C 6112.03 1.40747 1.34964 0
M  V30 64278 O 6111.3 0.572125 1.87359 0
M  V30 64279 H 6109.88 0.746979 0.00554819 0
M  V30 64280 H 6112.55 1.82229 -0.691273 0
M  V30 64281 H 6111.64 3.11881 0.116784 0
M  V30 64282 N 6111.94 0.262948 1.55391 0
M  V30 64283 C 6112.87 -0.623653 2.25017 0
M  V30 64284 C 6113.85 -1.16861 1.23602 0
M  V30 64285 O 6115.04 -1.205 1.52294 0
M  V30 64286 C 6112.17 -1.81343 2.96196 0
M  V30 64287 C 6111.12 -1.40055 4.04436 0
M  V30 64288 C 6110.45 -2.67245 4.63125 0
M  V30 64289 C 6111.75 -0.559722 5.19292 0
M  V30 64290 H 6113.44 -0.0430254 2.99369 0
M  V30 64291 H 6110.99 -0.0192537 1.43987 0
M  V30 64292 H 6112.94 -2.43946 3.43611 0
M  V30 64293 H 6111.67 -2.4197 2.19359 0
M  V30 64294 H 6110.33 -0.797779 3.57814 0
M  V30 64295 H 6109.97 -3.26103 3.8297 0
M  V30 64296 H 6109.67 -2.40335 5.36202 0
M  V30 64297 H 6111.2 -3.30717 5.13282 0
M  V30 64298 H 6112.61 -1.09045 5.62834 0
M  V30 64299 H 6111.01 -0.386024 5.98857 0
M  V30 64300 H 6112.08 0.424369 4.83039 0
M  V30 64301 N 6113.42 -1.57597 -0.00995191 0
M  V30 64302 C 6114.37 -2.07792 -1.00455 0
M  V30 64303 C 6115.34 -0.971148 -1.34751 0
M  V30 64304 O 6116.52 -1.24295 -1.4476 0
M  V30 64305 C 6113.66 -2.57777 -2.29445 0
M  V30 64306 C 6112.78 -3.82318 -2.0114 0
M  V30 64307 C 6111.91 -4.20841 -3.24139 0
M  V30 64308 C 6110.95 -5.38246 -2.91475 0
M  V30 64309 N 6110.09 -5.72111 -4.06981 0
M  V30 64310 H 6114.93 -2.92506 -0.569572 0
M  V30 64311 H 6112.46 -1.44608 -0.269594 0
M  V30 64312 H 6114.42 -2.84832 -3.04839 0
M  V30 64313 H 6113.05 -1.75951 -2.70631 0
M  V30 64314 H 6112.1 -3.62231 -1.16158 0
M  V30 64315 H 6113.42 -4.67817 -1.73058 0
M  V30 64316 H 6112.57 -4.49126 -4.07886 0
M  V30 64317 H 6111.31 -3.34031 -3.55351 0
M  V30 64318 H 6110.31 -5.09695 -2.06133 0
M  V30 64319 H 6111.54 -6.26725 -2.6152 0
M  V30 64320 H 6109.49 -4.88259 -4.38109 0
M  V30 64321 H 6109.4 -6.52162 -3.82388 0
M  V30 64322 H 6110.67 -6.04982 -4.91546 0
M  V30 64323 N 6114.9 0.282551 -1.55046 0
M  V30 64324 C 6116.13 1.03389 -1.79216 0
M  V30 64325 C 6116.54 1.80282 -0.560715 0
M  V30 64326 O 6115.9 1.76344 0.469987 0
M  V30 64327 C 6115.95 1.99999 -3.01135 0
M  V30 64328 O 6115.67 1.26223 -4.19523 0
M  V30 64329 C 6117.17 2.87023 -3.37835 0
M  V30 64330 H 6114.39 0.305834 -0.597249 0
M  V30 64331 H 6116.94 0.316229 -2.0204 0
M  V30 64332 H 6115.09 2.67241 -2.80465 0
M  V30 64333 H 6115.51 1.9126 -4.88385 0
M  V30 64334 H 6116.98 3.50627 -4.26339 0
M  V30 64335 H 6117.46 3.56294 -2.5681 0
M  V30 64336 H 6118.06 2.25286 -3.60731 0
M  V30 64337 N 6116.38 1.47817 0.546623 0
M  V30 64338 C 6117.31 1.55649 1.66879 0
M  V30 64339 C 6118.29 0.407939 1.574 0
M  V30 64340 O 6119.47 0.617227 1.78108 0
M  V30 64341 C 6116.6 1.46894 3.05188 0
M  V30 64342 C 6115.65 2.66384 3.3308 0
M  V30 64343 S 6116.48 4.28496 3.21172 0
M  V30 64344 C 6117.63 4.22311 4.61957 0
M  V30 64345 H 6117.87 2.50585 1.59982 0
M  V30 64346 H 6115.4 1.36145 0.728283 0
M  V30 64347 H 6117.36 1.4253 3.84962 0
M  V30 64348 H 6116.02 0.533241 3.09541 0
M  V30 64349 H 6115.21 2.5635 4.33936 0
M  V30 64350 H 6114.81 2.67925 2.60945 0
M  V30 64351 H 6117.11 3.91218 5.53132 0
M  V30 64352 H 6118.05 5.2329 4.77046 0
M  V30 64353 H 6118.46 3.53016 4.40499 0
M  V30 64354 N 6117.86 -0.794198 1.36126 0
M  V30 64355 C 6119.1 -1.55417 1.30283 0
M  V30 64356 C 6119.43 -1.93835 -0.119066 0
M  V30 64357 O 6118.71 -1.62334 -1.07135 0
M  V30 64358 C 6118.99 -2.83446 2.22104 0
M  V30 64359 C 6118.85 -2.51426 3.72968 0
M  V30 64360 C 6120.16 -3.85239 2.12789 0
M  V30 64361 H 6117.28 -0.563855 0.474591 0
M  V30 64362 H 6119.93 -0.912818 1.66636 0
M  V30 64363 H 6118.08 -3.38176 1.91232 0
M  V30 64364 H 6119.75 -2.02784 4.14338 0
M  V30 64365 H 6117.99 -1.84437 3.92639 0
M  V30 64366 H 6118.66 -3.42847 4.3262 0
M  V30 64367 H 6121.14 -3.39943 2.39954 0
M  V30 64368 H 6120.01 -4.72579 2.79214 0
M  V30 64369 H 6120.27 -4.27843 1.11368 0
M  V30 64370 N 6119.33 -1.20327 -1.0178 0
M  V30 64371 C 6120.58 -1.01419 -1.75619 0
M  V30 64372 C 6120.91 0.452735 -1.88849 0
M  V30 64373 O 6120.19 1.33613 -1.41343 0
M  V30 64374 C 6120.47 -1.69697 -3.17608 0
M  V30 64375 C 6120.32 -3.23826 -3.1218 0
M  V30 64376 C 6121.64 -1.42906 -4.16252 0
M  V30 64377 H 6118.76 -0.369845 -0.637482 0
M  V30 64378 H 6121.4 -1.48324 -1.18744 0
M  V30 64379 H 6119.55 -1.29819 -3.66169 0
M  V30 64380 H 6121.23 -3.7299 -2.71433 0
M  V30 64381 H 6119.47 -3.54794 -2.49607 0
M  V30 64382 H 6120.14 -3.66755 -4.12546 0
M  V30 64383 H 6122.62 -1.775 -3.76342 0
M  V30 64384 H 6121.49 -1.93213 -5.1377 0
M  V30 64385 H 6121.75 -0.356418 -4.40661 0
M  V30 64386 N 6120.81 1.21069 -1.00896 0
M  V30 64387 C 6122.04 1.94772 -0.712657 0
M  V30 64388 C 6122.46 1.73815 0.719024 0
M  V30 64389 O 6121.82 1.02752 1.49371 0
M  V30 64390 C 6121.87 3.45152 -1.04414 0
M  V30 64391 O 6120.97 4.12121 -0.151578 0
M  V30 64392 H 6120.31 0.608766 -0.265141 0
M  V30 64393 H 6122.84 1.53716 -1.35027 0
M  V30 64394 H 6122.85 3.9574 -0.992651 0
M  V30 64395 H 6121.53 3.59729 -2.08729 0
M  V30 64396 H 6120.11 3.71993 -0.259936 0
M  V30 64397 N 6122.29 0.784204 1.36704 0
M  V30 64398 C 6123.25 0.185037 2.28452 0
M  V30 64399 C 6124.25 -0.614584 1.48592 0
M  V30 64400 O 6125.44 -0.436344 1.68647 0
M  V30 64401 C 6122.58 -0.744545 3.3267 0
M  V30 64402 H 6123.77 0.993961 2.8295 0
M  V30 64403 H 6121.32 0.553265 1.4618 0
M  V30 64404 H 6122.06 -1.57801 2.83319 0
M  V30 64405 H 6121.84 -0.173175 3.91717 0
M  V30 64406 H 6123.33 -1.1588 4.012 0
M  V30 64407 N 6123.77 -1.48213 0.535779 0
M  V30 64408 C 6125.02 -2.021 0.00379121 0
M  V30 64409 C 6125.34 -1.41461 -1.34216 0
M  V30 64410 O 6124.61 -0.582053 -1.87053 0
M  V30 64411 H 6123.19 -0.746998 -0.00158669 0
M  V30 64412 H 6125.85 -1.8186 0.700927 0
M  V30 64413 H 6124.95 -3.11939 -0.100242 0
M  V30 64414 N 6125.25 -0.271185 -1.55249 0
M  V30 64415 C 6126.18 0.651158 -2.19756 0
M  V30 64416 C 6127.19 1.12046 -1.18108 0
M  V30 64417 O 6128.38 1.04305 -1.44854 0
M  V30 64418 C 6125.48 1.89975 -2.80647 0
M  V30 64419 C 6124.65 1.5779 -4.07947 0
M  V30 64420 C 6123.71 2.67856 -4.52923 0
M  V30 64421 O 6122.74 2.34209 -5.18782 0
M  V30 64422 N 6123.94 3.97839 -4.22735 0
M  V30 64423 H 6126.71 0.099086 -2.99536 0
M  V30 64424 H 6124.27 -0.0921235 -1.61638 0
M  V30 64425 H 6126.26 2.62896 -3.07681 0
M  V30 64426 H 6124.83 2.36098 -2.04882 0
M  V30 64427 H 6124.05 0.682715 -3.88243 0
M  V30 64428 H 6125.34 1.33784 -4.90896 0
M  V30 64429 H 6124.73 4.27998 -3.69912 0
M  V30 64430 H 6123.29 4.67149 -4.54549 0
M  V30 64431 N 6126.72 1.576 0.00159402 0
M  V30 64432 C 6127.63 2.11751 1.00988 0
M  V30 64433 C 6128.65 1.0624 1.37801 0
M  V30 64434 O 6129.83 1.38132 1.46566 0
M  V30 64435 C 6126.89 2.60877 2.28351 0
M  V30 64436 C 6125.95 3.80983 1.97865 0
M  V30 64437 C 6125.19 4.27756 3.19156 0
M  V30 64438 O 6125.41 3.73872 4.30786 0
M  V30 64439 O 6124.34 5.19928 3.03247 0
M  V30 64440 H 6128.17 2.98119 0.579562 0
M  V30 64441 H 6125.75 1.47767 0.220323 0
M  V30 64442 H 6127.64 2.92681 3.03177 0
M  V30 64443 H 6126.31 1.77608 2.70624 0
M  V30 64444 H 6125.22 3.54155 1.2052 0
M  V30 64445 H 6126.55 4.6532 1.6043 0
M  V30 64446 N 6128.2 -0.274325 1.55194 0
M  V30 64447 C 6129.13 -1.36132 1.84392 0
M  V30 64448 C 6130.15 -1.45599 0.728346 0
M  V30 64449 O 6131.34 -1.47439 1.00618 0
M  V30 64450 C 6128.44 -2.74271 1.9907 0
M  V30 64451 C 6127.61 -2.87412 3.29716 0
M  V30 64452 C 6126.67 -4.06218 3.34475 0
M  V30 64453 O 6125.69 -3.97038 4.07859 0
M  V30 64454 N 6126.9 -5.18122 2.61783 0
M  V30 64455 H 6129.66 -1.11431 2.78214 0
M  V30 64456 H 6127.22 -0.464438 1.55095 0
M  V30 64457 H 6129.21 -3.5204 1.99625 0
M  V30 64458 H 6127.78 -2.91801 1.1212 0
M  V30 64459 H 6127 -1.96539 3.41711 0
M  V30 64460 H 6128.29 -2.93122 4.15881 0
M  V30 64461 H 6127.69 -5.28466 2.01842 0
M  V30 64462 H 6126.25 -5.94126 2.68062 0
M  V30 64463 N 6129.68 -1.48105 -0.538776 0
M  V30 64464 C 6130.91 -1.5932 -1.32002 0
M  V30 64465 C 6131.32 -0.250173 -1.87135 0
M  V30 64466 O 6130.68 0.7593 -1.65954 0
M  V30 64467 C 6130.73 -2.63295 -2.47705 0
M  V30 64468 O 6130.45 -3.92386 -1.94846 0
M  V30 64469 C 6131.95 -2.84868 -3.39654 0
M  V30 64470 H 6129.17 -0.537444 -0.401739 0
M  V30 64471 H 6131.72 -1.93866 -0.650852 0
M  V30 64472 H 6129.87 -2.31632 -3.10524 0
M  V30 64473 H 6130.29 -4.49355 -2.70518 0
M  V30 64474 H 6131.76 -3.61441 -4.1721 0
M  V30 64475 H 6132.24 -1.93366 -3.94343 0
M  V30 64476 H 6132.84 -3.17801 -2.82635 0
M  V30 64477 N 6131.16 0.786968 -1.36545 0
M  V30 64478 C 6132.11 1.9211 -1.31135 0
M  V30 64479 C 6133.1 1.68183 -0.202715 0
M  V30 64480 O 6134.31 1.76159 -0.369864 0
M  V30 64481 H 6130.68 0.6315 -0.408303 0
M  V30 64482 H 6132.65 1.93792 -2.26908 0
M  V30 64483 C 6131.4 3.29169 -1.11996 0
M  V30 64484 H 6130.72 3.48149 -1.96551 0
M  V30 64485 H 6132.16 4.08869 -1.12258 0
M  V30 64486 C 6130.62 3.36444 0.175264 0
M  V30 64487 O 6131.15 3.84459 1.16424 0
M  V30 64488 N 6129.36 2.8976 0.220777 0
M  V30 64489 H 6128.91 2.50878 -0.584646 0
M  V30 64490 H 6128.86 2.95009 1.08706 0
M  V30 64491 N 6132.64 1.20865 1.01141 0
M  V30 64492 C 6133.88 1.03333 1.76357 0
M  V30 64493 C 6134.24 -0.426473 1.87204 0
M  V30 64494 O 6135.44 -0.722127 2.58918 0
M  V30 64495 C 6133.71 1.70408 3.14159 0
M  V30 64496 S 6135.27 1.68048 4.05346 0
M  V30 64497 H 6132.09 0.370424 0.606883 0
M  V30 64498 H 6134.69 1.53506 1.21063 0
M  V30 64499 H 6133.4 2.7582 3.03894 0
M  V30 64500 H 6132.93 1.20388 3.74527 0
M  V30 64501 H 6134.94 0.717022 4.90992 0
M  V30 64502 N 6134.12 -1.20532 1.01537 0
M  V30 64503 C 6135.06 -2.25308 0.577865 0
M  V30 64504 C 6136.06 -1.65019 -0.382785 0
M  V30 64505 O 6137.26 -1.78215 -0.252841 0
M  V30 64506 H 6133.64 -0.732866 0.168558 0
M  V30 64507 H 6135.61 -2.59538 1.47249 0
M  V30 64508 C 6134.36 -3.47631 -0.0693041 0
M  V30 64509 H 6133.68 -3.943 0.660886 0
M  V30 64510 H 6135.12 -4.22646 -0.338557 0
M  V30 64511 C 6133.58 -3.10314 -1.31174 0
M  V30 64512 O 6134.11 -3.21737 -2.40516 0
M  V30 64513 N 6132.32 -2.64875 -1.19538 0
M  V30 64514 H 6131.86 -2.5578 -0.305651 0
M  V30 64515 H 6131.82 -2.40277 -2.02766 0
M  V30 64516 N 6135.59 -0.791442 -1.36286 0
M  V30 64517 C 6136.82 -0.376767 -2.03441 0
M  V30 64518 C 6137.24 1.00748 -1.59673 0
M  V30 64519 O 6136.59 1.64654 -0.787099 0
M  V30 64520 C 6136.64 -0.433201 -3.58895 0
M  V30 64521 O 6136.37 -1.76286 -4.01067 0
M  V30 64522 C 6137.87 -0.00941059 -4.43299 0
M  V30 64523 H 6135.09 -0.155012 -0.652849 0
M  V30 64524 H 6137.63 -1.07085 -1.74221 0
M  V30 64525 H 6135.79 0.212487 -3.86817 0
M  V30 64526 H 6136.2 -1.71509 -4.95666 0
M  V30 64527 H 6137.67 -0.100033 -5.51909 0
M  V30 64528 H 6138.15 1.04347 -4.26624 0
M  V30 64529 H 6138.76 -0.627665 -4.20643 0
M  V30 64530 N 6137.07 1.47927 -0.543632 0
M  V30 64531 C 6138.3 2.07393 -0.0169634 0
M  V30 64532 C 6138.72 1.39561 1.26112 0
M  V30 64533 O 6138.08 0.466044 1.75208 0
M  V30 64534 C 6138.13 3.6017 0.175978 0
M  V30 64535 O 6137.23 3.93265 1.24164 0
M  V30 64536 H 6136.57 0.662457 -0.0452359 0
M  V30 64537 H 6139.1 1.90143 -0.755442 0
M  V30 64538 H 6139.11 4.06089 0.394412 0
M  V30 64539 H 6137.79 4.08942 -0.757589 0
M  V30 64540 H 6136.36 3.59108 1.00478 0
M  V30 64541 N 6138.55 0.279414 1.55103 0
M  V30 64542 C 6139.77 -0.342223 2.04557 0
M  V30 64543 C 6140.2 -1.48363 1.15629 0
M  V30 64544 O 6139.56 -1.80629 0.155783 0
M  V30 64545 C 6139.61 -0.796661 3.5169 0
M  V30 64546 O 6138.71 -1.90352 3.65842 0
M  V30 64547 H 6138.05 -0.0700968 0.66029 0
M  V30 64548 H 6140.58 0.414967 2.00348 0
M  V30 64549 H 6140.59 -1.09127 3.93135 0
M  V30 64550 H 6139.27 0.0384099 4.15882 0
M  V30 64551 H 6137.84 -1.61111 3.363 0
M  V30 64552 N 6140.03 -1.57599 0.00676391 0
M  V30 64553 C 6140.96 -2.11881 -0.981257 0
M  V30 64554 C 6141.94 -1.02954 -1.35405 0
M  V30 64555 O 6143.12 -1.30672 -1.43661 0
M  V30 64556 C 6140.25 -2.62765 -2.27094 0
M  V30 64557 C 6139.21 -3.76279 -2.03957 0
M  V30 64558 C 6138.53 -4.13503 -3.38997 0
M  V30 64559 C 6139.83 -5.03279 -1.3967 0
M  V30 64560 H 6141.53 -2.94685 -0.529262 0
M  V30 64561 H 6139.07 -1.41758 -0.253138 0
M  V30 64562 H 6141.03 -2.99369 -2.96574 0
M  V30 64563 H 6139.75 -1.77092 -2.74419 0
M  V30 64564 H 6138.41 -3.40079 -1.36901 0
M  V30 64565 H 6138.06 -3.24844 -3.84038 0
M  V30 64566 H 6137.76 -4.89984 -3.24329 0
M  V30 64567 H 6139.28 -4.52672 -4.09781 0
M  V30 64568 H 6140.7 -5.37611 -1.99117 0
M  V30 64569 H 6139.09 -5.84609 -1.3547 0
M  V30 64570 H 6140.16 -4.83511 -0.366758 0
M  V30 64571 N 6141.51 0.266091 -1.55337 0
M  V30 64572 C 6142.47 1.31236 -1.87909 0
M  V30 64573 C 6143.47 1.42019 -0.754133 0
M  V30 64574 O 6144.66 1.41051 -1.02227 0
M  V30 64575 C 6141.79 2.69278 -2.0905 0
M  V30 64576 H 6142.98 1.03582 -2.81444 0
M  V30 64577 H 6140.54 0.504485 -1.47935 0
M  V30 64578 H 6141.27 3.02102 -1.1792 0
M  V30 64579 H 6141.06 2.62836 -2.90963 0
M  V30 64580 H 6142.55 3.44862 -2.355 0
M  V30 64581 N 6142.98 1.48388 0.530914 0
M  V30 64582 C 6144.21 1.59786 1.30965 0
M  V30 64583 C 6144.62 0.256896 1.87448 0
M  V30 64584 O 6143.96 -0.763786 1.67069 0
M  V30 64585 C 6144.03 2.5844 2.49898 0
M  V30 64586 C 6143.69 4.03528 2.14509 0
M  V30 64587 C 6144.69 4.91239 1.70237 0
M  V30 64588 C 6142.37 4.49058 2.25061 0
M  V30 64589 C 6144.37 6.22507 1.36981 0
M  V30 64590 C 6142.05 5.80347 1.91417 0
M  V30 64591 C 6143.05 6.66894 1.47448 0
M  V30 64592 O 6142.74 7.95741 1.14244 0
M  V30 64593 H 6142.47 0.541572 0.404569 0
M  V30 64594 H 6145.03 1.94934 0.647281 0
M  V30 64595 H 6143.26 2.18411 3.19113 0
M  V30 64596 H 6144.94 2.59683 3.11961 0
M  V30 64597 H 6145.71 4.57301 1.61556 0
M  V30 64598 H 6141.59 3.81881 2.5824 0
M  V30 64599 H 6145.13 6.90015 1.02589 0
M  V30 64600 H 6141.03 6.1382 1.99738 0
M  V30 64601 H 6141.8 8.08485 1.2765 0
M  V30 64602 N 6144.46 -0.779715 1.36961 0
M  V30 64603 C 6145.69 -1.56643 1.34709 0
M  V30 64604 C 6146.1 -1.89065 -0.0713925 0
M  V30 64605 O 6145.44 -1.51329 -1.0414 0
M  V30 64606 C 6145.5 -2.90855 2.11291 0
M  V30 64607 C 6145.17 -2.8111 3.60314 0
M  V30 64608 C 6146.17 -2.52686 4.54363 0
M  V30 64609 C 6143.85 -2.99382 4.0333 0
M  V30 64610 C 6145.84 -2.4265 5.89406 0
M  V30 64611 C 6143.53 -2.88968 5.38462 0
M  V30 64612 C 6144.53 -2.60641 6.31312 0
M  V30 64613 O 6144.22 -2.50238 7.63961 0
M  V30 64614 H 6143.95 -0.492192 0.463382 0
M  V30 64615 H 6146.5 -0.974882 1.80791 0
M  V30 64616 H 6144.73 -3.52098 1.59887 0
M  V30 64617 H 6146.42 -3.52196 2.01774 0
M  V30 64618 H 6147.19 -2.38263 4.2244 0
M  V30 64619 H 6143.07 -3.20435 3.31425 0
M  V30 64620 H 6146.61 -2.20461 6.61848 0
M  V30 64621 H 6142.51 -3.02957 5.69989 0
M  V30 64622 H 6143.28 -2.65647 7.74193 0
M  V30 64623 N 6145.94 -1.21399 -1.00498 0
M  V30 64624 C 6146.85 -0.989296 -2.12721 0
M  V30 64625 C 6147.87 0.0586035 -1.73901 0
M  V30 64626 O 6149.04 -0.131448 -2.00971 0
M  V30 64627 C 6146.11 -0.556851 -3.42199 0
M  V30 64628 C 6145.17 -1.67697 -3.95192 0
M  V30 64629 C 6144.4 -1.26506 -5.1849 0
M  V30 64630 O 6144.62 -0.13867 -5.70231 0
M  V30 64631 O 6143.56 -2.07698 -5.64929 0
M  V30 64632 H 6147.38 -1.92921 -2.34553 0
M  V30 64633 H 6144.97 -0.998876 -1.11098 0
M  V30 64634 H 6146.85 -0.325474 -4.20141 0
M  V30 64635 H 6145.53 0.354344 -3.21755 0
M  V30 64636 H 6144.43 -1.96275 -3.18476 0
M  V30 64637 H 6145.77 -2.56559 -4.20046 0
M  V30 64638 N 6147.42 1.19992 -1.02175 0
M  V30 64639 C 6148.83 1.71199 -0.744837 0
M  V30 64640 C 6149.18 1.81865 0.736175 0
M  V30 64641 O 6148.3 1.4848 1.57425 0
M  V30 64642 C 6148.9 3.1094 -1.34542 0
M  V30 64643 C 6147.46 3.59436 -1.11726 0
M  V30 64644 C 6146.61 2.36496 -1.44792 0
M  V30 64645 H 6149.56 1.04934 -1.19057 0
M  V30 64646 H 6149.58 3.73261 -0.738662 0
M  V30 64647 H 6149.09 3.03145 -2.42332 0
M  V30 64648 H 6147.19 3.72556 -0.0572656 0
M  V30 64649 H 6147.3 4.43963 -1.80095 0
M  V30 64650 H 6145.67 2.39487 -0.867065 0
M  V30 64651 H 6146.45 2.31338 -2.53649 0
M  V30 64652 N 6148.9 0.798659 1.35865 0
M  V30 64653 C 6150.14 0.375886 1.99286 0
M  V30 64654 C 6150.48 -1.05217 1.63227 0
M  V30 64655 O 6149.75 -1.72859 0.891637 0
M  V30 64656 C 6150.03 0.550322 3.5587 0
M  V30 64657 C 6149.89 2.02274 4.01753 0
M  V30 64658 C 6151.21 -0.0289314 4.4009 0
M  V30 64659 H 6148.32 0.13805 0.723955 0
M  V30 64660 H 6150.97 1.00672 1.61137 0
M  V30 64661 H 6149.12 0.0133104 3.88498 0
M  V30 64662 H 6150.79 2.62152 3.79571 0
M  V30 64663 H 6149.03 2.52203 3.52953 0
M  V30 64664 H 6149.7 2.09571 5.1067 0
M  V30 64665 H 6152.18 0.429589 4.13876 0
M  V30 64666 H 6151.05 0.123087 5.48762 0
M  V30 64667 H 6151.32 -1.12191 4.27628 0
M  V30 64668 N 6150.37 -1.47637 0.551469 0
M  V30 64669 C 6151.31 -2.27973 -0.236839 0
M  V30 64670 C 6152.32 -1.36663 -0.884704 0
M  V30 64671 O 6153.51 -1.61535 -0.759523 0
M  V30 64672 C 6150.61 -3.10742 -1.3525 0
M  V30 64673 C 6149.78 -4.29975 -0.802508 0
M  V30 64674 C 6148.84 -4.94385 -1.80194 0
M  V30 64675 O 6147.87 -5.52951 -1.35034 0
M  V30 64676 N 6149.07 -4.88561 -3.13509 0
M  V30 64677 H 6151.83 -2.96268 0.452259 0
M  V30 64678 H 6149.39 -1.57202 0.387171 0
M  V30 64679 H 6151.39 -3.50699 -2.01971 0
M  V30 64680 H 6149.96 -2.44728 -1.94492 0
M  V30 64681 H 6149.18 -3.94178 0.041321 0
M  V30 64682 H 6150.46 -5.0711 -0.414302 0
M  V30 64683 H 6149.86 -4.42169 -3.52849 0
M  V30 64684 H 6148.42 -5.32554 -3.75805 0
M  V30 64685 N 6151.85 -0.287636 -1.54953 0
M  V30 64686 C 6153.1 0.324897 -1.99471 0
M  V30 64687 C 6153.42 1.55433 -1.17753 0
M  V30 64688 O 6152.69 1.94029 -0.270135 0
M  V30 64689 H 6151.27 0.123036 -0.736798 0
M  V30 64690 H 6153.93 -0.395872 -1.90837 0
M  V30 64691 H 6153.03 0.606158 -3.06157 0
M  V30 64692 N 6153.33 1.57593 -0.0151216 0
M  V30 64693 C 6154.75 1.55912 0.341134 0
M  V30 64694 C 6154.95 1.01933 1.73816 0
M  V30 64695 O 6154 0.659838 2.43726 0
M  V30 64696 C 6155.32 3.00017 0.202533 0
M  V30 64697 C 6156.86 3.11778 0.276347 0
M  V30 64698 C 6157.34 4.57697 0.166698 0
M  V30 64699 N 6158.83 4.62657 0.224124 0
M  V30 64700 C 6159.56 5.73169 0.162852 0
M  V30 64701 N 6159.06 6.92781 0.0513007 0
M  V30 64702 N 6160.85 5.61686 0.215821 0
M  V30 64703 H 6153 1.91015 -0.928827 0
M  V30 64704 H 6155.27 0.878036 -0.357431 0
M  V30 64705 H 6154.97 3.43407 -0.759257 0
M  V30 64706 H 6154.85 3.64288 0.978471 0
M  V30 64707 H 6157.23 2.68309 1.22859 0
M  V30 64708 H 6157.32 2.50255 -0.529725 0
M  V30 64709 H 6156.96 5.01843 -0.782065 0
M  V30 64710 H 6156.89 5.17183 0.991453 0
M  V30 64711 H 6159.38 3.76618 0.311056 0
M  V30 64712 H 6159.69 7.72799 0.0108571 0
M  V30 64713 H 6158.04 6.94998 0.016714 0
M  V30 64714 H 6161.23 4.67129 0.301271 0
M  V30 64715 H 6161.4 6.47791 0.164606 0
M  V30 64716 N 6154.81 -0.257849 1.55476 0
M  V30 64717 C 6155.76 -1.31905 1.89393 0
M  V30 64718 C 6156.73 -1.48356 0.746979 0
M  V30 64719 O 6157.91 -1.62517 0.999641 0
M  V30 64720 C 6155.05 -2.67154 2.18455 0
M  V30 64721 C 6154.16 -2.58802 3.45899 0
M  V30 64722 C 6153.3 -3.8633 3.64585 0
M  V30 64723 C 6152.34 -3.7255 4.85667 0
M  V30 64724 N 6151.47 -4.91947 5.00932 0
M  V30 64725 H 6156.31 -1.02281 2.79897 0
M  V30 64726 H 6153.85 -0.493815 1.38564 0
M  V30 64727 H 6155.81 -3.45866 2.33308 0
M  V30 64728 H 6154.44 -2.94949 1.31167 0
M  V30 64729 H 6153.49 -1.71718 3.39437 0
M  V30 64730 H 6154.8 -2.44525 4.34752 0
M  V30 64731 H 6153.96 -4.73485 3.79337 0
M  V30 64732 H 6152.7 -4.03492 2.73945 0
M  V30 64733 H 6151.7 -2.83779 4.70903 0
M  V30 64734 H 6152.93 -3.56894 5.77758 0
M  V30 64735 H 6150.87 -5.0949 4.13226 0
M  V30 64736 H 6150.79 -4.80259 5.83856 0
M  V30 64737 H 6152.06 -5.80631 5.20085 0
M  V30 64738 N 6156.29 -1.48668 -0.523038 0
M  V30 64739 C 6157.22 -1.58284 -1.64382 0
M  V30 64740 C 6158.2 -0.432928 -1.56731 0
M  V30 64741 O 6159.38 -0.645484 -1.77104 0
M  V30 64742 C 6156.51 -1.51731 -3.02813 0
M  V30 64743 C 6155.55 -2.71649 -3.288 0
M  V30 64744 S 6156.39 -4.33551 -3.14314 0
M  V30 64745 C 6157.54 -4.29607 -4.5518 0
M  V30 64746 H 6157.78 -2.53099 -1.55975 0
M  V30 64747 H 6155.31 -1.37286 -0.706532 0
M  V30 64748 H 6157.27 -1.48636 -3.82645 0
M  V30 64749 H 6155.93 -0.582419 -3.08653 0
M  V30 64750 H 6155.12 -2.63221 -4.29803 0
M  V30 64751 H 6154.72 -2.72042 -2.5665 0
M  V30 64752 H 6157.02 -3.99969 -5.46838 0
M  V30 64753 H 6157.96 -5.30814 -4.6866 0
M  V30 64754 H 6158.37 -3.5998 -4.34827 0
M  V30 64755 N 6157.76 0.772441 -1.37372 0
M  V30 64756 C 6158.69 1.89965 -1.35778 0
M  V30 64757 C 6159.68 1.68585 -0.226511 0
M  V30 64758 O 6160.86 1.89453 -0.426759 0
M  V30 64759 C 6157.99 3.27238 -1.16331 0
M  V30 64760 C 6156.94 3.63179 -2.26462 0
M  V30 64761 C 6156.27 4.98986 -1.92139 0
M  V30 64762 C 6157.57 3.7 -3.68643 0
M  V30 64763 H 6159.26 1.91556 -2.30102 0
M  V30 64764 H 6156.81 0.920203 -1.10762 0
M  V30 64765 H 6158.76 4.0573 -1.13846 0
M  V30 64766 H 6157.49 3.26078 -0.184628 0
M  V30 64767 H 6156.15 2.86993 -2.28102 0
M  V30 64768 H 6155.79 4.94365 -0.928022 0
M  V30 64769 H 6155.49 5.24002 -2.65886 0
M  V30 64770 H 6157.02 5.79879 -1.9124 0
M  V30 64771 H 6158.43 4.38646 -3.69137 0
M  V30 64772 H 6156.83 4.06514 -4.41437 0
M  V30 64773 H 6157.9 2.7068 -4.02319 0
M  V30 64774 N 6159.24 1.21931 0.998532 0
M  V30 64775 C 6160.18 0.927626 2.08495 0
M  V30 64776 C 6161.15 -0.127321 1.62101 0
M  V30 64777 O 6162.34 0.00304754 1.885 0
M  V30 64778 C 6159.46 0.394086 3.364 0
M  V30 64779 C 6158.51 1.43284 4.01711 0
M  V30 64780 S 6159.34 3.00426 4.43288 0
M  V30 64781 C 6160.5 2.48695 5.7437 0
M  V30 64782 H 6160.73 1.84763 2.32916 0
M  V30 64783 H 6158.27 1.04975 1.13223 0
M  V30 64784 H 6160.22 0.0928338 4.10395 0
M  V30 64785 H 6158.88 -0.504707 3.10019 0
M  V30 64786 H 6158.08 1.00928 4.93791 0
M  V30 64787 H 6157.68 1.6825 3.34018 0
M  V30 64788 H 6159.97 1.89585 6.50434 0
M  V30 64789 H 6160.91 3.39243 6.21546 0
M  V30 64790 H 6161.32 1.90177 5.31501 0
M  V30 64791 N 6160.72 -1.19449 1.02809 0
M  V30 64792 C 6161.68 -2.20855 0.612835 0
M  V30 64793 C 6162.68 -1.5752 -0.323127 0
M  V30 64794 O 6163.87 -1.73851 -0.110242 0
M  V30 64795 C 6161.01 -3.40743 -0.103369 0
M  V30 64796 H 6162.2 -2.59108 1.51007 0
M  V30 64797 H 6159.75 -1.33113 0.819188 0
M  V30 64798 H 6160.49 -3.08007 -1.01499 0
M  V30 64799 H 6160.27 -3.87947 0.569166 0
M  V30 64800 H 6161.76 -4.1586 -0.380851 0
M  V30 64801 N 6162.2 -0.805853 -1.35439 0
M  V30 64802 C 6163.13 -0.230159 -2.32363 0
M  V30 64803 C 6164.11 0.643979 -1.57439 0
M  V30 64804 O 6165.29 0.574402 -1.85511 0
M  V30 64805 C 6162.42 0.622694 -3.41672 0
M  V30 64806 C 6161.38 -0.152889 -4.27727 0
M  V30 64807 C 6160.7 0.821617 -5.2835 0
M  V30 64808 C 6162 -1.35146 -5.04513 0
M  V30 64809 H 6163.7 -1.03993 -2.8076 0
M  V30 64810 H 6161.24 -0.501515 -1.34985 0
M  V30 64811 H 6163.2 1.0355 -4.08479 0
M  V30 64812 H 6161.92 1.46534 -2.91882 0
M  V30 64813 H 6160.58 -0.546859 -3.62498 0
M  V30 64814 H 6160.23 1.65974 -4.74828 0
M  V30 64815 H 6159.93 0.307002 -5.86797 0
M  V30 64816 H 6161.45 1.23264 -5.98029 0
M  V30 64817 H 6162.87 -1.01357 -5.64269 0
M  V30 64818 H 6161.26 -1.80051 -5.72452 0
M  V30 64819 H 6162.33 -2.13848 -4.35198 0
M  V30 64820 N 6163.68 1.47342 -0.559291 0
M  V30 64821 C 6164.61 2.3284 0.17546 0
M  V30 64822 C 6165.59 1.43918 0.906737 0
M  V30 64823 O 6166.77 1.7277 0.886794 0
M  V30 64824 C 6163.9 3.25739 1.20462 0
M  V30 64825 C 6162.86 4.23918 0.589676 0
M  V30 64826 C 6162.18 5.06157 1.72362 0
M  V30 64827 C 6163.48 5.20289 -0.457916 0
M  V30 64828 H 6165.18 2.94521 -0.538329 0
M  V30 64829 H 6162.72 1.41627 -0.260332 0
M  V30 64830 H 6164.68 3.84394 1.72682 0
M  V30 64831 H 6163.4 2.62118 1.94838 0
M  V30 64832 H 6162.06 3.66493 0.0887609 0
M  V30 64833 H 6161.71 4.38938 2.45647 0
M  V30 64834 H 6161.41 5.72629 1.31793 0
M  V30 64835 H 6162.93 5.67671 2.24904 0
M  V30 64836 H 6164.35 5.73296 -0.0217034 0
M  V30 64837 H 6162.74 5.94975 -0.78261 0
M  V30 64838 H 6163.81 4.65641 -1.35303 0
M  V30 64839 N 6165.16 0.295849 1.54798 0
M  V30 64840 C 6166.38 -0.320508 2.04909 0
M  V30 64841 C 6166.81 -1.47128 1.17196 0
M  V30 64842 O 6166.16 -1.80454 0.174933 0
M  V30 64843 C 6166.21 -0.759315 3.52515 0
M  V30 64844 O 6165.32 -1.86461 3.6784 0
M  V30 64845 H 6164.66 -0.0630896 0.660996 0
M  V30 64846 H 6167.19 0.436193 1.99896 0
M  V30 64847 H 6167.2 -1.04951 3.94271 0
M  V30 64848 H 6165.87 0.0825176 4.15818 0
M  V30 64849 H 6164.45 -1.57535 3.3799 0
M  V30 64850 N 6166.63 -1.57583 0.023479 0
M  V30 64851 C 6167.91 -1.82847 -0.694723 0
M  V30 64852 C 6168.29 -0.906209 -1.9066 0
M  V30 64853 O 6167.64 0.0395407 -2.28466 0
M  V30 64854 C 6167.85 -3.31925 -1.07828 0
M  V30 64855 C 6169.2 -3.98257 -1.47229 0
M  V30 64856 O 6170.22 -3.36387 -1.17142 0
M  V30 64857 O 6169.08 -5.07292 -2.03267 0
M  V30 64858 H 6166.17 -0.753735 -0.340312 0
M  V30 64859 H 6168.72 -1.69624 0.05073 0
M  V30 64860 H 6167.49 -3.90706 -0.215504 0
M  V30 64861 H 6167.11 -3.50233 -1.88208 0
M  V30 64862 N 6168.11 0.2496 -1.55611 0
M  V30 64863 C 6169.06 1.32876 -1.9091 0
M  V30 64864 C 6170.05 1.49962 -0.787885 0
M  V30 64865 O 6171.26 1.51469 -0.972476 0
M  V30 64866 H 6167.63 0.444885 -0.606285 0
M  V30 64867 H 6169.61 1.00369 -2.81014 0
M  V30 64868 C 6168.35 2.67774 -2.21793 0
M  V30 64869 H 6167.68 2.55425 -3.07568 0
M  V30 64870 H 6169.12 3.42166 -2.50397 0
M  V30 64871 C 6167.58 3.20661 -1.03336 0
M  V30 64872 O 6168.11 4.00723 -0.279963 0
M  V30 64873 N 6166.31 2.78652 -0.824712 0
M  V30 64874 H 6165.86 2.13655 -1.43907 0
M  V30 64875 H 6165.82 3.14382 -0.0338006 0
M  V30 64876 N 6169.59 1.48943 0.515146 0
M  V30 64877 C 6170.55 1.64067 1.60045 0
M  V30 64878 C 6171.55 0.513155 1.52392 0
M  V30 64879 O 6172.74 0.779295 1.55797 0
M  V30 64880 C 6169.87 1.6248 2.99688 0
M  V30 64881 H 6171.07 2.60855 1.47969 0
M  V30 64882 H 6168.62 1.37762 0.73833 0
M  V30 64883 H 6169.36 0.672252 3.17256 0
M  V30 64884 H 6169.14 2.4435 3.06652 0
M  V30 64885 H 6170.63 1.76287 3.78567 0
M  V30 64886 N 6171.07 -0.765145 1.3778 0
M  V30 64887 C 6172.3 -1.55205 1.36363 0
M  V30 64888 C 6172.71 -1.8913 -0.0513356 0
M  V30 64889 O 6172.05 -1.52425 -1.02529 0
M  V30 64890 C 6172.11 -2.88597 2.14364 0
M  V30 64891 C 6171.77 -2.77273 3.63275 0
M  V30 64892 C 6172.77 -2.47853 4.57018 0
M  V30 64893 C 6170.46 -2.95088 4.06483 0
M  V30 64894 C 6172.45 -2.36385 5.91947 0
M  V30 64895 C 6170.14 -2.8324 5.41496 0
M  V30 64896 C 6171.14 -2.5393 6.34041 0
M  V30 64897 O 6170.82 -2.42121 7.66572 0
M  V30 64898 H 6170.56 -0.48725 0.468576 0
M  V30 64899 H 6173.11 -0.955652 1.81814 0
M  V30 64900 H 6171.34 -3.50382 1.63613 0
M  V30 64901 H 6173.03 -3.50036 2.05498 0
M  V30 64902 H 6173.79 -2.33769 4.24944 0
M  V30 64903 H 6169.67 -3.16901 3.34805 0
M  V30 64904 H 6173.22 -2.13428 6.64149 0
M  V30 64905 H 6169.11 -2.96894 5.7317 0
M  V30 64906 H 6169.88 -2.5742 7.76967 0
M  V30 64907 N 6172.55 -1.22459 -0.992051 0
M  V30 64908 C 6173.48 -1.01968 -2.10059 0
M  V30 64909 C 6174.46 0.0596588 -1.69995 0
M  V30 64910 O 6175.64 -0.102723 -1.93928 0
M  V30 64911 C 6172.77 -0.597563 -3.42121 0
M  V30 64912 C 6171.73 -1.62293 -3.96037 0
M  V30 64913 C 6171.05 -1.05662 -5.24156 0
M  V30 64914 C 6172.35 -3.01311 -4.26625 0
M  V30 64915 H 6174.05 -1.94686 -2.27459 0
M  V30 64916 H 6171.59 -0.937461 -1.09305 0
M  V30 64917 H 6173.54 -0.441322 -4.19083 0
M  V30 64918 H 6172.27 0.365287 -3.24551 0
M  V30 64919 H 6170.93 -1.76696 -3.21207 0
M  V30 64920 H 6170.58 -0.0851035 -5.02928 0
M  V30 64921 H 6170.28 -1.74164 -5.61196 0
M  V30 64922 H 6171.8 -0.911986 -6.03751 0
M  V30 64923 H 6173.21 -2.90277 -4.9438 0
M  V30 64924 H 6171.61 -3.66945 -4.74839 0
M  V30 64925 H 6172.68 -3.5118 -3.34366 0
M  V30 64926 N 6174.02 1.18902 -1.03441 0
M  V30 64927 C 6174.97 2.22316 -0.620011 0
M  V30 64928 C 6175.94 1.61949 0.368999 0
M  V30 64929 O 6177.13 1.88959 0.264404 0
M  V30 64930 C 6174.27 3.45096 0.0173366 0
M  V30 64931 C 6173.38 4.19825 -1.01838 0
M  V30 64932 C 6172.51 5.30044 -0.350212 0
M  V30 64933 C 6171.55 5.96538 -1.37146 0
M  V30 64934 N 6170.69 6.98308 -0.728703 0
M  V30 64935 H 6175.53 2.5712 -1.50643 0
M  V30 64936 H 6173.07 1.26322 -0.753739 0
M  V30 64937 H 6175.02 4.15238 0.404148 0
M  V30 64938 H 6173.65 3.1093 0.867303 0
M  V30 64939 H 6172.71 3.48572 -1.5232 0
M  V30 64940 H 6174.02 4.65409 -1.79432 0
M  V30 64941 H 6173.17 6.06632 0.0911452 0
M  V30 64942 H 6171.91 4.85546 0.457878 0
M  V30 64943 H 6170.92 5.18696 -1.82302 0
M  V30 64944 H 6172.14 6.4312 -2.18114 0
M  V30 64945 H 6170.09 6.55973 0.0591945 0
M  V30 64946 H 6170 7.42112 -1.44244 0
M  V30 64947 H 6171.27 7.78877 -0.311532 0
M  V30 64948 N 6175.5 0.813024 1.3501 0
M  V30 64949 C 6176.75 0.406152 1.99304 0
M  V30 64950 C 6177.1 -1.01705 1.63321 0
M  V30 64951 O 6176.4 -1.69697 0.889573 0
M  V30 64952 C 6176.59 0.534207 3.53385 0
M  V30 64953 C 6176.42 1.96831 4.04336 0
M  V30 64954 C 6175.19 2.59807 4.33392 0
M  V30 64955 C 6177.39 2.93374 4.22417 0
M  V30 64956 N 6175.37 3.94561 4.70314 0
M  V30 64957 C 6176.74 4.13012 4.62408 0
M  V30 64958 C 6178.79 2.90121 4.04641 0
M  V30 64959 C 6177.5 5.29838 4.86481 0
M  V30 64960 C 6179.52 4.06154 4.29875 0
M  V30 64961 C 6178.89 5.24542 4.70144 0
M  V30 64962 H 6174.98 0.196524 0.756903 0
M  V30 64963 H 6177.57 1.05563 1.63599 0
M  V30 64964 H 6175.74 -0.0853143 3.88306 0
M  V30 64965 H 6177.47 0.101297 4.04573 0
M  V30 64966 H 6174.23 2.11116 4.23942 0
M  V30 64967 H 6174.65 4.63957 4.93025 0
M  V30 64968 H 6179.29 1.99738 3.72645 0
M  V30 64969 H 6177.01 6.20786 5.17349 0
M  V30 64970 H 6180.6 4.05025 4.17667 0
M  V30 64971 H 6179.48 6.12836 4.89287 0
M  V30 64972 N 6176.98 -1.47043 0.567097 0
M  V30 64973 C 6177.94 -2.28608 -0.164678 0
M  V30 64974 C 6178.94 -1.37512 -0.833494 0
M  V30 64975 O 6180.13 -1.60045 -0.687839 0
M  V30 64976 C 6177.26 -3.1747 -1.24199 0
M  V30 64977 H 6178.46 -2.94778 0.551918 0
M  V30 64978 H 6176.01 -1.52896 0.32443 0
M  V30 64979 H 6176.75 -2.56013 -1.99067 0
M  V30 64980 H 6176.53 -3.84523 -0.767108 0
M  V30 64981 H 6178.02 -3.789 -1.75568 0
M  V30 64982 N 6178.46 -0.304054 -1.54639 0
M  V30 64983 C 6179.87 0.0492363 -1.59524 0
M  V30 64984 C 6180.07 1.52159 -1.32098 0
M  V30 64985 O 6179.13 2.27479 -1.09588 0
M  V30 64986 C 6180.44 -0.351451 -2.98639 0
M  V30 64987 C 6181.99 -0.300471 -3.11554 0
M  V30 64988 C 6182.47 -0.676026 -4.52983 0
M  V30 64989 N 6183.96 -0.628679 -4.58914 0
M  V30 64990 C 6184.69 -0.891703 -5.66424 0
M  V30 64991 N 6184.19 -1.22085 -6.81958 0
M  V30 64992 N 6185.98 -0.818562 -5.56108 0
M  V30 64993 H 6178.13 -1.26357 -1.70727 0
M  V30 64994 H 6180.4 -0.512485 -0.797536 0
M  V30 64995 H 6180.1 -1.37653 -3.23643 0
M  V30 64996 H 6179.98 0.293371 -3.76057 0
M  V30 64997 H 6182.36 0.715368 -2.86298 0
M  V30 64998 H 6182.44 -0.979959 -2.36285 0
M  V30 64999 H 6182.09 -1.68969 -4.7897 0
M  V30 65000 H 6182.02 0.0255647 -5.26594 0
M  V30 65001 H 6184.51 -0.385336 -3.7593 0
M  V30 65002 H 6184.82 -1.40745 -7.59875 0
M  V30 65003 H 6183.17 -1.25892 -6.83503 0
M  V30 65004 H 6186.36 -0.561048 -4.64726 0
M  V30 65005 H 6186.53 -1.02691 -6.39811 0
M  V30 65006 N 6179.94 1.57568 -0.0318356 0
M  V30 65007 C 6181.18 1.92197 0.647171 0
M  V30 65008 C 6181.52 0.908807 1.71623 0
M  V30 65009 O 6180.79 -0.0680651 1.94381 0
M  V30 65010 C 6181.07 3.37295 1.26112 0
M  V30 65011 C 6180.93 4.49349 0.201436 0
M  V30 65012 C 6182.25 3.82408 2.17836 0
M  V30 65013 H 6179.36 0.698935 0.233792 0
M  V30 65014 H 6182.01 1.89788 -0.0896498 0
M  V30 65015 H 6180.16 3.39478 1.8891 0
M  V30 65016 H 6181.83 4.59298 -0.429317 0
M  V30 65017 H 6180.07 4.31216 -0.472776 0
M  V30 65018 H 6180.74 5.47911 0.670666 0
M  V30 65019 H 6183.22 3.81978 1.65021 0
M  V30 65020 H 6182.09 4.84623 2.57744 0
M  V30 65021 H 6182.36 3.18065 3.07062 0
M  V30 65022 N 6181.41 -0.241344 1.55741 0
M  V30 65023 C 6182.32 -1.32028 1.93922 0
M  V30 65024 C 6183.34 -1.5236 0.840384 0
M  V30 65025 O 6184.52 -1.65874 1.14226 0
M  V30 65026 C 6181.58 -2.65382 2.23099 0
M  V30 65027 C 6180.64 -2.53524 3.46445 0
M  V30 65028 C 6179.88 -3.80519 3.74221 0
M  V30 65029 O 6180.1 -4.82651 3.03981 0
M  V30 65030 O 6179.03 -3.78818 4.6774 0
M  V30 65031 H 6182.86 -1.02637 2.85831 0
M  V30 65032 H 6180.44 -0.442566 1.42694 0
M  V30 65033 H 6182.33 -3.44175 2.43149 0
M  V30 65034 H 6181 -2.94494 1.34368 0
M  V30 65035 H 6179.91 -1.72998 3.31697 0
M  V30 65036 H 6181.24 -2.29355 4.35496 0
M  V30 65037 N 6182.89 -1.49214 -0.50724 0
M  V30 65038 C 6184.14 -1.58073 -1.25926 0
M  V30 65039 C 6184.46 -0.266529 -1.9317 0
M  V30 65040 O 6183.73 0.713679 -1.82437 0
M  V30 65041 H 6182.31 -0.5824 -0.467781 0
M  V30 65042 H 6184.97 -1.85806 -0.588404 0
M  V30 65043 H 6184.07 -2.37358 -2.02652 0
M  V30 65044 N 6184.37 0.757827 -1.38184 0
M  V30 65045 C 6185.32 1.87148 -1.35072 0
M  V30 65046 C 6186.29 1.64716 -0.21395 0
M  V30 65047 O 6187.47 1.86441 -0.405514 0
M  V30 65048 C 6184.61 3.24394 -1.1774 0
M  V30 65049 C 6183.73 3.58686 -2.40767 0
M  V30 65050 C 6182.86 4.85213 -2.16198 0
M  V30 65051 C 6181.9 5.12278 -3.35019 0
M  V30 65052 N 6181.04 6.29999 -3.09912 0
M  V30 65053 H 6185.88 1.89143 -2.3028 0
M  V30 65054 H 6183.41 0.924531 -1.14415 0
M  V30 65055 H 6185.37 4.03586 -1.05708 0
M  V30 65056 H 6184 3.21737 -0.261719 0
M  V30 65057 H 6183.05 2.7437 -2.63487 0
M  V30 65058 H 6184.37 3.74617 -3.29338 0
M  V30 65059 H 6183.52 5.72339 -2.01278 0
M  V30 65060 H 6182.26 4.71413 -1.24986 0
M  V30 65061 H 6181.26 4.23622 -3.50463 0
M  V30 65062 H 6182.49 5.27978 -4.27101 0
M  V30 65063 H 6180.43 6.1753 -2.21343 0
M  V30 65064 H 6180.35 6.46411 -3.92032 0
M  V30 65065 H 6181.62 7.20024 -2.98639 0
M  V30 65066 N 6185.85 1.22983 0.985543 0
M  V30 65067 C 6187.13 0.96718 1.70015 0
M  V30 65068 C 6187.51 -0.515674 2.04705 0
M  V30 65069 O 6186.85 -1.48558 1.73616 0
M  V30 65070 C 6187.06 1.87221 2.94533 0
M  V30 65071 C 6188.41 2.13264 3.67156 0
M  V30 65072 O 6189.44 1.84729 3.04555 0
M  V30 65073 O 6188.29 2.61633 4.79802 0
M  V30 65074 H 6185.39 0.364344 0.742417 0
M  V30 65075 H 6187.93 1.34002 1.04123 0
M  V30 65076 H 6186.71 2.87488 2.65455 0
M  V30 65077 H 6186.33 1.50141 3.68162 0
M  V30 65078 N 6187.33 -1.18352 1.04071 0
M  V30 65079 C 6188.57 -1.87961 0.742643 0
M  V30 65080 C 6188.9 -1.80746 -0.731835 0
M  V30 65081 O 6188.17 -1.22582 -1.52809 0
M  V30 65082 H 6186.75 -0.695831 0.271714 0
M  V30 65083 H 6189.41 -1.43628 1.31746 0
M  V30 65084 H 6188.5 -2.93996 1.04752 0
M  V30 65085 N 6188.8 -0.820173 -1.34577 0
M  V30 65086 C 6190.05 -0.40694 -1.98369 0
M  V30 65087 C 6190.38 1.0293 -1.65032 0
M  V30 65088 O 6189.63 1.73119 -0.912599 0
M  V30 65089 C 6189.93 -0.552941 -3.53097 0
M  V30 65090 C 6189.6 -1.9545 -4.06337 0
M  V30 65091 C 6188.26 -2.33791 -4.20589 0
M  V30 65092 C 6190.61 -2.87083 -4.35009 0
M  V30 65093 C 6187.94 -3.63106 -4.60837 0
M  V30 65094 C 6190.29 -4.15858 -4.76702 0
M  V30 65095 C 6188.96 -4.54181 -4.89159 0
M  V30 65096 H 6188.23 -0.14891 -0.725883 0
M  V30 65097 H 6190.87 -1.04359 -1.60566 0
M  V30 65098 H 6189.18 0.167107 -3.91443 0
M  V30 65099 H 6190.88 -0.213776 -4.0043 0
M  V30 65100 H 6187.47 -1.64666 -3.95706 0
M  V30 65101 H 6191.65 -2.58705 -4.23539 0
M  V30 65102 H 6186.91 -3.92628 -4.68672 0
M  V30 65103 H 6191.08 -4.86952 -4.97846 0
M  V30 65104 H 6188.71 -5.54433 -5.20103 0
M  V30 65105 N 6190.28 1.46741 -0.574887 0
M  V30 65106 C 6191.53 2.02718 -0.0575717 0
M  V30 65107 C 6191.86 1.44634 1.29594 0
M  V30 65108 O 6191.14 0.608487 1.84737 0
M  V30 65109 C 6191.42 3.60096 0.0165925 0
M  V30 65110 C 6191.27 4.2858 -1.36527 0
M  V30 65111 C 6192.59 4.34151 0.721172 0
M  V30 65112 H 6189.71 0.73666 -0.0223956 0
M  V30 65113 H 6192.35 1.74973 -0.740581 0
M  V30 65114 H 6190.5 3.83866 0.598261 0
M  V30 65115 H 6192.17 4.16097 -1.9915 0
M  V30 65116 H 6190.42 3.88246 -1.93514 0
M  V30 65117 H 6191.09 5.37288 -1.26592 0
M  V30 65118 H 6193.56 4.1548 0.22711 0
M  V30 65119 H 6192.44 5.43861 0.742072 0
M  V30 65120 H 6192.7 4.04643 1.78092 0
M  V30 65121 N 6191.76 0.312251 1.54476 0
M  V30 65122 C 6192.99 -0.298757 2.05237 0
M  V30 65123 C 6193.41 -1.45877 1.1875 0
M  V30 65124 O 6192.77 -1.80258 0.194063 0
M  V30 65125 C 6192.82 -0.721884 3.533 0
M  V30 65126 O 6191.92 -1.82549 3.69797 0
M  V30 65127 H 6191.26 -0.0560753 0.661628 0
M  V30 65128 H 6193.79 0.45737 1.99422 0
M  V30 65129 H 6193.8 -1.00763 3.95362 0
M  V30 65130 H 6192.48 0.126616 4.15707 0
M  V30 65131 H 6191.05 -1.53942 3.39642 0
M  V30 65132 N 6193.24 -1.57549 0.0401914 0
M  V30 65133 C 6194.49 -1.92537 -0.636969 0
M  V30 65134 C 6194.82 -0.917896 -1.71138 0
M  V30 65135 O 6194.09 0.0577556 -1.94414 0
M  V30 65136 C 6194.38 -3.37959 -1.24321 0
M  V30 65137 C 6194.23 -4.49449 -0.177603 0
M  V30 65138 C 6195.55 -3.83558 -2.15804 0
M  V30 65139 H 6192.67 -0.700165 -0.230082 0
M  V30 65140 H 6195.31 -1.89738 0.0997135 0
M  V30 65141 H 6193.46 -3.40475 -1.87107 0
M  V30 65142 H 6195.13 -4.59064 0.453669 0
M  V30 65143 H 6193.37 -4.30959 0.495638 0
M  V30 65144 H 6194.05 -5.48259 -0.641599 0
M  V30 65145 H 6196.52 -3.82848 -1.62993 0
M  V30 65146 H 6195.4 -4.85983 -2.55171 0
M  V30 65147 H 6195.66 -3.19689 -3.05371 0
M  V30 65148 N 6194.72 0.233081 -1.55867 0
M  V30 65149 C 6195.63 1.30997 -1.9462 0
M  V30 65150 C 6196.64 1.51912 -0.848453 0
M  V30 65151 O 6197.82 1.65266 -1.15104 0
M  V30 65152 C 6194.88 2.64195 -2.24504 0
M  V30 65153 C 6193.95 2.51683 -3.47785 0
M  V30 65154 C 6193.18 3.78529 -3.76234 0
M  V30 65155 O 6193.4 4.81032 -3.06536 0
M  V30 65156 O 6192.34 3.76332 -4.69742 0
M  V30 65157 H 6196.16 1.01119 -2.86371 0
M  V30 65158 H 6193.75 0.434992 -1.42927 0
M  V30 65159 H 6195.63 3.42881 -2.44971 0
M  V30 65160 H 6194.3 2.93777 -1.35928 0
M  V30 65161 H 6193.21 1.71236 -3.32609 0
M  V30 65162 H 6194.54 2.27043 -4.36706 0
M  V30 65163 N 6196.2 1.49481 0.49932 0
M  V30 65164 C 6197.13 1.69188 1.60928 0
M  V30 65165 C 6198.11 0.540587 1.61281 0
M  V30 65166 O 6199.29 0.776617 1.77995 0
M  V30 65167 C 6196.42 1.75995 2.99404 0
M  V30 65168 C 6195.38 2.90931 3.13916 0
M  V30 65169 C 6194.7 2.82853 4.5376 0
M  V30 65170 C 6196 4.31843 2.93783 0
M  V30 65171 H 6197.7 2.62117 1.4469 0
M  V30 65172 H 6195.24 1.26138 0.694643 0
M  V30 65173 H 6197.19 1.88368 3.76956 0
M  V30 65174 H 6195.92 0.796668 3.16735 0
M  V30 65175 H 6194.58 2.78163 2.38791 0
M  V30 65176 H 6194.23 1.84429 4.67969 0
M  V30 65177 H 6193.93 3.59995 4.64411 0
M  V30 65178 H 6195.45 2.97235 5.3337 0
M  V30 65179 H 6196.86 4.45284 3.61103 0
M  V30 65180 H 6195.26 5.1022 3.15904 0
M  V30 65181 H 6196.33 4.46171 1.89892 0
M  V30 65182 N 6197.67 -0.750488 1.38584 0
M  V30 65183 C 6198.61 -1.87407 1.31952 0
M  V30 65184 C 6199.62 -1.61151 0.231158 0
M  V30 65185 O 6200.81 -1.71673 0.488953 0
M  V30 65186 C 6197.91 -3.23109 1.02245 0
M  V30 65187 C 6197.08 -3.76844 2.22052 0
M  V30 65188 C 6196.14 -4.9107 1.8904 0
M  V30 65189 O 6195.17 -5.05541 2.61567 0
M  V30 65190 N 6196.37 -5.74284 0.847223 0
M  V30 65191 H 6199.13 -1.93605 2.28773 0
M  V30 65192 H 6196.69 -0.930557 1.32485 0
M  V30 65193 H 6198.69 -3.97071 0.78207 0
M  V30 65194 H 6197.26 -3.12277 0.142091 0
M  V30 65195 H 6196.48 -2.94412 2.62136 0
M  V30 65196 H 6197.76 -4.09479 3.02001 0
M  V30 65197 H 6197.16 -5.65166 0.245834 0
M  V30 65198 H 6195.72 -6.48381 0.666733 0
M  V30 65199 N 6199.15 -1.23504 -0.979007 0
M  V30 65200 C 6200.56 -1.06269 -1.53505 0
M  V30 65201 C 6200.91 0.369527 -1.92689 0
M  V30 65202 O 6200.04 1.25643 -1.76189 0
M  V30 65203 C 6200.63 -1.92286 -2.78947 0
M  V30 65204 C 6199.19 -1.79307 -3.30947 0
M  V30 65205 C 6198.34 -1.87905 -2.03929 0
M  V30 65206 H 6201.29 -1.37146 -0.79854 0
M  V30 65207 H 6201.31 -1.44847 -3.51852 0
M  V30 65208 H 6200.82 -2.96518 -2.50398 0
M  V30 65209 H 6198.92 -0.77864 -3.64373 0
M  V30 65210 H 6199.04 -2.62769 -4.00611 0
M  V30 65211 H 6197.4 -1.31502 -2.18127 0
M  V30 65212 H 6198.18 -2.93695 -1.77759 0
M  V30 65213 N 6200.63 1.17798 -1.04697 0
M  V30 65214 C 6202.04 1.6958 -0.780983 0
M  V30 65215 C 6202.39 1.83386 0.697433 0
M  V30 65216 O 6201.52 1.51786 1.5424 0
M  V30 65217 C 6202.11 3.08016 -1.41107 0
M  V30 65218 C 6200.67 3.56985 -1.19325 0
M  V30 65219 C 6199.82 2.33372 -1.49776 0
M  V30 65220 H 6202.77 1.02385 -1.21256 0
M  V30 65221 H 6202.79 3.71611 -0.81767 0
M  V30 65222 H 6202.3 2.97937 -2.48707 0
M  V30 65223 H 6200.4 3.72351 -0.136277 0
M  V30 65224 H 6200.52 4.40043 -1.89471 0
M  V30 65225 H 6198.88 2.37594 -0.917668 0
M  V30 65226 H 6199.66 2.25905 -2.58499 0
M  V30 65227 N 6202.11 0.827298 1.3414 0
M  V30 65228 C 6203.35 0.423371 1.99967 0
M  V30 65229 C 6203.71 -0.995955 1.64149 0
M  V30 65230 O 6204.91 -1.503 2.22853 0
M  V30 65231 C 6203.18 0.624512 3.51901 0
M  V30 65232 S 6204.74 0.314084 4.37674 0
M  V30 65233 H 6201.56 0.159764 0.692818 0
M  V30 65234 H 6204.16 1.07407 1.63353 0
M  V30 65235 H 6202.87 1.65709 3.75458 0
M  V30 65236 H 6202.4 -0.0407587 3.93379 0
M  V30 65237 H 6204.41 -0.870573 4.88503 0
M  V30 65238 N 6203.59 -1.46434 0.582661 0
M  V30 65239 C 6204.53 -2.30308 -0.150616 0
M  V30 65240 C 6205.5 -1.40614 -0.884135 0
M  V30 65241 O 6206.69 -1.69563 -0.874814 0
M  V30 65242 C 6203.83 -3.25079 -1.15836 0
M  V30 65243 C 6202.94 -4.29872 -0.428291 0
M  V30 65244 C 6202.08 -5.1177 -1.42355 0
M  V30 65245 C 6201.11 -6.08312 -0.679889 0
M  V30 65246 N 6200.25 -6.83079 -1.62321 0
M  V30 65247 H 6205.09 -2.92484 0.570686 0
M  V30 65248 H 6202.63 -1.44147 0.293245 0
M  V30 65249 H 6204.59 -3.78468 -1.75549 0
M  V30 65250 H 6203.22 -2.64711 -1.84738 0
M  V30 65251 H 6202.27 -3.79339 0.283878 0
M  V30 65252 H 6203.58 -4.98565 0.153085 0
M  V30 65253 H 6202.73 -5.69436 -2.09349 0
M  V30 65254 H 6201.47 -4.43037 -2.03886 0
M  V30 65255 H 6200.48 -5.498 0.00382395 0
M  V30 65256 H 6201.7 -6.79064 -0.0699765 0
M  V30 65257 H 6199.65 -6.17056 -2.22662 0
M  V30 65258 H 6199.57 -7.48033 -1.09464 0
M  V30 65259 H 6200.83 -7.45303 -2.2835 0
M  V30 65260 N 6205.06 -0.320439 -1.54308 0
M  V30 65261 C 6206.31 0.283072 -2.00512 0
M  V30 65262 C 6206.64 1.52387 -1.20865 0
M  V30 65263 O 6205.89 1.93715 -0.278023 0
M  V30 65264 C 6206.19 0.665321 -3.51153 0
M  V30 65265 C 6205.86 -0.475947 -4.48381 0
M  V30 65266 C 6204.52 -0.789204 -4.74684 0
M  V30 65267 C 6206.87 -1.24271 -5.06168 0
M  V30 65268 C 6204.2 -1.872 -5.56033 0
M  V30 65269 C 6206.55 -2.31558 -5.88697 0
M  V30 65270 C 6205.22 -2.63469 -6.13303 0
M  V30 65271 H 6204.49 0.103584 -0.733724 0
M  V30 65272 H 6207.13 -0.443569 -1.86292 0
M  V30 65273 H 6205.44 1.47234 -3.63083 0
M  V30 65274 H 6207.14 1.14378 -3.84342 0
M  V30 65275 H 6203.73 -0.221709 -4.28026 0
M  V30 65276 H 6207.91 -1.01396 -4.85832 0
M  V30 65277 H 6203.17 -2.12374 -5.7333 0
M  V30 65278 H 6207.34 -2.91417 -6.32494 0
M  V30 65279 H 6204.97 -3.47501 -6.76127 0
M  V30 65280 N 6206.54 1.57525 -0.048546 0
M  V30 65281 C 6207.47 2.14408 0.924735 0
M  V30 65282 C 6208.45 1.06508 1.32628 0
M  V30 65283 O 6209.64 1.34435 1.40146 0
M  V30 65284 C 6206.77 2.68694 2.20048 0
M  V30 65285 C 6205.72 3.81554 1.93909 0
M  V30 65286 C 6205.05 4.22346 3.27915 0
M  V30 65287 C 6206.35 5.06805 1.26278 0
M  V30 65288 H 6208.04 2.95985 0.450946 0
M  V30 65289 H 6205.59 1.42379 0.215464 0
M  V30 65290 H 6207.54 3.07127 2.88533 0
M  V30 65291 H 6206.26 1.84306 2.69628 0
M  V30 65292 H 6204.92 3.43589 1.27836 0
M  V30 65293 H 6204.57 3.34912 3.7529 0
M  V30 65294 H 6204.27 4.98411 3.11224 0
M  V30 65295 H 6205.8 4.63377 3.97635 0
M  V30 65296 H 6207.21 5.42701 1.84793 0
M  V30 65297 H 6205.61 5.87995 1.19922 0
M  V30 65298 H 6206.68 4.84313 0.238435 0
M  V30 65299 N 6208.02 -0.224812 1.55988 0
M  V30 65300 C 6209.27 -0.947714 1.78049 0
M  V30 65301 C 6209.58 -1.8563 0.616519 0
M  V30 65302 O 6210.79 -2.61761 0.720671 0
M  V30 65303 C 6209.24 -1.73535 3.15299 0
M  V30 65304 C 6208.85 -0.873064 4.39411 0
M  V30 65305 C 6210.6 -2.44966 3.46687 0
M  V30 65306 C 6208.5 -1.65786 5.67687 0
M  V30 65307 H 6207.43 -0.3576 0.663806 0
M  V30 65308 H 6210.08 -0.20169 1.82388 0
M  V30 65309 H 6208.47 -2.52415 3.05127 0
M  V30 65310 H 6209.64 -0.125025 4.6063 0
M  V30 65311 H 6207.96 -0.271032 4.15517 0
M  V30 65312 H 6210.55 -3.04177 4.39751 0
M  V30 65313 H 6210.9 -3.17689 2.69034 0
M  V30 65314 H 6211.43 -1.73078 3.58174 0
M  V30 65315 H 6208.17 -0.973963 6.48224 0
M  V30 65316 H 6207.69 -2.3806 5.50534 0
M  V30 65317 H 6209.37 -2.21937 6.07744 0
M  V30 65318 N 6209.5 -1.49744 -0.491385 0
M  V30 65319 C 6210.46 -1.66593 -1.57415 0
M  V30 65320 C 6211.46 -0.537334 -1.51556 0
M  V30 65321 O 6212.65 -0.803982 -1.54537 0
M  V30 65322 C 6209.78 -1.67227 -2.97065 0
M  V30 65323 H 6210.98 -2.63176 -1.43801 0
M  V30 65324 H 6208.53 -1.38919 -0.71632 0
M  V30 65325 H 6209.26 -0.72264 -3.16146 0
M  V30 65326 H 6209.05 -2.49198 -3.02725 0
M  V30 65327 H 6210.54 -1.82287 -3.75714 0
M  V30 65328 N 6210.98 0.743128 -1.3898 0
M  V30 65329 C 6212.22 1.49955 -1.35492 0
M  V30 65330 C 6212.55 1.94933 0.0511359 0
M  V30 65331 O 6211.82 1.68404 1.00084 0
M  V30 65332 H 6210.4 0.55626 -0.498582 0
M  V30 65333 H 6213.06 0.882715 -1.73765 0
M  V30 65334 H 6212.15 2.38552 -2.01245 0
M  V30 65335 N 6212.45 1.24021 0.972444 0
M  V30 65336 C 6213.87 1.07081 1.52939 0
M  V30 65337 C 6214.22 -0.359303 1.92882 0
M  V30 65338 O 6213.34 -1.24707 1.76853 0
M  V30 65339 C 6213.94 1.93762 2.77924 0
M  V30 65340 C 6212.5 1.8106 3.29991 0
M  V30 65341 C 6211.64 1.88984 2.02929 0
M  V30 65342 H 6214.59 1.37568 0.791256 0
M  V30 65343 H 6214.61 1.46711 3.51079 0
M  V30 65344 H 6214.13 2.97841 2.48822 0
M  V30 65345 H 6212.23 0.797953 3.63955 0
M  V30 65346 H 6212.34 2.6489 3.99212 0
M  V30 65347 H 6210.7 1.32657 2.17426 0
M  V30 65348 H 6211.49 2.94634 1.76198 0
M  V30 65349 N 6213.93 -1.17241 1.0532 0
M  V30 65350 C 6214.88 -2.21302 0.655301 0
M  V30 65351 C 6215.85 -1.62516 -0.343187 0
M  V30 65352 O 6217.03 -1.89356 -0.234308 0
M  V30 65353 C 6214.17 -3.4508 0.0375673 0
M  V30 65354 C 6213.29 -4.18152 1.08504 0
M  V30 65355 C 6212.42 -5.2942 0.434493 0
M  V30 65356 C 6211.46 -5.9428 1.46619 0
M  V30 65357 N 6210.6 -6.97061 0.839706 0
M  V30 65358 H 6215.44 -2.54691 1.54714 0
M  V30 65359 H 6212.98 -1.25107 0.773741 0
M  V30 65360 H 6214.93 -4.15828 -0.338036 0
M  V30 65361 H 6213.56 -3.12271 -0.817727 0
M  V30 65362 H 6212.62 -3.46105 1.57846 0
M  V30 65363 H 6213.93 -4.62495 1.86814 0
M  V30 65364 H 6213.08 -6.067 0.00537616 0
M  V30 65365 H 6211.82 -4.86213 -0.380574 0
M  V30 65366 H 6210.83 -5.15731 1.90531 0
M  V30 65367 H 6212.05 -6.39568 2.28318 0
M  V30 65368 H 6210 -6.55984 0.0451727 0
M  V30 65369 H 6209.91 -7.39723 1.56032 0
M  V30 65370 H 6211.18 -7.78283 0.435406 0
M  V30 65371 N 6215.41 -0.8344 -1.33699 0
M  V30 65372 C 6216.66 -0.427112 -1.97535 0
M  V30 65373 C 6216.98 1.01601 -1.6644 0
M  V30 65374 O 6216.25 1.70708 -0.961018 0
M  V30 65375 H 6214.83 -0.154947 -0.730753 0
M  V30 65376 H 6217.49 -1.06637 -1.63139 0
M  V30 65377 H 6216.59 -0.555504 -3.07117 0
M  V30 65378 N 6216.89 1.46123 -0.590418 0
M  V30 65379 C 6218.3 1.85961 -0.165941 0
M  V30 65380 C 6218.65 1.49301 1.27294 0
M  V30 65381 O 6217.78 0.91153 1.96265 0
M  V30 65382 C 6218.37 3.37519 -0.29438 0
M  V30 65383 C 6216.93 3.76325 0.0752796 0
M  V30 65384 C 6216.08 2.70124 -0.626777 0
M  V30 65385 H 6219.03 1.37168 -0.798168 0
M  V30 65386 H 6219.05 3.77484 0.478167 0
M  V30 65387 H 6218.56 3.6417 -1.34171 0
M  V30 65388 H 6216.66 3.55291 1.12245 0
M  V30 65389 H 6216.77 4.78119 -0.306409 0
M  V30 65390 H 6215.14 2.54614 -0.0662114 0
M  V30 65391 H 6215.92 2.99613 -1.67591 0
M  V30 65392 N 6218.37 0.328618 1.54136 0
M  V30 65393 C 6219.28 -0.543842 2.28209 0
M  V30 65394 C 6220.29 -1.12485 1.32752 0
M  V30 65395 O 6221.47 -1.14374 1.65773 0
M  V30 65396 C 6218.53 -1.68629 3.02928 0
M  V30 65397 C 6217.59 -1.13657 4.13981 0
M  V30 65398 C 6216.83 -2.22457 4.85127 0
M  V30 65399 O 6217.05 -3.42898 4.55825 0
M  V30 65400 O 6215.98 -1.87591 5.71921 0
M  V30 65401 H 6219.81 0.0578669 3.03645 0
M  V30 65402 H 6217.4 0.0941419 1.49103 0
M  V30 65403 H 6219.28 -2.35131 3.49702 0
M  V30 65404 H 6217.95 -2.27409 2.30363 0
M  V30 65405 H 6216.86 -0.436494 3.71545 0
M  V30 65406 H 6218.19 -0.593841 4.88605 0
M  V30 65407 N 6219.84 -1.57497 0.0568993 0
M  V30 65408 C 6221.09 -1.92093 -0.615089 0
M  V30 65409 C 6221.41 -0.937598 -1.71664 0
M  V30 65410 O 6222.61 -1.17581 -2.44718 0
M  V30 65411 C 6221.07 -3.41187 -1.1454 0
M  V30 65412 C 6220.68 -4.47936 -0.0756572 0
M  V30 65413 C 6222.42 -3.84807 -1.79231 0
M  V30 65414 C 6220.33 -5.8815 -0.619174 0
M  V30 65415 H 6219.26 -0.716926 -0.233522 0
M  V30 65416 H 6221.91 -1.83062 0.126719 0
M  V30 65417 H 6220.29 -3.45241 -1.93971 0
M  V30 65418 H 6221.46 -4.55479 0.69823 0
M  V30 65419 H 6219.78 -4.13692 0.474129 0
M  V30 65420 H 6222.38 -4.86936 -2.20901 0
M  V30 65421 H 6222.72 -3.21364 -2.64633 0
M  V30 65422 H 6223.25 -3.83294 -1.06446 0
M  V30 65423 H 6219.99 -6.55203 0.197351 0
M  V30 65424 H 6219.51 -5.84157 -1.36092 0
M  V30 65425 H 6221.19 -6.37576 -1.10028 0
M  V30 65426 N 6221.32 0.216536 -1.56105 0
M  V30 65427 C 6222.74 0.566458 -1.49209 0
M  V30 65428 C 6222.94 1.86904 -0.752948 0
M  V30 65429 O 6221.99 2.50775 -0.294661 0
M  V30 65430 C 6223.31 0.641043 -2.93788 0
M  V30 65431 C 6224.86 0.731332 -3.04336 0
M  V30 65432 C 6225.33 0.837217 -4.50283 0
M  V30 65433 N 6226.82 0.901308 -4.54346 0
M  V30 65434 C 6227.56 1.00303 -5.64559 0
M  V30 65435 N 6227.05 1.0684 -6.84512 0
M  V30 65436 N 6228.85 1.03856 -5.52422 0
M  V30 65437 H 6221 -0.638163 -2.02586 0
M  V30 65438 H 6223.26 -0.224576 -0.921016 0
M  V30 65439 H 6222.97 -0.246578 -3.50835 0
M  V30 65440 H 6222.84 1.50297 -3.45963 0
M  V30 65441 H 6225.23 1.60939 -2.47351 0
M  V30 65442 H 6225.31 -0.15637 -2.55322 0
M  V30 65443 H 6224.95 -0.0364048 -5.07887 0
M  V30 65444 H 6224.88 1.74041 -4.97008 0
M  V30 65445 H 6227.37 0.86091 -3.67963 0
M  V30 65446 H 6227.69 1.14593 -7.64257 0
M  V30 65447 H 6226.03 1.03744 -6.87213 0
M  V30 65448 H 6229.22 0.984187 -4.57637 0
M  V30 65449 H 6229.39 1.11439 -6.38346 0
M  V30 65450 N 6222.8 1.50002 0.483437 0
M  V30 65451 C 6224.03 1.63872 1.25816 0
M  V30 65452 C 6224.44 0.316401 1.86536 0
M  V30 65453 O 6223.78 -0.710248 1.69414 0
M  V30 65454 C 6223.84 2.6626 2.41549 0
M  V30 65455 C 6223.51 4.10148 2.01563 0
M  V30 65456 C 6224.51 4.96406 1.54523 0
M  V30 65457 C 6222.19 4.5599 2.10661 0
M  V30 65458 C 6224.18 6.2655 1.17107 0
M  V30 65459 C 6221.87 5.86143 1.72857 0
M  V30 65460 C 6222.87 6.71248 1.26156 0
M  V30 65461 O 6222.56 7.98973 0.888707 0
M  V30 65462 H 6222.29 0.554169 0.387134 0
M  V30 65463 H 6224.84 1.96895 0.584936 0
M  V30 65464 H 6223.07 2.28453 3.12003 0
M  V30 65465 H 6224.76 2.69477 3.03541 0
M  V30 65466 H 6225.53 4.6221 1.46926 0
M  V30 65467 H 6221.41 3.89903 2.4596 0
M  V30 65468 H 6224.95 6.9293 0.80585 0
M  V30 65469 H 6220.85 6.19864 1.80109 0
M  V30 65470 H 6221.62 8.12137 1.01864 0
M  V30 65471 N 6224.28 -0.735747 1.39372 0
M  V30 65472 C 6225.21 -1.86298 1.40767 0
M  V30 65473 C 6226.19 -1.67925 0.271129 0
M  V30 65474 O 6227.38 -1.88255 0.476839 0
M  V30 65475 C 6224.51 -3.24038 1.24966 0
M  V30 65476 C 6223.46 -3.57047 2.36012 0
M  V30 65477 C 6222.79 -4.93716 2.05301 0
M  V30 65478 C 6224.09 -3.60096 3.78323 0
M  V30 65479 H 6225.78 -1.85388 2.351 0
M  V30 65480 H 6223.33 -0.890512 1.13163 0
M  V30 65481 H 6225.28 -4.02569 1.24563 0
M  V30 65482 H 6224 -3.25474 0.271017 0
M  V30 65483 H 6222.66 -2.80845 2.35631 0
M  V30 65484 H 6222.31 -4.91731 1.05877 0
M  V30 65485 H 6222.01 -5.16769 2.79685 0
M  V30 65486 H 6223.53 -5.74605 2.06547 0
M  V30 65487 H 6224.95 -4.28705 3.80637 0
M  V30 65488 H 6223.34 -3.94667 4.5206 0
M  V30 65489 H 6224.41 -2.59918 4.09354 0
M  V30 65490 N 6225.76 -1.24535 -0.965853 0
M  V30 65491 C 6226.99 -1.11163 -1.74145 0
M  V30 65492 C 6227.4 0.338476 -1.86148 0
M  V30 65493 O 6226.74 1.24525 -1.35052 0
M  V30 65494 C 6226.8 -1.67962 -3.17851 0
M  V30 65495 C 6226.46 -3.16863 -3.29313 0
M  V30 65496 C 6227.46 -4.1399 -3.14497 0
M  V30 65497 C 6225.15 -3.56857 -3.53494 0
M  V30 65498 C 6227.14 -5.49093 -3.2369 0
M  V30 65499 C 6224.83 -4.92101 -3.62325 0
M  V30 65500 C 6225.83 -5.88028 -3.47436 0
M  V30 65501 O 6225.51 -7.20813 -3.55927 0
M  V30 65502 H 6225.25 -0.388992 -0.552866 0
M  V30 65503 H 6227.8 -1.65159 -1.22114 0
M  V30 65504 H 6226.03 -1.08402 -3.71195 0
M  V30 65505 H 6227.72 -1.49853 -3.77225 0
M  V30 65506 H 6228.48 -3.84432 -2.95697 0
M  V30 65507 H 6224.36 -2.82695 -3.64149 0
M  V30 65508 H 6227.91 -6.23948 -3.11986 0
M  V30 65509 H 6223.8 -5.21329 -3.80639 0
M  V30 65510 H 6224.57 -7.28759 -3.7263 0
M  V30 65511 N 6227.24 1.16681 -1.0594 0
M  V30 65512 C 6228.48 1.87125 -0.77398 0
M  V30 65513 C 6228.81 1.81491 0.69937 0
M  V30 65514 O 6228.07 1.2229 1.52786 0
M  V30 65515 C 6228.36 3.36317 -1.20935 0
M  V30 65516 C 6228.03 3.62152 -2.6862 0
M  V30 65517 C 6226.69 3.68912 -3.08962 0
M  V30 65518 C 6229.04 3.73016 -3.64017 0
M  V30 65519 C 6226.37 3.84033 -4.43549 0
M  V30 65520 C 6228.72 3.89658 -4.98347 0
M  V30 65521 C 6227.39 3.94659 -5.38331 0
M  V30 65522 H 6226.66 0.684739 -0.283219 0
M  V30 65523 H 6229.31 1.37987 -1.32785 0
M  V30 65524 H 6227.61 3.87564 -0.574608 0
M  V30 65525 H 6229.31 3.89201 -0.965606 0
M  V30 65526 H 6225.9 3.57521 -2.36383 0
M  V30 65527 H 6230.08 3.67107 -3.33985 0
M  V30 65528 H 6225.34 3.86156 -4.74018 0
M  V30 65529 H 6229.51 3.97006 -5.72153 0
M  V30 65530 H 6227.14 4.06128 -6.42623 0
M  V30 65531 N 6228.71 0.841479 1.33255 0
M  V30 65532 C 6229.96 0.439097 1.97989 0
M  V30 65533 C 6230.29 -0.999708 1.66492 0
M  V30 65534 O 6229.57 -1.69934 0.946179 0
M  V30 65535 C 6229.85 0.663261 3.53939 0
M  V30 65536 C 6229.7 2.14953 3.95114 0
M  V30 65537 C 6231.02 0.111095 4.3996 0
M  V30 65538 H 6228.14 0.161012 0.719197 0
M  V30 65539 H 6230.78 1.05747 1.57853 0
M  V30 65540 H 6228.93 0.136901 3.88259 0
M  V30 65541 H 6230.61 2.74095 3.71038 0
M  V30 65542 H 6228.85 2.63305 3.44751 0
M  V30 65543 H 6229.52 2.25711 5.03744 0
M  V30 65544 H 6232 0.561043 4.123 0
M  V30 65545 H 6230.87 0.297609 5.48093 0
M  V30 65546 H 6231.13 -0.985294 4.30981 0
M  V30 65547 N 6230.19 -1.45807 0.598159 0
M  V30 65548 C 6231.14 -2.30455 -0.12618 0
M  V30 65549 C 6232.11 -1.41544 -0.869172 0
M  V30 65550 O 6233.29 -1.70481 -0.856781 0
M  V30 65551 C 6230.43 -3.26289 -1.12381 0
M  V30 65552 C 6229.55 -4.30302 -0.382673 0
M  V30 65553 C 6228.68 -5.13251 -1.36919 0
M  V30 65554 C 6227.72 -6.08999 -0.615331 0
M  V30 65555 N 6226.86 -6.84762 -1.55067 0
M  V30 65556 H 6231.7 -2.91863 0.601675 0
M  V30 65557 H 6229.23 -1.43828 0.308517 0
M  V30 65558 H 6231.19 -3.80309 -1.71525 0
M  V30 65559 H 6229.82 -2.66655 -1.8192 0
M  V30 65560 H 6228.87 -3.79017 0.324096 0
M  V30 65561 H 6230.19 -4.98375 0.205956 0
M  V30 65562 H 6229.34 -5.71625 -2.03297 0
M  V30 65563 H 6228.08 -4.45175 -1.99176 0
M  V30 65564 H 6227.08 -5.49765 0.0621374 0
M  V30 65565 H 6228.31 -6.791 0.00205124 0
M  V30 65566 H 6226.26 -6.19382 -2.16105 0
M  V30 65567 H 6226.17 -7.49152 -1.01524 0
M  V30 65568 H 6227.44 -7.47683 -2.20432 0
M  V30 65569 N 6231.67 -0.336787 -1.53959 0
M  V30 65570 C 6232.62 0.53852 -2.2628 0
M  V30 65571 C 6233.61 1.1076 -1.28174 0
M  V30 65572 O 6234.82 1.05411 -1.45906 0
M  V30 65573 H 6231.19 0.192337 -0.726987 0
M  V30 65574 H 6233.16 -0.0935581 -2.98253 0
M  V30 65575 C 6231.91 1.68111 -3.04358 0
M  V30 65576 H 6231.24 1.25248 -3.79675 0
M  V30 65577 H 6232.68 2.26888 -3.58187 0
M  V30 65578 C 6231.13 2.60655 -2.13449 0
M  V30 65579 O 6231.66 3.62725 -1.72608 0
M  V30 65580 N 6229.87 2.29187 -1.78666 0
M  V30 65581 H 6229.42 1.46225 -2.12075 0
M  V30 65582 H 6229.38 2.91367 -1.18121 0
M  V30 65583 N 6233.15 1.57465 -0.0652509 0
M  V30 65584 C 6234.08 2.15377 0.901943 0
M  V30 65585 C 6235.06 1.07909 1.3149 0
M  V30 65586 O 6236.24 1.35914 1.38712 0
M  V30 65587 C 6233.37 2.71012 2.17185 0
M  V30 65588 C 6232.33 3.83589 1.89851 0
M  V30 65589 C 6231.65 4.258 3.23417 0
M  V30 65590 C 6232.95 5.08116 1.20895 0
M  V30 65591 H 6234.65 2.96446 0.419527 0
M  V30 65592 H 6232.19 1.42599 0.200351 0
M  V30 65593 H 6234.15 3.1017 2.85259 0
M  V30 65594 H 6232.87 1.87155 2.67658 0
M  V30 65595 H 6231.53 3.44926 1.24185 0
M  V30 65596 H 6231.18 3.38874 3.71717 0
M  V30 65597 H 6230.88 5.01684 3.0592 0
M  V30 65598 H 6232.4 4.67569 3.92698 0
M  V30 65599 H 6233.82 5.44631 1.79026 0
M  V30 65600 H 6232.21 5.89234 1.13679 0
M  V30 65601 H 6233.28 4.84539 0.187054 0
M  V30 65602 N 6234.63 -0.208255 1.56218 0
M  V30 65603 C 6235.57 -1.27768 1.94366 0
M  V30 65604 C 6236.57 -1.47821 0.827368 0
M  V30 65605 O 6237.77 -1.48838 1.01229 0
M  V30 65606 H 6234.15 -0.428654 0.617867 0
M  V30 65607 H 6236.12 -0.928829 2.83576 0
M  V30 65608 C 6234.87 -2.618 2.28815 0
M  V30 65609 H 6234.19 -2.47181 3.14232 0
M  V30 65610 H 6235.63 -3.35407 2.59381 0
M  V30 65611 C 6234.09 -3.17808 1.11801 0
M  V30 65612 O 6234.62 -3.9984 0.386109 0
M  V30 65613 N 6232.83 -2.76367 0.898302 0
M  V30 65614 H 6232.37 -2.09765 1.49521 0
M  V30 65615 H 6232.33 -3.14182 0.117141 0
M  V30 65616 N 6236.1 -1.50256 -0.475475 0
M  V30 65617 C 6237.05 -1.69321 -1.59478 0
M  V30 65618 C 6238.05 -0.559052 -1.59909 0
M  V30 65619 O 6239.25 -0.739427 -1.64111 0
M  V30 65620 H 6235.63 -0.534357 -0.529119 0
M  V30 65621 H 6237.6 -2.63222 -1.40559 0
M  V30 65622 C 6236.35 -1.80053 -2.9745 0
M  V30 65623 H 6235.67 -2.66711 -2.97834 0
M  V30 65624 H 6237.11 -1.97419 -3.75236 0
M  V30 65625 C 6235.57 -0.551118 -3.32362 0
M  V30 65626 O 6236.1 0.311712 -4.00489 0
M  V30 65627 N 6234.3 -0.406444 -2.87744 0
M  V30 65628 H 6233.85 -1.10961 -2.32477 0
M  V30 65629 H 6233.81 0.428374 -3.11468 0
M  V30 65630 N 6237.58 0.728346 -1.3976 0
M  V30 65631 C 6238.51 1.85549 -1.41753 0
M  V30 65632 C 6239.49 1.67779 -0.280031 0
M  V30 65633 O 6240.68 1.87999 -0.486816 0
M  V30 65634 C 6237.81 3.23371 -1.26683 0
M  V30 65635 C 6236.76 3.5579 -2.37902 0
M  V30 65636 C 6236.09 4.9262 -2.07917 0
M  V30 65637 C 6237.39 3.58085 -3.80227 0
M  V30 65638 H 6239.08 1.84138 -2.36079 0
M  V30 65639 H 6236.63 0.884499 -1.13634 0
M  V30 65640 H 6238.58 4.01903 -1.26696 0
M  V30 65641 H 6237.31 3.25325 -0.288273 0
M  V30 65642 H 6235.96 2.79591 -2.37117 0
M  V30 65643 H 6235.61 4.91162 -1.08483 0
M  V30 65644 H 6235.31 5.15278 -2.82422 0
M  V30 65645 H 6236.84 5.73501 -2.09591 0
M  V30 65646 H 6238.25 4.2668 -3.82906 0
M  V30 65647 H 6236.65 3.92264 -4.54146 0
M  V30 65648 H 6237.72 2.57743 -4.10727 0
M  V30 65649 N 6239.06 1.25046 0.959235 0
M  V30 65650 C 6240.01 1.01718 2.04053 0
M  V30 65651 C 6240.99 -0.0443443 1.60839 0
M  V30 65652 O 6242.19 0.170428 1.76178 0
M  V30 65653 C 6239.32 0.632961 3.37414 0
M  V30 65654 C 6238.4 1.731 3.87166 0
M  V30 65655 N 6238.79 2.96531 4.0976 0
M  V30 65656 C 6237.09 1.61046 4.15909 0
M  V30 65657 C 6237.79 3.67772 4.50687 0
M  V30 65658 N 6236.77 2.95371 4.56351 0
M  V30 65659 H 6240.57 1.95431 2.19508 0
M  V30 65660 H 6238.08 1.15297 1.14369 0
M  V30 65661 H 6240.08 0.447041 4.14496 0
M  V30 65662 H 6238.74 -0.296892 3.2334 0
M  V30 65663 H 6239.75 3.32624 3.96966 0
M  V30 65664 H 6236.43 0.749241 4.10722 0
M  V30 65665 H 6237.82 4.73696 4.7651 0
M  V30 65666 N 6240.54 -1.16117 1.06558 0
M  V30 65667 C 6241.95 -1.38702 0.789545 0
M  V30 65668 C 6242.15 -1.92048 -0.609908 0
M  V30 65669 O 6241.21 -2.12101 -1.37002 0
M  V30 65670 C 6242.52 -2.36534 1.85666 0
M  V30 65671 C 6244.07 -2.50214 1.88048 0
M  V30 65672 C 6244.55 -3.5133 2.93821 0
M  V30 65673 N 6246.04 -3.5886 2.92872 0
M  V30 65674 C 6246.77 -4.36897 3.71361 0
M  V30 65675 N 6246.27 -5.18334 4.59676 0
M  V30 65676 N 6248.06 -4.31906 3.59742 0
M  V30 65677 H 6240.21 -0.798285 1.96828 0
M  V30 65678 H 6242.48 -0.41346 0.853086 0
M  V30 65679 H 6242.18 -2.04437 2.86179 0
M  V30 65680 H 6242.06 -3.36215 1.70994 0
M  V30 65681 H 6244.44 -2.81613 0.881921 0
M  V30 65682 H 6244.52 -1.50559 2.06798 0
M  V30 65683 H 6244.17 -3.20667 3.93872 0
M  V30 65684 H 6244.1 -4.50721 2.7232 0
M  V30 65685 H 6246.59 -3.00727 2.28848 0
M  V30 65686 H 6246.9 -5.75101 5.16216 0
M  V30 65687 H 6245.25 -5.17668 4.63729 0
M  V30 65688 H 6248.44 -3.67345 2.9013 0
M  V30 65689 H 6248.61 -4.92476 4.21155 0
M  V30 65690 N 6242.02 -0.848534 -1.32807 0
M  V30 65691 C 6243.26 -0.448039 -1.97071 0
M  V30 65692 C 6243.59 0.998299 -1.67508 0
M  V30 65693 O 6242.86 1.69679 -0.97907 0
M  V30 65694 H 6241.44 -0.162689 -0.729069 0
M  V30 65695 H 6244.1 -1.08362 -1.61999 0
M  V30 65696 H 6243.19 -0.588046 -3.0651 0
M  V30 65697 N 6243.49 1.45488 -0.605884 0
M  V30 65698 C 6244.43 2.28695 0.152065 0
M  V30 65699 C 6245.44 1.39853 0.833373 0
M  V30 65700 O 6246.63 1.64242 0.699047 0
M  V30 65701 C 6243.73 3.15548 1.23623 0
M  V30 65702 C 6242.9 4.32657 0.642372 0
M  V30 65703 C 6241.96 5.00732 1.61721 0
M  V30 65704 O 6240.99 5.57582 1.14418 0
M  V30 65705 N 6242.19 4.9986 2.95161 0
M  V30 65706 H 6244.95 2.94385 -0.561905 0
M  V30 65707 H 6242.51 1.55657 -0.445249 0
M  V30 65708 H 6244.51 3.57953 1.88816 0
M  V30 65709 H 6243.08 2.51778 1.85275 0
M  V30 65710 H 6242.3 3.93753 -0.187589 0
M  V30 65711 H 6243.58 5.08299 0.225806 0
M  V30 65712 H 6242.98 4.54961 3.36195 0
M  V30 65713 H 6241.54 5.46135 3.5578 0
M  V30 65714 N 6244.97 0.344947 1.53779 0
M  V30 65715 C 6246.22 -0.251509 2.01234 0
M  V30 65716 C 6246.55 -1.5009 1.23234 0
M  V30 65717 O 6245.83 -1.91844 0.320349 0
M  V30 65718 C 6246.11 -0.564241 3.55652 0
M  V30 65719 C 6245.96 0.697342 4.44362 0
M  V30 65720 C 6247.28 -1.37328 4.18126 0
M  V30 65721 H 6244.4 -0.0899386 0.731492 0
M  V30 65722 H 6247.04 0.465761 1.84203 0
M  V30 65723 H 6245.19 -1.1753 3.70296 0
M  V30 65724 H 6246.86 1.33527 4.41552 0
M  V30 65725 H 6245.11 1.32195 4.13167 0
M  V30 65726 H 6245.78 0.433765 5.50293 0
M  V30 65727 H 6248.25 -0.856567 4.07188 0
M  V30 65728 H 6247.13 -1.56085 5.2624 0
M  V30 65729 H 6247.39 -2.3758 3.72838 0
M  V30 65730 N 6246.45 -1.57428 0.0736007 0
M  V30 65731 C 6247.38 -2.15852 -0.890508 0
M  V30 65732 C 6248.36 -1.08604 -1.30916 0
M  V30 65733 O 6249.55 -1.36648 -1.37989 0
M  V30 65734 C 6246.68 -2.7216 -2.15745 0
M  V30 65735 C 6245.63 -3.84591 -1.87814 0
M  V30 65736 C 6244.96 -4.27509 -3.21154 0
M  V30 65737 C 6246.26 -5.0875 -1.18199 0
M  V30 65738 H 6247.95 -2.96664 -0.4038 0
M  V30 65739 H 6245.5 -1.42704 -0.192786 0
M  V30 65740 H 6247.45 -3.11678 -2.8361 0
M  V30 65741 H 6246.17 -1.88572 -2.66661 0
M  V30 65742 H 6244.83 -3.45579 -1.22354 0
M  V30 65743 H 6244.48 -3.4084 -3.69915 0
M  V30 65744 H 6244.18 -5.03299 -3.03256 0
M  V30 65745 H 6245.7 -4.69645 -3.90213 0
M  V30 65746 H 6247.12 -5.45572 -1.76136 0
M  V30 65747 H 6245.52 -5.89829 -1.10553 0
M  V30 65748 H 6246.59 -4.84631 -0.161355 0
M  V30 65749 N 6247.93 0.199967 -1.56326 0
M  V30 65750 C 6249.18 0.919291 -1.79982 0
M  V30 65751 C 6249.5 1.83995 -0.645832 0
M  V30 65752 O 6248.77 1.92995 0.336118 0
M  V30 65753 H 6247.35 0.342446 -0.663882 0
M  V30 65754 H 6250.01 0.206645 -1.93801 0
M  V30 65755 H 6249.11 1.51331 -2.72957 0
M  V30 65756 N 6249.41 1.50506 0.4675 0
M  V30 65757 C 6250.36 1.66019 1.56274 0
M  V30 65758 C 6251.34 0.514724 1.52445 0
M  V30 65759 O 6252.53 0.769294 1.59408 0
M  V30 65760 C 6249.66 1.76098 2.94693 0
M  V30 65761 C 6248.75 2.96333 3.03393 0
M  V30 65762 N 6249.14 4.1996 2.81899 0
M  V30 65763 C 6247.44 2.94965 3.34532 0
M  V30 65764 C 6248.14 5.0096 2.95658 0
M  V30 65765 N 6247.11 4.34988 3.26016 0
M  V30 65766 H 6250.92 2.59294 1.38361 0
M  V30 65767 H 6248.43 1.4774 0.674295 0
M  V30 65768 H 6250.43 1.85316 3.73448 0
M  V30 65769 H 6249.09 0.839845 3.13651 0
M  V30 65770 H 6250.1 4.494 2.5741 0
M  V30 65771 H 6246.77 2.12365 3.59454 0
M  V30 65772 H 6248.16 6.09278 2.83249 0
M  V30 65773 N 6250.88 -0.720924 1.40144 0
M  V30 65774 C 6252.13 -1.47625 1.3744 0
M  V30 65775 C 6252.45 -1.95587 -0.022135 0
M  V30 65776 O 6253.65 -2.70956 -0.17179 0
M  V30 65777 C 6252.11 -2.6682 2.41527 0
M  V30 65778 C 6251.72 -2.25749 3.86964 0
M  V30 65779 C 6253.46 -3.44581 2.4792 0
M  V30 65780 C 6251.37 -3.41751 4.8266 0
M  V30 65781 H 6250.3 -0.554418 0.511015 0
M  V30 65782 H 6252.95 -0.785105 1.65856 0
M  V30 65783 H 6251.33 -3.38078 2.06201 0
M  V30 65784 H 6252.5 -1.61945 4.31405 0
M  V30 65785 H 6250.82 -1.61046 3.83996 0
M  V30 65786 H 6253.42 -4.30889 3.16605 0
M  V30 65787 H 6253.76 -3.88025 1.50806 0
M  V30 65788 H 6254.29 -2.80361 2.8221 0
M  V30 65789 H 6251.03 -3.03343 5.81088 0
M  V30 65790 H 6250.55 -4.04488 4.42888 0
M  V30 65791 H 6252.23 -4.07891 5.02229 0
M  V30 65792 N 6252.36 -1.25553 -0.95259 0
M  V30 65793 C 6253.33 -1.06193 -2.03115 0
M  V30 65794 C 6254.33 -0.0140531 -1.60794 0
M  V30 65795 O 6255.52 -0.256427 -1.72302 0
M  V30 65796 C 6252.65 -0.612792 -3.35347 0
M  V30 65797 H 6253.84 -2.0194 -2.21721 0
M  V30 65798 H 6251.39 -1.07988 -1.12996 0
M  V30 65799 H 6252.13 0.347179 -3.22436 0
M  V30 65800 H 6251.91 -1.3693 -3.67414 0
M  V30 65801 H 6253.4 -0.498839 -4.1461 0
M  V30 65802 N 6253.84 1.15551 -1.07172 0
M  V30 65803 C 6254.8 2.18428 -0.694382 0
M  V30 65804 C 6255.8 1.58611 0.264441 0
M  V30 65805 O 6256.99 1.7414 0.0456423 0
M  V30 65806 C 6254.13 3.40892 -0.0231672 0
M  V30 65807 H 6255.32 2.53325 -1.6052 0
M  V30 65808 H 6252.87 1.29981 -0.868028 0
M  V30 65809 H 6253.61 3.11562 0.899973 0
M  V30 65810 H 6253.39 3.85567 -0.712758 0
M  V30 65811 H 6254.88 4.16987 0.226245 0
M  V30 65812 N 6255.32 0.855565 1.32355 0
M  V30 65813 C 6256.55 0.473402 2.01411 0
M  V30 65814 C 6256.96 -0.930149 1.64298 0
M  V30 65815 O 6256.32 -1.60711 0.864762 0
M  V30 65816 C 6256.37 0.603941 3.56419 0
M  V30 65817 O 6256.09 1.9522 3.922 0
M  V30 65818 C 6257.59 0.220904 4.42749 0
M  V30 65819 H 6254.81 0.185984 0.64471 0
M  V30 65820 H 6257.36 1.15276 1.68914 0
M  V30 65821 H 6255.51 -0.0276901 3.8739 0
M  V30 65822 H 6255.93 1.94963 4.86919 0
M  V30 65823 H 6257.4 0.363242 5.50804 0
M  V30 65824 H 6257.88 -0.838729 4.31117 0
M  V30 65825 H 6258.48 0.827645 4.17169 0
M  V30 65826 N 6256.8 -1.45165 0.613591 0
M  V30 65827 C 6258.04 -2.02494 0.111299 0
M  V30 65828 C 6258.38 -1.48019 -1.25714 0
M  V30 65829 O 6257.65 -0.657252 -1.83059 0
M  V30 65830 C 6257.93 -3.60014 0.0788865 0
M  V30 65831 C 6257.79 -4.24809 1.47842 0
M  V30 65832 C 6259.11 -4.3591 -0.605811 0
M  V30 65833 H 6256.23 -0.735807 0.041919 0
M  V30 65834 H 6258.87 -1.72948 0.786712 0
M  V30 65835 H 6257.02 -3.85317 -0.496275 0
M  V30 65836 H 6258.69 -4.10671 2.10112 0
M  V30 65837 H 6256.93 -3.82979 2.0374 0
M  V30 65838 H 6257.6 -5.33743 1.40792 0
M  V30 65839 H 6260.08 -4.15936 -0.116873 0
M  V30 65840 H 6258.96 -5.45637 -0.597616 0
M  V30 65841 H 6259.22 -4.09222 -1.67301 0
M  V30 65842 N 6258.28 -0.353098 -1.53594 0
M  V30 65843 C 6259.69 -0.00154001 -1.596 0
M  V30 65844 C 6259.89 1.47879 -1.36872 0
M  V30 65845 O 6258.95 2.23877 -1.1677 0
M  V30 65846 C 6260.26 -0.446283 -2.9737 0
M  V30 65847 C 6261.81 -0.399438 -3.10441 0
M  V30 65848 C 6262.28 -0.819797 -4.50603 0
M  V30 65849 N 6263.77 -0.77436 -4.56681 0
M  V30 65850 C 6264.51 -1.07146 -5.633 0
M  V30 65851 N 6264.01 -1.4372 -6.77729 0
M  V30 65852 N 6265.8 -0.995069 -5.53222 0
M  V30 65853 H 6257.95 -1.31725 -1.6662 0
M  V30 65854 H 6260.21 -0.537599 -0.780828 0
M  V30 65855 H 6259.92 -1.4788 -3.19099 0
M  V30 65856 H 6259.79 0.173583 -3.768 0
M  V30 65857 H 6262.18 0.623922 -2.88429 0
M  V30 65858 H 6262.26 -1.05463 -2.33047 0
M  V30 65859 H 6261.9 -1.84121 -4.73352 0
M  V30 65860 H 6261.83 -0.14198 -5.26409 0
M  V30 65861 H 6264.33 -0.504741 -3.74514 0
M  V30 65862 H 6264.64 -1.64848 -7.55013 0
M  V30 65863 H 6262.98 -1.47574 -6.79152 0
M  V30 65864 H 6266.17 -0.708613 -4.62705 0
M  V30 65865 H 6266.35 -1.22995 -6.3622 0
M  V30 65866 N 6259.75 1.57387 -0.0819485 0
M  V30 65867 C 6260.68 2.16322 0.879048 0
M  V30 65868 C 6261.66 1.09297 1.30338 0
M  V30 65869 O 6262.85 1.37378 1.37263 0
M  V30 65870 C 6259.98 2.73301 2.14299 0
M  V30 65871 C 6258.93 3.85581 1.85772 0
M  V30 65872 C 6258.26 4.29206 3.18882 0
M  V30 65873 C 6259.56 5.09369 1.15499 0
M  V30 65874 H 6261.25 2.96874 0.388062 0
M  V30 65875 H 6258.8 1.42804 0.185215 0
M  V30 65876 H 6260.75 3.13178 2.81953 0
M  V30 65877 H 6259.48 1.89983 2.65657 0
M  V30 65878 H 6258.14 3.46223 1.20519 0
M  V30 65879 H 6257.78 3.42797 3.68102 0
M  V30 65880 H 6257.48 5.049 3.00582 0
M  V30 65881 H 6259.01 4.71707 3.87717 0
M  V30 65882 H 6260.42 5.46499 1.7324 0
M  V30 65883 H 6258.82 5.90407 1.07423 0
M  V30 65884 H 6259.89 4.8471 0.135651 0
M  V30 65885 N 6261.23 -0.191674 1.5643 0
M  V30 65886 C 6262.16 -1.26167 1.91349 0
M  V30 65887 C 6263.18 -1.41533 0.8045 0
M  V30 65888 O 6264.37 -1.41898 1.08292 0
M  V30 65889 C 6261.47 -2.63333 2.13328 0
M  V30 65890 C 6260.64 -2.69531 3.44488 0
M  V30 65891 C 6259.7 -3.87917 3.55538 0
M  V30 65892 O 6258.72 -3.7486 4.28332 0
M  V30 65893 N 6259.93 -5.03517 2.88879 0
M  V30 65894 H 6262.69 -0.965264 2.8373 0
M  V30 65895 H 6260.25 -0.381573 1.57339 0
M  V30 65896 H 6262.24 -3.40963 2.18005 0
M  V30 65897 H 6260.81 -2.85448 1.2743 0
M  V30 65898 H 6260.03 -1.78149 3.51648 0
M  V30 65899 H 6261.32 -2.70665 4.30834 0
M  V30 65900 H 6260.72 -5.17024 2.29571 0
M  V30 65901 H 6259.28 -5.79081 2.99179 0
M  V30 65902 N 6262.71 -1.50752 -0.459512 0
M  V30 65903 C 6263.67 -1.69894 -1.53846 0
M  V30 65904 C 6264.67 -0.569361 -1.50383 0
M  V30 65905 O 6265.86 -0.836581 -1.52797 0
M  V30 65906 C 6262.99 -1.73491 -2.93451 0
M  V30 65907 H 6264.19 -2.66167 -1.38186 0
M  V30 65908 H 6261.74 -1.40407 -0.686692 0
M  V30 65909 H 6262.48 -0.789536 -3.14542 0
M  V30 65910 H 6262.26 -2.55563 -2.97372 0
M  V30 65911 H 6263.75 -1.90215 -3.71763 0
M  V30 65912 N 6264.19 0.713481 -1.40525 0
M  V30 65913 C 6265.44 1.47047 -1.38642 0
M  V30 65914 C 6265.76 1.94998 0.00977619 0
M  V30 65915 O 6265.03 1.70489 0.964899 0
M  V30 65916 H 6263.61 0.545559 -0.510269 0
M  V30 65917 H 6266.27 0.845658 -1.75598 0
M  V30 65918 H 6265.36 2.34229 -2.0626 0
M  V30 65919 N 6265.67 1.26056 0.945918 0
M  V30 65920 C 6266.89 1.14188 1.73136 0
M  V30 65921 C 6267.32 -0.299598 1.85699 0
M  V30 65922 O 6266.67 -1.21706 1.34377 0
M  V30 65923 C 6266.72 1.81063 3.11847 0
M  V30 65924 O 6265.83 1.0962 3.97564 0
M  V30 65925 H 6265.17 0.398157 0.531383 0
M  V30 65926 H 6267.7 1.66786 1.18505 0
M  V30 65927 H 6267.71 1.87697 3.62262 0
M  V30 65928 H 6266.38 2.85932 3.02019 0
M  V30 65929 H 6264.96 1.10927 3.56019 0
M  V30 65930 N 6267.14 -1.14981 1.07783 0
M  V30 65931 C 6268.09 -2.21928 0.696483 0
M  V30 65932 C 6269.09 -1.66816 -0.294774 0
M  V30 65933 O 6270.29 -1.79305 -0.158018 0
M  V30 65934 H 6266.67 -0.722901 0.207168 0
M  V30 65935 H 6268.64 -2.51368 1.608 0
M  V30 65936 C 6267.39 -3.4751 0.115065 0
M  V30 65937 H 6266.71 -3.90242 0.868967 0
M  V30 65938 H 6268.15 -4.23847 -0.114046 0
M  V30 65939 C 6266.61 -3.16831 -1.14541 0
M  V30 65940 O 6267.14 -3.34034 -2.23123 0
M  V30 65941 N 6265.35 -2.7084 -1.05329 0
M  V30 65942 H 6264.89 -2.57041 -0.169638 0
M  V30 65943 H 6264.85 -2.50688 -1.89745 0
M  V30 65944 N 6268.62 -0.862572 -1.31899 0
M  V30 65945 C 6269.85 -0.484077 -2.01157 0
M  V30 65946 C 6270.27 0.921422 -1.64788 0
M  V30 65947 O 6269.62 1.6025 -0.873272 0
M  V30 65948 C 6269.67 -0.622834 -3.56094 0
M  V30 65949 O 6269.39 -1.97298 -3.91159 0
M  V30 65950 C 6270.9 -0.244381 -4.42626 0
M  V30 65951 H 6268.12 -0.189401 -0.643715 0
M  V30 65952 H 6270.66 -1.1617 -1.683 0
M  V30 65953 H 6268.81 0.00714547 -3.87399 0
M  V30 65954 H 6269.23 -1.97542 -4.85878 0
M  V30 65955 H 6270.7 -0.392447 -5.50603 0
M  V30 65956 H 6271.18 0.815854 -4.31556 0
M  V30 65957 H 6271.79 -0.849757 -4.16724 0
M  V30 65958 N 6270.1 1.44837 -0.62128 0
M  V30 65959 C 6271.01 2.34424 0.0909742 0
M  V30 65960 C 6272.03 1.52045 0.846067 0
M  V30 65961 O 6273.2 1.84805 0.80056 0
M  V30 65962 C 6270.27 3.29878 1.06684 0
M  V30 65963 C 6269.33 4.28163 0.312204 0
M  V30 65964 C 6268.56 5.19057 1.24158 0
M  V30 65965 O 6268.78 5.13668 2.47996 0
M  V30 65966 O 6267.72 5.97442 0.731232 0
M  V30 65967 H 6271.54 2.96759 -0.645597 0
M  V30 65968 H 6269.13 1.44447 -0.381496 0
M  V30 65969 H 6271.01 3.8866 1.62853 0
M  V30 65970 H 6269.69 2.70089 1.7842 0
M  V30 65971 H 6268.59 3.72956 -0.292292 0
M  V30 65972 H 6269.93 4.90845 -0.364936 0
M  V30 65973 N 6271.58 0.361238 1.53404 0
M  V30 65974 C 6272.83 -0.229811 2.01192 0
M  V30 65975 C 6273.15 -1.49129 1.24863 0
M  V30 65976 O 6272.41 -1.9291 0.329285 0
M  V30 65977 C 6272.71 -0.571985 3.52793 0
M  V30 65978 C 6272.37 0.59466 4.46962 0
M  V30 65979 C 6271.04 0.914781 4.72425 0
M  V30 65980 C 6273.39 1.37648 5.02695 0
M  V30 65981 C 6270.72 2.01877 5.50874 0
M  V30 65982 C 6273.07 2.47085 5.8235 0
M  V30 65983 C 6271.73 2.79637 6.06102 0
M  V30 65984 H 6271 -0.0840937 0.736213 0
M  V30 65985 H 6273.65 0.492806 1.8505 0
M  V30 65986 H 6271.95 -1.37556 3.66859 0
M  V30 65987 H 6273.65 -1.04148 3.87239 0
M  V30 65988 H 6270.24 0.335115 4.27288 0
M  V30 65989 H 6274.42 1.14241 4.82973 0
M  V30 65990 H 6269.68 2.27501 5.67498 0
M  V30 65991 H 6273.85 3.08084 6.24545 0
M  V30 65992 H 6271.48 3.65305 6.66676 0
M  V30 65993 N 6273.06 -1.57341 0.090294 0
M  V30 65994 C 6274.02 -2.12622 -0.855841 0
M  V30 65995 C 6275.02 -1.05438 -1.21406 0
M  V30 65996 O 6276.21 -1.31346 -1.14429 0
M  V30 65997 C 6273.34 -2.64285 -2.15328 0
M  V30 65998 H 6274.53 -2.97535 -0.375909 0
M  V30 65999 H 6272.09 -1.55493 -0.158645 0
M  V30 66000 H 6272.82 -1.82878 -2.67817 0
M  V30 66001 H 6272.61 -3.42647 -1.90618 0
M  V30 66002 H 6274.1 -3.07065 -2.83021 0
M  V30 66003 N 6274.53 0.183375 -1.5653 0
M  V30 66004 C 6275.76 0.921899 -1.85784 0
M  V30 66005 C 6276.18 1.75562 -0.675245 0
M  V30 66006 O 6275.54 1.77361 0.37585 0
M  V30 66007 C 6275.59 1.78429 -3.13361 0
M  V30 66008 O 6274.69 2.88451 -2.94737 0
M  V30 66009 H 6274.04 0.258952 -0.611424 0
M  V30 66010 H 6276.57 0.185153 -2.03761 0
M  V30 66011 H 6276.58 2.18663 -3.44457 0
M  V30 66012 H 6275.25 1.1718 -3.99051 0
M  V30 66013 H 6273.83 2.51888 -2.74967 0
M  V30 66014 N 6276.01 1.50994 0.451511 0
M  V30 66015 C 6276.96 1.71836 1.56764 0
M  V30 66016 C 6277.95 0.584422 1.59 0
M  V30 66017 O 6279.16 0.765443 1.62914 0
M  V30 66018 H 6275.54 0.542707 0.520551 0
M  V30 66019 H 6277.51 2.65425 1.36354 0
M  V30 66020 C 6276.26 1.84762 2.94547 0
M  V30 66021 H 6275.58 2.71415 2.93554 0
M  V30 66022 H 6277.02 2.03363 3.72048 0
M  V30 66023 C 6275.48 0.603925 3.31443 0
M  V30 66024 O 6276.01 -0.247958 4.00934 0
M  V30 66025 N 6274.21 0.45217 2.87061 0
M  V30 66026 H 6273.76 1.14646 2.30682 0
M  V30 66027 H 6273.72 -0.378768 3.1211 0
M  V30 66028 N 6277.49 -0.706019 1.40901 0
M  V30 66029 C 6278.72 -1.50003 1.43226 0
M  V30 66030 C 6279.14 -1.88065 0.0362819 0
M  V30 66031 O 6278.5 -1.53923 -0.957982 0
M  V30 66032 C 6278.55 -2.74569 2.33761 0
M  V30 66033 O 6277.65 -3.71651 1.78744 0
M  V30 66034 H 6276.99 -0.451882 0.486517 0
M  V30 66035 H 6279.52 -0.868707 1.85242 0
M  V30 66036 H 6279.53 -3.22994 2.49277 0
M  V30 66037 H 6278.21 -2.46202 3.35197 0
M  V30 66038 H 6276.78 -3.30538 1.72624 0
M  V30 66039 N 6278.97 -1.26556 -0.93922 0
M  V30 66040 C 6280.19 -1.15104 -1.72528 0
M  V30 66041 C 6280.62 0.289746 -1.85855 0
M  V30 66042 O 6279.98 1.20992 -1.35021 0
M  V30 66043 C 6280.02 -1.82714 -3.10883 0
M  V30 66044 O 6279.13 -1.11726 -3.96977 0
M  V30 66045 H 6278.47 -0.400969 -0.529264 0
M  V30 66046 H 6281 -1.67412 -1.17619 0
M  V30 66047 H 6281.01 -1.89616 -3.61261 0
M  V30 66048 H 6279.68 -2.8753 -3.00499 0
M  V30 66049 H 6278.26 -1.12814 -3.55426 0
M  V30 66050 N 6280.45 1.14407 -1.08391 0
M  V30 66051 C 6281.69 1.85716 -0.814703 0
M  V30 66052 C 6282.03 1.82718 0.65787 0
M  V30 66053 O 6281.3 1.25776 1.4836 0
M  V30 66054 C 6281.58 3.34358 -1.33703 0
M  V30 66055 C 6281.44 3.4593 -2.87493 0
M  V30 66056 C 6282.76 4.29454 -0.962157 0
M  V30 66057 H 6279.87 0.674321 -0.297422 0
M  V30 66058 H 6282.52 1.3435 -1.34351 0
M  V30 66059 H 6280.67 3.78234 -0.887215 0
M  V30 66060 H 6282.34 3.10842 -3.40844 0
M  V30 66061 H 6280.58 2.87146 -3.25161 0
M  V30 66062 H 6281.25 4.50412 -3.19113 0
M  V30 66063 H 6283.73 3.93594 -1.34993 0
M  V30 66064 H 6282.6 5.31917 -1.35482 0
M  V30 66065 H 6282.87 4.41906 0.130832 0
M  V30 66066 N 6281.93 0.869555 1.3144 0
M  V30 66067 C 6282.86 0.34076 2.31 0
M  V30 66068 C 6283.84 -0.568129 1.60332 0
M  V30 66069 O 6285.02 -0.485239 1.8804 0
M  V30 66070 C 6282.15 -0.458969 3.44254 0
M  V30 66071 C 6281.11 0.356789 4.2651 0
M  V30 66072 C 6280.43 -0.568599 5.31668 0
M  V30 66073 C 6281.73 1.59063 4.9749 0
M  V30 66074 H 6283.43 1.1727 2.75478 0
M  V30 66075 H 6280.97 0.565347 1.32438 0
M  V30 66076 H 6282.92 -0.839428 4.12955 0
M  V30 66077 H 6281.65 -1.32441 2.98541 0
M  V30 66078 H 6280.31 0.719189 3.59476 0
M  V30 66079 H 6279.96 -1.43131 4.82206 0
M  V30 66080 H 6279.66 -0.026684 5.87594 0
M  V30 66081 H 6281.18 -0.94591 6.03229 0
M  V30 66082 H 6282.59 1.28163 5.58791 0
M  V30 66083 H 6280.99 2.07158 5.6321 0
M  V30 66084 H 6282.06 2.34369 4.24499 0
M  V30 66085 N 6283.4 -1.44506 0.628953 0
M  V30 66086 C 6284.63 -2.06941 0.137851 0
M  V30 66087 C 6285.05 -1.46676 -1.17761 0
M  V30 66088 O 6284.41 -0.567402 -1.72192 0
M  V30 66089 C 6284.46 -3.60584 0.034311 0
M  V30 66090 O 6283.56 -3.99835 -1.01024 0
M  V30 66091 H 6282.9 -0.658693 0.0837821 0
M  V30 66092 H 6285.43 -1.85415 0.865016 0
M  V30 66093 H 6285.44 -4.07698 -0.15698 0
M  V30 66094 H 6284.12 -4.03829 0.994725 0
M  V30 66095 H 6282.7 -3.64355 -0.793696 0
M  V30 66096 N 6284.88 -0.369369 -1.5321 0
M  V30 66097 C 6285.81 0.467162 -2.28779 0
M  V30 66098 C 6286.79 1.08069 -1.31359 0
M  V30 66099 O 6287.98 1.09722 -1.60233 0
M  V30 66100 C 6285.11 1.60508 -3.07985 0
M  V30 66101 C 6284.06 1.11861 -4.13124 0
M  V30 66102 C 6283.39 2.34706 -4.80434 0
M  V30 66103 C 6284.69 0.200663 -5.21914 0
M  V30 66104 H 6286.38 -0.163306 -2.98954 0
M  V30 66105 H 6283.93 -0.0799817 -1.43778 0
M  V30 66106 H 6285.88 2.19696 -3.596 0
M  V30 66107 H 6284.6 2.26284 -2.35507 0
M  V30 66108 H 6283.26 0.549394 -3.6246 0
M  V30 66109 H 6282.91 2.98946 -4.04524 0
M  V30 66110 H 6282.61 2.02827 -5.51484 0
M  V30 66111 H 6284.14 2.94573 -5.34845 0
M  V30 66112 H 6285.55 0.700131 -5.69009 0
M  V30 66113 H 6283.95 -0.0274332 -6.00094 0
M  V30 66114 H 6285.02 -0.756117 -4.78969 0
M  V30 66115 N 6286.36 1.57291 -0.0986369 0
M  V30 66116 C 6287.61 1.94769 0.565071 0
M  V30 66117 C 6287.94 0.980781 1.67614 0
M  V30 66118 O 6287.21 0.0144398 1.94495 0
M  V30 66119 C 6287.5 3.4234 1.11692 0
M  V30 66120 C 6287.35 4.49799 0.0106702 0
M  V30 66121 C 6288.67 3.91303 2.0142 0
M  V30 66122 H 6285.79 0.708222 0.203938 0
M  V30 66123 H 6288.43 1.89237 -0.170065 0
M  V30 66124 H 6286.58 3.47185 1.74341 0
M  V30 66125 H 6288.25 4.57064 -0.623735 0
M  V30 66126 H 6286.49 4.28823 -0.655244 0
M  V30 66127 H 6287.17 5.50262 0.437675 0
M  V30 66128 H 6289.64 3.88634 1.48671 0
M  V30 66129 H 6288.52 4.95118 2.36958 0
M  V30 66130 H 6288.78 3.30802 2.93295 0
M  V30 66131 N 6287.84 -0.175072 1.56625 0
M  V30 66132 C 6288.79 -1.23616 1.97032 0
M  V30 66133 C 6289.78 -1.46033 0.858536 0
M  V30 66134 O 6290.99 -1.46657 1.04364 0
M  V30 66135 H 6287.36 -0.415452 0.62682 0
M  V30 66136 H 6289.33 -0.86847 2.85482 0
M  V30 66137 C 6288.08 -2.56887 2.34316 0
M  V30 66138 H 6287.4 -2.4046 3.19404 0
M  V30 66139 H 6288.84 -3.29829 2.66437 0
M  V30 66140 C 6287.3 -3.15365 1.18517 0
M  V30 66141 O 6287.83 -3.98931 0.470834 0
M  V30 66142 N 6286.04 -2.744 0.956722 0
M  V30 66143 H 6285.59 -2.06546 1.53937 0
M  V30 66144 H 6285.54 -3.13863 0.183758 0
M  V30 66145 N 6289.32 -1.51231 -0.443497 0
M  V30 66146 C 6290.56 -1.63595 -1.19344 0
M  V30 66147 C 6290.89 -0.34924 -1.91339 0
M  V30 66148 O 6290.15 0.666385 -1.84005 0
M  V30 66149 C 6290.44 -2.78519 -2.23968 0
M  V30 66150 C 6290.11 -4.18019 -1.6903 0
M  V30 66151 C 6288.77 -4.5597 -1.5377 0
M  V30 66152 C 6291.12 -5.05092 -1.28573 0
M  V30 66153 C 6288.45 -5.78707 -0.965171 0
M  V30 66154 C 6290.8 -6.28403 -0.727519 0
M  V30 66155 C 6289.47 -6.65132 -0.561767 0
M  V30 66156 H 6288.74 -0.598635 -0.436712 0
M  V30 66157 H 6291.39 -1.85247 -0.485384 0
M  V30 66158 H 6289.69 -2.51065 -3.00789 0
M  V30 66159 H 6291.39 -2.85285 -2.81804 0
M  V30 66160 H 6287.98 -3.88094 -1.81882 0
M  V30 66161 H 6292.16 -4.76383 -1.39186 0
M  V30 66162 H 6287.42 -6.05816 -0.824458 0
M  V30 66163 H 6291.59 -6.95218 -0.40549 0
M  V30 66164 H 6289.22 -7.60111 -0.115999 0
M  V30 66165 N 6290.79 0.698537 -1.41274 0
M  V30 66166 C 6292.02 1.48738 -1.43821 0
M  V30 66167 C 6292.44 1.88752 -0.0426521 0
M  V30 66168 O 6291.79 1.56587 0.93737 0
M  V30 66169 C 6291.84 2.75184 -2.34427 0
M  V30 66170 O 6291.57 2.36856 -3.68552 0
M  V30 66171 C 6293.07 3.68949 -2.45748 0
M  V30 66172 H 6290.29 0.45846 -0.489954 0
M  V30 66173 H 6292.83 0.860306 -1.85524 0
M  V30 66174 H 6290.99 3.34135 -1.96042 0
M  V30 66175 H 6291.4 3.18339 -4.16846 0
M  V30 66176 H 6292.87 4.54462 -3.13318 0
M  V30 66177 H 6293.35 4.13232 -1.48781 0
M  V30 66178 H 6293.96 3.15902 -2.84757 0
M  V30 66179 N 6292.27 1.27052 0.932495 0
M  V30 66180 C 6293.52 1.13276 1.68215 0
M  V30 66181 C 6293.85 -0.321565 1.91519 0
M  V30 66182 O 6293.13 -1.23559 1.50211 0
M  V30 66183 C 6293.41 1.91173 3.05164 0
M  V30 66184 C 6293.26 3.44562 2.89131 0
M  V30 66185 C 6294.58 1.71241 4.05419 0
M  V30 66186 H 6291.7 0.412881 0.61049 0
M  V30 66187 H 6294.34 1.56151 1.08244 0
M  V30 66188 H 6292.49 1.54735 3.56356 0
M  V30 66189 H 6294.16 3.90803 2.45094 0
M  V30 66190 H 6292.41 3.71146 2.24573 0
M  V30 66191 H 6293.08 3.94304 3.86301 0
M  V30 66192 H 6295.55 2.03003 3.6322 0
M  V30 66193 H 6294.43 2.28146 4.9924 0
M  V30 66194 H 6294.69 0.659133 4.37159 0
M  V30 66195 N 6293.75 -1.13831 1.08997 0
M  V30 66196 C 6295.03 -1.8123 0.735873 0
M  V30 66197 C 6295.41 -1.96174 -0.779668 0
M  V30 66198 O 6294.75 -1.52635 -1.70043 0
M  V30 66199 C 6294.96 -3.16541 1.46979 0
M  V30 66200 C 6296.31 -3.91952 1.63274 0
M  V30 66201 O 6297.34 -3.2615 1.43194 0
M  V30 66202 O 6296.2 -5.09969 1.96453 0
M  V30 66203 H 6293.29 -0.783785 0.263838 0
M  V30 66204 H 6295.84 -1.20796 1.1919 0
M  V30 66205 H 6294.61 -3.00863 2.50194 0
M  V30 66206 H 6294.23 -3.84672 1.00564 0
M  V30 66207 N 6295.23 -0.876513 -1.30977 0
M  V30 66208 C 6296.64 -0.542386 -1.78648 0
M  V30 66209 C 6296.99 0.941043 -1.72159 0
M  V30 66210 O 6296.11 1.73501 -1.2933 0
M  V30 66211 C 6296.71 -0.97777 -3.24384 0
M  V30 66212 C 6295.27 -0.695194 -3.69924 0
M  V30 66213 C 6294.42 -1.16546 -2.5162 0
M  V30 66214 H 6297.37 -1.06158 -1.17966 0
M  V30 66215 H 6297.39 -0.303173 -3.7929 0
M  V30 66216 H 6296.9 -2.05746 -3.29075 0
M  V30 66217 H 6295 0.372861 -3.7073 0
M  V30 66218 H 6295.11 -1.27681 -4.61773 0
M  V30 66219 H 6293.48 -0.585028 -2.4789 0
M  V30 66220 H 6294.26 -2.25271 -2.59052 0
M  V30 66221 N 6296.71 1.4417 -0.636607 0
M  V30 66222 C 6297.64 2.28966 0.103521 0
M  V30 66223 C 6298.65 1.41589 0.80352 0
M  V30 66224 O 6299.84 1.65688 0.664051 0
M  V30 66225 C 6296.94 3.18099 1.16902 0
M  V30 66226 C 6296.11 4.33923 0.550455 0
M  V30 66227 C 6295.17 5.0405 1.51064 0
M  V30 66228 O 6294.2 5.59883 1.02565 0
M  V30 66229 N 6295.4 5.06009 2.84491 0
M  V30 66230 H 6298.17 2.93127 -0.624222 0
M  V30 66231 H 6295.73 1.54678 -0.478166 0
M  V30 66232 H 6297.72 3.61878 1.81181 0
M  V30 66233 H 6296.29 2.55651 1.79893 0
M  V30 66234 H 6295.51 3.93267 -0.271068 0
M  V30 66235 H 6296.8 5.08663 0.117937 0
M  V30 66236 H 6296.19 4.61989 3.26469 0
M  V30 66237 H 6294.75 5.53559 3.44116 0
M  V30 66238 N 6298.18 0.377489 1.53012 0
M  V30 66239 C 6299.13 -0.463335 2.26101 0
M  V30 66240 C 6300.1 -1.06766 1.27241 0
M  V30 66241 O 6301.29 -1.09791 1.56046 0
M  V30 66242 C 6298.43 -1.59092 3.06241 0
M  V30 66243 C 6297.54 -1.01061 4.20013 0
M  V30 66244 C 6296.67 -2.10828 4.87571 0
M  V30 66245 C 6295.71 -1.50324 5.93354 0
M  V30 66246 N 6294.85 -2.53972 6.54555 0
M  V30 66247 H 6299.69 0.16642 2.97535 0
M  V30 66248 H 6297.23 0.0938958 1.468 0
M  V30 66249 H 6299.19 -2.2553 3.50988 0
M  V30 66250 H 6297.82 -2.19116 2.3704 0
M  V30 66251 H 6296.87 -0.236173 3.79666 0
M  V30 66252 H 6298.18 -0.52836 4.95994 0
M  V30 66253 H 6297.33 -2.8506 5.35561 0
M  V30 66254 H 6296.07 -2.62408 4.11088 0
M  V30 66255 H 6295.08 -0.746108 5.44714 0
M  V30 66256 H 6296.3 -0.995527 6.71763 0
M  V30 66257 H 6294.25 -3.04744 5.80919 0
M  V30 66258 H 6294.17 -2.10469 7.26112 0
M  V30 66259 H 6295.43 -3.27871 7.07192 0
M  V30 66260 N 6299.66 -1.57237 0.106977 0
M  V30 66261 C 6300.63 -2.13517 -0.833242 0
M  V30 66262 C 6301.63 -1.0672 -1.20281 0
M  V30 66263 O 6302.82 -1.32552 -1.13029 0
M  V30 66264 C 6299.95 -2.66554 -2.12513 0
M  V30 66265 H 6301.14 -2.97917 -0.344331 0
M  V30 66266 H 6298.69 -1.55652 -0.142144 0
M  V30 66267 H 6299.43 -1.85708 -2.65862 0
M  V30 66268 H 6299.21 -3.4465 -1.86973 0
M  V30 66269 H 6300.7 -3.10049 -2.79749 0
M  V30 66270 N 6301.14 0.166763 -1.56715 0
M  V30 66271 C 6302.37 0.896802 -1.86121 0
M  V30 66272 C 6302.78 1.76136 -0.690846 0
M  V30 66273 O 6302.12 1.80352 0.349128 0
M  V30 66274 C 6302.18 1.82053 -3.09995 0
M  V30 66275 C 6301.85 1.13512 -4.42678 0
M  V30 66276 C 6302.84 0.498403 -5.17506 0
M  V30 66277 C 6300.53 1.13052 -4.89413 0
M  V30 66278 C 6302.52 -0.133764 -6.3726 0
M  V30 66279 C 6300.21 0.494527 -6.09096 0
M  V30 66280 C 6301.21 -0.136505 -6.82864 0
M  V30 66281 O 6300.9 -0.762456 -8.00276 0
M  V30 66282 H 6300.63 0.265743 -0.621576 0
M  V30 66283 H 6303.18 0.170312 -2.04693 0
M  V30 66284 H 6301.41 2.58745 -2.87381 0
M  V30 66285 H 6303.1 2.4208 -3.2581 0
M  V30 66286 H 6303.87 0.493904 -4.82479 0
M  V30 66287 H 6299.75 1.61109 -4.31932 0
M  V30 66288 H 6303.29 -0.626905 -6.94777 0
M  V30 66289 H 6299.19 0.496625 -6.43587 0
M  V30 66290 H 6299.96 -0.662157 -8.15817 0
M  V30 66291 N 6302.62 1.51464 0.43547 0
M  V30 66292 C 6303.55 1.75861 1.53607 0
M  V30 66293 C 6304.53 0.608505 1.58843 0
M  V30 66294 O 6305.71 0.851412 1.74541 0
M  V30 66295 C 6302.84 1.88536 2.9167 0
M  V30 66296 C 6301.8 3.03983 3.01294 0
M  V30 66297 C 6301.12 3.01844 4.41355 0
M  V30 66298 C 6302.42 4.43915 2.75203 0
M  V30 66299 H 6304.12 2.68018 1.33443 0
M  V30 66300 H 6301.66 1.2897 0.640519 0
M  V30 66301 H 6303.62 2.04186 3.68627 0
M  V30 66302 H 6302.34 0.930289 3.13071 0
M  V30 66303 H 6301 2.88041 2.26778 0
M  V30 66304 H 6300.65 2.04111 4.59726 0
M  V30 66305 H 6300.35 3.79369 4.48724 0
M  V30 66306 H 6301.87 3.1959 5.20283 0
M  V30 66307 H 6303.29 4.60199 3.41892 0
M  V30 66308 H 6301.68 5.2316 2.93979 0
M  V30 66309 H 6302.75 4.53824 1.70798 0
M  V30 66310 N 6304.1 -0.691035 1.41642 0
M  V30 66311 C 6305.37 -1.4459 1.31731 0
M  V30 66312 C 6305.75 -2.11033 -0.0529882 0
M  V30 66313 O 6305.1 -2.02031 -1.06752 0
M  V30 66314 C 6305.31 -2.46163 2.47396 0
M  V30 66315 C 6306.66 -3.11283 2.8877 0
M  V30 66316 O 6307.68 -2.56488 2.47169 0
M  V30 66317 O 6306.54 -4.10539 3.60722 0
M  V30 66318 H 6303.64 -0.644145 0.518658 0
M  V30 66319 H 6306.18 -0.72113 1.53616 0
M  V30 66320 H 6304.95 -1.95752 3.38817 0
M  V30 66321 H 6304.58 -3.26143 2.27412 0
M  V30 66322 N 6305.57 -1.27545 -0.925744 0
M  V30 66323 C 6306.82 -1.13998 -1.67364 0
M  V30 66324 C 6307.15 0.313804 -1.91952 0
M  V30 66325 O 6306.4 1.24577 -1.50927 0
M  V30 66326 C 6306.7 -1.87099 -3.04514 0
M  V30 66327 C 6306.37 -3.36947 -2.99629 0
M  V30 66328 C 6305.03 -3.77818 -2.98004 0
M  V30 66329 C 6307.38 -4.32551 -2.90773 0
M  V30 66330 C 6304.71 -5.12656 -2.85309 0
M  V30 66331 C 6307.06 -5.67447 -2.79619 0
M  V30 66332 C 6305.73 -6.0761 -2.76345 0
M  V30 66333 H 6305 -0.417147 -0.612429 0
M  V30 66334 H 6307.64 -1.58177 -1.07946 0
M  V30 66335 H 6305.95 -1.35433 -3.67648 0
M  V30 66336 H 6307.65 -1.74043 -3.61262 0
M  V30 66337 H 6304.24 -3.04443 -3.01683 0
M  V30 66338 H 6308.42 -4.01945 -2.91125 0
M  V30 66339 H 6303.68 -5.42916 -2.81162 0
M  V30 66340 H 6307.85 -6.41198 -2.71732 0
M  V30 66341 H 6305.48 -7.12045 -2.66264 0
M  V30 66342 N 6307.05 1.13251 -1.09599 0
M  V30 66343 C 6308.3 1.84841 -0.834355 0
M  V30 66344 C 6308.63 1.83405 0.638453 0
M  V30 66345 O 6307.91 1.27342 1.47018 0
M  V30 66346 C 6308.19 3.32921 -1.37242 0
M  V30 66347 C 6308.04 3.42862 -2.91146 0
M  V30 66348 C 6309.36 4.28409 -1.00765 0
M  V30 66349 H 6306.48 0.671129 -0.304558 0
M  V30 66350 H 6309.12 1.32917 -1.35768 0
M  V30 66351 H 6307.27 3.77271 -0.927282 0
M  V30 66352 H 6308.94 3.0721 -3.44122 0
M  V30 66353 H 6307.19 2.83681 -3.28188 0
M  V30 66354 H 6307.86 4.47002 -3.23872 0
M  V30 66355 H 6310.33 3.9214 -1.3916 0
M  V30 66356 H 6309.21 5.3045 -1.41116 0
M  V30 66357 H 6309.47 4.4202 0.0839541 0
M  V30 66358 N 6308.53 0.883447 1.3051 0
M  V30 66359 C 6309.48 0.338541 2.30123 0
M  V30 66360 C 6310.47 -0.55363 1.60098 0
M  V30 66361 O 6311.68 -0.438233 1.74584 0
M  V30 66362 H 6308.05 0.0908189 0.746496 0
M  V30 66363 H 6310.02 1.19237 2.73542 0
M  V30 66364 C 6308.77 -0.433269 3.4499 0
M  V30 66365 H 6308.1 0.243988 3.99055 0
M  V30 66366 H 6309.54 -0.779661 4.1677 0
M  V30 66367 C 6308 -1.62975 2.94857 0
M  V30 66368 O 6308.53 -2.72912 2.94757 0
M  V30 66369 N 6306.73 -1.46641 2.50888 0
M  V30 66370 H 6306.28 -0.572047 2.51168 0
M  V30 66371 H 6306.24 -2.26833 2.17702 0
M  V30 66372 N 6310.01 -1.43831 0.644244 0
M  V30 66373 C 6310.97 -2.29159 -0.0432666 0
M  V30 66374 C 6311.97 -1.41737 -0.75943 0
M  V30 66375 O 6313.16 -1.63466 -0.602036 0
M  V30 66376 C 6310.29 -3.23607 -1.07196 0
M  V30 66377 H 6311.49 -2.91438 0.707397 0
M  V30 66378 H 6309.04 -1.50961 0.405021 0
M  V30 66379 H 6309.77 -2.66205 -1.85217 0
M  V30 66380 H 6309.56 -3.88049 -0.562203 0
M  V30 66381 H 6311.05 -3.87674 -1.55237 0
M  V30 66382 N 6311.49 -0.385598 -1.5281 0
M  V30 66383 C 6312.74 0.197383 -2.01134 0
M  V30 66384 C 6313.06 1.47629 -1.27399 0
M  V30 66385 O 6312.33 1.91918 -0.392983 0
M  V30 66386 H 6310.91 0.0759297 -0.743131 0
M  V30 66387 H 6313.57 -0.516436 -1.87933 0
M  V30 66388 H 6312.66 0.410226 -3.09392 0
M  V30 66389 N 6312.97 1.57178 -0.115314 0
M  V30 66390 C 6314.21 1.94683 0.542503 0
M  V30 66391 C 6314.53 0.999269 1.6745 0
M  V30 66392 O 6313.8 0.0549048 1.95823 0
M  V30 66393 H 6312.38 0.718776 0.203396 0
M  V30 66394 H 6315.05 1.94035 -0.183391 0
M  V30 66395 H 6314.14 2.97624 0.939494 0
M  V30 66396 N 6314.44 -0.15845 1.56801 0
M  V30 66397 C 6315.41 -1.17979 1.96503 0
M  V30 66398 C 6316.41 -1.36487 0.850175 0
M  V30 66399 O 6317.6 -1.33674 1.11701 0
M  V30 66400 C 6314.73 -2.54237 2.27104 0
M  V30 66401 H 6315.92 -0.839476 2.87911 0
M  V30 66402 H 6313.47 -0.401378 1.51058 0
M  V30 66403 H 6314.21 -2.93261 1.38451 0
M  V30 66404 H 6313.99 -2.42168 3.08378 0
M  V30 66405 H 6315.48 -3.27819 2.58697 0
M  V30 66406 N 6315.92 -1.51693 -0.427432 0
M  V30 66407 C 6317.33 -1.57218 -1.00695 0
M  V30 66408 C 6317.68 -0.401595 -1.92046 0
M  V30 66409 O 6316.81 0.48039 -2.11001 0
M  V30 66410 C 6317.4 -2.84933 -1.83299 0
M  V30 66411 C 6315.96 -2.92997 -2.36283 0
M  V30 66412 C 6315.11 -2.51981 -1.15763 0
M  V30 66413 H 6318.06 -1.57327 -0.20833 0
M  V30 66414 H 6318.08 -2.69255 -2.68854 0
M  V30 66415 H 6317.59 -3.70112 -1.16786 0
M  V30 66416 H 6315.69 -2.12271 -3.06222 0
M  V30 66417 H 6315.81 -3.96859 -2.68402 0
M  V30 66418 H 6314.17 -2.05406 -1.50601 0
M  V30 66419 H 6314.95 -3.39514 -0.508448 0
M  V30 66420 N 6317.4 0.683514 -1.42007 0
M  V30 66421 C 6318.33 1.80945 -1.47584 0
M  V30 66422 C 6319.31 1.66803 -0.333267 0
M  V30 66423 O 6320.5 1.86355 -0.54638 0
M  V30 66424 C 6317.63 3.19177 -1.36906 0
M  V30 66425 C 6316.58 3.48041 -2.49101 0
M  V30 66426 C 6315.91 4.85756 -2.23484 0
M  V30 66427 C 6317.21 3.45807 -3.91427 0
M  V30 66428 H 6318.9 1.76534 -2.41818 0
M  V30 66429 H 6316.45 0.847899 -1.1639 0
M  V30 66430 H 6318.4 3.97669 -1.39418 0
M  V30 66431 H 6317.12 3.24243 -0.391627 0
M  V30 66432 H 6315.78 2.71906 -2.45892 0
M  V30 66433 H 6315.43 4.87462 -1.24054 0
M  V30 66434 H 6315.13 5.06032 -2.98672 0
M  V30 66435 H 6316.65 5.66543 -2.27731 0
M  V30 66436 H 6318.07 4.14283 -3.96286 0
M  V30 66437 H 6316.46 3.77617 -4.66396 0
M  V30 66438 H 6317.53 2.44546 -4.18719 0
M  V30 66439 N 6318.88 1.28034 0.918967 0
M  V30 66440 C 6320.11 1.1772 1.70146 0
M  V30 66441 C 6320.52 -0.264848 1.86933 0
M  V30 66442 O 6319.88 -1.17952 1.39261 0
M  V30 66443 C 6319.93 1.86559 3.09642 0
M  V30 66444 O 6319.65 3.25131 2.93635 0
M  V30 66445 C 6321.15 1.82481 4.03999 0
M  V30 66446 H 6318.37 0.408882 0.532031 0
M  V30 66447 H 6320.91 1.69065 1.15054 0
M  V30 66448 H 6319.07 1.39098 3.61567 0
M  V30 66449 H 6319.48 3.59532 3.81886 0
M  V30 66450 H 6320.96 2.35246 4.99363 0
M  V30 66451 H 6321.43 0.796044 4.31926 0
M  V30 66452 H 6322.04 2.29597 3.58002 0
M  V30 66453 N 6320.36 -1.12669 1.10198 0
M  V30 66454 C 6321.3 -2.204 0.743401 0
M  V30 66455 C 6322.3 -1.67403 -0.259323 0
M  V30 66456 O 6323.5 -1.796 -0.119949 0
M  V30 66457 H 6319.88 -0.718344 0.222456 0
M  V30 66458 H 6321.85 -2.47901 1.66096 0
M  V30 66459 C 6320.6 -3.47187 0.188751 0
M  V30 66460 H 6319.92 -3.88311 0.951548 0
M  V30 66461 H 6321.36 -4.23993 -0.0241158 0
M  V30 66462 C 6319.82 -3.19189 -1.07795 0
M  V30 66463 O 6320.35 -3.38692 -2.15988 0
M  V30 66464 N 6318.56 -2.73013 -0.995609 0
M  V30 66465 H 6318.1 -2.57343 -0.115077 0
M  V30 66466 H 6318.06 -2.54656 -1.84385 0
M  V30 66467 N 6321.83 -0.890356 -1.3004 0
M  V30 66468 C 6323.07 -0.518296 -1.9772 0
M  V30 66469 C 6323.44 0.916503 -1.68713 0
M  V30 66470 O 6324.64 1.39496 -2.2977 0
M  V30 66471 C 6322.91 -0.791697 -3.48521 0
M  V30 66472 S 6324.47 -0.522546 -4.35678 0
M  V30 66473 H 6321.29 -0.192638 -0.684406 0
M  V30 66474 H 6323.89 -1.15078 -1.58042 0
M  V30 66475 H 6322.59 -1.83434 -3.67124 0
M  V30 66476 H 6322.12 -0.146974 -3.93125 0
M  V30 66477 H 6324.14 0.63651 -4.92101 0
M  V30 66478 N 6323.31 1.43487 -0.651863 0
M  V30 66479 C 6324.56 2.02128 -0.164947 0
M  V30 66480 C 6324.89 1.513 1.21745 0
M  V30 66481 O 6324.17 0.705556 1.81252 0
M  V30 66482 C 6324.45 3.59678 -0.17431 0
M  V30 66483 C 6324.3 4.2074 -1.59053 0
M  V30 66484 C 6325.62 4.37363 0.490024 0
M  V30 66485 H 6322.74 0.734437 -0.0614129 0
M  V30 66486 H 6325.38 1.70801 -0.832289 0
M  V30 66487 H 6323.53 3.86498 0.393941 0
M  V30 66488 H 6325.2 4.04956 -2.20926 0
M  V30 66489 H 6323.45 3.77442 -2.13822 0
M  V30 66490 H 6324.12 5.29822 -1.54894 0
M  V30 66491 H 6326.59 4.16099 0.00655387 0
M  V30 66492 H 6325.47 5.4703 0.45274 0
M  V30 66493 H 6325.73 4.13514 1.56392 0
M  V30 66494 N 6324.79 0.393696 1.52603 0
M  V30 66495 C 6325.74 -0.439328 2.2658 0
M  V30 66496 C 6326.71 -1.05411 1.28366 0
M  V30 66497 O 6327.89 -1.0813 1.57202 0
M  V30 66498 C 6325.03 -1.55835 3.07911 0
M  V30 66499 C 6324.14 -0.966004 4.21061 0
M  V30 66500 C 6323.28 -2.05644 4.89779 0
M  V30 66501 C 6322.32 -1.44022 5.94915 0
M  V30 66502 N 6321.46 -2.47015 6.57212 0
M  V30 66503 H 6326.3 0.197968 2.97342 0
M  V30 66504 H 6323.83 0.109461 1.46692 0
M  V30 66505 H 6325.79 -2.21794 3.5336 0
M  V30 66506 H 6324.42 -2.1659 2.39351 0
M  V30 66507 H 6323.47 -0.195891 3.79895 0
M  V30 66508 H 6324.78 -0.475723 4.96526 0
M  V30 66509 H 6323.94 -2.79364 5.38554 0
M  V30 66510 H 6322.68 -2.58033 4.13848 0
M  V30 66511 H 6321.68 -0.688291 5.45475 0
M  V30 66512 H 6322.91 -0.924222 6.72782 0
M  V30 66513 H 6320.85 -2.98566 5.84119 0
M  V30 66514 H 6320.77 -2.02755 7.28304 0
M  V30 66515 H 6322.04 -3.20352 7.1063 0
M  V30 66516 N 6326.27 -1.57114 0.123648 0
M  V30 66517 C 6327.2 -2.11284 -0.862231 0
M  V30 66518 C 6328.18 -1.03041 -1.25783 0
M  V30 66519 O 6329.36 -1.30724 -1.35806 0
M  V30 66520 C 6326.49 -2.61337 -2.15455 0
M  V30 66521 C 6325.54 -3.81509 -1.90666 0
M  V30 66522 S 6326.37 -5.23684 -1.11872 0
M  V30 66523 C 6327.53 -5.77109 -2.42273 0
M  V30 66524 H 6327.76 -2.94576 -0.401499 0
M  V30 66525 H 6325.29 -1.54136 -0.0902146 0
M  V30 66526 H 6327.25 -2.90829 -2.89705 0
M  V30 66527 H 6325.91 -1.78217 -2.58645 0
M  V30 66528 H 6325.1 -4.14695 -2.86433 0
M  V30 66529 H 6324.71 -3.52657 -1.24535 0
M  V30 66530 H 6327 -5.87117 -3.38083 0
M  V30 66531 H 6327.94 -6.75107 -2.13625 0
M  V30 66532 H 6328.35 -5.05203 -2.51853 0
M  V30 66533 N 6327.75 0.150132 -1.56883 0
M  V30 66534 C 6328.68 1.18728 -2.01062 0
M  V30 66535 C 6329.66 1.4498 -0.889657 0
M  V30 66536 O 6330.84 1.55953 -1.15724 0
M  V30 66537 C 6327.97 2.5212 -2.38857 0
M  V30 66538 C 6326.93 2.40396 -3.5411 0
M  V30 66539 C 6326.25 3.78471 -3.77709 0
M  V30 66540 C 6327.55 1.89069 -4.86878 0
M  V30 66541 H 6329.25 0.819942 -2.87954 0
M  V30 66542 H 6326.79 0.392976 -1.38534 0
M  V30 66543 H 6328.75 3.24898 -2.68364 0
M  V30 66544 H 6327.47 2.90683 -1.48899 0
M  V30 66545 H 6326.13 1.7007 -3.24764 0
M  V30 66546 H 6325.78 4.14464 -2.85007 0
M  V30 66547 H 6325.48 3.71488 -4.55269 0
M  V30 66548 H 6327 4.52802 -4.09637 0
M  V30 66549 H 6328.41 2.51638 -5.15123 0
M  V30 66550 H 6326.81 1.92985 -5.68223 0
M  V30 66551 H 6327.88 0.846189 -4.7746 0
M  V30 66552 N 6329.22 1.51918 0.419381 0
M  V30 66553 C 6330.45 1.69306 1.18924 0
M  V30 66554 C 6330.87 0.398089 1.84555 0
M  V30 66555 O 6330.22 -0.625023 1.71463 0
M  V30 66556 C 6330.28 2.82147 2.25999 0
M  V30 66557 O 6330 4.06628 1.63049 0
M  V30 66558 C 6331.5 3.10958 3.15943 0
M  V30 66559 H 6328.72 0.567669 0.357761 0
M  V30 66560 H 6331.26 1.98425 0.494738 0
M  V30 66561 H 6329.42 2.55576 2.91135 0
M  V30 66562 H 6329.83 4.69431 2.33954 0
M  V30 66563 H 6331.3 3.93452 3.87169 0
M  V30 66564 H 6331.78 2.24091 3.7773 0
M  V30 66565 H 6332.39 3.39255 2.56488 0
M  V30 66566 N 6330.7 -0.675973 1.42367 0
M  V30 66567 C 6332.11 -1.25654 1.38087 0
M  V30 66568 C 6332.46 -1.96062 0.0735634 0
M  V30 66569 O 6331.59 -1.99944 -0.827723 0
M  V30 66570 C 6332.18 -2.28522 2.50126 0
M  V30 66571 C 6330.74 -2.82109 2.49182 0
M  V30 66572 C 6329.89 -1.56414 2.28976 0
M  V30 66573 H 6332.84 -0.469435 1.51598 0
M  V30 66574 H 6332.86 -3.10232 2.2031 0
M  V30 66575 H 6332.37 -1.77249 3.4526 0
M  V30 66576 H 6330.48 -3.37506 1.57863 0
M  V30 66577 H 6330.59 -3.31204 3.4618 0
M  V30 66578 H 6328.95 -1.8294 1.77215 0
M  V30 66579 H 6329.74 -1.07108 3.26164 0
M  V30 66580 N 6332.18 -1.2852 -0.912164 0
M  V30 66581 C 6333.13 -1.12583 -2.01479 0
M  V30 66582 C 6334.1 -0.0225212 -1.66085 0
M  V30 66583 O 6335.28 -0.187747 -1.89874 0
M  V30 66584 C 6332.42 -0.795347 -3.3581 0
M  V30 66585 C 6331.54 -1.97785 -3.84064 0
M  V30 66586 C 6330.67 -1.58786 -5.06913 0
M  V30 66587 C 6329.71 -2.73691 -5.47503 0
M  V30 66588 N 6328.85 -2.35173 -6.61542 0
M  V30 66589 H 6333.69 -2.06926 -2.14443 0
M  V30 66590 H 6331.22 -1.02987 -1.05034 0
M  V30 66591 H 6333.18 -0.584484 -4.13085 0
M  V30 66592 H 6331.81 0.111153 -3.22609 0
M  V30 66593 H 6330.86 -2.30079 -3.02932 0
M  V30 66594 H 6332.18 -2.83928 -4.10105 0
M  V30 66595 H 6331.33 -1.33915 -5.91736 0
M  V30 66596 H 6330.07 -0.697736 -4.82683 0
M  V30 66597 H 6329.07 -2.99258 -4.61221 0
M  V30 66598 H 6330.3 -3.63348 -5.7372 0
M  V30 66599 H 6328.24 -1.48633 -6.3894 0
M  V30 66600 H 6328.16 -3.14851 -6.87317 0
M  V30 66601 H 6329.43 -2.1359 -7.49666 0
M  V30 66602 N 6333.66 1.12083 -1.10794 0
M  V30 66603 C 6334.89 1.8749 -0.874928 0
M  V30 66604 C 6335.3 1.79836 0.574844 0
M  V30 66605 O 6334.66 1.17488 1.39653 0
M  V30 66606 C 6334.71 3.36561 -1.31942 0
M  V30 66607 O 6334.43 3.4404 -2.71234 0
M  V30 66608 C 6335.93 4.28896 -1.12084 0
M  V30 66609 H 6333.15 0.593111 -0.313784 0
M  V30 66610 H 6335.7 1.41798 -1.47355 0
M  V30 66611 H 6333.85 3.79784 -0.764388 0
M  V30 66612 H 6334.26 4.36814 -2.90335 0
M  V30 66613 H 6335.74 5.31763 -1.48095 0
M  V30 66614 H 6336.22 4.39159 -0.0597976 0
M  V30 66615 H 6336.82 3.91459 -1.66252 0
M  V30 66616 N 6335.14 0.89724 1.29566 0
M  V30 66617 C 6336.38 0.520872 1.95272 0
M  V30 66618 C 6336.71 -0.935441 1.71098 0
M  V30 66619 O 6335.98 -1.65929 1.04137 0
M  V30 66620 H 6334.56 0.189636 0.722528 0
M  V30 66621 H 6337.22 1.143 1.57866 0
M  V30 66622 H 6336.31 0.7014 3.04116 0
M  V30 66623 N 6336.61 -1.43139 0.659463 0
M  V30 66624 C 6337.84 -2.06086 0.183338 0
M  V30 66625 C 6338.26 -1.49466 -1.15349 0
M  V30 66626 O 6337.61 -0.628401 -1.7134 0
M  V30 66627 C 6337.67 -3.6138 0.0929972 0
M  V30 66628 O 6337.39 -4.15897 1.37699 0
M  V30 66629 C 6338.89 -4.41414 -0.408461 0
M  V30 66630 H 6336.11 -0.664553 0.0927883 0
M  V30 66631 H 6338.65 -1.83539 0.901874 0
M  V30 66632 H 6336.81 -3.83092 -0.576134 0
M  V30 66633 H 6337.22 -5.09625 1.24027 0
M  V30 66634 H 6338.69 -5.50395 -0.420612 0
M  V30 66635 H 6339.17 -4.1489 -1.44093 0
M  V30 66636 H 6339.78 -4.24686 0.228396 0
M  V30 66637 N 6338.09 -0.401784 -1.52392 0
M  V30 66638 C 6339.34 0.176039 -2.01332 0
M  V30 66639 C 6339.66 1.4627 -1.28958 0
M  V30 66640 O 6338.93 1.9149 -0.413316 0
M  V30 66641 H 6337.51 0.0680435 -0.743895 0
M  V30 66642 H 6340.17 -0.53634 -1.87375 0
M  V30 66643 H 6339.27 0.377388 -3.0981 0
M  V30 66644 N 6339.57 1.57046 -0.131978 0
M  V30 66645 C 6340.82 1.94808 0.522739 0
M  V30 66646 C 6341.13 1.01843 1.66995 0
M  V30 66647 O 6342.34 1.29123 2.38829 0
M  V30 66648 C 6340.79 3.46263 0.981312 0
M  V30 66649 C 6340.4 4.47787 -0.138145 0
M  V30 66650 C 6342.15 3.9292 1.60667 0
M  V30 66651 C 6340.05 5.90434 0.337855 0
M  V30 66652 H 6338.98 0.727252 0.19905 0
M  V30 66653 H 6341.63 1.82249 -0.213915 0
M  V30 66654 H 6340.02 3.54103 1.77278 0
M  V30 66655 H 6341.19 4.51629 -0.91475 0
M  V30 66656 H 6339.51 4.10959 -0.670967 0
M  V30 66657 H 6342.1 4.96921 1.97417 0
M  V30 66658 H 6342.45 3.33624 2.48999 0
M  V30 66659 H 6342.98 3.87936 0.880377 0
M  V30 66660 H 6339.72 6.53515 -0.509732 0
M  V30 66661 H 6339.24 5.89985 1.08066 0
M  V30 66662 H 6340.92 6.42099 0.794827 0
M  V30 66663 N 6341.05 -0.14181 1.56961 0
M  V30 66664 C 6342.01 -1.15889 1.97743 0
M  V30 66665 C 6343.01 -1.35577 0.864604 0
M  V30 66666 O 6344.2 -1.32481 1.13112 0
M  V30 66667 C 6341.33 -2.51814 2.29788 0
M  V30 66668 H 6342.53 -0.808892 2.88785 0
M  V30 66669 H 6340.08 -0.385334 1.51476 0
M  V30 66670 H 6340.82 -2.91776 1.41554 0
M  V30 66671 H 6340.6 -2.38883 3.1093 0
M  V30 66672 H 6342.09 -3.25057 2.6216 0
M  V30 66673 N 6342.53 -1.52138 -0.411319 0
M  V30 66674 C 6343.78 -1.65318 -1.15555 0
M  V30 66675 C 6344.09 -0.388118 -1.91711 0
M  V30 66676 O 6345.3 -0.399683 -2.68542 0
M  V30 66677 C 6343.75 -2.92066 -2.10298 0
M  V30 66678 C 6343.36 -4.25672 -1.39669 0
M  V30 66679 C 6345.1 -3.14609 -2.84994 0
M  V30 66680 C 6343.01 -5.43546 -2.33048 0
M  V30 66681 H 6341.94 -0.615827 -0.435055 0
M  V30 66682 H 6344.59 -1.78624 -0.420208 0
M  V30 66683 H 6342.97 -2.72454 -2.87376 0
M  V30 66684 H 6344.15 -4.55759 -0.679709 0
M  V30 66685 H 6342.46 -4.09214 -0.770236 0
M  V30 66686 H 6345.06 -3.99851 -3.54997 0
M  V30 66687 H 6345.4 -2.28751 -3.4782 0
M  V30 66688 H 6345.94 -3.34683 -2.15016 0
M  V30 66689 H 6342.67 -6.31744 -1.74872 0
M  V30 66690 H 6342.19 -5.17801 -3.02725 0
M  V30 66691 H 6343.87 -5.76538 -2.93621 0
M  V30 66692 N 6344.01 0.668413 -1.42723 0
M  V30 66693 C 6345.23 1.46153 -1.47153 0
M  V30 66694 C 6345.66 1.87903 -0.0861313 0
M  V30 66695 O 6345.01 1.56409 0.916835 0
M  V30 66696 C 6345.06 2.68275 -2.40958 0
M  V30 66697 O 6344.17 3.66781 -1.88535 0
M  V30 66698 H 6343.51 0.438824 -0.498327 0
M  V30 66699 H 6346.04 0.819287 -1.8748 0
M  V30 66700 H 6346.05 3.16271 -2.57753 0
M  V30 66701 H 6344.72 2.37228 -3.41607 0
M  V30 66702 H 6343.3 3.25845 -1.81327 0
M  V30 66703 N 6345.48 1.29002 0.905335 0
M  V30 66704 C 6346.73 1.16819 1.65775 0
M  V30 66705 C 6347.06 -0.280869 1.92158 0
M  V30 66706 O 6346.34 -1.20345 1.52798 0
M  V30 66707 C 6346.62 1.97603 3.0104 0
M  V30 66708 C 6346.47 3.50618 2.81757 0
M  V30 66709 C 6347.79 1.79802 4.01696 0
M  V30 66710 H 6344.91 0.425737 0.601595 0
M  V30 66711 H 6347.55 1.58412 1.04907 0
M  V30 66712 H 6345.7 1.62259 3.52993 0
M  V30 66713 H 6347.38 3.95914 2.36749 0
M  V30 66714 H 6345.62 3.75826 2.1665 0
M  V30 66715 H 6346.29 4.02409 3.77851 0
M  V30 66716 H 6348.77 2.10662 3.58832 0
M  V30 66717 H 6347.64 2.38685 4.94288 0
M  V30 66718 H 6347.9 0.751713 4.35662 0
M  V30 66719 N 6346.96 -1.11493 1.11387 0
M  V30 66720 C 6347.91 -2.17517 0.771687 0
M  V30 66721 C 6348.88 -1.64107 -0.256559 0
M  V30 66722 O 6350.06 -1.90332 -0.133605 0
M  V30 66723 C 6347.2 -3.44395 0.220434 0
M  V30 66724 C 6346.32 -4.11812 1.30517 0
M  V30 66725 C 6345.45 -5.26373 0.714516 0
M  V30 66726 C 6344.49 -5.85673 1.77914 0
M  V30 66727 N 6343.63 -6.91629 1.20802 0
M  V30 66728 H 6348.47 -2.46132 1.67997 0
M  V30 66729 H 6346 -1.20829 0.838969 0
M  V30 66730 H 6347.96 -4.17036 -0.117139 0
M  V30 66731 H 6346.59 -3.16166 -0.651049 0
M  V30 66732 H 6345.64 -3.37251 1.75971 0
M  V30 66733 H 6346.96 -4.51943 2.11067 0
M  V30 66734 H 6346.11 -6.05818 0.326967 0
M  V30 66735 H 6344.85 -4.87547 -0.122308 0
M  V30 66736 H 6343.85 -5.04906 2.17601 0
M  V30 66737 H 6345.08 -6.26567 2.61899 0
M  V30 66738 H 6343.03 -6.54823 0.392832 0
M  V30 66739 H 6342.94 -7.30412 1.95024 0
M  V30 66740 H 6344.21 -7.74881 0.847344 0
M  V30 66741 N 6348.44 -0.904098 -1.29088 0
M  V30 66742 C 6349.85 -0.580158 -1.77457 0
M  V30 66743 C 6350.2 0.904313 -1.74117 0
M  V30 66744 O 6349.33 1.70719 -1.32981 0
M  V30 66745 C 6349.92 -1.04636 -3.22237 0
M  V30 66746 C 6348.48 -0.773504 -3.68366 0
M  V30 66747 C 6347.63 -1.21857 -2.49091 0
M  V30 66748 H 6350.58 -1.08637 -1.15688 0
M  V30 66749 H 6350.6 -0.383558 -3.78562 0
M  V30 66750 H 6350.11 -2.1268 -3.24636 0
M  V30 66751 H 6348.21 0.29414 -3.71437 0
M  V30 66752 H 6348.33 -1.37447 -4.58961 0
M  V30 66753 H 6346.69 -0.637477 -2.46593 0
M  V30 66754 H 6347.47 -2.30715 -2.54215 0
M  V30 66755 N 6349.92 1.42788 -0.667045 0
M  V30 66756 C 6350.83 2.34594 0.0163481 0
M  V30 66757 C 6351.84 1.5466 0.797267 0
M  V30 66758 O 6353.02 1.87259 0.741361 0
M  V30 66759 C 6350.08 3.33105 0.961352 0
M  V30 66760 C 6349.15 4.2894 0.175829 0
M  V30 66761 C 6348.38 5.22744 1.07582 0
M  V30 66762 O 6348.6 5.21297 2.31528 0
M  V30 66763 O 6347.54 5.99466 0.54079 0
M  V30 66764 H 6351.36 2.94555 -0.739682 0
M  V30 66765 H 6348.95 1.4316 -0.427258 0
M  V30 66766 H 6350.83 3.93644 1.50406 0
M  V30 66767 H 6349.5 2.75629 1.69737 0
M  V30 66768 H 6348.41 3.71838 -0.410798 0
M  V30 66769 H 6349.74 4.89436 -0.52091 0
M  V30 66770 N 6351.4 0.40986 1.52177 0
M  V30 66771 C 6352.62 -0.167629 2.06721 0
M  V30 66772 C 6353.05 -1.3803 1.27787 0
M  V30 66773 O 6352.4 -1.78659 0.308307 0
M  V30 66774 C 6352.45 -0.495736 3.57176 0
M  V30 66775 O 6351.56 -1.58661 3.80658 0
M  V30 66776 H 6350.9 -0.0138847 0.663855 0
M  V30 66777 H 6353.43 0.58327 1.9611 0
M  V30 66778 H 6353.44 -0.75416 4.00969 0
M  V30 66779 H 6352.11 0.390734 4.1406 0
M  V30 66780 H 6350.69 -1.3203 3.48744 0
M  V30 66781 N 6352.87 -1.56974 0.140305 0
M  V30 66782 C 6354.1 -2.00269 -0.519605 0
M  V30 66783 C 6354.52 -1.02032 -1.58855 0
M  V30 66784 O 6353.87 -0.0163161 -1.82493 0
M  V30 66785 C 6353.92 -3.43504 -1.12636 0
M  V30 66786 O 6353.65 -4.37986 -0.100123 0
M  V30 66787 C 6355.15 -4.02042 -1.86753 0
M  V30 66788 H 6352.37 -0.657106 -0.135842 0
M  V30 66789 H 6354.91 -2.03169 0.232918 0
M  V30 66790 H 6353.07 -3.41477 -1.82955 0
M  V30 66791 H 6353.48 -5.21674 -0.543745 0
M  V30 66792 H 6354.95 -5.04282 -2.24507 0
M  V30 66793 H 6355.43 -3.42377 -2.75091 0
M  V30 66794 H 6356.04 -4.0768 -1.21149 0
M  V30 66795 N 6354.35 0.133484 -1.57034 0
M  V30 66796 C 6355.31 1.14838 -1.98355 0
M  V30 66797 C 6356.31 1.35117 -0.871781 0
M  V30 66798 O 6357.5 1.3188 -1.13813 0
M  V30 66799 C 6354.64 2.50592 -2.3112 0
M  V30 66800 H 6355.83 0.793566 -2.8921 0
M  V30 66801 H 6353.38 0.377295 -1.51678 0
M  V30 66802 H 6354.12 2.91021 -1.43099 0
M  V30 66803 H 6353.9 2.37231 -3.12192 0
M  V30 66804 H 6355.39 3.23662 -2.6388 0
M  V30 66805 N 6355.83 1.52354 0.403245 0
M  V30 66806 C 6357.11 1.5727 1.163 0
M  V30 66807 C 6357.49 0.357254 2.08055 0
M  V30 66808 O 6356.84 -0.655474 2.18897 0
M  V30 66809 C 6357.05 2.90436 1.93515 0
M  V30 66810 C 6358.39 3.43652 2.49376 0
M  V30 66811 O 6359.42 2.92215 2.03688 0
M  V30 66812 O 6358.28 4.33486 3.32794 0
M  V30 66813 H 6355.37 0.633725 0.531339 0
M  V30 66814 H 6357.92 1.64684 0.409549 0
M  V30 66815 H 6356.69 3.70345 1.26333 0
M  V30 66816 H 6356.31 2.86341 2.75852 0
M  V30 66817 N 6357.31 -0.660835 1.43076 0
M  V30 66818 C 6358.24 -1.78636 1.43604 0
M  V30 66819 C 6359.25 -1.59354 0.333175 0
M  V30 66820 O 6360.44 -1.68216 0.597141 0
M  V30 66821 C 6357.54 -3.15952 1.22586 0
M  V30 66822 C 6356.72 -3.6196 2.45568 0
M  V30 66823 C 6355.77 -4.78054 2.19888 0
M  V30 66824 O 6354.8 -4.87883 2.93188 0
M  V30 66825 N 6356 -5.67734 1.21073 0
M  V30 66826 H 6358.77 -1.78664 2.40623 0
M  V30 66827 H 6356.33 -0.844418 1.38135 0
M  V30 66828 H 6358.32 -3.91294 1.03301 0
M  V30 66829 H 6356.89 -3.10741 0.3404 0
M  V30 66830 H 6356.11 -2.77145 2.80329 0
M  V30 66831 H 6357.4 -3.89443 3.27431 0
M  V30 66832 H 6356.8 -5.62458 0.60476 0
M  V30 66833 H 6355.35 -6.42828 1.07773 0
M  V30 66834 N 6358.79 -1.2948 -0.898481 0
M  V30 66835 C 6359.7 -1.16602 -2.03571 0
M  V30 66836 C 6360.71 -0.0889896 -1.73772 0
M  V30 66837 O 6361.89 -0.301298 -1.99134 0
M  V30 66838 C 6358.95 -0.844863 -3.36248 0
M  V30 66839 C 6358.01 -2.00586 -3.79557 0
M  V30 66840 C 6357.25 -1.69993 -5.05903 0
M  V30 66841 O 6357.47 -0.621445 -5.67005 0
M  V30 66842 O 6356.4 -2.54828 -5.45294 0
M  V30 66843 H 6360.23 -2.12105 -2.17359 0
M  V30 66844 H 6357.82 -1.08944 -1.02233 0
M  V30 66845 H 6359.7 -0.680375 -4.15871 0
M  V30 66846 H 6358.37 0.0803802 -3.236 0
M  V30 66847 H 6357.28 -2.22559 -3.00696 0
M  V30 66848 H 6358.61 -2.91235 -3.96791 0
M  V30 66849 N 6360.26 1.10901 -1.11976 0
M  V30 66850 C 6361.49 1.86552 -0.894765 0
M  V30 66851 C 6361.91 1.80436 0.555737 0
M  V30 66852 O 6361.26 1.18962 1.38399 0
M  V30 66853 C 6361.32 3.35143 -1.35504 0
M  V30 66854 O 6361.04 3.41144 -2.74868 0
M  V30 66855 C 6362.54 4.27683 -1.16627 0
M  V30 66856 H 6359.76 0.589749 -0.320057 0
M  V30 66857 H 6362.3 1.40227 -1.48851 0
M  V30 66858 H 6360.46 3.78952 -0.804626 0
M  V30 66859 H 6360.87 4.3371 -2.94951 0
M  V30 66860 H 6362.34 5.30162 -1.53727 0
M  V30 66861 H 6362.82 4.39071 -0.106373 0
M  V30 66862 H 6363.43 3.89674 -1.70395 0
M  V30 66863 N 6361.74 0.910931 1.28607 0
M  V30 66864 C 6362.97 0.557592 1.98933 0
M  V30 66865 C 6363.38 -0.864816 1.68278 0
M  V30 66866 O 6362.72 -1.58398 0.930368 0
M  V30 66867 C 6362.79 0.68346 3.52943 0
M  V30 66868 C 6362.45 2.0749 4.07182 0
M  V30 66869 C 6363.45 3.04731 4.21231 0
M  V30 66870 C 6361.13 2.38731 4.41942 0
M  V30 66871 C 6363.13 4.31332 4.69288 0
M  V30 66872 C 6360.81 3.65572 4.89694 0
M  V30 66873 C 6361.81 4.61687 5.03323 0
M  V30 66874 O 6361.5 5.86273 5.50035 0
M  V30 66875 H 6361.23 0.211542 0.642048 0
M  V30 66876 H 6363.78 1.22545 1.64839 0
M  V30 66877 H 6362.01 -0.0414596 3.86678 0
M  V30 66878 H 6363.7 0.337636 4.04493 0
M  V30 66879 H 6364.47 2.81912 3.94653 0
M  V30 66880 H 6360.35 1.64674 4.30585 0
M  V30 66881 H 6363.89 5.06357 4.79842 0
M  V30 66882 H 6359.79 3.88217 5.15711 0
M  V30 66883 H 6360.56 5.89022 5.68326 0
M  V30 66884 N 6363.22 -1.42432 0.674608 0
M  V30 66885 C 6364.47 -2.01143 0.196403 0
M  V30 66886 C 6364.79 -1.53609 -1.20122 0
M  V30 66887 O 6364.06 -0.757691 -1.80654 0
M  V30 66888 H 6362.64 -0.743749 0.0696199 0
M  V30 66889 H 6365.3 -1.74351 0.871074 0
M  V30 66890 H 6364.4 -3.11474 0.197536 0
M  V30 66891 N 6364.7 -0.417924 -1.51958 0
M  V30 66892 C 6365.95 0.154675 -2.01507 0
M  V30 66893 C 6366.27 1.44894 -1.30502 0
M  V30 66894 O 6365.54 1.91041 -0.433603 0
M  V30 66895 H 6364.12 0.0601497 -0.744574 0
M  V30 66896 H 6366.78 -0.556184 -1.86796 0
M  V30 66897 H 6365.88 0.344507 -3.10193 0
M  V30 66898 N 6366.18 1.56898 -0.148628 0
M  V30 66899 C 6367.14 2.15652 0.776339 0
M  V30 66900 C 6368.14 1.09871 1.17409 0
M  V30 66901 O 6369.33 1.35502 1.09475 0
M  V30 66902 C 6366.46 2.72095 2.05371 0
M  V30 66903 H 6367.65 2.98725 0.265222 0
M  V30 66904 H 6365.21 1.55974 0.100826 0
M  V30 66905 H 6365.94 1.92692 2.60845 0
M  V30 66906 H 6365.73 3.49486 1.7777 0
M  V30 66907 H 6367.22 3.17357 2.7143 0
M  V30 66908 N 6367.65 -0.125154 1.57102 0
M  V30 66909 C 6368.88 -0.852311 1.89078 0
M  V30 66910 C 6369.3 -1.72935 0.739939 0
M  V30 66911 O 6368.66 -1.78634 -0.309765 0
M  V30 66912 C 6368.71 -1.66676 3.19768 0
M  V30 66913 O 6367.81 -2.77313 3.0524 0
M  V30 66914 H 6367.16 -0.236081 0.620614 0
M  V30 66915 H 6369.69 -0.109401 2.04307 0
M  V30 66916 H 6369.7 -2.05728 3.52335 0
M  V30 66917 H 6368.37 -1.02289 4.03125 0
M  V30 66918 H 6366.95 -2.41509 2.84127 0
M  V30 66919 N 6369.13 -1.52566 -0.395159 0
M  V30 66920 C 6370.38 -1.67556 -1.14248 0
M  V30 66921 C 6370.71 -0.411202 -1.89797 0
M  V30 66922 O 6369.99 0.590826 -1.85309 0
M  V30 66923 C 6370.27 -2.90665 -2.1257 0
M  V30 66924 C 6370.12 -4.27186 -1.40826 0
M  V30 66925 C 6371.44 -3.09312 -3.13072 0
M  V30 66926 H 6368.56 -0.60975 -0.413973 0
M  V30 66927 H 6371.2 -1.8515 -0.426569 0
M  V30 66928 H 6369.35 -2.75796 -2.73621 0
M  V30 66929 H 6371.02 -4.53811 -0.82786 0
M  V30 66930 H 6369.27 -4.27948 -0.71013 0
M  V30 66931 H 6369.94 -5.09401 -2.12638 0
M  V30 66932 H 6372.41 -3.23171 -2.62106 0
M  V30 66933 H 6371.29 -3.96939 -3.79119 0
M  V30 66934 H 6371.55 -2.23251 -3.81591 0
M  V30 66935 N 6370.61 0.653238 -1.43424 0
M  V30 66936 C 6371.85 1.42493 -1.46544 0
M  V30 66937 C 6372.22 1.91802 -0.0871624 0
M  V30 66938 O 6373.42 2.68799 0.00695467 0
M  V30 66939 C 6371.69 2.57472 -2.47877 0
M  V30 66940 S 6373.25 3.45998 -2.69871 0
M  V30 66941 H 6370.06 0.486403 -0.518588 0
M  V30 66942 H 6372.67 0.758401 -1.8019 0
M  V30 66943 H 6371.37 2.19521 -3.46755 0
M  V30 66944 H 6370.9 3.28975 -2.15728 0
M  V30 66945 H 6372.92 4.54198 -1.99796 0
M  V30 66946 N 6372.09 1.29955 0.891602 0
M  V30 66947 C 6373.02 1.18338 2.01292 0
M  V30 66948 C 6374 0.0756169 1.69932 0
M  V30 66949 O 6375.19 0.256503 1.92499 0
M  V30 66950 C 6372.32 0.86754 3.3629 0
M  V30 66951 C 6371.27 1.93251 3.81888 0
M  V30 66952 C 6370.6 1.4698 5.14102 0
M  V30 66953 C 6371.9 3.3426 4.01332 0
M  V30 66954 H 6373.59 2.12146 2.11269 0
M  V30 66955 H 6371.14 1.02136 1.0151 0
M  V30 66956 H 6373.09 0.772951 4.1425 0
M  V30 66957 H 6371.81 -0.106227 3.26427 0
M  V30 66958 H 6370.47 2.01662 3.0615 0
M  V30 66959 H 6370.12 0.484487 5.00661 0
M  V30 66960 H 6369.82 2.18209 5.45581 0
M  V30 66961 H 6371.34 1.38887 5.94595 0
M  V30 66962 H 6372.76 3.28645 4.6975 0
M  V30 66963 H 6371.15 4.03517 4.44178 0
M  V30 66964 H 6372.22 3.7664 3.05402 0
M  V30 66965 N 6373.57 -1.10306 1.12563 0
M  V30 66966 C 6374.8 -1.85805 0.903334 0
M  V30 66967 C 6375.21 -1.81001 -0.550939 0
M  V30 66968 O 6374.55 -1.19787 -1.39273 0
M  V30 66969 C 6374.61 -3.35103 1.30177 0
M  V30 66970 C 6374.27 -3.63665 2.76761 0
M  V30 66971 C 6375.27 -3.60152 3.74949 0
M  V30 66972 C 6372.96 -3.92298 3.137 0
M  V30 66973 C 6374.95 -3.84868 5.0809 0
M  V30 66974 C 6372.64 -4.16671 4.47022 0
M  V30 66975 C 6373.64 -4.12946 5.44026 0
M  V30 66976 O 6373.32 -4.36697 6.74945 0
M  V30 66977 H 6373.06 -0.594046 0.322623 0
M  V30 66978 H 6375.61 -1.4035 1.49971 0
M  V30 66979 H 6373.84 -3.81222 0.648607 0
M  V30 66980 H 6375.53 -3.91993 1.05339 0
M  V30 66981 H 6376.29 -3.38068 3.47757 0
M  V30 66982 H 6372.17 -3.94327 2.38804 0
M  V30 66983 H 6375.72 -3.81876 5.83795 0
M  V30 66984 H 6371.61 -4.38234 4.73943 0
M  V30 66985 H 6372.38 -4.54205 6.80911 0
M  V30 66986 N 6375.05 -0.917739 -1.28122 0
M  V30 66987 C 6376.29 -0.560119 -1.96576 0
M  V30 66988 C 6376.65 0.880511 -1.70619 0
M  V30 66989 O 6377.85 1.34591 -2.32677 0
M  V30 66990 C 6376.12 -0.865446 -3.46763 0
M  V30 66991 S 6377.68 -0.614842 -4.34471 0
M  V30 66992 H 6374.5 -0.207112 -0.680166 0
M  V30 66993 H 6377.1 -1.18404 -1.55566 0
M  V30 66994 H 6375.8 -1.9118 -3.63151 0
M  V30 66995 H 6375.34 -0.230329 -3.92725 0
M  V30 66996 H 6377.35 0.531985 -4.9334 0
M  V30 66997 N 6376.52 1.42072 -0.682152 0
M  V30 66998 C 6377.94 1.55661 -0.352402 0
M  V30 66999 C 6378.14 1.66036 1.14168 0
M  V30 67000 O 6377.2 1.63135 1.92726 0
M  V30 67001 C 6378.51 2.80281 -1.08917 0
M  V30 67002 C 6380.06 2.94062 -1.07221 0
M  V30 67003 C 6380.53 4.21553 -1.79044 0
M  V30 67004 N 6382.02 4.28482 -1.75948 0
M  V30 67005 C 6382.76 5.2596 -2.28372 0
M  V30 67006 N 6382.25 6.29547 -2.8921 0
M  V30 67007 N 6384.05 5.17808 -2.18705 0
M  V30 67008 H 6376.2 1.33582 -1.65135 0
M  V30 67009 H 6378.46 0.643524 -0.696118 0
M  V30 67010 H 6378.17 2.78778 -2.14419 0
M  V30 67011 H 6378.04 3.71397 -0.659106 0
M  V30 67012 H 6380.43 2.95089 -0.0254904 0
M  V30 67013 H 6380.51 2.04158 -1.54121 0
M  V30 67014 H 6380.15 4.21288 -2.83688 0
M  V30 67015 H 6380.08 5.10406 -1.29588 0
M  V30 67016 H 6382.57 3.54253 -1.3158 0
M  V30 67017 H 6382.89 7.00295 -3.26813 0
M  V30 67018 H 6381.23 6.30088 -2.93282 0
M  V30 67019 H 6384.42 4.35804 -1.70859 0
M  V30 67020 H 6384.6 5.93611 -2.59866 0
M  V30 67021 N 6378 0.425977 1.51734 0
M  V30 67022 C 6378.96 -0.379418 2.26038 0
M  V30 67023 C 6379.96 -0.959395 1.29044 0
M  V30 67024 O 6381.15 -0.835627 1.52849 0
M  V30 67025 C 6378.29 -1.53569 3.04351 0
M  V30 67026 H 6379.48 0.27162 2.98667 0
M  V30 67027 H 6377.03 0.178874 1.55273 0
M  V30 67028 H 6377.77 -2.22311 2.36111 0
M  V30 67029 H 6377.55 -1.12612 3.75581 0
M  V30 67030 H 6379.04 -2.105 3.60665 0
M  V30 67031 N 6379.48 -1.56817 0.156946 0
M  V30 67032 C 6380.43 -2.13843 -0.790901 0
M  V30 67033 C 6381.41 -1.06885 -1.20268 0
M  V30 67034 O 6382.61 -1.33041 -1.16744 0
M  V30 67035 C 6379.73 -2.77143 -2.026 0
M  V30 67036 C 6378.82 -3.91239 -1.63686 0
M  V30 67037 N 6379.21 -4.96674 -0.956487 0
M  V30 67038 C 6377.51 -4.02131 -1.92889 0
M  V30 67039 C 6378.21 -5.7662 -0.767054 0
M  V30 67040 N 6377.19 -5.27727 -1.30403 0
M  V30 67041 H 6380.99 -2.9273 -0.261956 0
M  V30 67042 H 6378.5 -1.6234 -0.0442475 0
M  V30 67043 H 6380.5 -3.16365 -2.71512 0
M  V30 67044 H 6379.16 -1.99732 -2.56003 0
M  V30 67045 H 6380.17 -5.14222 -0.61613 0
M  V30 67046 H 6376.85 -3.35808 -2.48071 0
M  V30 67047 H 6378.24 -6.71506 -0.230076 0
M  V30 67048 N 6380.96 0.116821 -1.57166 0
M  V30 67049 C 6382.21 0.822808 -1.84154 0
M  V30 67050 C 6382.52 1.80942 -0.742931 0
M  V30 67051 O 6383.73 2.56174 -0.89928 0
M  V30 67052 C 6382.18 1.51402 -3.26505 0
M  V30 67053 C 6381.79 0.56829 -4.44381 0
M  V30 67054 C 6383.53 2.20501 -3.62739 0
M  V30 67055 C 6381.44 1.26285 -5.77759 0
M  V30 67056 H 6380.37 0.311022 -0.686863 0
M  V30 67057 H 6383.02 0.0755678 -1.83344 0
M  V30 67058 H 6381.4 2.30796 -3.21791 0
M  V30 67059 H 6382.58 -0.19259 -4.60397 0
M  V30 67060 H 6380.89 -0.0158522 -4.16397 0
M  V30 67061 H 6383.49 2.73161 -4.5966 0
M  V30 67062 H 6383.83 2.98401 -2.9028 0
M  V30 67063 H 6384.37 1.47993 -3.69246 0
M  V30 67064 H 6381.1 0.525102 -6.53393 0
M  V30 67065 H 6380.62 1.99569 -5.65625 0
M  V30 67066 H 6382.3 1.79544 -6.21589 0
M  V30 67067 N 6382.44 1.52773 0.387063 0
M  V30 67068 C 6383.35 1.80615 1.49718 0
M  V30 67069 C 6384.36 0.693037 1.59603 0
M  V30 67070 O 6385.54 0.980832 1.75902 0
M  V30 67071 C 6382.6 1.97093 2.85229 0
M  V30 67072 C 6381.66 3.21007 2.85049 0
M  V30 67073 C 6380.9 3.36689 4.14097 0
M  V30 67074 O 6381.12 2.57135 5.09154 0
M  V30 67075 O 6380.05 4.29952 4.21218 0
M  V30 67076 H 6383.88 2.74885 1.29121 0
M  V30 67077 H 6381.46 1.37888 0.575092 0
M  V30 67078 H 6383.35 2.09626 3.65561 0
M  V30 67079 H 6382.02 1.06013 3.05848 0
M  V30 67080 H 6380.93 3.13914 2.03492 0
M  V30 67081 H 6382.26 4.1194 2.69382 0
M  V30 67082 N 6383.91 -0.645623 1.43769 0
M  V30 67083 C 6384.86 -1.75158 1.45958 0
M  V30 67084 C 6385.85 -1.5754 0.327092 0
M  V30 67085 O 6387.04 -1.67523 0.571406 0
M  V30 67086 C 6384.17 -3.13782 1.39268 0
M  V30 67087 C 6383.25 -3.36921 2.57576 0
M  V30 67088 N 6383.65 -3.30495 3.82893 0
M  V30 67089 C 6381.94 -3.67667 2.52462 0
M  V30 67090 C 6382.64 -3.53924 4.61642 0
M  V30 67091 N 6381.62 -3.76102 3.92489 0
M  V30 67092 H 6385.42 -1.68626 2.40713 0
M  V30 67093 H 6382.94 -0.84757 1.38528 0
M  V30 67094 H 6384.93 -3.93074 1.38919 0
M  V30 67095 H 6383.59 -3.21491 0.455398 0
M  V30 67096 H 6384.6 -3.09736 4.15071 0
M  V30 67097 H 6381.28 -3.82445 1.67459 0
M  V30 67098 H 6382.67 -3.5467 5.70665 0
M  V30 67099 N 6385.39 -1.30426 -0.884698 0
M  V30 67100 C 6386.8 -1.17363 -1.452 0
M  V30 67101 C 6387.15 0.225577 -1.94899 0
M  V30 67102 O 6386.28 1.12228 -1.85024 0
M  V30 67103 C 6386.87 -2.12448 -2.63916 0
M  V30 67104 C 6385.43 -2.03362 -3.16735 0
M  V30 67105 C 6384.58 -2.02514 -1.89429 0
M  V30 67106 H 6387.53 -1.42692 -0.694609 0
M  V30 67107 H 6387.55 -1.70547 -3.40138 0
M  V30 67108 H 6387.06 -3.14275 -2.27713 0
M  V30 67109 H 6385.17 -1.04678 -3.57594 0
M  V30 67110 H 6385.28 -2.91762 -3.80016 0
M  V30 67111 H 6383.64 -1.4732 -2.07771 0
M  V30 67112 H 6384.43 -3.06072 -1.55483 0
M  V30 67113 N 6386.87 1.09707 -1.13146 0
M  V30 67114 C 6388.15 1.78374 -0.802628 0
M  V30 67115 C 6388.53 1.98933 0.706322 0
M  V30 67116 O 6387.88 1.58841 1.64261 0
M  V30 67117 C 6388.09 3.10868 -1.58626 0
M  V30 67118 C 6389.43 3.85623 -1.77709 0
M  V30 67119 O 6390.46 3.20611 -1.552 0
M  V30 67120 O 6389.32 5.02326 -2.15245 0
M  V30 67121 H 6386.41 0.773453 -0.292746 0
M  V30 67122 H 6388.96 1.16289 -1.23591 0
M  V30 67123 H 6387.73 2.9137 -2.61188 0
M  V30 67124 H 6387.35 3.80675 -1.14772 0
M  V30 67125 N 6388.35 0.924521 1.27634 0
M  V30 67126 C 6389.59 0.564122 1.94796 0
M  V30 67127 C 6389.93 -0.891802 1.72512 0
M  V30 67128 O 6389.2 -1.63573 1.05234 0
M  V30 67129 C 6389.49 0.887011 3.49004 0
M  V30 67130 C 6389.34 2.39645 3.80644 0
M  V30 67131 C 6390.66 0.390668 4.38363 0
M  V30 67132 H 6387.78 0.206424 0.707501 0
M  V30 67133 H 6390.42 1.15572 1.50808 0
M  V30 67134 H 6388.57 0.383542 3.86602 0
M  V30 67135 H 6390.24 2.97137 3.52856 0
M  V30 67136 H 6388.48 2.84697 3.27308 0
M  V30 67137 H 6389.15 2.57291 4.8837 0
M  V30 67138 H 6391.63 0.822115 4.07898 0
M  V30 67139 H 6390.51 0.645573 5.4509 0
M  V30 67140 H 6390.77 -0.709212 4.36374 0
M  V30 67141 N 6389.83 -1.41708 0.689677 0
M  V30 67142 C 6391.05 -2.0617 0.225498 0
M  V30 67143 C 6391.48 -1.51539 -1.11434 0
M  V30 67144 O 6390.83 -0.639925 -1.69631 0
M  V30 67145 C 6390.88 -3.60114 0.187216 0
M  V30 67146 O 6389.99 -4.0376 -0.839748 0
M  V30 67147 H 6389.33 -0.654547 0.111644 0
M  V30 67148 H 6391.86 -1.81579 0.942878 0
M  V30 67149 H 6391.87 -4.07997 0.0160803 0
M  V30 67150 H 6390.54 -3.99247 1.16511 0
M  V30 67151 H 6389.12 -3.67394 -0.638446 0
M  V30 67152 N 6391.3 -0.434018 -1.51506 0
M  V30 67153 C 6392.55 0.133294 -2.0166 0
M  V30 67154 C 6392.87 1.43501 -1.32032 0
M  V30 67155 O 6392.14 1.9057 -0.453841 0
M  V30 67156 H 6390.72 0.0522491 -0.74517 0
M  V30 67157 H 6393.39 -0.575964 -1.86195 0
M  V30 67158 H 6392.48 0.311588 -3.10541 0
M  V30 67159 N 6392.78 1.56731 -0.165261 0
M  V30 67160 C 6394.03 1.9699 0.481955 0
M  V30 67161 C 6394.36 1.05099 1.63303 0
M  V30 67162 O 6393.64 0.0969186 1.94258 0
M  V30 67163 C 6393.92 3.46769 0.97072 0
M  V30 67164 C 6393.77 4.49439 -0.180114 0
M  V30 67165 C 6395.09 3.99494 1.84643 0
M  V30 67166 H 6392.21 0.716234 0.173716 0
M  V30 67167 H 6394.85 1.88346 -0.250174 0
M  V30 67168 H 6393 3.54267 1.59459 0
M  V30 67169 H 6394.67 4.54007 -0.81703 0
M  V30 67170 H 6392.92 4.25658 -0.836533 0
M  V30 67171 H 6393.59 5.51623 0.203896 0
M  V30 67172 H 6396.06 3.9459 1.32054 0
M  V30 67173 H 6394.94 5.04723 2.15745 0
M  V30 67174 H 6395.2 3.42944 2.79001 0
M  V30 67175 N 6394.26 -0.108484 1.57226 0
M  V30 67176 C 6395.5 -0.820171 1.87223 0
M  V30 67177 C 6395.86 -1.7655 0.754586 0
M  V30 67178 O 6397.07 -2.51955 0.936607 0
M  V30 67179 C 6395.34 -1.54133 3.22456 0
M  V30 67180 S 6396.9 -2.29314 3.74113 0
M  V30 67181 H 6393.71 -0.273526 0.656281 0
M  V30 67182 H 6396.32 -0.0779638 1.95344 0
M  V30 67183 H 6395.02 -0.839014 4.01732 0
M  V30 67184 H 6394.55 -2.3237 3.17439 0
M  V30 67185 H 6396.57 -3.55222 3.46456 0
M  V30 67186 N 6395.74 -1.52976 -0.378955 0
M  V30 67187 C 6396.69 -1.78468 -1.46348 0
M  V30 67188 C 6397.66 -0.628362 -1.53756 0
M  V30 67189 O 6398.84 -0.869143 -1.69854 0
M  V30 67190 C 6395.98 -1.96837 -2.8346 0
M  V30 67191 C 6395.09 -3.24543 -2.85125 0
M  V30 67192 C 6394.23 -3.33173 -4.13726 0
M  V30 67193 C 6393.27 -4.54963 -4.09482 0
M  V30 67194 N 6392.4 -4.60819 -5.29707 0
M  V30 67195 H 6397.24 -2.71017 -1.23911 0
M  V30 67196 H 6394.78 -1.34265 -0.600935 0
M  V30 67197 H 6396.74 -2.05472 -3.63094 0
M  V30 67198 H 6395.37 -1.07638 -3.04325 0
M  V30 67199 H 6394.42 -3.24928 -1.97802 0
M  V30 67200 H 6395.73 -4.14242 -2.77858 0
M  V30 67201 H 6394.89 -3.41046 -5.01769 0
M  V30 67202 H 6393.63 -2.41466 -4.23728 0
M  V30 67203 H 6392.63 -4.47204 -3.19826 0
M  V30 67204 H 6393.86 -5.47997 -4.01094 0
M  V30 67205 H 6391.8 -3.72008 -5.4032 0
M  V30 67206 H 6391.72 -5.44404 -5.24557 0
M  V30 67207 H 6392.99 -4.7296 -6.1962 0
M  V30 67208 N 6397.22 0.637989 -1.44109 0
M  V30 67209 C 6398.45 1.42298 -1.49783 0
M  V30 67210 C 6398.85 1.88824 -0.119153 0
M  V30 67211 O 6398.2 1.61037 0.883896 0
M  V30 67212 C 6398.26 2.68125 -2.39477 0
M  V30 67213 C 6397.92 2.4344 -3.86764 0
M  V30 67214 C 6398.92 2.05699 -4.77477 0
M  V30 67215 C 6396.61 2.57292 -4.314 0
M  V30 67216 C 6398.6 1.8213 -6.10825 0
M  V30 67217 C 6396.29 2.33337 -5.64798 0
M  V30 67218 C 6397.28 1.95814 -6.54329 0
M  V30 67219 O 6396.97 1.7212 -7.85258 0
M  V30 67220 H 6396.7 0.443084 -0.510542 0
M  V30 67221 H 6399.26 0.788077 -1.8968 0
M  V30 67222 H 6397.49 3.34229 -1.94494 0
M  V30 67223 H 6399.18 3.30113 -2.36179 0
M  V30 67224 H 6399.94 1.9456 -4.44265 0
M  V30 67225 H 6395.82 2.85471 -3.61977 0
M  V30 67226 H 6399.37 1.52766 -6.80668 0
M  V30 67227 H 6395.26 2.44084 -5.97573 0
M  V30 67228 H 6396.03 1.86422 -7.96988 0
M  V30 67229 N 6398.69 1.30893 0.877769 0
M  V30 67230 C 6399.64 1.17885 1.98423 0
M  V30 67231 C 6400.61 0.0665477 1.65967 0
M  V30 67232 O 6401.8 0.238022 1.8931 0
M  V30 67233 C 6398.94 0.884102 3.33583 0
M  V30 67234 C 6398.05 2.07898 3.78685 0
M  V30 67235 C 6397.18 1.7217 5.02525 0
M  V30 67236 C 6396.22 2.88111 5.40054 0
M  V30 67237 N 6395.36 2.5263 6.55074 0
M  V30 67238 H 6400.2 2.12538 2.08881 0
M  V30 67239 H 6397.74 1.05736 1.02266 0
M  V30 67240 H 6399.7 0.693801 4.11391 0
M  V30 67241 H 6398.33 -0.0255798 3.2279 0
M  V30 67242 H 6397.38 2.3803 2.96725 0
M  V30 67243 H 6398.69 2.94701 4.02433 0
M  V30 67244 H 6397.84 1.49556 5.87978 0
M  V30 67245 H 6396.58 0.825465 4.80663 0
M  V30 67246 H 6395.59 3.11382 4.53124 0
M  V30 67247 H 6396.81 3.78431 5.63885 0
M  V30 67248 H 6394.76 1.65521 6.34775 0
M  V30 67249 H 6394.68 3.32964 6.78728 0
M  V30 67250 H 6395.94 2.33391 7.4374 0
M  V30 67251 N 6400.17 -1.09106 1.13726 0
M  V30 67252 C 6401.42 -1.80991 0.899268 0
M  V30 67253 C 6401.74 -1.86298 -0.576019 0
M  V30 67254 O 6401.01 -1.35091 -1.4187 0
M  V30 67255 H 6399.59 -0.6703 0.329708 0
M  V30 67256 H 6402.25 -1.31945 1.43445 0
M  V30 67257 H 6401.35 -2.8406 1.29291 0
M  V30 67258 N 6401.65 -0.931276 -1.27142 0
M  V30 67259 C 6402.6 -0.431779 -2.26725 0
M  V30 67260 C 6403.57 0.50324 -1.58293 0
M  V30 67261 O 6404.75 0.421616 -1.86083 0
M  V30 67262 C 6401.89 0.306087 -3.4374 0
M  V30 67263 C 6401.01 -0.663457 -4.26875 0
M  V30 67264 C 6400.14 0.0946112 -5.31116 0
M  V30 67265 C 6399.18 -0.867404 -6.05923 0
M  V30 67266 N 6398.32 -0.141732 -7.01957 0
M  V30 67267 H 6403.16 -1.28596 -2.68825 0
M  V30 67268 H 6400.69 -0.645376 -1.32187 0
M  V30 67269 H 6402.65 0.750243 -4.10399 0
M  V30 67270 H 6401.28 1.12448 -3.02581 0
M  V30 67271 H 6400.33 -1.22614 -3.60097 0
M  V30 67272 H 6401.65 -1.39853 -4.78793 0
M  V30 67273 H 6400.8 0.598516 -6.03741 0
M  V30 67274 H 6399.54 0.862626 -4.8001 0
M  V30 67275 H 6398.54 -1.38253 -5.32134 0
M  V30 67276 H 6399.77 -1.63526 -6.59118 0
M  V30 67277 H 6397.72 0.607972 -6.53177 0
M  V30 67278 H 6397.63 -0.816308 -7.5158 0
M  V30 67279 H 6398.9 0.341404 -7.78752 0
M  V30 67280 N 6403.13 1.4134 -0.697182 0
M  V30 67281 C 6404.38 2.01203 -0.22883 0
M  V30 67282 C 6404.7 1.55219 1.17206 0
M  V30 67283 O 6403.96 0.754949 1.80552 0
M  V30 67284 C 6404.26 3.56616 -0.236585 0
M  V30 67285 C 6403.92 4.22116 -1.58522 0
M  V30 67286 C 6402.59 4.39722 -1.95443 0
M  V30 67287 C 6404.94 4.58827 -2.4724 0
M  V30 67288 C 6402.27 4.91316 -3.20664 0
M  V30 67289 C 6404.62 5.11812 -3.71795 0
M  V30 67290 C 6403.28 5.27629 -4.08857 0
M  V30 67291 H 6402.55 0.736254 -0.083735 0
M  V30 67292 H 6405.2 1.69214 -0.896589 0
M  V30 67293 H 6403.5 3.88404 0.514726 0
M  V30 67294 H 6405.2 4.00744 0.143349 0
M  V30 67295 H 6401.79 4.08787 -1.28806 0
M  V30 67296 H 6405.98 4.44877 -2.19995 0
M  V30 67297 H 6401.23 5.01747 -3.49371 0
M  V30 67298 H 6405.41 5.39198 -4.40725 0
M  V30 67299 H 6403.03 5.67371 -5.05959 0
M  V30 67300 N 6404.61 0.442047 1.51274 0
M  V30 67301 C 6405.85 -0.123022 2.02427 0
M  V30 67302 C 6406.19 -1.41949 1.3253 0
M  V30 67303 O 6405.46 -1.89418 0.441706 0
M  V30 67304 C 6405.74 -0.336917 3.5852 0
M  V30 67305 C 6405.6 0.978528 4.39027 0
M  V30 67306 C 6406.92 -1.10459 4.26013 0
M  V30 67307 H 6404.04 -0.0432364 0.735731 0
M  V30 67308 H 6406.68 0.581965 1.80868 0
M  V30 67309 H 6404.83 -0.937428 3.77021 0
M  V30 67310 H 6406.5 1.61338 4.32166 0
M  V30 67311 H 6404.74 1.58203 4.03924 0
M  V30 67312 H 6405.41 0.782852 5.46421 0
M  V30 67313 H 6407.89 -0.595876 4.11811 0
M  V30 67314 H 6406.77 -1.22302 5.35101 0
M  V30 67315 H 6407.03 -2.13388 3.87193 0
M  V30 67316 N 6406.09 -1.56641 0.17357 0
M  V30 67317 C 6407.02 -2.15254 -0.787306 0
M  V30 67318 C 6408.03 -1.1087 -1.19213 0
M  V30 67319 O 6409.22 -1.38048 -1.13159 0
M  V30 67320 C 6406.32 -2.68217 -2.07154 0
M  V30 67321 C 6405.49 -3.97282 -1.82992 0
M  V30 67322 C 6404.55 -4.35287 -2.95655 0
M  V30 67323 O 6403.58 -5.0312 -2.66193 0
M  V30 67324 N 6404.78 -3.97029 -4.23495 0
M  V30 67325 H 6407.54 -2.9833 -0.286205 0
M  V30 67326 H 6405.11 -1.61897 -0.00913566 0
M  V30 67327 H 6407.1 -2.90639 -2.81622 0
M  V30 67328 H 6405.67 -1.89717 -2.48448 0
M  V30 67329 H 6404.89 -3.83214 -0.924164 0
M  V30 67330 H 6406.18 -4.8157 -1.6422 0
M  V30 67331 H 6405.57 -3.42423 -4.50292 0
M  V30 67332 H 6404.13 -4.24447 -4.9466 0
M  V30 67333 N 6407.56 0.100145 -1.57281 0
M  V30 67334 C 6408.81 0.80323 -1.85017 0
M  V30 67335 C 6409.13 1.80144 -0.76208 0
M  V30 67336 O 6410.33 2.55206 -0.9264 0
M  V30 67337 C 6408.79 1.47931 -3.28092 0
M  V30 67338 C 6408.4 0.521125 -4.44959 0
M  V30 67339 C 6410.14 2.16642 -3.65057 0
M  V30 67340 C 6408.05 1.2015 -5.79066 0
M  V30 67341 H 6406.98 0.30372 -0.690123 0
M  V30 67342 H 6409.63 0.0561174 -1.83414 0
M  V30 67343 H 6408.01 2.2737 -3.2422 0
M  V30 67344 H 6409.18 -0.241411 -4.60167 0
M  V30 67345 H 6407.5 -0.0600158 -4.16357 0
M  V30 67346 H 6410.1 2.6827 -4.62531 0
M  V30 67347 H 6410.44 2.95306 -2.93429 0
M  V30 67348 H 6410.97 1.44068 -3.70795 0
M  V30 67349 H 6407.71 0.455771 -6.53914 0
M  V30 67350 H 6407.23 1.93559 -5.6771 0
M  V30 67351 H 6408.91 1.72941 -6.23458 0
M  V30 67352 N 6409.04 1.53175 0.370837 0
M  V30 67353 C 6410.45 1.60847 0.947903 0
M  V30 67354 C 6410.8 0.472595 1.90423 0
M  V30 67355 O 6409.93 -0.401748 2.12638 0
M  V30 67356 C 6410.52 2.9154 1.72597 0
M  V30 67357 C 6409.08 3.01565 2.25246 0
M  V30 67358 C 6408.23 2.56104 1.06331 0
M  V30 67359 H 6411.18 1.57991 0.149796 0
M  V30 67360 H 6411.2 2.79047 2.58675 0
M  V30 67361 H 6410.71 3.74191 1.02969 0
M  V30 67362 H 6408.81 2.2349 2.98133 0
M  V30 67363 H 6408.93 4.06547 2.53488 0
M  V30 67364 H 6407.29 2.10854 1.42873 0
M  V30 67365 H 6408.07 3.41167 0.38209 0
M  V30 67366 N 6410.52 -0.630338 1.44445 0
M  V30 67367 C 6411.48 -1.72416 1.51014 0
M  V30 67368 C 6412.48 -1.55946 0.392093 0
M  V30 67369 O 6413.67 -1.61427 0.654745 0
M  V30 67370 C 6410.8 -3.11505 1.38483 0
M  V30 67371 H 6412 -1.67966 2.4845 0
M  V30 67372 H 6409.55 -0.844068 1.31549 0
M  V30 67373 H 6410.29 -3.2155 0.421441 0
M  V30 67374 H 6410.07 -3.24866 2.19555 0
M  V30 67375 H 6411.56 -3.91223 1.46063 0
M  V30 67376 N 6412 -1.31357 -0.870815 0
M  V30 67377 C 6412.93 -1.14755 -1.98404 0
M  V30 67378 C 6413.94 -0.0868595 -1.62568 0
M  V30 67379 O 6415.13 -0.334271 -1.75342 0
M  V30 67380 C 6412.23 -0.730909 -3.30924 0
M  V30 67381 C 6411.4 -1.87642 -3.95107 0
M  V30 67382 C 6410.46 -1.44598 -5.05942 0
M  V30 67383 O 6409.49 -2.15549 -5.26808 0
M  V30 67384 N 6410.69 -0.332901 -5.79545 0
M  V30 67385 H 6413.46 -2.1064 -2.13192 0
M  V30 67386 H 6411.02 -1.2368 -1.04474 0
M  V30 67387 H 6413.01 -0.425679 -4.02455 0
M  V30 67388 H 6411.58 0.136317 -3.12303 0
M  V30 67389 H 6410.8 -2.34902 -3.16567 0
M  V30 67390 H 6412.09 -2.64371 -4.34725 0
M  V30 67391 H 6411.49 0.257989 -5.65111 0
M  V30 67392 H 6410.04 -0.0872006 -6.51742 0
M  V30 67393 N 6413.48 1.08501 -1.14303 0
M  V30 67394 C 6414.72 1.82473 -0.921022 0
M  V30 67395 C 6415.08 1.8417 0.542705 0
M  V30 67396 O 6416.28 2.53896 0.882627 0
M  V30 67397 C 6414.55 3.242 -1.50429 0
M  V30 67398 S 6416.11 4.15061 -1.42371 0
M  V30 67399 H 6412.93 0.62886 -0.331748 0
M  V30 67400 H 6415.53 1.30426 -1.45634 0
M  V30 67401 H 6414.23 3.20547 -2.56277 0
M  V30 67402 H 6413.77 3.81322 -0.967321 0
M  V30 67403 H 6415.78 4.94515 -0.40858 0
M  V30 67404 N 6414.95 0.938006 1.26646 0
M  V30 67405 C 6416.2 0.584751 1.94187 0
M  V30 67406 C 6416.53 -0.873455 1.73449 0
M  V30 67407 O 6415.81 -1.62448 1.06963 0
M  V30 67408 C 6416.09 0.923977 3.48044 0
M  V30 67409 C 6415.94 2.43669 3.78081 0
M  V30 67410 C 6417.26 0.43714 4.37924 0
M  V30 67411 H 6414.38 0.213917 0.705272 0
M  V30 67412 H 6417.02 1.17165 1.49574 0
M  V30 67413 H 6415.17 0.424525 3.86174 0
M  V30 67414 H 6416.85 3.00863 3.49685 0
M  V30 67415 H 6415.09 2.88152 3.2427 0
M  V30 67416 H 6415.76 2.62456 4.85614 0
M  V30 67417 H 6418.24 0.865332 4.07003 0
M  V30 67418 H 6417.11 0.703351 5.44375 0
M  V30 67419 H 6417.37 -0.662889 4.37102 0
M  V30 67420 N 6416.43 -1.40969 0.704668 0
M  V30 67421 C 6417.85 -1.5508 0.377122 0
M  V30 67422 C 6418.05 -1.67831 -1.11512 0
M  V30 67423 O 6417.1 -1.6618 -1.90106 0
M  V30 67424 C 6418.42 -2.78513 1.13362 0
M  V30 67425 C 6419.97 -2.92319 1.11885 0
M  V30 67426 C 6420.44 -4.18651 1.85728 0
M  V30 67427 N 6421.93 -4.25628 1.82743 0
M  V30 67428 C 6422.67 -5.2226 2.36711 0
M  V30 67429 N 6422.16 -6.24866 2.99189 0
M  V30 67430 N 6423.96 -5.14263 2.26915 0
M  V30 67431 H 6416.11 -1.30938 1.6724 0
M  V30 67432 H 6418.37 -0.632368 0.706268 0
M  V30 67433 H 6418.08 -2.75332 2.18827 0
M  V30 67434 H 6417.95 -3.70301 0.718108 0
M  V30 67435 H 6420.34 -2.95011 0.0724333 0
M  V30 67436 H 6420.42 -2.0168 1.5735 0
M  V30 67437 H 6420.06 -4.16721 2.90355 0
M  V30 67438 H 6419.99 -5.0828 1.37692 0
M  V30 67439 H 6422.48 -3.52115 1.372 0
M  V30 67440 H 6422.8 -6.95007 3.37913 0
M  V30 67441 H 6421.14 -6.25342 3.03269 0
M  V30 67442 H 6424.33 -4.3303 1.7777 0
M  V30 67443 H 6424.5 -5.89401 2.69277 0
M  V30 67444 N 6417.91 -0.450063 -1.51037 0
M  V30 67445 C 6419.19 0.172677 -1.94836 0
M  V30 67446 C 6419.57 1.58929 -1.38942 0
M  V30 67447 O 6418.92 2.20972 -0.581687 0
M  V30 67448 C 6419.13 0.137456 -3.48729 0
M  V30 67449 C 6420.47 0.336761 -4.23262 0
M  V30 67450 O 6421.5 0.214999 -3.55551 0
M  V30 67451 O 6420.36 0.580357 -5.4341 0
M  V30 67452 H 6417.45 0.123091 -0.817788 0
M  V30 67453 H 6420 -0.508957 -1.61888 0
M  V30 67454 H 6418.77 -0.852421 -3.81902 0
M  V30 67455 H 6418.39 0.861456 -3.88156 0
M  V30 67456 N 6419.39 1.56547 -0.181875 0
M  V30 67457 C 6420.8 1.83706 0.333035 0
M  V30 67458 C 6421.15 1.10208 1.62322 0
M  V30 67459 O 6420.28 0.358551 2.13409 0
M  V30 67460 C 6420.87 3.33245 0.611017 0
M  V30 67461 C 6419.43 3.60861 1.07033 0
M  V30 67462 C 6418.58 2.77074 0.111831 0
M  V30 67463 H 6421.53 1.53421 -0.405932 0
M  V30 67464 H 6421.55 3.51297 1.46188 0
M  V30 67465 H 6421.06 3.8671 -0.328175 0
M  V30 67466 H 6419.16 3.12817 2.02426 0
M  V30 67467 H 6419.27 4.69132 0.972192 0
M  V30 67468 H 6417.64 2.47257 0.611215 0
M  V30 67469 H 6418.42 3.33324 -0.821569 0
M  V30 67470 N 6420.87 -0.0918024 1.57332 0
M  V30 67471 C 6422.11 -0.795869 1.86531 0
M  V30 67472 C 6422.45 -1.7822 0.77145 0
M  V30 67473 O 6421.72 -1.93249 -0.220258 0
M  V30 67474 C 6422 -1.52169 3.26369 0
M  V30 67475 C 6421.86 -0.553124 4.46386 0
M  V30 67476 C 6423.18 -2.47147 3.64151 0
M  V30 67477 H 6420.29 -0.287872 0.678453 0
M  V30 67478 H 6422.94 -0.0594284 1.89907 0
M  V30 67479 H 6421.09 -2.14945 3.23622 0
M  V30 67480 H 6422.76 0.0678861 4.6125 0
M  V30 67481 H 6421 0.133228 4.33595 0
M  V30 67482 H 6421.67 -1.09819 5.40966 0
M  V30 67483 H 6424.15 -1.94462 3.67864 0
M  V30 67484 H 6423.02 -2.94947 4.62922 0
M  V30 67485 H 6423.29 -3.31054 2.93011 0
M  V30 67486 N 6422.34 -1.53369 -0.362709 0
M  V30 67487 C 6423.59 -1.69356 -1.10286 0
M  V30 67488 C 6423.91 -0.449433 -1.8975 0
M  V30 67489 O 6423.18 0.536541 -1.88409 0
M  V30 67490 H 6421.76 -0.624335 -0.41014 0
M  V30 67491 H 6424.43 -1.90568 -0.408627 0
M  V30 67492 H 6423.52 -2.55593 -1.79106 0
M  V30 67493 N 6423.82 0.622669 -1.44778 0
M  V30 67494 C 6425.07 1.38205 -1.48005 0
M  V30 67495 C 6425.4 1.94154 -0.115903 0
M  V30 67496 O 6424.65 1.74624 0.883461 0
M  V30 67497 C 6424.95 2.55927 -2.49472 0
M  V30 67498 C 6424.62 2.18216 -3.94579 0
M  V30 67499 C 6423.28 2.07645 -4.34093 0
M  V30 67500 C 6425.63 1.88557 -4.85897 0
M  V30 67501 C 6422.96 1.65614 -5.6284 0
M  V30 67502 C 6425.31 1.48017 -6.1504 0
M  V30 67503 C 6423.98 1.35993 -6.535 0
M  V30 67504 H 6423.25 0.505729 -0.54159 0
M  V30 67505 H 6425.89 0.705278 -1.7804 0
M  V30 67506 H 6424.2 3.28875 -2.12951 0
M  V30 67507 H 6425.89 3.14157 -2.49212 0
M  V30 67508 H 6422.48 2.27365 -3.63322 0
M  V30 67509 H 6426.67 1.95629 -4.56117 0
M  V30 67510 H 6421.92 1.54915 -5.91448 0
M  V30 67511 H 6426.1 1.24108 -6.85252 0
M  V30 67512 H 6423.73 1.03197 -7.53163 0
M  V30 67513 N 6425.3 1.31817 0.863836 0
M  V30 67514 C 6426.54 1.2316 1.63129 0
M  V30 67515 C 6426.9 -0.205655 1.90895 0
M  V30 67516 O 6428.11 -0.415818 2.65564 0
M  V30 67517 C 6426.38 2.0582 2.92186 0
M  V30 67518 S 6427.94 2.1409 3.83028 0
M  V30 67519 H 6424.75 0.438551 0.559637 0
M  V30 67520 H 6427.36 1.66555 1.02371 0
M  V30 67521 H 6426.06 3.09321 2.6972 0
M  V30 67522 H 6425.59 1.63168 3.57966 0
M  V30 67523 H 6427.61 1.2837 4.79307 0
M  V30 67524 N 6426.78 -1.07893 1.14877 0
M  V30 67525 C 6427.71 -2.16952 0.863363 0
M  V30 67526 C 6428.69 -1.69104 -0.183793 0
M  V30 67527 O 6429.87 -1.9416 -0.0393453 0
M  V30 67528 C 6427 -3.45574 0.345818 0
M  V30 67529 C 6425.96 -4.06843 1.32902 0
M  V30 67530 C 6425.28 -5.30479 0.670553 0
M  V30 67531 C 6426.58 -4.47514 2.69312 0
M  V30 67532 H 6428.28 -2.41085 1.77534 0
M  V30 67533 H 6425.82 -1.15867 0.855031 0
M  V30 67534 H 6427.78 -4.21188 0.133723 0
M  V30 67535 H 6426.5 -3.21011 -0.601609 0
M  V30 67536 H 6425.16 -3.33267 1.52738 0
M  V30 67537 H 6424.81 -5.02204 -0.282846 0
M  V30 67538 H 6424.51 -5.72428 1.32665 0
M  V30 67539 H 6426.03 -6.08803 0.468105 0
M  V30 67540 H 6427.45 -5.14281 2.53353 0
M  V30 67541 H 6425.84 -5.00397 3.31244 0
M  V30 67542 H 6426.91 -3.59148 3.25793 0
M  V30 67543 N 6428.26 -0.944709 -1.26147 0
M  V30 67544 C 6429.48 -0.61052 -1.98211 0
M  V30 67545 C 6429.91 0.808342 -1.69845 0
M  V30 67546 O 6429.26 1.54507 -0.948545 0
M  V30 67547 C 6429.31 -0.863441 -3.5011 0
M  V30 67548 O 6428.42 0.0627041 -4.12352 0
M  V30 67549 H 6427.76 -0.233161 -0.621717 0
M  V30 67550 H 6430.29 -1.2686 -1.60523 0
M  V30 67551 H 6430.3 -0.785743 -4.00362 0
M  V30 67552 H 6428.97 -1.89761 -3.70086 0
M  V30 67553 H 6427.55 -0.0663531 -3.72841 0
M  V30 67554 N 6429.74 1.40593 -0.712134 0
M  V30 67555 C 6430.68 2.32554 -0.0461706 0
M  V30 67556 C 6431.68 1.51855 0.750756 0
M  V30 67557 O 6432.88 1.67679 0.654513 0
M  V30 67558 H 6429.26 0.75199 0.00387198 0
M  V30 67559 H 6431.23 2.86376 -0.838547 0
M  V30 67560 C 6429.98 3.36792 0.864094 0
M  V30 67561 H 6429.3 3.98952 0.260281 0
M  V30 67562 H 6430.74 4.03641 1.29809 0
M  V30 67563 C 6429.2 2.71996 1.98796 0
M  V30 67564 O 6429.73 2.58059 3.07845 0
M  V30 67565 N 6427.94 2.30433 1.77056 0
M  V30 67566 H 6427.48 2.41969 0.883665 0
M  V30 67567 H 6427.44 1.87417 2.52433 0
M  V30 67568 N 6431.21 0.458066 1.50796 0
M  V30 67569 C 6432.44 -0.0994652 2.06661 0
M  V30 67570 C 6432.86 -1.34657 1.32336 0
M  V30 67571 O 6432.21 -1.7831 0.388831 0
M  V30 67572 C 6432.26 -0.400774 3.59272 0
M  V30 67573 O 6431.99 0.796857 4.30792 0
M  V30 67574 C 6433.49 -1.00671 4.31718 0
M  V30 67575 H 6430.71 0.00127986 0.670999 0
M  V30 67576 H 6433.25 0.643109 1.94125 0
M  V30 67577 H 6431.41 -1.09327 3.71654 0
M  V30 67578 H 6431.82 0.53358 5.21779 0
M  V30 67579 H 6433.29 -1.16739 5.39515 0
M  V30 67580 H 6433.77 -1.99335 3.91359 0
M  V30 67581 H 6434.38 -0.352986 4.23833 0
M  V30 67582 N 6432.69 -1.56448 0.190174 0
M  V30 67583 C 6434.1 -1.8388 -0.323288 0
M  V30 67584 C 6434.45 -1.11068 -1.61736 0
M  V30 67585 O 6433.58 -0.369864 -2.13216 0
M  V30 67586 C 6434.17 -3.33564 -0.593335 0
M  V30 67587 C 6432.73 -3.61424 -1.05118 0
M  V30 67588 C 6431.88 -2.7713 -0.0971357 0
M  V30 67589 H 6434.83 -1.53203 0.414063 0
M  V30 67590 H 6434.85 -3.52067 -1.44322 0
M  V30 67591 H 6434.36 -3.86531 0.348678 0
M  V30 67592 H 6432.46 -3.13886 -2.00764 0
M  V30 67593 H 6432.58 -4.69641 -0.947299 0
M  V30 67594 H 6430.94 -2.47578 -0.598094 0
M  V30 67595 H 6431.72 -3.32884 0.839234 0
M  V30 67596 N 6434.17 0.0834573 -1.57379 0
M  V30 67597 C 6435.41 0.790282 -1.88504 0
M  V30 67598 C 6435.77 1.75327 -0.782578 0
M  V30 67599 O 6436.97 2.50433 -0.976573 0
M  V30 67600 C 6435.25 1.48983 -3.24867 0
M  V30 67601 S 6436.8 2.23333 -3.77714 0
M  V30 67602 H 6433.62 0.263051 -0.660549 0
M  V30 67603 H 6436.22 0.0468763 -1.95444 0
M  V30 67604 H 6434.93 0.774996 -4.03016 0
M  V30 67605 H 6434.46 2.2729 -3.21096 0
M  V30 67606 H 6436.47 3.49665 -3.52064 0
M  V30 67607 N 6435.65 1.5356 0.35457 0
M  V30 67608 C 6436.6 1.81458 1.45519 0
M  V30 67609 C 6437.59 0.684356 1.54961 0
M  V30 67610 O 6438.8 0.8675 1.57716 0
M  V30 67611 H 6435.17 0.574714 0.484983 0
M  V30 67612 H 6437.14 2.73559 1.19198 0
M  V30 67613 C 6435.89 2.0312 2.82201 0
M  V30 67614 H 6435.21 2.89535 2.75698 0
M  V30 67615 H 6436.65 2.26612 3.58361 0
M  V30 67616 C 6435.11 0.813487 3.26931 0
M  V30 67617 O 6435.64 0.00752266 4.01699 0
M  V30 67618 N 6433.85 0.633814 2.83604 0
M  V30 67619 H 6433.4 1.29084 2.22924 0
M  V30 67620 H 6433.35 -0.179511 3.13887 0
M  V30 67621 N 6437.13 -0.614982 1.45106 0
M  V30 67622 C 6438.37 -1.37622 1.48957 0
M  V30 67623 C 6438.7 -1.93778 0.127941 0
M  V30 67624 O 6437.98 -1.7462 -0.856625 0
M  V30 67625 C 6438.26 -2.52961 2.56287 0
M  V30 67626 C 6438.12 -2.02049 4.01866 0
M  V30 67627 C 6439.43 -3.55112 2.59968 0
M  V30 67628 H 6436.55 -0.499051 0.542325 0
M  V30 67629 H 6439.2 -0.693915 1.76875 0
M  V30 67630 H 6437.35 -3.11166 2.32611 0
M  V30 67631 H 6439.02 -1.4855 4.36727 0
M  V30 67632 H 6437.26 -1.33106 4.12874 0
M  V30 67633 H 6437.93 -2.85159 4.7264 0
M  V30 67634 H 6440.41 -3.06735 2.81163 0
M  V30 67635 H 6439.28 -4.33314 3.36943 0
M  V30 67636 H 6439.54 -4.10246 1.64776 0
M  V30 67637 N 6438.6 -1.32273 -0.856834 0
M  V30 67638 C 6439.84 -1.24023 -1.62474 0
M  V30 67639 C 6440.21 0.195529 -1.91002 0
M  V30 67640 O 6441.41 0.401729 -2.65781 0
M  V30 67641 C 6439.68 -2.07367 -2.91091 0
M  V30 67642 S 6441.24 -2.16119 -3.81888 0
M  V30 67643 H 6438.06 -0.441513 -0.557304 0
M  V30 67644 H 6440.66 -1.67095 -1.01486 0
M  V30 67645 H 6439.36 -3.10747 -2.68076 0
M  V30 67646 H 6438.89 -1.65064 -3.57096 0
M  V30 67647 H 6440.91 -1.3091 -4.7862 0
M  V30 67648 N 6440.08 1.07283 -1.15448 0
M  V30 67649 C 6441.01 2.14423 -0.809647 0
M  V30 67650 C 6442.03 1.61817 0.178652 0
M  V30 67651 O 6443.22 1.78444 -0.0446947 0
M  V30 67652 C 6440.32 3.38405 -0.183058 0
M  V30 67653 C 6439.49 4.20361 -1.20895 0
M  V30 67654 C 6438.55 5.22722 -0.604015 0
M  V30 67655 O 6437.57 5.54848 -1.27015 0
M  V30 67656 N 6438.78 5.77244 0.613938 0
M  V30 67657 H 6441.54 2.44607 -1.73169 0
M  V30 67658 H 6439.1 1.23196 -1.05045 0
M  V30 67659 H 6441.09 4.0402 0.234426 0
M  V30 67660 H 6439.66 3.05929 0.642343 0
M  V30 67661 H 6438.88 3.50552 -1.80297 0
M  V30 67662 H 6440.17 4.71928 -1.90161 0
M  V30 67663 H 6439.57 5.53395 1.17349 0
M  V30 67664 H 6438.13 6.44485 0.973769 0
M  V30 67665 N 6441.56 0.951386 1.25644 0
M  V30 67666 C 6442.79 0.620599 1.97059 0
M  V30 67667 C 6443.2 -0.810842 1.70944 0
M  V30 67668 O 6442.54 -1.55358 0.98029 0
M  V30 67669 C 6442.6 0.795401 3.5059 0
M  V30 67670 C 6442.27 2.20339 4.00375 0
M  V30 67671 C 6443.26 3.17978 4.11322 0
M  V30 67672 C 6440.95 2.52671 4.34123 0
M  V30 67673 C 6442.94 4.46044 4.55328 0
M  V30 67674 C 6440.63 3.80967 4.77815 0
M  V30 67675 C 6441.63 4.77466 4.8838 0
M  V30 67676 O 6441.32 6.03476 5.31105 0
M  V30 67677 H 6441.05 0.231861 0.634993 0
M  V30 67678 H 6443.6 1.27727 1.60857 0
M  V30 67679 H 6441.83 0.08158 3.86614 0
M  V30 67680 H 6443.52 0.466152 4.03214 0
M  V30 67681 H 6444.29 2.94325 3.85484 0
M  V30 67682 H 6440.17 1.78289 4.25128 0
M  V30 67683 H 6443.71 5.21367 4.63489 0
M  V30 67684 H 6439.61 4.04428 5.03099 0
M  V30 67685 H 6440.37 6.06805 5.49299 0
M  V30 67686 N 6443.04 -1.40213 0.71958 0
M  V30 67687 C 6444.28 -2.016 0.270036 0
M  V30 67688 C 6444.64 -1.56047 -1.12549 0
M  V30 67689 O 6443.93 -0.772425 -1.7534 0
M  V30 67690 C 6444.13 -3.56195 0.293289 0
M  V30 67691 C 6443.95 -4.16755 1.68953 0
M  V30 67692 C 6442.72 -4.50015 2.29813 0
M  V30 67693 C 6444.92 -4.41343 2.64047 0
M  V30 67694 N 6442.9 -4.95992 3.61753 0
M  V30 67695 C 6444.28 -4.89356 3.80698 0
M  V30 67696 C 6446.33 -4.23387 2.62007 0
M  V30 67697 C 6445.03 -5.21298 4.95622 0
M  V30 67698 C 6447.06 -4.56433 3.76062 0
M  V30 67699 C 6446.42 -5.04639 4.91446 0
M  V30 67700 H 6442.52 -0.76849 0.144733 0
M  V30 67701 H 6445.1 -1.70382 0.942236 0
M  V30 67702 H 6443.28 -3.86833 -0.348491 0
M  V30 67703 H 6445.01 -4.04329 -0.173343 0
M  V30 67704 H 6441.76 -4.37285 1.81875 0
M  V30 67705 H 6442.19 -5.23358 4.29448 0
M  V30 67706 H 6446.83 -3.85334 1.74003 0
M  V30 67707 H 6444.55 -5.58263 5.84267 0
M  V30 67708 H 6448.13 -4.44177 3.75764 0
M  V30 67709 H 6447.01 -5.29727 5.78238 0
M  V30 67710 N 6444.52 -0.466057 -1.50551 0
M  V30 67711 C 6445.77 0.0923248 -2.01489 0
M  V30 67712 C 6446.08 1.41237 -1.3532 0
M  V30 67713 O 6447.28 2.0554 -1.77386 0
M  V30 67714 C 6445.74 0.215054 -3.59257 0
M  V30 67715 C 6445.35 -1.09626 -4.3438 0
M  V30 67716 C 6447.09 0.725664 -4.18252 0
M  V30 67717 C 6445 -0.937599 -5.8392 0
M  V30 67718 H 6443.93 0.0382787 -0.753028 0
M  V30 67719 H 6446.58 -0.60019 -1.73407 0
M  V30 67720 H 6444.96 0.971235 -3.83905 0
M  V30 67721 H 6446.14 -1.863 -4.2146 0
M  V30 67722 H 6444.45 -1.53759 -3.86972 0
M  V30 67723 H 6447.05 0.861318 -5.27717 0
M  V30 67724 H 6447.39 1.71569 -3.79302 0
M  V30 67725 H 6447.92 0.0270078 -3.97791 0
M  V30 67726 H 6444.66 -1.90085 -6.27334 0
M  V30 67727 H 6444.18 -0.21115 -5.99428 0
M  V30 67728 H 6445.86 -0.6022 -6.44191 0
M  V30 67729 N 6445.99 1.56345 -0.198468 0
M  V30 67730 C 6447.24 1.97285 0.438543 0
M  V30 67731 C 6447.56 1.08663 1.61918 0
M  V30 67732 O 6446.83 0.158629 1.95257 0
M  V30 67733 H 6445.41 0.728547 0.165009 0
M  V30 67734 H 6448.08 1.9279 -0.285987 0
M  V30 67735 H 6447.17 3.02185 0.780409 0
M  V30 67736 N 6447.47 -0.07511 1.57421 0
M  V30 67737 C 6448.7 -0.786762 1.91033 0
M  V30 67738 C 6449.11 -1.71809 0.792363 0
M  V30 67739 O 6448.45 -1.82081 -0.243383 0
M  V30 67740 C 6448.52 -1.6367 3.20082 0
M  V30 67741 C 6448.18 -0.875094 4.48543 0
M  V30 67742 C 6449.18 -0.195835 5.19531 0
M  V30 67743 C 6446.86 -0.843251 4.95171 0
M  V30 67744 C 6448.86 0.505077 6.35396 0
M  V30 67745 C 6446.54 -0.138565 6.10943 0
M  V30 67746 C 6447.54 0.534402 6.80906 0
M  V30 67747 O 6447.23 1.22774 7.94469 0
M  V30 67748 H 6446.96 -0.229051 0.636012 0
M  V30 67749 H 6449.51 -0.0506808 2.05337 0
M  V30 67750 H 6447.74 -2.4155 3.01977 0
M  V30 67751 H 6449.43 -2.22673 3.3937 0
M  V30 67752 H 6450.2 -0.211765 4.84537 0
M  V30 67753 H 6446.08 -1.35652 4.4059 0
M  V30 67754 H 6449.62 1.03091 6.89941 0
M  V30 67755 H 6445.52 -0.120551 6.45387 0
M  V30 67756 H 6446.29 1.13668 8.10569 0
M  V30 67757 N 6448.95 -1.53746 -0.346422 0
M  V30 67758 C 6450.2 -1.70516 -1.08484 0
M  V30 67759 C 6450.52 -0.469533 -1.89263 0
M  V30 67760 O 6449.79 0.516528 -1.88968 0
M  V30 67761 H 6448.37 -0.62865 -0.403495 0
M  V30 67762 H 6451.03 -1.90991 -0.388391 0
M  V30 67763 H 6450.13 -2.57478 -1.76385 0
M  V30 67764 N 6450.43 0.607278 -1.4543 0
M  V30 67765 C 6451.67 1.37759 -1.51003 0
M  V30 67766 C 6452.03 1.91428 -0.148139 0
M  V30 67767 O 6453.23 2.68685 -0.0785652 0
M  V30 67768 C 6451.5 2.49456 -2.55943 0
M  V30 67769 S 6453.06 3.37238 -2.80742 0
M  V30 67770 H 6449.88 0.469658 -0.5338 0
M  V30 67771 H 6452.48 0.700691 -1.82512 0
M  V30 67772 H 6451.19 2.08378 -3.53563 0
M  V30 67773 H 6450.72 3.21946 -2.26085 0
M  V30 67774 H 6452.73 4.47612 -2.14145 0
M  V30 67775 N 6451.91 1.32725 0.849807 0
M  V30 67776 C 6452.85 1.22031 1.98018 0
M  V30 67777 C 6453.85 0.12404 1.68945 0
M  V30 67778 O 6455.05 0.287286 1.77693 0
M  V30 67779 H 6451.43 0.3784 0.649859 0
M  V30 67780 H 6453.4 2.17621 2.04166 0
M  V30 67781 C 6452.15 0.965194 3.34035 0
M  V30 67782 H 6451.47 1.80097 3.56939 0
M  V30 67783 H 6452.91 0.930625 4.13661 0
M  V30 67784 C 6451.37 -0.332019 3.3526 0
M  V30 67785 O 6451.9 -1.34231 3.78609 0
M  V30 67786 N 6450.11 -0.355705 2.88415 0
M  V30 67787 H 6449.65 0.466979 2.53332 0
M  V30 67788 H 6449.61 -1.2235 2.89617 0
M  V30 67789 N 6453.38 -1.06669 1.16015 0
M  V30 67790 C 6454.62 -1.80985 0.949936 0
M  V30 67791 C 6454.99 -1.8501 -0.513336 0
M  V30 67792 O 6456.19 -2.55268 -0.842122 0
M  V30 67793 C 6454.46 -3.21766 1.55568 0
M  V30 67794 S 6456.02 -4.12744 1.48956 0
M  V30 67795 H 6452.84 -0.623502 0.34171 0
M  V30 67796 H 6455.44 -1.28092 1.47691 0
M  V30 67797 H 6454.14 -3.16429 2.61344 0
M  V30 67798 H 6453.67 -3.79735 1.02786 0
M  V30 67799 H 6455.69 -4.93802 0.487201 0
M  V30 67800 N 6454.86 -0.958036 -1.25138 0
M  V30 67801 C 6456.14 -0.531901 -1.88229 0
M  V30 67802 C 6456.52 0.99088 -1.86399 0
M  V30 67803 O 6455.87 1.85812 -1.32989 0
M  V30 67804 C 6456.08 -1.11241 -3.30797 0
M  V30 67805 C 6457.43 -1.19135 -4.07544 0
M  V30 67806 O 6458.45 -1.06421 -3.39931 0
M  V30 67807 O 6457.31 -1.39122 -5.28495 0
M  V30 67808 H 6454.4 -0.175955 -0.808065 0
M  V30 67809 H 6456.95 -1.05169 -1.33183 0
M  V30 67810 H 6455.72 -2.15554 -3.26577 0
M  V30 67811 H 6455.34 -0.576081 -3.93404 0
M  V30 67812 N 6456.34 1.3983 -0.727006 0
M  V30 67813 C 6457.57 2.055 -0.280081 0
M  V30 67814 C 6457.99 1.5444 1.07377 0
M  V30 67815 O 6457.35 0.684674 1.67875 0
M  V30 67816 C 6457.4 3.59491 -0.282628 0
M  V30 67817 O 6456.5 4.05844 0.732403 0
M  V30 67818 H 6455.84 0.651357 -0.128959 0
M  V30 67819 H 6458.37 1.79015 -0.990689 0
M  V30 67820 H 6458.38 4.07811 -0.124248 0
M  V30 67821 H 6457.06 3.96017 -1.27055 0
M  V30 67822 H 6455.63 3.68957 0.540814 0
M  V30 67823 N 6457.82 0.474035 1.50302 0
M  V30 67824 C 6458.75 -0.308451 2.31454 0
M  V30 67825 C 6459.73 -0.987629 1.38492 0
M  V30 67826 O 6460.91 -0.984235 1.67411 0
M  V30 67827 C 6458.04 -1.3891 3.1831 0
M  V30 67828 C 6457 -0.831362 4.19848 0
M  V30 67829 C 6456.32 -2.01052 4.95461 0
M  V30 67830 C 6457.62 0.15935 5.22057 0
M  V30 67831 H 6459.32 0.368861 2.97119 0
M  V30 67832 H 6456.86 0.178837 1.42885 0
M  V30 67833 H 6458.82 -1.94402 3.7388 0
M  V30 67834 H 6457.54 -2.09522 2.50535 0
M  V30 67835 H 6456.2 -0.298397 3.65384 0
M  V30 67836 H 6455.85 -2.70369 4.24157 0
M  V30 67837 H 6455.55 -1.64354 5.64147 0
M  V30 67838 H 6457.07 -2.57029 5.53867 0
M  V30 67839 H 6458.49 -0.306489 5.7248 0
M  V30 67840 H 6456.88 0.44076 5.98479 0
M  V30 67841 H 6457.95 1.08427 4.72622 0
M  V30 67842 N 6459.3 -1.56238 0.206757 0
M  V30 67843 C 6460.71 -1.58904 -0.148897 0
M  V30 67844 C 6460.91 -1.22324 -1.60122 0
M  V30 67845 O 6459.97 -0.951484 -2.33887 0
M  V30 67846 C 6461.28 -3.00252 0.164011 0
M  V30 67847 C 6462.83 -3.12824 0.105055 0
M  V30 67848 C 6463.31 -4.56324 0.391434 0
M  V30 67849 N 6464.8 -4.61947 0.34047 0
M  V30 67850 C 6465.53 -5.70892 0.535749 0
M  V30 67851 N 6465.03 -6.88258 0.792007 0
M  V30 67852 N 6466.82 -5.60138 0.469202 0
M  V30 67853 H 6458.97 -1.78294 1.15434 0
M  V30 67854 H 6461.23 -0.828023 0.461609 0
M  V30 67855 H 6460.94 -3.31617 1.17145 0
M  V30 67856 H 6460.81 -3.73487 -0.527962 0
M  V30 67857 H 6463.2 -2.81264 -0.893002 0
M  V30 67858 H 6463.28 -2.4195 0.830282 0
M  V30 67859 H 6462.93 -4.88599 1.38686 0
M  V30 67860 H 6462.86 -5.25403 -0.354816 0
M  V30 67861 H 6465.35 -3.77604 0.149497 0
M  V30 67862 H 6465.66 -7.6719 0.929511 0
M  V30 67863 H 6464.01 -6.90038 0.829035 0
M  V30 67864 H 6467.2 -4.67324 0.269338 0
M  V30 67865 H 6467.37 -6.44981 0.624803 0
M  V30 67866 N 6460.78 0.0667605 -1.57459 0
M  V30 67867 C 6461.71 1.10562 -2.0077 0
M  V30 67868 C 6462.72 1.34693 -0.914426 0
M  V30 67869 O 6463.91 1.32844 -1.19225 0
M  V30 67870 C 6461.01 2.45548 -2.33579 0
M  V30 67871 C 6460.18 2.41303 -3.64817 0
M  V30 67872 C 6459.24 3.58437 -3.85239 0
M  V30 67873 O 6458.27 3.39638 -4.56766 0
M  V30 67874 N 6459.47 4.78969 -3.27978 0
M  V30 67875 H 6462.23 0.736745 -2.90503 0
M  V30 67876 H 6459.8 0.255336 -1.59874 0
M  V30 67877 H 6461.79 3.22561 -2.44411 0
M  V30 67878 H 6460.36 2.74419 -1.4971 0
M  V30 67879 H 6459.58 1.49642 -3.64693 0
M  V30 67880 H 6460.87 2.35573 -4.5098 0
M  V30 67881 H 6460.26 4.97146 -2.69931 0
M  V30 67882 H 6458.82 5.53476 -3.4425 0
M  V30 67883 N 6462.25 1.53927 0.338263 0
M  V30 67884 C 6463.22 1.81583 1.39859 0
M  V30 67885 C 6464.22 0.687062 1.45383 0
M  V30 67886 O 6465.41 0.955356 1.45666 0
M  V30 67887 C 6462.54 1.96261 2.78737 0
M  V30 67888 H 6463.73 2.76306 1.16598 0
M  V30 67889 H 6461.28 1.4542 0.572945 0
M  V30 67890 H 6462.02 1.03699 3.07273 0
M  V30 67891 H 6461.8 2.78386 2.76123 0
M  V30 67892 H 6463.29 2.19156 3.55472 0
M  V30 67893 N 6463.73 -0.599557 1.4575 0
M  V30 67894 C 6464.69 -1.69174 1.54637 0
M  V30 67895 C 6465.69 -1.5508 0.425084 0
M  V30 67896 O 6466.88 -1.60002 0.688838 0
M  V30 67897 C 6464.02 -3.08497 1.4506 0
M  V30 67898 H 6465.21 -1.62658 2.51957 0
M  V30 67899 H 6462.76 -0.815975 1.3331 0
M  V30 67900 H 6463.5 -3.20584 0.489551 0
M  V30 67901 H 6463.28 -3.20136 2.26397 0
M  V30 67902 H 6464.77 -3.88037 1.54328 0
M  V30 67903 N 6465.21 -1.33174 -0.842756 0
M  V30 67904 C 6466.14 -1.25727 -1.96761 0
M  V30 67905 C 6467.12 -0.138634 -1.69534 0
M  V30 67906 O 6468.31 -0.327771 -1.91414 0
M  V30 67907 C 6465.44 -0.991754 -3.32839 0
M  V30 67908 C 6464.39 -2.07291 -3.74452 0
M  V30 67909 C 6463.72 -1.6596 -5.08293 0
M  V30 67910 C 6465.02 -3.48925 -3.8865 0
M  V30 67911 H 6466.71 -2.19841 -2.0325 0
M  V30 67912 H 6464.26 -1.05833 -0.976496 0
M  V30 67913 H 6466.21 -0.926165 -4.11096 0
M  V30 67914 H 6464.93 -0.0149971 -3.26597 0
M  V30 67915 H 6463.59 -2.12886 -2.98455 0
M  V30 67916 H 6463.24 -0.66997 -4.98518 0
M  V30 67917 H 6462.94 -2.38307 -5.37106 0
M  V30 67918 H 6464.46 -1.6086 -5.8903 0
M  V30 67919 H 6465.88 -3.45853 -4.57229 0
M  V30 67920 H 6464.27 -4.19725 -4.28895 0
M  V30 67921 H 6465.34 -3.87715 -2.91213 0
M  V30 67922 N 6466.69 1.06052 -1.16579 0
M  V30 67923 C 6468.1 1.6036 -0.956123 0
M  V30 67924 C 6468.45 1.89739 0.499369 0
M  V30 67925 O 6467.57 1.67262 1.37304 0
M  V30 67926 C 6468.17 2.91347 -1.72923 0
M  V30 67927 C 6466.73 3.42347 -1.56448 0
M  V30 67928 C 6465.88 2.16204 -1.73641 0
M  V30 67929 H 6468.83 0.889722 -1.31414 0
M  V30 67930 H 6468.85 3.60866 -1.20649 0
M  V30 67931 H 6468.36 2.69933 -2.78851 0
M  V30 67932 H 6466.46 3.68815 -0.529707 0
M  V30 67933 H 6466.57 4.17511 -2.34992 0
M  V30 67934 H 6464.94 2.26544 -1.16404 0
M  V30 67935 H 6465.72 1.97269 -2.80962 0
M  V30 67936 N 6468.17 0.964658 1.24628 0
M  V30 67937 C 6469.1 0.450193 2.24735 0
M  V30 67938 C 6470.11 -0.439407 1.56758 0
M  V30 67939 O 6471.3 -0.246071 1.76796 0
M  V30 67940 C 6468.4 -0.369665 3.36878 0
M  V30 67941 C 6467.57 0.509308 4.34425 0
M  V30 67942 C 6466.63 -0.254032 5.25586 0
M  V30 67943 O 6465.66 0.350999 5.68117 0
M  V30 67944 N 6466.86 -1.54443 5.59578 0
M  V30 67945 H 6469.62 1.31089 2.6951 0
M  V30 67946 H 6467.19 0.836139 1.38637 0
M  V30 67947 H 6469.18 -0.888291 3.94831 0
M  V30 67948 H 6467.75 -1.13127 2.91412 0
M  V30 67949 H 6466.97 1.20894 3.75204 0
M  V30 67950 H 6468.26 1.10889 4.96569 0
M  V30 67951 H 6467.65 -2.05776 5.26947 0
M  V30 67952 H 6466.21 -2.00882 6.20072 0
M  V30 67953 N 6469.64 -1.39442 0.734411 0
M  V30 67954 C 6470.87 -2.05349 0.290975 0
M  V30 67955 C 6471.29 -1.55007 -1.06557 0
M  V30 67956 O 6470.65 -0.693567 -1.67509 0
M  V30 67957 C 6470.7 -3.59336 0.301689 0
M  V30 67958 O 6469.8 -4.06227 -0.71087 0
M  V30 67959 H 6469.14 -0.650664 0.132412 0
M  V30 67960 H 6471.67 -1.78487 1.00017 0
M  V30 67961 H 6471.68 -4.07739 0.145873 0
M  V30 67962 H 6470.36 -3.95338 1.29154 0
M  V30 67963 H 6468.94 -3.69239 -0.521239 0
M  V30 67964 N 6471.12 -0.481999 -1.50048 0
M  V30 67965 C 6472.07 0.306478 -2.28756 0
M  V30 67966 C 6473.04 0.977472 -1.34293 0
M  V30 67967 O 6474.22 0.987808 -1.63239 0
M  V30 67968 C 6471.36 1.37618 -3.16473 0
M  V30 67969 C 6470.48 0.71887 -4.25977 0
M  V30 67970 C 6469.61 1.76739 -5.00936 0
M  V30 67971 C 6468.65 1.09092 -6.023 0
M  V30 67972 N 6467.79 2.08278 -6.70496 0
M  V30 67973 H 6472.63 -0.37099 -2.95682 0
M  V30 67974 H 6470.16 -0.1948 -1.45804 0
M  V30 67975 H 6472.12 2.00815 -3.6569 0
M  V30 67976 H 6470.75 2.02266 -2.51571 0
M  V30 67977 H 6469.8 -0.0259324 -3.80391 0
M  V30 67978 H 6471.12 0.185425 -4.98455 0
M  V30 67979 H 6470.27 2.4749 -5.53926 0
M  V30 67980 H 6469.01 2.33466 -4.28188 0
M  V30 67981 H 6468.01 0.369093 -5.4856 0
M  V30 67982 H 6469.24 0.530399 -6.77026 0
M  V30 67983 H 6467.19 2.64002 -6.00532 0
M  V30 67984 H 6467.1 1.59948 -7.38886 0
M  V30 67985 H 6468.37 2.78375 -7.28099 0
M  V30 67986 N 6472.6 1.56126 -0.21504 0
M  V30 67987 C 6473.88 1.89941 0.467086 0
M  V30 67988 C 6474.26 1.13146 1.78217 0
M  V30 67989 O 6473.6 0.238734 2.27249 0
M  V30 67990 C 6473.81 3.42579 0.666404 0
M  V30 67991 C 6475.16 4.13212 0.976782 0
M  V30 67992 O 6476.19 3.48141 0.753422 0
M  V30 67993 O 6475.05 5.28255 1.40033 0
M  V30 67994 H 6472.14 0.789542 0.246075 0
M  V30 67995 H 6474.69 1.67747 -0.25674 0
M  V30 67996 H 6473.46 3.90425 -0.261481 0
M  V30 67997 H 6473.08 3.70531 1.44196 0
M  V30 67998 N 6474.08 -0.0584092 1.57492 0
M  V30 67999 C 6475.3 -0.77135 1.92523 0
M  V30 68000 C 6475.73 -1.69641 0.812621 0
M  V30 68001 O 6475.09 -1.79787 -0.233721 0
M  V30 68002 C 6475.13 -1.52964 3.26549 0
M  V30 68003 O 6474.24 -2.64117 3.16727 0
M  V30 68004 H 6473.58 -0.209547 0.630068 0
M  V30 68005 H 6476.11 -0.0226491 2.04587 0
M  V30 68006 H 6476.12 -1.90599 3.60744 0
M  V30 68007 H 6474.79 -0.850993 4.07101 0
M  V30 68008 H 6473.37 -2.29241 2.94114 0
M  V30 68009 N 6475.56 -1.54104 -0.330095 0
M  V30 68010 C 6476.5 -1.8375 -1.42614 0
M  V30 68011 C 6477.5 -0.708923 -1.53853 0
M  V30 68012 O 6478.7 -0.892482 -1.56316 0
M  V30 68013 H 6475.08 -0.582357 -0.475778 0
M  V30 68014 H 6477.05 -2.75421 -1.14831 0
M  V30 68015 C 6475.8 -2.07584 -2.78934 0
M  V30 68016 H 6475.12 -2.93884 -2.71057 0
M  V30 68017 H 6476.56 -2.32285 -3.54711 0
M  V30 68018 C 6475.02 -0.865396 -3.25596 0
M  V30 68019 O 6475.55 -0.0714286 -4.01636 0
M  V30 68020 N 6473.76 -0.678853 -2.8256 0
M  V30 68021 H 6473.3 -1.32614 -2.20842 0
M  V30 68022 H 6473.26 0.129551 -3.14133 0
M  V30 68023 N 6477.03 0.591819 -1.46066 0
M  V30 68024 C 6478.28 1.35035 -1.50904 0
M  V30 68025 C 6478.61 1.93865 -0.15706 0
M  V30 68026 O 6477.86 1.76458 0.846222 0
M  V30 68027 C 6478.16 2.50578 -2.54844 0
M  V30 68028 C 6477.83 2.09797 -3.99119 0
M  V30 68029 C 6476.49 1.9839 -4.384 0
M  V30 68030 C 6478.84 1.78208 -4.89787 0
M  V30 68031 C 6476.17 1.53638 -5.66226 0
M  V30 68032 C 6478.52 1.34937 -6.18041 0
M  V30 68033 C 6477.19 1.221 -6.56238 0
M  V30 68034 H 6476.46 0.494127 -0.552195 0
M  V30 68035 H 6479.1 0.667355 -1.79495 0
M  V30 68036 H 6477.41 3.24284 -2.19879 0
M  V30 68037 H 6479.11 3.088 -2.5582 0
M  V30 68038 H 6475.7 2.19607 -3.68063 0
M  V30 68039 H 6479.88 1.8591 -4.60164 0
M  V30 68040 H 6475.14 1.42335 -5.94601 0
M  V30 68041 H 6479.31 1.09545 -6.8773 0
M  V30 68042 H 6476.94 0.871983 -7.55182 0
M  V30 68043 N 6478.51 1.33619 0.835682 0
M  V30 68044 C 6479.44 1.26769 1.96092 0
M  V30 68045 C 6480.42 0.147623 1.69458 0
M  V30 68046 O 6481.61 0.337918 1.91237 0
M  V30 68047 C 6478.74 1.00939 3.32308 0
M  V30 68048 C 6477.69 2.09274 3.73347 0
M  V30 68049 C 6477.02 1.68653 5.07405 0
M  V30 68050 C 6478.32 3.50981 3.86794 0
M  V30 68051 H 6480.01 2.20915 2.02081 0
M  V30 68052 H 6477.56 1.06349 0.970869 0
M  V30 68053 H 6479.51 0.947953 4.10599 0
M  V30 68054 H 6478.24 0.0323171 3.26584 0
M  V30 68055 H 6476.89 2.14465 2.97322 0
M  V30 68056 H 6476.54 0.696398 4.98156 0
M  V30 68057 H 6476.24 2.41152 5.35835 0
M  V30 68058 H 6477.77 1.63981 5.88169 0
M  V30 68059 H 6479.18 3.48273 4.55388 0
M  V30 68060 H 6477.58 4.21993 4.26663 0
M  V30 68061 H 6478.65 3.89254 2.89153 0
M  V30 68062 N 6479.99 -1.05432 1.1714 0
M  V30 68063 C 6480.94 -2.15226 0.882062 0
M  V30 68064 C 6481.93 -1.68714 -0.152336 0
M  V30 68065 O 6483.14 -1.79999 -0.00548731 0
M  V30 68066 H 6479.51 -0.702742 0.267689 0
M  V30 68067 H 6481.48 -2.36836 1.81525 0
M  V30 68068 C 6480.23 -3.45284 0.409167 0
M  V30 68069 H 6479.56 -3.81474 1.19657 0
M  V30 68070 H 6481 -4.23288 0.245577 0
M  V30 68071 C 6479.46 -3.25399 -0.872772 0
M  V30 68072 O 6479.99 -3.51742 -1.94011 0
M  V30 68073 N 6478.19 -2.78792 -0.819967 0
M  V30 68074 H 6477.74 -2.57554 0.0488161 0
M  V30 68075 H 6477.7 -2.65867 -1.67816 0
M  V30 68076 N 6481.47 -0.971254 -1.24115 0
M  V30 68077 C 6482.38 -0.511985 -2.28945 0
M  V30 68078 C 6483.39 0.428784 -1.68634 0
M  V30 68079 O 6484.57 0.300953 -1.99139 0
M  V30 68080 C 6481.64 0.1871 -3.46195 0
M  V30 68081 C 6480.7 -0.793935 -4.21895 0
M  V30 68082 C 6479.93 -0.128117 -5.33546 0
M  V30 68083 O 6480.15 1.08281 -5.60028 0
M  V30 68084 O 6479.09 -0.822073 -5.9626 0
M  V30 68085 H 6482.91 -1.38355 -2.70354 0
M  V30 68086 H 6480.5 -0.738456 -1.29874 0
M  V30 68087 H 6482.38 0.579655 -4.17394 0
M  V30 68088 H 6481.05 1.03358 -3.06755 0
M  V30 68089 H 6479.96 -1.23702 -3.53056 0
M  V30 68090 H 6481.29 -1.60894 -4.6516 0
M  V30 68091 N 6482.95 1.39051 -0.741796 0
M  V30 68092 C 6484.17 2.05192 -0.301861 0
M  V30 68093 C 6484.6 1.5557 1.05733 0
M  V30 68094 O 6483.95 0.702441 1.67139 0
M  V30 68095 C 6484 3.59171 -0.320741 0
M  V30 68096 O 6483.11 4.06598 0.689317 0
M  V30 68097 H 6482.45 0.649952 -0.13586 0
M  V30 68098 H 6484.98 1.77955 -1.00962 0
M  V30 68099 H 6484.99 4.07656 -0.167495 0
M  V30 68100 H 6483.66 3.94648 -1.31248 0
M  V30 68101 H 6482.24 3.6951 0.50165 0
M  V30 68102 N 6484.42 0.489949 1.49791 0
M  V30 68103 C 6485.67 -0.0583574 2.02016 0
M  V30 68104 C 6485.99 -1.38502 1.37267 0
M  V30 68105 O 6485.26 -1.88755 0.524258 0
M  V30 68106 H 6483.84 -0.0245566 0.746596 0
M  V30 68107 H 6486.51 0.644673 1.83929 0
M  V30 68108 H 6485.6 -0.196118 3.11483 0
M  V30 68109 N 6485.9 -1.5601 0.223316 0
M  V30 68110 C 6487.15 -1.98643 -0.408511 0
M  V30 68111 C 6487.48 -1.11087 -1.5929 0
M  V30 68112 O 6486.76 -0.16895 -1.93765 0
M  V30 68113 C 6487.04 -3.50133 -0.84135 0
M  V30 68114 C 6486.89 -4.48461 0.346797 0
M  V30 68115 C 6488.21 -4.06071 -1.69688 0
M  V30 68116 H 6485.33 -0.722188 -0.147014 0
M  V30 68117 H 6487.97 -1.87288 0.319905 0
M  V30 68118 H 6486.12 -3.59941 -1.46201 0
M  V30 68119 H 6487.79 -4.50662 0.984968 0
M  V30 68120 H 6486.04 -4.2226 0.993936 0
M  V30 68121 H 6486.71 -5.52 0.000975925 0
M  V30 68122 H 6489.18 -3.99219 -1.17318 0
M  V30 68123 H 6488.06 -5.12382 -1.96864 0
M  V30 68124 H 6488.32 -3.53063 -2.66081 0
M  V30 68125 N 6487.38 0.0500562 -1.5752 0
M  V30 68126 C 6488.31 1.057 -2.08206 0
M  V30 68127 C 6489.29 1.39028 -0.980058 0
M  V30 68128 O 6490.48 1.48278 -1.25408 0
M  V30 68129 C 6487.61 2.3642 -2.54407 0
M  V30 68130 C 6486.56 2.17389 -3.68681 0
M  V30 68131 C 6485.89 3.53684 -4.01013 0
M  V30 68132 C 6487.19 1.57723 -4.97916 0
M  V30 68133 H 6488.88 0.635155 -2.92585 0
M  V30 68134 H 6486.43 0.304078 -1.40753 0
M  V30 68135 H 6488.38 3.07174 -2.88483 0
M  V30 68136 H 6487.1 2.80625 -1.67084 0
M  V30 68137 H 6485.76 1.49072 -3.34922 0
M  V30 68138 H 6485.41 3.95499 -3.10788 0
M  V30 68139 H 6485.11 3.41783 -4.77973 0
M  V30 68140 H 6486.63 4.25834 -4.37605 0
M  V30 68141 H 6488.05 2.18369 -5.30083 0
M  V30 68142 H 6486.45 1.56457 -5.79345 0
M  V30 68143 H 6487.52 0.54083 -4.81875 0
M  V30 68144 N 6488.86 1.54277 0.321918 0
M  V30 68145 C 6489.79 1.86771 1.40139 0
M  V30 68146 C 6490.77 0.724655 1.53892 0
M  V30 68147 O 6491.96 0.978537 1.67745 0
M  V30 68148 C 6489.09 2.09652 2.76882 0
M  V30 68149 C 6488.04 3.25495 2.77916 0
M  V30 68150 C 6487.37 3.33751 4.17749 0
M  V30 68151 C 6488.67 4.63106 2.41516 0
M  V30 68152 H 6490.36 2.77178 1.13194 0
M  V30 68153 H 6487.91 1.33366 0.543087 0
M  V30 68154 H 6489.86 2.30968 3.52466 0
M  V30 68155 H 6488.58 1.15995 3.05307 0
M  V30 68156 H 6487.24 3.04069 2.04787 0
M  V30 68157 H 6486.89 2.3765 4.43319 0
M  V30 68158 H 6486.59 4.11609 4.19347 0
M  V30 68159 H 6488.11 3.57303 4.95143 0
M  V30 68160 H 6489.53 4.84291 3.06814 0
M  V30 68161 H 6487.92 5.43525 2.54363 0
M  V30 68162 H 6488.99 4.65243 1.36664 0
M  V30 68163 O 6490.38 -0.467867 1.54574 0
M  V30 68164 H 6491.07 -1.12217 1.57883 0
M  V30 END ATOM
M  V30 BEGIN BOND
M  V30 END BOND
M  V30 END CTAB
M  END
$$$$
