drugbank_target|P45066 UDP-N-acetylmuramate--L-alanine ligase (DB01673; DB03909; DB04395)
 OpenBabel12092119503D

  0  0  0     0  0            999 V3000
M  V30 BEGIN CTAB
M  V30 COUNTS 7302 7366 0 0 0
M  V30 BEGIN ATOM
M  V30 1 H -0.908 1.98254 -0.117106 0
M  V30 2 N 0 1.576 0 0
M  V30 3 C 0.933 2.03868 1.02534 0
M  V30 4 C 1.911 0.928543 1.3348 0
M  V30 5 O 3.095 1.19667 1.45644 0
M  V30 6 C 0.222 2.43627 2.35294 0
M  V30 7 C -0.732 3.65373 2.2001 0
M  V30 8 S 0.101 5.13292 1.52614 0
M  V30 9 C 1.257 5.56322 2.86805 0
M  V30 10 H 1.49 2.90518 0.631377 0
M  V30 11 H -0.977 1.52953 0.210867 0
M  V30 12 H 0.981 2.67203 3.11629 0
M  V30 13 H -0.358 1.57376 2.7183 0
M  V30 14 H -1.165 3.90944 3.18086 0
M  V30 15 H -1.563 3.418 1.51819 0
M  V30 16 H 0.729 5.58782 3.83104 0
M  V30 17 H 1.672 6.56266 2.65933 0
M  V30 18 H 2.08 4.83886 2.90714 0
M  V30 19 N 1.4781 -0.272755 1.55222 0
M  V30 20 C 2.4251 -1.33716 1.88119 0
M  V30 21 C 3.3951 -1.49066 0.73271 0
M  V30 22 O 4.5801 -1.63469 0.984002 0
M  V30 23 C 1.7201 -2.69238 2.15882 0
M  V30 24 C 0.8331 -2.62108 3.43399 0
M  V30 25 C -0.0319 -3.89811 3.60861 0
M  V30 26 C -0.9929 -3.77193 4.8207 0
M  V30 27 N -1.8559 -4.9673 4.96189 0
M  V30 28 H 2.9841 -1.04962 2.78903 0
M  V30 29 H 0.5211 -0.507088 1.38083 0
M  V30 30 H 2.4791 -3.48089 2.29978 0
M  V30 31 H 1.1091 -2.96194 1.28331 0
M  V30 32 H 0.1611 -1.74967 3.37773 0
M  V30 33 H 1.4731 -2.48685 4.32386 0
M  V30 34 H 0.6271 -4.77103 3.74777 0
M  V30 35 H -0.6339 -4.06102 2.7006 0
M  V30 36 H -1.6289 -2.88284 4.68159 0
M  V30 37 H -0.4039 -3.62421 5.74307 0
M  V30 38 H -2.4579 -5.13431 4.08319 0
M  V30 39 H -2.5409 -4.85839 5.79221 0
M  V30 40 H -1.2729 -5.85594 5.1449 0
M  V30 41 N 2.9562 -1.48159 -0.537278 0
M  V30 42 C 3.9062 -1.5854 -1.63857 0
M  V30 43 C 4.8902 -0.442969 -1.54682 0
M  V30 44 O 6.0822 -0.69401 -1.62827 0
M  V30 45 C 3.2112 -1.62144 -3.02596 0
M  V30 46 C 2.2972 -2.81841 -3.16901 0
M  V30 47 N 2.6882 -4.06337 -3.01204 0
M  V30 48 C 0.9862 -2.79021 -3.47942 0
M  V30 49 C 1.6872 -4.86606 -3.18731 0
M  V30 50 N 0.6632 -4.19288 -3.45974 0
M  V30 51 H 4.4652 -2.5255 -1.50319 0
M  V30 52 H 1.9792 -1.4443 -0.742555 0
M  V30 53 H 3.9762 -1.67674 -3.81695 0
M  V30 54 H 2.6362 -0.69245 -3.17231 0
M  V30 55 H 3.6472 -4.36888 -2.78117 0
M  V30 56 H 0.3242 -1.95347 -3.6898 0
M  V30 57 H 1.7142 -5.95385 -3.11394 0
M  V30 58 N 4.4343 0.785586 -1.36625 0
M  V30 59 C 5.6593 1.57963 -1.34397 0
M  V30 60 C 6.0843 1.87964 0.071526 0
M  V30 61 O 5.4423 1.48182 1.0446 0
M  V30 62 C 5.4903 2.87511 -2.17646 0
M  V30 63 O 4.5943 3.81281 -1.57158 0
M  V30 64 H 3.9353 0.479014 -0.459828 0
M  V30 65 H 6.4653 0.973411 -1.79961 0
M  V30 66 H 6.4753 3.36745 -2.30362 0
M  V30 67 H 5.1503 2.65002 -3.20541 0
M  V30 68 H 3.7273 3.39885 -1.53403 0
M  V30 69 N 5.9124 1.20967 1.01018 0
M  V30 70 C 6.8624 0.93182 2.08089 0
M  V30 71 C 7.8464 -0.110898 1.60517 0
M  V30 72 O 9.0384 0.0973392 1.76732 0
M  V30 73 C 6.1674 0.492719 3.39746 0
M  V30 74 C 5.2534 1.56922 3.94 0
M  V30 75 N 5.6444 2.79312 4.21686 0
M  V30 76 C 3.9424 1.43688 4.2222 0
M  V30 77 C 4.6434 3.48797 4.65527 0
M  V30 78 N 3.6194 2.76224 4.68189 0
M  V30 79 H 7.4214 1.86175 2.27412 0
M  V30 80 H 4.9354 1.10463 1.19045 0
M  V30 81 H 6.9324 0.275044 4.15992 0
M  V30 82 H 5.5924 -0.430509 3.21833 0
M  V30 83 H 6.6034 3.15903 4.10397 0
M  V30 84 H 3.2804 0.578548 4.13472 0
M  V30 85 H 4.6704 4.53561 4.95714 0
M  V30 86 N 7.3905 -1.2043 1.01659 0
M  V30 87 C 8.3005 -2.2689 0.596484 0
M  V30 88 C 9.3165 -1.70107 -0.36599 0
M  V30 89 O 10.4925 -2.00117 -0.226942 0
M  V30 90 C 7.5575 -3.4665 -0.0586659 0
M  V30 91 C 6.6185 -4.18662 0.949751 0
M  V30 92 C 5.8515 -5.32705 0.32577 0
M  V30 93 O 6.0745 -5.63656 -0.874509 0
M  V30 94 O 5.0085 -5.92803 1.04249 0
M  V30 95 H 8.8345 -2.65041 1.4828 0
M  V30 96 H 6.4195 -1.27048 0.786082 0
M  V30 97 H 8.3015 -4.19256 -0.424564 0
M  V30 98 H 6.9765 -3.10375 -0.91918 0
M  V30 99 H 5.8835 -3.48229 1.36702 0
M  V30 100 H 7.2165 -4.58878 1.78023 0
M  V30 101 N 8.8686 -0.792821 -1.36206 0
M  V30 102 C 9.7786 -0.194808 -2.3379 0
M  V30 103 C 10.7946 0.654869 -1.61206 0
M  V30 104 O 11.9706 0.569856 -1.9317 0
M  V30 105 C 9.0356 0.657721 -3.40404 0
M  V30 106 C 8.0966 -0.210849 -4.28782 0
M  V30 107 C 7.3296 0.601086 -5.30304 0
M  V30 108 O 7.5526 1.83682 -5.40016 0
M  V30 109 O 6.4866 -0.000808277 -6.019 0
M  V30 110 H 10.3126 -1.00172 -2.86704 0
M  V30 111 H 7.8976 -0.554341 -1.38735 0
M  V30 112 H 9.7796 1.14375 -4.05581 0
M  V30 113 H 8.4546 1.44247 -2.89784 0
M  V30 114 H 7.3616 -0.743714 -3.66633 0
M  V30 115 H 8.6946 -0.959195 -4.82763 0
M  V30 116 N 10.3467 1.47872 -0.545128 0
M  V30 117 C 11.5957 2.01695 -0.0145033 0
M  V30 118 C 11.9087 1.42609 1.33873 0
M  V30 119 O 13.1147 1.88021 1.95858 0
M  V30 120 C 11.5707 3.59892 0.0245068 0
M  V30 121 C 11.1787 4.27966 -1.32475 0
M  V30 122 C 12.9227 4.21507 0.50316 0
M  V30 123 C 10.8297 5.78136 -1.2455 0
M  V30 124 H 9.7597 0.753998 -0.00165172 0
M  V30 125 H 12.4107 1.69985 -0.691175 0
M  V30 126 H 10.7927 3.88509 0.766575 0
M  V30 127 H 11.9667 4.11003 -2.08357 0
M  V30 128 H 10.2817 3.78286 -1.74036 0
M  V30 129 H 12.8787 5.31538 0.580656 0
M  V30 130 H 13.2217 3.87855 1.51243 0
M  V30 131 H 13.7547 3.97376 -0.183681 0
M  V30 132 H 10.4937 6.16388 -2.23039 0
M  V30 133 H 10.0137 5.97469 -0.528282 0
M  V30 134 H 11.6927 6.40099 -0.942488 0
M  V30 135 N 11.8248 0.280983 1.55075 0
M  V30 136 C 13.2408 -0.0729964 1.59433 0
M  V30 137 C 13.4408 -1.5411 1.29817 0
M  V30 138 O 12.4968 -2.29086 1.06187 0
M  V30 139 C 13.8098 0.306921 2.9913 0
M  V30 140 C 15.3578 0.254023 3.11968 0
M  V30 141 C 15.8328 0.608467 4.5394 0
M  V30 142 N 17.3238 0.560241 4.59799 0
M  V30 143 C 18.0588 0.80722 5.6769 0
M  V30 144 N 17.5548 1.11912 6.83701 0
M  V30 145 N 19.3478 0.735623 5.57266 0
M  V30 146 H 11.4988 1.238 1.7259 0
M  V30 147 H 13.7618 0.500547 0.805082 0
M  V30 148 H 13.4678 1.32816 3.25657 0
M  V30 149 H 13.3418 -0.349363 3.75579 0
M  V30 150 H 15.7288 -0.75794 2.852 0
M  V30 151 H 15.8098 0.944649 2.37718 0
M  V30 152 H 15.4538 1.61814 4.81434 0
M  V30 153 H 15.3838 -0.104013 5.26497 0
M  V30 154 H 17.8748 0.329288 3.76463 0
M  V30 155 H 18.1878 1.29409 7.61888 0
M  V30 156 H 16.5328 1.15695 6.85303 0
M  V30 157 H 19.7238 0.491752 4.6551 0
M  V30 158 H 19.8968 0.931482 6.4127 0
M  V30 159 N 13.3029 -1.57598 0.00835791 0
M  V30 160 C 14.2499 -2.08945 -0.980346 0
M  V30 161 C 15.2199 -0.986738 -1.33614 0
M  V30 162 O 16.4049 -1.25968 -1.43306 0
M  V30 163 C 13.5449 -2.60425 -2.26435 0
M  V30 164 C 12.6579 -3.84628 -1.96685 0
M  V30 165 C 11.7929 -4.24579 -3.19228 0
M  V30 166 C 10.8319 -5.41596 -2.85202 0
M  V30 167 N 9.9689 -5.768 -4.00307 0
M  V30 168 H 14.8089 -2.93148 -0.535551 0
M  V30 169 H 12.3459 -1.44912 -0.252776 0
M  V30 170 H 14.3039 -2.88354 -3.01509 0
M  V30 171 H 12.9339 -1.79083 -2.68568 0
M  V30 172 H 11.9859 -3.63556 -1.11942 0
M  V30 173 H 13.2979 -4.69796 -1.67611 0
M  V30 174 H 12.4519 -4.53834 -4.02641 0
M  V30 175 H 11.1909 -3.38137 -3.51447 0
M  V30 176 H 10.1959 -5.12056 -2.00198 0
M  V30 177 H 11.4209 -6.29721 -2.54222 0
M  V30 178 H 9.3669 -4.93316 -4.32407 0
M  V30 179 H 9.2839 -6.5656 -3.74786 0
M  V30 180 H 10.5519 -6.10652 -4.84484 0
M  V30 181 N 14.781 0.264519 -1.55364 0
M  V30 182 C 16.03 0.992812 -1.75574 0
M  V30 183 C 16.343 1.87142 -0.568979 0
M  V30 184 O 17.549 2.63513 -0.653682 0
M  V30 185 C 16.005 1.81519 -3.10771 0
M  V30 186 C 15.613 0.984839 -4.37041 0
M  V30 187 C 17.357 2.53727 -3.40327 0
M  V30 188 C 15.264 1.80209 -5.63275 0
M  V30 189 H 14.194 0.374412 -0.65447 0
M  V30 190 H 16.845 0.248138 -1.81815 0
M  V30 191 H 15.227 2.60115 -2.98591 0
M  V30 192 H 16.401 0.242455 -4.60162 0
M  V30 193 H 14.716 0.37691 -4.14691 0
M  V30 194 H 17.313 3.15292 -4.3185 0
M  V30 195 H 17.656 3.24447 -2.60845 0
M  V30 196 H 18.189 1.82156 -3.53644 0
M  V30 197 H 14.928 1.13896 -6.45529 0
M  V30 198 H 14.448 2.52022 -5.44284 0
M  V30 199 H 16.127 2.37364 -6.01887 0
M  V30 200 N 16.2591 1.48442 0.529413 0
M  V30 201 C 17.5081 1.55742 1.28169 0
M  V30 202 C 17.8211 0.236511 1.94165 0
M  V30 203 O 19.0271 0.187761 2.7085 0
M  V30 204 C 17.4831 2.74667 2.32564 0
M  V30 205 C 17.0911 4.13402 1.72636 0
M  V30 206 C 18.8351 2.9128 3.08798 0
M  V30 207 C 16.7421 5.23587 2.74975 0
M  V30 208 H 15.6721 0.579796 0.48203 0
M  V30 209 H 18.3231 1.74776 0.559056 0
M  V30 210 H 16.7051 2.49067 3.07866 0
M  V30 211 H 17.8791 4.49022 1.03519 0
M  V30 212 H 16.1941 4.0191 1.08892 0
M  V30 213 H 18.7911 3.70767 3.85274 0
M  V30 214 H 19.1341 2.00757 3.64695 0
M  V30 215 H 19.6671 3.16782 2.40611 0
M  V30 216 H 16.4061 6.16076 2.23897 0
M  V30 217 H 15.9261 4.92454 3.42417 0
M  V30 218 H 17.6051 5.51724 3.37949 0
M  V30 219 N 17.7372 -0.778329 1.37039 0
M  V30 220 C 19.1482 -1.35421 1.28523 0
M  V30 221 C 19.4992 -1.96075 -0.0700901 0
M  V30 222 O 18.6242 -1.93352 -0.971801 0
M  V30 223 C 19.2192 -2.46211 2.32735 0
M  V30 224 C 17.7782 -2.99585 2.27873 0
M  V30 225 C 16.9252 -1.72748 2.16918 0
M  V30 226 H 19.8762 -0.5791 1.47757 0
M  V30 227 H 19.8972 -3.2552 1.9702 0
M  V30 228 H 19.4092 -2.02036 3.31365 0
M  V30 229 H 17.5102 -3.48152 1.32745 0
M  V30 230 H 17.6232 -3.55646 3.21018 0
M  V30 231 H 15.9872 -1.95416 1.63354 0
M  V30 232 H 16.7702 -1.30686 3.17452 0
M  V30 233 N 19.2153 -1.21501 -1.00376 0
M  V30 234 C 20.1253 -0.991447 -2.12621 0
M  V30 235 C 21.1413 0.0568446 -1.73907 0
M  V30 236 O 22.3173 -0.13348 -2.00957 0
M  V30 237 C 19.3823 -0.560312 -3.42142 0
M  V30 238 C 18.4433 -1.68096 -3.95022 0
M  V30 239 C 17.6763 -1.2703 -5.18362 0
M  V30 240 O 17.8993 -0.144438 -5.70217 0
M  V30 241 O 16.8333 -2.08269 -5.64719 0
M  V30 242 H 20.6593 -1.93158 -2.34358 0
M  V30 243 H 18.2443 -0.999999 -1.10997 0
M  V30 244 H 20.1263 -0.329724 -4.20108 0
M  V30 245 H 18.8013 0.351089 -3.2179 0
M  V30 246 H 17.7083 -1.96597 -3.18278 0
M  V30 247 H 19.0413 -2.56983 -4.19786 0
M  V30 248 N 20.6934 1.19889 -1.02296 0
M  V30 249 C 21.6264 2.21639 -0.543282 0
M  V30 250 C 22.6044 1.57275 0.412698 0
M  V30 251 O 23.7884 1.85568 0.331198 0
M  V30 252 C 20.9154 3.38057 0.208571 0
M  V30 253 C 19.9614 4.20751 -0.697933 0
M  V30 254 S 20.7944 4.89529 -2.17075 0
M  V30 255 C 21.9504 6.09363 -1.42923 0
M  V30 256 H 22.1834 2.61984 -1.40541 0
M  V30 257 H 19.7164 1.30041 -0.832387 0
M  V30 258 H 21.6744 4.05539 0.63624 0
M  V30 259 H 20.3354 2.96159 1.04635 0
M  V30 260 H 19.5284 5.03862 -0.117831 0
M  V30 261 H 19.1304 3.58556 -1.06366 0
M  V30 262 H 21.4224 6.73742 -0.712637 0
M  V30 263 H 22.3654 6.71845 -2.23673 0
M  V30 264 H 22.7734 5.56798 -0.929327 0
M  V30 265 N 22.1715 0.800033 1.35784 0
M  V30 266 C 23.5875 0.482977 1.52117 0
M  V30 267 C 23.7875 -0.996948 1.75109 0
M  V30 268 O 22.8435 -1.78216 1.78872 0
M  V30 269 C 24.1565 1.32264 2.70049 0
M  V30 270 C 25.7045 1.31742 2.83924 0
M  V30 271 C 26.1795 2.14106 4.04874 0
M  V30 272 N 27.6705 2.11607 4.12039 0
M  V30 273 C 28.4055 2.72099 5.04727 0
M  V30 274 N 27.9015 3.41492 6.02789 0
M  V30 275 N 29.6945 2.61776 4.97423 0
M  V30 276 H 21.8455 1.75856 1.19115 0
M  V30 277 H 24.1085 0.748122 0.582252 0
M  V30 278 H 23.8145 2.37261 2.59616 0
M  V30 279 H 23.6885 0.971303 3.6448 0
M  V30 280 H 26.0755 0.275333 2.93813 0
M  V30 281 H 26.1565 1.70859 1.9037 0
M  V30 282 H 25.8005 3.18351 3.95746 0
M  V30 283 H 25.7305 1.72353 4.97596 0
M  V30 284 H 28.2215 1.61112 3.41835 0
M  V30 285 H 28.5345 3.84953 6.70098 0
M  V30 286 H 26.8795 3.45596 6.02983 0
M  V30 287 H 30.0705 2.07157 4.19766 0
M  V30 288 H 30.2435 3.0921 5.69468 0
M  V30 289 N 23.6496 -1.47581 0.552962 0
M  V30 290 C 25.0656 -1.5818 0.212424 0
M  V30 291 C 25.2656 -1.55213 -1.28496 0
M  V30 292 O 24.3216 -1.45329 -2.06484 0
M  V30 293 C 25.6346 -2.88865 0.835318 0
M  V30 294 C 27.1826 -3.0244 0.806156 0
M  V30 295 C 27.6576 -4.35819 1.40804 0
M  V30 296 N 29.1486 -4.42444 1.37103 0
M  V30 297 C 29.8836 -5.44202 1.80641 0
M  V30 298 N 29.3796 -6.52795 2.32015 0
M  V30 299 N 31.1726 -5.35222 1.71738 0
M  V30 300 H 23.3236 -1.47753 1.52587 0
M  V30 301 H 25.5866 -0.702941 0.636064 0
M  V30 302 H 25.2926 -2.9676 1.88749 0
M  V30 303 H 25.1666 -3.7579 0.325848 0
M  V30 304 H 27.5536 -2.94144 -0.237317 0
M  V30 305 H 27.6346 -2.17068 1.35334 0
M  V30 306 H 27.2786 -4.44871 2.45056 0
M  V30 307 H 27.2086 -5.19916 0.836338 0
M  V30 308 H 29.6996 -3.6456 0.995202 0
M  V30 309 H 30.0126 -7.26609 2.63171 0
M  V30 310 H 28.3576 -6.53696 2.36023 0
M  V30 311 H 31.5486 -4.49284 1.31382 0
M  V30 312 H 31.7216 -6.14389 2.05987 0
M  V30 313 N 25.1277 -0.289203 -1.54924 0
M  V30 314 C 26.3737 0.323998 -2.00195 0
M  V30 315 C 26.7067 1.54441 -1.17735 0
M  V30 316 O 25.9817 1.92875 -0.250878 0
M  V30 317 C 26.2647 0.692276 -3.53383 0
M  V30 318 C 26.1177 -0.536457 -4.46589 0
M  V30 319 C 27.4367 1.52335 -4.12895 0
M  V30 320 H 24.5557 0.116289 -0.727768 0
M  V30 321 H 27.1977 -0.398954 -1.85764 0
M  V30 322 H 25.3477 1.30822 -3.65811 0
M  V30 323 H 27.0197 -1.17499 -4.46085 0
M  V30 324 H 25.2627 -1.17192 -4.1767 0
M  V30 325 H 25.9337 -0.234806 -5.515 0
M  V30 326 H 28.4097 1.00302 -4.0383 0
M  V30 327 H 27.2857 1.74982 -5.20262 0
M  V30 328 H 27.5467 2.50886 -3.64018 0
M  V30 329 N 26.6058 1.57591 -0.0167156 0
M  V30 330 C 27.5378 2.06343 0.997753 0
M  V30 331 C 28.5508 0.984469 1.29661 0
M  V30 332 O 29.7398 1.26093 1.26344 0
M  V30 333 C 26.8398 2.46255 2.32834 0
M  V30 334 C 26.0128 3.77083 2.21646 0
M  V30 335 C 25.0718 4.0368 3.37534 0
M  V30 336 O 24.0978 4.7411 3.14973 0
M  V30 337 N 25.2998 3.52881 4.60929 0
M  V30 338 H 28.0648 2.93997 0.581875 0
M  V30 339 H 25.6258 1.61002 0.170316 0
M  V30 340 H 27.6178 2.61149 3.09166 0
M  V30 341 H 26.1878 1.64032 2.66106 0
M  V30 342 H 25.4078 3.72106 1.30119 0
M  V30 343 H 26.6958 4.62822 2.11361 0
M  V30 344 H 26.0938 2.95878 4.82154 0
M  V30 345 H 24.6508 3.73076 5.34469 0
M  V30 346 N 28.0839 -0.256276 1.55502 0
M  V30 347 C 29.0159 -1.33981 1.85962 0
M  V30 348 C 30.0289 -1.44743 0.745212 0
M  V30 349 O 31.2179 -1.4626 1.02324 0
M  V30 350 C 28.3179 -2.7194 2.02242 0
M  V30 351 C 27.4909 -2.83562 3.33033 0
M  V30 352 C 26.5499 -4.02304 3.39172 0
M  V30 353 O 25.5759 -3.92273 4.12444 0
M  V30 354 N 26.7779 -5.15045 2.67784 0
M  V30 355 H 29.5429 -1.08191 2.7949 0
M  V30 356 H 27.1039 -0.446388 1.55624 0
M  V30 357 H 29.0959 -3.49697 2.03701 0
M  V30 358 H 27.6659 -2.90479 1.15502 0
M  V30 359 H 26.8859 -1.92555 3.43971 0
M  V30 360 H 28.1739 -2.88271 4.19258 0
M  V30 361 H 27.5719 -5.26085 2.07968 0
M  V30 362 H 26.1289 -5.90972 2.74947 0
M  V30 363 N 29.562 -1.4872 -0.521534 0
M  V30 364 C 30.811 -1.56419 -1.27341 0
M  V30 365 C 31.124 -0.246805 -1.94037 0
M  V30 366 O 32.33 -0.202122 -2.70747 0
M  V30 367 C 30.786 -2.75896 -2.31105 0
M  V30 368 C 30.394 -4.14311 -1.70441 0
M  V30 369 C 32.138 -2.92913 -3.07249 0
M  V30 370 C 30.045 -5.25038 -2.72194 0
M  V30 371 H 28.975 -0.582344 -0.478949 0
M  V30 372 H 31.626 -1.75071 -0.549779 0
M  V30 373 H 30.008 -2.50697 -3.06541 0
M  V30 374 H 31.182 -4.49564 -1.01136 0
M  V30 375 H 29.497 -4.02482 -1.06759 0
M  V30 376 H 32.094 -3.72805 -3.83302 0
M  V30 377 H 32.437 -2.02689 -3.63625 0
M  V30 378 H 32.97 -3.18054 -2.38928 0
M  V30 379 H 29.709 -6.17255 -2.20627 0
M  V30 380 H 29.229 -4.94263 -3.39801 0
M  V30 381 H 30.908 -5.53508 -3.35019 0
M  V30 382 N 31.0401 0.771051 -1.3745 0
M  V30 383 C 31.9901 1.87456 -1.29785 0
M  V30 384 C 32.9741 1.59827 -0.185541 0
M  V30 385 O 34.1661 1.71945 -0.419997 0
M  V30 386 C 31.2951 3.24935 -1.1078 0
M  V30 387 C 30.3811 3.58514 -2.26558 0
M  V30 388 N 30.7721 3.6327 -3.5195 0
M  V30 389 C 29.0701 3.88683 -2.18727 0
M  V30 390 C 29.7711 3.93616 -4.283 0
M  V30 391 N 28.7471 4.09551 -3.57448 0
M  V30 392 H 32.5491 1.89386 -2.24745 0
M  V30 393 H 30.0631 0.967531 -1.30432 0
M  V30 394 H 32.0601 4.03881 -1.03374 0
M  V30 395 H 30.7201 3.24268 -0.16738 0
M  V30 396 H 31.7311 3.45458 -3.85848 0
M  V30 397 H 28.4081 3.95834 -1.32746 0
M  V30 398 H 29.7981 4.04066 -5.36824 0
M  V30 399 N 32.5182 1.22032 0.997298 0
M  V30 400 C 33.7652 1.04222 1.73621 0
M  V30 401 C 34.0932 -0.423264 1.89839 0
M  V30 402 O 33.3482 -1.3302 1.43542 0
M  V30 403 C 33.6472 1.69345 3.14733 0
M  V30 404 C 33.3132 3.19226 3.18442 0
M  V30 405 C 31.9752 3.60124 3.19161 0
M  V30 406 C 34.3272 4.15181 3.15078 0
M  V30 407 C 31.6552 4.95467 3.14212 0
M  V30 408 C 34.0072 5.50495 3.1167 0
M  V30 409 C 32.6712 5.90779 3.10703 0
M  V30 410 H 31.9412 0.381374 0.635323 0
M  V30 411 H 34.5882 1.51732 1.16831 0
M  V30 412 H 32.8932 1.14147 3.74803 0
M  V30 413 H 34.5902 1.53059 3.7064 0
M  V30 414 H 31.1802 2.86659 3.18629 0
M  V30 415 H 35.3642 3.84605 3.13676 0
M  V30 416 H 30.6202 5.25916 3.11805 0
M  V30 417 H 34.7942 6.24576 3.08022 0
M  V30 418 H 32.4212 6.9562 3.06622 0
M  V30 419 N 33.9963 -1.19345 1.0293 0
M  V30 420 C 35.2453 -1.88363 0.721256 0
M  V30 421 C 35.5583 -1.80514 -0.753254 0
M  V30 422 O 36.7643 -2.44788 -1.17436 0
M  V30 423 C 35.2203 -3.37872 1.23978 0
M  V30 424 C 34.8283 -3.54278 2.74211 0
M  V30 425 C 36.5723 -4.12365 1.00775 0
M  V30 426 C 34.4793 -4.97682 3.19479 0
M  V30 427 H 33.4093 -0.705484 0.266098 0
M  V30 428 H 36.0603 -1.34928 1.24365 0
M  V30 429 H 34.4423 -3.90707 0.6453 0
M  V30 430 H 35.6163 -3.11769 3.39318 0
M  V30 431 H 33.9313 -2.93174 2.95699 0
M  V30 432 H 36.5283 -5.18119 1.32123 0
M  V30 433 H 36.8713 -4.16263 -0.0554308 0
M  V30 434 H 37.4043 -3.65668 1.56625 0
M  V30 435 H 34.1433 -4.98945 4.25128 0
M  V30 436 H 33.6633 -5.4095 2.591 0
M  V30 437 H 35.3423 -5.66337 3.12845 0
M  V30 438 N 35.4744 -0.807222 -1.35358 0
M  V30 439 C 36.7224 -0.387122 -1.98358 0
M  V30 440 C 37.0434 1.04942 -1.64354 0
M  V30 441 O 36.3134 1.72615 -0.926339 0
M  V30 442 H 34.8934 -0.140154 -0.733734 0
M  V30 443 H 37.5554 -1.0332 -1.6526 0
M  V30 444 H 36.6514 -0.493352 -3.08176 0
M  V30 445 N 36.9525 1.47285 -0.560781 0
M  V30 446 C 38.2015 2.01668 -0.035895 0
M  V30 447 C 38.5145 1.44021 1.32353 0
M  V30 448 O 39.7205 1.90088 1.93853 0
M  V30 449 C 38.1765 3.59897 -0.0136659 0
M  V30 450 C 37.7845 4.26536 -1.37006 0
M  V30 451 C 39.5285 4.22017 0.458425 0
M  V30 452 C 37.4355 5.76782 -1.30675 0
M  V30 453 H 36.3655 0.753938 -0.00964879 0
M  V30 454 H 39.0165 1.69243 -0.709166 0
M  V30 455 H 37.3985 3.89301 0.725325 0
M  V30 456 H 38.5725 4.0877 -2.12705 0
M  V30 457 H 36.8875 3.76419 -1.78038 0
M  V30 458 H 39.4845 5.32124 0.524247 0
M  V30 459 H 39.8275 3.89437 1.4712 0
M  V30 460 H 40.3605 3.97159 -0.225818 0
M  V30 461 H 37.0995 6.13988 -2.29564 0
M  V30 462 H 36.6195 5.96875 -0.591622 0
M  V30 463 H 38.2985 6.39063 -1.01033 0
M  V30 464 N 38.4306 0.297415 1.54768 0
M  V30 465 C 39.6786 -0.312295 1.99673 0
M  V30 466 C 39.9996 -1.54686 1.18732 0
M  V30 467 O 39.2696 -1.93854 0.282382 0
M  V30 468 H 37.8496 -0.118381 0.73756 0
M  V30 469 H 40.5116 0.407915 1.90583 0
M  V30 470 H 39.6076 -0.586813 3.06534 0
M  V30 471 N 39.9087 -1.5758 0.0250728 0
M  V30 472 C 41.1567 -1.91255 -0.653151 0
M  V30 473 C 41.4777 -0.901691 -1.729 0
M  V30 474 O 40.7477 0.0573785 -1.95816 0
M  V30 475 H 39.3277 -0.705942 -0.244243 0
M  V30 476 H 41.9897 -1.94767 0.0719209 0
M  V30 477 H 41.0857 -2.91752 -1.10847 0
M  V30 478 N 41.3868 0.248026 -1.55636 0
M  V30 479 C 42.3498 1.29044 -1.89421 0
M  V30 480 C 43.3498 1.41134 -0.770581 0
M  V30 481 O 44.5398 1.39854 -1.03858 0
M  V30 482 C 41.6718 2.66831 -2.12165 0
M  V30 483 H 42.8648 1.00305 -2.82629 0
M  V30 484 H 40.4178 0.487265 -1.48511 0
M  V30 485 H 41.1528 3.00711 -1.21422 0
M  V30 486 H 40.9378 2.59438 -2.93997 0
M  V30 487 H 42.4278 3.42103 -2.3949 0
M  V30 488 N 42.8649 1.48995 0.513639 0
M  V30 489 C 44.1129 1.57531 1.26604 0
M  V30 490 C 44.4339 0.258236 1.93283 0
M  V30 491 O 43.7039 -0.721502 1.8213 0
M  V30 492 H 42.2839 0.580387 0.470276 0
M  V30 493 H 44.9459 1.85552 0.596373 0
M  V30 494 H 44.0419 2.36486 2.03669 0
M  V30 495 N 44.343 -0.763751 1.37857 0
M  V30 496 C 45.276 -1.88486 1.28639 0
M  V30 497 C 46.254 -1.61757 0.165363 0
M  V30 498 O 47.438 -1.85391 0.340948 0
M  V30 499 C 44.565 -3.23884 0.990811 0
M  V30 500 C 43.611 -3.69514 2.12983 0
M  V30 501 S 44.444 -3.82244 3.75033 0
M  V30 502 C 45.6 -5.20477 3.47641 0
M  V30 503 H 45.833 -1.96017 2.23527 0
M  V30 504 H 43.366 -0.925684 1.23574 0
M  V30 505 H 45.324 -4.02081 0.827101 0
M  V30 506 H 43.985 -3.14044 0.0592832 0
M  V30 507 H 43.178 -4.67696 1.87821 0
M  V30 508 H 42.78 -2.98441 2.25408 0
M  V30 509 H 45.072 -6.05905 3.03125 0
M  V30 510 H 46.015 -5.50655 4.4518 0
M  V30 511 H 46.423 -4.88793 2.82385 0
M  V30 512 N 45.8211 -1.22559 -0.990812 0
M  V30 513 C 47.0461 -1.07862 -1.77145 0
M  V30 514 C 47.4711 0.366447 -1.84496 0
M  V30 515 O 46.8291 1.26478 -1.29896 0
M  V30 516 C 46.8771 -1.69686 -3.18181 0
M  V30 517 O 45.9811 -0.951946 -4.01263 0
M  V30 518 H 45.3221 -0.378712 -0.545411 0
M  V30 519 H 47.8521 -1.62399 -1.2445 0
M  V30 520 H 47.8621 -1.74496 -3.68802 0
M  V30 521 H 46.5371 -2.74841 -3.12146 0
M  V30 522 H 45.1141 -0.980011 -3.59792 0
M  V30 523 N 47.2992 1.18797 -1.03562 0
M  V30 524 C 48.5472 1.88278 -0.734569 0
M  V30 525 C 48.8682 1.8043 0.739586 0
M  V30 526 O 48.1382 1.21925 1.53333 0
M  V30 527 H 46.7182 0.696991 -0.268725 0
M  V30 528 H 49.3802 1.44192 -1.31129 0
M  V30 529 H 48.4762 2.94443 -1.03489 0
M  V30 530 N 48.7773 0.814389 1.34928 0
M  V30 531 C 50.0263 0.394871 1.97797 0
M  V30 532 C 50.3393 -1.04555 1.65311 0
M  V30 533 O 51.5453 -1.56856 2.21604 0
M  V30 534 C 50.0013 0.655103 3.53888 0
M  V30 535 C 49.6093 2.10858 3.95276 0
M  V30 536 C 51.3533 0.301329 4.23429 0
M  V30 537 C 49.2603 2.31415 5.44244 0
M  V30 538 H 48.1903 0.143913 0.740139 0
M  V30 539 H 50.8413 0.999544 1.53888 0
M  V30 540 H 49.2233 -0.0196253 3.95995 0
M  V30 541 H 50.3973 2.82176 3.64298 0
M  V30 542 H 48.7123 2.42297 3.38646 0
M  V30 543 H 51.3093 0.432869 5.32945 0
M  V30 544 H 51.6523 -0.75331 4.09428 0
M  V30 545 H 52.1853 0.930288 3.86769 0
M  V30 546 H 48.9243 3.35353 5.63222 0
M  V30 547 H 48.4443 1.6463 5.76764 0
M  V30 548 H 50.1233 2.13352 6.10811 0
M  V30 549 N 50.2554 -1.46986 0.568584 0
M  V30 550 C 51.2184 -2.28624 -0.162366 0
M  V30 551 C 52.2184 -1.37596 -0.832103 0
M  V30 552 O 53.4084 -1.60115 -0.68622 0
M  V30 553 C 50.5404 -3.17596 -1.23878 0
M  V30 554 H 51.7334 -2.94722 0.554899 0
M  V30 555 H 49.2864 -1.52863 0.325976 0
M  V30 556 H 50.0214 -2.56214 -1.98808 0
M  V30 557 H 49.8064 -3.846 -0.763219 0
M  V30 558 H 51.2964 -3.79078 -1.75185 0
M  V30 559 N 51.7335 -0.305618 -1.54608 0
M  V30 560 C 52.6435 0.57778 -2.27374 0
M  V30 561 C 53.6595 1.14451 -1.31061 0
M  V30 562 O 54.8355 1.16831 -1.6405 0
M  V30 563 C 51.9005 1.73123 -3.00382 0
M  V30 564 C 50.9615 1.19812 -4.12242 0
M  V30 565 C 50.1945 2.2966 -4.81759 0
M  V30 566 O 50.4175 3.49651 -4.50666 0
M  V30 567 O 49.3515 1.96091 -5.69062 0
M  V30 568 H 53.1775 -0.012624 -3.03697 0
M  V30 569 H 50.7625 -0.0719184 -1.49227 0
M  V30 570 H 52.6445 2.40315 -3.4616 0
M  V30 571 H 51.3195 2.30815 -2.26949 0
M  V30 572 H 50.2265 0.491798 -3.70853 0
M  V30 573 H 51.5595 0.666566 -4.87666 0
M  V30 574 N 53.2116 1.57565 -0.0334293 0
M  V30 575 C 54.4606 1.91155 0.643639 0
M  V30 576 C 54.7736 0.91192 1.73042 0
M  V30 577 O 55.9796 1.13923 2.46442 0
M  V30 578 C 54.4356 3.39443 1.1961 0
M  V30 579 C 54.0436 4.47774 0.142381 0
M  V30 580 C 55.7876 3.82094 1.84944 0
M  V30 581 C 53.6946 5.87162 0.706727 0
M  V30 582 H 52.6246 0.713368 0.244176 0
M  V30 583 H 55.2756 1.8323 -0.0994323 0
M  V30 584 H 53.6576 3.42313 1.99092 0
M  V30 585 H 54.8316 4.56469 -0.630296 0
M  V30 586 H 53.1466 4.14352 -0.412446 0
M  V30 587 H 55.7436 4.83591 2.2813 0
M  V30 588 H 56.0866 3.17386 2.69392 0
M  V30 589 H 56.6196 3.81665 1.12145 0
M  V30 590 H 53.3586 6.55424 -0.0997178 0
M  V30 591 H 52.8786 5.82064 1.44779 0
M  V30 592 H 54.5576 6.35866 1.19514 0
M  V30 593 N 54.6897 -0.239769 1.55765 0
M  V30 594 C 55.6197 -1.30052 1.9393 0
M  V30 595 C 56.6007 -1.49839 0.805132 0
M  V30 596 O 57.7857 -1.62328 1.06599 0
M  V30 597 C 54.9157 -2.65391 2.2402 0
M  V30 598 C 53.8697 -2.60289 3.39755 0
M  V30 599 C 53.1957 -3.99489 3.55405 0
M  V30 600 C 54.4957 -2.16654 4.75246 0
M  V30 601 H 56.1897 -0.983573 2.82783 0
M  V30 602 H 53.7357 -0.471701 1.36055 0
M  V30 603 H 55.6887 -3.3974 2.49308 0
M  V30 604 H 54.4127 -2.98736 1.32 0
M  V30 605 H 53.0717 -1.88398 3.14487 0
M  V30 606 H 52.7197 -4.30112 2.60793 0
M  V30 607 H 52.4197 -3.96962 4.33238 0
M  V30 608 H 53.9437 -4.75528 3.83022 0
M  V30 609 H 55.3577 -2.80737 4.99859 0
M  V30 610 H 53.7547 -2.25223 5.56232 0
M  V30 611 H 54.8247 -1.11835 4.71827 0
M  V30 612 N 56.1678 -1.49265 -0.50573 0
M  V30 613 C 57.0978 -1.68495 -1.61653 0
M  V30 614 C 58.0788 -0.53366 -1.61512 0
M  V30 615 O 59.2638 -0.76897 -1.78327 0
M  V30 616 C 56.3938 -1.74709 -3.00157 0
M  V30 617 C 55.3478 -2.89581 -3.15162 0
M  V30 618 C 54.6738 -2.80903 -4.5497 0
M  V30 619 C 55.9738 -4.30578 -2.95634 0
M  V30 620 H 57.6678 -2.61493 -1.45814 0
M  V30 621 H 55.2138 -1.25838 -0.70005 0
M  V30 622 H 57.1668 -1.86748 -3.77761 0
M  V30 623 H 55.8908 -0.783067 -3.17074 0
M  V30 624 H 54.5498 -2.77136 -2.39982 0
M  V30 625 H 54.1978 -1.82419 -4.68756 0
M  V30 626 H 53.8978 -3.57999 -4.65951 0
M  V30 627 H 55.4218 -2.94944 -5.34641 0
M  V30 628 H 56.8358 -4.4373 -3.63011 0
M  V30 629 H 55.2328 -5.0886 -3.18091 0
M  V30 630 H 56.3028 -4.45352 -1.91806 0
M  V30 631 N 57.6459 0.756429 -1.3826 0
M  V30 632 C 58.5939 1.89149 -1.35372 0
M  V30 633 C 59.5879 1.67691 -0.24004 0
M  V30 634 O 60.7939 1.75294 -0.408919 0
M  V30 635 H 57.1689 0.622271 -0.422236 0
M  V30 636 H 59.1399 1.88701 -2.31159 0
M  V30 637 C 57.8889 3.26599 -1.19284 0
M  V30 638 H 57.2119 3.43695 -2.0424 0
M  V30 639 H 58.6519 4.06274 -1.21316 0
M  V30 640 C 57.1109 3.3675 0.100454 0
M  V30 641 O 57.6409 3.86951 1.07851 0
M  V30 642 N 55.8469 2.90179 0.15633 0
M  V30 643 H 55.3939 2.49517 -0.640253 0
M  V30 644 H 55.3519 2.97352 1.02123 0
M  V30 645 N 59.124 1.23083 0.984299 0
M  V30 646 C 60.034 1.02515 2.11016 0
M  V30 647 C 61.05 -0.0291702 1.73976 0
M  V30 648 O 62.226 0.165434 2.00719 0
M  V30 649 C 59.291 0.614673 3.41208 0
M  V30 650 C 58.352 1.74359 3.92297 0
M  V30 651 C 57.585 1.35261 5.16275 0
M  V30 652 O 57.808 0.235136 5.69915 0
M  V30 653 O 56.742 2.17227 5.61334 0
M  V30 654 H 60.568 1.96862 2.31255 0
M  V30 655 H 58.153 1.01753 1.09392 0
M  V30 656 H 60.035 0.396518 4.1953 0
M  V30 657 H 58.71 -0.299851 3.22308 0
M  V30 658 H 57.617 2.01635 3.1511 0
M  V30 659 H 58.95 2.63629 4.15645 0
M  V30 660 N 60.6021 -1.18246 1.0419 0
M  V30 661 C 61.8501 -1.87886 0.744543 0
M  V30 662 C 62.1711 -1.8082 -0.730006 0
M  V30 663 O 61.4411 -1.22736 -1.52685 0
M  V30 664 H 60.0211 -0.695556 0.272417 0
M  V30 665 H 62.6831 -1.43494 1.31892 0
M  V30 666 H 61.7791 -2.9389 1.05049 0
M  V30 667 N 62.0802 -0.821533 -1.34494 0
M  V30 668 C 63.3102 -0.421272 -2.02259 0
M  V30 669 C 63.7182 0.977047 -1.6202 0
M  V30 670 O 63.0612 1.64348 -0.820703 0
M  V30 671 C 63.1232 -0.44231 -3.56769 0
M  V30 672 C 62.7872 -1.79372 -4.20327 0
M  V30 673 C 63.7842 -2.75435 -4.40944 0
M  V30 674 C 61.4692 -2.08182 -4.57127 0
M  V30 675 C 63.4632 -3.98482 -4.97484 0
M  V30 676 C 61.1502 -3.31489 -5.13379 0
M  V30 677 C 62.1482 -4.26457 -5.33501 0
M  V30 678 O 61.8362 -5.47585 -5.88562 0
M  V30 679 H 61.5682 -0.167473 -0.654927 0
M  V30 680 H 64.1222 -1.11073 -1.72777 0
M  V30 681 H 62.3522 0.303836 -3.85505 0
M  V30 682 H 64.0412 -0.0622925 -4.05852 0
M  V30 683 H 64.8072 -2.54473 -4.12878 0
M  V30 684 H 60.6862 -1.35066 -4.4077 0
M  V30 685 H 64.2302 -4.72618 -5.13106 0
M  V30 686 H 60.1272 -3.52316 -5.40873 0
M  V30 687 H 60.8952 -5.49086 -6.06998 0
M  V30 688 N 63.5583 1.46682 -0.576371 0
M  V30 689 C 64.4903 2.28341 0.198231 0
M  V30 690 C 65.5033 1.38141 0.861453 0
M  V30 691 O 66.6923 1.62797 0.732082 0
M  V30 692 C 63.7923 3.12986 1.29972 0
M  V30 693 C 62.9653 4.31271 0.729639 0
M  V30 694 C 62.0243 4.97363 1.71803 0
M  V30 695 O 61.0503 5.55156 1.25658 0
M  V30 696 N 62.2523 4.93796 3.05198 0
M  V30 697 H 65.0173 2.9546 -0.502324 0
M  V30 698 H 62.5783 1.56525 -0.413715 0
M  V30 699 H 64.5703 3.54066 1.96008 0
M  V30 700 H 63.1403 2.47984 1.90323 0
M  V30 701 H 62.3603 3.94052 -0.108012 0
M  V30 702 H 63.6483 5.07739 0.328438 0
M  V30 703 H 63.0463 4.48077 3.45317 0
M  V30 704 H 61.6033 5.38837 3.6674 0
M  V30 705 N 65.0364 0.313813 1.54444 0
M  V30 706 C 66.2854 -0.292519 1.99568 0
M  V30 707 C 66.5984 -1.54011 1.20582 0
M  V30 708 O 67.8044 -2.22183 1.56035 0
M  V30 709 C 66.2604 -0.571752 3.55329 0
M  V30 710 C 65.8684 0.658229 4.43138 0
M  V30 711 C 67.6124 -1.13857 4.08946 0
M  V30 712 C 65.5194 0.351439 5.90355 0
M  V30 713 H 64.4494 -0.113079 0.745472 0
M  V30 714 H 67.1004 0.424518 1.78522 0
M  V30 715 H 65.4824 -1.34872 3.72325 0
M  V30 716 H 66.6564 1.43403 4.37918 0
M  V30 717 H 64.9714 1.14458 4.0036 0
M  V30 718 H 67.5684 -1.38257 5.16516 0
M  V30 719 H 67.9114 -2.08489 3.6033 0
M  V30 720 H 68.4444 -0.423015 3.95544 0
M  V30 721 H 65.1834 1.26667 6.43145 0
M  V30 722 H 64.7034 -0.386842 5.98551 0
M  V30 723 H 66.3824 -0.0423134 6.46986 0
M  V30 724 N 66.5145 -1.57545 0.0417849 0
M  V30 725 C 67.7395 -1.97035 -0.647455 0
M  V30 726 C 68.1645 -0.918775 -1.64135 0
M  V30 727 O 67.5225 0.119006 -1.80909 0
M  V30 728 C 67.5705 -3.35609 -1.31905 0
M  V30 729 O 66.6745 -3.3287 -2.43457 0
M  V30 730 H 66.0155 -0.64211 -0.169086 0
M  V30 731 H 68.5455 -2.04318 0.107399 0
M  V30 732 H 68.5555 -3.72126 -1.67291 0
M  V30 733 H 67.2305 -4.11685 -0.590586 0
M  V30 734 H 65.8075 -3.08087 -2.10088 0
M  V30 735 N 67.9926 0.231505 -1.5589 0
M  V30 736 C 69.2406 0.955461 -1.78088 0
M  V30 737 C 69.5616 1.85262 -0.608533 0
M  V30 738 O 68.8316 1.92277 0.375035 0
M  V30 739 H 67.4116 0.355787 -0.656829 0
M  V30 740 H 70.0736 0.245751 -1.93344 0
M  V30 741 H 69.1696 1.56814 -2.69844 0
M  V30 742 N 69.4707 1.49531 0.497807 0
M  V30 743 C 70.6957 1.63159 1.28039 0
M  V30 744 C 71.1207 0.30418 1.85624 0
M  V30 745 O 70.4787 -0.728618 1.66015 0
M  V30 746 C 70.5267 2.70537 2.38416 0
M  V30 747 O 69.6307 2.29931 3.42353 0
M  V30 748 H 68.9717 0.546001 0.377861 0
M  V30 749 H 71.5017 1.9574 0.59558 0
M  V30 750 H 71.5117 2.92802 2.84132 0
M  V30 751 H 70.1867 3.6689 1.95869 0
M  V30 752 H 68.7637 2.18009 3.02533 0
M  V30 753 N 70.9488 -0.749086 1.3866 0
M  V30 754 C 72.2258 -1.4992 1.25632 0
M  V30 755 C 72.6058 -2.10633 -0.140317 0
M  V30 756 O 71.9538 -1.97437 -1.15025 0
M  V30 757 C 72.1638 -2.56195 2.36992 0
M  V30 758 C 73.5118 -3.22972 2.75634 0
M  V30 759 O 74.5358 -2.66502 2.36337 0
M  V30 760 O 73.3948 -4.25122 3.43415 0
M  V30 761 H 70.4888 -0.665067 0.491544 0
M  V30 762 H 73.0348 -0.784113 1.50498 0
M  V30 763 H 71.8068 -2.09612 3.30422 0
M  V30 764 H 71.4298 -3.35279 2.13714 0
M  V30 765 N 72.4269 -1.23603 -0.977757 0
M  V30 766 C 73.6759 -1.06377 -1.71368 0
M  V30 767 C 73.9889 0.399062 -1.91486 0
M  V30 768 O 75.1949 0.691312 -2.62551 0
M  V30 769 C 73.6509 -1.85512 -3.08404 0
M  V30 770 C 73.2589 -3.36141 -2.96164 0
M  V30 771 C 75.0029 -1.76783 -3.85938 0
M  V30 772 C 72.9099 -4.07659 -4.28449 0
M  V30 773 H 71.8399 -0.394452 -0.642591 0
M  V30 774 H 74.4909 -1.47594 -1.09034 0
M  V30 775 H 72.8729 -1.37103 -3.71509 0
M  V30 776 H 74.0469 -3.92056 -2.42133 0
M  V30 777 H 72.3619 -3.45712 -2.32104 0
M  V30 778 H 74.9589 -2.27526 -4.83876 0
M  V30 779 H 75.3019 -0.731116 -4.0983 0
M  V30 780 H 75.8349 -2.22818 -3.2954 0
M  V30 781 H 72.5739 -5.11648 -4.09752 0
M  V30 782 H 72.0939 -3.5653 -4.82334 0
M  V30 783 H 73.7729 -4.141 -4.97122 0
M  V30 784 N 73.905 1.17692 -1.04816 0
M  V30 785 C 74.868 2.19787 -0.650117 0
M  V30 786 C 75.868 1.58044 0.296427 0
M  V30 787 O 77.058 1.74012 0.0808097 0
M  V30 788 C 74.19 3.40869 0.0456987 0
M  V30 789 H 75.383 2.56516 -1.5537 0
M  V30 790 H 72.936 1.31708 -0.841594 0
M  V30 791 H 73.671 3.09681 0.962726 0
M  V30 792 H 73.456 3.86928 -0.634727 0
M  V30 793 H 74.946 4.16445 0.310432 0
M  V30 794 N 75.3831 0.828654 1.34056 0
M  V30 795 C 76.6601 0.341809 1.9259 0
M  V30 796 C 77.0401 -1.17158 1.75605 0
M  V30 797 O 76.3881 -1.98132 1.13824 0
M  V30 798 C 76.5981 0.777453 3.4023 0
M  V30 799 C 77.9461 0.779579 4.17382 0
M  V30 800 O 78.9701 0.7204 3.48839 0
M  V30 801 O 77.8291 0.857996 5.39723 0
M  V30 802 H 74.9231 0.0946085 0.821571 0
M  V30 803 H 77.4691 0.913827 1.42994 0
M  V30 804 H 76.2411 1.8196 3.46419 0
M  V30 805 H 75.8641 0.181444 3.97186 0
M  V30 806 N 76.8612 -1.46375 0.584142 0
M  V30 807 C 78.1092 -2.01978 0.0701287 0
M  V30 808 C 78.4302 -1.4579 -1.295 0
M  V30 809 O 77.7002 -0.64314 -1.85042 0
M  V30 810 H 76.2802 -0.746648 0.0229345 0
M  V30 811 H 78.9422 -1.79461 0.760245 0
M  V30 812 H 78.0382 -3.121 0.0022064 0
M  V30 813 N 78.3393 -0.321999 -1.54275 0
M  V30 814 C 79.5853 0.281461 -2.00837 0
M  V30 815 C 79.9183 1.51909 -1.20985 0
M  V30 816 O 79.1933 1.923 -0.291733 0
M  V30 817 C 79.4763 0.617162 -3.54772 0
M  V30 818 C 79.3293 -0.631064 -4.45351 0
M  V30 819 C 80.6483 1.43542 -4.16033 0
M  V30 820 H 77.7673 0.100826 -0.730071 0
M  V30 821 H 80.4093 -0.438268 -1.84876 0
M  V30 822 H 78.5593 1.23034 -3.68504 0
M  V30 823 H 80.2313 -1.26934 -4.43492 0
M  V30 824 H 78.4743 -1.26025 -4.15091 0
M  V30 825 H 79.1453 -0.351735 -5.50878 0
M  V30 826 H 81.6213 0.917134 -4.05867 0
M  V30 827 H 80.4973 1.63907 -5.23856 0
M  V30 828 H 80.7583 2.43108 -3.69257 0
M  V30 829 N 79.8174 1.5752 -0.0501392 0
M  V30 830 C 81.0634 1.92936 0.624798 0
M  V30 831 C 81.3964 0.928685 1.70555 0
M  V30 832 O 80.6714 -0.0454779 1.94447 0
M  V30 833 C 80.9544 3.38737 1.22185 0
M  V30 834 C 80.8074 4.49552 0.149218 0
M  V30 835 C 82.1264 3.84913 2.13378 0
M  V30 836 H 79.2454 0.701604 0.225657 0
M  V30 837 H 81.8874 1.89671 -0.111693 0
M  V30 838 H 80.0374 3.4165 1.84953 0
M  V30 839 H 81.7094 4.58768 -0.482648 0
M  V30 840 H 79.9524 4.30638 -0.522841 0
M  V30 841 H 80.6234 5.48653 0.606966 0
M  V30 842 H 83.0994 3.8387 1.60572 0
M  V30 843 H 81.9754 4.87584 2.52097 0
M  V30 844 H 82.2364 3.21611 3.03346 0
M  V30 845 N 81.2955 -0.223234 1.56011 0
M  V30 846 C 82.5235 -0.964812 1.83027 0
M  V30 847 C 82.9385 -1.78013 0.62904 0
M  V30 848 O 82.2955 -1.78008 -0.402414 0
M  V30 849 C 82.3465 -1.88373 3.08542 0
M  V30 850 O 82.0675 -1.10137 4.2403 0
M  V30 851 C 83.5685 -2.73934 3.48533 0
M  V30 852 H 80.7885 -0.282842 0.608475 0
M  V30 853 H 83.3325 -0.238971 2.03099 0
M  V30 854 H 81.4875 -2.56354 2.9045 0
M  V30 855 H 81.9015 -1.72501 4.95322 0
M  V30 856 H 83.3755 -3.34117 4.39397 0
M  V30 857 H 83.8525 -3.46244 2.70207 0
M  V30 858 H 84.4585 -2.11369 3.69057 0
M  V30 859 N 82.7736 -1.49793 -0.48987 0
M  V30 860 C 83.7056 -1.63413 -1.60713 0
M  V30 861 C 84.7186 -0.516329 -1.54395 0
M  V30 862 O 85.9076 -0.788812 -1.60125 0
M  V30 863 C 83.0076 -1.58516 -2.99543 0
M  V30 864 C 82.1806 -2.86016 -3.30928 0
M  V30 865 C 81.2396 -2.74018 -4.49222 0
M  V30 866 O 80.2656 -3.47964 -4.50455 0
M  V30 867 N 81.4676 -1.86309 -5.4979 0
M  V30 868 H 84.2326 -2.59777 -1.49452 0
M  V30 869 H 81.7936 -1.47022 -0.677955 0
M  V30 870 H 83.7856 -1.48128 -3.76617 0
M  V30 871 H 82.3556 -0.69965 -3.0467 0
M  V30 872 H 81.5756 -3.10672 -2.42645 0
M  V30 873 H 82.8636 -3.70521 -3.487 0
M  V30 874 H 82.2616 -1.2551 -5.51601 0
M  V30 875 H 80.8186 -1.81837 -6.25922 0
M  V30 876 N 84.2517 0.741722 -1.39055 0
M  V30 877 C 85.6677 1.04638 -1.20512 0
M  V30 878 C 85.8677 2.01405 -0.0620218 0
M  V30 879 O 84.9237 2.45547 0.588457 0
M  V30 880 C 86.2367 1.6151 -2.53643 0
M  V30 881 C 87.7847 1.73623 -2.6043 0
M  V30 882 C 88.2597 2.33906 -3.93767 0
M  V30 883 N 89.7507 2.41323 -3.9537 0
M  V30 884 C 90.4857 2.88888 -4.95309 0
M  V30 885 N 89.9817 3.36401 -6.05645 0
M  V30 886 N 91.7747 2.88037 -4.82692 0
M  V30 887 H 83.9257 0.0998155 -2.12165 0
M  V30 888 H 86.1887 0.106907 -0.941953 0
M  V30 889 H 85.8947 0.978739 -3.37807 0
M  V30 890 H 85.7687 2.60411 -2.72885 0
M  V30 891 H 88.1557 2.36384 -1.76655 0
M  V30 892 H 88.2367 0.733945 -2.45045 0
M  V30 893 H 87.8807 1.71776 -4.7797 0
M  V30 894 H 87.8107 3.34799 -4.06469 0
M  V30 895 H 90.3017 2.07734 -3.15682 0
M  V30 896 H 90.6147 3.71186 -6.77821 0
M  V30 897 H 88.9597 3.34427 -6.09248 0
M  V30 898 H 92.1507 2.50237 -3.95599 0
M  V30 899 H 92.3237 3.24792 -5.60726 0
M  V30 900 N 85.7298 1.2412 0.971189 0
M  V30 901 C 86.6598 1.05508 2.08304 0
M  V30 902 C 87.6408 -0.0308864 1.70072 0
M  V30 903 O 88.8258 0.135521 1.93727 0
M  V30 904 C 85.9558 0.655365 3.4106 0
M  V30 905 C 84.9098 1.68971 3.93234 0
M  V30 906 C 84.2358 1.14516 5.22293 0
M  V30 907 C 85.5358 3.08487 4.21465 0
M  V30 908 H 87.2298 1.98507 2.24132 0
M  V30 909 H 84.7758 0.955821 1.07704 0
M  V30 910 H 86.7288 0.51217 4.18276 0
M  V30 911 H 85.4528 -0.31032 3.25122 0
M  V30 912 H 84.1118 1.82106 3.18171 0
M  V30 913 H 83.7598 0.170189 5.02712 0
M  V30 914 H 83.4598 1.83635 5.58168 0
M  V30 915 H 84.9838 1.01401 6.02121 0
M  V30 916 H 86.3978 2.98601 4.89398 0
M  V30 917 H 84.7948 3.74926 4.68562 0
M  V30 918 H 85.8648 3.56787 3.28376 0
M  V30 919 N 87.2079 -1.17134 1.05439 0
M  V30 920 C 88.1709 -2.19439 0.661764 0
M  V30 921 C 89.1709 -1.58199 -0.288042 0
M  V30 922 O 90.3609 -1.74053 -0.0715803 0
M  V30 923 C 87.4929 -3.40889 -0.0276209 0
M  V30 924 H 88.6859 -2.55688 1.56728 0
M  V30 925 H 86.2389 -1.31259 0.848567 0
M  V30 926 H 86.9739 -3.10187 -0.94629 0
M  V30 927 H 86.7589 -3.86586 0.655238 0
M  V30 928 H 88.2489 -4.16603 -0.288342 0
M  V30 929 N 88.686 -0.835752 -1.33615 0
M  V30 930 C 89.618 -0.224151 -2.28101 0
M  V30 931 C 90.631 0.593331 -1.51603 0
M  V30 932 O 91.82 0.420911 -1.73466 0
M  V30 933 C 88.92 0.703309 -3.31522 0
M  V30 934 C 88.093 -0.0741528 -4.37337 0
M  V30 935 C 87.152 0.776176 -5.20444 0
M  V30 936 O 86.178 0.216506 -5.68788 0
M  V30 937 N 87.38 2.09401 -5.41416 0
M  V30 938 H 90.145 -1.03598 -2.81225 0
M  V30 939 H 87.706 -0.69392 -1.46275 0
M  V30 940 H 89.698 1.27707 -3.84022 0
M  V30 941 H 88.268 1.41585 -2.78698 0
M  V30 942 H 87.488 -0.82928 -3.85378 0
M  V30 943 H 88.776 -0.608863 -5.05144 0
M  V30 944 H 88.174 2.57229 -5.03835 0
M  V30 945 H 86.731 2.61633 -5.96985 0
M  V30 946 N 90.1641 1.46063 -0.591896 0
M  V30 947 C 91.1271 2.28854 0.125973 0
M  V30 948 C 92.1271 1.38903 0.810107 0
M  V30 949 O 93.3171 1.61186 0.66066 0
M  V30 950 C 90.4491 3.19526 1.1881 0
M  V30 951 H 91.6421 2.93802 -0.601717 0
M  V30 952 H 89.1951 1.52325 -0.350254 0
M  V30 953 H 89.9301 2.59345 1.94707 0
M  V30 954 H 89.7151 3.85766 0.701936 0
M  V30 955 H 91.2051 3.81817 1.69132 0
M  V30 956 N 91.6422 0.330177 1.54103 0
M  V30 957 C 92.8902 -0.269871 2.0029 0
M  V30 958 C 93.2112 -1.52133 1.21986 0
M  V30 959 O 92.4812 -1.93212 0.323438 0
M  V30 960 H 91.0612 -0.10271 0.739905 0
M  V30 961 H 93.7232 0.448249 1.89675 0
M  V30 962 H 92.8192 -0.52166 3.07709 0
M  V30 963 N 93.1203 -1.57491 0.0584922 0
M  V30 964 C 94.0833 -2.1085 -0.898617 0
M  V30 965 C 95.0833 -1.02964 -1.23511 0
M  V30 966 O 96.2733 -1.29007 -1.17059 0
M  V30 967 C 93.4053 -2.59881 -2.20623 0
M  V30 968 H 94.5983 -2.96715 -0.435936 0
M  V30 969 H 92.1513 -1.55141 -0.190023 0
M  V30 970 H 92.8863 -1.77431 -2.71457 0
M  V30 971 H 92.6713 -3.38727 -1.97501 0
M  V30 972 H 94.1613 -3.01285 -2.89166 0
M  V30 973 N 94.5984 0.214957 -1.56127 0
M  V30 974 C 95.5454 1.26642 -1.92952 0
M  V30 975 C 96.5154 1.46244 -0.78753 0
M  V30 976 O 97.7004 1.59704 -1.04399 0
M  V30 977 C 94.8404 2.6104 -2.25726 0
M  V30 978 C 93.9534 2.49183 -3.52891 0
M  V30 979 C 93.0884 3.76149 -3.7508 0
M  V30 980 C 92.1274 3.59041 -4.95738 0
M  V30 981 N 91.2644 4.77972 -5.14283 0
M  V30 982 H 96.1044 0.945384 -2.82607 0
M  V30 983 H 93.6414 0.455489 -1.3987 0
M  V30 984 H 95.5994 3.39313 -2.42739 0
M  V30 985 H 94.2294 2.91227 -1.39236 0
M  V30 986 H 93.2814 1.6231 -3.44034 0
M  V30 987 H 94.5934 2.32466 -4.41318 0
M  V30 988 H 93.7474 4.62865 -3.92226 0
M  V30 989 H 92.4864 3.95799 -2.84947 0
M  V30 990 H 91.4914 2.7071 -4.78535 0
M  V30 991 H 92.7164 3.40856 -5.87362 0
M  V30 992 H 90.6624 4.97923 -4.27093 0
M  V30 993 H 90.5794 4.64006 -5.96853 0
M  V30 994 H 91.8474 5.66096 -5.35869 0
M  V30 995 N 96.0765 1.50051 0.48192 0
M  V30 996 C 97.3255 1.59741 1.23149 0
M  V30 997 C 97.6385 0.298163 1.93314 0
M  V30 998 O 98.8445 0.273835 2.70116 0
M  V30 999 C 97.3005 2.81926 2.23708 0
M  V30 1000 C 96.9085 4.18685 1.59396 0
M  V30 1001 C 98.6525 3.00956 2.99375 0
M  V30 1002 C 96.5595 5.3207 2.58178 0
M  V30 1003 H 95.4895 0.594838 0.46334 0
M  V30 1004 H 98.1405 1.76467 0.503169 0
M  V30 1005 H 96.5225 2.58736 2.99786 0
M  V30 1006 H 97.6965 4.52088 0.891811 0
M  V30 1007 H 96.0115 4.05171 0.960503 0
M  V30 1008 H 98.6085 3.82836 3.73283 0
M  V30 1009 H 98.9515 2.12258 3.58123 0
M  V30 1010 H 99.4845 3.24277 2.30411 0
M  V30 1011 H 96.2235 6.22888 2.04184 0
M  V30 1012 H 95.7435 5.03098 3.26577 0
M  V30 1013 H 97.4225 5.62196 3.20225 0
M  V30 1014 N 97.5546 -0.734337 1.39446 0
M  V30 1015 C 98.7846 -1.52137 1.39778 0
M  V30 1016 C 99.1926 -1.89198 -0.00929312 0
M  V30 1017 O 98.5356 -1.54666 -0.991168 0
M  V30 1018 C 98.5976 -2.83762 2.20724 0
M  V30 1019 C 98.2616 -2.69131 3.69347 0
M  V30 1020 C 99.2586 -2.37635 4.62413 0
M  V30 1021 C 96.9436 -2.85982 4.1294 0
M  V30 1022 C 98.9376 -2.23172 5.97054 0
M  V30 1023 C 96.6246 -2.71137 5.47657 0
M  V30 1024 C 97.6226 -2.39777 6.39528 0
M  V30 1025 O 97.3106 -2.25026 7.71763 0
M  V30 1026 H 97.0426 -0.476717 0.479288 0
M  V30 1027 H 99.5966 -0.915012 1.83893 0
M  V30 1028 H 97.8266 -3.4666 1.71359 0
M  V30 1029 H 99.5156 -3.45383 2.13226 0
M  V30 1030 H 100.282 -2.24267 4.30034 0
M  V30 1031 H 96.1606 -3.09383 3.41765 0
M  V30 1032 H 99.7046 -1.98617 6.68728 0
M  V30 1033 H 95.6016 -2.84083 5.79626 0
M  V30 1034 H 96.3696 -2.40091 7.82495 0
M  V30 1035 N 99.0327 -1.24633 -0.964593 0
M  V30 1036 C 100.282 -1.08188 -1.7023 0
M  V30 1037 C 100.595 0.37873 -1.91898 0
M  V30 1038 O 101.801 0.663427 -2.6327 0
M  V30 1039 C 100.257 -1.88773 -3.06419 0
M  V30 1040 C 99.8647 -3.39263 -2.92582 0
M  V30 1041 C 101.609 -1.80867 -3.84041 0
M  V30 1042 C 99.5157 -4.1218 -4.24101 0
M  V30 1043 H 98.4457 -0.401245 -0.638372 0
M  V30 1044 H 101.097 -1.48742 -1.07462 0
M  V30 1045 H 99.4787 -1.41035 -3.70034 0
M  V30 1046 H 100.653 -3.94603 -2.37961 0
M  V30 1047 H 98.9677 -3.48154 -2.28424 0
M  V30 1048 H 101.565 -2.32646 -4.81435 0
M  V30 1049 H 101.908 -0.774543 -4.09031 0
M  V30 1050 H 102.441 -2.26301 -3.27159 0
M  V30 1051 H 99.1797 -5.15965 -4.04303 0
M  V30 1052 H 98.6997 -3.61626 -4.78526 0
M  V30 1053 H 100.379 -4.19349 -4.92702 0
M  V30 1054 N 100.511 1.16574 -1.06058 0
M  V30 1055 C 101.759 1.86677 -0.77434 0
M  V30 1056 C 102.08 1.81959 0.701147 0
M  V30 1057 O 101.35 1.2515 1.50713 0
M  V30 1058 H 99.9298 0.691134 -0.283449 0
M  V30 1059 H 102.592 1.41378 -1.34158 0
M  V30 1060 H 101.688 2.92181 -1.09711 0
M  V30 1061 N 101.989 0.842826 1.3317 0
M  V30 1062 C 102.939 0.250877 2.26616 0
M  V30 1063 C 103.923 -0.596427 1.49437 0
M  V30 1064 O 105.115 -0.447747 1.71243 0
M  V30 1065 C 102.244 -0.569779 3.38539 0
M  V30 1066 C 101.33 0.289254 4.23112 0
M  V30 1067 N 101.721 1.36987 4.86897 0
M  V30 1068 C 100.019 0.0769631 4.45934 0
M  V30 1069 C 100.72 1.89737 5.49886 0
M  V30 1070 N 99.6959 1.19827 5.30229 0
M  V30 1071 H 103.498 1.07718 2.73448 0
M  V30 1072 H 101.012 0.687693 1.47121 0
M  V30 1073 H 103.009 -1.01018 4.04476 0
M  V30 1074 H 101.669 -1.39401 2.93253 0
M  V30 1075 H 102.68 1.75277 4.87338 0
M  V30 1076 H 99.3569 -0.713507 4.11358 0
M  V30 1077 H 100.747 2.80253 6.10662 0
M  V30 1078 N 103.467 -1.45747 0.599634 0
M  V30 1079 C 104.43 -2.28917 -0.113835 0
M  V30 1080 C 105.43 -1.3933 -0.802729 0
M  V30 1081 O 106.62 -1.61534 -0.652103 0
M  V30 1082 C 103.752 -3.20152 -1.17114 0
M  V30 1083 H 104.945 -2.93478 0.617289 0
M  V30 1084 H 102.498 -1.52137 0.358327 0
M  V30 1085 H 103.233 -2.60374 -1.93329 0
M  V30 1086 H 103.018 -3.86133 -0.681468 0
M  V30 1087 H 104.508 -3.82708 -1.67105 0
M  V30 1088 N 104.945 -0.338344 -1.53925 0
M  V30 1089 C 105.855 0.529421 -2.28548 0
M  V30 1090 C 106.871 1.11645 -1.3346 0
M  V30 1091 O 108.047 1.13325 -1.66492 0
M  V30 1092 C 105.112 1.66713 -3.03987 0
M  V30 1093 C 104.173 1.11041 -4.14691 0
M  V30 1094 C 103.406 2.19389 -4.86522 0
M  V30 1095 O 103.629 3.40013 -4.57982 0
M  V30 1096 O 102.563 1.83976 -5.73094 0
M  V30 1097 H 106.389 -0.0770399 -3.03602 0
M  V30 1098 H 103.974 -0.103555 -1.49041 0
M  V30 1099 H 105.856 2.32918 -3.5118 0
M  V30 1100 H 104.531 2.25949 -2.31794 0
M  V30 1101 H 103.438 0.413024 -3.71813 0
M  V30 1102 H 104.771 0.562975 -4.8897 0
M  V30 1103 N 106.423 1.57458 -0.0668435 0
M  V30 1104 C 107.333 2.15937 0.916975 0
M  V30 1105 C 108.349 1.12123 1.33058 0
M  V30 1106 O 109.525 1.44366 1.40429 0
M  V30 1107 C 106.59 2.70547 2.16807 0
M  V30 1108 C 105.651 3.89215 1.81135 0
M  V30 1109 C 104.884 4.41211 3.0028 0
M  V30 1110 O 105.107 3.92225 4.14144 0
M  V30 1111 O 104.041 5.32605 2.80384 0
M  V30 1112 H 107.867 3.00354 0.449561 0
M  V30 1113 H 105.452 1.48584 0.155949 0
M  V30 1114 H 107.334 3.0557 2.90181 0
M  V30 1115 H 106.009 1.89192 2.62656 0
M  V30 1116 H 104.916 3.59054 1.05028 0
M  V30 1117 H 106.249 4.71848 1.40073 0
M  V30 1118 N 107.901 -0.206675 1.56239 0
M  V30 1119 C 108.851 -1.26 1.90021 0
M  V30 1120 C 109.835 -1.41566 0.764721 0
M  V30 1121 O 111.027 -1.44131 1.02739 0
M  V30 1122 C 108.156 -2.6073 2.23326 0
M  V30 1123 C 107.242 -2.49005 3.43304 0
M  V30 1124 N 107.633 -2.06946 4.61527 0
M  V30 1125 C 105.931 -2.79927 3.47213 0
M  V30 1126 C 106.632 -2.06832 5.43687 0
M  V30 1127 N 105.608 -2.47892 4.83788 0
M  V30 1128 H 109.41 -0.925955 2.78932 0
M  V30 1129 H 106.924 -0.415172 1.57003 0
M  V30 1130 H 108.921 -3.36798 2.45708 0
M  V30 1131 H 107.581 -2.94968 1.35735 0
M  V30 1132 H 108.592 -1.77839 4.86409 0
M  V30 1133 H 105.269 -3.18438 2.70006 0
M  V30 1134 H 106.659 -1.76312 6.48354 0
M  V30 1135 N 109.379 -1.50304 -0.473955 0
M  V30 1136 C 110.628 -1.60392 -1.22301 0
M  V30 1137 C 110.941 -0.308411 -1.93153 0
M  V30 1138 O 112.147 -0.288156 -2.69966 0
M  V30 1139 C 110.603 -2.83109 -2.2221 0
M  V30 1140 C 110.211 -4.19524 -1.57173 0
M  V30 1141 C 111.955 -3.0254 -2.97775 0
M  V30 1142 C 109.862 -5.33431 -2.55353 0
M  V30 1143 H 108.792 -0.597286 -0.460179 0
M  V30 1144 H 111.443 -1.76731 -0.493803 0
M  V30 1145 H 109.825 -2.60322 -2.9841 0
M  V30 1146 H 110.999 -4.52554 -0.867824 0
M  V30 1147 H 109.314 -4.05674 -0.939002 0
M  V30 1148 H 111.911 -3.84811 -3.71248 0
M  V30 1149 H 112.254 -2.14154 -3.56992 0
M  V30 1150 H 112.787 -3.25494 -2.28688 0
M  V30 1151 H 109.526 -6.23962 -2.00878 0
M  V30 1152 H 109.046 -5.04823 -3.23904 0
M  V30 1153 H 110.725 -5.63887 -3.17239 0
M  V30 1154 N 110.857 0.726932 -1.39834 0
M  V30 1155 C 111.767 1.87131 -1.41489 0
M  V30 1156 C 112.783 1.71239 -0.308757 0
M  V30 1157 O 113.959 1.93701 -0.551529 0
M  V30 1158 C 111.024 3.22811 -1.26468 0
M  V30 1159 C 110.085 3.51039 -2.47124 0
M  V30 1160 C 109.318 4.80245 -2.3281 0
M  V30 1161 O 109.541 5.54537 -1.33585 0
M  V30 1162 O 108.475 5.08554 -3.21957 0
M  V30 1163 H 112.301 1.8869 -2.3797 0
M  V30 1164 H 109.886 0.875837 -1.21035 0
M  V30 1165 H 111.768 4.03877 -1.20255 0
M  V30 1166 H 110.443 3.22005 -0.330862 0
M  V30 1167 H 109.35 2.70027 -2.58914 0
M  V30 1168 H 110.683 3.56632 -3.39227 0
M  V30 1169 N 112.336 1.25143 0.95797 0
M  V30 1170 C 113.584 1.09476 1.69881 0
M  V30 1171 C 113.905 -0.365502 1.91544 0
M  V30 1172 O 113.175 -1.25985 1.50015 0
M  V30 1173 H 111.755 0.402128 0.629525 0
M  V30 1174 H 114.417 1.57214 1.15194 0
M  V30 1175 H 113.513 1.60046 2.6794 0
M  V30 1176 N 113.814 -1.1601 1.06675 0
M  V30 1177 C 114.777 -2.18724 0.685001 0
M  V30 1178 C 115.777 -1.58496 -0.271246 0
M  V30 1179 O 116.967 -1.74119 -0.0531156 0
M  V30 1180 C 114.099 -3.40899 0.00853648 0
M  V30 1181 H 115.292 -2.54011 1.59431 0
M  V30 1182 H 112.845 -1.30352 0.862441 0
M  V30 1183 H 113.58 -3.11173 -0.913337 0
M  V30 1184 H 113.365 -3.8587 0.696204 0
M  V30 1185 H 114.855 -4.16886 -0.24414 0
M  V30 1186 N 115.292 -0.849877 -1.32721 0
M  V30 1187 C 116.517 -0.463856 -2.02146 0
M  V30 1188 C 116.942 0.930449 -1.63476 0
M  V30 1189 O 116.3 1.61033 -0.832952 0
M  V30 1190 C 116.348 -0.604955 -3.55489 0
M  V30 1191 O 115.452 0.36425 -4.10788 0
M  V30 1192 H 114.793 -0.187046 -0.637111 0
M  V30 1193 H 117.323 -1.14775 -1.69375 0
M  V30 1194 H 117.333 -0.490696 -4.05038 0
M  V30 1195 H 116.008 -1.62174 -3.82978 0
M  V30 1196 H 114.585 0.206628 -3.72327 0
M  V30 1197 N 116.77 1.45427 -0.607355 0
M  V30 1198 C 118.016 2.0254 -0.102607 0
M  V30 1199 C 118.349 1.47478 1.26348 0
M  V30 1200 O 117.624 0.64939 1.83339 0
M  V30 1201 C 117.907 3.60044 -0.0634347 0
M  V30 1202 C 117.76 4.2544 -1.46017 0
M  V30 1203 C 119.079 4.35646 0.624514 0
M  V30 1204 H 116.198 0.73598 -0.0387607 0
M  V30 1205 H 118.84 1.73284 -0.779282 0
M  V30 1206 H 116.99 3.85101 0.512808 0
M  V30 1207 H 118.662 4.11569 -2.08347 0
M  V30 1208 H 116.905 3.83849 -2.02094 0
M  V30 1209 H 117.576 5.34342 -1.385 0
M  V30 1210 H 120.052 4.15882 0.134723 0
M  V30 1211 H 118.928 5.45376 0.621028 0
M  V30 1212 H 119.189 4.08501 1.69055 0
M  V30 1213 N 118.248 0.346503 1.53744 0
M  V30 1214 C 119.494 -0.249473 2.0126 0
M  V30 1215 C 119.827 -1.49965 1.23386 0
M  V30 1216 O 119.102 -1.91811 0.32229 0
M  V30 1217 C 119.385 -0.560643 3.55709 0
M  V30 1218 C 119.238 0.701836 4.44291 0
M  V30 1219 C 120.557 -1.36905 4.18264 0
M  V30 1220 H 117.676 -0.0891987 0.731582 0
M  V30 1221 H 120.318 0.467624 1.84156 0
M  V30 1222 H 118.468 -1.17156 3.70414 0
M  V30 1223 H 120.14 1.33974 4.41417 0
M  V30 1224 H 118.383 1.32612 4.13033 0
M  V30 1225 H 119.054 0.43933 5.50249 0
M  V30 1226 H 121.53 -0.852448 4.07275 0
M  V30 1227 H 120.406 -1.55553 5.26398 0
M  V30 1228 H 120.667 -2.37203 3.73078 0
M  V30 1229 N 119.726 -1.57421 0.075193 0
M  V30 1230 C 120.972 -1.93905 -0.594025 0
M  V30 1231 C 121.305 -0.955701 -1.69056 0
M  V30 1232 O 120.58 0.0145373 -1.94495 0
M  V30 1233 C 120.863 -3.40638 -1.1678 0
M  V30 1234 C 120.716 -4.49733 -0.0776792 0
M  V30 1235 C 122.035 -3.88259 -2.07228 0
M  V30 1236 H 119.154 -0.705105 -0.214466 0
M  V30 1237 H 121.796 -1.8947 0.141854 0
M  V30 1238 H 119.946 -3.44549 -1.79494 0
M  V30 1239 H 121.618 -4.57942 0.555573 0
M  V30 1240 H 119.861 -4.29751 0.591286 0
M  V30 1241 H 120.532 -5.49549 -0.519603 0
M  V30 1242 H 123.008 -3.86376 -1.54445 0
M  V30 1243 H 121.884 -4.91533 -2.44308 0
M  V30 1244 H 122.145 -3.26396 -2.98191 0
M  V30 1245 N 121.204 0.198386 -1.56346 0
M  V30 1246 C 122.45 0.920648 -1.80698 0
M  V30 1247 C 122.783 1.83045 -0.648697 0
M  V30 1248 O 122.058 1.91308 0.350925 0
M  V30 1249 C 122.341 1.73971 -3.15287 0
M  V30 1250 C 122.194 0.85485 -4.41602 0
M  V30 1251 C 123.513 2.71296 -3.46535 0
M  V30 1252 H 120.632 0.333261 -0.657348 0
M  V30 1253 H 123.274 0.188198 -1.89066 0
M  V30 1254 H 121.424 2.36416 -3.08285 0
M  V30 1255 H 123.096 0.245362 -4.60647 0
M  V30 1256 H 121.339 0.161398 -4.335 0
M  V30 1257 H 122.01 1.46286 -5.32264 0
M  V30 1258 H 124.486 2.18983 -3.53816 0
M  V30 1259 H 123.362 3.2569 -4.41834 0
M  V30 1260 H 123.623 3.5018 -2.69864 0
M  V30 1261 N 122.682 1.50554 0.465978 0
M  V30 1262 C 123.907 1.65838 1.24549 0
M  V30 1263 C 124.332 0.343486 1.84937 0
M  V30 1264 O 123.69 -0.69324 1.67523 0
M  V30 1265 C 123.738 2.75533 2.32624 0
M  V30 1266 O 122.842 2.37142 3.37398 0
M  V30 1267 H 122.183 0.553893 0.366194 0
M  V30 1268 H 124.713 1.96959 0.553927 0
M  V30 1269 H 124.723 2.98763 2.77857 0
M  V30 1270 H 123.398 3.70962 1.88043 0
M  V30 1271 H 121.975 2.24377 2.97841 0
M  V30 1272 N 124.16 -0.719506 1.40217 0
M  V30 1273 C 125.385 -1.51371 1.4178 0
M  V30 1274 C 125.81 -1.88091 0.0182355 0
M  V30 1275 O 125.168 -1.52997 -0.972707 0
M  V30 1276 C 125.216 -2.768 2.31115 0
M  V30 1277 O 124.32 -3.73349 1.7517 0
M  V30 1278 H 123.661 -0.456529 0.482159 0
M  V30 1279 H 126.191 -0.88644 1.844 0
M  V30 1280 H 126.201 -3.25371 2.46167 0
M  V30 1281 H 124.876 -2.49407 3.3282 0
M  V30 1282 H 123.453 -3.32179 1.69444 0
M  V30 1283 N 125.638 -1.25649 -0.95132 0
M  V30 1284 C 126.601 -1.06399 -2.03007 0
M  V30 1285 C 127.601 -0.0156794 -1.60792 0
M  V30 1286 O 128.791 -0.25817 -1.72276 0
M  V30 1287 C 125.923 -0.616184 -3.35285 0
M  V30 1288 H 127.116 -2.02164 -2.21517 0
M  V30 1289 H 124.669 -1.08103 -1.12887 0
M  V30 1290 H 125.404 0.343917 -3.22471 0
M  V30 1291 H 125.189 -1.37301 -3.67275 0
M  V30 1292 H 126.679 -0.503032 -4.14559 0
M  V30 1293 N 127.117 1.15442 -1.07289 0
M  V30 1294 C 128.366 1.85557 -0.790669 0
M  V30 1295 C 128.679 1.83186 0.685739 0
M  V30 1296 O 129.885 2.48977 1.0827 0
M  V30 1297 C 128.341 3.33038 -1.36433 0
M  V30 1298 C 127.949 3.43856 -2.8717 0
M  V30 1299 C 129.693 4.0834 -1.1601 0
M  V30 1300 C 127.6 4.85482 -3.3773 0
M  V30 1301 H 126.53 0.695122 -0.292098 0
M  V30 1302 H 129.181 1.30219 -1.29287 0
M  V30 1303 H 127.563 3.88043 -0.789864 0
M  V30 1304 H 128.737 2.98961 -3.50655 0
M  V30 1305 H 127.052 2.81998 -3.06376 0
M  V30 1306 H 129.649 5.12859 -1.51262 0
M  V30 1307 H 129.992 4.16182 -0.0991007 0
M  V30 1308 H 130.525 3.59603 -1.70089 0
M  V30 1309 H 127.264 4.82823 -4.43353 0
M  V30 1310 H 126.784 5.30961 -2.78999 0
M  V30 1311 H 128.463 5.54335 -3.33648 0
M  V30 1312 N 128.595 0.856903 1.32268 0
M  V30 1313 C 129.542 0.301172 2.28827 0
M  V30 1314 C 130.512 -0.593104 1.5515 0
M  V30 1315 O 131.697 -0.527537 1.83362 0
M  V30 1316 C 128.837 -0.502523 3.41422 0
M  V30 1317 C 127.95 0.417797 4.29975 0
M  V30 1318 C 127.085 -0.398749 5.29701 0
M  V30 1319 C 126.124 0.518827 6.09897 0
M  V30 1320 N 125.261 -0.260674 7.01616 0
M  V30 1321 H 130.101 1.12983 2.75751 0
M  V30 1322 H 127.638 0.568582 1.35667 0
M  V30 1323 H 129.596 -0.984141 4.05426 0
M  V30 1324 H 128.226 -1.29599 2.95642 0
M  V30 1325 H 127.278 1.01781 3.66531 0
M  V30 1326 H 128.59 1.12191 4.86019 0
M  V30 1327 H 127.744 -0.943435 5.9932 0
M  V30 1328 H 126.483 -1.13622 4.7428 0
M  V30 1329 H 125.488 1.07538 5.39181 0
M  V30 1330 H 126.713 1.25495 6.67404 0
M  V30 1331 H 124.659 -0.981198 6.4862 0
M  V30 1332 H 124.576 0.384364 7.55022 0
M  V30 1333 H 125.844 -0.787014 7.75517 0
M  V30 1334 N 130.073 -1.45103 0.615059 0
M  V30 1335 C 131.35 -1.95549 0.0448276 0
M  V30 1336 C 131.73 -1.55737 -1.4251 0
M  V30 1337 O 131.078 -0.823556 -2.13143 0
M  V30 1338 C 131.288 -3.48098 0.250785 0
M  V30 1339 C 132.636 -4.24384 0.135509 0
M  V30 1340 O 133.66 -3.55738 0.181299 0
M  V30 1341 O 132.519 -5.46493 0.0268878 0
M  V30 1342 H 129.613 -0.8264 -0.0314845 0
M  V30 1343 H 132.159 -1.55232 0.685642 0
M  V30 1344 H 130.931 -3.7007 1.27139 0
M  V30 1345 H 130.554 -3.95323 -0.424937 0
M  V30 1346 N 131.551 -0.354651 -1.53558 0
M  V30 1347 C 132.828 0.294281 -1.93374 0
M  V30 1348 C 133.208 1.67313 -1.28723 0
M  V30 1349 O 132.556 2.24179 -0.442247 0
M  V30 1350 C 132.766 0.355445 -3.47185 0
M  V30 1351 C 134.114 0.601007 -4.20325 0
M  V30 1352 O 135.138 0.437106 -3.53508 0
M  V30 1353 O 133.997 0.919322 -5.38712 0
M  V30 1354 H 131.091 0.174033 -0.808481 0
M  V30 1355 H 133.637 -0.406638 -1.64756 0
M  V30 1356 H 132.409 -0.611729 -3.86489 0
M  V30 1357 H 132.032 1.1027 -3.82003 0
M  V30 1358 N 133.029 1.57378 -0.0835403 0
M  V30 1359 C 133.977 2.14602 0.89714 0
M  V30 1360 C 134.971 1.08589 1.30018 0
M  V30 1361 O 136.177 1.26952 1.27606 0
M  V30 1362 H 132.552 0.686346 0.3073 0
M  V30 1363 H 134.523 2.95845 0.38969 0
M  V30 1364 C 133.272 2.73188 2.15089 0
M  V30 1365 H 132.595 3.54442 1.84962 0
M  V30 1366 H 134.035 3.1681 2.81793 0
M  V30 1367 C 132.494 1.68517 2.91725 0
M  V30 1368 O 133.024 1.11718 3.85852 0
M  V30 1369 N 131.23 1.39277 2.55049 0
M  V30 1370 H 130.777 1.85655 1.78577 0
M  V30 1371 H 130.735 0.694791 3.06627 0
M  V30 1372 N 134.507 -0.190092 1.56449 0
M  V30 1373 C 135.918 -0.754312 1.70784 0
M  V30 1374 C 136.269 -1.83631 0.690951 0
M  V30 1375 O 135.394 -2.15868 -0.151604 0
M  V30 1376 C 135.989 -1.37503 3.09642 0
M  V30 1377 C 134.548 -1.88628 3.25725 0
M  V30 1378 C 133.695 -0.758098 2.66736 0
M  V30 1379 H 136.646 0.0350524 1.58661 0
M  V30 1380 H 136.667 -2.2445 3.0725 0
M  V30 1381 H 136.179 -0.587302 3.83631 0
M  V30 1382 H 134.28 -2.70103 2.56661 0
M  V30 1383 H 134.393 -2.04462 4.3328 0
M  V30 1384 H 132.757 -1.17369 2.26046 0
M  V30 1385 H 133.54 0.0174705 3.43296 0
M  V30 1386 N 135.985 -1.50799 -0.457987 0
M  V30 1387 C 136.895 -1.73426 -1.57989 0
M  V30 1388 C 137.911 -0.617745 -1.62665 0
M  V30 1389 O 139.087 -0.897614 -1.80291 0
M  V30 1390 C 136.152 -1.83557 -2.94122 0
M  V30 1391 C 135.213 -3.07345 -2.99729 0
M  V30 1392 C 134.446 -3.16983 -4.29368 0
M  V30 1393 O 134.669 -2.33077 -5.20607 0
M  V30 1394 O 133.603 -4.09812 -4.40837 0
M  V30 1395 H 137.429 -2.68555 -1.41817 0
M  V30 1396 H 135.014 -1.35052 -0.638859 0
M  V30 1397 H 136.896 -1.92326 -3.74952 0
M  V30 1398 H 135.571 -0.916137 -3.10465 0
M  V30 1399 H 134.478 -3.04068 -2.1793 0
M  V30 1400 H 135.811 -3.9891 -2.88326 0
M  V30 1401 N 137.463 0.71206 -1.40597 0
M  V30 1402 C 138.393 1.83889 -1.43899 0
M  V30 1403 C 139.374 1.67442 -0.299504 0
M  V30 1404 O 140.559 1.87421 -0.508624 0
M  V30 1405 C 137.689 3.21877 -1.30431 0
M  V30 1406 C 136.643 3.53002 -2.42019 0
M  V30 1407 C 135.969 4.90172 -2.13626 0
M  V30 1408 C 137.269 3.53643 -3.84362 0
M  V30 1409 H 138.963 1.81383 -2.38203 0
M  V30 1410 H 136.509 0.871237 -1.14654 0
M  V30 1411 H 138.462 4.00404 -1.31357 0
M  V30 1412 H 137.186 3.24968 -0.326049 0
M  V30 1413 H 135.845 2.76818 -2.40349 0
M  V30 1414 H 135.493 4.89869 -1.14182 0
M  V30 1415 H 135.193 5.11962 -2.88389 0
M  V30 1416 H 136.717 5.71028 -2.1624 0
M  V30 1417 H 138.131 4.22203 -3.87837 0
M  V30 1418 H 136.528 3.86961 -4.58673 0
M  V30 1419 H 137.598 2.52954 -4.13693 0
M  V30 1420 N 138.941 1.26152 0.944643 0
M  V30 1421 C 140.187 1.11657 1.69294 0
M  V30 1422 C 140.52 -0.339926 1.91202 0
M  V30 1423 O 139.795 -1.24994 1.49019 0
M  V30 1424 C 140.078 1.88236 3.06984 0
M  V30 1425 C 139.931 3.41772 2.92424 0
M  V30 1426 C 141.25 1.67343 4.07043 0
M  V30 1427 H 138.369 0.407004 0.614424 0
M  V30 1428 H 141.011 1.55106 1.09737 0
M  V30 1429 H 139.161 1.51308 3.57824 0
M  V30 1430 H 140.833 3.88433 2.48832 0
M  V30 1431 H 139.076 3.68974 2.28124 0
M  V30 1432 H 139.747 3.90579 3.90067 0
M  V30 1433 H 142.223 1.99509 3.65151 0
M  V30 1434 H 141.099 2.23346 5.01406 0
M  V30 1435 H 141.36 0.617158 4.37771 0
M  V30 1436 N 140.419 -1.14872 1.07899 0
M  V30 1437 C 141.647 -1.89661 0.82683 0
M  V30 1438 C 142.062 -1.78312 -0.620519 0
M  V30 1439 O 141.419 -1.13888 -1.42604 0
M  V30 1440 C 141.47 -3.39817 1.23316 0
M  V30 1441 O 141.191 -3.50845 2.62372 0
M  V30 1442 C 142.692 -4.31615 1.0111 0
M  V30 1443 H 139.912 -0.60092 0.298557 0
M  V30 1444 H 142.456 -1.4551 1.43691 0
M  V30 1445 H 140.611 -3.8161 0.667286 0
M  V30 1446 H 141.025 -4.44076 2.79101 0
M  V30 1447 H 142.499 -5.35367 1.34486 0
M  V30 1448 H 142.976 -4.39169 -0.0522168 0
M  V30 1449 H 143.582 -3.95572 1.56215 0
M  V30 1450 N 141.898 -0.863906 -1.31812 0
M  V30 1451 C 143.123 -0.48527 -2.01643 0
M  V30 1452 C 143.548 0.913058 -1.64453 0
M  V30 1453 O 142.906 1.6014 -0.849985 0
M  V30 1454 C 142.954 -0.642625 -3.54828 0
M  V30 1455 O 142.058 0.320659 -4.11151 0
M  V30 1456 H 141.399 -0.193793 -0.635091 0
M  V30 1457 H 143.929 -1.16565 -1.68148 0
M  V30 1458 H 143.939 -0.533628 -4.04495 0
M  V30 1459 H 142.614 -1.66227 -3.81237 0
M  V30 1460 H 141.191 0.167126 -3.72525 0
M  V30 1461 N 143.376 1.44774 -0.622745 0
M  V30 1462 C 144.323 2.30635 0.0871679 0
M  V30 1463 C 145.293 1.42994 0.845097 0
M  V30 1464 O 146.478 1.71907 0.827812 0
M  V30 1465 C 143.618 3.28144 1.06844 0
M  V30 1466 C 142.731 4.30888 0.309809 0
M  V30 1467 C 141.866 5.15494 1.28215 0
M  V30 1468 C 140.905 6.09953 0.512198 0
M  V30 1469 N 140.042 6.87287 1.43458 0
M  V30 1470 H 144.882 2.90803 -0.650974 0
M  V30 1471 H 142.419 1.43286 -0.33281 0
M  V30 1472 H 144.377 3.83157 1.65066 0
M  V30 1473 H 143.007 2.69695 1.77382 0
M  V30 1474 H 142.059 3.78414 -0.388181 0
M  V30 1475 H 143.371 4.97955 -0.290254 0
M  V30 1476 H 142.525 5.74983 1.93596 0
M  V30 1477 H 141.264 4.48481 1.91614 0
M  V30 1478 H 140.269 5.49581 -0.155151 0
M  V30 1479 H 141.494 6.78999 -0.116958 0
M  V30 1480 H 139.44 6.2295 2.05594 0
M  V30 1481 H 139.357 7.50763 0.888335 0
M  V30 1482 H 140.625 7.51306 2.07749 0
M  V30 1483 N 144.854 0.36279 1.53368 0
M  V30 1484 C 145.786 -0.519668 2.23231 0
M  V30 1485 C 146.799 -1.04844 1.24546 0
M  V30 1486 O 147.988 -0.955296 1.50786 0
M  V30 1487 C 145.088 -1.72995 2.9142 0
M  V30 1488 C 144.261 -1.33316 4.16588 0
M  V30 1489 C 143.32 -2.40521 4.68013 0
M  V30 1490 O 142.346 -2.03027 5.3176 0
M  V30 1491 N 143.548 -3.72065 4.45587 0
M  V30 1492 H 146.313 0.078751 2.99597 0
M  V30 1493 H 143.874 0.187833 1.60807 0
M  V30 1494 H 145.866 -2.44184 3.22733 0
M  V30 1495 H 144.436 -2.2353 2.18525 0
M  V30 1496 H 143.656 -0.451236 3.91609 0
M  V30 1497 H 144.944 -1.04432 4.97967 0
M  V30 1498 H 144.342 -4.05304 3.94646 0
M  V30 1499 H 142.899 -4.39366 4.81457 0
M  V30 1500 N 146.332 -1.57332 0.0918853 0
M  V30 1501 C 147.279 -2.13847 -0.868211 0
M  V30 1502 C 148.249 -1.05618 -1.28196 0
M  V30 1503 O 149.434 -1.33387 -1.36427 0
M  V30 1504 C 146.574 -2.72062 -2.12312 0
M  V30 1505 C 145.687 -3.94514 -1.7602 0
M  V30 1506 C 144.822 -4.40903 -2.96273 0
M  V30 1507 C 143.861 -5.55953 -2.56092 0
M  V30 1508 N 142.998 -5.97209 -3.69169 0
M  V30 1509 H 147.838 -2.95575 -0.379406 0
M  V30 1510 H 145.375 -1.46048 -0.175606 0
M  V30 1511 H 147.333 -3.03931 -2.858 0
M  V30 1512 H 145.963 -1.93068 -2.58698 0
M  V30 1513 H 145.015 -3.68979 -0.925135 0
M  V30 1514 H 146.327 -4.7802 -1.42472 0
M  V30 1515 H 145.481 -4.74539 -3.78018 0
M  V30 1516 H 144.22 -3.56291 -3.33029 0
M  V30 1517 H 143.225 -5.21948 -1.72773 0
M  V30 1518 H 144.45 -6.42311 -2.20484 0
M  V30 1519 H 142.396 -5.15543 -4.05649 0
M  V30 1520 H 142.313 -6.75504 -3.39456 0
M  V30 1521 H 143.581 -6.35475 -4.51434 0
M  V30 1522 N 147.81 0.181792 -1.56548 0
M  V30 1523 C 149.226 0.53316 -1.50431 0
M  V30 1524 C 149.426 1.85184 -0.794297 0
M  V30 1525 O 148.482 2.50058 -0.350318 0
M  V30 1526 C 149.795 0.575597 -2.9514 0
M  V30 1527 C 151.343 0.663519 -3.05886 0
M  V30 1528 C 151.818 0.736946 -4.52032 0
M  V30 1529 N 153.309 0.800118 -4.56237 0
M  V30 1530 C 154.044 0.877327 -5.66649 0
M  V30 1531 N 153.54 0.916016 -6.86718 0
M  V30 1532 N 155.333 0.915542 -5.54594 0
M  V30 1533 H 147.484 -0.683025 -2.01118 0
M  V30 1534 H 149.747 -0.244988 -0.915797 0
M  V30 1535 H 149.453 -0.324482 -3.502 0
M  V30 1536 H 149.327 1.42572 -3.49218 0
M  V30 1537 H 151.714 1.55403 -2.50867 0
M  V30 1538 H 151.795 -0.21307 -2.54911 0
M  V30 1539 H 151.439 -0.149262 -5.07681 0
M  V30 1540 H 151.369 1.62953 -5.00753 0
M  V30 1541 H 153.86 0.778926 -3.69785 0
M  V30 1542 H 154.173 0.975813 -7.66614 0
M  V30 1543 H 152.518 0.884469 -6.89349 0
M  V30 1544 H 155.709 0.882245 -4.59711 0
M  V30 1545 H 155.882 0.972253 -6.40665 0
M  V30 1546 N 149.288 1.51039 0.449983 0
M  V30 1547 C 150.537 1.62317 1.19733 0
M  V30 1548 C 150.85 0.339101 1.92638 0
M  V30 1549 O 152.056 0.331069 2.69474 0
M  V30 1550 C 150.512 2.86608 2.17678 0
M  V30 1551 C 150.12 4.21972 1.50479 0
M  V30 1552 C 151.864 3.07239 2.92924 0
M  V30 1553 C 149.771 5.37426 2.46834 0
M  V30 1554 H 148.701 0.604532 0.450619 0
M  V30 1555 H 151.352 1.77494 0.465625 0
M  V30 1556 H 149.734 2.65037 2.94231 0
M  V30 1557 H 150.908 4.53878 0.795716 0
M  V30 1558 H 149.223 4.07117 0.874344 0
M  V30 1559 H 151.82 3.90668 3.65079 0
M  V30 1560 H 152.163 2.19807 3.5354 0
M  V30 1561 H 152.696 3.29091 2.23481 0
M  V30 1562 H 149.435 6.27079 1.90926 0
M  V30 1563 H 148.955 5.09912 3.15832 0
M  V30 1564 H 150.634 5.68862 3.08228 0
M  V30 1565 N 150.766 -0.704594 1.40972 0
M  V30 1566 C 152.177 -1.28418 1.3552 0
M  V30 1567 C 152.528 -1.96171 0.0339434 0
M  V30 1568 O 151.653 -1.98231 -0.867944 0
M  V30 1569 C 152.248 -2.33528 2.45459 0
M  V30 1570 C 150.807 -2.87085 2.43433 0
M  V30 1571 C 149.954 -1.61007 2.2577 0
M  V30 1572 H 152.905 -0.499963 1.50619 0
M  V30 1573 H 152.926 -3.14619 2.13998 0
M  V30 1574 H 152.438 -1.84187 3.41609 0
M  V30 1575 H 150.539 -3.40626 1.51013 0
M  V30 1576 H 150.652 -3.3813 3.39419 0
M  V30 1577 H 149.016 -1.86482 1.73483 0
M  V30 1578 H 149.799 -1.13675 3.23933 0
M  V30 1579 N 152.244 -1.26651 -0.937939 0
M  V30 1580 C 153.49 -1.12553 -1.687 0
M  V30 1581 C 153.823 0.329782 -1.91379 0
M  V30 1582 O 153.098 1.24202 -1.4968 0
M  V30 1583 C 153.381 -1.89862 -3.05981 0
M  V30 1584 C 153.234 -3.43318 -2.90607 0
M  V30 1585 C 154.553 -1.69499 -4.0615 0
M  V30 1586 H 151.672 -0.410257 -0.612257 0
M  V30 1587 H 154.314 -1.55685 -1.08913 0
M  V30 1588 H 152.464 -1.53204 -3.57017 0
M  V30 1589 H 154.136 -3.89747 -2.46769 0
M  V30 1590 H 152.379 -3.70179 -2.26164 0
M  V30 1591 H 153.05 -3.92642 -3.8799 0
M  V30 1592 H 155.526 -2.01442 -3.64088 0
M  V30 1593 H 154.402 -2.26002 -5.00214 0
M  V30 1594 H 154.663 -0.640365 -4.37438 0
M  V30 1595 N 153.722 1.14298 -1.08507 0
M  V30 1596 C 154.971 1.84708 -0.810305 0
M  V30 1597 C 155.284 1.83903 0.666271 0
M  V30 1598 O 156.49 2.50112 1.05624 0
M  V30 1599 C 154.946 3.31572 -1.39957 0
M  V30 1600 C 154.554 3.40791 -2.90801 0
M  V30 1601 C 156.298 4.07087 -1.20334 0
M  V30 1602 C 154.205 4.81872 -3.4286 0
M  V30 1603 H 153.135 0.691985 -0.299454 0
M  V30 1604 H 155.786 1.28841 -1.30661 0
M  V30 1605 H 154.168 3.87183 -0.830976 0
M  V30 1606 H 155.342 2.95225 -3.53806 0
M  V30 1607 H 153.657 2.78732 -3.0935 0
M  V30 1608 H 156.254 5.11225 -1.56693 0
M  V30 1609 H 156.597 4.16054 -0.143237 0
M  V30 1610 H 157.13 3.57779 -1.73893 0
M  V30 1611 H 153.869 4.78094 -4.48449 0
M  V30 1612 H 153.389 5.27972 -2.84615 0
M  V30 1613 H 155.068 5.50765 -3.39509 0
M  V30 1614 N 155.201 0.870884 1.31352 0
M  V30 1615 C 156.133 0.28455 2.27427 0
M  V30 1616 C 157.146 -0.552927 1.53123 0
M  V30 1617 O 158.335 -0.374771 1.74521 0
M  V30 1618 C 155.435 -0.615164 3.3327 0
M  V30 1619 C 154.608 0.190079 4.36987 0
M  V30 1620 C 153.667 -0.637917 5.22319 0
M  V30 1621 O 152.693 -0.065626 5.69162 0
M  V30 1622 N 153.895 -1.94973 5.46778 0
M  V30 1623 H 156.66 1.11017 2.7838 0
M  V30 1624 H 154.221 0.732458 1.44384 0
M  V30 1625 H 156.213 -1.1748 3.87273 0
M  V30 1626 H 154.783 -1.34146 2.82354 0
M  V30 1627 H 154.003 0.931165 3.83044 0
M  V30 1628 H 155.291 0.742579 5.03352 0
M  V30 1629 H 154.689 -2.4378 5.10478 0
M  V30 1630 H 153.246 -2.45713 6.03712 0
M  V30 1631 N 156.679 -1.44442 0.630414 0
M  V30 1632 C 158.095 -1.56832 0.295973 0
M  V30 1633 C 158.295 -1.61806 -1.20088 0
M  V30 1634 O 157.351 -1.5607 -1.9849 0
M  V30 1635 C 158.664 -2.84031 0.987264 0
M  V30 1636 C 160.212 -2.97742 0.96534 0
M  V30 1637 C 160.687 -4.27743 1.63708 0
M  V30 1638 N 162.178 -4.34555 1.60364 0
M  V30 1639 C 162.913 -5.33862 2.09234 0
M  V30 1640 N 162.409 -6.39578 2.66292 0
M  V30 1641 N 164.202 -5.25366 1.99867 0
M  V30 1642 H 156.353 -1.39457 1.60205 0
M  V30 1643 H 158.616 -0.668237 0.672431 0
M  V30 1644 H 158.322 -2.86338 2.04215 0
M  V30 1645 H 158.196 -3.73534 0.524588 0
M  V30 1646 H 160.583 -2.94989 -0.0810639 0
M  V30 1647 H 160.664 -2.09589 1.4665 0
M  V30 1648 H 160.308 -4.31255 2.68293 0
M  V30 1649 H 160.238 -5.14752 1.11076 0
M  V30 1650 H 162.729 -3.58772 1.18705 0
M  V30 1651 H 163.042 -7.11637 3.01317 0
M  V30 1652 H 161.387 -6.40265 2.70343 0
M  V30 1653 H 164.578 -4.41688 1.55013 0
M  V30 1654 H 164.751 -6.02606 2.38265 0
M  V30 1655 N 158.157 -0.370918 -1.53173 0
M  V30 1656 C 159.12 0.460778 -2.24521 0
M  V30 1657 C 160.12 1.00536 -1.25496 0
M  V30 1658 O 161.31 0.890266 -1.49733 0
M  V30 1659 C 158.442 1.64457 -2.98608 0
M  V30 1660 H 159.635 -0.163613 -2.99453 0
M  V30 1661 H 157.188 -0.122699 -1.55818 0
M  V30 1662 H 157.923 2.30691 -2.2793 0
M  V30 1663 H 157.708 1.26099 -3.7127 0
M  V30 1664 H 159.198 2.23384 -3.5283 0
M  V30 1665 N 159.635 1.57281 -0.100228 0
M  V30 1666 C 160.567 2.11342 0.886972 0
M  V30 1667 C 161.58 1.05182 1.24261 0
M  V30 1668 O 162.769 1.32613 1.19483 0
M  V30 1669 C 159.869 2.5825 2.19454 0
M  V30 1670 C 159.042 3.88302 2.01346 0
M  V30 1671 C 158.101 4.21004 3.15661 0
M  V30 1672 O 157.127 4.9014 2.89398 0
M  V30 1673 N 158.329 3.76818 4.41575 0
M  V30 1674 H 161.094 2.96668 0.425216 0
M  V30 1675 H 158.655 1.61678 0.0847334 0
M  V30 1676 H 160.647 2.7717 2.94888 0
M  V30 1677 H 159.217 1.77907 2.57037 0
M  V30 1678 H 158.437 3.7848 1.10212 0
M  V30 1679 H 159.725 4.73375 1.8653 0
M  V30 1680 H 159.123 3.2102 4.65792 0
M  V30 1681 H 157.68 4.00882 5.13942 0
M  V30 1682 N 161.113 -0.173488 1.56642 0
M  V30 1683 C 162.046 -1.24353 1.91342 0
M  V30 1684 C 163.024 -1.4289 0.775965 0
M  V30 1685 O 164.208 -1.57932 1.02907 0
M  V30 1686 C 161.335 -2.60683 2.16245 0
M  V30 1687 C 160.381 -2.58894 3.38934 0
M  V30 1688 S 161.214 -2.0819 4.93373 0
M  V30 1689 C 162.37 -3.46302 5.21369 0
M  V30 1690 H 162.603 -0.947345 2.81803 0
M  V30 1691 H 160.136 -0.377958 1.49703 0
M  V30 1692 H 162.094 -3.39149 2.31275 0
M  V30 1693 H 160.755 -2.87502 1.26496 0
M  V30 1694 H 159.948 -3.59188 3.53553 0
M  V30 1695 H 159.55 -1.88522 3.2301 0
M  V30 1696 H 161.842 -4.42287 5.13214 0
M  V30 1697 H 162.785 -3.3656 6.23003 0
M  V30 1698 H 163.193 -3.42214 4.48943 0
M  V30 1699 N 162.591 -1.51276 -0.441967 0
M  V30 1700 C 163.521 -1.752 -1.54361 0
M  V30 1701 C 164.502 -0.601682 -1.59103 0
M  V30 1702 O 165.687 -0.843913 -1.74905 0
M  V30 1703 C 162.817 -1.87282 -2.92477 0
M  V30 1704 C 161.771 -3.02687 -3.02596 0
M  V30 1705 C 161.097 -2.99947 -4.42647 0
M  V30 1706 C 162.397 -4.4273 -2.77106 0
M  V30 1707 H 164.091 -2.67442 -1.34592 0
M  V30 1708 H 161.637 -1.28694 -0.646048 0
M  V30 1709 H 163.59 -2.02602 -3.695 0
M  V30 1710 H 162.314 -0.916844 -3.13467 0
M  V30 1711 H 160.973 -2.87065 -2.28012 0
M  V30 1712 H 160.621 -2.02136 -4.60597 0
M  V30 1713 H 160.321 -3.77439 -4.50348 0
M  V30 1714 H 161.845 -3.17354 -5.2165 0
M  V30 1715 H 163.259 -4.58727 -3.43864 0
M  V30 1716 H 161.656 -5.21893 -2.96222 0
M  V30 1717 H 162.726 -4.53087 -1.72744 0
M  V30 1718 N 164.069 0.697108 -1.41344 0
M  V30 1719 C 165.032 1.79281 -1.42797 0
M  V30 1720 C 166.032 1.57607 -0.318837 0
M  V30 1721 O 167.222 1.64309 -0.578642 0
M  V30 1722 C 164.354 3.17632 -1.23785 0
M  V30 1723 H 165.547 1.79385 -2.40335 0
M  V30 1724 H 163.1 0.904582 -1.27464 0
M  V30 1725 H 163.835 3.23167 -0.270814 0
M  V30 1726 H 163.62 3.34765 -2.04144 0
M  V30 1727 H 165.11 3.97617 -1.27633 0
M  V30 1728 N 165.547 1.27147 0.931209 0
M  V30 1729 C 166.457 1.11372 2.06478 0
M  V30 1730 C 167.473 0.044645 1.73943 0
M  V30 1731 O 168.649 0.250417 1.99837 0
M  V30 1732 C 165.714 0.758838 3.38294 0
M  V30 1733 C 164.775 1.90841 3.84549 0
M  V30 1734 C 164.008 1.57036 5.10074 0
M  V30 1735 O 164.231 0.476645 5.68405 0
M  V30 1736 O 163.165 2.40839 5.51616 0
M  V30 1737 H 166.991 2.06493 2.22698 0
M  V30 1738 H 164.576 1.06301 1.04978 0
M  V30 1739 H 166.458 0.574098 4.17471 0
M  V30 1740 H 165.133 -0.162879 3.2329 0
M  V30 1741 H 164.04 2.14819 3.06274 0
M  V30 1742 H 165.373 2.81021 4.04089 0
M  V30 1743 N 167.025 -1.13721 1.09112 0
M  V30 1744 C 168.274 -1.84275 0.82009 0
M  V30 1745 C 168.587 -1.84253 -0.656509 0
M  V30 1746 O 169.793 -2.50668 -1.04296 0
M  V30 1747 C 168.249 -3.30825 1.41714 0
M  V30 1748 C 167.857 -3.39244 2.92605 0
M  V30 1749 C 169.601 -4.06443 1.22492 0
M  V30 1750 C 167.508 -4.80047 3.45411 0
M  V30 1751 H 166.438 -0.690387 0.30312 0
M  V30 1752 H 169.089 -1.28146 1.31343 0
M  V30 1753 H 167.471 -3.86737 0.851498 0
M  V30 1754 H 168.645 -2.93344 3.55367 0
M  V30 1755 H 166.96 -2.77088 3.10823 0
M  V30 1756 H 169.557 -5.10387 1.59402 0
M  V30 1757 H 169.9 -4.15972 0.165299 0
M  V30 1758 H 170.433 -3.56852 1.75788 0
M  V30 1759 H 167.172 -4.75709 4.50978 0
M  V30 1760 H 166.692 -5.26455 2.87411 0
M  V30 1761 H 168.371 -5.48957 3.42425 0
M  V30 1762 N 168.503 -0.877838 -1.30888 0
M  V30 1763 C 169.436 -0.283995 -2.26426 0
M  V30 1764 C 170.414 0.591361 -1.51465 0
M  V30 1765 O 171.598 0.54304 -1.80509 0
M  V30 1766 C 168.725 0.597129 -3.33395 0
M  V30 1767 C 167.771 -0.207937 -4.25993 0
M  V30 1768 S 168.604 -1.59158 -5.11301 0
M  V30 1769 C 169.76 -0.716791 -6.21782 0
M  V30 1770 H 169.993 -1.09383 -2.76446 0
M  V30 1771 H 167.526 -0.676828 -1.38775 0
M  V30 1772 H 169.484 1.09978 -3.95493 0
M  V30 1773 H 168.145 1.38099 -2.82113 0
M  V30 1774 H 167.338 0.464163 -5.01858 0
M  V30 1775 H 166.94 -0.642963 -3.68432 0
M  V30 1776 H 169.232 0.0692833 -6.77465 0
M  V30 1777 H 170.175 -1.44682 -6.93161 0
M  V30 1778 H 170.583 -0.280855 -5.63801 0
M  V30 1779 N 169.982 1.44106 -0.638065 0
M  V30 1780 C 171.398 1.56672 -0.304286 0
M  V30 1781 C 171.598 1.6244 1.19228 0
M  V30 1782 O 170.654 1.57121 1.9766 0
M  V30 1783 C 171.967 2.83503 -1.00231 0
M  V30 1784 C 173.515 2.97226 -0.981116 0
M  V30 1785 C 173.99 4.26868 -1.65974 0
M  V30 1786 N 175.481 4.33698 -1.62666 0
M  V30 1787 C 176.216 5.32745 -2.12063 0
M  V30 1788 N 175.712 6.38157 -2.6968 0
M  V30 1789 N 177.505 5.24299 -2.02651 0
M  V30 1790 H 169.656 1.38605 -1.60942 0
M  V30 1791 H 171.919 0.664661 -0.675965 0
M  V30 1792 H 171.625 2.85251 -2.0573 0
M  V30 1793 H 171.499 3.73251 -0.54439 0
M  V30 1794 H 173.886 2.95027 0.0654188 0
M  V30 1795 H 173.967 2.08808 -1.47759 0
M  V30 1796 H 173.611 4.29826 -2.70576 0
M  V30 1797 H 173.541 5.14156 -1.13804 0
M  V30 1798 H 176.032 3.58138 -1.20606 0
M  V30 1799 H 176.345 7.10029 -3.05087 0
M  V30 1800 H 174.69 6.38823 -2.73734 0
M  V30 1801 H 177.881 4.4086 -1.57353 0
M  V30 1802 H 178.054 6.01334 -2.41457 0
M  V30 1803 N 171.46 0.379036 1.52974 0
M  V30 1804 C 172.707 -0.206421 2.01445 0
M  V30 1805 C 173.035 -1.47668 1.26587 0
M  V30 1806 O 172.29 -1.92514 0.351675 0
M  V30 1807 C 172.589 -0.53096 3.53434 0
M  V30 1808 C 172.255 0.646546 4.46241 0
M  V30 1809 C 170.917 0.969604 4.7133 0
M  V30 1810 C 173.269 1.43479 5.01062 0
M  V30 1811 C 170.597 2.08263 5.48492 0
M  V30 1812 C 172.949 2.53834 5.7944 0
M  V30 1813 C 171.613 2.86659 6.02812 0
M  V30 1814 H 170.883 -0.0755349 0.73714 0
M  V30 1815 H 173.53 0.514271 1.84465 0
M  V30 1816 H 171.835 -1.33285 3.68432 0
M  V30 1817 H 173.532 -0.996417 3.88423 0
M  V30 1818 H 170.122 0.384734 4.2687 0
M  V30 1819 H 174.306 1.19844 4.81613 0
M  V30 1820 H 169.562 2.34078 5.64816 0
M  V30 1821 H 173.736 3.15319 6.20924 0
M  V30 1822 H 171.363 3.73026 6.62387 0
M  V30 1823 N 172.938 -1.57226 0.108567 0
M  V30 1824 C 174.354 -1.5766 -0.248058 0
M  V30 1825 C 174.554 -1.12063 -1.67464 0
M  V30 1826 O 173.61 -0.803236 -2.39383 0
M  V30 1827 C 174.923 -3.0069 -0.0242287 0
M  V30 1828 C 176.471 -3.12868 -0.0909372 0
M  V30 1829 C 176.946 -4.57879 0.105067 0
M  V30 1830 N 178.437 -4.63172 0.0506846 0
M  V30 1831 C 179.172 -5.73126 0.177396 0
M  V30 1832 N 178.668 -6.91866 0.359696 0
M  V30 1833 N 180.461 -5.61977 0.117709 0
M  V30 1834 H 172.612 -1.85169 1.04049 0
M  V30 1835 H 174.875 -0.85529 0.40888 0
M  V30 1836 H 174.581 -3.38299 0.961604 0
M  V30 1837 H 174.455 -3.6945 -0.76068 0
M  V30 1838 H 176.842 -2.75124 -1.06729 0
M  V30 1839 H 176.923 -2.46672 0.677225 0
M  V30 1840 H 176.567 -4.96321 1.07834 0
M  V30 1841 H 176.497 -5.22153 -0.682954 0
M  V30 1842 H 178.988 -3.778 -0.0871266 0
M  V30 1843 H 179.301 -7.71503 0.447529 0
M  V30 1844 H 177.646 -6.93874 0.395536 0
M  V30 1845 H 180.837 -4.68094 -0.0236741 0
M  V30 1846 H 181.01 -6.47627 0.219905 0
M  V30 1847 N 174.416 0.165178 -1.56732 0
M  V30 1848 C 175.366 1.20917 -1.93295 0
M  V30 1849 C 176.35 1.39488 -0.801985 0
M  V30 1850 O 177.542 1.41356 -1.06525 0
M  V30 1851 C 174.671 2.54718 -2.3016 0
M  V30 1852 C 173.757 2.39815 -3.49785 0
M  V30 1853 N 174.148 1.94637 -4.66851 0
M  V30 1854 C 172.446 2.70623 -3.54513 0
M  V30 1855 C 173.147 1.92344 -5.4898 0
M  V30 1856 N 172.123 2.34978 -4.9019 0
M  V30 1857 H 175.925 0.851675 -2.81289 0
M  V30 1858 H 173.439 0.373399 -1.58049 0
M  V30 1859 H 175.436 3.30165 -2.54552 0
M  V30 1860 H 174.096 2.91265 -1.43508 0
M  V30 1861 H 175.107 1.6488 -4.90953 0
M  V30 1862 H 171.784 3.11167 -2.78354 0
M  V30 1863 H 173.174 1.5906 -6.52801 0
M  V30 1864 N 175.894 1.51508 0.433938 0
M  V30 1865 C 177.142 1.6402 1.18075 0
M  V30 1866 C 177.463 0.360328 1.91642 0
M  V30 1867 O 176.733 -0.623945 1.85698 0
M  V30 1868 H 175.313 0.6045 0.43885 0
M  V30 1869 H 177.975 1.88452 0.497178 0
M  V30 1870 H 177.071 2.46949 1.90847 0
M  V30 1871 N 177.372 -0.689602 1.41712 0
M  V30 1872 C 178.621 -1.44534 1.40686 0
M  V30 1873 C 178.934 -1.95588 0.0213352 0
M  V30 1874 O 180.14 -2.71271 -0.111534 0
M  V30 1875 C 178.596 -2.61387 2.47396 0
M  V30 1876 C 178.204 -2.17094 3.91885 0
M  V30 1877 C 179.948 -3.38986 2.55517 0
M  V30 1878 C 177.855 -3.3094 4.90135 0
M  V30 1879 H 176.785 -0.542925 0.52321 0
M  V30 1880 H 179.436 -0.748054 1.6756 0
M  V30 1881 H 177.818 -3.33412 2.13664 0
M  V30 1882 H 178.992 -1.52318 4.34897 0
M  V30 1883 H 177.307 -1.52473 3.8748 0
M  V30 1884 H 179.904 -4.23747 3.26102 0
M  V30 1885 H 180.247 -3.84578 1.59391 0
M  V30 1886 H 180.78 -2.74021 2.8837 0
M  V30 1887 H 177.519 -2.90355 5.87685 0
M  V30 1888 H 177.039 -3.94546 4.51767 0
M  V30 1889 H 178.718 -3.9663 5.11169 0
M  V30 1890 N 178.85 -1.27639 -0.924453 0
M  V30 1891 C 179.813 -1.10681 -2.00705 0
M  V30 1892 C 180.813 -0.0497823 -1.60723 0
M  V30 1893 O 182.003 -0.294654 -1.7169 0
M  V30 1894 C 179.135 -0.687164 -3.33902 0
M  V30 1895 H 180.328 -2.06817 -2.17179 0
M  V30 1896 H 177.881 -1.10473 -1.10569 0
M  V30 1897 H 178.616 0.275439 -3.23128 0
M  V30 1898 H 178.401 -1.45061 -3.6428 0
M  V30 1899 H 179.891 -0.590853 -4.13399 0
M  V30 1900 N 180.328 1.1314 -1.09713 0
M  V30 1901 C 181.574 1.84757 -0.836224 0
M  V30 1902 C 181.907 1.8347 0.636598 0
M  V30 1903 O 181.182 1.27491 1.46889 0
M  V30 1904 C 181.465 3.32782 -1.37578 0
M  V30 1905 C 181.318 3.42567 -2.91493 0
M  V30 1906 C 182.637 4.28307 -1.01198 0
M  V30 1907 H 179.756 0.67082 -0.305236 0
M  V30 1908 H 182.398 1.3278 -1.35903 0
M  V30 1909 H 180.548 3.77177 -0.931097 0
M  V30 1910 H 182.22 3.06862 -3.44432 0
M  V30 1911 H 180.463 2.83349 -3.28475 0
M  V30 1912 H 181.134 4.46674 -3.24324 0
M  V30 1913 H 183.61 3.91999 -1.39556 0
M  V30 1914 H 182.486 5.30307 -1.41653 0
M  V30 1915 H 182.747 4.42029 0.0794833 0
M  V30 1916 N 181.806 0.884767 1.30421 0
M  V30 1917 C 182.769 0.356277 2.26414 0
M  V30 1918 C 183.769 -0.501124 1.52792 0
M  V30 1919 O 184.959 -0.30831 1.7145 0
M  V30 1920 C 182.091 -0.492316 3.37326 0
M  V30 1921 H 183.284 1.20389 2.74675 0
M  V30 1922 H 180.837 0.661607 1.41607 0
M  V30 1923 H 181.572 -1.36052 2.94381 0
M  V30 1924 H 181.357 0.121832 3.91911 0
M  V30 1925 H 182.847 -0.853871 4.08777 0
M  V30 1926 N 183.284 -1.43765 0.645699 0
M  V30 1927 C 184.532 -2.01499 0.155731 0
M  V30 1928 C 184.853 -1.51151 -1.232 0
M  V30 1929 O 184.123 -0.721044 -1.82148 0
M  V30 1930 H 182.703 -0.745003 0.0545817 0
M  V30 1931 H 185.365 -1.76075 0.835677 0
M  V30 1932 H 184.461 -3.1181 0.134577 0
M  V30 1933 N 184.763 -0.387143 -1.52771 0
M  V30 1934 C 185.991 0.195869 -2.05971 0
M  V30 1935 C 186.406 1.40691 -1.25903 0
M  V30 1936 O 185.763 1.79931 -0.305134 0
M  V30 1937 C 185.814 0.56812 -3.57008 0
M  V30 1938 O 185.535 -0.594803 -4.34043 0
M  V30 1939 C 187.036 1.20723 -4.26545 0
M  V30 1940 H 184.256 0.0300578 -0.670326 0
M  V30 1941 H 186.8 -0.551749 -1.96916 0
M  V30 1942 H 184.955 1.26564 -3.66143 0
M  V30 1943 H 185.369 -0.289322 -5.23701 0
M  V30 1944 H 186.843 1.41807 -5.33474 0
M  V30 1945 H 187.32 2.17395 -3.81623 0
M  V30 1946 H 187.926 0.550535 -4.21722 0
M  V30 1947 N 186.241 1.57166 -0.116904 0
M  V30 1948 C 187.191 2.11756 0.845178 0
M  V30 1949 C 188.175 1.03783 1.22955 0
M  V30 1950 O 189.367 1.3002 1.20099 0
M  V30 1951 C 186.496 2.71886 2.09602 0
M  V30 1952 C 185.582 3.86937 1.7361 0
M  V30 1953 N 185.973 4.94073 1.08284 0
M  V30 1954 C 184.271 3.97082 2.03082 0
M  V30 1955 C 184.972 5.74477 0.913855 0
M  V30 1956 N 183.948 5.2423 1.43818 0
M  V30 1957 H 187.75 2.91967 0.336523 0
M  V30 1958 H 185.264 1.62174 0.0856332 0
M  V30 1959 H 187.261 3.09338 2.79492 0
M  V30 1960 H 185.921 1.93138 2.61013 0
M  V30 1961 H 186.932 5.12483 0.747067 0
M  V30 1962 H 183.609 3.29372 2.56554 0
M  V30 1963 H 184.999 6.70701 0.40125 0
M  V30 1964 N 187.719 -0.156864 1.56817 0
M  V30 1965 C 188.967 -0.869404 1.82444 0
M  V30 1966 C 189.288 -1.82147 0.69623 0
M  V30 1967 O 188.558 -1.93847 -0.28287 0
M  V30 1968 H 187.138 -0.324043 0.673056 0
M  V30 1969 H 189.8 -0.153224 1.94297 0
M  V30 1970 H 188.896 -1.43761 2.77019 0
M  V30 1971 N 189.197 -1.51736 -0.425897 0
M  V30 1972 C 190.144 -1.73875 -1.51776 0
M  V30 1973 C 191.114 -0.580702 -1.55618 0
M  V30 1974 O 192.299 -0.81641 -1.72451 0
M  V30 1975 C 189.439 -1.88012 -2.89388 0
M  V30 1976 C 188.552 -3.15606 -2.94986 0
M  V30 1977 C 187.687 -3.20271 -4.23793 0
M  V30 1978 C 186.726 -4.42134 -4.23302 0
M  V30 1979 N 185.863 -4.44284 -5.43651 0
M  V30 1980 H 190.703 -2.67071 -1.32201 0
M  V30 1981 H 188.24 -1.32351 -0.642008 0
M  V30 1982 H 190.198 -1.9419 -3.69251 0
M  V30 1983 H 188.828 -0.98213 -3.07496 0
M  V30 1984 H 187.88 -3.18681 -2.07717 0
M  V30 1985 H 189.192 -4.05486 -2.90486 0
M  V30 1986 H 188.346 -3.25428 -5.12036 0
M  V30 1987 H 187.085 -2.28299 -4.30965 0
M  V30 1988 H 186.09 -4.3714 -3.3345 0
M  V30 1989 H 187.315 -5.35382 -4.17783 0
M  V30 1990 H 185.261 -3.55188 -5.51523 0
M  V30 1991 H 185.178 -5.27988 -5.41078 0
M  V30 1992 H 186.446 -4.53649 -6.33895 0
M  V30 1993 N 190.675 0.682077 -1.42076 0
M  V30 1994 C 191.903 1.47057 -1.4554 0
M  V30 1995 C 192.318 1.8869 -0.0645779 0
M  V30 1996 O 191.675 1.57666 0.919115 0
M  V30 1997 C 191.726 2.72442 -2.37609 0
M  V30 1998 O 191.447 2.32559 -3.71279 0
M  V30 1999 C 192.948 3.66069 -2.50017 0
M  V30 2000 H 190.168 0.452737 -0.495248 0
M  V30 2001 H 192.712 0.838695 -1.8651 0
M  V30 2002 H 190.867 3.31835 -1.9991 0
M  V30 2003 H 191.281 3.13475 -4.20516 0
M  V30 2004 H 192.755 4.50792 -3.18576 0
M  V30 2005 H 193.232 4.11476 -1.53572 0
M  V30 2006 H 193.838 3.12572 -2.88407 0
M  V30 2007 N 192.153 1.28127 0.917671 0
M  V30 2008 C 193.381 1.17892 1.70026 0
M  V30 2009 C 193.796 -0.262958 1.8696 0
M  V30 2010 O 193.153 -1.17811 1.3938 0
M  V30 2011 C 193.204 1.86872 3.09453 0
M  V30 2012 O 192.925 3.25428 2.93306 0
M  V30 2013 C 194.426 1.8289 4.03815 0
M  V30 2014 H 191.646 0.40942 0.531617 0
M  V30 2015 H 194.19 1.69181 1.14883 0
M  V30 2016 H 192.345 1.39464 3.61426 0
M  V30 2017 H 192.759 3.59918 3.81523 0
M  V30 2018 H 194.233 2.35751 4.99125 0
M  V30 2019 H 194.71 0.800412 4.31845 0
M  V30 2020 H 195.316 2.29959 3.57769 0
M  V30 2021 N 193.631 -1.12557 1.10312 0
M  V30 2022 C 194.859 -1.87864 0.866873 0
M  V30 2023 C 195.274 -1.79588 -0.582557 0
M  V30 2024 O 194.631 -1.16887 -1.40156 0
M  V30 2025 C 194.682 -3.37125 1.30496 0
M  V30 2026 O 194.403 -3.45201 2.69755 0
M  V30 2027 C 195.904 -4.29373 1.10243 0
M  V30 2028 H 193.124 -0.594452 0.311236 0
M  V30 2029 H 195.668 -1.42429 1.46745 0
M  V30 2030 H 193.823 -3.80109 0.748081 0
M  V30 2031 H 194.237 -4.38056 2.88457 0
M  V30 2032 H 195.711 -5.32394 1.45811 0
M  V30 2033 H 196.188 -4.39181 0.0409492 0
M  V30 2034 H 196.794 -3.92169 1.64571 0
M  V30 2035 N 195.109 -0.891671 -1.2995 0
M  V30 2036 C 196.337 -0.52866 -2.00032 0
M  V30 2037 C 196.752 0.884574 -1.66795 0
M  V30 2038 O 196.109 1.5827 -0.908669 0
M  V30 2039 C 196.16 -0.701814 -3.54622 0
M  V30 2040 O 195.881 -2.05942 -3.86678 0
M  V30 2041 C 197.382 -0.342683 -4.41973 0
M  V30 2042 H 194.602 -0.203659 -0.639347 0
M  V30 2043 H 197.146 -1.19881 -1.65677 0
M  V30 2044 H 195.301 -0.0789468 -3.8732 0
M  V30 2045 H 195.715 -2.08291 -4.81368 0
M  V30 2046 H 197.189 -0.514709 -5.49595 0
M  V30 2047 H 197.666 0.71975 -4.33262 0
M  V30 2048 H 198.272 -0.942154 -4.14733 0
M  V30 2049 N 196.587 1.43421 -0.653314 0
M  V30 2050 C 197.55 2.29182 0.0287951 0
M  V30 2051 C 198.55 1.42213 0.750465 0
M  V30 2052 O 199.74 1.63843 0.591701 0
M  V30 2053 C 196.872 3.24278 1.05151 0
M  V30 2054 H 198.065 2.90985 -0.725786 0
M  V30 2055 H 195.618 1.50702 -0.414545 0
M  V30 2056 H 196.353 2.6737 1.83532 0
M  V30 2057 H 196.138 3.88396 0.537687 0
M  V30 2058 H 197.628 3.88647 1.52786 0
M  V30 2059 N 198.065 0.39524 1.52563 0
M  V30 2060 C 198.998 -0.4813 2.23067 0
M  V30 2061 C 199.976 -1.05927 1.23362 0
M  V30 2062 O 201.16 -1.10979 1.52368 0
M  V30 2063 C 198.287 -1.66676 2.9485 0
M  V30 2064 C 197.333 -1.21348 4.08873 0
M  V30 2065 S 198.166 -0.190102 5.35162 0
M  V30 2066 C 199.322 -1.38121 6.1047 0
M  V30 2067 H 199.555 0.117381 2.97068 0
M  V30 2068 H 197.088 0.179458 1.53354 0
M  V30 2069 H 199.046 -2.3466 3.36816 0
M  V30 2070 H 197.707 -2.23676 2.20518 0
M  V30 2071 H 196.9 -2.09877 4.58222 0
M  V30 2072 H 196.502 -0.612486 3.68951 0
M  V30 2073 H 198.794 -2.30726 6.37002 0
M  V30 2074 H 199.737 -0.928521 7.01986 0
M  V30 2075 H 200.145 -1.60071 5.41329 0
M  V30 2076 N 199.544 -1.57102 0.125237 0
M  V30 2077 C 200.793 -1.94582 -0.531095 0
M  V30 2078 C 201.106 -1.01126 -1.6743 0
M  V30 2079 O 202.312 -1.28097 -2.39381 0
M  V30 2080 C 200.768 -3.45839 -0.996164 0
M  V30 2081 C 200.376 -4.47842 0.118926 0
M  V30 2082 C 202.12 -3.92227 -1.62352 0
M  V30 2083 C 200.027 -5.90284 -0.363192 0
M  V30 2084 H 198.957 -0.726391 -0.20217 0
M  V30 2085 H 201.608 -1.82339 0.206092 0
M  V30 2086 H 199.99 -3.53338 -1.78796 0
M  V30 2087 H 201.164 -4.52018 0.895358 0
M  V30 2088 H 199.479 -4.11243 0.653324 0
M  V30 2089 H 202.076 -4.96069 -1.99548 0
M  V30 2090 H 202.419 -3.32552 -2.50429 0
M  V30 2091 H 202.952 -3.87554 -0.897019 0
M  V30 2092 H 199.691 -6.53728 0.481679 0
M  V30 2093 H 199.211 -5.89515 -1.10597 0
M  V30 2094 H 200.89 -6.41752 -0.822377 0
M  V30 2095 N 201.022 0.148545 -1.56898 0
M  V30 2096 C 202.247 0.880385 -1.87787 0
M  V30 2097 C 202.672 1.74018 -0.714093 0
M  V30 2098 O 202.03 1.78153 0.336343 0
M  V30 2099 C 202.078 1.71422 -3.17249 0
M  V30 2100 O 201.182 2.8183 -3.01074 0
M  V30 2101 H 200.523 0.245301 -0.617028 0
M  V30 2102 H 203.053 0.139826 -2.04122 0
M  V30 2103 H 203.063 2.10954 -3.49231 0
M  V30 2104 H 201.738 1.08284 -4.01556 0
M  V30 2105 H 200.315 2.45715 -2.80497 0
M  V30 2106 N 202.5 1.5196 0.417844 0
M  V30 2107 C 203.433 1.69387 1.52916 0
M  V30 2108 C 204.411 0.541419 1.53321 0
M  V30 2109 O 205.595 0.767695 1.72159 0
M  V30 2110 C 202.722 1.72525 2.91467 0
M  V30 2111 C 201.768 2.93967 3.09008 0
M  V30 2112 S 202.601 4.54461 2.83242 0
M  V30 2113 C 203.757 4.60372 4.24038 0
M  V30 2114 H 203.99 2.63382 1.37903 0
M  V30 2115 H 201.523 1.41889 0.608845 0
M  V30 2116 H 203.481 1.75018 3.7132 0
M  V30 2117 H 202.142 0.796733 3.03827 0
M  V30 2118 H 201.335 2.92619 4.10353 0
M  V30 2119 H 200.937 2.89316 2.37007 0
M  V30 2120 H 203.229 4.37213 5.17544 0
M  V30 2121 H 204.172 5.62273 4.30412 0
M  V30 2122 H 204.58 3.89492 4.08602 0
M  V30 2123 N 203.978 -0.674533 1.42435 0
M  V30 2124 C 205.227 -1.43034 1.42212 0
M  V30 2125 C 205.54 -1.95555 0.0420788 0
M  V30 2126 O 206.746 -2.71374 -0.0827558 0
M  V30 2127 C 205.202 -2.58748 2.50155 0
M  V30 2128 C 204.81 -2.12925 3.94166 0
M  V30 2129 C 206.554 -3.36257 2.59098 0
M  V30 2130 C 204.461 -3.25723 4.93618 0
M  V30 2131 H 203.391 -0.537345 0.528939 0
M  V30 2132 H 206.042 -0.73024 1.68344 0
M  V30 2133 H 204.424 -3.31128 2.17188 0
M  V30 2134 H 205.598 -1.47697 4.36488 0
M  V30 2135 H 203.913 -1.48354 3.89076 0
M  V30 2136 H 206.51 -4.20264 3.30578 0
M  V30 2137 H 206.853 -3.82866 1.63461 0
M  V30 2138 H 207.386 -2.70947 2.9126 0
M  V30 2139 H 204.125 -2.84105 5.90732 0
M  V30 2140 H 203.645 -3.89732 4.55926 0
M  V30 2141 H 205.324 -3.91186 5.15347 0
M  V30 2142 N 205.456 -1.28612 -0.910864 0
M  V30 2143 C 206.686 -1.1862 -1.69153 0
M  V30 2144 C 207.094 0.257324 -1.87442 0
M  V30 2145 O 206.437 1.18543 -1.40332 0
M  V30 2146 C 206.499 -1.81606 -3.10257 0
M  V30 2147 C 206.163 -3.30864 -3.15243 0
M  V30 2148 C 207.16 -4.27256 -2.96223 0
M  V30 2149 C 204.845 -3.71871 -3.37664 0
M  V30 2150 C 206.839 -5.62631 -2.99541 0
M  V30 2151 C 204.526 -5.07371 -3.40614 0
M  V30 2152 C 205.524 -6.02561 -3.21573 0
M  V30 2153 O 205.212 -7.35589 -3.2429 0
M  V30 2154 H 204.944 -0.412633 -0.535453 0
M  V30 2155 H 207.498 -1.70306 -1.14827 0
M  V30 2156 H 205.728 -1.24418 -3.66138 0
M  V30 2157 H 207.417 -1.66092 -3.70362 0
M  V30 2158 H 208.183 -3.9691 -2.78725 0
M  V30 2159 H 204.062 -2.98241 -3.5153 0
M  V30 2160 H 207.606 -6.36907 -2.84597 0
M  V30 2161 H 203.503 -5.37366 -3.57642 0
M  V30 2162 H 204.271 -7.44252 -3.40633 0
M  V30 2163 N 206.934 1.1197 -1.10907 0
M  V30 2164 C 208.162 1.87402 -0.876824 0
M  V30 2165 C 208.577 1.79894 0.573025 0
M  V30 2166 O 207.934 1.17629 1.39534 0
M  V30 2167 C 207.985 3.36428 -1.32282 0
M  V30 2168 O 207.706 3.43765 -2.71582 0
M  V30 2169 C 209.207 4.28783 -1.12518 0
M  V30 2170 H 206.427 0.592793 -0.314384 0
M  V30 2171 H 208.971 1.41649 -1.47499 0
M  V30 2172 H 207.126 3.79706 -0.768229 0
M  V30 2173 H 207.54 4.3652 -2.90776 0
M  V30 2174 H 209.014 5.31613 -1.48633 0
M  V30 2175 H 209.491 4.39153 -0.0642394 0
M  V30 2176 H 210.097 3.91291 -1.66648 0
M  V30 2177 N 208.412 0.89855 1.29475 0
M  V30 2178 C 209.344 0.332726 2.26772 0
M  V30 2179 C 210.357 -0.520323 1.54261 0
M  V30 2180 O 211.546 -0.337668 1.75277 0
M  V30 2181 C 208.646 -0.544334 3.345 0
M  V30 2182 C 207.819 0.282728 4.36485 0
M  V30 2183 C 206.878 -0.526982 5.23555 0
M  V30 2184 O 205.904 0.0551165 5.69173 0
M  V30 2185 N 207.106 -1.83331 5.5079 0
M  V30 2186 H 209.871 1.16897 2.75962 0
M  V30 2187 H 207.432 0.762919 1.42798 0
M  V30 2188 H 209.424 -1.09239 3.89678 0
M  V30 2189 H 207.994 -1.28127 2.85136 0
M  V30 2190 H 207.214 1.01221 3.80983 0
M  V30 2191 H 208.502 0.84918 5.01664 0
M  V30 2192 H 207.9 -2.32898 5.15534 0
M  V30 2193 H 206.457 -2.32852 6.08788 0
M  V30 2194 N 209.89 -1.43072 0.660911 0
M  V30 2195 C 210.853 -2.29194 -0.0166406 0
M  V30 2196 C 211.853 -1.42609 -0.742912 0
M  V30 2197 O 213.043 -1.64155 -0.583004 0
M  V30 2198 C 210.175 -3.24831 -1.0343 0
M  V30 2199 H 211.368 -2.90596 0.741208 0
M  V30 2200 H 208.921 -1.5048 0.422532 0
M  V30 2201 H 209.656 -2.68339 -1.82111 0
M  V30 2202 H 209.441 -3.88676 -0.517082 0
M  V30 2203 H 210.931 -3.89451 -1.50723 0
M  V30 2204 N 211.368 -0.403325 -1.52352 0
M  V30 2205 C 212.315 0.425011 -2.26853 0
M  V30 2206 C 213.285 1.04598 -1.29029 0
M  V30 2207 O 214.47 1.07135 -1.57882 0
M  V30 2208 C 211.61 1.53888 -3.08889 0
M  V30 2209 C 210.723 0.939396 -4.21663 0
M  V30 2210 C 209.858 2.02547 -4.91068 0
M  V30 2211 C 208.897 1.40263 -5.95813 0
M  V30 2212 N 208.034 2.4286 -6.58759 0
M  V30 2213 H 212.874 -0.21674 -2.97211 0
M  V30 2214 H 210.411 -0.118722 -1.4662 0
M  V30 2215 H 212.369 2.19558 -3.54753 0
M  V30 2216 H 210.999 2.15074 -2.40714 0
M  V30 2217 H 210.051 0.171898 -3.80011 0
M  V30 2218 H 211.363 0.44436 -4.96817 0
M  V30 2219 H 210.517 2.75958 -5.40308 0
M  V30 2220 H 209.256 2.55415 -4.15469 0
M  V30 2221 H 208.261 0.653833 -5.45898 0
M  V30 2222 H 209.486 0.881719 -6.73352 0
M  V30 2223 H 207.432 2.94871 -5.85992 0
M  V30 2224 H 207.349 1.98152 -7.2957 0
M  V30 2225 H 208.617 3.15858 -7.12639 0
M  V30 2226 N 212.846 1.57033 -0.133567 0
M  V30 2227 C 213.776 2.1909 0.807567 0
M  V30 2228 C 214.757 1.13517 1.26681 0
M  V30 2229 O 215.942 1.41809 1.32679 0
M  V30 2230 C 213.072 2.80188 2.05212 0
M  V30 2231 C 212.026 3.91471 1.73015 0
M  V30 2232 C 211.352 4.39443 3.04622 0
M  V30 2233 C 212.652 5.12886 0.987168 0
M  V30 2234 H 214.346 2.97988 0.290403 0
M  V30 2235 H 211.892 1.43335 0.138239 0
M  V30 2236 H 213.845 3.22264 2.71521 0
M  V30 2237 H 212.569 1.98601 2.59278 0
M  V30 2238 H 211.228 3.49993 1.0909 0
M  V30 2239 H 210.876 3.54695 3.56651 0
M  V30 2240 H 210.576 5.14495 2.83847 0
M  V30 2241 H 212.1 4.8418 3.72024 0
M  V30 2242 H 213.514 5.51891 1.55208 0
M  V30 2243 H 211.911 5.93615 0.87985 0
M  V30 2244 H 212.981 4.84894 -0.0235286 0
M  V30 2245 N 214.325 -0.140222 1.56975 0
M  V30 2246 C 215.602 -0.880769 1.74648 0
M  V30 2247 C 215.982 -1.99036 0.703404 0
M  V30 2248 O 215.33 -2.26821 -0.27648 0
M  V30 2249 C 215.54 -1.417 3.18939 0
M  V30 2250 C 216.888 -1.87774 3.80823 0
M  V30 2251 O 217.912 -1.51427 3.2241 0
M  V30 2252 O 216.771 -2.54827 4.83452 0
M  V30 2253 H 213.865 -0.416713 0.714338 0
M  V30 2254 H 216.411 -0.125618 1.69234 0
M  V30 2255 H 215.183 -0.619902 3.86359 0
M  V30 2256 H 214.806 -2.23546 3.28805 0
M  V30 2257 N 215.803 -1.52179 -0.40978 0
M  V30 2258 C 217.214 -1.58377 -0.988615 0
M  V30 2259 C 217.565 -0.423879 -1.91566 0
M  V30 2260 O 216.69 0.455844 -2.11544 0
M  V30 2261 C 217.285 -2.87044 -1.79976 0
M  V30 2262 C 215.844 -2.95722 -2.32863 0
M  V30 2263 C 214.991 -2.53309 -1.12828 0
M  V30 2264 H 217.942 -1.57558 -0.190039 0
M  V30 2265 H 217.963 -2.7236 -2.65707 0
M  V30 2266 H 217.475 -3.71444 -1.12478 0
M  V30 2267 H 215.576 -2.15814 -3.03735 0
M  V30 2268 H 215.689 -3.99951 -2.63773 0
M  V30 2269 H 214.053 -2.07142 -1.48204 0
M  V30 2270 H 214.836 -3.40082 -0.46897 0
M  V30 2271 N 217.281 0.66697 -1.42791 0
M  V30 2272 C 218.509 1.45505 -1.47091 0
M  V30 2273 C 218.924 1.8861 -0.0845873 0
M  V30 2274 O 218.281 1.58632 0.90234 0
M  V30 2275 C 218.332 2.69906 -2.40485 0
M  V30 2276 O 218.053 2.28608 -3.73725 0
M  V30 2277 C 219.554 3.63396 -2.53886 0
M  V30 2278 H 216.774 0.447459 -0.500022 0
M  V30 2279 H 219.318 0.818866 -1.8739 0
M  V30 2280 H 217.473 3.29696 -2.03419 0
M  V30 2281 H 217.887 3.08997 -4.23817 0
M  V30 2282 H 219.361 4.47387 -3.2334 0
M  V30 2283 H 219.838 4.09824 -1.57927 0
M  V30 2284 H 220.444 3.09495 -2.91706 0
M  V30 2285 N 218.759 1.29093 0.90403 0
M  V30 2286 C 220.006 1.16813 1.65411 0
M  V30 2287 C 220.334 -0.28128 1.92455 0
M  V30 2288 O 219.589 -1.22006 1.53013 0
M  V30 2289 C 219.888 1.92224 3.01305 0
M  V30 2290 C 219.554 3.41968 2.93885 0
M  V30 2291 C 218.216 3.82807 2.91569 0
M  V30 2292 C 220.568 4.37409 2.83413 0
M  V30 2293 C 217.896 5.1741 2.76594 0
M  V30 2294 C 220.248 5.72097 2.69977 0
M  V30 2295 C 218.912 6.12199 2.66024 0
M  V30 2296 H 218.182 0.42745 0.605283 0
M  V30 2297 H 220.829 1.59981 1.05254 0
M  V30 2298 H 219.134 1.41635 3.65304 0
M  V30 2299 H 220.831 1.80131 3.58265 0
M  V30 2300 H 217.421 3.09504 2.96488 0
M  V30 2301 H 221.605 4.06813 2.84283 0
M  V30 2302 H 216.861 5.47596 2.71935 0
M  V30 2303 H 221.035 6.45704 2.60844 0
M  V30 2304 H 218.662 7.16448 2.54178 0
M  V30 2305 N 220.237 -1.11381 1.11499 0
M  V30 2306 C 221.483 -1.83403 0.865512 0
M  V30 2307 C 221.816 -1.84459 -0.607329 0
M  V30 2308 O 221.091 -1.29811 -1.44842 0
M  V30 2309 C 221.374 -3.30552 1.42855 0
M  V30 2310 C 221.227 -3.37886 2.96906 0
M  V30 2311 C 222.546 -4.26643 1.08 0
M  V30 2312 H 219.665 -0.665879 0.31587 0
M  V30 2313 H 222.307 -1.30601 1.37998 0
M  V30 2314 H 220.457 -3.75648 0.990985 0
M  V30 2315 H 222.129 -3.01343 3.49271 0
M  V30 2316 H 220.372 -2.78088 3.32941 0
M  V30 2317 H 221.043 -4.41458 3.31389 0
M  V30 2318 H 223.519 -3.89729 1.45775 0
M  V30 2319 H 222.395 -5.27986 1.50072 0
M  V30 2320 H 222.656 -4.42099 -0.00915037 0
M  V30 2321 N 221.715 -0.905404 -1.28997 0
M  V30 2322 C 222.663 -0.377431 -2.29517 0
M  V30 2323 C 223.657 0.526461 -1.61012 0
M  V30 2324 O 224.863 0.40863 -1.753 0
M  V30 2325 H 221.238 -0.103437 -0.744852 0
M  V30 2326 H 223.209 -1.23848 -2.71485 0
M  V30 2327 C 221.958 0.374833 -3.45674 0
M  V30 2328 H 221.281 -0.311474 -3.98585 0
M  V30 2329 H 222.721 0.70903 -4.1803 0
M  V30 2330 C 221.18 1.57963 -2.97572 0
M  V30 2331 O 221.71 2.67886 -2.99333 0
M  V30 2332 N 219.916 1.42375 -2.53333 0
M  V30 2333 H 219.463 0.529466 -2.521 0
M  V30 2334 H 219.421 2.23117 -2.21509 0
M  V30 2335 N 223.193 1.4272 -0.668489 0
M  V30 2336 C 224.441 2.01226 -0.187769 0
M  V30 2337 C 224.762 1.53092 1.2078 0
M  V30 2338 O 224.032 0.74993 1.80977 0
M  V30 2339 H 222.612 0.744041 -0.0664272 0
M  V30 2340 H 225.274 1.74723 -0.863583 0
M  V30 2341 H 224.37 3.11556 -0.184166 0
M  V30 2342 N 224.671 0.411399 1.52136 0
M  V30 2343 C 225.919 -0.163322 2.01439 0
M  V30 2344 C 226.24 -1.45453 1.29879 0
M  V30 2345 O 225.51 -1.91225 0.4254 0
M  V30 2346 H 224.09 -0.0633447 0.744309 0
M  V30 2347 H 226.752 0.548161 1.87033 0
M  V30 2348 H 225.848 -0.357817 3.10042 0
M  V30 2349 N 226.149 -1.5696 0.141893 0
M  V30 2350 C 227.079 -2.19516 -0.795936 0
M  V30 2351 C 228.06 -1.14187 -1.26077 0
M  V30 2352 O 229.245 -1.42511 -1.31925 0
M  V30 2353 C 226.375 -2.81272 -2.03723 0
M  V30 2354 C 225.329 -3.92384 -1.70936 0
M  V30 2355 C 224.655 -4.41052 -3.02287 0
M  V30 2356 C 225.955 -5.13403 -0.959954 0
M  V30 2357 H 227.649 -2.98138 -0.274596 0
M  V30 2358 H 225.195 -1.43406 -0.130636 0
M  V30 2359 H 227.148 -3.237 -2.69808 0
M  V30 2360 H 225.872 -1.99973 -2.58221 0
M  V30 2361 H 224.531 -3.50566 -1.07232 0
M  V30 2362 H 224.179 -3.56582 -3.54765 0
M  V30 2363 H 223.879 -5.15993 -2.81114 0
M  V30 2364 H 225.403 -4.86146 -3.69451 0
M  V30 2365 H 226.817 -5.52706 -1.52279 0
M  V30 2366 H 225.214 -5.94073 -0.848357 0
M  V30 2367 H 226.284 -4.84875 0.0492434 0
M  V30 2368 N 227.627 0.131896 -1.57047 0
M  V30 2369 C 228.873 0.843179 -1.84441 0
M  V30 2370 C 229.206 1.80129 -0.725749 0
M  V30 2371 O 228.481 1.92624 0.269469 0
M  V30 2372 C 228.764 1.60442 -3.22382 0
M  V30 2373 C 228.617 0.666782 -4.4483 0
M  V30 2374 C 229.936 2.56354 -3.5773 0
M  V30 2375 H 227.055 0.305081 -0.670891 0
M  V30 2376 H 229.697 0.107839 -1.89694 0
M  V30 2377 H 227.847 2.23128 -3.18035 0
M  V30 2378 H 229.519 0.0497646 -4.61273 0
M  V30 2379 H 227.762 -0.022609 -4.33794 0
M  V30 2380 H 228.433 1.23579 -5.37989 0
M  V30 2381 H 230.909 2.0378 -3.62785 0
M  V30 2382 H 229.785 3.06657 -4.5525 0
M  V30 2383 H 230.046 3.38419 -2.84473 0
M  V30 2384 N 229.106 1.52395 0.401703 0
M  V30 2385 C 230.053 1.76268 1.48991 0
M  V30 2386 C 231.023 0.605386 1.54675 0
M  V30 2387 O 232.208 0.843742 1.7113 0
M  V30 2388 C 229.348 1.92592 2.86361 0
M  V30 2389 C 228.461 3.20259 2.89928 0
M  V30 2390 C 227.596 3.26972 4.18644 0
M  V30 2391 C 226.635 4.48812 4.16214 0
M  V30 2392 N 225.772 4.52877 5.36514 0
M  V30 2393 H 230.612 2.6914 1.27935 0
M  V30 2394 H 228.149 1.33355 0.620871 0
M  V30 2395 H 230.107 2.0004 3.66115 0
M  V30 2396 H 228.737 1.03093 3.05895 0
M  V30 2397 H 227.789 3.21945 2.02621 0
M  V30 2398 H 229.101 4.10056 2.83999 0
M  V30 2399 H 228.255 3.33533 5.06794 0
M  V30 2400 H 226.994 2.35126 4.27278 0
M  V30 2401 H 225.999 4.4239 3.26453 0
M  V30 2402 H 227.224 5.41961 4.09213 0
M  V30 2403 H 225.17 3.63917 5.45802 0
M  V30 2404 H 225.087 5.36529 5.32609 0
M  V30 2405 H 226.355 4.63676 6.26597 0
M  V30 2406 N 230.584 -0.659388 1.43143 0
M  V30 2407 C 231.809 -1.45221 1.48073 0
M  V30 2408 C 232.234 -1.87845 0.097995 0
M  V30 2409 O 231.592 -1.56985 -0.90694 0
M  V30 2410 C 231.64 -2.66748 2.42647 0
M  V30 2411 O 230.744 -3.65583 1.90848 0
M  V30 2412 H 230.085 -0.435669 0.501088 0
M  V30 2413 H 232.615 -0.807432 1.87994 0
M  V30 2414 H 232.625 -3.14637 2.59745 0
M  V30 2415 H 231.3 -2.35067 3.43098 0
M  V30 2416 H 229.877 -3.24693 1.83381 0
M  V30 2417 N 232.062 -1.29571 -0.897171 0
M  V30 2418 C 233.025 -1.14913 -1.98312 0
M  V30 2419 C 234.025 -0.0838629 -1.60581 0
M  V30 2420 O 235.215 -0.331006 -1.71026 0
M  V30 2421 C 232.347 -0.757835 -3.3237 0
M  V30 2422 H 233.54 -2.11377 -2.12743 0
M  V30 2423 H 231.093 -1.12793 -1.08201 0
M  V30 2424 H 231.828 0.206837 -3.2364 0
M  V30 2425 H 231.613 -1.52755 -3.61121 0
M  V30 2426 H 233.103 -0.678408 -4.12053 0
M  V30 2427 N 233.54 1.10788 -1.12088 0
M  V30 2428 C 234.788 1.8231 -0.872205 0
M  V30 2429 C 235.109 1.85419 0.603709 0
M  V30 2430 O 234.379 1.32963 1.43867 0
M  V30 2431 H 232.959 0.675137 -0.319686 0
M  V30 2432 H 235.621 1.34068 -1.41463 0
M  V30 2433 H 234.717 2.85955 -1.25045 0
M  V30 2434 N 235.018 0.912232 1.28515 0
M  V30 2435 C 235.965 0.397954 2.27343 0
M  V30 2436 C 236.935 -0.526766 1.57526 0
M  V30 2437 O 238.12 -0.449292 1.85435 0
M  V30 2438 C 235.26 -0.357263 3.43246 0
M  V30 2439 C 234.373 0.599788 4.27816 0
M  V30 2440 C 233.508 -0.173725 5.30916 0
M  V30 2441 C 232.547 0.777039 6.07148 0
M  V30 2442 N 231.684 0.0371398 7.0209 0
M  V30 2443 H 236.524 1.24577 2.70711 0
M  V30 2444 H 234.061 0.625612 1.33133 0
M  V30 2445 H 236.019 -0.8113 4.09236 0
M  V30 2446 H 234.649 -1.16943 3.00872 0
M  V30 2447 H 233.701 1.17235 3.61884 0
M  V30 2448 H 235.013 1.32704 4.80823 0
M  V30 2449 H 234.167 -0.688394 6.02782 0
M  V30 2450 H 232.906 -0.934041 4.78672 0
M  V30 2451 H 231.911 1.3031 5.34134 0
M  V30 2452 H 233.136 1.53689 6.61481 0
M  V30 2453 H 231.082 -0.705213 6.52198 0
M  V30 2454 H 230.999 0.704249 7.52713 0
M  V30 2455 H 232.267 -0.457383 7.78157 0
M  V30 2456 N 236.496 -1.42363 0.676048 0
M  V30 2457 C 237.444 -2.32596 -0.0131507 0
M  V30 2458 C 238.438 -1.49891 -0.789238 0
M  V30 2459 O 239.644 -1.65955 -0.697061 0
M  V30 2460 H 236.019 -0.751647 -0.0230481 0
M  V30 2461 H 237.99 -2.88421 0.765243 0
M  V30 2462 C 236.739 -3.34479 -0.949702 0
M  V30 2463 H 236.062 -3.98158 -0.361938 0
M  V30 2464 H 237.502 -4.00199 -1.4006 0
M  V30 2465 C 235.961 -2.66838 -2.05667 0
M  V30 2466 O 236.491 -2.50124 -3.14326 0
M  V30 2467 N 234.697 -2.25843 -1.82875 0
M  V30 2468 H 234.244 -2.39637 -0.945085 0
M  V30 2469 H 234.202 -1.80918 -2.5713 0
M  V30 2470 N 237.974 -0.419461 -1.51915 0
M  V30 2471 C 238.937 0.389116 -2.25873 0
M  V30 2472 C 239.937 0.964924 -1.28631 0
M  V30 2473 O 241.127 0.842179 -1.52489 0
M  V30 2474 C 238.259 1.54874 -3.03689 0
M  V30 2475 H 239.452 -0.258799 -2.98781 0
M  V30 2476 H 237.005 -0.172209 -1.55348 0
M  V30 2477 H 237.74 2.23323 -2.35154 0
M  V30 2478 H 237.525 1.14223 -3.75094 0
M  V30 2479 H 239.015 2.12046 -3.59759 0
M  V30 2480 N 239.452 1.56882 -0.150215 0
M  V30 2481 C 240.402 2.13501 0.800071 0
M  V30 2482 C 241.386 1.06368 1.20726 0
M  V30 2483 O 242.578 1.32538 1.17314 0
M  V30 2484 C 239.707 2.76271 2.03787 0
M  V30 2485 C 238.793 3.90533 1.65364 0
M  V30 2486 N 239.184 4.96259 0.977794 0
M  V30 2487 C 237.482 4.013 1.94613 0
M  V30 2488 C 238.183 5.76286 0.791794 0
M  V30 2489 N 237.159 5.27163 1.32666 0
M  V30 2490 H 240.961 2.92615 0.274517 0
M  V30 2491 H 238.475 1.62319 0.0512144 0
M  V30 2492 H 240.472 3.15197 2.72867 0
M  V30 2493 H 239.132 1.98631 2.56857 0
M  V30 2494 H 240.143 5.13953 0.638193 0
M  V30 2495 H 236.82 3.3474 2.4951 0
M  V30 2496 H 238.21 6.71401 0.258894 0
M  V30 2497 N 240.93 -0.123565 1.57115 0
M  V30 2498 C 241.86 -1.15309 2.03042 0
M  V30 2499 C 242.841 -1.43454 0.914061 0
M  V30 2500 O 244.026 -1.53973 1.18347 0
M  V30 2501 C 241.156 -2.48043 2.43089 0
M  V30 2502 C 240.11 -2.3437 3.58127 0
M  V30 2503 C 239.436 -3.72026 3.84059 0
M  V30 2504 C 240.736 -1.80804 4.90007 0
M  V30 2505 H 242.43 -0.771102 2.893 0
M  V30 2506 H 239.976 -0.369479 1.39179 0
M  V30 2507 H 241.929 -3.20311 2.73823 0
M  V30 2508 H 240.653 -2.88122 1.53796 0
M  V30 2509 H 239.312 -1.64551 3.27595 0
M  V30 2510 H 238.96 -4.09582 2.91979 0
M  V30 2511 H 238.66 -3.63732 4.6149 0
M  V30 2512 H 240.184 -4.45806 4.1724 0
M  V30 2513 H 241.598 -2.42886 5.19307 0
M  V30 2514 H 239.995 -1.83343 5.71407 0
M  V30 2515 H 241.065 -0.76528 4.78823 0
M  V30 2516 N 242.408 -1.52605 -0.393616 0
M  V30 2517 C 243.656 -1.67093 -1.13685 0
M  V30 2518 C 243.977 -0.411011 -1.90619 0
M  V30 2519 O 243.247 0.574491 -1.87287 0
M  V30 2520 H 241.827 -0.615923 -0.422668 0
M  V30 2521 H 244.489 -1.89704 -0.447039 0
M  V30 2522 H 243.585 -2.51922 -1.84232 0
M  V30 2523 N 243.887 0.651787 -1.4349 0
M  V30 2524 C 244.85 1.74647 -1.48429 0
M  V30 2525 C 245.85 1.56513 -0.368817 0
M  V30 2526 O 247.04 1.62385 -0.630623 0
M  V30 2527 C 244.172 3.13533 -1.33827 0
M  V30 2528 H 245.365 1.71649 -2.4592 0
M  V30 2529 H 242.918 0.863573 -1.30277 0
M  V30 2530 H 243.653 3.22142 -0.37349 0
M  V30 2531 H 243.438 3.28101 -2.14691 0
M  V30 2532 H 244.928 3.93356 -1.40218 0
M  V30 2533 N 245.365 1.30045 0.890287 0
M  V30 2534 C 246.59 1.21598 1.68014 0
M  V30 2535 C 247.015 -0.218678 1.86825 0
M  V30 2536 O 246.373 -1.15756 1.39536 0
M  V30 2537 C 246.421 1.94434 3.03691 0
M  V30 2538 O 245.525 1.2678 3.92429 0
M  V30 2539 H 244.866 0.420856 0.513592 0
M  V30 2540 H 247.396 1.71775 1.11151 0
M  V30 2541 H 247.406 2.03251 3.5377 0
M  V30 2542 H 246.081 2.98777 2.89318 0
M  V30 2543 H 244.658 1.26282 3.50866 0
M  V30 2544 N 246.843 -1.10192 1.12674 0
M  V30 2545 C 248.259 -1.34235 0.863317 0
M  V30 2546 C 248.459 -1.95062 -0.505277 0
M  V30 2547 O 247.515 -2.19192 -1.25345 0
M  V30 2548 C 248.828 -2.2616 1.98172 0
M  V30 2549 C 250.376 -2.3969 2.0129 0
M  V30 2550 C 250.851 -3.34946 3.1237 0
M  V30 2551 N 252.342 -3.42515 3.11829 0
M  V30 2552 C 253.077 -4.16199 3.94419 0
M  V30 2553 N 252.573 -4.92747 4.87004 0
M  V30 2554 N 254.366 -4.11843 3.82547 0
M  V30 2555 H 246.517 -0.690798 2.00853 0
M  V30 2556 H 248.78 -0.366774 0.874174 0
M  V30 2557 H 248.486 -1.8868 2.96804 0
M  V30 2558 H 248.36 -3.26488 1.88906 0
M  V30 2559 H 250.747 -2.76438 1.03276 0
M  V30 2560 H 250.828 -1.39169 2.14629 0
M  V30 2561 H 250.472 -2.98923 4.10619 0
M  V30 2562 H 250.402 -4.35353 2.96269 0
M  V30 2563 H 252.893 -2.87926 2.44759 0
M  V30 2564 H 253.206 -5.46376 5.46528 0
M  V30 2565 H 251.551 -4.91862 4.91016 0
M  V30 2566 H 254.742 -3.51136 3.0955 0
M  V30 2567 H 254.915 -4.69007 4.47142 0
M  V30 2568 N 248.321 -0.919034 -1.28029 0
M  V30 2569 C 249.551 -0.570143 -1.98577 0
M  V30 2570 C 249.959 0.854172 -1.68821 0
M  V30 2571 O 249.302 1.57807 -0.940351 0
M  V30 2572 C 249.364 -0.705734 -3.52505 0
M  V30 2573 C 249.028 -2.10057 -4.05863 0
M  V30 2574 C 250.025 -3.07385 -4.19298 0
M  V30 2575 C 247.71 -2.41517 -4.40426 0
M  V30 2576 C 249.704 -4.34287 -4.66555 0
M  V30 2577 C 247.391 -3.68657 -4.87376 0
M  V30 2578 C 248.389 -4.64856 -5.00398 0
M  V30 2579 O 248.077 -5.89735 -5.46322 0
M  V30 2580 H 247.809 -0.215592 -0.6407 0
M  V30 2581 H 250.363 -1.23583 -1.64062 0
M  V30 2582 H 248.593 0.0170414 -3.86696 0
M  V30 2583 H 250.282 -0.363172 -4.04272 0
M  V30 2584 H 251.048 -2.84398 -3.92865 0
M  V30 2585 H 246.927 -1.67389 -4.29537 0
M  V30 2586 H 250.471 -5.09377 -4.76635 0
M  V30 2587 H 246.368 -3.91466 -5.13249 0
M  V30 2588 H 247.136 -5.92599 -5.64596 0
M  V30 2589 N 249.799 1.42003 -0.683588 0
M  V30 2590 C 250.729 2.33487 -0.024866 0
M  V30 2591 C 251.71 1.51163 0.779975 0
M  V30 2592 O 252.895 1.79739 0.735362 0
M  V30 2593 C 250.025 3.3487 0.920836 0
M  V30 2594 C 248.979 4.27414 0.223958 0
M  V30 2595 C 248.305 5.19074 1.2832 0
M  V30 2596 C 249.605 5.14445 -0.90242 0
M  V30 2597 H 251.299 2.88819 -0.788921 0
M  V30 2598 H 248.845 1.38873 -0.38083 0
M  V30 2599 H 250.798 3.97787 1.39081 0
M  V30 2600 H 249.522 2.77861 1.71642 0
M  V30 2601 H 248.181 3.65904 -0.225864 0
M  V30 2602 H 247.829 4.58387 2.071 0
M  V30 2603 H 247.529 5.81822 0.821995 0
M  V30 2604 H 249.053 5.84867 1.75392 0
M  V30 2605 H 250.467 5.70998 -0.513272 0
M  V30 2606 H 248.864 5.86072 -1.28997 0
M  V30 2607 H 249.934 4.52322 -1.74737 0
M  V30 2608 N 251.277 0.427512 1.51691 0
M  V30 2609 C 252.526 -0.143679 2.01188 0
M  V30 2610 C 252.839 -1.44642 1.31674 0
M  V30 2611 O 254.045 -2.09997 1.72086 0
M  V30 2612 C 252.501 -0.306602 3.58592 0
M  V30 2613 C 252.109 0.985125 4.37035 0
M  V30 2614 C 253.853 -0.832091 4.16265 0
M  V30 2615 C 251.76 0.788382 5.86122 0
M  V30 2616 H 250.69 -0.0574701 0.751807 0
M  V30 2617 H 253.341 0.555772 1.74881 0
M  V30 2618 H 251.723 -1.06882 3.81303 0
M  V30 2619 H 252.897 1.75492 4.26074 0
M  V30 2620 H 251.212 1.4384 3.90767 0
M  V30 2621 H 253.809 -0.995617 5.25349 0
M  V30 2622 H 254.152 -1.81186 3.74803 0
M  V30 2623 H 254.685 -0.128444 3.97593 0
M  V30 2624 H 251.424 1.74025 6.31978 0
M  V30 2625 H 250.944 0.0582143 5.99772 0
M  V30 2626 H 252.623 0.437722 6.45518 0
M  V30 2627 N 252.755 -1.56801 0.158532 0
M  V30 2628 C 253.718 -2.16138 -0.762705 0
M  V30 2629 C 254.718 -1.1061 -1.16713 0
M  V30 2630 O 255.908 -1.36191 -1.08617 0
M  V30 2631 C 253.04 -2.73386 -2.03649 0
M  V30 2632 H 254.233 -2.98886 -0.246354 0
M  V30 2633 H 251.786 -1.56035 -0.0909744 0
M  V30 2634 H 252.521 -1.94335 -2.59623 0
M  V30 2635 H 252.306 -3.50601 -1.75559 0
M  V30 2636 H 253.796 -3.19065 -2.6942 0
M  V30 2637 N 254.233 0.115231 -1.57178 0
M  V30 2638 C 255.143 1.15994 -2.03918 0
M  V30 2639 C 256.159 1.45103 -0.960268 0
M  V30 2640 O 257.335 1.56144 -1.27204 0
M  V30 2641 C 254.4 2.46568 -2.43732 0
M  V30 2642 C 253.461 2.24822 -3.65723 0
M  V30 2643 C 252.694 3.4917 -4.03629 0
M  V30 2644 O 252.917 4.56623 -3.41835 0
M  V30 2645 O 251.851 3.39949 -4.96708 0
M  V30 2646 H 255.677 0.793019 -2.93164 0
M  V30 2647 H 253.262 0.3263 -1.45793 0
M  V30 2648 H 255.144 3.23492 -2.70057 0
M  V30 2649 H 253.819 2.82726 -1.57631 0
M  V30 2650 H 252.726 1.45744 -3.44542 0
M  V30 2651 H 254.059 1.93566 -4.52541 0
M  V30 2652 N 255.711 1.52812 0.385517 0
M  V30 2653 C 256.674 1.77188 1.45386 0
M  V30 2654 C 257.674 0.641953 1.4743 0
M  V30 2655 O 258.864 0.910033 1.4854 0
M  V30 2656 C 255.996 1.87582 2.8465 0
M  V30 2657 H 257.189 2.72583 1.25054 0
M  V30 2658 H 254.742 1.43586 0.617467 0
M  V30 2659 H 255.477 0.941849 3.10322 0
M  V30 2660 H 255.262 2.69748 2.84567 0
M  V30 2661 H 256.752 2.08102 3.62054 0
M  V30 2662 N 257.189 -0.644168 1.43834 0
M  V30 2663 C 258.466 -1.40188 1.36406 0
M  V30 2664 C 258.846 -2.11094 0.0163124 0
M  V30 2665 O 258.194 -2.05426 -1.00062 0
M  V30 2666 C 258.404 -2.3791 2.55343 0
M  V30 2667 C 259.752 -3.01637 2.98832 0
M  V30 2668 O 260.776 -2.48237 2.55455 0
M  V30 2669 O 259.635 -3.98477 3.74003 0
M  V30 2670 H 256.729 -0.626773 0.539523 0
M  V30 2671 H 259.275 -0.670317 1.559 0
M  V30 2672 H 258.047 -1.84525 3.4506 0
M  V30 2673 H 257.67 -3.18503 2.37995 0
M  V30 2674 N 258.668 -1.30515 -0.883378 0
M  V30 2675 C 259.578 -1.18959 -2.02203 0
M  V30 2676 C 260.594 -0.109172 -1.73657 0
M  V30 2677 O 261.77 -0.324413 -1.9877 0
M  V30 2678 C 258.835 -0.883871 -3.35244 0
M  V30 2679 C 257.896 -2.04982 -3.77201 0
M  V30 2680 C 257.129 -1.75859 -5.03894 0
M  V30 2681 O 257.352 -0.687276 -5.66244 0
M  V30 2682 O 256.286 -2.61146 -5.42297 0
M  V30 2683 H 260.112 -2.14616 -2.1488 0
M  V30 2684 H 257.697 -1.10124 -1.0096 0
M  V30 2685 H 259.579 -0.728644 -4.15053 0
M  V30 2686 H 258.254 0.0427798 -3.23672 0
M  V30 2687 H 257.161 -2.26038 -2.9809 0
M  V30 2688 H 258.494 -2.95825 -3.93381 0
M  V30 2689 N 260.146 1.09593 -1.13257 0
M  V30 2690 C 261.371 1.8604 -0.916732 0
M  V30 2691 C 261.796 1.80504 0.529146 0
M  V30 2692 O 261.154 1.18127 1.37534 0
M  V30 2693 C 261.202 3.32017 -1.40703 0
M  V30 2694 O 260.306 4.08141 -0.591153 0
M  V30 2695 H 259.647 0.576943 -0.328683 0
M  V30 2696 H 262.177 1.38405 -1.50682 0
M  V30 2697 H 262.187 3.82865 -1.4099 0
M  V30 2698 H 260.862 3.35361 -2.45979 0
M  V30 2699 H 259.439 3.67084 -0.656005 0
M  V30 2700 N 261.624 0.925811 1.2754 0
M  V30 2701 C 262.901 0.483726 1.89524 0
M  V30 2702 C 263.281 -1.03809 1.83812 0
M  V30 2703 O 262.629 -1.89143 1.28207 0
M  V30 2704 C 262.839 1.02769 3.33526 0
M  V30 2705 C 264.187 1.08703 4.10449 0
M  V30 2706 O 265.211 0.977175 3.42534 0
M  V30 2707 O 264.07 1.25599 5.31871 0
M  V30 2708 H 261.164 0.15529 0.812289 0
M  V30 2709 H 263.71 1.01738 1.35822 0
M  V30 2710 H 262.482 2.07155 3.31967 0
M  V30 2711 H 262.105 0.475567 3.94746 0
M  V30 2712 N 263.102 -1.41638 0.69111 0
M  V30 2713 C 264.065 -2.29178 0.0319786 0
M  V30 2714 C 265.065 -1.44153 -0.712496 0
M  V30 2715 O 266.255 -1.65354 -0.548053 0
M  V30 2716 C 263.387 -3.26952 -0.965161 0
M  V30 2717 H 264.58 -2.88959 0.802681 0
M  V30 2718 H 262.133 -1.4955 0.454356 0
M  V30 2719 H 262.868 -2.72142 -1.76378 0
M  V30 2720 H 262.653 -3.89685 -0.434522 0
M  V30 2721 H 264.143 -3.92561 -1.42428 0
M  V30 2722 N 264.58 -0.43555 -1.51462 0
M  V30 2723 C 265.805 0.132627 -2.06976 0
M  V30 2724 C 266.23 1.35848 -1.30104 0
M  V30 2725 O 265.588 1.78112 -0.338493 0
M  V30 2726 C 265.636 0.43523 -3.57964 0
M  V30 2727 O 264.74 1.52198 -3.83288 0
M  V30 2728 H 264.081 0.00265 -0.663995 0
M  V30 2729 H 266.611 -0.616369 -1.95095 0
M  V30 2730 H 266.621 0.686206 -4.02188 0
M  V30 2731 H 265.296 -0.460739 -4.1334 0
M  V30 2732 H 263.873 1.2611 -3.50928 0
M  V30 2733 N 266.058 1.56714 -0.166846 0
M  V30 2734 C 267.305 1.96747 0.479252 0
M  V30 2735 C 267.633 1.05263 1.63554 0
M  V30 2736 O 266.888 0.0858098 1.95512 0
M  V30 2737 C 267.187 3.42889 1.00806 0
M  V30 2738 C 266.853 4.50889 -0.0318574 0
M  V30 2739 C 265.515 4.8015 -0.317675 0
M  V30 2740 C 267.867 5.15949 -0.737956 0
M  V30 2741 C 265.195 5.71772 -1.31506 0
M  V30 2742 C 267.547 6.08647 -1.72429 0
M  V30 2743 C 266.211 6.36277 -2.0176 0
M  V30 2744 H 265.481 0.719949 0.175371 0
M  V30 2745 H 268.128 1.89756 -0.257864 0
M  V30 2746 H 266.433 3.4681 1.82291 0
M  V30 2747 H 268.13 3.71203 1.51689 0
M  V30 2748 H 264.72 4.28128 0.201088 0
M  V30 2749 H 268.904 4.93458 -0.530351 0
M  V30 2750 H 264.16 5.91465 -1.54853 0
M  V30 2751 H 268.334 6.58129 -2.27682 0
M  V30 2752 H 265.961 7.07075 -2.79194 0
M  V30 2753 N 267.536 -0.106894 1.57237 0
M  V30 2754 C 268.466 -1.13148 2.04254 0
M  V30 2755 C 269.447 -1.42476 0.929224 0
M  V30 2756 O 270.632 -1.52709 1.19973 0
M  V30 2757 C 267.762 -2.4545 2.45706 0
M  V30 2758 C 266.716 -2.30558 3.60592 0
M  V30 2759 C 266.042 -3.67931 3.87983 0
M  V30 2760 C 267.342 -1.75597 4.91897 0
M  V30 2761 H 269.036 -0.740374 2.90101 0
M  V30 2762 H 266.582 -0.354696 1.39563 0
M  V30 2763 H 268.535 -3.17389 2.77205 0
M  V30 2764 H 267.259 -2.86475 1.56843 0
M  V30 2765 H 265.918 -1.61067 3.29322 0
M  V30 2766 H 265.566 -4.06462 2.96306 0
M  V30 2767 H 265.266 -3.58817 4.65322 0
M  V30 2768 H 266.79 -4.41356 4.21945 0
M  V30 2769 H 268.204 -2.37364 5.21854 0
M  V30 2770 H 266.601 -1.77272 5.73319 0
M  V30 2771 H 267.671 -0.714451 4.79608 0
M  V30 2772 N 269.014 -1.53014 -0.377408 0
M  V30 2773 C 269.964 -1.74996 -1.46152 0
M  V30 2774 C 270.948 -0.604236 -1.49123 0
M  V30 2775 O 272.14 -0.862489 -1.54564 0
M  V30 2776 C 269.269 -1.93267 -2.8373 0
M  V30 2777 C 268.355 -3.13807 -2.85283 0
M  V30 2778 N 268.746 -4.35941 -2.56493 0
M  V30 2779 C 267.044 -3.14288 -3.16448 0
M  V30 2780 C 267.745 -5.17615 -2.65424 0
M  V30 2781 N 266.721 -4.53559 -2.99641 0
M  V30 2782 H 270.523 -2.67044 -1.22738 0
M  V30 2783 H 268.037 -1.51479 -0.585479 0
M  V30 2784 H 270.034 -2.0714 -3.61799 0
M  V30 2785 H 268.694 -1.0244 -3.08117 0
M  V30 2786 H 269.705 -4.63876 -2.30302 0
M  V30 2787 H 266.382 -2.33312 -3.46225 0
M  V30 2788 H 267.772 -6.25006 -2.46612 0
M  V30 2789 N 270.492 0.636531 -1.44174 0
M  V30 2790 C 271.422 1.76003 -1.53444 0
M  V30 2791 C 272.403 1.65619 -0.387841 0
M  V30 2792 O 273.588 1.84461 -0.607257 0
M  V30 2793 C 270.718 3.14511 -1.4731 0
M  V30 2794 C 269.672 3.39677 -2.60391 0
M  V30 2795 C 268.998 4.78159 -2.39308 0
M  V30 2796 C 270.298 3.32772 -4.02567 0
M  V30 2797 H 271.992 1.68501 -2.47483 0
M  V30 2798 H 269.538 0.809237 -1.19111 0
M  V30 2799 H 271.491 3.92878 -1.52397 0
M  V30 2800 H 270.215 3.22783 -0.49785 0
M  V30 2801 H 268.874 2.63688 -2.54684 0
M  V30 2802 H 268.522 4.83128 -1.39988 0
M  V30 2803 H 268.222 4.95956 -3.15122 0
M  V30 2804 H 269.746 5.58762 -2.46205 0
M  V30 2805 H 271.16 4.01051 -4.09672 0
M  V30 2806 H 269.557 3.62104 -4.7854 0
M  V30 2807 H 270.627 2.30669 -4.2652 0
M  V30 2808 N 271.97 1.30982 0.876444 0
M  V30 2809 C 272.902 1.13902 1.98894 0
M  V30 2810 C 273.915 0.0798815 1.62604 0
M  V30 2811 O 275.104 0.326743 1.75484 0
M  V30 2812 C 272.204 0.716699 3.31235 0
M  V30 2813 C 271.377 1.85945 3.95908 0
M  V30 2814 C 270.436 1.42426 5.06558 0
M  V30 2815 O 269.462 2.13287 5.27729 0
M  V30 2816 N 270.664 0.308025 5.79682 0
M  V30 2817 H 273.429 2.09724 2.14094 0
M  V30 2818 H 270.99 1.2323 1.05004 0
M  V30 2819 H 272.982 0.408403 4.02634 0
M  V30 2820 H 271.552 -0.149719 3.12241 0
M  V30 2821 H 270.772 2.33541 3.17573 0
M  V30 2822 H 272.06 2.62503 4.35855 0
M  V30 2823 H 271.458 -0.282241 5.64995 0
M  V30 2824 H 270.015 0.0592282 6.51773 0
M  V30 2825 N 273.449 -1.08991 1.13837 0
M  V30 2826 C 274.86 -1.62746 0.914917 0
M  V30 2827 C 275.211 -1.88403 -0.547594 0
M  V30 2828 O 274.336 -1.63706 -1.41525 0
M  V30 2829 C 274.931 -2.95662 1.65437 0
M  V30 2830 C 273.49 -3.46225 1.47666 0
M  V30 2831 C 272.637 -2.20562 1.6807 0
M  V30 2832 H 275.588 -0.922946 1.29102 0
M  V30 2833 H 275.609 -3.63825 1.11407 0
M  V30 2834 H 275.121 -2.76956 2.71877 0
M  V30 2835 H 273.222 -3.70046 0.435478 0
M  V30 2836 H 273.335 -4.23368 2.24268 0
M  V30 2837 H 271.699 -2.29439 1.10589 0
M  V30 2838 H 272.482 -2.0437 2.7584 0
M  V30 2839 N 274.927 -0.932562 -1.27047 0
M  V30 2840 C 275.86 -0.379774 -2.25018 0
M  V30 2841 C 276.838 0.526587 -1.53837 0
M  V30 2842 O 278.022 0.465992 -1.82649 0
M  V30 2843 C 275.149 0.455187 -3.35627 0
M  V30 2844 C 274.195 -0.388428 -4.24728 0
M  V30 2845 S 275.028 -1.80701 -5.04091 0
M  V30 2846 C 276.184 -0.979865 -6.18182 0
M  V30 2847 H 276.417 -1.2101 -2.71558 0
M  V30 2848 H 273.95 -0.735078 -1.35779 0
M  V30 2849 H 275.908 0.931052 -3.99802 0
M  V30 2850 H 274.569 1.26009 -2.87716 0
M  V30 2851 H 273.762 0.25089 -5.03375 0
M  V30 2852 H 273.364 -0.798649 -3.65373 0
M  V30 2853 H 275.656 -0.218115 -6.77149 0
M  V30 2854 H 276.599 -1.73951 -6.86401 0
M  V30 2855 H 277.007 -0.51973 -5.62102 0
M  V30 2856 N 276.405 1.4127 -0.698611 0
M  V30 2857 C 277.651 2.01478 -0.231207 0
M  V30 2858 C 277.984 1.55215 1.16713 0
M  V30 2859 O 277.259 0.764672 1.78838 0
M  V30 2860 C 277.542 3.58912 -0.292281 0
M  V30 2861 C 277.395 4.15293 -1.72778 0
M  V30 2862 C 278.714 4.38736 0.346194 0
M  V30 2863 H 275.833 0.732025 -0.0854878 0
M  V30 2864 H 278.475 1.67977 -0.887906 0
M  V30 2865 H 276.625 3.87582 0.26686 0
M  V30 2866 H 278.297 3.97486 -2.341 0
M  V30 2867 H 276.54 3.7022 -2.26096 0
M  V30 2868 H 277.211 5.24452 -1.72202 0
M  V30 2869 H 279.687 4.15897 -0.130035 0
M  V30 2870 H 278.563 5.48221 0.272932 0
M  V30 2871 H 278.824 4.18425 1.42734 0
M  V30 2872 N 277.883 0.443576 1.51229 0
M  V30 2873 C 279.108 -0.121648 2.07043 0
M  V30 2874 C 279.533 -1.35156 1.30823 0
M  V30 2875 O 278.891 -1.7793 0.347934 0
M  V30 2876 C 278.939 -0.41624 3.5819 0
M  V30 2877 O 278.043 -1.50163 3.8409 0
M  V30 2878 H 277.384 0.000871367 0.663999 0
M  V30 2879 H 279.914 0.626706 1.94765 0
M  V30 2880 H 279.924 -0.664867 4.02546 0
M  V30 2881 H 278.599 0.482653 4.1309 0
M  V30 2882 H 277.176 -1.24248 3.51592 0
M  V30 2883 N 279.361 -1.56624 0.175154 0
M  V30 2884 C 280.607 -1.9729 -0.469506 0
M  V30 2885 C 280.94 -1.06128 -1.62636 0
M  V30 2886 O 280.215 -0.109183 -1.94193 0
M  V30 2887 C 280.498 -3.47375 -0.948804 0
M  V30 2888 C 280.351 -4.49317 0.208491 0
M  V30 2889 C 281.67 -4.00652 -1.82116 0
M  V30 2890 H 278.789 -0.717317 -0.16919 0
M  V30 2891 H 281.431 -1.88184 0.262062 0
M  V30 2892 H 279.581 -3.55267 -1.57219 0
M  V30 2893 H 281.253 -4.53482 0.845682 0
M  V30 2894 H 279.496 -4.25121 0.863395 0
M  V30 2895 H 280.167 -5.51741 -0.169059 0
M  V30 2896 H 282.643 -3.95416 -1.2956 0
M  V30 2897 H 281.519 -5.06075 -2.12554 0
M  V30 2898 H 281.78 -3.44699 -2.7683 0
M  V30 2899 N 280.839 0.0985539 -1.57292 0
M  V30 2900 C 282.085 0.803867 -1.86188 0
M  V30 2901 C 282.418 1.78549 -0.763794 0
M  V30 2902 O 281.693 1.93153 0.22855 0
M  V30 2903 C 281.976 1.53568 -3.25713 0
M  V30 2904 C 281.829 0.572277 -4.46145 0
M  V30 2905 C 283.148 2.48708 -3.63087 0
M  V30 2906 H 280.267 0.290781 -0.677211 0
M  V30 2907 H 282.909 0.0675783 -1.8988 0
M  V30 2908 H 281.059 2.16332 -3.22696 0
M  V30 2909 H 282.731 -0.0480894 -4.61275 0
M  V30 2910 H 280.974 -0.114618 -4.33649 0
M  V30 2911 H 281.645 1.12139 -5.40489 0
M  V30 2912 H 284.121 1.96039 -3.67026 0
M  V30 2913 H 282.997 2.96932 -4.61652 0
M  V30 2914 H 283.258 3.32309 -2.91588 0
M  V30 2915 N 282.317 1.53212 0.369288 0
M  V30 2916 C 283.545 1.73119 1.13303 0
M  V30 2917 C 283.96 0.458455 1.83149 0
M  V30 2918 O 283.317 -0.568403 1.73423 0
M  V30 2919 C 283.368 2.89413 2.16616 0
M  V30 2920 O 283.089 4.11761 1.49614 0
M  V30 2921 C 284.59 3.21161 3.05566 0
M  V30 2922 H 281.81 0.579107 0.338934 0
M  V30 2923 H 284.354 1.99942 0.429338 0
M  V30 2924 H 282.509 2.64994 2.82589 0
M  V30 2925 H 282.923 4.76858 2.18419 0
M  V30 2926 H 284.397 4.05949 3.74045 0
M  V30 2927 H 284.874 2.36369 3.70171 0
M  V30 2928 H 285.48 3.47492 2.45213 0
M  V30 2929 N 283.795 -0.628877 1.44509 0
M  V30 2930 C 284.743 -1.76193 1.51852 0
M  V30 2931 C 285.737 -1.64849 0.390042 0
M  V30 2932 O 286.943 -1.709 0.565082 0
M  V30 2933 H 283.318 -0.581728 0.476547 0
M  V30 2934 H 285.289 -1.67123 2.47209 0
M  V30 2935 C 284.038 -3.14533 1.48204 0
M  V30 2936 H 283.361 -3.23911 2.34354 0
M  V30 2937 H 284.801 -3.93701 1.57402 0
M  V30 2938 C 283.26 -3.36287 0.203142 0
M  V30 2939 O 283.79 -3.9509 -0.725745 0
M  V30 2940 N 281.996 -2.90408 0.105563 0
M  V30 2941 H 281.543 -2.42739 0.862301 0
M  V30 2942 H 281.501 -3.05339 -0.749371 0
M  V30 2943 N 285.273 -1.31445 -0.869486 0
M  V30 2944 C 286.206 -1.13465 -1.97992 0
M  V30 2945 C 287.184 -0.0380291 -1.62556 0
M  V30 2946 O 288.368 -0.194544 -1.87493 0
M  V30 2947 C 285.495 -0.733822 -3.30655 0
M  V30 2948 C 284.541 -1.83356 -3.85075 0
M  V30 2949 S 285.374 -3.43909 -4.10472 0
M  V30 2950 C 286.53 -3.05763 -5.46132 0
M  V30 2951 H 286.763 -2.07471 -2.1294 0
M  V30 2952 H 284.296 -1.15936 -1.01972 0
M  V30 2953 H 286.254 -0.509306 -4.07328 0
M  V30 2954 H 284.915 0.187123 -3.13542 0
M  V30 2955 H 284.108 -1.50574 -4.80982 0
M  V30 2956 H 283.71 -2.01315 -3.15195 0
M  V30 2957 H 286.002 -2.54686 -6.27807 0
M  V30 2958 H 286.945 -4.00635 -5.83864 0
M  V30 2959 H 287.353 -2.43192 -5.09429 0
M  V30 2960 N 286.751 1.08385 -1.14413 0
M  V30 2961 C 287.661 2.18856 -0.844951 0
M  V30 2962 C 288.677 1.73121 0.174668 0
M  V30 2963 O 289.853 2.014 0.00312857 0
M  V30 2964 C 286.918 3.45155 -0.32696 0
M  V30 2965 C 285.979 4.05513 -1.40916 0
M  V30 2966 C 285.212 5.25784 -0.915793 0
M  V30 2967 O 285.435 5.69884 0.242651 0
M  V30 2968 O 284.369 5.77545 -1.69487 0
M  V30 2969 H 288.195 2.46919 -1.76818 0
M  V30 2970 H 285.78 1.17524 -0.922411 0
M  V30 2971 H 287.662 4.21377 -0.0440211 0
M  V30 2972 H 286.337 3.18668 0.568539 0
M  V30 2973 H 285.244 3.30879 -1.74556 0
M  V30 2974 H 286.577 4.3625 -2.27919 0
M  V30 2975 N 288.23 0.939286 1.26551 0
M  V30 2976 C 289.641 0.628782 1.75793 0
M  V30 2977 C 289.992 -0.856046 1.7654 0
M  V30 2978 O 289.117 -1.66994 1.3763 0
M  V30 2979 C 289.712 1.13465 3.19235 0
M  V30 2980 C 288.271 0.874601 3.66098 0
M  V30 2981 C 287.418 1.28667 2.45642 0
M  V30 2982 H 290.369 1.1178 1.12654 0
M  V30 2983 H 290.39 0.487609 3.77363 0
M  V30 2984 H 289.902 2.21535 3.1866 0
M  V30 2985 H 288.003 -0.191793 3.72106 0
M  V30 2986 H 288.116 1.50028 4.55004 0
M  V30 2987 H 286.48 0.705109 2.44745 0
M  V30 2988 H 287.263 2.37625 2.47769 0
M  V30 2989 N 289.708 -1.40897 0.706093 0
M  V30 2990 C 290.985 -1.94868 0.169099 0
M  V30 2991 C 291.365 -1.64485 -1.32318 0
M  V30 2992 O 290.713 -0.95744 -2.07474 0
M  V30 2993 C 290.923 -3.45798 0.471654 0
M  V30 2994 C 292.271 -4.22663 0.405127 0
M  V30 2995 O 293.295 -3.53865 0.407168 0
M  V30 2996 O 292.154 -5.45216 0.374383 0
M  V30 2997 H 289.248 -0.82673 0.0211352 0
M  V30 2998 H 291.794 -1.50558 0.782976 0
M  V30 2999 H 290.566 -3.61235 1.50416 0
M  V30 3000 H 290.189 -3.97225 -0.172666 0
M  V30 3001 N 291.186 -0.45159 -1.50991 0
M  V30 3002 C 292.136 0.370861 -2.24964 0
M  V30 3003 C 293.12 0.978074 -1.2776 0
M  V30 3004 O 294.312 0.893854 -1.52772 0
M  V30 3005 C 291.441 1.46344 -3.10545 0
M  V30 3006 C 290.527 0.864924 -4.15187 0
M  V30 3007 N 290.918 -0.00311354 -5.058 0
M  V30 3008 C 289.216 1.13099 -4.31422 0
M  V30 3009 C 289.917 -0.340772 -5.80701 0
M  V30 3010 N 288.893 0.279203 -5.42883 0
M  V30 3011 H 292.695 -0.298134 -2.92384 0
M  V30 3012 H 290.209 -0.264528 -1.60231 0
M  V30 3013 H 292.206 2.06565 -3.62128 0
M  V30 3014 H 290.866 2.13463 -2.4467 0
M  V30 3015 H 291.877 -0.37058 -5.16572 0
M  V30 3016 H 288.554 1.79861 -3.76771 0
M  V30 3017 H 289.944 -1.048 -6.63677 0
M  V30 3018 N 292.664 1.56529 -0.183458 0
M  V30 3019 C 293.597 2.14417 0.781052 0
M  V30 3020 C 294.575 1.07761 1.21763 0
M  V30 3021 O 295.759 1.35807 1.30724 0
M  V30 3022 C 292.886 2.69361 2.05335 0
M  V30 3023 C 291.932 3.885 1.75982 0
M  V30 3024 S 292.765 5.27568 0.918256 0
M  V30 3025 C 293.921 5.85926 2.20095 0
M  V30 3026 H 294.154 2.95893 0.2889 0
M  V30 3027 H 291.687 1.54368 0.0313844 0
M  V30 3028 H 293.645 3.01662 2.78406 0
M  V30 3029 H 292.306 1.87949 2.51663 0
M  V30 3030 H 291.499 4.25314 2.70415 0
M  V30 3031 H 291.101 3.57149 1.10999 0
M  V30 3032 H 293.393 5.99579 3.15453 0
M  V30 3033 H 294.336 6.82761 1.87731 0
M  V30 3034 H 294.744 5.14438 2.32409 0
M  V30 3035 N 294.142 -0.090211 1.57342 0
M  V30 3036 C 295.419 -0.824761 1.77361 0
M  V30 3037 C 295.799 -1.96698 0.76637 0
M  V30 3038 O 295.147 -2.27586 -0.204179 0
M  V30 3039 C 295.357 -1.31481 3.23286 0
M  V30 3040 C 296.705 -1.75563 3.86604 0
M  V30 3041 O 297.729 -1.41093 3.27065 0
M  V30 3042 O 296.588 -2.39317 4.91314 0
M  V30 3043 H 293.682 -0.393776 0.727234 0
M  V30 3044 H 296.228 -0.0717138 1.69548 0
M  V30 3045 H 295 -0.496671 3.88135 0
M  V30 3046 H 294.623 -2.12973 3.35751 0
M  V30 3047 N 295.62 -1.53406 -0.361157 0
M  V30 3048 C 296.848 -1.73717 -1.12383 0
M  V30 3049 C 297.263 -0.468161 -1.82904 0
M  V30 3050 O 296.62 0.559198 -1.73722 0
M  V30 3051 C 296.671 -2.90558 -2.15078 0
M  V30 3052 O 296.392 -4.12549 -1.47428 0
M  V30 3053 C 297.893 -3.22777 -3.03858 0
M  V30 3054 H 295.113 -0.580896 -0.335858 0
M  V30 3055 H 297.657 -2.00167 -0.418728 0
M  V30 3056 H 295.812 -2.66489 -2.8118 0
M  V30 3057 H 296.226 -4.78009 -2.15887 0
M  V30 3058 H 297.7 -4.07927 -3.71887 0
M  V30 3059 H 298.177 -2.38329 -3.68912 0
M  V30 3060 H 298.783 -3.48787 -2.43367 0
M  V30 3061 N 297.098 0.621204 -1.44841 0
M  V30 3062 C 298.328 1.40548 -1.51426 0
M  V30 3063 C 298.736 1.88673 -0.141083 0
M  V30 3064 O 298.079 1.62053 0.865128 0
M  V30 3065 C 298.141 2.65325 -2.42576 0
M  V30 3066 C 297.805 2.3893 -3.89566 0
M  V30 3067 C 298.802 2.00138 -4.79834 0
M  V30 3068 C 296.487 2.52263 -4.3436 0
M  V30 3069 C 298.481 1.75021 -6.129 0
M  V30 3070 C 296.168 2.2676 -5.67471 0
M  V30 3071 C 297.166 1.88199 -6.56559 0
M  V30 3072 O 296.854 1.62986 -7.87204 0
M  V30 3073 H 296.586 0.437122 -0.515655 0
M  V30 3074 H 299.14 0.765987 -1.90583 0
M  V30 3075 H 297.37 3.31947 -1.98364 0
M  V30 3076 H 299.059 3.27347 -2.39998 0
M  V30 3077 H 299.825 1.89386 -4.46495 0
M  V30 3078 H 295.704 2.81246 -3.65269 0
M  V30 3079 H 299.248 1.44848 -6.82396 0
M  V30 3080 H 295.145 2.37125 -6.00368 0
M  V30 3081 H 295.913 1.7715 -7.991 0
M  V30 3082 N 298.576 1.31904 0.862503 0
M  V30 3083 C 299.486 1.22161 2.00285 0
M  V30 3084 C 300.502 0.136785 1.73462 0
M  V30 3085 O 301.678 0.355994 1.98229 0
M  V30 3086 C 298.743 0.937093 3.33796 0
M  V30 3087 C 297.804 2.10957 3.73893 0
M  V30 3088 C 297.037 1.83853 5.01033 0
M  V30 3089 O 297.26 0.777274 5.65079 0
M  V30 3090 O 296.194 2.69741 5.38074 0
M  V30 3091 H 300.02 2.18008 2.11439 0
M  V30 3092 H 297.605 1.11716 0.991957 0
M  V30 3093 H 299.487 0.794583 4.13841 0
M  V30 3094 H 298.162 0.00871894 3.23699 0
M  V30 3095 H 297.069 2.30752 2.94456 0
M  V30 3096 H 298.402 3.02046 3.88625 0
M  V30 3097 N 300.054 -1.07777 1.14986 0
M  V30 3098 C 301.302 -1.79934 0.920235 0
M  V30 3099 C 301.623 -1.86955 -0.554336 0
M  V30 3100 O 300.893 -1.36731 -1.40291 0
M  V30 3101 H 299.473 -0.666424 0.337473 0
M  V30 3102 H 302.135 -1.3027 1.44968 0
M  V30 3103 H 301.231 -2.82539 1.32583 0
M  V30 3104 N 301.532 -0.945985 -1.26051 0
M  V30 3105 C 302.809 -0.513816 -1.88731 0
M  V30 3106 C 303.189 1.00872 -1.8544 0
M  V30 3107 O 302.537 1.8708 -1.312 0
M  V30 3108 C 302.747 -1.08062 -3.31849 0
M  V30 3109 C 304.095 -1.1522 -4.08668 0
M  V30 3110 O 305.119 -1.03155 -3.40936 0
M  V30 3111 O 303.978 -1.34044 -5.29806 0
M  V30 3112 H 301.072 -0.168193 -0.809716 0
M  V30 3113 H 303.618 -1.03886 -1.34186 0
M  V30 3114 H 302.39 -2.1241 -3.2863 0
M  V30 3115 H 302.013 -0.538307 -3.93939 0
M  V30 3116 N 303.011 1.40521 -0.713556 0
M  V30 3117 C 304.258 2.00923 -0.25219 0
M  V30 3118 C 304.586 1.56571 1.15395 0
M  V30 3119 O 303.841 0.775874 1.79663 0
M  V30 3120 C 304.14 3.56317 -0.278 0
M  V30 3121 C 303.806 4.20246 -1.63415 0
M  V30 3122 C 302.468 4.37422 -2.00538 0
M  V30 3123 C 304.82 4.55923 -2.52554 0
M  V30 3124 C 302.148 4.87558 -3.2635 0
M  V30 3125 C 304.5 5.07458 -3.77716 0
M  V30 3126 C 303.164 5.22843 -4.14959 0
M  V30 3127 H 302.434 0.735231 -0.0922829 0
M  V30 3128 H 305.081 1.68161 -0.916188 0
M  V30 3129 H 303.386 3.88976 0.469567 0
M  V30 3130 H 305.083 4.00883 0.0967819 0
M  V30 3131 H 301.673 4.07263 -1.33546 0
M  V30 3132 H 305.857 4.42291 -2.25149 0
M  V30 3133 H 301.113 4.97654 -3.55176 0
M  V30 3134 H 305.287 5.34041 -4.4696 0
M  V30 3135 H 302.914 5.61454 -5.12516 0
M  V30 3136 N 304.489 0.459591 1.5075 0
M  V30 3137 C 305.399 -0.34613 2.32033 0
M  V30 3138 C 306.415 -1.00686 1.41909 0
M  V30 3139 O 307.591 -0.997361 1.7497 0
M  V30 3140 C 304.656 -1.42029 3.16273 0
M  V30 3141 C 303.717 -0.777362 4.22203 0
M  V30 3142 C 302.95 -1.80034 5.02418 0
M  V30 3143 O 303.173 -3.02544 4.83553 0
M  V30 3144 O 302.107 -1.37853 5.85901 0
M  V30 3145 H 305.933 0.318054 3.0203 0
M  V30 3146 H 303.518 0.221663 1.47746 0
M  V30 3147 H 305.4 -2.04275 3.68578 0
M  V30 3148 H 304.075 -2.06815 2.49016 0
M  V30 3149 H 302.982 -0.116256 3.73919 0
M  V30 3150 H 304.315 -0.172634 4.91897 0
M  V30 3151 N 305.967 -1.56429 0.191757 0
M  V30 3152 C 306.914 -2.18936 -0.730454 0
M  V30 3153 C 307.884 -1.13557 -1.21219 0
M  V30 3154 O 309.069 -1.41794 -1.27668 0
M  V30 3155 C 306.209 -2.85013 -1.9458 0
M  V30 3156 C 305.322 -4.04909 -1.50574 0
M  V30 3157 C 304.457 -4.58853 -2.67634 0
M  V30 3158 C 303.496 -5.71114 -2.20217 0
M  V30 3159 N 302.633 -6.19478 -3.30442 0
M  V30 3160 H 307.473 -2.97389 -0.190664 0
M  V30 3161 H 305.01 -1.46869 -0.0823694 0
M  V30 3162 H 306.968 -3.21492 -2.65893 0
M  V30 3163 H 305.598 -2.09129 -2.45896 0
M  V30 3164 H 304.65 -3.74115 -0.688605 0
M  V30 3165 H 305.962 -4.86113 -1.11784 0
M  V30 3166 H 305.116 -4.97619 -3.47074 0
M  V30 3167 H 303.855 -3.76749 -3.09696 0
M  V30 3168 H 302.86 -5.31879 -1.3923 0
M  V30 3169 H 304.085 -6.55033 -1.79189 0
M  V30 3170 H 302.031 -5.40297 -3.72041 0
M  V30 3171 H 301.948 -6.95725 -2.9581 0
M  V30 3172 H 303.216 -6.62898 -4.10106 0
M  V30 3173 N 307.445 0.0818655 -1.57387 0
M  V30 3174 C 308.378 1.12986 -1.98266 0
M  V30 3175 C 309.356 1.38123 -0.857954 0
M  V30 3176 O 310.54 1.51663 -1.1194 0
M  V30 3177 C 307.667 2.47632 -2.31076 0
M  V30 3178 C 306.713 2.38693 -3.53452 0
M  V30 3179 S 307.546 1.79071 -5.04672 0
M  V30 3180 C 308.702 3.15316 -5.40673 0
M  V30 3181 H 308.935 0.781435 -2.86846 0
M  V30 3182 H 306.468 0.290034 -1.51651 0
M  V30 3183 H 308.426 3.25089 -2.50654 0
M  V30 3184 H 307.087 2.79638 -1.43043 0
M  V30 3185 H 306.28 3.37964 -3.73893 0
M  V30 3186 H 305.882 1.69369 -3.33452 0
M  V30 3187 H 308.174 4.11613 -5.38127 0
M  V30 3188 H 309.117 2.99664 -6.41566 0
M  V30 3189 H 309.525 3.15457 -4.68132 0
M  V30 3190 N 308.923 1.53595 0.353017 0
M  V30 3191 C 309.87 1.80919 1.43308 0
M  V30 3192 C 310.84 0.654288 1.5267 0
M  V30 3193 O 312.025 0.897759 1.6836 0
M  V30 3194 C 309.165 2.01605 2.80089 0
M  V30 3195 C 308.278 3.29321 2.79593 0
M  V30 3196 C 307.413 3.40125 4.0803 0
M  V30 3197 C 306.452 4.61826 4.01725 0
M  V30 3198 N 305.589 4.69716 5.21834 0
M  V30 3199 H 310.429 2.73074 1.19308 0
M  V30 3200 H 307.966 1.35263 0.578131 0
M  V30 3201 H 309.924 2.11586 3.59565 0
M  V30 3202 H 308.554 1.12772 3.0246 0
M  V30 3203 H 307.606 3.28229 1.92276 0
M  V30 3204 H 308.918 4.18884 2.70809 0
M  V30 3205 H 308.072 3.49488 4.95927 0
M  V30 3206 H 306.811 2.48601 4.19582 0
M  V30 3207 H 305.816 4.52552 3.12213 0
M  V30 3208 H 307.041 5.54705 3.91764 0
M  V30 3209 H 304.987 3.81097 5.33948 0
M  V30 3210 H 304.904 5.53202 5.1527 0
M  V30 3211 H 306.172 4.83376 6.11529 0
M  V30 3212 N 310.401 -0.613514 1.45168 0
M  V30 3213 C 311.364 -1.7065 1.53007 0
M  V30 3214 C 312.364 -1.5548 0.410184 0
M  V30 3215 O 313.554 -1.60656 0.673455 0
M  V30 3216 C 310.686 -3.09875 1.42093 0
M  V30 3217 H 311.879 -1.65068 2.50385 0
M  V30 3218 H 309.432 -0.828728 1.32521 0
M  V30 3219 H 310.167 -3.21039 0.458769 0
M  V30 3220 H 309.952 -3.22293 2.23315 0
M  V30 3221 H 311.442 -3.895 1.50598 0
M  V30 3222 N 311.879 -1.3236 -0.855495 0
M  V30 3223 C 313.107 -1.2587 -1.64208 0
M  V30 3224 C 313.522 0.173457 -1.88002 0
M  V30 3225 O 312.879 1.11027 -1.44842 0
M  V30 3226 C 312.93 -2.01424 -3.00184 0
M  V30 3227 O 312.651 -3.39051 -2.77445 0
M  V30 3228 C 314.152 -2.01948 -3.94629 0
M  V30 3229 H 311.372 -0.434318 -0.511477 0
M  V30 3230 H 313.916 -1.74469 -1.0668 0
M  V30 3231 H 312.071 -1.56549 -3.5436 0
M  V30 3232 H 312.485 -3.77711 -3.63916 0
M  V30 3233 H 313.959 -2.59297 -4.87308 0
M  V30 3234 H 314.436 -1.00554 -4.27534 0
M  V30 3235 H 315.042 -2.46767 -3.4639 0
M  V30 3236 N 313.357 1.07166 -1.15556 0
M  V30 3237 C 314.587 1.83248 -0.954133 0
M  V30 3238 C 314.995 1.82449 0.500911 0
M  V30 3239 O 314.338 1.23575 1.35923 0
M  V30 3240 C 314.4 3.31393 -1.39351 0
M  V30 3241 C 314.064 3.5591 -2.86666 0
M  V30 3242 C 315.061 3.49695 -3.8472 0
M  V30 3243 C 312.746 3.83515 -3.24379 0
M  V30 3244 C 314.74 3.70737 -5.18491 0
M  V30 3245 C 312.427 4.04209 -4.58321 0
M  V30 3246 C 313.425 3.97815 -5.55186 0
M  V30 3247 O 313.113 4.17954 -6.86709 0
M  V30 3248 H 312.845 0.584941 -0.338851 0
M  V30 3249 H 315.399 1.36169 -1.53777 0
M  V30 3250 H 313.629 3.79292 -0.75329 0
M  V30 3251 H 315.318 3.88945 -1.16089 0
M  V30 3252 H 316.084 3.28368 -3.56931 0
M  V30 3253 H 311.963 3.87605 -2.49567 0
M  V30 3254 H 315.507 3.65663 -5.94085 0
M  V30 3255 H 311.404 4.25023 -4.85825 0
M  V30 3256 H 312.172 4.35291 -6.93155 0
M  V30 3257 N 314.835 0.952656 1.25548 0
M  V30 3258 C 316.081 0.607272 1.93494 0
M  V30 3259 C 316.414 -0.853245 1.74452 0
M  V30 3260 O 315.689 -1.61194 1.08843 0
M  V30 3261 C 315.972 0.96435 3.46947 0
M  V30 3262 C 315.825 2.48045 3.75225 0
M  V30 3263 C 317.144 0.487987 4.37386 0
M  V30 3264 H 314.263 0.222096 0.702739 0
M  V30 3265 H 316.905 1.18895 1.48203 0
M  V30 3266 H 315.055 0.469361 3.85654 0
M  V30 3267 H 316.727 3.04905 3.46166 0
M  V30 3268 H 314.97 2.919 3.209 0
M  V30 3269 H 315.641 2.6808 4.82532 0
M  V30 3270 H 318.117 0.912558 4.0597 0
M  V30 3271 H 316.993 0.766547 5.43521 0
M  V30 3272 H 317.254 -0.612063 4.37843 0
M  V30 3273 N 316.313 -1.40141 0.720998 0
M  V30 3274 C 317.26 -2.30688 0.071919 0
M  V30 3275 C 318.23 -1.48476 -0.744584 0
M  V30 3276 O 319.415 -1.77201 -0.707423 0
M  V30 3277 C 316.555 -3.34724 -0.839855 0
M  V30 3278 C 315.668 -4.31998 -0.0122438 0
M  V30 3279 C 314.803 -5.23102 -0.923995 0
M  V30 3280 C 313.842 -6.12033 -0.0907969 0
M  V30 3281 N 312.979 -6.95537 -0.957718 0
M  V30 3282 H 317.819 -2.85628 0.849755 0
M  V30 3283 H 315.356 -1.40653 0.430726 0
M  V30 3284 H 317.314 -3.93618 -1.38279 0
M  V30 3285 H 315.944 -2.81274 -1.58381 0
M  V30 3286 H 314.996 -3.74841 0.64794 0
M  V30 3287 H 316.308 -4.94772 0.632595 0
M  V30 3288 H 315.462 -5.86953 -1.53527 0
M  V30 3289 H 314.201 -4.60615 -1.60264 0
M  V30 3290 H 313.206 -5.47207 0.533377 0
M  V30 3291 H 314.431 -6.76581 0.584428 0
M  V30 3292 H 312.377 -6.35633 -1.62192 0
M  V30 3293 H 312.294 -7.55099 -0.36904 0
M  V30 3294 H 313.562 -7.63832 -1.555 0
M  V30 3295 N 317.792 -0.46758 -1.50504 0
M  V30 3296 C 319.039 0.0886219 -2.02306 0
M  V30 3297 C 319.367 1.40037 -1.34981 0
M  V30 3298 O 318.622 1.90136 -0.463318 0
M  V30 3299 C 318.921 0.323995 -3.55928 0
M  V30 3300 C 318.587 -0.905618 -4.41712 0
M  V30 3301 C 317.249 -1.24275 -4.64875 0
M  V30 3302 C 319.601 -1.72448 -4.91845 0
M  V30 3303 C 316.929 -2.39888 -5.35417 0
M  V30 3304 C 319.281 -2.87185 -5.63656 0
M  V30 3305 C 317.945 -3.21317 -5.85074 0
M  V30 3306 H 317.215 0.0324291 -0.74029 0
M  V30 3307 H 319.862 -0.620945 -1.81153 0
M  V30 3308 H 318.167 1.11577 -3.75577 0
M  V30 3309 H 319.864 0.76826 -3.93572 0
M  V30 3310 H 316.454 -0.632956 -4.239 0
M  V30 3311 H 320.638 -1.4772 -4.73806 0
M  V30 3312 H 315.894 -2.66611 -5.50208 0
M  V30 3313 H 320.068 -3.50985 -6.01484 0
M  V30 3314 H 317.695 -4.1101 -6.39511 0
M  V30 3315 N 319.27 1.56325 -0.20005 0
M  V30 3316 C 320.2 2.22318 0.713916 0
M  V30 3317 C 321.181 1.18788 1.21752 0
M  V30 3318 O 322.366 1.47309 1.26545 0
M  V30 3319 C 319.496 2.88639 1.93144 0
M  V30 3320 C 318.45 3.98457 1.56255 0
M  V30 3321 C 317.776 4.51967 2.85709 0
M  V30 3322 C 319.076 5.16612 0.768747 0
M  V30 3323 H 320.77 2.98952 0.163755 0
M  V30 3324 H 318.316 1.43792 0.0773219 0
M  V30 3325 H 320.269 3.33491 2.57608 0
M  V30 3326 H 318.993 2.09419 2.50621 0
M  V30 3327 H 317.652 3.54305 0.941471 0
M  V30 3328 H 317.3 3.69503 3.41287 0
M  V30 3329 H 317 5.26071 2.6177 0
M  V30 3330 H 318.524 4.99523 3.51154 0
M  V30 3331 H 319.938 5.57977 1.3166 0
M  V30 3332 H 318.335 5.96812 0.627286 0
M  V30 3333 H 319.405 4.84358 -0.229168 0
M  V30 3334 N 320.748 -0.0735177 1.57428 0
M  V30 3335 C 321.698 -1.09442 2.00016 0
M  V30 3336 C 322.682 -1.34575 0.881947 0
M  V30 3337 O 323.874 -1.34905 1.14585 0
M  V30 3338 C 321.003 -2.40865 2.4462 0
M  V30 3339 C 320.089 -2.19014 3.63172 0
M  V30 3340 N 320.48 -1.67087 4.77405 0
M  V30 3341 C 318.778 -2.49494 3.69688 0
M  V30 3342 C 319.479 -1.6001 5.5926 0
M  V30 3343 N 318.455 -2.05999 5.03056 0
M  V30 3344 H 322.257 -0.686227 2.85776 0
M  V30 3345 H 319.771 -0.280617 1.59957 0
M  V30 3346 H 321.768 -3.14763 2.73368 0
M  V30 3347 H 320.428 -2.82403 1.60246 0
M  V30 3348 H 321.439 -1.35975 4.99731 0
M  V30 3349 H 318.116 -2.94409 2.96023 0
M  V30 3350 H 319.506 -1.2073 6.60964 0
M  V30 3351 N 322.226 -1.5378 -0.344866 0
M  V30 3352 C 323.174 -1.82373 -1.4437 0
M  V30 3353 C 324.168 -0.694128 -1.54526 0
M  V30 3354 O 325.374 -0.877442 -1.57165 0
M  V30 3355 H 321.749 -0.577765 -0.481344 0
M  V30 3356 H 323.72 -2.74306 -1.17468 0
M  V30 3357 C 322.469 -2.04898 -2.80913 0
M  V30 3358 H 321.792 -2.9127 -2.73865 0
M  V30 3359 H 323.232 -2.28871 -3.56923 0
M  V30 3360 C 321.691 -0.834116 -3.26411 0
M  V30 3361 O 322.221 -0.0328885 -4.01687 0
M  V30 3362 N 320.427 -0.65171 -2.83198 0
M  V30 3363 H 319.974 -1.30489 -2.22104 0
M  V30 3364 H 319.932 0.159686 -3.13994 0
M  V30 3365 N 323.704 0.605807 -1.45491 0
M  V30 3366 C 324.634 1.72709 -1.57143 0
M  V30 3367 C 325.615 1.6476 -0.422884 0
M  V30 3368 O 326.8 1.83132 -0.646247 0
M  V30 3369 C 323.93 3.11316 -1.53948 0
M  V30 3370 C 322.884 3.34077 -2.67537 0
M  V30 3371 C 322.21 4.72975 -2.49397 0
M  V30 3372 C 323.51 3.24158 -4.09535 0
M  V30 3373 H 325.204 1.63214 -2.51001 0
M  V30 3374 H 322.75 0.78379 -1.208 0
M  V30 3375 H 324.703 3.89557 -1.60696 0
M  V30 3376 H 323.427 3.21655 -0.566205 0
M  V30 3377 H 322.086 2.58227 -2.6022 0
M  V30 3378 H 321.734 4.8005 -1.50205 0
M  V30 3379 H 321.434 4.8916 -3.25571 0
M  V30 3380 H 322.958 5.53414 -2.58002 0
M  V30 3381 H 324.372 3.92271 -4.18086 0
M  V30 3382 H 322.769 3.51872 -4.86113 0
M  V30 3383 H 323.839 2.2157 -4.31317 0
M  V30 3384 N 325.182 1.32811 0.848464 0
M  V30 3385 C 326.593 1.21315 1.41914 0
M  V30 3386 C 326.944 -0.171847 1.95446 0
M  V30 3387 O 326.069 -1.07093 1.88043 0
M  V30 3388 C 326.664 2.19631 2.57968 0
M  V30 3389 C 325.223 2.12003 3.11017 0
M  V30 3390 C 324.37 2.07651 1.83783 0
M  V30 3391 H 327.321 1.44549 0.655071 0
M  V30 3392 H 327.342 1.79845 3.35315 0
M  V30 3393 H 326.854 3.20423 2.18976 0
M  V30 3394 H 324.955 1.14481 3.54577 0
M  V30 3395 H 325.068 3.02111 3.71841 0
M  V30 3396 H 323.432 1.52983 2.03638 0
M  V30 3397 H 324.215 3.10235 1.47 0
M  V30 3398 N 326.66 -1.06551 1.16123 0
M  V30 3399 C 327.907 -1.79302 0.941126 0
M  V30 3400 C 328.235 -1.87105 -0.531235 0
M  V30 3401 O 327.49 -1.35692 -1.41018 0
M  V30 3402 C 327.789 -3.23911 1.51052 0
M  V30 3403 C 327.455 -3.36193 3.00475 0
M  V30 3404 C 326.117 -3.39252 3.41265 0
M  V30 3405 C 328.469 -3.38326 3.96465 0
M  V30 3406 C 325.797 -3.42057 4.76669 0
M  V30 3407 C 328.149 -3.4267 5.31752 0
M  V30 3408 C 326.813 -3.4401 5.72026 0
M  V30 3409 H 326.083 -0.656111 0.344382 0
M  V30 3410 H 328.73 -1.25325 1.44796 0
M  V30 3411 H 327.035 -3.80723 0.925063 0
M  V30 3412 H 328.732 -3.78793 1.31593 0
M  V30 3413 H 325.322 -3.34516 2.6795 0
M  V30 3414 H 329.506 -3.35176 3.6602 0
M  V30 3415 H 324.762 -3.41398 5.07206 0
M  V30 3416 H 328.936 -3.43268 6.05921 0
M  V30 3417 H 326.563 -3.45937 6.76928 0
M  V30 3418 N 328.138 -0.959301 -1.25041 0
M  V30 3419 C 329.368 -0.63303 -1.96663 0
M  V30 3420 C 329.776 0.800031 -1.71453 0
M  V30 3421 O 329.119 1.54736 -0.99008 0
M  V30 3422 C 329.181 -0.817523 -3.50081 0
M  V30 3423 C 328.845 -2.22863 -3.98975 0
M  V30 3424 C 329.842 -3.20569 -4.09306 0
M  V30 3425 C 327.527 -2.55407 -4.32519 0
M  V30 3426 C 329.521 -4.4891 -4.52503 0
M  V30 3427 C 327.208 -3.83976 -4.754 0
M  V30 3428 C 328.206 -4.8054 -4.85356 0
M  V30 3429 O 327.894 -6.06817 -5.27284 0
M  V30 3430 H 327.626 -0.235866 -0.633516 0
M  V30 3431 H 330.18 -1.2874 -1.60047 0
M  V30 3432 H 328.41 -0.105992 -3.86555 0
M  V30 3433 H 330.099 -0.491604 -4.02912 0
M  V30 3434 H 330.865 -2.96753 -3.83618 0
M  V30 3435 H 326.744 -1.8097 -4.23994 0
M  V30 3436 H 330.288 -5.24283 -4.60188 0
M  V30 3437 H 326.185 -4.07596 -5.00535 0
M  V30 3438 H 326.953 -6.10262 -5.45457 0
M  V30 3439 N 329.616 1.39756 -0.72842 0
M  V30 3440 C 330.864 2.00248 -0.272946 0
M  V30 3441 C 331.185 1.58077 1.14178 0
M  V30 3442 O 330.455 0.826014 1.77634 0
M  V30 3443 H 329.035 0.740554 -0.0979247 0
M  V30 3444 H 331.697 1.70903 -0.936912 0
M  V30 3445 H 330.793 3.10495 -0.316142 0
M  V30 3446 N 331.094 0.475555 1.50254 0
M  V30 3447 C 332.024 -0.30611 2.31485 0
M  V30 3448 C 333.005 -0.986228 1.38591 0
M  V30 3449 O 334.19 -0.982541 1.67511 0
M  V30 3450 C 331.32 -1.38588 3.1845 0
M  V30 3451 C 330.274 -0.827115 4.19932 0
M  V30 3452 C 329.6 -2.00551 4.95665 0
M  V30 3453 C 330.9 0.16463 5.2204 0
M  V30 3454 H 332.594 0.371866 2.97082 0
M  V30 3455 H 330.14 0.180282 1.42867 0
M  V30 3456 H 332.093 -1.94023 3.74076 0
M  V30 3457 H 330.817 -2.09269 2.50747 0
M  V30 3458 H 329.476 -0.294702 3.65414 0
M  V30 3459 H 329.124 -2.6994 4.2443 0
M  V30 3460 H 328.824 -1.63784 5.64313 0
M  V30 3461 H 330.348 -2.56468 5.54127 0
M  V30 3462 H 331.762 -0.300699 5.72511 0
M  V30 3463 H 330.159 0.446813 5.98434 0
M  V30 3464 H 331.229 1.08905 4.72512 0
M  V30 3465 N 332.573 -1.56217 0.208337 0
M  V30 3466 C 333.536 -2.18455 -0.693557 0
M  V30 3467 C 334.536 -1.14268 -1.13135 0
M  V30 3468 O 335.726 -1.39577 -1.0423 0
M  V30 3469 C 332.858 -2.79727 -1.94848 0
M  V30 3470 H 334.051 -2.99519 -0.15114 0
M  V30 3471 H 331.604 -1.56245 -0.041287 0
M  V30 3472 H 332.339 -2.02497 -2.53309 0
M  V30 3473 H 332.124 -3.56009 -1.64316 0
M  V30 3474 H 333.614 -3.27475 -2.59133 0
M  V30 3475 N 334.051 0.0651679 -1.57465 0
M  V30 3476 C 335.297 0.764193 -1.87851 0
M  V30 3477 C 335.63 1.76889 -0.801495 0
M  V30 3478 O 334.905 1.93594 0.187528 0
M  V30 3479 C 335.188 1.46625 -3.28897 0
M  V30 3480 C 335.041 0.477515 -4.47258 0
M  V30 3481 C 336.36 2.4095 -3.68281 0
M  V30 3482 H 333.479 0.276351 -0.683227 0
M  V30 3483 H 336.121 0.0272868 -1.8998 0
M  V30 3484 H 334.271 2.09438 -3.27212 0
M  V30 3485 H 335.943 -0.145922 -4.61069 0
M  V30 3486 H 334.186 -0.206576 -4.33308 0
M  V30 3487 H 334.857 1.0065 -5.42746 0
M  V30 3488 H 337.333 1.88209 -3.71102 0
M  V30 3489 H 336.209 2.87072 -4.67847 0
M  V30 3490 H 336.47 3.26049 -2.98571 0
M  V30 3491 N 335.529 1.53961 0.336706 0
M  V30 3492 C 336.462 1.77255 1.43722 0
M  V30 3493 C 337.44 0.62193 1.50236 0
M  V30 3494 O 338.624 0.857874 1.67847 0
M  V30 3495 C 335.751 1.87733 2.81912 0
M  V30 3496 C 334.797 3.09933 2.92991 0
M  V30 3497 S 335.63 4.68836 2.58753 0
M  V30 3498 C 336.786 4.82202 3.99039 0
M  V30 3499 H 337.019 2.70322 1.23748 0
M  V30 3500 H 334.552 1.44917 0.532777 0
M  V30 3501 H 336.51 1.94455 3.61521 0
M  V30 3502 H 335.171 0.956666 2.99177 0
M  V30 3503 H 334.364 3.1396 3.94265 0
M  V30 3504 H 333.966 3.01472 2.21338 0
M  V30 3505 H 336.258 4.64032 4.9364 0
M  V30 3506 H 337.201 5.84298 4.00002 0
M  V30 3507 H 337.609 4.10604 3.87382 0
M  V30 3508 N 337.007 -0.598083 1.45811 0
M  V30 3509 C 338.247 -1.36802 1.5187 0
M  V30 3510 C 338.611 -1.9133 0.160224 0
M  V30 3511 O 339.812 -2.6863 0.0955302 0
M  V30 3512 C 338.083 -2.47835 2.57513 0
M  V30 3513 S 339.642 -3.35458 2.82866 0
M  V30 3514 H 336.46 -0.466278 0.536755 0
M  V30 3515 H 339.062 -0.689152 1.82951 0
M  V30 3516 H 337.766 -2.06141 3.54872 0
M  V30 3517 H 337.297 -3.20512 2.28114 0
M  V30 3518 H 339.312 -4.46251 2.16967 0
M  V30 3519 N 338.485 -1.33259 -0.841409 0
M  V30 3520 C 339.448 -1.23221 -1.9326 0
M  V30 3521 C 340.448 -0.151895 -1.60081 0
M  V30 3522 O 341.638 -0.403246 -1.69468 0
M  V30 3523 C 338.77 -0.898123 -3.28856 0
M  V30 3524 H 339.963 -2.2021 -2.03587 0
M  V30 3525 H 337.516 -1.17281 -1.03319 0
M  V30 3526 H 338.251 0.0693841 -3.24226 0
M  V30 3527 H 338.036 -1.67934 -3.54317 0
M  V30 3528 H 339.526 -0.852563 -4.08805 0
M  V30 3529 N 339.963 1.05934 -1.16686 0
M  V30 3530 C 341.24 1.75643 -0.860747 0
M  V30 3531 C 341.62 2.01144 0.640641 0
M  V30 3532 O 340.968 1.64147 1.58959 0
M  V30 3533 C 341.178 3.05493 -1.68745 0
M  V30 3534 C 342.526 3.79581 -1.90271 0
M  V30 3535 O 343.55 3.15344 -1.65641 0
M  V30 3536 O 342.409 4.9499 -2.31618 0
M  V30 3537 H 339.503 0.763426 -0.317977 0
M  V30 3538 H 342.049 1.1217 -1.27342 0
M  V30 3539 H 340.821 2.8264 -2.70611 0
M  V30 3540 H 340.444 3.76702 -1.27206 0
M  V30 3541 N 341.441 0.965919 1.2453 0
M  V30 3542 C 342.718 0.543777 1.87889 0
M  V30 3543 C 343.098 -0.97909 1.87021 0
M  V30 3544 O 342.446 -1.84969 1.3416 0
M  V30 3545 C 342.656 1.13327 3.30088 0
M  V30 3546 C 344.004 1.21707 4.06783 0
M  V30 3547 O 345.028 1.08566 3.39252 0
M  V30 3548 O 343.887 1.42456 5.27606 0
M  V30 3549 H 340.981 0.181054 0.806938 0
M  V30 3550 H 343.527 1.06007 1.32516 0
M  V30 3551 H 342.299 2.17612 3.25209 0
M  V30 3552 H 341.922 0.600911 3.93033 0
M  V30 3553 N 342.919 -1.39368 0.735821 0
M  V30 3554 C 344.33 -1.83313 0.354015 0
M  V30 3555 C 344.681 -1.61461 -1.11466 0
M  V30 3556 O 343.806 -1.10621 -1.85989 0
M  V30 3557 C 344.401 -3.32781 0.635769 0
M  V30 3558 C 342.96 -3.75142 0.307448 0
M  V30 3559 C 342.107 -2.62358 0.897974 0
M  V30 3560 H 345.058 -1.28349 0.933398 0
M  V30 3561 H 345.079 -3.80388 -0.0921773 0
M  V30 3562 H 344.591 -3.48654 1.70476 0
M  V30 3563 H 342.692 -3.64857 -0.755674 0
M  V30 3564 H 342.805 -4.72532 0.790583 0
M  V30 3565 H 341.169 -2.52624 0.324551 0
M  V30 3566 H 341.952 -2.81036 1.97164 0
M  V30 3567 N 344.397 -0.483516 -1.5 0
M  V30 3568 C 345.643 0.0672592 -2.02688 0
M  V30 3569 C 345.976 1.38247 -1.36387 0
M  V30 3570 O 345.251 1.88131 -0.493675 0
M  V30 3571 C 345.534 0.238109 -3.59312 0
M  V30 3572 C 345.387 -1.099 -4.36168 0
M  V30 3573 C 346.706 0.986916 -4.28892 0
M  V30 3574 H 343.825 0.0229696 -0.736642 0
M  V30 3575 H 346.467 -0.631527 -1.79197 0
M  V30 3576 H 344.617 0.8333 -3.79458 0
M  V30 3577 H 346.289 -1.73172 -4.27562 0
M  V30 3578 H 344.532 -1.69261 -3.99416 0
M  V30 3579 H 345.203 -0.932954 -5.44059 0
M  V30 3580 H 347.679 0.482302 -4.13295 0
M  V30 3581 H 346.555 1.07527 -5.38265 0
M  V30 3582 H 346.816 2.0265 -3.92919 0
M  V30 3583 N 345.875 1.56104 -0.216619 0
M  V30 3584 C 346.805 2.23063 0.690296 0
M  V30 3585 C 347.786 1.20072 1.20485 0
M  V30 3586 O 348.971 1.48643 1.24976 0
M  V30 3587 C 346.101 2.90672 1.90072 0
M  V30 3588 C 345.055 4.00092 1.5202 0
M  V30 3589 C 344.381 4.54972 2.80899 0
M  V30 3590 C 345.681 5.17398 0.71391 0
M  V30 3591 H 347.375 2.99109 0.132038 0
M  V30 3592 H 344.921 1.43866 0.0620664 0
M  V30 3593 H 346.874 3.36204 2.54057 0
M  V30 3594 H 345.598 2.12066 2.48386 0
M  V30 3595 H 344.257 3.55283 0.903839 0
M  V30 3596 H 343.905 3.73102 3.37348 0
M  V30 3597 H 343.605 5.28817 2.56176 0
M  V30 3598 H 345.129 5.0322 3.45836 0
M  V30 3599 H 346.543 5.59342 1.25735 0
M  V30 3600 H 344.94 5.97444 0.563951 0
M  V30 3601 H 346.01 4.84088 -0.280527 0
M  V30 3602 N 347.353 -0.0568162 1.57498 0
M  V30 3603 C 348.286 -1.09817 2.00039 0
M  V30 3604 C 349.264 -1.3674 0.879819 0
M  V30 3605 O 350.448 -1.49863 1.14338 0
M  V30 3606 C 347.575 -2.43924 2.34986 0
M  V30 3607 C 346.621 -2.33039 3.57204 0
M  V30 3608 S 347.454 -1.7102 5.07457 0
M  V30 3609 C 348.61 -3.06674 5.45621 0
M  V30 3610 H 348.843 -0.735701 2.88053 0
M  V30 3611 H 346.376 -0.265871 1.52094 0
M  V30 3612 H 348.334 -3.2106 2.55795 0
M  V30 3613 H 346.995 -2.77327 1.47474 0
M  V30 3614 H 346.188 -3.31973 3.79223 0
M  V30 3615 H 345.79 -1.64043 3.36104 0
M  V30 3616 H 348.082 -4.03 5.44608 0
M  V30 3617 H 349.025 -2.8942 6.46252 0
M  V30 3618 H 349.433 -3.07969 4.73091 0
M  V30 3619 N 348.832 -1.54138 -0.328536 0
M  V30 3620 C 349.742 -1.86192 -1.42723 0
M  V30 3621 C 350.758 -0.753382 -1.56844 0
M  V30 3622 O 351.934 -1.04718 -1.72035 0
M  V30 3623 C 348.999 -2.07824 -2.77507 0
M  V30 3624 C 348.06 -3.31641 -2.72603 0
M  V30 3625 C 347.293 -3.52232 -4.00959 0
M  V30 3626 O 347.516 -2.7636 -4.9898 0
M  V30 3627 O 346.45 -4.45699 -4.0452 0
M  V30 3628 H 350.276 -2.79608 -1.18547 0
M  V30 3629 H 347.861 -1.3998 -0.522104 0
M  V30 3630 H 349.743 -2.23411 -3.57303 0
M  V30 3631 H 348.418 -1.17596 -3.01584 0
M  V30 3632 H 347.325 -3.21444 -1.91376 0
M  V30 3633 H 348.658 -4.2191 -2.53481 0
M  V30 3634 N 350.31 0.590341 -1.46126 0
M  V30 3635 C 351.24 1.71032 -1.58966 0
M  V30 3636 C 352.221 1.64302 -0.440335 0
M  V30 3637 O 353.406 1.82436 -0.665634 0
M  V30 3638 C 350.536 3.09665 -1.57241 0
M  V30 3639 C 349.49 3.31221 -2.71066 0
M  V30 3640 C 348.816 4.70303 -2.54399 0
M  V30 3641 C 350.116 3.19796 -4.1295 0
M  V30 3642 H 351.81 1.60543 -2.52718 0
M  V30 3643 H 349.356 0.770933 -1.21625 0
M  V30 3644 H 351.309 3.87831 -1.64819 0
M  V30 3645 H 350.033 3.21036 -0.600289 0
M  V30 3646 H 348.692 2.55452 -2.62944 0
M  V30 3647 H 348.34 4.78429 -1.55288 0
M  V30 3648 H 348.04 4.85679 -3.30741 0
M  V30 3649 H 349.564 5.50647 -2.63857 0
M  V30 3650 H 350.978 3.87815 -4.22223 0
M  V30 3651 H 349.375 3.46696 -4.89818 0
M  V30 3652 H 350.445 2.16983 -4.33643 0
M  V30 3653 N 351.788 1.33704 0.83433 0
M  V30 3654 C 353.034 1.25603 1.59222 0
M  V30 3655 C 353.367 -0.176659 1.93395 0
M  V30 3656 O 352.642 -1.11915 1.59076 0
M  V30 3657 C 352.925 2.13576 2.89926 0
M  V30 3658 C 352.778 3.65326 2.62406 0
M  V30 3659 C 354.097 2.01238 3.91397 0
M  V30 3660 H 351.216 0.457613 0.577719 0
M  V30 3661 H 353.858 1.63848 0.961972 0
M  V30 3662 H 352.008 1.8109 3.43713 0
M  V30 3663 H 353.68 4.08124 2.15017 0
M  V30 3664 H 351.923 3.8698 1.96033 0
M  V30 3665 H 352.594 4.22232 3.55562 0
M  V30 3666 H 355.07 2.29738 3.46929 0
M  V30 3667 H 353.946 2.65036 4.80673 0
M  V30 3668 H 354.207 0.985951 4.30966 0
M  V30 3669 N 353.266 -1.05314 1.17247 0
M  V30 3670 C 354.677 -1.59753 0.96623 0
M  V30 3671 C 355.028 -1.9005 -0.487378 0
M  V30 3672 O 354.153 -1.68126 -1.36245 0
M  V30 3673 C 354.748 -2.90249 1.74759 0
M  V30 3674 C 353.307 -3.41352 1.58606 0
M  V30 3675 C 352.454 -2.15103 1.75002 0
M  V30 3676 H 355.405 -0.881406 1.31973 0
M  V30 3677 H 355.426 -3.60097 1.22925 0
M  V30 3678 H 354.938 -2.68166 2.8055 0
M  V30 3679 H 353.039 -3.68474 0.552985 0
M  V30 3680 H 353.152 -4.16019 2.37624 0
M  V30 3681 H 351.516 -2.25804 1.17833 0
M  V30 3682 H 352.299 -1.95491 2.82202 0
M  V30 3683 N 354.744 -0.972509 -1.24016 0
M  V30 3684 C 355.691 -0.505969 -2.25186 0
M  V30 3685 C 356.661 0.451009 -1.5986 0
M  V30 3686 O 357.846 0.360307 -1.87367 0
M  V30 3687 C 354.986 0.193089 -3.44559 0
M  V30 3688 C 354.099 -0.803222 -4.24467 0
M  V30 3689 C 353.234 -0.0797793 -5.3114 0
M  V30 3690 C 352.273 -1.06583 -6.02749 0
M  V30 3691 N 351.41 -0.372074 -7.01113 0
M  V30 3692 H 356.25 -1.37351 -2.64459 0
M  V30 3693 H 353.787 -0.688419 -1.29997 0
M  V30 3694 H 355.745 0.615125 -4.1264 0
M  V30 3695 H 354.375 1.02455 -3.06109 0
M  V30 3696 H 353.427 -1.34368 -3.55878 0
M  V30 3697 H 354.739 -1.55494 -4.73944 0
M  V30 3698 H 353.893 0.400015 -6.0538 0
M  V30 3699 H 352.632 0.704597 -4.82583 0
M  V30 3700 H 351.637 -1.55645 -5.27309 0
M  V30 3701 H 352.862 -1.85074 -6.53395 0
M  V30 3702 H 350.808 0.393238 -6.5482 0
M  V30 3703 H 350.725 -1.06258 -7.48495 0
M  V30 3704 H 351.993 0.0855932 -7.79453 0
M  V30 3705 N 356.222 1.38976 -0.743202 0
M  V30 3706 C 357.468 2.0064 -0.295189 0
M  V30 3707 C 357.801 1.5885 1.11716 0
M  V30 3708 O 357.076 0.821181 1.76315 0
M  V30 3709 C 357.359 3.578 -0.406318 0
M  V30 3710 C 357.212 4.09586 -1.85903 0
M  V30 3711 C 358.531 4.39616 0.206439 0
M  V30 3712 H 355.65 0.728935 -0.108733 0
M  V30 3713 H 358.292 1.65067 -0.940897 0
M  V30 3714 H 356.442 3.88235 0.143419 0
M  V30 3715 H 358.114 3.89837 -2.46627 0
M  V30 3716 H 356.357 3.6284 -2.3776 0
M  V30 3717 H 357.028 5.18708 -1.888 0
M  V30 3718 H 359.504 4.15273 -0.262283 0
M  V30 3719 H 358.38 5.48812 0.0983819 0
M  V30 3720 H 358.641 4.22754 1.2935 0
M  V30 3721 N 357.7 0.491464 1.49741 0
M  V30 3722 C 358.948 -0.0563141 2.02022 0
M  V30 3723 C 359.269 -1.38363 1.37407 0
M  V30 3724 O 358.539 -1.88702 0.526166 0
M  V30 3725 H 357.119 -0.0238014 0.746621 0
M  V30 3726 H 359.781 0.646533 1.83864 0
M  V30 3727 H 358.877 -0.192967 3.11503 0
M  V30 3728 N 359.178 -1.55987 0.224894 0
M  V30 3729 C 360.594 -1.59066 -0.130426 0
M  V30 3730 C 360.794 -1.24176 -1.5869 0
M  V30 3731 O 359.85 -0.978592 -2.32766 0
M  V30 3732 C 361.163 -3.00042 0.198883 0
M  V30 3733 C 362.711 -3.1268 0.141391 0
M  V30 3734 C 363.186 -4.55839 0.444422 0
M  V30 3735 N 364.677 -4.6152 0.394115 0
M  V30 3736 C 365.412 -5.70231 0.602038 0
M  V30 3737 N 364.908 -6.87291 0.871914 0
M  V30 3738 N 366.701 -5.59555 0.534245 0
M  V30 3739 H 358.852 -1.76941 1.17497 0
M  V30 3740 H 361.115 -0.822604 0.471197 0
M  V30 3741 H 360.821 -3.30234 1.2099 0
M  V30 3742 H 360.695 -3.74075 -0.484535 0
M  V30 3743 H 363.082 -2.82283 -0.860265 0
M  V30 3744 H 363.163 -2.40969 0.858335 0
M  V30 3745 H 362.807 -4.86954 1.44353 0
M  V30 3746 H 362.737 -5.2578 -0.293752 0
M  V30 3747 H 365.228 -3.77405 0.193356 0
M  V30 3748 H 365.541 -7.66058 1.01858 0
M  V30 3749 H 363.886 -6.89028 0.909145 0
M  V30 3750 H 367.077 -4.6698 0.323612 0
M  V30 3751 H 367.25 -6.44211 0.699693 0
M  V30 3752 N 360.656 0.0484629 -1.57525 0
M  V30 3753 C 361.588 1.08222 -2.02041 0
M  V30 3754 C 362.601 1.33621 -0.930012 0
M  V30 3755 O 363.79 1.3145 -1.20761 0
M  V30 3756 C 360.89 2.42818 -2.36416 0
M  V30 3757 C 360.063 2.37049 -3.67596 0
M  V30 3758 C 359.122 3.53937 -3.89378 0
M  V30 3759 O 358.148 3.34308 -4.60681 0
M  V30 3760 N 359.35 4.75126 -3.3352 0
M  V30 3761 H 362.115 0.702946 -2.9134 0
M  V30 3762 H 359.676 0.236745 -1.6016 0
M  V30 3763 H 361.668 3.197 -2.48141 0
M  V30 3764 H 360.238 2.72661 -1.52888 0
M  V30 3765 H 359.458 1.45395 -3.66407 0
M  V30 3766 H 360.746 2.30318 -4.53686 0
M  V30 3767 H 360.144 4.93976 -2.75688 0
M  V30 3768 H 358.701 5.49439 -3.50656 0
M  V30 3769 N 362.134 1.5431 0.320358 0
M  V30 3770 C 363.38 1.72924 1.05949 0
M  V30 3771 C 363.713 0.503185 1.87568 0
M  V30 3772 O 362.988 -0.499839 1.87968 0
M  V30 3773 C 363.271 3.00676 1.98156 0
M  V30 3774 C 363.124 4.3354 1.19845 0
M  V30 3775 C 364.443 3.24198 2.9763 0
M  V30 3776 H 361.562 0.629195 0.383774 0
M  V30 3777 H 364.204 1.87008 0.335854 0
M  V30 3778 H 362.354 2.888 2.59859 0
M  V30 3779 H 364.026 4.57305 0.605773 0
M  V30 3780 H 362.269 4.309 0.500784 0
M  V30 3781 H 362.94 5.19156 1.87567 0
M  V30 3782 H 365.416 3.35557 2.4605 0
M  V30 3783 H 364.292 4.14938 3.59329 0
M  V30 3784 H 364.553 2.41577 3.7026 0
M  V30 3785 N 363.613 -0.582584 1.46437 0
M  V30 3786 C 364.862 -1.337 1.5102 0
M  V30 3787 C 365.175 -1.94891 0.166359 0
M  V30 3788 O 366.381 -2.71351 0.0899954 0
M  V30 3789 C 364.837 -2.42315 2.66104 0
M  V30 3790 C 364.445 -1.87427 4.06909 0
M  V30 3791 C 366.189 -3.19099 2.79958 0
M  V30 3792 C 364.096 -2.93672 5.13333 0
M  V30 3793 H 363.026 -0.502619 0.562041 0
M  V30 3794 H 365.677 -0.621701 1.72647 0
M  V30 3795 H 364.059 -3.16645 2.37807 0
M  V30 3796 H 365.233 -1.19639 4.44998 0
M  V30 3797 H 363.548 -1.2331 3.97723 0
M  V30 3798 H 366.145 -3.9839 3.56636 0
M  V30 3799 H 366.488 -3.71695 1.87479 0
M  V30 3800 H 367.021 -2.51875 3.07902 0
M  V30 3801 H 363.76 -2.45962 6.07604 0
M  V30 3802 H 363.28 -3.59948 4.79789 0
M  V30 3803 H 364.959 -3.5762 5.39182 0
M  V30 3804 N 365.091 -1.34144 -0.827227 0
M  V30 3805 C 366.319 -1.29325 -1.61501 0
M  V30 3806 C 366.734 0.13354 -1.88327 0
M  V30 3807 O 366.091 1.0793 -1.47164 0
M  V30 3808 C 366.142 -2.07746 -2.95844 0
M  V30 3809 O 365.863 -3.4486 -2.70191 0
M  V30 3810 C 367.364 -2.10273 -3.90256 0
M  V30 3811 H 364.584 -0.445069 -0.50215 0
M  V30 3812 H 367.128 -1.76693 -1.02955 0
M  V30 3813 H 365.283 -1.6403 -3.5096 0
M  V30 3814 H 365.697 -3.85345 -3.55822 0
M  V30 3815 H 367.171 -2.69575 -4.81698 0
M  V30 3816 H 367.648 -1.096 -4.25305 0
M  V30 3817 H 368.254 -2.54059 -3.41078 0
M  V30 3818 N 366.569 1.04691 -1.17803 0
M  V30 3819 C 367.799 1.81183 -0.992788 0
M  V30 3820 C 368.207 1.8347 0.462098 0
M  V30 3821 O 367.55 1.2643 1.33271 0
M  V30 3822 C 367.612 3.28363 -1.46349 0
M  V30 3823 C 367.276 3.49749 -2.94151 0
M  V30 3824 C 368.273 3.41456 -3.92051 0
M  V30 3825 C 365.958 3.76548 -3.32441 0
M  V30 3826 C 367.952 3.59656 -5.26238 0
M  V30 3827 C 365.639 3.94396 -4.66792 0
M  V30 3828 C 366.637 3.8595 -5.635 0
M  V30 3829 O 366.325 4.03294 -6.9542 0
M  V30 3830 H 366.057 0.577622 -0.351182 0
M  V30 3831 H 368.611 1.32876 -1.5663 0
M  V30 3832 H 366.841 3.77609 -0.833574 0
M  V30 3833 H 368.53 3.86395 -1.24313 0
M  V30 3834 H 369.296 3.20723 -3.63815 0
M  V30 3835 H 365.175 3.82224 -2.57732 0
M  V30 3836 H 368.719 3.52979 -6.01707 0
M  V30 3837 H 364.616 4.14622 -4.94731 0
M  V30 3838 H 365.384 4.2049 -7.02232 0
M  V30 3839 N 368.047 0.979072 1.23499 0
M  V30 3840 C 369.295 0.645941 1.91499 0
M  V30 3841 C 369.616 -0.822948 1.76784 0
M  V30 3842 O 368.886 -1.58854 1.14639 0
M  V30 3843 H 367.466 0.235919 0.708767 0
M  V30 3844 H 370.128 1.2426 1.50152 0
M  V30 3845 H 369.224 0.896411 2.9895 0
M  V30 3846 N 369.525 -1.3858 0.750561 0
M  V30 3847 C 370.772 -2.00184 0.305373 0
M  V30 3848 C 371.1 -1.59575 -1.11203 0
M  V30 3849 O 370.355 -0.823236 -1.77542 0
M  V30 3850 C 370.654 -3.55455 0.372373 0
M  V30 3851 C 370.32 -4.15765 1.745 0
M  V30 3852 C 368.982 -4.31951 2.12065 0
M  V30 3853 C 371.334 -4.49067 2.64553 0
M  V30 3854 C 368.662 -4.78734 3.39162 0
M  V30 3855 C 371.014 -4.97265 3.91038 0
M  V30 3856 C 369.678 -5.11658 4.28676 0
M  V30 3857 H 368.948 -0.732526 0.111744 0
M  V30 3858 H 371.595 -1.65673 0.960451 0
M  V30 3859 H 369.9 -3.90084 -0.366272 0
M  V30 3860 H 371.597 -4.00999 0.00953918 0
M  V30 3861 H 368.187 -4.03579 1.44297 0
M  V30 3862 H 372.371 -4.36166 2.36796 0
M  V30 3863 H 367.627 -4.88062 3.68246 0
M  V30 3864 H 371.801 -5.22003 4.60962 0
M  V30 3865 H 369.428 -5.47668 5.27222 0
M  V30 3866 N 371.003 -0.499398 -1.49478 0
M  V30 3867 C 372.228 0.044722 -2.07352 0
M  V30 3868 C 372.653 1.30207 -1.35749 0
M  V30 3869 O 372.011 1.76516 -0.413732 0
M  V30 3870 C 372.059 0.283013 -3.59488 0
M  V30 3871 O 371.163 1.35804 -3.89398 0
M  V30 3872 H 370.504 -0.0255147 -0.66351 0
M  V30 3873 H 373.034 -0.698561 -1.92305 0
M  V30 3874 H 373.044 0.515007 -4.04737 0
M  V30 3875 H 371.719 -0.635636 -4.11014 0
M  V30 3876 H 370.296 1.11113 -3.55961 0
M  V30 3877 N 372.481 1.55866 -0.233164 0
M  V30 3878 C 373.391 2.24431 0.683217 0
M  V30 3879 C 374.407 1.2558 1.2044 0
M  V30 3880 O 375.583 1.58422 1.24356 0
M  V30 3881 C 372.648 2.91979 1.86947 0
M  V30 3882 C 371.709 4.06204 1.38912 0
M  V30 3883 C 370.942 4.70522 2.51883 0
M  V30 3884 O 371.165 4.33865 3.70293 0
M  V30 3885 O 370.099 5.59296 2.22423 0
M  V30 3886 H 373.925 3.03426 0.129059 0
M  V30 3887 H 371.51 1.494 -0.0022283 0
M  V30 3888 H 373.392 3.34573 2.56201 0
M  V30 3889 H 372.067 2.15935 2.41151 0
M  V30 3890 H 370.974 3.68155 0.664259 0
M  V30 3891 H 372.307 4.84025 0.893328 0
M  V30 3892 N 373.959 -0.0401083 1.57549 0
M  V30 3893 C 374.891 -1.07149 2.02612 0
M  V30 3894 C 375.904 -1.33126 0.937085 0
M  V30 3895 O 377.093 -1.30808 1.21456 0
M  V30 3896 C 374.193 -2.41561 2.37701 0
M  V30 3897 C 373.366 -2.35096 3.68848 0
M  V30 3898 C 372.425 -3.51867 3.91249 0
M  V30 3899 O 371.451 -3.3186 4.62447 0
M  V30 3900 N 372.653 -4.73351 3.36035 0
M  V30 3901 H 375.418 -0.687485 2.91708 0
M  V30 3902 H 372.979 -0.228248 1.60283 0
M  V30 3903 H 374.971 -3.18379 2.49833 0
M  V30 3904 H 373.541 -2.71846 1.54332 0
M  V30 3905 H 372.761 -1.4345 3.67173 0
M  V30 3906 H 374.049 -2.27908 4.54901 0
M  V30 3907 H 373.447 -4.92507 2.78304 0
M  V30 3908 H 372.004 -5.47572 3.53565 0
M  V30 3909 N 375.437 -1.54477 -0.31217 0
M  V30 3910 C 376.4 -1.83923 -1.36766 0
M  V30 3911 C 377.4 -0.711563 -1.44199 0
M  V30 3912 O 378.59 -0.979866 -1.44029 0
M  V30 3913 C 375.722 -2.0095 -2.75376 0
M  V30 3914 H 376.915 -2.78239 -1.11906 0
M  V30 3915 H 374.468 -1.46369 -0.548257 0
M  V30 3916 H 375.203 -1.08883 -3.05475 0
M  V30 3917 H 374.988 -2.83018 -2.71373 0
M  V30 3918 H 376.478 -2.2514 -3.51713 0
M  V30 3919 N 376.915 0.57481 -1.46744 0
M  V30 3920 C 378.192 1.3352 -1.4294 0
M  V30 3921 C 378.572 2.10775 -0.117009 0
M  V30 3922 O 377.92 2.09966 0.901474 0
M  V30 3923 C 378.13 2.25456 -2.66403 0
M  V30 3924 C 379.478 2.87035 -3.12883 0
M  V30 3925 O 380.502 2.35766 -2.67007 0
M  V30 3926 O 379.361 3.80179 -3.92589 0
M  V30 3927 H 376.455 0.600318 -0.568812 0
M  V30 3928 H 379.001 0.595171 -1.58921 0
M  V30 3929 H 377.773 1.67851 -3.53471 0
M  V30 3930 H 377.396 3.06785 -2.52921 0
M  V30 3931 N 378.394 1.34581 0.820102 0
M  V30 3932 C 379.624 1.29991 1.6058 0
M  V30 3933 C 380.032 -0.127588 1.88769 0
M  V30 3934 O 379.375 -1.08595 1.48165 0
M  V30 3935 C 379.437 2.02548 2.9701 0
M  V30 3936 C 379.101 3.51794 2.91701 0
M  V30 3937 C 380.098 4.46647 2.66087 0
M  V30 3938 C 377.783 3.94249 3.11245 0
M  V30 3939 C 379.777 5.81929 2.60071 0
M  V30 3940 C 377.464 5.2963 3.04853 0
M  V30 3941 C 378.462 6.23282 2.793 0
M  V30 3942 O 378.15 7.56181 2.72847 0
M  V30 3943 H 377.882 0.448539 0.505756 0
M  V30 3944 H 380.436 1.77811 1.02822 0
M  V30 3945 H 378.666 1.49345 3.56697 0
M  V30 3946 H 380.355 1.91211 3.58041 0
M  V30 3947 H 381.121 4.15168 2.5072 0
M  V30 3948 H 377 3.21749 3.30149 0
M  V30 3949 H 380.544 6.54999 2.40046 0
M  V30 3950 H 376.441 5.60727 3.19774 0
M  V30 3951 H 377.209 7.6595 2.88553 0
M  V30 3952 N 379.872 -1.04064 1.18357 0
M  V30 3953 C 381.288 -1.2947 0.933258 0
M  V30 3954 C 381.488 -1.97466 -0.401169 0
M  V30 3955 O 380.544 -2.25528 -1.13549 0
M  V30 3956 C 381.857 -2.15337 2.09882 0
M  V30 3957 C 383.405 -2.28683 2.13712 0
M  V30 3958 C 383.88 -3.17917 3.29686 0
M  V30 3959 N 385.371 -3.25504 3.29547 0
M  V30 3960 C 386.106 -3.94706 4.15926 0
M  V30 3961 N 385.602 -4.66239 5.12439 0
M  V30 3962 N 387.395 -3.90986 4.0384 0
M  V30 3963 H 379.546 -0.583359 2.04232 0
M  V30 3964 H 381.809 -0.319921 0.892387 0
M  V30 3965 H 381.515 -1.72682 3.06389 0
M  V30 3966 H 381.389 -3.16015 2.05947 0
M  V30 3967 H 383.776 -2.70575 1.17784 0
M  V30 3968 H 383.857 -1.27596 2.21705 0
M  V30 3969 H 383.501 -2.76736 4.25887 0
M  V30 3970 H 383.431 -4.19036 3.1893 0
M  V30 3971 H 385.922 -2.74547 2.59677 0
M  V30 3972 H 386.235 -5.16638 5.74722 0
M  V30 3973 H 384.58 -4.65143 5.16398 0
M  V30 3974 H 387.771 -3.34234 3.27727 0
M  V30 3975 H 387.944 -4.44646 4.71375 0
M  V30 3976 N 381.35 -0.985608 -1.22978 0
M  V30 3977 C 382.599 -0.652881 -1.90841 0
M  V30 3978 C 382.912 0.817842 -1.77681 0
M  V30 3979 O 384.118 1.26185 -2.40395 0
M  V30 3980 C 382.574 -1.11717 -3.42122 0
M  V30 3981 C 382.182 -2.6126 -3.63933 0
M  V30 3982 C 383.926 -0.85843 -4.1573 0
M  V30 3983 C 381.833 -3.0133 -5.08876 0
M  V30 3984 H 380.763 -0.240491 -0.714619 0
M  V30 3985 H 383.414 -1.1942 -1.39324 0
M  V30 3986 H 381.796 -0.504027 -3.92779 0
M  V30 3987 H 382.97 -3.27858 -3.23799 0
M  V30 3988 H 381.285 -2.84937 -3.03644 0
M  V30 3989 H 383.882 -1.13359 -5.22546 0
M  V30 3990 H 384.225 0.205461 -4.15793 0
M  V30 3991 H 384.758 -1.43341 -3.71077 0
M  V30 3992 H 381.497 -4.06864 -5.13947 0
M  V30 3993 H 381.017 -2.3943 -5.49939 0
M  V30 3994 H 382.696 -2.92224 -5.77247 0
M  V30 3995 N 382.828 1.3818 -0.7579 0
M  V30 3996 C 383.738 2.3421 -0.135247 0
M  V30 3997 C 384.754 1.59487 0.695683 0
M  V30 3998 O 385.93 1.91657 0.618832 0
M  V30 3999 C 382.995 3.3862 0.744139 0
M  V30 4000 C 382.056 4.2918 -0.101658 0
M  V30 4001 C 381.289 5.28603 0.735851 0
M  V30 4002 O 381.512 5.35166 1.97366 0
M  V30 4003 O 380.446 6.01707 0.152372 0
M  V30 4004 H 384.272 2.8916 -0.928436 0
M  V30 4005 H 381.857 1.40101 -0.518855 0
M  V30 4006 H 383.739 4.02539 1.2466 0
M  V30 4007 H 382.414 2.86019 1.51575 0
M  V30 4008 H 381.321 3.68407 -0.650167 0
M  V30 4009 H 382.654 4.85048 -0.836024 0
M  V30 4010 N 384.306 0.507319 1.49211 0
M  V30 4011 C 385.583 -0.0982702 1.95353 0
M  V30 4012 C 385.963 -1.53516 1.449 0
M  V30 4013 O 385.311 -2.18594 0.66551 0
M  V30 4014 C 385.521 -0.00440283 3.49 0
M  V30 4015 C 386.869 -0.175147 4.24239 0
M  V30 4016 O 387.893 -0.0792891 3.56112 0
M  V30 4017 O 386.752 -0.37276 5.45227 0
M  V30 4018 H 383.846 -0.0918236 0.821887 0
M  V30 4019 H 386.392 0.570307 1.5983 0
M  V30 4020 H 385.164 0.997402 3.78375 0
M  V30 4021 H 384.787 -0.712845 3.91158 0
M  V30 4022 N 385.784 -1.5574 0.241426 0
M  V30 4023 C 387.014 -2.02913 -0.38857 0
M  V30 4024 C 387.422 -1.12014 -1.52478 0
M  V30 4025 O 386.765 -0.125903 -1.83268 0
M  V30 4026 C 386.827 -3.4636 -0.963075 0
M  V30 4027 C 386.491 -4.56982 0.0401916 0
M  V30 4028 C 387.488 -5.12941 0.847766 0
M  V30 4029 C 385.173 -5.0203 0.164699 0
M  V30 4030 C 387.167 -6.12437 1.76636 0
M  V30 4031 C 384.854 -6.01358 1.0868 0
M  V30 4032 C 385.852 -6.5644 1.88616 0
M  V30 4033 O 385.54 -7.53831 2.79273 0
M  V30 4034 H 385.272 -0.668983 -0.0971452 0
M  V30 4035 H 387.826 -2.02198 0.361248 0
M  V30 4036 H 386.056 -3.44206 -1.76235 0
M  V30 4037 H 387.745 -3.77065 -1.50257 0
M  V30 4038 H 388.511 -4.78974 0.762133 0
M  V30 4039 H 384.39 -4.58824 -0.447411 0
M  V30 4040 H 387.934 -6.55355 2.39071 0
M  V30 4041 H 383.831 -6.34746 1.17338 0
M  V30 4042 H 384.599 -7.71428 2.73572 0
M  V30 4043 N 387.262 0.0317525 -1.57568 0
M  V30 4044 C 388.172 1.05021 -2.0978 0
M  V30 4045 C 389.188 1.39809 -1.03583 0
M  V30 4046 O 390.364 1.49182 -1.35302 0
M  V30 4047 C 387.429 2.33301 -2.56459 0
M  V30 4048 C 386.49 2.0512 -3.77127 0
M  V30 4049 C 385.723 3.27283 -4.2157 0
M  V30 4050 O 385.946 4.37861 -3.65559 0
M  V30 4051 O 384.88 3.13141 -5.14029 0
M  V30 4052 H 388.706 0.636505 -2.96955 0
M  V30 4053 H 386.291 0.248559 -1.47318 0
M  V30 4054 H 388.173 3.08722 -2.86825 0
M  V30 4055 H 386.848 2.73973 -1.72397 0
M  V30 4056 H 385.755 1.27276 -3.51784 0
M  V30 4057 H 387.088 1.69305 -4.62165 0
M  V30 4058 N 388.74 1.54641 0.303973 0
M  V30 4059 C 389.672 1.81754 1.39636 0
M  V30 4060 C 390.685 0.70035 1.46966 0
M  V30 4061 O 391.874 0.97778 1.49338 0
M  V30 4062 C 388.974 1.93785 2.7803 0
M  V30 4063 C 388.147 3.24156 2.93669 0
M  V30 4064 C 387.206 3.26641 4.12544 0
M  V30 4065 O 386.232 4.00187 4.04771 0
M  V30 4066 N 387.434 2.5182 5.23036 0
M  V30 4067 H 390.199 2.76031 1.16734 0
M  V30 4068 H 387.76 1.54178 0.494033 0
M  V30 4069 H 389.752 1.92852 3.55795 0
M  V30 4070 H 388.322 1.06515 2.93893 0
M  V30 4071 H 387.542 3.37887 2.03042 0
M  V30 4072 H 388.83 4.10195 3.01027 0
M  V30 4073 H 388.228 1.91692 5.32232 0
M  V30 4074 H 386.785 2.56644 5.99147 0
M  V30 4075 N 390.218 -0.567019 1.47046 0
M  V30 4076 C 391.446 -1.35027 1.56765 0
M  V30 4077 C 391.861 -1.8758 0.214316 0
M  V30 4078 O 391.218 -1.64471 -0.790919 0
M  V30 4079 C 391.269 -2.52698 2.58507 0
M  V30 4080 O 390.99 -2.0232 3.88585 0
M  V30 4081 C 392.491 -3.45043 2.78316 0
M  V30 4082 H 389.711 -0.41195 0.529658 0
M  V30 4083 H 392.255 -0.687832 1.92585 0
M  V30 4084 H 390.41 -3.149 2.25648 0
M  V30 4085 H 390.824 -2.79068 4.44096 0
M  V30 4086 H 392.298 -4.2405 3.53391 0
M  V30 4087 H 392.775 -3.97971 1.85784 0
M  V30 4088 H 393.381 -2.88665 3.12334 0
M  V30 4089 N 391.696 -1.35014 -0.812953 0
M  V30 4090 C 392.944 -1.27678 -1.56661 0
M  V30 4091 C 393.265 0.150359 -1.94419 0
M  V30 4092 O 392.535 1.08532 -1.63088 0
M  V30 4093 H 391.115 -0.469602 -0.580933 0
M  V30 4094 H 393.777 -1.69043 -0.970076 0
M  V30 4095 H 392.873 -1.88833 -2.48492 0
M  V30 4096 N 393.175 1.03435 -1.18907 0
M  V30 4097 C 394.422 1.76743 -0.988334 0
M  V30 4098 C 394.75 1.88447 0.481441 0
M  V30 4099 O 394.005 1.39383 1.37371 0
M  V30 4100 C 394.304 3.19792 -1.59586 0
M  V30 4101 C 393.97 3.28108 -3.09283 0
M  V30 4102 C 392.632 3.30084 -3.5014 0
M  V30 4103 C 394.984 3.27696 -4.05296 0
M  V30 4104 C 392.312 3.29299 -4.85571 0
M  V30 4105 C 394.664 3.28451 -5.4065 0
M  V30 4106 C 393.328 3.28723 -5.80946 0
M  V30 4107 H 392.598 0.64675 -0.361657 0
M  V30 4108 H 395.245 1.21442 -1.48068 0
M  V30 4109 H 393.55 3.78136 -1.02568 0
M  V30 4110 H 395.247 3.75171 -1.41589 0
M  V30 4111 H 391.837 3.27294 -2.76725 0
M  V30 4112 H 396.021 3.25354 -3.74778 0
M  V30 4113 H 391.277 3.2783 -5.16079 0
M  V30 4114 H 395.451 3.27082 -6.14809 0
M  V30 4115 H 393.078 3.27868 -6.85862 0
M  V30 4116 N 394.653 0.992116 1.22453 0
M  V30 4117 C 395.585 0.500024 2.23679 0
M  V30 4118 C 396.598 -0.404463 1.57696 0
M  V30 4119 O 397.787 -0.206722 1.77299 0
M  V30 4120 C 394.887 -0.294711 3.37616 0
M  V30 4121 C 394.06 0.605723 4.33186 0
M  V30 4122 C 393.119 -0.13717 5.26021 0
M  V30 4123 O 392.145 0.477164 5.67196 0
M  V30 4124 N 393.347 -1.4197 5.62872 0
M  V30 4125 H 396.112 1.37045 2.66531 0
M  V30 4126 H 393.673 0.866741 1.36745 0
M  V30 4127 H 395.665 -0.800329 3.96707 0
M  V30 4128 H 394.235 -1.06623 2.93854 0
M  V30 4129 H 393.455 1.29202 3.72425 0
M  V30 4130 H 394.743 1.21896 4.93983 0
M  V30 4131 H 394.141 -1.94015 5.31389 0
M  V30 4132 H 392.698 -1.87052 6.24383 0
M  V30 4133 N 396.131 -1.37776 0.765217 0
M  V30 4134 C 397.379 -1.99454 0.325943 0
M  V30 4135 C 397.7 -1.61049 -1.09947 0
M  V30 4136 O 396.97 -0.872821 -1.75381 0
M  V30 4137 H 395.55 -0.737697 0.117525 0
M  V30 4138 H 398.212 -1.68359 0.981895 0
M  V30 4139 H 397.308 -3.09547 0.398353 0
M  V30 4140 N 397.609 -0.515225 -1.4894 0
M  V30 4141 C 398.559 0.275113 -2.26334 0
M  V30 4142 C 399.543 0.923007 -1.31793 0
M  V30 4143 O 400.735 0.828254 -1.56426 0
M  V30 4144 C 397.864 1.33041 -3.16473 0
M  V30 4145 C 396.95 0.688051 -4.18481 0
M  V30 4146 N 397.341 -0.217638 -5.05332 0
M  V30 4147 C 395.639 0.94699 -4.3583 0
M  V30 4148 C 396.34 -0.58676 -5.78733 0
M  V30 4149 N 395.316 0.0486966 -5.43578 0
M  V30 4150 H 399.118 -0.421876 -2.90856 0
M  V30 4151 H 396.632 -0.332249 -1.58965 0
M  V30 4152 H 398.629 1.9102 -3.70563 0
M  V30 4153 H 397.289 2.02894 -2.53504 0
M  V30 4154 H 398.3 -0.589343 -5.14536 0
M  V30 4155 H 394.977 1.63719 -3.8406 0
M  V30 4156 H 396.367 -1.32855 -6.58634 0
M  V30 4157 N 399.087 1.5561 -0.249682 0
M  V30 4158 C 400.317 2.03116 0.377803 0
M  V30 4159 C 400.725 1.12822 1.51881 0
M  V30 4160 O 400.068 0.13562 1.83199 0
M  V30 4161 C 400.13 3.46866 0.944693 0
M  V30 4162 C 399.794 4.56955 -0.0644259 0
M  V30 4163 C 400.791 5.12485 -0.874957 0
M  V30 4164 C 398.476 5.01936 -0.19132 0
M  V30 4165 C 400.47 6.11491 -1.79881 0
M  V30 4166 C 398.157 6.00773 -1.11868 0
M  V30 4167 C 399.155 6.5543 -1.92095 0
M  V30 4168 O 398.843 7.5234 -2.83267 0
M  V30 4169 H 398.575 0.669489 0.0935961 0
M  V30 4170 H 401.129 2.02004 -0.371966 0
M  V30 4171 H 399.359 3.45136 1.74407 0
M  V30 4172 H 401.048 3.77856 1.48255 0
M  V30 4173 H 401.814 4.78564 -0.787523 0
M  V30 4174 H 397.693 4.59055 0.423072 0
M  V30 4175 H 401.237 6.54078 -2.42543 0
M  V30 4176 H 397.134 6.34114 -1.20703 0
M  V30 4177 H 397.902 7.69966 -2.7766 0
M  V30 4178 N 400.565 -0.0233959 1.57583 0
M  V30 4179 C 401.793 -0.724682 1.93794 0
M  V30 4180 C 402.208 -1.68588 0.849912 0
M  V30 4181 O 401.565 -1.81676 -0.173204 0
M  V30 4182 C 401.616 -1.47684 3.29957 0
M  V30 4183 O 401.337 -0.554222 4.3458 0
M  V30 4184 C 402.838 -2.27477 3.80485 0
M  V30 4185 H 400.058 -0.203317 0.639455 0
M  V30 4186 H 402.602 0.0207653 2.04489 0
M  V30 4187 H 400.757 -2.17412 3.20641 0
M  V30 4188 H 401.171 -1.08232 5.13212 0
M  V30 4189 H 402.645 -2.7564 4.78254 0
M  V30 4190 H 403.122 -3.09144 3.11972 0
M  V30 4191 H 403.728 -1.62813 3.92902 0
M  V30 4192 N 402.043 -1.548 -0.295768 0
M  V30 4193 C 403.289 -1.74588 -1.03184 0
M  V30 4194 C 403.622 -0.532962 -1.86744 0
M  V30 4195 O 402.897 0.469872 -1.88739 0
M  V30 4196 C 403.18 -3.03791 -1.93347 0
M  V30 4197 C 403.033 -4.35392 -1.12933 0
M  V30 4198 C 404.352 -3.28892 -2.92435 0
M  V30 4199 H 401.471 -0.635221 -0.373715 0
M  V30 4200 H 404.113 -1.87519 -0.30606 0
M  V30 4201 H 402.263 -2.92898 -2.55232 0
M  V30 4202 H 403.935 -4.58211 -0.532943 0
M  V30 4203 H 402.178 -4.31642 -0.432168 0
M  V30 4204 H 402.849 -5.22074 -1.79284 0
M  V30 4205 H 405.325 -3.39429 -2.4068 0
M  V30 4206 H 404.201 -4.20603 -3.52682 0
M  V30 4207 H 404.462 -2.47437 -3.6637 0
M  V30 4208 N 403.521 0.559213 -1.47345 0
M  V30 4209 C 404.77 1.31281 -1.53128 0
M  V30 4210 C 405.083 1.94602 -0.197344 0
M  V30 4211 O 406.289 2.71173 -0.133154 0
M  V30 4212 C 404.745 2.38051 -2.69925 0
M  V30 4213 C 404.353 1.8093 -4.0984 0
M  V30 4214 C 406.097 3.14604 -2.84999 0
M  V30 4215 C 404.004 2.85468 -5.1794 0
M  V30 4216 H 402.934 0.493614 -0.569966 0
M  V30 4217 H 405.585 0.594155 -1.73615 0
M  V30 4218 H 403.967 3.12822 -2.42814 0
M  V30 4219 H 405.141 1.12544 -4.46845 0
M  V30 4220 H 403.456 1.16967 -3.99634 0
M  V30 4221 H 406.053 3.92666 -3.62929 0
M  V30 4222 H 406.396 3.68665 -1.93369 0
M  V30 4223 H 406.929 2.46945 -3.1187 0
M  V30 4224 H 403.668 2.36264 -6.1144 0
M  V30 4225 H 403.188 3.52269 -4.85455 0
M  V30 4226 H 404.867 3.48996 -5.44803 0
M  V30 4227 N 404.999 1.35443 0.805782 0
M  V30 4228 C 406.239 1.30127 1.57627 0
M  V30 4229 C 406.603 -0.122567 1.91608 0
M  V30 4230 O 407.804 -0.300107 2.67119 0
M  V30 4231 C 406.075 2.18314 2.82973 0
M  V30 4232 S 407.634 2.30521 3.7337 0
M  V30 4233 H 404.452 0.462439 0.540066 0
M  V30 4234 H 407.054 1.70843 0.95042 0
M  V30 4235 H 405.758 3.20741 2.56034 0
M  V30 4236 H 405.289 1.78558 3.50543 0
M  V30 4237 H 407.304 1.49062 4.73281 0
M  V30 4238 N 406.477 -1.02803 1.19454 0
M  V30 4239 C 407.888 -1.57667 0.999899 0
M  V30 4240 C 408.239 -1.91041 -0.446956 0
M  V30 4241 O 407.364 -1.70978 -1.32648 0
M  V30 4242 C 407.959 -2.86477 1.80877 0
M  V30 4243 C 406.518 -3.37911 1.65811 0
M  V30 4244 C 405.665 -2.11343 1.79526 0
M  V30 4245 H 408.616 -0.853214 1.33813 0
M  V30 4246 H 408.637 -3.57408 1.30536 0
M  V30 4247 H 408.149 -2.62155 2.86175 0
M  V30 4248 H 406.25 -3.67218 0.63102 0
M  V30 4249 H 406.363 -4.10885 2.46395 0
M  V30 4250 H 404.727 -2.23254 1.22596 0
M  V30 4251 H 405.51 -1.89461 2.86285 0
M  V30 4252 N 407.956 -0.998596 -1.21925 0
M  V30 4253 C 408.904 -0.546641 -2.26085 0
M  V30 4254 C 409.898 0.405576 -1.64473 0
M  V30 4255 O 411.104 0.277471 -1.77849 0
M  V30 4256 H 407.479 -0.158403 -0.735127 0
M  V30 4257 H 409.45 -1.43645 -2.61551 0
M  V30 4258 C 408.199 0.117388 -3.47502 0
M  V30 4259 H 407.522 -0.606277 -3.95176 0
M  V30 4260 H 408.962 0.396993 -4.22137 0
M  V30 4261 C 407.421 1.35455 -3.0847 0
M  V30 4262 O 407.951 2.44944 -3.18379 0
M  V30 4263 N 406.157 1.23191 -2.63196 0
M  V30 4264 H 405.704 0.341006 -2.55333 0
M  V30 4265 H 405.662 2.06071 -2.37449 0
M  V30 4266 N 409.434 1.37368 -0.772513 0
M  V30 4267 C 410.382 2.32134 -0.147111 0
M  V30 4268 C 411.376 1.54972 0.684106 0
M  V30 4269 O 412.582 1.70363 0.581083 0
M  V30 4270 H 408.957 0.751449 -0.028786 0
M  V30 4271 H 410.928 2.82464 -0.962112 0
M  V30 4272 C 409.677 3.40226 0.71703 0
M  V30 4273 H 409 3.99706 0.0867951 0
M  V30 4274 H 410.44 4.08897 1.12159 0
M  V30 4275 C 408.899 2.80372 1.86797 0
M  V30 4276 O 409.429 2.71183 2.96349 0
M  V30 4277 N 407.635 2.37904 1.66883 0
M  V30 4278 H 407.182 2.45578 0.777759 0
M  V30 4279 H 407.14 1.98202 2.44056 0
M  V30 4280 N 410.912 0.523116 1.48665 0
M  V30 4281 C 411.822 -0.247406 2.33292 0
M  V30 4282 C 412.838 -0.945769 1.46052 0
M  V30 4283 O 414.014 -0.922253 1.79043 0
M  V30 4284 C 411.079 -1.28487 3.22012 0
M  V30 4285 C 410.14 -0.597592 4.2512 0
M  V30 4286 C 409.373 -1.58563 5.09601 0
M  V30 4287 O 409.596 -2.81763 4.95949 0
M  V30 4288 O 408.53 -1.12879 5.91221 0
M  V30 4289 H 412.356 0.445869 3.00409 0
M  V30 4290 H 409.941 0.284128 1.46673 0
M  V30 4291 H 411.823 -1.88459 3.7691 0
M  V30 4292 H 410.498 -1.96068 2.57564 0
M  V30 4293 H 409.405 0.0424407 3.74076 0
M  V30 4294 H 410.738 0.0361517 4.92187 0
M  V30 4295 N 412.39 -1.55475 0.257931 0
M  V30 4296 C 413.806 -1.59307 -0.0966563 0
M  V30 4297 C 414.006 -1.27514 -1.5602 0
M  V30 4298 O 413.062 -1.02774 -2.30637 0
M  V30 4299 C 414.375 -2.99552 0.262481 0
M  V30 4300 C 415.923 -3.1231 0.207683 0
M  V30 4301 C 416.398 -4.54793 0.541012 0
M  V30 4302 N 417.889 -4.6058 0.491921 0
M  V30 4303 C 418.624 -5.68825 0.722857 0
M  V30 4304 N 418.12 -6.85287 1.0175 0
M  V30 4305 N 419.913 -5.58296 0.652815 0
M  V30 4306 H 412.064 -1.74409 1.21224 0
M  V30 4307 H 414.327 -0.812424 0.48854 0
M  V30 4308 H 414.033 -3.27593 1.27967 0
M  V30 4309 H 413.907 -3.75019 -0.40508 0
M  V30 4310 H 416.294 -2.84044 -0.800195 0
M  V30 4311 H 416.375 -2.39095 0.909255 0
M  V30 4312 H 416.019 -4.83783 1.5465 0
M  V30 4313 H 415.949 -5.26285 -0.18216 0
M  V30 4314 H 418.44 -3.7691 0.273366 0
M  V30 4315 H 418.753 -7.63725 1.18084 0
M  V30 4316 H 417.098 -6.86945 1.05509 0
M  V30 4317 H 420.289 -4.66189 0.422592 0
M  V30 4318 H 420.462 -6.42582 0.836182 0
M  V30 4319 N 413.868 0.0150385 -1.57593 0
M  V30 4320 C 415.117 0.702115 -1.89085 0
M  V30 4321 C 415.43 1.75764 -0.858277 0
M  V30 4322 O 416.636 2.49829 -1.0629 0
M  V30 4323 C 415.092 1.29992 -3.35604 0
M  V30 4324 C 414.7 0.280007 -4.47124 0
M  V30 4325 C 416.444 1.96606 -3.76227 0
M  V30 4326 C 414.351 0.886949 -5.84711 0
M  V30 4327 H 413.281 0.265997 -0.705522 0
M  V30 4328 H 415.932 -0.0430408 -1.8345 0
M  V30 4329 H 414.314 2.09525 -3.36029 0
M  V30 4330 H 415.488 -0.489631 -4.58191 0
M  V30 4331 H 413.803 -0.284835 -4.15425 0
M  V30 4332 H 416.4 2.42893 -4.76347 0
M  V30 4333 H 416.743 2.79024 -3.08952 0
M  V30 4334 H 417.276 1.23828 -3.78036 0
M  V30 4335 H 414.015 0.101876 -6.55421 0
M  V30 4336 H 413.535 1.6261 -5.77337 0
M  V30 4337 H 415.214 1.39011 -6.3189 0
M  V30 4338 N 415.346 1.54954 0.287554 0
M  V30 4339 C 416.294 1.87606 1.37502 0
M  V30 4340 C 417.288 0.751001 1.51843 0
M  V30 4341 O 418.494 0.935169 1.53801 0
M  V30 4342 H 414.869 0.595231 0.459569 0
M  V30 4343 H 416.84 2.78477 1.07206 0
M  V30 4344 C 415.589 2.15183 2.73115 0
M  V30 4345 H 414.912 3.01234 2.62866 0
M  V30 4346 H 416.352 2.4196 3.48183 0
M  V30 4347 C 414.811 0.954686 3.2309 0
M  V30 4348 O 415.341 0.181949 4.01288 0
M  V30 4349 N 413.547 0.756368 2.80584 0
M  V30 4350 H 413.094 1.38643 2.17108 0
M  V30 4351 H 413.052 -0.0430391 3.14371 0
M  V30 4352 N 416.824 -0.551391 1.4764 0
M  V30 4353 C 418.07 -1.31024 1.54792 0
M  V30 4354 C 418.403 -1.9304 0.211967 0
M  V30 4355 O 417.678 -1.78175 -0.77999 0
M  V30 4356 C 417.961 -2.41593 2.67029 0
M  V30 4357 C 417.814 -1.84408 4.10261 0
M  V30 4358 C 419.133 -3.43488 2.75143 0
M  V30 4359 H 416.252 -0.475031 0.563485 0
M  V30 4360 H 418.894 -0.616454 1.79722 0
M  V30 4361 H 417.044 -3.00772 2.45904 0
M  V30 4362 H 418.716 -1.29445 4.42766 0
M  V30 4363 H 416.959 -1.15051 4.18265 0
M  V30 4364 H 417.63 -2.64367 4.84576 0
M  V30 4365 H 420.106 -2.94236 2.94218 0
M  V30 4366 H 418.982 -4.18274 3.55441 0
M  V30 4367 H 419.243 -4.02703 1.82435 0
M  V30 4368 N 418.302 -1.35869 -0.798587 0
M  V30 4369 C 419.232 -1.32118 -1.92528 0
M  V30 4370 C 420.213 -0.194209 -1.68988 0
M  V30 4371 O 421.398 -0.390426 -1.90235 0
M  V30 4372 C 418.528 -1.10047 -3.29404 0
M  V30 4373 C 417.482 -2.19471 -3.67446 0
M  V30 4374 C 416.808 -1.82555 -5.02571 0
M  V30 4375 C 418.108 -3.61495 -3.76987 0
M  V30 4376 H 419.802 -2.26394 -1.95924 0
M  V30 4377 H 417.348 -1.08981 -0.94123 0
M  V30 4378 H 419.301 -1.06061 -4.07835 0
M  V30 4379 H 418.025 -0.122195 -3.26371 0
M  V30 4380 H 416.684 -2.22568 -2.91306 0
M  V30 4381 H 416.332 -0.833249 -4.9605 0
M  V30 4382 H 416.032 -2.5581 -5.28995 0
M  V30 4383 H 417.556 -1.80108 -5.83432 0
M  V30 4384 H 418.97 -3.60676 -4.4563 0
M  V30 4385 H 417.367 -4.33577 -4.14887 0
M  V30 4386 H 418.437 -3.97065 -2.78329 0
M  V30 4387 N 419.78 1.02168 -1.19998 0
M  V30 4388 C 420.71 2.12488 -0.96804 0
M  V30 4389 C 421.691 1.69799 0.101185 0
M  V30 4390 O 422.876 1.94121 -0.0552993 0
M  V30 4391 C 420.006 3.43479 -0.513776 0
M  V30 4392 C 418.96 3.99884 -1.52566 0
M  V30 4393 C 418.286 5.26582 -0.928214 0
M  V30 4394 C 419.586 4.33861 -2.90795 0
M  V30 4395 H 421.28 2.32149 -1.89069 0
M  V30 4396 H 418.826 1.11564 -0.910468 0
M  V30 4397 H 420.779 4.20036 -0.338774 0
M  V30 4398 H 419.503 3.23561 0.444493 0
M  V30 4399 H 418.162 3.25429 -1.68794 0
M  V30 4400 H 417.81 5.02986 0.0378289 0
M  V30 4401 H 417.51 5.65284 -1.60397 0
M  V30 4402 H 419.034 6.05799 -0.764167 0
M  V30 4403 H 420.448 5.01327 -2.78109 0
M  V30 4404 H 418.845 4.83664 -3.55231 0
M  V30 4405 H 419.915 3.42848 -3.42904 0
M  V30 4406 N 421.258 1.00505 1.21394 0
M  V30 4407 C 422.206 0.558623 2.25792 0
M  V30 4408 C 423.2 -0.396848 1.64686 0
M  V30 4409 O 424.406 -0.268035 1.77993 0
M  V30 4410 H 420.781 0.1623 0.734277 0
M  V30 4411 H 422.752 1.4503 2.60785 0
M  V30 4412 C 421.501 -0.0989574 3.47559 0
M  V30 4413 H 420.824 0.627225 3.94849 0
M  V30 4414 H 422.264 -0.3746 4.22342 0
M  V30 4415 C 420.723 -1.33817 3.09184 0
M  V30 4416 O 421.253 -2.43252 3.19674 0
M  V30 4417 N 419.459 -1.21793 2.63846 0
M  V30 4418 H 419.006 -0.32746 2.5551 0
M  V30 4419 H 418.964 -2.04809 2.38539 0
M  V30 4420 N 422.737 -1.36956 0.779787 0
M  V30 4421 C 423.983 -1.99787 0.348281 0
M  V30 4422 C 424.316 -1.61756 -1.07465 0
M  V30 4423 O 423.591 -0.867639 -1.74075 0
M  V30 4424 C 423.874 -3.56597 0.50104 0
M  V30 4425 C 423.727 -4.04513 1.96697 0
M  V30 4426 C 425.046 -4.40008 -0.0898097 0
M  V30 4427 H 422.165 -0.725796 0.128022 0
M  V30 4428 H 424.807 -1.62514 0.984331 0
M  V30 4429 H 422.957 -3.88479 -0.0404347 0
M  V30 4430 H 424.629 -3.83161 2.56876 0
M  V30 4431 H 422.872 -3.56408 2.47297 0
M  V30 4432 H 423.543 -5.1352 2.02486 0
M  V30 4433 H 426.019 -4.14431 0.372293 0
M  V30 4434 H 424.895 -5.4888 0.0471605 0
M  V30 4435 H 425.156 -4.26035 -1.18096 0
M  V30 4436 N 424.215 -0.530993 -1.48385 0
M  V30 4437 C 425.626 -0.0907905 -1.86479 0
M  V30 4438 C 425.977 1.33213 -1.44044 0
M  V30 4439 O 425.102 1.99783 -0.831615 0
M  V30 4440 C 425.697 -0.157987 -3.38431 0
M  V30 4441 C 424.256 0.227026 -3.75715 0
M  V30 4442 C 423.403 -0.5173 -2.72432 0
M  V30 4443 H 426.354 -0.742186 -1.40276 0
M  V30 4444 H 426.375 0.630053 -3.75247 0
M  V30 4445 H 425.887 -1.19372 -3.69286 0
M  V30 4446 H 423.988 1.26486 -3.50474 0
M  V30 4447 H 424.101 -0.113288 -4.78966 0
M  V30 4448 H 422.465 0.0365527 -2.54674 0
M  V30 4449 H 423.248 -1.55368 -3.0613 0
M  V30 4450 N 425.693 1.55336 -0.266172 0
M  V30 4451 C 426.941 1.99003 0.35246 0
M  V30 4452 C 427.262 1.15591 1.57047 0
M  V30 4453 O 426.532 0.243268 1.94384 0
M  V30 4454 H 425.112 0.735025 0.133217 0
M  V30 4455 H 427.774 1.91367 -0.369434 0
M  V30 4456 H 426.87 3.05289 0.648453 0
M  V30 4457 N 427.171 -0.0066808 1.57599 0
M  V30 4458 C 428.118 -1.00024 2.08 0
M  V30 4459 C 429.088 -1.34549 0.973943 0
M  V30 4460 O 430.273 -1.44502 1.24595 0
M  V30 4461 C 427.413 -2.2891 2.58252 0
M  V30 4462 C 426.526 -2.00346 3.82734 0
M  V30 4463 C 425.661 -3.23265 4.21513 0
M  V30 4464 C 424.7 -2.90357 5.3885 0
M  V30 4465 N 423.837 -4.05793 5.72954 0
M  V30 4466 H 428.677 -0.563499 2.92624 0
M  V30 4467 H 426.214 -0.266592 1.44664 0
M  V30 4468 H 428.172 -3.04247 2.85464 0
M  V30 4469 H 426.802 -2.70265 1.76512 0
M  V30 4470 H 425.854 -1.15406 3.62471 0
M  V30 4471 H 427.166 -1.72086 4.68175 0
M  V30 4472 H 426.32 -4.06953 4.49971 0
M  V30 4473 H 425.059 -3.54657 3.34768 0
M  V30 4474 H 424.064 -2.05075 5.10122 0
M  V30 4475 H 425.289 -2.60219 6.27266 0
M  V30 4476 H 423.235 -4.37094 4.89167 0
M  V30 4477 H 423.152 -3.81034 6.52954 0
M  V30 4478 H 424.42 -4.90289 6.06001 0
M  V30 4479 N 428.649 -1.55105 -0.279332 0
M  V30 4480 C 429.599 -1.83937 -1.34727 0
M  V30 4481 C 430.583 -0.69785 -1.44979 0
M  V30 4482 O 431.775 -0.95904 -1.48766 0
M  V30 4483 C 428.904 -2.1092 -2.70864 0
M  V30 4484 C 427.99 -3.31314 -2.64748 0
M  V30 4485 N 428.381 -4.51371 -2.2825 0
M  V30 4486 C 426.679 -3.33777 -2.95819 0
M  V30 4487 C 427.38 -5.33447 -2.31969 0
M  V30 4488 N 426.356 -4.71697 -2.7019 0
M  V30 4489 H 430.158 -2.74309 -1.05506 0
M  V30 4490 H 427.672 -1.54896 -0.487959 0
M  V30 4491 H 429.669 -2.2973 -3.47893 0
M  V30 4492 H 428.329 -1.21828 -3.00979 0
M  V30 4493 H 429.34 -4.77584 -2.00335 0
M  V30 4494 H 426.017 -2.54858 -3.30687 0
M  V30 4495 H 427.407 -6.39424 -2.06365 0
M  V30 4496 N 430.127 0.543554 -1.4793 0
M  V30 4497 C 431.075 1.67039 -1.61866 0
M  V30 4498 C 432.069 1.62294 -0.48549 0
M  V30 4499 O 433.275 1.67315 -0.66376 0
M  V30 4500 H 429.65 0.552954 -0.509652 0
M  V30 4501 H 431.621 1.52426 -2.56533 0
M  V30 4502 C 430.37 3.05357 -1.6629 0
M  V30 4503 H 429.693 3.09696 -2.5284 0
M  V30 4504 H 431.133 3.83855 -1.80088 0
M  V30 4505 C 429.592 3.34531 -0.398861 0
M  V30 4506 O 430.122 3.98649 0.494162 0
M  V30 4507 N 428.328 2.89299 -0.2747 0
M  V30 4508 H 427.875 2.37298 -1.00236 0
M  V30 4509 H 427.833 3.09188 0.570075 0
M  V30 4510 N 431.605 1.3629 0.791371 0
M  V30 4511 C 432.568 1.30309 1.88553 0
M  V30 4512 C 433.568 0.211204 1.59407 0
M  V30 4513 O 434.758 0.465865 1.67855 0
M  V30 4514 C 431.89 1.01956 3.25297 0
M  V30 4515 H 433.083 2.27614 1.95273 0
M  V30 4516 H 430.636 1.21035 0.988953 0
M  V30 4517 H 431.371 0.050998 3.2426 0
M  V30 4518 H 431.156 1.80968 3.4784 0
M  V30 4519 H 432.646 1.0037 4.05359 0
M  V30 4520 N 433.083 -1.0153 1.20538 0
M  V30 4521 C 434.013 -2.11972 0.979295 0
M  V30 4522 C 434.994 -1.6985 -0.0921787 0
M  V30 4523 O 436.179 -1.94089 0.0655932 0
M  V30 4524 C 433.309 -3.43201 0.531984 0
M  V30 4525 C 432.263 -3.9907 1.54685 0
M  V30 4526 C 431.589 -5.26082 0.956127 0
M  V30 4527 C 432.889 -4.32313 2.93092 0
M  V30 4528 H 434.583 -2.31143 1.90298 0
M  V30 4529 H 432.129 -1.11079 0.916372 0
M  V30 4530 H 434.082 -4.1985 0.361044 0
M  V30 4531 H 432.806 -3.23792 -0.427327 0
M  V30 4532 H 431.465 -3.2453 1.70517 0
M  V30 4533 H 431.113 -5.02999 -0.0111538 0
M  V30 4534 H 430.813 -5.64426 1.63393 0
M  V30 4535 H 432.337 -6.05386 0.796284 0
M  V30 4536 H 433.751 -4.99845 2.80763 0
M  V30 4537 H 432.148 -4.81774 3.57791 0
M  V30 4538 H 433.218 -3.41025 3.44717 0
M  V30 4539 N 434.561 -1.01147 -1.20859 0
M  V30 4540 C 435.509 -0.57059 -2.25493 0
M  V30 4541 C 436.503 0.388109 -1.64894 0
M  V30 4542 O 437.709 0.258592 -1.78133 0
M  V30 4543 H 434.084 -0.166191 -0.733406 0
M  V30 4544 H 436.055 -1.46411 -2.60012 0
M  V30 4545 C 434.804 0.0805241 -3.47607 0
M  V30 4546 H 434.127 -0.648156 -3.94511 0
M  V30 4547 H 435.567 0.352197 -4.22535 0
M  V30 4548 C 434.026 1.32175 -3.09889 0
M  V30 4549 O 434.556 2.41553 -3.20959 0
M  V30 4550 N 432.762 1.20392 -2.64488 0
M  V30 4551 H 432.309 0.313905 -2.5568 0
M  V30 4552 H 432.267 2.03541 -2.39621 0
M  V30 4553 N 436.039 1.36541 -0.78704 0
M  V30 4554 C 437.002 2.28413 -0.189778 0
M  V30 4555 C 438.002 1.48719 0.611499 0
M  V30 4556 O 439.192 1.68737 0.432842 0
M  V30 4557 C 436.324 3.32824 0.737638 0
M  V30 4558 H 437.517 2.82743 -0.999831 0
M  V30 4559 H 435.07 1.46065 -0.556298 0
M  V30 4560 H 435.805 2.83646 1.57212 0
M  V30 4561 H 435.59 3.91752 0.165044 0
M  V30 4562 H 437.08 4.0144 1.15047 0
M  V30 4563 N 437.518 0.538854 1.48102 0
M  V30 4564 C 438.746 0.0123136 2.06896 0
M  V30 4565 C 439.161 -1.27312 1.39417 0
M  V30 4566 O 438.518 -1.75949 0.484582 0
M  V30 4567 C 438.569 -0.206118 3.60912 0
M  V30 4568 O 438.29 1.0284 4.25859 0
M  V30 4569 C 439.791 -0.772033 4.36526 0
M  V30 4570 H 437.011 0.0375239 0.66995 0
M  V30 4571 H 439.555 0.747032 1.90367 0
M  V30 4572 H 437.71 -0.89091 3.77017 0
M  V30 4573 H 438.124 0.814654 5.18135 0
M  V30 4574 H 439.598 -0.874251 5.45033 0
M  V30 4575 H 440.075 -1.77904 4.01555 0
M  V30 4576 H 440.681 -0.123526 4.25121 0
M  V30 4577 N 438.996 -1.55193 0.274407 0
M  V30 4578 C 439.959 -2.212 -0.600279 0
M  V30 4579 C 440.959 -1.18963 -1.08187 0
M  V30 4580 O 442.149 -1.43873 -0.982158 0
M  V30 4581 C 439.281 -2.87739 -1.82809 0
M  V30 4582 H 440.474 -2.9989 -0.0239682 0
M  V30 4583 H 438.027 -1.5628 0.0250192 0
M  V30 4584 H 438.762 -2.13058 -2.44493 0
M  V30 4585 H 438.547 -3.62658 -1.49069 0
M  V30 4586 H 440.037 -3.38171 -2.45011 0
M  V30 4587 N 440.474 -0.00167713 -1.576 0
M  V30 4588 C 441.437 0.974046 -2.07473 0
M  V30 4589 C 442.437 1.27143 -0.984444 0
M  V30 4590 O 443.627 1.21633 -1.24703 0
M  V30 4591 C 440.759 2.29849 -2.51759 0
M  V30 4592 H 441.952 0.54262 -2.9495 0
M  V30 4593 H 439.505 0.245829 -1.54355 0
M  V30 4594 H 440.24 2.77677 -1.67529 0
M  V30 4595 H 440.025 2.09584 -3.31386 0
M  V30 4596 H 441.515 2.9984 -2.90664 0
M  V30 4597 N 441.952 1.55251 0.271103 0
M  V30 4598 C 442.882 1.9127 1.33933 0
M  V30 4599 C 443.863 0.77478 1.5143 0
M  V30 4600 O 445.048 1.03307 1.64442 0
M  V30 4601 C 442.178 2.18627 2.69851 0
M  V30 4602 C 441.132 3.34442 2.67081 0
M  V30 4603 C 440.458 3.47284 4.06569 0
M  V30 4604 C 441.758 4.70784 2.26185 0
M  V30 4605 H 443.452 2.80744 1.04035 0
M  V30 4606 H 440.998 1.35077 0.499017 0
M  V30 4607 H 442.951 2.42413 3.44694 0
M  V30 4608 H 441.675 1.25955 3.01335 0
M  V30 4609 H 440.334 3.10627 1.94695 0
M  V30 4610 H 439.982 2.52074 4.35279 0
M  V30 4611 H 439.682 4.25152 4.0561 0
M  V30 4612 H 441.206 3.73363 4.83148 0
M  V30 4613 H 442.62 4.94102 2.90751 0
M  V30 4614 H 441.017 5.51582 2.36384 0
M  V30 4615 H 442.087 4.69478 1.21319 0
M  V30 4616 N 443.43 -0.535701 1.48216 0
M  V30 4617 C 444.393 -1.623 1.61838 0
M  V30 4618 C 445.393 -1.53087 0.492024 0
M  V30 4619 O 446.583 -1.5686 0.757668 0
M  V30 4620 C 443.715 -3.01907 1.58319 0
M  V30 4621 H 444.908 -1.51564 2.58783 0
M  V30 4622 H 442.461 -0.757317 1.36727 0
M  V30 4623 H 443.196 -3.18155 0.628299 0
M  V30 4624 H 442.981 -3.10003 2.40085 0
M  V30 4625 H 444.471 -3.80969 1.71033 0
M  V30 4626 N 444.908 -1.36708 -0.784132 0
M  V30 4627 C 446.154 -1.31426 -1.54451 0
M  V30 4628 C 446.487 0.10476 -1.93917 0
M  V30 4629 O 445.762 1.05934 -1.6312 0
M  V30 4630 C 446.045 -2.24189 -2.818 0
M  V30 4631 C 445.898 -3.74813 -2.48667 0
M  V30 4632 C 447.217 -2.15626 -3.83658 0
M  V30 4633 H 444.336 -0.478739 -0.560337 0
M  V30 4634 H 446.978 -1.67305 -0.900498 0
M  V30 4635 H 445.128 -1.93722 -3.36755 0
M  V30 4636 H 446.8 -4.15823 -1.99722 0
M  V30 4637 H 445.043 -3.93989 -1.81535 0
M  V30 4638 H 445.714 -4.35138 -3.39646 0
M  V30 4639 H 448.19 -2.42456 -3.38163 0
M  V30 4640 H 447.066 -2.82694 -4.70506 0
M  V30 4641 H 447.327 -1.14522 -4.27009 0
M  V30 4642 N 446.386 1.0089 -1.21074 0
M  V30 4643 C 447.349 2.0775 -0.968129 0
M  V30 4644 C 448.349 1.6069 0.0593445 0
M  V30 4645 O 449.539 1.73293 -0.177525 0
M  V30 4646 C 446.671 3.37794 -0.459108 0
M  V30 4647 H 447.864 2.30707 -1.9161 0
M  V30 4648 H 445.417 1.17807 -1.02719 0
M  V30 4649 H 446.152 3.20516 0.49397 0
M  V30 4650 H 445.937 3.7328 -1.20019 0
M  V30 4651 H 447.427 4.16454 -0.309099 0
M  V30 4652 N 447.864 1.01787 1.20321 0
M  V30 4653 C 448.811 0.589197 2.23153 0
M  V30 4654 C 449.781 -0.391367 1.61423 0
M  V30 4655 O 450.966 -0.290518 1.88575 0
M  V30 4656 C 448.106 -0.0650747 3.45039 0
M  V30 4657 C 447.219 0.960207 4.21194 0
M  V30 4658 C 446.354 0.276854 5.30478 0
M  V30 4659 C 445.393 1.2888 5.98378 0
M  V30 4660 N 444.53 0.632031 6.99249 0
M  V30 4661 H 449.37 1.47071 2.59179 0
M  V30 4662 H 446.907 0.736192 1.27352 0
M  V30 4663 H 448.865 -0.461552 4.14639 0
M  V30 4664 H 447.495 -0.910233 3.09701 0
M  V30 4665 H 446.547 1.47484 3.50646 0
M  V30 4666 H 447.859 1.72977 4.67847 0
M  V30 4667 H 447.013 -0.175056 6.06447 0
M  V30 4668 H 445.752 -0.525004 4.84866 0
M  V30 4669 H 444.757 1.75109 5.21169 0
M  V30 4670 H 445.982 2.09196 6.46076 0
M  V30 4671 H 443.928 -0.149935 6.55829 0
M  V30 4672 H 443.845 1.33964 7.44036 0
M  V30 4673 H 445.113 0.203755 7.79234 0
M  V30 4674 N 449.342 -1.36122 0.79427 0
M  V30 4675 C 450.252 -2.33769 0.197296 0
M  V30 4676 C 451.268 -1.61276 -0.653153 0
M  V30 4677 O 452.444 -1.9323 -0.5678 0
M  V30 4678 C 449.509 -3.40474 -0.654098 0
M  V30 4679 C 448.57 -4.28759 0.215411 0
M  V30 4680 C 447.803 -5.30368 -0.595443 0
M  V30 4681 O 448.026 -5.40211 -1.83107 0
M  V30 4682 O 446.96 -6.019 0.00721351 0
M  V30 4683 H 450.786 -2.86597 1.00478 0
M  V30 4684 H 448.371 -1.38676 0.555818 0
M  V30 4685 H 450.253 -4.05703 -1.13944 0
M  V30 4686 H 448.928 -2.89937 -1.43938 0
M  V30 4687 H 447.835 -3.66554 0.747615 0
M  V30 4688 H 449.168 -4.82661 0.964332 0
M  V30 4689 N 450.82 -0.546701 -1.47814 0
M  V30 4690 C 451.73 0.21026 -2.33656 0
M  V30 4691 C 452.746 0.922413 -1.47538 0
M  V30 4692 O 453.922 0.893652 -1.80488 0
M  V30 4693 C 450.987 1.23348 -3.24016 0
M  V30 4694 C 450.048 0.529883 -4.26017 0
M  V30 4695 C 449.281 1.50435 -5.12059 0
M  V30 4696 O 449.504 2.73837 -5.00369 0
M  V30 4697 O 448.438 1.03459 -5.92942 0
M  V30 4698 H 452.264 -0.493605 -2.99662 0
M  V30 4699 H 449.849 -0.307427 -1.46203 0
M  V30 4700 H 451.731 1.82438 -3.79861 0
M  V30 4701 H 450.406 1.91945 -2.60651 0
M  V30 4702 H 449.313 -0.101948 -3.73961 0
M  V30 4703 H 450.646 -0.11445 -4.92067 0
M  V30 4704 N 452.299 1.55045 -0.282633 0
M  V30 4705 C 453.547 1.99365 0.331334 0
M  V30 4706 C 453.868 1.1725 1.55812 0
M  V30 4707 O 453.138 0.263871 1.94115 0
M  V30 4708 H 451.718 0.736397 0.125414 0
M  V30 4709 H 454.38 1.90964 -0.389711 0
M  V30 4710 H 453.476 3.0596 0.616036 0
M  V30 4711 N 453.777 0.010035 1.57597 0
M  V30 4712 C 455.026 -0.671945 1.90178 0
M  V30 4713 C 455.339 -1.74376 0.886131 0
M  V30 4714 O 456.545 -2.48107 1.10252 0
M  V30 4715 C 455.001 -1.24636 3.3763 0
M  V30 4716 C 454.609 -0.208838 4.47513 0
M  V30 4717 C 456.353 -1.90595 3.79307 0
M  V30 4718 C 454.26 -0.793814 5.86048 0
M  V30 4719 H 453.19 -0.25474 0.709665 0
M  V30 4720 H 455.841 0.0722206 1.83358 0
M  V30 4721 H 454.223 -2.04152 3.3932 0
M  V30 4722 H 455.397 0.562463 4.57354 0
M  V30 4723 H 453.712 0.350889 4.14919 0
M  V30 4724 H 456.309 -2.35284 4.80151 0
M  V30 4725 H 456.652 -2.74074 3.13352 0
M  V30 4726 H 457.185 -1.17798 3.79958 0
M  V30 4727 H 453.924 0.00240855 6.555 0
M  V30 4728 H 453.444 -1.53404 5.79851 0
M  V30 4729 H 455.123 -1.2894 6.34022 0
M  V30 4730 N 455.255 -1.55392 -0.262866 0
M  V30 4731 C 456.218 -1.88181 -1.30846 0
M  V30 4732 C 457.218 -0.757079 -1.41862 0
M  V30 4733 O 458.408 -1.02519 -1.40838 0
M  V30 4734 C 455.54 -2.09609 -2.68844 0
M  V30 4735 H 456.733 -2.81659 -1.02997 0
M  V30 4736 H 454.286 -1.48039 -0.501414 0
M  V30 4737 H 455.021 -1.18547 -3.01856 0
M  V30 4738 H 454.806 -2.91508 -2.62231 0
M  V30 4739 H 456.296 -2.36215 -3.44372 0
M  V30 4740 N 456.733 0.527833 -1.48498 0
M  V30 4741 C 457.681 1.65313 -1.63628 0
M  V30 4742 C 458.675 1.6177 -0.502676 0
M  V30 4743 O 459.881 1.66601 -0.681469 0
M  V30 4744 H 456.256 0.547518 -0.515488 0
M  V30 4745 H 458.227 1.49696 -2.58135 0
M  V30 4746 C 456.976 3.03576 -1.6952 0
M  V30 4747 H 456.299 3.06997 -2.56111 0
M  V30 4748 H 457.739 3.81923 -1.84149 0
M  V30 4749 C 456.198 3.34089 -0.43432 0
M  V30 4750 O 456.728 3.99151 0.451852 0
M  V30 4751 N 454.934 2.88991 -0.305368 0
M  V30 4752 H 454.481 2.36222 -1.02747 0
M  V30 4753 H 454.439 3.09776 0.537249 0
M  V30 4754 N 458.211 1.37122 0.776871 0
M  V30 4755 C 459.121 1.34651 1.9211 0
M  V30 4756 C 460.137 0.246824 1.7224 0
M  V30 4757 O 461.313 0.48134 1.95563 0
M  V30 4758 C 458.378 1.14748 3.2716 0
M  V30 4759 C 457.439 2.34308 3.5972 0
M  V30 4760 C 456.672 2.15345 4.88326 0
M  V30 4761 O 456.895 1.13507 5.58992 0
M  V30 4762 O 455.829 3.03414 5.1983 0
M  V30 4763 H 459.655 2.31013 1.97146 0
M  V30 4764 H 457.24 1.17799 0.918901 0
M  V30 4765 H 459.122 1.05616 4.0795 0
M  V30 4766 H 457.797 0.214562 3.22988 0
M  V30 4767 H 456.704 2.49011 2.79185 0
M  V30 4768 H 458.037 3.26149 3.68629 0
M  V30 4769 N 459.689 -1.00246 1.21608 0
M  V30 4770 C 460.652 -2.07233 0.979133 0
M  V30 4771 C 461.652 -1.6072 -0.0508219 0
M  V30 4772 O 462.842 -1.73196 0.186712 0
M  V30 4773 C 459.974 -3.37546 0.477016 0
M  V30 4774 H 461.167 -2.29687 1.92831 0
M  V30 4775 H 458.72 -1.17261 1.03342 0
M  V30 4776 H 459.455 -3.20773 -0.476966 0
M  V30 4777 H 459.24 -3.72638 1.21997 0
M  V30 4778 H 460.73 -4.16285 0.331181 0
M  V30 4779 N 461.167 -1.02423 -1.1978 0
M  V30 4780 C 462.416 -0.713265 -1.88667 0
M  V30 4781 C 462.729 0.7609 -1.80193 0
M  V30 4782 O 463.935 1.18473 -2.44288 0
M  V30 4783 C 462.391 -1.22545 -3.38394 0
M  V30 4784 C 461.999 -2.72706 -3.55437 0
M  V30 4785 C 463.743 -0.990257 -4.12788 0
M  V30 4786 C 461.65 -3.17367 -4.99031 0
M  V30 4787 H 460.58 -0.263105 -0.706606 0
M  V30 4788 H 463.231 -1.23792 -1.35454 0
M  V30 4789 H 461.613 -0.628732 -3.90977 0
M  V30 4790 H 462.787 -3.37993 -3.13205 0
M  V30 4791 H 461.102 -2.94453 -2.94425 0
M  V30 4792 H 463.699 -1.29926 -5.18675 0
M  V30 4793 H 464.042 0.0730761 -4.16236 0
M  V30 4794 H 464.575 -1.55074 -3.66329 0
M  V30 4795 H 461.314 -4.23009 -5.00743 0
M  V30 4796 H 460.834 -2.56805 -5.42044 0
M  V30 4797 H 462.513 -3.10441 -5.67658 0
M  V30 4798 N 462.645 1.35699 -0.801477 0
M  V30 4799 C 463.575 2.32436 -0.222658 0
M  V30 4800 C 464.556 1.5723 0.649057 0
M  V30 4801 O 465.741 1.85324 0.580387 0
M  V30 4802 C 462.871 3.41469 0.633719 0
M  V30 4803 C 461.825 4.27774 -0.139083 0
M  V30 4804 C 461.151 5.28082 0.838666 0
M  V30 4805 C 462.451 5.04946 -1.33517 0
M  V30 4806 H 464.145 2.81094 -1.03086 0
M  V30 4807 H 461.691 1.35146 -0.497155 0
M  V30 4808 H 463.644 4.08143 1.04868 0
M  V30 4809 H 462.368 2.91408 1.47475 0
M  V30 4810 H 461.027 3.62673 -0.535156 0
M  V30 4811 H 460.675 4.7429 1.67506 0
M  V30 4812 H 460.375 5.86695 0.32594 0
M  V30 4813 H 461.899 5.97628 1.25194 0
M  V30 4814 H 463.313 5.64593 -0.995349 0
M  V30 4815 H 461.71 5.7303 -1.78202 0
M  V30 4816 H 462.78 4.35886 -2.12442 0
M  V30 4817 N 464.123 0.554532 1.47522 0
M  V30 4818 C 465.033 -0.197865 2.33764 0
M  V30 4819 C 466.049 -0.914576 1.48025 0
M  V30 4820 O 467.225 -0.884067 1.80959 0
M  V30 4821 C 464.29 -1.21628 3.24665 0
M  V30 4822 C 463.351 -0.507283 4.26292 0
M  V30 4823 C 462.584 -1.47718 5.1285 0
M  V30 4824 O 462.807 -2.7118 5.01814 0
M  V30 4825 O 461.741 -1.00313 5.93482 0
M  V30 4826 H 465.567 0.50949 2.99396 0
M  V30 4827 H 463.152 0.315176 1.46038 0
M  V30 4828 H 465.034 -1.80421 3.80823 0
M  V30 4829 H 463.709 -1.9056 2.61665 0
M  V30 4830 H 462.616 0.121778 3.73902 0
M  V30 4831 H 463.949 0.140544 4.91999 0
M  V30 4832 N 465.601 -1.54893 0.290851 0
M  V30 4833 C 466.564 -2.21824 -0.576784 0
M  V30 4834 C 467.564 -1.20104 -1.06919 0
M  V30 4835 O 468.754 -1.44906 -0.966843 0
M  V30 4836 C 465.886 -2.89662 -1.79747 0
M  V30 4837 H 467.079 -2.99899 0.00784051 0
M  V30 4838 H 464.632 -1.56245 0.0415934 0
M  V30 4839 H 465.367 -2.15639 -2.42219 0
M  V30 4840 H 465.152 -3.64219 -1.45214 0
M  V30 4841 H 466.642 -3.4075 -2.4141 0
M  V30 4842 N 467.08 -0.0183926 -1.57589 0
M  V30 4843 C 468.01 0.965596 -2.12599 0
M  V30 4844 C 468.991 1.34641 -1.0395 0
M  V30 4845 O 470.176 1.42693 -1.31729 0
M  V30 4846 C 467.306 2.25149 -2.64434 0
M  V30 4847 C 466.26 2.01175 -3.77773 0
M  V30 4848 C 465.586 3.35937 -4.15994 0
M  V30 4849 C 466.886 1.35953 -5.04296 0
M  V30 4850 H 468.58 0.507504 -2.95067 0
M  V30 4851 H 466.126 0.242671 -1.41941 0
M  V30 4852 H 468.079 2.94357 -3.01549 0
M  V30 4853 H 466.803 2.73105 -1.79112 0
M  V30 4854 H 465.462 1.34388 -3.4108 0
M  V30 4855 H 465.11 3.81631 -3.27669 0
M  V30 4856 H 464.81 3.20705 -4.92364 0
M  V30 4857 H 466.334 4.0643 -4.55683 0
M  V30 4858 H 467.748 1.95144 -5.39065 0
M  V30 4859 H 466.145 1.31152 -5.85593 0
M  V30 4860 H 467.215 0.331071 -4.83768 0
M  V30 4861 N 468.558 1.5553 0.254621 0
M  V30 4862 C 469.521 1.88872 1.29846 0
M  V30 4863 C 470.521 0.764591 1.41459 0
M  V30 4864 O 471.711 1.03265 1.40293 0
M  V30 4865 C 468.843 2.11032 2.67728 0
M  V30 4866 H 470.036 2.82201 1.01502 0
M  V30 4867 H 467.589 1.48303 0.493556 0
M  V30 4868 H 468.324 1.20146 3.01223 0
M  V30 4869 H 468.109 2.92895 2.60682 0
M  V30 4870 H 469.599 2.38038 3.43115 0
M  V30 4871 N 470.036 -0.519951 1.48776 0
M  V30 4872 C 471.313 -1.28123 1.47797 0
M  V30 4873 C 471.693 -2.10196 0.195157 0
M  V30 4874 O 471.041 -2.13167 -0.822925 0
M  V30 4875 C 471.251 -2.15413 2.74587 0
M  V30 4876 C 472.599 -2.75225 3.23321 0
M  V30 4877 O 473.623 -2.25694 2.75574 0
M  V30 4878 O 472.482 -3.65346 4.06429 0
M  V30 4879 H 469.576 -0.578793 0.590701 0
M  V30 4880 H 472.122 -0.535779 1.6102 0
M  V30 4881 H 470.894 -1.54617 3.59457 0
M  V30 4882 H 470.517 -2.97186 2.64132 0
M  V30 4883 N 471.514 -1.37532 -0.769588 0
M  V30 4884 C 472.761 -1.3286 -1.52822 0
M  V30 4885 C 473.089 0.0862597 -1.94309 0
M  V30 4886 O 472.344 1.05995 -1.6451 0
M  V30 4887 C 472.643 -2.21558 -2.8044 0
M  V30 4888 C 472.309 -3.69796 -2.57996 0
M  V30 4889 C 470.971 -4.10194 -2.51583 0
M  V30 4890 C 473.323 -4.63699 -2.37976 0
M  V30 4891 C 470.651 -5.42608 -2.23144 0
M  V30 4892 C 473.003 -5.96353 -2.1106 0
M  V30 4893 C 471.667 -6.35853 -2.03093 0
M  V30 4894 H 470.937 -0.486168 -0.559215 0
M  V30 4895 H 473.584 -1.69757 -0.886277 0
M  V30 4896 H 471.889 -1.77663 -3.49204 0
M  V30 4897 H 473.586 -2.15256 -3.38328 0
M  V30 4898 H 470.176 -3.37759 -2.63851 0
M  V30 4899 H 474.36 -4.33346 -2.41919 0
M  V30 4900 H 469.616 -5.72173 -2.15472 0
M  V30 4901 H 473.79 -6.68667 -1.94568 0
M  V30 4902 H 471.417 -7.38382 -1.8082 0
M  V30 4903 N 472.992 0.995999 -1.22138 0
M  V30 4904 C 473.924 2.08745 -0.946485 0
M  V30 4905 C 474.937 1.62633 0.0737356 0
M  V30 4906 O 476.126 1.77782 -0.159886 0
M  V30 4907 C 473.226 3.36516 -0.401305 0
M  V30 4908 C 472.399 4.11672 -1.47801 0
M  V30 4909 C 471.458 5.17728 -0.940461 0
M  V30 4910 O 470.484 5.45482 -1.62596 0
M  V30 4911 N 471.686 5.80005 0.239723 0
M  V30 4912 H 474.451 2.32908 -1.88611 0
M  V30 4913 H 472.012 1.16152 -1.12785 0
M  V30 4914 H 474.004 4.04691 -0.0270837 0
M  V30 4915 H 472.574 3.0944 0.443354 0
M  V30 4916 H 471.794 3.38171 -2.02568 0
M  V30 4917 H 473.082 4.58657 -2.20253 0
M  V30 4918 H 472.48 5.5982 0.813518 0
M  V30 4919 H 471.037 6.4943 0.555361 0
M  V30 4920 N 474.47 1.03057 1.19235 0
M  V30 4921 C 475.718 0.726581 1.88587 0
M  V30 4922 C 476.039 -0.747227 1.80115 0
M  V30 4923 O 475.309 -1.53849 1.21274 0
M  V30 4924 H 473.889 0.265768 0.698124 0
M  V30 4925 H 476.551 1.30516 1.44746 0
M  V30 4926 H 475.647 1.0224 2.94879 0
M  V30 4927 N 475.948 -1.35272 0.808662 0
M  V30 4928 C 476.911 -2.28082 0.226093 0
M  V30 4929 C 477.911 -1.49673 -0.587762 0
M  V30 4930 O 479.101 -1.69404 -0.405943 0
M  V30 4931 C 476.233 -3.33955 -0.684596 0
M  V30 4932 H 477.426 -2.81116 1.04469 0
M  V30 4933 H 474.979 -1.45162 0.579466 0
M  V30 4934 H 475.714 -2.86111 -1.5268 0
M  V30 4935 H 475.499 -3.91965 -0.102699 0
M  V30 4936 H 476.989 -4.03219 -1.08646 0
M  V30 4937 N 477.426 -0.562348 -1.47226 0
M  V30 4938 C 478.674 -0.0401371 -2.0206 0
M  V30 4939 C 478.995 1.3165 -1.43852 0
M  V30 4940 O 478.265 1.85976 -0.615599 0
M  V30 4941 H 476.845 -0.0118479 -0.746906 0
M  V30 4942 H 479.507 -0.73352 -1.8057 0
M  V30 4943 H 478.603 0.0441254 -3.12069 0
M  V30 4944 N 478.904 1.54736 -0.299062 0
M  V30 4945 C 480.32 1.59507 0.0543849 0
M  V30 4946 C 480.52 1.31606 1.52585 0
M  V30 4947 O 479.576 1.08853 2.27832 0
M  V30 4948 C 480.889 2.98751 -0.34181 0
M  V30 4949 C 482.437 3.1165 -0.290414 0
M  V30 4950 C 482.912 4.53199 -0.661402 0
M  V30 4951 N 484.403 4.59114 -0.613863 0
M  V30 4952 C 485.138 5.66709 -0.873417 0
M  V30 4953 N 484.634 6.82349 -1.19884 0
M  V30 4954 N 486.427 5.56369 -0.800608 0
M  V30 4955 H 478.578 1.71133 -1.25806 0
M  V30 4956 H 480.841 0.799186 -0.509908 0
M  V30 4957 H 480.547 3.24085 -1.36608 0
M  V30 4958 H 480.421 3.75961 0.305508 0
M  V30 4959 H 482.808 2.86066 0.724605 0
M  V30 4960 H 482.889 2.366 -0.972327 0
M  V30 4961 H 482.533 4.79513 -1.67422 0
M  V30 4962 H 482.463 5.26583 0.0425612 0
M  V30 4963 H 484.954 3.76053 -0.3732 0
M  V30 4964 H 485.267 7.60326 -1.38291 0
M  V30 4965 H 483.612 6.83906 -1.23685 0
M  V30 4966 H 486.803 4.64904 -0.546045 0
M  V30 4967 H 486.976 6.40139 -1.00626 0
M  V30 4968 N 480.382 0.0267497 1.57577 0
M  V30 4969 C 481.798 -0.32962 1.56159 0
M  V30 4970 C 481.998 -1.73059 1.03213 0
M  V30 4971 O 481.054 -2.43233 0.677804 0
M  V30 4972 C 482.367 -0.18039 3.00158 0
M  V30 4973 C 483.915 -0.253334 3.11973 0
M  V30 4974 C 484.39 -0.132921 4.57807 0
M  V30 4975 N 485.881 -0.189979 4.6281 0
M  V30 4976 C 486.616 -0.120554 5.73273 0
M  V30 4977 N 486.112 -0.000180315 6.928 0
M  V30 4978 N 487.905 -0.174369 5.61829 0
M  V30 4979 H 480.056 0.942896 1.90324 0
M  V30 4980 H 482.319 0.3639 0.875375 0
M  V30 4981 H 482.025 0.784576 3.42837 0
M  V30 4982 H 481.899 -0.951565 3.65 0
M  V30 4983 H 484.286 -1.20876 2.69208 0
M  V30 4984 H 484.367 0.548177 2.49857 0
M  V30 4985 H 484.011 0.819073 5.01252 0
M  V30 4986 H 483.941 -0.953264 5.179 0
M  V30 4987 H 486.432 -0.283257 3.76837 0
M  V30 4988 H 486.745 0.0461666 7.72786 0
M  V30 4989 H 485.09 0.034569 6.94991 0
M  V30 4990 H 488.281 -0.266794 4.67339 0
M  V30 4991 H 488.454 -0.116802 6.47895 0
M  V30 4992 N 481.861 -1.55662 -0.24637 0
M  V30 4993 C 483.108 -1.77519 -0.974335 0
M  V30 4994 C 483.436 -0.591165 -1.85298 0
M  V30 4995 O 482.691 0.425497 -1.91018 0
M  V30 4996 C 482.99 -3.04885 -1.86494 0
M  V30 4997 C 482.656 -4.36209 -1.14161 0
M  V30 4998 C 481.318 -4.71896 -0.941701 0
M  V30 4999 C 483.67 -5.17391 -0.628957 0
M  V30 5000 C 480.998 -5.86299 -0.216852 0
M  V30 5001 C 483.35 -6.32546 0.0824273 0
M  V30 5002 C 482.014 -6.66853 0.293807 0
M  V30 5003 H 481.284 -0.649588 -0.356535 0
M  V30 5004 H 483.931 -1.89934 -0.244394 0
M  V30 5005 H 482.236 -2.87484 -2.66196 0
M  V30 5006 H 483.933 -3.18994 -2.42989 0
M  V30 5007 H 480.523 -4.08174 -1.30736 0
M  V30 5008 H 484.707 -4.90276 -0.770943 0
M  V30 5009 H 479.963 -6.11385 -0.0426124 0
M  V30 5010 H 484.137 -6.94693 0.487292 0
M  V30 5011 H 481.764 -7.55349 0.857428 0
M  V30 5012 N 483.339 0.512053 -1.4905 0
M  V30 5013 C 484.616 1.27337 -1.48474 0
M  V30 5014 C 484.996 2.1009 -0.206301 0
M  V30 5015 O 484.344 2.136 0.811609 0
M  V30 5016 C 484.554 2.13954 -2.75726 0
M  V30 5017 C 485.902 2.73507 -3.24776 0
M  V30 5018 O 486.926 2.24229 -2.76767 0
M  V30 5019 O 485.785 3.63186 -4.08361 0
M  V30 5020 H 482.879 0.575652 -0.593762 0
M  V30 5021 H 485.425 0.527232 -1.61302 0
M  V30 5022 H 484.197 1.52709 -3.60272 0
M  V30 5023 H 483.82 2.95782 -2.65705 0
M  V30 5024 N 484.817 1.37938 0.762283 0
M  V30 5025 C 485.749 1.30349 1.88525 0
M  V30 5026 C 486.762 0.217402 1.61342 0
M  V30 5027 O 487.951 0.474291 1.72084 0
M  V30 5028 C 485.051 0.994844 3.23969 0
M  V30 5029 C 484.224 2.18829 3.78725 0
M  V30 5030 C 483.283 1.84844 4.92665 0
M  V30 5031 O 482.309 2.57244 5.07754 0
M  V30 5032 N 483.511 0.798201 5.74986 0
M  V30 5033 H 486.276 2.27114 1.95549 0
M  V30 5034 H 483.837 1.31686 0.941825 0
M  V30 5035 H 485.829 0.748168 3.97724 0
M  V30 5036 H 484.399 0.115446 3.12387 0
M  V30 5037 H 483.619 2.59615 2.96637 0
M  V30 5038 H 484.907 2.98497 4.1204 0
M  V30 5039 H 484.305 0.197611 5.65355 0
M  V30 5040 H 482.862 0.611396 6.48926 0
M  V30 5041 N 486.295 -0.989507 1.22664 0
M  V30 5042 C 487.225 -2.09847 1.02404 0
M  V30 5043 C 488.206 -1.70007 -0.0561303 0
M  V30 5044 O 489.391 -1.93906 0.106748 0
M  V30 5045 C 486.521 -3.41996 0.604663 0
M  V30 5046 C 485.475 -3.95699 1.63115 0
M  V30 5047 C 484.801 -5.23936 1.0675 0
M  V30 5048 C 486.101 -4.25999 3.02196 0
M  V30 5049 H 487.795 -2.27054 1.95158 0
M  V30 5050 H 485.341 -1.09111 0.939727 0
M  V30 5051 H 487.294 -4.1899 0.45002 0
M  V30 5052 H 486.018 -3.24626 -0.35855 0
M  V30 5053 H 484.677 -3.2084 1.77362 0
M  V30 5054 H 484.325 -5.02909 0.0955422 0
M  V30 5055 H 484.025 -5.60833 1.75328 0
M  V30 5056 H 485.549 -6.0356 0.924516 0
M  V30 5057 H 486.963 -4.93777 2.91303 0
M  V30 5058 H 485.36 -4.74076 3.67929 0
M  V30 5059 H 486.43 -3.33636 3.51873 0
M  V30 5060 N 487.773 -1.03688 -1.18687 0
M  V30 5061 C 489.021 -0.736572 -1.88199 0
M  V30 5062 C 489.342 0.737665 -1.80509 0
M  V30 5063 O 488.612 1.53204 -1.22088 0
M  V30 5064 H 487.192 -0.269466 -0.696704 0
M  V30 5065 H 489.854 -1.31282 -1.44052 0
M  V30 5066 H 488.95 -1.03802 -2.94332 0
M  V30 5067 N 489.251 1.34841 -0.815825 0
M  V30 5068 C 490.161 2.33425 -0.234462 0
M  V30 5069 C 491.177 1.62295 0.627413 0
M  V30 5070 O 492.353 1.94109 0.536987 0
M  V30 5071 C 489.418 3.41471 0.599849 0
M  V30 5072 C 488.479 4.28362 -0.283596 0
M  V30 5073 C 487.712 5.31248 0.51099 0
M  V30 5074 O 487.935 5.43056 1.7449 0
M  V30 5075 O 486.869 6.01812 -0.10297 0
M  V30 5076 H 490.695 2.84962 -1.05024 0
M  V30 5077 H 488.28 1.37774 -0.577809 0
M  V30 5078 H 490.162 4.07464 1.07475 0
M  V30 5079 H 488.837 2.9219 1.39308 0
M  V30 5080 H 487.744 3.65318 -0.805836 0
M  V30 5081 H 489.077 4.81066 -1.041 0
M  V30 5082 N 490.729 0.570148 1.46925 0
M  V30 5083 C 491.976 0.0509529 2.02436 0
M  V30 5084 C 492.304 -1.30405 1.44308 0
M  V30 5085 O 491.559 -1.86493 0.593198 0
M  V30 5086 C 491.858 -0.0780336 3.57315 0
M  V30 5087 C 491.524 1.20775 4.34424 0
M  V30 5088 C 490.186 1.56004 4.5521 0
M  V30 5089 C 492.538 2.0592 4.78797 0
M  V30 5090 C 489.866 2.76201 5.17619 0
M  V30 5091 C 492.218 3.25332 5.42533 0
M  V30 5092 C 490.882 3.60859 5.61549 0
M  V30 5093 H 490.152 0.018645 0.740765 0
M  V30 5094 H 492.799 0.744262 1.76445 0
M  V30 5095 H 491.104 -0.854394 3.82371 0
M  V30 5096 H 492.801 -0.495312 3.97929 0
M  V30 5097 H 489.391 0.923469 4.18533 0
M  V30 5098 H 493.575 1.80008 4.62505 0
M  V30 5099 H 488.831 3.0388 5.30535 0
M  V30 5100 H 493.005 3.91586 5.75876 0
M  V30 5101 H 490.632 4.54088 6.09678 0
M  V30 5102 N 492.207 -1.54576 0.307264 0
M  V30 5103 C 493.456 -1.99442 -0.300976 0
M  V30 5104 C 493.769 -1.19928 -1.5452 0
M  V30 5105 O 494.975 -1.55092 -2.22842 0
M  V30 5106 C 493.431 -3.55084 -0.586809 0
M  V30 5107 C 493.039 -4.43413 0.639438 0
M  V30 5108 C 494.783 -4.0846 -1.1559 0
M  V30 5109 C 492.69 -5.90499 0.326411 0
M  V30 5110 H 491.62 -0.744986 -0.116238 0
M  V30 5111 H 494.271 -1.787 0.416947 0
M  V30 5112 H 492.653 -3.71749 -1.36449 0
M  V30 5113 H 493.827 -4.38522 1.41545 0
M  V30 5114 H 492.142 -4.00842 1.1276 0
M  V30 5115 H 494.739 -5.15926 -1.40445 0
M  V30 5116 H 495.082 -3.59443 -2.10015 0
M  V30 5117 H 495.615 -3.95362 -0.439778 0
M  V30 5118 H 492.354 -6.43676 1.23939 0
M  V30 5119 H 491.874 -5.98382 -0.412212 0
M  V30 5120 H 493.553 -6.46962 -0.0697393 0
M  V30 5121 N 493.685 -0.035106 -1.57561 0
M  V30 5122 C 495.101 0.321334 -1.56332 0
M  V30 5123 C 495.301 1.72509 -1.04129 0
M  V30 5124 O 494.357 2.4287 -0.690694 0
M  V30 5125 C 495.67 0.164469 -3.0025 0
M  V30 5126 C 497.218 0.236786 -3.12103 0
M  V30 5127 C 497.693 0.10864 -4.57871 0
M  V30 5128 N 499.184 0.165433 -4.62904 0
M  V30 5129 C 499.919 0.0901506 -5.73329 0
M  V30 5130 N 499.415 -0.0365606 -6.9279 0
M  V30 5131 N 501.208 0.144572 -5.61914 0
M  V30 5132 H 493.359 -0.952976 -1.89821 0
M  V30 5133 H 495.622 -0.368537 -0.873432 0
M  V30 5134 H 495.328 -0.802746 -3.42416 0
M  V30 5135 H 495.202 0.932194 -3.655 0
M  V30 5136 H 497.589 1.19446 -2.69845 0
M  V30 5137 H 497.67 -0.561419 -2.49563 0
M  V30 5138 H 497.314 -0.845644 -5.00811 0
M  V30 5139 H 497.244 0.925786 -5.18398 0
M  V30 5140 H 499.735 0.263269 -3.76982 0
M  V30 5141 H 500.048 -0.0871487 -7.72751 0
M  V30 5142 H 498.393 -0.0714256 -6.94963 0
M  V30 5143 H 501.584 0.242006 -4.67474 0
M  V30 5144 H 501.757 0.0824413 -6.47948 0
M  V30 5145 N 495.163 1.55791 0.238111 0
M  V30 5146 C 496.574 1.68383 0.806472 0
M  V30 5147 C 496.925 0.634157 1.85669 0
M  V30 5148 O 496.05 -0.217913 2.153 0
M  V30 5149 C 496.645 3.05268 1.46959 0
M  V30 5150 C 495.204 3.1977 1.98555 0
M  V30 5151 C 494.351 2.64279 0.839763 0
M  V30 5152 H 497.302 1.58694 0.0137535 0
M  V30 5153 H 497.323 3.00203 2.33792 0
M  V30 5154 H 496.835 3.81643 0.704993 0
M  V30 5155 H 494.936 2.48234 2.77868 0
M  V30 5156 H 495.049 4.26788 2.17689 0
M  V30 5157 H 493.413 2.22329 1.24265 0
M  V30 5158 H 494.196 3.43187 0.0881032 0
M  V30 5159 N 496.642 -0.504142 1.49319 0
M  V30 5160 C 497.59 -1.62689 1.66238 0
M  V30 5161 C 498.584 -1.6095 0.528349 0
M  V30 5162 O 499.79 -1.65496 0.707887 0
M  V30 5163 H 496.165 -0.539247 0.524134 0
M  V30 5164 H 498.136 -1.45571 2.60484 0
M  V30 5165 C 496.885 -3.00841 1.74328 0
M  V30 5166 H 496.208 -3.02884 2.60963 0
M  V30 5167 H 497.648 -3.78945 1.90202 0
M  V30 5168 C 496.107 -3.33355 0.487416 0
M  V30 5169 O 496.637 -3.99819 -0.388294 0
M  V30 5170 N 494.843 -2.88469 0.351306 0
M  V30 5171 H 494.39 -2.34557 1.06492 0
M  V30 5172 H 494.348 -3.10591 -0.487899 0
M  V30 5173 N 498.12 -1.38341 -0.754957 0
M  V30 5174 C 499.368 -1.34208 -1.51105 0
M  V30 5175 C 499.689 0.0677634 -1.94882 0
M  V30 5176 O 498.959 1.01517 -1.67544 0
M  V30 5177 H 497.539 -0.493819 -0.560493 0
M  V30 5178 H 500.201 -1.73005 -0.897507 0
M  V30 5179 H 499.297 -1.99203 -2.4026 0
M  V30 5180 N 499.598 0.982988 -1.23187 0
M  V30 5181 C 500.545 2.07491 -1.01075 0
M  V30 5182 C 501.515 1.65949 0.070905 0
M  V30 5183 O 502.7 1.90629 -0.0806822 0
M  V30 5184 C 499.84 3.39751 -0.605261 0
M  V30 5185 C 498.953 3.94578 -1.75876 0
M  V30 5186 C 498.088 5.15039 -1.3003 0
M  V30 5187 C 497.127 5.62027 -2.42472 0
M  V30 5188 N 496.264 6.73719 -1.97602 0
M  V30 5189 H 501.104 2.25739 -1.9454 0
M  V30 5190 H 498.641 1.10659 -0.969179 0
M  V30 5191 H 500.599 4.15719 -0.351279 0
M  V30 5192 H 499.229 3.21473 0.292382 0
M  V30 5193 H 498.281 3.1539 -2.12681 0
M  V30 5194 H 499.593 4.25422 -2.60418 0
M  V30 5195 H 498.747 5.9833 -1.00429 0
M  V30 5196 H 497.486 4.85843 -0.425216 0
M  V30 5197 H 496.491 4.77318 -2.7285 0
M  V30 5198 H 497.716 5.93244 -3.30512 0
M  V30 5199 H 495.662 6.46287 -1.1247 0
M  V30 5200 H 495.579 7.03934 -2.75705 0
M  V30 5201 H 496.847 7.6049 -1.71098 0
M  V30 5202 N 501.076 1.04316 1.18135 0
M  V30 5203 C 502.322 0.749128 1.88457 0
M  V30 5204 C 502.655 -0.72149 1.803 0
M  V30 5205 O 501.93 -1.52676 1.205 0
M  V30 5206 C 502.213 1.21905 3.38838 0
M  V30 5207 C 502.066 2.75195 3.55792 0
M  V30 5208 C 503.385 0.811085 4.32561 0
M  V30 5209 H 500.504 0.273611 0.684329 0
M  V30 5210 H 503.146 1.29561 1.38975 0
M  V30 5211 H 501.296 0.754137 3.8111 0
M  V30 5212 H 502.968 3.29743 3.22595 0
M  V30 5213 H 501.211 3.14899 2.98364 0
M  V30 5214 H 501.882 3.03135 4.61317 0
M  V30 5215 H 504.358 1.21118 3.98082 0
M  V30 5216 H 503.234 1.16761 5.36338 0
M  V30 5217 H 503.495 -0.285596 4.41177 0
M  V30 5218 N 502.554 -1.34406 0.822964 0
M  V30 5219 C 503.97 -1.51275 0.508727 0
M  V30 5220 C 504.17 -1.76776 -0.967083 0
M  V30 5221 O 503.226 -1.81871 -1.75155 0
M  V30 5222 C 504.539 -2.67765 1.36829 0
M  V30 5223 C 506.087 -2.81647 1.36542 0
M  V30 5224 C 506.562 -4.01181 2.20947 0
M  V30 5225 N 508.053 -4.08388 2.18571 0
M  V30 5226 C 508.788 -5.00036 2.80627 0
M  V30 5227 N 508.284 -5.96906 3.51674 0
M  V30 5228 N 510.077 -4.92908 2.70181 0
M  V30 5229 H 502.228 -1.16113 1.77852 0
M  V30 5230 H 504.491 -0.56947 0.757897 0
M  V30 5231 H 504.197 -2.55551 2.41633 0
M  V30 5232 H 504.071 -3.62779 1.03303 0
M  V30 5233 H 506.458 -2.93303 0.325163 0
M  V30 5234 H 506.539 -1.87443 1.74066 0
M  V30 5235 H 506.183 -3.90286 3.25022 0
M  V30 5236 H 506.113 -4.94599 1.80774 0
M  V30 5237 H 508.604 -3.39051 1.66891 0
M  V30 5238 H 508.917 -6.63468 3.96271 0
M  V30 5239 H 507.262 -5.9703 3.5578 0
M  V30 5240 H 510.453 -4.1619 2.14251 0
M  V30 5241 H 510.626 -5.64137 3.18831 0
M  V30 5242 N 504.032 -0.577932 -1.46621 0
M  V30 5243 C 504.962 0.145917 -2.33044 0
M  V30 5244 C 505.943 0.888412 -1.45056 0
M  V30 5245 O 507.128 0.864812 -1.73881 0
M  V30 5246 C 504.258 1.16322 -3.27241 0
M  V30 5247 C 503.212 0.535868 -4.24632 0
M  V30 5248 C 502.538 1.65929 -5.08303 0
M  V30 5249 C 503.838 -0.523861 -5.19666 0
M  V30 5250 H 505.532 -0.575636 -2.93814 0
M  V30 5251 H 503.078 -0.278272 -1.41286 0
M  V30 5252 H 505.031 1.67793 -3.86553 0
M  V30 5253 H 503.755 1.91498 -2.64567 0
M  V30 5254 H 502.414 0.0422759 -3.66576 0
M  V30 5255 H 502.062 2.40061 -4.42018 0
M  V30 5256 H 501.762 1.2452 -5.74255 0
M  V30 5257 H 503.286 2.17686 -5.70478 0
M  V30 5258 H 504.7 -0.0944059 -5.73222 0
M  V30 5259 H 503.097 -0.858 -5.93935 0
M  V30 5260 H 504.167 -1.41197 -4.63887 0
M  V30 5261 N 505.51 1.54411 -0.315457 0
M  V30 5262 C 506.756 2.00716 0.289972 0
M  V30 5263 C 507.089 1.2034 1.5242 0
M  V30 5264 O 506.364 0.283579 1.92422 0
M  V30 5265 C 506.647 3.54507 0.632196 0
M  V30 5266 C 506.5 4.45615 -0.61218 0
M  V30 5267 C 507.819 4.15421 1.45305 0
M  V30 5268 H 504.938 0.729637 0.10392 0
M  V30 5269 H 507.58 1.8506 -0.430427 0
M  V30 5270 H 505.73 3.67979 1.24595 0
M  V30 5271 H 507.402 4.44026 -1.25053 0
M  V30 5272 H 505.645 4.15621 -1.24264 0
M  V30 5273 H 506.316 5.51022 -0.328379 0
M  V30 5274 H 508.792 4.05474 0.934331 0
M  V30 5275 H 507.668 5.23157 1.66127 0
M  V30 5276 H 507.929 3.68223 2.44671 0
M  V30 5277 N 506.988 0.0434614 1.5754 0
M  V30 5278 C 508.265 -0.671479 1.83713 0
M  V30 5279 C 508.645 -1.89495 0.930315 0
M  V30 5280 O 507.993 -2.28498 -0.0105639 0
M  V30 5281 C 508.203 -1.0361 3.33266 0
M  V30 5282 C 509.551 -1.42167 4.00092 0
M  V30 5283 O 510.575 -1.12866 3.37846 0
M  V30 5284 O 509.434 -1.96817 5.09829 0
M  V30 5285 H 506.528 -0.330726 0.75799 0
M  V30 5286 H 509.074 0.0722373 1.69546 0
M  V30 5287 H 507.846 -0.165938 3.90948 0
M  V30 5288 H 507.469 -1.83751 3.52592 0
M  V30 5289 N 508.466 -1.55915 -0.229846 0
M  V30 5290 C 509.743 -1.6932 -0.979295 0
M  V30 5291 C 510.123 -0.588321 -2.02736 0
M  V30 5292 O 509.471 0.40586 -2.24867 0
M  V30 5293 C 509.681 -3.10305 -1.59724 0
M  V30 5294 C 511.029 -3.6945 -2.09264 0
M  V30 5295 O 512.053 -3.13214 -1.69633 0
M  V30 5296 O 510.912 -4.68072 -2.82082 0
M  V30 5297 H 508.006 -0.689314 -0.456919 0
M  V30 5298 H 510.552 -1.68238 -0.222283 0
M  V30 5299 H 509.324 -3.82177 -0.840039 0
M  V30 5300 H 508.947 -3.1547 -2.42001 0
M  V30 5301 N 509.944 0.496216 -1.49584 0
M  V30 5302 C 511.174 1.27209 -1.62793 0
M  V30 5303 C 511.582 1.86799 -0.300476 0
M  V30 5304 O 510.925 1.68802 0.724674 0
M  V30 5305 C 510.987 2.43812 -2.64189 0
M  V30 5306 C 510.651 2.05055 -4.08414 0
M  V30 5307 C 511.648 1.58752 -4.9507 0
M  V30 5308 C 509.333 2.14543 -4.54177 0
M  V30 5309 C 511.327 1.22448 -6.25528 0
M  V30 5310 C 509.014 1.77851 -5.84647 0
M  V30 5311 C 510.012 1.31878 -6.70147 0
M  V30 5312 O 509.7 0.956834 -7.98185 0
M  V30 5313 H 509.432 0.391848 -0.550846 0
M  V30 5314 H 511.986 0.601712 -1.96389 0
M  V30 5315 H 510.216 3.13941 -2.25783 0
M  V30 5316 H 511.905 3.05829 -2.66877 0
M  V30 5317 H 512.671 1.50863 -4.60939 0
M  V30 5318 H 508.55 2.49277 -3.87791 0
M  V30 5319 H 512.094 0.864933 -6.92217 0
M  V30 5320 H 507.991 1.8539 -6.18305 0
M  V30 5321 H 508.759 1.08789 -8.11238 0
M  V30 5322 N 511.423 1.38739 0.74761 0
M  V30 5323 C 512.671 1.35007 1.50391 0
M  V30 5324 C 512.992 -0.0574274 1.94915 0
M  V30 5325 O 512.262 -1.00628 1.6808 0
M  V30 5326 H 510.842 0.496784 0.557866 0
M  V30 5327 H 513.504 1.73479 0.888319 0
M  V30 5328 H 512.6 2.00474 2.392 0
M  V30 5329 N 512.901 -0.976442 1.23707 0
M  V30 5330 C 513.851 -2.0544 0.988851 0
M  V30 5331 C 514.835 -1.60762 -0.0665901 0
M  V30 5332 O 516.027 -1.76396 0.14604 0
M  V30 5333 C 513.156 -3.38258 0.586223 0
M  V30 5334 C 512.242 -3.89523 1.67728 0
M  V30 5335 N 512.633 -4.13823 2.90834 0
M  V30 5336 C 510.931 -4.18097 1.55277 0
M  V30 5337 C 511.632 -4.55731 3.61502 0
M  V30 5338 N 510.608 -4.60394 2.8903 0
M  V30 5339 H 514.41 -2.22191 1.92376 0
M  V30 5340 H 511.924 -1.15954 1.13704 0
M  V30 5341 H 513.921 -4.15075 0.389658 0
M  V30 5342 H 512.581 -3.22898 -0.341594 0
M  V30 5343 H 513.592 -4.01529 3.271 0
M  V30 5344 H 510.269 -4.11719 0.692351 0
M  V30 5345 H 511.659 -4.83018 4.67059 0
M  V30 5346 N 514.379 -1.04941 -1.1758 0
M  V30 5347 C 515.329 -0.618378 -2.19454 0
M  V30 5348 C 516.313 0.343813 -1.57184 0
M  V30 5349 O 517.505 0.16145 -1.76262 0
M  V30 5350 C 514.634 0.00803847 -3.43299 0
M  V30 5351 C 513.72 -0.977827 -4.12673 0
M  V30 5352 N 514.111 -2.14826 -4.57912 0
M  V30 5353 C 512.409 -0.805748 -4.38661 0
M  V30 5354 C 513.11 -2.77174 -5.11419 0
M  V30 5355 N 512.086 -2.04989 -5.03468 0
M  V30 5356 H 515.888 -1.51018 -2.52132 0
M  V30 5357 H 513.402 -0.919201 -1.33882 0
M  V30 5358 H 515.399 0.334584 -4.15555 0
M  V30 5359 H 514.059 0.895272 -3.12114 0
M  V30 5360 H 515.07 -2.52673 -4.52081 0
M  V30 5361 H 511.747 0.0306506 -4.17489 0
M  V30 5362 H 513.137 -3.76416 -5.56562 0
M  V30 5363 N 515.857 1.33968 -0.830081 0
M  V30 5364 C 517.268 1.80439 -0.479455 0
M  V30 5365 C 517.619 1.68756 1.00079 0
M  V30 5366 O 516.744 1.23171 1.77927 0
M  V30 5367 C 517.339 3.27611 -0.863505 0
M  V30 5368 C 515.898 3.72133 -0.565145 0
M  V30 5369 C 515.045 2.55549 -1.07657 0
M  V30 5370 H 517.996 1.21614 -1.0196 0
M  V30 5371 H 518.017 3.8012 -0.170083 0
M  V30 5372 H 517.529 3.36082 -1.94089 0
M  V30 5373 H 515.63 3.69196 0.502536 0
M  V30 5374 H 515.743 4.65963 -1.11422 0
M  V30 5375 H 514.107 2.49788 -0.497807 0
M  V30 5376 H 514.89 2.66786 -2.16055 0
M  V30 5377 N 517.335 0.585699 1.46312 0
M  V30 5378 C 518.563 0.0781299 2.06752 0
M  V30 5379 C 518.978 -1.22812 1.43396 0
M  V30 5380 O 518.335 -1.74318 0.540314 0
M  V30 5381 C 518.386 -0.0911927 3.61385 0
M  V30 5382 O 518.107 1.16336 4.22371 0
M  V30 5383 C 519.608 -0.632765 4.38761 0
M  V30 5384 H 516.828 0.0588188 0.668417 0
M  V30 5385 H 519.372 0.807218 1.87894 0
M  V30 5386 H 517.527 -0.770514 3.7966 0
M  V30 5387 H 517.941 0.979082 5.15281 0
M  V30 5388 H 519.415 -0.70041 5.47538 0
M  V30 5389 H 519.892 -1.65039 4.07012 0
M  V30 5390 H 520.498 0.0117856 4.25298 0
M  V30 5391 N 518.813 -1.54241 0.323641 0
M  V30 5392 C 519.723 -2.28033 -0.551205 0
M  V30 5393 C 520.739 -1.32388 -1.12913 0
M  V30 5394 O 521.915 -1.65403 -1.14908 0
M  V30 5395 C 518.98 -3.02382 -1.69606 0
M  V30 5396 C 518.041 -4.13612 -1.14993 0
M  V30 5397 C 517.274 -4.84407 -2.24022 0
M  V30 5398 O 517.497 -4.54716 -3.44368 0
M  V30 5399 O 516.431 -5.71312 -1.89436 0
M  V30 5400 H 520.257 -3.03662 0.048066 0
M  V30 5401 H 517.842 -1.49133 0.0893289 0
M  V30 5402 H 519.724 -3.48941 -2.36259 0
M  V30 5403 H 518.399 -2.29628 -2.28151 0
M  V30 5404 H 517.306 -3.71402 -0.448484 0
M  V30 5405 H 518.639 -4.8841 -0.609608 0
M  V30 5406 N 520.291 -0.0518155 -1.57515 0
M  V30 5407 C 521.537 0.622745 -1.93002 0
M  V30 5408 C 521.87 1.70456 -0.930499 0
M  V30 5409 O 521.145 1.94452 0.0434086 0
M  V30 5410 C 521.428 1.21824 -3.38867 0
M  V30 5411 C 521.281 0.144434 -4.49568 0
M  V30 5412 C 522.6 2.12968 -3.8514 0
M  V30 5413 H 519.719 0.22491 -0.701844 0
M  V30 5414 H 522.361 -0.113711 -1.89659 0
M  V30 5415 H 520.511 1.8459 -3.41846 0
M  V30 5416 H 522.183 -0.48753 -4.58717 0
M  V30 5417 H 520.426 -0.527424 -4.30582 0
M  V30 5418 H 521.097 0.601127 -5.48717 0
M  V30 5419 H 523.573 1.60163 -3.8404 0
M  V30 5420 H 522.449 2.51578 -4.87852 0
M  V30 5421 H 522.71 3.03004 -3.21934 0
M  V30 5422 N 521.769 1.56035 0.221574 0
M  V30 5423 C 523.017 1.78693 0.944102 0
M  V30 5424 C 523.338 0.620317 1.8487 0
M  V30 5425 O 522.608 -0.362784 1.92512 0
M  V30 5426 H 521.188 0.659082 0.351597 0
M  V30 5427 H 523.85 1.93497 0.233435 0
M  V30 5428 H 522.946 2.70837 1.55093 0
M  V30 5429 N 523.247 -0.488276 1.49845 0
M  V30 5430 C 524.493 -1.24341 1.6021 0
M  V30 5431 C 524.826 -1.91967 0.293651 0
M  V30 5432 O 524.101 -1.81323 -0.703718 0
M  V30 5433 C 524.384 -2.3005 2.77036 0
M  V30 5434 C 524.237 -1.66842 4.17713 0
M  V30 5435 C 525.556 -3.31509 2.89464 0
M  V30 5436 H 522.675 -0.450704 0.583125 0
M  V30 5437 H 525.317 -0.539673 1.82174 0
M  V30 5438 H 523.467 -2.90071 2.58439 0
M  V30 5439 H 525.139 -1.1055 4.47858 0
M  V30 5440 H 523.382 -0.972079 4.22768 0
M  V30 5441 H 524.053 -2.43576 4.95353 0
M  V30 5442 H 526.529 -2.81493 3.06433 0
M  V30 5443 H 525.405 -4.02822 3.72861 0
M  V30 5444 H 525.666 -3.94603 1.99351 0
M  V30 5445 N 524.725 -1.39134 -0.740242 0
M  V30 5446 C 525.953 -1.39334 -1.5295 0
M  V30 5447 C 526.368 0.0135008 -1.88795 0
M  V30 5448 O 525.725 0.983524 -1.5373 0
M  V30 5449 C 525.776 -2.2614 -2.82034 0
M  V30 5450 O 525.497 -3.61345 -2.47712 0
M  V30 5451 C 526.998 -2.34666 -3.76094 0
M  V30 5452 H 524.218 -0.476103 -0.472828 0
M  V30 5453 H 526.762 -1.82883 -0.9151 0
M  V30 5454 H 524.917 -1.86018 -3.39818 0
M  V30 5455 H 525.331 -4.07194 -3.30595 0
M  V30 5456 H 526.805 -2.99663 -4.63579 0
M  V30 5457 H 527.282 -1.36426 -4.17474 0
M  V30 5458 H 527.888 -2.75236 -3.2423 0
M  V30 5459 N 526.204 0.969867 -1.24223 0
M  V30 5460 C 527.453 1.70687 -1.07466 0
M  V30 5461 C 527.766 1.91736 0.386861 0
M  V30 5462 O 528.972 2.62986 0.674581 0
M  V30 5463 C 527.428 3.07217 -1.87472 0
M  V30 5464 C 527.036 2.94018 -3.3802 0
M  V30 5465 C 528.78 3.84804 -1.79237 0
M  V30 5466 C 526.687 4.25844 -4.10379 0
M  V30 5467 H 525.617 0.640067 -0.398536 0
M  V30 5468 H 528.268 1.08092 -1.48285 0
M  V30 5469 H 526.65 3.70628 -1.39466 0
M  V30 5470 H 527.824 2.39632 -3.9359 0
M  V30 5471 H 526.139 2.29898 -3.47183 0
M  V30 5472 H 528.736 4.82417 -2.30603 0
M  V30 5473 H 529.079 4.09356 -0.757197 0
M  V30 5474 H 529.612 3.28115 -2.24912 0
M  V30 5475 H 526.351 4.06486 -5.14246 0
M  V30 5476 H 525.871 4.80054 -3.59594 0
M  V30 5477 H 527.55 4.94475 -4.17257 0
M  V30 5478 N 527.682 1.05563 1.17022 0
M  V30 5479 C 528.629 0.659893 2.21165 0
M  V30 5480 C 529.599 -0.339813 1.62587 0
M  V30 5481 O 530.784 -0.230378 1.89404 0
M  V30 5482 C 527.924 0.0447297 3.45071 0
M  V30 5483 C 527.037 1.09372 4.17926 0
M  V30 5484 C 526.172 0.445481 5.29329 0
M  V30 5485 C 525.211 1.47852 5.93975 0
M  V30 5486 N 524.348 0.854172 6.96885 0
M  V30 5487 H 529.188 1.55243 2.54369 0
M  V30 5488 H 526.725 0.776336 1.24946 0
M  V30 5489 H 528.683 -0.329404 4.15898 0
M  V30 5490 H 527.313 -0.811244 3.1244 0
M  V30 5491 H 526.365 1.58564 3.45777 0
M  V30 5492 H 527.677 1.87773 4.62107 0
M  V30 5493 H 526.831 0.0179688 6.06697 0
M  V30 5494 H 525.57 -0.370481 4.86291 0
M  V30 5495 H 524.575 1.91601 5.15334 0
M  V30 5496 H 525.8 2.29645 6.39093 0
M  V30 5497 H 523.746 0.0587882 6.55974 0
M  V30 5498 H 523.663 1.57567 7.39397 0
M  V30 5499 H 524.931 0.451559 7.78191 0
M  V30 5500 N 529.16 -1.33526 0.837174 0
M  V30 5501 C 530.123 -2.27551 0.274421 0
M  V30 5502 C 531.123 -1.50886 -0.555881 0
M  V30 5503 O 532.313 -1.70227 -0.369918 0
M  V30 5504 C 529.445 -3.35332 -0.613605 0
M  V30 5505 H 530.638 -2.78837 1.10408 0
M  V30 5506 H 528.191 -1.439 0.610126 0
M  V30 5507 H 528.926 -2.89285 -1.46577 0
M  V30 5508 H 528.711 -3.92095 -0.0195341 0
M  V30 5509 H 530.201 -4.05433 -1.00068 0
M  V30 5510 N 530.638 -0.59345 -1.46 0
M  V30 5511 C 531.601 0.123538 -2.28867 0
M  V30 5512 C 532.601 0.808628 -1.38989 0
M  V30 5513 O 533.791 0.658945 -1.61256 0
M  V30 5514 C 530.923 1.1847 -3.19653 0
M  V30 5515 H 532.116 -0.604843 -2.93737 0
M  V30 5516 H 529.669 -0.351875 -1.52288 0
M  V30 5517 H 530.404 1.94431 -2.59552 0
M  V30 5518 H 530.189 0.69783 -3.8584 0
M  V30 5519 H 531.679 1.68726 -3.81997 0
M  V30 5520 N 532.116 1.54067 -0.331816 0
M  V30 5521 C 533.532 1.59587 0.0205388 0
M  V30 5522 C 533.732 1.34813 1.49759 0
M  V30 5523 O 532.788 1.13661 2.25471 0
M  V30 5524 C 534.101 2.97959 -0.405103 0
M  V30 5525 C 535.649 3.10964 -0.356454 0
M  V30 5526 C 536.124 4.51694 -0.757384 0
M  V30 5527 N 537.615 4.57709 -0.71111 0
M  V30 5528 C 538.35 5.64729 -0.993427 0
M  V30 5529 N 537.846 6.79652 -1.3433 0
M  V30 5530 N 539.639 5.54546 -0.918442 0
M  V30 5531 H 531.79 1.68426 -1.29407 0
M  V30 5532 H 534.053 0.78819 -0.526745 0
M  V30 5533 H 533.759 3.21115 -1.43451 0
M  V30 5534 H 533.633 3.76524 0.225692 0
M  V30 5535 H 536.02 2.87538 0.663763 0
M  V30 5536 H 536.101 2.34484 -1.02229 0
M  V30 5537 H 535.745 4.75853 -1.77555 0
M  V30 5538 H 535.675 5.26555 -0.0691444 0
M  V30 5539 H 538.166 3.75176 -0.452883 0
M  V30 5540 H 538.479 7.57221 -1.54388 0
M  V30 5541 H 536.824 6.81128 -1.38164 0
M  V30 5542 H 540.015 4.63641 -0.644536 0
M  V30 5543 H 540.188 6.37861 -1.14181 0
M  V30 5544 N 533.594 0.0601682 1.57485 0
M  V30 5545 C 534.504 -0.926121 2.15546 0
M  V30 5546 C 535.52 -1.33532 1.11558 0
M  V30 5547 O 536.696 -1.4104 1.4377 0
M  V30 5548 C 533.761 -2.17952 2.69625 0
M  V30 5549 C 532.822 -1.82783 3.88444 0
M  V30 5550 C 532.055 -3.02148 4.39935 0
M  V30 5551 O 532.278 -4.15803 3.90466 0
M  V30 5552 O 531.212 -2.82639 5.31412 0
M  V30 5553 H 535.038 -0.462289 3.00161 0
M  V30 5554 H 532.623 -0.162246 1.48516 0
M  V30 5555 H 534.505 -2.91474 3.04337 0
M  V30 5556 H 533.18 -2.63456 1.88077 0
M  V30 5557 H 532.087 -1.06549 3.58606 0
M  V30 5558 H 533.42 -1.42072 4.7125 0
M  V30 5559 N 535.072 -1.5615 -0.213296 0
M  V30 5560 C 536.32 -1.79191 -0.934612 0
M  V30 5561 C 536.641 -0.630112 -1.84539 0
M  V30 5562 O 535.911 0.35257 -1.92701 0
M  V30 5563 H 534.491 -0.660937 -0.348097 0
M  V30 5564 H 537.153 -1.93618 -0.22317 0
M  V30 5565 H 536.249 -2.71656 -1.53654 0
M  V30 5566 N 536.55 0.480323 -1.50102 0
M  V30 5567 C 537.796 1.23208 -1.61837 0
M  V30 5568 C 538.151 1.89878 -0.310509 0
M  V30 5569 O 537.444 1.7871 0.690897 0
M  V30 5570 C 537.638 2.30708 -2.72963 0
M  V30 5571 C 537.467 1.74583 -4.14428 0
M  V30 5572 C 536.237 1.54964 -4.80951 0
M  V30 5573 C 538.435 1.24597 -4.98979 0
M  V30 5574 N 536.417 0.939855 -6.06663 0
M  V30 5575 C 537.788 0.758834 -6.15339 0
M  V30 5576 C 539.843 1.13365 -4.84822 0
M  V30 5577 C 538.546 0.17046 -7.19098 0
M  V30 5578 C 540.572 0.559221 -5.8875 0
M  V30 5579 C 539.934 0.082415 -7.04352 0
M  V30 5580 H 536.033 0.440065 -0.646426 0
M  V30 5581 H 538.617 0.535632 -1.87187 0
M  V30 5582 H 536.788 2.9779 -2.4935 0
M  V30 5583 H 538.52 2.97738 -2.74106 0
M  V30 5584 H 535.275 1.79926 -4.38091 0
M  V30 5585 H 535.699 0.653641 -6.73837 0
M  V30 5586 H 540.341 1.48823 -3.95742 0
M  V30 5587 H 538.059 -0.196347 -8.07861 0
M  V30 5588 H 541.645 0.474804 -5.79859 0
M  V30 5589 H 540.525 -0.355119 -7.83396 0
M  V30 5590 N 538.028 1.39524 0.732853 0
M  V30 5591 C 539.276 1.36594 1.48951 0
M  V30 5592 C 539.597 -0.0367507 1.94965 0
M  V30 5593 O 538.867 -0.988391 1.69138 0
M  V30 5594 H 537.447 0.502673 0.552566 0
M  V30 5595 H 540.109 1.74411 0.869869 0
M  V30 5596 H 539.205 2.03 2.3706 0
M  V30 5597 N 539.506 -0.963266 1.24736 0
M  V30 5598 C 540.783 -1.68248 0.9976 0
M  V30 5599 C 541.163 -2.05599 -0.478776 0
M  V30 5600 O 540.511 -1.7626 -1.45412 0
M  V30 5601 C 540.721 -2.91118 1.92487 0
M  V30 5602 C 542.069 -3.63261 2.19833 0
M  V30 5603 O 543.093 -3.01184 1.90176 0
M  V30 5604 O 541.952 -4.75019 2.7022 0
M  V30 5605 H 539.046 -0.735744 0.377637 0
M  V30 5606 H 541.592 -1.01696 1.35853 0
M  V30 5607 H 540.364 -2.60242 2.92215 0
M  V30 5608 H 539.987 -3.65402 1.56738 0
M  V30 5609 N 540.985 -1.06182 -1.16461 0
M  V30 5610 C 541.932 -0.671613 -2.20812 0
M  V30 5611 C 542.902 0.331186 -1.62765 0
M  V30 5612 O 544.087 0.22033 -1.89524 0
M  V30 5613 C 541.227 -0.063029 -3.45042 0
M  V30 5614 C 540.34 -1.11587 -4.1734 0
M  V30 5615 C 539.475 -0.473546 -5.29085 0
M  V30 5616 C 538.514 -1.51 -5.93182 0
M  V30 5617 N 537.651 -0.891118 -6.96422 0
M  V30 5618 H 542.491 -1.56589 -2.53542 0
M  V30 5619 H 540.028 -0.782951 -1.24532 0
M  V30 5620 H 541.986 0.307344 -4.16066 0
M  V30 5621 H 540.616 0.794663 -3.12866 0
M  V30 5622 H 539.668 -1.60396 -3.44931 0
M  V30 5623 H 540.98 -1.90221 -4.61104 0
M  V30 5624 H 540.134 -0.0501432 -6.06679 0
M  V30 5625 H 538.873 0.344687 -4.8648 0
M  V30 5626 H 537.878 -1.94331 -5.14311 0
M  V30 5627 H 539.103 -2.33031 -6.37866 0
M  V30 5628 H 537.049 -0.0935753 -6.55933 0
M  V30 5629 H 536.966 -1.61486 -7.38551 0
M  V30 5630 H 538.234 -0.492822 -7.77941 0
M  V30 5631 N 542.463 1.3308 -0.844243 0
M  V30 5632 C 543.879 1.50447 -0.532729 0
M  V30 5633 C 544.079 1.78292 0.938837 0
M  V30 5634 O 543.135 1.84635 1.72239 0
M  V30 5635 C 544.448 2.65555 -1.41072 0
M  V30 5636 C 545.996 2.7944 -1.41005 0
M  V30 5637 C 546.471 3.97616 -2.27301 0
M  V30 5638 N 547.962 4.0486 -2.2504 0
M  V30 5639 C 548.697 4.95508 -2.88547 0
M  V30 5640 N 548.193 5.91236 -3.61126 0
M  V30 5641 N 549.986 4.88548 -2.77989 0
M  V30 5642 H 542.137 1.13269 -1.79677 0
M  V30 5643 H 544.4 0.55734 -0.766861 0
M  V30 5644 H 544.106 2.51675 -2.45668 0
M  V30 5645 H 543.98 3.61089 -1.09061 0
M  V30 5646 H 546.367 2.92749 -0.371784 0
M  V30 5647 H 546.448 1.8465 -1.77026 0
M  V30 5648 H 546.092 3.85066 -3.3119 0
M  V30 5649 H 546.022 4.91661 -1.88619 0
M  V30 5650 H 548.513 3.36353 -1.72264 0
M  V30 5651 H 548.826 6.57079 -4.06776 0
M  V30 5652 H 547.171 5.91295 -3.65234 0
M  V30 5653 H 550.362 4.12729 -2.20846 0
M  V30 5654 H 550.535 5.58994 -3.27765 0
M  V30 5655 N 543.941 0.601185 1.45683 0
M  V30 5656 C 545.19 0.0914953 2.01492 0
M  V30 5657 C 545.503 -1.28331 1.47616 0
M  V30 5658 O 546.709 -1.88537 1.95362 0
M  V30 5659 C 545.165 0.11291 3.59723 0
M  V30 5660 C 544.773 1.48717 4.22596 0
M  V30 5661 C 546.517 -0.341871 4.23121 0
M  V30 5662 C 544.424 1.46531 5.7296 0
M  V30 5663 H 543.354 0.0304365 0.753385 0
M  V30 5664 H 546.005 0.755568 1.67223 0
M  V30 5665 H 544.387 -0.617692 3.91153 0
M  V30 5666 H 545.561 2.23897 4.02749 0
M  V30 5667 H 543.876 1.88351 3.71366 0
M  V30 5668 H 546.473 -0.377304 5.33367 0
M  V30 5669 H 546.816 -1.36325 3.93346 0
M  V30 5670 H 547.349 0.335256 3.96385 0
M  V30 5671 H 544.088 2.46408 6.07423 0
M  V30 5672 H 543.608 0.755997 5.95017 0
M  V30 5673 H 545.287 1.18618 6.36034 0
M  V30 5674 N 545.419 -1.53889 0.339982 0
M  V30 5675 C 546.665 -2.01152 -0.258003 0
M  V30 5676 C 546.998 -1.22749 -1.50487 0
M  V30 5677 O 546.273 -0.314156 -1.91946 0
M  V30 5678 C 546.556 -3.55468 -0.575717 0
M  V30 5679 C 546.409 -4.44584 0.682996 0
M  V30 5680 C 547.728 -4.1768 -1.38677 0
M  V30 5681 H 544.847 -0.731198 -0.0922992 0
M  V30 5682 H 547.489 -1.84352 0.459814 0
M  V30 5683 H 545.639 -3.69914 -1.18725 0
M  V30 5684 H 547.311 -4.41981 1.32102 0
M  V30 5685 H 545.554 -4.13592 1.3086 0
M  V30 5686 H 546.225 -5.5043 0.416001 0
M  V30 5687 H 548.701 -4.0691 -0.869705 0
M  V30 5688 H 547.577 -5.25734 -1.57783 0
M  V30 5689 H 547.838 -3.72069 -2.38782 0
M  V30 5690 N 546.897 -0.0685191 -1.57451 0
M  V30 5691 C 547.83 0.935736 -2.08133 0
M  V30 5692 C 548.808 1.29317 -0.985698 0
M  V30 5693 O 549.992 1.40304 -1.25886 0
M  V30 5694 C 547.119 2.2448 -2.53627 0
M  V30 5695 C 546.165 2.03917 -3.74593 0
M  V30 5696 S 546.998 1.30154 -5.19442 0
M  V30 5697 C 548.154 2.62346 -5.68265 0
M  V30 5698 H 548.387 0.504473 -2.92989 0
M  V30 5699 H 545.92 0.144169 -1.53725 0
M  V30 5700 H 547.878 2.99718 -2.80499 0
M  V30 5701 H 546.539 2.64731 -1.69045 0
M  V30 5702 H 545.732 3.00788 -4.04404 0
M  V30 5703 H 545.334 1.36815 -3.48077 0
M  V30 5704 H 547.626 3.58448 -5.7491 0
M  V30 5705 H 548.569 2.3715 -6.67207 0
M  V30 5706 H 548.977 2.69401 -4.96068 0
M  V30 5707 N 548.375 1.56261 0.205012 0
M  V30 5708 C 549.624 1.79236 0.925058 0
M  V30 5709 C 549.937 0.640011 1.84833 0
M  V30 5710 O 551.143 0.753809 2.60826 0
M  V30 5711 C 549.599 3.17475 1.69522 0
M  V30 5712 C 549.207 4.40482 0.817269 0
M  V30 5713 C 550.951 3.49766 2.4055 0
M  V30 5714 C 548.858 5.69744 1.58573 0
M  V30 5715 H 547.788 0.668287 0.349153 0
M  V30 5716 H 550.439 1.82629 0.178544 0
M  V30 5717 H 548.821 3.08304 2.48526 0
M  V30 5718 H 549.995 4.60752 0.0665988 0
M  V30 5719 H 548.31 4.15827 0.218316 0
M  V30 5720 H 550.907 4.43573 2.98575 0
M  V30 5721 H 551.25 2.73041 3.14252 0
M  V30 5722 H 551.783 3.60341 1.68522 0
M  V30 5723 H 548.522 6.49407 0.891679 0
M  V30 5724 H 548.042 5.53509 2.31059 0
M  V30 5725 H 549.721 6.1051 2.14212 0
M  V30 5726 N 549.853 -0.472356 1.50355 0
M  V30 5727 C 551.1 -1.22453 1.61281 0
M  V30 5728 C 551.428 -1.91972 0.31256 0
M  V30 5729 O 550.683 -1.82696 -0.701475 0
M  V30 5730 C 550.982 -2.29257 2.74182 0
M  V30 5731 C 550.648 -1.76999 4.14708 0
M  V30 5732 C 549.31 -1.62467 4.52944 0
M  V30 5733 C 551.662 -1.38215 5.0254 0
M  V30 5734 C 548.99 -1.07574 5.76754 0
M  V30 5735 C 551.342 -0.847638 6.26895 0
M  V30 5736 C 550.006 -0.688946 6.63935 0
M  V30 5737 H 549.276 -0.448087 0.590168 0
M  V30 5738 H 551.923 -0.520744 1.84284 0
M  V30 5739 H 550.228 -3.05538 2.45263 0
M  V30 5740 H 551.925 -2.87212 2.7984 0
M  V30 5741 H 548.515 -1.89276 3.84542 0
M  V30 5742 H 552.699 -1.48276 4.73633 0
M  V30 5743 H 547.955 -0.940237 6.04127 0
M  V30 5744 H 552.129 -0.538455 6.94315 0
M  V30 5745 H 549.756 -0.261435 7.5975 0
M  V30 5746 N 551.331 -1.39911 -0.725443 0
M  V30 5747 C 552.263 -1.35301 -1.85003 0
M  V30 5748 C 553.276 -0.260102 -1.60709 0
M  V30 5749 O 554.465 -0.519749 -1.70766 0
M  V30 5750 C 551.565 -1.08039 -3.21218 0
M  V30 5751 C 550.738 -2.28793 -3.7279 0
M  V30 5752 C 549.797 -1.97841 -4.87591 0
M  V30 5753 O 548.823 -2.70616 -5.00755 0
M  V30 5754 N 550.025 -0.950367 -5.72668 0
M  V30 5755 H 552.79 -2.32218 -1.89459 0
M  V30 5756 H 550.351 -1.34137 -0.90658 0
M  V30 5757 H 552.343 -0.853354 -3.95601 0
M  V30 5758 H 550.913 -0.198229 -3.11971 0
M  V30 5759 H 550.133 -2.67388 -2.8965 0
M  V30 5760 H 551.421 -3.09317 -4.03981 0
M  V30 5761 H 550.819 -0.347436 -5.64632 0
M  V30 5762 H 549.376 -0.783232 -6.47077 0
M  V30 5763 N 552.809 0.956637 -1.25245 0
M  V30 5764 C 554.22 1.51569 -1.09012 0
M  V30 5765 C 554.571 1.93322 0.334813 0
M  V30 5766 O 553.696 1.78421 1.22454 0
M  V30 5767 C 554.291 2.75444 -1.97271 0
M  V30 5768 C 552.85 3.27669 -1.8523 0
M  V30 5769 C 551.997 2.00517 -1.91542 0
M  V30 5770 H 554.948 0.773746 -1.3856 0
M  V30 5771 H 554.969 3.4919 -1.51151 0
M  V30 5772 H 554.481 2.45024 -3.00973 0
M  V30 5773 H 552.582 3.62914 -0.844045 0
M  V30 5774 H 552.695 3.9582 -2.69932 0
M  V30 5775 H 551.059 2.15727 -1.35404 0
M  V30 5776 H 551.842 1.72448 -2.96844 0
M  V30 5777 N 554.287 1.06798 1.15896 0
M  V30 5778 C 555.237 0.653213 2.18443 0
M  V30 5779 C 556.221 -0.318763 1.57711 0
M  V30 5780 O 557.413 -0.133388 1.76497 0
M  V30 5781 C 554.542 0.0465785 3.43268 0
M  V30 5782 C 553.628 1.04336 4.11066 0
M  V30 5783 N 554.019 2.22084 4.54436 0
M  V30 5784 C 552.317 0.875433 4.37324 0
M  V30 5785 C 553.018 2.85276 5.06944 0
M  V30 5786 N 551.994 2.12973 5.00143 0
M  V30 5787 H 555.796 1.55011 2.49698 0
M  V30 5788 H 553.31 0.940384 1.32403 0
M  V30 5789 H 555.307 -0.26843 4.16035 0
M  V30 5790 H 553.967 -0.845504 3.13499 0
M  V30 5791 H 554.978 2.59833 4.48004 0
M  V30 5792 H 551.655 0.0357721 4.17485 0
M  V30 5793 H 553.045 3.85223 5.50503 0
M  V30 5794 N 555.766 -1.3263 0.851289 0
M  V30 5795 C 557.182 -1.50162 0.5407 0
M  V30 5796 C 557.382 -1.78788 -0.929369 0
M  V30 5797 O 556.438 -1.85545 -1.71258 0
M  V30 5798 C 557.751 -2.64803 1.42478 0
M  V30 5799 C 559.299 -2.78688 1.42485 0
M  V30 5800 C 559.774 -3.96405 2.29407 0
M  V30 5801 N 561.265 -4.0366 2.27184 0
M  V30 5802 C 562 -4.93971 2.9117 0
M  V30 5803 N 561.496 -5.89313 3.64256 0
M  V30 5804 N 563.289 -4.87066 2.80576 0
M  V30 5805 H 555.44 -1.12315 1.80275 0
M  V30 5806 H 557.703 -0.553266 0.769806 0
M  V30 5807 H 557.409 -2.50368 2.46999 0
M  V30 5808 H 557.283 -3.60506 1.10974 0
M  V30 5809 H 559.67 -2.92547 0.387304 0
M  V30 5810 H 559.751 -1.83708 1.78002 0
M  V30 5811 H 559.395 -3.83304 3.33228 0
M  V30 5812 H 559.325 -4.90654 1.91224 0
M  V30 5813 H 561.816 -3.35435 1.74045 0
M  V30 5814 H 562.129 -6.54913 4.10255 0
M  V30 5815 H 560.474 -5.8935 3.68364 0
M  V30 5816 H 563.665 -4.11552 2.23031 0
M  V30 5817 H 563.838 -5.57248 3.30725 0
M  V30 5818 N 557.244 -0.608902 -1.45362 0
M  V30 5819 C 558.474 -0.110852 -2.06302 0
M  V30 5820 C 558.882 1.21062 -1.45398 0
M  V30 5821 O 558.225 1.74861 -0.562976 0
M  V30 5822 C 558.287 0.101793 -3.59356 0
M  V30 5823 C 557.951 -1.13808 -4.42602 0
M  V30 5824 C 558.948 -2.05653 -4.77496 0
M  V30 5825 C 556.633 -1.36727 -4.83333 0
M  V30 5826 C 558.627 -3.18745 -5.51978 0
M  V30 5827 C 556.314 -2.5012 -5.57569 0
M  V30 5828 C 557.312 -3.40957 -5.91809 0
M  V30 5829 O 557 -4.52376 -6.64538 0
M  V30 5830 H 556.732 -0.0666001 -0.672711 0
M  V30 5831 H 559.286 -0.836942 -1.87575 0
M  V30 5832 H 557.516 0.88279 -3.76489 0
M  V30 5833 H 559.205 0.551607 -4.02134 0
M  V30 5834 H 559.971 -1.89172 -4.46586 0
M  V30 5835 H 555.85 -0.669216 -4.56117 0
M  V30 5836 H 559.394 -3.8967 -5.78622 0
M  V30 5837 H 555.291 -2.66553 -5.87894 0
M  V30 5838 H 556.059 -4.51075 -6.82989 0
M  V30 5839 N 558.722 1.53707 -0.348139 0
M  V30 5840 C 559.947 2.05877 0.250883 0
M  V30 5841 C 560.372 1.22115 1.43072 0
M  V30 5842 O 559.73 0.235986 1.79758 0
M  V30 5843 C 559.778 3.54886 0.639416 0
M  V30 5844 O 558.882 3.73948 1.73888 0
M  V30 5845 H 558.223 0.662754 0.040653 0
M  V30 5846 H 560.753 1.98303 -0.503685 0
M  V30 5847 H 560.763 3.97601 0.915295 0
M  V30 5848 H 559.438 4.153 -0.223386 0
M  V30 5849 H 558.015 3.43134 1.45991 0
M  V30 5850 N 560.2 0.0768682 1.57412 0
M  V30 5851 C 561.616 -0.279772 1.57129 0
M  V30 5852 C 561.816 -1.69688 1.08666 0
M  V30 5853 O 560.872 -2.40953 0.754843 0
M  V30 5854 C 562.185 -0.0848055 3.0058 0
M  V30 5855 C 563.733 -0.153954 3.12621 0
M  V30 5856 C 564.208 0.0127946 4.57998 0
M  V30 5857 N 565.699 -0.0426435 4.6318 0
M  V30 5858 C 566.434 0.0618892 5.73367 0
M  V30 5859 N 565.93 0.220229 6.9245 0
M  V30 5860 N 567.723 0.00446072 5.621 0
M  V30 5861 H 559.874 1.00297 1.87228 0
M  V30 5862 H 562.137 0.391565 0.863354 0
M  V30 5863 H 561.843 0.89325 3.40168 0
M  V30 5864 H 561.717 -0.834961 3.67843 0
M  V30 5865 H 564.104 -1.1225 2.72917 0
M  V30 5866 H 564.185 0.627389 2.47987 0
M  V30 5867 H 563.829 0.978128 4.98392 0
M  V30 5868 H 563.759 -0.788016 5.20671 0
M  V30 5869 H 566.25 -0.163226 3.77547 0
M  V30 5870 H 566.563 0.291999 7.72248 0
M  V30 5871 H 564.908 0.255658 6.9453 0
M  V30 5872 H 568.099 -0.117979 4.67951 0
M  V30 5873 H 568.272 0.0893796 6.47938 0
M  V30 5874 N 561.678 -1.56367 -0.196722 0
M  V30 5875 C 562.906 -1.84639 -0.933608 0
M  V30 5876 C 563.321 -0.659164 -1.76919 0
M  V30 5877 O 562.678 0.372142 -1.78665 0
M  V30 5878 C 562.729 -3.11694 -1.83109 0
M  V30 5879 O 562.45 -4.25838 -1.02924 0
M  V30 5880 C 563.951 -3.53132 -2.67979 0
M  V30 5881 H 561.171 -0.613188 -0.272473 0
M  V30 5882 H 563.715 -2.03475 -0.204465 0
M  V30 5883 H 561.87 -2.94759 -2.51387 0
M  V30 5884 H 562.284 -4.98178 -1.64069 0
M  V30 5885 H 563.758 -4.45005 -3.26611 0
M  V30 5886 H 564.235 -2.76045 -3.41608 0
M  V30 5887 H 564.841 -3.72592 -2.05074 0
M  V30 5888 N 563.156 0.464375 -1.50603 0
M  V30 5889 C 564.572 0.798684 -1.38178 0
M  V30 5890 C 564.772 1.96568 -0.44308 0
M  V30 5891 O 563.828 2.52252 0.111814 0
M  V30 5892 C 565.141 1.10444 -2.79683 0
M  V30 5893 C 566.689 1.2105 -2.88645 0
M  V30 5894 C 567.164 1.54934 -4.30998 0
M  V30 5895 N 568.655 1.61913 -4.3398 0
M  V30 5896 C 569.39 1.8965 -5.41129 0
M  V30 5897 N 568.886 2.15361 -6.58477 0
M  V30 5898 N 570.679 1.91207 -5.28579 0
M  V30 5899 H 562.83 -0.304603 -2.10204 0
M  V30 5900 H 565.093 -0.0737804 -0.945125 0
M  V30 5901 H 564.799 0.319934 -3.50242 0
M  V30 5902 H 564.673 2.03896 -3.17342 0
M  V30 5903 H 567.06 1.98567 -2.18301 0
M  V30 5904 H 567.141 0.255613 -2.5452 0
M  V30 5905 H 566.785 0.779549 -5.01882 0
M  V30 5906 H 566.715 2.51584 -4.62615 0
M  V30 5907 H 569.206 1.44055 -3.49366 0
M  V30 5908 H 569.519 2.35818 -7.35941 0
M  V30 5909 H 567.864 2.1274 -6.6164 0
M  V30 5910 H 571.055 1.70622 -4.35897 0
M  V30 5911 H 571.228 2.12488 -6.12171 0
M  V30 5912 N 564.634 1.40294 0.718013 0
M  V30 5913 C 565.911 1.2894 1.47084 0
M  V30 5914 C 566.291 -0.0933625 2.10893 0
M  V30 5915 O 565.639 -1.10598 1.99951 0
M  V30 5916 C 565.849 2.4264 2.50852 0
M  V30 5917 C 567.197 2.8276 3.16752 0
M  V30 5918 O 568.221 2.42215 2.61171 0
M  V30 5919 O 567.08 3.528 4.17366 0
M  V30 5920 H 564.174 0.506236 0.653952 0
M  V30 5921 H 566.72 1.52208 0.750394 0
M  V30 5922 H 565.492 3.35009 2.022 0
M  V30 5923 H 565.115 2.21129 3.30435 0
M  V30 5924 N 566.112 -0.949982 1.2575 0
M  V30 5925 C 567.042 -2.06483 1.09028 0
M  V30 5926 C 568.023 -1.701 -0.00201532 0
M  V30 5927 O 569.208 -1.93469 0.168383 0
M  V30 5928 C 566.338 -3.39899 0.71316 0
M  V30 5929 C 565.292 -3.90309 1.75621 0
M  V30 5930 C 564.618 -5.20274 1.23365 0
M  V30 5931 C 565.918 -4.16169 3.15596 0
M  V30 5932 H 567.612 -2.20731 2.02283 0
M  V30 5933 H 565.158 -1.06066 0.973964 0
M  V30 5934 H 567.111 -4.17346 0.58309 0
M  V30 5935 H 565.835 -3.25602 -0.255091 0
M  V30 5936 H 564.494 -3.15035 1.8748 0
M  V30 5937 H 564.142 -5.02351 0.255491 0
M  V30 5938 H 563.842 -5.54971 1.93082 0
M  V30 5939 H 565.366 -6.00314 1.11607 0
M  V30 5940 H 566.78 -4.84259 3.06864 0
M  V30 5941 H 565.177 -4.62131 3.82825 0
M  V30 5942 H 566.247 -3.22273 3.6231 0
M  V30 5943 N 567.59 -1.07411 -1.15328 0
M  V30 5944 C 568.837 -0.797649 -1.86128 0
M  V30 5945 C 569.165 0.676298 -1.82364 0
M  V30 5946 O 568.42 1.51223 -1.24218 0
M  V30 5947 C 568.719 -1.25191 -3.34757 0
M  V30 5948 C 568.385 -2.73191 -3.58716 0
M  V30 5949 C 567.047 -3.13616 -3.64964 0
M  V30 5950 C 569.399 -3.68718 -3.6837 0
M  V30 5951 C 566.727 -4.48383 -3.78377 0
M  V30 5952 C 569.079 -5.03248 -3.83306 0
M  V30 5953 C 567.743 -5.43293 -3.878 0
M  V30 5954 H 567.013 -0.29188 -0.681092 0
M  V30 5955 H 569.66 -1.34524 -1.36292 0
M  V30 5956 H 567.965 -0.623712 -3.86804 0
M  V30 5957 H 569.662 -1.01489 -3.87945 0
M  V30 5958 H 566.252 -2.40898 -3.54494 0
M  V30 5959 H 570.436 -3.38614 -3.62842 0
M  V30 5960 H 565.692 -4.78877 -3.80114 0
M  V30 5961 H 569.866 -5.77142 -3.89718 0
M  V30 5962 H 567.493 -6.47721 -3.97946 0
M  V30 5963 N 569.068 1.32177 -0.85831 0
M  V30 5964 C 570.345 1.91781 -0.384624 0
M  V30 5965 C 570.725 1.78171 1.13217 0
M  V30 5966 O 570.073 1.18209 1.95548 0
M  V30 5967 C 570.283 3.38414 -0.853047 0
M  V30 5968 C 571.631 4.15542 -0.872359 0
M  V30 5969 O 572.655 3.47148 -0.797926 0
M  V30 5970 O 571.514 5.37678 -0.978009 0
M  V30 5971 H 568.608 0.819259 -0.112886 0
M  V30 5972 H 571.154 1.40923 -0.945453 0
M  V30 5973 H 569.926 3.4228 -1.89632 0
M  V30 5974 H 569.549 3.96683 -0.269874 0
M  V30 5975 N 570.547 0.616602 1.45037 0
M  V30 5976 C 571.824 0.0469086 1.95544 0
M  V30 5977 C 572.204 -1.42345 1.55888 0
M  V30 5978 O 571.552 -2.13055 0.825824 0
M  V30 5979 C 571.762 0.254489 3.48071 0
M  V30 5980 C 573.11 0.140025 4.24369 0
M  V30 5981 O 574.134 0.185084 3.55719 0
M  V30 5982 O 572.993 0.0327034 5.4649 0
M  V30 5983 H 570.087 -0.0306051 0.826433 0
M  V30 5984 H 572.633 0.687293 1.55159 0
M  V30 5985 H 571.405 1.27532 3.69934 0
M  V30 5986 H 571.028 -0.42073 3.95368 0
M  V30 5987 N 572.025 -1.5352 0.356285 0
M  V30 5988 C 573.272 -2.01117 -0.236303 0
M  V30 5989 C 573.6 -1.24381 -1.49531 0
M  V30 5990 O 572.855 -0.323057 -1.93015 0
M  V30 5991 C 573.154 -3.52607 -0.583369 0
M  V30 5992 C 572.82 -4.47151 0.58023 0
M  V30 5993 C 571.482 -4.72718 0.899528 0
M  V30 5994 C 573.834 -5.03137 1.36024 0
M  V30 5995 C 571.162 -5.51523 2.00098 0
M  V30 5996 C 573.514 -5.83145 2.45204 0
M  V30 5997 C 572.178 -6.07001 2.77679 0
M  V30 5998 H 571.448 -0.735938 -0.0864695 0
M  V30 5999 H 574.095 -1.85209 0.48683 0
M  V30 6000 H 572.4 -3.66413 -1.38739 0
M  V30 6001 H 574.097 -3.86901 -1.05397 0
M  V30 6002 H 570.687 -4.27394 0.321322 0
M  V30 6003 H 574.871 -4.83339 1.12682 0
M  V30 6004 H 570.127 -5.68229 2.25668 0
M  V30 6005 H 574.301 -6.25537 3.06067 0
M  V30 6006 H 571.928 -6.67851 3.63151 0
M  V30 6007 N 573.503 -0.0852151 -1.57369 0
M  V30 6008 C 574.749 0.581666 -1.94279 0
M  V30 6009 C 575.082 1.68444 -0.966446 0
M  V30 6010 O 574.357 1.945 0.00215277 0
M  V30 6011 C 574.64 1.14609 -3.41375 0
M  V30 6012 C 574.493 0.0490414 -4.49773 0
M  V30 6013 C 575.812 2.04751 -3.8957 0
M  V30 6014 H 572.931 0.209972 -0.706456 0
M  V30 6015 H 575.573 -0.153915 -1.89376 0
M  V30 6016 H 573.723 1.77297 -3.45685 0
M  V30 6017 H 575.395 -0.584721 -4.57579 0
M  V30 6018 H 573.638 -0.618638 -4.29366 0
M  V30 6019 H 574.309 0.484601 -5.49869 0
M  V30 6020 H 576.785 1.51981 -3.87351 0
M  V30 6021 H 575.661 2.41173 -4.93079 0
M  V30 6022 H 575.922 2.96107 -3.28288 0
M  V30 6023 N 574.981 1.5647 0.188427 0
M  V30 6024 C 575.913 1.91611 1.25769 0
M  V30 6025 C 576.926 0.807436 1.41366 0
M  V30 6026 O 578.115 1.08586 1.41673 0
M  V30 6027 C 575.215 2.13874 2.6289 0
M  V30 6028 C 574.388 3.45047 2.68815 0
M  V30 6029 C 573.447 3.56342 3.87178 0
M  V30 6030 O 572.473 4.29109 3.73971 0
M  V30 6031 N 573.675 2.89924 5.02916 0
M  V30 6032 H 576.44 2.8393 0.959373 0
M  V30 6033 H 574.001 1.57418 0.378306 0
M  V30 6034 H 575.993 2.18713 3.4051 0
M  V30 6035 H 574.563 1.28022 2.85183 0
M  V30 6036 H 573.783 3.52017 1.77419 0
M  V30 6037 H 575.071 4.31395 2.6977 0
M  V30 6038 H 574.469 2.30644 5.16546 0
M  V30 6039 H 573.026 3.0038 5.78459 0
M  V30 6040 N 576.459 -0.456382 1.50847 0
M  V30 6041 C 577.705 -1.20914 1.62811 0
M  V30 6042 C 578.038 -1.91301 0.334304 0
M  V30 6043 O 577.313 -1.82775 -0.665098 0
M  V30 6044 C 577.596 -2.24122 2.81853 0
M  V30 6045 C 577.449 -1.57944 4.21158 0
M  V30 6046 C 578.768 -3.25295 2.96431 0
M  V30 6047 H 575.887 -0.438233 0.592554 0
M  V30 6048 H 578.529 -0.50091 1.83278 0
M  V30 6049 H 576.679 -2.84524 2.64534 0
M  V30 6050 H 578.351 -1.01025 4.50102 0
M  V30 6051 H 576.594 -0.882185 4.24735 0
M  V30 6052 H 577.265 -2.33014 5.00408 0
M  V30 6053 H 579.741 -2.7493 3.12335 0
M  V30 6054 H 578.617 -3.94822 3.81322 0
M  V30 6055 H 578.878 -3.90286 2.07676 0
M  V30 6056 N 577.937 -1.40673 -0.710563 0
M  V30 6057 C 578.867 -1.44095 -1.83736 0
M  V30 6058 C 579.848 -0.301286 -1.67411 0
M  V30 6059 O 581.033 -0.510618 -1.87367 0
M  V30 6060 C 578.163 -1.30773 -3.21738 0
M  V30 6061 C 577.117 -2.42395 -3.52745 0
M  V30 6062 C 576.443 -2.14147 -4.89944 0
M  V30 6063 C 577.743 -3.84738 -3.53234 0
M  V30 6064 H 579.437 -2.38396 -1.81129 0
M  V30 6065 H 576.983 -1.14746 -0.870017 0
M  V30 6066 H 578.936 -1.31783 -4.00264 0
M  V30 6067 H 577.66 -0.329507 -3.24934 0
M  V30 6068 H 576.319 -2.40643 -2.76562 0
M  V30 6069 H 575.967 -1.14703 -4.89747 0
M  V30 6070 H 575.667 -2.88934 -5.11655 0
M  V30 6071 H 577.191 -2.16848 -5.70797 0
M  V30 6072 H 578.605 -3.88286 -4.2179 0
M  V30 6073 H 577.002 -4.59085 -3.86473 0
M  V30 6074 H 578.072 -4.13962 -2.52514 0
M  V30 6075 N 579.415 0.9433 -1.26252 0
M  V30 6076 C 580.64 1.72898 -1.14547 0
M  V30 6077 C 581.065 1.85761 0.295743 0
M  V30 6078 O 580.423 1.3463 1.21427 0
M  V30 6079 C 580.471 3.11471 -1.8171 0
M  V30 6080 O 579.575 3.97336 -1.10445 0
M  V30 6081 H 578.916 0.530555 -0.399259 0
M  V30 6082 H 581.446 1.18159 -1.67032 0
M  V30 6083 H 581.456 3.61872 -1.88449 0
M  V30 6084 H 580.131 3.01425 -2.86558 0
M  V30 6085 H 578.708 3.55788 -1.11666 0
M  V30 6086 N 580.893 1.08022 1.14757 0
M  V30 6087 C 581.825 0.664566 2.19354 0
M  V30 6088 C 582.838 -0.286374 1.60261 0
M  V30 6089 O 584.027 -0.0746362 1.78344 0
M  V30 6090 C 581.127 -0.0434634 3.38872 0
M  V30 6091 C 580.3 0.925381 4.27499 0
M  V30 6092 C 579.359 0.253398 5.2559 0
M  V30 6093 O 578.385 0.896581 5.62094 0
M  V30 6094 N 579.587 -0.998263 5.71852 0
M  V30 6095 H 582.352 1.56438 2.55631 0
M  V30 6096 H 579.913 0.965788 1.29939 0
M  V30 6097 H 581.905 -0.503857 4.01551 0
M  V30 6098 H 580.475 -0.845321 3.00954 0
M  V30 6099 H 579.695 1.56472 3.61815 0
M  V30 6100 H 580.983 1.58203 4.8358 0
M  V30 6101 H 580.381 -1.54063 5.44317 0
M  V30 6102 H 578.938 -1.40222 6.36538 0
M  V30 6103 N 582.371 -1.3172 0.865308 0
M  V30 6104 C 583.617 -1.97168 0.474633 0
M  V30 6105 C 583.95 -1.68263 -0.969604 0
M  V30 6106 O 583.225 -0.976588 -1.68205 0
M  V30 6107 C 583.508 -3.52689 0.726808 0
M  V30 6108 C 583.361 -3.91185 2.22024 0
M  V30 6109 C 584.68 -4.39689 0.190201 0
M  V30 6110 H 581.799 -0.716185 0.17392 0
M  V30 6111 H 584.441 -1.55925 1.08569 0
M  V30 6112 H 582.591 -3.8795 0.206705 0
M  V30 6113 H 584.263 -3.66049 2.80724 0
M  V30 6114 H 582.506 -3.3996 2.69462 0
M  V30 6115 H 583.177 -4.99604 2.34735 0
M  V30 6116 H 585.653 -4.11225 0.635103 0
M  V30 6117 H 584.529 -5.47469 0.396132 0
M  V30 6118 H 584.79 -4.32683 -0.907625 0
M  V30 6119 N 583.85 -0.624285 -1.44708 0
M  V30 6120 C 585.127 -0.0572781 -1.95516 0
M  V30 6121 C 585.507 1.41516 -1.56641 0
M  V30 6122 O 584.855 2.12614 -0.837111 0
M  V30 6123 C 585.065 -0.272944 -3.47931 0
M  V30 6124 C 586.413 -0.162529 -4.24289 0
M  V30 6125 O 587.437 -0.203946 -3.55616 0
M  V30 6126 O 586.296 -0.0616847 -5.46465 0
M  V30 6127 H 583.389 0.0262219 -0.826584 0
M  V30 6128 H 585.936 -0.695512 -1.54793 0
M  V30 6129 H 584.707 -1.29492 -3.69253 0
M  V30 6130 H 584.331 0.399756 -3.95585 0
M  V30 6131 N 585.328 1.53329 -0.364422 0
M  V30 6132 C 586.291 2.24323 0.470292 0
M  V30 6133 C 587.291 1.25068 1.01067 0
M  V30 6134 O 588.481 1.49354 0.896605 0
M  V30 6135 C 585.613 2.97908 1.65722 0
M  V30 6136 H 586.806 2.9952 -0.150917 0
M  V30 6137 H 584.359 1.55868 -0.116092 0
M  V30 6138 H 585.094 2.2695 2.31655 0
M  V30 6139 H 584.879 3.70732 1.27671 0
M  V30 6140 H 586.369 3.5188 2.24878 0
M  V30 6141 N 586.806 0.0935595 1.57322 0
M  V30 6142 C 587.736 -0.863062 2.16964 0
M  V30 6143 C 588.717 -1.29528 1.10256 0
M  V30 6144 O 589.902 -1.36245 1.38387 0
M  V30 6145 C 587.032 -2.12276 2.74875 0
M  V30 6146 C 585.986 -1.82921 3.86942 0
M  V30 6147 C 585.312 -3.15707 4.31548 0
M  V30 6148 C 586.612 -1.11737 5.10208 0
M  V30 6149 H 588.306 -0.366145 2.97153 0
M  V30 6150 H 585.852 -0.174673 1.42937 0
M  V30 6151 H 587.805 -2.79634 3.1525 0
M  V30 6152 H 586.529 -2.64248 1.91938 0
M  V30 6153 H 585.188 -1.17961 3.47103 0
M  V30 6154 H 584.836 -3.65563 3.45504 0
M  V30 6155 H 584.536 -2.96849 5.07104 0
M  V30 6156 H 586.06 -3.84226 4.74555 0
M  V30 6157 H 587.474 -1.69203 5.47762 0
M  V30 6158 H 585.871 -1.03064 5.91183 0
M  V30 6159 H 586.941 -0.0998818 4.84797 0
M  V30 6160 N 588.284 -1.56567 -0.180126 0
M  V30 6161 C 589.533 -1.80685 -0.896426 0
M  V30 6162 C 589.846 -0.669335 -1.83791 0
M  V30 6163 O 591.052 -0.795209 -2.59593 0
M  V30 6164 C 589.508 -3.20132 -1.6445 0
M  V30 6165 C 589.116 -4.41727 -0.747088 0
M  V30 6166 C 590.86 -3.53549 -2.34955 0
M  V30 6167 C 588.767 -5.72195 -1.49489 0
M  V30 6168 H 587.697 -0.673758 -0.338477 0
M  V30 6169 H 590.348 -1.8289 -0.149467 0
M  V30 6170 H 588.73 -3.12218 -2.43589 0
M  V30 6171 H 589.904 -4.608 0.00671129 0
M  V30 6172 H 588.219 -4.16122 -0.152134 0
M  V30 6173 H 590.816 -4.48267 -2.91481 0
M  V30 6174 H 591.159 -2.78006 -3.09868 0
M  V30 6175 H 591.692 -3.62976 -1.62768 0
M  V30 6176 H 588.431 -6.50743 -0.788251 0
M  V30 6177 H 587.951 -5.57115 -2.22224 0
M  V30 6178 H 589.63 -6.1384 -2.04472 0
M  V30 6179 N 589.762 0.448376 -1.51087 0
M  V30 6180 C 590.695 1.56298 -1.66272 0
M  V30 6181 C 591.673 1.54381 -0.510419 0
M  V30 6182 O 592.857 1.73671 -0.732854 0
M  V30 6183 C 589.984 2.94883 -1.66618 0
M  V30 6184 C 589.03 3.14868 -2.87681 0
M  V30 6185 S 589.863 2.9234 -4.48662 0
M  V30 6186 C 591.019 4.33227 -4.51735 0
M  V30 6187 H 591.252 1.43182 -2.6055 0
M  V30 6188 H 588.785 0.637309 -1.40633 0
M  V30 6189 H 590.743 3.74771 -1.67502 0
M  V30 6190 H 589.404 3.05371 -0.735358 0
M  V30 6191 H 588.597 4.16166 -2.84292 0
M  V30 6192 H 588.199 2.42788 -2.84482 0
M  V30 6193 H 590.491 5.26247 -4.26697 0
M  V30 6194 H 591.434 4.41653 -5.53487 0
M  V30 6195 H 591.842 4.16367 -3.81181 0
M  V30 6196 N 591.24 1.41047 0.703093 0
M  V30 6197 C 592.17 1.45067 1.82969 0
M  V30 6198 C 593.151 0.31016 1.67248 0
M  V30 6199 O 594.336 0.520548 1.87093 0
M  V30 6200 C 591.466 1.32478 3.2104 0
M  V30 6201 C 590.42 2.44262 3.51454 0
M  V30 6202 C 589.746 2.16742 4.88801 0
M  V30 6203 C 591.046 3.86606 3.51189 0
M  V30 6204 H 592.74 2.39353 1.79863 0
M  V30 6205 H 590.286 1.15206 0.863919 0
M  V30 6206 H 592.239 1.33904 3.99559 0
M  V30 6207 H 590.963 0.346735 3.24754 0
M  V30 6208 H 589.622 2.42107 2.75282 0
M  V30 6209 H 589.27 1.17299 4.89132 0
M  V30 6210 H 588.97 2.91643 5.10116 0
M  V30 6211 H 590.494 2.19872 5.69639 0
M  V30 6212 H 591.908 3.90517 4.19725 0
M  V30 6213 H 590.305 4.61128 3.84033 0
M  V30 6214 H 591.375 4.15296 2.50315 0
M  V30 6215 N 592.718 -0.936591 1.26751 0
M  V30 6216 C 593.995 -1.66094 1.03306 0
M  V30 6217 C 594.375 -2.06568 -0.435058 0
M  V30 6218 O 593.723 -1.79305 -1.41641 0
M  V30 6219 C 593.933 -2.86969 1.98619 0
M  V30 6220 C 595.281 -3.58516 2.27489 0
M  V30 6221 O 596.305 -2.97082 1.96522 0
M  V30 6222 O 595.164 -4.69181 2.80235 0
M  V30 6223 H 592.258 -0.727568 0.393158 0
M  V30 6224 H 594.804 -0.987914 1.3798 0
M  V30 6225 H 593.576 -2.53985 2.9767 0
M  V30 6226 H 593.199 -3.61996 1.64454 0
M  V30 6227 N 594.196 -1.08629 -1.14182 0
M  V30 6228 C 595.442 -0.818556 -1.85546 0
M  V30 6229 C 595.775 0.654076 -1.82854 0
M  V30 6230 O 595.05 1.48099 -1.26083 0
M  V30 6231 C 595.333 -1.34397 -3.3408 0
M  V30 6232 C 595.186 -2.8821 -3.45333 0
M  V30 6233 C 596.505 -0.971069 -4.29253 0
M  V30 6234 H 593.624 -0.298821 -0.673702 0
M  V30 6235 H 596.266 -1.34629 -1.34071 0
M  V30 6236 H 594.416 -0.895064 -3.78049 0
M  V30 6237 H 596.088 -3.41488 -3.10134 0
M  V30 6238 H 594.331 -3.25756 -2.86471 0
M  V30 6239 H 595.002 -3.20047 -4.49749 0
M  V30 6240 H 597.478 -1.35809 -3.93313 0
M  V30 6241 H 596.354 -1.36586 -5.31635 0
M  V30 6242 H 596.615 0.121659 -4.41933 0
M  V30 6243 N 595.674 1.31259 -0.872281 0
M  V30 6244 C 596.904 2.00504 -0.498183 0
M  V30 6245 C 597.312 1.65632 0.914479 0
M  V30 6246 O 596.655 0.882849 1.61095 0
M  V30 6247 C 596.717 3.5482 -0.578194 0
M  V30 6248 C 596.381 4.13172 -1.95289 0
M  V30 6249 C 597.378 4.30107 -2.92069 0
M  V30 6250 C 595.063 4.48846 -2.25483 0
M  V30 6251 C 597.057 4.81908 -4.17185 0
M  V30 6252 C 594.744 5.00349 -3.50847 0
M  V30 6253 C 595.742 5.16831 -4.46514 0
M  V30 6254 O 595.43 5.67228 -5.69656 0
M  V30 6255 H 595.162 0.648055 -0.192354 0
M  V30 6256 H 597.716 1.6841 -1.17589 0
M  V30 6257 H 595.946 3.86383 0.156438 0
M  V30 6258 H 597.635 4.05318 -0.217192 0
M  V30 6259 H 598.401 4.02862 -2.7005 0
M  V30 6260 H 594.28 4.35292 -1.51795 0
M  V30 6261 H 597.824 4.94688 -4.91863 0
M  V30 6262 H 593.721 5.27028 -3.72708 0
M  V30 6263 H 594.489 5.85592 -5.7186 0
M  V30 6264 N 597.152 0.631951 1.44375 0
M  V30 6265 C 598.115 -0.0628142 2.29114 0
M  V30 6266 C 599.115 -0.771494 1.41084 0
M  V30 6267 O 600.305 -0.615959 1.62947 0
M  V30 6268 C 597.437 -1.09953 3.22681 0
M  V30 6269 H 598.63 0.682509 2.92031 0
M  V30 6270 H 596.183 0.392128 1.51301 0
M  V30 6271 H 596.918 -1.87481 2.64616 0
M  V30 6272 H 596.703 -0.595286 3.87555 0
M  V30 6273 H 598.193 -1.58538 3.86336 0
M  V30 6274 N 598.631 -1.53133 0.372548 0
M  V30 6275 C 599.594 -2.24569 -0.458389 0
M  V30 6276 C 600.594 -1.25603 -1.00402 0
M  V30 6277 O 601.784 -1.49827 -0.888672 0
M  V30 6278 C 598.916 -2.98783 -1.6414 0
M  V30 6279 H 600.109 -2.99436 0.166799 0
M  V30 6280 H 597.662 -1.55805 0.124357 0
M  V30 6281 H 598.397 -2.28176 -2.30448 0
M  V30 6282 H 598.182 -3.71404 -1.25704 0
M  V30 6283 H 599.672 -3.53068 -2.23008 0
M  V30 6284 N 600.109 -0.101901 -1.5727 0
M  V30 6285 C 601.357 0.559091 -1.94213 0
M  V30 6286 C 601.678 1.68297 -0.984948 0
M  V30 6287 O 600.948 1.95863 -0.0381975 0
M  V30 6288 H 599.528 0.20952 -0.717015 0
M  V30 6289 H 602.19 -0.166831 -1.94185 0
M  V30 6290 H 601.286 0.96485 -2.96811 0
M  V30 6291 N 601.587 1.56661 0.17182 0
M  V30 6292 C 602.497 1.99604 1.2327 0
M  V30 6293 C 603.513 0.907333 1.4847 0
M  V30 6294 O 604.689 1.21492 1.60629 0
M  V30 6295 C 601.754 2.34685 2.55194 0
M  V30 6296 C 600.815 3.57381 2.3786 0
M  V30 6297 C 600.048 3.90779 3.63494 0
M  V30 6298 O 600.271 3.25152 4.6865 0
M  V30 6299 O 599.205 4.84129 3.57634 0
M  V30 6300 H 603.031 2.90114 0.898192 0
M  V30 6301 H 600.616 1.44522 0.378647 0
M  V30 6302 H 602.498 2.5822 3.33017 0
M  V30 6303 H 601.173 1.47336 2.88225 0
M  V30 6304 H 600.08 3.39064 1.5807 0
M  V30 6305 H 601.413 4.45268 2.09754 0
M  V30 6306 N 603.065 -0.440357 1.51323 0
M  V30 6307 C 604.028 -1.51679 1.71832 0
M  V30 6308 C 605.028 -1.49648 0.588386 0
M  V30 6309 O 606.218 -1.51724 0.855891 0
M  V30 6310 C 603.35 -2.91228 1.77199 0
M  V30 6311 H 604.543 -1.34799 2.67898 0
M  V30 6312 H 602.096 -0.66883 1.41267 0
M  V30 6313 H 602.831 -3.13516 0.829363 0
M  V30 6314 H 602.616 -2.94107 2.59314 0
M  V30 6315 H 604.106 -3.69321 1.94915 0
M  V30 6316 N 604.543 -1.41418 -0.695603 0
M  V30 6317 C 605.954 -1.36335 -1.27552 0
M  V30 6318 C 606.305 -0.0464336 -1.96145 0
M  V30 6319 O 605.43 0.855304 -1.9878 0
M  V30 6320 C 606.025 -2.46941 -2.3196 0
M  V30 6321 C 604.584 -2.45256 -2.85529 0
M  V30 6322 C 603.731 -2.2679 -1.59566 0
M  V30 6323 H 606.682 -1.50934 -0.490362 0
M  V30 6324 H 606.703 -2.15997 -3.1325 0
M  V30 6325 H 606.215 -3.42775 -1.82008 0
M  V30 6326 H 604.316 -1.53179 -3.39657 0
M  V30 6327 H 604.429 -3.41565 -3.35961 0
M  V30 6328 H 602.793 -1.74667 -1.85374 0
M  V30 6329 H 603.576 -3.24651 -1.1161 0
M  V30 6330 N 606.021 0.929856 -1.27246 0
M  V30 6331 C 607.27 1.67182 -1.12842 0
M  V30 6332 C 607.583 1.9287 0.325666 0
M  V30 6333 O 608.789 2.64999 0.590572 0
M  V30 6334 C 607.245 3.01097 -1.97151 0
M  V30 6335 C 606.853 2.83115 -3.47203 0
M  V30 6336 C 608.597 3.78907 -1.91389 0
M  V30 6337 C 606.504 4.12573 -4.23719 0
M  V30 6338 H 605.434 0.627064 -0.418697 0
M  V30 6339 H 608.085 1.0332 -1.51649 0
M  V30 6340 H 606.467 3.66004 -1.51186 0
M  V30 6341 H 607.641 2.26989 -4.01015 0
M  V30 6342 H 605.956 2.18736 -3.54321 0
M  V30 6343 H 608.553 4.74837 -2.45834 0
M  V30 6344 H 608.896 4.0674 -0.887047 0
M  V30 6345 H 609.429 3.20794 -2.35237 0
M  V30 6346 H 606.168 3.8992 -5.26918 0
M  V30 6347 H 605.688 4.68371 -3.74685 0
M  V30 6348 H 607.367 4.8095 -4.32777 0
M  V30 6349 N 607.499 1.09233 1.13605 0
M  V30 6350 C 608.745 0.828385 1.8511 0
M  V30 6351 C 609.078 -0.64437 1.83198 0
M  V30 6352 O 608.353 -1.47428 1.26867 0
M  V30 6353 C 608.636 1.36167 3.33363 0
M  V30 6354 C 608.489 2.90038 3.438 0
M  V30 6355 C 609.808 0.993819 4.28732 0
M  V30 6356 H 606.927 0.30239 0.672108 0
M  V30 6357 H 609.569 1.35339 1.33355 0
M  V30 6358 H 607.719 0.9151 3.77569 0
M  V30 6359 H 609.391 3.43128 3.08319 0
M  V30 6360 H 607.634 3.27271 2.84739 0
M  V30 6361 H 608.305 3.22428 4.48045 0
M  V30 6362 H 610.781 1.37893 3.92587 0
M  V30 6363 H 609.657 1.39403 5.30903 0
M  V30 6364 H 609.918 -0.0982206 4.41991 0
M  V30 6365 N 608.977 -1.30795 0.87923 0
M  V30 6366 C 610.225 -1.95974 0.493809 0
M  V30 6367 C 610.546 -1.69787 -0.959021 0
M  V30 6368 O 609.816 -1.01832 -1.67353 0
M  V30 6369 H 608.396 -0.725083 0.179622 0
M  V30 6370 H 611.058 -1.59432 1.12105 0
M  V30 6371 H 610.154 -3.05058 0.659263 0
M  V30 6372 N 610.455 -0.639598 -1.44038 0
M  V30 6373 C 611.418 0.0506628 -2.29144 0
M  V30 6374 C 612.418 0.764001 -1.41491 0
M  V30 6375 O 613.608 0.607309 -1.63271 0
M  V30 6376 C 610.74 1.0824 -3.2326 0
M  V30 6377 H 611.933 -0.697987 -2.91664 0
M  V30 6378 H 609.486 -0.400146 -1.51091 0
M  V30 6379 H 610.221 1.86075 -2.65606 0
M  V30 6380 H 610.006 0.574725 -3.87865 0
M  V30 6381 H 611.496 1.56487 -3.87171 0
M  V30 6382 N 611.933 1.52934 -0.380664 0
M  V30 6383 C 613.21 1.93845 0.261417 0
M  V30 6384 C 613.59 1.31544 1.65104 0
M  V30 6385 O 612.938 0.480234 2.23397 0
M  V30 6386 C 613.148 3.47739 0.296466 0
M  V30 6387 C 614.496 4.21284 0.529578 0
M  V30 6388 O 615.52 3.54199 0.377041 0
M  V30 6389 O 614.379 5.40195 0.827753 0
M  V30 6390 H 611.473 0.811318 0.160285 0
M  V30 6391 H 614.019 1.64042 -0.434544 0
M  V30 6392 H 612.791 3.85395 -0.67724 0
M  V30 6393 H 612.414 3.8382 1.0377 0
M  V30 6394 N 613.412 0.11024 1.57214 0
M  V30 6395 C 614.637 -0.561179 1.99664 0
M  V30 6396 C 615.062 -1.59985 0.989266 0
M  V30 6397 O 614.42 -1.81255 -0.0402399 0
M  V30 6398 C 614.468 -1.17189 3.41027 0
M  V30 6399 O 613.572 -2.28755 3.4314 0
M  V30 6400 H 612.913 -0.14101 0.648855 0
M  V30 6401 H 615.443 0.196128 2.03658 0
M  V30 6402 H 615.453 -1.50954 3.79047 0
M  V30 6403 H 614.128 -0.411041 4.13864 0
M  V30 6404 H 612.705 -1.96495 3.16929 0
M  V30 6405 N 614.89 -1.56749 -0.16351 0
M  V30 6406 C 615.837 -1.97011 -1.2023 0
M  V30 6407 C 616.807 -0.835186 -1.43575 0
M  V30 6408 O 617.992 -1.09594 -1.56185 0
M  V30 6409 C 615.132 -2.34186 -2.53478 0
M  V30 6410 C 614.245 -3.60893 -2.37446 0
M  V30 6411 C 613.38 -3.87245 -3.63614 0
M  V30 6412 C 612.419 -5.07274 -3.42548 0
M  V30 6413 N 611.556 -5.29719 -4.60806 0
M  V30 6414 H 616.396 -2.85562 -0.851958 0
M  V30 6415 H 613.933 -1.41292 -0.409257 0
M  V30 6416 H 615.891 -2.53764 -3.31149 0
M  V30 6417 H 614.521 -1.48736 -2.86492 0
M  V30 6418 H 613.573 -3.49185 -1.50911 0
M  V30 6419 H 614.885 -4.48722 -2.1783 0
M  V30 6420 H 614.039 -4.07232 -4.49719 0
M  V30 6421 H 612.778 -2.97806 -3.86216 0
M  V30 6422 H 611.783 -4.87177 -2.5483 0
M  V30 6423 H 613.008 -5.98251 -3.2136 0
M  V30 6424 H 610.954 -4.43233 -4.83612 0
M  V30 6425 H 610.871 -6.11786 -4.44132 0
M  V30 6426 H 612.139 -5.54192 -5.48171 0
M  V30 6427 N 616.368 0.432326 -1.51554 0
M  V30 6428 C 617.593 1.20824 -1.68571 0
M  V30 6429 C 618.018 1.84126 -0.384596 0
M  V30 6430 O 617.376 1.69025 0.655751 0
M  V30 6431 C 617.424 2.26429 -2.80646 0
M  V30 6432 O 616.528 3.32032 -2.44598 0
M  V30 6433 H 615.869 0.353765 -0.561913 0
M  V30 6434 H 618.399 0.509916 -1.98144 0
M  V30 6435 H 618.409 2.71133 -3.04878 0
M  V30 6436 H 617.084 1.79733 -3.75058 0
M  V30 6437 H 615.661 2.92769 -2.30956 0
M  V30 6438 N 617.846 1.41785 0.688094 0
M  V30 6439 C 618.776 1.47 1.8142 0
M  V30 6440 C 619.757 0.327881 1.6691 0
M  V30 6441 O 620.942 0.540362 1.86531 0
M  V30 6442 C 618.072 1.35876 3.19617 0
M  V30 6443 C 617.026 2.47976 3.48844 0
M  V30 6444 C 616.352 2.21915 4.86475 0
M  V30 6445 C 617.652 3.90309 3.47068 0
M  V30 6446 H 619.346 2.41247 1.77314 0
M  V30 6447 H 616.892 1.16116 0.851651 0
M  V30 6448 H 618.845 1.38134 3.98117 0
M  V30 6449 H 617.569 0.38116 3.24368 0
M  V30 6450 H 616.228 2.45013 2.72698 0
M  V30 6451 H 615.876 1.2248 4.8786 0
M  V30 6452 H 615.576 2.97037 5.06994 0
M  V30 6453 H 617.1 2.25901 5.67275 0
M  V30 6454 H 618.514 3.94947 4.1556 0
M  V30 6455 H 616.911 4.65175 3.7912 0
M  V30 6456 H 617.981 4.17927 2.45896 0
M  V30 6457 N 619.324 -0.923095 1.27737 0
M  V30 6458 C 620.564 -1.6858 1.15586 0
M  V30 6459 C 620.928 -1.89758 -0.292562 0
M  V30 6460 O 622.129 -2.6339 -0.536583 0
M  V30 6461 C 620.4 -3.01275 1.92271 0
M  V30 6462 S 621.959 -3.924 1.96387 0
M  V30 6463 H 618.777 -0.579069 0.412554 0
M  V30 6464 H 621.379 -1.09866 1.61709 0
M  V30 6465 H 620.083 -2.83556 2.96689 0
M  V30 6466 H 619.614 -3.6504 1.46661 0
M  V30 6467 H 621.629 -4.84667 1.06361 0
M  V30 6468 N 620.802 -1.09834 -1.13024 0
M  V30 6469 C 622.218 -0.828875 -1.36388 0
M  V30 6470 C 622.418 0.554756 -1.93713 0
M  V30 6471 O 621.474 1.30882 -2.15931 0
M  V30 6472 C 622.787 -1.92352 -2.3113 0
M  V30 6473 C 624.335 -1.95124 -2.44735 0
M  V30 6474 C 624.81 -3.03745 -3.42787 0
M  V30 6475 N 626.301 -3.03012 -3.5034 0
M  V30 6476 C 627.036 -3.83699 -4.26101 0
M  V30 6477 N 626.532 -4.74306 -5.04981 0
M  V30 6478 N 628.325 -3.71942 -4.21445 0
M  V30 6479 H 620.476 -1.99029 -0.74169 0
M  V30 6480 H 622.739 -0.864557 -0.388903 0
M  V30 6481 H 622.445 -2.91906 -1.96172 0
M  V30 6482 H 622.319 -1.80536 -3.3119 0
M  V30 6483 H 624.706 -0.962069 -2.78977 0
M  V30 6484 H 624.787 -2.11018 -1.44586 0
M  V30 6485 H 624.431 -4.02878 -3.09276 0
M  V30 6486 H 624.361 -2.85094 -4.42752 0
M  V30 6487 H 626.852 -2.37352 -2.94062 0
M  V30 6488 H 627.165 -5.32446 -5.60108 0
M  V30 6489 H 625.51 -4.78339 -5.04199 0
M  V30 6490 H 628.701 -3.00513 -3.589 0
M  V30 6491 H 628.874 -4.35062 -4.80235 0
M  V30 6492 N 622.28 1.30327 -0.886154 0
M  V30 6493 C 623.505 2.0079 -0.519425 0
M  V30 6494 C 623.93 1.65979 0.885013 0
M  V30 6495 O 623.288 0.877043 1.58675 0
M  V30 6496 C 623.336 3.53686 -0.702758 0
M  V30 6497 O 622.44 4.11637 0.250828 0
M  V30 6498 H 621.781 0.63171 -0.204544 0
M  V30 6499 H 624.311 1.66145 -1.19402 0
M  V30 6500 H 624.321 4.03531 -0.602207 0
M  V30 6501 H 622.996 3.78361 -1.72673 0
M  V30 6502 H 621.573 3.72755 0.103873 0
M  V30 6503 N 623.758 0.647228 1.43697 0
M  V30 6504 C 625.007 0.155552 2.01099 0
M  V30 6505 C 625.32 -1.23569 1.51624 0
M  V30 6506 O 626.526 -1.82226 2.01261 0
M  V30 6507 C 624.982 0.227296 3.59182 0
M  V30 6508 C 624.59 1.62086 4.17651 0
M  V30 6509 C 626.334 -0.207085 4.23995 0
M  V30 6510 C 624.241 1.64685 5.68008 0
M  V30 6511 H 623.171 0.0543895 0.752036 0
M  V30 6512 H 625.822 0.808386 1.64734 0
M  V30 6513 H 624.204 -0.492937 3.9292 0
M  V30 6514 H 625.378 2.36597 3.95422 0
M  V30 6515 H 623.693 2.0007 3.65186 0
M  V30 6516 H 626.29 -0.207426 5.34298 0
M  V30 6517 H 626.633 -1.23742 3.97484 0
M  V30 6518 H 627.166 0.461193 3.95118 0
M  V30 6519 H 623.905 2.65608 5.99277 0
M  V30 6520 H 623.425 0.944914 5.9231 0
M  V30 6521 H 625.104 1.38792 6.31938 0
M  V30 6522 N 625.236 -1.5273 0.388769 0
M  V30 6523 C 626.652 -1.59553 0.0387049 0
M  V30 6524 C 626.852 -1.40278 -1.44652 0
M  V30 6525 O 625.908 -1.21951 -2.21098 0
M  V30 6526 C 627.221 -2.9625 0.515409 0
M  V30 6527 C 628.769 -3.09426 0.471621 0
M  V30 6528 C 629.244 -4.48572 0.924505 0
M  V30 6529 N 630.735 -4.54754 0.880496 0
M  V30 6530 C 631.47 -5.60653 1.20234 0
M  V30 6531 N 630.966 -6.74198 1.59463 0
M  V30 6532 N 632.759 -5.50755 1.12363 0
M  V30 6533 H 624.91 -1.63508 1.35569 0
M  V30 6534 H 627.173 -0.768097 0.555636 0
M  V30 6535 H 626.879 -3.15569 1.5527 0
M  V30 6536 H 626.753 -3.77102 -0.085792 0
M  V30 6537 H 629.14 -2.89804 -0.556588 0
M  V30 6538 H 629.221 -2.30528 1.10862 0
M  V30 6539 H 628.865 -4.68936 1.95094 0
M  V30 6540 H 628.795 -5.25935 0.264524 0
M  V30 6541 H 631.286 -3.73237 0.591815 0
M  V30 6542 H 631.599 -7.5097 1.82385 0
M  V30 6543 H 629.944 -6.75531 1.63349 0
M  V30 6544 H 633.135 -4.6093 0.816169 0
M  V30 6545 H 633.308 -6.33184 1.37777 0
M  V30 6546 N 626.714 -0.118576 -1.57153 0
M  V30 6547 C 627.662 0.849114 -2.16547 0
M  V30 6548 C 628.656 1.27567 -1.11458 0
M  V30 6549 O 629.862 1.24746 -1.29763 0
M  V30 6550 H 626.237 0.291935 -0.693021 0
M  V30 6551 H 628.208 0.323693 -2.96639 0
M  V30 6552 C 626.957 2.08951 -2.77912 0
M  V30 6553 H 626.28 1.77021 -3.58474 0
M  V30 6554 H 627.72 2.74666 -3.23008 0
M  V30 6555 C 626.179 2.87899 -1.74974 0
M  V30 6556 O 626.709 3.83268 -1.20285 0
M  V30 6557 N 624.915 2.51884 -1.44924 0
M  V30 6558 H 624.462 1.74397 -1.89587 0
M  V30 6559 H 624.42 3.05003 -0.762921 0
M  V30 6560 N 628.193 1.56834 0.155195 0
M  V30 6561 C 629.123 2.00678 1.19376 0
M  V30 6562 C 630.104 0.884973 1.45266 0
M  V30 6563 O 631.289 1.1522 1.56326 0
M  V30 6564 C 628.419 2.38042 2.5289 0
M  V30 6565 C 627.373 3.53332 2.41538 0
M  V30 6566 C 626.699 3.76485 3.79688 0
M  V30 6567 C 627.999 4.86265 1.9064 0
M  V30 6568 H 629.693 2.87688 0.829232 0
M  V30 6569 H 627.239 1.38407 0.397445 0
M  V30 6570 H 629.192 2.67314 3.25763 0
M  V30 6571 H 627.916 1.4796 2.91162 0
M  V30 6572 H 626.575 3.24213 1.71117 0
M  V30 6573 H 626.223 2.83667 4.15382 0
M  V30 6574 H 625.923 4.54068 3.72956 0
M  V30 6575 H 627.447 4.08174 4.54122 0
M  V30 6576 H 628.861 5.14308 2.53299 0
M  V30 6577 H 627.258 5.67597 1.94818 0
M  V30 6578 H 628.328 4.77184 0.861596 0
M  V30 6579 N 629.671 -0.424282 1.51781 0
M  V30 6580 C 630.919 -1.17028 1.64769 0
M  V30 6581 C 631.24 -1.91409 0.372523 0
M  V30 6582 O 630.51 -1.86091 -0.612108 0
M  V30 6583 H 629.09 -0.434992 0.607282 0
M  V30 6584 H 631.752 -0.485169 1.88765 0
M  V30 6585 H 630.848 -1.8927 2.4816 0
M  V30 6586 N 631.149 -1.42148 -0.680565 0
M  V30 6587 C 632.096 -1.45175 -1.79424 0
M  V30 6588 C 633.066 -0.304352 -1.63288 0
M  V30 6589 O 634.251 -0.507591 -1.83924 0
M  V30 6590 C 631.391 -1.35429 -3.17416 0
M  V30 6591 C 630.504 -2.60158 -3.4488 0
M  V30 6592 C 629.639 -2.42596 -4.72568 0
M  V30 6593 C 628.678 -3.62727 -4.93047 0
M  V30 6594 N 627.815 -3.44143 -6.11973 0
M  V30 6595 H 632.655 -2.40349 -1.76172 0
M  V30 6596 H 630.192 -1.19334 -0.860107 0
M  V30 6597 H 632.15 -1.27777 -3.97151 0
M  V30 6598 H 630.78 -0.438536 -3.19807 0
M  V30 6599 H 629.832 -2.78199 -2.5944 0
M  V30 6600 H 631.144 -3.49473 -3.55908 0
M  V30 6601 H 630.298 -2.32497 -5.60384 0
M  V30 6602 H 629.037 -1.50761 -4.63813 0
M  V30 6603 H 628.042 -3.73264 -4.03676 0
M  V30 6604 H 629.267 -4.55534 -5.03652 0
M  V30 6605 H 627.213 -2.5502 -6.04401 0
M  V30 6606 H 627.13 -4.27041 -6.23836 0
M  V30 6607 H 628.398 -3.37845 -7.02482 0
M  V30 6608 N 632.627 0.916307 -1.28225 0
M  V30 6609 C 633.873 1.66765 -1.154 0
M  V30 6610 C 634.206 1.91912 0.297251 0
M  V30 6611 O 633.481 1.51766 1.21644 0
M  V30 6612 C 633.764 3.02715 -1.95028 0
M  V30 6613 C 633.617 2.84738 -3.48201 0
M  V30 6614 C 634.936 4.03215 -1.76369 0
M  V30 6615 H 632.055 0.605205 -0.42059 0
M  V30 6616 H 634.697 1.06255 -1.57512 0
M  V30 6617 H 632.847 3.54365 -1.59242 0
M  V30 6618 H 634.519 2.40118 -3.9388 0
M  V30 6619 H 632.762 2.19848 -3.73964 0
M  V30 6620 H 633.433 3.8127 -3.99171 0
M  V30 6621 H 635.909 3.60617 -2.07593 0
M  V30 6622 H 634.785 4.96306 -2.34459 0
M  V30 6623 H 635.046 4.36288 -0.71452 0
M  V30 6624 N 634.105 1.10431 1.1244 0
M  V30 6625 C 635.382 0.758797 1.80282 0
M  V30 6626 C 635.762 -0.754727 1.97147 0
M  V30 6627 O 635.11 -1.68094 1.54779 0
M  V30 6628 C 635.32 1.50982 3.14651 0
M  V30 6629 C 636.668 1.68232 3.8985 0
M  V30 6630 O 637.692 1.47319 3.24308 0
M  V30 6631 O 636.551 2.02905 5.07437 0
M  V30 6632 H 633.645 0.273756 0.780376 0
M  V30 6633 H 636.191 1.20713 1.19275 0
M  V30 6634 H 634.963 2.53989 2.97666 0
M  V30 6635 H 634.586 1.05435 3.83366 0
M  V30 6636 N 635.583 -1.29855 0.893053 0
M  V30 6637 C 636.994 -1.77946 0.564998 0
M  V30 6638 C 637.345 -1.73339 -0.919134 0
M  V30 6639 O 636.47 -1.3152 -1.71847 0
M  V30 6640 C 637.065 -3.23118 1.01883 0
M  V30 6641 C 635.624 -3.69013 0.742051 0
M  V30 6642 C 634.771 -2.50121 1.19727 0
M  V30 6643 H 637.722 -1.16611 1.07646 0
M  V30 6644 H 637.743 -3.78875 0.351249 0
M  V30 6645 H 637.255 -3.26439 2.09903 0
M  V30 6646 H 635.356 -3.71173 -0.325816 0
M  V30 6647 H 635.469 -4.60117 1.33527 0
M  V30 6648 H 633.833 -2.47128 0.616418 0
M  V30 6649 H 634.616 -2.56174 2.28538 0
M  V30 6650 N 637.061 -0.65484 -1.43351 0
M  V30 6651 C 638.31 -0.166215 -2.01014 0
M  V30 6652 C 638.623 1.22764 -1.52278 0
M  V30 6653 O 639.829 1.81156 -2.02224 0
M  V30 6654 C 638.285 -0.246341 -3.59056 0
M  V30 6655 C 637.893 -1.64299 -4.16785 0
M  V30 6656 C 639.637 0.184597 -4.24098 0
M  V30 6657 C 637.544 -1.67695 -5.67126 0
M  V30 6658 H 636.474 -0.0583769 -0.751737 0
M  V30 6659 H 639.125 -0.817111 -1.64303 0
M  V30 6660 H 637.507 0.472092 -3.93176 0
M  V30 6661 H 638.681 -2.3869 -3.94162 0
M  V30 6662 H 636.996 -2.02004 -3.6412 0
M  V30 6663 H 639.593 0.179088 -5.344 0
M  V30 6664 H 639.936 1.21632 -3.98135 0
M  V30 6665 H 640.469 -0.482141 -3.94867 0
M  V30 6666 H 637.208 -2.68783 -5.9786 0
M  V30 6667 H 636.728 -0.976313 -5.91801 0
M  V30 6668 H 638.407 -1.42142 -6.31193 0
M  V30 6669 N 638.539 1.52521 -0.396863 0
M  V30 6670 C 639.469 2.29582 0.425941 0
M  V30 6671 C 640.45 1.33281 1.05689 0
M  V30 6672 O 641.635 1.62181 1.06823 0
M  V30 6673 C 638.765 3.10821 1.54943 0
M  V30 6674 C 637.719 4.15069 1.04413 0
M  V30 6675 C 637.045 4.84578 2.26028 0
M  V30 6676 C 638.345 5.22191 0.106767 0
M  V30 6677 H 640.039 2.98612 -0.217045 0
M  V30 6678 H 637.585 1.43611 -0.105826 0
M  V30 6679 H 639.538 3.63492 2.13193 0
M  V30 6680 H 638.262 2.39538 2.22011 0
M  V30 6681 H 636.921 3.63389 0.484118 0
M  V30 6682 H 636.569 4.09835 2.91623 0
M  V30 6683 H 636.269 5.55043 1.92876 0
M  V30 6684 H 637.793 5.40056 2.84906 0
M  V30 6685 H 639.207 5.70176 0.597685 0
M  V30 6686 H 637.604 5.99947 -0.135352 0
M  V30 6687 H 638.674 4.77531 -0.842134 0
M  V30 6688 N 640.017 0.126909 1.57088 0
M  V30 6689 C 641.263 -0.529952 1.95753 0
M  V30 6690 C 641.596 -1.65823 1.01077 0
M  V30 6691 O 640.871 -1.94437 0.0494162 0
M  V30 6692 C 641.154 -1.05517 3.44294 0
M  V30 6693 C 641.007 0.0702253 4.49745 0
M  V30 6694 C 642.326 -1.9435 3.94862 0
M  V30 6695 H 639.445 -0.191168 0.711775 0
M  V30 6696 H 642.087 0.204071 1.88901 0
M  V30 6697 H 640.237 -1.68069 3.50264 0
M  V30 6698 H 641.909 0.705834 4.55868 0
M  V30 6699 H 640.152 0.732259 4.27575 0
M  V30 6700 H 640.823 -0.338642 5.5096 0
M  V30 6701 H 643.299 -1.41658 3.91244 0
M  V30 6702 H 642.175 -2.28015 4.993 0
M  V30 6703 H 642.436 -2.87299 3.36024 0
M  V30 6704 N 641.495 -1.56914 -0.146875 0
M  V30 6705 C 642.72 -1.87881 -0.878386 0
M  V30 6706 C 643.145 -0.715945 -1.73942 0
M  V30 6707 O 642.503 0.334447 -1.78189 0
M  V30 6708 C 642.551 -3.17431 -1.71084 0
M  V30 6709 O 641.655 -3.01374 -2.81509 0
M  V30 6710 H 640.996 -0.617289 -0.244644 0
M  V30 6711 H 643.526 -2.04136 -0.137654 0
M  V30 6712 H 643.536 -3.49455 -2.10582 0
M  V30 6713 H 642.211 -4.01671 -1.07856 0
M  V30 6714 H 640.788 -2.80758 -2.45416 0
M  V30 6715 N 642.974 0.416227 -1.52004 0
M  V30 6716 C 644.251 1.17637 -1.56272 0
M  V30 6717 C 644.631 2.08352 -0.339493 0
M  V30 6718 O 643.979 2.1833 0.674124 0
M  V30 6719 C 644.189 1.95986 -2.88774 0
M  V30 6720 C 645.537 2.52299 -3.41512 0
M  V30 6721 O 646.561 2.06174 -2.90467 0
M  V30 6722 O 645.42 3.3648 -4.30631 0
M  V30 6723 H 642.514 0.536726 -0.629169 0
M  V30 6724 H 645.06 0.423583 -1.64329 0
M  V30 6725 H 643.832 1.29487 -3.69254 0
M  V30 6726 H 643.455 2.78285 -2.83978 0
M  V30 6727 N 644.452 1.42507 0.673017 0
M  V30 6728 C 645.68 1.46473 1.46128 0
M  V30 6729 C 646.095 0.0765912 1.88645 0
M  V30 6730 O 645.452 -0.909057 1.58248 0
M  V30 6731 C 645.503 2.39339 2.70923 0
M  V30 6732 O 645.224 3.72752 2.3019 0
M  V30 6733 C 646.725 2.52343 3.64469 0
M  V30 6734 H 643.945 0.49812 0.449575 0
M  V30 6735 H 646.489 1.87041 0.826802 0
M  V30 6736 H 644.644 2.02019 3.30556 0
M  V30 6737 H 645.058 4.22503 3.10791 0
M  V30 6738 H 646.532 3.2144 4.48754 0
M  V30 6739 H 647.009 1.56189 4.1049 0
M  V30 6740 H 647.615 2.90392 3.10729 0
M  V30 6741 N 645.93 -0.909495 1.28709 0
M  V30 6742 C 647.155 -1.69801 1.1909 0
M  V30 6743 C 647.58 -1.86479 -0.246388 0
M  V30 6744 O 646.938 -1.37802 -1.17815 0
M  V30 6745 C 646.986 -3.06543 1.89904 0
M  V30 6746 O 646.09 -3.94268 1.2094 0
M  V30 6747 H 645.431 -0.519783 0.413185 0
M  V30 6748 H 647.961 -1.13689 1.70106 0
M  V30 6749 H 647.971 -3.56748 1.97977 0
M  V30 6750 H 646.646 -2.93722 2.94449 0
M  V30 6751 H 645.223 -3.52702 1.2106 0
M  V30 6752 N 647.408 -1.11026 -1.11852 0
M  V30 6753 C 648.34 -0.72249 -2.17515 0
M  V30 6754 C 649.353 0.243782 -1.60964 0
M  V30 6755 O 650.542 0.0273252 -1.78479 0
M  V30 6756 C 647.642 -0.0463979 -3.38868 0
M  V30 6757 C 646.815 -1.0384 -4.24895 0
M  V30 6758 C 645.874 -0.392659 -5.24733 0
M  V30 6759 O 644.9 -1.0453 -5.5952 0
M  V30 6760 N 646.102 0.846296 -5.74298 0
M  V30 6761 H 648.867 -1.63161 -2.51393 0
M  V30 6762 H 646.428 -0.999899 -1.27333 0
M  V30 6763 H 648.42 0.397215 -4.02746 0
M  V30 6764 H 646.99 0.765231 -3.03089 0
M  V30 6765 H 646.21 -1.6601 -3.57539 0
M  V30 6766 H 647.498 -1.70968 -4.79215 0
M  V30 6767 H 646.896 1.39578 -5.4821 0
M  V30 6768 H 645.453 1.23296 -6.40032 0
M  V30 6769 N 648.886 1.2938 -0.899927 0
M  V30 6770 C 649.816 2.30144 -0.39446 0
M  V30 6771 C 650.797 1.61611 0.530639 0
M  V30 6772 O 651.982 1.89119 0.441319 0
M  V30 6773 C 649.112 3.45229 0.37868 0
M  V30 6774 C 648.066 4.25564 -0.456012 0
M  V30 6775 C 647.392 5.32848 0.444637 0
M  V30 6776 C 648.692 4.93651 -1.70605 0
M  V30 6777 H 650.386 2.72673 -1.23653 0
M  V30 6778 H 647.932 1.31086 -0.596034 0
M  V30 6779 H 649.885 4.14797 0.743037 0
M  V30 6780 H 648.609 3.01545 1.25453 0
M  V30 6781 H 647.268 3.57704 -0.802704 0
M  V30 6782 H 646.916 4.85408 1.31863 0
M  V30 6783 H 646.616 5.87497 -0.110154 0
M  V30 6784 H 648.14 6.05268 0.805182 0
M  V30 6785 H 649.554 5.55655 -1.41141 0
M  V30 6786 H 647.951 5.58233 -2.20217 0
M  V30 6787 H 649.021 4.18926 -2.4419 0
M  V30 6788 N 650.364 0.662433 1.43002 0
M  V30 6789 C 651.612 0.179237 2.01304 0
M  V30 6790 C 651.933 -1.21428 1.52579 0
M  V30 6791 O 651.203 -1.81294 0.742252 0
M  V30 6792 H 649.783 0.0632725 0.744316 0
M  V30 6793 H 652.445 0.856169 1.75088 0
M  V30 6794 H 651.541 0.170957 3.11631 0
M  V30 6795 N 651.842 -1.52309 0.404946 0
M  V30 6796 C 653.119 -1.94237 -0.230544 0
M  V30 6797 C 653.499 -1.34154 -1.6299 0
M  V30 6798 O 652.847 -0.515713 -2.22604 0
M  V30 6799 C 653.057 -3.48166 -0.241106 0
M  V30 6800 C 654.405 -4.22074 -0.462488 0
M  V30 6801 O 655.429 -3.54754 -0.320644 0
M  V30 6802 O 654.288 -5.41443 -0.741708 0
M  V30 6803 H 651.382 -0.813766 -0.147358 0
M  V30 6804 H 653.928 -1.6333 0.460587 0
M  V30 6805 H 652.7 -3.84269 0.738467 0
M  V30 6806 H 652.323 -3.85422 -0.97651 0
M  V30 6807 N 653.32 -0.135238 -1.57019 0
M  V30 6808 C 654.566 0.519563 -1.96032 0
M  V30 6809 C 654.899 1.65284 -1.01955 0
M  V30 6810 O 654.174 1.94408 -0.059727 0
M  V30 6811 C 654.457 1.0369 -3.44848 0
M  V30 6812 C 654.31 -0.0940754 -4.49702 0
M  V30 6813 C 655.629 1.92254 -3.95887 0
M  V30 6814 H 652.748 0.18739 -0.712779 0
M  V30 6815 H 655.39 -0.214086 -1.8879 0
M  V30 6816 H 653.54 1.66209 -3.5115 0
M  V30 6817 H 655.212 -0.73 -4.55487 0
M  V30 6818 H 653.455 -0.754924 -4.27181 0
M  V30 6819 H 654.126 0.309419 -5.51132 0
M  V30 6820 H 656.602 1.39581 -3.9199 0
M  V30 6821 H 655.478 2.25364 -5.00502 0
M  V30 6822 H 655.739 2.85513 -3.37543 0
M  V30 6823 N 654.798 1.5699 0.138552 0
M  V30 6824 C 655.728 2.01933 1.17241 0
M  V30 6825 C 656.709 0.90033 1.44319 0
M  V30 6826 O 657.894 1.16872 1.55095 0
M  V30 6827 C 655.024 2.40711 2.50351 0
M  V30 6828 C 653.978 3.55874 2.37776 0
M  V30 6829 C 653.304 3.80491 3.75674 0
M  V30 6830 C 654.604 4.8826 1.85472 0
M  V30 6831 H 656.298 2.88551 0.798672 0
M  V30 6832 H 653.844 1.3882 0.382743 0
M  V30 6833 H 655.797 2.70754 3.22909 0
M  V30 6834 H 654.521 1.5104 2.89576 0
M  V30 6835 H 653.18 3.2601 1.67669 0
M  V30 6836 H 652.828 2.88057 4.12349 0
M  V30 6837 H 652.528 4.57998 3.68119 0
M  V30 6838 H 654.052 4.12967 4.49767 0
M  V30 6839 H 655.466 5.16965 2.4783 0
M  V30 6840 H 653.863 5.69631 1.88787 0
M  V30 6841 H 654.933 4.78071 0.810935 0
M  V30 6842 N 656.276 -0.40816 1.52223 0
M  V30 6843 C 657.553 -1.16807 1.56893 0
M  V30 6844 C 657.933 -2.08169 0.350537 0
M  V30 6845 O 657.281 -2.18684 -0.662536 0
M  V30 6846 C 657.491 -1.94451 2.8981 0
M  V30 6847 C 658.839 -2.50484 3.42845 0
M  V30 6848 O 659.863 -2.0463 2.91556 0
M  V30 6849 O 658.722 -3.34192 4.3241 0
M  V30 6850 H 655.816 -0.533382 0.632007 0
M  V30 6851 H 658.362 -0.414862 1.64551 0
M  V30 6852 H 657.134 -1.27527 3.69936 0
M  V30 6853 H 656.757 -2.76775 2.85449 0
M  V30 6854 N 657.755 -1.42862 -0.66545 0
M  V30 6855 C 658.687 -1.43026 -1.79098 0
M  V30 6856 C 659.7 -0.32803 -1.59461 0
M  V30 6857 O 660.889 -0.591709 -1.68407 0
M  V30 6858 C 657.989 -1.21566 -3.16346 0
M  V30 6859 C 657.162 -2.44399 -3.62751 0
M  V30 6860 C 656.221 -2.18344 -4.78761 0
M  V30 6861 O 655.247 -2.91611 -4.88827 0
M  V30 6862 N 656.449 -1.1924 -5.68122 0
M  V30 6863 H 659.214 -2.40045 -1.79439 0
M  V30 6864 H 656.775 -1.37861 -0.848872 0
M  V30 6865 H 658.767 -1.02037 -3.91625 0
M  V30 6866 H 657.337 -0.330368 -3.10849 0
M  V30 6867 H 656.557 -2.79433 -2.78048 0
M  V30 6868 H 657.845 -3.26173 -3.90498 0
M  V30 6869 H 657.243 -0.586603 -5.6265 0
M  V30 6870 H 655.8 -1.05698 -6.43173 0
M  V30 6871 N 659.233 0.902656 -1.29189 0
M  V30 6872 C 660.482 1.6475 -1.16362 0
M  V30 6873 C 660.795 1.93517 0.284682 0
M  V30 6874 O 662.001 2.66192 0.534229 0
M  V30 6875 C 660.457 2.96848 -2.03493 0
M  V30 6876 C 660.065 2.75687 -3.5313 0
M  V30 6877 C 661.809 3.74762 -1.99383 0
M  V30 6878 C 659.716 4.03492 -4.32375 0
M  V30 6879 H 658.646 0.618041 -0.431904 0
M  V30 6880 H 661.297 1.0008 -1.53806 0
M  V30 6881 H 659.679 3.62715 -1.58916 0
M  V30 6882 H 660.853 2.18431 -4.05739 0
M  V30 6883 H 659.168 2.11171 -3.58881 0
M  V30 6884 H 661.765 4.69515 -2.5585 0
M  V30 6885 H 662.108 4.04767 -0.973123 0
M  V30 6886 H 662.641 3.15732 -2.41988 0
M  V30 6887 H 659.38 3.78656 -5.3507 0
M  V30 6888 H 658.9 4.60318 -3.84535 0
M  V30 6889 H 660.579 4.71662 -4.42881 0
M  V30 6890 N 660.711 1.11618 1.11262 0
M  V30 6891 C 661.96 0.860934 1.82403 0
M  V30 6892 C 662.273 -0.615303 1.8567 0
M  V30 6893 O 663.479 -0.986861 2.52929 0
M  V30 6894 C 661.935 1.49048 3.27586 0
M  V30 6895 C 661.543 3.00089 3.32642 0
M  V30 6896 C 663.287 1.31515 4.03614 0
M  V30 6897 C 661.194 3.56019 4.72234 0
M  V30 6898 H 660.124 0.318423 0.683464 0
M  V30 6899 H 662.775 1.34165 1.25188 0
M  V30 6900 H 661.157 0.937434 3.84744 0
M  V30 6901 H 662.331 3.61813 2.85356 0
M  V30 6902 H 660.646 3.16919 2.70096 0
M  V30 6903 H 663.243 1.70732 5.0671 0
M  V30 6904 H 663.586 0.257917 4.155 0
M  V30 6905 H 664.119 1.83694 3.52848 0
M  V30 6906 H 660.858 4.61463 4.65545 0
M  V30 6907 H 660.378 2.99066 5.19923 0
M  V30 6908 H 662.057 3.54568 5.41193 0
M  V30 6909 N 662.189 -1.289 0.906776 0
M  V30 6910 C 663.121 -2.26556 0.347159 0
M  V30 6911 C 664.134 -1.54589 -0.51049 0
M  V30 6912 O 665.323 -1.75489 -0.326501 0
M  V30 6913 C 662.423 -3.3484 -0.523024 0
M  V30 6914 C 661.596 -4.36296 0.310515 0
M  V30 6915 C 660.655 -5.23879 -0.493634 0
M  V30 6916 O 659.681 -5.69127 0.0913569 0
M  V30 6917 N 660.883 -5.51946 -1.7982 0
M  V30 6918 H 663.648 -2.75212 1.18652 0
M  V30 6919 H 661.209 -1.42309 0.771996 0
M  V30 6920 H 663.201 -3.90366 -1.06756 0
M  V30 6921 H 661.771 -2.85946 -1.26309 0
M  V30 6922 H 660.991 -3.80331 1.03644 0
M  V30 6923 H 662.279 -5.01113 0.881106 0
M  V30 6924 H 661.677 -5.17006 -2.2961 0
M  V30 6925 H 660.234 -6.10258 -2.28971 0
M  V30 6926 N 663.667 -0.670007 -1.42649 0
M  V30 6927 C 664.944 -0.119451 -1.95235 0
M  V30 6928 C 665.324 1.36461 -1.61064 0
M  V30 6929 O 664.672 2.09843 -0.904329 0
M  V30 6930 C 664.882 -0.383498 -3.46887 0
M  V30 6931 C 666.23 -0.297431 -4.23557 0
M  V30 6932 O 667.254 -0.31698 -3.54787 0
M  V30 6933 O 666.113 -0.235507 -5.45992 0
M  V30 6934 H 663.207 -8.85474e-05 -0.827 0
M  V30 6935 H 665.753 -0.744406 -1.52501 0
M  V30 6936 H 664.525 -1.41174 -3.64946 0
M  V30 6937 H 664.148 0.273702 -3.96657 0
M  V30 6938 N 665.145 1.52092 -0.413018 0
M  V30 6939 C 666.393 2.01456 0.161178 0
M  V30 6940 C 666.714 1.30034 1.45314 0
M  V30 6941 O 665.984 0.427435 1.9118 0
M  V30 6942 H 664.564 0.744376 0.0625526 0
M  V30 6943 H 667.226 1.86974 -0.550151 0
M  V30 6944 H 666.322 3.1008 0.354517 0
M  V30 6945 N 666.623 0.143563 1.56945 0
M  V30 6946 C 667.9 -0.553285 1.87612 0
M  V30 6947 C 668.28 -1.83195 1.04894 0
M  V30 6948 O 667.628 -2.28102 0.134773 0
M  V30 6949 C 667.838 -0.822055 3.3918 0
M  V30 6950 C 669.186 -1.16435 4.08324 0
M  V30 6951 O 670.21 -0.911522 3.4434 0
M  V30 6952 O 669.069 -1.63996 5.21313 0
M  V30 6953 H 666.163 -0.281851 0.777489 0
M  V30 6954 H 668.709 0.179916 1.68744 0
M  V30 6955 H 667.481 0.0830265 3.91212 0
M  V30 6956 H 667.104 -1.60956 3.63564 0
M  V30 6957 N 668.101 -1.57061 -0.130224 0
M  V30 6958 C 669.031 -2.02552 -1.16168 0
M  V30 6959 C 670.012 -0.907971 -1.4384 0
M  V30 6960 O 671.197 -1.17693 -1.54473 0
M  V30 6961 C 668.327 -2.42035 -2.49071 0
M  V30 6962 C 667.281 -3.5713 -2.35886 0
M  V30 6963 C 666.607 -3.82478 -3.7365 0
M  V30 6964 C 667.907 -4.89236 -1.8288 0
M  V30 6965 H 669.601 -2.8897 -0.783359 0
M  V30 6966 H 667.147 -1.39021 -0.375376 0
M  V30 6967 H 669.1 -2.72462 -3.21469 0
M  V30 6968 H 667.824 -1.52573 -2.88771 0
M  V30 6969 H 666.483 -3.26895 -1.65938 0
M  V30 6970 H 666.131 -2.9024 -4.10816 0
M  V30 6971 H 665.831 -4.59944 -3.65685 0
M  V30 6972 H 667.355 -4.15347 -4.47571 0
M  V30 6973 H 668.769 -5.18272 -2.45085 0
M  V30 6974 H 667.166 -5.70624 -1.85763 0
M  V30 6975 H 668.236 -4.78494 -0.785571 0
M  V30 6976 N 669.579 0.400081 -1.52437 0
M  V30 6977 C 670.828 1.14332 -1.66166 0
M  V30 6978 C 671.141 1.91419 -0.402253 0
M  V30 6979 O 672.347 2.6824 -0.419487 0
M  V30 6980 C 670.803 2.08137 -2.9361 0
M  V30 6981 C 670.411 1.36524 -4.26691 0
M  V30 6982 C 672.155 2.82664 -3.16703 0
M  V30 6983 C 670.062 2.29031 -5.45251 0
M  V30 6984 H 668.992 0.430499 -0.61902 0
M  V30 6985 H 671.643 0.407017 -1.78929 0
M  V30 6986 H 670.025 2.85358 -2.74567 0
M  V30 6987 H 671.199 0.646061 -4.56249 0
M  V30 6988 H 669.514 0.74002 -4.09771 0
M  V30 6989 H 672.111 3.52037 -4.0246 0
M  V30 6990 H 672.454 3.46122 -2.31312 0
M  V30 6991 H 672.987 2.12541 -3.36261 0
M  V30 6992 H 669.726 1.70206 -6.33017 0
M  V30 6993 H 669.246 2.98896 -5.2002 0
M  V30 6994 H 670.925 2.89359 -5.78689 0
M  V30 6995 N 671.057 1.43213 0.657864 0
M  V30 6996 C 671.987 1.50815 1.78262 0
M  V30 6997 C 672.968 0.363211 1.66177 0
M  V30 6998 O 674.153 0.579806 1.85343 0
M  V30 6999 C 671.283 1.42625 3.16663 0
M  V30 7000 C 670.237 2.5532 3.43505 0
M  V30 7001 C 669.563 2.32184 4.81658 0
M  V30 7002 C 670.863 3.97583 3.38711 0
M  V30 7003 H 672.557 2.44954 1.72157 0
M  V30 7004 H 670.103 1.17896 0.82683 0
M  V30 7005 H 672.056 1.46548 3.95097 0
M  V30 7006 H 670.78 0.449877 3.23487 0
M  V30 7007 H 669.439 2.50742 2.6744 0
M  V30 7008 H 669.087 1.32801 4.85153 0
M  V30 7009 H 668.787 3.07724 5.00579 0
M  V30 7010 H 670.311 2.37883 5.62356 0
M  V30 7011 H 671.725 4.03673 4.07089 0
M  V30 7012 H 670.122 4.73112 3.69168 0
M  V30 7013 H 671.192 4.23049 2.36976 0
M  V30 7014 N 672.536 -0.895792 1.29666 0
M  V30 7015 C 673.499 -1.98189 1.15124 0
M  V30 7016 C 674.499 -1.60572 0.0855717 0
M  V30 7017 O 675.689 -1.70991 0.332826 0
M  V30 7018 C 672.821 -3.32289 0.761372 0
M  V30 7019 H 674.014 -2.12518 2.11603 0
M  V30 7020 H 671.567 -1.0808 1.12908 0
M  V30 7021 H 672.302 -3.23662 -0.203393 0
M  V30 7022 H 672.087 -3.60958 1.53139 0
M  V30 7023 H 673.577 -4.1198 0.682792 0
M  V30 7024 N 674.014 -1.12206 -1.10668 0
M  V30 7025 C 674.946 -0.74552 -2.16736 0
M  V30 7026 C 675.959 0.226696 -1.61214 0
M  V30 7027 O 677.148 0.0083936 -1.78498 0
M  V30 7028 C 674.248 -0.0823368 -3.388 0
M  V30 7029 C 673.421 -1.08341 -4.2377 0
M  V30 7030 C 672.48 -0.448292 -5.24287 0
M  V30 7031 O 671.506 -1.10458 -5.58379 0
M  V30 7032 N 672.708 0.785336 -5.75163 0
M  V30 7033 H 675.473 -1.65818 -2.49649 0
M  V30 7034 H 673.034 -1.01335 -1.26265 0
M  V30 7035 H 675.026 0.354476 -4.03145 0
M  V30 7036 H 673.596 0.733041 -3.03884 0
M  V30 7037 H 672.816 -1.69792 -3.55759 0
M  V30 7038 H 674.104 -1.76042 -4.77375 0
M  V30 7039 H 673.502 1.33755 -5.4966 0
M  V30 7040 H 672.059 1.16501 -6.41304 0
M  V30 7041 N 675.492 1.28418 -0.913599 0
M  V30 7042 C 676.74 1.94596 -0.545594 0
M  V30 7043 C 677.061 1.7227 0.913668 0
M  V30 7044 O 676.331 1.06233 1.64595 0
M  V30 7045 H 674.911 0.720065 -0.198783 0
M  V30 7046 H 677.573 1.56404 -1.16292 0
M  V30 7047 H 676.669 3.03202 -0.739911 0
M  V30 7048 N 676.97 0.677563 1.42291 0
M  V30 7049 C 677.933 0.0101085 2.29198 0
M  V30 7050 C 678.933 -0.726219 1.43467 0
M  V30 7051 O 680.123 -0.563807 1.64824 0
M  V30 7052 C 677.255 -0.996316 3.26016 0
M  V30 7053 H 678.448 0.775071 2.89711 0
M  V30 7054 H 676.001 0.440065 1.49977 0
M  V30 7055 H 676.736 -1.78967 2.70446 0
M  V30 7056 H 676.521 -0.471687 3.89253 0
M  V30 7057 H 678.011 -1.46167 3.91184 0
M  V30 7058 N 678.448 -1.51871 0.421078 0
M  V30 7059 C 679.696 -2.01539 -0.150492 0
M  V30 7060 C 680.017 -1.30803 -1.44623 0
M  V30 7061 O 679.287 -0.437568 -1.90951 0
M  V30 7062 H 677.867 -0.744698 -0.0586041 0
M  V30 7063 H 680.529 -1.8668 0.560059 0
M  V30 7064 H 679.625 -3.10264 -0.338068 0
M  V30 7065 N 679.926 -0.151884 -1.56866 0
M  V30 7066 C 681.151 0.508044 -2.01081 0
M  V30 7067 C 681.576 1.57306 -1.03134 0
M  V30 7068 O 680.934 1.81298 -0.0078309 0
M  V30 7069 C 680.982 1.08106 -3.44014 0
M  V30 7070 O 680.086 2.19577 -3.49084 0
M  V30 7071 H 679.427 0.123757 -0.652365 0
M  V30 7072 H 681.957 -0.250055 -2.03066 0
M  V30 7073 H 681.967 1.40851 -3.82916 0
M  V30 7074 H 680.642 0.301168 -4.14808 0
M  V30 7075 H 679.219 1.88023 -3.22027 0
M  V30 7076 N 681.404 1.57128 0.121893 0
M  V30 7077 C 682.65 1.84974 0.831418 0
M  V30 7078 C 682.983 0.737204 1.79663 0
M  V30 7079 O 682.258 -0.257199 1.92792 0
M  V30 7080 C 682.541 3.23397 1.58386 0
M  V30 7081 C 682.394 4.45246 0.638445 0
M  V30 7082 C 683.713 3.59355 2.54071 0
M  V30 7083 H 680.832 0.67282 0.300803 0
M  V30 7084 H 683.474 1.89759 0.0957587 0
M  V30 7085 H 681.624 3.19449 2.21098 0
M  V30 7086 H 683.296 4.61295 0.0203925 0
M  V30 7087 H 681.539 4.33771 -0.05023 0
M  V30 7088 H 682.21 5.38765 1.20151 0
M  V30 7089 H 684.686 3.64075 2.01465 0
M  V30 7090 H 683.562 4.57193 3.03752 0
M  V30 7091 H 683.823 2.86622 3.36601 0
M  V30 7092 N 682.882 -0.391992 1.52647 0
M  V30 7093 C 684.107 -1.16312 1.71716 0
M  V30 7094 C 684.532 -1.83042 0.433279 0
M  V30 7095 O 683.89 -1.70705 -0.610707 0
M  V30 7096 C 683.938 -2.18908 2.86551 0
M  V30 7097 O 683.042 -3.2543 2.53316 0
M  V30 7098 H 682.383 -0.338743 0.571095 0
M  V30 7099 H 684.913 -0.457202 1.99426 0
M  V30 7100 H 684.923 -2.62954 3.1196 0
M  V30 7101 H 683.598 -1.69726 3.79692 0
M  V30 7102 H 682.175 -2.86543 2.38637 0
M  V30 7103 N 684.36 -1.4356 -0.65026 0
M  V30 7104 C 685.307 -1.48948 -1.76304 0
M  V30 7105 C 686.277 -0.338919 -1.62605 0
M  V30 7106 O 687.462 -0.54649 -1.82806 0
M  V30 7107 C 684.602 -1.42131 -3.14472 0
M  V30 7108 C 683.715 -2.67415 -3.39284 0
M  V30 7109 C 682.85 -2.52565 -4.67316 0
M  V30 7110 C 681.889 -3.73103 -4.85243 0
M  V30 7111 N 681.026 -3.57046 -6.04535 0
M  V30 7112 H 685.866 -2.44032 -1.71034 0
M  V30 7113 H 683.403 -1.21131 -0.834601 0
M  V30 7114 H 685.361 -1.36172 -3.94351 0
M  V30 7115 H 683.991 -0.506273 -3.18805 0
M  V30 7116 H 683.043 -2.8364 -2.53481 0
M  V30 7117 H 684.355 -3.56943 -3.48415 0
M  V30 7118 H 683.509 -2.44331 -5.55326 0
M  V30 7119 H 682.248 -1.60566 -4.60511 0
M  V30 7120 H 681.253 -3.81743 -3.95667 0
M  V30 7121 H 682.478 -4.66115 -4.93876 0
M  V30 7122 H 680.424 -2.67783 -5.98856 0
M  V30 7123 H 680.341 -4.40178 -6.14638 0
M  V30 7124 H 681.609 -3.52669 -6.95158 0
M  V30 7125 N 685.838 0.888903 -1.30139 0
M  V30 7126 C 687.087 1.63507 -1.18103 0
M  V30 7127 C 687.4 1.93808 0.264141 0
M  V30 7128 O 688.606 2.66744 0.505966 0
M  V30 7129 C 687.062 2.94673 -2.0663 0
M  V30 7130 C 686.67 2.71926 -3.56034 0
M  V30 7131 C 688.414 3.72626 -2.03346 0
M  V30 7132 C 686.321 3.98884 -4.3663 0
M  V30 7133 H 685.251 0.613426 -0.438435 0
M  V30 7134 H 687.902 0.984427 -1.54859 0
M  V30 7135 H 686.284 3.61009 -1.62754 0
M  V30 7136 H 687.458 2.14116 -4.08033 0
M  V30 7137 H 685.773 2.07353 -3.61101 0
M  V30 7138 H 688.37 4.66775 -2.60816 0
M  V30 7139 H 688.713 4.03712 -1.016 0
M  V30 7140 H 689.246 3.13147 -2.45324 0
M  V30 7141 H 685.985 3.72959 -5.39056 0
M  V30 7142 H 685.505 4.56214 -3.89396 0
M  V30 7143 H 687.184 4.66938 -4.47859 0
M  V30 7144 N 687.317 1.12792 1.10072 0
M  V30 7145 C 688.542 0.908838 1.86427 0
M  V30 7146 C 688.967 -0.536793 1.80278 0
M  V30 7147 O 688.325 -1.38033 1.17543 0
M  V30 7148 C 688.373 1.39295 3.3261 0
M  V30 7149 O 687.477 0.573846 4.08388 0
M  V30 7150 H 686.818 0.326234 0.578331 0
M  V30 7151 H 689.348 1.50094 1.39043 0
M  V30 7152 H 689.358 1.39366 3.83459 0
M  V30 7153 H 688.033 2.44555 3.36401 0
M  V30 7154 H 686.61 0.640438 3.67359 0
M  V30 7155 N 688.795 -1.27931 0.920396 0
M  V30 7156 C 690.211 -1.47085 0.619537 0
M  V30 7157 C 690.411 -1.83463 -0.833291 0
M  V30 7158 O 689.467 -1.94363 -1.61181 0
M  V30 7159 C 690.78 -2.56878 1.56314 0
M  V30 7160 C 692.328 -2.70743 1.57058 0
M  V30 7161 C 692.803 -3.83687 2.50097 0
M  V30 7162 N 694.294 -3.9105 2.48262 0
M  V30 7163 C 695.029 -4.77842 3.16945 0
M  V30 7164 N 694.525 -5.69176 3.94982 0
M  V30 7165 N 696.318 -4.71509 3.06 0
M  V30 7166 H 688.469 -1.02601 1.85975 0
M  V30 7167 H 690.732 -0.511682 0.798051 0
M  V30 7168 H 690.438 -2.36923 2.59923 0
M  V30 7169 H 690.312 -3.54117 1.29928 0
M  V30 7170 H 692.699 -2.90083 0.541832 0
M  V30 7171 H 692.78 -1.74015 1.8749 0
M  V30 7172 H 692.424 -3.65101 3.53077 0
M  V30 7173 H 692.354 -4.79827 2.16964 0
M  V30 7174 H 694.845 -3.25738 1.91581 0
M  V30 7175 H 695.158 -6.32245 4.44394 0
M  V30 7176 H 693.503 -5.68995 3.99086 0
M  V30 7177 H 696.694 -3.99151 2.44533 0
M  V30 7178 H 696.867 -5.38933 3.59799 0
M  V30 7179 N 690.273 -0.685099 -1.4193 0
M  V30 7180 C 691.521 -0.21124 -2.00993 0
M  V30 7181 C 691.842 1.18985 -1.54491 0
M  V30 7182 O 691.112 1.8009 -0.771 0
M  V30 7183 H 689.692 -0.0751059 -0.743215 0
M  V30 7184 H 692.354 -0.883915 -1.73704 0
M  V30 7185 H 691.45 -0.220513 -3.1132 0
M  V30 7186 N 691.751 1.51645 -0.429126 0
M  V30 7187 C 692.681 2.30434 0.377148 0
M  V30 7188 C 693.662 1.35493 1.02838 0
M  V30 7189 O 694.847 1.6441 1.03359 0
M  V30 7190 C 691.977 3.14038 1.48315 0
M  V30 7191 C 690.931 4.1719 0.955855 0
M  V30 7192 C 690.257 4.89263 2.15698 0
M  V30 7193 C 691.557 5.223 -0.00402136 0
M  V30 7194 H 693.251 2.98085 -0.280336 0
M  V30 7195 H 690.797 1.43354 -0.136265 0
M  V30 7196 H 692.75 3.67933 2.05435 0
M  V30 7197 H 691.474 2.44193 2.16881 0
M  V30 7198 H 690.133 3.64335 0.406929 0
M  V30 7199 H 689.781 4.15929 2.82864 0
M  V30 7200 H 689.481 5.59009 1.81059 0
M  V30 7201 H 691.005 5.45978 2.73387 0
M  V30 7202 H 692.419 5.71315 0.476607 0
M  V30 7203 H 690.816 5.99525 -0.26258 0
M  V30 7204 H 691.886 4.75638 -0.943236 0
M  V30 7205 N 693.229 0.160201 1.56784 0
M  V30 7206 C 694.192 -0.760405 2.16219 0
M  V30 7207 C 695.192 -1.16595 1.10735 0
M  V30 7208 O 696.382 -1.08472 1.36306 0
M  V30 7209 C 693.514 -2.03358 2.73603 0
M  V30 7210 H 694.707 -0.243173 2.98912 0
M  V30 7211 H 692.26 -0.0893139 1.56045 0
M  V30 7212 H 692.995 -2.59416 1.94612 0
M  V30 7213 H 692.78 -1.75186 3.50788 0
M  V30 7214 H 694.27 -2.69081 3.19351 0
M  V30 7215 N 694.707 -1.5719 -0.113559 0
M  V30 7216 C 695.617 -2.04041 -1.15777 0
M  V30 7217 C 696.633 -0.961812 -1.45001 0
M  V30 7218 O 697.809 -1.2737 -1.56009 0
M  V30 7219 C 694.874 -2.43994 -2.46308 0
M  V30 7220 C 693.935 -3.65962 -2.24433 0
M  V30 7221 C 693.168 -4.04 -3.4874 0
M  V30 7222 O 693.391 -3.42321 -4.56259 0
M  V30 7223 O 692.325 -4.97069 -3.3942 0
M  V30 7224 H 696.151 -2.93248 -0.789899 0
M  V30 7225 H 693.736 -1.45828 -0.324748 0
M  V30 7226 H 695.618 -2.70401 -3.23204 0
M  V30 7227 H 694.293 -1.57932 -2.82558 0
M  V30 7228 H 693.2 -3.44697 -1.45377 0
M  V30 7229 H 694.533 -4.52746 -1.93084 0
M  V30 7230 N 696.185 0.383891 -1.52853 0
M  V30 7231 C 697.41 1.154 -1.7233 0
M  V30 7232 C 697.835 1.82809 -0.44298 0
M  V30 7233 O 697.193 1.71026 0.601645 0
M  V30 7234 C 697.241 2.17386 -2.87708 0
M  V30 7235 O 696.345 3.24082 -2.55038 0
M  V30 7236 H 695.686 0.335709 -0.572883 0
M  V30 7237 H 698.216 0.44662 -1.99666 0
M  V30 7238 H 698.226 2.61296 -3.1335 0
M  V30 7239 H 696.901 1.6771 -3.80587 0
M  V30 7240 H 695.478 2.85273 -2.40153 0
M  V30 7241 N 697.663 1.43903 0.642637 0
M  V30 7242 C 698.909 1.47291 1.40275 0
M  V30 7243 C 699.264 0.0996024 1.92142 0
M  V30 7244 O 698.557 -0.883423 1.70018 0
M  V30 7245 C 698.751 2.45907 2.59354 0
M  V30 7246 C 698.58 3.92691 2.19143 0
M  V30 7247 C 697.35 4.6097 2.06966 0
M  V30 7248 C 699.548 4.82231 1.78768 0
M  V30 7249 N 697.53 5.9263 1.60196 0
M  V30 7250 C 698.901 6.03246 1.43159 0
M  V30 7251 C 700.956 4.69397 1.66045 0
M  V30 7252 C 699.659 7.12851 0.961014 0
M  V30 7253 C 701.685 5.79016 1.20392 0
M  V30 7254 C 701.047 6.99164 0.857271 0
M  V30 7255 H 697.146 0.594055 0.50855 0
M  V30 7256 H 699.73 1.80153 0.738434 0
M  V30 7257 H 697.901 2.15054 3.23429 0
M  V30 7258 H 699.633 2.39665 3.26102 0
M  V30 7259 H 696.388 4.15622 2.27058 0
M  V30 7260 H 696.812 6.62547 1.39143 0
M  V30 7261 H 701.454 3.76954 1.91482 0
M  V30 7262 H 699.172 8.05113 0.694148 0
M  V30 7263 H 702.758 5.71109 1.11023 0
M  V30 7264 H 701.638 7.82544 0.509408 0
M  V30 7265 N 699.141 -0.881989 1.30609 0
M  V30 7266 C 700.088 -1.98803 1.17244 0
M  V30 7267 C 701.058 -1.65987 0.0611905 0
M  V30 7268 O 702.243 -1.89385 0.231911 0
M  V30 7269 C 699.383 -3.33867 0.87333 0
M  V30 7270 C 698.496 -3.79354 2.06675 0
M  V30 7271 C 697.631 -5.03078 1.70547 0
M  V30 7272 C 696.67 -5.40981 2.86366 0
M  V30 7273 N 695.807 -6.55886 2.50514 0
M  V30 7274 H 700.647 -2.09566 2.11863 0
M  V30 7275 H 698.184 -1.02607 1.05405 0
M  V30 7276 H 700.142 -4.11612 0.680519 0
M  V30 7277 H 698.772 -3.2278 -0.0359983 0
M  V30 7278 H 697.824 -2.97492 2.37071 0
M  V30 7279 H 699.136 -4.03382 2.93401 0
M  V30 7280 H 698.29 -5.88457 1.47658 0
M  V30 7281 H 697.029 -4.80927 0.809947 0
M  V30 7282 H 696.034 -4.54127 3.09917 0
M  V30 7283 H 697.259 -5.65104 3.76609 0
M  V30 7284 H 695.205 -6.35306 1.63471 0
M  V30 7285 H 695.122 -6.79799 3.30771 0
M  V30 7286 H 696.39 -7.44489 2.30989 0
M  V30 7287 N 700.619 -1.13374 -1.09472 0
M  V30 7288 C 701.567 -0.806105 -2.18185 0
M  V30 7289 C 702.561 0.21136 -1.68076 0
M  V30 7290 O 703.767 0.0685558 -1.79869 0
M  V30 7291 H 700.142 -0.242901 -0.71169 0
M  V30 7292 H 702.113 -1.73115 -2.43051 0
M  V30 7293 C 700.862 -0.287928 -3.46506 0
M  V30 7294 H 700.185 -1.06217 -3.85432 0
M  V30 7295 H 701.625 -0.0971054 -4.23889 0
M  V30 7296 C 700.084 0.986256 -3.22141 0
M  V30 7297 O 700.614 2.06217 -3.44728 0
M  V30 7298 N 698.82 0.917153 -2.75747 0
M  V30 7299 H 698.367 0.0414609 -2.57567 0
M  V30 7300 H 698.325 1.77029 -2.59823 0
M  V30 7301 O 702.136 1.21979 -1.05846 0
M  V30 7302 H 702.827 1.79103 -0.73768 0
M  V30 END ATOM
M  V30 BEGIN BOND
M  V30 END BOND
M  V30 END CTAB
M  END
$$$$
