drugbank_target|P00484 Chloramphenicol acetyltransferase 3 (DB02703)
 OpenBabel12092119563D

  0  0  0     0  0            999 V3000
M  V30 BEGIN CTAB
M  V30 COUNTS 3478 3526 0 0 0
M  V30 BEGIN ATOM
M  V30 1 H -0.908 1.98254 -0.117106 0
M  V30 2 N 0 1.576 0 0
M  V30 3 C 0.933 2.03868 1.02534 0
M  V30 4 C 1.911 0.928543 1.3348 0
M  V30 5 O 3.095 1.19667 1.45644 0
M  V30 6 C 0.222 2.43627 2.35294 0
M  V30 7 C -0.732 3.65373 2.2001 0
M  V30 8 S 0.101 5.13292 1.52614 0
M  V30 9 C 1.257 5.56322 2.86805 0
M  V30 10 H 1.49 2.90518 0.631377 0
M  V30 11 H -0.977 1.52953 0.210867 0
M  V30 12 H 0.981 2.67203 3.11629 0
M  V30 13 H -0.358 1.57376 2.7183 0
M  V30 14 H -1.165 3.90944 3.18086 0
M  V30 15 H -1.563 3.418 1.51819 0
M  V30 16 H 0.729 5.58782 3.83104 0
M  V30 17 H 1.672 6.56266 2.65933 0
M  V30 18 H 2.08 4.83886 2.90714 0
M  V30 19 N 1.4781 -0.272755 1.55222 0
M  V30 20 C 2.4261 -1.35705 1.88909 0
M  V30 21 C 3.4201 -1.5112 0.765456 0
M  V30 22 O 4.6261 -1.52901 0.949802 0
M  V30 23 H 1.0011 -0.453868 0.59959 0
M  V30 24 H 2.9721 -1.04544 2.79487 0
M  V30 25 C 1.7211 -2.71049 2.17779 0
M  V30 26 H 1.0441 -2.59979 3.03728 0
M  V30 27 H 2.4841 -3.45858 2.45272 0
M  V30 28 C 0.9431 -3.22165 0.985473 0
M  V30 29 O 1.4731 -4.01096 0.220233 0
M  V30 30 N -0.3209 -2.7985 0.783108 0
M  V30 31 H -0.7739 -2.15775 1.40708 0
M  V30 32 H -0.8159 -3.14397 -0.0130392 0
M  V30 33 N 2.9562 -1.48159 -0.537278 0
M  V30 34 C 4.1862 -1.59223 -1.3165 0
M  V30 35 C 4.5942 -0.248849 -1.87556 0
M  V30 36 O 3.9372 0.770949 -1.6674 0
M  V30 37 C 3.9992 -2.57365 -2.51005 0
M  V30 38 C 3.6632 -4.02603 -2.16239 0
M  V30 39 C 4.6602 -4.90503 -1.72344 0
M  V30 40 C 2.3452 -4.48088 -2.26986 0
M  V30 41 C 4.3392 -6.21913 -1.39651 0
M  V30 42 C 2.0262 -5.7952 -1.93906 0
M  V30 43 C 3.0242 -6.66255 -1.50309 0
M  V30 44 O 2.7122 -7.95243 -1.17659 0
M  V30 45 H 2.4442 -0.539831 -0.406889 0
M  V30 46 H 4.9982 -1.94655 -0.655641 0
M  V30 47 H 3.2282 -2.1704 -3.20048 0
M  V30 48 H 4.9172 -2.58342 -3.13072 0
M  V30 49 H 5.6832 -4.56604 -1.63517 0
M  V30 50 H 1.5622 -3.80769 -2.59877 0
M  V30 51 H 5.1062 -6.89569 -1.0555 0
M  V30 52 H 1.0032 -6.12957 -2.02371 0
M  V30 53 H 1.7712 -8.0793 -1.31119 0
M  V30 54 N 4.4343 0.785586 -1.36625 0
M  V30 55 C 5.6623 1.57448 -1.3423 0
M  V30 56 C 6.0773 1.88649 0.0755653 0
M  V30 57 O 5.4343 1.50414 1.03354 0
M  V30 58 C 5.4853 2.89316 -2.16745 0
M  V30 59 O 5.2063 2.59459 -3.53005 0
M  V30 60 C 6.7073 3.83606 -2.22174 0
M  V30 61 H 3.9273 0.488226 -0.4603 0
M  V30 62 H 6.4713 0.974733 -1.79775 0
M  V30 63 H 4.6263 3.4575 -1.74745 0
M  V30 64 H 5.0403 3.43804 -3.96105 0
M  V30 65 H 6.5143 4.73181 -2.8426 0
M  V30 66 H 6.9913 4.21734 -1.22627 0
M  V30 67 H 7.5973 3.33104 -2.64427 0
M  V30 68 N 5.9124 1.20967 1.01018 0
M  V30 69 C 6.8594 0.964281 2.09691 0
M  V30 70 C 7.8294 -0.107853 1.65749 0
M  V30 71 O 9.0144 0.0381987 1.90762 0
M  V30 72 C 6.1544 0.52943 3.41015 0
M  V30 73 C 5.2674 1.67043 3.98398 0
M  V30 74 C 4.4024 1.18525 5.17808 0
M  V30 75 C 3.4414 2.29892 5.67288 0
M  V30 76 N 2.5784 1.82546 6.77954 0
M  V30 77 H 7.4184 1.89463 2.30017 0
M  V30 78 H 4.9554 0.944289 1.1279 0
M  V30 79 H 6.9134 0.258588 4.16398 0
M  V30 80 H 5.5434 -0.363919 3.20742 0
M  V30 81 H 4.5954 2.05603 3.20049 0
M  V30 82 H 5.9074 2.50877 4.31117 0
M  V30 83 H 5.0614 0.870762 6.00419 0
M  V30 84 H 3.8004 0.316887 4.86669 0
M  V30 85 H 2.8054 2.6215 4.83278 0
M  V30 86 H 4.0304 3.17216 6.00459 0
M  V30 87 H 1.9764 0.980454 6.48632 0
M  V30 88 H 1.8934 2.59956 7.09901 0
M  V30 89 H 3.1614 1.54115 7.64113 0
M  V30 90 N 7.3905 -1.2043 1.01659 0
M  V30 91 C 8.6375 -1.89797 0.705917 0
M  V30 92 C 8.9655 -1.78848 -0.764439 0
M  V30 93 O 8.2205 -1.16694 -1.57102 0
M  V30 94 C 8.5195 -3.40464 1.08714 0
M  V30 95 C 8.1855 -3.71614 2.5537 0
M  V30 96 C 6.8475 -3.79826 2.95441 0
M  V30 97 C 9.1995 -3.85915 3.50313 0
M  V30 98 C 6.5275 -3.99797 4.29394 0
M  V30 99 C 8.8795 -4.07396 4.83954 0
M  V30 100 C 7.5435 -4.13837 5.23732 0
M  V30 101 H 6.8135 -0.694518 0.258313 0
M  V30 102 H 9.4605 -1.42691 1.27717 0
M  V30 103 H 7.7655 -3.89385 0.434309 0
M  V30 104 H 9.4625 -3.92433 0.824461 0
M  V30 105 H 6.0525 -3.65822 2.23321 0
M  V30 106 H 10.2365 -3.78926 3.20513 0
M  V30 107 H 5.4925 -4.03018 4.59768 0
M  V30 108 H 9.6665 -4.17404 5.57447 0
M  V30 109 H 7.2935 -4.29064 6.27541 0
M  V30 110 N 8.8686 -0.792821 -1.36206 0
M  V30 111 C 10.1456 -0.290627 -1.93429 0
M  V30 112 C 10.5256 1.21773 -1.72437 0
M  V30 113 O 9.8736 2.0108 -1.08531 0
M  V30 114 C 10.0836 -0.686973 -3.42172 0
M  V30 115 C 11.4316 -0.668643 -4.19302 0
M  V30 116 O 12.4556 -0.627658 -3.50626 0
M  V30 117 O 11.3146 -0.714597 -5.41808 0
M  V30 118 H 8.4086 -0.0727927 -0.82379 0
M  V30 119 H 10.9546 -0.875593 -1.45367 0
M  V30 120 H 9.7266 -1.72711 -3.51122 0
M  V30 121 H 9.3496 -0.0760733 -3.97527 0
M  V30 122 N 10.3467 1.47872 -0.545128 0
M  V30 123 C 11.5927 2.02793 -0.0166104 0
M  V30 124 C 11.9257 1.41987 1.32489 0
M  V30 125 O 11.2007 0.571045 1.85928 0
M  V30 126 C 11.4837 3.59989 0.0893294 0
M  V30 127 C 11.3367 4.3125 -1.27841 0
M  V30 128 C 12.6557 4.32606 0.808724 0
M  V30 129 H 9.7747 0.736962 -0.00751035 0
M  V30 130 H 12.4167 1.76433 -0.705085 0
M  V30 131 H 10.5667 3.82579 0.675681 0
M  V30 132 H 12.2387 4.20035 -1.90704 0
M  V30 133 H 10.4817 3.92076 -1.85632 0
M  V30 134 H 11.1527 5.39736 -1.15713 0
M  V30 135 H 13.6287 4.14936 0.310992 0
M  V30 136 H 12.5047 5.42251 0.851782 0
M  V30 137 H 12.7657 4.00963 1.86229 0
M  V30 138 N 11.8248 0.280983 1.55075 0
M  V30 139 C 12.7718 -0.603937 2.22758 0
M  V30 140 C 13.7418 -1.1452 1.20309 0
M  V30 141 O 14.9268 -1.19343 1.48869 0
M  V30 142 C 12.0668 -1.77947 2.95684 0
M  V30 143 C 11.1798 -1.2715 4.12864 0
M  V30 144 C 10.3148 -2.4093 4.7342 0
M  V30 145 C 9.3538 -1.87165 5.82783 0
M  V30 146 N 8.4908 -2.94441 6.37377 0
M  V30 147 H 13.3308 -0.020124 2.97993 0
M  V30 148 H 10.8678 0.00183425 1.471 0
M  V30 149 H 12.8258 -2.47055 3.36184 0
M  V30 150 H 11.4558 -2.33522 2.22861 0
M  V30 151 H 10.5078 -0.473331 3.77444 0
M  V30 152 H 11.8198 -0.837751 4.91715 0
M  V30 153 H 10.9738 -3.18021 5.1667 0
M  V30 154 H 9.7128 -2.87623 3.93859 0
M  V30 155 H 8.7178 -1.08556 5.38976 0
M  V30 156 H 9.9428 -1.41401 6.64216 0
M  V30 157 H 7.8888 -3.40505 5.60707 0
M  V30 158 H 7.8058 -2.55501 7.11516 0
M  V30 159 H 9.0738 -3.71489 6.85285 0
M  V30 160 N 13.3029 -1.57598 0.00835791 0
M  V30 161 C 14.2509 -2.10078 -0.998508 0
M  V30 162 C 15.2449 -1.02262 -1.35051 0
M  V30 163 O 16.4509 -1.20719 -1.33518 0
M  V30 164 H 12.8259 -0.670903 -0.339696 0
M  V30 165 H 14.7969 -2.93648 -0.530398 0
M  V30 166 C 13.5459 -2.62615 -2.27879 0
M  V30 167 H 12.8689 -3.45213 -2.01662 0
M  V30 168 H 14.3089 -3.03004 -2.96588 0
M  V30 169 C 12.7679 -1.54407 -2.99433 0
M  V30 170 O 13.2979 -0.931812 -3.90743 0
M  V30 171 N 11.5039 -1.2695 -2.61404 0
M  V30 172 H 11.0509 -1.76924 -1.87232 0
M  V30 173 H 11.0089 -0.547704 -3.09593 0
M  V30 174 N 14.781 0.264519 -1.55364 0
M  V30 175 C 16.027 0.992314 -1.77552 0
M  V30 176 C 16.382 1.83626 -0.574379 0
M  V30 177 O 15.675 1.86648 0.432782 0
M  V30 178 C 15.869 1.9004 -3.02687 0
M  V30 179 C 15.698 1.14583 -4.34857 0
M  V30 180 C 14.468 0.858068 -4.97961 0
M  V30 181 C 16.666 0.532069 -5.1154 0
M  V30 182 N 14.648 0.0775974 -6.13851 0
M  V30 183 C 16.019 -0.113823 -6.19896 0
M  V30 184 C 18.074 0.440763 -4.95945 0
M  V30 185 C 16.777 -0.842231 -7.14352 0
M  V30 186 C 18.803 -0.274072 -5.90765 0
M  V30 187 C 18.165 -0.90867 -6.98515 0
M  V30 188 H 14.264 0.344811 -0.701875 0
M  V30 189 H 16.848 0.267141 -1.92859 0
M  V30 190 H 15.019 2.59775 -2.88741 0
M  V30 191 H 16.751 2.56243 -3.13243 0
M  V30 192 H 13.506 1.16547 -4.59036 0
M  V30 193 H 13.93 -0.300216 -6.76334 0
M  V30 194 H 18.572 0.917064 -4.12735 0
M  V30 195 H 16.29 -1.33019 -7.97077 0
M  V30 196 H 19.876 -0.345151 -5.80775 0
M  V30 197 H 18.756 -1.45299 -7.70622 0
M  V30 198 N 16.2591 1.48442 0.529413 0
M  V30 199 C 17.5051 1.5672 1.28711 0
M  V30 200 C 17.8381 0.2406 1.92704 0
M  V30 201 O 17.1131 -0.753454 1.79313 0
M  V30 202 C 17.3961 2.70587 2.37603 0
M  V30 203 C 17.2491 4.12953 1.78297 0
M  V30 204 C 18.5681 2.80212 3.39366 0
M  V30 205 H 15.6871 0.570474 0.466613 0
M  V30 206 H 18.3291 1.80617 0.589706 0
M  V30 207 H 16.4791 2.50342 2.97088 0
M  V30 208 H 18.1511 4.44639 1.22858 0
M  V30 209 H 16.3941 4.19927 1.0883 0
M  V30 210 H 17.0651 4.88448 2.57144 0
M  V30 211 H 19.5411 2.98553 2.89836 0
M  V30 212 H 18.4171 3.61611 4.12951 0
M  V30 213 H 18.6781 1.88393 3.99951 0
M  V30 214 N 17.7372 -0.778329 1.37039 0
M  V30 215 C 19.1532 -1.07796 1.17695 0
M  V30 216 C 19.3532 -2.01498 0.00860115 0
M  V30 217 O 18.4092 -2.43901 -0.653352 0
M  V30 218 C 19.7222 -1.68178 2.49272 0
M  V30 219 C 21.2702 -1.80467 2.55735 0
M  V30 220 C 21.7452 -2.44263 3.87427 0
M  V30 221 N 23.2362 -2.51721 3.88833 0
M  V30 222 C 23.9712 -3.01919 4.87476 0
M  V30 223 N 23.4672 -3.5234 5.96513 0
M  V30 224 N 25.2602 -3.00733 4.74885 0
M  V30 225 H 17.4112 -0.156032 2.11826 0
M  V30 226 H 19.6742 -0.131844 0.938787 0
M  V30 227 H 19.3802 -1.06796 3.35093 0
M  V30 228 H 19.2542 -2.67554 2.65885 0
M  V30 229 H 21.6412 -2.40984 1.70325 0
M  V30 230 H 21.7222 -0.798656 2.43013 0
M  V30 231 H 21.3662 -1.84388 4.73248 0
M  V30 232 H 21.2962 -3.45458 3.9745 0
M  V30 233 H 23.7872 -2.1603 3.10063 0
M  V30 234 H 24.1002 -3.89027 6.67741 0
M  V30 235 H 22.4452 -3.50462 6.00168 0
M  V30 236 H 25.6362 -2.60638 3.88826 0
M  V30 237 H 25.8092 -3.39545 5.51918 0
M  V30 238 N 19.2153 -1.21501 -1.00376 0
M  V30 239 C 20.6313 -0.972629 -1.26539 0
M  V30 240 C 20.8313 0.340257 -1.98606 0
M  V30 241 O 19.8873 1.06561 -2.28913 0
M  V30 242 C 21.2003 -2.16404 -2.08781 0
M  V30 243 C 22.7483 -2.20643 -2.22004 0
M  V30 244 C 23.2233 -3.39306 -3.07629 0
M  V30 245 N 24.7143 -3.39401 -3.15217 0
M  V30 246 C 25.4493 -4.27867 -3.81729 0
M  V30 247 N 24.9453 -5.26533 -4.5026 0
M  V30 248 N 26.7383 -4.15672 -3.78382 0
M  V30 249 H 18.8893 -2.05929 -0.520281 0
M  V30 250 H 21.1523 -0.901803 -0.292328 0
M  V30 251 H 20.8583 -3.11554 -1.63178 0
M  V30 252 H 20.7323 -2.15567 -3.09533 0
M  V30 253 H 23.1193 -1.26048 -2.66825 0
M  V30 254 H 23.2003 -2.25523 -1.20718 0
M  V30 255 H 22.8443 -4.34195 -2.63509 0
M  V30 256 H 22.7743 -3.31665 -4.09031 0
M  V30 257 H 25.2653 -2.67997 -2.66432 0
M  V30 258 H 25.5783 -5.90337 -4.98721 0
M  V30 259 H 23.9233 -5.30457 -4.49044 0
M  V30 260 H 27.1143 -3.3785 -3.23998 0
M  V30 261 H 27.2873 -4.84825 -4.2994 0
M  V30 262 N 20.6934 1.19889 -1.02296 0
M  V30 263 C 21.6034 2.26571 -0.608508 0
M  V30 264 C 22.6194 1.70299 0.356964 0
M  V30 265 O 23.7954 2.00235 0.216326 0
M  V30 266 C 20.8604 3.46677 0.0402814 0
M  V30 267 C 19.9214 4.18153 -0.97194 0
M  V30 268 C 19.1544 5.32525 -0.354016 0
M  V30 269 O 19.3774 5.64112 0.844604 0
M  V30 270 O 18.3114 5.92242 -1.07391 0
M  V30 271 H 22.1374 2.64251 -1.49684 0
M  V30 272 H 19.7224 1.26629 -0.792809 0
M  V30 273 H 21.6044 4.19475 0.402324 0
M  V30 274 H 20.2794 3.10858 0.902707 0
M  V30 275 H 19.1864 3.47499 -1.38546 0
M  V30 276 H 20.5194 4.57927 -1.80454 0
M  V30 277 N 22.1715 0.800033 1.35784 0
M  V30 278 C 23.1215 0.178654 2.27299 0
M  V30 279 C 24.1055 -0.643667 1.47464 0
M  V30 280 O 25.2975 -0.502 1.69732 0
M  V30 281 C 22.4265 -0.677194 3.36555 0
M  V30 282 C 21.5125 0.154497 4.23818 0
M  V30 283 N 21.9035 1.21427 4.91008 0
M  V30 284 C 20.2015 -0.0649462 4.45953 0
M  V30 285 C 20.9025 1.72147 5.55644 0
M  V30 286 N 19.8785 1.02897 5.33773 0
M  V30 287 H 23.6805 0.989637 2.76737 0
M  V30 288 H 21.1945 0.64054 1.49234 0
M  V30 289 H 23.1915 -1.13835 4.01058 0
M  V30 290 H 21.8515 -1.4866 2.8867 0
M  V30 291 H 22.8625 1.59684 4.92668 0
M  V30 292 H 19.5395 -0.844016 4.0888 0
M  V30 293 H 20.9295 2.60683 6.19269 0
M  V30 294 N 23.6496 -1.47581 0.552962 0
M  V30 295 C 24.8966 -2.02482 0.0273243 0
M  V30 296 C 25.2246 -1.42776 -1.32081 0
M  V30 297 O 24.4796 -0.571393 -1.87173 0
M  V30 298 C 24.7786 -3.57199 -0.119728 0
M  V30 299 C 24.4446 -4.35804 1.15697 0
M  V30 300 C 23.1066 -4.57 1.50681 0
M  V30 301 C 25.4586 -4.81167 2.00319 0
M  V30 302 C 22.7866 -5.20807 2.70142 0
M  V30 303 C 25.1386 -5.46293 3.18978 0
M  V30 304 C 23.8026 -5.65722 3.54281 0
M  V30 305 H 23.0726 -0.740933 0.00999866 0
M  V30 306 H 25.7196 -1.77302 0.72362 0
M  V30 307 H 24.0246 -3.81348 -0.89896 0
M  V30 308 H 25.7216 -3.97324 -0.541718 0
M  V30 309 H 22.3116 -4.19582 0.874561 0
M  V30 310 H 26.4956 -4.64574 1.74599 0
M  V30 311 H 21.7516 -5.34045 2.97668 0
M  V30 312 H 25.9256 -5.80407 3.84838 0
M  V30 313 H 23.5526 -6.14936 4.46942 0
M  V30 314 N 25.1277 -0.289203 -1.54924 0
M  V30 315 C 26.0377 0.601863 -2.26748 0
M  V30 316 C 27.0537 1.15834 -1.2984 0
M  V30 317 O 28.2297 1.18564 -1.62802 0
M  V30 318 C 25.2947 1.76299 -2.98529 0
M  V30 319 C 24.3557 1.24178 -4.10948 0
M  V30 320 C 23.5887 2.34757 -4.79296 0
M  V30 321 O 23.8117 3.54411 -4.46933 0
M  V30 322 O 22.7457 2.02115 -5.66951 0
M  V30 323 H 26.5717 0.0195879 -3.03694 0
M  V30 324 H 24.1567 -0.0560868 -1.49295 0
M  V30 325 H 26.0387 2.43973 -3.43592 0
M  V30 326 H 24.7137 2.33209 -2.24488 0
M  V30 327 H 23.6207 0.531104 -3.70311 0
M  V30 328 H 24.9537 0.718252 -4.86931 0
M  V30 329 N 26.6058 1.57591 -0.0167156 0
M  V30 330 C 27.8528 1.91283 0.664597 0
M  V30 331 C 28.1808 0.891949 1.72842 0
M  V30 332 O 27.4358 -0.100931 1.9544 0
M  V30 333 C 27.7348 3.3172 1.33029 0
M  V30 334 C 27.4008 4.4914 0.398047 0
M  V30 335 C 26.0628 4.80992 0.141421 0
M  V30 336 C 28.4148 5.20634 -0.242825 0
M  V30 337 C 25.7428 5.81703 -0.764092 0
M  V30 338 C 28.0948 6.22311 -1.13632 0
M  V30 339 C 26.7588 6.52611 -1.40196 0
M  V30 340 H 26.0288 0.699956 0.243193 0
M  V30 341 H 28.6758 1.9135 -0.0758267 0
M  V30 342 H 26.9808 3.27856 2.14517 0
M  V30 343 H 28.6778 3.55055 1.86379 0
M  V30 344 H 25.2678 4.24262 0.608238 0
M  V30 345 H 29.4518 4.96267 -0.0576019 0
M  V30 346 H 24.7078 6.03532 -0.977732 0
M  V30 347 H 28.8818 6.76834 -1.63917 0
M  V30 348 H 26.5088 7.30467 -2.10529 0
M  V30 349 N 28.0839 -0.256276 1.55502 0
M  V30 350 C 29.3139 -1.00196 1.80677 0
M  V30 351 C 29.7219 -1.79805 0.588797 0
M  V30 352 O 29.0649 -1.78055 -0.451883 0
M  V30 353 C 29.1269 -1.99515 2.99055 0
M  V30 354 C 28.7909 -1.38688 4.35448 0
M  V30 355 C 29.7879 -0.794079 5.138 0
M  V30 356 C 27.4729 -1.40906 4.82132 0
M  V30 357 C 29.4669 -0.231562 6.36979 0
M  V30 358 C 27.1539 -0.842684 6.05262 0
M  V30 359 C 28.1519 -0.254953 6.82524 0
M  V30 360 O 27.8399 0.3027 8.0333 0
M  V30 361 H 27.5719 -0.300919 0.60533 0
M  V30 362 H 30.1259 -0.287307 2.03381 0
M  V30 363 H 28.3559 -2.74785 2.72084 0
M  V30 364 H 30.0449 -2.60349 3.11405 0
M  V30 365 H 30.8109 -0.769519 4.78856 0
M  V30 366 H 26.6899 -1.85591 4.21992 0
M  V30 367 H 30.2339 0.227816 6.97228 0
M  V30 368 H 26.1309 -0.86454 6.39684 0
M  V30 369 H 26.8989 0.193662 8.18271 0
M  V30 370 N 29.562 -1.4872 -0.521534 0
M  V30 371 C 30.978 -1.35028 -0.850855 0
M  V30 372 C 31.178 -0.367712 -1.98116 0
M  V30 373 O 30.234 0.208037 -2.51642 0
M  V30 374 C 31.547 -2.75263 -1.21041 0
M  V30 375 C 33.095 -2.83813 -1.31981 0
M  V30 376 C 33.57 -4.24769 -1.71276 0
M  V30 377 N 35.061 -4.27482 -1.78363 0
M  V30 378 C 35.796 -5.33494 -2.1017 0
M  V30 379 N 35.292 -6.49775 -2.40343 0
M  V30 380 N 37.085 -5.20894 -2.11248 0
M  V30 381 H 29.236 -2.11214 0.22413 0
M  V30 382 H 31.499 -0.947252 0.0376439 0
M  V30 383 H 31.205 -3.48765 -0.453415 0
M  V30 384 H 31.079 -3.09327 -2.15863 0
M  V30 385 H 33.466 -2.10561 -2.06756 0
M  V30 386 H 33.547 -2.53358 -0.352596 0
M  V30 387 H 33.191 -4.9854 -0.970588 0
M  V30 388 H 33.121 -4.52673 -2.69062 0
M  V30 389 H 35.612 -3.43611 -1.57288 0
M  V30 390 H 35.925 -7.26402 -2.63743 0
M  V30 391 H 34.27 -6.53035 -2.37844 0
M  V30 392 H 37.461 -4.29065 -1.87139 0
M  V30 393 H 37.634 -6.03612 -2.35704 0
M  V30 394 N 31.0401 0.771051 -1.3745 0
M  V30 395 C 31.9901 1.87456 -1.29785 0
M  V30 396 C 32.9741 1.59827 -0.185541 0
M  V30 397 O 34.1661 1.71945 -0.419997 0
M  V30 398 C 31.2951 3.24935 -1.1078 0
M  V30 399 C 30.3811 3.58514 -2.26558 0
M  V30 400 N 30.7721 3.6327 -3.5195 0
M  V30 401 C 29.0701 3.88683 -2.18727 0
M  V30 402 C 29.7711 3.93616 -4.283 0
M  V30 403 N 28.7471 4.09551 -3.57448 0
M  V30 404 H 32.5491 1.89386 -2.24745 0
M  V30 405 H 30.0631 0.967531 -1.30432 0
M  V30 406 H 32.0601 4.03881 -1.03374 0
M  V30 407 H 30.7201 3.24268 -0.16738 0
M  V30 408 H 31.7311 3.45458 -3.85848 0
M  V30 409 H 28.4081 3.95834 -1.32746 0
M  V30 410 H 29.7981 4.04066 -5.36824 0
M  V30 411 N 32.5182 1.22032 0.997298 0
M  V30 412 C 33.9342 0.979326 1.26021 0
M  V30 413 C 34.1342 -0.32972 1.98784 0
M  V30 414 O 33.1902 -1.05345 2.29475 0
M  V30 415 C 34.5032 2.17509 2.07631 0
M  V30 416 C 36.0512 2.21817 2.2083 0
M  V30 417 C 36.5262 3.40933 3.05825 0
M  V30 418 N 38.0172 3.41067 3.13412 0
M  V30 419 C 38.7522 4.29885 3.79455 0
M  V30 420 N 38.2482 5.28914 4.47462 0
M  V30 421 N 40.0412 4.17673 3.76173 0
M  V30 422 H 32.1922 2.06202 0.509352 0
M  V30 423 H 34.4552 0.90334 0.287541 0
M  V30 424 H 34.1612 3.12415 1.61524 0
M  V30 425 H 34.0352 2.17206 3.08385 0
M  V30 426 H 36.4222 1.27462 2.66153 0
M  V30 427 H 36.5032 2.2616 1.1952 0
M  V30 428 H 36.1472 4.35586 2.61203 0
M  V30 429 H 36.0772 3.33829 4.07266 0
M  V30 430 H 38.5682 2.69406 2.65007 0
M  V30 431 H 38.8812 5.92973 4.95583 0
M  V30 432 H 37.2262 5.32831 4.46224 0
M  V30 433 H 40.4172 3.39564 3.22202 0
M  V30 434 H 40.5902 4.87098 4.27363 0
M  V30 435 N 33.9963 -1.19345 1.0293 0
M  V30 436 C 34.9263 -2.2481 0.631105 0
M  V30 437 C 35.9073 -1.66245 -0.360104 0
M  V30 438 O 37.0923 -1.92677 -0.242726 0
M  V30 439 C 34.2223 -3.47295 -0.0184607 0
M  V30 440 C 33.1763 -4.18536 0.895073 0
M  V30 441 C 32.5023 -5.34586 0.110592 0
M  V30 442 C 33.8023 -4.73287 2.209 0
M  V30 443 H 35.4963 -2.58372 1.51275 0
M  V30 444 H 33.0423 -1.24194 0.728818 0
M  V30 445 H 34.9953 -4.20268 -0.308675 0
M  V30 446 H 33.7193 -3.12933 -0.934907 0
M  V30 447 H 32.3783 -3.47446 1.16949 0
M  V30 448 H 32.0263 -4.96469 -0.807902 0
M  V30 449 H 31.7263 -5.83183 0.719087 0
M  V30 450 H 33.2503 -6.10355 -0.172871 0
M  V30 451 H 34.6643 -5.38013 1.98028 0
M  V30 452 H 33.0613 -5.32373 2.76946 0
M  V30 453 H 34.1313 -3.91331 2.86336 0
M  V30 454 N 35.4744 -0.807222 -1.35358 0
M  V30 455 C 36.8854 -0.44876 -1.81226 0
M  V30 456 C 37.2364 1.02929 -1.67033 0
M  V30 457 O 36.3614 1.79991 -1.20133 0
M  V30 458 C 36.9564 -0.807774 -3.2903 0
M  V30 459 C 35.5154 -0.501901 -3.73039 0
M  V30 460 C 34.6624 -1.03304 -2.57339 0
M  V30 461 H 37.6134 -0.998808 -1.23327 0
M  V30 462 H 37.6344 -0.10554 -3.80354 0
M  V30 463 H 37.1464 -1.88357 -3.39328 0
M  V30 464 H 35.2474 0.565128 -3.68289 0
M  V30 465 H 35.3604 -1.03497 -4.67787 0
M  V30 466 H 33.7244 -0.455339 -2.50597 0
M  V30 467 H 34.5074 -2.11496 -2.70415 0
M  V30 468 N 36.9525 1.47285 -0.560781 0
M  V30 469 C 38.1925 2.0436 -0.0404627 0
M  V30 470 C 38.5565 1.42534 1.28639 0
M  V30 471 O 39.7575 1.90677 1.89462 0
M  V30 472 C 38.0285 3.57369 0.0471856 0
M  V30 473 S 39.5875 4.3579 0.513109 0
M  V30 474 H 36.4055 0.710492 -0.0268674 0
M  V30 475 H 39.0075 1.80611 -0.748323 0
M  V30 476 H 37.7115 3.9989 -0.922817 0
M  V30 477 H 37.2425 3.8562 0.778491 0
M  V30 478 H 39.2575 4.63476 1.77212 0
M  V30 479 N 38.4306 0.297415 1.54768 0
M  V30 480 C 39.6786 -0.312295 1.99673 0
M  V30 481 C 39.9996 -1.54686 1.18732 0
M  V30 482 O 39.2696 -1.93854 0.282382 0
M  V30 483 H 37.8496 -0.118381 0.73756 0
M  V30 484 H 40.5116 0.407915 1.90583 0
M  V30 485 H 39.6076 -0.586813 3.06534 0
M  V30 486 N 39.9087 -1.5758 0.0250728 0
M  V30 487 C 41.1557 -1.91633 -0.654444 0
M  V30 488 C 41.4837 -0.901103 -1.72367 0
M  V30 489 O 40.7387 0.0905647 -1.9549 0
M  V30 490 C 41.0377 -3.32421 -1.31268 0
M  V30 491 C 40.7037 -4.49344 -0.374223 0
M  V30 492 C 39.3657 -4.8106 -0.115911 0
M  V30 493 C 41.7177 -5.20498 0.270432 0
M  V30 494 C 39.0457 -5.8129 0.79493 0
M  V30 495 C 41.3977 -6.21699 1.1693 0
M  V30 496 C 40.0617 -6.51859 1.43655 0
M  V30 497 H 39.3317 -0.701236 -0.239478 0
M  V30 498 H 41.9787 -1.91307 0.0859734 0
M  V30 499 H 40.2837 -3.28989 -2.12775 0
M  V30 500 H 41.9807 -3.56038 -1.84494 0
M  V30 501 H 38.5707 -4.24579 -0.58573 0
M  V30 502 H 42.7547 -4.96229 0.0839194 0
M  V30 503 H 38.0107 -6.03005 1.00973 0
M  V30 504 H 42.1847 -6.75955 1.67504 0
M  V30 505 H 39.8117 -7.2934 2.144 0
M  V30 506 N 41.3868 0.248026 -1.55636 0
M  V30 507 C 42.6118 0.998028 -1.81808 0
M  V30 508 C 43.0368 1.78207 -0.601979 0
M  V30 509 O 42.3948 1.75653 0.448961 0
M  V30 510 C 42.4428 1.9125 -3.05705 0
M  V30 511 O 41.5468 3.00406 -2.82542 0
M  V30 512 H 40.8878 0.284045 -0.600179 0
M  V30 513 H 43.4178 0.269357 -2.02819 0
M  V30 514 H 43.4278 2.32737 -3.35108 0
M  V30 515 H 42.1028 1.33602 -3.93857 0
M  V30 516 H 40.6798 2.63056 -2.64303 0
M  V30 517 N 42.8649 1.48995 0.513639 0
M  V30 518 C 43.7949 1.67636 1.62544 0
M  V30 519 C 44.7759 0.525087 1.61793 0
M  V30 520 O 45.9609 0.759502 1.78732 0
M  V30 521 C 43.0909 1.73114 3.01079 0
M  V30 522 C 42.0449 2.87905 3.16693 0
M  V30 523 C 41.3709 2.78486 4.56453 0
M  V30 524 C 42.6709 4.29005 2.97913 0
M  V30 525 H 44.3649 2.60716 1.47198 0
M  V30 526 H 41.9109 1.25465 0.706714 0
M  V30 527 H 43.8639 1.84742 3.78746 0
M  V30 528 H 42.5879 0.766241 3.17484 0
M  V30 529 H 41.2469 2.75859 2.41448 0
M  V30 530 H 40.8949 1.7993 4.69717 0
M  V30 531 H 40.5949 3.55523 4.67843 0
M  V30 532 H 42.1189 2.92104 5.36197 0
M  V30 533 H 43.5329 4.41798 3.65359 0
M  V30 534 H 41.9299 5.07166 3.20785 0
M  V30 535 H 42.9999 4.44329 1.94165 0
M  V30 536 N 44.343 -0.763751 1.37857 0
M  V30 537 C 45.571 -1.55293 1.36718 0
M  V30 538 C 45.986 -1.88745 -0.0455434 0
M  V30 539 O 45.343 -1.52039 -1.00947 0
M  V30 540 C 45.394 -2.85831 2.2132 0
M  V30 541 O 45.115 -2.5381 3.57089 0
M  V30 542 C 46.616 -3.80023 2.28249 0
M  V30 543 H 43.836 -0.480841 0.468009 0
M  V30 544 H 46.38 -0.946009 1.81303 0
M  V30 545 H 44.535 -3.42926 1.80223 0
M  V30 546 H 44.949 -3.37459 4.01524 0
M  V30 547 H 46.423 -4.68599 2.91752 0
M  V30 548 H 46.9 -4.1973 1.2932 0
M  V30 549 H 47.506 -3.28855 2.69693 0
M  V30 550 N 45.8211 -1.22559 -0.990812 0
M  V30 551 C 47.0461 -1.07862 -1.77145 0
M  V30 552 C 47.4711 0.366447 -1.84496 0
M  V30 553 O 46.8291 1.26478 -1.29896 0
M  V30 554 C 46.8771 -1.69686 -3.18181 0
M  V30 555 O 45.9811 -0.951946 -4.01263 0
M  V30 556 H 45.3221 -0.378712 -0.545411 0
M  V30 557 H 47.8521 -1.62399 -1.2445 0
M  V30 558 H 47.8621 -1.74496 -3.68802 0
M  V30 559 H 46.5371 -2.74841 -3.12146 0
M  V30 560 H 45.1141 -0.980011 -3.59792 0
M  V30 561 N 47.2992 1.18797 -1.03562 0
M  V30 562 C 48.2462 2.22253 -0.622259 0
M  V30 563 C 49.2162 1.61987 0.36736 0
M  V30 564 O 50.4012 1.88986 0.262492 0
M  V30 565 C 47.5412 3.45097 0.0138462 0
M  V30 566 C 46.6542 4.19722 -1.02263 0
M  V30 567 C 45.7892 5.30009 -0.355573 0
M  V30 568 C 44.8282 5.96399 -1.37749 0
M  V30 569 N 43.9652 6.98234 -0.735766 0
M  V30 570 H 48.8052 2.56968 -1.50903 0
M  V30 571 H 46.3422 1.26245 -0.755017 0
M  V30 572 H 48.3002 4.15279 0.399948 0
M  V30 573 H 46.9302 3.11018 0.864158 0
M  V30 574 H 45.9822 3.48418 -1.52673 0
M  V30 575 H 47.2942 4.65227 -1.79903 0
M  V30 576 H 46.4482 6.0664 0.0850095 0
M  V30 577 H 45.1872 4.85592 0.452967 0
M  V30 578 H 44.1922 5.18512 -1.82826 0
M  V30 579 H 45.4172 6.42899 -2.18764 0
M  V30 580 H 43.3632 6.55979 0.0525597 0
M  V30 581 H 43.2802 7.41965 -1.44995 0
M  V30 582 H 44.5482 7.78845 -0.31941 0
M  V30 583 N 48.7773 0.814389 1.34928 0
M  V30 584 C 50.0263 0.394871 1.97797 0
M  V30 585 C 50.3393 -1.04555 1.65311 0
M  V30 586 O 51.5453 -1.56856 2.21604 0
M  V30 587 C 50.0013 0.655103 3.53888 0
M  V30 588 C 49.6093 2.10858 3.95276 0
M  V30 589 C 51.3533 0.301329 4.23429 0
M  V30 590 C 49.2603 2.31415 5.44244 0
M  V30 591 H 48.1903 0.143913 0.740139 0
M  V30 592 H 50.8413 0.999544 1.53888 0
M  V30 593 H 49.2233 -0.0196253 3.95995 0
M  V30 594 H 50.3973 2.82176 3.64298 0
M  V30 595 H 48.7123 2.42297 3.38646 0
M  V30 596 H 51.3093 0.432869 5.32945 0
M  V30 597 H 51.6523 -0.75331 4.09428 0
M  V30 598 H 52.1853 0.930288 3.86769 0
M  V30 599 H 48.9243 3.35353 5.63222 0
M  V30 600 H 48.4443 1.6463 5.76764 0
M  V30 601 H 50.1233 2.13352 6.10811 0
M  V30 602 N 50.2554 -1.46986 0.568584 0
M  V30 603 C 51.5324 -1.95592 -0.0174074 0
M  V30 604 C 51.9124 -1.51124 -1.47393 0
M  V30 605 O 51.2604 -0.755329 -2.15655 0
M  V30 606 C 51.4704 -3.48719 0.139913 0
M  V30 607 C 52.8184 -4.246 0.000426376 0
M  V30 608 O 53.8424 -3.56135 0.0680316 0
M  V30 609 O 52.7014 -5.46302 -0.146988 0
M  V30 610 H 49.7954 -0.82498 -0.0577599 0
M  V30 611 H 52.3414 -1.57335 0.635909 0
M  V30 612 H 51.1134 -3.73927 1.15301 0
M  V30 613 H 50.7364 -3.93771 -0.550491 0
M  V30 614 N 51.7335 -0.305618 -1.54608 0
M  V30 615 C 52.9825 0.303098 -1.9941 0
M  V30 616 C 53.2955 1.54648 -1.19764 0
M  V30 617 O 54.5015 2.23007 -1.54855 0
M  V30 618 C 52.9575 0.590588 -3.55021 0
M  V30 619 C 52.5655 -0.634719 -4.43481 0
M  V30 620 C 54.3095 1.16025 -4.08336 0
M  V30 621 C 52.2165 -0.320126 -5.90533 0
M  V30 622 H 51.1465 0.117031 -0.744862 0
M  V30 623 H 53.7975 -0.415045 -1.78745 0
M  V30 624 H 52.1795 1.36845 -3.71604 0
M  V30 625 H 53.3535 -1.41079 -4.38672 0
M  V30 626 H 51.6685 -1.12333 -4.00962 0
M  V30 627 H 54.2655 1.40994 -5.15776 0
M  V30 628 H 54.6085 2.10397 -3.5922 0
M  V30 629 H 55.1415 0.443985 -3.95315 0
M  V30 630 H 51.8805 -1.23254 -6.43808 0
M  V30 631 H 51.4005 0.418579 -5.98338 0
M  V30 632 H 53.0795 0.0766241 -6.46955 0
M  V30 633 N 53.2116 1.57565 -0.0334293 0
M  V30 634 C 54.4396 1.9628 0.654347 0
M  V30 635 C 54.8546 0.910138 1.65414 0
M  V30 636 O 54.2116 -0.107595 1.82183 0
M  V30 637 C 54.2626 3.35067 1.35693 0
M  V30 638 O 53.9836 4.36296 0.397191 0
M  V30 639 C 55.4846 3.88439 2.13613 0
M  V30 640 H 52.7046 0.646369 0.180132 0
M  V30 641 H 55.2486 2.04282 -0.0944721 0
M  V30 642 H 53.4036 3.2827 2.05712 0
M  V30 643 H 53.8176 5.1678 0.896597 0
M  V30 644 H 55.2916 4.8788 2.58219 0
M  V30 645 H 55.7686 3.22914 2.97696 0
M  V30 646 H 56.3746 3.98516 1.48543 0
M  V30 647 N 54.6897 -0.239769 1.55765 0
M  V30 648 C 55.9177 -0.98417 1.81994 0
M  V30 649 C 56.3327 -1.7867 0.610124 0
M  V30 650 O 55.6897 -1.77571 -0.421271 0
M  V30 651 C 55.7407 -1.91635 3.06526 0
M  V30 652 O 55.4617 -1.14629 4.22838 0
M  V30 653 C 56.9627 -2.77616 3.45607 0
M  V30 654 H 54.1827 -0.28928 0.605441 0
M  V30 655 H 56.7267 -0.260499 2.02834 0
M  V30 656 H 54.8817 -2.5942 2.87715 0
M  V30 657 H 55.2957 -1.77745 4.93464 0
M  V30 658 H 56.7697 -3.38759 4.35828 0
M  V30 659 H 57.2467 -3.4909 2.6652 0
M  V30 660 H 57.8527 -2.15271 3.66795 0
M  V30 661 N 56.1678 -1.49265 -0.50573 0
M  V30 662 C 57.0978 -1.68495 -1.61653 0
M  V30 663 C 58.0788 -0.53366 -1.61512 0
M  V30 664 O 59.2638 -0.76897 -1.78327 0
M  V30 665 C 56.3938 -1.74709 -3.00157 0
M  V30 666 C 55.3478 -2.89581 -3.15162 0
M  V30 667 C 54.6738 -2.80903 -4.5497 0
M  V30 668 C 55.9738 -4.30578 -2.95634 0
M  V30 669 H 57.6678 -2.61493 -1.45814 0
M  V30 670 H 55.2138 -1.25838 -0.70005 0
M  V30 671 H 57.1668 -1.86748 -3.77761 0
M  V30 672 H 55.8908 -0.783067 -3.17074 0
M  V30 673 H 54.5498 -2.77136 -2.39982 0
M  V30 674 H 54.1978 -1.82419 -4.68756 0
M  V30 675 H 53.8978 -3.57999 -4.65951 0
M  V30 676 H 55.4218 -2.94944 -5.34641 0
M  V30 677 H 56.8358 -4.4373 -3.63011 0
M  V30 678 H 55.2328 -5.0886 -3.18091 0
M  V30 679 H 56.3028 -4.45352 -1.91806 0
M  V30 680 N 57.6459 0.756429 -1.3826 0
M  V30 681 C 58.5929 1.87011 -1.35261 0
M  V30 682 C 59.5629 1.64695 -0.215616 0
M  V30 683 O 60.7479 1.864 -0.407399 0
M  V30 684 C 57.8879 3.24275 -1.18068 0
M  V30 685 C 57.0009 3.58442 -2.41129 0
M  V30 686 C 56.1359 4.84994 -2.16689 0
M  V30 687 C 55.1749 5.11939 -3.35537 0
M  V30 688 N 54.3119 6.29685 -3.10549 0
M  V30 689 H 59.1519 1.8891 -2.30472 0
M  V30 690 H 56.6889 0.923373 -1.14509 0
M  V30 691 H 58.6469 4.03479 -1.06116 0
M  V30 692 H 57.2769 3.21711 -0.264973 0
M  V30 693 H 56.3289 2.74103 -2.63764 0
M  V30 694 H 57.6409 3.74283 -3.29717 0
M  V30 695 H 56.7949 5.72135 -2.01857 0
M  V30 696 H 55.5339 4.71286 -1.25462 0
M  V30 697 H 54.5389 4.23268 -3.50891 0
M  V30 698 H 55.7639 5.27546 -4.27635 0
M  V30 699 H 53.7099 6.17306 -2.21967 0
M  V30 700 H 53.6269 6.46014 -3.92686 0
M  V30 701 H 54.8949 7.19722 -2.99367 0
M  V30 702 N 59.124 1.23083 0.984299 0
M  V30 703 C 60.071 1.00854 2.07598 0
M  V30 704 C 61.041 -0.0726709 1.65941 0
M  V30 705 O 62.226 0.0786535 1.90638 0
M  V30 706 C 59.366 0.601645 3.39815 0
M  V30 707 C 58.479 1.75456 3.94765 0
M  V30 708 C 57.614 1.29482 5.15177 0
M  V30 709 C 56.653 2.41873 5.62284 0
M  V30 710 N 55.79 1.96885 6.73929 0
M  V30 711 H 60.63 1.943 2.25946 0
M  V30 712 H 58.167 0.968001 1.10762 0
M  V30 713 H 60.125 0.346854 4.15756 0
M  V30 714 H 58.755 -0.295803 3.21442 0
M  V30 715 H 57.807 2.12346 3.15616 0
M  V30 716 H 59.119 2.59965 4.25699 0
M  V30 717 H 58.273 0.997923 5.98437 0
M  V30 718 H 57.012 0.420046 4.85888 0
M  V30 719 H 56.017 2.72342 4.77608 0
M  V30 720 H 57.242 3.29881 5.93595 0
M  V30 721 H 55.188 1.11782 6.46406 0
M  V30 722 H 55.105 2.74956 7.04227 0
M  V30 723 H 56.373 1.70289 7.60672 0
M  V30 724 N 60.6021 -1.18246 1.0419 0
M  V30 725 C 61.8271 -1.92736 0.765996 0
M  V30 726 C 62.2521 -1.75728 -0.67091 0
M  V30 727 O 61.6101 -1.06825 -1.46486 0
M  V30 728 C 61.6581 -3.42148 1.13875 0
M  V30 729 O 60.7621 -4.11548 0.264954 0
M  V30 730 H 60.1031 -0.601238 0.281797 0
M  V30 731 H 62.6331 -1.49942 1.39207 0
M  V30 732 H 62.6431 -3.92858 1.1012 0
M  V30 733 H 61.3181 -3.53848 2.18551 0
M  V30 734 H 59.8951 -3.71137 0.362226 0
M  V30 735 N 62.0802 -0.821533 -1.34494 0
M  V30 736 C 63.0102 -0.257138 -2.3208 0
M  V30 737 C 63.9912 0.625645 -1.58176 0
M  V30 738 O 65.1762 0.552811 -1.86166 0
M  V30 739 C 62.3062 0.582958 -3.42372 0
M  V30 740 C 61.2602 -0.202571 -4.2752 0
M  V30 741 C 60.5862 0.760179 -5.29269 0
M  V30 742 C 61.8862 -1.40998 -5.02908 0
M  V30 743 H 63.5802 -1.07247 -2.79532 0
M  V30 744 H 61.1262 -0.517163 -1.34393 0
M  V30 745 H 63.0792 0.987972 -4.09655 0
M  V30 746 H 61.8032 1.43133 -2.93565 0
M  V30 747 H 60.4622 -0.588936 -3.61838 0
M  V30 748 H 60.1102 1.60447 -4.76724 0
M  V30 749 H 59.8102 0.238809 -5.87115 0
M  V30 750 H 61.3342 1.16308 -5.9942 0
M  V30 751 H 62.7482 -1.07905 -5.63054 0
M  V30 752 H 61.1452 -1.86689 -5.70322 0
M  V30 753 H 62.2152 -2.1889 -4.32684 0
M  V30 754 N 63.5583 1.46682 -0.576371 0
M  V30 755 C 64.8353 1.95599 0.00703437 0
M  V30 756 C 65.2153 1.51904 1.46589 0
M  V30 757 O 64.5633 0.766755 2.15251 0
M  V30 758 C 64.7733 3.4864 -0.158404 0
M  V30 759 C 66.1213 4.24594 -0.0229439 0
M  V30 760 O 67.1453 3.56094 -0.0869173 0
M  V30 761 O 66.0043 5.46373 0.118015 0
M  V30 762 H 63.0983 0.825275 0.053384 0
M  V30 763 H 65.6443 1.56996 -0.644244 0
M  V30 764 H 64.4163 3.7331 -1.17282 0
M  V30 765 H 64.0393 3.94057 0.5296 0
M  V30 766 N 65.0364 0.313813 1.54444 0
M  V30 767 C 66.3134 -0.345447 1.92525 0
M  V30 768 C 66.6934 -1.70667 1.24242 0
M  V30 769 O 66.0414 -2.25273 0.382654 0
M  V30 770 C 66.2514 -0.44737 3.46121 0
M  V30 771 C 67.5994 -0.712238 4.18584 0
M  V30 772 O 68.6234 -0.530678 3.52225 0
M  V30 773 O 67.4824 -1.06183 5.36085 0
M  V30 774 H 64.5764 -0.195407 0.803583 0
M  V30 775 H 67.1224 0.362813 1.65776 0
M  V30 776 H 65.8944 0.509043 3.87975 0
M  V30 777 H 65.5174 -1.20359 3.78945 0
M  V30 778 N 66.5145 -1.57545 0.0417849 0
M  V30 779 C 67.7395 -1.97035 -0.647455 0
M  V30 780 C 68.1645 -0.918775 -1.64135 0
M  V30 781 O 67.5225 0.119006 -1.80909 0
M  V30 782 C 67.5705 -3.35609 -1.31905 0
M  V30 783 O 66.6745 -3.3287 -2.43457 0
M  V30 784 H 66.0155 -0.64211 -0.169086 0
M  V30 785 H 68.5455 -2.04318 0.107399 0
M  V30 786 H 68.5555 -3.72126 -1.67291 0
M  V30 787 H 67.2305 -4.11685 -0.590586 0
M  V30 788 H 65.8075 -3.08087 -2.10088 0
M  V30 789 N 67.9926 0.231505 -1.5589 0
M  V30 790 C 68.9556 1.27028 -1.90779 0
M  V30 791 C 69.9556 1.40308 -0.785507 0
M  V30 792 O 71.1456 1.38744 -1.05336 0
M  V30 793 C 68.2776 2.64566 -2.14983 0
M  V30 794 H 69.4706 0.973017 -2.83677 0
M  V30 795 H 67.0236 0.471486 -1.49019 0
M  V30 796 H 67.7586 2.99406 -1.24604 0
M  V30 797 H 67.5436 2.56305 -2.96732 0
M  V30 798 H 69.0336 3.39543 -2.43105 0
M  V30 799 N 69.4707 1.49531 0.497807 0
M  V30 800 C 70.7007 1.62657 1.27382 0
M  V30 801 C 71.1087 0.298488 1.86831 0
M  V30 802 O 70.4517 -0.72647 1.68725 0
M  V30 803 C 70.5137 2.6393 2.44093 0
M  V30 804 C 70.1777 4.08195 2.05489 0
M  V30 805 C 71.1747 4.949 1.59279 0
M  V30 806 C 68.8597 4.53948 2.15026 0
M  V30 807 C 70.8537 6.25397 1.23113 0
M  V30 808 C 68.5407 5.84458 1.78473 0
M  V30 809 C 69.5387 6.70006 1.32591 0
M  V30 810 O 69.2267 7.98083 0.965327 0
M  V30 811 H 68.9587 0.550429 0.392434 0
M  V30 812 H 71.5127 1.96325 0.603801 0
M  V30 813 H 69.7427 2.25449 3.14181 0
M  V30 814 H 71.4317 2.66552 3.06113 0
M  V30 815 H 72.1977 4.60779 1.51354 0
M  V30 816 H 68.0767 3.87525 2.4969 0
M  V30 817 H 71.6207 6.92125 0.872299 0
M  V30 818 H 67.5177 6.18107 1.86048 0
M  V30 819 H 68.2857 8.11122 1.09652 0
M  V30 820 N 70.9488 -0.749086 1.3866 0
M  V30 821 C 71.8958 -1.86291 1.36251 0
M  V30 822 C 72.8658 -1.64578 0.224347 0
M  V30 823 O 74.0508 -1.86181 0.417279 0
M  V30 824 C 71.1908 -3.23644 1.19786 0
M  V30 825 C 70.3038 -3.57158 2.43027 0
M  V30 826 C 69.4388 -4.83838 2.19258 0
M  V30 827 C 68.4778 -5.10152 3.38247 0
M  V30 828 N 67.6148 -6.28029 3.13884 0
M  V30 829 H 72.4548 -1.87685 2.3147 0
M  V30 830 H 69.9918 -0.917287 1.14997 0
M  V30 831 H 71.9498 -4.0291 1.08254 0
M  V30 832 H 70.5798 -3.21566 0.282031 0
M  V30 833 H 69.6318 -2.72701 2.65214 0
M  V30 834 H 70.9438 -3.7253 3.31697 0
M  V30 835 H 70.0978 -5.71057 2.04888 0
M  V30 836 H 68.8368 -4.70614 1.2796 0
M  V30 837 H 67.8418 -4.21401 3.53131 0
M  V30 838 H 69.0668 -5.25271 4.30427 0
M  V30 839 H 67.0128 -6.1612 2.25238 0
M  V30 840 H 66.9298 -6.43922 3.96106 0
M  V30 841 H 68.1978 -7.18124 3.03179 0
M  V30 842 N 72.4269 -1.23603 -0.977757 0
M  V30 843 C 73.6739 -1.06971 -1.71941 0
M  V30 844 C 74.0019 0.393009 -1.90488 0
M  V30 845 O 73.2569 1.30719 -1.4564 0
M  V30 846 C 73.5559 -1.7433 -3.11999 0
M  V30 847 C 73.2219 -3.24252 -3.13323 0
M  V30 848 C 71.8839 -3.65156 -3.13392 0
M  V30 849 C 74.2359 -4.20141 -3.08433 0
M  V30 850 C 71.5639 -5.00403 -3.0629 0
M  V30 851 C 73.9159 -5.55384 -3.02873 0
M  V30 852 C 72.5799 -5.95647 -3.01265 0
M  V30 853 H 71.8499 -0.391433 -0.629175 0
M  V30 854 H 74.4969 -1.53572 -1.14403 0
M  V30 855 H 72.8019 -1.20096 -3.7294 0
M  V30 856 H 74.4989 -1.58936 -3.68158 0
M  V30 857 H 71.0889 -2.91692 -3.14029 0
M  V30 858 H 75.2729 -3.89547 -3.07517 0
M  V30 859 H 70.5289 -5.3081 -3.03399 0
M  V30 860 H 74.7029 -6.29398 -2.98046 0
M  V30 861 H 72.3299 -7.0041 -2.95516 0
M  V30 862 N 73.905 1.17692 -1.04816 0
M  V30 863 C 75.135 1.91508 -0.775128 0
M  V30 864 C 75.543 1.76844 0.67253 0
M  V30 865 O 74.886 1.10057 1.47082 0
M  V30 866 C 74.948 3.43167 -1.0713 0
M  V30 867 C 74.612 3.81612 -2.51438 0
M  V30 868 C 75.609 3.84772 -3.49638 0
M  V30 869 C 73.294 4.12687 -2.86348 0
M  V30 870 C 75.288 4.18469 -4.80794 0
M  V30 871 C 72.975 4.46053 -4.17708 0
M  V30 872 C 73.973 4.48921 -5.14741 0
M  V30 873 O 73.661 4.81504 -6.43746 0
M  V30 874 H 73.393 0.614575 -0.281555 0
M  V30 875 H 75.947 1.50206 -1.40098 0
M  V30 876 H 74.177 3.84745 -0.388342 0
M  V30 877 H 75.866 3.98239 -0.784883 0
M  V30 878 H 76.632 3.60893 -3.24008 0
M  V30 879 H 72.511 4.09627 -2.11486 0
M  V30 880 H 76.055 4.20623 -5.56527 0
M  V30 881 H 71.952 4.69393 -4.43103 0
M  V30 882 H 72.72 4.99377 -6.4851 0
M  V30 883 N 75.3831 0.828654 1.34056 0
M  V30 884 C 76.7941 0.477534 1.8049 0
M  V30 885 C 77.1451 -1.00258 1.6865 0
M  V30 886 O 76.2701 -1.78057 1.22982 0
M  V30 887 C 76.8651 0.860018 3.27703 0
M  V30 888 C 75.4241 0.561185 3.72193 0
M  V30 889 C 74.5711 1.07385 2.55663 0
M  V30 890 H 77.5221 1.0183 1.21722 0
M  V30 891 H 77.5431 0.166038 3.80138 0
M  V30 892 H 77.0551 1.93731 3.36288 0
M  V30 893 H 75.1561 -0.506465 3.69142 0
M  V30 894 H 75.2691 1.10926 4.66082 0
M  V30 895 H 73.6331 0.495149 2.49841 0
M  V30 896 H 74.4161 2.15771 2.67016 0
M  V30 897 N 76.8612 -1.46375 0.584142 0
M  V30 898 C 78.1072 -2.02678 0.0703716 0
M  V30 899 C 78.4402 -1.4545 -1.28678 0
M  V30 900 O 77.7152 -0.62014 -1.84349 0
M  V30 901 C 77.9982 -3.60099 0.00614674 0
M  V30 902 C 77.8512 -4.27709 1.3923 0
M  V30 903 C 79.1702 -4.34598 -0.693742 0
M  V30 904 H 76.2892 -0.736504 0.027047 0
M  V30 905 H 78.9312 -1.74501 0.751615 0
M  V30 906 H 77.0812 -3.84236 -0.574009 0
M  V30 907 H 78.7532 -4.14832 2.01773 0
M  V30 908 H 76.9962 -3.87016 1.95962 0
M  V30 909 H 77.6672 -5.36478 1.29982 0
M  V30 910 H 80.1432 -4.15615 -0.200869 0
M  V30 911 H 79.0192 -5.44318 -0.707714 0
M  V30 912 H 79.2802 -4.05759 -1.75533 0
M  V30 913 N 78.3393 -0.321999 -1.54275 0
M  V30 914 C 79.2723 0.58718 -2.20516 0
M  V30 915 C 80.2503 1.11693 -1.18167 0
M  V30 916 O 81.4343 1.18122 -1.46899 0
M  V30 917 C 78.5613 1.80554 -2.86562 0
M  V30 918 C 77.6073 1.40718 -4.02617 0
M  V30 919 S 78.4403 0.445218 -5.33646 0
M  V30 920 C 79.5963 1.6709 -6.03185 0
M  V30 921 H 79.8293 0.0244875 -2.9729 0
M  V30 922 H 77.3623 -0.106087 -1.54035 0
M  V30 923 H 79.3203 2.50462 -3.25237 0
M  V30 924 H 77.9813 2.33942 -2.09595 0
M  V30 925 H 77.1743 2.31501 -4.47687 0
M  V30 926 H 76.7763 0.78782 -3.65608 0
M  V30 927 H 79.0683 2.60856 -6.25268 0
M  V30 928 H 80.0113 1.26239 -6.96756 0
M  V30 929 H 80.4193 1.85716 -5.33076 0
M  V30 930 N 79.8174 1.5752 -0.0501392 0
M  V30 931 C 81.0664 1.91827 0.623328 0
M  V30 932 C 81.3794 0.930222 1.72065 0
M  V30 933 O 82.5854 1.1653 2.4522 0
M  V30 934 C 81.0414 3.40692 1.16003 0
M  V30 935 C 80.6494 4.479 0.0948811 0
M  V30 936 C 82.3934 3.84034 1.80881 0
M  V30 937 C 80.3004 5.87879 0.644411 0
M  V30 938 H 79.2304 0.715918 0.236596 0
M  V30 939 H 81.8814 1.83115 -0.118861 0
M  V30 940 H 80.2634 3.44405 1.9545 0
M  V30 941 H 81.4374 4.55775 -0.678675 0
M  V30 942 H 79.7524 4.13892 -0.45637 0
M  V30 943 H 82.3494 4.85984 2.22988 0
M  V30 944 H 82.6924 3.20225 2.6601 0
M  V30 945 H 83.2254 3.82833 1.0809 0
M  V30 946 H 79.9644 6.55282 -0.169229 0
M  V30 947 H 79.4844 5.83567 1.38598 0
M  V30 948 H 81.1634 6.37098 1.12763 0
M  V30 949 N 81.2955 -0.223234 1.56011 0
M  V30 950 C 82.5255 -0.963413 1.82762 0
M  V30 951 C 82.9335 -1.78516 0.626804 0
M  V30 952 O 82.2765 -1.78974 -0.414014 0
M  V30 953 C 82.3385 -1.93126 3.0322 0
M  V30 954 C 82.0025 -1.2942 4.38291 0
M  V30 955 C 82.9995 -0.684916 5.15369 0
M  V30 956 C 80.6845 -1.30647 4.85012 0
M  V30 957 C 82.6785 -0.0963971 6.37327 0
M  V30 958 C 80.3655 -0.71411 6.06913 0
M  V30 959 C 81.3635 -0.110123 6.82911 0
M  V30 960 O 81.0515 0.47303 8.02507 0
M  V30 961 H 80.7835 -0.288011 0.611576 0
M  V30 962 H 83.3375 -0.244103 2.03944 0
M  V30 963 H 81.5675 -2.68952 2.77852 0
M  V30 964 H 83.2565 -2.53685 3.16857 0
M  V30 965 H 84.0225 -0.667774 4.80381 0
M  V30 966 H 79.9015 -1.76598 4.25833 0
M  V30 967 H 83.4455 0.375657 6.96588 0
M  V30 968 H 79.3425 -0.728659 6.41374 0
M  V30 969 H 80.1105 0.367186 8.17676 0
M  V30 970 N 82.7736 -1.49793 -0.48987 0
M  V30 971 C 83.7036 -1.70201 -1.59856 0
M  V30 972 C 84.6846 -0.55076 -1.60937 0
M  V30 973 O 85.8696 -0.787841 -1.77501 0
M  V30 974 C 82.9996 -1.77882 -2.98287 0
M  V30 975 C 81.9536 -2.92907 -3.12073 0
M  V30 976 C 81.2796 -2.85712 -4.51965 0
M  V30 977 C 82.5796 -4.3369 -2.91051 0
M  V30 978 H 84.2736 -2.63025 -1.43032 0
M  V30 979 H 81.8196 -1.26574 -0.686664 0
M  V30 980 H 83.7726 -1.90744 -3.75759 0
M  V30 981 H 82.4966 -0.816653 -3.16225 0
M  V30 982 H 81.1556 -2.79665 -2.37029 0
M  V30 983 H 80.8036 -1.8738 -4.66795 0
M  V30 984 H 80.5036 -3.62921 -4.62128 0
M  V30 985 H 82.0276 -3.00598 -5.31482 0
M  V30 986 H 83.4416 -4.47555 -3.58284 0
M  V30 987 H 81.8386 -5.12205 -3.12675 0
M  V30 988 H 82.9086 -4.47362 -1.87071 0
M  V30 989 N 84.2517 0.741722 -1.39055 0
M  V30 990 C 85.5007 1.49656 -1.35225 0
M  V30 991 C 85.8137 1.95533 0.0512708 0
M  V30 992 O 87.0197 2.7067 0.212138 0
M  V30 993 C 85.4757 2.70389 -2.37525 0
M  V30 994 C 85.0837 2.31489 -3.83558 0
M  V30 995 C 86.8277 3.48236 -2.42759 0
M  V30 996 C 84.7347 3.48903 -4.77515 0
M  V30 997 H 83.6647 0.56197 -0.502699 0
M  V30 998 H 86.3157 0.809727 -1.64668 0
M  V30 999 H 84.6977 3.41113 -2.01142 0
M  V30 1000 H 85.8717 1.68354 -4.28945 0
M  V30 1001 H 84.1867 1.66749 -3.81554 0
M  V30 1002 H 86.7837 4.35558 -3.1015 0
M  V30 1003 H 87.1267 3.90229 -1.45008 0
M  V30 1004 H 87.6597 2.84535 -2.78002 0
M  V30 1005 H 84.3987 3.11966 -5.76504 0
M  V30 1006 H 83.9187 4.11041 -4.36813 0
M  V30 1007 H 85.5977 4.15328 -4.96096 0
M  V30 1008 N 85.7298 1.2412 0.971189 0
M  V30 1009 C 86.6928 1.03156 2.04674 0
M  V30 1010 C 87.6928 -0.00990322 1.60797 0
M  V30 1011 O 88.8828 0.230729 1.72665 0
M  V30 1012 C 86.0148 0.562765 3.36223 0
M  V30 1013 H 87.2078 1.98614 2.24705 0
M  V30 1014 H 84.7608 1.06293 1.14593 0
M  V30 1015 H 85.4958 -0.395176 3.21883 0
M  V30 1016 H 85.2808 1.31441 3.69413 0
M  V30 1017 H 86.7708 0.437015 4.15307 0
M  V30 1018 N 87.2079 -1.17134 1.05439 0
M  V30 1019 C 88.1399 -2.2078 0.615539 0
M  V30 1020 C 89.1529 -1.59584 -0.322001 0
M  V30 1021 O 90.3419 -1.78133 -0.114344 0
M  V30 1022 C 87.4419 -3.38691 -0.118938 0
M  V30 1023 C 86.6149 -4.29454 0.829924 0
M  V30 1024 C 85.6739 -5.26024 0.136258 0
M  V30 1025 O 84.6999 -5.63952 0.77115 0
M  V30 1026 N 85.9019 -5.69487 -1.1254 0
M  V30 1027 H 88.6669 -2.59052 1.50705 0
M  V30 1028 H 86.2279 -1.32058 0.936603 0
M  V30 1029 H 88.2199 -4.00329 -0.593179 0
M  V30 1030 H 86.7899 -2.98996 -0.91215 0
M  V30 1031 H 86.0099 -3.65211 1.48373 0
M  V30 1032 H 87.2979 -4.86984 1.47392 0
M  V30 1033 H 86.6959 -5.4075 -1.6615 0
M  V30 1034 H 85.2529 -6.33257 -1.54366 0
M  V30 1035 N 88.686 -0.835752 -1.33615 0
M  V30 1036 C 89.649 -0.272 -2.2758 0
M  V30 1037 C 90.649 0.557487 -1.50827 0
M  V30 1038 O 91.839 0.37173 -1.70188 0
M  V30 1039 C 88.971 0.617173 -3.35267 0
M  V30 1040 H 90.164 -1.10111 -2.78954 0
M  V30 1041 H 87.717 -0.608594 -1.43965 0
M  V30 1042 H 88.452 1.46884 -2.89129 0
M  V30 1043 H 88.237 0.0237066 -3.92093 0
M  V30 1044 H 89.727 1.005 -4.05326 0
M  V30 1045 N 90.1641 1.46063 -0.591896 0
M  V30 1046 C 91.4101 2.02638 -0.0811191 0
M  V30 1047 C 91.7431 1.4613 1.27905 0
M  V30 1048 O 91.0181 0.629908 1.84017 0
M  V30 1049 C 91.3011 3.60091 -0.0252436 0
M  V30 1050 C 91.1541 4.26965 -1.41496 0
M  V30 1051 C 92.4731 4.3496 0.670685 0
M  V30 1052 H 89.5921 0.73635 -0.0309524 0
M  V30 1053 H 92.2341 1.741 -0.760859 0
M  V30 1054 H 90.3841 3.84535 0.553624 0
M  V30 1055 H 92.0561 4.13756 -2.0397 0
M  V30 1056 H 90.2991 3.85971 -1.98011 0
M  V30 1057 H 90.9701 5.35781 -1.32825 0
M  V30 1058 H 93.4461 4.15716 0.178825 0
M  V30 1059 H 92.3221 5.44686 0.678837 0
M  V30 1060 H 92.5831 4.06685 1.73379 0
M  V30 1061 N 91.6422 0.330177 1.54103 0
M  V30 1062 C 92.5902 -0.548226 2.26047 0
M  V30 1063 C 93.5842 -1.11309 1.27698 0
M  V30 1064 O 94.7902 -1.06036 1.45452 0
M  V30 1065 H 91.1652 -0.195456 0.726155 0
M  V30 1066 H 93.1362 0.0807567 2.98291 0
M  V30 1067 C 91.8852 -1.69415 3.03634 0
M  V30 1068 H 91.2082 -1.26876 3.79134 0
M  V30 1069 H 92.6482 -2.28423 3.5721 0
M  V30 1070 C 91.1072 -2.61569 2.12328 0
M  V30 1071 O 91.6372 -3.63462 1.7105 0
M  V30 1072 N 89.8432 -2.29952 1.77681 0
M  V30 1073 H 89.3902 -1.47134 2.11446 0
M  V30 1074 H 89.3482 -2.91871 1.16869 0
M  V30 1075 N 93.1203 -1.57491 0.0584922 0
M  V30 1076 C 94.0523 -2.08916 -0.942694 0
M  V30 1077 C 95.0653 -1.0185 -1.27006 0
M  V30 1078 O 96.2543 -1.29398 -1.22957 0
M  V30 1079 C 93.3543 -2.52341 -2.26224 0
M  V30 1080 C 92.5273 -3.82827 -2.1157 0
M  V30 1081 C 91.5863 -4.12487 -3.26712 0
M  V30 1082 O 90.6123 -4.82295 -3.02292 0
M  V30 1083 N 91.8143 -3.64978 -4.5141 0
M  V30 1084 H 94.5793 -2.95437 -0.503722 0
M  V30 1085 H 92.1403 -1.61397 -0.12757 0
M  V30 1086 H 94.1323 -2.69254 -3.02133 0
M  V30 1087 H 92.7023 -1.7103 -2.61663 0
M  V30 1088 H 91.9223 -3.75425 -1.20208 0
M  V30 1089 H 93.2103 -4.68263 -1.99015 0
M  V30 1090 H 92.6083 -3.08558 -4.7414 0
M  V30 1091 H 91.1653 -3.87115 -5.2439 0
M  V30 1092 N 94.5984 0.214957 -1.56127 0
M  V30 1093 C 95.8454 0.938372 -1.79446 0
M  V30 1094 C 96.1734 1.8407 -0.628378 0
M  V30 1095 O 95.4284 1.91837 0.386925 0
M  V30 1096 C 95.7274 1.80314 -3.0858 0
M  V30 1097 C 95.3934 1.05349 -4.3842 0
M  V30 1098 C 94.0554 0.846435 -4.73697 0
M  V30 1099 C 96.4074 0.524588 -5.18553 0
M  V30 1100 C 93.7354 0.098683 -5.86617 0
M  V30 1101 C 96.0874 -0.209853 -6.32252 0
M  V30 1102 C 94.7514 -0.428102 -6.66126 0
M  V30 1103 H 94.0214 0.343375 -0.656639 0
M  V30 1104 H 96.6684 0.206077 -1.90388 0
M  V30 1105 H 94.9734 2.6035 -2.92789 0
M  V30 1106 H 96.6704 2.36513 -3.23825 0
M  V30 1107 H 93.2604 1.22486 -4.10725 0
M  V30 1108 H 97.4444 0.672008 -4.91729 0
M  V30 1109 H 92.7004 -0.0805753 -6.11347 0
M  V30 1110 H 96.8744 -0.627157 -6.9357 0
M  V30 1111 H 94.5014 -1.00944 -7.53468 0
M  V30 1112 N 96.0765 1.50051 0.48192 0
M  V30 1113 C 97.3535 1.51009 1.2432 0
M  V30 1114 C 97.7335 0.248587 2.09631 0
M  V30 1115 O 97.0815 -0.768409 2.15192 0
M  V30 1116 C 97.2915 2.79981 2.08355 0
M  V30 1117 C 98.6395 3.3022 2.66908 0
M  V30 1118 O 99.6635 2.81228 2.18607 0
M  V30 1119 O 98.5225 4.15595 3.54884 0
M  V30 1120 H 95.6165 0.605239 0.563573 0
M  V30 1121 H 98.1625 1.62332 0.494627 0
M  V30 1122 H 96.9345 3.63275 1.45419 0
M  V30 1123 H 96.5575 2.7161 2.90368 0
M  V30 1124 N 97.5546 -0.734337 1.39446 0
M  V30 1125 C 98.4646 -1.87879 1.40495 0
M  V30 1126 C 99.4806 -1.714 0.299672 0
M  V30 1127 O 100.657 -1.93991 0.541249 0
M  V30 1128 C 97.7216 -3.23477 1.24754 0
M  V30 1129 C 96.7826 -3.52344 2.45259 0
M  V30 1130 C 96.0156 -4.81473 2.30259 0
M  V30 1131 O 96.2386 -5.55237 1.30643 0
M  V30 1132 O 95.1726 -5.10254 3.19256 0
M  V30 1133 H 98.9986 -1.89949 2.36966 0
M  V30 1134 H 96.5836 -0.882243 1.20569 0
M  V30 1135 H 98.4656 -4.04509 1.18111 0
M  V30 1136 H 97.1406 -3.22176 0.313781 0
M  V30 1137 H 96.0476 -2.71396 2.57478 0
M  V30 1138 H 97.3806 -3.58426 3.37331 0
M  V30 1139 N 99.0327 -1.24633 -0.964593 0
M  V30 1140 C 99.9627 -1.06611 -2.07741 0
M  V30 1141 C 100.944 0.0218666 -1.70086 0
M  V30 1142 O 102.129 -0.145793 -1.93652 0
M  V30 1143 C 99.2587 -0.673444 -3.40708 0
M  V30 1144 C 98.2127 -1.71054 -3.92332 0
M  V30 1145 C 97.5387 -1.17285 -5.21678 0
M  V30 1146 C 98.8387 -3.10718 -4.19824 0
M  V30 1147 H 100.533 -1.99693 -2.23076 0
M  V30 1148 H 98.0787 -0.96152 -1.07195 0
M  V30 1149 H 100.032 -0.534345 -4.17998 0
M  V30 1150 H 98.7557 0.293073 -3.25282 0
M  V30 1151 H 97.4147 -1.83791 -3.17201 0
M  V30 1152 H 97.0627 -0.196847 -5.02615 0
M  V30 1153 H 96.7627 -1.86592 -5.57187 0
M  V30 1154 H 98.2867 -1.04593 -6.01575 0
M  V30 1155 H 99.7007 -3.01192 -4.87808 0
M  V30 1156 H 98.0977 -3.77406 -4.66567 0
M  V30 1157 H 99.1677 -3.58524 -3.26479 0
M  V30 1158 N 100.511 1.16574 -1.06058 0
M  V30 1159 C 101.927 1.3904 -0.783585 0
M  V30 1160 C 102.127 1.91784 0.618145 0
M  V30 1161 O 101.183 2.11511 1.37911 0
M  V30 1162 C 102.496 2.37329 -1.84649 0
M  V30 1163 C 104.044 2.51018 -1.86973 0
M  V30 1164 C 104.519 3.52588 -2.92311 0
M  V30 1165 N 106.01 3.60113 -2.91329 0
M  V30 1166 C 106.745 4.38486 -3.69482 0
M  V30 1167 N 106.241 5.20302 -4.57447 0
M  V30 1168 N 108.034 4.33446 -3.57885 0
M  V30 1169 H 100.185 0.806725 -1.96483 0
M  V30 1170 H 102.448 0.417117 -0.851303 0
M  V30 1171 H 102.154 2.05663 -2.85299 0
M  V30 1172 H 102.028 3.36946 -1.6955 0
M  V30 1173 H 104.415 2.81989 -0.869827 0
M  V30 1174 H 104.496 1.51445 -2.0615 0
M  V30 1175 H 104.14 3.22354 -3.92492 0
M  V30 1176 H 104.07 4.51886 -2.70383 0
M  V30 1177 H 106.561 3.01707 -2.27555 0
M  V30 1178 H 106.874 5.77311 -5.13743 0
M  V30 1179 H 105.219 5.19653 -4.61503 0
M  V30 1180 H 108.41 3.68586 -2.88551 0
M  V30 1181 H 108.583 4.94279 -4.19037 0
M  V30 1182 N 101.989 0.842826 1.3317 0
M  V30 1183 C 102.922 0.223862 2.27099 0
M  V30 1184 C 103.9 -0.631311 1.49844 0
M  V30 1185 O 105.084 -0.590708 1.79005 0
M  V30 1186 C 102.211 -0.685313 3.31694 0
M  V30 1187 C 101.257 0.094919 4.26394 0
M  V30 1188 S 102.09 1.45546 5.15341 0
M  V30 1189 C 103.246 0.551685 6.23464 0
M  V30 1190 H 103.479 1.02015 2.79249 0
M  V30 1191 H 101.012 0.639797 1.4052 0
M  V30 1192 H 102.97 -1.20426 3.92438 0
M  V30 1193 H 101.631 -1.4553 2.78352 0
M  V30 1194 H 100.824 -0.597059 5.00451 0
M  V30 1195 H 100.426 0.545054 3.70007 0
M  V30 1196 H 102.718 -0.248877 6.77043 0
M  V30 1197 H 103.661 1.26253 6.96754 0
M  V30 1198 H 104.069 0.131275 5.64347 0
M  V30 1199 N 103.467 -1.45747 0.599634 0
M  V30 1200 C 104.43 -2.28917 -0.113835 0
M  V30 1201 C 105.43 -1.3933 -0.802729 0
M  V30 1202 O 106.62 -1.61534 -0.652103 0
M  V30 1203 C 103.752 -3.20152 -1.17114 0
M  V30 1204 H 104.945 -2.93478 0.617289 0
M  V30 1205 H 102.498 -1.52137 0.358327 0
M  V30 1206 H 103.233 -2.60374 -1.93329 0
M  V30 1207 H 103.018 -3.86133 -0.681468 0
M  V30 1208 H 104.508 -3.82708 -1.67105 0
M  V30 1209 N 104.945 -0.338344 -1.53925 0
M  V30 1210 C 106.194 0.260732 -2.00008 0
M  V30 1211 C 106.507 1.52073 -1.23017 0
M  V30 1212 O 107.713 2.19672 -1.5955 0
M  V30 1213 C 106.169 0.51515 -3.56194 0
M  V30 1214 C 105.777 -0.728645 -4.42035 0
M  V30 1215 C 107.521 1.07337 -4.10706 0
M  V30 1216 C 105.428 -0.445315 -5.89721 0
M  V30 1217 H 104.358 0.101205 -0.747177 0
M  V30 1218 H 107.009 -0.452866 -1.77824 0
M  V30 1219 H 105.391 1.28932 -3.74423 0
M  V30 1220 H 106.565 -1.50352 -4.35581 0
M  V30 1221 H 104.88 -1.20813 -3.98489 0
M  V30 1222 H 107.477 1.30022 -5.18651 0
M  V30 1223 H 107.82 2.0273 -3.63602 0
M  V30 1224 H 108.353 0.360034 -3.96167 0
M  V30 1225 H 105.092 -1.36883 -6.41049 0
M  V30 1226 H 104.612 0.291569 -5.99091 0
M  V30 1227 H 106.291 -0.0606218 -6.46972 0
M  V30 1228 N 106.423 1.57458 -0.0668435 0
M  V30 1229 C 107.37 2.12439 0.902122 0
M  V30 1230 C 108.34 1.03565 1.2986 0
M  V30 1231 O 109.525 1.312 1.38532 0
M  V30 1232 C 106.665 2.6865 2.16614 0
M  V30 1233 C 105.778 3.91663 1.82274 0
M  V30 1234 C 104.913 4.36134 3.0325 0
M  V30 1235 C 103.952 5.51808 2.64904 0
M  V30 1236 N 103.089 5.9126 3.78624 0
M  V30 1237 H 107.929 2.94934 0.426382 0
M  V30 1238 H 105.466 1.4575 0.198819 0
M  V30 1239 H 107.424 2.99346 2.90599 0
M  V30 1240 H 106.054 1.88928 2.61737 0
M  V30 1241 H 105.106 3.6746 0.983719 0
M  V30 1242 H 106.418 4.75693 1.50059 0
M  V30 1243 H 105.572 4.68465 3.85519 0
M  V30 1244 H 104.311 3.50948 3.38655 0
M  V30 1245 H 103.316 5.19133 1.81055 0
M  V30 1246 H 104.541 6.38722 2.30675 0
M  V30 1247 H 102.487 5.09024 4.138 0
M  V30 1248 H 102.404 6.70018 3.5016 0
M  V30 1249 H 103.672 6.28212 4.61486 0
M  V30 1250 N 107.901 -0.206675 1.56239 0
M  V30 1251 C 109.178 -0.954051 1.70755 0
M  V30 1252 C 109.558 -2.01841 0.618353 0
M  V30 1253 O 108.906 -2.25444 -0.372434 0
M  V30 1254 C 109.116 -1.551 3.12642 0
M  V30 1255 C 110.464 -2.03757 3.72516 0
M  V30 1256 O 111.488 -1.64965 3.15698 0
M  V30 1257 O 110.347 -2.75103 4.72208 0
M  V30 1258 H 107.441 -0.446636 0.696021 0
M  V30 1259 H 109.987 -0.197283 1.68549 0
M  V30 1260 H 108.759 -0.783212 3.83382 0
M  V30 1261 H 108.382 -2.37291 3.19028 0
M  V30 1262 N 109.379 -1.50304 -0.473955 0
M  V30 1263 C 110.656 -1.51667 -1.23518 0
M  V30 1264 C 111.036 -0.259701 -2.09496 0
M  V30 1265 O 110.384 0.756986 -2.15597 0
M  V30 1266 C 110.594 -2.81082 -2.06868 0
M  V30 1267 C 111.942 -3.31631 -2.65153 0
M  V30 1268 O 112.966 -2.82384 -2.17113 0
M  V30 1269 O 111.825 -4.17471 -3.52675 0
M  V30 1270 H 108.919 -0.60822 -0.560355 0
M  V30 1271 H 111.465 -1.62592 -0.486011 0
M  V30 1272 H 110.237 -3.64041 -1.4349 0
M  V30 1273 H 109.86 -2.73146 -2.88924 0
M  V30 1274 N 110.857 0.726932 -1.39834 0
M  V30 1275 C 111.767 1.87131 -1.41489 0
M  V30 1276 C 112.783 1.71239 -0.308757 0
M  V30 1277 O 113.959 1.93701 -0.551529 0
M  V30 1278 C 111.024 3.22811 -1.26468 0
M  V30 1279 C 110.085 3.51039 -2.47124 0
M  V30 1280 C 109.318 4.80245 -2.3281 0
M  V30 1281 O 109.541 5.54537 -1.33585 0
M  V30 1282 O 108.475 5.08554 -3.21957 0
M  V30 1283 H 112.301 1.8869 -2.3797 0
M  V30 1284 H 109.886 0.875837 -1.21035 0
M  V30 1285 H 111.768 4.03877 -1.20255 0
M  V30 1286 H 110.443 3.22005 -0.330862 0
M  V30 1287 H 109.35 2.70027 -2.58914 0
M  V30 1288 H 110.683 3.56632 -3.39227 0
M  V30 1289 N 112.336 1.25143 0.95797 0
M  V30 1290 C 113.266 1.07711 2.07173 0
M  V30 1291 C 114.247 -0.0128462 1.70095 0
M  V30 1292 O 115.432 0.156061 1.93572 0
M  V30 1293 C 112.562 0.691503 3.40346 0
M  V30 1294 C 111.516 1.73132 3.9142 0
M  V30 1295 C 110.842 1.20049 5.21049 0
M  V30 1296 C 112.142 3.1294 4.1817 0
M  V30 1297 H 113.836 2.00873 2.22014 0
M  V30 1298 H 111.382 0.967191 1.06684 0
M  V30 1299 H 113.335 0.556505 4.17709 0
M  V30 1300 H 112.059 -0.275819 3.25433 0
M  V30 1301 H 110.718 1.8547 3.16222 0
M  V30 1302 H 110.366 0.223499 5.02503 0
M  V30 1303 H 110.066 1.89545 5.56189 0
M  V30 1304 H 111.59 1.07782 6.01012 0
M  V30 1305 H 113.004 3.03775 4.86203 0
M  V30 1306 H 111.401 3.79875 4.64559 0
M  V30 1307 H 112.471 3.6025 3.24573 0
M  V30 1308 N 113.814 -1.1601 1.06675 0
M  V30 1309 C 115.063 -1.85973 0.780818 0
M  V30 1310 C 115.376 -1.82819 -0.695444 0
M  V30 1311 O 116.582 -2.484 -1.09589 0
M  V30 1312 C 115.038 -3.33757 1.34665 0
M  V30 1313 C 114.646 -3.45374 2.85343 0
M  V30 1314 C 116.39 -4.0895 1.13843 0
M  V30 1315 C 114.297 -4.87266 3.35151 0
M  V30 1316 H 113.227 -0.696661 0.288407 0
M  V30 1317 H 115.878 -1.30903 1.28595 0
M  V30 1318 H 114.26 -3.88456 0.769274 0
M  V30 1319 H 115.434 -3.00816 3.49065 0
M  V30 1320 H 113.749 -2.83619 3.04876 0
M  V30 1321 H 116.346 -5.13654 1.4854 0
M  V30 1322 H 116.689 -4.16229 0.0770282 0
M  V30 1323 H 117.222 -3.605 1.68179 0
M  V30 1324 H 113.961 -4.85168 4.40786 0
M  V30 1325 H 113.481 -5.32433 2.76179 0
M  V30 1326 H 115.16 -5.56097 3.30704 0
M  V30 1327 N 115.292 -0.849877 -1.32721 0
M  V30 1328 C 116.538 -0.451591 -1.97708 0
M  V30 1329 C 116.871 0.989175 -1.6712 0
M  V30 1330 O 116.146 1.69334 -0.956891 0
M  V30 1331 C 116.429 -0.685598 -3.53513 0
M  V30 1332 C 116.282 -2.17444 -3.93749 0
M  V30 1333 C 117.601 -0.138874 -4.39881 0
M  V30 1334 H 114.72 -0.16555 -0.718166 0
M  V30 1335 H 117.362 -1.06742 -1.57182 0
M  V30 1336 H 115.512 -0.161416 -3.88165 0
M  V30 1337 H 117.184 -2.76433 -3.693 0
M  V30 1338 H 115.427 -2.65476 -3.43081 0
M  V30 1339 H 116.098 -2.28888 -5.02309 0
M  V30 1340 H 118.574 -0.587068 -4.11938 0
M  V30 1341 H 117.45 -0.332213 -5.47894 0
M  V30 1342 H 117.711 0.95806 -4.31594 0
M  V30 1343 N 116.77 1.45427 -0.607355 0
M  V30 1344 C 118.016 2.03097 -0.111035 0
M  V30 1345 C 118.371 1.46735 1.24445 0
M  V30 1346 O 117.664 0.632478 1.8086 0
M  V30 1347 C 117.858 3.57398 -0.0129263 0
M  V30 1348 C 117.687 4.28726 -1.35735 0
M  V30 1349 C 116.457 4.66659 -1.93798 0
M  V30 1350 C 118.655 4.60699 -2.28607 0
M  V30 1351 N 116.637 5.22845 -3.21723 0
M  V30 1352 C 118.008 5.17716 -3.41131 0
M  V30 1353 C 120.063 4.42638 -2.27982 0
M  V30 1354 C 118.766 5.58576 -4.53194 0
M  V30 1355 C 120.792 4.84531 -3.39093 0
M  V30 1356 C 120.154 5.4164 -4.50339 0
M  V30 1357 H 116.253 0.777476 -0.083994 0
M  V30 1358 H 118.837 1.77249 -0.805655 0
M  V30 1359 H 117.008 3.82907 0.650914 0
M  V30 1360 H 118.74 4.01722 0.490033 0
M  V30 1361 H 115.495 4.50207 -1.47007 0
M  V30 1362 H 115.919 5.55438 -3.87063 0
M  V30 1363 H 120.561 3.97798 -1.43235 0
M  V30 1364 H 118.279 6.02382 -5.38667 0
M  V30 1365 H 121.865 4.72289 -3.39757 0
M  V30 1366 H 120.745 5.73461 -5.34895 0
M  V30 1367 N 118.248 0.346503 1.53744 0
M  V30 1368 C 119.525 -0.304532 1.93215 0
M  V30 1369 C 119.905 -1.67993 1.27834 0
M  V30 1370 O 119.253 -2.24411 0.430352 0
M  V30 1371 C 119.463 -0.373852 3.46992 0
M  V30 1372 C 120.811 -0.62329 4.2 0
M  V30 1373 O 121.835 -0.455847 3.53271 0
M  V30 1374 O 120.694 -0.947879 5.38217 0
M  V30 1375 H 117.788 -0.178318 0.807547 0
M  V30 1376 H 120.334 0.397895 1.64969 0
M  V30 1377 H 119.106 0.591224 3.86808 0
M  V30 1378 H 118.729 -1.12294 3.81413 0
M  V30 1379 N 119.726 -1.57421 0.075193 0
M  V30 1380 C 120.951 -1.98364 -0.605515 0
M  V30 1381 C 121.376 -0.953383 -1.62149 0
M  V30 1382 O 120.734 0.0806053 -1.81121 0
M  V30 1383 C 120.782 -3.38332 -1.24756 0
M  V30 1384 O 119.886 -3.37959 -2.36342 0
M  V30 1385 H 119.227 -0.645553 -0.155428 0
M  V30 1386 H 121.757 -2.04044 0.150714 0
M  V30 1387 H 121.767 -3.75591 -1.5936 0
M  V30 1388 H 120.442 -4.12846 -0.503129 0
M  V30 1389 H 119.019 -3.12474 -2.03506 0
M  V30 1390 N 121.204 0.198386 -1.56346 0
M  V30 1391 C 122.45 0.920648 -1.80698 0
M  V30 1392 C 122.783 1.83045 -0.648697 0
M  V30 1393 O 122.058 1.91308 0.350925 0
M  V30 1394 C 122.341 1.73971 -3.15287 0
M  V30 1395 C 122.194 0.85485 -4.41602 0
M  V30 1396 C 123.513 2.71296 -3.46535 0
M  V30 1397 H 120.632 0.333261 -0.657348 0
M  V30 1398 H 123.274 0.188198 -1.89066 0
M  V30 1399 H 121.424 2.36416 -3.08285 0
M  V30 1400 H 123.096 0.245362 -4.60647 0
M  V30 1401 H 121.339 0.161398 -4.335 0
M  V30 1402 H 122.01 1.46286 -5.32264 0
M  V30 1403 H 124.486 2.18983 -3.53816 0
M  V30 1404 H 123.362 3.2569 -4.41834 0
M  V30 1405 H 123.623 3.5018 -2.69864 0
M  V30 1406 N 122.682 1.50554 0.465978 0
M  V30 1407 C 123.959 1.5232 1.22712 0
M  V30 1408 C 124.339 0.270807 2.09356 0
M  V30 1409 O 123.687 -0.745541 2.15995 0
M  V30 1410 C 123.897 2.82175 2.05374 0
M  V30 1411 C 125.245 3.33033 2.6339 0
M  V30 1412 O 126.269 2.83531 2.15612 0
M  V30 1413 O 125.128 4.19336 3.50456 0
M  V30 1414 H 122.222 0.611183 0.557122 0
M  V30 1415 H 124.768 1.62847 0.477381 0
M  V30 1416 H 123.54 3.64797 1.41558 0
M  V30 1417 H 123.163 2.74675 2.87471 0
M  V30 1418 N 124.16 -0.719506 1.40217 0
M  V30 1419 C 125.571 -1.29848 1.34151 0
M  V30 1420 C 125.922 -1.96196 0.0131349 0
M  V30 1421 O 125.047 -1.973 -0.88892 0
M  V30 1422 C 125.642 -2.36118 2.42968 0
M  V30 1423 C 124.201 -2.8965 2.40374 0
M  V30 1424 C 123.348 -1.63393 2.24049 0
M  V30 1425 H 126.299 -0.51591 1.5008 0
M  V30 1426 H 126.32 -3.16871 2.10649 0
M  V30 1427 H 125.832 -1.878 3.39636 0
M  V30 1428 H 123.933 -3.42208 1.47392 0
M  V30 1429 H 124.046 -3.4171 3.35814 0
M  V30 1430 H 122.41 -1.88312 1.71495 0
M  V30 1431 H 123.193 -1.17104 3.2271 0
M  V30 1432 N 125.638 -1.25649 -0.95132 0
M  V30 1433 C 126.57 -1.02112 -2.05197 0
M  V30 1434 C 127.583 0.0150571 -1.62793 0
M  V30 1435 O 128.772 -0.223874 -1.77091 0
M  V30 1436 C 125.872 -0.522361 -3.3485 0
M  V30 1437 C 125.045 -1.62546 -4.06076 0
M  V30 1438 C 124.104 -1.12649 -5.14001 0
M  V30 1439 O 123.13 -1.82156 -5.39266 0
M  V30 1440 N 124.332 0.03047 -5.80492 0
M  V30 1441 H 127.097 -1.96885 -2.25957 0
M  V30 1442 H 124.658 -1.16899 -1.1201 0
M  V30 1443 H 126.65 -0.172961 -4.0433 0
M  V30 1444 H 125.22 0.33151 -3.10837 0
M  V30 1445 H 124.44 -2.14628 -3.30649 0
M  V30 1446 H 125.728 -2.36644 -4.50419 0
M  V30 1447 H 125.126 0.611169 -5.62389 0
M  V30 1448 H 123.683 0.320875 -6.5101 0
M  V30 1449 N 127.117 1.15442 -1.07289 0
M  V30 1450 C 128.364 1.86213 -0.795668 0
M  V30 1451 C 128.692 1.82291 0.678238 0
M  V30 1452 O 127.947 1.24057 1.51355 0
M  V30 1453 C 128.246 3.3489 -1.24834 0
M  V30 1454 C 127.912 3.59007 -2.72809 0
M  V30 1455 C 126.574 3.65298 -3.13227 0
M  V30 1456 C 128.926 3.68762 -3.68326 0
M  V30 1457 C 126.254 3.78854 -4.4798 0
M  V30 1458 C 128.606 3.83842 -5.0284 0
M  V30 1459 C 127.27 3.88378 -5.4288 0
M  V30 1460 H 126.54 0.681403 -0.291155 0
M  V30 1461 H 129.187 1.36435 -1.34379 0
M  V30 1462 H 127.492 3.8687 -0.619595 0
M  V30 1463 H 129.189 3.88052 -1.01076 0
M  V30 1464 H 125.779 3.5475 -2.40521 0
M  V30 1465 H 129.963 3.63202 -3.38227 0
M  V30 1466 H 125.219 3.80623 -4.78472 0
M  V30 1467 H 129.393 3.90332 -5.76727 0
M  V30 1468 H 127.02 3.98635 -6.47298 0
M  V30 1469 N 128.595 0.856903 1.32268 0
M  V30 1470 C 129.823 0.475439 2.01363 0
M  V30 1471 C 130.238 -0.928486 1.64392 0
M  V30 1472 O 129.595 -1.60624 0.866387 0
M  V30 1473 C 129.646 0.607545 3.56358 0
M  V30 1474 O 129.367 1.95617 3.92002 0
M  V30 1475 C 130.868 0.225382 4.42727 0
M  V30 1476 H 128.088 0.186636 0.644521 0
M  V30 1477 H 130.632 1.15446 1.68797 0
M  V30 1478 H 128.787 -0.0237719 3.87393 0
M  V30 1479 H 129.201 1.95455 4.86721 0
M  V30 1480 H 130.675 0.368813 5.50767 0
M  V30 1481 H 131.152 -0.834369 4.31202 0
M  V30 1482 H 131.758 0.831864 4.17085 0
M  V30 1483 N 130.073 -1.45103 0.615059 0
M  V30 1484 C 131.319 -2.02483 0.113347 0
M  V30 1485 C 131.652 -1.48146 -1.25564 0
M  V30 1486 O 130.927 -0.659104 -1.82992 0
M  V30 1487 C 131.21 -3.60005 0.0825278 0
M  V30 1488 C 131.063 -4.2466 1.48271 0
M  V30 1489 C 132.382 -4.35972 -0.601401 0
M  V30 1490 H 129.501 -0.735764 0.0426632 0
M  V30 1491 H 132.143 -1.72868 0.788461 0
M  V30 1492 H 130.293 -3.85367 -0.492378 0
M  V30 1493 H 131.965 -4.10458 2.10527 0
M  V30 1494 H 130.208 -3.82772 2.04127 0
M  V30 1495 H 130.879 -5.336 1.41332 0
M  V30 1496 H 133.355 -4.15947 -0.112666 0
M  V30 1497 H 132.231 -5.45697 -0.592097 0
M  V30 1498 H 132.492 -4.09391 -1.66887 0
M  V30 1499 N 131.551 -0.354651 -1.53558 0
M  V30 1500 C 132.798 0.238443 -2.01091 0
M  V30 1501 C 133.126 1.49663 -1.24222 0
M  V30 1502 O 132.381 1.93049 -0.321003 0
M  V30 1503 C 132.68 0.587121 -3.52545 0
M  V30 1504 C 132.346 -0.575472 -4.47213 0
M  V30 1505 C 131.008 -0.894497 -4.72813 0
M  V30 1506 C 133.36 -1.35489 -5.03281 0
M  V30 1507 C 130.688 -1.99511 -5.51736 0
M  V30 1508 C 133.04 -2.44583 -5.83405 0
M  V30 1509 C 131.704 -2.77033 -6.07296 0
M  V30 1510 H 130.974 0.0872526 -0.735845 0
M  V30 1511 H 133.621 -0.484859 -1.8526 0
M  V30 1512 H 131.926 1.39129 -3.66265 0
M  V30 1513 H 133.623 1.05809 -3.86789 0
M  V30 1514 H 130.213 -0.316774 -4.27428 0
M  V30 1515 H 134.397 -1.12167 -4.83459 0
M  V30 1516 H 129.653 -2.25063 -5.68469 0
M  V30 1517 H 133.827 -3.05401 -6.25862 0
M  V30 1518 H 131.454 -3.6244 -6.68237 0
M  V30 1519 N 133.029 1.57378 -0.0835403 0
M  V30 1520 C 133.979 2.09916 0.889905 0
M  V30 1521 C 134.963 1.01151 1.25129 0
M  V30 1522 O 136.155 1.27443 1.2283 0
M  V30 1523 C 133.284 2.67379 2.15322 0
M  V30 1524 C 132.37 3.83167 1.81779 0
M  V30 1525 N 132.761 4.91665 1.18739 0
M  V30 1526 C 131.059 3.92685 2.11459 0
M  V30 1527 C 131.76 5.72409 1.0355 0
M  V30 1528 N 130.736 5.21062 1.54906 0
M  V30 1529 H 134.538 2.91188 0.398378 0
M  V30 1530 H 132.052 1.61956 0.120013 0
M  V30 1531 H 134.049 3.0334 2.8599 0
M  V30 1532 H 132.709 1.87558 2.65051 0
M  V30 1533 H 133.72 5.10784 0.855604 0
M  V30 1534 H 130.397 3.23856 2.63483 0
M  V30 1535 H 131.787 6.69699 0.543425 0
M  V30 1536 N 134.507 -0.190092 1.56449 0
M  V30 1537 C 135.439 -1.25973 1.91477 0
M  V30 1538 C 136.452 -1.41452 0.805931 0
M  V30 1539 O 137.641 -1.41789 1.08435 0
M  V30 1540 C 134.741 -2.63117 2.13594 0
M  V30 1541 C 133.914 -2.69182 3.4476 0
M  V30 1542 C 132.973 -3.87557 3.5593 0
M  V30 1543 O 131.999 -3.74427 4.28711 0
M  V30 1544 N 133.201 -5.03224 2.89388 0
M  V30 1545 H 135.966 -0.962394 2.83828 0
M  V30 1546 H 133.527 -0.379981 1.57378 0
M  V30 1547 H 135.519 -3.40742 2.1835 0
M  V30 1548 H 134.089 -2.85319 1.27719 0
M  V30 1549 H 133.309 -1.77793 3.51828 0
M  V30 1550 H 134.597 -2.70229 4.31107 0
M  V30 1551 H 133.995 -5.16791 2.30094 0
M  V30 1552 H 132.552 -5.78778 2.99764 0
M  V30 1553 N 135.985 -1.50799 -0.457987 0
M  V30 1554 C 136.895 -1.73426 -1.57989 0
M  V30 1555 C 137.911 -0.617745 -1.62665 0
M  V30 1556 O 139.087 -0.897614 -1.80291 0
M  V30 1557 C 136.152 -1.83557 -2.94122 0
M  V30 1558 C 135.213 -3.07345 -2.99729 0
M  V30 1559 C 134.446 -3.16983 -4.29368 0
M  V30 1560 O 134.669 -2.33077 -5.20607 0
M  V30 1561 O 133.603 -4.09812 -4.40837 0
M  V30 1562 H 137.429 -2.68555 -1.41817 0
M  V30 1563 H 135.014 -1.35052 -0.638859 0
M  V30 1564 H 136.896 -1.92326 -3.74952 0
M  V30 1565 H 135.571 -0.916137 -3.10465 0
M  V30 1566 H 134.478 -3.04068 -2.1793 0
M  V30 1567 H 135.811 -3.9891 -2.88326 0
M  V30 1568 N 137.463 0.71206 -1.40597 0
M  V30 1569 C 138.691 1.50111 -1.42388 0
M  V30 1570 C 139.106 1.88784 -0.0245395 0
M  V30 1571 O 138.463 1.55681 0.952351 0
M  V30 1572 C 138.514 2.7742 -2.31776 0
M  V30 1573 O 138.235 2.40382 -3.66262 0
M  V30 1574 C 139.736 3.7129 -2.42196 0
M  V30 1575 H 136.956 0.46314 -0.485533 0
M  V30 1576 H 139.5 0.878068 -1.8469 0
M  V30 1577 H 137.655 3.36001 -1.92827 0
M  V30 1578 H 138.069 3.22324 -4.13772 0
M  V30 1579 H 139.543 4.57448 -3.08943 0
M  V30 1580 H 140.02 4.14641 -1.44809 0
M  V30 1581 H 140.626 3.18619 -2.81712 0
M  V30 1582 N 138.941 1.26152 0.944643 0
M  V30 1583 C 139.851 1.09176 2.07648 0
M  V30 1584 C 140.867 0.0261935 1.7398 0
M  V30 1585 O 142.043 0.229208 2.00091 0
M  V30 1586 C 139.108 0.722915 3.39079 0
M  V30 1587 C 138.169 1.86752 3.86552 0
M  V30 1588 C 137.402 1.51617 5.11711 0
M  V30 1589 O 137.625 0.416331 5.68879 0
M  V30 1590 O 136.559 2.34975 5.54139 0
M  V30 1591 H 140.385 2.0412 2.24875 0
M  V30 1592 H 137.97 1.05182 1.061 0
M  V30 1593 H 139.852 0.529787 4.18056 0
M  V30 1594 H 138.527 -0.197159 3.23099 0
M  V30 1595 H 137.434 2.11558 3.08535 0
M  V30 1596 H 138.767 2.76719 4.07047 0
M  V30 1597 N 140.419 -1.14872 1.07899 0
M  V30 1598 C 141.647 -1.89661 0.82683 0
M  V30 1599 C 142.062 -1.78312 -0.620519 0
M  V30 1600 O 141.419 -1.13888 -1.42604 0
M  V30 1601 C 141.47 -3.39817 1.23316 0
M  V30 1602 O 141.191 -3.50845 2.62372 0
M  V30 1603 C 142.692 -4.31615 1.0111 0
M  V30 1604 H 139.912 -0.60092 0.298557 0
M  V30 1605 H 142.456 -1.4551 1.43691 0
M  V30 1606 H 140.611 -3.8161 0.667286 0
M  V30 1607 H 141.025 -4.44076 2.79101 0
M  V30 1608 H 142.499 -5.35367 1.34486 0
M  V30 1609 H 142.976 -4.39169 -0.0522168 0
M  V30 1610 H 143.582 -3.95572 1.56215 0
M  V30 1611 N 141.898 -0.863906 -1.31812 0
M  V30 1612 C 143.145 -0.471836 -1.96926 0
M  V30 1613 C 143.473 0.974578 -1.68322 0
M  V30 1614 O 142.728 1.7003 -0.968933 0
M  V30 1615 C 143.027 -0.668547 -3.51091 0
M  V30 1616 C 142.693 -2.08683 -3.99703 0
M  V30 1617 C 141.355 -2.47471 -4.12688 0
M  V30 1618 C 143.707 -3.01207 -4.25351 0
M  V30 1619 C 141.035 -3.78037 -4.4867 0
M  V30 1620 C 143.387 -4.31282 -4.62794 0
M  V30 1621 C 142.051 -4.69992 -4.73987 0
M  V30 1622 H 141.321 -0.172657 -0.720604 0
M  V30 1623 H 143.968 -1.09573 -1.57054 0
M  V30 1624 H 142.273 0.0385252 -3.91781 0
M  V30 1625 H 143.97 -0.345102 -3.99512 0
M  V30 1626 H 140.56 -1.77566 -3.90087 0
M  V30 1627 H 144.744 -2.72469 -4.14819 0
M  V30 1628 H 140 -4.078 -4.55532 0
M  V30 1629 H 144.174 -5.03031 -4.81594 0
M  V30 1630 H 141.801 -5.71207 -5.01624 0
M  V30 1631 N 143.376 1.44774 -0.622745 0
M  V30 1632 C 144.601 2.06999 -0.128968 0
M  V30 1633 C 145.026 1.4617 1.1839 0
M  V30 1634 O 144.384 0.560007 1.72434 0
M  V30 1635 C 144.432 3.60595 -0.0188351 0
M  V30 1636 O 143.536 3.99398 1.02739 0
M  V30 1637 H 142.877 0.659047 -0.0809544 0
M  V30 1638 H 145.407 1.85784 -0.85705 0
M  V30 1639 H 145.417 4.07627 0.174476 0
M  V30 1640 H 144.092 4.04252 -0.977384 0
M  V30 1641 H 142.669 3.64011 0.809326 0
M  V30 1642 N 144.854 0.36279 1.53368 0
M  V30 1643 C 145.817 -0.472679 2.24273 0
M  V30 1644 C 146.817 -1.012 1.24961 0
M  V30 1645 O 148.007 -0.898194 1.49259 0
M  V30 1646 C 145.139 -1.66039 2.97731 0
M  V30 1647 H 146.332 0.14773 2.99536 0
M  V30 1648 H 143.885 0.114434 1.55881 0
M  V30 1649 H 144.62 -2.31896 2.26704 0
M  V30 1650 H 144.405 -1.28066 3.70596 0
M  V30 1651 H 145.895 -2.25252 3.51641 0
M  V30 1652 N 146.332 -1.57332 0.0918853 0
M  V30 1653 C 147.262 -2.16872 -0.865371 0
M  V30 1654 C 148.243 -1.10118 -1.29646 0
M  V30 1655 O 149.428 -1.38242 -1.36392 0
M  V30 1656 C 146.558 -2.74649 -2.12569 0
M  V30 1657 C 145.512 -3.86747 -1.83333 0
M  V30 1658 C 144.838 -4.31212 -3.16166 0
M  V30 1659 C 146.138 -5.10089 -1.1228 0
M  V30 1660 H 147.832 -2.97114 -0.369307 0
M  V30 1661 H 145.378 -1.42918 -0.176194 0
M  V30 1662 H 147.331 -3.14952 -2.7997 0
M  V30 1663 H 146.055 -1.91657 -2.64452 0
M  V30 1664 H 144.714 -3.46978 -1.18331 0
M  V30 1665 H 144.362 -3.45115 -3.6593 0
M  V30 1666 H 144.062 -5.06788 -2.97388 0
M  V30 1667 H 145.586 -4.74146 -3.84731 0
M  V30 1668 H 147 -5.47582 -1.69785 0
M  V30 1669 H 145.397 -5.91073 -1.03693 0
M  V30 1670 H 146.467 -4.84786 -0.105041 0
M  V30 1671 N 147.81 0.181792 -1.56548 0
M  V30 1672 C 149.035 0.920019 -1.85877 0
M  V30 1673 C 149.46 1.75494 -0.677021 0
M  V30 1674 O 148.818 1.77399 0.374056 0
M  V30 1675 C 148.866 1.78112 -3.13542 0
M  V30 1676 O 147.97 2.88152 -2.95029 0
M  V30 1677 H 147.311 0.258334 -0.611686 0
M  V30 1678 H 149.841 0.183092 -2.03779 0
M  V30 1679 H 149.851 2.18314 -3.44678 0
M  V30 1680 H 148.526 1.16777 -3.99169 0
M  V30 1681 H 147.103 2.51609 -2.75222 0
M  V30 1682 N 149.288 1.51039 0.449983 0
M  V30 1683 C 150.528 1.64732 1.21007 0
M  V30 1684 C 150.892 0.349865 1.88785 0
M  V30 1685 O 152.093 0.362431 2.66345 0
M  V30 1686 C 150.364 2.80902 2.20973 0
M  V30 1687 S 151.923 3.14851 3.05638 0
M  V30 1688 H 148.741 0.5805 0.410538 0
M  V30 1689 H 151.343 1.88901 0.503634 0
M  V30 1690 H 150.047 3.73627 1.69796 0
M  V30 1691 H 149.578 2.58882 2.96215 0
M  V30 1692 H 151.593 2.60306 4.22439 0
M  V30 1693 N 150.766 -0.704594 1.40972 0
M  V30 1694 C 152.177 -1.28418 1.3552 0
M  V30 1695 C 152.528 -1.96171 0.0339434 0
M  V30 1696 O 151.653 -1.98231 -0.867944 0
M  V30 1697 C 152.248 -2.33528 2.45459 0
M  V30 1698 C 150.807 -2.87085 2.43433 0
M  V30 1699 C 149.954 -1.61007 2.2577 0
M  V30 1700 H 152.905 -0.499963 1.50619 0
M  V30 1701 H 152.926 -3.14619 2.13998 0
M  V30 1702 H 152.438 -1.84187 3.41609 0
M  V30 1703 H 150.539 -3.40626 1.51013 0
M  V30 1704 H 150.652 -3.3813 3.39419 0
M  V30 1705 H 149.016 -1.86482 1.73483 0
M  V30 1706 H 149.799 -1.13675 3.23933 0
M  V30 1707 N 152.244 -1.26651 -0.937939 0
M  V30 1708 C 153.474 -1.15006 -1.71631 0
M  V30 1709 C 153.882 0.297026 -1.86854 0
M  V30 1710 O 153.225 1.21493 -1.37786 0
M  V30 1711 C 153.287 -1.74984 -3.14039 0
M  V30 1712 C 152.951 -3.24103 -3.2219 0
M  V30 1713 C 153.948 -4.20877 -3.05219 0
M  V30 1714 C 151.633 -3.64625 -3.45476 0
M  V30 1715 C 153.627 -5.56151 -3.11408 0
M  V30 1716 C 151.314 -5.00032 -3.513 0
M  V30 1717 C 152.312 -5.95604 -3.34282 0
M  V30 1718 O 152 -7.28545 -3.3982 0
M  V30 1719 H 151.732 -0.401183 -0.544085 0
M  V30 1720 H 154.286 -1.67832 -1.18413 0
M  V30 1721 H 152.516 -1.16624 -3.68695 0
M  V30 1722 H 154.205 -1.58199 -3.73802 0
M  V30 1723 H 154.971 -3.90908 -2.87081 0
M  V30 1724 H 150.85 -2.90718 -3.57777 0
M  V30 1725 H 154.394 -6.30727 -2.98043 0
M  V30 1726 H 150.291 -5.29659 -3.68959 0
M  V30 1727 H 151.059 -7.3686 -3.56343 0
M  V30 1728 N 153.722 1.14298 -1.08507 0
M  V30 1729 C 154.947 1.8976 -0.837001 0
M  V30 1730 C 155.372 1.78097 0.605228 0
M  V30 1731 O 154.73 1.12188 1.4242 0
M  V30 1732 C 154.778 3.37685 -1.26495 0
M  V30 1733 O 153.882 4.10281 -0.417514 0
M  V30 1734 H 153.223 0.590365 -0.303917 0
M  V30 1735 H 155.753 1.44672 -1.44676 0
M  V30 1736 H 155.763 3.88501 -1.24625 0
M  V30 1737 H 154.438 3.45492 -2.31534 0
M  V30 1738 H 153.015 3.69536 -0.499722 0
M  V30 1739 N 155.201 0.870884 1.31352 0
M  V30 1740 C 156.426 0.495957 2.01383 0
M  V30 1741 C 156.851 -0.904324 1.64935 0
M  V30 1742 O 156.209 -1.59687 0.858466 0
M  V30 1743 C 156.257 0.661433 3.54482 0
M  V30 1744 O 155.361 -0.298851 4.11316 0
M  V30 1745 H 154.702 0.197158 0.634054 0
M  V30 1746 H 157.232 1.17455 1.67527 0
M  V30 1747 H 157.242 0.555072 4.04207 0
M  V30 1748 H 155.917 1.68246 3.8035 0
M  V30 1749 H 154.494 -0.147368 3.72609 0
M  V30 1750 N 156.679 -1.44442 0.630414 0
M  V30 1751 C 157.956 -1.9549 0.0655657 0
M  V30 1752 C 158.336 -1.5724 -1.40851 0
M  V30 1753 O 157.684 -0.846116 -2.12257 0
M  V30 1754 C 157.894 -3.47812 0.287691 0
M  V30 1755 C 159.242 -4.24216 0.180513 0
M  V30 1756 O 160.266 -3.55526 0.219019 0
M  V30 1757 O 159.125 -5.46434 0.0848493 0
M  V30 1758 H 156.219 -0.826688 -0.0227177 0
M  V30 1759 H 158.765 -1.54496 0.702068 0
M  V30 1760 H 157.537 -3.687 1.31056 0
M  V30 1761 H 157.16 -3.95751 -0.382984 0
M  V30 1762 N 158.157 -0.370918 -1.53173 0
M  V30 1763 C 159.406 0.218249 -2.00516 0
M  V30 1764 C 159.719 1.49429 -1.26215 0
M  V30 1765 O 160.925 2.16239 -1.64174 0
M  V30 1766 C 159.381 0.43948 -3.57207 0
M  V30 1767 C 158.989 -0.822244 -4.4039 0
M  V30 1768 C 160.733 0.986012 -4.1289 0
M  V30 1769 C 158.64 -0.570304 -5.88644 0
M  V30 1770 H 157.57 0.0853333 -0.749156 0
M  V30 1771 H 160.221 -0.490483 -1.76823 0
M  V30 1772 H 158.603 1.20961 -3.77074 0
M  V30 1773 H 159.777 -1.59557 -4.32294 0
M  V30 1774 H 158.092 -1.29238 -3.95836 0
M  V30 1775 H 160.689 1.18991 -5.21292 0
M  V30 1776 H 161.032 1.94972 -3.6782 0
M  V30 1777 H 161.565 0.27592 -3.96842 0
M  V30 1778 H 158.304 -1.50449 -6.38001 0
M  V30 1779 H 157.824 0.164427 -5.99575 0
M  V30 1780 H 159.503 -0.19784 -6.46697 0
M  V30 1781 N 159.635 1.57281 -0.100228 0
M  V30 1782 C 160.912 1.86014 0.604812 0
M  V30 1783 C 161.292 0.998025 1.86018 0
M  V30 1784 O 160.64 0.0718184 2.28387 0
M  V30 1785 C 160.85 3.36784 0.915278 0
M  V30 1786 C 162.198 4.04957 1.27651 0
M  V30 1787 O 163.222 3.41695 1.00613 0
M  V30 1788 O 162.081 5.16593 1.7831 0
M  V30 1789 H 159.175 0.76942 0.303185 0
M  V30 1790 H 161.721 1.69176 -0.133313 0
M  V30 1791 H 160.493 3.91292 0.0248896 0
M  V30 1792 H 160.116 3.58987 1.70921 0
M  V30 1793 N 161.113 -0.173488 1.56642 0
M  V30 1794 C 162.045 -1.23935 1.92802 0
M  V30 1795 C 163.058 -1.40589 0.820889 0
M  V30 1796 O 164.247 -1.40631 1.09933 0
M  V30 1797 C 161.347 -2.60837 2.16373 0
M  V30 1798 C 160.52 -2.6551 3.47596 0
M  V30 1799 C 159.579 -3.8376 3.60021 0
M  V30 1800 O 158.605 -3.69859 4.32658 0
M  V30 1801 N 159.807 -5.00127 2.94709 0
M  V30 1802 H 162.572 -0.932236 2.84832 0
M  V30 1803 H 160.133 -0.363268 1.57772 0
M  V30 1804 H 162.125 -3.38407 2.21952 0
M  V30 1805 H 160.695 -2.83948 1.30738 0
M  V30 1806 H 159.915 -1.74052 3.53694 0
M  V30 1807 H 161.203 -2.65641 4.33949 0
M  V30 1808 H 160.601 -5.14322 2.35563 0
M  V30 1809 H 159.158 -5.75567 3.05886 0
M  V30 1810 N 162.591 -1.51276 -0.441967 0
M  V30 1811 C 163.838 -1.63715 -1.19179 0
M  V30 1812 C 164.166 -0.351175 -1.91303 0
M  V30 1813 O 163.421 0.664524 -1.84072 0
M  V30 1814 C 163.72 -2.78746 -2.23686 0
M  V30 1815 C 163.386 -4.18189 -1.68607 0
M  V30 1816 C 162.048 -4.56125 -1.53308 0
M  V30 1817 C 164.4 -5.05222 -1.28062 0
M  V30 1818 C 161.728 -5.78804 -0.959317 0
M  V30 1819 C 164.08 -6.28476 -0.721162 0
M  V30 1820 C 162.744 -6.65188 -0.55504 0
M  V30 1821 H 162.014 -0.599076 -0.436106 0
M  V30 1822 H 164.661 -1.85296 -0.48351 0
M  V30 1823 H 162.966 -2.51369 -3.00535 0
M  V30 1824 H 164.663 -2.8557 -2.81515 0
M  V30 1825 H 161.253 -3.88277 -1.8149 0
M  V30 1826 H 165.437 -4.76524 -1.38704 0
M  V30 1827 H 160.693 -6.05899 -0.81833 0
M  V30 1828 H 164.867 -6.95259 -0.398458 0
M  V30 1829 H 162.494 -7.60123 -0.108311 0
M  V30 1830 N 164.069 0.697108 -1.41344 0
M  V30 1831 C 165.002 1.82134 -1.37486 0
M  V30 1832 C 165.98 1.60784 -0.242351 0
M  V30 1833 O 167.164 1.83553 -0.429012 0
M  V30 1834 C 164.291 3.18788 -1.14421 0
M  V30 1835 C 163.337 3.58932 -2.3037 0
M  V30 1836 S 164.17 3.63916 -3.92843 0
M  V30 1837 C 165.326 5.03298 -3.72078 0
M  V30 1838 H 165.559 1.85129 -2.32625 0
M  V30 1839 H 163.092 0.865671 -1.2785 0
M  V30 1840 H 165.05 3.97677 -1.018 0
M  V30 1841 H 163.711 3.13404 -0.20905 0
M  V30 1842 H 162.904 4.58202 -2.09922 0
M  V30 1843 H 162.506 2.87347 -2.39391 0
M  V30 1844 H 164.798 5.90753 -3.31688 0
M  V30 1845 H 165.741 5.28788 -4.70945 0
M  V30 1846 H 166.149 4.74764 -3.05384 0
M  V30 1847 N 165.547 1.27147 0.931209 0
M  V30 1848 C 166.793 1.13446 1.68101 0
M  V30 1849 C 167.126 -0.319628 1.91552 0
M  V30 1850 O 166.401 -1.23407 1.50336 0
M  V30 1851 C 166.684 1.91482 3.0497 0
M  V30 1852 C 166.537 3.44855 2.88782 0
M  V30 1853 C 167.856 1.71651 4.05246 0
M  V30 1854 H 164.975 0.413498 0.610072 0
M  V30 1855 H 167.617 1.56261 1.08086 0
M  V30 1856 H 165.767 1.55095 3.56199 0
M  V30 1857 H 167.439 3.9105 2.44698 0
M  V30 1858 H 165.682 3.71373 2.24198 0
M  V30 1859 H 166.353 3.94694 3.85902 0
M  V30 1860 H 168.829 2.0337 3.63015 0
M  V30 1861 H 167.705 2.28651 4.99009 0
M  V30 1862 H 167.966 0.663555 4.37092 0
M  V30 1863 N 167.025 -1.13721 1.09112 0
M  V30 1864 C 167.973 -2.21103 0.722219 0
M  V30 1865 C 168.967 -1.67147 -0.275374 0
M  V30 1866 O 170.173 -1.79477 -0.137176 0
M  V30 1867 H 166.548 -0.720445 0.215553 0
M  V30 1868 H 168.519 -2.49483 1.63709 0
M  V30 1869 C 167.268 -3.47352 0.15543 0
M  V30 1870 H 166.591 -3.89206 0.914246 0
M  V30 1871 H 168.031 -4.2395 -0.0647967 0
M  V30 1872 C 166.49 -3.1814 -1.10852 0
M  V30 1873 O 167.02 -3.36604 -2.19227 0
M  V30 1874 N 165.226 -2.72045 -1.02176 0
M  V30 1875 H 164.773 -2.57221 -0.139764 0
M  V30 1876 H 164.731 -2.52875 -1.8682 0
M  V30 1877 N 168.503 -0.877838 -1.30888 0
M  V30 1878 C 169.733 -0.506678 -2.00291 0
M  V30 1879 C 170.141 0.907449 -1.66018 0
M  V30 1880 O 169.484 1.60719 -0.88967 0
M  V30 1881 C 169.546 -0.59323 -3.54572 0
M  V30 1882 C 169.21 -1.97038 -4.12341 0
M  V30 1883 C 170.207 -2.93889 -4.28865 0
M  V30 1884 C 167.892 -2.27383 -4.47886 0
M  V30 1885 C 169.886 -4.19224 -4.80136 0
M  V30 1886 C 167.573 -3.52965 -4.98857 0
M  V30 1887 C 168.571 -4.48701 -5.14934 0
M  V30 1888 O 168.259 -5.72056 -5.64808 0
M  V30 1889 H 167.991 -0.1951 -0.647234 0
M  V30 1890 H 170.545 -1.18301 -1.6791 0
M  V30 1891 H 168.775 0.140057 -3.86446 0
M  V30 1892 H 170.464 -0.234372 -4.05223 0
M  V30 1893 H 171.23 -2.71756 -4.01714 0
M  V30 1894 H 167.109 -1.53639 -4.34645 0
M  V30 1895 H 170.653 -4.93956 -4.92599 0
M  V30 1896 H 166.55 -3.74939 -5.25443 0
M  V30 1897 H 167.318 -5.74337 -5.83163 0
M  V30 1898 N 169.982 1.44106 -0.638065 0
M  V30 1899 C 170.912 2.33448 0.0494287 0
M  V30 1900 C 171.893 1.48606 0.827672 0
M  V30 1901 O 173.078 1.77308 0.792173 0
M  V30 1902 C 170.208 3.31771 1.02691 0
M  V30 1903 C 169.162 4.26485 0.359823 0
M  V30 1904 C 168.488 5.14729 1.44769 0
M  V30 1905 C 169.788 5.17056 -0.738296 0
M  V30 1906 H 171.482 2.91183 -0.696636 0
M  V30 1907 H 169.028 1.40014 -0.336456 0
M  V30 1908 H 170.981 3.93161 1.51666 0
M  V30 1909 H 169.705 2.7226 1.80395 0
M  V30 1910 H 168.364 3.66437 -0.10934 0
M  V30 1911 H 168.012 4.51566 2.21578 0
M  V30 1912 H 167.712 5.78913 1.00668 0
M  V30 1913 H 169.236 5.78991 1.93911 0
M  V30 1914 H 170.65 5.72342 -0.331354 0
M  V30 1915 H 169.047 5.89879 -1.10286 0
M  V30 1916 H 170.117 4.57652 -1.60258 0
M  V30 1917 N 171.46 0.379036 1.52974 0
M  V30 1918 C 172.685 -0.209353 2.06341 0
M  V30 1919 C 173.11 -1.40583 1.24972 0
M  V30 1920 O 172.468 -1.79246 0.272155 0
M  V30 1921 C 172.516 -0.567786 3.56102 0
M  V30 1922 O 171.62 -1.66318 3.77375 0
M  V30 1923 H 170.961 -0.0272919 0.663439 0
M  V30 1924 H 173.491 0.543536 1.97248 0
M  V30 1925 H 173.501 -0.835003 3.99364 0
M  V30 1926 H 172.176 0.307013 4.14765 0
M  V30 1927 H 170.753 -1.39048 3.46006 0
M  V30 1928 N 172.938 -1.57226 0.108567 0
M  V30 1929 C 174.184 -1.95121 -0.552761 0
M  V30 1930 C 174.517 -0.991345 -1.66991 0
M  V30 1931 O 173.792 -0.0267211 -1.94482 0
M  V30 1932 C 174.075 -3.43039 -1.09528 0
M  V30 1933 C 173.928 -4.49797 0.0177332 0
M  V30 1934 C 175.247 -3.92567 -1.98945 0
M  V30 1935 H 172.366 -0.709496 -0.199461 0
M  V30 1936 H 175.008 -1.89126 0.182011 0
M  V30 1937 H 173.158 -3.48279 -1.72146 0
M  V30 1938 H 174.83 -4.56661 0.652584 0
M  V30 1939 H 173.073 -4.284 0.682309 0
M  V30 1940 H 173.744 -5.50528 -0.402919 0
M  V30 1941 H 176.22 -3.89565 -1.46214 0
M  V30 1942 H 175.096 -4.96605 -2.33827 0
M  V30 1943 H 175.357 -3.32648 -2.91201 0
M  V30 1944 N 174.416 0.165178 -1.56732 0
M  V30 1945 C 175.349 1.23336 -1.91998 0
M  V30 1946 C 176.327 1.42476 -0.783531 0
M  V30 1947 O 177.511 1.57384 -1.03743 0
M  V30 1948 C 174.638 2.59533 -2.17625 0
M  V30 1949 C 173.684 2.57093 -3.40302 0
M  V30 1950 S 174.517 2.05571 -4.9447 0
M  V30 1951 C 175.673 3.43532 -5.23198 0
M  V30 1952 H 175.906 0.932387 -2.82301 0
M  V30 1953 H 173.439 0.370013 -1.49901 0
M  V30 1954 H 175.397 3.37918 -2.3307 0
M  V30 1955 H 174.058 2.86827 -1.28019 0
M  V30 1956 H 173.251 3.57308 -3.55453 0
M  V30 1957 H 172.853 1.86806 -3.24005 0
M  V30 1958 H 175.145 4.39559 -5.15552 0
M  V30 1959 H 176.088 3.33251 -6.2478 0
M  V30 1960 H 176.496 3.39828 -4.50752 0
M  V30 1961 N 175.894 1.51508 0.433938 0
M  V30 1962 C 176.804 1.75917 1.5521 0
M  V30 1963 C 177.82 0.643545 1.61662 0
M  V30 1964 O 178.996 0.926183 1.7884 0
M  V30 1965 C 176.061 1.88213 2.91164 0
M  V30 1966 C 175.122 3.12074 2.94802 0
M  V30 1967 C 174.355 3.23774 4.24271 0
M  V30 1968 O 174.578 2.4133 5.16833 0
M  V30 1969 O 173.512 4.16774 4.34262 0
M  V30 1970 H 177.338 2.70777 1.37527 0
M  V30 1971 H 174.923 1.36051 0.617293 0
M  V30 1972 H 176.805 1.98267 3.71845 0
M  V30 1973 H 175.48 0.965413 3.08968 0
M  V30 1974 H 174.387 3.07497 2.13065 0
M  V30 1975 H 175.72 4.03446 2.81943 0
M  V30 1976 N 177.372 -0.689602 1.41712 0
M  V30 1977 C 178.788 -1.00093 1.24312 0
M  V30 1978 C 178.988 -2.01036 0.136729 0
M  V30 1979 O 178.044 -2.47562 -0.496918 0
M  V30 1980 C 179.357 -1.51985 2.59463 0
M  V30 1981 C 180.905 -1.63838 2.66695 0
M  V30 1982 C 181.38 -2.1913 4.02177 0
M  V30 1983 N 182.871 -2.26483 4.04054 0
M  V30 1984 C 183.606 -2.70306 5.0569 0
M  V30 1985 N 183.102 -3.13691 6.17713 0
M  V30 1986 N 184.895 -2.69923 4.9305 0
M  V30 1987 H 177.046 -0.0210029 2.1239 0
M  V30 1988 H 179.309 -0.0718733 0.945272 0
M  V30 1989 H 179.015 -0.85269 3.41207 0
M  V30 1990 H 178.889 -2.50103 2.82362 0
M  V30 1991 H 181.276 -2.29664 1.85306 0
M  V30 1992 H 181.357 -0.642492 2.476 0
M  V30 1993 H 181.001 -1.53918 4.84016 0
M  V30 1994 H 180.931 -3.19482 4.18615 0
M  V30 1995 H 183.422 -1.95874 3.23174 0
M  V30 1996 H 183.735 -3.45773 6.9113 0
M  V30 1997 H 182.08 -3.11585 6.21241 0
M  V30 1998 H 185.271 -2.35382 4.04614 0
M  V30 1999 H 185.444 -3.03758 5.72394 0
M  V30 2000 N 178.85 -1.27639 -0.924453 0
M  V30 2001 C 180.08 -1.16819 -1.70402 0
M  V30 2002 C 180.488 0.277191 -1.87158 0
M  V30 2003 O 179.831 1.20025 -1.39067 0
M  V30 2004 C 179.893 -1.78305 -3.12166 0
M  V30 2005 C 179.557 -3.27502 -3.18734 0
M  V30 2006 C 180.554 -4.2409 -3.00738 0
M  V30 2007 C 178.239 -3.68269 -3.4159 0
M  V30 2008 C 180.233 -5.59422 -3.05492 0
M  V30 2009 C 177.92 -5.0373 -3.45977 0
M  V30 2010 C 178.918 -5.99116 -3.27946 0
M  V30 2011 O 178.606 -7.32108 -3.32074 0
M  V30 2012 H 178.338 -0.406931 -0.539799 0
M  V30 2013 H 180.892 -1.69078 -1.16626 0
M  V30 2014 H 179.122 -1.20528 -3.67437 0
M  V30 2015 H 180.811 -1.62154 -3.72103 0
M  V30 2016 H 181.577 -3.93931 -2.82919 0
M  V30 2017 H 177.456 -2.94496 -3.54673 0
M  V30 2018 H 181 -6.33852 -2.91337 0
M  V30 2019 H 176.897 -5.33543 -3.63321 0
M  V30 2020 H 177.665 -7.40598 -3.48507 0
M  V30 2021 N 180.328 1.1314 -1.09713 0
M  V30 2022 C 181.275 2.18642 -0.739196 0
M  V30 2023 C 182.245 1.63706 0.280978 0
M  V30 2024 O 183.43 1.90111 0.161946 0
M  V30 2025 C 180.57 3.44685 -0.169102 0
M  V30 2026 C 179.683 4.13711 -1.24367 0
M  V30 2027 C 178.818 5.27379 -0.636019 0
M  V30 2028 C 177.857 5.88259 -1.69169 0
M  V30 2029 N 176.994 6.93352 -1.10485 0
M  V30 2030 H 181.834 2.48607 -1.64312 0
M  V30 2031 H 179.371 1.22066 -0.820875 0
M  V30 2032 H 181.329 4.16815 0.179256 0
M  V30 2033 H 179.959 3.15161 0.698079 0
M  V30 2034 H 179.011 3.39835 -1.70927 0
M  V30 2035 H 180.323 4.55037 -2.04311 0
M  V30 2036 H 179.477 6.06238 -0.236677 0
M  V30 2037 H 178.216 4.8731 0.194928 0
M  V30 2038 H 177.221 5.08092 -2.10055 0
M  V30 2039 H 178.446 6.30399 -2.52536 0
M  V30 2040 H 176.392 6.55335 -0.295234 0
M  V30 2041 H 176.309 7.33236 -1.84121 0
M  V30 2042 H 177.577 7.76057 -0.73181 0
M  V30 2043 N 181.806 0.884767 1.30421 0
M  V30 2044 C 183.031 0.517288 2.00845 0
M  V30 2045 C 183.456 -0.886779 1.65885 0
M  V30 2046 O 182.814 -1.58768 0.875354 0
M  V30 2047 C 182.862 0.698994 3.5376 0
M  V30 2048 O 181.966 -0.255208 4.1161 0
M  V30 2049 H 181.307 0.203872 0.631927 0
M  V30 2050 H 183.837 1.19225 1.66272 0
M  V30 2051 H 183.847 0.597912 4.03595 0
M  V30 2052 H 182.522 1.72271 3.78544 0
M  V30 2053 H 181.099 -0.10784 3.72744 0
M  V30 2054 N 183.284 -1.43765 0.645699 0
M  V30 2055 C 184.561 -1.9541 0.0862963 0
M  V30 2056 C 184.941 -1.58725 -1.39175 0
M  V30 2057 O 184.289 -0.868581 -2.11348 0
M  V30 2058 C 184.499 -3.47488 0.324565 0
M  V30 2059 C 185.847 -4.24001 0.225497 0
M  V30 2060 O 186.871 -3.55274 0.256715 0
M  V30 2061 O 185.73 -5.46313 0.142801 0
M  V30 2062 H 182.824 -0.826882 -0.0139483 0
M  V30 2063 H 185.37 -1.53743 0.718415 0
M  V30 2064 H 184.142 -3.67289 1.3496 0
M  V30 2065 H 183.765 -3.96135 -0.340987 0
M  V30 2066 N 184.763 -0.387143 -1.52771 0
M  V30 2067 C 185.991 0.195869 -2.05971 0
M  V30 2068 C 186.406 1.40691 -1.25903 0
M  V30 2069 O 185.763 1.79931 -0.305134 0
M  V30 2070 C 185.814 0.56812 -3.57008 0
M  V30 2071 O 185.535 -0.594803 -4.34043 0
M  V30 2072 C 187.036 1.20723 -4.26545 0
M  V30 2073 H 184.256 0.0300578 -0.670326 0
M  V30 2074 H 186.8 -0.551749 -1.96916 0
M  V30 2075 H 184.955 1.26564 -3.66143 0
M  V30 2076 H 185.369 -0.289322 -5.23701 0
M  V30 2077 H 186.843 1.41807 -5.33474 0
M  V30 2078 H 187.32 2.17395 -3.81623 0
M  V30 2079 H 187.926 0.550535 -4.21722 0
M  V30 2080 N 186.241 1.57166 -0.116904 0
M  V30 2081 C 187.188 2.15202 0.83408 0
M  V30 2082 C 188.158 1.07644 1.26499 0
M  V30 2083 O 189.343 1.35541 1.34288 0
M  V30 2084 C 186.483 2.75405 2.07957 0
M  V30 2085 C 185.596 3.97264 1.69721 0
M  V30 2086 C 184.731 4.45561 2.89221 0
M  V30 2087 C 183.77 5.59956 2.47215 0
M  V30 2088 N 182.907 6.03006 3.59622 0
M  V30 2089 H 187.747 2.96141 0.332335 0
M  V30 2090 H 185.284 1.46309 0.152349 0
M  V30 2091 H 187.242 3.08439 2.80929 0
M  V30 2092 H 185.872 1.97159 2.55594 0
M  V30 2093 H 184.924 3.70404 0.866316 0
M  V30 2094 H 186.236 4.80226 1.34849 0
M  V30 2095 H 185.39 4.80493 3.7042 0
M  V30 2096 H 184.129 3.61544 3.27318 0
M  V30 2097 H 183.134 5.2463 1.64448 0
M  V30 2098 H 184.359 6.45738 2.10238 0
M  V30 2099 H 182.305 5.21931 3.97396 0
M  V30 2100 H 182.222 6.80819 3.28667 0
M  V30 2101 H 183.49 6.42576 4.41267 0
M  V30 2102 N 187.719 -0.156864 1.56817 0
M  V30 2103 C 188.649 -1.19589 2.00551 0
M  V30 2104 C 189.63 -1.4536 0.883426 0
M  V30 2105 O 190.815 -1.56449 1.15054 0
M  V30 2106 C 187.945 -2.53143 2.37773 0
M  V30 2107 C 186.899 -2.41913 3.53075 0
M  V30 2108 C 186.225 -3.80088 3.76081 0
M  V30 2109 C 187.525 -1.91157 4.86062 0
M  V30 2110 H 189.219 -0.832293 2.87599 0
M  V30 2111 H 186.765 -0.398918 1.38364 0
M  V30 2112 H 188.718 -3.26047 2.66967 0
M  V30 2113 H 187.442 -2.91319 1.4765 0
M  V30 2114 H 186.101 -1.71462 3.24031 0
M  V30 2115 H 185.749 -4.15683 2.83225 0
M  V30 2116 H 185.449 -3.73439 4.53671 0
M  V30 2117 H 186.973 -4.54556 4.0769 0
M  V30 2118 H 188.387 -2.53846 5.14038 0
M  V30 2119 H 186.784 -1.95422 5.67389 0
M  V30 2120 H 187.854 -0.866673 4.77092 0
M  V30 2121 N 189.197 -1.51736 -0.425897 0
M  V30 2122 C 190.444 -1.6497 -1.17436 0
M  V30 2123 C 190.772 -0.371445 -1.9092 0
M  V30 2124 O 190.027 0.644963 -1.84767 0
M  V30 2125 C 190.326 -2.81103 -2.20717 0
M  V30 2126 C 189.992 -4.19954 -1.64162 0
M  V30 2127 C 188.654 -4.57725 -1.48462 0
M  V30 2128 C 191.006 -5.06552 -1.22696 0
M  V30 2129 C 188.334 -5.79789 -0.897873 0
M  V30 2130 C 190.686 -6.29205 -0.654464 0
M  V30 2131 C 189.35 -6.6574 -0.484456 0
M  V30 2132 H 188.62 -0.603668 -0.429727 0
M  V30 2133 H 191.267 -1.85798 -0.463829 0
M  V30 2134 H 189.572 -2.54542 -2.97852 0
M  V30 2135 H 191.269 -2.8854 -2.78471 0
M  V30 2136 H 187.859 -3.90181 -1.77361 0
M  V30 2137 H 192.043 -4.77968 -1.33642 0
M  V30 2138 H 187.299 -6.06733 -0.75402 0
M  V30 2139 H 191.473 -6.95643 -0.324694 0
M  V30 2140 H 189.1 -7.60195 -0.0276833 0
M  V30 2141 N 190.675 0.682077 -1.42076 0
M  V30 2142 C 192.086 1.26246 -1.37546 0
M  V30 2143 C 192.437 1.96092 -0.0651481 0
M  V30 2144 O 191.562 1.99587 0.836297 0
M  V30 2145 C 192.157 2.29594 -2.49143 0
M  V30 2146 C 190.716 2.83175 -2.47969 0
M  V30 2147 C 189.863 1.57395 -2.28303 0
M  V30 2148 H 192.814 0.475937 -1.51395 0
M  V30 2149 H 192.835 3.11175 -2.18976 0
M  V30 2150 H 192.347 1.78729 -3.44496 0
M  V30 2151 H 190.448 3.3818 -1.56413 0
M  V30 2152 H 190.561 3.32687 -3.44755 0
M  V30 2153 H 188.925 1.83699 -1.76428 0
M  V30 2154 H 189.708 1.08507 -3.25701 0
M  V30 2155 N 192.153 1.28127 0.917671 0
M  V30 2156 C 193.085 1.07517 2.02417 0
M  V30 2157 C 194.098 0.0281099 1.62776 0
M  V30 2158 O 195.287 0.270748 1.76435 0
M  V30 2159 C 192.387 0.610957 3.33347 0
M  V30 2160 C 191.56 1.73255 4.01624 0
M  V30 2161 C 190.619 1.26238 5.10833 0
M  V30 2162 O 189.645 1.96389 5.34247 0
M  V30 2163 N 190.847 0.123448 5.80369 0
M  V30 2164 H 193.612 2.02806 2.20658 0
M  V30 2165 H 191.173 1.19827 1.08871 0
M  V30 2166 H 193.165 0.280101 4.0373 0
M  V30 2167 H 191.735 -0.24898 3.11607 0
M  V30 2168 H 190.955 2.23319 3.24842 0
M  V30 2169 H 192.243 2.48503 4.43986 0
M  V30 2170 H 191.641 -0.461847 5.63812 0
M  V30 2171 H 190.198 -0.148158 6.51632 0
M  V30 2172 N 193.631 -1.12557 1.10312 0
M  V30 2173 C 194.879 -1.83675 0.843091 0
M  V30 2174 C 195.2 -1.84435 -0.633131 0
M  V30 2175 O 194.47 -1.30657 -1.45964 0
M  V30 2176 H 193.05 -0.680138 0.308904 0
M  V30 2177 H 195.712 -1.36301 1.39313 0
M  V30 2178 H 194.808 -2.87908 1.2048 0
M  V30 2179 N 195.109 -0.891671 -1.2995 0
M  V30 2180 C 196.355 -0.514261 -1.96171 0
M  V30 2181 C 196.688 0.935506 -1.70182 0
M  V30 2182 O 195.963 1.66204 -1.01028 0
M  V30 2183 C 196.246 -0.797719 -3.51153 0
M  V30 2184 C 196.099 -2.2986 -3.86632 0
M  V30 2185 C 197.418 -0.278749 -4.39216 0
M  V30 2186 H 194.537 -0.188314 -0.712535 0
M  V30 2187 H 197.179 -1.11689 -1.53706 0
M  V30 2188 H 195.329 -0.284826 -3.87455 0
M  V30 2189 H 197.001 -2.88042 -3.60319 0
M  V30 2190 H 195.244 -2.76257 -3.34462 0
M  V30 2191 H 195.915 -2.44753 -4.94773 0
M  V30 2192 H 198.391 -0.717825 -4.09862 0
M  V30 2193 H 197.267 -0.506353 -5.46559 0
M  V30 2194 H 197.528 0.820266 -4.34424 0
M  V30 2195 N 196.587 1.43421 -0.653314 0
M  V30 2196 C 197.815 2.06163 -0.174491 0
M  V30 2197 C 198.23 1.48969 1.1599 0
M  V30 2198 O 197.587 0.621042 1.71608 0
M  V30 2199 C 197.638 3.61417 -0.0774865 0
M  V30 2200 O 197.359 4.16485 -1.35912 0
M  V30 2201 C 198.86 4.41235 0.427402 0
M  V30 2202 H 196.08 0.664946 -0.0899353 0
M  V30 2203 H 198.624 1.83924 -0.893988 0
M  V30 2204 H 196.779 3.82841 0.59257 0
M  V30 2205 H 197.193 5.10153 -1.21839 0
M  V30 2206 H 198.667 5.5021 0.44423 0
M  V30 2207 H 199.144 4.14268 1.45873 0
M  V30 2208 H 199.75 4.2478 -0.210167 0
M  V30 2209 N 198.065 0.39524 1.52563 0
M  V30 2210 C 199.476 -0.0774719 1.86539 0
M  V30 2211 C 199.827 -1.45641 1.31466 0
M  V30 2212 O 198.952 -2.06459 0.648367 0
M  V30 2213 C 199.547 -0.147356 3.38479 0
M  V30 2214 C 198.106 -0.564373 3.72145 0
M  V30 2215 C 197.253 0.269919 2.75983 0
M  V30 2216 H 200.204 0.612876 1.46388 0
M  V30 2217 H 200.225 -0.965343 3.68051 0
M  V30 2218 H 199.737 0.856387 3.78534 0
M  V30 2219 H 197.838 -1.57527 3.37663 0
M  V30 2220 H 197.951 -0.318402 4.78041 0
M  V30 2221 H 196.315 -0.265696 2.5331 0
M  V30 2222 H 197.098 1.27175 3.18875 0
M  V30 2223 N 199.544 -1.57102 0.125237 0
M  V30 2224 C 200.454 -2.19191 -0.8362 0
M  V30 2225 C 201.47 -1.16985 -1.28805 0
M  V30 2226 O 202.646 -1.49479 -1.34974 0
M  V30 2227 C 199.711 -2.78407 -2.06617 0
M  V30 2228 C 198.772 -3.9567 -1.66565 0
M  V30 2229 C 198.005 -4.52052 -2.83698 0
M  V30 2230 O 198.228 -4.07326 -3.99302 0
M  V30 2231 O 197.162 -5.42645 -2.60423 0
M  V30 2232 H 200.988 -3.01816 -0.337776 0
M  V30 2233 H 198.573 -1.4906 -0.100695 0
M  V30 2234 H 200.455 -3.16129 -2.7864 0
M  V30 2235 H 199.13 -1.9881 -2.55453 0
M  V30 2236 H 198.037 -3.62705 -0.916296 0
M  V30 2237 H 199.37 -4.76722 -1.22464 0
M  V30 2238 N 201.022 0.148545 -1.56898 0
M  V30 2239 C 201.97 1.20265 -1.99096 0
M  V30 2240 C 202.964 1.44559 -0.883123 0
M  V30 2241 O 204.17 1.4487 -1.0683 0
M  V30 2242 H 200.545 0.404786 -0.63376 0
M  V30 2243 H 202.516 0.82004 -2.86911 0
M  V30 2244 C 201.265 2.52886 -2.3863 0
M  V30 2245 H 200.588 2.35021 -3.23427 0
M  V30 2246 H 202.028 3.25274 -2.7198 0
M  V30 2247 C 200.487 3.13315 -1.23837 0
M  V30 2248 O 201.017 3.98077 -0.538268 0
M  V30 2249 N 199.223 2.72742 -1.00301 0
M  V30 2250 H 198.77 2.03912 -1.5741 0
M  V30 2251 H 198.728 3.13507 -0.236838 0
M  V30 2252 N 202.5 1.5196 0.417844 0
M  V30 2253 C 203.45 1.7106 1.5074 0
M  V30 2254 C 204.434 0.564487 1.50673 0
M  V30 2255 O 205.626 0.821206 1.56797 0
M  V30 2256 C 202.755 1.85677 2.88754 0
M  V30 2257 C 201.841 3.06133 2.93502 0
M  V30 2258 N 202.232 4.28987 2.67962 0
M  V30 2259 C 200.53 3.05787 3.24669 0
M  V30 2260 C 201.231 5.10395 2.79055 0
M  V30 2261 N 200.207 4.45455 3.11561 0
M  V30 2262 H 204.009 2.63696 1.29775 0
M  V30 2263 H 201.523 1.49873 0.625436 0
M  V30 2264 H 203.52 1.97475 3.67164 0
M  V30 2265 H 202.18 0.942348 3.10725 0
M  V30 2266 H 203.191 4.57607 2.4252 0
M  V30 2267 H 199.868 2.2405 3.52289 0
M  V30 2268 H 201.258 6.18247 2.63097 0
M  V30 2269 N 203.978 -0.674533 1.42435 0
M  V30 2270 C 204.908 -1.80009 1.48724 0
M  V30 2271 C 205.889 -1.6659 0.343793 0
M  V30 2272 O 207.074 -1.86007 0.558137 0
M  V30 2273 C 204.204 -3.18306 1.38919 0
M  V30 2274 C 203.158 -3.46461 2.51294 0
M  V30 2275 C 202.484 -4.84335 2.26547 0
M  V30 2276 C 203.784 -3.43328 3.93603 0
M  V30 2277 H 205.478 -1.75004 2.42928 0
M  V30 2278 H 203.024 -0.840533 1.16923 0
M  V30 2279 H 204.977 -3.9678 1.41927 0
M  V30 2280 H 203.701 -3.2399 0.412094 0
M  V30 2281 H 202.36 -2.70348 2.47604 0
M  V30 2282 H 202.008 -4.86669 1.2713 0
M  V30 2283 H 201.708 -5.04136 3.01861 0
M  V30 2284 H 203.232 -5.65094 2.31304 0
M  V30 2285 H 204.646 -4.11772 3.98894 0
M  V30 2286 H 203.043 -3.74664 4.68771 0
M  V30 2287 H 204.113 -2.41897 4.20255 0
M  V30 2288 N 205.456 -1.28612 -0.910864 0
M  V30 2289 C 206.404 -1.1265 -2.03501 0
M  V30 2290 C 207.398 -0.0450054 -1.6934 0
M  V30 2291 O 208.604 -0.203988 -1.7884 0
M  V30 2292 H 204.979 -0.347639 -0.666822 0
M  V30 2293 H 206.95 -2.07849 -2.14106 0
M  V30 2294 C 205.699 -0.808143 -3.38178 0
M  V30 2295 H 205.022 -1.63231 -3.6496 0
M  V30 2296 H 206.462 -0.736426 -4.17556 0
M  V30 2297 C 204.921 0.488226 -3.33344 0
M  V30 2298 O 205.451 1.51766 -3.71927 0
M  V30 2299 N 203.657 0.490009 -2.86439 0
M  V30 2300 H 203.204 -0.348161 -2.55236 0
M  V30 2301 H 203.162 1.35741 -2.83587 0
M  V30 2302 N 206.934 1.1197 -1.10907 0
M  V30 2303 C 208.183 1.82947 -0.849302 0
M  V30 2304 C 208.496 1.85275 0.627112 0
M  V30 2305 O 209.702 2.52296 1.00295 0
M  V30 2306 C 208.158 3.28529 -1.46959 0
M  V30 2307 C 207.766 3.34546 -2.97965 0
M  V30 2308 C 209.51 4.04443 -1.28942 0
M  V30 2309 C 207.417 4.74491 -3.53004 0
M  V30 2310 H 206.347 0.685477 -0.314065 0
M  V30 2311 H 208.998 1.2604 -1.33365 0
M  V30 2312 H 207.38 3.85333 -0.912917 0
M  V30 2313 H 208.554 2.87654 -3.59989 0
M  V30 2314 H 206.869 2.72108 -3.15192 0
M  V30 2315 H 209.466 5.07787 -1.67502 0
M  V30 2316 H 209.809 4.15656 -0.231456 0
M  V30 2317 H 210.342 3.5401 -1.81443 0
M  V30 2318 H 207.081 4.68474 -4.58489 0
M  V30 2319 H 206.601 5.21816 -2.9575 0
M  V30 2320 H 208.28 5.4344 -3.51115 0
M  V30 2321 N 208.412 0.89855 1.29475 0
M  V30 2322 C 209.637 0.538561 2.00285 0
M  V30 2323 C 210.062 -0.869135 1.66816 0
M  V30 2324 O 209.42 -1.57831 0.892145 0
M  V30 2325 C 209.468 0.736475 3.52999 0
M  V30 2326 O 208.572 -0.211537 4.11857 0
M  V30 2327 H 207.913 0.210563 0.62973 0
M  V30 2328 H 210.443 1.20982 1.64998 0
M  V30 2329 H 210.453 0.640685 4.02938 0
M  V30 2330 H 209.128 1.76276 3.76696 0
M  V30 2331 H 207.705 -0.0682991 3.72837 0
M  V30 2332 N 209.89 -1.43072 0.660911 0
M  V30 2333 C 210.853 -2.29194 -0.0166406 0
M  V30 2334 C 211.853 -1.42609 -0.742912 0
M  V30 2335 O 213.043 -1.64155 -0.583004 0
M  V30 2336 C 210.175 -3.24831 -1.0343 0
M  V30 2337 H 211.368 -2.90596 0.741208 0
M  V30 2338 H 208.921 -1.5048 0.422532 0
M  V30 2339 H 209.656 -2.68339 -1.82111 0
M  V30 2340 H 209.441 -3.88676 -0.517082 0
M  V30 2341 H 210.931 -3.89451 -1.50723 0
M  V30 2342 N 211.368 -0.403325 -1.52352 0
M  V30 2343 C 212.298 0.416205 -2.29761 0
M  V30 2344 C 213.279 1.05123 -1.33728 0
M  V30 2345 O 214.464 1.06134 -1.62632 0
M  V30 2346 C 211.594 1.53624 -3.11475 0
M  V30 2347 C 210.548 1.02653 -4.15507 0
M  V30 2348 C 209.874 2.23971 -4.85532 0
M  V30 2349 C 211.174 0.08463 -5.22231 0
M  V30 2350 H 212.868 -0.229701 -2.98518 0
M  V30 2351 H 210.414 -0.111913 -1.43564 0
M  V30 2352 H 212.367 2.1165 -3.64393 0
M  V30 2353 H 211.091 2.20994 -2.40477 0
M  V30 2354 H 209.75 0.46871 -3.63591 0
M  V30 2355 H 209.398 2.89883 -4.11068 0
M  V30 2356 H 209.098 1.90521 -5.55856 0
M  V30 2357 H 210.622 2.82614 -5.41259 0
M  V30 2358 H 212.036 0.573509 -5.70424 0
M  V30 2359 H 210.433 -0.160783 -5.99885 0
M  V30 2360 H 211.503 -0.86237 -4.7717 0
M  V30 2361 N 212.846 1.57033 -0.133567 0
M  V30 2362 C 214.257 1.82593 0.389464 0
M  V30 2363 C 214.608 1.05156 1.6564 0
M  V30 2364 O 213.733 0.292644 2.14412 0
M  V30 2365 C 214.328 3.31204 0.713377 0
M  V30 2366 C 212.887 3.57393 1.18098 0
M  V30 2367 C 212.034 2.76598 0.197126 0
M  V30 2368 H 214.985 1.54598 -0.358481 0
M  V30 2369 H 215.006 3.46627 1.56939 0
M  V30 2370 H 214.518 3.87537 -0.2089 0
M  V30 2371 H 212.619 3.06433 2.11966 0
M  V30 2372 H 212.732 4.65915 1.11624 0
M  V30 2373 H 211.096 2.45257 0.687088 0
M  V30 2374 H 211.879 3.35697 -0.718504 0
M  V30 2375 N 214.325 -0.140222 1.56975 0
M  V30 2376 C 215.571 -0.848084 1.84876 0
M  V30 2377 C 215.926 -1.78481 0.718481 0
M  V30 2378 O 215.219 -1.89497 -0.283093 0
M  V30 2379 C 215.413 -1.65386 3.16832 0
M  V30 2380 C 215.242 -0.79665 4.42587 0
M  V30 2381 C 214.012 -0.459648 5.03205 0
M  V30 2382 C 216.21 -0.12389 5.14151 0
M  V30 2383 N 214.192 0.410446 6.12526 0
M  V30 2384 C 215.563 0.606064 6.17031 0
M  V30 2385 C 217.618 -0.0452654 4.97879 0
M  V30 2386 C 216.321 1.40723 7.054 0
M  V30 2387 C 218.347 0.742658 5.86718 0
M  V30 2388 C 217.709 1.46087 6.89085 0
M  V30 2389 H 213.808 -0.287946 0.727056 0
M  V30 2390 H 216.392 -0.11304 1.94372 0
M  V30 2391 H 214.563 -2.36009 3.08471 0
M  V30 2392 H 216.295 -2.30541 3.32615 0
M  V30 2393 H 213.05 -0.797006 4.66846 0
M  V30 2394 H 213.474 0.836716 6.7181 0
M  V30 2395 H 218.116 -0.586184 4.18717 0
M  V30 2396 H 215.834 1.95938 7.83986 0
M  V30 2397 H 219.42 0.805574 5.76196 0
M  V30 2398 H 218.3 2.06077 7.56639 0
M  V30 2399 N 215.803 -1.52179 -0.40978 0
M  V30 2400 C 217.049 -1.66453 -1.15851 0
M  V30 2401 C 217.382 -0.392972 -1.90182 0
M  V30 2402 O 216.657 0.608579 -1.84734 0
M  V30 2403 C 216.94 -2.88612 -2.15349 0
M  V30 2404 C 216.793 -4.25815 -1.44918 0
M  V30 2405 C 218.112 -3.06294 -3.16026 0
M  V30 2406 H 215.231 -0.60575 -0.419805 0
M  V30 2407 H 217.873 -1.84732 -0.444314 0
M  V30 2408 H 216.023 -2.73158 -2.76255 0
M  V30 2409 H 217.695 -4.52995 -0.871365 0
M  V30 2410 H 215.938 -4.27247 -0.751159 0
M  V30 2411 H 216.609 -5.07337 -2.17516 0
M  V30 2412 H 219.085 -3.20641 -2.65195 0
M  V30 2413 H 217.961 -3.93283 -3.8291 0
M  V30 2414 H 218.222 -2.19579 -3.83715 0
M  V30 2415 N 217.281 0.66697 -1.42791 0
M  V30 2416 C 218.229 1.80157 -1.47127 0
M  V30 2417 C 219.223 1.65825 -0.346199 0
M  V30 2418 O 220.429 1.72338 -0.519572 0
M  V30 2419 H 216.804 0.594158 -0.460956 0
M  V30 2420 H 218.775 1.73619 -2.42692 0
M  V30 2421 C 217.524 3.18351 -1.39813 0
M  V30 2422 H 216.847 3.3001 -2.25684 0
M  V30 2423 H 218.287 3.97736 -1.46908 0
M  V30 2424 C 216.746 3.36707 -0.11391 0
M  V30 2425 O 217.276 3.93027 0.830241 0
M  V30 2426 N 215.482 2.90586 -0.0285295 0
M  V30 2427 H 215.029 2.4494 -0.79764 0
M  V30 2428 H 214.987 3.03245 0.830063 0
M  V30 2429 N 218.759 1.29093 0.90403 0
M  V30 2430 C 220.006 1.16813 1.65411 0
M  V30 2431 C 220.334 -0.28128 1.92455 0
M  V30 2432 O 219.589 -1.22006 1.53013 0
M  V30 2433 C 219.888 1.92224 3.01305 0
M  V30 2434 C 219.554 3.41968 2.93885 0
M  V30 2435 C 218.216 3.82807 2.91569 0
M  V30 2436 C 220.568 4.37409 2.83413 0
M  V30 2437 C 217.896 5.1741 2.76594 0
M  V30 2438 C 220.248 5.72097 2.69977 0
M  V30 2439 C 218.912 6.12199 2.66024 0
M  V30 2440 H 218.182 0.42745 0.605283 0
M  V30 2441 H 220.829 1.59981 1.05254 0
M  V30 2442 H 219.134 1.41635 3.65304 0
M  V30 2443 H 220.831 1.80131 3.58265 0
M  V30 2444 H 217.421 3.09504 2.96488 0
M  V30 2445 H 221.605 4.06813 2.84283 0
M  V30 2446 H 216.861 5.47596 2.71935 0
M  V30 2447 H 221.035 6.45704 2.60844 0
M  V30 2448 H 218.662 7.16448 2.54178 0
M  V30 2449 N 220.237 -1.11381 1.11499 0
M  V30 2450 C 221.514 -1.7955 0.775965 0
M  V30 2451 C 221.894 -1.97859 -0.73588 0
M  V30 2452 O 221.242 -1.56376 -1.66609 0
M  V30 2453 C 221.452 -3.13196 1.53977 0
M  V30 2454 C 222.8 -3.88227 1.71944 0
M  V30 2455 O 223.824 -3.22887 1.50407 0
M  V30 2456 O 222.683 -5.05477 2.07738 0
M  V30 2457 H 219.777 -0.777728 0.28119 0
M  V30 2458 H 222.323 -1.18118 1.21845 0
M  V30 2459 H 221.095 -2.95229 2.56818 0
M  V30 2460 H 220.718 -3.82342 1.09088 0
M  V30 2461 N 221.715 -0.905404 -1.28997 0
M  V30 2462 C 222.94 -0.549175 -1.99997 0
M  V30 2463 C 223.365 0.860276 -1.67275 0
M  V30 2464 O 222.723 1.57355 -0.900502 0
M  V30 2465 C 222.771 -0.755185 -3.52604 0
M  V30 2466 O 221.875 0.189692 -4.11964 0
M  V30 2467 H 221.216 -0.213899 -0.628604 0
M  V30 2468 H 223.746 -1.21856 -1.64354 0
M  V30 2469 H 223.756 -0.662045 -4.02593 0
M  V30 2470 H 222.431 -1.78271 -3.75755 0
M  V30 2471 H 221.008 0.0485257 -3.72868 0
M  V30 2472 N 223.193 1.4272 -0.668489 0
M  V30 2473 C 224.44 2.01624 -0.18814 0
M  V30 2474 C 224.768 1.5282 1.20317 0
M  V30 2475 O 224.023 0.718323 1.8204 0
M  V30 2476 C 224.322 3.57021 -0.164499 0
M  V30 2477 C 223.988 4.25232 -1.49962 0
M  V30 2478 C 222.65 4.4358 -1.8652 0
M  V30 2479 C 225.002 4.63727 -2.37921 0
M  V30 2480 C 222.33 4.97694 -3.10674 0
M  V30 2481 C 224.682 5.19218 -3.6138 0
M  V30 2482 C 223.346 5.3578 -3.98115 0
M  V30 2483 H 222.616 0.737795 -0.0688454 0
M  V30 2484 H 225.263 1.70991 -0.862225 0
M  V30 2485 H 223.568 3.87285 0.593079 0
M  V30 2486 H 225.265 4.00372 0.224271 0
M  V30 2487 H 221.855 4.11306 -1.20522 0
M  V30 2488 H 226.039 4.4923 -2.10964 0
M  V30 2489 H 221.295 5.08702 -3.39164 0
M  V30 2490 H 225.469 5.4799 -4.29743 0
M  V30 2491 H 223.096 5.77475 -4.94395 0
M  V30 2492 N 224.671 0.411399 1.52136 0
M  V30 2493 C 225.619 -0.427633 2.28635 0
M  V30 2494 C 226.613 -1.04383 1.33419 0
M  V30 2495 O 227.819 -0.981772 1.50868 0
M  V30 2496 H 224.194 -0.156689 0.735495 0
M  V30 2497 H 226.165 0.238761 2.97443 0
M  V30 2498 C 224.914 -1.53082 3.12188 0
M  V30 2499 H 224.237 -1.06601 3.85326 0
M  V30 2500 H 225.677 -2.09167 3.68816 0
M  V30 2501 C 224.136 -2.49946 2.25895 0
M  V30 2502 O 224.666 -3.53884 1.90076 0
M  V30 2503 N 222.872 -2.2021 1.8962 0
M  V30 2504 H 222.419 -1.35719 2.18948 0
M  V30 2505 H 222.377 -2.85266 1.32176 0
M  V30 2506 N 226.149 -1.5696 0.141893 0
M  V30 2507 C 227.079 -2.19516 -0.795936 0
M  V30 2508 C 228.06 -1.14187 -1.26077 0
M  V30 2509 O 229.245 -1.42511 -1.31925 0
M  V30 2510 C 226.375 -2.81272 -2.03723 0
M  V30 2511 C 225.329 -3.92384 -1.70936 0
M  V30 2512 C 224.655 -4.41052 -3.02287 0
M  V30 2513 C 225.955 -5.13403 -0.959954 0
M  V30 2514 H 227.649 -2.98138 -0.274596 0
M  V30 2515 H 225.195 -1.43406 -0.130636 0
M  V30 2516 H 227.148 -3.237 -2.69808 0
M  V30 2517 H 225.872 -1.99973 -2.58221 0
M  V30 2518 H 224.531 -3.50566 -1.07232 0
M  V30 2519 H 224.179 -3.56582 -3.54765 0
M  V30 2520 H 223.879 -5.15993 -2.81114 0
M  V30 2521 H 225.403 -4.86146 -3.69451 0
M  V30 2522 H 226.817 -5.52706 -1.52279 0
M  V30 2523 H 225.214 -5.94073 -0.848357 0
M  V30 2524 H 226.284 -4.84875 0.0492434 0
M  V30 2525 N 227.627 0.131896 -1.57047 0
M  V30 2526 C 228.575 1.18146 -2.0036 0
M  V30 2527 C 229.569 1.43614 -0.898406 0
M  V30 2528 O 230.775 1.43729 -1.08361 0
M  V30 2529 H 227.15 0.398042 -0.638018 0
M  V30 2530 H 229.121 0.789564 -2.87765 0
M  V30 2531 C 227.87 2.50341 -2.41298 0
M  V30 2532 H 227.193 2.31578 -3.25902 0
M  V30 2533 H 228.633 3.22371 -2.75414 0
M  V30 2534 C 227.092 3.11984 -1.27153 0
M  V30 2535 O 227.622 3.97484 -0.580459 0
M  V30 2536 N 225.828 2.71662 -1.03189 0
M  V30 2537 H 225.375 2.02231 -1.59564 0
M  V30 2538 H 225.333 3.13238 -0.270077 0
M  V30 2539 N 229.106 1.52395 0.401703 0
M  V30 2540 C 230.352 1.67065 1.14966 0
M  V30 2541 C 230.685 0.403052 1.89971 0
M  V30 2542 O 229.96 -0.598774 1.85054 0
M  V30 2543 C 230.243 2.8975 2.13815 0
M  V30 2544 C 230.096 4.26578 1.42658 0
M  V30 2545 C 231.415 3.07965 3.14397 0
M  V30 2546 H 228.534 0.607968 0.416587 0
M  V30 2547 H 231.176 1.84965 0.434511 0
M  V30 2548 H 229.326 2.74619 2.74803 0
M  V30 2549 H 230.998 4.53451 0.847329 0
M  V30 2550 H 229.241 4.27639 0.72849 0
M  V30 2551 H 229.912 5.08483 2.14823 0
M  V30 2552 H 232.388 3.22043 2.63491 0
M  V30 2553 H 231.264 3.95308 3.80819 0
M  V30 2554 H 231.525 2.21611 3.82545 0
M  V30 2555 N 230.584 -0.659388 1.43143 0
M  V30 2556 C 231.547 -1.75432 1.47501 0
M  V30 2557 C 232.547 -1.56707 0.360512 0
M  V30 2558 O 233.737 -1.62717 0.622002 0
M  V30 2559 C 230.869 -3.14239 1.32162 0
M  V30 2560 H 232.062 -1.7295 2.45006 0
M  V30 2561 H 229.615 -0.870469 1.29817 0
M  V30 2562 H 230.35 -3.22336 0.356401 0
M  V30 2563 H 230.135 -3.29235 2.12948 0
M  V30 2564 H 231.625 -3.94094 1.3813 0
M  V30 2565 N 232.062 -1.29571 -0.897171 0
M  V30 2566 C 233.01 -1.14802 -2.02295 0
M  V30 2567 C 234.004 -0.0629637 -1.69283 0
M  V30 2568 O 235.21 -0.222945 -1.78614 0
M  V30 2569 H 231.585 -0.354692 -0.663097 0
M  V30 2570 H 233.556 -2.10108 -2.11889 0
M  V30 2571 C 232.305 -0.843966 -3.37302 0
M  V30 2572 H 231.628 -1.67093 -3.63208 0
M  V30 2573 H 233.068 -0.780672 -4.16751 0
M  V30 2574 C 231.527 0.452843 -3.33843 0
M  V30 2575 O 232.057 1.47813 -3.73516 0
M  V30 2576 N 230.263 0.459601 -2.86943 0
M  V30 2577 H 229.81 -0.375213 -2.54853 0
M  V30 2578 H 229.768 1.32726 -2.85011 0
M  V30 2579 N 233.54 1.10788 -1.12088 0
M  V30 2580 C 234.787 1.82671 -0.873931 0
M  V30 2581 C 235.115 1.85004 0.600311 0
M  V30 2582 O 234.37 1.30365 1.45957 0
M  V30 2583 C 234.669 3.29294 -1.38926 0
M  V30 2584 C 234.335 3.47113 -2.87791 0
M  V30 2585 C 232.997 3.51684 -3.28439 0
M  V30 2586 C 235.349 3.52808 -3.83635 0
M  V30 2587 C 232.677 3.59513 -4.63646 0
M  V30 2588 C 235.029 3.62169 -5.18668 0
M  V30 2589 C 233.693 3.65003 -5.58864 0
M  V30 2590 H 232.963 0.668441 -0.319794 0
M  V30 2591 H 235.61 1.30613 -1.40045 0
M  V30 2592 H 233.915 3.83894 -0.783122 0
M  V30 2593 H 235.612 3.83416 -1.17443 0
M  V30 2594 H 232.202 3.4423 -2.5535 0
M  V30 2595 H 236.386 3.4853 -3.53328 0
M  V30 2596 H 231.642 3.59987 -4.94185 0
M  V30 2597 H 235.816 3.6552 -5.92763 0
M  V30 2598 H 233.443 3.70822 -6.63623 0
M  V30 2599 N 235.018 0.912232 1.28515 0
M  V30 2600 C 236.246 0.560416 1.99166 0
M  V30 2601 C 236.661 -0.857927 1.68182 0
M  V30 2602 O 236.018 -1.56805 0.933733 0
M  V30 2603 C 236.069 0.758142 3.53461 0
M  V30 2604 O 235.79 2.12067 3.83352 0
M  V30 2605 C 237.291 0.412954 4.41372 0
M  V30 2606 H 234.511 0.213805 0.636026 0
M  V30 2607 H 237.055 1.22502 1.63749 0
M  V30 2608 H 235.21 0.140556 3.87145 0
M  V30 2609 H 235.624 2.15923 4.77993 0
M  V30 2610 H 237.098 0.60208 5.48707 0
M  V30 2611 H 237.575 -0.65073 4.34353 0
M  V30 2612 H 238.181 1.00802 4.13182 0
M  V30 2613 N 236.496 -1.42363 0.676048 0
M  V30 2614 C 237.773 -1.95183 0.127726 0
M  V30 2615 C 238.153 -1.61641 -1.35777 0
M  V30 2616 O 237.501 -0.913216 -2.09458 0
M  V30 2617 C 237.711 -3.46721 0.398199 0
M  V30 2618 C 239.059 -4.23427 0.315383 0
M  V30 2619 O 240.083 -3.54649 0.332016 0
M  V30 2620 O 238.942 -5.45888 0.25865 0
M  V30 2621 H 236.036 -0.826992 0.00359427 0
M  V30 2622 H 238.582 -1.52184 0.750864 0
M  V30 2623 H 237.354 -3.64344 1.4272 0
M  V30 2624 H 236.977 -3.96769 -0.256885 0
M  V30 2625 N 237.974 -0.419461 -1.51915 0
M  V30 2626 C 239.204 0.151915 -2.06041 0
M  V30 2627 C 239.612 1.38539 -1.28855 0
M  V30 2628 O 238.955 1.80592 -0.336463 0
M  V30 2629 C 239.017 0.557119 -3.55157 0
M  V30 2630 C 238.681 -0.567054 -4.53468 0
M  V30 2631 C 239.678 -1.43379 -4.99738 0
M  V30 2632 C 237.363 -0.742693 -4.96779 0
M  V30 2633 C 239.357 -2.46102 -5.87973 0
M  V30 2634 C 237.044 -1.77322 -5.84808 0
M  V30 2635 C 238.042 -2.63078 -6.30301 0
M  V30 2636 O 237.73 -3.64364 -7.16585 0
M  V30 2637 H 237.462 0.0193293 -0.675724 0
M  V30 2638 H 240.016 -0.592073 -1.96682 0
M  V30 2639 H 238.246 1.35355 -3.62238 0
M  V30 2640 H 239.935 1.05759 -3.9188 0
M  V30 2641 H 240.701 -1.30954 -4.66986 0
M  V30 2642 H 236.58 -0.0848307 -4.60922 0
M  V30 2643 H 240.124 -3.13071 -6.23404 0
M  V30 2644 H 236.021 -1.89773 -6.16974 0
M  V30 2645 H 236.789 -3.60731 -7.34721 0
M  V30 2646 N 239.452 1.56882 -0.150215 0
M  V30 2647 C 240.699 1.96228 0.500093 0
M  V30 2648 C 241.027 1.03522 1.64661 0
M  V30 2649 O 240.282 0.0650683 1.95592 0
M  V30 2650 C 240.581 3.41801 1.04437 0
M  V30 2651 C 240.247 4.50897 0.0159671 0
M  V30 2652 C 238.909 4.8046 -0.266731 0
M  V30 2653 C 241.261 5.16703 -0.683192 0
M  V30 2654 C 238.589 5.73135 -1.25434 0
M  V30 2655 C 240.941 6.10441 -1.65964 0
M  V30 2656 C 239.605 6.38382 -1.95 0
M  V30 2657 H 238.875 0.718048 0.182997 0
M  V30 2658 H 241.522 1.90019 -0.237724 0
M  V30 2659 H 239.827 3.44857 1.85959 0
M  V30 2660 H 241.524 3.69573 1.55618 0
M  V30 2661 H 238.114 4.27891 0.246485 0
M  V30 2662 H 242.298 4.93993 -0.477983 0
M  V30 2663 H 237.554 5.93074 -1.48571 0
M  V30 2664 H 241.728 6.60507 -2.20689 0
M  V30 2665 H 239.355 7.09996 -2.71679 0
M  V30 2666 N 240.93 -0.123565 1.57115 0
M  V30 2667 C 241.893 -1.13583 1.99076 0
M  V30 2668 C 242.893 -1.34564 0.880296 0
M  V30 2669 O 244.083 -1.31158 1.14644 0
M  V30 2670 C 241.215 -2.49128 2.32698 0
M  V30 2671 H 242.408 -0.775287 2.89706 0
M  V30 2672 H 239.961 -0.36771 1.51913 0
M  V30 2673 H 240.696 -2.90111 1.44934 0
M  V30 2674 H 240.481 -2.35255 3.13684 0
M  V30 2675 H 241.971 -3.2199 2.65918 0
M  V30 2676 N 242.408 -1.52605 -0.393616 0
M  V30 2677 C 243.819 -1.59417 -0.971761 0
M  V30 2678 C 244.17 -0.444173 -1.91106 0
M  V30 2679 O 243.295 0.433382 -2.12016 0
M  V30 2680 C 243.89 -2.88936 -1.76921 0
M  V30 2681 C 242.449 -2.98175 -2.29714 0
M  V30 2682 C 241.596 -2.54491 -1.10135 0
M  V30 2683 H 244.547 -1.57751 -0.173317 0
M  V30 2684 H 244.568 -2.75163 -2.62804 0
M  V30 2685 H 244.08 -3.72616 -1.08532 0
M  V30 2686 H 242.181 -2.19024 -3.01429 0
M  V30 2687 H 242.294 -4.02726 -2.59517 0
M  V30 2688 H 240.658 -2.08702 -1.45999 0
M  V30 2689 H 241.441 -3.4056 -0.432874 0
M  V30 2690 N 243.887 0.651787 -1.4349 0
M  V30 2691 C 245.136 1.40754 -1.44469 0
M  V30 2692 C 245.449 1.95463 -0.0731845 0
M  V30 2693 O 246.655 2.71471 0.0395721 0
M  V30 2694 C 245.111 2.54735 -2.5424 0
M  V30 2695 C 244.719 2.06628 -3.97504 0
M  V30 2696 C 246.463 3.32092 -2.64414 0
M  V30 2697 C 244.37 3.17829 -4.98737 0
M  V30 2698 H 243.3 0.528862 -0.53742 0
M  V30 2699 H 245.951 0.703365 -1.69485 0
M  V30 2700 H 244.333 3.2763 -2.22428 0
M  V30 2701 H 245.507 1.40734 -4.38783 0
M  V30 2702 H 243.822 1.42146 -3.91387 0
M  V30 2703 H 246.419 4.14952 -3.37223 0
M  V30 2704 H 246.762 3.80217 -1.69532 0
M  V30 2705 H 247.295 2.66279 -2.95534 0
M  V30 2706 H 244.034 2.74671 -5.95177 0
M  V30 2707 H 243.554 3.82429 -4.62069 0
M  V30 2708 H 245.233 3.82937 -5.21505 0
M  V30 2709 N 245.365 1.30045 0.890287 0
M  V30 2710 C 246.614 1.17929 1.63633 0
M  V30 2711 C 246.927 -0.266204 1.9378 0
M  V30 2712 O 248.133 -0.508804 2.6669 0
M  V30 2713 C 246.589 2.06317 2.94892 0
M  V30 2714 C 246.197 3.55745 2.72305 0
M  V30 2715 C 247.941 2.0295 3.72843 0
M  V30 2716 C 245.848 4.36205 3.99348 0
M  V30 2717 H 244.778 0.437782 0.613892 0
M  V30 2718 H 247.429 1.54754 0.986075 0
M  V30 2719 H 245.811 1.6237 3.61182 0
M  V30 2720 H 246.985 4.07805 2.1455 0
M  V30 2721 H 245.3 3.6088 2.07737 0
M  V30 2722 H 247.897 2.60319 4.67053 0
M  V30 2723 H 248.24 1.0117 4.0382 0
M  V30 2724 H 248.773 2.4499 3.13408 0
M  V30 2725 H 245.512 5.38659 3.73533 0
M  V30 2726 H 245.032 3.8891 4.56628 0
M  V30 2727 H 246.711 4.47362 4.67415 0
M  V30 2728 N 246.843 -1.10192 1.12674 0
M  V30 2729 C 248.071 -1.85983 0.906527 0
M  V30 2730 C 248.486 -1.80783 -0.544333 0
M  V30 2731 O 247.843 -1.19834 -1.37645 0
M  V30 2732 C 247.894 -3.34281 1.37618 0
M  V30 2733 O 247.615 -3.39401 2.77017 0
M  V30 2734 C 249.116 -4.26938 1.19325 0
M  V30 2735 H 246.336 -0.587716 0.323775 0
M  V30 2736 H 248.88 -1.39284 1.49734 0
M  V30 2737 H 247.035 -3.78436 0.828539 0
M  V30 2738 H 247.449 -4.31838 2.97684 0
M  V30 2739 H 248.923 -5.29181 1.57071 0
M  V30 2740 H 249.4 -4.38995 0.134097 0
M  V30 2741 H 250.006 -3.8859 1.72852 0
M  V30 2742 N 248.321 -0.919034 -1.28029 0
M  V30 2743 C 249.254 -0.355887 -2.25408 0
M  V30 2744 C 250.232 0.542874 -1.5327 0
M  V30 2745 O 251.416 0.485338 -1.82145 0
M  V30 2746 C 248.543 0.490759 -3.35126 0
M  V30 2747 C 247.589 -0.343358 -4.25116 0
M  V30 2748 S 248.422 -1.75344 -5.05979 0
M  V30 2749 C 249.578 -0.914244 -6.19187 0
M  V30 2750 H 249.811 -1.18123 -2.72826 0
M  V30 2751 H 247.344 -0.720636 -1.36551 0
M  V30 2752 H 249.302 0.973404 -3.98792 0
M  V30 2753 H 247.963 1.29054 -2.86363 0
M  V30 2754 H 247.156 0.304266 -5.03081 0
M  V30 2755 H 246.758 -0.759851 -3.662 0
M  V30 2756 H 249.05 -0.146282 -6.77342 0
M  V30 2757 H 249.993 -1.66661 -6.88208 0
M  V30 2758 H 250.401 -0.460082 -5.62622 0
M  V30 2759 N 249.799 1.42003 -0.683588 0
M  V30 2760 C 250.762 2.29191 -0.0198243 0
M  V30 2761 C 251.762 1.43773 0.72013 0
M  V30 2762 O 252.952 1.65061 0.556815 0
M  V30 2763 C 250.084 3.26435 0.982487 0
M  V30 2764 H 251.277 2.8938 -0.787345 0
M  V30 2765 H 248.83 1.49789 -0.446418 0
M  V30 2766 H 249.565 2.71203 1.77819 0
M  V30 2767 H 249.35 3.89449 0.455182 0
M  V30 2768 H 250.84 3.918 1.44508 0
M  V30 2769 N 251.277 0.427512 1.51691 0
M  V30 2770 C 252.224 -0.388867 2.275 0
M  V30 2771 C 253.194 -1.02532 1.30677 0
M  V30 2772 O 254.379 -1.0461 1.59566 0
M  V30 2773 C 251.519 -1.48954 3.11298 0
M  V30 2774 C 250.632 -0.872194 4.23104 0
M  V30 2775 C 249.767 -1.94709 4.94228 0
M  V30 2776 C 248.806 -1.30766 5.97969 0
M  V30 2777 N 247.943 -2.32349 6.62539 0
M  V30 2778 H 252.783 0.263997 2.96828 0
M  V30 2779 H 250.32 0.142033 1.46413 0
M  V30 2780 H 252.278 -2.13887 3.58201 0
M  V30 2781 H 250.908 -2.11217 2.44105 0
M  V30 2782 H 249.96 -0.111419 3.80237 0
M  V30 2783 H 251.272 -0.365264 4.97461 0
M  V30 2784 H 250.426 -2.67327 5.44629 0
M  V30 2785 H 249.165 -2.48773 4.1948 0
M  V30 2786 H 248.17 -0.566902 5.4687 0
M  V30 2787 H 249.395 -0.774483 6.74669 0
M  V30 2788 H 247.341 -2.85511 5.90609 0
M  V30 2789 H 247.258 -1.8652 7.3263 0
M  V30 2790 H 248.526 -3.04481 7.17574 0
M  V30 2791 N 252.755 -1.56801 0.158532 0
M  V30 2792 C 253.985 -2.00568 -0.495583 0
M  V30 2793 C 254.393 -1.03774 -1.58201 0
M  V30 2794 O 253.736 -0.0285797 -1.83678 0
M  V30 2795 C 253.798 -3.40768 -1.14532 0
M  V30 2796 C 253.462 -4.56553 -0.202101 0
M  V30 2797 C 254.459 -5.16714 0.574675 0
M  V30 2798 C 252.144 -5.02197 -0.101648 0
M  V30 2799 C 254.138 -6.20939 1.43924 0
M  V30 2800 C 251.825 -6.06274 0.766508 0
M  V30 2801 C 252.823 -6.65515 1.53555 0
M  V30 2802 O 252.511 -7.67575 2.38922 0
M  V30 2803 H 252.243 -0.662893 -0.13247 0
M  V30 2804 H 254.797 -2.03829 0.253559 0
M  V30 2805 H 253.027 -3.34381 -1.94233 0
M  V30 2806 H 254.716 -3.6857 -1.70033 0
M  V30 2807 H 255.482 -4.82341 0.507167 0
M  V30 2808 H 251.361 -4.55807 -0.689994 0
M  V30 2809 H 254.905 -6.67107 2.03996 0
M  V30 2810 H 250.802 -6.40073 0.835266 0
M  V30 2811 H 251.57 -7.84844 2.32296 0
M  V30 2812 N 254.233 0.115231 -1.57178 0
M  V30 2813 C 255.165 1.16694 -1.97269 0
M  V30 2814 C 256.178 1.37445 -0.872502 0
M  V30 2815 O 257.367 1.36454 -1.15077 0
M  V30 2816 C 254.467 2.52627 -2.25905 0
M  V30 2817 C 253.64 2.52427 -3.57211 0
M  V30 2818 C 252.699 3.70134 -3.74016 0
M  V30 2819 O 251.725 3.53546 -4.46087 0
M  V30 2820 N 252.927 4.88844 -3.13068 0
M  V30 2821 H 255.692 0.82588 -2.88096 0
M  V30 2822 H 253.253 0.304461 -1.59011 0
M  V30 2823 H 255.245 3.29937 -2.34359 0
M  V30 2824 H 253.815 2.789 -1.41186 0
M  V30 2825 H 253.035 1.60805 -3.5991 0
M  V30 2826 H 254.323 2.49353 -4.43509 0
M  V30 2827 H 253.721 5.05225 -2.54489 0
M  V30 2828 H 252.278 5.63817 -3.27037 0
M  V30 2829 N 255.711 1.52812 0.385517 0
M  V30 2830 C 256.643 1.74096 1.49074 0
M  V30 2831 C 257.656 0.621462 1.50472 0
M  V30 2832 O 258.845 0.897245 1.54311 0
M  V30 2833 C 255.945 1.78774 2.87911 0
M  V30 2834 C 255.118 3.08134 3.10439 0
M  V30 2835 C 254.177 3.04313 4.29278 0
M  V30 2836 O 253.203 3.78168 4.25415 0
M  V30 2837 N 254.405 2.23741 5.35649 0
M  V30 2838 H 257.17 2.69455 1.31202 0
M  V30 2839 H 254.731 1.51343 0.575065 0
M  V30 2840 H 256.723 1.73721 3.65518 0
M  V30 2841 H 255.293 0.907869 2.99126 0
M  V30 2842 H 254.513 3.26649 2.20667 0
M  V30 2843 H 255.801 3.93662 3.22347 0
M  V30 2844 H 255.199 1.63211 5.41645 0
M  V30 2845 H 253.756 2.24524 6.11909 0
M  V30 2846 N 257.189 -0.644168 1.43834 0
M  V30 2847 C 258.099 -1.78563 1.52159 0
M  V30 2848 C 259.115 -1.69147 0.408069 0
M  V30 2849 O 260.291 -1.90156 0.663524 0
M  V30 2850 C 257.356 -3.14888 1.45073 0
M  V30 2851 C 256.417 -3.36034 2.6717 0
M  V30 2852 C 255.65 -4.65855 2.60413 0
M  V30 2853 O 255.873 -5.45805 1.65689 0
M  V30 2854 O 254.807 -4.88918 3.5106 0
M  V30 2855 H 258.633 -1.74494 2.48567 0
M  V30 2856 H 256.218 -0.80378 1.25935 0
M  V30 2857 H 258.1 -3.96179 1.43597 0
M  V30 2858 H 256.775 -3.19528 0.518037 0
M  V30 2859 H 255.682 -2.54472 2.74217 0
M  V30 2860 H 257.015 -3.36247 3.59442 0
M  V30 2861 N 258.668 -1.30515 -0.883378 0
M  V30 2862 C 259.916 -1.19194 -1.63209 0
M  V30 2863 C 260.237 0.253205 -1.93349 0
M  V30 2864 O 259.507 1.17025 -1.57105 0
M  V30 2865 H 258.087 -0.438148 -0.605009 0
M  V30 2866 H 260.749 -1.63663 -1.05832 0
M  V30 2867 H 259.845 -1.75396 -2.58153 0
M  V30 2868 N 260.146 1.09593 -1.13257 0
M  V30 2869 C 261.423 1.78293 -0.804432 0
M  V30 2870 C 261.803 1.99004 0.70431 0
M  V30 2871 O 261.151 1.59007 1.641 0
M  V30 2872 C 261.361 3.10707 -1.5894 0
M  V30 2873 C 262.709 3.85443 -1.78099 0
M  V30 2874 O 263.733 3.20454 -1.55525 0
M  V30 2875 O 262.592 5.02108 -2.15753 0
M  V30 2876 H 259.686 0.773156 -0.293528 0
M  V30 2877 H 262.232 1.16164 -1.23709 0
M  V30 2878 H 261.004 2.91106 -2.61482 0
M  V30 2879 H 260.627 3.80558 -1.15157 0
M  V30 2880 N 261.624 0.925811 1.2754 0
M  V30 2881 C 263.04 0.625767 1.46821 0
M  V30 2882 C 263.24 -0.825506 1.83814 0
M  V30 2883 O 262.296 -1.60356 1.95044 0
M  V30 2884 C 263.609 1.57402 2.56213 0
M  V30 2885 C 265.157 1.58204 2.70075 0
M  V30 2886 C 265.632 2.51721 3.82623 0
M  V30 2887 N 267.123 2.49917 3.89994 0
M  V30 2888 C 267.858 3.18968 4.76494 0
M  V30 2889 N 267.354 3.97391 5.67496 0
M  V30 2890 N 269.147 3.07996 4.70208 0
M  V30 2891 H 261.298 1.86409 1.01811 0
M  V30 2892 H 263.561 0.800213 0.508295 0
M  V30 2893 H 263.267 2.60925 2.35819 0
M  V30 2894 H 263.141 1.31428 3.53563 0
M  V30 2895 H 265.528 0.554124 2.89851 0
M  V30 2896 H 265.609 1.88226 1.73218 0
M  V30 2897 H 265.253 3.54622 3.63601 0
M  V30 2898 H 265.183 2.18996 4.78903 0
M  V30 2899 H 267.674 1.9296 3.24923 0
M  V30 2900 H 267.987 4.4707 6.30356 0
M  V30 2901 H 266.332 4.01495 5.67298 0
M  V30 2902 H 269.523 2.46223 3.9811 0
M  V30 2903 H 269.696 3.6208 5.37403 0
M  V30 2904 N 263.102 -1.41638 0.69111 0
M  V30 2905 C 264.032 -2.3347 0.037248 0
M  V30 2906 C 265.013 -1.51575 -0.771947 0
M  V30 2907 O 266.198 -1.80126 -0.72582 0
M  V30 2908 C 263.328 -3.35354 -0.903064 0
M  V30 2909 C 262.282 -4.27526 -0.201288 0
M  V30 2910 C 261.608 -5.19747 -1.25565 0
M  V30 2911 C 262.908 -5.13959 0.929689 0
M  V30 2912 H 264.602 -2.88397 0.804227 0
M  V30 2913 H 262.148 -1.38669 0.388189 0
M  V30 2914 H 264.101 -3.98519 -1.36969 0
M  V30 2915 H 262.825 -2.78767 -1.70166 0
M  V30 2916 H 261.484 -3.65779 0.245265 0
M  V30 2917 H 261.132 -4.59479 -2.04666 0
M  V30 2918 H 260.832 -5.8225 -0.791128 0
M  V30 2919 H 262.356 -5.85789 -1.72288 0
M  V30 2920 H 263.77 -5.70718 0.543546 0
M  V30 2921 H 262.167 -5.85379 1.32103 0
M  V30 2922 H 263.237 -4.51389 1.77133 0
M  V30 2923 N 264.58 -0.43555 -1.51462 0
M  V30 2924 C 265.51 0.367376 -2.30592 0
M  V30 2925 C 266.491 1.02263 -1.35928 0
M  V30 2926 O 267.676 1.02661 -1.64847 0
M  V30 2927 C 264.806 1.46983 -3.14664 0
M  V30 2928 C 263.76 0.938161 -4.17591 0
M  V30 2929 C 263.086 2.13622 -4.90173 0
M  V30 2930 C 264.386 -0.0261621 -5.22293 0
M  V30 2931 H 266.08 -0.292969 -2.97963 0
M  V30 2932 H 263.626 -0.14234 -1.43295 0
M  V30 2933 H 265.579 2.03873 -3.688 0
M  V30 2934 H 264.303 2.15843 -2.4511 0
M  V30 2935 H 262.962 0.391481 -3.64504 0
M  V30 2936 H 262.61 2.81098 -4.17124 0
M  V30 2937 H 262.31 1.78688 -5.59772 0
M  V30 2938 H 263.834 2.7107 -5.47132 0
M  V30 2939 H 265.248 0.452384 -5.71512 0
M  V30 2940 H 263.645 -0.287992 -5.99409 0
M  V30 2941 H 264.715 -0.963391 -4.75233 0
M  V30 2942 N 266.058 1.56714 -0.166846 0
M  V30 2943 C 266.988 2.20754 0.760913 0
M  V30 2944 C 267.969 1.16178 1.24244 0
M  V30 2945 O 269.154 1.44592 1.29641 0
M  V30 2946 C 266.284 2.84478 1.99223 0
M  V30 2947 C 265.238 3.95053 1.64672 0
M  V30 2948 C 264.564 4.45805 2.95232 0
M  V30 2949 C 265.864 5.14865 0.878155 0
M  V30 2950 H 267.558 2.98537 0.22713 0
M  V30 2951 H 265.104 1.43596 0.107805 0
M  V30 2952 H 267.057 3.27951 2.64624 0
M  V30 2953 H 265.781 2.04056 2.55007 0
M  V30 2954 H 264.44 3.52228 1.01641 0
M  V30 2955 H 264.088 3.62181 3.49047 0
M  V30 2956 H 263.788 5.204 2.7287 0
M  V30 2957 H 265.312 4.91962 3.6167 0
M  V30 2958 H 266.726 5.55059 1.43466 0
M  V30 2959 H 265.123 5.95348 0.753738 0
M  V30 2960 H 266.193 4.84735 -0.126377 0
M  V30 2961 N 267.536 -0.106894 1.57237 0
M  V30 2962 C 268.947 -0.662723 1.74542 0
M  V30 2963 C 269.298 -1.7971 0.787319 0
M  V30 2964 O 268.423 -2.16368 -0.0369636 0
M  V30 2965 C 269.018 -1.20896 3.16496 0
M  V30 2966 C 267.577 -1.71096 3.35266 0
M  V30 2967 C 266.724 -0.615642 2.7038 0
M  V30 2968 H 269.675 0.119106 1.58252 0
M  V30 2969 H 269.696 -2.07847 3.18716 0
M  V30 2970 H 269.208 -0.383122 3.86204 0
M  V30 2971 H 267.309 -2.56119 2.70618 0
M  V30 2972 H 267.422 -1.81208 4.43509 0
M  V30 2973 H 265.786 -1.05222 2.31949 0
M  V30 2974 H 266.569 0.199419 3.4272 0
M  V30 2975 N 269.014 -1.53014 -0.377408 0
M  V30 2976 C 269.944 -1.81589 -1.46791 0
M  V30 2977 C 270.925 -0.668622 -1.56408 0
M  V30 2978 O 272.11 -0.917337 -1.71168 0
M  V30 2979 C 269.24 -1.99519 -2.8427 0
M  V30 2980 C 268.194 -3.15249 -2.89486 0
M  V30 2981 C 267.52 -3.18451 -4.29527 0
M  V30 2982 C 268.82 -4.54084 -2.58079 0
M  V30 2983 H 270.514 -2.7291 -1.23127 0
M  V30 2984 H 268.06 -1.31319 -0.590883 0
M  V30 2985 H 270.013 -2.18092 -3.60575 0
M  V30 2986 H 268.737 -1.04897 -3.09296 0
M  V30 2987 H 267.396 -2.96477 -2.15631 0
M  V30 2988 H 267.044 -2.2149 -4.5161 0
M  V30 2989 H 266.744 -3.962 -4.33934 0
M  V30 2990 H 268.268 -3.39193 -5.07721 0
M  V30 2991 H 269.682 -4.72899 -3.24098 0
M  V30 2992 H 268.079 -5.33987 -2.7382 0
M  V30 2993 H 269.149 -4.60006 -1.53372 0
M  V30 2994 N 270.492 0.636531 -1.44174 0
M  V30 2995 C 271.717 1.42847 -1.50364 0
M  V30 2996 C 272.142 1.87665 -0.127867 0
M  V30 2997 O 271.5 1.58408 0.88185 0
M  V30 2998 C 271.548 2.62854 -2.4686 0
M  V30 2999 O 270.652 3.62501 -1.9664 0
M  V30 3000 H 269.993 0.427642 -0.507955 0
M  V30 3001 H 272.523 0.777422 -1.89255 0
M  V30 3002 H 272.533 3.10465 -2.64718 0
M  V30 3003 H 271.208 2.29578 -3.46795 0
M  V30 3004 H 269.785 3.21735 -1.88523 0
M  V30 3005 N 271.97 1.30982 0.876444 0
M  V30 3006 C 273.216 1.20474 1.63138 0
M  V30 3007 C 273.549 -0.238096 1.92735 0
M  V30 3008 O 272.824 -1.1692 1.55435 0
M  V30 3009 C 273.107 2.04244 2.96574 0
M  V30 3010 C 272.96 3.56793 2.73896 0
M  V30 3011 C 274.279 1.88684 3.97601 0
M  V30 3012 H 271.398 0.439001 0.591985 0
M  V30 3013 H 274.04 1.60704 1.01361 0
M  V30 3014 H 272.19 1.70063 3.493 0
M  V30 3015 H 273.862 4.01077 2.27892 0
M  V30 3016 H 272.105 3.80548 2.08245 0
M  V30 3017 H 272.776 4.10706 3.68815 0
M  V30 3018 H 275.252 2.18584 3.54062 0
M  V30 3019 H 274.128 2.4961 4.88862 0
M  V30 3020 H 274.389 0.848343 4.33884 0
M  V30 3021 N 273.449 -1.08991 1.13837 0
M  V30 3022 C 274.381 -2.15606 0.777612 0
M  V30 3023 C 275.394 -1.61533 -0.202739 0
M  V30 3024 O 276.583 -1.78491 0.0181055 0
M  V30 3025 C 273.683 -3.3864 0.132623 0
M  V30 3026 C 272.856 -4.22115 1.1462 0
M  V30 3027 C 271.915 -5.23564 0.526074 0
M  V30 3028 O 270.941 -5.56678 1.18735 0
M  V30 3029 N 272.143 -5.76266 -0.699866 0
M  V30 3030 H 274.908 -2.47159 1.69506 0
M  V30 3031 H 272.469 -1.24747 1.03198 0
M  V30 3032 H 274.461 -4.03626 -0.29459 0
M  V30 3033 H 273.031 -3.04938 -0.687849 0
M  V30 3034 H 272.251 -3.53199 1.75055 0
M  V30 3035 H 273.539 -4.74709 1.83109 0
M  V30 3036 H 272.937 -5.51585 -1.25581 0
M  V30 3037 H 271.494 -6.42963 -1.06968 0
M  V30 3038 N 274.927 -0.932562 -1.27047 0
M  V30 3039 C 276.173 -0.576412 -1.94436 0
M  V30 3040 C 276.506 0.880891 -1.73072 0
M  V30 3041 O 275.781 1.62905 -1.06264 0
M  V30 3042 C 276.064 -0.909031 -3.48437 0
M  V30 3043 C 275.917 -2.42044 -3.79123 0
M  V30 3044 C 277.236 -0.418341 -4.38107 0
M  V30 3045 H 274.355 -0.210888 -0.706184 0
M  V30 3046 H 276.997 -1.16522 -1.50075 0
M  V30 3047 H 275.147 -0.407947 -3.86352 0
M  V30 3048 H 276.819 -2.99359 -3.50973 0
M  V30 3049 H 275.062 -2.86758 -3.25503 0
M  V30 3050 H 275.733 -2.6037 -4.86736 0
M  V30 3051 H 278.209 -0.847856 -4.0737 0
M  V30 3052 H 277.085 -0.679981 -5.44672 0
M  V30 3053 H 277.346 0.681642 -4.36814 0
M  V30 3054 N 276.405 1.4127 -0.698611 0
M  V30 3055 C 277.355 2.27997 -0.0119836 0
M  V30 3056 C 278.339 1.42363 0.749765 0
M  V30 3057 O 279.531 1.65607 0.624758 0
M  V30 3058 C 276.66 3.30702 0.921458 0
M  V30 3059 C 275.746 4.23814 0.155796 0
M  V30 3060 N 276.137 4.98572 -0.852015 0
M  V30 3061 C 274.435 4.44284 0.390836 0
M  V30 3062 C 275.136 5.66744 -1.3106 0
M  V30 3063 N 274.112 5.39867 -0.635944 0
M  V30 3064 H 277.914 2.83232 -0.784649 0
M  V30 3065 H 275.428 1.53518 -0.529711 0
M  V30 3066 H 277.425 3.91661 1.42854 0
M  V30 3067 H 276.085 2.77028 1.69369 0
M  V30 3068 H 277.096 5.03024 -1.23235 0
M  V30 3069 H 273.773 4.01614 1.14071 0
M  V30 3070 H 275.163 6.36672 -2.14707 0
M  V30 3071 N 277.883 0.443576 1.51229 0
M  V30 3072 C 278.833 -0.382787 2.24764 0
M  V30 3073 C 279.817 -0.984836 1.27239 0
M  V30 3074 O 281.009 -0.901943 1.52296 0
M  V30 3075 C 278.138 -1.47989 3.09765 0
M  V30 3076 C 277.224 -0.886931 4.14722 0
M  V30 3077 N 277.615 -0.0237103 5.05794 0
M  V30 3078 C 275.913 -1.15385 4.30816 0
M  V30 3079 C 276.614 0.309971 5.80874 0
M  V30 3080 N 275.59 -0.307989 5.42727 0
M  V30 3081 H 279.392 0.282624 2.92538 0
M  V30 3082 H 276.906 0.256027 1.60369 0
M  V30 3083 H 278.903 -2.08482 3.61027 0
M  V30 3084 H 277.563 -2.14758 2.43535 0
M  V30 3085 H 278.574 0.34318 5.16762 0
M  V30 3086 H 275.251 -1.81857 3.75812 0
M  V30 3087 H 276.641 1.01279 6.64223 0
M  V30 3088 N 279.361 -1.56624 0.175154 0
M  V30 3089 C 280.324 -2.16934 -0.739738 0
M  V30 3090 C 281.324 -1.11842 -1.15533 0
M  V30 3091 O 282.514 -1.37335 -1.07167 0
M  V30 3092 C 279.646 -2.75531 -2.00738 0
M  V30 3093 H 280.839 -2.99131 -0.214639 0
M  V30 3094 H 278.392 -1.56123 -0.0744197 0
M  V30 3095 H 279.127 -1.97078 -2.57548 0
M  V30 3096 H 278.912 -3.52444 -1.71831 0
M  V30 3097 H 280.402 -3.21904 -2.66021 0
M  V30 3098 N 280.839 0.0985539 -1.57292 0
M  V30 3099 C 282.085 0.803867 -1.86188 0
M  V30 3100 C 282.418 1.78549 -0.763794 0
M  V30 3101 O 281.693 1.93153 0.22855 0
M  V30 3102 C 281.976 1.53568 -3.25713 0
M  V30 3103 C 281.829 0.572277 -4.46145 0
M  V30 3104 C 283.148 2.48708 -3.63087 0
M  V30 3105 H 280.267 0.290781 -0.677211 0
M  V30 3106 H 282.909 0.0675783 -1.8988 0
M  V30 3107 H 281.059 2.16332 -3.22696 0
M  V30 3108 H 282.731 -0.0480894 -4.61275 0
M  V30 3109 H 280.974 -0.114618 -4.33649 0
M  V30 3110 H 281.645 1.12139 -5.40489 0
M  V30 3111 H 284.121 1.96039 -3.67026 0
M  V30 3112 H 282.997 2.96932 -4.61652 0
M  V30 3113 H 283.258 3.32309 -2.91588 0
M  V30 3114 N 282.317 1.53212 0.369288 0
M  V30 3115 C 283.557 1.70915 1.12105 0
M  V30 3116 C 283.921 0.449444 1.86665 0
M  V30 3117 O 285.122 0.503105 2.6405 0
M  V30 3118 C 283.393 2.9222 2.05772 0
M  V30 3119 S 284.952 3.30609 2.88519 0
M  V30 3120 H 281.77 0.601445 0.379189 0
M  V30 3121 H 284.372 1.91306 0.402794 0
M  V30 3122 H 283.076 3.82103 1.49752 0
M  V30 3123 H 282.607 2.7422 2.82076 0
M  V30 3124 H 284.622 2.82333 4.08047 0
M  V30 3125 N 283.795 -0.628877 1.44509 0
M  V30 3126 C 285.072 -1.38733 1.37886 0
M  V30 3127 C 285.452 -2.11065 0.0387008 0
M  V30 3128 O 284.8 -2.06476 -0.97878 0
M  V30 3129 C 285.01 -2.35188 2.57852 0
M  V30 3130 C 286.358 -2.9845 3.02014 0
M  V30 3131 O 287.382 -2.45513 2.58073 0
M  V30 3132 O 286.241 -3.94487 3.78209 0
M  V30 3133 H 283.335 -0.621015 0.54614 0
M  V30 3134 H 285.881 -0.653744 1.56602 0
M  V30 3135 H 284.653 -1.80855 3.46998 0
M  V30 3136 H 284.276 -3.1596 2.4136 0
M  V30 3137 N 285.273 -1.31445 -0.869486 0
M  V30 3138 C 286.521 -1.20918 -1.61936 0
M  V30 3139 C 286.842 0.232683 -1.93607 0
M  V30 3140 O 286.112 1.15352 -1.58338 0
M  V30 3141 H 284.692 -0.44454 -0.600328 0
M  V30 3142 H 287.354 -1.64776 -1.0409 0
M  V30 3143 H 286.45 -1.78124 -2.56278 0
M  V30 3144 N 286.751 1.08385 -1.14413 0
M  V30 3145 C 287.998 1.80776 -0.912482 0
M  V30 3146 C 288.326 1.86236 0.560934 0
M  V30 3147 O 287.581 1.33431 1.43159 0
M  V30 3148 C 287.88 3.26273 -1.45879 0
M  V30 3149 C 287.546 3.4093 -2.95089 0
M  V30 3150 C 286.208 3.44638 -3.35824 0
M  V30 3151 C 288.56 3.44591 -3.91033 0
M  V30 3152 C 285.888 3.49597 -4.71167 0
M  V30 3153 C 288.24 3.51086 -5.26233 0
M  V30 3154 C 286.904 3.53067 -5.6648 0
M  V30 3155 H 286.174 0.661507 -0.333901 0
M  V30 3156 H 288.821 1.27613 -1.42784 0
M  V30 3157 H 287.126 3.82146 -0.864376 0
M  V30 3158 H 288.823 3.80839 -1.2555 0
M  V30 3159 H 285.413 3.38736 -2.62594 0
M  V30 3160 H 289.597 3.40957 -3.60641 0
M  V30 3161 H 284.853 3.49424 -5.0171 0
M  V30 3162 H 289.027 3.52864 -6.00383 0
M  V30 3163 H 286.654 3.56662 -6.71339 0
M  V30 3164 N 288.23 0.939286 1.26551 0
M  V30 3165 C 289.18 0.418284 2.2413 0
M  V30 3166 C 290.164 -0.483935 1.5345 0
M  V30 3167 O 291.356 -0.319489 1.74093 0
M  V30 3168 C 288.485 -0.31709 3.41832 0
M  V30 3169 C 287.571 0.602311 4.19801 0
M  V30 3170 N 287.962 1.72726 4.75394 0
M  V30 3171 C 286.26 0.407534 4.44134 0
M  V30 3172 C 286.961 2.30004 5.34297 0
M  V30 3173 N 285.937 1.58828 5.1988 0
M  V30 3174 H 289.739 1.27705 2.64705 0
M  V30 3175 H 287.253 0.794929 1.41614 0
M  V30 3176 H 289.25 -0.707364 4.10855 0
M  V30 3177 H 287.91 -1.17264 3.02786 0
M  V30 3178 H 288.921 2.10944 4.72994 0
M  V30 3179 H 285.598 -0.406406 4.15517 0
M  V30 3180 H 286.988 3.24778 5.88191 0
M  V30 3181 N 289.708 -1.40897 0.706093 0
M  V30 3182 C 290.954 -2.01352 0.241889 0
M  V30 3183 C 291.287 -1.55832 -1.15888 0
M  V30 3184 O 290.562 -0.774145 -1.7843 0
M  V30 3185 C 290.845 -3.58752 0.311311 0
M  V30 3186 C 290.698 -4.1437 1.74978 0
M  V30 3187 C 292.017 -4.38914 -0.322922 0
M  V30 3188 H 289.136 -0.731562 0.0893687 0
M  V30 3189 H 291.778 -1.67504 0.896802 0
M  V30 3190 H 289.928 -3.87718 -0.246302 0
M  V30 3191 H 291.6 -3.96239 2.36205 0
M  V30 3192 H 289.843 -3.69016 2.28057 0
M  V30 3193 H 290.514 -5.23532 1.74981 0
M  V30 3194 H 292.99 -4.15822 0.152089 0
M  V30 3195 H 291.866 -5.48358 -0.243855 0
M  V30 3196 H 292.127 -4.19176 -1.40513 0
M  V30 3197 N 291.186 -0.45159 -1.50991 0
M  V30 3198 C 292.149 0.341117 -2.26647 0
M  V30 3199 C 293.149 0.937422 -1.30649 0
M  V30 3200 O 294.339 0.809644 -1.54241 0
M  V30 3201 C 291.471 1.48398 -3.06905 0
M  V30 3202 H 292.664 -0.322117 -2.98165 0
M  V30 3203 H 290.217 -0.205122 -1.54948 0
M  V30 3204 H 290.952 2.18284 -2.39838 0
M  V30 3205 H 290.737 1.06241 -3.77432 0
M  V30 3206 H 292.227 2.04367 -3.64176 0
M  V30 3207 N 292.664 1.56529 -0.183458 0
M  V30 3208 C 294.08 1.58664 0.172554 0
M  V30 3209 C 294.28 1.19925 1.61926 0
M  V30 3210 O 293.336 0.916534 2.35278 0
M  V30 3211 C 294.649 3.00463 -0.119262 0
M  V30 3212 C 296.197 3.12945 -0.0584396 0
M  V30 3213 C 296.672 4.56857 -0.323408 0
M  V30 3214 N 298.163 4.62403 -0.271612 0
M  V30 3215 C 298.898 5.71626 -0.450639 0
M  V30 3216 N 298.394 6.89362 -0.689384 0
M  V30 3217 N 300.187 5.60775 -0.385701 0
M  V30 3218 H 292.338 1.79994 -1.12765 0
M  V30 3219 H 294.601 0.834808 -0.449222 0
M  V30 3220 H 294.307 3.33326 -1.12192 0
M  V30 3221 H 294.181 3.72659 0.583544 0
M  V30 3222 H 296.568 2.79902 0.934805 0
M  V30 3223 H 296.649 2.4316 -0.794144 0
M  V30 3224 H 296.293 4.9061 -1.31392 0
M  V30 3225 H 296.223 5.24816 0.43305 0
M  V30 3226 H 298.714 3.77785 -0.0932256 0
M  V30 3227 H 299.027 7.68489 -0.815113 0
M  V30 3228 H 297.372 6.91196 -0.726142 0
M  V30 3229 H 300.563 4.67674 -0.199687 0
M  V30 3230 H 300.736 6.4584 -0.528646 0
M  V30 3231 N 294.142 -0.090211 1.57342 0
M  V30 3232 C 295.389 -0.792807 1.86335 0
M  V30 3233 C 295.717 -1.78494 0.772662 0
M  V30 3234 O 294.972 -1.94305 -0.233258 0
M  V30 3235 C 295.271 -1.55222 3.21933 0
M  V30 3236 C 294.937 -0.701765 4.45406 0
M  V30 3237 C 293.599 -0.467334 4.78925 0
M  V30 3238 C 295.951 -0.11086 5.21082 0
M  V30 3239 C 293.279 0.367785 5.85546 0
M  V30 3240 C 295.631 0.711609 6.28585 0
M  V30 3241 C 294.295 0.956086 6.60617 0
M  V30 3242 H 293.565 -0.290109 0.681849 0
M  V30 3243 H 296.212 -0.0541332 1.91423 0
M  V30 3244 H 294.517 -2.3626 3.12551 0
M  V30 3245 H 296.214 -2.10032 3.41595 0
M  V30 3246 H 292.804 -0.894598 4.1916 0
M  V30 3247 H 296.988 -0.279129 4.95514 0
M  V30 3248 H 292.244 0.566128 6.08773 0
M  V30 3249 H 296.418 1.17632 6.86393 0
M  V30 3250 H 294.045 1.60499 7.43064 0
M  V30 3251 N 295.62 -1.53406 -0.361157 0
M  V30 3252 C 296.869 -1.69022 -1.10066 0
M  V30 3253 C 297.182 -0.450838 -1.90333 0
M  V30 3254 O 298.388 -0.487617 -2.67085 0
M  V30 3255 C 296.844 -2.98812 -2.00598 0
M  V30 3256 C 296.452 -4.30027 -1.25621 0
M  V30 3257 C 298.196 -3.23795 -2.74513 0
M  V30 3258 C 296.103 -5.50903 -2.1508 0
M  V30 3259 H 295.033 -0.629776 -0.414606 0
M  V30 3260 H 297.684 -1.79907 -0.361348 0
M  V30 3261 H 296.066 -2.8174 -2.78278 0
M  V30 3262 H 297.24 -4.57745 -0.529739 0
M  V30 3263 H 295.555 -4.11522 -0.635496 0
M  V30 3264 H 298.152 -4.11289 -3.41681 0
M  V30 3265 H 298.495 -2.40045 -3.40123 0
M  V30 3266 H 299.028 -3.41561 -2.03914 0
M  V30 3267 H 295.767 -6.37143 -1.54041 0
M  V30 3268 H 295.287 -5.27459 -2.85565 0
M  V30 3269 H 296.966 -5.85865 -2.74538 0
M  V30 3270 N 297.098 0.621204 -1.44841 0
M  V30 3271 C 298.046 1.75385 -1.52784 0
M  V30 3272 C 299.04 1.64639 -0.398779 0
M  V30 3273 O 300.246 1.70598 -0.574137 0
M  V30 3274 H 296.621 0.579193 -0.479625 0
M  V30 3275 H 298.592 1.6581 -2.48092 0
M  V30 3276 C 297.341 3.13742 -1.4987 0
M  V30 3277 H 296.664 3.22663 -2.36069 0
M  V30 3278 H 298.104 3.92861 -1.59487 0
M  V30 3279 C 296.563 3.36175 -0.220973 0
M  V30 3280 O 297.093 3.95469 0.704782 0
M  V30 3281 N 295.299 2.90348 -0.120963 0
M  V30 3282 H 294.846 2.42278 -0.875162 0
M  V30 3283 H 294.804 3.05732 0.733168 0
M  V30 3284 N 298.576 1.31904 0.862503 0
M  V30 3285 C 299.992 1.10724 1.14945 0
M  V30 3286 C 300.192 -0.117421 2.01158 0
M  V30 3287 O 299.248 -0.804595 2.39338 0
M  V30 3288 C 300.561 2.38267 1.83437 0
M  V30 3289 C 302.109 2.43949 1.96106 0
M  V30 3290 C 302.584 3.71394 2.68013 0
M  V30 3291 N 304.075 3.72331 2.75543 0
M  V30 3292 C 304.81 4.67641 3.31812 0
M  V30 3293 N 304.306 5.73313 3.88953 0
M  V30 3294 N 306.099 4.5515 3.29841 0
M  V30 3295 H 298.25 2.10436 0.288191 0
M  V30 3296 H 300.513 0.928705 0.190292 0
M  V30 3297 H 300.219 3.27759 1.27542 0
M  V30 3298 H 300.093 2.48633 2.83657 0
M  V30 3299 H 302.48 1.54922 2.51164 0
M  V30 3300 H 302.561 2.37543 0.949059 0
M  V30 3301 H 302.205 4.60791 2.13621 0
M  V30 3302 H 302.135 3.75069 3.69636 0
M  V30 3303 H 304.626 2.95947 2.34997 0
M  V30 3304 H 304.939 6.42107 4.30022 0
M  V30 3305 H 303.284 5.77077 3.87308 0
M  V30 3306 H 306.475 3.71766 2.84443 0
M  V30 3307 H 306.648 5.29604 3.73394 0
M  V30 3308 N 300.054 -1.07777 1.14986 0
M  V30 3309 C 300.984 -2.16865 0.865557 0
M  V30 3310 C 301.965 -1.69123 -0.182083 0
M  V30 3311 O 303.15 -1.94164 -0.0373815 0
M  V30 3312 C 300.28 -3.45539 0.349313 0
M  V30 3313 C 299.234 -4.06708 1.33313 0
M  V30 3314 C 298.56 -5.30411 0.675918 0
M  V30 3315 C 299.86 -4.47241 2.69764 0
M  V30 3316 H 301.554 -2.40905 1.77778 0
M  V30 3317 H 299.1 -1.15781 0.856203 0
M  V30 3318 H 301.053 -4.21174 0.137983 0
M  V30 3319 H 299.777 -3.21072 -0.598362 0
M  V30 3320 H 298.436 -3.33112 1.53075 0
M  V30 3321 H 298.084 -5.02232 -0.277767 0
M  V30 3322 H 297.784 -5.72293 1.33244 0
M  V30 3323 H 299.308 -6.08755 0.474262 0
M  V30 3324 H 300.722 -5.14025 2.53873 0
M  V30 3325 H 299.119 -5.00062 3.3175 0
M  V30 3326 H 300.189 -3.58818 3.26156 0
M  V30 3327 N 301.532 -0.945985 -1.26051 0
M  V30 3328 C 302.464 -0.416662 -2.25381 0
M  V30 3329 C 303.477 0.462712 -1.56086 0
M  V30 3330 O 304.666 0.272383 -1.7641 0
M  V30 3331 C 301.766 0.419812 -3.3629 0
M  V30 3332 C 300.939 -0.444531 -4.35135 0
M  V30 3333 C 299.998 0.332305 -5.2515 0
M  V30 3334 O 299.024 -0.266324 -5.68577 0
M  V30 3335 N 300.226 1.62763 -5.57215 0
M  V30 3336 H 302.991 -1.27059 -2.71433 0
M  V30 3337 H 300.552 -0.815392 -1.39868 0
M  V30 3338 H 302.544 0.947013 -3.93464 0
M  V30 3339 H 301.114 1.17456 -2.89694 0
M  V30 3340 H 300.334 -1.15291 -3.76964 0
M  V30 3341 H 301.622 -1.03478 -4.98166 0
M  V30 3342 H 301.02 2.13603 -5.23823 0
M  V30 3343 H 299.577 2.10097 -6.17011 0
M  V30 3344 N 303.011 1.40521 -0.713556 0
M  V30 3345 C 303.921 2.34522 -0.0606667 0
M  V30 3346 C 304.937 1.57193 0.74607 0
M  V30 3347 O 306.113 1.89591 0.679493 0
M  V30 3348 C 303.178 3.36081 0.851491 0
M  V30 3349 C 302.239 4.29286 0.0349339 0
M  V30 3350 C 301.472 5.25994 0.903649 0
M  V30 3351 O 301.695 5.28616 2.14292 0
M  V30 3352 O 300.629 6.00918 0.343723 0
M  V30 3353 H 304.455 2.91968 -0.835972 0
M  V30 3354 H 302.04 1.41681 -0.47402 0
M  V30 3355 H 303.922 3.98369 1.37404 0
M  V30 3356 H 302.597 2.81052 1.60598 0
M  V30 3357 H 301.504 3.70289 -0.532633 0
M  V30 3358 H 302.837 4.87462 -0.681287 0
M  V30 3359 N 304.489 0.459591 1.5075 0
M  V30 3360 C 305.419 -0.330644 2.31147 0
M  V30 3361 C 306.4 -1.00087 1.37538 0
M  V30 3362 O 307.585 -1.00025 1.66459 0
M  V30 3363 C 304.715 -1.41958 3.16962 0
M  V30 3364 C 303.669 -0.871608 4.19031 0
M  V30 3365 C 302.995 -2.05797 4.9351 0
M  V30 3366 C 304.295 0.109251 5.22186 0
M  V30 3367 H 305.989 0.340336 2.97459 0
M  V30 3368 H 303.535 0.165119 1.4305 0
M  V30 3369 H 305.488 -1.9798 3.71997 0
M  V30 3370 H 304.212 -2.11917 2.48513 0
M  V30 3371 H 302.871 -0.333442 3.6508 0
M  V30 3372 H 302.519 -2.74427 4.21544 0
M  V30 3373 H 302.219 -1.6976 5.62544 0
M  V30 3374 H 303.743 -2.62331 5.51375 0
M  V30 3375 H 305.157 -0.361405 5.7216 0
M  V30 3376 H 303.554 0.383316 5.98875 0
M  V30 3377 H 304.624 1.03887 4.73641 0
M  V30 3378 N 305.967 -1.56429 0.191757 0
M  V30 3379 C 307.207 -1.99383 -0.450099 0
M  V30 3380 C 307.571 -1.07581 -1.59029 0
M  V30 3381 O 308.772 -1.39758 -2.29611 0
M  V30 3382 C 307.043 -3.45841 -0.901611 0
M  V30 3383 S 308.602 -4.10822 -1.54177 0
M  V30 3384 H 305.42 -0.696253 -0.144057 0
M  V30 3385 H 308.022 -1.93276 0.294036 0
M  V30 3386 H 306.726 -4.10354 -0.0616596 0
M  V30 3387 H 306.257 -3.55757 -1.67929 0
M  V30 3388 H 308.272 -4.07553 -2.83046 0
M  V30 3389 N 307.445 0.0818655 -1.57387 0
M  V30 3390 C 308.393 1.11712 -2.04018 0
M  V30 3391 C 309.387 1.40683 -0.94364 0
M  V30 3392 O 310.593 1.40209 -1.12878 0
M  V30 3393 H 306.968 0.377542 -0.650358 0
M  V30 3394 H 308.939 0.697614 -2.90131 0
M  V30 3395 C 307.688 2.42537 -2.49141 0
M  V30 3396 H 307.011 2.21092 -3.33104 0
M  V30 3397 H 308.451 3.13446 -2.85531 0
M  V30 3398 C 306.91 3.0778 -1.37014 0
M  V30 3399 O 307.44 3.95436 -0.706621 0
M  V30 3400 N 305.646 2.68242 -1.11779 0
M  V30 3401 H 305.193 1.97052 -1.65917 0
M  V30 3402 H 305.151 3.1222 -0.369594 0
M  V30 3403 N 308.923 1.53595 0.353017 0
M  V30 3404 C 310.148 1.7462 1.11904 0
M  V30 3405 C 310.573 0.479721 1.8188 0
M  V30 3406 O 309.931 -0.567066 1.72204 0
M  V30 3407 C 309.979 2.92029 2.11545 0
M  V30 3408 O 309.083 2.61516 3.18878 0
M  V30 3409 H 308.424 0.579531 0.324099 0
M  V30 3410 H 310.954 2.00525 0.406301 0
M  V30 3411 H 310.964 3.18551 2.5493 0
M  V30 3412 H 309.639 3.83888 1.60008 0
M  V30 3413 H 308.216 2.45852 2.80377 0
M  V30 3414 N 310.401 -0.613514 1.45168 0
M  V30 3415 C 311.348 -1.72456 1.53387 0
M  V30 3416 C 312.318 -1.6169 0.380191 0
M  V30 3417 O 313.503 -1.81356 0.592836 0
M  V30 3418 C 310.643 -3.10753 1.50088 0
M  V30 3419 C 309.756 -3.32368 2.75963 0
M  V30 3420 C 308.891 -4.60737 2.64376 0
M  V30 3421 C 307.93 -4.7559 3.85332 0
M  V30 3422 N 307.067 -5.95253 3.72315 0
M  V30 3423 H 311.907 -1.64768 2.48305 0
M  V30 3424 H 309.444 -0.803503 1.23216 0
M  V30 3425 H 311.402 -3.90758 1.46164 0
M  V30 3426 H 310.032 -3.17413 0.587243 0
M  V30 3427 H 309.084 -2.4618 2.89999 0
M  V30 3428 H 310.396 -3.39218 3.65695 0
M  V30 3429 H 309.55 -5.48928 2.58385 0
M  V30 3430 H 308.289 -4.56275 1.72233 0
M  V30 3431 H 307.294 -3.85824 3.91688 0
M  V30 3432 H 308.519 -4.81854 4.78533 0
M  V30 3433 H 306.465 -5.91847 2.82937 0
M  V30 3434 H 306.382 -6.03236 4.55677 0
M  V30 3435 H 307.65 -6.85958 3.70246 0
M  V30 3436 N 311.879 -1.3236 -0.855495 0
M  V30 3437 C 312.809 -1.23833 -1.97958 0
M  V30 3438 C 313.79 -0.122361 -1.69659 0
M  V30 3439 O 314.975 -0.30939 -1.9172 0
M  V30 3440 C 312.105 -0.959772 -3.33775 0
M  V30 3441 C 311.059 -2.03689 -3.76424 0
M  V30 3442 C 310.385 -1.61075 -5.09862 0
M  V30 3443 C 311.685 -3.4518 -3.9198 0
M  V30 3444 H 313.379 -2.1788 -2.0535 0
M  V30 3445 H 310.925 -1.04891 -0.986605 0
M  V30 3446 H 312.878 -0.886678 -4.11966 0
M  V30 3447 H 311.602 0.0163404 -3.26596 0
M  V30 3448 H 310.261 -2.10012 -3.00484 0
M  V30 3449 H 309.909 -0.622107 -4.99138 0
M  V30 3450 H 309.609 -2.33143 -5.39368 0
M  V30 3451 H 311.133 -1.55201 -5.90546 0
M  V30 3452 H 312.547 -3.4145 -4.60526 0
M  V30 3453 H 310.944 -4.1559 -4.32903 0
M  V30 3454 H 312.014 -3.84903 -2.94919 0
M  V30 3455 N 313.357 1.07166 -1.15556 0
M  V30 3456 C 314.304 2.14417 -0.854055 0
M  V30 3457 C 315.274 1.64965 0.193806 0
M  V30 3458 O 316.459 1.90703 0.0609443 0
M  V30 3459 C 313.599 3.43304 -0.351574 0
M  V30 3460 C 312.712 4.06537 -1.46123 0
M  V30 3461 C 311.847 5.23266 -0.914677 0
M  V30 3462 C 310.886 5.78464 -2.00114 0
M  V30 3463 N 310.023 6.86521 -1.47083 0
M  V30 3464 H 314.863 2.39548 -1.77259 0
M  V30 3465 H 312.4 1.17543 -0.884425 0
M  V30 3466 H 314.358 4.17179 -0.0419409 0
M  V30 3467 H 312.988 3.18419 0.530037 0
M  V30 3468 H 312.04 3.30297 -1.88701 0
M  V30 3469 H 313.352 4.43567 -2.28144 0
M  V30 3470 H 312.506 6.04131 -0.557698 0
M  V30 3471 H 311.245 4.87658 -0.0636583 0
M  V30 3472 H 310.25 4.96243 -2.36692 0
M  V30 3473 H 311.475 6.16126 -2.85597 0
M  V30 3474 H 309.421 6.52849 -0.642198 0
M  V30 3475 H 309.338 7.22446 -2.22729 0
M  V30 3476 H 310.606 7.71087 -1.14215 0
M  V30 3477 O 314.874 1.08282 1.19822 0
M  V30 3478 H 315.565 0.773615 1.77581 0
M  V30 END ATOM
M  V30 BEGIN BOND
M  V30 END BOND
M  V30 END CTAB
M  END
$$$$
