drugbank_target|Q13698 Voltage-dependent L-type calcium channel subunit alpha-1S (DB00270; DB00393; DB00401; DB00568; DB00898; DB01023; DB01054; DB01115; DB01388; DB04855; DB04920; DB06712; DB09090; DB09229)
 OpenBabel12092120093D

  0  0  0     0  0            999 V3000
M  V30 BEGIN CTAB
M  V30 COUNTS 29982 30332 0 0 0
M  V30 BEGIN ATOM
M  V30 1 H -0.908 1.98254 -0.117106 0
M  V30 2 N 0 1.576 0 0
M  V30 3 C 0.933 2.03868 1.02534 0
M  V30 4 C 1.911 0.928543 1.3348 0
M  V30 5 O 3.095 1.19667 1.45644 0
M  V30 6 C 0.222 2.43627 2.35294 0
M  V30 7 C -0.732 3.65373 2.2001 0
M  V30 8 S 0.101 5.13292 1.52614 0
M  V30 9 C 1.257 5.56322 2.86805 0
M  V30 10 H 1.49 2.90518 0.631377 0
M  V30 11 H -0.977 1.52953 0.210867 0
M  V30 12 H 0.981 2.67203 3.11629 0
M  V30 13 H -0.358 1.57376 2.7183 0
M  V30 14 H -1.165 3.90944 3.18086 0
M  V30 15 H -1.563 3.418 1.51819 0
M  V30 16 H 0.729 5.58782 3.83104 0
M  V30 17 H 1.672 6.56266 2.65933 0
M  V30 18 H 2.08 4.83886 2.90714 0
M  V30 19 N 1.4781 -0.272755 1.55222 0
M  V30 20 C 2.3881 -1.35918 1.91216 0
M  V30 21 C 3.4041 -1.54026 0.809436 0
M  V30 22 O 4.5801 -1.68148 1.10852 0
M  V30 23 C 1.6451 -2.69834 2.17693 0
M  V30 24 C 0.7061 -2.6047 3.41253 0
M  V30 25 C -0.0609 -3.88 3.66458 0
M  V30 26 O 0.1621 -4.88693 2.94169 0
M  V30 27 O -0.9039 -3.88189 4.59992 0
M  V30 28 H 2.9221 -1.0839 2.83699 0
M  V30 29 H 0.5071 -0.471301 1.41771 0
M  V30 30 H 2.3891 -3.49017 2.36147 0
M  V30 31 H 1.0641 -2.97148 1.28392 0
M  V30 32 H -0.0289 -1.79663 3.28134 0
M  V30 33 H 1.3041 -2.38106 4.30774 0
M  V30 34 N 2.9562 -1.48159 -0.537278 0
M  V30 35 C 4.3672 -1.49429 -1.11928 0
M  V30 36 C 4.7182 -0.26 -1.9447 0
M  V30 37 O 3.8432 0.633489 -2.0692 0
M  V30 38 C 4.4382 -2.70758 -2.03656 0
M  V30 39 C 2.9972 -2.74923 -2.57088 0
M  V30 40 C 2.1442 -2.42835 -1.3389 0
M  V30 41 H 5.0952 -1.55381 -0.322886 0
M  V30 42 H 5.1162 -2.48861 -2.87834 0
M  V30 43 H 4.6282 -3.60575 -1.43553 0
M  V30 44 H 2.7292 -1.89296 -3.20933 0
M  V30 45 H 2.8422 -3.76157 -2.9672 0
M  V30 46 H 1.2062 -1.93836 -1.65226 0
M  V30 47 H 1.9892 -3.34884 -0.755504 0
M  V30 48 N 4.4343 0.785586 -1.36625 0
M  V30 49 C 5.6593 1.57963 -1.34397 0
M  V30 50 C 6.0843 1.87964 0.071526 0
M  V30 51 O 5.4423 1.48182 1.0446 0
M  V30 52 C 5.4903 2.87511 -2.17646 0
M  V30 53 O 4.5943 3.81281 -1.57158 0
M  V30 54 H 3.9353 0.479014 -0.459828 0
M  V30 55 H 6.4653 0.973411 -1.79961 0
M  V30 56 H 6.4753 3.36745 -2.30362 0
M  V30 57 H 5.1503 2.65002 -3.20541 0
M  V30 58 H 3.7273 3.39885 -1.53403 0
M  V30 59 N 5.9124 1.20967 1.01018 0
M  V30 60 C 7.1374 1.0503 1.78839 0
M  V30 61 C 7.5624 -0.395752 1.8389 0
M  V30 62 O 6.9204 -1.28529 1.27867 0
M  V30 63 C 6.9684 1.64602 3.2084 0
M  V30 64 O 6.0724 0.887988 4.02726 0
M  V30 65 H 5.4134 0.369987 0.551367 0
M  V30 66 H 7.9434 1.60399 1.27018 0
M  V30 67 H 7.9534 1.68607 3.71532 0
M  V30 68 H 6.6284 2.69841 3.16479 0
M  V30 69 H 5.2054 0.922648 3.61305 0
M  V30 70 N 7.3905 -1.2043 1.01659 0
M  V30 71 C 8.8015 -1.71517 0.737482 0
M  V30 72 C 9.1525 -1.81547 -0.743973 0
M  V30 73 O 8.2775 -1.47803 -1.58061 0
M  V30 74 C 8.8725 -3.11515 1.33206 0
M  V30 75 C 7.4315 -3.59912 1.10183 0
M  V30 76 C 6.5785 -2.37116 1.43776 0
M  V30 77 H 9.5295 -1.05444 1.18606 0
M  V30 78 H 9.5505 -3.73575 0.722636 0
M  V30 79 H 9.0625 -3.04182 2.41028 0
M  V30 80 H 7.1635 -3.72577 0.0412756 0
M  V30 81 H 7.2765 -4.44731 1.78188 0
M  V30 82 H 5.6405 -2.39857 0.856778 0
M  V30 83 H 6.4235 -2.32424 2.52654 0
M  V30 84 N 8.8686 -0.792821 -1.36206 0
M  V30 85 C 9.8006 -0.151469 -2.28699 0
M  V30 86 C 10.8136 0.641262 -1.49638 0
M  V30 87 O 12.0026 0.475885 -1.72039 0
M  V30 88 C 9.1026 0.808424 -3.29117 0
M  V30 89 C 8.2756 0.0650202 -4.37352 0
M  V30 90 C 7.3346 0.941358 -5.17711 0
M  V30 91 O 6.3606 0.397352 -5.67811 0
M  V30 92 N 7.5626 2.2652 -5.3448 0
M  V30 93 H 10.3276 -0.945982 -2.84379 0
M  V30 94 H 7.8886 -0.647032 -1.48409 0
M  V30 95 H 9.8806 1.3986 -3.79765 0
M  V30 96 H 8.4506 1.5038 -2.74052 0
M  V30 97 H 7.6706 -0.706255 -3.87822 0
M  V30 98 H 8.9586 -0.447847 -5.06825 0
M  V30 99 H 8.3566 2.73128 -4.95396 0
M  V30 100 H 6.9136 2.80493 -5.88359 0
M  V30 101 N 10.3467 1.47872 -0.545128 0
M  V30 102 C 11.6237 1.9554 0.0485222 0
M  V30 103 C 12.0037 1.4876 1.49779 0
M  V30 104 O 11.3517 0.720925 2.16829 0
M  V30 105 C 11.5617 3.48898 -0.084417 0
M  V30 106 C 12.9097 4.24547 0.0671239 0
M  V30 107 O 13.9337 3.56198 -0.0113649 0
M  V30 108 O 12.7927 5.45999 0.233882 0
M  V30 109 H 9.8867 0.823957 0.0708773 0
M  V30 110 H 12.4327 1.58327 -0.610798 0
M  V30 111 H 11.2047 3.75714 -1.09337 0
M  V30 112 H 10.8277 3.92845 0.613066 0
M  V30 113 N 11.8248 0.280983 1.55075 0
M  V30 114 C 12.7348 -0.61388 2.26426 0
M  V30 115 C 13.7508 -1.16521 1.29224 0
M  V30 116 O 14.9268 -1.19426 1.62171 0
M  V30 117 C 11.9918 -1.7788 2.9759 0
M  V30 118 C 11.0528 -1.26355 4.10284 0
M  V30 119 C 10.2858 -2.37295 4.78045 0
M  V30 120 O 10.5088 -3.56777 4.45047 0
M  V30 121 O 9.4428 -2.05119 5.65871 0
M  V30 122 H 13.2688 -0.0356932 3.03679 0
M  V30 123 H 10.8538 0.0481686 1.49322 0
M  V30 124 H 12.7358 -2.45791 3.42293 0
M  V30 125 H 11.4108 -2.34397 2.23249 0
M  V30 126 H 10.3178 -0.550735 3.70024 0
M  V30 127 H 11.6508 -0.744065 4.86543 0
M  V30 128 N 13.3029 -1.57598 0.00835791 0
M  V30 129 C 14.5509 -1.90551 -0.6734 0
M  V30 130 C 14.8719 -0.883301 -1.73847 0
M  V30 131 O 14.1419 0.0781442 -1.95744 0
M  V30 132 H 12.7219 -0.703312 -0.251717 0
M  V30 133 H 15.3839 -1.94833 0.0512592 0
M  V30 134 H 14.4799 -2.9056 -1.13935 0
M  V30 135 N 14.781 0.264519 -1.55364 0
M  V30 136 C 15.711 1.33121 -1.91836 0
M  V30 137 C 16.692 1.51101 -0.781192 0
M  V30 138 O 17.877 1.64003 -1.04003 0
M  V30 139 C 15.007 2.68921 -2.19769 0
M  V30 140 C 13.961 2.65661 -3.35571 0
M  V30 141 C 13.287 4.05093 -3.49004 0
M  V30 142 C 14.587 2.24187 -4.71739 0
M  V30 143 H 16.281 1.02844 -2.81182 0
M  V30 144 H 13.827 0.493286 -1.35287 0
M  V30 145 H 15.78 3.43663 -2.43872 0
M  V30 146 H 14.504 3.00799 -1.27231 0
M  V30 147 H 13.163 1.93377 -3.1145 0
M  V30 148 H 12.811 4.34206 -2.53917 0
M  V30 149 H 12.511 4.03804 -4.26868 0
M  V30 150 H 14.035 4.81561 -3.75408 0
M  V30 151 H 15.449 2.88654 -4.9533 0
M  V30 152 H 13.846 2.34044 -5.52579 0
M  V30 153 H 14.916 1.19327 -4.69988 0
M  V30 154 N 16.2591 1.48442 0.529413 0
M  V30 155 C 17.6751 1.34575 0.858004 0
M  V30 156 C 17.8751 0.3572 1.98309 0
M  V30 157 O 16.9311 -0.221379 2.51528 0
M  V30 158 C 18.2441 2.74617 1.22499 0
M  V30 159 C 19.7921 2.83109 1.33484 0
M  V30 160 C 20.2671 4.23854 1.73526 0
M  V30 161 N 21.7581 4.2653 1.80628 0
M  V30 162 C 22.4931 5.32372 2.12997 0
M  V30 163 N 21.9891 6.48491 2.43786 0
M  V30 164 N 23.7821 5.19766 2.14008 0
M  V30 165 H 15.9331 2.1133 -0.212925 0
M  V30 166 H 18.1961 0.947439 -0.0326199 0
M  V30 167 H 17.9021 3.4852 0.471905 0
M  V30 168 H 17.7761 3.08177 2.17501 0
M  V30 169 H 20.1631 2.09462 2.0787 0
M  V30 170 H 20.2441 2.53168 0.366027 0
M  V30 171 H 19.8881 4.98018 0.997013 0
M  V30 172 H 19.8181 4.5124 2.71459 0
M  V30 173 H 22.3091 3.42772 1.59108 0
M  V30 174 H 22.6221 7.24993 2.67592 0
M  V30 175 H 20.9671 6.51765 2.41304 0
M  V30 176 H 24.1581 4.28066 1.89412 0
M  V30 177 H 24.3311 6.02354 2.38902 0
M  V30 178 N 17.7372 -0.778329 1.37039 0
M  V30 179 C 18.6842 -1.89139 1.32269 0
M  V30 180 C 19.6542 -1.65017 0.189387 0
M  V30 181 O 20.8392 -1.87024 0.377693 0
M  V30 182 C 17.9792 -3.26112 1.12894 0
M  V30 183 C 17.0922 -3.62233 2.35396 0
M  V30 184 C 16.2272 -4.8838 2.08946 0
M  V30 185 C 15.2662 -5.17212 3.2735 0
M  V30 186 N 14.4032 -6.34546 3.00492 0
M  V30 187 H 19.2432 -1.92552 2.27437 0
M  V30 188 H 16.7802 -0.941473 1.13025 0
M  V30 189 H 18.7382 -4.05116 0.996835 0
M  V30 190 H 17.3682 -3.22091 0.213758 0
M  V30 191 H 16.4202 -2.78265 2.5937 0
M  V30 192 H 17.7322 -3.79481 3.23721 0
M  V30 193 H 16.8862 -5.75274 1.92729 0
M  V30 194 H 15.6252 -4.73222 1.17949 0
M  V30 195 H 14.6302 -4.28796 3.44113 0
M  V30 196 H 15.8552 -5.34283 4.19188 0
M  V30 197 H 13.8012 -6.20759 2.12118 0
M  V30 198 H 13.7182 -6.52179 3.82358 0
M  V30 199 H 14.9862 -7.24394 2.87879 0
M  V30 200 N 19.2153 -1.21501 -1.00376 0
M  V30 201 C 20.1623 -0.975387 -2.09177 0
M  V30 202 C 21.1323 0.0990615 -1.65804 0
M  V30 203 O 22.3173 -0.0483147 -1.90739 0
M  V30 204 C 19.4573 -0.547507 -3.40729 0
M  V30 205 C 18.5703 -1.69153 -3.97506 0
M  V30 206 C 17.7053 -1.2127 -5.17172 0
M  V30 207 C 16.7443 -2.32897 -5.66061 0
M  V30 208 N 15.8813 -1.86138 -6.76976 0
M  V30 209 H 20.7213 -1.9068 -2.29009 0
M  V30 210 H 18.2583 -0.950257 -1.12288 0
M  V30 211 H 20.2163 -0.280667 -4.16255 0
M  V30 212 H 18.8463 0.346904 -3.20931 0
M  V30 213 H 17.8983 -2.07298 -3.18954 0
M  V30 214 H 19.2103 -2.5316 -4.29781 0
M  V30 215 H 18.3643 -0.902591 -5.99948 0
M  V30 216 H 17.1033 -0.342692 -4.86495 0
M  V30 217 H 16.1083 -2.64709 -4.81881 0
M  V30 218 H 17.3333 -3.20396 -5.98768 0
M  V30 219 H 15.2793 -1.01484 -6.48103 0
M  V30 220 H 15.1963 -2.63717 -7.08512 0
M  V30 221 H 16.4643 -1.58165 -7.63285 0
M  V30 222 N 20.6934 1.19889 -1.02296 0
M  V30 223 C 21.6254 2.22334 -0.556787 0
M  V30 224 C 22.6384 1.58674 0.364199 0
M  V30 225 O 23.8274 1.77768 0.161533 0
M  V30 226 C 20.9274 3.38257 0.208694 0
M  V30 227 C 20.1004 4.31504 -0.71577 0
M  V30 228 C 19.1594 5.262 0.00325597 0
M  V30 229 O 18.1854 5.65798 -0.621357 0
M  V30 230 N 19.3874 5.66303 1.27599 0
M  V30 231 H 22.1524 2.62957 -1.43784 0
M  V30 232 H 19.7134 1.34495 -0.901261 0
M  V30 233 H 21.7054 3.98616 0.699111 0
M  V30 234 H 20.2754 2.96472 0.991102 0
M  V30 235 H 19.4954 3.69016 -1.38638 0
M  V30 236 H 20.7834 4.9072 -1.34428 0
M  V30 237 H 20.1814 5.36155 1.80429 0
M  V30 238 H 18.7384 6.28942 1.71102 0
M  V30 239 N 22.1715 0.800033 1.35784 0
M  V30 240 C 23.5825 0.439142 1.81462 0
M  V30 241 C 23.9335 -1.03813 1.66485 0
M  V30 242 O 23.0585 -1.80626 1.19177 0
M  V30 243 C 23.6535 0.790314 3.29453 0
M  V30 244 C 22.2125 0.482111 3.733 0
M  V30 245 C 21.3595 1.01938 2.57883 0
M  V30 246 H 24.3105 0.992254 1.23855 0
M  V30 247 H 24.3315 0.0853677 3.80404 0
M  V30 248 H 23.8435 1.86554 3.40322 0
M  V30 249 H 21.9445 -0.584652 3.67984 0
M  V30 250 H 22.0575 1.01015 4.6833 0
M  V30 251 H 20.4215 0.442043 2.50835 0
M  V30 252 H 21.2045 2.10059 2.71533 0
M  V30 253 N 23.6496 -1.47581 0.552962 0
M  V30 254 C 24.5966 -2.29957 -0.197108 0
M  V30 255 C 25.5666 -1.38799 -0.912359 0
M  V30 256 O 26.7516 -1.67761 -0.908888 0
M  V30 257 C 23.8916 -3.22672 -1.22379 0
M  V30 258 C 23.0046 -4.28919 -0.515038 0
M  V30 259 C 22.1396 -5.0879 -1.52664 0
M  V30 260 C 21.1786 -6.06815 -0.802631 0
M  V30 261 N 20.3156 -6.7966 -1.76086 0
M  V30 262 H 25.1556 -2.93578 0.511486 0
M  V30 263 H 22.6926 -1.4471 0.264067 0
M  V30 264 H 24.6506 -3.74845 -1.83159 0
M  V30 265 H 23.2806 -2.60925 -1.90047 0
M  V30 266 H 22.3326 -3.79835 0.207192 0
M  V30 267 H 23.6446 -4.98773 0.0523425 0
M  V30 268 H 22.7986 -5.65091 -2.20809 0
M  V30 269 H 21.5376 -4.38828 -2.12794 0
M  V30 270 H 20.5426 -5.49695 -0.107238 0
M  V30 271 H 21.7676 -6.78784 -0.207135 0
M  V30 272 H 19.7136 -6.12432 -2.35081 0
M  V30 273 H 19.6306 -7.45669 -1.24552 0
M  V30 274 H 20.8986 -7.40538 -2.43359 0
M  V30 275 N 25.1277 -0.289203 -1.54924 0
M  V30 276 C 26.0747 0.592115 -2.23075 0
M  V30 277 C 27.0447 1.13881 -1.20915 0
M  V30 278 O 28.2297 1.18551 -1.495 0
M  V30 279 C 25.3697 1.76376 -2.96623 0
M  V30 280 C 24.4827 1.24959 -4.13533 0
M  V30 281 C 23.6177 2.38416 -4.74691 0
M  V30 282 C 22.6567 1.84072 -5.83767 0
M  V30 283 N 21.7937 2.91057 -6.38929 0
M  V30 284 H 26.6337 0.00432038 -2.98 0
M  V30 285 H 24.1707 -0.00963529 -1.47097 0
M  V30 286 H 26.1287 2.45268 -3.3749 0
M  V30 287 H 24.7587 2.32337 -2.24097 0
M  V30 288 H 23.8107 0.453307 -3.77689 0
M  V30 289 H 25.1227 0.811662 -4.92152 0
M  V30 290 H 24.2767 3.15276 -5.18349 0
M  V30 291 H 23.0157 2.8553 -3.95378 0
M  V30 292 H 22.0207 1.05697 -5.39545 0
M  V30 293 H 23.2457 1.37877 -6.64956 0
M  V30 294 H 21.1917 3.37526 -5.62505 0
M  V30 295 H 21.1087 2.51724 -7.12861 0
M  V30 296 H 22.3767 3.6785 -6.87246 0
M  V30 297 N 26.6058 1.57591 -0.0167156 0
M  V30 298 C 28.0168 1.79201 0.523834 0
M  V30 299 C 28.3678 0.925796 1.72984 0
M  V30 300 O 27.4928 0.132792 2.15992 0
M  V30 301 C 28.0878 3.25 0.957091 0
M  V30 302 C 26.6468 3.47648 1.44283 0
M  V30 303 C 25.7938 2.74374 0.401757 0
M  V30 304 H 28.7448 1.56831 -0.242816 0
M  V30 305 H 28.7658 3.34031 1.82219 0
M  V30 306 H 28.2778 3.88019 0.0791415 0
M  V30 307 H 26.3788 2.89866 2.34113 0
M  V30 308 H 26.4918 4.56352 1.45877 0
M  V30 309 H 24.8558 2.39485 0.867121 0
M  V30 310 H 25.6388 3.40102 -0.467513 0
M  V30 311 N 28.0839 -0.256276 1.55502 0
M  V30 312 C 29.3299 -0.987079 1.77157 0
M  V30 313 C 29.6629 -1.85327 0.580315 0
M  V30 314 O 28.9379 -1.89874 -0.421686 0
M  V30 315 C 29.2209 -1.85553 3.08613 0
M  V30 316 C 29.0739 -1.01816 4.38125 0
M  V30 317 C 30.3929 -2.8397 3.36228 0
M  V30 318 H 27.5119 -0.357428 0.644526 0
M  V30 319 H 30.1539 -0.258239 1.88237 0
M  V30 320 H 28.3039 -2.47695 2.99298 0
M  V30 321 H 29.9759 -0.416159 4.59419 0
M  V30 322 H 28.2189 -0.322178 4.32602 0
M  V30 323 H 28.8899 -1.65939 5.26468 0
M  V30 324 H 31.3659 -2.31964 3.45445 0
M  V30 325 H 30.2419 -3.41864 4.29442 0
M  V30 326 H 30.5029 -3.59955 2.56681 0
M  V30 327 N 29.562 -1.4872 -0.521534 0
M  V30 328 C 30.973 -1.50607 -1.10337 0
M  V30 329 C 31.324 -0.280612 -1.94183 0
M  V30 330 O 30.449 0.611507 -2.0758 0
M  V30 331 C 31.044 -2.72903 -2.00772 0
M  V30 332 C 29.603 -2.77634 -2.54158 0
M  V30 333 C 28.75 -2.44241 -1.31307 0
M  V30 334 H 31.701 -1.55714 -0.306388 0
M  V30 335 H 31.722 -2.519 -2.85178 0
M  V30 336 H 31.234 -3.62077 -1.39721 0
M  V30 337 H 29.335 -1.92689 -3.18907 0
M  V30 338 H 29.448 -3.79283 -2.92714 0
M  V30 339 H 27.812 -1.95577 -1.63161 0
M  V30 340 H 28.595 -3.35666 -0.719943 0
M  V30 341 N 31.0401 0.771051 -1.3745 0
M  V30 342 C 31.9501 1.91538 -1.35464 0
M  V30 343 C 32.9661 1.72134 -0.254123 0
M  V30 344 O 34.1421 1.95358 -0.489626 0
M  V30 345 C 31.2071 3.26671 -1.16134 0
M  V30 346 C 30.2681 3.58723 -2.35831 0
M  V30 347 C 29.5011 4.87409 -2.17413 0
M  V30 348 O 29.7241 5.58506 -1.15876 0
M  V30 349 O 28.6581 5.18539 -3.05615 0
M  V30 350 H 32.4841 1.96165 -2.31847 0
M  V30 351 H 30.0691 0.9139 -1.18187 0
M  V30 352 H 31.9511 4.07499 -1.07345 0
M  V30 353 H 30.6261 3.22894 -0.228251 0
M  V30 354 H 29.5331 2.78127 -2.50192 0
M  V30 355 H 30.8661 3.67243 -3.27709 0
M  V30 356 N 32.5182 1.22032 0.997298 0
M  V30 357 C 33.7672 1.03637 1.73038 0
M  V30 358 C 34.0802 -0.429475 1.90827 0
M  V30 359 O 35.2862 -0.732995 2.61418 0
M  V30 360 C 33.7422 1.80582 3.11317 0
M  V30 361 C 33.3502 3.31387 3.01474 0
M  V30 362 C 35.0942 1.70621 3.88701 0
M  V30 363 C 33.0012 4.00791 4.3488 0
M  V30 364 H 31.9312 0.384179 0.648785 0
M  V30 365 H 34.5822 1.4584 1.11368 0
M  V30 366 H 32.9642 1.31175 3.73643 0
M  V30 367 H 34.1382 3.88155 2.4834 0
M  V30 368 H 32.4532 3.41976 2.37575 0
M  V30 369 H 35.0502 2.19799 4.87434 0
M  V30 370 H 35.3932 0.665823 4.10941 0
M  V30 371 H 35.9262 2.17547 3.33044 0
M  V30 372 H 32.6652 5.05064 4.1784 0
M  V30 373 H 32.1852 3.48811 4.87945 0
M  V30 374 H 33.8642 4.06139 5.03647 0
M  V30 375 N 33.9963 -1.19345 1.0293 0
M  V30 376 C 34.9263 -2.2481 0.631105 0
M  V30 377 C 35.9073 -1.66245 -0.360104 0
M  V30 378 O 37.0923 -1.92677 -0.242726 0
M  V30 379 C 34.2223 -3.47295 -0.0184607 0
M  V30 380 C 33.1763 -4.18536 0.895073 0
M  V30 381 C 32.5023 -5.34586 0.110592 0
M  V30 382 C 33.8023 -4.73287 2.209 0
M  V30 383 H 35.4963 -2.58372 1.51275 0
M  V30 384 H 33.0423 -1.24194 0.728818 0
M  V30 385 H 34.9953 -4.20268 -0.308675 0
M  V30 386 H 33.7193 -3.12933 -0.934907 0
M  V30 387 H 32.3783 -3.47446 1.16949 0
M  V30 388 H 32.0263 -4.96469 -0.807902 0
M  V30 389 H 31.7263 -5.83183 0.719087 0
M  V30 390 H 33.2503 -6.10355 -0.172871 0
M  V30 391 H 34.6643 -5.38013 1.98028 0
M  V30 392 H 33.0613 -5.32373 2.76946 0
M  V30 393 H 34.1313 -3.91331 2.86336 0
M  V30 394 N 35.4744 -0.807222 -1.35358 0
M  V30 395 C 36.8854 -0.44876 -1.81226 0
M  V30 396 C 37.2364 1.02929 -1.67033 0
M  V30 397 O 36.3614 1.79991 -1.20133 0
M  V30 398 C 36.9564 -0.807774 -3.2903 0
M  V30 399 C 35.5154 -0.501901 -3.73039 0
M  V30 400 C 34.6624 -1.03304 -2.57339 0
M  V30 401 H 37.6134 -0.998808 -1.23327 0
M  V30 402 H 37.6344 -0.10554 -3.80354 0
M  V30 403 H 37.1464 -1.88357 -3.39328 0
M  V30 404 H 35.2474 0.565128 -3.68289 0
M  V30 405 H 35.3604 -1.03497 -4.67787 0
M  V30 406 H 33.7244 -0.455339 -2.50597 0
M  V30 407 H 34.5074 -2.11496 -2.70415 0
M  V30 408 N 36.9525 1.47285 -0.560781 0
M  V30 409 C 38.3685 1.58065 -0.22081 0
M  V30 410 C 38.5685 1.55892 1.27671 0
M  V30 411 O 37.6245 1.46422 2.0571 0
M  V30 412 C 38.9375 2.88418 -0.850625 0
M  V30 413 C 40.4855 3.02009 -0.822184 0
M  V30 414 C 40.9605 4.35066 -1.43113 0
M  V30 415 N 42.4515 4.41711 -1.39448 0
M  V30 416 C 43.1865 5.43237 -1.83525 0
M  V30 417 N 42.6825 6.51555 -2.35474 0
M  V30 418 N 44.4755 5.34304 -1.74574 0
M  V30 419 H 36.6265 1.46941 -1.53369 0
M  V30 420 H 38.8895 0.699558 -0.639783 0
M  V30 421 H 38.5955 2.95755 -1.9032 0
M  V30 422 H 38.4695 3.75612 -0.345773 0
M  V30 423 H 40.8565 2.94266 0.221714 0
M  V30 424 H 40.9375 2.16347 -1.36483 0
M  V30 425 H 40.5815 4.43565 -2.47412 0
M  V30 426 H 40.5115 5.19465 -0.863899 0
M  V30 427 H 43.0025 3.64027 -1.01452 0
M  V30 428 H 43.3155 7.25203 -2.67021 0
M  V30 429 H 41.6605 6.52435 -2.39487 0
M  V30 430 H 44.8515 4.48581 -1.33763 0
M  V30 431 H 45.0245 6.13288 -2.09242 0
M  V30 432 N 38.4306 0.297415 1.54768 0
M  V30 433 C 39.8416 -0.195947 1.85669 0
M  V30 434 C 40.1926 -1.53707 1.21937 0
M  V30 435 O 39.3176 -2.10164 0.515754 0
M  V30 436 C 39.9126 -0.362318 3.36857 0
M  V30 437 C 38.4716 -0.799901 3.67802 0
M  V30 438 C 37.6186 0.0938578 2.77141 0
M  V30 439 H 40.5696 0.518538 1.4999 0
M  V30 440 H 40.5906 -1.19745 3.61167 0
M  V30 441 H 40.1026 0.613921 3.83214 0
M  V30 442 H 38.2036 -1.78682 3.26961 0
M  V30 443 H 38.3166 -0.621773 4.75048 0
M  V30 444 H 36.6806 -0.426254 2.51108 0
M  V30 445 H 37.4636 1.06639 3.26318 0
M  V30 446 N 39.9087 -1.5758 0.0250728 0
M  V30 447 C 41.3197 -1.79476 -0.514323 0
M  V30 448 C 41.6707 -0.934956 -1.72491 0
M  V30 449 O 40.7957 -0.144245 -2.15919 0
M  V30 450 C 41.3907 -3.25503 -0.939842 0
M  V30 451 C 39.9497 -3.48408 -1.42438 0
M  V30 452 C 39.0967 -2.74583 -0.387201 0
M  V30 453 H 42.0477 -1.567 0.25113 0
M  V30 454 H 42.0687 -3.34992 -1.80445 0
M  V30 455 H 41.5807 -3.88056 -0.0585628 0
M  V30 456 H 39.6817 -2.91103 -2.32572 0
M  V30 457 H 39.7947 -4.57119 -1.43455 0
M  V30 458 H 38.1587 -2.39942 -0.854409 0
M  V30 459 H 38.9417 -3.39849 0.485543 0
M  V30 460 N 41.3868 0.248026 -1.55636 0
M  V30 461 C 42.8028 0.596483 -1.48035 0
M  V30 462 C 43.0028 1.88386 -0.715039 0
M  V30 463 O 42.0588 2.51319 -0.243944 0
M  V30 464 C 43.3718 0.700258 -2.92433 0
M  V30 465 C 44.9198 0.792659 -3.02797 0
M  V30 466 C 45.3948 0.928005 -4.485 0
M  V30 467 N 46.8858 0.992903 -4.52433 0
M  V30 468 C 47.6208 1.11687 -5.62418 0
M  V30 469 N 47.1168 1.20645 -6.82214 0
M  V30 470 N 48.9098 1.14994 -5.50212 0
M  V30 471 H 41.0608 -0.597109 -2.03834 0
M  V30 472 H 43.3238 -0.205925 -0.925364 0
M  V30 473 H 43.0298 -0.175658 -3.51261 0
M  V30 474 H 42.9038 1.57255 -3.42857 0
M  V30 475 H 45.2908 1.65903 -2.4405 0
M  V30 476 H 45.3718 -0.104762 -2.55585 0
M  V30 477 H 45.0158 0.0661971 -5.07857 0
M  V30 478 H 44.9458 1.84045 -4.93391 0
M  V30 479 H 47.4368 0.935064 -3.66149 0
M  V30 480 H 47.7498 1.30008 -7.61786 0
M  V30 481 H 46.0948 1.17605 -6.84977 0
M  V30 482 H 49.2858 1.07643 -4.55555 0
M  V30 483 H 49.4588 1.24311 -6.35965 0
M  V30 484 N 42.8649 1.48995 0.513639 0
M  V30 485 C 43.8279 1.64229 1.59879 0
M  V30 486 C 44.8279 0.514696 1.5234 0
M  V30 487 O 46.0179 0.78087 1.55718 0
M  V30 488 C 43.1499 1.62783 2.99524 0
M  V30 489 H 44.3429 2.61004 1.47705 0
M  V30 490 H 41.8959 1.37837 0.736936 0
M  V30 491 H 42.6309 0.675461 3.17188 0
M  V30 492 H 42.4159 2.4466 3.06404 0
M  V30 493 H 43.9059 1.76669 3.78388 0
M  V30 494 N 44.343 -0.763751 1.37857 0
M  V30 495 C 45.273 -1.89103 1.36975 0
M  V30 496 C 46.254 -1.68439 0.237152 0
M  V30 497 O 47.439 -1.8918 0.438713 0
M  V30 498 C 44.569 -3.26496 1.18395 0
M  V30 499 C 43.523 -3.61741 2.28751 0
M  V30 500 C 42.849 -4.97762 1.95286 0
M  V30 501 C 44.149 -3.67665 3.70972 0
M  V30 502 H 45.843 -1.90099 2.31307 0
M  V30 503 H 43.389 -0.91319 1.11341 0
M  V30 504 H 45.342 -4.05003 1.16406 0
M  V30 505 H 44.066 -3.25955 0.205215 0
M  V30 506 H 42.725 -2.85547 2.29909 0
M  V30 507 H 42.373 -4.93769 0.959221 0
M  V30 508 H 42.073 -5.22313 2.69189 0
M  V30 509 H 43.597 -5.7866 1.94898 0
M  V30 510 H 45.011 -4.36307 3.719 0
M  V30 511 H 43.408 -4.03718 4.43995 0
M  V30 512 H 44.478 -2.68134 4.0402 0
M  V30 513 N 45.8211 -1.22559 -0.990812 0
M  V30 514 C 47.0681 -1.05141 -1.73065 0
M  V30 515 C 47.3961 0.413191 -1.9006 0
M  V30 516 O 46.6511 1.32257 -1.44245 0
M  V30 517 C 46.9501 -1.71011 -3.13831 0
M  V30 518 C 46.6161 -3.20911 -3.16745 0
M  V30 519 C 45.2781 -3.61812 -3.17247 0
M  V30 520 C 47.6301 -4.16846 -3.12872 0
M  V30 521 C 44.9581 -4.97127 -3.1158 0
M  V30 522 C 47.3101 -5.5214 -3.08746 0
M  V30 523 C 45.9741 -5.92419 -3.07565 0
M  V30 524 H 45.2441 -0.384738 -0.633291 0
M  V30 525 H 47.8911 -1.5235 -1.16025 0
M  V30 526 H 46.1961 -1.16133 -3.74193 0
M  V30 527 H 47.8931 -1.55023 -3.69823 0
M  V30 528 H 44.4831 -2.88344 -3.17105 0
M  V30 529 H 48.6671 -3.86263 -3.11632 0
M  V30 530 H 43.9231 -5.27562 -3.09012 0
M  V30 531 H 48.0971 -6.26201 -3.04705 0
M  V30 532 H 45.7241 -6.97236 -3.02929 0
M  V30 533 N 47.2992 1.18797 -1.03562 0
M  V30 534 C 48.5392 1.90346 -0.744832 0
M  V30 535 C 48.9032 1.78231 0.713972 0
M  V30 536 O 50.1042 2.44441 1.11813 0
M  V30 537 C 48.3752 3.36942 -1.19184 0
M  V30 538 S 49.9342 4.26638 -1.02593 0
M  V30 539 H 46.7522 0.657343 -0.270963 0
M  V30 540 H 49.3542 1.43579 -1.32685 0
M  V30 541 H 48.0582 3.43287 -2.24905 0
M  V30 542 H 47.5892 3.88745 -0.603397 0
M  V30 543 H 49.6042 4.96164 0.0596033 0
M  V30 544 N 48.7773 0.814389 1.34928 0
M  V30 545 C 49.7073 0.244827 2.32213 0
M  V30 546 C 50.6883 -0.634024 1.57842 0
M  V30 547 O 51.8733 -0.562676 1.8587 0
M  V30 548 C 49.0033 -0.601106 3.42058 0
M  V30 549 C 47.9573 0.179896 4.27622 0
M  V30 550 C 47.2833 -0.788237 5.28858 0
M  V30 551 C 48.5833 1.38329 5.03649 0
M  V30 552 H 50.2773 1.05763 2.80097 0
M  V30 553 H 47.8233 0.510029 1.34665 0
M  V30 554 H 49.7763 -1.00968 4.09125 0
M  V30 555 H 48.5003 -1.44688 2.92802 0
M  V30 556 H 47.1593 0.569739 3.62146 0
M  V30 557 H 46.8073 -1.62973 4.75866 0
M  V30 558 H 46.5073 -0.269942 5.8698 0
M  V30 559 H 48.0313 -1.19485 5.98795 0
M  V30 560 H 49.4453 1.04918 5.63618 0
M  V30 561 H 47.8423 1.83662 5.71304 0
M  V30 562 H 48.9123 2.16592 4.33839 0
M  V30 563 N 50.2554 -1.46986 0.568584 0
M  V30 564 C 51.4834 -2.0683 0.0539956 0
M  V30 565 C 51.8984 -1.41953 -1.24478 0
M  V30 566 O 51.2554 -0.519933 -1.74937 0
M  V30 567 C 51.3064 -3.61254 -0.133362 0
M  V30 568 O 51.0274 -4.237 1.11399 0
M  V30 569 C 52.5284 -4.37992 -0.683927 0
M  V30 570 H 49.7484 -0.669058 0.0510141 0
M  V30 571 H 52.2924 -1.88824 0.785234 0
M  V30 572 H 50.4474 -3.78735 -0.81477 0
M  V30 573 H 50.8614 -5.16388 0.91888 0
M  V30 574 H 52.3354 -5.46684 -0.764263 0
M  V30 575 H 52.8124 -4.05058 -1.69778 0
M  V30 576 H 53.4184 -4.25283 -0.0378494 0
M  V30 577 N 51.7335 -0.305618 -1.54608 0
M  V30 578 C 52.6635 0.561482 -2.26649 0
M  V30 579 C 53.6445 1.13415 -1.26772 0
M  V30 580 O 54.8295 1.16262 -1.55553 0
M  V30 581 C 51.9595 1.73122 -3.01075 0
M  V30 582 C 50.9135 1.2887 -4.08138 0
M  V30 583 C 50.2395 2.54396 -4.70305 0
M  V30 584 C 51.5395 0.416578 -5.20636 0
M  V30 585 H 53.2335 -0.0393902 -2.99374 0
M  V30 586 H 50.7795 -0.020385 -1.43986 0
M  V30 587 H 52.7325 2.34396 -3.50195 0
M  V30 588 H 51.4565 2.3584 -2.25936 0
M  V30 589 H 50.1155 0.698991 -3.59875 0
M  V30 590 H 49.7635 3.15439 -3.918 0
M  V30 591 H 49.4635 2.25486 -5.42614 0
M  V30 592 H 50.9875 3.16464 -5.2219 0
M  V30 593 H 52.4015 0.935116 -5.65622 0
M  V30 594 H 50.7985 0.221046 -5.99693 0
M  V30 595 H 51.8685 -0.557162 -4.81688 0
M  V30 596 N 53.2116 1.57565 -0.0334293 0
M  V30 597 C 54.1216 2.13943 0.962572 0
M  V30 598 C 55.1376 1.09276 1.35406 0
M  V30 599 O 56.3136 1.41355 1.4346 0
M  V30 600 C 53.3786 2.65887 2.22497 0
M  V30 601 C 52.4396 3.85286 1.8935 0
M  V30 602 C 51.6726 4.34743 3.09571 0
M  V30 603 O 51.8956 3.83352 4.22371 0
M  V30 604 O 50.8296 5.26538 2.91618 0
M  V30 605 H 54.6556 2.99333 0.513169 0
M  V30 606 H 52.2406 1.4822 0.18743 0
M  V30 607 H 54.1226 2.99346 2.96598 0
M  V30 608 H 52.7976 1.83578 2.6661 0
M  V30 609 H 51.7046 3.56746 1.1262 0
M  V30 610 H 53.0376 4.68771 1.5005 0
M  V30 611 N 54.6897 -0.239769 1.55765 0
M  V30 612 C 55.6377 -1.31668 1.91745 0
M  V30 613 C 56.6317 -1.49462 0.797338 0
M  V30 614 O 57.8377 -1.50852 0.982021 0
M  V30 615 H 54.2127 -0.441048 0.609082 0
M  V30 616 H 56.1837 -0.985923 2.81642 0
M  V30 617 C 54.9327 -2.66368 2.2348 0
M  V30 618 H 54.2557 -2.53478 3.09175 0
M  V30 619 H 55.6957 -3.40578 2.52553 0
M  V30 620 C 54.1547 -3.20002 1.05359 0
M  V30 621 O 54.6847 -4.00538 0.305261 0
M  V30 622 N 52.8907 -2.78126 0.842292 0
M  V30 623 H 52.4377 -2.12742 1.45253 0
M  V30 624 H 52.3957 -3.14354 0.053652 0
M  V30 625 N 56.1678 -1.49265 -0.50573 0
M  V30 626 C 57.5788 -1.51769 -1.08734 0
M  V30 627 C 57.9298 -0.301192 -1.93874 0
M  V30 628 O 57.0548 0.589456 -2.08217 0
M  V30 629 C 57.6498 -2.75017 -1.97867 0
M  V30 630 C 56.2088 -2.80314 -2.51199 0
M  V30 631 C 55.3558 -2.4562 -1.28709 0
M  V30 632 H 58.3068 -1.56031 -0.289855 0
M  V30 633 H 58.3278 -2.5491 -2.82491 0
M  V30 634 H 57.8398 -3.63539 -1.35873 0
M  V30 635 H 55.9408 -1.96061 -3.16845 0
M  V30 636 H 56.0538 -3.82366 -2.88675 0
M  V30 637 H 54.4178 -1.97297 -1.61078 0
M  V30 638 H 55.2008 -3.36411 -0.6843 0
M  V30 639 N 57.6459 0.756429 -1.3826 0
M  V30 640 C 58.5759 1.88374 -1.37976 0
M  V30 641 C 59.5569 1.68311 -0.246082 0
M  V30 642 O 60.7419 1.88944 -0.44874 0
M  V30 643 C 57.8719 3.25864 -1.20125 0
M  V30 644 C 56.8259 3.60523 -2.30666 0
M  V30 645 C 56.1519 4.9672 -1.97923 0
M  V30 646 C 57.4519 3.65692 -3.72916 0
M  V30 647 H 59.1459 1.88869 -2.32312 0
M  V30 648 H 56.6919 0.907272 -1.11824 0
M  V30 649 H 58.6449 4.0438 -1.18552 0
M  V30 650 H 57.3689 3.25841 -0.222498 0
M  V30 651 H 56.0279 2.84324 -2.3142 0
M  V30 652 H 55.6759 4.93253 -0.985393 0
M  V30 653 H 55.3759 5.20878 -2.71955 0
M  V30 654 H 56.8999 5.77618 -1.97964 0
M  V30 655 H 58.3139 4.34328 -3.74208 0
M  V30 656 H 56.7109 4.01358 -4.4613 0
M  V30 657 H 57.7809 2.65987 -4.05436 0
M  V30 658 N 59.124 1.23083 0.984299 0
M  V30 659 C 60.54 0.992637 1.24975 0
M  V30 660 C 60.74 -0.308618 1.99123 0
M  V30 661 O 59.796 -1.02905 2.30579 0
M  V30 662 C 61.109 2.19698 2.05312 0
M  V30 663 C 62.657 2.24147 2.18465 0
M  V30 664 C 63.132 3.44157 3.02192 0
M  V30 665 N 64.623 3.44372 3.09777 0
M  V30 666 C 65.358 4.33886 3.74874 0
M  V30 667 N 64.854 5.3363 4.41827 0
M  V30 668 N 66.647 4.21639 3.71721 0
M  V30 669 H 58.798 2.06731 0.487453 0
M  V30 670 H 61.061 0.906339 0.277944 0
M  V30 671 H 60.767 3.1411 1.58201 0
M  V30 672 H 60.641 2.20465 3.06064 0
M  V30 673 H 63.028 1.30277 2.64786 0
M  V30 674 H 63.109 2.27415 1.17115 0
M  V30 675 H 62.753 4.38332 2.56568 0
M  V30 676 H 62.683 3.3813 4.03702 0
M  V30 677 H 65.174 2.72201 2.62135 0
M  V30 678 H 65.487 5.98196 4.89266 0
M  V30 679 H 63.832 5.37534 4.40548 0
M  V30 680 H 67.023 3.42962 3.18582 0
M  V30 681 H 67.196 4.91604 4.22173 0
M  V30 682 N 60.6021 -1.18246 1.0419 0
M  V30 683 C 61.5491 -2.2192 0.634037 0
M  V30 684 C 62.5191 -1.62179 -0.358765 0
M  V30 685 O 63.7041 -1.89122 -0.252466 0
M  V30 686 C 60.8441 -3.451 0.00445535 0
M  V30 687 C 59.9571 -4.19174 1.04487 0
M  V30 688 C 59.0921 -5.29813 0.383676 0
M  V30 689 C 58.1311 -5.9566 1.4091 0
M  V30 690 N 57.2681 -6.97834 0.772784 0
M  V30 691 H 62.1081 -2.56164 1.52263 0
M  V30 692 H 59.6451 -1.25843 0.761701 0
M  V30 693 H 61.6031 -4.15485 -0.377919 0
M  V30 694 H 60.2331 -3.11472 -0.847652 0
M  V30 695 H 59.2851 -3.47604 1.54518 0
M  V30 696 H 60.5971 -4.64267 1.82368 0
M  V30 697 H 59.7511 -6.06677 -0.0528366 0
M  V30 698 H 58.4901 -4.85825 -0.427208 0
M  V30 699 H 57.4951 -5.17535 1.85574 0
M  V30 700 H 58.7201 -6.4173 2.22171 0
M  V30 701 H 56.6661 -6.55998 -0.0177708 0
M  V30 702 H 56.5831 -7.41186 1.48928 0
M  V30 703 H 57.8511 -7.78665 0.36071 0
M  V30 704 N 62.0802 -0.821533 -1.34494 0
M  V30 705 C 63.0432 -0.247847 -2.27856 0
M  V30 706 C 64.0432 0.573453 -1.50227 0
M  V30 707 O 65.2332 0.389759 -1.69784 0
M  V30 708 C 62.3652 0.652698 -3.34593 0
M  V30 709 H 63.5582 -1.07146 -2.80107 0
M  V30 710 H 61.1112 -0.593291 -1.44602 0
M  V30 711 H 61.8462 1.49943 -2.87555 0
M  V30 712 H 61.6312 0.065292 -3.92046 0
M  V30 713 H 63.1212 1.04793 -4.04238 0
M  V30 714 N 63.5583 1.46682 -0.576371 0
M  V30 715 C 64.7983 2.04306 -0.0621356 0
M  V30 716 C 65.1623 1.4389 1.2712 0
M  V30 717 O 66.3633 1.92675 1.87429 0
M  V30 718 C 64.6343 3.57399 0.00927922 0
M  V30 719 S 66.1933 4.36309 0.466859 0
M  V30 720 H 63.0113 0.710167 -0.0344016 0
M  V30 721 H 65.6133 1.79807 -0.767437 0
M  V30 722 H 64.3173 3.98889 -0.965178 0
M  V30 723 H 63.8483 3.86424 0.737547 0
M  V30 724 H 65.8633 4.6533 1.72287 0
M  V30 725 N 65.0364 0.313813 1.54444 0
M  V30 726 C 66.2854 -0.292519 1.99568 0
M  V30 727 C 66.5984 -1.54011 1.20582 0
M  V30 728 O 67.8044 -2.22183 1.56035 0
M  V30 729 C 66.2604 -0.571752 3.55329 0
M  V30 730 C 65.8684 0.658229 4.43138 0
M  V30 731 C 67.6124 -1.13857 4.08946 0
M  V30 732 C 65.5194 0.351439 5.90355 0
M  V30 733 H 64.4494 -0.113079 0.745472 0
M  V30 734 H 67.1004 0.424518 1.78522 0
M  V30 735 H 65.4824 -1.34872 3.72325 0
M  V30 736 H 66.6564 1.43403 4.37918 0
M  V30 737 H 64.9714 1.14458 4.0036 0
M  V30 738 H 67.5684 -1.38257 5.16516 0
M  V30 739 H 67.9114 -2.08489 3.6033 0
M  V30 740 H 68.4444 -0.423015 3.95544 0
M  V30 741 H 65.1834 1.26667 6.43145 0
M  V30 742 H 64.7034 -0.386842 5.98551 0
M  V30 743 H 66.3824 -0.0423134 6.46986 0
M  V30 744 N 66.5145 -1.57545 0.0417849 0
M  V30 745 C 67.7395 -1.97035 -0.647455 0
M  V30 746 C 68.1645 -0.918775 -1.64135 0
M  V30 747 O 67.5225 0.119006 -1.80909 0
M  V30 748 C 67.5705 -3.35609 -1.31905 0
M  V30 749 O 66.6745 -3.3287 -2.43457 0
M  V30 750 H 66.0155 -0.64211 -0.169086 0
M  V30 751 H 68.5455 -2.04318 0.107399 0
M  V30 752 H 68.5555 -3.72126 -1.67291 0
M  V30 753 H 67.2305 -4.11685 -0.590586 0
M  V30 754 H 65.8075 -3.08087 -2.10088 0
M  V30 755 N 67.9926 0.231505 -1.5589 0
M  V30 756 C 69.2416 0.955346 -1.7764 0
M  V30 757 C 69.5546 1.85893 -0.608546 0
M  V30 758 O 70.7606 2.62067 -0.70943 0
M  V30 759 C 69.2166 1.74886 -3.14552 0
M  V30 760 C 68.8246 0.891915 -4.39032 0
M  V30 761 C 70.5686 2.46452 -3.45633 0
M  V30 762 C 68.4756 1.68221 -5.66971 0
M  V30 763 H 67.4056 0.360446 -0.662265 0
M  V30 764 H 70.0566 0.209516 -1.823 0
M  V30 765 H 68.4386 2.53723 -3.04041 0
M  V30 766 H 69.6126 0.144793 -4.60572 0
M  V30 767 H 67.9276 0.288863 -4.15397 0
M  V30 768 H 70.5246 3.06061 -4.38441 0
M  V30 769 H 70.8676 3.18841 -2.67668 0
M  V30 770 H 71.4006 1.74613 -3.57428 0
M  V30 771 H 68.1396 1.00178 -6.478 0
M  V30 772 H 67.6596 2.4042 -5.49507 0
M  V30 773 H 69.3386 2.24544 -6.06786 0
M  V30 774 N 69.4707 1.49531 0.497807 0
M  V30 775 C 70.7167 1.59415 1.25358 0
M  V30 776 C 71.0497 0.281422 1.9215 0
M  V30 777 O 70.3247 -0.715249 1.80871 0
M  V30 778 C 70.6077 2.75566 2.3181 0
M  V30 779 C 70.4607 4.16642 1.69498 0
M  V30 780 C 71.7797 2.87347 3.33346 0
M  V30 781 H 68.8987 0.580244 0.454408 0
M  V30 782 H 71.5407 1.81827 0.551262 0
M  V30 783 H 69.6907 2.56587 2.91711 0
M  V30 784 H 71.3627 4.47145 1.13399 0
M  V30 785 H 69.6057 4.22141 0.998978 0
M  V30 786 H 70.2767 4.93792 2.46725 0
M  V30 787 H 72.7527 3.04634 2.83438 0
M  V30 788 H 71.6287 3.70289 4.05188 0
M  V30 789 H 71.8897 1.96834 3.95865 0
M  V30 790 N 70.9488 -0.749086 1.3866 0
M  V30 791 C 71.8588 -1.89358 1.38494 0
M  V30 792 C 72.8748 -1.71708 0.281476 0
M  V30 793 O 74.0508 -1.94554 0.520643 0
M  V30 794 C 71.1158 -3.24782 1.21316 0
M  V30 795 C 70.1768 -3.54926 2.41508 0
M  V30 796 C 69.4098 -4.83888 2.2514 0
M  V30 797 O 69.6328 -5.56592 1.24746 0
M  V30 798 O 68.5668 -5.13612 3.13826 0
M  V30 799 H 72.3928 -1.92452 2.34938 0
M  V30 800 H 69.9778 -0.894981 1.19626 0
M  V30 801 H 71.8598 -4.05739 1.13814 0
M  V30 802 H 70.5348 -3.2249 0.279592 0
M  V30 803 H 69.4418 -2.74112 2.54585 0
M  V30 804 H 70.7748 -3.61983 3.3351 0
M  V30 805 N 72.4269 -1.23603 -0.977757 0
M  V30 806 C 73.6729 -1.08136 -1.72274 0
M  V30 807 C 74.0279 0.377453 -1.88661 0
M  V30 808 O 73.3209 1.27552 -1.42972 0
M  V30 809 C 73.5149 -1.7433 -3.11999 0
M  V30 810 C 73.3439 -3.26498 -3.0924 0
M  V30 811 C 72.1139 -3.9567 -3.14282 0
M  V30 812 C 74.3119 -4.2323 -2.92201 0
M  V30 813 N 72.2939 -5.34799 -3.01436 0
M  V30 814 C 73.6649 -5.49289 -2.87544 0
M  V30 815 C 75.7199 -4.13931 -2.76705 0
M  V30 816 C 74.4229 -6.67116 -2.68978 0
M  V30 817 C 76.4489 -5.31424 -2.59504 0
M  V30 818 C 75.8109 -6.5641 -2.55548 0
M  V30 819 H 71.9099 -0.450247 -0.639376 0
M  V30 820 H 74.4939 -1.5637 -1.16002 0
M  V30 821 H 72.6649 -1.28624 -3.66484 0
M  V30 822 H 74.3969 -1.51815 -3.75146 0
M  V30 823 H 71.1519 -3.46767 -3.22567 0
M  V30 824 H 71.5759 -6.07748 -2.98281 0
M  V30 825 H 76.2179 -3.1807 -2.78552 0
M  V30 826 H 73.9359 -7.63109 -2.65876 0
M  V30 827 H 77.5219 -5.26072 -2.48474 0
M  V30 828 H 76.4019 -7.45795 -2.42405 0
M  V30 829 N 73.905 1.17692 -1.04816 0
M  V30 830 C 74.852 2.21581 -0.645797 0
M  V30 831 C 75.822 1.62367 0.350159 0
M  V30 832 O 77.007 1.89254 0.242433 0
M  V30 833 C 74.147 3.45092 -0.0227568 0
M  V30 834 C 73.26 4.18613 -1.06709 0
M  V30 835 C 72.395 5.29602 -0.411767 0
M  V30 836 C 71.434 5.94904 -1.44067 0
M  V30 837 N 70.571 6.97414 -0.809781 0
M  V30 838 H 75.411 2.55353 -1.5362 0
M  V30 839 H 72.948 1.25438 -0.768364 0
M  V30 840 H 74.906 4.15679 0.35588 0
M  V30 841 H 73.536 3.11917 0.831122 0
M  V30 842 H 72.588 3.46779 -1.5636 0
M  V30 843 H 73.9 4.63293 -1.84827 0
M  V30 844 H 73.054 6.06696 0.0206623 0
M  V30 845 H 71.793 4.86045 0.401438 0
M  V30 846 H 70.798 5.16544 -1.88316 0
M  V30 847 H 72.023 6.40542 -2.25571 0
M  V30 848 H 69.969 6.55998 -0.0170186 0
M  V30 849 H 69.886 7.40386 -1.52856 0
M  V30 850 H 71.154 7.78463 -0.401999 0
M  V30 851 N 75.3831 0.828654 1.34056 0
M  V30 852 C 76.7941 0.477534 1.8049 0
M  V30 853 C 77.1451 -1.00258 1.6865 0
M  V30 854 O 76.2701 -1.78057 1.22982 0
M  V30 855 C 76.8651 0.860018 3.27703 0
M  V30 856 C 75.4241 0.561185 3.72193 0
M  V30 857 C 74.5711 1.07385 2.55663 0
M  V30 858 H 77.5221 1.0183 1.21722 0
M  V30 859 H 77.5431 0.166038 3.80138 0
M  V30 860 H 77.0551 1.93731 3.36288 0
M  V30 861 H 75.1561 -0.506465 3.69142 0
M  V30 862 H 75.2691 1.10926 4.66082 0
M  V30 863 H 73.6331 0.495149 2.49841 0
M  V30 864 H 74.4161 2.15771 2.67016 0
M  V30 865 N 76.8612 -1.46375 0.584142 0
M  V30 866 C 78.1082 -2.02378 0.0702675 0
M  V30 867 C 78.4362 -1.45545 -1.29023 0
M  V30 868 O 77.6912 -0.610967 -1.85918 0
M  V30 869 C 77.9902 -3.57373 -0.0439342 0
M  V30 870 C 77.6562 -4.33252 1.24915 0
M  V30 871 C 76.3182 -4.53701 1.60341 0
M  V30 872 C 78.6702 -4.7681 2.1048 0
M  V30 873 C 75.9982 -5.1496 2.81128 0
M  V30 874 C 78.3502 -5.39404 3.30494 0
M  V30 875 C 77.0142 -5.5808 3.66201 0
M  V30 876 H 76.2842 -0.740554 0.0257127 0
M  V30 877 H 78.9312 -1.75727 0.761065 0
M  V30 878 H 77.2362 -3.83169 -0.817869 0
M  V30 879 H 78.9332 -3.98384 -0.457318 0
M  V30 880 H 75.5232 -4.17633 0.963364 0
M  V30 881 H 79.7072 -4.60766 1.84414 0
M  V30 882 H 74.9632 -5.27611 3.08928 0
M  V30 883 H 79.1372 -5.72114 3.97063 0
M  V30 884 H 76.7642 -6.05318 4.59885 0
M  V30 885 N 78.3393 -0.321999 -1.54275 0
M  V30 886 C 79.2493 0.553631 -2.27974 0
M  V30 887 C 80.2653 1.13054 -1.32268 0
M  V30 888 O 81.4413 1.15084 -1.6528 0
M  V30 889 C 78.5063 1.69927 -3.02201 0
M  V30 890 C 77.5673 1.15433 -4.1349 0
M  V30 891 C 76.8003 2.24537 -4.84168 0
M  V30 892 O 77.0233 3.44852 -4.5435 0
M  V30 893 O 75.9573 1.90044 -5.7111 0
M  V30 894 H 79.7833 -0.0448345 -3.03667 0
M  V30 895 H 77.3683 -0.0877418 -1.49142 0
M  V30 896 H 79.2503 2.3663 -3.48689 0
M  V30 897 H 77.9253 2.28395 -2.29385 0
M  V30 898 H 76.8323 0.452436 -3.71354 0
M  V30 899 H 78.1653 0.614805 -4.88345 0
M  V30 900 N 79.8174 1.5752 -0.0501392 0
M  V30 901 C 81.0454 1.96963 0.633492 0
M  V30 902 C 81.4604 0.927631 1.6444 0
M  V30 903 O 80.8174 -0.0882665 1.82286 0
M  V30 904 C 80.8684 3.36487 1.32132 0
M  V30 905 O 80.5894 4.36693 0.350894 0
M  V30 906 C 82.0904 3.90682 2.09481 0
M  V30 907 H 79.3104 0.648244 0.173266 0
M  V30 908 H 81.8544 2.0417 -0.116134 0
M  V30 909 H 80.0094 3.30434 2.02218 0
M  V30 910 H 80.4234 5.17702 0.841735 0
M  V30 911 H 81.8974 4.90591 2.5303 0
M  V30 912 H 82.3744 3.26053 2.94255 0
M  V30 913 H 82.9804 4.00069 1.44307 0
M  V30 914 N 81.2955 -0.223234 1.56011 0
M  V30 915 C 82.5445 -0.945912 1.78144 0
M  V30 916 C 82.8575 -1.85567 0.618396 0
M  V30 917 O 84.0635 -2.61688 0.723318 0
M  V30 918 C 82.5195 -1.73216 3.15475 0
M  V30 919 C 82.1275 -0.868619 4.39499 0
M  V30 920 C 83.8715 -2.44615 3.46935 0
M  V30 921 C 81.7785 -1.65212 5.67855 0
M  V30 922 H 80.7085 -0.356929 0.664167 0
M  V30 923 H 83.3595 -0.199845 1.82409 0
M  V30 924 H 81.7415 -2.52107 3.05382 0
M  V30 925 H 82.9155 -0.120366 4.60643 0
M  V30 926 H 81.2305 -0.26683 4.15544 0
M  V30 927 H 83.8275 -3.03732 4.40058 0
M  V30 928 H 84.1705 -3.17417 2.69355 0
M  V30 929 H 84.7035 -1.72715 3.58349 0
M  V30 930 H 81.4425 -0.967407 6.48322 0
M  V30 931 H 80.9625 -2.37503 5.50774 0
M  V30 932 H 82.6415 -2.21322 6.07968 0
M  V30 933 N 82.7736 -1.49793 -0.48987 0
M  V30 934 C 84.0226 -1.59085 -1.23995 0
M  V30 935 C 84.3356 -0.287907 -1.9347 0
M  V30 936 O 85.5416 -0.259506 -2.70257 0
M  V30 937 C 83.9976 -2.80736 -2.252 0
M  V30 938 C 83.6056 -4.17833 -1.61614 0
M  V30 939 C 85.3496 -2.99364 -3.00967 0
M  V30 940 C 83.2566 -5.30693 -2.60996 0
M  V30 941 H 82.1866 -0.592372 -0.466488 0
M  V30 942 H 84.8376 -1.76197 -0.51252 0
M  V30 943 H 83.2196 -2.57142 -3.01154 0
M  V30 944 H 84.3936 -4.51608 -0.915774 0
M  V30 945 H 82.7086 -4.04656 -0.981977 0
M  V30 946 H 85.3056 -3.80851 -3.75308 0
M  V30 947 H 85.6486 -2.10356 -3.59244 0
M  V30 948 H 86.1816 -3.2305 -2.32128 0
M  V30 949 H 82.9206 -6.21796 -2.07485 0
M  V30 950 H 82.4406 -5.01359 -3.2924 0
M  V30 951 H 84.1196 -5.6049 -3.23202 0
M  V30 952 N 84.2517 0.741722 -1.39055 0
M  V30 953 C 85.1817 1.869 -1.39966 0
M  V30 954 C 86.1627 1.6804 -0.26392 0
M  V30 955 O 87.3477 1.88458 -0.468755 0
M  V30 956 C 84.4777 3.24572 -1.23574 0
M  V30 957 C 83.4317 3.58056 -2.34477 0
M  V30 958 C 82.7577 4.94593 -2.0318 0
M  V30 959 C 84.0577 3.61716 -3.76774 0
M  V30 960 H 85.7517 1.86395 -2.34302 0
M  V30 961 H 83.2977 0.895361 -1.1278 0
M  V30 962 H 85.2507 4.031 -1.22834 0
M  V30 963 H 83.9747 3.25587 -0.257045 0
M  V30 964 H 82.6337 2.81854 -2.34423 0
M  V30 965 H 82.2817 4.92181 -1.03765 0
M  V30 966 H 81.9817 5.17964 -2.77465 0
M  V30 967 H 83.5057 5.75486 -2.04079 0
M  V30 968 H 84.9197 4.30335 -3.78794 0
M  V30 969 H 83.3167 3.96603 -4.50362 0
M  V30 970 H 84.3867 2.61672 -4.08235 0
M  V30 971 N 85.7298 1.2412 0.971189 0
M  V30 972 C 86.6598 1.05508 2.08304 0
M  V30 973 C 87.6408 -0.0308864 1.70072 0
M  V30 974 O 88.8258 0.135521 1.93727 0
M  V30 975 C 85.9558 0.655365 3.4106 0
M  V30 976 C 84.9098 1.68971 3.93234 0
M  V30 977 C 84.2358 1.14516 5.22293 0
M  V30 978 C 85.5358 3.08487 4.21465 0
M  V30 979 H 87.2298 1.98507 2.24132 0
M  V30 980 H 84.7758 0.955821 1.07704 0
M  V30 981 H 86.7288 0.51217 4.18276 0
M  V30 982 H 85.4528 -0.31032 3.25122 0
M  V30 983 H 84.1118 1.82106 3.18171 0
M  V30 984 H 83.7598 0.170189 5.02712 0
M  V30 985 H 83.4598 1.83635 5.58168 0
M  V30 986 H 84.9838 1.01401 6.02121 0
M  V30 987 H 86.3978 2.98601 4.89398 0
M  V30 988 H 84.7948 3.74926 4.68562 0
M  V30 989 H 85.8648 3.56787 3.28376 0
M  V30 990 N 87.2079 -1.17134 1.05439 0
M  V30 991 C 88.4359 -1.91372 0.786414 0
M  V30 992 C 88.8509 -1.76955 -0.658202 0
M  V30 993 O 88.2079 -1.10838 -1.44987 0
M  V30 994 C 88.2589 -3.42356 1.1608 0
M  V30 995 O 87.9799 -3.56332 2.54871 0
M  V30 996 C 89.4809 -4.33663 0.919322 0
M  V30 997 H 86.7009 -0.607118 0.285743 0
M  V30 998 H 89.2449 -1.48525 1.40572 0
M  V30 999 H 87.3999 -3.82939 0.586191 0
M  V30 1000 H 87.8139 -4.49896 2.69618 0
M  V30 1001 H 89.2879 -5.38099 1.231 0
M  V30 1002 H 89.7649 -4.38959 -0.145359 0
M  V30 1003 H 90.3709 -3.98796 1.47789 0
M  V30 1004 N 88.686 -0.835752 -1.33615 0
M  V30 1005 C 89.935 -0.426289 -1.97144 0
M  V30 1006 C 90.248 1.01912 -1.66953 0
M  V30 1007 O 91.454 1.53311 -2.24072 0
M  V30 1008 C 89.91 -0.711321 -3.52801 0
M  V30 1009 C 89.518 -2.1712 -3.91871 0
M  V30 1010 C 91.262 -0.368654 -4.22896 0
M  V30 1011 C 89.169 -2.40044 -5.40493 0
M  V30 1012 H 88.099 -0.15567 -0.737755 0
M  V30 1013 H 90.75 -1.0239 -1.52278 0
M  V30 1014 H 89.132 -0.0433766 -3.95976 0
M  V30 1015 H 90.306 -2.87936 -3.59763 0
M  V30 1016 H 88.621 -2.47654 -3.34749 0
M  V30 1017 H 91.218 -0.517601 -5.32189 0
M  V30 1018 H 91.561 0.688078 -4.10574 0
M  V30 1019 H 92.094 -0.991702 -3.8524 0
M  V30 1020 H 88.833 -3.44271 -5.57815 0
M  V30 1021 H 88.353 -1.73785 -5.74072 0
M  V30 1022 H 90.032 -2.23042 -6.0734 0
M  V30 1023 N 90.1641 1.46063 -0.591896 0
M  V30 1024 C 91.4111 2.02338 -0.0809991 0
M  V30 1025 C 91.7391 1.46228 1.28249 0
M  V30 1026 O 90.9941 0.620818 1.85592 0
M  V30 1027 C 91.2931 3.57391 0.0249813 0
M  V30 1028 C 90.9591 4.32583 -1.27211 0
M  V30 1029 C 89.6211 4.52844 -1.62745 0
M  V30 1030 C 91.9731 4.75687 -2.13005 0
M  V30 1031 C 89.3011 5.13462 -2.83855 0
M  V30 1032 C 91.6531 5.37644 -3.3335 0
M  V30 1033 C 90.3171 5.5613 -3.69155 0
M  V30 1034 H 89.5871 0.740407 -0.0296397 0
M  V30 1035 H 92.2341 1.75321 -0.770374 0
M  V30 1036 H 90.5391 3.83597 0.797537 0
M  V30 1037 H 92.2361 3.98621 0.436184 0
M  V30 1038 H 88.8261 4.17116 -0.985499 0
M  V30 1039 H 93.0101 4.59782 -1.86855 0
M  V30 1040 H 88.2661 5.25965 -3.11722 0
M  V30 1041 H 92.4401 5.7 -4.00092 0
M  V30 1042 H 90.0671 6.0287 -4.63089 0
M  V30 1043 N 91.6422 0.330177 1.54103 0
M  V30 1044 C 92.6052 -0.520144 2.2322 0
M  V30 1045 C 93.6052 -1.03828 1.22786 0
M  V30 1046 O 94.7952 -0.929652 1.4732 0
M  V30 1047 C 91.9272 -1.72317 2.94142 0
M  V30 1048 H 93.1202 0.0841605 2.99782 0
M  V30 1049 H 90.6732 0.0813433 1.56088 0
M  V30 1050 H 91.4082 -2.36653 2.21734 0
M  V30 1051 H 91.1932 -1.35898 3.67796 0
M  V30 1052 H 92.6832 -2.3266 3.46784 0
M  V30 1053 N 93.1203 -1.57491 0.0584922 0
M  V30 1054 C 94.0683 -2.13148 -0.931168 0
M  V30 1055 C 95.0623 -1.06507 -1.31729 0
M  V30 1056 O 96.2683 -1.24906 -1.29609 0
M  V30 1057 H 92.6433 -0.68137 -0.31818 0
M  V30 1058 H 94.6143 -2.95187 -0.436707 0
M  V30 1059 C 93.3633 -2.69732 -2.19408 0
M  V30 1060 H 92.6863 -3.51454 -1.90578 0
M  V30 1061 H 94.1263 -3.12287 -2.86798 0
M  V30 1062 C 92.5853 -1.63855 -2.94369 0
M  V30 1063 O 93.1153 -1.05565 -3.87581 0
M  V30 1064 N 91.3213 -1.35202 -2.57233 0
M  V30 1065 H 90.8683 -1.82791 -1.81508 0
M  V30 1066 H 90.8263 -0.645922 -3.07693 0
M  V30 1067 N 94.5984 0.214957 -1.56127 0
M  V30 1068 C 95.8384 0.945364 -1.81224 0
M  V30 1069 C 96.2024 1.81265 -0.633005 0
M  V30 1070 O 97.4034 2.57731 -0.763423 0
M  V30 1071 C 95.6744 1.75665 -3.1125 0
M  V30 1072 S 97.2334 2.54179 -3.57685 0
M  V30 1073 H 94.0514 0.317443 -0.6362 0
M  V30 1074 H 96.6534 0.210381 -1.94365 0
M  V30 1075 H 95.3574 1.10977 -3.9511 0
M  V30 1076 H 94.8884 2.53381 -3.00934 0
M  V30 1077 H 96.9034 3.7792 -3.21545 0
M  V30 1078 N 96.0765 1.50051 0.48192 0
M  V30 1079 C 97.3225 1.60736 1.2366 0
M  V30 1080 C 97.6555 0.301786 1.91841 0
M  V30 1081 O 96.9305 -0.696025 1.8162 0
M  V30 1082 C 97.2135 2.78009 2.28874 0
M  V30 1083 C 97.0665 4.18416 1.65069 0
M  V30 1084 C 98.3855 2.90867 3.30279 0
M  V30 1085 H 95.5045 0.585031 0.448228 0
M  V30 1086 H 98.1465 1.82402 0.531946 0
M  V30 1087 H 96.2965 2.59667 2.88973 0
M  V30 1088 H 97.9685 4.48322 1.0865 0
M  V30 1089 H 96.2115 4.23177 0.954148 0
M  V30 1090 H 96.8825 4.96381 2.41474 0
M  V30 1091 H 99.3585 3.07623 2.80191 0
M  V30 1092 H 98.2345 3.74566 4.01238 0
M  V30 1093 H 98.4955 2.01021 3.93755 0
M  V30 1094 N 97.5546 -0.734337 1.39446 0
M  V30 1095 C 98.5176 -1.83004 1.37994 0
M  V30 1096 C 99.5176 -1.58397 0.276938 0
M  V30 1097 O 100.708 -1.65785 0.534875 0
M  V30 1098 C 97.8396 -3.20802 1.1532 0
M  V30 1099 H 99.0326 -1.85694 2.35494 0
M  V30 1100 H 96.5856 -0.938059 1.25021 0
M  V30 1101 H 97.3206 -3.23772 0.185036 0
M  V30 1102 H 97.1056 -3.4006 1.95197 0
M  V30 1103 H 98.5956 -4.00862 1.17046 0
M  V30 1104 N 99.0327 -1.24633 -0.964593 0
M  V30 1105 C 99.9627 -1.06611 -2.07741 0
M  V30 1106 C 100.944 0.0218666 -1.70086 0
M  V30 1107 O 102.129 -0.145793 -1.93652 0
M  V30 1108 C 99.2587 -0.673444 -3.40708 0
M  V30 1109 C 98.2127 -1.71054 -3.92332 0
M  V30 1110 C 97.5387 -1.17285 -5.21678 0
M  V30 1111 C 98.8387 -3.10718 -4.19824 0
M  V30 1112 H 100.533 -1.99693 -2.23076 0
M  V30 1113 H 98.0787 -0.96152 -1.07195 0
M  V30 1114 H 100.032 -0.534345 -4.17998 0
M  V30 1115 H 98.7557 0.293073 -3.25282 0
M  V30 1116 H 97.4147 -1.83791 -3.17201 0
M  V30 1117 H 97.0627 -0.196847 -5.02615 0
M  V30 1118 H 96.7627 -1.86592 -5.57187 0
M  V30 1119 H 98.2867 -1.04593 -6.01575 0
M  V30 1120 H 99.7007 -3.01192 -4.87808 0
M  V30 1121 H 98.0977 -3.77406 -4.66567 0
M  V30 1122 H 99.1677 -3.58524 -3.26479 0
M  V30 1123 N 100.511 1.16574 -1.06058 0
M  V30 1124 C 101.474 2.19085 -0.673392 0
M  V30 1125 C 102.474 1.5835 0.279648 0
M  V30 1126 O 103.664 1.74088 0.0623488 0
M  V30 1127 C 100.796 3.40899 0.00954234 0
M  V30 1128 H 101.989 2.54853 -1.58081 0
M  V30 1129 H 99.5418 1.30808 -0.855516 0
M  V30 1130 H 100.277 3.10684 0.929826 0
M  V30 1131 H 100.062 3.86233 -0.67573 0
M  V30 1132 H 101.552 4.1675 0.266245 0
M  V30 1133 N 101.989 0.842826 1.3317 0
M  V30 1134 C 103.235 0.441099 1.97945 0
M  V30 1135 C 103.568 -0.998024 1.66593 0
M  V30 1136 O 102.843 -1.69839 0.947898 0
M  V30 1137 C 103.126 0.666841 3.53872 0
M  V30 1138 C 102.979 2.15352 3.94897 0
M  V30 1139 C 104.298 0.115544 4.39948 0
M  V30 1140 H 101.417 0.161739 0.719034 0
M  V30 1141 H 104.059 1.05907 1.57746 0
M  V30 1142 H 102.209 0.140828 3.88245 0
M  V30 1143 H 103.881 2.7447 3.70761 0
M  V30 1144 H 102.124 2.63653 3.44484 0
M  V30 1145 H 102.795 2.26221 5.03516 0
M  V30 1146 H 105.271 0.565213 4.12243 0
M  V30 1147 H 104.147 0.303152 5.48062 0
M  V30 1148 H 104.408 -0.980935 4.3108 0
M  V30 1149 N 103.467 -1.45747 0.599634 0
M  V30 1150 C 104.697 -2.06369 0.0977132 0
M  V30 1151 C 105.105 -1.44624 -1.21985 0
M  V30 1152 O 104.448 -0.551831 -1.75216 0
M  V30 1153 C 104.51 -3.59284 -0.124673 0
M  V30 1154 C 104.174 -4.43318 1.10987 0
M  V30 1155 C 105.171 -4.78796 2.02609 0
M  V30 1156 C 102.856 -4.84194 1.33647 0
M  V30 1157 C 104.85 -5.53997 3.15224 0
M  V30 1158 C 102.537 -5.5915 2.46565 0
M  V30 1159 C 103.535 -5.93968 3.37182 0
M  V30 1160 O 103.223 -6.67405 4.48136 0
M  V30 1161 H 102.955 -0.673122 0.0623153 0
M  V30 1162 H 105.509 -1.88104 0.824981 0
M  V30 1163 H 103.739 -3.75919 -0.906745 0
M  V30 1164 H 105.428 -4.01775 -0.577201 0
M  V30 1165 H 106.194 -4.47781 1.86325 0
M  V30 1166 H 102.073 -4.56534 0.64016 0
M  V30 1167 H 105.617 -5.81091 3.85978 0
M  V30 1168 H 101.514 -5.89579 2.62805 0
M  V30 1169 H 102.282 -6.85847 4.46717 0
M  V30 1170 N 104.945 -0.338344 -1.53925 0
M  V30 1171 C 105.875 0.51328 -2.27789 0
M  V30 1172 C 106.856 1.107 -1.29149 0
M  V30 1173 O 108.041 1.12937 -1.57984 0
M  V30 1174 C 105.171 1.66697 -3.04679 0
M  V30 1175 C 104.125 1.20183 -4.1078 0
M  V30 1176 C 103.451 2.44363 -4.75595 0
M  V30 1177 C 104.751 0.30605 -5.21403 0
M  V30 1178 H 106.445 -0.102883 -2.99223 0
M  V30 1179 H 103.991 -0.0509219 -1.4391 0
M  V30 1180 H 105.944 2.26915 -3.55088 0
M  V30 1181 H 104.668 2.30995 -2.30887 0
M  V30 1182 H 103.327 0.622499 -3.61276 0
M  V30 1183 H 102.975 3.07057 -3.98403 0
M  V30 1184 H 102.675 2.13925 -5.47275 0
M  V30 1185 H 104.199 3.05317 -5.28786 0
M  V30 1186 H 105.613 0.814929 -5.67478 0
M  V30 1187 H 104.01 0.0937929 -6.00027 0
M  V30 1188 H 105.08 -0.65921 -4.80398 0
M  V30 1189 N 106.423 1.57458 -0.0668435 0
M  V30 1190 C 107.834 1.80776 0.466558 0
M  V30 1191 C 108.185 0.980361 1.69951 0
M  V30 1192 O 107.31 0.201441 2.1546 0
M  V30 1193 C 107.905 3.27881 0.85321 0
M  V30 1194 C 106.464 3.52062 1.3315 0
M  V30 1195 C 105.611 2.75513 0.314264 0
M  V30 1196 H 108.562 1.5598 -0.292588 0
M  V30 1197 H 108.583 3.39659 1.715 0
M  V30 1198 H 108.095 3.88075 -0.0443439 0
M  V30 1199 H 106.196 2.97167 2.24772 0
M  V30 1200 H 106.309 4.60762 1.31285 0
M  V30 1201 H 104.673 2.42123 0.790492 0
M  V30 1202 H 105.456 3.38442 -0.575477 0
M  V30 1203 N 107.901 -0.206675 1.56239 0
M  V30 1204 C 108.834 -1.28383 1.88661 0
M  V30 1205 C 109.812 -1.44504 0.745481 0
M  V30 1206 O 110.996 -1.60079 0.995336 0
M  V30 1207 C 108.123 -2.65211 2.10667 0
M  V30 1208 C 107.169 -2.66025 3.33366 0
M  V30 1209 S 108.002 -2.18609 4.88846 0
M  V30 1210 C 109.158 -3.57283 5.13906 0
M  V30 1211 H 109.391 -1.00691 2.7973 0
M  V30 1212 H 106.924 -0.409627 1.48867 0
M  V30 1213 H 108.882 -3.43979 2.24029 0
M  V30 1214 H 107.543 -2.90121 1.20369 0
M  V30 1215 H 106.736 -3.66607 3.45855 0
M  V30 1216 H 106.338 -1.95331 3.18938 0
M  V30 1217 H 108.63 -4.53074 5.03717 0
M  V30 1218 H 109.573 -3.49699 6.15724 0
M  V30 1219 H 109.981 -3.51659 4.41583 0
M  V30 1220 N 109.379 -1.50304 -0.473955 0
M  V30 1221 C 110.79 -1.54042 -1.0549 0
M  V30 1222 C 111.141 -0.342248 -1.93192 0
M  V30 1223 O 110.266 0.545157 -2.09421 0
M  V30 1224 C 110.861 -2.79152 -1.91989 0
M  V30 1225 C 109.42 -2.8558 -2.45196 0
M  V30 1226 C 108.567 -2.48295 -1.2347 0
M  V30 1227 H 111.518 -1.5661 -0.256693 0
M  V30 1228 H 111.539 -2.60845 -2.7702 0
M  V30 1229 H 111.051 -3.66339 -1.28131 0
M  V30 1230 H 109.152 -2.02738 -3.12615 0
M  V30 1231 H 109.265 -3.88403 -2.80499 0
M  V30 1232 H 107.629 -2.00669 -1.56856 0
M  V30 1233 H 108.412 -3.37787 -0.612789 0
M  V30 1234 N 110.857 0.726932 -1.39834 0
M  V30 1235 C 111.767 1.87131 -1.41489 0
M  V30 1236 C 112.783 1.71239 -0.308757 0
M  V30 1237 O 113.959 1.93701 -0.551529 0
M  V30 1238 C 111.024 3.22811 -1.26468 0
M  V30 1239 C 110.085 3.51039 -2.47124 0
M  V30 1240 C 109.318 4.80245 -2.3281 0
M  V30 1241 O 109.541 5.54537 -1.33585 0
M  V30 1242 O 108.475 5.08554 -3.21957 0
M  V30 1243 H 112.301 1.8869 -2.3797 0
M  V30 1244 H 109.886 0.875837 -1.21035 0
M  V30 1245 H 111.768 4.03877 -1.20255 0
M  V30 1246 H 110.443 3.22005 -0.330862 0
M  V30 1247 H 109.35 2.70027 -2.58914 0
M  V30 1248 H 110.683 3.56632 -3.39227 0
M  V30 1249 N 112.336 1.25143 0.95797 0
M  V30 1250 C 113.613 1.00472 1.67823 0
M  V30 1251 C 113.993 -0.470056 2.058 0
M  V30 1252 O 113.341 -1.44663 1.76875 0
M  V30 1253 C 113.551 1.9372 2.90299 0
M  V30 1254 C 114.899 2.21371 3.62326 0
M  V30 1255 O 115.923 1.91451 3.00375 0
M  V30 1256 O 114.782 2.72231 4.7387 0
M  V30 1257 H 111.876 0.380752 0.734137 0
M  V30 1258 H 114.422 1.36283 1.01119 0
M  V30 1259 H 113.194 2.93316 2.59001 0
M  V30 1260 H 112.817 1.58286 3.64735 0
M  V30 1261 N 113.814 -1.1601 1.06675 0
M  V30 1262 C 115.091 -1.82679 0.699114 0
M  V30 1263 C 115.471 -1.94559 -0.819137 0
M  V30 1264 O 114.819 -1.49169 -1.73092 0
M  V30 1265 C 115.029 -3.19445 1.40555 0
M  V30 1266 C 116.377 -3.95171 1.55323 0
M  V30 1267 O 117.401 -3.28976 1.36577 0
M  V30 1268 O 116.26 -5.13833 1.86112 0
M  V30 1269 H 113.354 -0.788954 0.247951 0
M  V30 1270 H 115.9 -1.23179 1.16726 0
M  V30 1271 H 114.672 -3.05856 2.44065 0
M  V30 1272 H 114.295 -3.86625 0.927733 0
M  V30 1273 N 115.292 -0.849877 -1.32721 0
M  V30 1274 C 116.24 -0.279745 -2.30912 0
M  V30 1275 C 117.234 0.594278 -1.58634 0
M  V30 1276 O 118.44 0.482613 -1.73409 0
M  V30 1277 H 114.815 -0.0717521 -0.748569 0
M  V30 1278 H 116.786 -1.12222 -2.76494 0
M  V30 1279 C 115.535 0.521108 -3.43773 0
M  V30 1280 H 114.858 -0.142141 -3.99547 0
M  V30 1281 H 116.298 0.885693 -4.14646 0
M  V30 1282 C 114.757 1.70442 -2.90605 0
M  V30 1283 O 115.287 2.8034 -2.87702 0
M  V30 1284 N 113.493 1.52991 -2.47067 0
M  V30 1285 H 113.04 0.635914 -2.49628 0
M  V30 1286 H 112.998 2.32311 -2.11847 0
M  V30 1287 N 116.77 1.45427 -0.607355 0
M  V30 1288 C 117.718 2.32269 0.12411 0
M  V30 1289 C 118.712 1.45955 0.859854 0
M  V30 1290 O 119.918 1.6244 0.775447 0
M  V30 1291 H 116.293 0.749691 0.0588839 0
M  V30 1292 H 118.264 2.91743 -0.626762 0
M  V30 1293 C 117.013 3.29567 1.1082 0
M  V30 1294 H 116.336 3.95978 0.551492 0
M  V30 1295 H 117.776 3.93061 1.58995 0
M  V30 1296 C 116.235 2.56722 2.18164 0
M  V30 1297 O 116.765 2.34842 3.25902 0
M  V30 1298 N 114.971 2.16861 1.93442 0
M  V30 1299 H 114.518 2.34855 1.05834 0
M  V30 1300 H 114.476 1.68444 2.65469 0
M  V30 1301 N 118.248 0.346503 1.53744 0
M  V30 1302 C 119.473 -0.253074 2.0585 0
M  V30 1303 C 119.898 -1.43202 1.21962 0
M  V30 1304 O 119.256 -1.79783 0.234073 0
M  V30 1305 C 119.304 -0.643193 3.54817 0
M  V30 1306 O 118.408 -1.74286 3.73762 0
M  V30 1307 H 117.749 -0.0413583 0.662711 0
M  V30 1308 H 120.279 0.501574 1.98357 0
M  V30 1309 H 120.289 -0.919526 3.97503 0
M  V30 1310 H 118.964 0.218966 4.15323 0
M  V30 1311 H 117.541 -1.46356 3.42979 0
M  V30 1312 N 119.726 -1.57421 0.075193 0
M  V30 1313 C 120.656 -2.15942 -0.888324 0
M  V30 1314 C 121.637 -1.08737 -1.30806 0
M  V30 1315 O 122.822 -1.36787 -1.37851 0
M  V30 1316 C 119.952 -2.72379 -2.1547 0
M  V30 1317 C 118.906 -3.8478 -1.87425 0
M  V30 1318 C 118.232 -4.27834 -3.20721 0
M  V30 1319 C 119.532 -5.08869 -1.17684 0
M  V30 1320 H 121.226 -2.96705 -0.400799 0
M  V30 1321 H 118.772 -1.42723 -0.191342 0
M  V30 1322 H 120.725 -3.11965 -2.83295 0
M  V30 1323 H 119.449 -1.88841 -2.6647 0
M  V30 1324 H 118.108 -3.45703 -1.22004 0
M  V30 1325 H 117.756 -3.41214 -3.6957 0
M  V30 1326 H 117.456 -5.03605 -3.02746 0
M  V30 1327 H 118.98 -4.70039 -3.89738 0
M  V30 1328 H 120.394 -5.4575 -1.75584 0
M  V30 1329 H 118.791 -5.8994 -1.09956 0
M  V30 1330 H 119.861 -4.84648 -0.156453 0
M  V30 1331 N 121.204 0.198386 -1.56346 0
M  V30 1332 C 122.152 1.26538 -1.95169 0
M  V30 1333 C 123.146 1.47295 -0.836685 0
M  V30 1334 O 124.352 1.48195 -1.02167 0
M  V30 1335 H 120.727 0.424744 -0.620561 0
M  V30 1336 H 122.698 0.910904 -2.84157 0
M  V30 1337 C 121.447 2.6035 -2.30463 0
M  V30 1338 H 120.77 2.45192 -3.15786 0
M  V30 1339 H 122.21 3.33762 -2.61494 0
M  V30 1340 C 120.669 3.17096 -1.13806 0
M  V30 1341 O 121.199 3.99588 -0.41135 0
M  V30 1342 N 119.405 2.75795 -0.915736 0
M  V30 1343 H 118.952 2.08816 -1.50843 0
M  V30 1344 H 118.91 3.14101 -0.136979 0
M  V30 1345 N 122.682 1.50554 0.465978 0
M  V30 1346 C 123.612 1.72722 1.57128 0
M  V30 1347 C 124.593 0.576294 1.6004 0
M  V30 1348 O 125.778 0.81598 1.76225 0
M  V30 1349 C 122.908 1.82605 2.95419 0
M  V30 1350 C 121.862 2.97835 3.07373 0
M  V30 1351 C 121.188 2.92867 4.47363 0
M  V30 1352 C 122.488 4.38265 2.84114 0
M  V30 1353 H 124.182 2.65267 1.38829 0
M  V30 1354 H 121.728 1.2765 0.666441 0
M  V30 1355 H 123.681 1.96698 3.72677 0
M  V30 1356 H 122.405 0.866858 3.14886 0
M  V30 1357 H 121.064 2.83401 2.3255 0
M  V30 1358 H 120.712 1.94783 4.63755 0
M  V30 1359 H 120.412 3.70227 4.56296 0
M  V30 1360 H 121.936 3.09015 5.26633 0
M  V30 1361 H 123.35 4.53198 3.51118 0
M  V30 1362 H 121.747 5.17115 3.04487 0
M  V30 1363 H 122.817 4.50281 1.7993 0
M  V30 1364 N 124.16 -0.719506 1.40217 0
M  V30 1365 C 125.408 -1.47641 1.3801 0
M  V30 1366 C 125.729 -1.94992 -0.018145 0
M  V30 1367 O 124.999 -1.70073 -0.972207 0
M  V30 1368 H 123.579 -0.547744 0.507923 0
M  V30 1369 H 126.241 -0.853187 1.75233 0
M  V30 1370 H 125.337 -2.35112 2.05253 0
M  V30 1371 N 125.638 -1.25649 -0.95132 0
M  V30 1372 C 126.568 -1.08808 -2.06599 0
M  V30 1373 C 127.549 0.00382547 -1.701 0
M  V30 1374 O 128.734 -0.166325 -1.93486 0
M  V30 1375 C 125.864 -0.709542 -3.39975 0
M  V30 1376 C 124.818 -1.75206 -3.90496 0
M  V30 1377 C 124.144 -1.22811 -5.20405 0
M  V30 1378 C 125.444 -3.15153 -4.16504 0
M  V30 1379 H 127.138 -2.02048 -2.20946 0
M  V30 1380 H 124.684 -0.972835 -1.06169 0
M  V30 1381 H 126.637 -0.578649 -4.17408 0
M  V30 1382 H 125.361 0.258556 -3.25575 0
M  V30 1383 H 124.02 -1.87145 -3.15234 0
M  V30 1384 H 123.668 -0.250145 -5.02378 0
M  V30 1385 H 123.368 -1.92492 -5.55176 0
M  V30 1386 H 124.892 -1.10968 -6.00432 0
M  V30 1387 H 126.306 -3.06349 -4.84586 0
M  V30 1388 H 124.703 -3.82333 -4.62538 0
M  V30 1389 H 125.773 -3.61966 -3.22658 0
M  V30 1390 N 127.117 1.15442 -1.07289 0
M  V30 1391 C 128.027 2.23786 -0.704057 0
M  V30 1392 C 129.043 1.7166 0.284413 0
M  V30 1393 O 130.219 2.00972 0.131205 0
M  V30 1394 C 127.284 3.46535 -0.106792 0
M  V30 1395 C 126.345 4.13654 -1.14842 0
M  V30 1396 C 125.578 5.30544 -0.57956 0
M  V30 1397 O 125.801 5.67187 0.604585 0
M  V30 1398 O 124.735 5.87154 -1.32414 0
M  V30 1399 H 128.561 2.57664 -1.60757 0
M  V30 1400 H 126.146 1.23152 -0.845803 0
M  V30 1401 H 128.028 4.20804 0.224048 0
M  V30 1402 H 126.703 3.14407 0.770049 0
M  V30 1403 H 125.61 3.4131 -1.5316 0
M  V30 1404 H 126.943 4.49861 -1.99714 0
M  V30 1405 N 128.595 0.856903 1.32268 0
M  V30 1406 C 129.542 0.301172 2.28827 0
M  V30 1407 C 130.512 -0.593104 1.5515 0
M  V30 1408 O 131.697 -0.527537 1.83362 0
M  V30 1409 C 128.837 -0.502523 3.41422 0
M  V30 1410 C 127.95 0.417797 4.29975 0
M  V30 1411 C 127.085 -0.398749 5.29701 0
M  V30 1412 C 126.124 0.518827 6.09897 0
M  V30 1413 N 125.261 -0.260674 7.01616 0
M  V30 1414 H 130.101 1.12983 2.75751 0
M  V30 1415 H 127.638 0.568582 1.35667 0
M  V30 1416 H 129.596 -0.984141 4.05426 0
M  V30 1417 H 128.226 -1.29599 2.95642 0
M  V30 1418 H 127.278 1.01781 3.66531 0
M  V30 1419 H 128.59 1.12191 4.86019 0
M  V30 1420 H 127.744 -0.943435 5.9932 0
M  V30 1421 H 126.483 -1.13622 4.7428 0
M  V30 1422 H 125.488 1.07538 5.39181 0
M  V30 1423 H 126.713 1.25495 6.67404 0
M  V30 1424 H 124.659 -0.981198 6.4862 0
M  V30 1425 H 124.576 0.384364 7.55022 0
M  V30 1426 H 125.844 -0.787014 7.75517 0
M  V30 1427 N 130.073 -1.45103 0.615059 0
M  V30 1428 C 131.003 -2.33339 -0.0865619 0
M  V30 1429 C 131.984 -1.4727 -0.851209 0
M  V30 1430 O 133.169 -1.76026 -0.820281 0
M  V30 1431 C 130.299 -3.30095 -1.07956 0
M  V30 1432 C 129.253 -4.25858 -0.427628 0
M  V30 1433 C 128.579 -5.12361 -1.5294 0
M  V30 1434 C 129.879 -5.18165 0.655944 0
M  V30 1435 H 131.573 -2.92254 0.650224 0
M  V30 1436 H 129.119 -1.40532 0.314138 0
M  V30 1437 H 131.072 -3.90698 -1.57901 0
M  V30 1438 H 129.796 -2.69355 -1.84703 0
M  V30 1439 H 128.455 -3.66564 0.0510292 0
M  V30 1440 H 128.103 -4.47984 -2.28734 0
M  V30 1441 H 127.803 -5.77238 -1.09865 0
M  V30 1442 H 129.327 -5.75833 -2.03098 0
M  V30 1443 H 130.741 -5.72796 0.240257 0
M  V30 1444 H 129.138 -5.91559 1.00888 0
M  V30 1445 H 130.208 -4.60144 1.52957 0
M  V30 1446 N 131.551 -0.354651 -1.53558 0
M  V30 1447 C 132.461 0.50515 -2.29097 0
M  V30 1448 C 133.477 1.10223 -1.34636 0
M  V30 1449 O 134.653 1.11553 -1.67684 0
M  V30 1450 C 131.718 1.63479 -3.05738 0
M  V30 1451 C 130.779 1.06636 -4.15845 0
M  V30 1452 C 130.012 2.14217 -4.88822 0
M  V30 1453 O 130.235 3.35137 -4.61562 0
M  V30 1454 O 129.169 1.77887 -5.75013 0
M  V30 1455 H 132.995 -0.109237 -3.03503 0
M  V30 1456 H 130.58 -0.119357 -1.48922 0
M  V30 1457 H 132.462 2.2918 -3.5363 0
M  V30 1458 H 131.137 2.23478 -2.34178 0
M  V30 1459 H 130.044 0.373565 -3.7223 0
M  V30 1460 H 131.377 0.511081 -4.89539 0
M  V30 1461 N 133.029 1.57378 -0.0835403 0
M  V30 1462 C 134.259 1.97975 0.590713 0
M  V30 1463 C 134.667 0.961083 1.62972 0
M  V30 1464 O 134.01 -0.0590879 1.83605 0
M  V30 1465 C 134.072 3.34915 1.3066 0
M  V30 1466 C 133.736 4.55069 0.419698 0
M  V30 1467 C 134.733 5.18868 -0.32749 0
M  V30 1468 C 132.418 5.0114 0.341137 0
M  V30 1469 C 134.412 6.27098 -1.14134 0
M  V30 1470 C 132.099 6.0924 -0.476374 0
M  V30 1471 C 133.097 6.72083 -1.21627 0
M  V30 1472 O 132.785 7.781 -2.02028 0
M  V30 1473 H 132.517 0.655818 0.163947 0
M  V30 1474 H 135.071 2.04807 -0.156021 0
M  V30 1475 H 133.301 3.24733 2.09966 0
M  V30 1476 H 134.99 3.60037 1.87424 0
M  V30 1477 H 135.756 4.84211 -0.276459 0
M  V30 1478 H 131.635 4.51996 0.90668 0
M  V30 1479 H 135.179 6.7608 -1.71935 0
M  V30 1480 H 131.076 6.43329 -0.528927 0
M  V30 1481 H 131.844 7.95034 -1.94586 0
M  V30 1482 N 134.507 -0.190092 1.56449 0
M  V30 1483 C 135.754 -0.909705 1.80916 0
M  V30 1484 C 136.082 -1.83047 0.657583 0
M  V30 1485 O 135.337 -1.92428 -0.356356 0
M  V30 1486 C 135.636 -1.75382 3.1141 0
M  V30 1487 C 135.302 -0.983606 4.40041 0
M  V30 1488 C 133.964 -0.770967 4.74984 0
M  V30 1489 C 136.316 -0.442024 5.19322 0
M  V30 1490 C 133.644 -0.0053448 5.867 0
M  V30 1491 C 135.996 0.310412 6.31838 0
M  V30 1492 C 134.66 0.534023 6.6536 0
M  V30 1493 H 133.93 -0.332885 0.662019 0
M  V30 1494 H 136.577 -0.175762 1.90692 0
M  V30 1495 H 134.882 -2.55659 2.96893 0
M  V30 1496 H 136.579 -2.31331 3.27547 0
M  V30 1497 H 133.169 -1.15936 4.12622 0
M  V30 1498 H 137.353 -0.593693 4.92736 0
M  V30 1499 H 132.609 0.177825 6.11141 0
M  V30 1500 H 136.783 0.737419 6.92485 0
M  V30 1501 H 134.41 1.12918 7.51767 0
M  V30 1502 N 135.985 -1.50799 -0.457987 0
M  V30 1503 C 137.232 -1.62442 -1.20908 0
M  V30 1504 C 137.56 -0.330865 -1.91665 0
M  V30 1505 O 136.815 0.68401 -1.83357 0
M  V30 1506 C 137.114 -2.76358 -2.2663 0
M  V30 1507 C 136.78 -4.16378 -1.73033 0
M  V30 1508 C 135.442 -4.54473 -1.58138 0
M  V30 1509 C 137.794 -5.03836 -1.33413 0
M  V30 1510 C 135.122 -5.77754 -1.02065 0
M  V30 1511 C 137.474 -6.27676 -0.78778 0
M  V30 1512 C 136.138 -6.64562 -0.625561 0
M  V30 1513 H 135.408 -0.594417 -0.442435 0
M  V30 1514 H 138.055 -1.84772 -0.503136 0
M  V30 1515 H 136.36 -2.48167 -3.03184 0
M  V30 1516 H 138.057 -2.82568 -2.84528 0
M  V30 1517 H 134.647 -3.86331 -1.85598 0
M  V30 1518 H 138.831 -4.75026 -1.4375 0
M  V30 1519 H 134.087 -6.04997 -0.882547 0
M  V30 1520 H 138.261 -6.94797 -0.472177 0
M  V30 1521 H 135.888 -7.59965 -0.188926 0
M  V30 1522 N 137.463 0.71206 -1.40597 0
M  V30 1523 C 138.393 1.83889 -1.43899 0
M  V30 1524 C 139.374 1.67442 -0.299504 0
M  V30 1525 O 140.559 1.87421 -0.508624 0
M  V30 1526 C 137.689 3.21877 -1.30431 0
M  V30 1527 C 136.643 3.53002 -2.42019 0
M  V30 1528 C 135.969 4.90172 -2.13626 0
M  V30 1529 C 137.269 3.53643 -3.84362 0
M  V30 1530 H 138.963 1.81383 -2.38203 0
M  V30 1531 H 136.509 0.871237 -1.14654 0
M  V30 1532 H 138.462 4.00404 -1.31357 0
M  V30 1533 H 137.186 3.24968 -0.326049 0
M  V30 1534 H 135.845 2.76818 -2.40349 0
M  V30 1535 H 135.493 4.89869 -1.14182 0
M  V30 1536 H 135.193 5.11962 -2.88389 0
M  V30 1537 H 136.717 5.71028 -2.1624 0
M  V30 1538 H 138.131 4.22203 -3.87837 0
M  V30 1539 H 136.528 3.86961 -4.58673 0
M  V30 1540 H 137.598 2.52954 -4.13693 0
M  V30 1541 N 138.941 1.26152 0.944643 0
M  V30 1542 C 140.19 1.10883 1.68487 0
M  V30 1543 C 140.503 -0.348153 1.92477 0
M  V30 1544 O 141.709 -0.621459 2.64292 0
M  V30 1545 C 140.165 1.93624 3.03377 0
M  V30 1546 C 139.773 3.43875 2.87148 0
M  V30 1547 C 141.517 1.86954 3.81115 0
M  V30 1548 C 139.424 4.18875 4.1749 0
M  V30 1549 H 138.354 0.41135 0.631907 0
M  V30 1550 H 141.005 1.50433 1.05082 0
M  V30 1551 H 139.387 1.46904 3.67743 0
M  V30 1552 H 140.561 3.98338 2.31653 0
M  V30 1553 H 138.876 3.51744 2.22856 0
M  V30 1554 H 141.473 2.40275 4.77673 0
M  V30 1555 H 141.816 0.839518 4.07747 0
M  V30 1556 H 142.349 2.31477 3.23517 0
M  V30 1557 H 139.088 5.22332 3.96043 0
M  V30 1558 H 138.608 3.69193 4.72712 0
M  V30 1559 H 140.287 4.27134 4.85968 0
M  V30 1560 N 140.419 -1.14872 1.07899 0
M  V30 1561 C 141.665 -1.86064 0.806725 0
M  V30 1562 C 141.998 -1.82434 -0.665706 0
M  V30 1563 O 141.273 -1.25138 -1.48899 0
M  V30 1564 C 141.556 -3.34929 1.32267 0
M  V30 1565 C 141.409 -3.47161 2.86006 0
M  V30 1566 C 142.728 -4.29863 0.943717 0
M  V30 1567 H 139.847 -0.675591 0.294526 0
M  V30 1568 H 142.489 -1.34925 1.33773 0
M  V30 1569 H 140.639 -3.78611 0.870974 0
M  V30 1570 H 142.311 -3.12302 3.39507 0
M  V30 1571 H 140.554 -2.88539 3.23925 0
M  V30 1572 H 141.225 -4.51777 3.17177 0
M  V30 1573 H 143.701 -3.9417 1.33302 0
M  V30 1574 H 142.577 -5.32494 1.33198 0
M  V30 1575 H 142.838 -4.41846 -0.149796 0
M  V30 1576 N 141.898 -0.863906 -1.31812 0
M  V30 1577 C 143.145 -0.471836 -1.96926 0
M  V30 1578 C 143.473 0.974578 -1.68322 0
M  V30 1579 O 142.728 1.7003 -0.968933 0
M  V30 1580 C 143.027 -0.668547 -3.51091 0
M  V30 1581 C 142.693 -2.08683 -3.99703 0
M  V30 1582 C 141.355 -2.47471 -4.12688 0
M  V30 1583 C 143.707 -3.01207 -4.25351 0
M  V30 1584 C 141.035 -3.78037 -4.4867 0
M  V30 1585 C 143.387 -4.31282 -4.62794 0
M  V30 1586 C 142.051 -4.69992 -4.73987 0
M  V30 1587 H 141.321 -0.172657 -0.720604 0
M  V30 1588 H 143.968 -1.09573 -1.57054 0
M  V30 1589 H 142.273 0.0385252 -3.91781 0
M  V30 1590 H 143.97 -0.345102 -3.99512 0
M  V30 1591 H 140.56 -1.77566 -3.90087 0
M  V30 1592 H 144.744 -2.72469 -4.14819 0
M  V30 1593 H 140 -4.078 -4.55532 0
M  V30 1594 H 144.174 -5.03031 -4.81594 0
M  V30 1595 H 141.801 -5.71207 -5.01624 0
M  V30 1596 N 143.376 1.44774 -0.622745 0
M  V30 1597 C 144.601 2.06999 -0.128968 0
M  V30 1598 C 145.026 1.4617 1.1839 0
M  V30 1599 O 144.384 0.560007 1.72434 0
M  V30 1600 C 144.432 3.60595 -0.0188351 0
M  V30 1601 O 143.536 3.99398 1.02739 0
M  V30 1602 H 142.877 0.659047 -0.0809544 0
M  V30 1603 H 145.407 1.85784 -0.85705 0
M  V30 1604 H 145.417 4.07627 0.174476 0
M  V30 1605 H 144.092 4.04252 -0.977384 0
M  V30 1606 H 142.669 3.64011 0.809326 0
M  V30 1607 N 144.854 0.36279 1.53368 0
M  V30 1608 C 146.103 -0.22888 2.00397 0
M  V30 1609 C 146.416 -1.50096 1.25421 0
M  V30 1610 O 147.622 -2.17106 1.63025 0
M  V30 1611 C 146.078 -0.458417 3.56969 0
M  V30 1612 C 145.686 0.798877 4.4082 0
M  V30 1613 C 147.43 -1.00789 4.12361 0
M  V30 1614 C 145.337 0.539078 5.88938 0
M  V30 1615 H 144.267 -0.089305 0.748693 0
M  V30 1616 H 146.918 0.481099 1.77081 0
M  V30 1617 H 145.3 -1.22959 3.76427 0
M  V30 1618 H 146.474 1.57262 4.33134 0
M  V30 1619 H 144.789 1.27137 3.96516 0
M  V30 1620 H 147.386 -1.21754 5.20653 0
M  V30 1621 H 147.729 -1.9692 3.66781 0
M  V30 1622 H 148.262 -0.296961 3.9669 0
M  V30 1623 H 145.001 1.47064 6.3879 0
M  V30 1624 H 144.521 -0.196222 5.99479 0
M  V30 1625 H 146.2 0.163542 6.46793 0
M  V30 1626 N 146.332 -1.57332 0.0918853 0
M  V30 1627 C 147.242 -2.17368 -0.882505 0
M  V30 1628 C 148.258 -1.14226 -1.31257 0
M  V30 1629 O 149.434 -1.46582 -1.38115 0
M  V30 1630 C 146.499 -2.73962 -2.12476 0
M  V30 1631 C 145.56 -3.92048 -1.7492 0
M  V30 1632 C 144.793 -4.45933 -2.93223 0
M  V30 1633 O 145.016 -3.98764 -4.07852 0
M  V30 1634 O 143.95 -5.36999 -2.71875 0
M  V30 1635 H 147.776 -3.01031 -0.40172 0
M  V30 1636 H 145.361 -1.48813 -0.132291 0
M  V30 1637 H 147.243 -3.10147 -2.85283 0
M  V30 1638 H 145.918 -1.93347 -2.59613 0
M  V30 1639 H 144.825 -3.6068 -0.993025 0
M  V30 1640 H 146.158 -4.74017 -1.32548 0
M  V30 1641 N 147.81 0.181792 -1.56548 0
M  V30 1642 C 148.773 1.20894 -1.94724 0
M  V30 1643 C 149.773 1.37738 -0.829747 0
M  V30 1644 O 150.963 1.35323 -1.09697 0
M  V30 1645 C 148.095 2.57593 -2.23291 0
M  V30 1646 H 149.288 0.882275 -2.86629 0
M  V30 1647 H 146.841 0.423838 -1.50444 0
M  V30 1648 H 147.576 2.95291 -1.34067 0
M  V30 1649 H 147.361 2.46735 -3.04736 0
M  V30 1650 H 148.851 3.31637 -2.53785 0
M  V30 1651 N 149.288 1.51039 0.449983 0
M  V30 1652 C 150.251 1.70863 1.5277 0
M  V30 1653 C 151.251 0.578846 1.5002 0
M  V30 1654 O 152.441 0.846213 1.52266 0
M  V30 1655 C 149.573 1.75341 2.9235 0
M  V30 1656 H 150.766 2.67034 1.36502 0
M  V30 1657 H 148.319 1.40838 0.677812 0
M  V30 1658 H 149.054 0.809383 3.14037 0
M  V30 1659 H 148.839 2.57436 2.95752 0
M  V30 1660 H 150.329 1.92559 3.70555 0
M  V30 1661 N 150.766 -0.704594 1.40972 0
M  V30 1662 C 151.699 -1.82861 1.36518 0
M  V30 1663 C 152.677 -1.6091 0.23382 0
M  V30 1664 O 153.861 -1.83778 0.419271 0
M  V30 1665 C 150.988 -3.1939 1.12729 0
M  V30 1666 C 150.034 -3.60148 2.28463 0
M  V30 1667 S 150.867 -3.65994 3.90907 0
M  V30 1668 C 152.023 -5.05264 3.69403 0
M  V30 1669 H 152.256 -1.86361 2.3164 0
M  V30 1670 H 149.789 -0.872439 1.27389 0
M  V30 1671 H 151.747 -3.98211 0.996893 0
M  V30 1672 H 150.408 -3.1351 0.192427 0
M  V30 1673 H 149.601 -4.59309 2.07489 0
M  V30 1674 H 149.203 -2.88612 2.37863 0
M  V30 1675 H 151.495 -5.92504 3.28551 0
M  V30 1676 H 152.438 -5.31278 4.68134 0
M  V30 1677 H 152.846 -4.76377 3.02862 0
M  V30 1678 N 152.244 -1.26651 -0.937939 0
M  V30 1679 C 153.191 -1.0849 -2.03712 0
M  V30 1680 C 154.161 0.011033 -1.66096 0
M  V30 1681 O 155.346 -0.149353 -1.90215 0
M  V30 1682 C 152.486 -0.72735 -3.37348 0
M  V30 1683 C 151.599 -1.89986 -3.87981 0
M  V30 1684 C 150.734 -1.48513 -5.10017 0
M  V30 1685 C 149.773 -2.62575 -5.5292 0
M  V30 1686 N 148.91 -2.21762 -6.66158 0
M  V30 1687 H 153.75 -2.02551 -2.18579 0
M  V30 1688 H 151.287 -1.00844 -1.07093 0
M  V30 1689 H 153.245 -0.50092 -4.14182 0
M  V30 1690 H 151.875 0.176298 -3.22318 0
M  V30 1691 H 150.927 -2.23913 -3.07518 0
M  V30 1692 H 152.239 -2.75586 -4.15757 0
M  V30 1693 H 151.393 -1.21934 -5.94321 0
M  V30 1694 H 150.132 -0.60009 -4.83994 0
M  V30 1695 H 149.137 -2.8988 -4.67172 0
M  V30 1696 H 150.362 -3.51685 -5.80943 0
M  V30 1697 H 148.308 -1.35696 -6.41812 0
M  V30 1698 H 148.225 -3.00903 -6.93537 0
M  V30 1699 H 149.493 -1.98403 -7.53828 0
M  V30 1700 N 153.722 1.14298 -1.08507 0
M  V30 1701 C 154.971 1.84708 -0.810305 0
M  V30 1702 C 155.284 1.83903 0.666271 0
M  V30 1703 O 156.49 2.50112 1.05624 0
M  V30 1704 C 154.946 3.31572 -1.39957 0
M  V30 1705 C 154.554 3.40791 -2.90801 0
M  V30 1706 C 156.298 4.07087 -1.20334 0
M  V30 1707 C 154.205 4.81872 -3.4286 0
M  V30 1708 H 153.135 0.691985 -0.299454 0
M  V30 1709 H 155.786 1.28841 -1.30661 0
M  V30 1710 H 154.168 3.87183 -0.830976 0
M  V30 1711 H 155.342 2.95225 -3.53806 0
M  V30 1712 H 153.657 2.78732 -3.0935 0
M  V30 1713 H 156.254 5.11225 -1.56693 0
M  V30 1714 H 156.597 4.16054 -0.143237 0
M  V30 1715 H 157.13 3.57779 -1.73893 0
M  V30 1716 H 153.869 4.78094 -4.48449 0
M  V30 1717 H 153.389 5.27972 -2.84615 0
M  V30 1718 H 155.068 5.50765 -3.39509 0
M  V30 1719 N 155.201 0.870884 1.31352 0
M  V30 1720 C 156.45 0.478408 1.95944 0
M  V30 1721 C 156.763 -0.974493 1.69597 0
M  V30 1722 O 157.969 -1.47316 2.28058 0
M  V30 1723 C 156.425 0.804609 3.50791 0
M  V30 1724 C 156.033 2.27433 3.85977 0
M  V30 1725 C 157.777 0.480648 4.2177 0
M  V30 1726 C 155.684 2.5429 5.33939 0
M  V30 1727 H 154.614 0.175175 0.733369 0
M  V30 1728 H 157.265 1.06391 1.4951 0
M  V30 1729 H 155.647 0.148347 3.95722 0
M  V30 1730 H 156.821 2.97373 3.52002 0
M  V30 1731 H 155.136 2.56442 3.28065 0
M  V30 1732 H 157.733 0.658519 5.30629 0
M  V30 1733 H 158.076 -0.578979 4.12254 0
M  V30 1734 H 158.609 1.09349 3.82476 0
M  V30 1735 H 155.348 3.58939 5.48491 0
M  V30 1736 H 154.868 1.88945 5.69263 0
M  V30 1737 H 156.547 2.39066 6.01212 0
M  V30 1738 N 156.679 -1.44442 0.630414 0
M  V30 1739 C 157.642 -2.29107 -0.0652523 0
M  V30 1740 C 158.642 -1.41002 -0.772995 0
M  V30 1741 O 159.832 -1.62881 -0.617692 0
M  V30 1742 C 156.964 -3.22564 -1.10296 0
M  V30 1743 H 158.157 -2.92103 0.679401 0
M  V30 1744 H 155.71 -1.51343 0.390517 0
M  V30 1745 H 156.445 -2.64416 -1.87762 0
M  V30 1746 H 156.23 -3.87491 -0.59941 0
M  V30 1747 H 157.72 -3.86167 -1.5895 0
M  V30 1748 N 158.157 -0.370918 -1.53173 0
M  V30 1749 C 159.387 0.217389 -2.05453 0
M  V30 1750 C 159.795 1.42568 -1.24382 0
M  V30 1751 O 159.138 1.81571 -0.278839 0
M  V30 1752 C 159.2 0.669827 -3.53205 0
M  V30 1753 C 158.864 -0.4225 -4.55043 0
M  V30 1754 C 159.861 -1.27407 -5.04047 0
M  V30 1755 C 157.546 -0.58427 -4.9889 0
M  V30 1756 C 159.54 -2.27271 -5.95505 0
M  V30 1757 C 157.227 -1.58627 -5.90153 0
M  V30 1758 C 158.225 -2.42892 -6.38351 0
M  V30 1759 O 157.913 -3.41382 -7.27814 0
M  V30 1760 H 157.645 0.0408171 -0.674767 0
M  V30 1761 H 160.199 -0.5292 -1.98466 0
M  V30 1762 H 158.429 1.4681 -3.57748 0
M  V30 1763 H 160.118 1.18173 -3.88317 0
M  V30 1764 H 160.884 -1.16031 -4.70916 0
M  V30 1765 H 156.763 0.061851 -4.60959 0
M  V30 1766 H 160.307 -2.93079 -6.33049 0
M  V30 1767 H 156.204 -1.70048 -6.22699 0
M  V30 1768 H 156.972 -3.37173 -7.45826 0
M  V30 1769 N 159.635 1.57281 -0.100228 0
M  V30 1770 C 160.883 1.94153 0.561157 0
M  V30 1771 C 161.204 0.983157 1.68401 0
M  V30 1772 O 160.474 0.0361132 1.95867 0
M  V30 1773 H 159.054 0.716791 0.210283 0
M  V30 1774 H 161.716 1.94202 -0.164765 0
M  V30 1775 H 160.812 2.96709 0.968008 0
M  V30 1776 N 161.113 -0.173488 1.56642 0
M  V30 1777 C 162.36 -0.890465 1.81871 0
M  V30 1778 C 162.688 -1.82339 0.67696 0
M  V30 1779 O 161.943 -1.92795 -0.335926 0
M  V30 1780 C 162.242 -1.72069 3.13252 0
M  V30 1781 C 161.908 -0.936878 4.41059 0
M  V30 1782 C 160.57 -0.720545 4.75775 0
M  V30 1783 C 162.922 -0.386919 5.19762 0
M  V30 1784 C 160.25 0.0568829 5.86672 0
M  V30 1785 C 162.602 0.37741 6.31473 0
M  V30 1786 C 161.266 0.604563 6.64757 0
M  V30 1787 H 160.536 -0.325844 0.665512 0
M  V30 1788 H 163.183 -0.155527 1.90867 0
M  V30 1789 H 161.488 -2.52496 2.99588 0
M  V30 1790 H 163.185 -2.27844 3.29982 0
M  V30 1791 H 159.775 -1.11553 4.13828 0
M  V30 1792 H 163.959 -0.541398 4.93338 0
M  V30 1793 H 159.215 0.242635 6.10918 0
M  V30 1794 H 163.389 0.810825 6.91664 0
M  V30 1795 H 161.016 1.20885 7.50527 0
M  V30 1796 N 162.591 -1.51276 -0.441967 0
M  V30 1797 C 163.521 -1.752 -1.54361 0
M  V30 1798 C 164.502 -0.601682 -1.59103 0
M  V30 1799 O 165.687 -0.843913 -1.74905 0
M  V30 1800 C 162.817 -1.87282 -2.92477 0
M  V30 1801 C 161.771 -3.02687 -3.02596 0
M  V30 1802 C 161.097 -2.99947 -4.42647 0
M  V30 1803 C 162.397 -4.4273 -2.77106 0
M  V30 1804 H 164.091 -2.67442 -1.34592 0
M  V30 1805 H 161.637 -1.28694 -0.646048 0
M  V30 1806 H 163.59 -2.02602 -3.695 0
M  V30 1807 H 162.314 -0.916844 -3.13467 0
M  V30 1808 H 160.973 -2.87065 -2.28012 0
M  V30 1809 H 160.621 -2.02136 -4.60597 0
M  V30 1810 H 160.321 -3.77439 -4.50348 0
M  V30 1811 H 161.845 -3.17354 -5.2165 0
M  V30 1812 H 163.259 -4.58727 -3.43864 0
M  V30 1813 H 161.656 -5.21893 -2.96222 0
M  V30 1814 H 162.726 -4.53087 -1.72744 0
M  V30 1815 N 164.069 0.697108 -1.41344 0
M  V30 1816 C 165.316 1.45714 -1.40619 0
M  V30 1817 C 165.644 1.94494 -0.0147907 0
M  V30 1818 O 164.899 1.69794 0.973066 0
M  V30 1819 C 165.198 2.68553 -2.35826 0
M  V30 1820 C 164.864 2.38438 -3.82698 0
M  V30 1821 C 163.526 2.29936 -4.22709 0
M  V30 1822 C 165.878 2.13567 -4.75435 0
M  V30 1823 C 163.206 1.94656 -5.53467 0
M  V30 1824 C 165.558 1.79797 -6.06511 0
M  V30 1825 C 164.222 1.69789 -6.45545 0
M  V30 1826 H 163.492 0.533206 -0.51456 0
M  V30 1827 H 166.139 0.796901 -1.74131 0
M  V30 1828 H 164.444 3.39503 -1.95563 0
M  V30 1829 H 166.141 3.2669 -2.32539 0
M  V30 1830 H 162.731 2.4595 -3.51008 0
M  V30 1831 H 166.915 2.19082 -4.45328 0
M  V30 1832 H 162.171 1.8546 -5.82593 0
M  V30 1833 H 166.345 1.59572 -6.77872 0
M  V30 1834 H 163.972 1.4222 -7.46778 0
M  V30 1835 N 165.547 1.27147 0.931209 0
M  V30 1836 C 166.497 1.06227 2.01742 0
M  V30 1837 C 167.481 -0.00859065 1.60898 0
M  V30 1838 O 168.673 0.209537 1.75755 0
M  V30 1839 C 165.802 0.707787 3.35924 0
M  V30 1840 C 164.888 1.81661 3.83223 0
M  V30 1841 N 165.279 3.05564 4.03069 0
M  V30 1842 C 163.577 1.70249 4.12227 0
M  V30 1843 C 164.278 3.77697 4.42403 0
M  V30 1844 N 163.254 3.0544 4.49675 0
M  V30 1845 H 167.056 2.00261 2.15111 0
M  V30 1846 H 164.57 1.1781 1.11779 0
M  V30 1847 H 166.567 0.539043 4.134 0
M  V30 1848 H 165.227 -0.224964 3.2392 0
M  V30 1849 H 166.238 3.41363 3.89476 0
M  V30 1850 H 162.915 0.840329 4.08956 0
M  V30 1851 H 164.305 4.84168 4.65866 0
M  V30 1852 N 167.025 -1.13721 1.09112 0
M  V30 1853 C 167.957 -2.1871 0.685467 0
M  V30 1854 C 168.97 -1.60527 -0.271068 0
M  V30 1855 O 170.159 -1.78407 -0.0576148 0
M  V30 1856 C 167.259 -3.38898 -0.0111255 0
M  V30 1857 C 166.432 -4.26597 0.966131 0
M  V30 1858 C 165.491 -5.25324 0.303539 0
M  V30 1859 O 164.517 -5.61213 0.950177 0
M  V30 1860 N 165.719 -5.72779 -0.943651 0
M  V30 1861 H 168.484 -2.54126 1.58871 0
M  V30 1862 H 166.045 -1.29012 0.978143 0
M  V30 1863 H 168.037 -4.02014 -0.465517 0
M  V30 1864 H 166.607 -3.01747 -0.816565 0
M  V30 1865 H 165.827 -3.60306 1.59917 0
M  V30 1866 H 167.115 -4.82048 1.6281 0
M  V30 1867 H 166.513 -5.45762 -1.48862 0
M  V30 1868 H 165.07 -6.37847 -1.34142 0
M  V30 1869 N 168.503 -0.877838 -1.30888 0
M  V30 1870 C 169.78 -0.413052 -1.91189 0
M  V30 1871 C 170.16 1.1056 -1.79832 0
M  V30 1872 O 169.508 1.93771 -1.21099 0
M  V30 1873 C 169.718 -0.903191 -3.3711 0
M  V30 1874 C 171.066 -0.93395 -4.14201 0
M  V30 1875 O 172.09 -0.849373 -3.45925 0
M  V30 1876 O 170.949 -1.05772 -5.36167 0
M  V30 1877 H 168.043 -0.125035 -0.817493 0
M  V30 1878 H 170.589 -0.966269 -1.39504 0
M  V30 1879 H 169.361 -1.94692 -3.39427 0
M  V30 1880 H 168.984 -0.328732 -3.96239 0
M  V30 1881 N 169.982 1.44106 -0.638065 0
M  V30 1882 C 170.945 2.29138 0.0531013 0
M  V30 1883 C 171.945 1.41409 0.765506 0
M  V30 1884 O 173.135 1.63206 0.609046 0
M  V30 1885 C 170.267 3.23144 1.08584 0
M  V30 1886 H 171.46 2.91739 -0.694883 0
M  V30 1887 H 169.013 1.51134 -0.398538 0
M  V30 1888 H 169.748 2.65408 1.86357 0
M  V30 1889 H 169.533 3.87804 0.578852 0
M  V30 1890 H 171.023 3.87004 1.56899 0
M  V30 1891 N 171.46 0.379036 1.52974 0
M  V30 1892 C 172.69 -0.20649 2.05566 0
M  V30 1893 C 173.098 -1.41906 1.25137 0
M  V30 1894 O 172.441 -1.81421 0.288464 0
M  V30 1895 C 172.503 -0.651086 3.53555 0
M  V30 1896 C 172.167 0.446626 4.54812 0
M  V30 1897 C 173.164 1.30079 5.03364 0
M  V30 1898 C 170.849 0.610719 4.98573 0
M  V30 1899 C 172.843 2.30426 5.94292 0
M  V30 1900 C 170.53 1.61754 5.89304 0
M  V30 1901 C 171.528 2.46274 6.37054 0
M  V30 1902 O 171.216 3.45237 7.25994 0
M  V30 1903 H 170.948 -0.0372381 0.674974 0
M  V30 1904 H 173.502 0.539718 1.98182 0
M  V30 1905 H 171.732 -1.44911 3.58522 0
M  V30 1906 H 173.421 -1.16112 3.88938 0
M  V30 1907 H 174.187 1.18527 4.70294 0
M  V30 1908 H 170.066 -0.0374044 4.60985 0
M  V30 1909 H 173.61 2.96432 6.31485 0
M  V30 1910 H 169.507 1.73348 6.21788 0
M  V30 1911 H 170.275 3.41124 7.44027 0
M  V30 1912 N 172.938 -1.57226 0.108567 0
M  V30 1913 C 173.868 -2.17778 -0.84232 0
M  V30 1914 C 174.849 -1.11487 -1.2847 0
M  V30 1915 O 176.034 -1.39681 -1.34918 0
M  V30 1916 C 173.164 -2.76888 -2.09644 0
M  V30 1917 C 172.118 -3.88669 -1.79221 0
M  V30 1918 C 171.444 -4.34541 -3.11574 0
M  V30 1919 C 172.744 -5.11251 -1.06864 0
M  V30 1920 H 174.438 -2.97489 -0.337774 0
M  V30 1921 H 171.984 -1.43097 -0.161025 0
M  V30 1922 H 173.937 -3.17904 -2.76614 0
M  V30 1923 H 172.661 -1.94451 -2.62405 0
M  V30 1924 H 171.32 -3.48213 -1.14644 0
M  V30 1925 H 170.968 -3.48977 -3.62249 0
M  V30 1926 H 170.668 -5.09914 -2.91996 0
M  V30 1927 H 172.192 -4.782 -3.7968 0
M  V30 1928 H 173.606 -5.49352 -1.63968 0
M  V30 1929 H 172.003 -5.9214 -0.974178 0
M  V30 1930 H 173.073 -4.8487 -0.0536168 0
M  V30 1931 N 174.416 0.165178 -1.56732 0
M  V30 1932 C 175.832 0.517174 -1.50988 0
M  V30 1933 C 176.032 1.84331 -0.813894 0
M  V30 1934 O 175.088 2.49672 -0.37682 0
M  V30 1935 C 176.401 0.544261 -2.95733 0
M  V30 1936 C 177.949 0.631039 -3.06573 0
M  V30 1937 C 178.424 0.68896 -4.52788 0
M  V30 1938 N 179.915 0.751683 -4.5706 0
M  V30 1939 C 180.65 0.817177 -5.67547 0
M  V30 1940 N 180.146 0.843129 -6.8765 0
M  V30 1941 N 181.939 0.856668 -5.55534 0
M  V30 1942 H 174.09 -0.704318 -2.00382 0
M  V30 1943 H 176.353 -0.254687 -0.913148 0
M  V30 1944 H 176.059 -0.361607 -3.49836 0
M  V30 1945 H 175.933 1.3886 -3.5071 0
M  V30 1946 H 178.32 1.52733 -2.52501 0
M  V30 1947 H 178.401 -0.240095 -2.54671 0
M  V30 1948 H 178.045 -0.2031 -5.07494 0
M  V30 1949 H 177.975 1.57633 -5.02454 0
M  V30 1950 H 180.466 0.739661 -3.70591 0
M  V30 1951 H 180.779 0.894448 -7.67606 0
M  V30 1952 H 179.124 0.811304 -6.90248 0
M  V30 1953 H 182.315 0.833437 -4.60621 0
M  V30 1954 H 182.488 0.904247 -6.4166 0
M  V30 1955 N 175.894 1.51508 0.433938 0
M  V30 1956 C 177.119 1.68443 1.21003 0
M  V30 1957 C 177.544 0.382636 1.84167 0
M  V30 1958 O 176.902 -0.65755 1.68956 0
M  V30 1959 C 176.95 2.80405 2.26727 0
M  V30 1960 O 176.054 2.44245 3.32292 0
M  V30 1961 H 175.395 0.561536 0.354363 0
M  V30 1962 H 177.925 1.9809 0.512024 0
M  V30 1963 H 177.935 3.0459 2.71457 0
M  V30 1964 H 176.61 3.74867 1.80132 0
M  V30 1965 H 175.187 2.30644 2.93015 0
M  V30 1966 N 177.372 -0.689602 1.41712 0
M  V30 1967 C 178.62 -1.4468 1.4111 0
M  V30 1968 C 178.941 -1.94986 0.0232196 0
M  V30 1969 O 178.211 -1.72097 -0.935913 0
M  V30 1970 H 176.791 -0.536847 0.519427 0
M  V30 1971 H 179.453 -0.815825 1.77004 0
M  V30 1972 H 178.549 -2.30706 2.10193 0
M  V30 1973 N 178.85 -1.27639 -0.924453 0
M  V30 1974 C 180.096 -1.15345 -1.67532 0
M  V30 1975 C 180.451 0.297096 -1.90092 0
M  V30 1976 O 179.744 1.21374 -1.48253 0
M  V30 1977 C 179.938 -1.87407 -3.04325 0
M  V30 1978 C 179.767 -3.3932 -2.95114 0
M  V30 1979 C 178.537 -4.08644 -2.97218 0
M  V30 1980 C 180.735 -4.35242 -2.73987 0
M  V30 1981 N 178.717 -5.47102 -2.78482 0
M  V30 1982 C 180.088 -5.6099 -2.63988 0
M  V30 1983 C 182.143 -4.25294 -2.589 0
M  V30 1984 C 180.846 -6.77924 -2.40442 0
M  V30 1985 C 182.872 -5.41952 -2.36731 0
M  V30 1986 C 182.234 -6.66658 -2.27478 0
M  V30 1987 H 178.333 -0.47696 -0.619704 0
M  V30 1988 H 180.917 -1.6115 -1.09265 0
M  V30 1989 H 179.088 -1.44053 -3.60699 0
M  V30 1990 H 180.82 -1.6759 -3.68369 0
M  V30 1991 H 177.575 -3.60136 -3.07569 0
M  V30 1992 H 177.999 -6.19852 -2.72236 0
M  V30 1993 H 182.641 -3.29598 -2.64811 0
M  V30 1994 H 180.359 -7.73699 -2.3327 0
M  V30 1995 H 183.945 -5.36137 -2.25938 0
M  V30 1996 H 182.825 -7.55405 -2.10555 0
M  V30 1997 N 180.328 1.1314 -1.09713 0
M  V30 1998 C 181.276 2.20717 -0.733934 0
M  V30 1999 C 182.27 1.6729 0.266506 0
M  V30 2000 O 183.476 1.79547 0.127656 0
M  V30 2001 H 179.851 0.719292 -0.21937 0
M  V30 2002 H 181.822 2.48611 -1.6503 0
M  V30 2003 C 180.571 3.47265 -0.173849 0
M  V30 2004 H 179.894 3.88716 -0.934873 0
M  V30 2005 H 181.334 4.23979 0.0423126 0
M  V30 2006 C 179.793 3.18724 1.09164 0
M  V30 2007 O 180.323 3.37762 2.17439 0
M  V30 2008 N 178.529 2.72583 1.00732 0
M  V30 2009 H 178.076 2.57291 0.126121 0
M  V30 2010 H 178.034 2.53862 1.85476 0
M  V30 2011 N 181.806 0.884767 1.30421 0
M  V30 2012 C 183.052 0.503851 1.96441 0
M  V30 2013 C 183.385 -0.944518 1.69684 0
M  V30 2014 O 182.66 -1.66737 1.00145 0
M  V30 2015 C 182.943 0.779085 3.51571 0
M  V30 2016 C 182.796 2.27807 3.87846 0
M  V30 2017 C 184.115 0.255452 4.39358 0
M  V30 2018 H 181.234 0.184533 0.713524 0
M  V30 2019 H 183.876 1.10872 1.54297 0
M  V30 2020 H 182.026 0.264274 3.876 0
M  V30 2021 H 183.698 2.86127 3.61841 0
M  V30 2022 H 181.941 2.74479 3.35922 0
M  V30 2023 H 182.612 2.42125 4.96064 0
M  V30 2024 H 185.088 0.696079 4.10236 0
M  V30 2025 H 183.964 0.477361 5.4682 0
M  V30 2026 H 184.225 -0.843293 4.33983 0
M  V30 2027 N 183.284 -1.43765 0.645699 0
M  V30 2028 C 184.214 -2.33471 -0.0370477 0
M  V30 2029 C 185.195 -1.49042 -0.819779 0
M  V30 2030 O 186.38 -1.77726 -0.782758 0
M  V30 2031 C 183.51 -3.32311 -1.0093 0
M  V30 2032 C 182.464 -4.2667 -0.337201 0
M  V30 2033 C 181.79 -5.1549 -1.42037 0
M  V30 2034 C 183.09 -5.16657 0.765706 0
M  V30 2035 H 184.784 -2.90809 0.712069 0
M  V30 2036 H 182.33 -1.39834 0.343876 0
M  V30 2037 H 184.283 -3.9396 -1.49578 0
M  V30 2038 H 183.007 -2.73213 -1.78948 0
M  V30 2039 H 181.666 -3.66374 0.128771 0
M  V30 2040 H 181.314 -4.52735 -2.1918 0
M  V30 2041 H 181.014 -5.79438 -0.975966 0
M  V30 2042 H 182.538 -5.80012 -1.90838 0
M  V30 2043 H 183.952 -5.72158 0.361702 0
M  V30 2044 H 182.349 -5.89286 1.13413 0
M  V30 2045 H 183.419 -4.56796 1.62683 0
M  V30 2046 N 184.763 -0.387143 -1.52771 0
M  V30 2047 C 186.04 0.253197 -1.93954 0
M  V30 2048 C 186.42 1.64545 -1.32243 0
M  V30 2049 O 185.768 2.23191 -0.489699 0
M  V30 2050 C 185.978 0.281722 -3.47861 0
M  V30 2051 C 187.326 0.511715 -4.21505 0
M  V30 2052 O 188.35 0.362023 -3.54356 0
M  V30 2053 O 187.209 0.804847 -5.40541 0
M  V30 2054 H 184.303 0.156845 -0.811991 0
M  V30 2055 H 186.849 -0.441494 -1.63856 0
M  V30 2056 H 185.621 -0.693571 -3.85104 0
M  V30 2057 H 185.244 1.02142 -3.84256 0
M  V30 2058 N 186.241 1.57166 -0.116904 0
M  V30 2059 C 187.488 1.95123 0.541603 0
M  V30 2060 C 187.816 1.00006 1.6682 0
M  V30 2061 O 187.071 0.0235658 1.95686 0
M  V30 2062 C 187.37 3.39508 1.11664 0
M  V30 2063 C 187.036 4.50762 0.111606 0
M  V30 2064 C 185.698 4.80918 -0.164758 0
M  V30 2065 C 188.05 5.18036 -0.573438 0
M  V30 2066 C 185.378 5.75666 -1.13249 0
M  V30 2067 C 187.73 6.13824 -1.52978 0
M  V30 2068 C 186.394 6.42374 -1.81415 0
M  V30 2069 H 185.664 0.714005 0.198187 0
M  V30 2070 H 188.311 1.9048 -0.197365 0
M  V30 2071 H 186.616 3.40835 1.93232 0
M  V30 2072 H 188.313 3.66189 1.63422 0
M  V30 2073 H 184.903 4.27272 0.337192 0
M  V30 2074 H 189.087 4.94896 -0.373092 0
M  V30 2075 H 184.343 5.96092 -1.35958 0
M  V30 2076 H 188.517 6.65039 -2.06629 0
M  V30 2077 H 186.144 7.15599 -2.56557 0
M  V30 2078 N 187.719 -0.156864 1.56817 0
M  V30 2079 C 188.947 -0.886316 1.86955 0
M  V30 2080 C 189.362 -1.75185 0.703975 0
M  V30 2081 O 188.719 -1.79555 -0.326552 0
M  V30 2082 C 188.77 -1.75117 3.16253 0
M  V30 2083 O 188.491 -0.920537 4.2832 0
M  V30 2084 C 189.992 -2.58905 3.59837 0
M  V30 2085 H 187.212 -0.25678 0.619923 0
M  V30 2086 H 189.756 -0.152615 2.0393 0
M  V30 2087 H 187.911 -2.43805 3.01062 0
M  V30 2088 H 188.325 -1.51337 5.02192 0
M  V30 2089 H 189.799 -3.1518 4.53172 0
M  V30 2090 H 190.276 -3.34472 2.84649 0
M  V30 2091 H 190.882 -1.95526 3.7769 0
M  V30 2092 N 189.197 -1.51736 -0.425897 0
M  V30 2093 C 190.446 -1.64201 -1.17136 0
M  V30 2094 C 190.759 -0.369705 -1.92074 0
M  V30 2095 O 191.965 -0.373898 -2.68913 0
M  V30 2096 C 190.421 -2.90035 -2.13091 0
M  V30 2097 C 190.029 -4.24312 -1.43747 0
M  V30 2098 C 191.773 -3.1186 -2.87999 0
M  V30 2099 C 189.68 -5.41285 -2.38253 0
M  V30 2100 H 188.61 -0.611624 -0.440944 0
M  V30 2101 H 191.261 -1.78212 -0.437328 0
M  V30 2102 H 189.643 -2.69684 -2.89977 0
M  V30 2103 H 190.817 -4.55086 -0.723408 0
M  V30 2104 H 189.132 -4.08456 -0.809465 0
M  V30 2105 H 191.729 -3.96427 -3.58817 0
M  V30 2106 H 192.072 -2.25403 -3.49999 0
M  V30 2107 H 192.605 -3.32605 -2.18217 0
M  V30 2108 H 189.344 -6.30037 -1.80925 0
M  V30 2109 H 188.864 -5.14872 -3.0768 0
M  V30 2110 H 190.543 -5.73694 -2.99139 0
M  V30 2111 N 190.675 0.682077 -1.42076 0
M  V30 2112 C 191.921 1.44428 -1.42367 0
M  V30 2113 C 192.254 1.94164 -0.0373056 0
M  V30 2114 O 191.529 1.70429 0.937239 0
M  V30 2115 C 191.812 2.64654 -2.44194 0
M  V30 2116 C 191.665 2.20596 -3.91991 0
M  V30 2117 C 192.984 3.66865 -2.431 0
M  V30 2118 H 190.103 0.523834 -0.518428 0
M  V30 2119 H 192.745 0.77576 -1.73442 0
M  V30 2120 H 190.895 3.2169 -2.17826 0
M  V30 2121 H 192.567 1.68783 -4.29313 0
M  V30 2122 H 190.81 1.52242 -4.06208 0
M  V30 2123 H 191.481 3.06921 -4.58807 0
M  V30 2124 H 193.957 3.19531 -2.66532 0
M  V30 2125 H 192.833 4.48577 -3.16339 0
M  V30 2126 H 193.094 4.17493 -1.45437 0
M  V30 2127 N 192.153 1.28127 0.917671 0
M  V30 2128 C 193.4 1.15052 1.66641 0
M  V30 2129 C 193.728 -0.301677 1.92146 0
M  V30 2130 O 192.983 -1.23622 1.51711 0
M  V30 2131 C 193.282 1.89018 3.03327 0
M  V30 2132 C 192.948 3.38832 2.97496 0
M  V30 2133 C 191.61 3.79693 2.95613 0
M  V30 2134 C 193.962 4.34378 2.88036 0
M  V30 2135 C 191.29 5.14447 2.82066 0
M  V30 2136 C 193.642 5.69201 2.7603 0
M  V30 2137 C 192.306 6.09343 2.72502 0
M  V30 2138 H 191.576 0.421006 0.609783 0
M  V30 2139 H 194.223 1.58855 1.06945 0
M  V30 2140 H 192.528 1.37752 3.66785 0
M  V30 2141 H 194.225 1.76321 3.60156 0
M  V30 2142 H 190.815 3.06342 2.99754 0
M  V30 2143 H 194.999 4.03775 2.88581 0
M  V30 2144 H 190.255 5.44681 2.77728 0
M  V30 2145 H 194.429 6.42901 2.67678 0
M  V30 2146 H 192.056 7.13712 2.61762 0
M  V30 2147 N 193.631 -1.12557 1.10312 0
M  V30 2148 C 194.561 -2.20341 0.772798 0
M  V30 2149 C 195.542 -1.68198 -0.25365 0
M  V30 2150 O 196.727 -1.93831 -0.119699 0
M  V30 2151 C 193.857 -3.46709 0.202443 0
M  V30 2152 C 192.811 -4.11996 1.15943 0
M  V30 2153 C 192.137 -5.328 0.450345 0
M  V30 2154 C 193.437 -4.5828 2.50552 0
M  V30 2155 H 195.131 -2.48229 1.674 0
M  V30 2156 H 192.677 -1.19308 0.806326 0
M  V30 2157 H 194.63 -4.2138 -0.0407752 0
M  V30 2158 H 193.354 -3.18245 -0.734001 0
M  V30 2159 H 192.013 -3.39305 1.38808 0
M  V30 2160 H 191.661 -5.00602 -0.490531 0
M  V30 2161 H 191.361 -5.7743 1.08851 0
M  V30 2162 H 192.885 -6.10219 0.215642 0
M  V30 2163 H 194.299 -5.2433 2.31843 0
M  V30 2164 H 192.696 -5.13683 3.10242 0
M  V30 2165 H 193.766 -3.72329 3.10643 0
M  V30 2166 N 195.109 -0.891671 -1.2995 0
M  V30 2167 C 196.357 -0.512486 -1.95494 0
M  V30 2168 C 196.678 0.942776 -1.70695 0
M  V30 2169 O 195.948 1.66374 -1.03424 0
M  V30 2170 H 194.528 -0.186533 -0.723336 0
M  V30 2171 H 197.19 -1.13621 -1.58355 0
M  V30 2172 H 196.286 -0.688342 -3.04415 0
M  V30 2173 N 196.587 1.43421 -0.653314 0
M  V30 2174 C 197.833 2.02111 -0.166992 0
M  V30 2175 C 198.166 1.51423 1.21592 0
M  V30 2176 O 197.441 0.707389 1.8118 0
M  V30 2177 C 197.724 3.5966 -0.177948 0
M  V30 2178 C 197.577 4.20579 -1.59478 0
M  V30 2179 C 198.896 4.37413 0.4856 0
M  V30 2180 H 196.015 0.734374 -0.0621557 0
M  V30 2181 H 198.657 1.70717 -0.834016 0
M  V30 2182 H 196.807 3.86537 0.390032 0
M  V30 2183 H 198.479 4.04732 -2.21336 0
M  V30 2184 H 196.722 3.77226 -2.14204 0
M  V30 2185 H 197.393 5.29665 -1.5543 0
M  V30 2186 H 199.869 4.161 0.00234528 0
M  V30 2187 H 198.745 5.47075 0.447207 0
M  V30 2188 H 199.006 4.13672 1.55974 0
M  V30 2189 N 198.065 0.39524 1.52563 0
M  V30 2190 C 199.312 -0.185044 2.01653 0
M  V30 2191 C 199.64 -1.46317 1.28146 0
M  V30 2192 O 198.895 -1.9213 0.372074 0
M  V30 2193 C 199.194 -0.493444 3.53977 0
M  V30 2194 C 198.86 0.69384 4.4553 0
M  V30 2195 C 197.522 1.01954 4.70275 0
M  V30 2196 C 199.874 1.48785 4.99512 0
M  V30 2197 C 197.202 2.14069 5.46252 0
M  V30 2198 C 199.554 2.59965 5.76716 0
M  V30 2199 C 198.218 2.93037 5.99738 0
M  V30 2200 H 197.488 -0.0677123 0.7379 0
M  V30 2201 H 200.135 0.533807 1.8391 0
M  V30 2202 H 198.44 -1.29369 3.69825 0
M  V30 2203 H 200.137 -0.955163 3.89458 0
M  V30 2204 H 196.727 0.429987 4.26438 0
M  V30 2205 H 200.911 1.24946 4.80315 0
M  V30 2206 H 196.167 2.40056 5.62302 0
M  V30 2207 H 200.341 3.21887 6.17545 0
M  V30 2208 H 197.968 3.8003 6.58393 0
M  V30 2209 N 199.544 -1.57102 0.125237 0
M  V30 2210 C 200.772 -1.99761 -0.538797 0
M  V30 2211 C 201.187 -1.00503 -1.59827 0
M  V30 2212 O 200.544 0.00119474 -1.825 0
M  V30 2213 C 200.595 -3.42408 -1.15927 0
M  V30 2214 O 200.316 -4.37869 -0.142143 0
M  V30 2215 C 201.817 -4.00232 -1.90602 0
M  V30 2216 H 199.037 -0.655772 -0.14214 0
M  V30 2217 H 201.581 -2.03383 0.213413 0
M  V30 2218 H 199.736 -3.39706 -1.86223 0
M  V30 2219 H 200.15 -5.21128 -0.593775 0
M  V30 2220 H 201.624 -5.02105 -2.29335 0
M  V30 2221 H 202.101 -3.39721 -2.78363 0
M  V30 2222 H 202.707 -4.06499 -1.25055 0
M  V30 2223 N 201.022 0.148545 -1.56898 0
M  V30 2224 C 202.268 0.862694 -1.83536 0
M  V30 2225 C 202.601 1.80889 -0.706604 0
M  V30 2226 O 201.876 1.92328 0.289885 0
M  V30 2227 C 202.159 1.63853 -3.20662 0
M  V30 2228 C 202.012 0.713925 -4.44098 0
M  V30 2229 C 203.331 2.60133 -3.54991 0
M  V30 2230 H 200.45 0.312179 -0.667618 0
M  V30 2231 H 203.092 0.127953 -1.89569 0
M  V30 2232 H 201.242 2.26489 -3.1565 0
M  V30 2233 H 202.914 0.098686 -4.61194 0
M  V30 2234 H 201.157 0.0234019 -4.33794 0
M  V30 2235 H 201.828 1.29278 -5.36648 0
M  V30 2236 H 204.304 2.07616 -3.60603 0
M  V30 2237 H 203.18 3.11468 -4.51972 0
M  V30 2238 H 203.441 3.41417 -2.80868 0
M  V30 2239 N 202.5 1.5196 0.417844 0
M  V30 2240 C 203.749 1.6482 1.16264 0
M  V30 2241 C 204.062 0.379886 1.91876 0
M  V30 2242 O 205.268 0.388154 2.68711 0
M  V30 2243 C 203.724 2.91161 2.1155 0
M  V30 2244 C 203.332 4.25068 1.41495 0
M  V30 2245 C 205.076 3.13383 2.86341 0
M  V30 2246 C 202.983 5.42541 2.35379 0
M  V30 2247 H 201.913 0.613954 0.437694 0
M  V30 2248 H 204.564 1.78442 0.427871 0
M  V30 2249 H 202.946 2.71218 2.88543 0
M  V30 2250 H 204.12 4.55463 0.699263 0
M  V30 2251 H 202.435 4.0888 0.787792 0
M  V30 2252 H 205.032 3.98324 3.5671 0
M  V30 2253 H 205.375 2.27256 3.48798 0
M  V30 2254 H 205.908 3.33757 2.1645 0
M  V30 2255 H 202.647 6.30987 1.77582 0
M  V30 2256 H 202.167 5.16497 3.04945 0
M  V30 2257 H 203.846 5.75272 2.96093 0
M  V30 2258 N 203.978 -0.674533 1.42435 0
M  V30 2259 C 204.908 -1.80009 1.48724 0
M  V30 2260 C 205.889 -1.6659 0.343793 0
M  V30 2261 O 207.074 -1.86007 0.558137 0
M  V30 2262 C 204.204 -3.18306 1.38919 0
M  V30 2263 C 203.158 -3.46461 2.51294 0
M  V30 2264 C 202.484 -4.84335 2.26547 0
M  V30 2265 C 203.784 -3.43328 3.93603 0
M  V30 2266 H 205.478 -1.75004 2.42928 0
M  V30 2267 H 203.024 -0.840533 1.16923 0
M  V30 2268 H 204.977 -3.9678 1.41927 0
M  V30 2269 H 203.701 -3.2399 0.412094 0
M  V30 2270 H 202.36 -2.70348 2.47604 0
M  V30 2271 H 202.008 -4.86669 1.2713 0
M  V30 2272 H 201.708 -5.04136 3.01861 0
M  V30 2273 H 203.232 -5.65094 2.31304 0
M  V30 2274 H 204.646 -4.11772 3.98894 0
M  V30 2275 H 203.043 -3.74664 4.68771 0
M  V30 2276 H 204.113 -2.41897 4.20255 0
M  V30 2277 N 205.456 -1.28612 -0.910864 0
M  V30 2278 C 206.366 -1.14643 -2.0468 0
M  V30 2279 C 207.382 -0.0723121 -1.7385 0
M  V30 2280 O 208.558 -0.282178 -1.99413 0
M  V30 2281 C 205.623 -0.812561 -3.37044 0
M  V30 2282 C 204.684 -1.96935 -3.81465 0
M  V30 2283 C 203.917 -1.65131 -5.07511 0
M  V30 2284 O 204.14 -0.567013 -5.67575 0
M  V30 2285 O 203.074 -2.49585 -5.47714 0
M  V30 2286 H 206.9 -2.1001 -2.19384 0
M  V30 2287 H 204.485 -1.07958 -1.03274 0
M  V30 2288 H 206.367 -0.640441 -4.16505 0
M  V30 2289 H 205.042 0.111426 -3.23508 0
M  V30 2290 H 203.949 -2.19664 -3.02818 0
M  V30 2291 H 205.282 -2.87414 -3.99567 0
M  V30 2292 N 206.934 1.1197 -1.10907 0
M  V30 2293 C 207.866 2.17592 -0.720175 0
M  V30 2294 C 208.879 1.60938 0.245495 0
M  V30 2295 O 210.068 1.78476 0.0292245 0
M  V30 2296 C 207.168 3.38873 -0.0427917 0
M  V30 2297 C 206.341 4.25006 -1.03388 0
M  V30 2298 C 205.4 5.24774 -0.387075 0
M  V30 2299 O 204.426 5.59631 -1.03934 0
M  V30 2300 N 205.628 5.74208 0.852407 0
M  V30 2301 H 208.393 2.51567 -1.62893 0
M  V30 2302 H 205.954 1.27439 -0.998543 0
M  V30 2303 H 207.946 4.02703 0.401501 0
M  V30 2304 H 206.516 3.03007 0.768456 0
M  V30 2305 H 205.736 3.57716 -1.65629 0
M  V30 2306 H 207.024 4.79397 -1.70458 0
M  V30 2307 H 206.422 5.48062 1.40161 0
M  V30 2308 H 204.979 6.39901 1.23977 0
M  V30 2309 N 208.412 0.89855 1.29475 0
M  V30 2310 C 209.658 0.524658 1.95896 0
M  V30 2311 C 209.991 -0.926468 1.70676 0
M  V30 2312 O 209.266 -1.65665 1.01908 0
M  V30 2313 C 209.549 0.81633 3.50725 0
M  V30 2314 C 209.402 2.31907 3.85408 0
M  V30 2315 C 210.721 0.302038 4.39062 0
M  V30 2316 H 207.84 0.19209 0.711527 0
M  V30 2317 H 210.482 1.12502 1.53112 0
M  V30 2318 H 208.632 0.305369 3.87298 0
M  V30 2319 H 210.304 2.89949 3.58786 0
M  V30 2320 H 208.547 2.78027 3.32992 0
M  V30 2321 H 209.218 2.47373 4.93468 0
M  V30 2322 H 211.694 0.739551 4.09475 0
M  V30 2323 H 210.57 0.535331 5.46283 0
M  V30 2324 H 210.831 -0.797216 4.34853 0
M  V30 2325 N 209.89 -1.43072 0.660911 0
M  V30 2326 C 210.838 -2.32569 -0.0378199 0
M  V30 2327 C 211.832 -1.49046 -0.805092 0
M  V30 2328 O 213.038 -1.65206 -0.714624 0
M  V30 2329 H 209.413 -0.75136 -0.031019 0
M  V30 2330 H 211.384 -2.89216 0.734609 0
M  V30 2331 C 210.133 -3.33453 -0.985124 0
M  V30 2332 H 209.456 -3.97752 -0.404147 0
M  V30 2333 H 210.896 -3.98691 -1.44297 0
M  V30 2334 C 209.355 -2.64642 -2.08486 0
M  V30 2335 O 209.885 -2.46776 -3.16961 0
M  V30 2336 N 208.091 -2.23891 -1.8526 0
M  V30 2337 H 207.638 -2.38621 -0.970449 0
M  V30 2338 H 207.596 -1.78181 -2.59034 0
M  V30 2339 N 211.368 -0.403325 -1.52352 0
M  V30 2340 C 212.614 0.174605 -2.02047 0
M  V30 2341 C 212.947 1.45282 -1.28867 0
M  V30 2342 O 212.222 1.90483 -0.393257 0
M  V30 2343 C 212.505 0.428238 -3.57545 0
M  V30 2344 C 212.358 -0.866248 -4.4138 0
M  V30 2345 C 213.677 1.21287 -4.23057 0
M  V30 2346 H 210.796 0.0619851 -0.734389 0
M  V30 2347 H 213.438 -0.53565 -1.82293 0
M  V30 2348 H 211.588 1.03327 -3.74507 0
M  V30 2349 H 213.26 -1.50265 -4.3614 0
M  V30 2350 H 211.503 -1.47851 -4.07827 0
M  V30 2351 H 212.174 -0.643249 -5.48239 0
M  V30 2352 H 214.65 0.700703 -4.10158 0
M  V30 2353 H 213.526 1.35909 -5.31808 0
M  V30 2354 H 213.787 2.23193 -3.81625 0
M  V30 2355 N 212.846 1.57033 -0.133567 0
M  V30 2356 C 214.095 1.94861 0.520768 0
M  V30 2357 C 214.408 1.02012 1.66892 0
M  V30 2358 O 215.614 1.29365 2.38699 0
M  V30 2359 C 214.07 3.46362 0.977809 0
M  V30 2360 C 213.678 4.47773 -0.142674 0
M  V30 2361 C 215.422 3.93083 1.60269 0
M  V30 2362 C 213.329 5.90468 0.331883 0
M  V30 2363 H 212.259 0.727453 0.198315 0
M  V30 2364 H 214.91 1.82227 -0.215759 0
M  V30 2365 H 213.292 3.54282 1.7692 0
M  V30 2366 H 214.466 4.51536 -0.919317 0
M  V30 2367 H 212.781 4.10891 -0.675124 0
M  V30 2368 H 215.378 4.97121 1.96914 0
M  V30 2369 H 215.721 3.33876 2.48662 0
M  V30 2370 H 216.254 3.88025 0.876453 0
M  V30 2371 H 212.993 6.53463 -0.516341 0
M  V30 2372 H 212.513 5.90094 1.07469 0
M  V30 2373 H 214.192 6.42179 0.788332 0
M  V30 2374 N 214.325 -0.140222 1.56975 0
M  V30 2375 C 215.257 -1.19818 1.95388 0
M  V30 2376 C 216.27 -1.38816 0.850525 0
M  V30 2377 O 217.459 -1.38267 1.12891 0
M  V30 2378 C 214.559 -2.56189 2.21857 0
M  V30 2379 C 213.732 -2.58077 3.5315 0
M  V30 2380 C 212.791 -3.76037 3.6808 0
M  V30 2381 O 211.817 -3.60598 4.40406 0
M  V30 2382 N 213.019 -4.93763 3.05251 0
M  V30 2383 H 215.784 -0.871609 2.86746 0
M  V30 2384 H 213.345 -0.32972 1.58507 0
M  V30 2385 H 215.337 -3.33623 2.2908 0
M  V30 2386 H 213.907 -2.81111 1.36731 0
M  V30 2387 H 213.127 -1.6651 3.57307 0
M  V30 2388 H 214.415 -2.56377 4.39486 0
M  V30 2389 H 213.813 -5.09209 2.46419 0
M  V30 2390 H 212.37 -5.68949 3.18026 0
M  V30 2391 N 215.803 -1.52179 -0.40978 0
M  V30 2392 C 217.028 -1.70347 -1.18308 0
M  V30 2393 C 217.453 -0.411887 -1.83535 0
M  V30 2394 O 216.811 0.630587 -1.6998 0
M  V30 2395 C 216.859 -2.83977 -2.22238 0
M  V30 2396 O 215.963 -2.495 -3.28365 0
M  V30 2397 H 215.304 -0.567103 -0.345384 0
M  V30 2398 H 217.834 -1.98879 -0.480445 0
M  V30 2399 H 217.844 -3.0887 -2.66577 0
M  V30 2400 H 216.519 -3.77685 -1.74146 0
M  V30 2401 H 215.096 -2.35277 -2.89308 0
M  V30 2402 N 217.281 0.66697 -1.42791 0
M  V30 2403 C 218.231 1.77313 -1.43332 0
M  V30 2404 C 219.215 1.5801 -0.303586 0
M  V30 2405 O 220.407 1.68356 -0.546385 0
M  V30 2406 C 217.536 3.15822 -1.34578 0
M  V30 2407 C 216.622 3.40721 -2.52528 0
M  V30 2408 N 217.013 3.36162 -3.77927 0
M  V30 2409 C 215.311 3.71387 -2.46956 0
M  V30 2410 C 216.012 3.60762 -4.56318 0
M  V30 2411 N 214.988 3.81908 -3.86843 0
M  V30 2412 H 218.79 1.72193 -2.38174 0
M  V30 2413 H 216.304 0.868114 -1.3725 0
M  V30 2414 H 218.301 3.951 -1.33048 0
M  V30 2415 H 216.961 3.22133 -0.407453 0
M  V30 2416 H 217.972 3.15885 -4.10411 0
M  V30 2417 H 214.649 3.84897 -1.61743 0
M  V30 2418 H 216.039 3.63132 -5.65318 0
M  V30 2419 N 218.759 1.29093 0.90403 0
M  V30 2420 C 219.987 1.19689 1.68766 0
M  V30 2421 C 220.402 -0.243113 1.87228 0
M  V30 2422 O 219.759 -1.16326 1.40621 0
M  V30 2423 C 219.81 1.90144 3.07453 0
M  V30 2424 O 219.531 3.2852 2.89838 0
M  V30 2425 C 221.032 1.87162 4.01852 0
M  V30 2426 H 218.252 0.415035 0.527244 0
M  V30 2427 H 220.796 1.7039 1.13082 0
M  V30 2428 H 218.951 1.43289 3.59926 0
M  V30 2429 H 219.365 3.63944 3.77684 0
M  V30 2430 H 220.839 2.41032 4.96596 0
M  V30 2431 H 221.316 0.84617 4.30972 0
M  V30 2432 H 221.922 2.33741 3.5531 0
M  V30 2433 N 220.237 -1.11381 1.11499 0
M  V30 2434 C 221.2 -2.15622 0.777153 0
M  V30 2435 C 222.2 -1.59504 -0.203779 0
M  V30 2436 O 223.39 -1.74188 0.020782 0
M  V30 2437 C 220.522 -3.40556 0.153116 0
M  V30 2438 H 221.715 -2.47021 1.70061 0
M  V30 2439 H 219.268 -1.26577 0.916952 0
M  V30 2440 H 220.003 -3.14767 -0.780536 0
M  V30 2441 H 219.788 -3.8257 0.859238 0
M  V30 2442 H 221.278 -4.17546 -0.0671044 0
M  V30 2443 N 221.715 -0.905404 -1.28997 0
M  V30 2444 C 223.126 -0.581953 -1.77398 0
M  V30 2445 C 223.477 0.902552 -1.74208 0
M  V30 2446 O 222.602 1.70584 -1.33154 0
M  V30 2447 C 223.197 -1.04961 -3.22131 0
M  V30 2448 C 221.756 -0.777229 -3.68288 0
M  V30 2449 C 220.903 -1.22109 -2.48967 0
M  V30 2450 H 223.854 -1.08754 -1.15578 0
M  V30 2451 H 223.875 -0.387387 -3.78523 0
M  V30 2452 H 223.387 -2.13008 -3.24421 0
M  V30 2453 H 221.488 0.290383 -3.71467 0
M  V30 2454 H 221.601 -1.37911 -4.58822 0
M  V30 2455 H 219.965 -0.639971 -2.46529 0
M  V30 2456 H 220.748 -2.30972 -2.53982 0
M  V30 2457 N 223.193 1.4272 -0.668489 0
M  V30 2458 C 224.126 2.28111 0.0637898 0
M  V30 2459 C 225.104 1.40705 0.814912 0
M  V30 2460 O 226.288 1.70146 0.81134 0
M  V30 2461 C 223.415 3.20429 1.0974 0
M  V30 2462 C 222.461 4.24197 0.442579 0
M  V30 2463 S 223.294 5.29563 -0.795173 0
M  V30 2464 C 224.45 6.25449 0.237516 0
M  V30 2465 H 224.683 2.8987 -0.660521 0
M  V30 2466 H 222.216 1.47456 -0.457821 0
M  V30 2467 H 224.174 3.74158 1.68868 0
M  V30 2468 H 222.835 2.57818 1.79411 0
M  V30 2469 H 222.028 4.88954 1.22227 0
M  V30 2470 H 221.63 3.73925 -0.0749554 0
M  V30 2471 H 223.922 6.68524 1.09915 0
M  V30 2472 H 224.865 7.07104 -0.375421 0
M  V30 2473 H 225.273 5.61511 0.580167 0
M  V30 2474 N 224.671 0.411399 1.52136 0
M  V30 2475 C 225.896 -0.165538 2.06738 0
M  V30 2476 C 226.321 -1.379 1.27926 0
M  V30 2477 O 225.679 -1.78628 0.310114 0
M  V30 2478 C 225.727 -0.492124 3.57226 0
M  V30 2479 O 224.831 -1.58276 3.80818 0
M  V30 2480 H 224.172 -0.0132132 0.663869 0
M  V30 2481 H 226.702 0.585253 1.96051 0
M  V30 2482 H 226.712 -0.750104 4.01045 0
M  V30 2483 H 225.387 0.394922 4.14021 0
M  V30 2484 H 223.964 -1.31677 3.48877 0
M  V30 2485 N 226.149 -1.5696 0.141893 0
M  V30 2486 C 227.374 -2.00754 -0.520838 0
M  V30 2487 C 227.799 -1.0213 -1.57959 0
M  V30 2488 O 227.157 0.00371324 -1.813 0
M  V30 2489 C 227.205 -3.43318 -1.10294 0
M  V30 2490 O 226.309 -3.47679 -2.21795 0
M  V30 2491 H 225.65 -0.651564 -0.127908 0
M  V30 2492 H 228.18 -2.03221 0.23712 0
M  V30 2493 H 228.19 -3.82012 -1.43287 0
M  V30 2494 H 226.865 -4.14608 -0.327574 0
M  V30 2495 H 225.442 -3.20824 -1.9007 0
M  V30 2496 N 227.627 0.131896 -1.57047 0
M  V30 2497 C 228.574 1.16236 -1.99393 0
M  V30 2498 C 229.544 1.41863 -0.863943 0
M  V30 2499 O 230.729 1.53946 -1.12718 0
M  V30 2500 C 227.869 2.48708 -2.39245 0
M  V30 2501 C 226.982 2.30127 -3.65603 0
M  V30 2502 C 226.117 3.55738 -3.94492 0
M  V30 2503 C 225.156 3.32259 -5.14073 0
M  V30 2504 N 224.293 4.50039 -5.38896 0
M  V30 2505 H 229.133 0.794251 -2.87221 0
M  V30 2506 H 226.67 0.380707 -1.42088 0
M  V30 2507 H 228.628 3.25969 -2.60384 0
M  V30 2508 H 227.258 2.83437 -1.54478 0
M  V30 2509 H 226.31 1.43845 -3.52154 0
M  V30 2510 H 227.622 2.08746 -4.5302 0
M  V30 2511 H 226.776 4.41423 -4.1621 0
M  V30 2512 H 225.515 3.80138 -3.05526 0
M  V30 2513 H 224.52 2.44963 -4.92212 0
M  V30 2514 H 225.745 3.09242 -6.04604 0
M  V30 2515 H 223.691 4.74584 -4.52886 0
M  V30 2516 H 223.608 4.31716 -6.2061 0
M  V30 2517 H 224.876 5.36895 -5.65123 0
M  V30 2518 N 229.106 1.52395 0.401703 0
M  V30 2519 C 230.354 1.66488 1.14569 0
M  V30 2520 C 230.675 0.400897 1.90835 0
M  V30 2521 O 229.945 -0.584415 1.8698 0
M  V30 2522 H 228.525 0.613672 0.425929 0
M  V30 2523 H 231.187 1.89464 0.457093 0
M  V30 2524 H 230.283 2.50942 1.85566 0
M  V30 2525 N 230.584 -0.659388 1.43143 0
M  V30 2526 C 231.547 -1.75432 1.47501 0
M  V30 2527 C 232.547 -1.56707 0.360512 0
M  V30 2528 O 233.737 -1.62717 0.622002 0
M  V30 2529 C 230.869 -3.14239 1.32162 0
M  V30 2530 H 232.062 -1.7295 2.45006 0
M  V30 2531 H 229.615 -0.870469 1.29817 0
M  V30 2532 H 230.35 -3.22336 0.356401 0
M  V30 2533 H 230.135 -3.29235 2.12948 0
M  V30 2534 H 231.625 -3.94094 1.3813 0
M  V30 2535 N 232.062 -1.29571 -0.897171 0
M  V30 2536 C 233.31 -1.17456 -1.64464 0
M  V30 2537 C 233.631 0.273698 -1.9307 0
M  V30 2538 O 232.901 1.18684 -1.55855 0
M  V30 2539 H 231.481 -0.431706 -0.609622 0
M  V30 2540 H 234.143 -1.62531 -1.07562 0
M  V30 2541 H 233.239 -1.72648 -2.59998 0
M  V30 2542 N 233.54 1.10788 -1.12088 0
M  V30 2543 C 234.47 2.19083 -0.807755 0
M  V30 2544 C 235.451 1.6858 0.226859 0
M  V30 2545 O 236.636 1.93997 0.0888475 0
M  V30 2546 C 233.766 3.46344 -0.257576 0
M  V30 2547 C 232.72 4.101 -1.22483 0
M  V30 2548 C 232.046 5.32016 -0.535052 0
M  V30 2549 C 233.346 4.54236 -2.57811 0
M  V30 2550 H 235.04 2.45534 -1.71328 0
M  V30 2551 H 232.586 1.1801 -0.825205 0
M  V30 2552 H 234.539 4.21392 -0.0262679 0
M  V30 2553 H 233.263 3.19373 0.683278 0
M  V30 2554 H 231.922 3.37054 -1.44189 0
M  V30 2555 H 231.57 5.01319 0.410827 0
M  V30 2556 H 231.27 5.75625 -1.18024 0
M  V30 2557 H 232.794 6.09799 -0.312695 0
M  V30 2558 H 234.208 5.20575 -2.40155 0
M  V30 2559 H 232.605 5.08682 -3.18375 0
M  V30 2560 H 233.675 3.6734 -3.16528 0
M  V30 2561 N 235.018 0.912232 1.28515 0
M  V30 2562 C 236.295 0.463597 1.90027 0
M  V30 2563 C 236.675 -1.05753 1.82701 0
M  V30 2564 O 236.023 -1.90492 1.26194 0
M  V30 2565 C 236.233 0.992253 3.34597 0
M  V30 2566 C 237.581 1.04344 4.11579 0
M  V30 2567 O 238.605 0.94079 3.43551 0
M  V30 2568 O 237.464 1.1995 5.33174 0
M  V30 2569 H 234.558 0.146666 0.813891 0
M  V30 2570 H 237.104 1.00292 1.36893 0
M  V30 2571 H 235.876 2.03623 3.34146 0
M  V30 2572 H 235.499 0.433672 3.95228 0
M  V30 2573 N 236.496 -1.42363 0.676048 0
M  V30 2574 C 237.742 -2.0182 0.199125 0
M  V30 2575 C 238.075 -1.53339 -1.19168 0
M  V30 2576 O 237.35 -0.736124 -1.80032 0
M  V30 2577 C 237.633 -3.59331 0.235144 0
M  V30 2578 C 237.486 -4.17989 1.66149 0
M  V30 2579 C 238.805 -4.3813 -0.41595 0
M  V30 2580 H 235.924 -0.733293 0.0738311 0
M  V30 2581 H 238.566 -1.69368 0.86107 0
M  V30 2582 H 236.716 -3.87109 -0.328487 0
M  V30 2583 H 238.388 -4.0116 2.27747 0
M  V30 2584 H 236.631 -3.7377 2.20178 0
M  V30 2585 H 237.302 -5.27126 1.63837 0
M  V30 2586 H 239.778 -4.16051 0.0638529 0
M  V30 2587 H 238.654 -5.47717 -0.360115 0
M  V30 2588 H 238.915 -4.16101 -1.49373 0
M  V30 2589 N 237.974 -0.419461 -1.51915 0
M  V30 2590 C 238.921 0.400927 -2.27291 0
M  V30 2591 C 239.891 1.03224 -1.30131 0
M  V30 2592 O 241.076 1.05455 -1.59009 0
M  V30 2593 C 238.216 1.50603 -3.10504 0
M  V30 2594 C 237.329 0.89462 -4.22635 0
M  V30 2595 C 236.464 1.97328 -4.93189 0
M  V30 2596 C 235.503 1.33935 -5.97267 0
M  V30 2597 N 234.64 2.3586 -6.61298 0
M  V30 2598 H 239.48 -0.248251 -2.96964 0
M  V30 2599 H 237.017 -0.134266 -1.46486 0
M  V30 2600 H 238.975 2.15783 -3.57062 0
M  V30 2601 H 237.605 2.12509 -2.42981 0
M  V30 2602 H 236.657 0.131583 -3.80172 0
M  V30 2603 H 237.969 0.391641 -4.9726 0
M  V30 2604 H 237.123 2.70211 -5.43204 0
M  V30 2605 H 235.862 2.50994 -4.18155 0
M  V30 2606 H 234.867 0.595896 -5.46561 0
M  V30 2607 H 236.092 0.810252 -6.74249 0
M  V30 2608 H 234.038 2.88639 -5.89087 0
M  V30 2609 H 233.955 1.90403 -7.3163 0
M  V30 2610 H 235.223 3.08282 -7.15949 0
M  V30 2611 N 239.452 1.56882 -0.150215 0
M  V30 2612 C 240.415 2.1573 0.774157 0
M  V30 2613 C 241.415 1.0999 1.17298 0
M  V30 2614 O 242.605 1.35613 1.09338 0
M  V30 2615 C 239.737 2.72302 2.05096 0
M  V30 2616 H 240.93 2.98752 0.262201 0
M  V30 2617 H 238.483 1.55985 0.099248 0
M  V30 2618 H 239.218 1.92956 2.6065 0
M  V30 2619 H 239.003 3.49665 1.77416 0
M  V30 2620 H 240.493 3.17632 2.71109 0
M  V30 2621 N 240.93 -0.123565 1.57115 0
M  V30 2622 C 241.86 -1.15309 2.03042 0
M  V30 2623 C 242.841 -1.43454 0.914061 0
M  V30 2624 O 244.026 -1.53973 1.18347 0
M  V30 2625 C 241.156 -2.48043 2.43089 0
M  V30 2626 C 240.11 -2.3437 3.58127 0
M  V30 2627 C 239.436 -3.72026 3.84059 0
M  V30 2628 C 240.736 -1.80804 4.90007 0
M  V30 2629 H 242.43 -0.771102 2.893 0
M  V30 2630 H 239.976 -0.369479 1.39179 0
M  V30 2631 H 241.929 -3.20311 2.73823 0
M  V30 2632 H 240.653 -2.88122 1.53796 0
M  V30 2633 H 239.312 -1.64551 3.27595 0
M  V30 2634 H 238.96 -4.09582 2.91979 0
M  V30 2635 H 238.66 -3.63732 4.6149 0
M  V30 2636 H 240.184 -4.45806 4.1724 0
M  V30 2637 H 241.598 -2.42886 5.19307 0
M  V30 2638 H 239.995 -1.83343 5.71407 0
M  V30 2639 H 241.065 -0.76528 4.78823 0
M  V30 2640 N 242.408 -1.52605 -0.393616 0
M  V30 2641 C 243.824 -1.41753 -0.733357 0
M  V30 2642 C 244.024 -0.534293 -1.94287 0
M  V30 2643 O 243.08 -0.0059787 -2.52499 0
M  V30 2644 C 244.393 -2.84531 -0.972772 0
M  V30 2645 C 245.941 -2.93978 -1.07453 0
M  V30 2646 C 246.416 -4.37756 -1.3466 0
M  V30 2647 N 247.907 -4.4106 -1.41492 0
M  V30 2648 C 248.642 -5.49387 -1.642 0
M  V30 2649 N 248.138 -6.67806 -1.8441 0
M  V30 2650 N 249.931 -5.36923 -1.66342 0
M  V30 2651 H 242.082 -2.08555 0.402328 0
M  V30 2652 H 244.345 -0.940654 0.117789 0
M  V30 2653 H 244.051 -3.51353 -0.156204 0
M  V30 2654 H 243.925 -3.26508 -1.88871 0
M  V30 2655 H 246.312 -2.27326 -1.88167 0
M  V30 2656 H 246.393 -2.55435 -0.136605 0
M  V30 2657 H 246.037 -5.04972 -0.544581 0
M  V30 2658 H 245.967 -4.73848 -2.2973 0
M  V30 2659 H 248.458 -3.55705 -1.27601 0
M  V30 2660 H 248.771 -7.46141 -2.01231 0
M  V30 2661 H 247.116 -6.70843 -1.81644 0
M  V30 2662 H 250.307 -4.43381 -1.50102 0
M  V30 2663 H 250.48 -6.21416 -1.837 0
M  V30 2664 N 243.887 0.651787 -1.4349 0
M  V30 2665 C 244.85 1.74647 -1.48429 0
M  V30 2666 C 245.85 1.56513 -0.368817 0
M  V30 2667 O 247.04 1.62385 -0.630623 0
M  V30 2668 C 244.172 3.13533 -1.33827 0
M  V30 2669 H 245.365 1.71649 -2.4592 0
M  V30 2670 H 242.918 0.863573 -1.30277 0
M  V30 2671 H 243.653 3.22142 -0.37349 0
M  V30 2672 H 243.438 3.28101 -2.14691 0
M  V30 2673 H 244.928 3.93356 -1.40218 0
M  V30 2674 N 245.365 1.30045 0.890287 0
M  V30 2675 C 246.612 1.18561 1.64163 0
M  V30 2676 C 246.94 -0.260852 1.92743 0
M  V30 2677 O 246.195 -1.20376 1.54299 0
M  V30 2678 C 246.494 1.95409 2.99249 0
M  V30 2679 C 246.16 3.45066 2.90242 0
M  V30 2680 C 244.822 3.85878 2.87492 0
M  V30 2681 C 247.174 4.4039 2.78758 0
M  V30 2682 C 244.502 5.20314 2.7109 0
M  V30 2683 C 246.854 5.74928 2.63894 0
M  V30 2684 C 245.518 6.14986 2.59516 0
M  V30 2685 H 244.788 0.433846 0.600715 0
M  V30 2686 H 247.435 1.61088 1.03552 0
M  V30 2687 H 245.74 1.45501 3.63781 0
M  V30 2688 H 247.437 1.8392 3.56334 0
M  V30 2689 H 244.027 3.12631 2.93189 0
M  V30 2690 H 248.211 4.09806 2.79952 0
M  V30 2691 H 243.467 5.50449 2.66112 0
M  V30 2692 H 247.641 6.48434 2.53981 0
M  V30 2693 H 245.268 7.19104 2.46565 0
M  V30 2694 N 246.843 -1.10192 1.12674 0
M  V30 2695 C 248.259 -1.34235 0.863317 0
M  V30 2696 C 248.459 -1.95062 -0.505277 0
M  V30 2697 O 247.515 -2.19192 -1.25345 0
M  V30 2698 C 248.828 -2.2616 1.98172 0
M  V30 2699 C 250.376 -2.3969 2.0129 0
M  V30 2700 C 250.851 -3.34946 3.1237 0
M  V30 2701 N 252.342 -3.42515 3.11829 0
M  V30 2702 C 253.077 -4.16199 3.94419 0
M  V30 2703 N 252.573 -4.92747 4.87004 0
M  V30 2704 N 254.366 -4.11843 3.82547 0
M  V30 2705 H 246.517 -0.690798 2.00853 0
M  V30 2706 H 248.78 -0.366774 0.874174 0
M  V30 2707 H 248.486 -1.8868 2.96804 0
M  V30 2708 H 248.36 -3.26488 1.88906 0
M  V30 2709 H 250.747 -2.76438 1.03276 0
M  V30 2710 H 250.828 -1.39169 2.14629 0
M  V30 2711 H 250.472 -2.98923 4.10619 0
M  V30 2712 H 250.402 -4.35353 2.96269 0
M  V30 2713 H 252.893 -2.87926 2.44759 0
M  V30 2714 H 253.206 -5.46376 5.46528 0
M  V30 2715 H 251.551 -4.91862 4.91016 0
M  V30 2716 H 254.742 -3.51136 3.0955 0
M  V30 2717 H 254.915 -4.69007 4.47142 0
M  V30 2718 N 248.321 -0.919034 -1.28029 0
M  V30 2719 C 249.567 -0.555757 -1.95036 0
M  V30 2720 C 249.9 0.899198 -1.72128 0
M  V30 2721 O 249.175 1.64023 -1.04531 0
M  V30 2722 C 249.458 -0.872024 -3.49382 0
M  V30 2723 C 249.311 -2.3801 -3.81669 0
M  V30 2724 C 250.63 -0.37185 -4.38526 0
M  V30 2725 H 247.749 -0.203386 -0.708381 0
M  V30 2726 H 250.391 -1.14924 -1.51303 0
M  V30 2727 H 248.541 -0.366946 -3.86763 0
M  V30 2728 H 250.213 -2.9562 -3.54128 0
M  V30 2729 H 248.456 -2.83289 -3.28526 0
M  V30 2730 H 249.127 -2.55192 -4.8947 0
M  V30 2731 H 251.603 -0.804602 -4.08247 0
M  V30 2732 H 250.479 -0.622173 -5.45362 0
M  V30 2733 H 250.74 0.727934 -4.36066 0
M  V30 2734 N 249.799 1.42003 -0.683588 0
M  V30 2735 C 250.729 2.33487 -0.024866 0
M  V30 2736 C 251.71 1.51163 0.779975 0
M  V30 2737 O 252.895 1.79739 0.735362 0
M  V30 2738 C 250.025 3.3487 0.920836 0
M  V30 2739 C 248.979 4.27414 0.223958 0
M  V30 2740 C 248.305 5.19074 1.2832 0
M  V30 2741 C 249.605 5.14445 -0.90242 0
M  V30 2742 H 251.299 2.88819 -0.788921 0
M  V30 2743 H 248.845 1.38873 -0.38083 0
M  V30 2744 H 250.798 3.97787 1.39081 0
M  V30 2745 H 249.522 2.77861 1.71642 0
M  V30 2746 H 248.181 3.65904 -0.225864 0
M  V30 2747 H 247.829 4.58387 2.071 0
M  V30 2748 H 247.529 5.81822 0.821995 0
M  V30 2749 H 249.053 5.84867 1.75392 0
M  V30 2750 H 250.467 5.70998 -0.513272 0
M  V30 2751 H 248.864 5.86072 -1.28997 0
M  V30 2752 H 249.934 4.52322 -1.74737 0
M  V30 2753 N 251.277 0.427512 1.51691 0
M  V30 2754 C 252.693 0.0792977 1.59403 0
M  V30 2755 C 252.893 -1.41035 1.43914 0
M  V30 2756 O 251.949 -2.17922 1.27539 0
M  V30 2757 C 253.262 0.590636 2.94842 0
M  V30 2758 C 254.81 0.550215 3.08126 0
M  V30 2759 C 255.285 1.03836 4.46074 0
M  V30 2760 N 256.776 0.995943 4.52366 0
M  V30 2761 C 257.511 1.34463 5.57411 0
M  V30 2762 N 257.007 1.76569 6.69922 0
M  V30 2763 N 258.8 1.26343 5.47717 0
M  V30 2764 H 250.951 1.39687 1.60004 0
M  V30 2765 H 253.214 0.575003 0.753708 0
M  V30 2766 H 252.92 1.63251 3.11516 0
M  V30 2767 H 252.794 0.0102061 3.77199 0
M  V30 2768 H 255.181 -0.482654 2.91126 0
M  V30 2769 H 255.262 1.16693 2.27632 0
M  V30 2770 H 254.906 2.06965 4.63819 0
M  V30 2771 H 254.836 0.398286 5.25092 0
M  V30 2772 H 257.327 0.68661 3.7161 0
M  V30 2773 H 257.64 2.01438 7.46085 0
M  V30 2774 H 255.985 1.80488 6.71155 0
M  V30 2775 H 259.176 0.933209 4.58703 0
M  V30 2776 H 259.349 1.53846 6.29472 0
M  V30 2777 N 252.755 -1.56801 0.158532 0
M  V30 2778 C 254.166 -1.83189 -0.360366 0
M  V30 2779 C 254.517 -1.07778 -1.63946 0
M  V30 2780 O 253.642 -0.326718 -2.13919 0
M  V30 2781 C 254.237 -3.32297 -0.660595 0
M  V30 2782 C 252.796 -3.59227 -1.12398 0
M  V30 2783 C 251.943 -2.76877 -0.153097 0
M  V30 2784 H 254.894 -1.54008 0.383031 0
M  V30 2785 H 254.915 -3.4908 -1.51405 0
M  V30 2786 H 254.427 -3.87156 0.270527 0
M  V30 2787 H 252.528 -3.09766 -2.07064 0
M  V30 2788 H 252.641 -4.67632 -1.04197 0
M  V30 2789 H 251.005 -2.46319 -0.647983 0
M  V30 2790 H 251.788 -3.34511 0.77182 0
M  V30 2791 N 254.233 0.115231 -1.57178 0
M  V30 2792 C 255.163 1.1423 -2.03651 0
M  V30 2793 C 256.144 1.42967 -0.921655 0
M  V30 2794 O 257.329 1.53343 -1.19162 0
M  V30 2795 C 254.459 2.4675 -2.44401 0
M  V30 2796 C 253.413 2.32467 -3.59365 0
M  V30 2797 C 252.739 3.69984 -3.86026 0
M  V30 2798 C 254.039 1.78203 -4.90959 0
M  V30 2799 H 255.733 0.755749 -2.89705 0
M  V30 2800 H 253.279 0.362093 -1.39373 0
M  V30 2801 H 255.232 3.18854 -2.75517 0
M  V30 2802 H 253.956 2.87302 -1.55322 0
M  V30 2803 H 252.615 1.62811 -3.28463 0
M  V30 2804 H 252.263 4.08028 -2.94147 0
M  V30 2805 H 251.963 3.61279 -4.63412 0
M  V30 2806 H 253.487 4.43587 -4.19599 0
M  V30 2807 H 254.901 2.40128 -5.20587 0
M  V30 2808 H 253.298 1.8031 -5.72371 0
M  V30 2809 H 254.368 0.739876 -4.79222 0
M  V30 2810 N 255.711 1.52812 0.385517 0
M  V30 2811 C 257.127 1.4214 0.725829 0
M  V30 2812 C 257.327 0.544589 1.94001 0
M  V30 2813 O 256.383 0.0193693 2.52493 0
M  V30 2814 C 257.696 2.85042 0.957668 0
M  V30 2815 C 259.244 2.94543 1.05892 0
M  V30 2816 C 259.719 4.38464 1.32337 0
M  V30 2817 N 261.21 4.41804 1.39151 0
M  V30 2818 C 261.945 5.5025 1.61285 0
M  V30 2819 N 261.441 6.68775 1.80866 0
M  V30 2820 N 263.234 5.37798 1.63492 0
M  V30 2821 H 255.385 2.08338 -0.413383 0
M  V30 2822 H 257.648 0.940016 -0.122775 0
M  V30 2823 H 257.354 3.51431 0.137568 0
M  V30 2824 H 257.228 3.27505 1.87137 0
M  V30 2825 H 259.615 2.28321 1.86959 0
M  V30 2826 H 259.696 2.55504 0.123057 0
M  V30 2827 H 259.34 5.05254 0.517793 0
M  V30 2828 H 259.27 4.75059 2.27214 0
M  V30 2829 H 261.761 3.56377 1.25713 0
M  V30 2830 H 262.074 7.47197 1.97271 0
M  V30 2831 H 260.419 6.71797 1.78083 0
M  V30 2832 H 263.61 4.44171 1.47749 0
M  V30 2833 H 263.783 6.22382 1.80402 0
M  V30 2834 N 257.189 -0.644168 1.43834 0
M  V30 2835 C 258.119 -1.76814 1.52509 0
M  V30 2836 C 259.1 -1.65823 0.379052 0
M  V30 2837 O 260.285 -1.84781 0.597466 0
M  V30 2838 C 257.415 -3.15288 1.4564 0
M  V30 2839 C 256.369 -3.41053 2.58586 0
M  V30 2840 C 255.695 -4.79421 2.36769 0
M  V30 2841 C 256.995 -3.34902 4.00797 0
M  V30 2842 H 258.689 -1.69812 2.46586 0
M  V30 2843 H 256.235 -0.815542 1.1868 0
M  V30 2844 H 258.188 -3.93681 1.50311 0
M  V30 2845 H 256.912 -3.23043 0.480725 0
M  V30 2846 H 255.571 -2.65035 2.53282 0
M  V30 2847 H 255.219 -4.83863 1.37424 0
M  V30 2848 H 254.919 -4.9762 3.12487 0
M  V30 2849 H 256.443 -5.6006 2.43238 0
M  V30 2850 H 257.857 -4.03218 4.07539 0
M  V30 2851 H 256.254 -3.64637 4.76613 0
M  V30 2852 H 257.324 -2.32928 4.25291 0
M  V30 2853 N 258.668 -1.30515 -0.883378 0
M  V30 2854 C 259.914 -1.19607 -1.63774 0
M  V30 2855 C 260.247 0.248314 -1.92606 0
M  V30 2856 O 259.522 1.17742 -1.54813 0
M  V30 2857 C 259.805 -2.02669 -2.97653 0
M  V30 2858 C 259.658 -3.55335 -2.75784 0
M  V30 2859 C 260.977 -1.86573 -3.98596 0
M  V30 2860 H 258.096 -0.435856 -0.594305 0
M  V30 2861 H 260.738 -1.60165 -1.02212 0
M  V30 2862 H 258.888 -1.68208 -3.50197 0
M  V30 2863 H 260.56 -3.99863 -2.30016 0
M  V30 2864 H 258.803 -3.79438 -2.1026 0
M  V30 2865 H 259.474 -4.08745 -3.70988 0
M  V30 2866 H 261.95 -2.16703 -3.55217 0
M  V30 2867 H 260.826 -2.47014 -4.90179 0
M  V30 2868 H 261.087 -0.825321 -4.34328 0
M  V30 2869 N 260.146 1.09593 -1.13257 0
M  V30 2870 C 261.371 1.8604 -0.916732 0
M  V30 2871 C 261.796 1.80504 0.529146 0
M  V30 2872 O 261.154 1.18127 1.37534 0
M  V30 2873 C 261.202 3.32017 -1.40703 0
M  V30 2874 O 260.306 4.08141 -0.591153 0
M  V30 2875 H 259.647 0.576943 -0.328683 0
M  V30 2876 H 262.177 1.38405 -1.50682 0
M  V30 2877 H 262.187 3.82865 -1.4099 0
M  V30 2878 H 260.862 3.35361 -2.45979 0
M  V30 2879 H 259.439 3.67084 -0.656005 0
M  V30 2880 N 261.624 0.925811 1.2754 0
M  V30 2881 C 262.872 0.564138 1.94067 0
M  V30 2882 C 263.193 -0.897188 1.73134 0
M  V30 2883 O 262.463 -1.63573 1.07799 0
M  V30 2884 H 261.043 0.205645 0.718136 0
M  V30 2885 H 263.705 1.1778 1.55287 0
M  V30 2886 H 262.801 0.76881 3.02483 0
M  V30 2887 N 263.102 -1.41638 0.69111 0
M  V30 2888 C 264.348 -2.01598 0.220519 0
M  V30 2889 C 264.681 -1.54594 -1.17535 0
M  V30 2890 O 263.956 -0.755177 -1.79241 0
M  V30 2891 C 264.239 -3.59062 0.273243 0
M  V30 2892 C 264.092 -4.16203 1.70573 0
M  V30 2893 C 265.411 -4.38546 -0.369457 0
M  V30 2894 H 262.53 -0.732468 0.0816045 0
M  V30 2895 H 265.172 -1.68445 0.878986 0
M  V30 2896 H 263.322 -3.87435 -0.287411 0
M  V30 2897 H 264.994 -3.98722 2.31989 0
M  V30 2898 H 263.237 -3.71414 2.2413 0
M  V30 2899 H 263.908 -5.25358 1.69419 0
M  V30 2900 H 266.384 -4.1596 0.107977 0
M  V30 2901 H 265.26 -5.48069 -0.302002 0
M  V30 2902 H 265.521 -4.17662 -1.44951 0
M  V30 2903 N 264.58 -0.43555 -1.51462 0
M  V30 2904 C 265.991 0.0279871 -1.86679 0
M  V30 2905 C 266.342 1.42104 -1.35281 0
M  V30 2906 O 265.467 2.04667 -0.702878 0
M  V30 2907 C 266.062 0.0575626 -3.38751 0
M  V30 2908 C 264.621 0.465507 -3.7351 0
M  V30 2909 C 263.768 -0.342996 -2.75171 0
M  V30 2910 H 266.719 -0.651473 -1.44712 0
M  V30 2911 H 266.74 0.867421 -3.70481 0
M  V30 2912 H 266.252 -0.956448 -3.7613 0
M  V30 2913 H 264.353 1.48519 -3.41721 0
M  V30 2914 H 264.466 0.191546 -4.78717 0
M  V30 2915 H 262.83 0.198442 -2.53926 0
M  V30 2916 H 263.613 -1.35585 -3.15391 0
M  V30 2917 N 266.058 1.56714 -0.166846 0
M  V30 2918 C 267.283 2.01557 0.488833 0
M  V30 2919 C 267.708 1.0463 1.56314 0
M  V30 2920 O 267.066 0.0251304 1.81283 0
M  V30 2921 C 267.114 3.4503 1.04818 0
M  V30 2922 O 266.218 3.51163 2.16236 0
M  V30 2923 H 265.559 0.653516 0.117526 0
M  V30 2924 H 268.089 2.02818 -0.269421 0
M  V30 2925 H 268.099 3.84243 1.37191 0
M  V30 2926 H 266.774 4.15077 0.261572 0
M  V30 2927 H 265.351 3.23807 1.84942 0
M  V30 2928 N 267.536 -0.106894 1.57237 0
M  V30 2929 C 268.466 -1.13148 2.04254 0
M  V30 2930 C 269.447 -1.42476 0.929224 0
M  V30 2931 O 270.632 -1.52709 1.19973 0
M  V30 2932 C 267.762 -2.4545 2.45706 0
M  V30 2933 C 266.716 -2.30558 3.60592 0
M  V30 2934 C 266.042 -3.67931 3.87983 0
M  V30 2935 C 267.342 -1.75597 4.91897 0
M  V30 2936 H 269.036 -0.740374 2.90101 0
M  V30 2937 H 266.582 -0.354696 1.39563 0
M  V30 2938 H 268.535 -3.17389 2.77205 0
M  V30 2939 H 267.259 -2.86475 1.56843 0
M  V30 2940 H 265.918 -1.61067 3.29322 0
M  V30 2941 H 265.566 -4.06462 2.96306 0
M  V30 2942 H 265.266 -3.58817 4.65322 0
M  V30 2943 H 266.79 -4.41356 4.21945 0
M  V30 2944 H 268.204 -2.37364 5.21854 0
M  V30 2945 H 266.601 -1.77272 5.73319 0
M  V30 2946 H 267.671 -0.714451 4.79608 0
M  V30 2947 N 269.014 -1.53014 -0.377408 0
M  V30 2948 C 269.946 -1.74884 -1.48149 0
M  V30 2949 C 270.959 -0.629433 -1.5014 0
M  V30 2950 O 272.148 -0.905416 -1.53833 0
M  V30 2951 C 269.248 -1.80299 -2.86959 0
M  V30 2952 C 268.421 -3.09776 -3.08801 0
M  V30 2953 C 267.48 -3.06586 -4.27658 0
M  V30 2954 O 266.506 -3.80419 -4.23403 0
M  V30 2955 N 267.708 -2.26578 -5.34455 0
M  V30 2956 H 270.473 -2.70147 -1.29771 0
M  V30 2957 H 268.034 -1.51646 -0.56703 0
M  V30 2958 H 270.026 -1.75657 -3.64591 0
M  V30 2959 H 268.596 -0.92372 -2.98641 0
M  V30 2960 H 267.816 -3.27815 -2.18931 0
M  V30 2961 H 269.104 -3.95366 -3.20255 0
M  V30 2962 H 268.502 -1.66081 -5.40771 0
M  V30 2963 H 267.059 -2.27766 -6.10709 0
M  V30 2964 N 270.492 0.636531 -1.44174 0
M  V30 2965 C 271.738 1.39826 -1.4689 0
M  V30 2966 C 272.071 1.93947 -0.0990585 0
M  V30 2967 O 271.346 1.73325 0.882544 0
M  V30 2968 C 271.629 2.56751 -2.5249 0
M  V30 2969 C 271.482 2.08014 -3.98811 0
M  V30 2970 C 272.801 3.58946 -2.54649 0
M  V30 2971 H 269.92 0.507075 -0.53483 0
M  V30 2972 H 272.562 0.720188 -1.75822 0
M  V30 2973 H 270.712 3.14597 -2.2795 0
M  V30 2974 H 272.384 1.5504 -4.34466 0
M  V30 2975 H 270.627 1.39242 -4.10846 0
M  V30 2976 H 271.298 2.92169 -4.68339 0
M  V30 2977 H 273.774 3.1089 -2.76563 0
M  V30 2978 H 272.65 4.38286 -3.3045 0
M  V30 2979 H 272.911 4.12655 -1.58646 0
M  V30 2980 N 271.97 1.30982 0.876444 0
M  V30 2981 C 273.216 1.20474 1.63138 0
M  V30 2982 C 273.549 -0.238096 1.92735 0
M  V30 2983 O 272.824 -1.1692 1.55435 0
M  V30 2984 C 273.107 2.04244 2.96574 0
M  V30 2985 C 272.96 3.56793 2.73896 0
M  V30 2986 C 274.279 1.88684 3.97601 0
M  V30 2987 H 271.398 0.439001 0.591985 0
M  V30 2988 H 274.04 1.60704 1.01361 0
M  V30 2989 H 272.19 1.70063 3.493 0
M  V30 2990 H 273.862 4.01077 2.27892 0
M  V30 2991 H 272.105 3.80548 2.08245 0
M  V30 2992 H 272.776 4.10706 3.68815 0
M  V30 2993 H 275.252 2.18584 3.54062 0
M  V30 2994 H 274.128 2.4961 4.88862 0
M  V30 2995 H 274.389 0.848343 4.33884 0
M  V30 2996 N 273.449 -1.08991 1.13837 0
M  V30 2997 C 274.379 -2.17771 0.842507 0
M  V30 2998 C 275.36 -1.6892 -0.20001 0
M  V30 2999 O 276.545 -1.94113 -0.0579731 0
M  V30 3000 C 273.675 -3.4589 0.312644 0
M  V30 3001 C 272.629 -4.08099 1.28992 0
M  V30 3002 C 271.955 -5.31098 0.619623 0
M  V30 3003 C 273.255 -4.50077 2.65005 0
M  V30 3004 H 274.949 -2.42777 1.75213 0
M  V30 3005 H 272.495 -1.16682 0.843875 0
M  V30 3006 H 274.448 -4.21297 0.0933043 0
M  V30 3007 H 273.172 -3.20419 -0.632382 0
M  V30 3008 H 271.831 -3.34717 1.49533 0
M  V30 3009 H 271.479 -5.0191 -0.33102 0
M  V30 3010 H 271.179 -5.73674 1.27167 0
M  V30 3011 H 272.703 -6.09224 0.409669 0
M  V30 3012 H 274.117 -5.16688 2.48407 0
M  V30 3013 H 272.514 -5.03553 3.26427 0
M  V30 3014 H 273.584 -3.62257 3.22332 0
M  V30 3015 N 274.927 -0.932562 -1.27047 0
M  V30 3016 C 275.875 -0.42603 -2.28665 0
M  V30 3017 C 276.869 0.49219 -1.62092 0
M  V30 3018 O 278.075 0.371355 -1.76128 0
M  V30 3019 H 274.45 -0.119213 -0.742491 0
M  V30 3020 H 276.421 -1.29579 -2.68797 0
M  V30 3021 C 275.17 0.301426 -3.46391 0
M  V30 3022 H 274.493 -0.39595 -3.97834 0
M  V30 3023 H 275.933 0.6202 -4.1944 0
M  V30 3024 C 274.392 1.51616 -3.00856 0
M  V30 3025 O 274.922 2.61476 -3.04948 0
M  V30 3026 N 273.128 1.36969 -2.56296 0
M  V30 3027 H 272.675 0.475873 -2.53166 0
M  V30 3028 H 272.633 2.18368 -2.26192 0
M  V30 3029 N 276.405 1.4127 -0.698611 0
M  V30 3030 C 277.63 2.06024 -0.238512 0
M  V30 3031 C 278.055 1.5224 1.10475 0
M  V30 3032 O 277.413 0.650623 1.69223 0
M  V30 3033 C 277.461 3.59988 -0.209952 0
M  V30 3034 O 276.565 4.04282 0.814235 0
M  V30 3035 H 275.906 0.653829 -0.115775 0
M  V30 3036 H 278.436 1.8098 -0.954326 0
M  V30 3037 H 278.446 4.07979 -0.0418436 0
M  V30 3038 H 277.121 3.98503 -1.1903 0
M  V30 3039 H 275.698 3.6779 0.615234 0
M  V30 3040 N 277.883 0.443576 1.51229 0
M  V30 3041 C 279.132 -0.122332 2.01329 0
M  V30 3042 C 279.445 -1.43237 1.33201 0
M  V30 3043 O 280.651 -2.0816 1.74304 0
M  V30 3044 C 279.107 -0.268551 3.58897 0
M  V30 3045 C 278.715 1.03142 4.35965 0
M  V30 3046 C 280.459 -0.787894 4.17124 0
M  V30 3047 C 278.366 0.850504 5.85252 0
M  V30 3048 H 277.296 -0.0494929 0.752374 0
M  V30 3049 H 279.947 0.574289 1.74282 0
M  V30 3050 H 278.329 -1.02832 3.82415 0
M  V30 3051 H 279.503 1.80001 4.24189 0
M  V30 3052 H 277.818 1.47977 3.89219 0
M  V30 3053 H 280.415 -0.939841 5.26375 0
M  V30 3054 H 280.758 -1.77201 3.76703 0
M  V30 3055 H 281.291 -0.0862669 3.97706 0
M  V30 3056 H 278.03 1.80718 6.30096 0
M  V30 3057 H 277.55 0.121825 5.99676 0
M  V30 3058 H 279.229 0.506163 6.45017 0
M  V30 3059 N 279.361 -1.56624 0.175154 0
M  V30 3060 C 280.608 -1.96999 -0.468811 0
M  V30 3061 C 280.936 -1.06129 -1.62994 0
M  V30 3062 O 280.191 -0.0961771 -1.95464 0
M  V30 3063 C 280.49 -3.43419 -0.989864 0
M  V30 3064 C 280.156 -4.50866 0.0557687 0
M  V30 3065 C 278.818 -4.79975 0.343134 0
M  V30 3066 C 281.17 -5.15551 0.765308 0
M  V30 3067 C 278.498 -5.71066 1.34536 0
M  V30 3068 C 280.85 -6.07724 1.75654 0
M  V30 3069 C 279.514 -6.35199 2.05132 0
M  V30 3070 H 278.784 -0.720869 -0.17155 0
M  V30 3071 H 281.431 -1.89616 0.267924 0
M  V30 3072 H 279.736 -3.47772 -1.80449 0
M  V30 3073 H 281.433 -3.72002 -1.49719 0
M  V30 3074 H 278.023 -4.28229 -0.178381 0
M  V30 3075 H 282.207 -4.9317 0.556513 0
M  V30 3076 H 277.463 -5.90635 1.57988 0
M  V30 3077 H 281.637 -6.56912 2.31169 0
M  V30 3078 H 279.264 -7.05584 2.8294 0
M  V30 3079 N 280.839 0.0985539 -1.57292 0
M  V30 3080 C 281.786 1.11981 -2.01814 0
M  V30 3081 C 282.756 1.39999 -0.89384 0
M  V30 3082 O 283.941 1.5152 -1.15958 0
M  V30 3083 C 281.081 2.43577 -2.44467 0
M  V30 3084 C 280.194 2.2232 -3.70402 0
M  V30 3085 C 279.329 3.4729 -4.01949 0
M  V30 3086 C 278.368 3.2128 -5.21005 0
M  V30 3087 N 277.505 4.38507 -5.48321 0
M  V30 3088 H 282.345 0.733149 -2.88841 0
M  V30 3089 H 279.882 0.350482 -1.42864 0
M  V30 3090 H 281.84 3.20373 -2.6724 0
M  V30 3091 H 280.47 2.80097 -1.60455 0
M  V30 3092 H 279.522 1.36343 -3.55126 0
M  V30 3093 H 280.834 1.99089 -4.57345 0
M  V30 3094 H 279.988 4.32495 -4.25479 0
M  V30 3095 H 278.727 3.73572 -3.13521 0
M  V30 3096 H 277.732 2.34468 -4.97298 0
M  V30 3097 H 278.957 2.96348 -6.11028 0
M  V30 3098 H 276.903 4.64871 -4.62851 0
M  V30 3099 H 276.82 4.18455 -6.29628 0
M  V30 3100 H 278.088 5.24787 -5.76385 0
M  V30 3101 N 282.317 1.53212 0.369288 0
M  V30 3102 C 283.28 1.7872 1.43498 0
M  V30 3103 C 284.28 0.657554 1.46741 0
M  V30 3104 O 285.47 0.925736 1.47566 0
M  V30 3105 C 282.602 1.90591 2.82645 0
M  V30 3106 H 283.795 2.73894 1.22156 0
M  V30 3107 H 281.348 1.44233 0.602203 0
M  V30 3108 H 282.083 0.974709 3.09306 0
M  V30 3109 H 281.868 2.72751 2.8169 0
M  V30 3110 H 283.358 2.11931 3.59826 0
M  V30 3111 N 283.795 -0.628877 1.44509 0
M  V30 3112 C 284.728 -1.75367 1.46019 0
M  V30 3113 C 285.706 -1.59444 0.318787 0
M  V30 3114 O 286.89 -1.81297 0.516099 0
M  V30 3115 C 284.017 -3.12965 1.29501 0
M  V30 3116 C 283.063 -3.47532 2.47233 0
M  V30 3117 S 283.896 -3.44758 4.09758 0
M  V30 3118 C 285.052 -4.84973 3.95667 0
M  V30 3119 H 285.285 -1.7382 2.41193 0
M  V30 3120 H 282.818 -0.803686 1.31834 0
M  V30 3121 H 284.776 -3.92367 1.20658 0
M  V30 3122 H 283.437 -3.12049 0.358341 0
M  V30 3123 H 282.63 -4.47664 2.31544 0
M  V30 3124 H 282.232 -2.75598 2.52828 0
M  V30 3125 H 284.524 -5.74255 3.59496 0
M  V30 3126 H 285.467 -5.05716 4.95638 0
M  V30 3127 H 285.875 -4.59653 3.27688 0
M  V30 3128 N 285.273 -1.31445 -0.869486 0
M  V30 3129 C 286.203 -1.21727 -1.99261 0
M  V30 3130 C 287.184 -0.104359 -1.6978 0
M  V30 3131 O 288.369 -0.289038 -1.92037 0
M  V30 3132 C 285.499 -0.924317 -3.34774 0
M  V30 3133 C 284.453 -1.99685 -3.78563 0
M  V30 3134 C 283.779 -1.55658 -5.11541 0
M  V30 3135 C 285.079 -3.41003 -3.95619 0
M  V30 3136 H 286.773 -2.1569 -2.07649 0
M  V30 3137 H 284.319 -1.03839 -0.997675 0
M  V30 3138 H 286.272 -0.842934 -4.12883 0
M  V30 3139 H 284.996 0.0509793 -3.2656 0
M  V30 3140 H 283.655 -2.06813 -3.02694 0
M  V30 3141 H 283.303 -0.569132 -4.9977 0
M  V30 3142 H 283.003 -2.27409 -5.41811 0
M  V30 3143 H 284.527 -1.48928 -5.92159 0
M  V30 3144 H 285.941 -3.36547 -4.64122 0
M  V30 3145 H 284.338 -4.10975 -4.37286 0
M  V30 3146 H 285.408 -3.81754 -2.98985 0
M  V30 3147 N 286.751 1.08385 -1.14413 0
M  V30 3148 C 288.162 1.62258 -0.923535 0
M  V30 3149 C 288.513 1.88691 0.537595 0
M  V30 3150 O 287.638 1.64454 1.40655 0
M  V30 3151 C 288.233 2.94781 -1.67002 0
M  V30 3152 C 286.792 3.45437 -1.495 0
M  V30 3153 C 285.939 2.19668 -1.69238 0
M  V30 3154 H 288.89 0.916086 -1.2959 0
M  V30 3155 H 288.911 3.63229 -1.13334 0
M  V30 3156 H 288.423 2.7551 -2.73342 0
M  V30 3157 H 286.524 3.6981 -0.455097 0
M  V30 3158 H 286.637 4.22173 -2.2651 0
M  V30 3159 H 285.001 2.28849 -1.11804 0
M  V30 3160 H 285.784 2.02905 -2.7692 0
M  V30 3161 N 288.23 0.939286 1.26551 0
M  V30 3162 C 289.16 0.465044 2.28822 0
M  V30 3163 C 290.141 -0.480692 1.63167 0
M  V30 3164 O 291.326 -0.382955 1.90387 0
M  V30 3165 C 288.456 -0.27234 3.46231 0
M  V30 3166 C 287.41 0.58666 4.2396 0
M  V30 3167 C 286.736 -0.280573 5.33963 0
M  V30 3168 C 288.036 1.85704 4.88171 0
M  V30 3169 H 289.73 1.31979 2.68741 0
M  V30 3170 H 287.276 0.636061 1.29191 0
M  V30 3171 H 289.229 -0.615133 4.16886 0
M  V30 3172 H 287.953 -1.16121 3.0526 0
M  V30 3173 H 286.612 0.91232 3.55067 0
M  V30 3174 H 286.26 -1.16874 4.89234 0
M  V30 3175 H 285.96 0.29076 5.8688 0
M  V30 3176 H 287.484 -0.618678 6.07458 0
M  V30 3177 H 288.898 1.58161 5.51052 0
M  V30 3178 H 287.295 2.37279 5.51197 0
M  V30 3179 H 288.365 2.56957 4.11219 0
M  V30 3180 N 289.708 -1.40897 0.706093 0
M  V30 3181 C 290.955 -2.01054 0.241531 0
M  V30 3182 C 291.283 -1.55956 -1.16223 0
M  V30 3183 O 290.538 -0.766336 -1.80072 0
M  V30 3184 C 290.837 -3.5646 0.259099 0
M  V30 3185 C 290.503 -4.21106 1.61184 0
M  V30 3186 C 289.165 -4.38479 1.98216 0
M  V30 3187 C 291.517 -4.57256 2.50132 0
M  V30 3188 C 288.845 -4.89282 3.2376 0
M  V30 3189 C 291.197 -5.09454 3.7502 0
M  V30 3190 C 289.861 -5.25037 4.12181 0
M  V30 3191 H 289.131 -0.73571 0.0883825 0
M  V30 3192 H 291.778 -1.68645 0.907257 0
M  V30 3193 H 290.083 -3.88721 -0.490189 0
M  V30 3194 H 291.78 -4.00826 -0.11804 0
M  V30 3195 H 288.37 -4.07966 1.31384 0
M  V30 3196 H 292.554 -4.43479 2.228 0
M  V30 3197 H 287.81 -4.99531 3.52532 0
M  V30 3198 H 291.984 -5.36404 4.44121 0
M  V30 3199 H 289.611 -5.64164 5.09532 0
M  V30 3200 N 291.186 -0.45159 -1.50991 0
M  V30 3201 C 292.136 0.370861 -2.24964 0
M  V30 3202 C 293.12 0.978074 -1.2776 0
M  V30 3203 O 294.312 0.893854 -1.52772 0
M  V30 3204 C 291.441 1.46344 -3.10545 0
M  V30 3205 C 290.527 0.864924 -4.15187 0
M  V30 3206 N 290.918 -0.00311354 -5.058 0
M  V30 3207 C 289.216 1.13099 -4.31422 0
M  V30 3208 C 289.917 -0.340772 -5.80701 0
M  V30 3209 N 288.893 0.279203 -5.42883 0
M  V30 3210 H 292.695 -0.298134 -2.92384 0
M  V30 3211 H 290.209 -0.264528 -1.60231 0
M  V30 3212 H 292.206 2.06565 -3.62128 0
M  V30 3213 H 290.866 2.13463 -2.4467 0
M  V30 3214 H 291.877 -0.37058 -5.16572 0
M  V30 3215 H 288.554 1.79861 -3.76771 0
M  V30 3216 H 289.944 -1.048 -6.63677 0
M  V30 3217 N 292.664 1.56529 -0.183458 0
M  V30 3218 C 293.913 1.96419 0.458511 0
M  V30 3219 C 294.226 1.0727 1.63562 0
M  V30 3220 O 295.432 1.36893 2.34462 0
M  V30 3221 C 293.888 3.49298 0.867122 0
M  V30 3222 C 293.496 4.47092 -0.285057 0
M  V30 3223 C 295.24 3.97983 1.47683 0
M  V30 3224 C 293.147 5.91225 0.143862 0
M  V30 3225 H 292.077 0.733394 0.175071 0
M  V30 3226 H 294.728 1.81448 -0.273624 0
M  V30 3227 H 293.11 3.59731 1.65559 0
M  V30 3228 H 294.284 4.48383 -1.0625 0
M  V30 3229 H 292.599 4.08535 -0.805503 0
M  V30 3230 H 295.196 5.03134 1.80999 0
M  V30 3231 H 295.539 3.41618 2.37914 0
M  V30 3232 H 296.072 3.90617 0.752562 0
M  V30 3233 H 292.811 6.5149 -0.723974 0
M  V30 3234 H 292.331 5.93214 0.886413 0
M  V30 3235 H 294.01 6.44362 0.583628 0
M  V30 3236 N 294.142 -0.090211 1.57342 0
M  V30 3237 C 295.105 -1.09335 2.01441 0
M  V30 3238 C 296.105 -1.32666 0.908641 0
M  V30 3239 O 297.295 -1.28697 1.174 0
M  V30 3240 C 294.427 -2.44136 2.3793 0
M  V30 3241 H 295.62 -0.713662 2.91285 0
M  V30 3242 H 293.173 -0.335404 1.52659 0
M  V30 3243 H 293.908 -2.86972 1.51055 0
M  V30 3244 H 293.693 -2.28548 3.18603 0
M  V30 3245 H 295.183 -3.16277 2.72688 0
M  V30 3246 N 295.62 -1.53406 -0.361157 0
M  V30 3247 C 296.55 -1.83136 -1.44857 0
M  V30 3248 C 297.531 -0.685174 -1.5569 0
M  V30 3249 O 298.716 -0.93544 -1.70186 0
M  V30 3250 C 295.846 -2.02522 -2.82138 0
M  V30 3251 C 294.8 -3.18302 -2.86126 0
M  V30 3252 C 294.126 -3.22989 -4.26125 0
M  V30 3253 C 295.426 -4.56796 -2.53248 0
M  V30 3254 H 297.12 -2.74201 -1.20226 0
M  V30 3255 H 294.666 -1.31938 -0.576922 0
M  V30 3256 H 296.619 -2.21904 -3.58241 0
M  V30 3257 H 295.343 -1.08172 -3.08166 0
M  V30 3258 H 294.002 -2.98747 -2.12475 0
M  V30 3259 H 293.65 -2.26267 -4.49235 0
M  V30 3260 H 293.35 -4.00781 -4.29708 0
M  V30 3261 H 294.874 -3.44559 -5.04094 0
M  V30 3262 H 296.288 -4.7631 -3.19064 0
M  V30 3263 H 294.685 -5.36862 -2.68141 0
M  V30 3264 H 295.755 -4.61606 -1.48484 0
M  V30 3265 N 297.098 0.621204 -1.44841 0
M  V30 3266 C 298.028 1.74366 -1.55303 0
M  V30 3267 C 299.009 1.65199 -0.405385 0
M  V30 3268 O 300.194 1.83807 -0.626787 0
M  V30 3269 C 297.324 3.12931 -1.50637 0
M  V30 3270 C 296.278 3.36896 -2.63979 0
M  V30 3271 C 295.604 4.75594 -2.44366 0
M  V30 3272 C 296.904 3.28483 -4.06074 0
M  V30 3273 H 298.598 1.65867 -2.49256 0
M  V30 3274 H 296.144 0.796558 -1.19962 0
M  V30 3275 H 298.097 3.9124 -1.56555 0
M  V30 3276 H 296.821 3.22237 -0.532057 0
M  V30 3277 H 295.48 2.60972 -2.57467 0
M  V30 3278 H 295.128 4.81616 -1.45105 0
M  V30 3279 H 294.828 4.92586 -3.20364 0
M  V30 3280 H 296.352 5.5612 -2.52117 0
M  V30 3281 H 297.766 3.96684 -4.13902 0
M  V30 3282 H 296.163 3.57008 -4.82354 0
M  V30 3283 H 297.233 2.26133 -4.28943 0
M  V30 3284 N 298.576 1.31904 0.862503 0
M  V30 3285 C 299.822 1.22197 1.61851 0
M  V30 3286 C 300.155 -0.217641 1.92977 0
M  V30 3287 O 299.43 -1.15264 1.56666 0
M  V30 3288 C 299.713 2.07378 2.94391 0
M  V30 3289 C 299.566 3.59678 2.70096 0
M  V30 3290 C 300.885 1.92891 3.95577 0
M  V30 3291 H 298.004 0.445255 0.587296 0
M  V30 3292 H 300.646 1.6177 0.99651 0
M  V30 3293 H 298.796 1.73758 3.47477 0
M  V30 3294 H 300.468 4.03472 2.23625 0
M  V30 3295 H 298.711 3.82735 2.04197 0
M  V30 3296 H 299.382 4.14595 3.64438 0
M  V30 3297 H 301.858 2.22327 3.51724 0
M  V30 3298 H 300.734 2.54781 4.86187 0
M  V30 3299 H 300.995 0.894315 4.3296 0
M  V30 3300 N 300.054 -1.07777 1.14986 0
M  V30 3301 C 300.984 -2.16865 0.865557 0
M  V30 3302 C 301.965 -1.69123 -0.182083 0
M  V30 3303 O 303.15 -1.94164 -0.0373815 0
M  V30 3304 C 300.28 -3.45539 0.349313 0
M  V30 3305 C 299.234 -4.06708 1.33313 0
M  V30 3306 C 298.56 -5.30411 0.675918 0
M  V30 3307 C 299.86 -4.47241 2.69764 0
M  V30 3308 H 301.554 -2.40905 1.77778 0
M  V30 3309 H 299.1 -1.15781 0.856203 0
M  V30 3310 H 301.053 -4.21174 0.137983 0
M  V30 3311 H 299.777 -3.21072 -0.598362 0
M  V30 3312 H 298.436 -3.33112 1.53075 0
M  V30 3313 H 298.084 -5.02232 -0.277767 0
M  V30 3314 H 297.784 -5.72293 1.33244 0
M  V30 3315 H 299.308 -6.08755 0.474262 0
M  V30 3316 H 300.722 -5.14025 2.53873 0
M  V30 3317 H 299.119 -5.00062 3.3175 0
M  V30 3318 H 300.189 -3.58818 3.26156 0
M  V30 3319 N 301.532 -0.945985 -1.26051 0
M  V30 3320 C 302.779 -0.596118 -1.93527 0
M  V30 3321 C 303.107 0.865559 -1.74179 0
M  V30 3322 O 302.362 1.63524 -1.0751 0
M  V30 3323 C 302.661 -0.890475 -3.46129 0
M  V30 3324 C 302.327 -2.3368 -3.85622 0
M  V30 3325 C 300.989 -2.73216 -3.96114 0
M  V30 3326 C 303.341 -3.27648 -4.05334 0
M  V30 3327 C 300.669 -4.05806 -4.2372 0
M  V30 3328 C 303.021 -4.59841 -4.3443 0
M  V30 3329 C 301.685 -4.99185 -4.43137 0
M  V30 3330 H 300.955 -0.218135 -0.708165 0
M  V30 3331 H 303.602 -1.1934 -1.49768 0
M  V30 3332 H 301.907 -0.210711 -3.91233 0
M  V30 3333 H 303.604 -0.598478 -3.96509 0
M  V30 3334 H 300.194 -2.02015 -3.78005 0
M  V30 3335 H 304.378 -2.98298 -3.96651 0
M  V30 3336 H 299.634 -4.35945 -4.28675 0
M  V30 3337 H 303.808 -5.32641 -4.48628 0
M  V30 3338 H 301.435 -6.01952 -4.64282 0
M  V30 3339 N 303.011 1.40521 -0.713556 0
M  V30 3340 C 303.944 2.28198 -0.00881422 0
M  V30 3341 C 304.922 1.43227 0.769735 0
M  V30 3342 O 306.106 1.72641 0.756799 0
M  V30 3343 C 303.233 3.23758 0.994899 0
M  V30 3344 C 302.279 4.25391 0.3074 0
M  V30 3345 S 303.112 5.26765 -0.963247 0
M  V30 3346 C 304.268 6.25888 0.0384143 0
M  V30 3347 H 304.501 2.87622 -0.752407 0
M  V30 3348 H 302.034 1.45925 -0.504502 0
M  V30 3349 H 303.992 3.79341 1.56879 0
M  V30 3350 H 302.653 2.63396 1.71118 0
M  V30 3351 H 301.846 4.92596 1.0661 0
M  V30 3352 H 301.448 3.73497 -0.193879 0
M  V30 3353 H 303.74 6.71683 0.885912 0
M  V30 3354 H 304.683 7.05552 -0.60019 0
M  V30 3355 H 305.091 5.63072 0.401233 0
M  V30 3356 N 304.489 0.459591 1.5075 0
M  V30 3357 C 305.735 -0.0994966 2.02556 0
M  V30 3358 C 306.068 -1.40399 1.3417 0
M  V30 3359 O 305.343 -1.88892 0.463683 0
M  V30 3360 C 305.626 -0.295242 3.58888 0
M  V30 3361 C 305.479 1.02947 4.37861 0
M  V30 3362 C 306.798 -1.05502 4.27267 0
M  V30 3363 H 303.917 -0.034686 0.736183 0
M  V30 3364 H 306.559 0.602938 1.8018 0
M  V30 3365 H 304.709 -0.893563 3.78084 0
M  V30 3366 H 306.381 1.66348 4.30263 0
M  V30 3367 H 304.624 1.62885 4.02058 0
M  V30 3368 H 305.295 0.846281 5.45474 0
M  V30 3369 H 307.771 -0.547993 4.12476 0
M  V30 3370 H 306.647 -1.16077 5.36486 0
M  V30 3371 H 306.908 -2.08875 3.89645 0
M  V30 3372 N 305.967 -1.56429 0.191757 0
M  V30 3373 C 307.216 -1.9666 -0.448088 0
M  V30 3374 C 307.529 -1.08136 -1.62991 0
M  V30 3375 O 308.735 -1.38135 -2.33733 0
M  V30 3376 C 307.191 -3.49753 -0.848585 0
M  V30 3377 C 306.799 -4.46935 0.308764 0
M  V30 3378 C 308.543 -3.9876 -1.4557 0
M  V30 3379 C 306.45 -5.91293 -0.112506 0
M  V30 3380 H 305.38 -0.734312 -0.171179 0
M  V30 3381 H 308.031 -1.81301 0.283242 0
M  V30 3382 H 306.413 -3.60604 -1.63649 0
M  V30 3383 H 307.587 -4.47813 1.08627 0
M  V30 3384 H 305.902 -4.08102 0.827158 0
M  V30 3385 H 308.499 -5.04086 -1.78328 0
M  V30 3386 H 308.842 -3.42875 -2.36099 0
M  V30 3387 H 309.375 -3.9101 -0.731836 0
M  V30 3388 H 306.114 -6.51097 0.758514 0
M  V30 3389 H 305.634 -5.93676 -0.854941 0
M  V30 3390 H 307.313 -6.44663 -0.549448 0
M  V30 3391 N 307.445 0.0818655 -1.57387 0
M  V30 3392 C 308.694 0.781681 -1.85937 0
M  V30 3393 C 309.007 1.79246 -0.782957 0
M  V30 3394 O 310.213 2.54112 -0.955987 0
M  V30 3395 C 308.669 1.44109 -3.29789 0
M  V30 3396 C 308.277 0.469396 -4.45534 0
M  V30 3397 C 310.021 2.12386 -3.67549 0
M  V30 3398 C 307.928 1.13415 -5.80423 0
M  V30 3399 H 306.858 0.295682 -0.693605 0
M  V30 3400 H 309.509 0.0348051 -1.83467 0
M  V30 3401 H 307.891 2.23588 -3.2684 0
M  V30 3402 H 309.065 -0.294856 -4.59856 0
M  V30 3403 H 307.38 -0.108383 -4.16259 0
M  V30 3404 H 309.977 2.62878 -4.65617 0
M  V30 3405 H 310.32 2.91877 -2.96839 0
M  V30 3406 H 310.853 1.39751 -3.72444 0
M  V30 3407 H 307.592 0.379771 -6.54399 0
M  V30 3408 H 307.112 1.8695 -5.69921 0
M  V30 3409 H 308.791 1.65686 -6.25426 0
M  V30 3410 N 308.923 1.53595 0.353017 0
M  V30 3411 C 310.153 1.74058 1.11299 0
M  V30 3412 C 310.561 0.475205 1.83135 0
M  V30 3413 O 309.904 -0.562344 1.74881 0
M  V30 3414 C 309.966 2.85994 2.17825 0
M  V30 3415 C 309.63 4.25923 1.65647 0
M  V30 3416 C 310.627 5.07829 1.11383 0
M  V30 3417 C 308.312 4.72377 1.7078 0
M  V30 3418 C 310.306 6.34285 0.629439 0
M  V30 3419 C 307.993 5.98808 1.21953 0
M  V30 3420 C 308.991 6.79594 0.681265 0
M  V30 3421 O 308.679 8.03651 0.200248 0
M  V30 3422 H 308.411 0.585327 0.338183 0
M  V30 3423 H 310.965 2.01186 0.413927 0
M  V30 3424 H 309.195 2.54368 2.91262 0
M  V30 3425 H 310.884 2.94515 2.79313 0
M  V30 3426 H 311.65 4.73107 1.06746 0
M  V30 3427 H 307.529 4.0956 2.11617 0
M  V30 3428 H 311.073 6.97288 0.208636 0
M  V30 3429 H 306.97 6.33026 1.26287 0
M  V30 3430 H 307.738 8.1788 0.318416 0
M  V30 3431 N 310.401 -0.613514 1.45168 0
M  V30 3432 C 311.364 -1.7065 1.53007 0
M  V30 3433 C 312.364 -1.5548 0.410184 0
M  V30 3434 O 313.554 -1.60656 0.673455 0
M  V30 3435 C 310.686 -3.09875 1.42093 0
M  V30 3436 H 311.879 -1.65068 2.50385 0
M  V30 3437 H 309.432 -0.828728 1.32521 0
M  V30 3438 H 310.167 -3.21039 0.458769 0
M  V30 3439 H 309.952 -3.22293 2.23315 0
M  V30 3440 H 311.442 -3.895 1.50598 0
M  V30 3441 N 311.879 -1.3236 -0.855495 0
M  V30 3442 C 313.128 -1.22226 -1.60448 0
M  V30 3443 C 313.441 0.214733 -1.94418 0
M  V30 3444 O 314.647 0.437917 -2.67945 0
M  V30 3445 C 313.103 -2.14063 -2.89318 0
M  V30 3446 C 312.711 -3.62839 -2.62777 0
M  V30 3447 C 314.455 -2.12764 -3.67331 0
M  V30 3448 C 312.362 -4.4664 -3.87643 0
M  V30 3449 H 311.292 -0.453904 -0.602069 0
M  V30 3450 H 313.943 -1.57314 -0.944698 0
M  V30 3451 H 312.325 -1.71889 -3.5675 0
M  V30 3452 H 313.499 -4.1335 -2.03662 0
M  V30 3453 H 311.814 -3.66261 -1.98096 0
M  V30 3454 H 314.411 -2.72611 -4.59987 0
M  V30 3455 H 314.754 -1.11841 -4.00995 0
M  V30 3456 H 315.287 -2.53214 -3.06802 0
M  V30 3457 H 312.026 -5.48373 -3.5912 0
M  V30 3458 H 311.546 -4.0088 -4.46156 0
M  V30 3459 H 313.225 -4.59597 -4.55389 0
M  V30 3460 N 313.357 1.07166 -1.15556 0
M  V30 3461 C 314.606 1.79181 -0.926132 0
M  V30 3462 C 314.919 1.87768 0.547967 0
M  V30 3463 O 316.125 2.56323 0.895036 0
M  V30 3464 C 314.581 3.22 -1.60761 0
M  V30 3465 C 314.189 3.21607 -3.11886 0
M  V30 3466 C 315.933 3.9861 -1.4598 0
M  V30 3467 C 313.84 4.59092 -3.72812 0
M  V30 3468 H 312.77 0.67154 -0.342856 0
M  V30 3469 H 315.421 1.2027 -1.3859 0
M  V30 3470 H 313.803 3.81115 -1.07553 0
M  V30 3471 H 314.977 2.72127 -3.71865 0
M  V30 3472 H 313.292 2.58495 -3.2645 0
M  V30 3473 H 315.889 5.00225 -1.88888 0
M  V30 3474 H 316.232 4.143 -0.407541 0
M  V30 3475 H 316.765 3.45996 -1.96295 0
M  V30 3476 H 313.504 4.48606 -4.77946 0
M  V30 3477 H 313.024 5.08803 -3.17616 0
M  V30 3478 H 314.703 5.28059 -3.73848 0
M  V30 3479 N 314.835 0.952656 1.25548 0
M  V30 3480 C 316.083 0.605176 1.92826 0
M  V30 3481 C 316.404 -0.860261 1.74999 0
M  V30 3482 O 315.674 -1.6125 1.11244 0
M  V30 3483 H 314.254 0.220832 0.713612 0
M  V30 3484 H 316.916 1.21047 1.52754 0
M  V30 3485 H 316.012 0.832798 3.00784 0
M  V30 3486 N 316.313 -1.40141 0.720998 0
M  V30 3487 C 317.243 -2.33339 0.0867621 0
M  V30 3488 C 318.224 -1.53178 -0.739622 0
M  V30 3489 O 319.409 -1.81625 -0.687449 0
M  V30 3490 C 316.539 -3.37194 -0.831728 0
M  V30 3491 C 315.493 -4.27857 -0.110558 0
M  V30 3492 C 314.819 -5.22294 -1.14513 0
M  V30 3493 C 316.119 -5.11872 1.0385 0
M  V30 3494 H 317.813 -2.86626 0.865219 0
M  V30 3495 H 315.359 -1.37814 0.417516 0
M  V30 3496 H 317.312 -4.01335 -1.28485 0
M  V30 3497 H 316.036 -2.82314 -1.64214 0
M  V30 3498 H 314.695 -3.65176 0.322797 0
M  V30 3499 H 314.343 -4.63717 -1.94874 0
M  V30 3500 H 314.043 -5.83797 -0.667446 0
M  V30 3501 H 315.567 -5.89312 -1.59824 0
M  V30 3502 H 316.981 -5.69436 0.664482 0
M  V30 3503 H 315.378 -5.82445 1.4449 0
M  V30 3504 H 316.448 -4.4753 1.86668 0
M  V30 3505 N 317.792 -0.46758 -1.50504 0
M  V30 3506 C 318.702 0.33382 -2.32213 0
M  V30 3507 C 319.718 0.999323 -1.42441 0
M  V30 3508 O 320.894 0.988068 -1.75497 0
M  V30 3509 C 317.959 1.4035 -3.17022 0
M  V30 3510 C 317.02 0.754961 -4.2261 0
M  V30 3511 C 316.253 1.77367 -5.03365 0
M  V30 3512 O 316.476 2.99976 -4.8515 0
M  V30 3513 O 315.41 1.34744 -5.86624 0
M  V30 3514 H 319.236 -0.334067 -3.01857 0
M  V30 3515 H 316.821 -0.229496 -1.47627 0
M  V30 3516 H 318.703 2.02318 -3.69656 0
M  V30 3517 H 317.378 2.05492 -2.5011 0
M  V30 3518 H 316.285 0.0964244 -3.73976 0
M  V30 3519 H 317.618 0.146545 -4.91982 0
M  V30 3520 N 319.27 1.56325 -0.20005 0
M  V30 3521 C 320.2 2.22318 0.713916 0
M  V30 3522 C 321.181 1.18788 1.21752 0
M  V30 3523 O 322.366 1.47309 1.26545 0
M  V30 3524 C 319.496 2.88639 1.93144 0
M  V30 3525 C 318.45 3.98457 1.56255 0
M  V30 3526 C 317.776 4.51967 2.85709 0
M  V30 3527 C 319.076 5.16612 0.768747 0
M  V30 3528 H 320.77 2.98952 0.163755 0
M  V30 3529 H 318.316 1.43792 0.0773219 0
M  V30 3530 H 320.269 3.33491 2.57608 0
M  V30 3531 H 318.993 2.09419 2.50621 0
M  V30 3532 H 317.652 3.54305 0.941471 0
M  V30 3533 H 317.3 3.69503 3.41287 0
M  V30 3534 H 317 5.26071 2.6177 0
M  V30 3535 H 318.524 4.99523 3.51154 0
M  V30 3536 H 319.938 5.57977 1.3166 0
M  V30 3537 H 318.335 5.96812 0.627286 0
M  V30 3538 H 319.405 4.84358 -0.229168 0
M  V30 3539 N 320.748 -0.0735177 1.57428 0
M  V30 3540 C 321.995 -0.772999 1.87166 0
M  V30 3541 C 322.323 -1.77665 0.791551 0
M  V30 3542 O 321.578 -1.94541 -0.212636 0
M  V30 3543 C 321.877 -1.51799 3.23561 0
M  V30 3544 C 321.543 -0.654484 4.46125 0
M  V30 3545 C 320.205 -0.416511 4.79394 0
M  V30 3546 C 322.557 -0.0555862 5.2117 0
M  V30 3547 C 319.885 0.429869 5.85123 0
M  V30 3548 C 322.237 0.778239 6.27795 0
M  V30 3549 C 320.901 1.0261 6.59566 0
M  V30 3550 H 320.171 -0.282861 0.684888 0
M  V30 3551 H 322.818 -0.0338272 1.9147 0
M  V30 3552 H 321.123 -2.32932 3.1504 0
M  V30 3553 H 322.82 -2.06397 3.43804 0
M  V30 3554 H 319.41 -0.850091 4.20085 0
M  V30 3555 H 323.594 -0.226558 4.95783 0
M  V30 3556 H 318.85 0.630665 6.08139 0
M  V30 3557 H 323.024 1.24906 6.85107 0
M  V30 3558 H 320.651 1.68371 7.4132 0
M  V30 3559 N 322.226 -1.5378 -0.344866 0
M  V30 3560 C 323.173 -1.81676 -1.42346 0
M  V30 3561 C 324.143 -0.662376 -1.52321 0
M  V30 3562 O 325.328 -0.906675 -1.67881 0
M  V30 3563 C 322.468 -2.03087 -2.79015 0
M  V30 3564 C 321.581 -3.30799 -2.77842 0
M  V30 3565 C 320.716 -3.42285 -4.0622 0
M  V30 3566 C 319.755 -4.6395 -3.9927 0
M  V30 3567 N 318.892 -4.72477 -5.19336 0
M  V30 3568 H 323.732 -2.73703 -1.17858 0
M  V30 3569 H 321.269 -1.35568 -0.570949 0
M  V30 3570 H 323.227 -2.1349 -3.58438 0
M  V30 3571 H 321.857 -1.14375 -3.01858 0
M  V30 3572 H 320.909 -3.29244 -1.90533 0
M  V30 3573 H 322.221 -4.20314 -2.68584 0
M  V30 3574 H 321.375 -3.52113 -4.94066 0
M  V30 3575 H 320.114 -2.50823 -4.18258 0
M  V30 3576 H 319.119 -4.54201 -3.09809 0
M  V30 3577 H 320.344 -5.56775 -3.88817 0
M  V30 3578 H 318.29 -3.83924 -5.3192 0
M  V30 3579 H 318.207 -5.55927 -5.12329 0
M  V30 3580 H 319.475 -4.86613 -6.08957 0
M  V30 3581 N 323.704 0.605807 -1.45491 0
M  V30 3582 C 324.952 1.36207 -1.49305 0
M  V30 3583 C 325.273 1.94519 -0.136863 0
M  V30 3584 O 324.543 1.77261 0.833983 0
M  V30 3585 H 323.123 0.50565 -0.549843 0
M  V30 3586 H 325.785 0.711239 -1.81459 0
M  V30 3587 H 324.881 2.18058 -2.23287 0
M  V30 3588 N 325.182 1.32811 0.848464 0
M  V30 3589 C 326.129 1.22265 1.95755 0
M  V30 3590 C 327.099 0.103413 1.65778 0
M  V30 3591 O 328.284 0.280033 1.88734 0
M  V30 3592 C 325.424 0.958014 3.31536 0
M  V30 3593 C 324.537 2.16262 3.73971 0
M  V30 3594 C 323.672 1.83295 4.98575 0
M  V30 3595 C 322.711 3.00041 5.33518 0
M  V30 3596 N 321.848 2.67125 6.49299 0
M  V30 3597 H 326.688 2.17128 2.04107 0
M  V30 3598 H 324.225 1.07982 0.998913 0
M  V30 3599 H 326.183 0.785052 4.09747 0
M  V30 3600 H 324.813 0.046159 3.22767 0
M  V30 3601 H 323.865 2.44565 2.91362 0
M  V30 3602 H 325.177 3.03572 3.95785 0
M  V30 3603 H 324.331 1.62586 5.84509 0
M  V30 3604 H 323.07 0.932078 4.7871 0
M  V30 3605 H 322.075 3.21374 4.46093 0
M  V30 3606 H 323.3 3.90869 5.55336 0
M  V30 3607 H 321.246 1.79586 6.3094 0
M  V30 3608 H 321.163 3.47965 6.71161 0
M  V30 3609 H 322.431 2.49861 7.3837 0
M  V30 3610 N 326.66 -1.06551 1.16123 0
M  V30 3611 C 327.593 -2.13382 0.80892 0
M  V30 3612 C 328.571 -1.61128 -0.21827 0
M  V30 3613 O 329.755 -1.88219 -0.102952 0
M  V30 3614 C 326.882 -3.38083 0.204303 0
M  V30 3615 C 325.928 -4.09133 1.20469 0
M  V30 3616 S 326.761 -4.5948 2.75024 0
M  V30 3617 C 327.917 -5.87446 2.16005 0
M  V30 3618 H 328.15 -2.42937 1.71373 0
M  V30 3619 H 325.683 -1.18947 0.984428 0
M  V30 3620 H 327.641 -4.10268 -0.138081 0
M  V30 3621 H 326.302 -3.0669 -0.678234 0
M  V30 3622 H 325.495 -4.98685 0.730019 0
M  V30 3623 H 325.097 -3.4295 1.49202 0
M  V30 3624 H 327.389 -6.60065 1.5271 0
M  V30 3625 H 328.332 -6.39639 3.03756 0
M  V30 3626 H 328.74 -5.41354 1.59989 0
M  V30 3627 N 328.138 -0.959301 -1.25041 0
M  V30 3628 C 329.088 -0.453888 -2.23436 0
M  V30 3629 C 330.072 0.459461 -1.542 0
M  V30 3630 O 331.264 0.291752 -1.74579 0
M  V30 3631 C 328.393 0.262667 -3.42294 0
M  V30 3632 C 327.479 -0.669022 -4.1879 0
M  V30 3633 N 327.87 -1.80267 -4.72586 0
M  V30 3634 C 326.168 -0.47814 -4.4343 0
M  V30 3635 C 326.869 -2.38475 -5.3057 0
M  V30 3636 N 325.845 -1.67078 -5.17287 0
M  V30 3637 H 329.647 -1.319 -2.6264 0
M  V30 3638 H 327.161 -0.817358 -1.40332 0
M  V30 3639 H 329.158 0.641911 -4.11929 0
M  V30 3640 H 327.818 1.12432 -3.04613 0
M  V30 3641 H 328.829 -2.18442 -4.69578 0
M  V30 3642 H 325.506 0.340249 -4.16111 0
M  V30 3643 H 326.896 -3.34094 -5.8295 0
M  V30 3644 N 329.616 1.39756 -0.72842 0
M  V30 3645 C 330.563 2.30647 -0.0841519 0
M  V30 3646 C 331.533 1.48869 0.7367 0
M  V30 3647 O 332.718 1.77574 0.698015 0
M  V30 3648 C 329.858 3.35165 0.822091 0
M  V30 3649 C 328.971 4.31999 -0.0106663 0
M  V30 3650 C 328.106 5.23585 0.896241 0
M  V30 3651 C 327.145 6.12072 0.0583381 0
M  V30 3652 N 326.282 6.96035 0.920818 0
M  V30 3653 H 331.122 2.85173 -0.864891 0
M  V30 3654 H 328.659 1.40422 -0.438179 0
M  V30 3655 H 330.617 3.94345 1.36189 0
M  V30 3656 H 329.247 2.8211 1.56888 0
M  V30 3657 H 328.299 3.74492 -0.66781 0
M  V30 3658 H 329.611 4.9443 -0.658825 0
M  V30 3659 H 328.765 5.87759 1.50412 0
M  V30 3660 H 327.504 4.61459 1.57819 0
M  V30 3661 H 326.509 5.46916 -0.562389 0
M  V30 3662 H 327.734 6.76261 -0.6203 0
M  V30 3663 H 325.68 6.36485 1.58818 0
M  V30 3664 H 325.597 7.55284 0.32899 0
M  V30 3665 H 326.865 7.64646 1.51447 0
M  V30 3666 N 331.094 0.475555 1.50254 0
M  V30 3667 C 332.322 -0.0754493 2.06762 0
M  V30 3668 C 332.737 -1.33111 1.33891 0
M  V30 3669 O 332.094 -1.77846 0.40952 0
M  V30 3670 C 332.145 -0.359008 3.59713 0
M  V30 3671 O 331.866 0.846851 4.29837 0
M  V30 3672 C 333.367 -0.956484 4.32858 0
M  V30 3673 H 330.587 0.00907525 0.670939 0
M  V30 3674 H 333.131 0.665618 1.93364 0
M  V30 3675 H 331.286 -1.05001 3.72899 0
M  V30 3676 H 331.7 0.594162 5.21124 0
M  V30 3677 H 333.174 -1.10463 5.40834 0
M  V30 3678 H 333.651 -1.94775 3.93649 0
M  V30 3679 H 334.257 -0.303723 4.24214 0
M  V30 3680 N 332.573 -1.56217 0.208337 0
M  V30 3681 C 333.813 -1.99849 -0.428927 0
M  V30 3682 C 334.177 -1.09262 -1.57879 0
M  V30 3683 O 335.378 -1.42185 -2.28116 0
M  V30 3684 C 333.649 -3.46777 -0.864879 0
M  V30 3685 S 335.208 -4.12434 -1.49811 0
M  V30 3686 H 332.026 -0.697742 -0.136665 0
M  V30 3687 H 334.628 -1.92953 0.314519 0
M  V30 3688 H 333.332 -4.10396 -0.0181326 0
M  V30 3689 H 332.863 -3.57518 -1.64147 0
M  V30 3690 H 334.878 -4.10532 -2.78707 0
M  V30 3691 N 334.051 0.0651679 -1.57465 0
M  V30 3692 C 335.281 0.774683 -1.91526 0
M  V30 3693 C 335.689 1.71305 -0.803196 0
M  V30 3694 O 335.032 1.82231 0.231881 0
M  V30 3695 C 335.094 1.61645 -3.21109 0
M  V30 3696 C 334.758 0.846753 -4.49087 0
M  V30 3697 C 335.755 0.163024 -5.19644 0
M  V30 3698 C 333.44 0.811966 -4.95694 0
M  V30 3699 C 335.434 -0.54519 -6.35064 0
M  V30 3700 C 333.121 0.0999836 -6.11018 0
M  V30 3701 C 334.119 -0.577388 -6.80555 0
M  V30 3702 O 333.807 -1.27789 -7.93678 0
M  V30 3703 H 333.539 0.225031 -0.637446 0
M  V30 3704 H 336.093 0.0377134 -2.05365 0
M  V30 3705 H 334.323 2.39638 -3.03497 0
M  V30 3706 H 336.012 2.20525 -3.40769 0
M  V30 3707 H 336.778 0.181163 -4.84662 0
M  V30 3708 H 332.657 1.32867 -4.41438 0
M  V30 3709 H 336.201 -1.07446 -6.89276 0
M  V30 3710 H 332.098 0.0797945 -6.45451 0
M  V30 3711 H 332.866 -1.18784 -8.09835 0
M  V30 3712 N 335.529 1.53961 0.336706 0
M  V30 3713 C 336.776 1.71536 1.07618 0
M  V30 3714 C 337.104 0.482125 1.8843 0
M  V30 3715 O 336.359 -0.536142 1.88213 0
M  V30 3716 C 336.658 2.93493 2.03953 0
M  V30 3717 C 336.324 4.28811 1.39399 0
M  V30 3718 C 334.986 4.65602 1.21523 0
M  V30 3719 C 337.338 5.12844 0.929541 0
M  V30 3720 C 334.666 5.84037 0.558312 0
M  V30 3721 C 337.018 6.31951 0.286505 0
M  V30 3722 C 335.682 6.67432 0.0954869 0
M  V30 3723 H 334.952 0.627696 0.393801 0
M  V30 3724 H 337.599 1.88186 0.354715 0
M  V30 3725 H 335.904 2.71475 2.82504 0
M  V30 3726 H 337.601 3.04285 2.61174 0
M  V30 3727 H 334.191 3.99858 1.54311 0
M  V30 3728 H 338.375 4.84947 1.05548 0
M  V30 3729 H 333.631 6.10097 0.398995 0
M  V30 3730 H 337.805 6.96352 -0.0814376 0
M  V30 3731 H 335.432 7.59063 -0.415579 0
M  V30 3732 N 337.007 -0.598083 1.45811 0
M  V30 3733 C 338.256 -1.35295 1.49594 0
M  V30 3734 C 338.569 -1.95057 0.145679 0
M  V30 3735 O 339.775 -2.71431 0.0612099 0
M  V30 3736 C 338.231 -2.45124 2.63519 0
M  V30 3737 C 337.839 -1.91732 4.04899 0
M  V30 3738 C 339.583 -3.2205 2.76558 0
M  V30 3739 C 337.49 -2.991 5.1019 0
M  V30 3740 H 336.42 -0.508552 0.556679 0
M  V30 3741 H 339.071 -0.639977 1.71978 0
M  V30 3742 H 337.453 -3.19149 2.34435 0
M  V30 3743 H 338.627 -1.24352 4.43704 0
M  V30 3744 H 336.942 -1.27522 3.96393 0
M  V30 3745 H 339.539 -4.0215 3.52391 0
M  V30 3746 H 339.882 -3.73663 1.83526 0
M  V30 3747 H 340.415 -2.55127 3.05213 0
M  V30 3748 H 337.154 -2.52393 6.04961 0
M  V30 3749 H 336.674 -3.65017 4.75944 0
M  V30 3750 H 338.353 -3.63318 5.35359 0
M  V30 3751 N 338.485 -1.33259 -0.841409 0
M  V30 3752 C 339.733 -1.24326 -1.59334 0
M  V30 3753 C 340.054 0.191564 -1.94057 0
M  V30 3754 O 339.324 1.11967 -1.60749 0
M  V30 3755 H 337.904 -0.457174 -0.590763 0
M  V30 3756 H 340.566 -1.66947 -1.00571 0
M  V30 3757 H 339.662 -1.8352 -2.52442 0
M  V30 3758 N 339.963 1.05934 -1.16686 0
M  V30 3759 C 341.191 1.8249 -0.974929 0
M  V30 3760 C 341.606 1.82679 0.476861 0
M  V30 3761 O 340.963 1.2486 1.33103 0
M  V30 3762 C 341.014 3.28943 -1.49929 0
M  V30 3763 O 340.735 3.28886 -2.89423 0
M  V30 3764 C 342.236 4.22215 -1.35089 0
M  V30 3765 H 339.456 0.575295 -0.345365 0
M  V30 3766 H 342 1.33631 -1.548 0
M  V30 3767 H 340.155 3.751 -0.968423 0
M  V30 3768 H 340.569 4.20493 -3.13506 0
M  V30 3769 H 342.043 5.22987 -1.76603 0
M  V30 3770 H 342.52 4.38195 -0.296935 0
M  V30 3771 H 343.126 3.81907 -1.87155 0
M  V30 3772 N 341.441 0.965919 1.2453 0
M  V30 3773 C 342.718 0.543777 1.87889 0
M  V30 3774 C 343.098 -0.97909 1.87021 0
M  V30 3775 O 342.446 -1.84969 1.3416 0
M  V30 3776 C 342.656 1.13327 3.30088 0
M  V30 3777 C 344.004 1.21707 4.06783 0
M  V30 3778 O 345.028 1.08566 3.39252 0
M  V30 3779 O 343.887 1.42456 5.27606 0
M  V30 3780 H 340.981 0.181054 0.806938 0
M  V30 3781 H 343.527 1.06007 1.32516 0
M  V30 3782 H 342.299 2.17612 3.25209 0
M  V30 3783 H 341.922 0.600911 3.93033 0
M  V30 3784 N 342.919 -1.39368 0.735821 0
M  V30 3785 C 344.168 -1.99733 0.281004 0
M  V30 3786 C 344.481 -1.59055 -1.13846 0
M  V30 3787 O 345.687 -2.12262 -1.69284 0
M  V30 3788 C 344.143 -3.57057 0.451462 0
M  V30 3789 C 343.751 -4.06697 1.87886 0
M  V30 3790 C 345.495 -4.2446 0.0584616 0
M  V30 3791 C 343.402 -5.56598 1.99883 0
M  V30 3792 H 342.332 -0.747163 0.101311 0
M  V30 3793 H 344.983 -1.59357 0.909819 0
M  V30 3794 H 343.365 -3.95234 -0.246263 0
M  V30 3795 H 344.539 -3.79853 2.60861 0
M  V30 3796 H 342.854 -3.5196 2.22515 0
M  V30 3797 H 345.451 -5.34549 0.127099 0
M  V30 3798 H 345.794 -4.04444 -0.986433 0
M  V30 3799 H 346.327 -3.9146 0.707374 0
M  V30 3800 H 343.066 -5.81494 3.02564 0
M  V30 3801 H 342.586 -5.85242 1.31346 0
M  V30 3802 H 344.265 -6.22022 1.78039 0
M  V30 3803 N 344.397 -0.483516 -1.5 0
M  V30 3804 C 345.643 0.0672592 -2.02688 0
M  V30 3805 C 345.976 1.38247 -1.36387 0
M  V30 3806 O 345.251 1.88131 -0.493675 0
M  V30 3807 C 345.534 0.238109 -3.59312 0
M  V30 3808 C 345.387 -1.099 -4.36168 0
M  V30 3809 C 346.706 0.986916 -4.28892 0
M  V30 3810 H 343.825 0.0229696 -0.736642 0
M  V30 3811 H 346.467 -0.631527 -1.79197 0
M  V30 3812 H 344.617 0.8333 -3.79458 0
M  V30 3813 H 346.289 -1.73172 -4.27562 0
M  V30 3814 H 344.532 -1.69261 -3.99416 0
M  V30 3815 H 345.203 -0.932954 -5.44059 0
M  V30 3816 H 347.679 0.482302 -4.13295 0
M  V30 3817 H 346.555 1.07527 -5.38265 0
M  V30 3818 H 346.816 2.0265 -3.92919 0
M  V30 3819 N 345.875 1.56104 -0.216619 0
M  V30 3820 C 346.838 2.18819 0.681962 0
M  V30 3821 C 347.838 1.14866 1.12528 0
M  V30 3822 O 349.028 1.40128 1.03488 0
M  V30 3823 C 346.16 2.80756 1.93362 0
M  V30 3824 H 347.353 2.99595 0.135254 0
M  V30 3825 H 344.906 1.56265 0.0330003 0
M  V30 3826 H 345.641 2.03837 2.52232 0
M  V30 3827 H 345.426 3.56876 1.62426 0
M  V30 3828 H 346.916 3.28844 2.57393 0
M  V30 3829 N 347.353 -0.0568162 1.57498 0
M  V30 3830 C 348.581 -0.765626 1.92213 0
M  V30 3831 C 348.996 -1.70353 0.813961 0
M  V30 3832 O 348.353 -1.81268 -0.211701 0
M  V30 3833 C 348.404 -1.5465 3.2675 0
M  V30 3834 O 348.125 -0.646278 4.33307 0
M  V30 3835 C 349.626 -2.35497 3.75574 0
M  V30 3836 H 346.846 -0.216835 0.634999 0
M  V30 3837 H 349.39 -0.0226146 2.04487 0
M  V30 3838 H 347.545 -2.24165 3.15957 0
M  V30 3839 H 347.959 -1.19093 5.108 0
M  V30 3840 H 349.433 -2.85722 4.72299 0
M  V30 3841 H 349.91 -3.15692 3.05344 0
M  V30 3842 H 350.516 -1.7111 3.8936 0
M  V30 3843 N 348.832 -1.54138 -0.328536 0
M  V30 3844 C 350.078 -1.7236 -1.06865 0
M  V30 3845 C 350.411 -0.493231 -1.87832 0
M  V30 3846 O 349.686 0.5098 -1.877 0
M  V30 3847 C 349.969 -2.99621 -1.99747 0
M  V30 3848 C 349.822 -4.32899 -1.22143 0
M  V30 3849 C 351.141 -3.22615 -2.99345 0
M  V30 3850 H 348.26 -0.627151 -0.387105 0
M  V30 3851 H 350.902 -1.86827 -0.345767 0
M  V30 3852 H 349.052 -2.87418 -2.61387 0
M  V30 3853 H 350.724 -4.56978 -0.630017 0
M  V30 3854 H 348.967 -4.30628 -0.523628 0
M  V30 3855 H 349.638 -5.18154 -1.90318 0
M  V30 3856 H 352.114 -3.34248 -2.47826 0
M  V30 3857 H 350.99 -4.13027 -3.61524 0
M  V30 3858 H 351.251 -2.3961 -3.71536 0
M  V30 3859 N 350.31 0.590341 -1.46126 0
M  V30 3860 C 351.22 1.72793 -1.58681 0
M  V30 3861 C 352.236 1.67516 -0.470566 0
M  V30 3862 O 353.412 1.87562 -0.733642 0
M  V30 3863 C 350.477 3.09287 -1.5666 0
M  V30 3864 C 349.538 3.25886 -2.79458 0
M  V30 3865 C 348.771 4.55869 -2.77524 0
M  V30 3866 O 348.994 5.3928 -1.85832 0
M  V30 3867 O 347.928 4.75552 -3.68964 0
M  V30 3868 H 351.754 1.65149 -2.54872 0
M  V30 3869 H 349.339 0.756486 -1.28832 0
M  V30 3870 H 351.221 3.90577 -1.58202 0
M  V30 3871 H 349.896 3.17385 -0.636271 0
M  V30 3872 H 348.803 2.44119 -2.83472 0
M  V30 3873 H 350.136 3.22675 -3.71674 0
M  V30 3874 N 351.788 1.33704 0.83433 0
M  V30 3875 C 352.736 1.24323 1.96587 0
M  V30 3876 C 353.73 0.143659 1.6879 0
M  V30 3877 O 354.936 0.30791 1.77347 0
M  V30 3878 H 351.311 0.385925 0.645419 0
M  V30 3879 H 353.282 2.19978 2.01624 0
M  V30 3880 C 352.031 1.00394 3.32891 0
M  V30 3881 H 351.354 1.84231 3.54822 0
M  V30 3882 H 352.794 0.97862 4.12552 0
M  V30 3883 C 351.253 -0.293047 3.35623 0
M  V30 3884 O 351.783 -1.29823 3.80143 0
M  V30 3885 N 349.989 -0.322174 2.88809 0
M  V30 3886 H 349.536 0.496379 2.52772 0
M  V30 3887 H 349.494 -1.18977 2.91019 0
M  V30 3888 N 353.266 -1.05314 1.17247 0
M  V30 3889 C 354.176 -2.16538 0.90268 0
M  V30 3890 C 355.192 -1.73523 -0.128707 0
M  V30 3891 O 356.368 -2.01337 0.0502701 0
M  V30 3892 C 353.433 -3.44167 0.418356 0
M  V30 3893 C 352.494 -4.01635 1.51618 0
M  V30 3894 C 351.727 -5.23171 1.05487 0
M  V30 3895 O 351.95 -5.70327 -0.0914715 0
M  V30 3896 O 350.884 -5.72848 1.8474 0
M  V30 3897 H 354.71 -2.42145 1.83302 0
M  V30 3898 H 352.295 -1.15037 0.953246 0
M  V30 3899 H 354.177 -4.21112 0.155726 0
M  V30 3900 H 352.852 -3.20063 -0.48385 0
M  V30 3901 H 351.759 -3.26135 1.83268 0
M  V30 3902 H 353.092 -4.30053 2.39405 0
M  V30 3903 N 354.744 -0.972509 -1.24016 0
M  V30 3904 C 355.654 -0.5143 -2.28893 0
M  V30 3905 C 356.67 0.427078 -1.68677 0
M  V30 3906 O 357.846 0.298939 -1.99169 0
M  V30 3907 C 354.911 0.183598 -3.46214 0
M  V30 3908 C 353.972 -0.798202 -4.21814 0
M  V30 3909 C 353.205 -0.133514 -5.33533 0
M  V30 3910 O 353.428 1.07714 -5.60137 0
M  V30 3911 O 352.362 -0.828103 -5.96176 0
M  V30 3912 H 356.188 -1.38629 -2.70214 0
M  V30 3913 H 353.773 -0.739769 -1.29799 0
M  V30 3914 H 355.655 0.575433 -4.17453 0
M  V30 3915 H 354.33 1.03048 -3.0686 0
M  V30 3916 H 353.237 -1.24059 -3.52931 0
M  V30 3917 H 354.57 -1.61364 -4.64997 0
M  V30 3918 N 356.222 1.38976 -0.743202 0
M  V30 3919 C 357.633 1.83123 -0.363732 0
M  V30 3920 C 357.984 1.6205 1.10609 0
M  V30 3921 O 357.109 1.11606 1.854 0
M  V30 3922 C 357.704 3.32439 -0.653408 0
M  V30 3923 C 356.263 3.74974 -0.327338 0
M  V30 3924 C 355.41 2.61878 -0.911875 0
M  V30 3925 H 358.361 1.27852 -0.940191 0
M  V30 3926 H 358.382 3.80432 0.0720031 0
M  V30 3927 H 357.894 3.47745 -1.72323 0
M  V30 3928 H 355.995 3.65252 0.736314 0
M  V30 3929 H 356.108 4.72106 -0.815631 0
M  V30 3930 H 354.472 2.52448 -0.337944 0
M  V30 3931 H 355.255 2.79987 -1.98651 0
M  V30 3932 N 357.7 0.491464 1.49741 0
M  V30 3933 C 358.925 -0.0557177 2.07325 0
M  V30 3934 C 359.35 -1.30925 1.35056 0
M  V30 3935 O 358.708 -1.76733 0.404365 0
M  V30 3936 C 358.756 -0.302074 3.59333 0
M  V30 3937 O 357.86 -1.37868 3.88672 0
M  V30 3938 H 357.201 0.0219956 0.663636 0
M  V30 3939 H 359.731 0.688352 1.92673 0
M  V30 3940 H 359.741 -0.536464 4.04458 0
M  V30 3941 H 358.416 0.61383 4.11345 0
M  V30 3942 H 356.993 -1.12999 3.55367 0
M  V30 3943 N 359.178 -1.55987 0.224894 0
M  V30 3944 C 360.589 -1.84553 -0.282345 0
M  V30 3945 C 360.94 -1.14634 -1.59227 0
M  V30 3946 O 360.065 -0.417155 -2.12341 0
M  V30 3947 C 360.66 -3.348 -0.519062 0
M  V30 3948 C 359.219 -3.63671 -0.970604 0
M  V30 3949 C 358.366 -2.77277 -0.0355261 0
M  V30 3950 H 361.317 -1.52245 0.448006 0
M  V30 3951 H 361.338 -3.55187 -1.36463 0
M  V30 3952 H 360.85 -3.8566 0.43449 0
M  V30 3953 H 358.951 -3.1827 -1.9374 0
M  V30 3954 H 359.064 -4.71631 -0.842698 0
M  V30 3955 H 357.428 -2.48846 -0.542927 0
M  V30 3956 H 358.211 -3.30937 0.913003 0
M  V30 3957 N 360.656 0.0484629 -1.57525 0
M  V30 3958 C 361.896 0.748196 -1.90214 0
M  V30 3959 C 362.26 1.73545 -0.821347 0
M  V30 3960 O 363.461 2.48201 -1.03198 0
M  V30 3961 C 361.732 1.41727 -3.28098 0
M  V30 3962 S 363.291 2.14884 -3.82584 0
M  V30 3963 H 360.109 0.248307 -0.666232 0
M  V30 3964 H 362.711 0.00343188 -1.955 0
M  V30 3965 H 361.415 0.685244 -4.04639 0
M  V30 3966 H 360.946 2.20099 -3.26068 0
M  V30 3967 H 362.961 3.41755 -3.59747 0
M  V30 3968 N 362.134 1.5431 0.320358 0
M  V30 3969 C 363.097 1.83195 1.3774 0
M  V30 3970 C 364.097 0.703906 1.44575 0
M  V30 3971 O 365.287 0.972214 1.44546 0
M  V30 3972 C 362.419 1.99487 2.76438 0
M  V30 3973 H 363.612 2.77642 1.1338 0
M  V30 3974 H 361.165 1.46076 0.556012 0
M  V30 3975 H 361.9 1.07262 3.06048 0
M  V30 3976 H 361.685 2.81575 2.7287 0
M  V30 3977 H 363.175 2.23271 3.52902 0
M  V30 3978 N 363.613 -0.582584 1.46437 0
M  V30 3979 C 365.029 -0.905962 1.31394 0
M  V30 3980 C 365.229 -1.99468 0.285476 0
M  V30 3981 O 364.285 -2.50566 -0.311914 0
M  V30 3982 C 365.598 -1.3232 2.70022 0
M  V30 3983 C 367.146 -1.43604 2.78113 0
M  V30 3984 C 367.621 -1.88694 4.17323 0
M  V30 3985 N 369.112 -1.95887 4.19741 0
M  V30 3986 C 369.847 -2.32051 5.24347 0
M  V30 3987 N 369.343 -2.67006 6.39281 0
M  V30 3988 N 371.136 -2.32606 5.11713 0
M  V30 3989 H 363.287 0.1366 2.1196 0
M  V30 3990 H 365.55 -0.00155736 0.947999 0
M  V30 3991 H 365.256 -0.597242 3.46592 0
M  V30 3992 H 365.13 -2.28469 3.00136 0
M  V30 3993 H 367.517 -2.15286 2.01832 0
M  V30 3994 H 367.598 -0.457059 2.51684 0
M  V30 3995 H 367.242 -1.1759 4.941 0
M  V30 3996 H 367.172 -2.8755 4.4116 0
M  V30 3997 H 369.663 -1.71362 3.36814 0
M  V30 3998 H 369.976 -2.93554 7.14875 0
M  V30 3999 H 368.321 -2.64644 6.42642 0
M  V30 4000 H 371.512 -2.04721 4.2096 0
M  V30 4001 H 371.685 -2.60462 5.93349 0
M  V30 4002 N 365.091 -1.34144 -0.827227 0
M  V30 4003 C 366.319 -1.29325 -1.61501 0
M  V30 4004 C 366.734 0.13354 -1.88327 0
M  V30 4005 O 366.091 1.0793 -1.47164 0
M  V30 4006 C 366.142 -2.07746 -2.95844 0
M  V30 4007 O 365.863 -3.4486 -2.70191 0
M  V30 4008 C 367.364 -2.10273 -3.90256 0
M  V30 4009 H 364.584 -0.445069 -0.50215 0
M  V30 4010 H 367.128 -1.76693 -1.02955 0
M  V30 4011 H 365.283 -1.6403 -3.5096 0
M  V30 4012 H 365.697 -3.85345 -3.55822 0
M  V30 4013 H 367.171 -2.69575 -4.81698 0
M  V30 4014 H 367.648 -1.096 -4.25305 0
M  V30 4015 H 368.254 -2.54059 -3.41078 0
M  V30 4016 N 366.569 1.04691 -1.17803 0
M  V30 4017 C 367.817 1.7743 -0.967617 0
M  V30 4018 C 368.138 1.88359 0.504574 0
M  V30 4019 O 367.408 1.40402 1.36617 0
M  V30 4020 H 365.988 0.657242 -0.355024 0
M  V30 4021 H 368.65 1.2638 -1.48371 0
M  V30 4022 H 367.746 2.78924 -1.40027 0
M  V30 4023 N 368.047 0.979072 1.23499 0
M  V30 4024 C 369.272 0.664845 1.96455 0
M  V30 4025 C 369.697 -0.761287 1.72006 0
M  V30 4026 O 369.055 -1.51837 0.990713 0
M  V30 4027 C 369.103 0.959479 3.47601 0
M  V30 4028 O 368.207 0.0508168 4.12369 0
M  V30 4029 H 367.548 0.250185 0.615064 0
M  V30 4030 H 370.078 1.31231 1.5697 0
M  V30 4031 H 370.088 0.895642 3.98048 0
M  V30 4032 H 368.763 1.99876 3.64723 0
M  V30 4033 H 367.34 0.16895 3.72517 0
M  V30 4034 N 369.525 -1.3858 0.750561 0
M  V30 4035 C 370.773 -1.99789 0.30477 0
M  V30 4036 C 371.094 -1.59874 -1.11649 0
M  V30 4037 O 370.364 -0.85417 -1.76297 0
M  V30 4038 H 368.944 -0.738902 0.109694 0
M  V30 4039 H 371.606 -1.69391 0.963983 0
M  V30 4040 H 370.702 -3.09952 0.365499 0
M  V30 4041 N 371.003 -0.499398 -1.49478 0
M  V30 4042 C 372.419 -0.155261 -1.58843 0
M  V30 4043 C 372.619 1.34008 -1.50479 0
M  V30 4044 O 371.675 2.11589 -1.37791 0
M  V30 4045 C 372.988 -0.730636 -2.91689 0
M  V30 4046 C 374.536 -0.696599 -3.0515 0
M  V30 4047 C 375.011 -1.25001 -4.40612 0
M  V30 4048 N 376.502 -1.21064 -4.47099 0
M  V30 4049 C 377.237 -1.60905 -5.50361 0
M  V30 4050 N 376.733 -2.08331 -6.60735 0
M  V30 4051 N 378.526 -1.52331 -5.41065 0
M  V30 4052 H 370.677 -1.47162 -1.53158 0
M  V30 4053 H 372.94 -0.610309 -0.725415 0
M  V30 4054 H 372.646 -1.77928 -3.03372 0
M  V30 4055 H 372.52 -0.190161 -3.7672 0
M  V30 4056 H 374.907 0.343204 -2.93097 0
M  V30 4057 H 374.988 -1.2742 -2.21806 0
M  V30 4058 H 374.632 -2.28859 -4.53416 0
M  V30 4059 H 374.562 -0.64836 -5.22593 0
M  V30 4060 H 377.053 -0.863128 -3.67911 0
M  V30 4061 H 377.366 -2.36805 -7.35624 0
M  V30 4062 H 375.711 -2.12304 -6.6178 0
M  V30 4063 H 378.902 -1.151 -4.53729 0
M  V30 4064 H 379.075 -1.83704 -6.21415 0
M  V30 4065 N 372.481 1.55866 -0.233164 0
M  V30 4066 C 373.897 1.59133 0.121988 0
M  V30 4067 C 374.097 1.25016 1.58029 0
M  V30 4068 O 373.153 0.990922 2.32243 0
M  V30 4069 C 374.466 2.99932 -0.214792 0
M  V30 4070 C 376.014 3.12601 -0.157971 0
M  V30 4071 C 376.489 4.55597 -0.46859 0
M  V30 4072 N 377.98 4.61305 -0.418585 0
M  V30 4073 C 378.715 5.69903 -0.63227 0
M  V30 4074 N 378.211 6.86819 -0.90835 0
M  V30 4075 N 380.004 5.59264 -0.563913 0
M  V30 4076 H 372.155 1.76315 -1.18434 0
M  V30 4077 H 374.418 0.820093 -0.475553 0
M  V30 4078 H 374.124 3.29588 -1.22739 0
M  V30 4079 H 373.998 3.74327 0.464691 0
M  V30 4080 H 376.385 2.82735 0.845283 0
M  V30 4081 H 376.466 2.40511 -0.871102 0
M  V30 4082 H 376.11 4.86182 -1.46934 0
M  V30 4083 H 376.04 5.25928 0.265865 0
M  V30 4084 H 378.531 3.77297 -0.213368 0
M  V30 4085 H 378.844 7.65507 -1.05919 0
M  V30 4086 H 377.189 6.88536 -0.945673 0
M  V30 4087 H 380.38 4.66802 -0.348372 0
M  V30 4088 H 380.553 6.43831 -0.733847 0
M  V30 4089 N 373.959 -0.0401083 1.57549 0
M  V30 4090 C 375.199 -0.738098 1.90608 0
M  V30 4091 C 375.563 -1.73107 0.830539 0
M  V30 4092 O 376.764 -2.4765 1.04513 0
M  V30 4093 C 375.035 -1.39985 3.28845 0
M  V30 4094 S 376.594 -2.12852 3.83718 0
M  V30 4095 H 373.412 -0.24477 0.667539 0
M  V30 4096 H 376.014 0.00693599 1.95499 0
M  V30 4097 H 374.718 -0.663775 4.04997 0
M  V30 4098 H 374.249 -2.18366 3.2723 0
M  V30 4099 H 376.264 -3.39842 3.61555 0
M  V30 4100 N 375.437 -1.54477 -0.31217 0
M  V30 4101 C 376.665 -1.77205 -1.068 0
M  V30 4102 C 377.08 -0.526114 -1.81321 0
M  V30 4103 O 376.437 0.503647 -1.75413 0
M  V30 4104 C 376.488 -2.97253 -2.05725 0
M  V30 4105 O 376.209 -4.1703 -1.34228 0
M  V30 4106 C 377.71 -3.32281 -2.93435 0
M  V30 4107 H 374.93 -0.591287 -0.317208 0
M  V30 4108 H 377.474 -2.01398 -0.354834 0
M  V30 4109 H 375.629 -2.753 -2.72559 0
M  V30 4110 H 376.043 -4.84636 -2.00571 0
M  V30 4111 H 377.517 -4.19551 -3.58721 0
M  V30 4112 H 377.994 -2.49945 -3.61143 0
M  V30 4113 H 378.6 -3.56353 -2.32147 0
M  V30 4114 N 376.915 0.57481 -1.46744 0
M  V30 4115 C 378.164 1.32898 -1.51727 0
M  V30 4116 C 378.477 1.948 -0.176692 0
M  V30 4117 O 379.683 2.71299 -0.104385 0
M  V30 4118 C 378.139 2.40901 -2.67385 0
M  V30 4119 C 377.747 1.85266 -4.07898 0
M  V30 4120 C 379.491 3.17609 -2.81646 0
M  V30 4121 C 377.398 2.90945 -5.14883 0
M  V30 4122 H 376.328 0.499631 -0.564699 0
M  V30 4123 H 378.979 0.612536 -1.72975 0
M  V30 4124 H 377.361 3.15379 -2.39483 0
M  V30 4125 H 378.535 1.17278 -4.45626 0
M  V30 4126 H 376.85 1.21199 -3.98371 0
M  V30 4127 H 379.447 3.96493 -3.58744 0
M  V30 4128 H 379.79 3.70696 -1.89448 0
M  V30 4129 H 380.323 2.50239 -3.09233 0
M  V30 4130 H 377.062 2.42736 -6.089 0
M  V30 4131 H 376.582 3.57398 -4.81691 0
M  V30 4132 H 378.261 3.54755 -5.41071 0
M  V30 4133 N 378.394 1.34581 0.820102 0
M  V30 4134 C 379.342 1.26401 1.95258 0
M  V30 4135 C 380.336 0.161553 1.68628 0
M  V30 4136 O 381.542 0.326703 1.7701 0
M  V30 4137 H 377.917 0.392749 0.64129 0
M  V30 4138 H 379.888 2.22105 1.99279 0
M  V30 4139 C 378.637 1.03919 3.31807 0
M  V30 4140 H 377.96 1.87984 3.52848 0
M  V30 4141 H 379.4 1.02232 4.11491 0
M  V30 4142 C 377.859 -0.257433 3.35915 0
M  V30 4143 O 378.389 -1.25784 3.81499 0
M  V30 4144 N 376.595 -0.291524 2.89134 0
M  V30 4145 H 376.142 0.523161 2.52232 0
M  V30 4146 H 376.1 -1.15883 2.92264 0
M  V30 4147 N 379.872 -1.04064 1.18357 0
M  V30 4148 C 381.12 -1.76915 0.977013 0
M  V30 4149 C 381.441 -1.88624 -0.494577 0
M  V30 4150 O 380.711 -1.41125 -1.3587 0
M  V30 4151 H 379.291 -0.65535 0.358504 0
M  V30 4152 H 381.953 -1.25592 1.49039 0
M  V30 4153 H 381.049 -2.78178 1.41504 0
M  V30 4154 N 381.35 -0.985608 -1.22978 0
M  V30 4155 C 382.575 -0.675254 -1.961 0
M  V30 4156 C 383 0.752154 -1.72407 0
M  V30 4157 O 382.358 1.5131 -0.998751 0
M  V30 4158 C 382.406 -0.977899 -3.47087 0
M  V30 4159 O 381.51 -0.072685 -4.12336 0
M  V30 4160 H 380.851 -0.253443 -0.613728 0
M  V30 4161 H 383.381 -1.32061 -1.56272 0
M  V30 4162 H 383.391 -0.916739 -3.97567 0
M  V30 4163 H 382.066 -2.01807 -3.63657 0
M  V30 4164 H 380.643 -0.188703 -3.72422 0
M  V30 4165 N 382.828 1.3818 -0.7579 0
M  V30 4166 C 383.738 2.3421 -0.135247 0
M  V30 4167 C 384.754 1.59487 0.695683 0
M  V30 4168 O 385.93 1.91657 0.618832 0
M  V30 4169 C 382.995 3.3862 0.744139 0
M  V30 4170 C 382.056 4.2918 -0.101658 0
M  V30 4171 C 381.289 5.28603 0.735851 0
M  V30 4172 O 381.512 5.35166 1.97366 0
M  V30 4173 O 380.446 6.01707 0.152372 0
M  V30 4174 H 384.272 2.8916 -0.928436 0
M  V30 4175 H 381.857 1.40101 -0.518855 0
M  V30 4176 H 383.739 4.02539 1.2466 0
M  V30 4177 H 382.414 2.86019 1.51575 0
M  V30 4178 H 381.321 3.68407 -0.650167 0
M  V30 4179 H 382.654 4.85048 -0.836024 0
M  V30 4180 N 384.306 0.507319 1.49211 0
M  V30 4181 C 385.546 -0.0332372 2.04373 0
M  V30 4182 C 385.91 -1.33694 1.37804 0
M  V30 4183 O 387.111 -1.96213 1.83722 0
M  V30 4184 C 385.382 -0.17599 3.56966 0
M  V30 4185 S 386.941 -0.669882 4.33657 0
M  V30 4186 H 383.759 0.00123603 0.710999 0
M  V30 4187 H 386.361 0.682725 1.83191 0
M  V30 4188 H 385.065 0.778053 4.02957 0
M  V30 4189 H 384.596 -0.917005 3.82563 0
M  V30 4190 H 386.611 -1.93806 4.56786 0
M  V30 4191 N 385.784 -1.5574 0.241426 0
M  V30 4192 C 387.2 -1.59196 -0.113548 0
M  V30 4193 C 387.4 -1.25852 -1.57364 0
M  V30 4194 O 386.456 -1.00322 -2.31715 0
M  V30 4195 C 387.769 -2.99814 0.230695 0
M  V30 4196 C 389.317 -3.12513 0.174547 0
M  V30 4197 C 389.792 -4.55342 0.492744 0
M  V30 4198 N 391.283 -4.61076 0.443043 0
M  V30 4199 C 392.018 -5.6956 0.662484 0
M  V30 4200 N 391.514 -6.86328 0.944761 0
M  V30 4201 N 393.307 -5.58957 0.593564 0
M  V30 4202 H 385.458 -1.75685 1.19368 0
M  V30 4203 H 387.721 -0.81756 0.479896 0
M  V30 4204 H 387.427 -3.28932 1.24485 0
M  V30 4205 H 387.301 -3.74568 -0.444833 0
M  V30 4206 H 389.688 -2.83179 -0.830277 0
M  V30 4207 H 389.769 -2.40045 0.883845 0
M  V30 4208 H 389.413 -4.85396 1.4951 0
M  V30 4209 H 389.343 -5.26062 -0.23797 0
M  V30 4210 H 391.834 -3.77179 0.233374 0
M  V30 4211 H 392.147 -7.64935 1.09977 0
M  V30 4212 H 390.492 -6.88025 0.982175 0
M  V30 4213 H 393.683 -4.66611 0.373123 0
M  V30 4214 H 393.856 -6.43433 0.767981 0
M  V30 4215 N 387.262 0.0317525 -1.57568 0
M  V30 4216 C 388.51 0.721676 -1.88776 0
M  V30 4217 C 388.831 1.76039 -0.838772 0
M  V30 4218 O 388.101 1.95482 0.127935 0
M  V30 4219 H 386.681 0.269534 -0.696678 0
M  V30 4220 H 389.343 -0.00165879 -1.949 0
M  V30 4221 H 388.439 1.21293 -2.87566 0
M  V30 4222 N 388.74 1.54641 0.303973 0
M  V30 4223 C 389.988 1.73437 1.0375 0
M  V30 4224 C 390.309 0.521449 1.87899 0
M  V30 4225 O 389.579 -0.46432 1.90318 0
M  V30 4226 H 388.159 0.639518 0.386039 0
M  V30 4227 H 390.821 1.91988 0.335675 0
M  V30 4228 H 389.917 2.62235 1.69231 0
M  V30 4229 N 390.218 -0.567019 1.47046 0
M  V30 4230 C 391.464 -1.32434 1.54379 0
M  V30 4231 C 391.819 -1.91365 0.199276 0
M  V30 4232 O 391.112 -1.74378 -0.793915 0
M  V30 4233 C 391.306 -2.4623 2.59047 0
M  V30 4234 C 391.135 -1.98448 4.03545 0
M  V30 4235 C 389.905 -1.82741 4.71098 0
M  V30 4236 C 392.103 -1.53477 4.90866 0
M  V30 4237 N 390.085 -1.29196 6.00151 0
M  V30 4238 C 391.456 -1.1163 6.09868 0
M  V30 4239 C 393.511 -1.41438 4.77388 0
M  V30 4240 C 392.214 -0.589425 7.16881 0
M  V30 4241 C 394.24 -0.901528 5.84488 0
M  V30 4242 C 393.602 -0.492932 7.02673 0
M  V30 4243 H 389.701 -0.477005 0.61967 0
M  V30 4244 H 392.285 -0.643856 1.83746 0
M  V30 4245 H 390.456 -3.11821 2.31564 0
M  V30 4246 H 392.188 -3.13213 2.56281 0
M  V30 4247 H 388.943 -2.05162 4.26855 0
M  V30 4248 H 389.367 -1.0454 6.6888 0
M  V30 4249 H 394.009 -1.71643 3.86392 0
M  V30 4250 H 391.727 -0.274994 8.07632 0
M  V30 4251 H 395.313 -0.812071 5.76105 0
M  V30 4252 H 394.193 -0.102227 7.84133 0
M  V30 4253 N 391.696 -1.35014 -0.812953 0
M  V30 4254 C 393.107 -1.25035 -1.38648 0
M  V30 4255 C 393.458 0.119967 -1.95833 0
M  V30 4256 O 392.583 1.02069 -1.90816 0
M  V30 4257 C 393.178 -2.26394 -2.52054 0
M  V30 4258 C 391.737 -2.20175 -3.05287 0
M  V30 4259 C 390.884 -2.12451 -1.78213 0
M  V30 4260 H 393.835 -1.46235 -0.616516 0
M  V30 4261 H 393.856 -1.88672 -3.30429 0
M  V30 4262 H 393.368 -3.26116 -2.10404 0
M  V30 4263 H 391.469 -1.23841 -3.51417 0
M  V30 4264 H 391.582 -3.11863 -3.63701 0
M  V30 4265 H 389.946 -1.58328 -1.9951 0
M  V30 4266 H 390.729 -3.14024 -1.38723 0
M  V30 4267 N 393.175 1.03435 -1.18907 0
M  V30 4268 C 394.423 1.76394 -0.986382 0
M  V30 4269 C 394.744 1.88883 0.484567 0
M  V30 4270 O 394.014 1.41843 1.3512 0
M  V30 4271 H 392.594 0.65344 -0.361975 0
M  V30 4272 H 395.256 1.248 -1.49703 0
M  V30 4273 H 394.352 2.77424 -1.42978 0
M  V30 4274 N 394.653 0.992116 1.22453 0
M  V30 4275 C 396.064 0.702776 1.72968 0
M  V30 4276 C 396.415 -0.780399 1.80012 0
M  V30 4277 O 395.54 -1.61007 1.44589 0
M  V30 4278 C 396.135 1.26903 3.14135 0
M  V30 4279 C 394.694 1.02909 3.62059 0
M  V30 4280 C 393.841 1.38969 2.39964 0
M  V30 4281 H 396.792 1.16457 1.07812 0
M  V30 4282 H 396.813 0.647223 3.74955 0
M  V30 4283 H 396.325 2.34851 3.08977 0
M  V30 4284 H 394.426 -0.0337979 3.72585 0
M  V30 4285 H 394.539 1.69191 4.48231 0
M  V30 4286 H 392.903 0.808279 2.41535 0
M  V30 4287 H 393.686 2.4792 2.37467 0
M  V30 4288 N 396.131 -1.37776 0.765217 0
M  V30 4289 C 397.079 -2.32209 0.134798 0
M  V30 4290 C 398.073 -1.54607 -0.692315 0
M  V30 4291 O 399.279 -1.70052 -0.590109 0
M  V30 4292 H 395.654 -0.751591 0.0248005 0
M  V30 4293 H 397.625 -2.8297 0.947119 0
M  V30 4294 C 396.374 -3.39841 -0.735063 0
M  V30 4295 H 395.697 -3.99654 -0.107991 0
M  V30 4296 H 397.137 -4.08296 -1.14326 0
M  V30 4297 C 395.596 -2.79378 -1.88281 0
M  V30 4298 O 396.126 -2.69608 -2.97783 0
M  V30 4299 N 394.332 -2.37016 -1.68142 0
M  V30 4300 H 393.879 -2.45162 -0.790772 0
M  V30 4301 H 393.837 -1.96905 -2.45104 0
M  V30 4302 N 397.609 -0.515225 -1.4894 0
M  V30 4303 C 398.559 0.275113 -2.26334 0
M  V30 4304 C 399.543 0.923007 -1.31793 0
M  V30 4305 O 400.735 0.828254 -1.56426 0
M  V30 4306 C 397.864 1.33041 -3.16473 0
M  V30 4307 C 396.95 0.688051 -4.18481 0
M  V30 4308 N 397.341 -0.217638 -5.05332 0
M  V30 4309 C 395.639 0.94699 -4.3583 0
M  V30 4310 C 396.34 -0.58676 -5.78733 0
M  V30 4311 N 395.316 0.0486966 -5.43578 0
M  V30 4312 H 399.118 -0.421876 -2.90856 0
M  V30 4313 H 396.632 -0.332249 -1.58965 0
M  V30 4314 H 398.629 1.9102 -3.70563 0
M  V30 4315 H 397.289 2.02894 -2.53504 0
M  V30 4316 H 398.3 -0.589343 -5.14536 0
M  V30 4317 H 394.977 1.63719 -3.8406 0
M  V30 4318 H 396.367 -1.32855 -6.58634 0
M  V30 4319 N 399.087 1.5561 -0.249682 0
M  V30 4320 C 400.335 1.98618 0.373548 0
M  V30 4321 C 400.656 1.13919 1.58264 0
M  V30 4322 O 399.926 0.222637 1.94631 0
M  V30 4323 H 398.506 0.733571 0.141006 0
M  V30 4324 H 401.168 1.91748 -0.349117 0
M  V30 4325 H 400.264 3.04584 0.680796 0
M  V30 4326 N 400.565 -0.0233959 1.57583 0
M  V30 4327 C 401.814 -0.712133 1.8871 0
M  V30 4328 C 402.127 -1.76217 0.848944 0
M  V30 4329 O 403.333 -2.50389 1.04964 0
M  V30 4330 C 401.789 -1.3177 3.3491 0
M  V30 4331 C 401.397 -0.303715 4.46969 0
M  V30 4332 C 403.141 -1.98598 3.75179 0
M  V30 4333 C 401.048 -0.917945 5.84233 0
M  V30 4334 H 399.978 -0.269735 0.704101 0
M  V30 4335 H 402.629 0.0333114 1.8347 0
M  V30 4336 H 401.011 -2.11304 3.34913 0
M  V30 4337 H 402.185 0.465325 4.58445 0
M  V30 4338 H 400.5 0.2628 4.1557 0
M  V30 4339 H 403.097 -2.45416 4.75053 0
M  V30 4340 H 403.44 -2.80659 3.07468 0
M  V30 4341 H 403.973 -1.25831 3.77374 0
M  V30 4342 H 400.712 -0.136633 6.55358 0
M  V30 4343 H 400.232 -1.65669 5.76467 0
M  V30 4344 H 401.911 -1.4236 6.31144 0
M  V30 4345 N 402.043 -1.548 -0.295768 0
M  V30 4346 C 403.271 -1.78327 -1.04914 0
M  V30 4347 C 403.686 -0.545316 -1.80753 0
M  V30 4348 O 403.043 0.485013 -1.75937 0
M  V30 4349 C 403.094 -2.99418 -2.02561 0
M  V30 4350 O 402.815 -4.18431 -1.29798 0
M  V30 4351 C 404.316 -3.35375 -2.89895 0
M  V30 4352 H 401.536 -0.594618 -0.310918 0
M  V30 4353 H 404.08 -2.01763 -0.333454 0
M  V30 4354 H 402.235 -2.78175 -2.69624 0
M  V30 4355 H 402.649 -4.86736 -1.95419 0
M  V30 4356 H 404.123 -4.23332 -3.54251 0
M  V30 4357 H 404.6 -2.53761 -3.58472 0
M  V30 4358 H 405.206 -3.58796 -2.28355 0
M  V30 4359 N 403.521 0.559213 -1.47345 0
M  V30 4360 C 404.471 1.66192 -1.5609 0
M  V30 4361 C 405.455 1.55323 -0.419957 0
M  V30 4362 O 406.647 1.63839 -0.669762 0
M  V30 4363 C 403.776 3.0497 -1.57634 0
M  V30 4364 C 402.862 3.2105 -2.77106 0
M  V30 4365 N 403.253 3.07203 -4.01821 0
M  V30 4366 C 401.551 3.52046 -2.73825 0
M  V30 4367 C 402.252 3.25919 -4.81821 0
M  V30 4368 N 401.228 3.52161 -4.14106 0
M  V30 4369 H 405.03 1.54052 -2.5029 0
M  V30 4370 H 402.544 0.763914 -1.43311 0
M  V30 4371 H 404.541 3.84142 -1.61989 0
M  V30 4372 H 403.201 3.18224 -0.645281 0
M  V30 4373 H 404.212 2.84572 -4.32711 0
M  V30 4374 H 400.889 3.71839 -1.89848 0
M  V30 4375 H 402.279 3.20198 -5.90697 0
M  V30 4376 N 404.999 1.35443 0.805782 0
M  V30 4377 C 406.246 1.28761 1.56291 0
M  V30 4378 C 406.574 -0.137747 1.94012 0
M  V30 4379 O 405.829 -1.1032 1.61642 0
M  V30 4380 C 406.128 2.14045 2.86216 0
M  V30 4381 C 405.794 3.62826 2.67709 0
M  V30 4382 C 404.456 4.0338 2.6237 0
M  V30 4383 C 406.808 4.57227 2.50186 0
M  V30 4384 C 404.136 5.36501 2.37451 0
M  V30 4385 C 406.488 5.90547 2.26797 0
M  V30 4386 C 405.152 6.30245 2.1988 0
M  V30 4387 H 404.422 0.471171 0.571908 0
M  V30 4388 H 407.069 1.67347 0.930974 0
M  V30 4389 H 405.374 1.68342 3.53791 0
M  V30 4390 H 407.071 2.0621 3.43917 0
M  V30 4391 H 403.661 3.30644 2.72713 0
M  V30 4392 H 407.845 4.2678 2.53323 0
M  V30 4393 H 403.101 5.66259 2.30567 0
M  V30 4394 H 407.275 6.63274 2.12228 0
M  V30 4395 H 404.902 7.33328 2.00333 0
M  V30 4396 N 406.477 -1.02803 1.19454 0
M  V30 4397 C 407.754 -1.73299 0.907013 0
M  V30 4398 C 408.134 -2.02772 -0.587086 0
M  V30 4399 O 407.482 -1.68304 -1.54551 0
M  V30 4400 C 407.692 -3.00912 1.76785 0
M  V30 4401 C 409.04 -3.74403 2.00268 0
M  V30 4402 O 410.064 -3.10841 1.73943 0
M  V30 4403 O 408.923 -4.88675 2.4466 0
M  V30 4404 H 406.017 -0.754727 0.338106 0
M  V30 4405 H 408.563 -1.08754 1.30271 0
M  V30 4406 H 407.335 -2.75366 2.7801 0
M  V30 4407 H 406.958 -3.73197 1.37149 0
M  V30 4408 N 407.956 -0.998596 -1.21925 0
M  V30 4409 C 408.904 -0.546641 -2.26085 0
M  V30 4410 C 409.898 0.405576 -1.64473 0
M  V30 4411 O 411.104 0.277471 -1.77849 0
M  V30 4412 H 407.479 -0.158403 -0.735127 0
M  V30 4413 H 409.45 -1.43645 -2.61551 0
M  V30 4414 C 408.199 0.117388 -3.47502 0
M  V30 4415 H 407.522 -0.606277 -3.95176 0
M  V30 4416 H 408.962 0.396993 -4.22137 0
M  V30 4417 C 407.421 1.35455 -3.0847 0
M  V30 4418 O 407.951 2.44944 -3.18379 0
M  V30 4419 N 406.157 1.23191 -2.63196 0
M  V30 4420 H 405.704 0.341006 -2.55333 0
M  V30 4421 H 405.662 2.06071 -2.37449 0
M  V30 4422 N 409.434 1.37368 -0.772513 0
M  V30 4423 C 410.681 1.99673 -0.337182 0
M  V30 4424 C 411.009 1.61324 1.0865 0
M  V30 4425 O 410.264 0.851377 1.7621 0
M  V30 4426 C 410.563 3.54817 -0.428876 0
M  V30 4427 C 410.229 4.12936 -1.81092 0
M  V30 4428 C 408.891 4.28523 -2.1891 0
M  V30 4429 C 411.243 4.44801 -2.71664 0
M  V30 4430 C 408.571 4.73277 -3.46735 0
M  V30 4431 C 410.923 4.90981 -3.98899 0
M  V30 4432 C 409.587 5.04773 -4.36761 0
M  V30 4433 H 408.857 0.730656 -0.123384 0
M  V30 4434 H 411.504 1.64124 -0.986686 0
M  V30 4435 H 409.809 3.90618 0.304167 0
M  V30 4436 H 411.506 4.00933 -0.0733334 0
M  V30 4437 H 408.096 4.01233 -1.50699 0
M  V30 4438 H 412.28 4.32344 -2.43706 0
M  V30 4439 H 407.536 4.82142 -3.75964 0
M  V30 4440 H 411.71 5.14603 -4.69208 0
M  V30 4441 H 409.337 5.39211 -5.35868 0
M  V30 4442 N 410.912 0.523116 1.48665 0
M  V30 4443 C 412.16 -0.0134497 2.02096 0
M  V30 4444 C 412.481 -1.35418 1.40311 0
M  V30 4445 O 411.751 -1.87543 0.566074 0
M  V30 4446 H 410.331 -0.00795915 0.746958 0
M  V30 4447 H 412.993 0.685388 1.82451 0
M  V30 4448 H 412.089 -0.126849 3.11842 0
M  V30 4449 N 412.39 -1.55475 0.257931 0
M  V30 4450 C 413.637 -1.99207 -0.363728 0
M  V30 4451 C 413.965 -1.1462 -1.57139 0
M  V30 4452 O 413.22 -0.199653 -1.94679 0
M  V30 4453 C 413.519 -3.48183 -0.806433 0
M  V30 4454 C 413.185 -4.49936 0.294684 0
M  V30 4455 C 411.847 -4.77481 0.597076 0
M  V30 4456 C 414.199 -5.10769 1.03751 0
M  V30 4457 C 411.527 -5.63132 1.64618 0
M  V30 4458 C 413.879 -5.97558 2.07622 0
M  V30 4459 C 412.543 -6.23432 2.38514 0
M  V30 4460 H 411.813 -0.728949 -0.133097 0
M  V30 4461 H 414.46 -1.8793 0.368059 0
M  V30 4462 H 412.765 -3.56848 -1.61761 0
M  V30 4463 H 414.462 -3.79415 -1.29789 0
M  V30 4464 H 411.052 -4.28572 0.0488649 0
M  V30 4465 H 415.236 -4.89527 0.817149 0
M  V30 4466 H 410.492 -5.8143 1.89074 0
M  V30 4467 H 414.666 -6.43735 2.65666 0
M  V30 4468 H 412.293 -6.89594 3.19943 0
M  V30 4469 N 413.868 0.0150385 -1.57593 0
M  V30 4470 C 415.093 0.718067 -1.94573 0
M  V30 4471 C 415.518 1.6734 -0.859005 0
M  V30 4472 O 414.876 1.80362 0.184147 0
M  V30 4473 C 414.924 1.43918 -3.30636 0
M  V30 4474 O 414.028 2.55299 -3.23876 0
M  V30 4475 H 413.369 0.192125 -0.635597 0
M  V30 4476 H 415.899 -0.0336708 -2.04572 0
M  V30 4477 H 415.909 1.80598 -3.65853 0
M  V30 4478 H 414.584 0.738619 -4.09289 0
M  V30 4479 H 413.161 2.21058 -3.00312 0
M  V30 4480 N 415.346 1.54954 0.287554 0
M  V30 4481 C 416.279 1.81737 1.3801 0
M  V30 4482 C 417.257 0.669412 1.48181 0
M  V30 4483 O 418.441 0.910839 1.65033 0
M  V30 4484 C 415.568 1.96606 2.75796 0
M  V30 4485 C 414.614 3.19098 2.82982 0
M  V30 4486 S 415.447 4.7683 2.43707 0
M  V30 4487 C 416.603 4.94653 3.83496 0
M  V30 4488 H 416.836 2.74122 1.15085 0
M  V30 4489 H 414.369 1.46538 0.486403 0
M  V30 4490 H 416.327 2.05858 3.55152 0
M  V30 4491 H 414.988 1.05136 2.95982 0
M  V30 4492 H 414.181 3.26344 3.84077 0
M  V30 4493 H 413.783 3.08361 2.11635 0
M  V30 4494 H 416.075 4.79502 4.78628 0
M  V30 4495 H 417.018 5.96728 3.8121 0
M  V30 4496 H 417.426 4.2272 3.74123 0
M  V30 4497 N 416.824 -0.551391 1.4764 0
M  V30 4498 C 417.754 -1.66757 1.63445 0
M  V30 4499 C 418.735 -1.63077 0.483742 0
M  V30 4500 O 419.92 -1.80607 0.71377 0
M  V30 4501 C 417.05 -3.05387 1.65396 0
M  V30 4502 C 416.004 -3.23918 2.79752 0
M  V30 4503 C 415.33 -4.63393 2.66779 0
M  V30 4504 C 416.63 -3.08735 4.21284 0
M  V30 4505 H 418.324 -1.53786 2.56886 0
M  V30 4506 H 415.87 -0.738415 1.23626 0
M  V30 4507 H 417.823 -3.83325 1.75043 0
M  V30 4508 H 416.547 -3.19332 0.685195 0
M  V30 4509 H 415.206 -2.48391 2.69625 0
M  V30 4510 H 414.854 -4.74144 1.67918 0
M  V30 4511 H 414.554 -4.7674 3.43501 0
M  V30 4512 H 416.078 -5.43458 2.78364 0
M  V30 4513 H 417.492 -3.76484 4.32357 0
M  V30 4514 H 415.889 -3.33588 4.98838 0
M  V30 4515 H 416.959 -2.0541 4.39243 0
M  V30 4516 N 418.302 -1.35869 -0.798587 0
M  V30 4517 C 419.53 -1.32722 -1.58722 0
M  V30 4518 C 419.945 0.0935631 -1.88568 0
M  V30 4519 O 419.302 1.04784 -1.49421 0
M  V30 4520 C 419.353 -2.13974 -2.91371 0
M  V30 4521 O 419.074 -3.50514 -2.62815 0
M  V30 4522 C 420.575 -2.18504 -3.85708 0
M  V30 4523 H 417.795 -0.45562 -0.492596 0
M  V30 4524 H 420.339 -1.78837 -0.991843 0
M  V30 4525 H 418.494 -1.71438 -3.47402 0
M  V30 4526 H 418.908 -3.92806 -3.47568 0
M  V30 4527 H 420.382 -2.79732 -4.75872 0
M  V30 4528 H 420.859 -1.18597 -4.22885 0
M  V30 4529 H 421.465 -2.61236 -3.35612 0
M  V30 4530 N 419.78 1.02168 -1.19998 0
M  V30 4531 C 421.026 1.75945 -1.00852 0
M  V30 4532 C 421.359 1.88702 0.458828 0
M  V30 4533 O 420.634 1.40911 1.34069 0
M  V30 4534 C 420.917 3.18154 -1.68671 0
M  V30 4535 C 420.77 3.13224 -3.22817 0
M  V30 4536 C 422.089 4.16711 -1.41561 0
M  V30 4537 H 419.208 0.638673 -0.367785 0
M  V30 4538 H 421.85 1.19222 -1.4794 0
M  V30 4539 H 420 3.66586 -1.28636 0
M  V30 4540 H 421.672 2.72635 -3.72112 0
M  V30 4541 H 419.915 2.50751 -3.53986 0
M  V30 4542 H 420.586 4.13728 -3.65422 0
M  V30 4543 H 423.062 3.76913 -1.76284 0
M  V30 4544 H 421.938 5.14391 -1.91553 0
M  V30 4545 H 422.199 4.40774 -0.342193 0
M  V30 4546 N 421.258 1.00505 1.21394 0
M  V30 4547 C 422.488 0.705584 1.94178 0
M  V30 4548 C 422.896 -0.735846 1.74304 0
M  V30 4549 O 422.239 -1.50954 1.04683 0
M  V30 4550 C 422.301 0.94689 3.46806 0
M  V30 4551 C 421.965 2.37517 3.90429 0
M  V30 4552 C 422.962 3.35539 3.97127 0
M  V30 4553 C 420.647 2.71284 4.22742 0
M  V30 4554 C 422.641 4.65395 4.3553 0
M  V30 4555 C 420.328 4.01356 4.60822 0
M  V30 4556 C 421.326 4.98223 4.67186 0
M  V30 4557 O 421.014 6.25969 5.04399 0
M  V30 4558 H 420.746 0.259216 0.624326 0
M  V30 4559 H 423.3 1.34592 1.55159 0
M  V30 4560 H 421.53 0.249386 3.85895 0
M  V30 4561 H 423.219 0.640804 4.0081 0
M  V30 4562 H 423.985 3.10786 3.7234 0
M  V30 4563 H 419.864 1.96581 4.16985 0
M  V30 4564 H 423.408 5.41002 4.40412 0
M  V30 4565 H 419.305 4.25893 4.85063 0
M  V30 4566 H 420.073 6.30085 5.22431 0
M  V30 4567 N 422.737 -1.36956 0.779787 0
M  V30 4568 C 423.669 -2.28833 0.129639 0
M  V30 4569 C 424.682 -1.4902 -0.655511 0
M  V30 4570 O 425.871 -1.71578 -0.492279 0
M  V30 4571 C 422.971 -3.2833 -0.839792 0
M  V30 4572 C 422.144 -4.3727 -0.10675 0
M  V30 4573 C 421.203 -5.16789 -0.990717 0
M  V30 4574 O 420.229 -5.67406 -0.451516 0
M  V30 4575 N 421.431 -5.32294 -2.3161 0
M  V30 4576 H 424.196 -2.85268 0.918803 0
M  V30 4577 H 421.757 -1.49019 0.632841 0
M  V30 4578 H 423.749 -3.78413 -1.43477 0
M  V30 4579 H 422.319 -2.72605 -1.52988 0
M  V30 4580 H 421.539 -3.88478 0.669216 0
M  V30 4581 H 422.827 -5.07229 0.399464 0
M  V30 4582 H 422.225 -4.92768 -2.77843 0
M  V30 4583 H 420.782 -5.85656 -2.86095 0
M  V30 4584 N 424.215 -0.530993 -1.48385 0
M  V30 4585 C 425.455 0.000718982 -2.044 0
M  V30 4586 C 425.819 1.31485 -1.39913 0
M  V30 4587 O 427.02 1.93265 -1.86821 0
M  V30 4588 C 425.291 0.119177 -3.57201 0
M  V30 4589 S 426.85 0.600806 -4.34667 0
M  V30 4590 H 423.668 -0.0125473 -0.710889 0
M  V30 4591 H 426.27 -0.711783 -1.82082 0
M  V30 4592 H 424.974 -0.842061 -4.01668 0
M  V30 4593 H 424.505 0.856026 -3.83974 0
M  V30 4594 H 426.52 1.86514 -4.59812 0
M  V30 4595 N 425.693 1.55336 -0.266172 0
M  V30 4596 C 426.942 1.98574 0.353749 0
M  V30 4597 C 427.255 1.15789 1.57646 0
M  V30 4598 O 428.461 1.49129 2.26876 0
M  V30 4599 C 426.917 3.53403 0.680747 0
M  V30 4600 C 426.525 4.44953 -0.52165 0
M  V30 4601 C 428.269 4.05251 1.26379 0
M  V30 4602 C 426.176 5.91156 -0.169736 0
M  V30 4603 H 425.106 0.741643 0.135949 0
M  V30 4604 H 427.757 1.79743 -0.369421 0
M  V30 4605 H 426.139 3.68001 1.46257 0
M  V30 4606 H 427.313 4.42121 -1.29869 0
M  V30 4607 H 425.628 4.03691 -1.02093 0
M  V30 4608 H 428.225 5.12021 1.54074 0
M  V30 4609 H 428.568 3.53749 2.19471 0
M  V30 4610 H 429.101 3.94057 0.544447 0
M  V30 4611 H 425.84 6.46736 -1.0683 0
M  V30 4612 H 425.36 5.97079 0.570717 0
M  V30 4613 H 427.039 6.4655 0.241245 0
M  V30 4614 N 427.171 -0.0066808 1.57599 0
M  V30 4615 C 428.399 -0.704087 1.94551 0
M  V30 4616 C 428.814 -1.67677 0.867746 0
M  V30 4617 O 428.171 -1.8185 -0.153925 0
M  V30 4618 C 428.222 -1.44177 3.31505 0
M  V30 4619 O 427.943 -0.508097 4.35144 0
M  V30 4620 C 429.444 -2.23429 3.82876 0
M  V30 4621 H 426.664 -0.196523 0.641576 0
M  V30 4622 H 429.208 0.042453 2.04456 0
M  V30 4623 H 427.363 -2.13999 3.22929 0
M  V30 4624 H 427.777 -1.02782 5.14331 0
M  V30 4625 H 429.251 -2.70552 4.8115 0
M  V30 4626 H 429.728 -3.05818 3.15233 0
M  V30 4627 H 430.334 -1.58636 3.94607 0
M  V30 4628 N 428.649 -1.55105 -0.279332 0
M  V30 4629 C 429.582 -1.82467 -1.37044 0
M  V30 4630 C 430.56 -0.677261 -1.47824 0
M  V30 4631 O 431.744 -0.919578 -1.64548 0
M  V30 4632 C 428.871 -1.98066 -2.7475 0
M  V30 4633 C 427.917 -3.20594 -2.81286 0
M  V30 4634 S 428.75 -4.78116 -2.41175 0
M  V30 4635 C 429.906 -4.9668 -3.80867 0
M  V30 4636 H 430.139 -2.74728 -1.1363 0
M  V30 4637 H 427.672 -1.46794 -0.478625 0
M  V30 4638 H 429.63 -2.07739 -3.54055 0
M  V30 4639 H 428.291 -1.06704 -2.9542 0
M  V30 4640 H 427.484 -3.28376 -3.82341 0
M  V30 4641 H 427.086 -3.09479 -2.09996 0
M  V30 4642 H 429.378 -4.82033 -4.76078 0
M  V30 4643 H 430.321 -5.98741 -3.78041 0
M  V30 4644 H 430.729 -4.24698 -3.71876 0
M  V30 4645 N 430.127 0.543554 -1.4793 0
M  V30 4646 C 431.037 1.67657 -1.64098 0
M  V30 4647 C 432.053 1.65934 -0.523622 0
M  V30 4648 O 433.229 1.85133 -0.792943 0
M  V30 4649 C 430.294 3.04146 -1.66421 0
M  V30 4650 C 429.355 3.16831 -2.89684 0
M  V30 4651 C 428.588 4.46809 -2.91886 0
M  V30 4652 O 428.811 5.33095 -2.02895 0
M  V30 4653 O 427.745 4.63573 -3.83906 0
M  V30 4654 H 431.571 1.56957 -2.59997 0
M  V30 4655 H 429.156 0.715116 -1.31173 0
M  V30 4656 H 431.038 3.85346 -1.70548 0
M  V30 4657 H 429.713 3.152 -0.736923 0
M  V30 4658 H 428.62 2.34977 -2.91095 0
M  V30 4659 H 429.953 3.10687 -3.81752 0
M  V30 4660 N 431.605 1.3629 0.791371 0
M  V30 4661 C 432.853 1.30154 1.5461 0
M  V30 4662 C 433.174 -0.119409 1.94634 0
M  V30 4663 O 432.444 -1.05924 1.64794 0
M  V30 4664 H 431.024 0.478784 0.573389 0
M  V30 4665 H 433.686 1.70565 0.94306 0
M  V30 4666 H 432.782 1.92762 2.45457 0
M  V30 4667 N 433.083 -1.0153 1.20538 0
M  V30 4668 C 434.329 -1.75517 1.02787 0
M  V30 4669 C 434.684 -1.87411 -0.435289 0
M  V30 4670 O 433.977 -1.38982 -1.31889 0
M  V30 4671 C 434.171 -3.17213 1.64654 0
M  V30 4672 C 434 -3.19134 3.16834 0
M  V30 4673 C 432.77 -3.26301 3.85818 0
M  V30 4674 C 434.968 -3.05077 4.14044 0
M  V30 4675 N 432.95 -3.17739 5.25276 0
M  V30 4676 C 434.321 -3.04299 5.40187 0
M  V30 4677 C 436.376 -2.89303 4.05226 0
M  V30 4678 C 435.079 -2.89365 6.58529 0
M  V30 4679 C 437.105 -2.75723 5.23193 0
M  V30 4680 C 436.467 -2.75612 6.48242 0
M  V30 4681 H 432.566 -0.652919 0.430373 0
M  V30 4682 H 435.15 -1.20755 1.52729 0
M  V30 4683 H 433.321 -3.70266 1.17294 0
M  V30 4684 H 435.053 -3.79637 1.40208 0
M  V30 4685 H 431.808 -3.33078 3.36684 0
M  V30 4686 H 432.232 -3.16829 5.98288 0
M  V30 4687 H 436.874 -2.88201 3.09354 0
M  V30 4688 H 434.592 -2.89216 7.54573 0
M  V30 4689 H 438.178 -2.64533 5.18183 0
M  V30 4690 H 437.058 -2.65224 7.37988 0
M  V30 4691 N 434.561 -1.01147 -1.20859 0
M  V30 4692 C 435.789 -0.716911 -1.94082 0
M  V30 4693 C 436.204 0.721568 -1.74467 0
M  V30 4694 O 435.561 1.48889 -1.05539 0
M  V30 4695 C 435.612 -1.03662 -3.46318 0
M  V30 4696 O 435.333 -2.4186 -3.65288 0
M  V30 4697 C 436.834 -0.762386 -4.36695 0
M  V30 4698 H 434.054 -0.26367 -0.617024 0
M  V30 4699 H 436.598 -1.35127 -1.53496 0
M  V30 4700 H 434.753 -0.447757 -3.84804 0
M  V30 4701 H 435.167 -2.53224 -4.59323 0
M  V30 4702 H 436.641 -1.03621 -5.42187 0
M  V30 4703 H 437.118 0.303514 -4.3815 0
M  V30 4704 H 437.724 -1.33316 -4.03865 0
M  V30 4705 N 436.039 1.36541 -0.78704 0
M  V30 4706 C 437.316 1.9355 -0.282424 0
M  V30 4707 C 437.696 1.71919 1.22503 0
M  V30 4708 O 437.044 1.07677 2.01539 0
M  V30 4709 C 437.254 3.4246 -0.672462 0
M  V30 4710 C 438.602 4.19582 -0.650863 0
M  V30 4711 O 439.626 3.50889 -0.612789 0
M  V30 4712 O 438.485 5.42106 -0.691623 0
M  V30 4713 H 435.579 0.824091 -0.0693 0
M  V30 4714 H 438.125 1.45736 -0.869423 0
M  V30 4715 H 436.897 3.51851 -1.71221 0
M  V30 4716 H 436.52 3.97556 -0.0592211 0
M  V30 4717 N 437.518 0.538854 1.48102 0
M  V30 4718 C 438.764 0.00801365 2.02798 0
M  V30 4719 C 439.097 -1.3309 1.41424 0
M  V30 4720 O 438.372 -1.86169 0.563158 0
M  V30 4721 C 438.655 -0.104589 3.59948 0
M  V30 4722 C 438.508 1.26012 4.31788 0
M  V30 4723 C 439.827 -0.827055 4.32259 0
M  V30 4724 H 436.946 0.00438624 0.736987 0
M  V30 4725 H 439.588 0.6976 1.7673 0
M  V30 4726 H 437.738 -0.691893 3.82289 0
M  V30 4727 H 439.41 1.88922 4.2084 0
M  V30 4728 H 437.653 1.83968 3.92859 0
M  V30 4729 H 438.324 1.13424 5.40221 0
M  V30 4730 H 440.8 -0.328578 4.14801 0
M  V30 4731 H 439.676 -0.87476 5.41885 0
M  V30 4732 H 439.937 -1.87927 4.0017 0
M  V30 4733 N 438.996 -1.55193 0.274407 0
M  V30 4734 C 439.926 -2.25471 -0.607032 0
M  V30 4735 C 440.907 -1.24461 -1.15946 0
M  V30 4736 O 442.092 -1.53179 -1.19373 0
M  V30 4737 C 439.222 -2.97526 -1.79153 0
M  V30 4738 C 438.176 -4.05459 -1.37067 0
M  V30 4739 C 437.502 -4.65084 -2.6382 0
M  V30 4740 C 438.802 -5.19691 -0.521389 0
M  V30 4741 H 440.496 -2.99393 -0.0209343 0
M  V30 4742 H 438.042 -1.43997 -0.00862866 0
M  V30 4743 H 439.995 -3.45402 -2.41404 0
M  V30 4744 H 438.719 -2.21138 -2.40344 0
M  V30 4745 H 437.378 -3.58393 -0.771355 0
M  V30 4746 H 437.026 -3.85365 -3.23268 0
M  V30 4747 H 436.726 -5.37961 -2.36372 0
M  V30 4748 H 438.25 -5.15708 -3.26921 0
M  V30 4749 H 439.664 -5.63623 -1.04889 0
M  V30 4750 H 438.061 -5.99126 -0.341825 0
M  V30 4751 H 439.131 -4.82713 0.46 0
M  V30 4752 N 440.474 -0.00167713 -1.576 0
M  V30 4753 C 441.704 0.692754 -1.94639 0
M  V30 4754 C 442.112 1.67744 -0.87513 0
M  V30 4755 O 441.455 1.8305 0.154382 0
M  V30 4756 C 441.517 1.47881 -3.27676 0
M  V30 4757 C 441.181 0.655518 -4.52274 0
M  V30 4758 C 442.178 -0.0575214 -5.19868 0
M  V30 4759 C 439.863 0.600994 -4.98692 0
M  V30 4760 C 441.857 -0.814052 -6.3218 0
M  V30 4761 C 439.544 -0.15926 -6.10892 0
M  V30 4762 C 440.542 -0.865515 -6.77494 0
M  V30 4763 O 440.23 -1.61336 -7.87544 0
M  V30 4764 H 439.962 0.197792 -0.646417 0
M  V30 4765 H 442.516 -0.049423 -2.05341 0
M  V30 4766 H 440.746 2.2655 -3.13388 0
M  V30 4767 H 442.435 2.05874 -3.49816 0
M  V30 4768 H 443.201 -0.0245611 -4.84994 0
M  V30 4769 H 439.08 1.14025 -4.46676 0
M  V30 4770 H 442.624 -1.36584 -6.84098 0
M  V30 4771 H 438.521 -0.194035 -6.45208 0
M  V30 4772 H 439.289 -1.53025 -8.04068 0
M  V30 4773 N 441.952 1.55251 0.271103 0
M  V30 4774 C 443.198 1.7713 0.999832 0
M  V30 4775 C 443.553 0.56659 1.83868 0
M  V30 4776 O 442.846 -0.44069 1.86463 0
M  V30 4777 C 443.04 3.01879 1.91321 0
M  V30 4778 C 442.869 4.34368 1.16426 0
M  V30 4779 C 441.639 4.97593 0.879169 0
M  V30 4780 C 443.837 5.1131 0.553749 0
M  V30 4781 N 441.819 6.13813 0.103618 0
M  V30 4782 C 443.19 6.19938 -0.0875442 0
M  V30 4783 C 445.245 4.95754 0.461782 0
M  V30 4784 C 443.948 7.14703 -0.811942 0
M  V30 4785 C 445.974 5.90875 -0.249027 0
M  V30 4786 C 445.336 6.98893 -0.879051 0
M  V30 4787 H 441.435 0.700407 0.347784 0
M  V30 4788 H 444.019 1.92744 0.275314 0
M  V30 4789 H 442.19 2.87637 2.60997 0
M  V30 4790 H 443.922 3.12154 2.57569 0
M  V30 4791 H 440.677 4.58538 1.18491 0
M  V30 4792 H 441.101 6.76455 -0.271543 0
M  V30 4793 H 445.743 4.12342 0.934552 0
M  V30 4794 H 443.461 7.97634 -1.29639 0
M  V30 4795 H 447.047 5.80916 -0.320529 0
M  V30 4796 H 445.927 7.71231 -1.42031 0
M  V30 4797 N 443.43 -0.535701 1.48216 0
M  V30 4798 C 444.676 -1.29375 1.56173 0
M  V30 4799 C 445.009 -1.92804 0.232429 0
M  V30 4800 O 444.284 -1.78992 -0.761048 0
M  V30 4801 C 444.567 -2.38747 2.69577 0
M  V30 4802 C 444.42 -1.80046 4.12193 0
M  V30 4803 C 445.739 -3.40551 2.78771 0
M  V30 4804 H 442.858 -0.469027 0.568491 0
M  V30 4805 H 445.5 -0.597358 1.80365 0
M  V30 4806 H 443.65 -2.98147 2.4908 0
M  V30 4807 H 445.322 -1.24742 4.44114 0
M  V30 4808 H 443.565 -1.10609 4.19462 0
M  V30 4809 H 444.236 -2.59212 4.87353 0
M  V30 4810 H 446.712 -2.91099 2.97322 0
M  V30 4811 H 445.588 -4.1448 3.59857 0
M  V30 4812 H 445.849 -4.00746 1.86696 0
M  V30 4813 N 444.908 -1.36708 -0.784132 0
M  V30 4814 C 445.856 -1.31533 -1.91838 0
M  V30 4815 C 446.85 -0.206205 -1.6814 0
M  V30 4816 O 448.056 -0.373519 -1.76082 0
M  V30 4817 H 444.431 -0.409613 -0.630651 0
M  V30 4818 H 446.402 -2.2731 -1.9332 0
M  V30 4819 C 445.151 -1.12679 -3.28936 0
M  V30 4820 H 444.474 -1.97274 -3.4774 0
M  V30 4821 H 445.914 -1.13106 -4.08636 0
M  V30 4822 C 444.373 0.168281 -3.36479 0
M  V30 4823 O 444.903 1.15625 -3.84699 0
M  V30 4824 N 443.109 0.214762 -2.89805 0
M  V30 4825 H 442.656 -0.589852 -2.50756 0
M  V30 4826 H 442.614 1.08094 -2.95234 0
M  V30 4827 N 446.386 1.0089 -1.21074 0
M  V30 4828 C 447.663 1.71834 -0.934469 0
M  V30 4829 C 448.043 2.0368 0.554753 0
M  V30 4830 O 447.391 1.70742 1.51854 0
M  V30 4831 C 447.601 2.98061 -1.8155 0
M  V30 4832 C 448.949 3.7117 -2.06199 0
M  V30 4833 O 449.973 3.08034 -1.78867 0
M  V30 4834 O 448.832 4.84721 -2.52404 0
M  V30 4835 H 445.926 0.749253 -0.35007 0
M  V30 4836 H 448.472 1.06668 -1.31985 0
M  V30 4837 H 447.244 2.70908 -2.82355 0
M  V30 4838 H 446.867 3.70968 -1.43068 0
M  V30 4839 N 447.864 1.01787 1.20321 0
M  V30 4840 C 448.827 0.593972 2.2137 0
M  V30 4841 C 449.827 -0.336553 1.57239 0
M  V30 4842 O 451.017 -0.125069 1.7375 0
M  V30 4843 C 448.149 -0.132433 3.40643 0
M  V30 4844 H 449.342 1.48791 2.60387 0
M  V30 4845 H 446.895 0.807803 1.33807 0
M  V30 4846 H 447.63 -1.04123 3.0713 0
M  V30 4847 H 447.415 0.53605 3.88418 0
M  V30 4848 H 448.905 -0.416314 4.1552 0
M  V30 4849 N 449.342 -1.36122 0.79427 0
M  V30 4850 C 450.591 -1.98361 0.365464 0
M  V30 4851 C 450.904 -1.6374 -1.06997 0
M  V30 4852 O 452.11 -2.19251 -1.60129 0
M  V30 4853 C 450.566 -3.54821 0.602496 0
M  V30 4854 C 450.174 -3.98362 2.04967 0
M  V30 4855 C 451.918 -4.2383 0.238437 0
M  V30 4856 C 449.825 -5.47619 2.2331 0
M  V30 4857 H 448.755 -0.742193 0.13291 0
M  V30 4858 H 451.406 -1.55354 0.976589 0
M  V30 4859 H 449.788 -3.95922 -0.078409 0
M  V30 4860 H 450.962 -3.68447 2.76737 0
M  V30 4861 H 449.277 -3.42206 2.37243 0
M  V30 4862 H 451.874 -5.33529 0.353705 0
M  V30 4863 H 452.217 -4.08264 -0.814006 0
M  V30 4864 H 452.75 -3.88108 0.872769 0
M  V30 4865 H 449.489 -5.68138 3.26955 0
M  V30 4866 H 449.009 -5.79145 1.5605 0
M  V30 4867 H 450.688 -6.13911 2.0426 0
M  V30 4868 N 450.82 -0.546701 -1.47814 0
M  V30 4869 C 452.068 -0.0187037 -2.02091 0
M  V30 4870 C 452.389 1.33168 -1.42447 0
M  V30 4871 O 451.659 1.86619 -0.595839 0
M  V30 4872 H 450.239 -0.00392531 -0.74699 0
M  V30 4873 H 452.901 -0.714327 -1.81338 0
M  V30 4874 H 451.997 0.0772219 -3.12004 0
M  V30 4875 N 452.299 1.55045 -0.282633 0
M  V30 4876 C 453.247 2.24254 0.617478 0
M  V30 4877 C 454.241 1.24215 1.15183 0
M  V30 4878 O 455.447 1.42123 1.10459 0
M  V30 4879 H 451.822 0.719801 0.217693 0
M  V30 4880 H 453.793 2.98398 0.0110076 0
M  V30 4881 C 452.542 2.98281 1.78672 0
M  V30 4882 H 451.865 3.75053 1.38475 0
M  V30 4883 H 453.305 3.50017 2.393 0
M  V30 4884 C 451.764 2.04184 2.67975 0
M  V30 4885 O 452.294 1.59792 3.6855 0
M  V30 4886 N 450.5 1.70526 2.35307 0
M  V30 4887 H 450.047 2.06821 1.53567 0
M  V30 4888 H 450.005 1.07839 2.95327 0
M  V30 4889 N 453.777 0.010035 1.57597 0
M  V30 4890 C 454.687 -0.994226 2.12491 0
M  V30 4891 C 455.703 -1.37013 1.07254 0
M  V30 4892 O 456.879 -1.45542 1.3921 0
M  V30 4893 C 453.944 -2.2642 2.62555 0
M  V30 4894 C 453.005 -1.95049 3.82432 0
M  V30 4895 C 452.238 -3.15991 4.30099 0
M  V30 4896 O 452.461 -4.28015 3.7704 0
M  V30 4897 O 451.395 -2.99403 5.22151 0
M  V30 4898 H 455.221 -0.557549 2.98538 0
M  V30 4899 H 452.806 -0.209413 1.47925 0
M  V30 4900 H 454.688 -3.01009 2.9491 0
M  V30 4901 H 453.363 -2.69306 1.796 0
M  V30 4902 H 452.27 -1.17904 3.55034 0
M  V30 4903 H 453.603 -1.56992 4.66491 0
M  V30 4904 N 455.255 -1.55392 -0.262866 0
M  V30 4905 C 456.501 -1.77657 -0.990424 0
M  V30 4906 C 456.856 -0.576333 -1.83565 0
M  V30 4907 O 456.149 0.430795 -1.86694 0
M  V30 4908 C 456.343 -3.02889 -1.89718 0
M  V30 4909 C 456.172 -4.34979 -1.14121 0
M  V30 4910 C 454.942 -4.98052 -0.852768 0
M  V30 4911 C 457.14 -5.11597 -0.526625 0
M  V30 4912 N 455.122 -6.13859 -0.0710649 0
M  V30 4913 C 456.493 -6.19883 0.12042 0
M  V30 4914 C 458.548 -4.95992 -0.435485 0
M  V30 4915 C 457.251 -7.14262 0.849833 0
M  V30 4916 C 459.277 -5.90735 0.280359 0
M  V30 4917 C 458.639 -6.98417 0.916103 0
M  V30 4918 H 454.738 -0.702242 -0.344064 0
M  V30 4919 H 457.322 -1.92887 -0.265088 0
M  V30 4920 H 455.493 -2.89017 -2.59468 0
M  V30 4921 H 457.225 -3.13516 -2.5591 0
M  V30 4922 H 453.98 -4.5916 -1.16058 0
M  V30 4923 H 454.404 -6.76302 0.307413 0
M  V30 4924 H 459.046 -4.12832 -0.912671 0
M  V30 4925 H 456.764 -7.96935 1.33867 0
M  V30 4926 H 460.35 -5.80738 0.351332 0
M  V30 4927 H 459.23 -7.70467 1.46119 0
M  V30 4928 N 456.733 0.527833 -1.48498 0
M  V30 4929 C 458.144 1.10975 -1.50138 0
M  V30 4930 C 458.495 1.943 -0.272378 0
M  V30 4931 O 457.62 2.07319 0.620301 0
M  V30 4932 C 458.215 2.01927 -2.72049 0
M  V30 4933 C 456.774 2.55332 -2.76554 0
M  V30 4934 C 455.921 1.32341 -2.43683 0
M  V30 4935 H 458.872 0.312986 -1.55583 0
M  V30 4936 H 458.893 2.86244 -2.50689 0
M  V30 4937 H 458.405 1.41254 -3.61481 0
M  V30 4938 H 456.506 3.19721 -1.91336 0
M  V30 4939 H 456.619 2.94319 -3.78038 0
M  V30 4940 H 454.983 1.63989 -1.94884 0
M  V30 4941 H 455.766 0.734165 -3.35358 0
M  V30 4942 N 458.211 1.37122 0.776871 0
M  V30 4943 C 459.457 1.3325 1.53675 0
M  V30 4944 C 459.812 -0.0839891 1.92217 0
M  V30 4945 O 459.105 -1.04145 1.60824 0
M  V30 4946 C 459.299 2.20068 2.81611 0
M  V30 4947 C 459.128 3.70016 2.55574 0
M  V30 4948 C 457.898 4.39144 2.4996 0
M  V30 4949 C 460.096 4.62996 2.23917 0
M  V30 4950 N 458.078 5.74663 2.15953 0
M  V30 4951 C 459.449 5.86854 2.00005 0
M  V30 4952 C 461.504 4.51433 2.1003 0
M  V30 4953 C 460.207 7.00446 1.63609 0
M  V30 4954 C 462.233 5.64905 1.75033 0
M  V30 4955 C 461.595 6.8781 1.51977 0
M  V30 4956 H 457.694 0.542878 0.562856 0
M  V30 4957 H 460.278 1.72295 0.906784 0
M  V30 4958 H 458.449 1.83248 3.42454 0
M  V30 4959 H 460.181 2.07492 3.47461 0
M  V30 4960 H 456.936 3.92088 2.65639 0
M  V30 4961 H 457.36 6.46268 2.0166 0
M  V30 4962 H 462.002 3.56987 2.26539 0
M  V30 4963 H 459.72 7.94831 1.45837 0
M  V30 4964 H 463.306 5.57926 1.64952 0
M  V30 4965 H 462.186 7.74126 1.25296 0
M  V30 4966 N 459.689 -1.00246 1.21608 0
M  V30 4967 C 460.938 -1.73476 1.02902 0
M  V30 4968 C 461.251 -1.90643 -0.437561 0
M  V30 4969 O 462.457 -2.61105 -0.74407 0
M  V30 4970 C 460.913 -3.12079 1.79261 0
M  V30 4971 C 460.521 -3.02877 3.30106 0
M  V30 4972 C 462.265 -3.89421 1.68972 0
M  V30 4973 C 460.172 -4.36575 3.98944 0
M  V30 4974 H 459.102 -0.650408 0.381425 0
M  V30 4975 H 461.753 -1.11985 1.45367 0
M  V30 4976 H 460.135 -3.74196 1.2959 0
M  V30 4977 H 461.309 -2.49983 3.87098 0
M  V30 4978 H 459.624 -2.39022 3.40965 0
M  V30 4979 H 462.221 -4.88362 2.17731 0
M  V30 4980 H 462.564 -4.1122 0.648397 0
M  V30 4981 H 463.097 -3.33963 2.16133 0
M  V30 4982 H 459.836 -4.19978 5.03288 0
M  V30 4983 H 459.356 -4.8942 3.4674 0
M  V30 4984 H 461.035 -5.05364 4.04 0
M  V30 4985 N 461.167 -1.02423 -1.1978 0
M  V30 4986 C 462.397 -0.736387 -1.93031 0
M  V30 4987 C 462.805 0.708023 -1.75453 0
M  V30 4988 O 462.148 1.4927 -1.07071 0
M  V30 4989 C 462.21 -1.00194 -3.45255 0
M  V30 4990 C 461.874 -2.43698 -3.86601 0
M  V30 4991 C 462.871 -3.41814 -3.91738 0
M  V30 4992 C 460.556 -2.77975 -4.18372 0
M  V30 4993 C 462.55 -4.72265 -4.28071 0
M  V30 4994 C 460.237 -4.08636 -4.54378 0
M  V30 4995 C 461.235 -5.05592 -4.59201 0
M  V30 4996 O 460.923 -6.33914 -4.94376 0
M  V30 4997 H 460.655 -0.269116 -0.620123 0
M  V30 4998 H 463.209 -1.37043 -1.52998 0
M  V30 4999 H 461.439 -0.310747 -3.85449 0
M  V30 5000 H 463.128 -0.704488 -3.9974 0
M  V30 5001 H 463.894 -3.16671 -3.67348 0
M  V30 5002 H 459.773 -2.0319 -4.13805 0
M  V30 5003 H 463.317 -5.4794 -4.3175 0
M  V30 5004 H 459.214 -4.33556 -4.78226 0
M  V30 5005 H 459.982 -6.38317 -5.12341 0
M  V30 5006 N 462.645 1.35699 -0.801477 0
M  V30 5007 C 463.892 1.98913 -0.379459 0
M  V30 5008 C 464.22 1.63592 1.05204 0
M  V30 5009 O 463.475 0.888563 1.74365 0
M  V30 5010 C 463.774 3.53828 -0.504041 0
M  V30 5011 C 463.44 4.09002 -1.8981 0
M  V30 5012 C 462.102 4.23783 -2.27951 0
M  V30 5013 C 464.454 4.38939 -2.81038 0
M  V30 5014 C 461.782 4.65816 -3.56696 0
M  V30 5015 C 464.134 4.82409 -4.09224 0
M  V30 5016 C 462.798 4.95395 -4.4737 0
M  V30 5017 H 462.068 0.727874 -0.138854 0
M  V30 5018 H 464.715 1.61994 -1.02128 0
M  V30 5019 H 463.02 3.91175 0.221242 0
M  V30 5020 H 464.717 4.00687 -0.158361 0
M  V30 5021 H 461.307 3.97946 -1.59176 0
M  V30 5022 H 465.491 4.27077 -2.52821 0
M  V30 5023 H 460.747 4.74059 -3.86106 0
M  V30 5024 H 464.921 5.04535 -4.80018 0
M  V30 5025 H 462.548 5.27724 -5.47185 0
M  V30 5026 N 464.123 0.554532 1.47522 0
M  V30 5027 C 465.369 0.0295227 2.02779 0
M  V30 5028 C 465.702 -1.31582 1.42828 0
M  V30 5029 O 464.977 -1.85561 0.582872 0
M  V30 5030 C 465.26 -0.0664057 3.60039 0
M  V30 5031 C 465.113 1.30585 4.30427 0
M  V30 5032 C 466.432 -0.781162 4.33112 0
M  V30 5033 H 463.551 0.0122027 0.736899 0
M  V30 5034 H 466.193 0.716305 1.7598 0
M  V30 5035 H 464.343 -0.651307 3.83002 0
M  V30 5036 H 466.015 1.93374 4.18813 0
M  V30 5037 H 464.258 1.88125 3.90886 0
M  V30 5038 H 464.929 1.19147 5.38988 0
M  V30 5039 H 467.405 -0.284565 4.15126 0
M  V30 5040 H 466.281 -0.817237 5.42782 0
M  V30 5041 H 466.542 -1.83672 4.0214 0
M  V30 5042 N 465.601 -1.54893 0.290851 0
M  V30 5043 C 466.829 -2.04343 -0.324288 0
M  V30 5044 C 467.244 -1.16859 -1.48289 0
M  V30 5045 O 466.601 -0.192018 -1.81487 0
M  V30 5046 C 466.652 -3.52756 -0.79026 0
M  V30 5047 O 466.373 -4.36913 0.322213 0
M  V30 5048 C 467.874 -4.18161 -1.4716 0
M  V30 5049 H 465.094 -0.667135 -0.0719173 0
M  V30 5050 H 467.638 -1.99981 0.427529 0
M  V30 5051 H 465.793 -3.57511 -1.49213 0
M  V30 5052 H 466.207 -5.24486 -0.0387372 0
M  V30 5053 H 467.681 -5.23562 -1.7489 0
M  V30 5054 H 468.158 -3.67282 -2.40834 0
M  V30 5055 H 468.764 -4.17454 -0.813178 0
M  V30 5056 N 467.08 -0.0183926 -1.57589 0
M  V30 5057 C 468.01 0.965596 -2.12599 0
M  V30 5058 C 468.991 1.34641 -1.0395 0
M  V30 5059 O 470.176 1.42693 -1.31729 0
M  V30 5060 C 467.306 2.25149 -2.64434 0
M  V30 5061 C 466.26 2.01175 -3.77773 0
M  V30 5062 C 465.586 3.35937 -4.15994 0
M  V30 5063 C 466.886 1.35953 -5.04296 0
M  V30 5064 H 468.58 0.507504 -2.95067 0
M  V30 5065 H 466.126 0.242671 -1.41941 0
M  V30 5066 H 468.079 2.94357 -3.01549 0
M  V30 5067 H 466.803 2.73105 -1.79112 0
M  V30 5068 H 465.462 1.34388 -3.4108 0
M  V30 5069 H 465.11 3.81631 -3.27669 0
M  V30 5070 H 464.81 3.20705 -4.92364 0
M  V30 5071 H 466.334 4.0643 -4.55683 0
M  V30 5072 H 467.748 1.95144 -5.39065 0
M  V30 5073 H 466.145 1.31152 -5.85593 0
M  V30 5074 H 467.215 0.331071 -4.83768 0
M  V30 5075 N 468.558 1.5553 0.254621 0
M  V30 5076 C 469.807 1.76202 0.981612 0
M  V30 5077 C 470.12 0.580883 1.86776 0
M  V30 5078 O 471.326 0.670448 2.63092 0
M  V30 5079 C 469.782 3.11921 1.79537 0
M  V30 5080 C 469.39 4.37659 0.956991 0
M  V30 5081 C 471.134 3.41936 2.51555 0
M  V30 5082 C 469.041 5.64411 1.76619 0
M  V30 5083 H 467.971 0.656841 0.370237 0
M  V30 5084 H 470.622 1.81969 0.236556 0
M  V30 5085 H 469.004 3.00241 2.58208 0
M  V30 5086 H 470.178 4.60307 0.21315 0
M  V30 5087 H 468.493 4.14922 0.350497 0
M  V30 5088 H 471.09 4.33849 3.12536 0
M  V30 5089 H 471.433 2.62905 3.22779 0
M  V30 5090 H 471.966 3.54797 1.799 0
M  V30 5091 H 468.705 6.46241 1.09783 0
M  V30 5092 H 468.225 5.45877 2.48551 0
M  V30 5093 H 469.904 6.03386 2.33527 0
M  V30 5094 N 470.036 -0.519951 1.48776 0
M  V30 5095 C 470.966 -1.63253 1.66945 0
M  V30 5096 C 471.947 -1.62014 0.518224 0
M  V30 5097 O 473.132 -1.79053 0.751919 0
M  V30 5098 C 470.262 -3.0181 1.71836 0
M  V30 5099 C 469.216 -3.17911 2.8656 0
M  V30 5100 C 468.542 -4.5763 2.76548 0
M  V30 5101 C 469.842 -2.99729 4.27738 0
M  V30 5102 H 471.536 -1.48302 2.6009 0
M  V30 5103 H 469.082 -0.712026 1.25165 0
M  V30 5104 H 471.035 -3.79525 1.83135 0
M  V30 5105 H 469.759 -3.17806 0.752775 0
M  V30 5106 H 468.418 -2.42616 2.74833 0
M  V30 5107 H 468.066 -4.70476 1.77937 0
M  V30 5108 H 467.766 -4.69346 3.53536 0
M  V30 5109 H 469.29 -5.37431 2.89828 0
M  V30 5110 H 470.704 -3.67228 4.40246 0
M  V30 5111 H 469.101 -3.22932 5.05801 0
M  V30 5112 H 470.171 -1.96047 4.43502 0
M  V30 5113 N 471.514 -1.37532 -0.769588 0
M  V30 5114 C 472.444 -1.36172 -1.89682 0
M  V30 5115 C 473.425 -0.23001 -1.68538 0
M  V30 5116 O 474.61 -0.43069 -1.89364 0
M  V30 5117 C 471.74 -1.1701 -3.26995 0
M  V30 5118 C 470.694 -2.27216 -3.62708 0
M  V30 5119 C 470.02 -1.93174 -4.98586 0
M  V30 5120 C 471.32 -3.6941 -3.69234 0
M  V30 5121 H 473.014 -2.30499 -1.91078 0
M  V30 5122 H 470.56 -1.10953 -0.917902 0
M  V30 5123 H 472.513 -1.14688 -4.05493 0
M  V30 5124 H 471.237 -0.191395 -3.26039 0
M  V30 5125 H 469.896 -2.28697 -2.86519 0
M  V30 5126 H 469.544 -0.938281 -4.94171 0
M  V30 5127 H 469.244 -2.66973 -5.23449 0
M  V30 5128 H 470.768 -1.92443 -5.79481 0
M  V30 5129 H 472.182 -3.70047 -4.37879 0
M  V30 5130 H 470.579 -4.4228 -4.05597 0
M  V30 5131 H 471.649 -4.0288 -2.69844 0
M  V30 5132 N 472.992 0.995999 -1.22138 0
M  V30 5133 C 474.24 1.73167 -1.042 0
M  V30 5134 C 474.561 1.90329 0.42423 0
M  V30 5135 O 473.831 1.4607 1.30539 0
M  V30 5136 H 472.411 0.641593 -0.38258 0
M  V30 5137 H 475.073 1.19974 -1.53598 0
M  V30 5138 H 474.169 2.72734 -1.51731 0
M  V30 5139 N 474.47 1.03057 1.19235 0
M  V30 5140 C 475.695 0.74757 1.93458 0
M  V30 5141 C 476.12 -0.687648 1.7508 0
M  V30 5142 O 475.478 -1.47499 1.05422 0
M  V30 5143 C 475.526 1.10604 3.43219 0
M  V30 5144 O 474.63 0.225671 4.11782 0
M  V30 5145 H 473.971 0.276047 0.603899 0
M  V30 5146 H 476.501 1.3777 1.51263 0
M  V30 5147 H 476.511 1.06366 3.93891 0
M  V30 5148 H 475.186 2.15165 3.55917 0
M  V30 5149 H 473.763 0.326795 3.71465 0
M  V30 5150 N 475.948 -1.35272 0.808662 0
M  V30 5151 C 477.195 -1.98709 0.390003 0
M  V30 5152 C 477.523 -1.64148 -1.04335 0
M  V30 5153 O 476.778 -0.897797 -1.73891 0
M  V30 5154 C 477.077 -3.53556 0.522798 0
M  V30 5155 C 476.743 -4.0799 1.91977 0
M  V30 5156 C 475.405 -4.22568 2.30195 0
M  V30 5157 C 477.757 -4.37442 2.83361 0
M  V30 5158 C 475.085 -4.63918 3.59162 0
M  V30 5159 C 477.437 -4.80232 4.11776 0
M  V30 5160 C 476.101 -4.93016 4.49991 0
M  V30 5161 H 475.371 -0.727127 0.142712 0
M  V30 5162 H 478.018 -1.6145 1.02985 0
M  V30 5163 H 476.323 -3.91287 -0.200494 0
M  V30 5164 H 478.02 -4.00598 0.179608 0
M  V30 5165 H 474.61 -3.97096 1.61284 0
M  V30 5166 H 478.794 -4.25731 2.55083 0
M  V30 5167 H 474.05 -4.72005 3.88615 0
M  V30 5168 H 478.224 -5.01982 4.82687 0
M  V30 5169 H 475.851 -5.24814 5.49976 0
M  V30 5170 N 477.426 -0.562348 -1.47226 0
M  V30 5171 C 478.673 -0.0402165 -2.0246 0
M  V30 5172 C 479.001 1.31169 -1.43614 0
M  V30 5173 O 478.256 1.86805 -0.5833 0
M  V30 5174 C 478.555 0.0969817 -3.57268 0
M  V30 5175 C 478.221 -1.1847 -4.35058 0
M  V30 5176 C 476.883 -1.53588 -4.56031 0
M  V30 5177 C 479.235 -2.03378 -4.79882 0
M  V30 5178 C 476.563 -2.73452 -5.19077 0
M  V30 5179 C 478.915 -3.2245 -5.44251 0
M  V30 5180 C 477.579 -3.57876 -5.63455 0
M  V30 5181 H 476.849 -0.0147163 -0.740854 0
M  V30 5182 H 479.496 -0.734895 -1.76838 0
M  V30 5183 H 477.801 0.87466 -3.81912 0
M  V30 5184 H 479.498 0.516408 -3.97661 0
M  V30 5185 H 476.088 -0.90126 -4.19017 0
M  V30 5186 H 480.272 -1.77553 -4.63453 0
M  V30 5187 H 475.528 -3.01062 -5.32139 0
M  V30 5188 H 479.702 -3.88526 -5.77945 0
M  V30 5189 H 477.329 -4.50849 -6.12078 0
M  V30 5190 N 478.904 1.54736 -0.299062 0
M  V30 5191 C 480.153 1.99279 0.311549 0
M  V30 5192 C 480.466 1.19107 1.55154 0
M  V30 5193 O 481.672 1.53908 2.23662 0
M  V30 5194 C 480.128 3.54768 0.605632 0
M  V30 5195 C 479.736 4.43746 -0.615914 0
M  V30 5196 C 481.48 4.07841 1.17754 0
M  V30 5197 C 479.387 5.90663 -0.29509 0
M  V30 5198 H 478.317 0.744359 0.120187 0
M  V30 5199 H 480.968 1.78919 -0.407464 0
M  V30 5200 H 479.35 3.71021 1.38419 0
M  V30 5201 H 480.524 4.39267 -1.39218 0
M  V30 5202 H 478.839 4.01434 -1.10633 0
M  V30 5203 H 481.436 5.15174 1.43179 0
M  V30 5204 H 481.779 3.58324 2.11918 0
M  V30 5205 H 482.312 3.95123 0.460739 0
M  V30 5206 H 479.051 6.44325 -1.20524 0
M  V30 5207 H 478.571 5.98155 0.44394 0
M  V30 5208 H 480.25 6.46916 0.104048 0
M  V30 5209 N 480.382 0.0267497 1.57577 0
M  V30 5210 C 481.312 -0.954308 2.13108 0
M  V30 5211 C 482.293 -1.34088 1.04663 0
M  V30 5212 O 483.478 -1.41992 1.32484 0
M  V30 5213 C 480.608 -2.23744 2.65624 0
M  V30 5214 C 479.562 -1.99168 3.78835 0
M  V30 5215 C 478.888 -3.33726 4.17769 0
M  V30 5216 C 480.188 -1.33277 5.0501 0
M  V30 5217 H 481.882 -0.491848 2.95332 0
M  V30 5218 H 479.428 -0.23514 1.42067 0
M  V30 5219 H 481.381 -2.92754 3.03106 0
M  V30 5220 H 480.105 -2.72151 1.80558 0
M  V30 5221 H 478.764 -1.32577 3.41788 0
M  V30 5222 H 478.412 -3.79888 3.29688 0
M  V30 5223 H 478.112 -3.18089 4.94058 0
M  V30 5224 H 479.636 -4.04008 4.57832 0
M  V30 5225 H 481.05 -1.92283 5.40093 0
M  V30 5226 H 479.447 -1.28045 5.8628 0
M  V30 5227 H 480.517 -0.305411 4.83937 0
M  V30 5228 N 481.861 -1.55662 -0.24637 0
M  V30 5229 C 482.809 -1.91186 -1.3248 0
M  V30 5230 C 483.803 -0.790996 -1.49799 0
M  V30 5231 O 485.009 -0.975617 -1.51267 0
M  V30 5232 H 481.384 -0.607207 -0.443626 0
M  V30 5233 H 483.355 -2.81221 -0.997853 0
M  V30 5234 C 482.104 -2.22349 -2.67313 0
M  V30 5235 H 481.427 -3.08097 -2.54786 0
M  V30 5236 H 482.867 -2.51107 -3.41645 0
M  V30 5237 C 481.326 -1.04001 -3.20446 0
M  V30 5238 O 481.856 -0.28828 -4.00664 0
M  V30 5239 N 480.062 -0.830494 -2.7848 0
M  V30 5240 H 479.609 -1.4435 -2.13356 0
M  V30 5241 H 479.567 -0.0403258 -3.14374 0
M  V30 5242 N 483.339 0.512053 -1.4905 0
M  V30 5243 C 484.269 1.62365 -1.67809 0
M  V30 5244 C 485.25 1.61737 -0.526809 0
M  V30 5245 O 486.435 1.78651 -0.761404 0
M  V30 5246 C 483.565 3.00895 -1.73435 0
M  V30 5247 C 482.519 3.16387 -2.88242 0
M  V30 5248 C 481.845 4.56157 -2.78971 0
M  V30 5249 C 483.145 2.97457 -4.29321 0
M  V30 5250 H 484.839 1.46921 -2.60873 0
M  V30 5251 H 482.385 0.705379 -1.2554 0
M  V30 5252 H 484.338 3.78549 -1.85145 0
M  V30 5253 H 483.062 3.17403 -0.769619 0
M  V30 5254 H 481.721 2.41155 -2.76116 0
M  V30 5255 H 481.369 4.69525 -1.8043 0
M  V30 5256 H 481.069 4.67465 -3.5602 0
M  V30 5257 H 482.593 5.35886 -2.92675 0
M  V30 5258 H 484.007 3.64888 -4.42187 0
M  V30 5259 H 482.404 3.20245 -5.07507 0
M  V30 5260 H 483.474 1.93692 -4.44535 0
M  V30 5261 N 484.817 1.37938 0.762283 0
M  V30 5262 C 486.063 1.33866 1.52341 0
M  V30 5263 C 486.396 -0.0738961 1.94059 0
M  V30 5264 O 485.671 -1.03326 1.64785 0
M  V30 5265 C 485.954 2.28644 2.78197 0
M  V30 5266 C 485.807 3.78722 2.42672 0
M  V30 5267 C 487.126 2.21702 3.80179 0
M  V30 5268 H 484.245 0.487593 0.55265 0
M  V30 5269 H 486.887 1.68717 0.873767 0
M  V30 5270 H 485.037 1.99055 3.33631 0
M  V30 5271 H 486.709 4.18948 1.93081 0
M  V30 5272 H 484.952 3.96827 1.75244 0
M  V30 5273 H 485.623 4.40486 3.3268 0
M  V30 5274 H 488.099 2.47805 3.34263 0
M  V30 5275 H 486.975 2.90143 4.65949 0
M  V30 5276 H 487.236 1.21301 4.25133 0
M  V30 5277 N 486.295 -0.989507 1.22664 0
M  V30 5278 C 487.225 -2.09847 1.02404 0
M  V30 5279 C 488.206 -1.70007 -0.0561303 0
M  V30 5280 O 489.391 -1.93906 0.106748 0
M  V30 5281 C 486.521 -3.41996 0.604663 0
M  V30 5282 C 485.475 -3.95699 1.63115 0
M  V30 5283 C 484.801 -5.23936 1.0675 0
M  V30 5284 C 486.101 -4.25999 3.02196 0
M  V30 5285 H 487.795 -2.27054 1.95158 0
M  V30 5286 H 485.341 -1.09111 0.939727 0
M  V30 5287 H 487.294 -4.1899 0.45002 0
M  V30 5288 H 486.018 -3.24626 -0.35855 0
M  V30 5289 H 484.677 -3.2084 1.77362 0
M  V30 5290 H 484.325 -5.02909 0.0955422 0
M  V30 5291 H 484.025 -5.60833 1.75328 0
M  V30 5292 H 485.549 -6.0356 0.924516 0
M  V30 5293 H 486.963 -4.93777 2.91303 0
M  V30 5294 H 485.36 -4.74076 3.67929 0
M  V30 5295 H 486.43 -3.33636 3.51873 0
M  V30 5296 N 487.773 -1.03688 -1.18687 0
M  V30 5297 C 489.021 -0.736572 -1.88199 0
M  V30 5298 C 489.342 0.737665 -1.80509 0
M  V30 5299 O 488.612 1.53204 -1.22088 0
M  V30 5300 H 487.192 -0.269466 -0.696704 0
M  V30 5301 H 489.854 -1.31282 -1.44052 0
M  V30 5302 H 488.95 -1.03802 -2.94332 0
M  V30 5303 N 489.251 1.34841 -0.815825 0
M  V30 5304 C 490.497 1.98793 -0.401129 0
M  V30 5305 C 490.83 1.64548 1.03139 0
M  V30 5306 O 490.105 0.913487 1.71714 0
M  V30 5307 C 490.388 3.55143 -0.595409 0
M  V30 5308 C 490.241 3.99155 -2.07352 0
M  V30 5309 C 491.56 4.40092 -0.0268823 0
M  V30 5310 H 488.679 0.722146 -0.14722 0
M  V30 5311 H 491.321 1.59847 -1.02707 0
M  V30 5312 H 489.471 3.8845 -0.0625779 0
M  V30 5313 H 491.143 3.76216 -2.66945 0
M  V30 5314 H 489.386 3.49726 -2.56659 0
M  V30 5315 H 490.057 5.07971 -2.1603 0
M  V30 5316 H 492.533 4.13298 -0.482042 0
M  V30 5317 H 491.409 5.48562 -0.19267 0
M  V30 5318 H 491.67 4.29016 1.06759 0
M  V30 5319 N 490.729 0.570148 1.46925 0
M  V30 5320 C 491.659 -0.158274 2.32963 0
M  V30 5321 C 492.64 -0.896093 1.44583 0
M  V30 5322 O 493.825 -0.874022 1.7342 0
M  V30 5323 C 490.955 -1.18055 3.26619 0
M  V30 5324 C 489.909 -0.558379 4.24342 0
M  V30 5325 C 489.235 -1.68623 5.07415 0
M  V30 5326 C 490.535 0.496295 5.19937 0
M  V30 5327 H 492.229 0.560046 2.94115 0
M  V30 5328 H 489.775 0.270775 1.41431 0
M  V30 5329 H 491.728 -1.69841 3.85658 0
M  V30 5330 H 490.452 -1.92899 2.63548 0
M  V30 5331 H 489.111 -0.0617157 3.66548 0
M  V30 5332 H 488.759 -2.42402 4.40738 0
M  V30 5333 H 488.459 -1.27564 5.73586 0
M  V30 5334 H 489.983 -2.20709 5.69315 0
M  V30 5335 H 491.397 0.0640052 5.73264 0
M  V30 5336 H 489.794 0.82649 5.94381 0
M  V30 5337 H 490.864 1.38735 4.6463 0
M  V30 5338 N 492.207 -1.54576 0.307264 0
M  V30 5339 C 493.432 -2.05139 -0.305379 0
M  V30 5340 C 493.857 -1.18278 -1.46259 0
M  V30 5341 O 493.215 -0.188243 -1.8032 0
M  V30 5342 C 493.263 -3.53066 -0.733283 0
M  V30 5343 O 492.367 -3.69206 -1.83741 0
M  V30 5344 H 491.708 -0.661444 -0.0582105 0
M  V30 5345 H 494.238 -1.99569 0.450931 0
M  V30 5346 H 494.248 -3.95034 -1.02039 0
M  V30 5347 H 492.923 -4.15746 0.113198 0
M  V30 5348 H 491.5 -3.39143 -1.55037 0
M  V30 5349 N 493.685 -0.035106 -1.57561 0
M  V30 5350 C 494.933 0.64096 -1.91667 0
M  V30 5351 C 495.254 1.72323 -0.912681 0
M  V30 5352 O 494.524 1.95849 0.0449089 0
M  V30 5353 H 493.104 0.239743 -0.707483 0
M  V30 5354 H 495.766 -0.084321 -1.94718 0
M  V30 5355 H 494.862 1.08987 -2.92452 0
M  V30 5356 N 495.163 1.55791 0.238111 0
M  V30 5357 C 496.073 1.94196 1.31625 0
M  V30 5358 C 497.089 0.843545 1.52185 0
M  V30 5359 O 498.265 1.1457 1.65637 0
M  V30 5360 C 495.33 2.2365 2.64918 0
M  V30 5361 C 494.391 3.46971 2.52804 0
M  V30 5362 C 493.624 3.7501 3.79741 0
M  V30 5363 O 493.847 3.04982 4.82019 0
M  V30 5364 O 492.781 4.68525 3.77846 0
M  V30 5365 H 496.607 2.86044 1.02043 0
M  V30 5366 H 494.192 1.42786 0.439603 0
M  V30 5367 H 496.074 2.43863 3.4367 0
M  V30 5368 H 494.749 1.34979 2.94215 0
M  V30 5369 H 493.656 3.32055 1.72309 0
M  V30 5370 H 494.989 4.35971 2.28451 0
M  V30 5371 N 496.642 -0.504142 1.49319 0
M  V30 5372 C 497.889 -1.25846 1.58647 0
M  V30 5373 C 498.217 -1.92592 0.27177 0
M  V30 5374 O 497.472 -1.81167 -0.74007 0
M  V30 5375 C 497.771 -2.35021 2.69258 0
M  V30 5376 C 497.437 -1.85755 4.1086 0
M  V30 5377 C 496.099 -1.72038 4.49395 0
M  V30 5378 C 498.451 -1.48844 4.99495 0
M  V30 5379 C 495.779 -1.19783 5.74342 0
M  V30 5380 C 498.131 -0.980422 6.24956 0
M  V30 5381 C 496.795 -0.829622 6.62324 0
M  V30 5382 H 496.065 -0.460505 0.580531 0
M  V30 5383 H 498.712 -0.559716 1.83138 0
M  V30 5384 H 497.017 -3.10672 2.38726 0
M  V30 5385 H 498.714 -2.93083 2.73685 0
M  V30 5386 H 495.304 -1.9739 3.80441 0
M  V30 5387 H 499.488 -1.5829 4.70381 0
M  V30 5388 H 494.744 -1.06817 6.01997 0
M  V30 5389 H 498.918 -0.685608 6.93017 0
M  V30 5390 H 496.545 -0.42253 7.59025 0
M  V30 5391 N 498.12 -1.38341 -0.754957 0
M  V30 5392 C 499.348 -1.37704 -1.54419 0
M  V30 5393 C 499.763 0.0335243 -1.8877 0
M  V30 5394 O 499.12 0.999773 -1.52679 0
M  V30 5395 C 499.171 -2.23136 -2.84416 0
M  V30 5396 O 498.892 -3.58697 -2.51531 0
M  V30 5397 C 500.393 -2.30664 -3.78562 0
M  V30 5398 H 497.613 -0.471061 -0.477852 0
M  V30 5399 H 500.157 -1.81902 -0.934446 0
M  V30 5400 H 498.312 -1.82403 -3.41772 0
M  V30 5401 H 498.726 -4.03665 -3.34896 0
M  V30 5402 H 500.2 -2.9473 -4.66732 0
M  V30 5403 H 500.677 -1.3199 -4.18898 0
M  V30 5404 H 501.283 -2.71781 -3.27131 0
M  V30 5405 N 499.598 0.982988 -1.23187 0
M  V30 5406 C 500.545 2.07491 -1.01075 0
M  V30 5407 C 501.515 1.65949 0.070905 0
M  V30 5408 O 502.7 1.90629 -0.0806822 0
M  V30 5409 C 499.84 3.39751 -0.605261 0
M  V30 5410 C 498.953 3.94578 -1.75876 0
M  V30 5411 C 498.088 5.15039 -1.3003 0
M  V30 5412 C 497.127 5.62027 -2.42472 0
M  V30 5413 N 496.264 6.73719 -1.97602 0
M  V30 5414 H 501.104 2.25739 -1.9454 0
M  V30 5415 H 498.641 1.10659 -0.969179 0
M  V30 5416 H 500.599 4.15719 -0.351279 0
M  V30 5417 H 499.229 3.21473 0.292382 0
M  V30 5418 H 498.281 3.1539 -2.12681 0
M  V30 5419 H 499.593 4.25422 -2.60418 0
M  V30 5420 H 498.747 5.9833 -1.00429 0
M  V30 5421 H 497.486 4.85843 -0.425216 0
M  V30 5422 H 496.491 4.77318 -2.7285 0
M  V30 5423 H 497.716 5.93244 -3.30512 0
M  V30 5424 H 495.662 6.46287 -1.1247 0
M  V30 5425 H 495.579 7.03934 -2.75705 0
M  V30 5426 H 496.847 7.6049 -1.71098 0
M  V30 5427 N 501.076 1.04316 1.18135 0
M  V30 5428 C 501.986 0.646876 2.25505 0
M  V30 5429 C 503.002 -0.328008 1.7088 0
M  V30 5430 O 504.178 -0.182309 2.00573 0
M  V30 5431 C 501.243 0.0185664 3.46695 0
M  V30 5432 C 500.304 1.04277 4.16443 0
M  V30 5433 C 499.537 0.444352 5.31847 0
M  V30 5434 O 499.76 -0.748735 5.65465 0
M  V30 5435 O 498.694 1.17428 5.90334 0
M  V30 5436 H 502.52 1.54147 2.61672 0
M  V30 5437 H 500.105 0.814188 1.25265 0
M  V30 5438 H 501.987 -0.331068 4.20097 0
M  V30 5439 H 500.662 -0.849814 3.12346 0
M  V30 5440 H 499.569 1.44425 3.45098 0
M  V30 5441 H 500.902 1.882 4.54798 0
M  V30 5442 N 502.554 -1.34406 0.822964 0
M  V30 5443 C 503.97 -1.51275 0.508727 0
M  V30 5444 C 504.17 -1.76776 -0.967083 0
M  V30 5445 O 503.226 -1.81871 -1.75155 0
M  V30 5446 C 504.539 -2.67765 1.36829 0
M  V30 5447 C 506.087 -2.81647 1.36542 0
M  V30 5448 C 506.562 -4.01181 2.20947 0
M  V30 5449 N 508.053 -4.08388 2.18571 0
M  V30 5450 C 508.788 -5.00036 2.80627 0
M  V30 5451 N 508.284 -5.96906 3.51674 0
M  V30 5452 N 510.077 -4.92908 2.70181 0
M  V30 5453 H 502.228 -1.16113 1.77852 0
M  V30 5454 H 504.491 -0.56947 0.757897 0
M  V30 5455 H 504.197 -2.55551 2.41633 0
M  V30 5456 H 504.071 -3.62779 1.03303 0
M  V30 5457 H 506.458 -2.93303 0.325163 0
M  V30 5458 H 506.539 -1.87443 1.74066 0
M  V30 5459 H 506.183 -3.90286 3.25022 0
M  V30 5460 H 506.113 -4.94599 1.80774 0
M  V30 5461 H 508.604 -3.39051 1.66891 0
M  V30 5462 H 508.917 -6.63468 3.96271 0
M  V30 5463 H 507.262 -5.9703 3.5578 0
M  V30 5464 H 510.453 -4.1619 2.14251 0
M  V30 5465 H 510.626 -5.64137 3.18831 0
M  V30 5466 N 504.032 -0.577932 -1.46621 0
M  V30 5467 C 504.942 0.160651 -2.34049 0
M  V30 5468 C 505.958 0.890911 -1.49462 0
M  V30 5469 O 507.134 0.855166 -1.82343 0
M  V30 5470 C 504.199 1.16447 -3.26559 0
M  V30 5471 C 503.26 0.4394 -4.27045 0
M  V30 5472 C 502.493 1.3954 -5.15135 0
M  V30 5473 O 502.716 2.63162 -5.06065 0
M  V30 5474 O 501.65 0.908585 -5.95003 0
M  V30 5475 H 505.476 -0.557057 -2.98547 0
M  V30 5476 H 503.061 -0.338369 -1.45518 0
M  V30 5477 H 504.943 1.7434 -3.83645 0
M  V30 5478 H 503.618 1.86373 -2.64663 0
M  V30 5479 H 502.525 -0.181247 -3.73661 0
M  V30 5480 H 503.858 -0.218799 -4.91713 0
M  V30 5481 N 505.51 1.54411 -0.315457 0
M  V30 5482 C 506.457 2.24048 0.554166 0
M  V30 5483 C 507.427 1.2283 1.11812 0
M  V30 5484 O 508.612 1.51491 1.15997 0
M  V30 5485 C 505.752 2.99574 1.71316 0
M  V30 5486 C 504.865 4.15594 1.17922 0
M  V30 5487 C 504 4.78669 2.30324 0
M  V30 5488 C 503.039 5.86807 1.74137 0
M  V30 5489 N 502.176 6.43777 2.8017 0
M  V30 5490 H 507.016 2.97964 -0.0462602 0
M  V30 5491 H 504.553 1.47059 -0.0346009 0
M  V30 5492 H 506.511 3.41604 2.39505 0
M  V30 5493 H 505.141 2.28008 2.285 0
M  V30 5494 H 504.193 3.78404 0.389136 0
M  V30 5495 H 505.505 4.93459 0.728012 0
M  V30 5496 H 504.659 5.23626 3.06433 0
M  V30 5497 H 503.398 4.00168 2.78778 0
M  V30 5498 H 502.403 5.41261 0.965236 0
M  V30 5499 H 503.628 6.67201 1.2657 0
M  V30 5500 H 501.574 5.68153 3.2793 0
M  V30 5501 H 501.491 7.17031 2.39588 0
M  V30 5502 H 502.759 6.9339 3.56132 0
M  V30 5503 N 506.988 0.0434614 1.5754 0
M  V30 5504 C 507.951 -0.918696 2.09982 0
M  V30 5505 C 508.951 -1.24488 1.01781 0
M  V30 5506 O 510.141 -1.18284 1.27885 0
M  V30 5507 C 507.273 -2.23093 2.57764 0
M  V30 5508 H 508.466 -0.464229 2.96285 0
M  V30 5509 H 506.019 -0.204818 1.54952 0
M  V30 5510 H 506.754 -2.73137 1.74832 0
M  V30 5511 H 506.539 -2.00724 3.36827 0
M  V30 5512 H 508.029 -2.92028 2.98512 0
M  V30 5513 N 508.466 -1.55915 -0.229846 0
M  V30 5514 C 509.413 -1.91734 -1.28478 0
M  V30 5515 C 510.383 -0.773539 -1.46988 0
M  V30 5516 O 511.568 -1.02871 -1.60693 0
M  V30 5517 C 508.708 -2.23224 -2.63182 0
M  V30 5518 C 507.821 -3.50497 -2.52539 0
M  V30 5519 C 506.956 -3.71474 -3.79711 0
M  V30 5520 C 505.995 -4.92289 -3.63755 0
M  V30 5521 N 505.132 -5.09698 -4.82858 0
M  V30 5522 H 509.972 -2.81692 -0.972308 0
M  V30 5523 H 507.509 -1.39429 -0.468815 0
M  V30 5524 H 509.467 -2.3949 -3.41614 0
M  V30 5525 H 508.097 -1.36451 -2.92542 0
M  V30 5526 H 507.149 -3.4247 -1.65585 0
M  V30 5527 H 508.461 -4.39079 -2.36666 0
M  V30 5528 H 507.615 -3.87791 -4.66586 0
M  V30 5529 H 506.354 -2.81157 -3.985 0
M  V30 5530 H 505.359 -4.7593 -2.75264 0
M  V30 5531 H 506.584 -5.84083 -3.46445 0
M  V30 5532 H 504.53 -4.22322 -5.01976 0
M  V30 5533 H 504.447 -5.92399 -4.69681 0
M  V30 5534 H 505.715 -5.30443 -5.71183 0
M  V30 5535 N 509.944 0.496216 -1.49584 0
M  V30 5536 C 511.169 1.27865 -1.63295 0
M  V30 5537 C 511.594 1.85592 -0.306156 0
M  V30 5538 O 510.952 1.66092 0.726851 0
M  V30 5539 C 511 2.38128 -2.7079 0
M  V30 5540 O 510.104 3.42108 -2.30296 0
M  V30 5541 H 509.445 0.377279 -0.546403 0
M  V30 5542 H 511.975 0.593497 -1.95803 0
M  V30 5543 H 511.985 2.8382 -2.93104 0
M  V30 5544 H 510.66 1.95479 -3.67098 0
M  V30 5545 H 509.237 3.02301 -2.18331 0
M  V30 5546 N 511.423 1.38739 0.74761 0
M  V30 5547 C 512.839 1.20067 1.05148 0
M  V30 5548 C 513.039 0.0534835 2.01429 0
M  V30 5549 O 512.095 -0.59886 2.45296 0
M  V30 5550 C 513.408 2.52957 1.62584 0
M  V30 5551 C 514.956 2.59692 1.74726 0
M  V30 5552 C 515.431 3.92772 2.35573 0
M  V30 5553 N 516.922 3.94343 2.42997 0
M  V30 5554 C 517.657 4.9408 2.90985 0
M  V30 5555 N 517.153 6.04214 3.38965 0
M  V30 5556 N 518.946 4.81466 2.9008 0
M  V30 5557 H 511.097 2.12121 0.108808 0
M  V30 5558 H 513.36 0.941491 0.110899 0
M  V30 5559 H 513.066 3.37389 0.993051 0
M  V30 5560 H 512.94 2.71779 2.61565 0
M  V30 5561 H 515.327 1.75651 2.3713 0
M  V30 5562 H 515.408 2.44731 0.744326 0
M  V30 5563 H 515.052 4.77238 1.738 0
M  V30 5564 H 514.982 4.05046 3.36519 0
M  V30 5565 H 517.473 3.14799 2.0907 0
M  V30 5566 H 517.786 6.76241 3.74056 0
M  V30 5567 H 516.131 6.07825 3.37007 0
M  V30 5568 H 519.322 3.94535 2.51912 0
M  V30 5569 H 519.495 5.59344 3.27166 0
M  V30 5570 N 512.901 -0.976442 1.23707 0
M  V30 5571 C 514.149 -1.71487 1.06942 0
M  V30 5572 C 514.47 -1.9098 -0.393897 0
M  V30 5573 O 513.74 -1.48128 -1.28198 0
M  V30 5574 H 512.32 -0.635425 0.392739 0
M  V30 5575 H 514.982 -1.17515 1.55487 0
M  V30 5576 H 514.078 -2.70286 1.56051 0
M  V30 5577 N 514.379 -1.04941 -1.1758 0
M  V30 5578 C 515.607 -0.778294 -1.91703 0
M  V30 5579 C 516.022 0.665697 -1.76675 0
M  V30 5580 O 515.379 1.45456 -1.10222 0
M  V30 5581 C 515.43 -1.14628 -3.42845 0
M  V30 5582 O 515.151 -2.53359 -3.57409 0
M  V30 5583 C 516.652 -0.900931 -4.34049 0
M  V30 5584 H 513.872 -0.283167 -0.608323 0
M  V30 5585 H 516.416 -1.39942 -1.49119 0
M  V30 5586 H 514.571 -0.569953 -3.83184 0
M  V30 5587 H 514.985 -2.67709 -4.51035 0
M  V30 5588 H 516.459 -1.20817 -5.38616 0
M  V30 5589 H 516.936 0.163966 -4.38894 0
M  V30 5590 H 517.542 -1.46097 -3.99419 0
M  V30 5591 N 515.857 1.33968 -0.830081 0
M  V30 5592 C 517.104 1.98063 -0.421566 0
M  V30 5593 C 517.432 1.65787 1.0171 0
M  V30 5594 O 516.687 0.925348 1.72441 0
M  V30 5595 C 516.986 3.52679 -0.57898 0
M  V30 5596 C 516.652 4.04884 -1.98443 0
M  V30 5597 C 515.314 4.18852 -2.36888 0
M  V30 5598 C 517.666 4.32879 -2.90285 0
M  V30 5599 C 514.994 4.58145 -3.66497 0
M  V30 5600 C 517.346 4.7362 -4.19364 0
M  V30 5601 C 516.01 4.85794 -4.57778 0
M  V30 5602 H 515.28 0.724765 -0.154262 0
M  V30 5603 H 517.927 1.59792 -1.05541 0
M  V30 5604 H 516.232 3.91556 0.138219 0
M  V30 5605 H 517.929 4.00261 -0.243317 0
M  V30 5606 H 514.519 3.9448 -1.67581 0
M  V30 5607 H 518.703 4.21619 -2.61823 0
M  V30 5608 H 513.959 4.65762 -3.96075 0
M  V30 5609 H 518.133 4.9424 -4.90612 0
M  V30 5610 H 515.76 5.15998 -5.58256 0
M  V30 5611 N 517.335 0.585699 1.46312 0
M  V30 5612 C 518.267 -0.183687 2.28463 0
M  V30 5613 C 519.28 -0.85264 1.38686 0
M  V30 5614 O 520.469 -0.721701 1.6326 0
M  V30 5615 C 517.569 -1.27977 3.13808 0
M  V30 5616 C 516.742 -0.702164 4.31727 0
M  V30 5617 C 515.801 -1.68633 4.98447 0
M  V30 5618 O 514.827 -1.22121 5.55945 0
M  V30 5619 N 516.029 -3.02047 4.95729 0
M  V30 5620 H 518.794 0.521127 2.95134 0
M  V30 5621 H 516.355 0.423673 1.56258 0
M  V30 5622 H 518.347 -1.9375 3.55307 0
M  V30 5623 H 516.917 -1.8874 2.4919 0
M  V30 5624 H 516.137 0.1331 3.93975 0
M  V30 5625 H 517.425 -0.296101 5.07938 0
M  V30 5626 H 516.823 -3.42457 4.50266 0
M  V30 5627 H 515.38 -3.63301 5.41161 0
M  V30 5628 N 518.813 -1.54241 0.323641 0
M  V30 5629 C 519.76 -2.24339 -0.542277 0
M  V30 5630 C 520.73 -1.23421 -1.11159 0
M  V30 5631 O 521.915 -1.52104 -1.15192 0
M  V30 5632 C 519.055 -3.00479 -1.69725 0
M  V30 5633 C 518.168 -4.16214 -1.15716 0
M  V30 5634 C 517.303 -4.79884 -2.27783 0
M  V30 5635 C 516.342 -5.87722 -1.71023 0
M  V30 5636 N 515.479 -6.45254 -2.76752 0
M  V30 5637 H 520.319 -2.97935 0.0620613 0
M  V30 5638 H 517.856 -1.47039 0.0423993 0
M  V30 5639 H 519.814 -3.42869 -2.3769 0
M  V30 5640 H 518.444 -2.29217 -2.27288 0
M  V30 5641 H 517.496 -3.78605 -0.369063 0
M  V30 5642 H 518.808 -4.93838 -0.701832 0
M  V30 5643 H 517.962 -5.25243 -3.03651 0
M  V30 5644 H 516.701 -4.01641 -2.76652 0
M  V30 5645 H 515.706 -5.41765 -0.936518 0
M  V30 5646 H 516.931 -6.67863 -1.2303 0
M  V30 5647 H 514.877 -5.69884 -3.24912 0
M  V30 5648 H 514.794 -7.18292 -2.35782 0
M  V30 5649 H 516.062 -6.95269 -3.5245 0
M  V30 5650 N 520.291 -0.0518155 -1.57515 0
M  V30 5651 C 521.221 0.920283 -2.146 0
M  V30 5652 C 522.202 1.32406 -1.06783 0
M  V30 5653 O 523.387 1.39866 -1.34726 0
M  V30 5654 C 520.517 2.1949 -2.6915 0
M  V30 5655 C 519.471 1.93116 -3.81956 0
M  V30 5656 C 518.797 3.27037 -4.23026 0
M  V30 5657 C 520.097 1.25225 -5.07066 0
M  V30 5658 H 521.791 0.444801 -2.96077 0
M  V30 5659 H 519.337 0.212508 -1.42423 0
M  V30 5660 H 521.29 2.87894 -3.07725 0
M  V30 5661 H 520.014 2.69244 -1.84865 0
M  V30 5662 H 518.673 1.27123 -3.43854 0
M  V30 5663 H 518.321 3.74595 -3.3569 0
M  V30 5664 H 518.021 3.10189 -4.99056 0
M  V30 5665 H 519.545 3.96673 -4.64202 0
M  V30 5666 H 520.959 1.83666 -5.43083 0
M  V30 5667 H 519.356 1.18702 -5.88243 0
M  V30 5668 H 520.426 0.228382 -4.84362 0
M  V30 5669 N 521.769 1.56035 0.221574 0
M  V30 5670 C 523.185 1.49026 0.571271 0
M  V30 5671 C 523.385 0.746912 1.87146 0
M  V30 5672 O 522.441 0.286566 2.50869 0
M  V30 5673 C 523.754 2.93579 0.650522 0
M  V30 5674 C 525.302 3.04099 0.741151 0
M  V30 5675 C 525.777 4.5001 0.851747 0
M  V30 5676 N 527.268 4.54053 0.915968 0
M  V30 5677 C 528.003 5.64232 1.02125 0
M  V30 5678 N 527.499 6.84164 1.09049 0
M  V30 5679 N 529.292 5.52084 1.05639 0
M  V30 5680 H 521.443 2.02791 -0.63162 0
M  V30 5681 H 523.706 0.921736 -0.221602 0
M  V30 5682 H 523.412 3.50912 -0.235253 0
M  V30 5683 H 523.286 3.45476 1.51413 0
M  V30 5684 H 525.673 2.4683 1.61737 0
M  V30 5685 H 525.754 2.55371 -0.148128 0
M  V30 5686 H 525.398 5.07896 -0.0200117 0
M  V30 5687 H 525.328 4.96444 1.75644 0
M  V30 5688 H 527.819 3.67683 0.872782 0
M  V30 5689 H 528.132 7.63883 1.1706 0
M  V30 5690 H 526.477 6.86875 1.05962 0
M  V30 5691 H 529.668 4.57317 0.998953 0
M  V30 5692 H 529.841 6.37983 1.13498 0
M  V30 5693 N 523.247 -0.488276 1.49845 0
M  V30 5694 C 524.157 -1.61451 1.70207 0
M  V30 5695 C 525.173 -1.63877 0.584846 0
M  V30 5696 O 526.349 -1.82063 0.861107 0
M  V30 5697 C 523.414 -2.9776 1.77594 0
M  V30 5698 C 522.475 -3.05861 3.01243 0
M  V30 5699 C 521.708 -4.35668 3.08268 0
M  V30 5700 O 521.931 -5.25197 2.22541 0
M  V30 5701 O 520.865 -4.49005 4.00847 0
M  V30 5702 H 524.691 -1.47199 2.65643 0
M  V30 5703 H 522.276 -0.665939 1.33737 0
M  V30 5704 H 524.158 -3.7875 1.84732 0
M  V30 5705 H 522.833 -3.12248 0.8534 0
M  V30 5706 H 521.74 -2.24012 2.99616 0
M  V30 5707 H 523.073 -2.96304 3.9302 0
M  V30 5708 N 524.725 -1.39134 -0.740242 0
M  V30 5709 C 525.672 -1.37434 -1.8542 0
M  V30 5710 C 526.642 -0.234822 -1.64432 0
M  V30 5711 O 527.827 -0.429125 -1.85912 0
M  V30 5712 C 524.967 -1.21844 -3.22875 0
M  V30 5713 C 524.08 -2.45296 -3.55603 0
M  V30 5714 C 523.215 -2.22334 -4.82432 0
M  V30 5715 C 522.254 -3.41488 -5.07988 0
M  V30 5716 N 521.391 -3.17877 -6.26018 0
M  V30 5717 H 526.231 -2.3266 -1.86207 0
M  V30 5718 H 523.768 -1.15578 -0.909946 0
M  V30 5719 H 525.726 -1.10818 -4.02213 0
M  V30 5720 H 524.356 -0.3025 -3.21379 0
M  V30 5721 H 523.408 -2.66945 -2.71006 0
M  V30 5722 H 524.72 -3.34063 -3.7041 0
M  V30 5723 H 523.874 -2.0852 -5.69741 0
M  V30 5724 H 522.613 -1.30954 -4.6979 0
M  V30 5725 H 521.618 -3.55807 -4.19144 0
M  V30 5726 H 522.843 -4.33763 -5.22519 0
M  V30 5727 H 520.789 -2.29156 -6.14673 0
M  V30 5728 H 520.706 -4.00198 -6.41387 0
M  V30 5729 H 521.974 -3.07746 -7.16179 0
M  V30 5730 N 526.204 0.969867 -1.24223 0
M  V30 5731 C 527.136 2.0669 -0.99055 0
M  V30 5732 C 528.149 1.62753 0.0392222 0
M  V30 5733 O 529.338 1.77403 -0.197561 0
M  V30 5734 C 526.438 3.35589 -0.472594 0
M  V30 5735 C 525.611 4.08444 -1.56499 0
M  V30 5736 C 524.67 5.15616 -1.05007 0
M  V30 5737 O 523.696 5.41911 -1.7413 0
M  V30 5738 N 524.898 5.80383 0.116641 0
M  V30 5739 H 527.663 2.28855 -1.93508 0
M  V30 5740 H 525.224 1.13733 -1.15223 0
M  V30 5741 H 527.216 4.04542 -0.112919 0
M  V30 5742 H 525.786 3.10311 0.377617 0
M  V30 5743 H 525.006 3.33798 -2.09696 0
M  V30 5744 H 526.294 4.53882 -2.29932 0
M  V30 5745 H 525.692 5.6142 0.694589 0
M  V30 5746 H 524.249 6.50462 0.417483 0
M  V30 5747 N 527.682 1.05563 1.17022 0
M  V30 5748 C 528.614 0.617888 2.20714 0
M  V30 5749 C 529.627 -0.320303 1.59618 0
M  V30 5750 O 530.816 -0.112449 1.78145 0
M  V30 5751 C 527.916 -0.115333 3.38704 0
M  V30 5752 C 527.089 0.834493 4.29366 0
M  V30 5753 C 526.148 0.141855 5.26009 0
M  V30 5754 O 525.174 0.777151 5.6387 0
M  V30 5755 N 526.376 -1.11934 5.69606 0
M  V30 5756 H 529.141 1.50981 2.58892 0
M  V30 5757 H 526.702 0.938008 1.31958 0
M  V30 5758 H 528.694 -0.588918 4.00392 0
M  V30 5759 H 527.264 -0.908967 2.99093 0
M  V30 5760 H 526.484 1.48762 3.65053 0
M  V30 5761 H 527.772 1.4791 4.86827 0
M  V30 5762 H 527.17 -1.65574 5.40927 0
M  V30 5763 H 525.727 -1.53692 6.33421 0
M  V30 5764 N 529.16 -1.33526 0.837174 0
M  V30 5765 C 530.09 -2.31764 0.284206 0
M  V30 5766 C 531.071 -1.58896 -0.607142 0
M  V30 5767 O 532.256 -1.86798 -0.531047 0
M  V30 5768 C 529.386 -3.43029 -0.542962 0
M  V30 5769 C 528.34 -4.27255 0.252451 0
M  V30 5770 C 527.666 -5.3012 -0.69836 0
M  V30 5771 C 528.966 -5.01229 1.46858 0
M  V30 5772 H 530.66 -2.78262 1.10502 0
M  V30 5773 H 528.206 -1.3378 0.532812 0
M  V30 5774 H 530.159 -4.1078 -0.940096 0
M  V30 5775 H 528.883 -2.95216 -1.39697 0
M  V30 5776 H 527.542 -3.61127 0.631124 0
M  V30 5777 H 527.19 -4.78564 -1.54872 0
M  V30 5778 H 526.89 -5.87353 -0.170274 0
M  V30 5779 H 528.414 -6.00737 -1.09305 0
M  V30 5780 H 529.828 -5.61756 1.14469 0
M  V30 5781 H 528.225 -5.68104 1.93333 0
M  V30 5782 H 529.295 -4.301 2.23924 0
M  V30 5783 N 530.638 -0.59345 -1.46 0
M  V30 5784 C 531.915 -0.0157933 -1.95594 0
M  V30 5785 C 532.295 1.44807 -1.53604 0
M  V30 5786 O 531.643 2.14342 -0.791824 0
M  V30 5787 C 531.853 -0.199081 -3.48432 0
M  V30 5788 C 533.201 -0.0724943 -4.24538 0
M  V30 5789 O 534.225 -0.128469 -3.55968 0
M  V30 5790 O 533.084 0.0542426 -5.46473 0
M  V30 5791 H 530.178 0.043749 -0.825842 0
M  V30 5792 H 532.724 -0.662522 -1.56233 0
M  V30 5793 H 531.496 -1.21631 -3.71916 0
M  V30 5794 H 531.119 0.483576 -3.94648 0
M  V30 5795 N 532.116 1.54067 -0.331816 0
M  V30 5796 C 533.026 2.28322 0.539104 0
M  V30 5797 C 534.042 1.32985 1.1221 0
M  V30 5798 O 535.218 1.6601 1.1403 0
M  V30 5799 C 532.283 3.03277 1.68 0
M  V30 5800 C 531.344 4.14216 1.12798 0
M  V30 5801 C 530.577 4.85588 2.2145 0
M  V30 5802 O 530.8 4.56536 3.41952 0
M  V30 5803 O 529.734 5.72309 1.86404 0
M  V30 5804 H 533.56 3.03632 -0.0641692 0
M  V30 5805 H 531.145 1.49083 -0.0972365 0
M  V30 5806 H 533.027 3.50189 2.34405 0
M  V30 5807 H 531.702 2.30834 2.2693 0
M  V30 5808 H 530.609 3.71635 0.428782 0
M  V30 5809 H 531.942 4.88727 0.583698 0
M  V30 5810 N 533.594 0.0601682 1.57485 0
M  V30 5811 C 534.871 -0.651956 1.84415 0
M  V30 5812 C 535.251 -1.88498 0.950361 0
M  V30 5813 O 534.599 -2.28496 0.0136719 0
M  V30 5814 C 534.809 -1.00069 3.34346 0
M  V30 5815 C 536.157 -1.37915 4.01578 0
M  V30 5816 O 537.181 -1.09277 3.39024 0
M  V30 5817 O 536.04 -1.91399 5.11887 0
M  V30 5818 H 533.134 -0.322668 0.761455 0
M  V30 5819 H 535.68 0.0902159 1.6946 0
M  V30 5820 H 534.452 -0.124463 3.91102 0
M  V30 5821 H 534.075 -1.80001 3.54521 0
M  V30 5822 N 535.072 -1.5615 -0.213296 0
M  V30 5823 C 536.002 -1.96109 -1.26742 0
M  V30 5824 C 536.983 -0.830448 -1.48451 0
M  V30 5825 O 538.168 -1.09339 -1.60495 0
M  V30 5826 C 535.298 -2.28492 -2.61551 0
M  V30 5827 C 534.252 -3.44124 -2.54485 0
M  V30 5828 C 533.578 -3.62134 -3.93399 0
M  V30 5829 C 534.878 -4.78855 -2.08556 0
M  V30 5830 H 536.572 -2.84412 -0.935434 0
M  V30 5831 H 534.118 -1.36836 -0.44854 0
M  V30 5832 H 536.071 -2.55039 -3.3546 0
M  V30 5833 H 534.795 -1.37052 -2.96453 0
M  V30 5834 H 533.454 -3.17639 -1.83033 0
M  V30 5835 H 533.102 -2.68055 -4.25623 0
M  V30 5836 H 532.802 -4.39913 -3.89551 0
M  V30 5837 H 534.326 -3.91038 -4.68958 0
M  V30 5838 H 535.74 -5.04552 -2.72213 0
M  V30 5839 H 534.137 -5.59975 -2.1575 0
M  V30 5840 H 535.207 -4.73657 -1.03811 0
M  V30 5841 N 536.55 0.480323 -1.50102 0
M  V30 5842 C 537.966 0.813295 -1.37323 0
M  V30 5843 C 538.166 1.97027 -0.422206 0
M  V30 5844 O 537.222 2.5212 0.138563 0
M  V30 5845 C 538.535 1.13404 -2.78496 0
M  V30 5846 C 540.083 1.24104 -2.87345 0
M  V30 5847 C 540.558 1.59497 -4.29331 0
M  V30 5848 N 542.049 1.66507 -4.32238 0
M  V30 5849 C 542.784 1.95378 -5.39087 0
M  V30 5850 N 542.28 2.22333 -6.56155 0
M  V30 5851 N 544.073 1.96803 -5.26522 0
M  V30 5852 H 536.224 -0.282291 -2.10516 0
M  V30 5853 H 538.487 -0.063752 -0.945854 0
M  V30 5854 H 538.193 0.357064 -3.49883 0
M  V30 5855 H 538.067 2.07251 -3.15162 0
M  V30 5856 H 540.454 2.00871 -2.16183 0
M  V30 5857 H 540.535 0.282593 -2.54234 0
M  V30 5858 H 540.179 0.832736 -5.01027 0
M  V30 5859 H 540.109 2.56477 -4.59921 0
M  V30 5860 H 542.6 1.47753 -3.47818 0
M  V30 5861 H 542.913 2.43611 -7.33399 0
M  V30 5862 H 541.258 2.19745 -6.59346 0
M  V30 5863 H 544.449 1.75235 -4.34062 0
M  V30 5864 H 544.622 2.18969 -6.09883 0
M  V30 5865 N 538.028 1.39524 0.732853 0
M  V30 5866 C 539.276 1.36594 1.48951 0
M  V30 5867 C 539.597 -0.0367507 1.94965 0
M  V30 5868 O 538.867 -0.988391 1.69138 0
M  V30 5869 H 537.447 0.502673 0.552566 0
M  V30 5870 H 540.109 1.74411 0.869869 0
M  V30 5871 H 539.205 2.03 2.3706 0
M  V30 5872 N 539.506 -0.963266 1.24736 0
M  V30 5873 C 540.736 -1.73913 1.11524 0
M  V30 5874 C 541.144 -1.86218 -0.334612 0
M  V30 5875 O 540.487 -1.3531 -1.24245 0
M  V30 5876 C 540.549 -3.17501 1.68622 0
M  V30 5877 C 540.213 -3.28655 3.17546 0
M  V30 5878 C 541.21 -3.13637 4.14642 0
M  V30 5879 C 538.895 -3.52753 3.5759 0
M  V30 5880 C 540.889 -3.2255 5.49764 0
M  V30 5881 C 538.576 -3.61303 4.92852 0
M  V30 5882 C 539.574 -3.46214 5.88748 0
M  V30 5883 O 539.262 -3.5443 7.2155 0
M  V30 5884 H 538.994 -0.552057 0.390139 0
M  V30 5885 H 541.548 -1.2177 1.65412 0
M  V30 5886 H 539.778 -3.70969 1.09172 0
M  V30 5887 H 541.467 -3.76914 1.50635 0
M  V30 5888 H 542.233 -2.94899 3.85045 0
M  V30 5889 H 538.112 -3.63561 2.83451 0
M  V30 5890 H 541.656 -3.1069 6.24594 0
M  V30 5891 H 537.553 -3.79556 5.22118 0
M  V30 5892 H 538.321 -3.71116 7.29531 0
M  V30 5893 N 540.985 -1.06182 -1.16461 0
M  V30 5894 C 541.918 -0.615859 -2.19733 0
M  V30 5895 C 542.896 0.360766 -1.58547 0
M  V30 5896 O 544.08 0.270009 -1.86556 0
M  V30 5897 C 541.207 0.097312 -3.3856 0
M  V30 5898 C 540.253 -0.835889 -4.18229 0
M  V30 5899 S 541.086 -2.33052 -4.82128 0
M  V30 5900 C 542.242 -1.62881 -6.04335 0
M  V30 5901 H 542.475 -1.49079 -2.57221 0
M  V30 5902 H 540.008 -0.874692 -1.27234 0
M  V30 5903 H 541.966 0.502563 -4.07412 0
M  V30 5904 H 540.627 0.948418 -2.99439 0
M  V30 5905 H 539.82 -0.283426 -5.03202 0
M  V30 5906 H 539.422 -1.18097 -3.54865 0
M  V30 5907 H 541.714 -0.933764 -6.71034 0
M  V30 5908 H 542.657 -2.45641 -6.64128 0
M  V30 5909 H 543.065 -1.11189 -5.53441 0
M  V30 5910 N 542.463 1.3308 -0.844243 0
M  V30 5911 C 543.688 2.02341 -0.455282 0
M  V30 5912 C 544.113 1.6308 0.93737 0
M  V30 5913 O 543.471 0.826118 1.61385 0
M  V30 5914 C 543.519 3.55743 -0.58988 0
M  V30 5915 O 542.623 4.1063 0.38166 0
M  V30 5916 H 541.964 0.637898 -0.184343 0
M  V30 5917 H 544.494 1.6986 -1.14056 0
M  V30 5918 H 544.504 4.05243 -0.473522 0
M  V30 5919 H 543.179 3.83662 -1.60549 0
M  V30 5920 H 541.756 3.72236 0.22241 0
M  V30 5921 N 543.941 0.601185 1.45683 0
M  V30 5922 C 545.187 0.102425 2.03142 0
M  V30 5923 C 545.542 -1.25066 1.46207 0
M  V30 5924 O 544.835 -1.81126 0.624806 0
M  V30 5925 C 545.029 -0.00222425 3.574 0
M  V30 5926 C 544.858 1.33917 4.29298 0
M  V30 5927 C 543.628 1.91818 4.67476 0
M  V30 5928 C 545.826 2.26652 4.61664 0
M  V30 5929 N 543.808 3.19504 5.24204 0
M  V30 5930 C 545.179 3.38933 5.19157 0
M  V30 5931 C 547.234 2.26103 4.43601 0
M  V30 5932 C 545.937 4.50823 5.60492 0
M  V30 5933 C 547.963 3.37036 4.85964 0
M  V30 5934 C 547.325 4.48039 5.43545 0
M  V30 5935 H 543.424 0.0806974 0.777825 0
M  V30 5936 H 546.008 0.798134 1.77589 0
M  V30 5937 H 544.179 -0.66714 3.82627 0
M  V30 5938 H 545.911 -0.507058 4.01511 0
M  V30 5939 H 542.666 1.45097 4.50826 0
M  V30 5940 H 543.09 3.84705 5.57073 0
M  V30 5941 H 547.732 1.41547 3.98402 0
M  V30 5942 H 545.45 5.36108 6.0466 0
M  V30 5943 H 549.036 3.37752 4.73725 0
M  V30 5944 H 547.916 5.32459 5.75723 0
M  V30 5945 N 545.419 -1.53889 0.339982 0
M  V30 5946 C 546.668 -2.00035 -0.258604 0
M  V30 5947 C 546.981 -1.23179 -1.51942 0
M  V30 5948 O 548.187 -1.59784 -2.19503 0
M  V30 5949 C 546.643 -3.56249 -0.511359 0
M  V30 5950 C 546.251 -4.41957 0.733349 0
M  V30 5951 C 547.995 -4.1082 -1.069 0
M  V30 5952 C 545.902 -5.89673 0.451591 0
M  V30 5953 H 544.832 -0.747284 -0.10041 0
M  V30 5954 H 547.483 -1.77776 0.454758 0
M  V30 5955 H 545.865 -3.7456 -1.28533 0
M  V30 5956 H 547.039 -4.35421 1.50815 0
M  V30 5957 H 545.354 -3.9836 1.21237 0
M  V30 5958 H 547.951 -5.18789 -1.2947 0
M  V30 5959 H 548.294 -3.63817 -2.02343 0
M  V30 5960 H 548.827 -3.96205 -0.355817 0
M  V30 5961 H 545.566 -6.40903 1.37565 0
M  V30 5962 H 545.086 -5.99122 -0.285193 0
M  V30 5963 H 546.765 -6.46965 0.0675067 0
M  V30 5964 N 546.897 -0.0685191 -1.57451 0
M  V30 5965 C 548.125 0.610462 -1.97689 0
M  V30 5966 C 548.54 1.63346 -0.946758 0
M  V30 5967 O 547.897 1.82377 0.0669868 0
M  V30 5968 C 547.948 1.28196 -3.38006 0
M  V30 5969 O 547.669 0.299906 -4.37072 0
M  V30 5970 C 549.17 2.04907 -3.931 0
M  V30 5971 H 546.39 0.165689 -0.650222 0
M  V30 5972 H 548.934 -0.139953 -2.04021 0
M  V30 5973 H 547.089 1.98348 -3.32771 0
M  V30 5974 H 547.503 0.78126 -5.18649 0
M  V30 5975 H 548.977 2.47287 -4.93511 0
M  V30 5976 H 549.454 2.9043 -3.29465 0
M  V30 5977 H 550.06 1.39629 -4.01726 0
M  V30 5978 N 548.375 1.56261 0.205012 0
M  V30 5979 C 549.307 1.90266 1.27795 0
M  V30 5980 C 550.32 0.792397 1.42214 0
M  V30 5981 O 551.509 1.07077 1.42817 0
M  V30 5982 C 548.609 2.11074 2.65143 0
M  V30 5983 C 547.782 3.42176 2.7246 0
M  V30 5984 C 546.841 3.52216 3.90936 0
M  V30 5985 O 545.867 4.25119 3.78501 0
M  V30 5986 N 547.069 2.84573 5.05963 0
M  V30 5987 H 549.834 2.82896 0.989434 0
M  V30 5988 H 547.395 1.57008 0.394981 0
M  V30 5989 H 549.387 2.15089 3.4281 0
M  V30 5990 H 547.957 1.2499 2.86524 0
M  V30 5991 H 547.177 3.50116 1.81142 0
M  V30 5992 H 548.465 4.28509 2.74331 0
M  V30 5993 H 547.863 2.25152 5.18963 0
M  V30 5994 H 546.42 2.94228 5.81613 0
M  V30 5995 N 549.853 -0.472356 1.50355 0
M  V30 5996 C 551.101 -1.22211 1.60962 0
M  V30 5997 C 551.422 -1.92497 0.311439 0
M  V30 5998 O 550.692 -1.8405 -0.671002 0
M  V30 5999 H 549.272 -0.454092 0.593135 0
M  V30 6000 H 551.934 -0.544977 1.87126 0
M  V30 6001 H 551.03 -1.9707 2.42012 0
M  V30 6002 N 551.331 -1.39911 -0.725443 0
M  V30 6003 C 552.241 -1.41688 -1.8698 0
M  V30 6004 C 553.257 -0.310579 -1.71206 0
M  V30 6005 O 554.433 -0.55359 -1.93642 0
M  V30 6006 C 551.498 -1.26811 -3.22676 0
M  V30 6007 C 550.559 -2.47497 -3.50776 0
M  V30 6008 C 549.792 -2.3332 -4.79997 0
M  V30 6009 O 550.015 -1.34175 -5.54394 0
M  V30 6010 O 548.949 -3.22498 -5.08211 0
M  V30 6011 H 552.775 -2.38171 -1.88436 0
M  V30 6012 H 550.36 -1.21128 -0.874548 0
M  V30 6013 H 552.242 -1.20684 -4.03749 0
M  V30 6014 H 550.917 -0.334289 -3.21969 0
M  V30 6015 H 549.824 -2.59201 -2.69751 0
M  V30 6016 H 551.157 -3.39606 -3.5627 0
M  V30 6017 N 552.809 0.956637 -1.25245 0
M  V30 6018 C 554.055 1.70352 -1.10036 0
M  V30 6019 C 554.388 1.90869 0.358156 0
M  V30 6020 O 553.663 1.47819 1.26411 0
M  V30 6021 C 553.946 3.08766 -1.85298 0
M  V30 6022 C 553.799 2.95672 -3.38966 0
M  V30 6023 C 555.118 4.08622 -1.63451 0
M  V30 6024 H 552.237 0.618279 -0.401123 0
M  V30 6025 H 554.879 1.11212 -1.54051 0
M  V30 6026 H 553.029 3.59252 -1.47887 0
M  V30 6027 H 554.701 2.52527 -3.86041 0
M  V30 6028 H 552.944 2.31634 -3.6678 0
M  V30 6029 H 553.615 3.93776 -3.86839 0
M  V30 6030 H 556.091 3.67038 -1.96015 0
M  V30 6031 H 554.967 5.03514 -2.18551 0
M  V30 6032 H 555.228 4.3834 -0.575357 0
M  V30 6033 N 554.287 1.06798 1.15896 0
M  V30 6034 C 555.22 0.627503 2.19403 0
M  V30 6035 C 556.198 -0.352352 1.58736 0
M  V30 6036 O 557.382 -0.260111 1.86697 0
M  V30 6037 C 554.509 -0.079356 3.38607 0
M  V30 6038 C 553.555 0.858057 4.17779 0
M  V30 6039 S 554.388 2.35605 4.80885 0
M  V30 6040 C 555.544 1.66083 6.03463 0
M  V30 6041 H 555.777 1.50441 2.56427 0
M  V30 6042 H 553.31 0.881427 1.26768 0
M  V30 6043 H 555.268 -0.48095 4.07673 0
M  V30 6044 H 553.929 -0.932524 2.99938 0
M  V30 6045 H 553.122 0.310108 5.03045 0
M  V30 6046 H 552.724 1.19977 3.54234 0
M  V30 6047 H 555.016 0.969337 6.7053 0
M  V30 6048 H 555.959 2.49159 6.62816 0
M  V30 6049 H 556.367 1.14122 5.52844 0
M  V30 6050 N 555.766 -1.3263 0.851289 0
M  V30 6051 C 557.043 -1.91982 0.374448 0
M  V30 6052 C 557.423 -1.77568 -1.14161 0
M  V30 6053 O 556.771 -1.1717 -1.96172 0
M  V30 6054 C 556.981 -3.38862 0.835088 0
M  V30 6055 C 558.329 -4.15999 0.850309 0
M  V30 6056 O 559.353 -3.47566 0.779505 0
M  V30 6057 O 558.212 -5.38189 0.949481 0
M  V30 6058 H 555.306 -0.819846 0.10854 0
M  V30 6059 H 557.852 -1.41422 0.937966 0
M  V30 6060 H 556.624 -3.43281 1.87814 0
M  V30 6061 H 556.247 -3.96821 0.248833 0
M  V30 6062 N 557.244 -0.608902 -1.45362 0
M  V30 6063 C 558.49 -0.104762 -2.02529 0
M  V30 6064 C 558.823 1.26191 -1.47613 0
M  V30 6065 O 558.098 1.8327 -0.65134 0
M  V30 6066 C 558.381 -0.0672661 -3.60037 0
M  V30 6067 C 558.234 -1.4647 -4.25284 0
M  V30 6068 C 559.553 0.619877 -4.35713 0
M  V30 6069 H 556.672 -0.0395438 -0.735938 0
M  V30 6070 H 559.314 -0.781126 -1.73201 0
M  V30 6071 H 557.464 0.50871 -3.85155 0
M  V30 6072 H 559.136 -2.08785 -4.11347 0
M  V30 6073 H 557.379 -2.02502 -3.83634 0
M  V30 6074 H 558.05 -1.39069 -5.34195 0
M  V30 6075 H 560.526 0.130297 -4.15896 0
M  V30 6076 H 559.402 0.615224 -5.45441 0
M  V30 6077 H 559.663 1.68621 -4.0868 0
M  V30 6078 N 558.722 1.53707 -0.348139 0
M  V30 6079 C 559.632 2.28881 0.514857 0
M  V30 6080 C 560.648 1.34168 1.10793 0
M  V30 6081 O 561.824 1.6721 1.12262 0
M  V30 6082 C 558.889 3.05042 1.64774 0
M  V30 6083 C 557.95 4.15389 1.08398 0
M  V30 6084 C 557.183 4.87909 2.16287 0
M  V30 6085 O 557.406 4.60137 3.3709 0
M  V30 6086 O 556.34 5.74254 1.80323 0
M  V30 6087 H 560.166 3.03547 -0.0963699 0
M  V30 6088 H 557.751 1.48972 -0.113043 0
M  V30 6089 H 559.633 3.52656 2.30677 0
M  V30 6090 H 558.308 2.33228 2.24469 0
M  V30 6091 H 557.215 3.72068 0.389341 0
M  V30 6092 H 558.548 4.89318 0.531829 0
M  V30 6093 N 560.2 0.0768682 1.57412 0
M  V30 6094 C 561.477 -0.632359 1.85096 0
M  V30 6095 C 561.857 -1.87479 0.9703 0
M  V30 6096 O 561.205 -2.28469 0.0379062 0
M  V30 6097 C 561.415 -0.965174 3.35388 0
M  V30 6098 C 562.763 -1.33648 4.03018 0
M  V30 6099 O 563.787 -1.05675 3.40164 0
M  V30 6100 O 562.646 -1.85959 5.13889 0
M  V30 6101 H 559.74 -0.314574 0.764835 0
M  V30 6102 H 562.286 0.108184 1.69355 0
M  V30 6103 H 561.058 -0.0829745 3.91212 0
M  V30 6104 H 560.681 -1.76231 3.5641 0
M  V30 6105 N 561.678 -1.56367 -0.196722 0
M  V30 6106 C 562.925 -1.80529 -0.917366 0
M  V30 6107 C 563.253 -0.649817 -1.83324 0
M  V30 6108 O 562.508 0.36451 -1.92275 0
M  V30 6109 C 562.807 -3.10663 -1.767 0
M  V30 6110 C 562.473 -4.3962 -1.00225 0
M  V30 6111 C 561.135 -4.74653 -0.791095 0
M  V30 6112 C 563.487 -5.1913 -0.464035 0
M  V30 6113 C 560.815 -5.86692 -0.0302155 0
M  V30 6114 C 563.167 -6.31964 0.283625 0
M  V30 6115 C 561.831 -6.65581 0.505813 0
M  V30 6116 H 561.101 -0.660602 -0.335688 0
M  V30 6117 H 563.748 -1.90615 -0.183844 0
M  V30 6118 H 562.053 -2.95807 -2.56915 0
M  V30 6119 H 563.75 -3.26563 -2.32718 0
M  V30 6120 H 560.34 -4.12127 -1.17684 0
M  V30 6121 H 564.524 -4.9248 -0.614575 0
M  V30 6122 H 559.78 -6.11211 0.151917 0
M  V30 6123 H 563.954 -6.92791 0.708057 0
M  V30 6124 H 561.581 -7.52239 1.0973 0
M  V30 6125 N 563.156 0.464375 -1.50603 0
M  V30 6126 C 564.572 0.798684 -1.38178 0
M  V30 6127 C 564.772 1.96568 -0.44308 0
M  V30 6128 O 563.828 2.52252 0.111814 0
M  V30 6129 C 565.141 1.10444 -2.79683 0
M  V30 6130 C 566.689 1.2105 -2.88645 0
M  V30 6131 C 567.164 1.54934 -4.30998 0
M  V30 6132 N 568.655 1.61913 -4.3398 0
M  V30 6133 C 569.39 1.8965 -5.41129 0
M  V30 6134 N 568.886 2.15361 -6.58477 0
M  V30 6135 N 570.679 1.91207 -5.28579 0
M  V30 6136 H 562.83 -0.304603 -2.10204 0
M  V30 6137 H 565.093 -0.0737804 -0.945125 0
M  V30 6138 H 564.799 0.319934 -3.50242 0
M  V30 6139 H 564.673 2.03896 -3.17342 0
M  V30 6140 H 567.06 1.98567 -2.18301 0
M  V30 6141 H 567.141 0.255613 -2.5452 0
M  V30 6142 H 566.785 0.779549 -5.01882 0
M  V30 6143 H 566.715 2.51584 -4.62615 0
M  V30 6144 H 569.206 1.44055 -3.49366 0
M  V30 6145 H 569.519 2.35818 -7.35941 0
M  V30 6146 H 567.864 2.1274 -6.6164 0
M  V30 6147 H 571.055 1.70622 -4.35897 0
M  V30 6148 H 571.228 2.12488 -6.12171 0
M  V30 6149 N 564.634 1.40294 0.718013 0
M  V30 6150 C 565.544 1.42678 1.86226 0
M  V30 6151 C 566.56 0.319655 1.71039 0
M  V30 6152 O 567.736 0.563852 1.93346 0
M  V30 6153 C 564.801 1.2852 3.21999 0
M  V30 6154 C 563.862 2.49354 3.49458 0
M  V30 6155 C 563.095 2.35863 4.78753 0
M  V30 6156 O 563.318 1.37114 5.53675 0
M  V30 6157 O 562.252 3.25189 5.06494 0
M  V30 6158 H 566.078 2.39167 1.87171 0
M  V30 6159 H 563.663 1.2159 0.868112 0
M  V30 6160 H 565.545 1.22824 4.03103 0
M  V30 6161 H 564.22 0.351359 3.21787 0
M  V30 6162 H 563.127 2.60628 2.68373 0
M  V30 6163 H 564.46 3.41491 3.54464 0
M  V30 6164 N 566.112 -0.949982 1.2575 0
M  V30 6165 C 567.36 -1.6918 1.10555 0
M  V30 6166 C 567.681 -1.91773 -0.353298 0
M  V30 6167 O 566.951 -1.50814 -1.25027 0
M  V30 6168 H 565.531 -0.626952 0.406129 0
M  V30 6169 H 568.193 -1.1419 1.57945 0
M  V30 6170 H 567.289 -2.66915 1.61749 0
M  V30 6171 N 567.59 -1.07411 -1.15328 0
M  V30 6172 C 568.537 -0.694995 -2.20087 0
M  V30 6173 C 569.507 0.313904 -1.63107 0
M  V30 6174 O 570.692 0.200216 -1.89747 0
M  V30 6175 C 567.832 -0.0996218 -3.44956 0
M  V30 6176 C 566.945 -1.16007 -4.16133 0
M  V30 6177 C 566.08 -0.529636 -5.28553 0
M  V30 6178 C 565.119 -1.57283 -5.91548 0
M  V30 6179 N 564.256 -0.964932 -6.95438 0
M  V30 6180 H 569.096 -1.5927 -2.51867 0
M  V30 6181 H 566.633 -0.796115 -1.23695 0
M  V30 6182 H 568.591 0.263197 -4.16369 0
M  V30 6183 H 567.221 0.761435 -3.13691 0
M  V30 6184 H 566.273 -1.64045 -3.4321 0
M  V30 6185 H 567.585 -1.95101 -4.59061 0
M  V30 6186 H 566.739 -0.114487 -6.06592 0
M  V30 6187 H 565.478 0.29307 -4.86819 0
M  V30 6188 H 564.483 -1.99775 -5.12221 0
M  V30 6189 H 565.708 -2.39783 -6.35359 0
M  V30 6190 H 563.654 -0.16314 -6.55797 0
M  V30 6191 H 563.571 -1.69311 -7.36797 0
M  V30 6192 H 564.839 -0.575305 -7.77374 0
M  V30 6193 N 569.068 1.32177 -0.85831 0
M  V30 6194 C 569.998 2.31282 -0.321041 0
M  V30 6195 C 570.979 1.59841 0.581786 0
M  V30 6196 O 572.164 1.87619 0.501262 0
M  V30 6197 C 569.294 3.4385 0.48832 0
M  V30 6198 C 568.248 4.26799 -0.320391 0
M  V30 6199 C 567.574 5.31164 0.613934 0
M  V30 6200 C 568.874 4.98829 -1.54813 0
M  V30 6201 H 570.568 2.76469 -1.14915 0
M  V30 6202 H 568.114 1.32916 -0.554028 0
M  V30 6203 H 570.067 4.12224 0.874626 0
M  V30 6204 H 568.791 2.97401 1.34983 0
M  V30 6205 H 567.45 3.60077 -0.688497 0
M  V30 6206 H 567.098 4.80967 1.47239 0
M  V30 6207 H 566.798 5.8755 0.0768097 0
M  V30 6208 H 568.322 6.024 0.997336 0
M  V30 6209 H 569.736 5.59864 -1.23392 0
M  V30 6210 H 568.133 5.64957 -2.02346 0
M  V30 6211 H 569.203 4.26483 -2.30739 0
M  V30 6212 N 570.547 0.616602 1.45037 0
M  V30 6213 C 571.772 0.120192 2.07051 0
M  V30 6214 C 572.197 -1.19008 1.45666 0
M  V30 6215 O 571.555 -1.7267 0.552692 0
M  V30 6216 C 571.603 0.00354901 3.606 0
M  V30 6217 O 570.707 -1.04431 3.98958 0
M  V30 6218 H 570.048 0.0781599 0.659384 0
M  V30 6219 H 572.578 0.849167 1.86146 0
M  V30 6220 H 572.588 -0.191754 4.07549 0
M  V30 6221 H 571.263 0.960239 4.04663 0
M  V30 6222 H 569.84 -0.824749 3.63665 0
M  V30 6223 N 572.025 -1.5352 0.356285 0
M  V30 6224 C 572.955 -2.28372 -0.486661 0
M  V30 6225 C 573.936 -1.30432 -1.09185 0
M  V30 6226 O 575.121 -1.59291 -1.11085 0
M  V30 6227 C 572.251 -3.06604 -1.63129 0
M  V30 6228 C 571.205 -4.12154 -1.15381 0
M  V30 6229 C 570.531 -4.78415 -2.38796 0
M  V30 6230 C 571.831 -5.21724 -0.245179 0
M  V30 6231 H 573.525 -2.99083 0.137797 0
M  V30 6232 H 571.071 -1.43841 0.0677134 0
M  V30 6233 H 573.024 -3.57712 -2.22755 0
M  V30 6234 H 571.748 -2.33568 -2.28284 0
M  V30 6235 H 570.407 -3.61978 -0.580294 0
M  V30 6236 H 570.055 -4.01959 -3.02387 0
M  V30 6237 H 569.755 -5.49734 -2.07524 0
M  V30 6238 H 571.279 -5.32313 -2.99125 0
M  V30 6239 H 572.693 -5.68391 -0.748646 0
M  V30 6240 H 571.09 -6.00095 -0.0237608 0
M  V30 6241 H 572.16 -4.79596 0.715229 0
M  V30 6242 N 573.503 -0.0852151 -1.57369 0
M  V30 6243 C 574.78 0.622534 -1.85429 0
M  V30 6244 C 575.16 1.86962 -0.980229 0
M  V30 6245 O 574.508 2.28445 -0.0500219 0
M  V30 6246 C 574.718 0.947374 -3.35896 0
M  V30 6247 C 576.066 1.31509 -4.03721 0
M  V30 6248 O 577.09 1.03869 -3.40719 0
M  V30 6249 O 575.949 1.83231 -5.14868 0
M  V30 6250 H 573.043 0.310513 -0.766492 0
M  V30 6251 H 575.589 -0.117164 -1.69295 0
M  V30 6252 H 574.361 0.0622264 -3.91251 0
M  V30 6253 H 573.984 1.74338 -3.5734 0
M  V30 6254 N 574.981 1.5647 0.188427 0
M  V30 6255 C 575.891 1.98285 1.2538 0
M  V30 6256 C 576.907 0.891535 1.49424 0
M  V30 6257 O 578.083 1.19782 1.61908 0
M  V30 6258 C 575.148 2.31965 2.57669 0
M  V30 6259 C 574.209 3.54838 2.41638 0
M  V30 6260 C 573.442 3.86901 3.67618 0
M  V30 6261 O 573.665 3.20163 4.72072 0
M  V30 6262 O 572.599 4.80309 3.62749 0
M  V30 6263 H 576.425 2.89145 0.928912 0
M  V30 6264 H 574.01 1.44112 0.393955 0
M  V30 6265 H 575.892 2.54673 3.35737 0
M  V30 6266 H 574.567 1.44271 2.89771 0
M  V30 6267 H 573.474 3.37369 1.61658 0
M  V30 6268 H 574.807 4.43019 2.14465 0
M  V30 6269 N 576.459 -0.456382 1.50847 0
M  V30 6270 C 577.707 -1.20497 1.62249 0
M  V30 6271 C 578.028 -1.92156 0.331839 0
M  V30 6272 O 577.298 -1.84751 -0.651443 0
M  V30 6273 H 575.878 -0.447775 0.597918 0
M  V30 6274 H 578.54 -0.525099 1.87693 0
M  V30 6275 H 577.636 -1.94492 2.44089 0
M  V30 6276 N 577.937 -1.40673 -0.710563 0
M  V30 6277 C 579.185 -1.38947 -1.46759 0
M  V30 6278 C 579.506 0.00572879 -1.94999 0
M  V30 6279 O 578.776 0.961358 -1.70689 0
M  V30 6280 H 577.356 -0.5114 -0.544499 0
M  V30 6281 H 580.018 -1.75773 -0.842012 0
M  V30 6282 H 579.114 -2.06745 -2.33801 0
M  V30 6283 N 579.415 0.9433 -1.26252 0
M  V30 6284 C 580.64 1.72898 -1.14547 0
M  V30 6285 C 581.065 1.85761 0.295743 0
M  V30 6286 O 580.423 1.3463 1.21427 0
M  V30 6287 C 580.471 3.11471 -1.8171 0
M  V30 6288 O 579.575 3.97336 -1.10445 0
M  V30 6289 H 578.916 0.530555 -0.399259 0
M  V30 6290 H 581.446 1.18159 -1.67032 0
M  V30 6291 H 581.456 3.61872 -1.88449 0
M  V30 6292 H 580.131 3.01425 -2.86558 0
M  V30 6293 H 578.708 3.55788 -1.11666 0
M  V30 6294 N 580.893 1.08022 1.14757 0
M  V30 6295 C 582.17 0.720386 1.81851 0
M  V30 6296 C 582.55 -0.796375 1.95502 0
M  V30 6297 O 581.898 -1.71339 1.51179 0
M  V30 6298 C 582.108 1.44273 3.17783 0
M  V30 6299 C 583.456 1.59925 3.93331 0
M  V30 6300 O 584.48 1.40407 3.2736 0
M  V30 6301 O 583.339 1.92096 5.11626 0
M  V30 6302 H 580.433 0.257142 0.786007 0
M  V30 6303 H 582.979 1.18155 1.21809 0
M  V30 6304 H 581.751 2.47618 3.02987 0
M  V30 6305 H 581.374 0.97279 3.85516 0
M  V30 6306 N 582.371 -1.3172 0.865308 0
M  V30 6307 C 583.599 -2.01057 0.488251 0
M  V30 6308 C 584.014 -1.64979 -0.918 0
M  V30 6309 O 583.371 -0.876597 -1.60069 0
M  V30 6310 C 583.422 -3.55964 0.630224 0
M  V30 6311 O 583.143 -3.90749 1.98109 0
M  V30 6312 C 584.644 -4.42574 0.253567 0
M  V30 6313 H 581.864 -0.64332 0.190736 0
M  V30 6314 H 584.408 -1.68058 1.16519 0
M  V30 6315 H 582.563 -3.874 0.000895422 0
M  V30 6316 H 582.977 -4.85467 1.9855 0
M  V30 6317 H 584.451 -5.50521 0.403875 0
M  V30 6318 H 584.928 -4.31724 -0.806895 0
M  V30 6319 H 585.534 -4.16547 0.858404 0
M  V30 6320 N 583.85 -0.624285 -1.44708 0
M  V30 6321 C 584.76 0.0861083 -2.34442 0
M  V30 6322 C 585.776 0.84291 -1.5222 0
M  V30 6323 O 586.952 0.796723 -1.84971 0
M  V30 6324 C 584.017 1.05999 -3.30099 0
M  V30 6325 C 583.077 0.303316 -4.28227 0
M  V30 6326 C 582.311 1.23081 -5.19314 0
M  V30 6327 O 582.534 2.46929 -5.14181 0
M  V30 6328 O 581.468 0.71883 -5.97592 0
M  V30 6329 H 585.293 -0.651756 -2.96624 0
M  V30 6330 H 582.879 -0.384493 -1.44368 0
M  V30 6331 H 584.76 1.62046 -3.88997 0
M  V30 6332 H 583.436 1.77859 -2.70459 0
M  V30 6333 H 582.343 -0.300033 -3.72895 0
M  V30 6334 H 583.676 -0.375123 -4.90768 0
M  V30 6335 N 585.328 1.53329 -0.364422 0
M  V30 6336 C 586.553 2.06132 0.229033 0
M  V30 6337 C 586.978 1.23625 1.41769 0
M  V30 6338 O 586.336 0.255038 1.79497 0
M  V30 6339 C 586.384 3.55544 0.60174 0
M  V30 6340 O 585.488 3.75771 1.69912 0
M  V30 6341 H 584.829 0.663148 0.0336213 0
M  V30 6342 H 587.359 1.97758 -0.524689 0
M  V30 6343 H 587.369 3.98549 0.873073 0
M  V30 6344 H 586.044 4.15039 -0.267421 0
M  V30 6345 H 584.621 3.44663 1.42343 0
M  V30 6346 N 586.806 0.0935595 1.57322 0
M  V30 6347 C 587.736 -0.863062 2.16964 0
M  V30 6348 C 588.717 -1.29528 1.10256 0
M  V30 6349 O 589.902 -1.36245 1.38387 0
M  V30 6350 C 587.032 -2.12276 2.74875 0
M  V30 6351 C 585.986 -1.82921 3.86942 0
M  V30 6352 C 585.312 -3.15707 4.31548 0
M  V30 6353 C 586.612 -1.11737 5.10208 0
M  V30 6354 H 588.306 -0.366145 2.97153 0
M  V30 6355 H 585.852 -0.174673 1.42937 0
M  V30 6356 H 587.805 -2.79634 3.1525 0
M  V30 6357 H 586.529 -2.64248 1.91938 0
M  V30 6358 H 585.188 -1.17961 3.47103 0
M  V30 6359 H 584.836 -3.65563 3.45504 0
M  V30 6360 H 584.536 -2.96849 5.07104 0
M  V30 6361 H 586.06 -3.84226 4.74555 0
M  V30 6362 H 587.474 -1.69203 5.47762 0
M  V30 6363 H 585.871 -1.03064 5.91183 0
M  V30 6364 H 586.941 -0.0998818 4.84797 0
M  V30 6365 N 588.284 -1.56567 -0.180126 0
M  V30 6366 C 589.514 -1.85349 -0.912647 0
M  V30 6367 C 589.922 -0.675795 -1.76719 0
M  V30 6368 O 589.265 0.3645 -1.80047 0
M  V30 6369 C 589.327 -3.08431 -1.84691 0
M  V30 6370 C 588.991 -4.41694 -1.17284 0
M  V30 6371 C 589.988 -5.17062 -0.542532 0
M  V30 6372 C 587.673 -4.8843 -1.17223 0
M  V30 6373 C 589.667 -6.37351 0.0793953 0
M  V30 6374 C 587.354 -6.08652 -0.54647 0
M  V30 6375 C 588.352 -6.82955 0.0782458 0
M  V30 6376 O 588.04 -8.00897 0.694158 0
M  V30 6377 H 587.772 -0.619286 -0.271036 0
M  V30 6378 H 590.326 -2.0454 -0.187768 0
M  V30 6379 H 588.556 -2.85163 -2.61188 0
M  V30 6380 H 590.245 -3.23733 -2.44851 0
M  V30 6381 H 591.011 -4.8204 -0.535045 0
M  V30 6382 H 586.89 -4.30542 -1.64788 0
M  V30 6383 H 590.434 -6.95287 0.567612 0
M  V30 6384 H 586.331 -6.4314 -0.55151 0
M  V30 6385 H 587.099 -8.16352 0.592537 0
M  V30 6386 N 589.762 0.448376 -1.51087 0
M  V30 6387 C 590.672 1.56882 -1.74428 0
M  V30 6388 C 591.688 1.62268 -0.62809 0
M  V30 6389 O 592.864 1.79716 -0.909075 0
M  V30 6390 C 589.929 2.92947 -1.85426 0
M  V30 6391 C 588.99 2.97766 -3.09247 0
M  V30 6392 C 588.223 4.27341 -3.19711 0
M  V30 6393 O 588.446 5.19112 -2.36387 0
M  V30 6394 O 587.38 4.38219 -4.12611 0
M  V30 6395 H 591.206 1.40104 -2.69452 0
M  V30 6396 H 588.791 0.630247 -1.35456 0
M  V30 6397 H 590.673 3.73719 -1.94709 0
M  V30 6398 H 589.348 3.09876 -0.935887 0
M  V30 6399 H 588.255 2.15989 -3.0545 0
M  V30 6400 H 589.588 2.8578 -4.00738 0
M  V30 6401 N 591.24 1.41047 0.703093 0
M  V30 6402 C 592.489 1.39301 1.4587 0
M  V30 6403 C 592.802 0.00267077 1.956 0
M  V30 6404 O 594.008 -0.137414 2.71152 0
M  V30 6405 C 592.464 2.44891 2.63735 0
M  V30 6406 C 592.072 3.89796 2.20824 0
M  V30 6407 C 593.816 2.5227 3.41409 0
M  V30 6408 C 591.723 4.86955 3.35602 0
M  V30 6409 H 590.653 0.518005 0.547893 0
M  V30 6410 H 593.304 1.66839 0.764009 0
M  V30 6411 H 591.686 2.10472 3.35436 0
M  V30 6412 H 592.86 4.33424 1.56461 0
M  V30 6413 H 591.175 3.86008 1.56163 0
M  V30 6414 H 593.772 3.22044 4.26839 0
M  V30 6415 H 594.115 1.55714 3.86081 0
M  V30 6416 H 594.648 2.85742 2.7676 0
M  V30 6417 H 591.387 5.84888 2.9595 0
M  V30 6418 H 590.907 4.47982 3.98839 0
M  V30 6419 H 592.586 5.07361 4.01489 0
M  V30 6420 N 592.718 -0.936591 1.26751 0
M  V30 6421 C 593.681 -2.01752 1.08761 0
M  V30 6422 C 594.681 -1.60763 0.0344435 0
M  V30 6423 O 595.871 -1.71963 0.278258 0
M  V30 6424 C 593.003 -3.34543 0.655271 0
M  V30 6425 H 594.196 -2.19143 2.04735 0
M  V30 6426 H 591.749 -1.11618 1.09413 0
M  V30 6427 H 592.484 -3.22851 -0.30626 0
M  V30 6428 H 592.269 -3.65647 1.41578 0
M  V30 6429 H 593.759 -4.13944 0.551378 0
M  V30 6430 N 594.196 -1.08629 -1.14182 0
M  V30 6431 C 595.444 -0.815731 -1.84906 0
M  V30 6432 C 595.765 0.660441 -1.83475 0
M  V30 6433 O 595.035 1.47888 -1.28476 0
M  V30 6434 H 593.615 -0.298773 -0.684648 0
M  V30 6435 H 596.277 -1.37274 -1.38354 0
M  V30 6436 H 595.373 -1.16193 -2.89665 0
M  V30 6437 N 595.674 1.31259 -0.872281 0
M  V30 6438 C 596.604 2.30929 -0.345554 0
M  V30 6439 C 597.585 1.60449 0.5648 0
M  V30 6440 O 598.77 1.8814 0.481335 0
M  V30 6441 C 595.9 3.44348 0.451823 0
M  V30 6442 C 594.854 4.26435 -0.365641 0
M  V30 6443 C 594.18 5.31785 0.557562 0
M  V30 6444 C 595.48 4.97159 -1.60095 0
M  V30 6445 H 597.174 2.75234 -1.17841 0
M  V30 6446 H 594.72 1.3232 -0.568094 0
M  V30 6447 H 596.673 4.13128 0.830854 0
M  V30 6448 H 595.397 2.98816 1.31821 0
M  V30 6449 H 594.056 3.59326 -0.726649 0
M  V30 6450 H 593.704 4.82502 1.4213 0
M  V30 6451 H 593.404 5.87598 0.0144878 0
M  V30 6452 H 594.928 6.03424 0.933387 0
M  V30 6453 H 596.342 5.58523 -1.29323 0
M  V30 6454 H 594.739 5.62779 -2.08327 0
M  V30 6455 H 595.809 4.24012 -2.35249 0
M  V30 6456 N 597.152 0.631951 1.44375 0
M  V30 6457 C 598.1 -0.0846693 2.32446 0
M  V30 6458 C 599.094 -0.834957 1.47393 0
M  V30 6459 O 600.3 -0.747764 1.63733 0
M  V30 6460 H 596.675 -0.0461508 0.750583 0
M  V30 6461 H 598.646 0.67619 2.90638 0
M  V30 6462 C 597.395 -1.05211 3.314 0
M  V30 6463 H 596.718 -0.484203 3.96857 0
M  V30 6464 H 598.158 -1.523 3.95703 0
M  V30 6465 C 596.617 -2.13776 2.60387 0
M  V30 6466 O 597.147 -3.21869 2.4034 0
M  V30 6467 N 595.353 -1.89733 2.20113 0
M  V30 6468 H 594.9 -1.01833 2.36618 0
M  V30 6469 H 594.858 -2.62572 1.72926 0
M  V30 6470 N 598.631 -1.53133 0.372548 0
M  V30 6471 C 599.578 -2.25951 -0.470631 0
M  V30 6472 C 600.548 -1.26895 -1.07176 0
M  V30 6473 O 601.733 -1.55691 -1.10294 0
M  V30 6474 C 598.873 -3.05726 -1.6008 0
M  V30 6475 C 597.986 -4.19684 -1.02416 0
M  V30 6476 C 597.121 -4.86888 -2.124 0
M  V30 6477 C 596.16 -5.92866 -1.52238 0
M  V30 6478 N 595.297 -6.53732 -2.56084 0
M  V30 6479 H 600.137 -2.97587 0.156816 0
M  V30 6480 H 597.674 -1.4683 0.0891571 0
M  V30 6481 H 599.632 -3.50258 -2.26661 0
M  V30 6482 H 598.262 -2.36331 -2.1988 0
M  V30 6483 H 597.314 -3.79588 -0.248426 0
M  V30 6484 H 598.626 -4.95821 -0.544366 0
M  V30 6485 H 597.78 -5.34638 -2.86787 0
M  V30 6486 H 596.519 -4.10239 -2.63734 0
M  V30 6487 H 595.524 -5.4447 -0.763685 0
M  V30 6488 H 596.749 -6.71439 -1.0172 0
M  V30 6489 H 594.695 -5.79932 -3.06618 0
M  V30 6490 H 594.612 -7.25429 -2.12811 0
M  V30 6491 H 595.88 -7.0613 -3.30152 0
M  V30 6492 N 600.109 -0.101901 -1.5727 0
M  V30 6493 C 601.358 0.559922 -1.93772 0
M  V30 6494 C 601.671 1.68913 -0.98629 0
M  V30 6495 O 602.877 2.41256 -1.24529 0
M  V30 6496 C 601.333 1.04739 -3.44322 0
M  V30 6497 C 600.941 -0.05243 -4.47969 0
M  V30 6498 C 602.685 1.68157 -3.89774 0
M  V30 6499 C 600.592 0.450781 -5.8968 0
M  V30 6500 H 599.522 0.212931 -0.723309 0
M  V30 6501 H 602.173 -0.179001 -1.82625 0
M  V30 6502 H 600.555 1.84021 -3.50645 0
M  V30 6503 H 601.729 -0.828157 -4.53297 0
M  V30 6504 H 600.044 -0.592202 -4.12167 0
M  V30 6505 H 602.641 2.0689 -4.93052 0
M  V30 6506 H 602.984 2.55338 -3.28798 0
M  V30 6507 H 603.517 0.954453 -3.8618 0
M  V30 6508 H 600.256 -0.38458 -6.54371 0
M  V30 6509 H 599.776 1.19336 -5.87809 0
M  V30 6510 H 601.455 0.917555 -6.40461 0
M  V30 6511 N 601.587 1.56661 0.17182 0
M  V30 6512 C 602.836 1.81158 0.886831 0
M  V30 6513 C 603.149 0.679072 1.83434 0
M  V30 6514 O 604.355 0.808964 2.59168 0
M  V30 6515 C 602.811 3.20999 1.6275 0
M  V30 6516 C 602.419 4.42117 0.723652 0
M  V30 6517 C 604.163 3.5479 2.33076 0
M  V30 6518 C 602.07 5.7298 1.46452 0
M  V30 6519 H 601 0.675543 0.334899 0
M  V30 6520 H 603.651 1.82967 0.139765 0
M  V30 6521 H 602.033 3.13506 2.4193 0
M  V30 6522 H 603.207 4.60789 -0.0311485 0
M  V30 6523 H 601.522 4.16197 0.130063 0
M  V30 6524 H 604.119 4.49806 2.89099 0
M  V30 6525 H 604.462 2.79646 3.08389 0
M  V30 6526 H 604.995 3.63834 1.6084 0
M  V30 6527 H 601.734 6.51152 0.753729 0
M  V30 6528 H 601.254 5.58285 2.19266 0
M  V30 6529 H 602.933 6.14916 2.01214 0
M  V30 6530 N 603.065 -0.440357 1.51323 0
M  V30 6531 C 603.997 -1.55254 1.68609 0
M  V30 6532 C 605.01 -1.52614 0.566812 0
M  V30 6533 O 606.199 -1.57445 0.841032 0
M  V30 6534 C 603.299 -2.94169 1.68279 0
M  V30 6535 C 602.472 -3.21346 2.96742 0
M  V30 6536 C 601.531 -4.3997 2.8864 0
M  V30 6537 O 600.557 -4.38771 3.62586 0
M  V30 6538 N 601.759 -5.43367 2.04285 0
M  V30 6539 H 604.524 -1.40831 2.6455 0
M  V30 6540 H 602.085 -0.629251 1.49171 0
M  V30 6541 H 604.077 -3.71543 1.60431 0
M  V30 6542 H 602.647 -3.02205 0.799441 0
M  V30 6543 H 601.867 -2.32299 3.18482 0
M  V30 6544 H 603.155 -3.3633 3.81785 0
M  V30 6545 H 602.553 -5.47176 1.43578 0
M  V30 6546 H 601.11 -6.19605 2.02318 0
M  V30 6547 N 604.543 -1.41418 -0.695603 0
M  V30 6548 C 605.79 -1.40774 -1.45564 0
M  V30 6549 C 606.118 -0.0168604 -1.94493 0
M  V30 6550 O 605.373 0.971259 -1.69897 0
M  V30 6551 C 605.672 -2.36112 -2.68302 0
M  V30 6552 C 605.338 -3.82952 -2.38031 0
M  V30 6553 C 604 -4.22954 -2.29486 0
M  V30 6554 C 606.352 -4.75662 -2.13061 0
M  V30 6555 C 603.68 -5.53674 -1.94067 0
M  V30 6556 C 606.032 -6.06702 -1.79151 0
M  V30 6557 C 604.696 -6.45725 -1.69102 0
M  V30 6558 H 603.966 -0.515128 -0.532658 0
M  V30 6559 H 606.613 -1.74216 -0.795047 0
M  V30 6560 H 604.918 -1.95924 -3.39295 0
M  V30 6561 H 606.615 -2.32887 -3.26442 0
M  V30 6562 H 603.205 -3.5127 -2.45576 0
M  V30 6563 H 607.389 -4.45561 -2.18608 0
M  V30 6564 H 602.645 -5.8279 -1.8484 0
M  V30 6565 H 606.819 -6.78041 -1.5885 0
M  V30 6566 H 604.446 -7.46929 -1.41426 0
M  V30 6567 N 606.021 0.929856 -1.27246 0
M  V30 6568 C 607.27 1.67182 -1.12842 0
M  V30 6569 C 607.583 1.9287 0.325666 0
M  V30 6570 O 608.789 2.64999 0.590572 0
M  V30 6571 C 607.245 3.01097 -1.97151 0
M  V30 6572 C 606.853 2.83115 -3.47203 0
M  V30 6573 C 608.597 3.78907 -1.91389 0
M  V30 6574 C 606.504 4.12573 -4.23719 0
M  V30 6575 H 605.434 0.627064 -0.418697 0
M  V30 6576 H 608.085 1.0332 -1.51649 0
M  V30 6577 H 606.467 3.66004 -1.51186 0
M  V30 6578 H 607.641 2.26989 -4.01015 0
M  V30 6579 H 605.956 2.18736 -3.54321 0
M  V30 6580 H 608.553 4.74837 -2.45834 0
M  V30 6581 H 608.896 4.0674 -0.887047 0
M  V30 6582 H 609.429 3.20794 -2.35237 0
M  V30 6583 H 606.168 3.8992 -5.26918 0
M  V30 6584 H 605.688 4.68371 -3.74685 0
M  V30 6585 H 607.367 4.8095 -4.32777 0
M  V30 6586 N 607.499 1.09233 1.13605 0
M  V30 6587 C 608.915 0.82163 1.36826 0
M  V30 6588 C 609.115 -0.565021 1.93416 0
M  V30 6589 O 608.171 -1.32026 2.15234 0
M  V30 6590 C 609.484 1.91124 2.32147 0
M  V30 6591 C 611.032 1.93824 2.45767 0
M  V30 6592 C 611.507 3.01923 3.44393 0
M  V30 6593 N 612.998 3.01149 3.51942 0
M  V30 6594 C 613.733 3.81434 4.2813 0
M  V30 6595 N 613.229 4.71621 5.07489 0
M  V30 6596 N 615.022 3.69702 4.23411 0
M  V30 6597 H 607.173 1.98633 0.752234 0
M  V30 6598 H 609.436 0.862482 0.393482 0
M  V30 6599 H 609.142 2.90862 1.97717 0
M  V30 6600 H 609.016 1.78777 3.32142 0
M  V30 6601 H 611.403 0.94726 2.79483 0
M  V30 6602 H 611.484 2.10248 1.45703 0
M  V30 6603 H 611.128 4.01232 3.11408 0
M  V30 6604 H 611.058 2.82742 4.44257 0
M  V30 6605 H 613.549 2.35789 2.95317 0
M  V30 6606 H 613.862 5.29468 5.62924 0
M  V30 6607 H 612.207 4.75658 5.06729 0
M  V30 6608 H 615.398 2.98606 3.60489 0
M  V30 6609 H 615.571 4.32509 4.82535 0
M  V30 6610 N 608.977 -1.30795 0.87923 0
M  V30 6611 C 609.927 -2.25838 0.313276 0
M  V30 6612 C 610.911 -1.51025 -0.55499 0
M  V30 6613 O 612.103 -1.72413 -0.400353 0
M  V30 6614 C 609.232 -3.39981 -0.476204 0
M  V30 6615 C 608.318 -4.22154 0.405826 0
M  V30 6616 N 608.709 -4.82934 1.50362 0
M  V30 6617 C 607.007 -4.45552 0.199909 0
M  V30 6618 C 607.708 -5.44444 2.0483 0
M  V30 6619 N 606.684 -5.26723 1.34403 0
M  V30 6620 H 610.486 -2.70374 1.15218 0
M  V30 6621 H 608 -1.45168 0.728003 0
M  V30 6622 H 609.997 -4.07108 -0.898251 0
M  V30 6623 H 608.657 -2.96986 -1.31261 0
M  V30 6624 H 609.668 -4.82319 1.8865 0
M  V30 6625 H 606.345 -4.13169 -0.599795 0
M  V30 6626 H 607.735 -6.02701 2.96986 0
M  V30 6627 N 610.455 -0.639598 -1.44038 0
M  V30 6628 C 611.701 -0.156248 -2.02799 0
M  V30 6629 C 612.056 1.21145 -1.49471 0
M  V30 6630 O 611.349 1.79406 -0.672608 0
M  V30 6631 C 611.543 -0.0925348 -3.5728 0
M  V30 6632 C 611.372 -1.45252 -4.25596 0
M  V30 6633 C 610.142 -2.04145 -4.62226 0
M  V30 6634 C 612.34 -2.38812 -4.55492 0
M  V30 6635 N 610.322 -3.3329 -5.15549 0
M  V30 6636 C 611.693 -3.52578 -5.09989 0
M  V30 6637 C 613.748 -2.37785 -4.3745 0
M  V30 6638 C 612.451 -4.65525 -5.48342 0
M  V30 6639 C 614.477 -3.49802 -4.76857 0
M  V30 6640 C 613.839 -4.62292 -5.31475 0
M  V30 6641 H 609.938 -0.101292 -0.775412 0
M  V30 6642 H 612.522 -0.844938 -1.75411 0
M  V30 6643 H 610.693 0.565459 -3.84262 0
M  V30 6644 H 612.425 0.400426 -4.02714 0
M  V30 6645 H 609.18 -1.56999 -4.4682 0
M  V30 6646 H 609.604 -3.9934 -5.46678 0
M  V30 6647 H 614.246 -1.52061 -3.94509 0
M  V30 6648 H 611.964 -5.51951 -5.90233 0
M  V30 6649 H 615.55 -3.50193 -4.64603 0
M  V30 6650 H 614.43 -5.47536 -5.61403 0
M  V30 6651 N 611.933 1.52934 -0.380664 0
M  V30 6652 C 613.349 1.59571 -0.0302429 0
M  V30 6653 C 613.549 1.39509 1.45394 0
M  V30 6654 O 612.605 1.20777 2.21741 0
M  V30 6655 C 613.918 2.96519 -0.499691 0
M  V30 6656 C 615.466 3.09672 -0.455204 0
M  V30 6657 C 615.941 4.49056 -0.900703 0
M  V30 6658 N 617.432 4.55215 -0.856367 0
M  V30 6659 C 618.167 5.61282 -1.17259 0
M  V30 6660 N 617.663 6.75035 -1.55885 0
M  V30 6661 N 619.456 5.51343 -1.0944 0
M  V30 6662 H 611.607 1.64224 -1.347 0
M  V30 6663 H 613.87 0.771033 -0.551554 0
M  V30 6664 H 613.576 3.16388 -1.53595 0
M  V30 6665 H 613.45 3.77052 0.105789 0
M  V30 6666 H 615.837 2.89504 0.571949 0
M  V30 6667 H 615.918 2.31113 -1.09638 0
M  V30 6668 H 615.562 4.69964 -1.92604 0
M  V30 6669 H 615.492 5.26068 -0.236629 0
M  V30 6670 H 617.983 3.73546 -0.572013 0
M  V30 6671 H 618.296 7.51926 -1.784 0
M  V30 6672 H 616.641 6.76388 -1.59764 0
M  V30 6673 H 619.832 4.61356 -0.791713 0
M  V30 6674 H 620.005 6.33905 -1.34417 0
M  V30 6675 N 613.412 0.11024 1.57214 0
M  V30 6676 C 614.344 -0.873497 2.11902 0
M  V30 6677 C 615.357 -1.23588 1.05971 0
M  V30 6678 O 616.546 -1.18636 1.33371 0
M  V30 6679 C 613.646 -2.17805 2.59643 0
M  V30 6680 C 612.819 -1.98869 3.89576 0
M  V30 6681 C 611.878 -3.12974 4.23006 0
M  V30 6682 O 610.904 -2.86272 4.91973 0
M  V30 6683 N 612.106 -4.39167 3.79622 0
M  V30 6684 H 614.871 -0.406317 2.96933 0
M  V30 6685 H 612.432 -0.074437 1.61729 0
M  V30 6686 H 614.424 -2.93117 2.79042 0
M  V30 6687 H 612.994 -2.55899 1.7954 0
M  V30 6688 H 612.214 -1.078 3.79174 0
M  V30 6689 H 613.502 -1.83512 4.74553 0
M  V30 6690 H 612.9 -4.63739 3.2398 0
M  V30 6691 H 611.457 -5.11379 4.04147 0
M  V30 6692 N 614.89 -1.56749 -0.16351 0
M  V30 6693 C 616.136 -1.83597 -0.875436 0
M  V30 6694 C 616.491 -0.691907 -1.79528 0
M  V30 6695 O 615.784 0.311193 -1.89056 0
M  V30 6696 C 615.978 -3.14342 -1.70071 0
M  V30 6697 C 615.807 -4.41356 -0.862265 0
M  V30 6698 C 614.577 -5.02467 -0.534299 0
M  V30 6699 C 616.775 -5.1391 -0.200203 0
M  V30 6700 N 614.757 -6.13068 0.31947 0
M  V30 6701 C 616.128 -6.17862 0.514398 0
M  V30 6702 C 618.183 -4.97757 -0.119171 0
M  V30 6703 C 616.886 -7.07412 1.30236 0
M  V30 6704 C 618.912 -5.87756 0.655477 0
M  V30 6705 C 618.274 -6.91178 1.35842 0
M  V30 6706 H 614.373 -0.722702 -0.298708 0
M  V30 6707 H 616.957 -1.94182 -0.141883 0
M  V30 6708 H 615.128 -3.04933 -2.40562 0
M  V30 6709 H 616.86 -3.29156 -2.35453 0
M  V30 6710 H 613.615 -4.65611 -0.866222 0
M  V30 6711 H 614.039 -6.72978 0.736893 0
M  V30 6712 H 618.681 -4.178 -0.648278 0
M  V30 6713 H 616.399 -7.86808 1.84278 0
M  V30 6714 H 619.985 -5.77328 0.719948 0
M  V30 6715 H 618.865 -7.59614 1.94822 0
M  V30 6716 N 616.368 0.432326 -1.51554 0
M  V30 6717 C 617.316 1.54572 -1.73811 0
M  V30 6718 C 618.31 1.58246 -0.604539 0
M  V30 6719 O 619.516 1.6193 -0.786041 0
M  V30 6720 H 615.891 0.513626 -0.549265 0
M  V30 6721 H 617.862 1.32977 -2.67132 0
M  V30 6722 C 616.611 2.92181 -1.88483 0
M  V30 6723 H 615.934 2.90088 -2.75116 0
M  V30 6724 H 617.374 3.69439 -2.08065 0
M  V30 6725 C 615.833 3.3065 -0.645909 0
M  V30 6726 O 616.363 4.01216 0.197093 0
M  V30 6727 N 614.569 2.86464 -0.488538 0
M  V30 6728 H 614.116 2.29209 -1.17562 0
M  V30 6729 H 614.074 3.12565 0.339156 0
M  V30 6730 N 617.846 1.41785 0.688094 0
M  V30 6731 C 619.262 1.24419 0.999608 0
M  V30 6732 C 619.462 0.138868 2.01021 0
M  V30 6733 O 618.518 -0.494283 2.47615 0
M  V30 6734 C 619.831 2.59625 1.51709 0
M  V30 6735 C 621.379 2.66869 1.63554 0
M  V30 6736 C 621.854 4.0241 2.18702 0
M  V30 6737 N 623.345 4.04295 2.26053 0
M  V30 6738 C 624.08 5.05977 2.69768 0
M  V30 6739 N 623.576 6.18047 3.13033 0
M  V30 6740 N 625.369 4.93336 2.69398 0
M  V30 6741 H 617.52 2.12392 0.0187427 0
M  V30 6742 H 619.783 0.945347 0.0708673 0
M  V30 6743 H 619.489 3.41297 0.849059 0
M  V30 6744 H 619.363 2.82628 2.49803 0
M  V30 6745 H 621.75 1.8555 2.29467 0
M  V30 6746 H 621.831 2.47668 0.639857 0
M  V30 6747 H 621.475 4.8418 1.53402 0
M  V30 6748 H 621.405 4.18955 3.19037 0
M  V30 6749 H 623.896 3.23383 1.9553 0
M  V30 6750 H 624.209 6.91498 3.45038 0
M  V30 6751 H 622.554 6.21572 3.10923 0
M  V30 6752 H 625.745 4.04865 2.34952 0
M  V30 6753 H 625.918 5.72717 3.03148 0
M  V30 6754 N 619.324 -0.923095 1.27737 0
M  V30 6755 C 620.573 -1.66581 1.13727 0
M  V30 6756 C 620.886 -1.9304 -0.315433 0
M  V30 6757 O 622.092 -2.65309 -0.57651 0
M  V30 6758 C 620.548 -3.00047 1.98745 0
M  V30 6759 C 620.156 -2.8127 3.48699 0
M  V30 6760 C 621.9 -3.77887 1.93395 0
M  V30 6761 C 619.807 -4.1032 4.25901 0
M  V30 6762 H 618.737 -0.624834 0.422017 0
M  V30 6763 H 621.388 -1.02514 1.52194 0
M  V30 6764 H 619.77 -3.65197 1.53125 0
M  V30 6765 H 620.944 -2.24859 4.02213 0
M  V30 6766 H 619.259 -2.16854 3.55476 0
M  V30 6767 H 621.856 -4.73526 2.48348 0
M  V30 6768 H 622.199 -4.06264 0.908605 0
M  V30 6769 H 622.732 -3.19541 2.36935 0
M  V30 6770 H 619.471 -3.8712 5.28978 0
M  V30 6771 H 618.991 -4.66377 3.77163 0
M  V30 6772 H 620.67 -4.78648 4.35321 0
M  V30 6773 N 620.802 -1.09834 -1.13024 0
M  V30 6774 C 622.049 -0.83695 -1.84395 0
M  V30 6775 C 622.377 0.637463 -1.83757 0
M  V30 6776 O 621.632 1.48554 -1.27398 0
M  V30 6777 C 621.931 -1.32263 -3.32026 0
M  V30 6778 C 621.597 -2.80739 -3.52841 0
M  V30 6779 C 620.259 -3.21286 -3.5823 0
M  V30 6780 C 622.611 -3.76449 -3.60466 0
M  V30 6781 C 619.939 -4.56308 -3.68781 0
M  V30 6782 C 622.291 -5.11266 -3.72546 0
M  V30 6783 C 620.955 -5.51397 -3.76189 0
M  V30 6784 H 620.225 -0.306262 -0.674748 0
M  V30 6785 H 622.872 -1.37385 -1.33408 0
M  V30 6786 H 621.177 -0.705618 -3.85394 0
M  V30 6787 H 622.874 -1.09695 -3.85705 0
M  V30 6788 H 619.464 -2.48363 -3.49305 0
M  V30 6789 H 623.648 -3.46234 -3.55578 0
M  V30 6790 H 618.904 -4.86832 -3.69871 0
M  V30 6791 H 623.078 -5.85279 -3.77388 0
M  V30 6792 H 620.705 -6.56017 -3.84117 0
M  V30 6793 N 622.28 1.30327 -0.886154 0
M  V30 6794 C 623.696 1.48676 -0.580323 0
M  V30 6795 C 623.896 1.81189 0.881639 0
M  V30 6796 O 622.952 1.90021 1.66278 0
M  V30 6797 C 624.265 2.60932 -1.49449 0
M  V30 6798 C 625.813 2.74812 -1.49824 0
M  V30 6799 C 626.288 3.90183 -2.39836 0
M  V30 6800 N 627.779 3.97495 -2.37806 0
M  V30 6801 C 628.514 4.86078 -3.04165 0
M  V30 6802 N 628.01 5.79448 -3.79753 0
M  V30 6803 N 629.803 4.79456 -2.93391 0
M  V30 6804 H 621.954 1.07495 -1.8319 0
M  V30 6805 H 624.217 0.532661 -0.784204 0
M  V30 6806 H 623.923 2.43731 -2.5355 0
M  V30 6807 H 623.797 3.57437 -1.20494 0
M  V30 6808 H 626.184 2.91418 -0.464731 0
M  V30 6809 H 626.265 1.78924 -1.82811 0
M  V30 6810 H 625.909 3.74334 -3.43273 0
M  V30 6811 H 625.839 4.85411 -2.04166 0
M  V30 6812 H 628.33 3.30703 -1.82877 0
M  V30 6813 H 628.643 6.43805 -4.27475 0
M  V30 6814 H 626.988 5.79376 -3.8386 0
M  V30 6815 H 630.179 4.05494 -2.33864 0
M  V30 6816 H 630.352 5.48283 -3.45383 0
M  V30 6817 N 623.758 0.647228 1.43697 0
M  V30 6818 C 625.004 0.167001 2.02713 0
M  V30 6819 C 625.359 -1.20351 1.50111 0
M  V30 6820 O 624.652 -1.79047 0.682113 0
M  V30 6821 C 624.846 0.111481 3.57226 0
M  V30 6822 C 624.675 1.47507 4.2482 0
M  V30 6823 C 623.445 2.06594 4.61137 0
M  V30 6824 C 625.643 2.41224 4.54219 0
M  V30 6825 N 623.625 3.3602 5.13774 0
M  V30 6826 C 624.996 3.55278 5.08112 0
M  V30 6827 C 627.051 2.40102 4.36183 0
M  V30 6828 C 625.754 4.68426 5.45866 0
M  V30 6829 C 627.78 3.52326 4.74995 0
M  V30 6830 C 627.142 4.65104 5.29015 0
M  V30 6831 H 623.241 0.105402 0.774864 0
M  V30 6832 H 625.825 0.854229 1.7496 0
M  V30 6833 H 623.996 -0.545073 3.84556 0
M  V30 6834 H 625.728 -0.379063 4.02921 0
M  V30 6835 H 622.483 1.59366 4.45981 0
M  V30 6836 H 622.907 4.02233 5.44552 0
M  V30 6837 H 627.549 1.54151 3.93697 0
M  V30 6838 H 625.267 5.55074 5.87298 0
M  V30 6839 H 628.853 3.52652 4.6274 0
M  V30 6840 H 627.733 5.50506 5.58492 0
M  V30 6841 N 625.236 -1.5273 0.388769 0
M  V30 6842 C 626.183 -2.26437 -0.446639 0
M  V30 6843 C 627.153 -1.28025 -1.05824 0
M  V30 6844 O 628.338 -1.56852 -1.08637 0
M  V30 6845 C 625.478 -3.07407 -1.56828 0
M  V30 6846 C 624.591 -4.20747 -0.979589 0
M  V30 6847 C 623.726 -4.89113 -2.07224 0
M  V30 6848 C 622.765 -5.94447 -1.45942 0
M  V30 6849 N 621.902 -6.56411 -2.49135 0
M  V30 6850 H 626.742 -2.97404 0.18837 0
M  V30 6851 H 624.279 -1.46727 0.104725 0
M  V30 6852 H 626.237 -3.52642 -2.22934 0
M  V30 6853 H 624.867 -2.3865 -2.17361 0
M  V30 6854 H 623.919 -3.7983 -0.208151 0
M  V30 6855 H 625.231 -4.9637 -0.491747 0
M  V30 6856 H 624.385 -5.3765 -2.81101 0
M  V30 6857 H 623.124 -4.13013 -2.59368 0
M  V30 6858 H 622.129 -5.4525 -0.705894 0
M  V30 6859 H 623.354 -6.7248 -0.945932 0
M  V30 6860 H 621.3 -5.83152 -3.00449 0
M  V30 6861 H 621.217 -7.27645 -2.05105 0
M  V30 6862 H 622.485 -7.09592 -3.22644 0
M  V30 6863 N 626.714 -0.118576 -1.57153 0
M  V30 6864 C 627.954 0.542618 -1.97066 0
M  V30 6865 C 628.318 1.63874 -1.00046 0
M  V30 6866 O 629.519 2.3588 -1.28895 0
M  V30 6867 C 627.79 1.06196 -3.41258 0
M  V30 6868 S 629.349 1.73174 -4.03183 0
M  V30 6869 H 626.167 0.17638 -0.688775 0
M  V30 6870 H 628.769 -0.203556 -1.94437 0
M  V30 6871 H 627.473 0.253016 -4.09619 0
M  V30 6872 H 627.004 1.84342 -3.47536 0
M  V30 6873 H 629.019 3.01749 -3.93906 0
M  V30 6874 N 628.193 1.56834 0.155195 0
M  V30 6875 C 629.143 1.94061 1.19684 0
M  V30 6876 C 630.127 0.810851 1.38975 0
M  V30 6877 O 631.319 1.07422 1.40675 0
M  V30 6878 C 628.448 2.31778 2.53247 0
M  V30 6879 C 627.534 3.51305 2.37583 0
M  V30 6880 N 627.925 4.68081 1.9166 0
M  V30 6881 C 626.223 3.56228 2.6836 0
M  V30 6882 C 626.924 5.50193 1.88845 0
M  V30 6883 N 625.9 4.91676 2.31852 0
M  V30 6884 H 629.702 2.81826 0.833747 0
M  V30 6885 H 627.216 1.58284 0.363328 0
M  V30 6886 H 629.213 2.56649 3.28538 0
M  V30 6887 H 627.873 1.4536 2.90346 0
M  V30 6888 H 628.884 4.91993 1.6175 0
M  V30 6889 H 625.561 2.8033 3.09389 0
M  V30 6890 H 626.951 6.53801 1.54901 0
M  V30 6891 N 629.671 -0.424282 1.51781 0
M  V30 6892 C 630.948 -1.18464 1.55646 0
M  V30 6893 C 631.328 -2.08529 0.328438 0
M  V30 6894 O 630.676 -2.17969 -0.685693 0
M  V30 6895 C 630.886 -1.97514 2.87731 0
M  V30 6896 C 632.234 -2.54106 3.40169 0
M  V30 6897 O 633.258 -2.07711 2.89369 0
M  V30 6898 O 632.117 -3.38759 4.28841 0
M  V30 6899 H 629.211 -0.540055 0.626314 0
M  V30 6900 H 631.757 -0.432291 1.64102 0
M  V30 6901 H 630.529 -1.31444 3.68562 0
M  V30 6902 H 630.152 -2.79787 2.82498 0
M  V30 6903 N 631.149 -1.42148 -0.680565 0
M  V30 6904 C 632.398 -1.41604 -1.43636 0
M  V30 6905 C 632.711 -0.0337887 -1.95571 0
M  V30 6906 O 633.917 0.0942588 -2.71336 0
M  V30 6907 C 632.373 -2.49056 -2.59806 0
M  V30 6908 C 631.981 -3.9326 -2.14594 0
M  V30 6909 C 633.725 -2.5767 -3.37352 0
M  V30 6910 C 631.632 -4.92232 -3.27813 0
M  V30 6911 H 630.562 -0.526656 -0.539583 0
M  V30 6912 H 633.213 -1.68033 -0.737369 0
M  V30 6913 H 631.595 -2.15782 -3.32045 0
M  V30 6914 H 632.769 -4.35858 -1.49546 0
M  V30 6915 H 631.084 -3.88443 -1.50002 0
M  V30 6916 H 633.681 -3.28794 -4.21662 0
M  V30 6917 H 634.024 -1.61837 -3.83555 0
M  V30 6918 H 634.557 -2.90109 -2.72179 0
M  V30 6919 H 631.296 -5.89522 -2.86607 0
M  V30 6920 H 630.816 -4.5427 -3.91661 0
M  V30 6921 H 632.495 -5.13684 -3.93367 0
M  V30 6922 N 632.627 0.916307 -1.28225 0
M  V30 6923 C 633.873 1.66765 -1.154 0
M  V30 6924 C 634.206 1.91912 0.297251 0
M  V30 6925 O 633.481 1.51766 1.21644 0
M  V30 6926 C 633.764 3.02715 -1.95028 0
M  V30 6927 C 633.617 2.84738 -3.48201 0
M  V30 6928 C 634.936 4.03215 -1.76369 0
M  V30 6929 H 632.055 0.605205 -0.42059 0
M  V30 6930 H 634.697 1.06255 -1.57512 0
M  V30 6931 H 632.847 3.54365 -1.59242 0
M  V30 6932 H 634.519 2.40118 -3.9388 0
M  V30 6933 H 632.762 2.19848 -3.73964 0
M  V30 6934 H 633.433 3.8127 -3.99171 0
M  V30 6935 H 635.909 3.60617 -2.07593 0
M  V30 6936 H 634.785 4.96306 -2.34459 0
M  V30 6937 H 635.046 4.36288 -0.71452 0
M  V30 6938 N 634.105 1.10431 1.1244 0
M  V30 6939 C 635.052 0.753103 2.18167 0
M  V30 6940 C 636.022 -0.270549 1.63882 0
M  V30 6941 O 637.207 -0.149837 1.90211 0
M  V30 6942 C 634.347 0.191046 3.44571 0
M  V30 6943 C 633.46 1.26999 4.12911 0
M  V30 6944 C 632.595 0.669586 5.26963 0
M  V30 6945 C 631.634 1.72912 5.87169 0
M  V30 6946 N 630.771 1.14898 6.92635 0
M  V30 6947 H 635.611 1.65892 2.47556 0
M  V30 6948 H 633.148 0.828631 1.21541 0
M  V30 6949 H 635.106 -0.152712 4.1692 0
M  V30 6950 H 633.736 -0.677997 3.15599 0
M  V30 6951 H 632.788 1.73087 3.3874 0
M  V30 6952 H 634.1 2.07204 4.53727 0
M  V30 6953 H 633.254 0.275274 6.06075 0
M  V30 6954 H 631.993 -0.163895 4.87425 0
M  V30 6955 H 630.998 2.13286 5.06744 0
M  V30 6956 H 632.223 2.56544 6.28778 0
M  V30 6957 H 630.169 0.336956 6.55134 0
M  V30 6958 H 630.086 1.88786 7.32049 0
M  V30 6959 H 631.354 0.78121 7.75576 0
M  V30 6960 N 635.583 -1.29855 0.893053 0
M  V30 6961 C 636.808 -2.00512 0.530066 0
M  V30 6962 C 637.233 -1.66446 -0.876199 0
M  V30 6963 O 636.591 -0.885446 -1.58207 0
M  V30 6964 C 636.639 -3.53308 0.721505 0
M  V30 6965 O 635.743 -4.11764 -0.228994 0
M  V30 6966 H 635.084 -0.630617 0.207891 0
M  V30 6967 H 637.614 -1.6551 1.20282 0
M  V30 6968 H 637.624 -4.03206 0.623599 0
M  V30 6969 H 636.299 -3.77439 1.74678 0
M  V30 6970 H 634.876 -3.72805 -0.0841034 0
M  V30 6971 N 637.061 -0.65484 -1.43351 0
M  V30 6972 C 638.008 0.0357713 -2.30772 0
M  V30 6973 C 638.978 0.813035 -1.44841 0
M  V30 6974 O 640.163 0.789314 -1.73708 0
M  V30 6975 C 637.303 0.995084 -3.30442 0
M  V30 6976 C 636.416 0.21375 -4.31471 0
M  V30 6977 C 635.551 1.16701 -5.18222 0
M  V30 6978 C 634.59 0.376201 -6.10943 0
M  V30 6979 N 633.727 1.28113 -6.90313 0
M  V30 6980 H 638.567 -0.71559 -2.89281 0
M  V30 6981 H 636.104 -0.364645 -1.42509 0
M  V30 6982 H 638.062 1.5649 -3.86739 0
M  V30 6983 H 636.692 1.7133 -2.7358 0
M  V30 6984 H 635.744 -0.472377 -3.77456 0
M  V30 6985 H 637.056 -0.401103 -4.97185 0
M  V30 6986 H 636.21 1.8074 -5.79153 0
M  V30 6987 H 634.949 1.81577 -4.52638 0
M  V30 6988 H 633.954 -0.277534 -5.49099 0
M  V30 6989 H 635.179 -0.268178 -6.7857 0
M  V30 6990 H 633.125 1.91666 -6.27376 0
M  V30 6991 H 633.042 0.720879 -7.52555 0
M  V30 6992 H 634.31 1.90962 -7.55747 0
M  V30 6993 N 638.539 1.52521 -0.396863 0
M  V30 6994 C 639.785 2.01971 0.183169 0
M  V30 6995 C 640.118 1.2825 1.45827 0
M  V30 6996 O 639.393 0.385179 1.90648 0
M  V30 6997 C 639.676 3.5736 0.443391 0
M  V30 6998 C 639.529 4.41743 -0.84753 0
M  V30 6999 C 640.848 4.22539 1.2308 0
M  V30 7000 H 637.967 0.734119 0.0650976 0
M  V30 7001 H 640.609 1.82519 -0.527918 0
M  V30 7002 H 638.759 3.74066 1.04914 0
M  V30 7003 H 640.431 4.36773 -1.48414 0
M  V30 7004 H 638.674 4.0845 -1.4612 0
M  V30 7005 H 639.345 5.48507 -0.620003 0
M  V30 7006 H 641.821 4.09857 0.718084 0
M  V30 7007 H 640.697 5.31227 1.38162 0
M  V30 7008 H 640.958 3.80675 2.24808 0
M  V30 7009 N 640.017 0.126909 1.57088 0
M  V30 7010 C 641.264 -0.529168 1.95464 0
M  V30 7011 C 641.592 -1.6618 1.01067 0
M  V30 7012 O 640.847 -1.95667 0.0360254 0
M  V30 7013 C 641.146 -1.095 3.40212 0
M  V30 7014 C 640.812 -0.0829015 4.50824 0
M  V30 7015 C 639.474 0.195377 4.80803 0
M  V30 7016 C 641.826 0.606411 5.1766 0
M  V30 7017 C 639.154 1.16912 5.74933 0
M  V30 7018 C 641.506 1.56884 6.12838 0
M  V30 7019 C 640.17 1.85502 6.41206 0
M  V30 7020 H 639.44 -0.193636 0.715252 0
M  V30 7021 H 642.087 0.209489 1.90351 0
M  V30 7022 H 640.392 -1.91058 3.42059 0
M  V30 7023 H 642.089 -1.61087 3.67222 0
M  V30 7024 H 638.679 -0.309979 4.27478 0
M  V30 7025 H 642.863 0.404597 4.94648 0
M  V30 7026 H 638.119 1.3975 5.95214 0
M  V30 7027 H 642.293 2.10859 6.6371 0
M  V30 7028 H 639.92 2.61109 7.13951 0
M  V30 7029 N 641.495 -1.56914 -0.146875 0
M  V30 7030 C 642.725 -1.87243 -0.873126 0
M  V30 7031 C 643.133 -0.713127 -1.75246 0
M  V30 7032 O 642.476 0.326228 -1.8078 0
M  V30 7033 C 642.538 -3.12279 -1.78107 0
M  V30 7034 C 642.202 -4.44082 -1.07889 0
M  V30 7035 C 643.199 -5.18096 -0.432734 0
M  V30 7036 C 640.884 -4.90807 -1.06836 0
M  V30 7037 C 642.878 -6.37039 0.214569 0
M  V30 7038 C 640.565 -6.09674 -0.417243 0
M  V30 7039 C 641.563 -6.82636 0.223093 0
M  V30 7040 O 641.251 -7.99245 0.863884 0
M  V30 7041 H 640.983 -0.624896 -0.257839 0
M  V30 7042 H 643.537 -2.04892 -0.14434 0
M  V30 7043 H 641.767 -2.90639 -2.5508 0
M  V30 7044 H 643.456 -3.28854 -2.37929 0
M  V30 7045 H 644.222 -4.83066 -0.432677 0
M  V30 7046 H 640.101 -4.3394 -1.55618 0
M  V30 7047 H 643.645 -6.93927 0.714965 0
M  V30 7048 H 639.542 -6.44165 -0.414967 0
M  V30 7049 H 640.31 -8.14912 0.765564 0
M  V30 7050 N 642.974 0.416227 -1.52004 0
M  V30 7051 C 644.22 1.16233 -1.66917 0
M  V30 7052 C 644.575 1.8839 -0.390763 0
M  V30 7053 O 643.868 1.81479 0.614478 0
M  V30 7054 C 644.062 2.18923 -2.82502 0
M  V30 7055 C 643.891 1.56849 -4.2146 0
M  V30 7056 C 642.661 1.34426 -4.87091 0
M  V30 7057 C 644.859 1.03322 -5.03815 0
M  V30 7058 N 642.841 0.681703 -6.10103 0
M  V30 7059 C 644.212 0.497165 -6.18003 0
M  V30 7060 C 646.267 0.926997 -4.89194 0
M  V30 7061 C 644.97 -0.134687 -7.19174 0
M  V30 7062 C 646.996 0.309009 -5.90592 0
M  V30 7063 C 646.358 -0.216399 -7.04068 0
M  V30 7064 H 642.457 0.412252 -0.664509 0
M  V30 7065 H 645.041 0.455758 -1.89291 0
M  V30 7066 H 643.212 2.86946 -2.61756 0
M  V30 7067 H 644.944 2.85844 -2.86488 0
M  V30 7068 H 641.699 1.61183 -4.45328 0
M  V30 7069 H 642.123 0.367256 -6.76003 0
M  V30 7070 H 646.765 1.31904 -4.01698 0
M  V30 7071 H 644.483 -0.538811 -8.06302 0
M  V30 7072 H 648.069 0.228438 -5.81351 0
M  V30 7073 H 646.949 -0.687064 -7.81184 0
M  V30 7074 N 644.452 1.42507 0.673017 0
M  V30 7075 C 645.382 1.48916 1.79851 0
M  V30 7076 C 646.363 0.345566 1.66553 0
M  V30 7077 O 647.548 0.560116 1.85947 0
M  V30 7078 C 644.678 1.39258 3.18158 0
M  V30 7079 C 643.632 2.51662 3.46194 0
M  V30 7080 C 642.958 2.27062 4.84094 0
M  V30 7081 C 644.258 3.93968 3.42909 0
M  V30 7082 H 645.952 2.43114 1.74745 0
M  V30 7083 H 643.498 1.17013 0.839288 0
M  V30 7084 H 645.451 1.42349 3.96629 0
M  V30 7085 H 644.175 0.415542 3.23946 0
M  V30 7086 H 642.834 2.47891 2.70084 0
M  V30 7087 H 642.482 1.27648 4.86534 0
M  V30 7088 H 642.182 3.02398 5.03815 0
M  V30 7089 H 643.706 2.31905 5.64847 0
M  V30 7090 H 645.12 3.99332 4.11347 0
M  V30 7091 H 643.517 4.6917 3.74165 0
M  V30 7092 H 644.587 4.20512 2.41449 0
M  V30 7093 N 645.93 -0.909495 1.28709 0
M  V30 7094 C 647.176 -1.66151 1.16283 0
M  V30 7095 C 647.509 -1.92067 -0.287069 0
M  V30 7096 O 646.784 -1.52409 -1.20837 0
M  V30 7097 C 647.067 -3.01676 1.9663 0
M  V30 7098 C 646.92 -2.82888 3.49707 0
M  V30 7099 C 648.239 -4.02274 1.78504 0
M  V30 7100 H 645.358 -0.602966 0.423793 0
M  V30 7101 H 648 -1.05418 1.58073 0
M  V30 7102 H 646.15 -3.53515 1.61119 0
M  V30 7103 H 647.822 -2.38026 3.95147 0
M  V30 7104 H 646.065 -2.17862 3.75125 0
M  V30 7105 H 646.736 -3.79147 4.01187 0
M  V30 7106 H 649.212 -3.59511 2.09503 0
M  V30 7107 H 648.088 -4.95056 2.37088 0
M  V30 7108 H 648.349 -4.35903 0.737647 0
M  V30 7109 N 647.408 -1.11026 -1.11852 0
M  V30 7110 C 648.657 -0.851249 -1.82857 0
M  V30 7111 C 648.97 0.62514 -1.85341 0
M  V30 7112 O 650.176 1.00026 -2.52403 0
M  V30 7113 C 648.632 -1.47309 -3.28372 0
M  V30 7114 C 648.24 -2.9832 -3.34229 0
M  V30 7115 C 649.984 -1.29373 -4.04306 0
M  V30 7116 C 647.891 -3.53509 -4.74115 0
M  V30 7117 H 646.821 -0.314794 -0.685143 0
M  V30 7118 H 649.472 -1.33499 -1.25898 0
M  V30 7119 H 647.854 -0.917017 -3.85236 0
M  V30 7120 H 649.028 -3.60295 -2.87271 0
M  V30 7121 H 647.343 -3.15482 -2.71772 0
M  V30 7122 H 649.94 -1.68042 -5.07608 0
M  V30 7123 H 650.283 -0.235879 -4.15631 0
M  V30 7124 H 650.816 -1.8182 -3.53817 0
M  V30 7125 H 647.555 -4.58987 -4.67986 0
M  V30 7126 H 647.075 -2.96305 -5.21501 0
M  V30 7127 H 648.754 -3.51693 -5.43066 0
M  V30 7128 N 648.886 1.2938 -0.899927 0
M  V30 7129 C 649.816 2.30144 -0.39446 0
M  V30 7130 C 650.797 1.61611 0.530639 0
M  V30 7131 O 651.982 1.89119 0.441319 0
M  V30 7132 C 649.112 3.45229 0.37868 0
M  V30 7133 C 648.066 4.25564 -0.456012 0
M  V30 7134 C 647.392 5.32848 0.444637 0
M  V30 7135 C 648.692 4.93651 -1.70605 0
M  V30 7136 H 650.386 2.72673 -1.23653 0
M  V30 7137 H 647.932 1.31086 -0.596034 0
M  V30 7138 H 649.885 4.14797 0.743037 0
M  V30 7139 H 648.609 3.01545 1.25453 0
M  V30 7140 H 647.268 3.57704 -0.802704 0
M  V30 7141 H 646.916 4.85408 1.31863 0
M  V30 7142 H 646.616 5.87497 -0.110154 0
M  V30 7143 H 648.14 6.05268 0.805182 0
M  V30 7144 H 649.554 5.55655 -1.41141 0
M  V30 7145 H 647.951 5.58233 -2.20217 0
M  V30 7146 H 649.021 4.18926 -2.4419 0
M  V30 7147 N 650.364 0.662433 1.43002 0
M  V30 7148 C 651.613 0.176873 2.00923 0
M  V30 7149 C 651.926 -1.21954 1.52927 0
M  V30 7150 O 653.132 -1.80081 2.03182 0
M  V30 7151 C 651.588 0.265379 3.5892 0
M  V30 7152 C 651.196 1.66507 4.15908 0
M  V30 7153 C 652.94 -0.162103 4.2419 0
M  V30 7154 C 650.847 1.707 5.66229 0
M  V30 7155 H 649.777 0.0623627 0.751417 0
M  V30 7156 H 652.428 0.825813 1.63868 0
M  V30 7157 H 650.81 -0.451235 3.93421 0
M  V30 7158 H 651.984 2.40777 3.92891 0
M  V30 7159 H 650.299 2.03932 3.63044 0
M  V30 7160 H 652.896 -0.150745 5.34487 0
M  V30 7161 H 653.239 -1.19519 3.98774 0
M  V30 7162 H 653.772 0.503075 3.94606 0
M  V30 7163 H 650.511 2.7195 5.96426 0
M  V30 7164 H 650.031 1.00768 5.91275 0
M  V30 7165 H 651.71 1.45487 6.3043 0
M  V30 7166 N 651.842 -1.52309 0.404946 0
M  V30 7167 C 653.088 -2.02065 -0.172455 0
M  V30 7168 C 653.421 -1.29022 -1.45145 0
M  V30 7169 O 652.696 -0.395284 -1.90441 0
M  V30 7170 C 652.979 -3.5759 -0.424433 0
M  V30 7171 C 652.832 -4.41287 0.870945 0
M  V30 7172 C 654.151 -4.23186 -1.20837 0
M  V30 7173 H 651.27 -0.734454 -0.0612035 0
M  V30 7174 H 653.912 -1.82236 0.53759 0
M  V30 7175 H 652.062 -3.74617 -1.02929 0
M  V30 7176 H 653.734 -4.3598 1.50729 0
M  V30 7177 H 651.977 -4.07669 1.48284 0
M  V30 7178 H 652.648 -5.48171 0.649083 0
M  V30 7179 H 655.124 -4.10232 -0.696338 0
M  V30 7180 H 654 -5.31953 -1.35343 0
M  V30 7181 H 654.261 -3.81862 -2.22786 0
M  V30 7182 N 653.32 -0.135238 -1.57019 0
M  V30 7183 C 654.283 0.794707 -2.14981 0
M  V30 7184 C 655.283 1.18342 -1.08866 0
M  V30 7185 O 656.473 1.10627 -1.34563 0
M  V30 7186 C 653.605 2.07685 -2.70333 0
M  V30 7187 H 654.798 0.290696 -2.98488 0
M  V30 7188 H 652.351 0.114128 -1.55883 0
M  V30 7189 H 653.086 2.6248 -1.9046 0
M  V30 7190 H 652.871 1.80745 -3.47957 0
M  V30 7191 H 654.361 2.74127 -3.1503 0
M  V30 7192 N 654.798 1.5699 0.138552 0
M  V30 7193 C 655.728 2.01933 1.17241 0
M  V30 7194 C 656.709 0.90033 1.44319 0
M  V30 7195 O 657.894 1.16872 1.55095 0
M  V30 7196 C 655.024 2.40711 2.50351 0
M  V30 7197 C 653.978 3.55874 2.37776 0
M  V30 7198 C 653.304 3.80491 3.75674 0
M  V30 7199 C 654.604 4.8826 1.85472 0
M  V30 7200 H 656.298 2.88551 0.798672 0
M  V30 7201 H 653.844 1.3882 0.382743 0
M  V30 7202 H 655.797 2.70754 3.22909 0
M  V30 7203 H 654.521 1.5104 2.89576 0
M  V30 7204 H 653.18 3.2601 1.67669 0
M  V30 7205 H 652.828 2.88057 4.12349 0
M  V30 7206 H 652.528 4.57998 3.68119 0
M  V30 7207 H 654.052 4.12967 4.49767 0
M  V30 7208 H 655.466 5.16965 2.4783 0
M  V30 7209 H 653.863 5.69631 1.88787 0
M  V30 7210 H 654.933 4.78071 0.810935 0
M  V30 7211 N 656.276 -0.40816 1.52223 0
M  V30 7212 C 657.224 -1.51788 1.76248 0
M  V30 7213 C 658.218 -1.57264 0.629638 0
M  V30 7214 O 659.424 -1.60659 0.811704 0
M  V30 7215 H 655.799 -0.504823 0.557367 0
M  V30 7216 H 657.77 -1.2871 2.69214 0
M  V30 7217 C 656.519 -2.89145 1.93107 0
M  V30 7218 H 655.842 -2.85674 2.79697 0
M  V30 7219 H 657.282 -3.66082 2.13916 0
M  V30 7220 C 655.741 -3.29581 0.698431 0
M  V30 7221 O 656.271 -4.01479 -0.133238 0
M  V30 7222 N 654.477 -2.85651 0.53405 0
M  V30 7223 H 654.024 -2.2731 1.21194 0
M  V30 7224 H 653.982 -3.13065 -0.289387 0
M  V30 7225 N 657.755 -1.42862 -0.66545 0
M  V30 7226 C 658.983 -1.47246 -1.45349 0
M  V30 7227 C 659.398 -0.0865944 -1.88601 0
M  V30 7228 O 658.755 0.900652 -1.58728 0
M  V30 7229 C 658.806 -2.40772 -2.6965 0
M  V30 7230 O 658.527 -3.73968 -2.2821 0
M  V30 7231 C 660.028 -2.54272 -3.63126 0
M  V30 7232 H 657.248 -0.500497 -0.446927 0
M  V30 7233 H 659.792 -1.87477 -0.816871 0
M  V30 7234 H 657.947 -2.0377 -3.29479 0
M  V30 7235 H 658.361 -4.24146 -3.08546 0
M  V30 7236 H 659.835 -3.23815 -4.47043 0
M  V30 7237 H 660.312 -1.58364 -4.09656 0
M  V30 7238 H 660.918 -2.92036 -3.09185 0
M  V30 7239 N 659.233 0.902656 -1.29189 0
M  V30 7240 C 660.163 2.02294 -1.16616 0
M  V30 7241 C 661.144 1.6999 -0.0611175 0
M  V30 7242 O 662.329 1.9271 -0.240072 0
M  V30 7243 C 659.459 3.37018 -0.83882 0
M  V30 7244 C 658.413 3.83522 -1.89986 0
M  V30 7245 C 657.739 5.15337 -1.42589 0
M  V30 7246 C 659.039 4.04169 -3.30824 0
M  V30 7247 H 660.733 2.13071 -2.10336 0
M  V30 7248 H 658.279 1.02378 -1.01266 0
M  V30 7249 H 660.232 4.14895 -0.737584 0
M  V30 7250 H 658.956 3.26325 0.134071 0
M  V30 7251 H 657.615 3.07859 -1.99043 0
M  V30 7252 H 657.263 5.01056 -0.441759 0
M  V30 7253 H 656.963 5.47423 -2.13547 0
M  V30 7254 H 658.487 5.95758 -1.3381 0
M  V30 7255 H 659.901 4.72537 -3.24626 0
M  V30 7256 H 658.298 4.47604 -3.99713 0
M  V30 7257 H 659.368 3.08604 -3.74021 0
M  V30 7258 N 660.711 1.11618 1.11262 0
M  V30 7259 C 661.936 0.889013 1.8738 0
M  V30 7260 C 662.361 -0.555884 1.79698 0
M  V30 7261 O 661.719 -1.39272 1.16073 0
M  V30 7262 C 661.767 1.35759 3.34069 0
M  V30 7263 O 660.871 0.530499 4.08974 0
M  V30 7264 H 660.212 0.320082 0.581759 0
M  V30 7265 H 662.742 1.48611 1.40627 0
M  V30 7266 H 662.752 1.35291 3.84916 0
M  V30 7267 H 661.427 2.40973 3.38976 0
M  V30 7268 H 660.004 0.601439 3.68018 0
M  V30 7269 N 662.189 -1.289 0.906776 0
M  V30 7270 C 663.438 -1.9455 0.532262 0
M  V30 7271 C 663.751 -1.72219 -0.927353 0
M  V30 7272 O 664.957 -2.32033 -1.40971 0
M  V30 7273 C 663.413 -3.48438 0.901041 0
M  V30 7274 C 663.021 -3.79558 2.37991 0
M  V30 7275 C 664.765 -4.20284 0.596777 0
M  V30 7276 C 662.672 -5.26723 2.68918 0
M  V30 7277 H 661.602 -0.728259 0.195333 0
M  V30 7278 H 664.253 -1.46519 1.10474 0
M  V30 7279 H 662.635 -3.95162 0.257419 0
M  V30 7280 H 663.809 -3.43668 3.06967 0
M  V30 7281 H 662.124 -3.20868 2.65391 0
M  V30 7282 H 664.721 -5.28612 0.8046 0
M  V30 7283 H 665.064 -4.13694 -0.465072 0
M  V30 7284 H 665.597 -3.79315 1.19855 0
M  V30 7285 H 662.336 -5.38384 3.73928 0
M  V30 7286 H 661.856 -5.63836 2.04571 0
M  V30 7287 H 663.535 -5.94391 2.55555 0
M  V30 7288 N 663.667 -0.670007 -1.42649 0
M  V30 7289 C 664.63 0.00204659 -2.292 0
M  V30 7290 C 665.63 0.733817 -1.4308 0
M  V30 7291 O 666.82 0.57254 -1.64522 0
M  V30 7292 C 663.952 1.01359 -3.25483 0
M  V30 7293 H 665.145 -0.759696 -2.90118 0
M  V30 7294 H 662.698 -0.432105 -1.50208 0
M  V30 7295 H 663.433 1.80399 -2.69493 0
M  V30 7296 H 663.218 0.492323 -3.88997 0
M  V30 7297 H 664.708 1.4824 -3.90403 0
M  V30 7298 N 665.145 1.52092 -0.413018 0
M  V30 7299 C 666.37 2.06756 0.163338 0
M  V30 7300 C 666.795 1.28073 1.37764 0
M  V30 7301 O 666.153 0.312015 1.78595 0
M  V30 7302 C 666.201 3.57278 0.488322 0
M  V30 7303 O 665.305 3.80986 1.57871 0
M  V30 7304 H 664.646 0.663882 0.0125068 0
M  V30 7305 H 667.176 1.95988 -0.587339 0
M  V30 7306 H 667.186 4.01125 0.745836 0
M  V30 7307 H 665.861 4.13978 -0.399327 0
M  V30 7308 H 664.438 3.49017 1.31306 0
M  V30 7309 N 666.623 0.143563 1.56945 0
M  V30 7310 C 667.533 -0.810562 2.20152 0
M  V30 7311 C 668.549 -1.27431 1.1848 0
M  V30 7312 O 669.725 -1.33221 1.51044 0
M  V30 7313 C 666.79 -2.03353 2.80799 0
M  V30 7314 C 665.851 -1.61936 3.97587 0
M  V30 7315 C 665.084 -2.78403 4.55332 0
M  V30 7316 O 665.307 -3.94521 4.11958 0
M  V30 7317 O 664.241 -2.54073 5.45647 0
M  V30 7318 H 668.067 -0.30253 3.02189 0
M  V30 7319 H 665.652 -0.0832925 1.49168 0
M  V30 7320 H 667.534 -2.74932 3.19359 0
M  V30 7321 H 666.209 -2.53116 2.01777 0
M  V30 7322 H 665.116 -0.873904 3.6375 0
M  V30 7323 H 666.449 -1.16892 4.78118 0
M  V30 7324 N 668.101 -1.57061 -0.130224 0
M  V30 7325 C 669.051 -1.95941 -1.16582 0
M  V30 7326 C 670.035 -0.832858 -1.37667 0
M  V30 7327 O 671.227 -1.09647 -1.38948 0
M  V30 7328 C 668.356 -2.35777 -2.49528 0
M  V30 7329 C 667.442 -3.5504 -2.31964 0
M  V30 7330 N 667.833 -4.71071 -1.84189 0
M  V30 7331 C 666.131 -3.60453 -2.62659 0
M  V30 7332 C 666.832 -5.53128 -1.80068 0
M  V30 7333 N 665.808 -4.95303 -2.24001 0
M  V30 7334 H 669.61 -2.83117 -0.788806 0
M  V30 7335 H 667.124 -1.58842 -0.3381 0
M  V30 7336 H 669.121 -2.61843 -3.24413 0
M  V30 7337 H 667.781 -1.49961 -2.87996 0
M  V30 7338 H 668.792 -4.94504 -1.53903 0
M  V30 7339 H 665.469 -2.85217 -3.0489 0
M  V30 7340 H 666.859 -6.56182 -1.4448 0
M  V30 7341 N 669.579 0.400081 -1.52437 0
M  V30 7342 C 670.529 1.48734 -1.72807 0
M  V30 7343 C 671.513 1.50004 -0.582032 0
M  V30 7344 O 672.705 1.55828 -0.839449 0
M  V30 7345 C 669.834 2.86568 -1.89034 0
M  V30 7346 C 668.92 2.8991 -3.09537 0
M  V30 7347 N 669.311 2.62937 -4.32086 0
M  V30 7348 C 667.609 3.21078 -3.09556 0
M  V30 7349 C 668.31 2.73079 -5.13617 0
M  V30 7350 N 667.286 3.06342 -4.49061 0
M  V30 7351 H 671.088 1.26689 -2.65193 0
M  V30 7352 H 668.602 0.607902 -1.50593 0
M  V30 7353 H 670.599 3.64834 -2.01746 0
M  V30 7354 H 669.259 3.09604 -0.978547 0
M  V30 7355 H 670.27 2.37163 -4.60406 0
M  V30 7356 H 666.947 3.49651 -2.28146 0
M  V30 7357 H 668.337 2.55863 -6.21276 0
M  V30 7358 N 671.057 1.43213 0.657864 0
M  V30 7359 C 672.005 1.48271 1.79216 0
M  V30 7360 C 672.999 0.35675 1.65601 0
M  V30 7361 O 674.205 0.530535 1.72004 0
M  V30 7362 H 670.58 0.464729 0.591211 0
M  V30 7363 H 672.551 2.43792 1.7207 0
M  V30 7364 C 671.3 1.41837 3.17455 0
M  V30 7365 H 670.623 2.27781 3.28567 0
M  V30 7366 H 672.063 1.49438 3.96793 0
M  V30 7367 C 670.522 0.135347 3.36628 0
M  V30 7368 O 671.052 -0.805199 3.93547 0
M  V30 7369 N 669.258 0.0470316 2.90562 0
M  V30 7370 H 668.805 0.813221 2.44427 0
M  V30 7371 H 668.763 -0.810737 3.03767 0
M  V30 7372 N 672.536 -0.895792 1.29666 0
M  V30 7373 C 673.468 -2.00563 1.10937 0
M  V30 7374 C 674.481 -1.62705 0.055734 0
M  V30 7375 O 675.67 -1.7595 0.300656 0
M  V30 7376 C 672.77 -3.32262 0.667448 0
M  V30 7377 C 671.943 -3.98625 1.80047 0
M  V30 7378 C 671.002 -5.08617 1.3489 0
M  V30 7379 O 670.028 -5.30837 2.05429 0
M  V30 7380 N 671.23 -5.80076 0.221937 0
M  V30 7381 H 673.995 -2.17184 2.06522 0
M  V30 7382 H 671.556 -1.06822 1.21658 0
M  V30 7383 H 673.548 -4.03196 0.348586 0
M  V30 7384 H 672.118 -3.11985 -0.196055 0
M  V30 7385 H 671.338 -3.21005 2.28801 0
M  V30 7386 H 672.626 -4.39704 2.56003 0
M  V30 7387 H 672.024 -5.64514 -0.366084 0
M  V30 7388 H 670.581 -6.51789 -0.0375346 0
M  V30 7389 N 674.014 -1.12206 -1.10668 0
M  V30 7390 C 675.425 -0.890657 -1.64086 0
M  V30 7391 C 675.776 0.575502 -1.8757 0
M  V30 7392 O 674.901 1.4394 -1.61587 0
M  V30 7393 C 675.496 -1.61029 -2.98085 0
M  V30 7394 C 674.055 -1.4251 -3.48379 0
M  V30 7395 C 673.202 -1.64778 -2.23033 0
M  V30 7396 H 676.153 -1.27718 -0.94201 0
M  V30 7397 H 676.174 -1.05993 -3.65439 0
M  V30 7398 H 675.686 -2.67735 -2.80962 0
M  V30 7399 H 673.787 -0.380497 -3.70652 0
M  V30 7400 H 673.9 -2.17959 -4.26651 0
M  V30 7401 H 672.264 -1.07171 -2.31055 0
M  V30 7402 H 673.047 -2.72776 -2.08443 0
M  V30 7403 N 675.492 1.28418 -0.913599 0
M  V30 7404 C 676.422 2.29713 -0.418847 0
M  V30 7405 C 677.403 1.62165 0.513469 0
M  V30 7406 O 678.588 1.89576 0.421235 0
M  V30 7407 C 675.718 3.45612 0.342042 0
M  V30 7408 C 674.672 4.25056 -0.501123 0
M  V30 7409 C 673.998 5.3329 0.388097 0
M  V30 7410 C 675.298 4.91814 -1.75831 0
M  V30 7411 H 676.992 2.71346 -1.26538 0
M  V30 7412 H 674.538 1.30446 -0.609903 0
M  V30 7413 H 676.491 4.15562 0.699 0
M  V30 7414 H 675.215 3.02858 1.22248 0
M  V30 7415 H 673.874 3.56833 -0.840598 0
M  V30 7416 H 673.522 4.8678 1.26707 0
M  V30 7417 H 673.222 5.87347 -0.172459 0
M  V30 7418 H 674.746 6.06088 0.74094 0
M  V30 7419 H 676.16 5.54126 -1.47026 0
M  V30 7420 H 674.557 5.55866 -2.26126 0
M  V30 7421 H 675.627 4.16313 -2.4862 0
M  V30 7422 N 676.97 0.677563 1.42291 0
M  V30 7423 C 678.216 0.209962 2.02313 0
M  V30 7424 C 678.571 -1.1714 1.52631 0
M  V30 7425 O 677.864 -1.7756 0.719938 0
M  V30 7426 C 678.058 0.187229 3.56909 0
M  V30 7427 C 677.887 1.56484 4.21595 0
M  V30 7428 C 676.657 2.16329 4.56651 0
M  V30 7429 C 678.855 2.50805 4.49 0
M  V30 7430 N 676.837 3.46842 5.06531 0
M  V30 7431 C 678.208 3.65976 5.00461 0
M  V30 7432 C 680.263 2.493 4.30992 0
M  V30 7433 C 678.966 4.79899 5.35807 0
M  V30 7434 C 680.992 3.62322 4.67415 0
M  V30 7435 C 680.354 4.76221 5.19031 0
M  V30 7436 H 676.453 0.121815 0.772454 0
M  V30 7437 H 679.037 0.891148 1.73109 0
M  V30 7438 H 677.208 -0.46338 3.85626 0
M  V30 7439 H 678.94 -0.293512 4.03634 0
M  V30 7440 H 675.695 1.6879 4.42501 0
M  V30 7441 H 676.119 4.13694 5.35898 0
M  V30 7442 H 680.761 1.62467 3.90339 0
M  V30 7443 H 678.479 5.67406 5.75392 0
M  V30 7444 H 682.065 3.62388 4.55155 0
M  V30 7445 H 680.945 5.62228 5.46689 0
M  V30 7446 N 678.448 -1.51871 0.421078 0
M  V30 7447 C 679.378 -2.30231 -0.389363 0
M  V30 7448 C 680.359 -1.34946 -1.03555 0
M  V30 7449 O 681.544 -1.63859 -1.04229 0
M  V30 7450 C 678.674 -3.13247 -1.49979 0
M  V30 7451 C 677.628 -4.16677 -0.977966 0
M  V30 7452 C 676.954 -4.88112 -2.1829 0
M  V30 7453 C 678.254 -5.22295 -0.0236775 0
M  V30 7454 H 679.948 -2.98229 0.264524 0
M  V30 7455 H 677.494 -1.43424 0.12866 0
M  V30 7456 H 679.447 -3.66838 -2.07383 0
M  V30 7457 H 678.171 -2.4304 -2.18173 0
M  V30 7458 H 676.83 -3.64114 -0.426245 0
M  V30 7459 H 676.478 -4.14423 -2.85066 0
M  V30 7460 H 676.178 -5.58041 -1.84021 0
M  V30 7461 H 677.702 -5.44521 -2.76278 0
M  V30 7462 H 679.116 -5.71055 -0.506899 0
M  V30 7463 H 677.513 -5.99656 0.230782 0
M  V30 7464 H 678.583 -4.76131 0.917999 0
M  V30 7465 N 679.926 -0.151884 -1.56866 0
M  V30 7466 C 681.154 0.504813 -2.00647 0
M  V30 7467 C 681.569 1.58098 -1.03201 0
M  V30 7468 O 680.926 1.82476 -0.0297814 0
M  V30 7469 C 680.977 1.10099 -3.44326 0
M  V30 7470 O 680.698 0.0678021 -4.38048 0
M  V30 7471 C 682.199 1.83782 -4.03409 0
M  V30 7472 H 679.419 0.130989 -0.65809 0
M  V30 7473 H 681.963 -0.247903 -2.02992 0
M  V30 7474 H 680.118 1.8043 -3.42817 0
M  V30 7475 H 680.532 0.505237 -5.22061 0
M  V30 7476 H 682.006 2.2078 -5.05925 0
M  V30 7477 H 682.483 2.72557 -3.44397 0
M  V30 7478 H 683.089 1.18138 -4.08563 0
M  V30 7479 N 681.404 1.57128 0.121893 0
M  V30 7480 C 682.82 1.52357 0.47534 0
M  V30 7481 C 683.02 0.864417 1.82017 0
M  V30 7482 O 682.076 0.445529 2.48538 0
M  V30 7483 C 683.389 2.97122 0.4625 0
M  V30 7484 C 684.937 3.08196 0.546255 0
M  V30 7485 C 685.412 4.54516 0.563833 0
M  V30 7486 N 686.903 4.58959 0.625353 0
M  V30 7487 C 687.638 5.69585 0.660354 0
M  V30 7488 N 687.134 6.89714 0.653175 0
M  V30 7489 N 688.927 5.57685 0.703143 0
M  V30 7490 H 681.078 1.98364 -0.75931 0
M  V30 7491 H 683.341 0.905777 -0.279772 0
M  V30 7492 H 683.047 3.48706 -0.457943 0
M  V30 7493 H 682.921 3.54406 1.29136 0
M  V30 7494 H 685.308 2.56617 1.45712 0
M  V30 7495 H 685.389 2.53912 -0.310234 0
M  V30 7496 H 685.033 5.06741 -0.342974 0
M  V30 7497 H 684.963 5.06609 1.43716 0
M  V30 7498 H 687.454 3.72489 0.637182 0
M  V30 7499 H 687.767 7.69781 0.682425 0
M  V30 7500 H 686.112 6.92223 0.620646 0
M  V30 7501 H 689.303 4.62744 0.706095 0
M  V30 7502 H 689.476 6.43909 0.726952 0
M  V30 7503 N 682.882 -0.391992 1.52647 0
M  V30 7504 C 683.812 -1.48517 1.8018 0
M  V30 7505 C 684.793 -1.57039 0.653667 0
M  V30 7506 O 685.978 -1.72036 0.900962 0
M  V30 7507 C 683.108 -2.86161 1.96797 0
M  V30 7508 C 682.062 -2.92481 3.12472 0
M  V30 7509 C 681.388 -4.32546 3.14338 0
M  V30 7510 C 682.688 -2.624 4.51601 0
M  V30 7511 H 684.382 -1.25726 2.71723 0
M  V30 7512 H 681.928 -0.603387 1.30749 0
M  V30 7513 H 683.881 -3.62639 2.14641 0
M  V30 7514 H 682.605 -3.10283 1.01941 0
M  V30 7515 H 681.264 -2.18451 2.94406 0
M  V30 7516 H 680.912 -4.53703 2.1717 0
M  V30 7517 H 680.612 -4.37695 3.92042 0
M  V30 7518 H 682.136 -5.10934 3.34333 0
M  V30 7519 H 683.55 -3.28596 4.69785 0
M  V30 7520 H 681.947 -2.78903 5.3135 0
M  V30 7521 H 683.017 -1.57754 4.58521 0
M  V30 7522 N 684.36 -1.4356 -0.65026 0
M  V30 7523 C 685.292 -1.44918 -1.77571 0
M  V30 7524 C 686.305 -0.344925 -1.59104 0
M  V30 7525 O 687.494 -0.609537 -1.6777 0
M  V30 7526 C 684.594 -1.24914 -3.15039 0
M  V30 7527 C 683.767 -2.48232 -3.60138 0
M  V30 7528 C 682.826 -2.23409 -4.76419 0
M  V30 7529 O 681.852 -2.9678 -4.85706 0
M  V30 7530 N 683.054 -1.25259 -5.66825 0
M  V30 7531 H 685.819 -2.41935 -1.76883 0
M  V30 7532 H 683.38 -1.38754 -0.834202 0
M  V30 7533 H 685.372 -1.06185 -3.90521 0
M  V30 7534 H 683.942 -0.363319 -3.10481 0
M  V30 7535 H 683.162 -2.82366 -2.75069 0
M  V30 7536 H 684.45 -3.30296 -3.87017 0
M  V30 7537 H 683.848 -0.646246 -5.61997 0
M  V30 7538 H 682.405 -1.12513 -6.42016 0
M  V30 7539 N 685.838 0.888903 -1.30139 0
M  V30 7540 C 687.115 1.62145 -1.094 0
M  V30 7541 C 687.495 2.08041 0.358091 0
M  V30 7542 O 686.843 1.84438 1.34888 0
M  V30 7543 C 687.053 2.794 -2.09133 0
M  V30 7544 C 688.401 3.49826 -2.40638 0
M  V30 7545 O 689.425 2.89583 -2.07412 0
M  V30 7546 O 688.284 4.58457 -2.97455 0
M  V30 7547 H 685.378 0.712475 -0.41989 0
M  V30 7548 H 687.924 0.936023 -1.41551 0
M  V30 7549 H 686.696 2.42762 -3.06891 0
M  V30 7550 H 686.319 3.55643 -1.77776 0
M  V30 7551 N 687.317 1.12792 1.10072 0
M  V30 7552 C 688.566 0.880232 1.81479 0
M  V30 7553 C 688.879 -0.595575 1.86312 0
M  V30 7554 O 690.085 -0.959979 2.53962 0
M  V30 7555 C 688.541 1.52514 3.25987 0
M  V30 7556 C 688.149 3.036 3.29441 0
M  V30 7557 C 689.893 1.35788 4.02196 0
M  V30 7558 C 687.8 3.61007 4.68431 0
M  V30 7559 H 686.73 0.325654 0.680048 0
M  V30 7560 H 689.381 1.35485 1.23758 0
M  V30 7561 H 687.763 0.978188 3.83728 0
M  V30 7562 H 688.937 3.64819 2.81502 0
M  V30 7563 H 687.252 3.19765 2.66719 0
M  V30 7564 H 689.849 1.76096 5.0487 0
M  V30 7565 H 690.192 0.301972 4.15203 0
M  V30 7566 H 690.725 1.87426 3.50879 0
M  V30 7567 H 687.464 4.66375 4.60625 0
M  V30 7568 H 686.984 3.04564 5.16721 0
M  V30 7569 H 688.663 3.60289 5.37402 0
M  V30 7570 N 688.795 -1.27931 0.920396 0
M  V30 7571 C 689.758 -2.25345 0.41858 0
M  V30 7572 C 690.758 -1.54116 -0.458798 0
M  V30 7573 O 691.948 -1.72235 -0.260912 0
M  V30 7574 C 689.08 -3.38556 -0.399104 0
M  V30 7575 H 690.273 -2.71251 1.27918 0
M  V30 7576 H 687.826 -1.39728 0.700406 0
M  V30 7577 H 688.561 -2.98021 -1.27882 0
M  V30 7578 H 688.346 -3.91426 0.229863 0
M  V30 7579 H 689.836 -4.10976 -0.740817 0
M  V30 7580 N 690.273 -0.685099 -1.4193 0
M  V30 7581 C 691.221 -0.00165985 -2.326 0
M  V30 7582 C 692.215 0.779678 -1.50391 0
M  V30 7583 O 693.421 0.68648 -1.66395 0
M  V30 7584 H 689.796 0.0182616 -0.751778 0
M  V30 7585 H 691.767 -0.783592 -2.87928 0
M  V30 7586 C 690.516 0.928385 -3.35077 0
M  V30 7587 H 689.839 0.336578 -3.98381 0
M  V30 7588 H 691.279 1.37509 -4.01083 0
M  V30 7589 C 689.738 2.03964 -2.68142 0
M  V30 7590 O 690.268 3.12727 -2.5212 0
M  V30 7591 N 688.474 1.81433 -2.27003 0
M  V30 7592 H 688.021 0.929807 -2.40234 0
M  V30 7593 H 687.979 2.55973 -1.82552 0
M  V30 7594 N 691.751 1.51645 -0.429126 0
M  V30 7595 C 693.167 1.59394 -0.080994 0
M  V30 7596 C 693.367 1.44064 1.40882 0
M  V30 7597 O 692.423 1.27771 2.17786 0
M  V30 7598 C 693.736 2.94779 -0.593773 0
M  V30 7599 C 695.284 3.08067 -0.553494 0
M  V30 7600 C 695.759 4.45963 -1.04311 0
M  V30 7601 N 697.25 4.5226 -1.00076 0
M  V30 7602 C 697.985 5.57268 -1.35056 0
M  V30 7603 N 697.481 6.69734 -1.77282 0
M  V30 7604 N 699.274 5.47582 -1.26925 0
M  V30 7605 H 691.425 1.59856 -1.39857 0
M  V30 7606 H 693.688 0.753095 -0.575805 0
M  V30 7607 H 693.394 3.11342 -1.63583 0
M  V30 7608 H 693.268 3.77197 -0.0142202 0
M  V30 7609 H 695.655 2.91177 0.479556 0
M  V30 7610 H 695.736 2.27508 -1.16935 0
M  V30 7611 H 695.38 4.63598 -2.07459 0
M  V30 7612 H 695.31 5.25049 -0.403873 0
M  V30 7613 H 697.801 3.71537 -0.690564 0
M  V30 7614 H 698.114 7.4587 -2.02232 0
M  V30 7615 H 696.459 6.70963 -1.81202 0
M  V30 7616 H 699.65 4.58604 -0.93809 0
M  V30 7617 H 699.823 6.29308 -1.54516 0
M  V30 7618 N 693.229 0.160201 1.56784 0
M  V30 7619 C 694.475 -0.48831 1.96833 0
M  V30 7620 C 694.808 -1.63641 1.04571 0
M  V30 7621 O 694.083 -1.94289 0.0906481 0
M  V30 7622 C 694.366 -0.981908 3.46454 0
M  V30 7623 C 694.219 0.165607 4.49495 0
M  V30 7624 C 695.538 -1.85931 3.98896 0
M  V30 7625 H 692.657 -0.176027 0.71567 0
M  V30 7626 H 695.299 0.244093 1.88426 0
M  V30 7627 H 693.449 -1.60602 3.5375 0
M  V30 7628 H 695.121 0.802372 4.54268 0
M  V30 7629 H 693.364 0.822789 4.25926 0
M  V30 7630 H 694.035 -0.221699 5.51555 0
M  V30 7631 H 696.511 -1.33327 3.94161 0
M  V30 7632 H 695.387 -2.17373 5.04024 0
M  V30 7633 H 695.648 -2.80106 3.42042 0
M  V30 7634 N 694.707 -1.5719 -0.113559 0
M  V30 7635 C 695.637 -2.03772 -1.14013 0
M  V30 7636 C 696.618 -0.923176 -1.42869 0
M  V30 7637 O 697.803 -1.19325 -1.53216 0
M  V30 7638 C 694.933 -2.44663 -2.4649 0
M  V30 7639 C 693.887 -3.59612 -2.32085 0
M  V30 7640 C 693.213 -3.8642 -3.69573 0
M  V30 7641 C 694.513 -4.91149 -1.7768 0
M  V30 7642 H 696.207 -2.89785 -0.752665 0
M  V30 7643 H 693.753 -1.39412 -0.360609 0
M  V30 7644 H 695.706 -2.75857 -3.18561 0
M  V30 7645 H 694.43 -1.55628 -2.87137 0
M  V30 7646 H 693.089 -3.28636 -1.62461 0
M  V30 7647 H 692.737 -2.94581 -4.07715 0
M  V30 7648 H 692.437 -4.63797 -3.60786 0
M  V30 7649 H 693.961 -4.2007 -4.4314 0
M  V30 7650 H 695.375 -5.20843 -2.39574 0
M  V30 7651 H 693.772 -5.72562 -1.79701 0
M  V30 7652 H 694.842 -4.79301 -0.734776 0
M  V30 7653 N 696.185 0.383891 -1.52853 0
M  V30 7654 C 697.115 1.47559 -1.80965 0
M  V30 7655 C 698.096 1.5669 -0.661986 0
M  V30 7656 O 699.281 1.71556 -0.910072 0
M  V30 7657 C 696.411 2.85114 -1.98312 0
M  V30 7658 C 695.365 2.9082 -3.14019 0
M  V30 7659 C 694.691 4.30873 -3.16627 0
M  V30 7660 C 695.991 2.60001 -4.52986 0
M  V30 7661 H 697.685 1.24283 -2.72386 0
M  V30 7662 H 695.231 0.596445 -1.31067 0
M  V30 7663 H 697.184 3.61496 -2.16561 0
M  V30 7664 H 695.908 3.09738 -1.03585 0
M  V30 7665 H 694.567 2.16886 -2.9556 0
M  V30 7666 H 694.215 4.52545 -2.19573 0
M  V30 7667 H 693.915 4.3561 -3.94357 0
M  V30 7668 H 695.439 5.09154 -3.37038 0
M  V30 7669 H 696.853 3.261 -4.71521 0
M  V30 7670 H 695.25 2.76081 -5.32822 0
M  V30 7671 H 696.32 1.5532 -4.59351 0
M  V30 7672 N 697.663 1.43903 0.642637 0
M  V30 7673 C 698.888 1.49758 1.43483 0
M  V30 7674 C 699.313 0.119911 1.87717 0
M  V30 7675 O 698.671 -0.888558 1.58033 0
M  V30 7676 C 698.719 2.45744 2.63898 0
M  V30 7677 O 697.823 1.95101 3.63331 0
M  V30 7678 H 697.164 0.506138 0.429791 0
M  V30 7679 H 699.694 1.88923 0.785438 0
M  V30 7680 H 699.704 2.63399 3.11584 0
M  V30 7681 H 698.379 3.45818 2.31046 0
M  V30 7682 H 696.956 1.87158 3.22531 0
M  V30 7683 N 699.141 -0.881989 1.30609 0
M  V30 7684 C 700.071 -2.00413 1.1982 0
M  V30 7685 C 701.052 -1.69871 0.0881538 0
M  V30 7686 O 702.237 -1.92304 0.2707 0
M  V30 7687 C 699.367 -3.35641 0.89233 0
M  V30 7688 C 698.321 -3.80451 1.96064 0
M  V30 7689 C 697.647 -5.13003 1.5077 0
M  V30 7690 C 698.947 -3.98855 3.37213 0
M  V30 7691 H 700.641 -2.09698 2.13699 0
M  V30 7692 H 698.187 -1.00754 1.02882 0
M  V30 7693 H 700.14 -4.13669 0.803497 0
M  V30 7694 H 698.864 -3.26497 -0.0821381 0
M  V30 7695 H 697.523 -3.04654 2.03916 0
M  V30 7696 H 697.171 -5.0029 0.521417 0
M  V30 7697 H 696.871 -5.43956 2.22229 0
M  V30 7698 H 698.395 -5.93554 1.43271 0
M  V30 7699 H 699.809 -4.67312 3.32103 0
M  V30 7700 H 698.206 -4.41188 4.06784 0
M  V30 7701 H 699.276 -3.02614 3.78883 0
M  V30 7702 N 700.619 -1.13374 -1.09472 0
M  V30 7703 C 701.866 -0.89519 -1.81639 0
M  V30 7704 C 702.194 0.57868 -1.85692 0
M  V30 7705 O 701.449 1.44426 -1.32059 0
M  V30 7706 C 701.748 -1.42759 -3.2765 0
M  V30 7707 C 701.414 -2.91822 -3.43731 0
M  V30 7708 C 700.076 -3.32521 -3.47827 0
M  V30 7709 C 702.428 -3.87727 -3.48307 0
M  V30 7710 C 699.756 -4.6781 -3.54078 0
M  V30 7711 C 702.108 -5.22859 -3.56091 0
M  V30 7712 C 700.772 -5.63086 -3.58456 0
M  V30 7713 H 700.042 -0.327573 -0.664663 0
M  V30 7714 H 702.689 -1.4156 -1.28969 0
M  V30 7715 H 700.994 -0.827871 -3.82954 0
M  V30 7716 H 702.691 -1.2191 -3.8202 0
M  V30 7717 H 699.281 -2.5935 -3.41226 0
M  V30 7718 H 703.465 -3.57371 -3.44383 0
M  V30 7719 H 698.721 -4.98353 -3.54195 0
M  V30 7720 H 702.895 -5.96989 -3.58577 0
M  V30 7721 H 700.522 -6.67905 -3.63052 0
M  V30 7722 N 702.098 1.27442 -0.927168 0
M  V30 7723 C 703.326 1.98498 -0.583622 0
M  V30 7724 C 703.741 1.69171 0.838241 0
M  V30 7725 O 703.098 0.951969 1.55704 0
M  V30 7726 C 703.149 3.52552 -0.799341 0
M  V30 7727 O 702.87 3.80851 -2.16527 0
M  V30 7728 C 704.371 4.4086 -0.464436 0
M  V30 7729 H 701.591 0.633487 -0.221213 0
M  V30 7730 H 704.135 1.62308 -1.24404 0
M  V30 7731 H 702.29 3.86955 -0.185728 0
M  V30 7732 H 702.704 4.75441 -2.21487 0
M  V30 7733 H 704.178 5.47967 -0.666075 0
M  V30 7734 H 704.655 4.35082 0.599995 0
M  V30 7735 H 705.261 4.11977 -1.05617 0
M  V30 7736 N 703.576 0.692616 1.41565 0
M  V30 7737 C 704.804 0.231279 2.05603 0
M  V30 7738 C 705.219 -1.11837 1.52111 0
M  V30 7739 O 704.576 -1.6983 0.66813 0
M  V30 7740 C 704.627 0.177125 3.61066 0
M  V30 7741 O 704.348 1.47346 4.12578 0
M  V30 7742 C 705.849 -0.30556 4.42246 0
M  V30 7743 H 703.069 0.108238 0.662213 0
M  V30 7744 H 705.613 0.944369 1.81389 0
M  V30 7745 H 703.768 -0.486769 3.8433 0
M  V30 7746 H 704.182 1.35861 5.06599 0
M  V30 7747 H 705.656 -0.29233 5.51225 0
M  V30 7748 H 706.133 -1.34393 4.18133 0
M  V30 7749 H 706.739 0.327229 4.24039 0
M  V30 7750 N 705.054 -1.51416 0.437162 0
M  V30 7751 C 705.964 -2.31493 -0.380537 0
M  V30 7752 C 706.98 -1.40399 -1.02782 0
M  V30 7753 O 708.156 -1.73471 -1.02323 0
M  V30 7754 C 705.221 -3.1413 -1.46709 0
M  V30 7755 C 704.282 -4.21003 -0.839953 0
M  V30 7756 C 703.515 -4.9969 -1.87473 0
M  V30 7757 O 703.738 -4.79008 -3.09689 0
M  V30 7758 O 702.672 -5.8379 -1.46536 0
M  V30 7759 H 706.498 -3.02469 0.273183 0
M  V30 7760 H 704.083 -1.48059 0.199706 0
M  V30 7761 H 705.965 -3.65505 -2.09724 0
M  V30 7762 H 704.64 -2.45919 -2.10489 0
M  V30 7763 H 703.547 -3.73706 -0.171752 0
M  V30 7764 H 704.88 -4.91587 -0.245638 0
M  V30 7765 N 706.532 -0.168513 -1.56696 0
M  V30 7766 C 707.465 0.801477 -2.13662 0
M  V30 7767 C 708.443 1.22786 -1.06594 0
M  V30 7768 O 709.627 1.32014 -1.34554 0
M  V30 7769 C 706.754 2.07896 -2.6739 0
M  V30 7770 C 705.8 1.79681 -3.86803 0
M  V30 7771 S 706.633 0.968556 -5.26668 0
M  V30 7772 C 707.789 2.25676 -5.83799 0
M  V30 7773 H 708.022 0.317121 -2.95604 0
M  V30 7774 H 705.555 0.0461132 -1.54331 0
M  V30 7775 H 707.513 2.81272 -2.98992 0
M  V30 7776 H 706.174 2.53445 -1.85539 0
M  V30 7777 H 705.367 2.74461 -4.22714 0
M  V30 7778 H 704.969 1.14402 -3.56073 0
M  V30 7779 H 707.261 3.2116 -5.96542 0
M  V30 7780 H 708.204 1.94238 -6.80939 0
M  V30 7781 H 708.612 2.37308 -5.12197 0
M  V30 7782 N 708.01 1.57248 0.105221 0
M  V30 7783 C 708.94 2.04374 1.12931 0
M  V30 7784 C 709.921 0.93074 1.42377 0
M  V30 7785 O 711.106 1.20136 1.52581 0
M  V30 7786 C 708.236 2.45967 2.45189 0
M  V30 7787 C 707.19 3.60838 2.30174 0
M  V30 7788 C 706.516 3.88374 3.67518 0
M  V30 7789 C 707.816 4.92084 1.75073 0
M  V30 7790 H 709.51 2.9018 0.737287 0
M  V30 7791 H 707.056 1.39601 0.353211 0
M  V30 7792 H 709.009 2.77542 3.17094 0
M  V30 7793 H 707.733 1.57148 2.86308 0
M  V30 7794 H 706.392 3.29493 1.60716 0
M  V30 7795 H 706.04 2.96739 4.06147 0
M  V30 7796 H 705.74 4.65703 3.58321 0
M  V30 7797 H 707.264 4.22415 4.40906 0
M  V30 7798 H 708.678 5.22106 2.36809 0
M  V30 7799 H 707.075 5.73507 1.76662 0
M  V30 7800 H 708.145 4.79684 0.709347 0
M  V30 7801 N 709.488 -0.375779 1.53054 0
M  V30 7802 C 710.421 -1.48187 1.7354 0
M  V30 7803 C 711.399 -1.5177 0.583495 0
M  V30 7804 O 712.583 -1.69976 0.81488 0
M  V30 7805 C 709.71 -2.86598 1.80497 0
M  V30 7806 C 708.756 -3.00784 3.02376 0
M  V30 7807 S 709.589 -2.70601 4.62099 0
M  V30 7808 C 710.745 -4.11181 4.71891 0
M  V30 7809 H 710.978 -1.30587 2.67085 0
M  V30 7810 H 708.511 -0.569485 1.43514 0
M  V30 7811 H 710.469 -3.66353 1.85192 0
M  V30 7812 H 709.13 -3.01514 0.880217 0
M  V30 7813 H 708.323 -4.02128 3.03824 0
M  V30 7814 H 707.925 -2.28939 2.95742 0
M  V30 7815 H 710.217 -5.0529 4.51319 0
M  V30 7816 H 711.16 -4.14742 5.73929 0
M  V30 7817 H 711.568 -3.97706 4.00612 0
M  V30 7818 N 710.966 -1.44241 -0.634997 0
M  V30 7819 C 711.913 -1.5081 -1.74714 0
M  V30 7820 C 712.883 -0.356147 -1.62237 0
M  V30 7821 O 714.068 -0.565848 -1.82216 0
M  V30 7822 C 711.208 -1.45458 -3.12947 0
M  V30 7823 C 710.321 -2.70998 -3.36428 0
M  V30 7824 C 709.456 -2.57507 -4.64611 0
M  V30 7825 C 708.495 -3.78229 -4.81258 0
M  V30 7826 N 707.632 -3.63438 -6.00714 0
M  V30 7827 H 712.472 -2.45832 -1.68436 0
M  V30 7828 H 710.009 -1.2201 -0.821706 0
M  V30 7829 H 711.967 -1.40347 -3.92885 0
M  V30 7830 H 710.597 -0.540058 -3.1825 0
M  V30 7831 H 709.649 -2.86312 -2.50458 0
M  V30 7832 H 710.961 -3.60619 -3.44609 0
M  V30 7833 H 710.115 -2.50207 -5.52703 0
M  V30 7834 H 708.854 -1.65441 -4.58782 0
M  V30 7835 H 707.859 -3.85918 -3.91596 0
M  V30 7836 H 709.084 -4.71327 -4.88904 0
M  V30 7837 H 707.03 -2.7412 -5.95982 0
M  V30 7838 H 706.947 -4.46672 -6.09934 0
M  V30 7839 H 708.215 -3.60022 -6.91378 0
M  V30 7840 N 712.444 0.87505 -1.31075 0
M  V30 7841 C 713.377 1.98471 -1.12625 0
M  V30 7842 C 714.355 1.6257 -0.0311379 0
M  V30 7843 O 715.539 1.87574 -0.186594 0
M  V30 7844 C 712.666 3.30963 -0.719799 0
M  V30 7845 C 711.712 3.85849 -1.81722 0
M  V30 7846 S 712.545 4.11926 -3.42165 0
M  V30 7847 C 713.701 5.47423 -3.03445 0
M  V30 7848 H 713.934 2.13817 -2.06566 0
M  V30 7849 H 711.467 1.02463 -1.15502 0
M  V30 7850 H 713.425 4.07541 -0.492035 0
M  V30 7851 H 712.086 3.1346 0.200413 0
M  V30 7852 H 711.279 4.81616 -1.48533 0
M  V30 7853 H 710.881 3.16046 -1.99977 0
M  V30 7854 H 713.173 6.28881 -2.52023 0
M  V30 7855 H 714.116 5.85557 -3.98157 0
M  V30 7856 H 714.524 5.10455 -2.41031 0
M  V30 7857 N 713.922 1.13953 1.08869 0
M  V30 7858 C 715.152 0.926825 1.84644 0
M  V30 7859 C 715.56 -0.527941 1.81685 0
M  V30 7860 O 714.903 -1.37742 1.21543 0
M  V30 7861 C 714.965 1.34416 3.33426 0
M  V30 7862 C 714.629 2.81351 3.60126 0
M  V30 7863 C 715.626 3.79486 3.55368 0
M  V30 7864 C 713.311 3.1865 3.88288 0
M  V30 7865 C 715.305 5.1293 3.78393 0
M  V30 7866 C 712.992 4.5227 4.10968 0
M  V30 7867 C 713.99 5.4922 4.06013 0
M  V30 7868 O 713.678 6.80429 4.28102 0
M  V30 7869 H 713.41 0.33013 0.589907 0
M  V30 7870 H 715.964 1.51738 1.38436 0
M  V30 7871 H 714.194 0.696901 3.80368 0
M  V30 7872 H 715.883 1.10302 3.90626 0
M  V30 7873 H 716.649 3.52017 3.3363 0
M  V30 7874 H 712.528 2.43785 3.91267 0
M  V30 7875 H 716.072 5.88591 3.74442 0
M  V30 7876 H 711.969 4.79462 4.32188 0
M  V30 7877 H 712.737 6.86617 4.45533 0
M  V30 7878 N 715.4 -1.26948 0.933913 0
M  V30 7879 C 716.648 -1.93704 0.576484 0
M  V30 7880 C 716.969 -1.73702 -0.886145 0
M  V30 7881 O 716.239 -1.08838 -1.62884 0
M  V30 7882 H 714.819 -0.716812 0.210214 0
M  V30 7883 H 717.481 -1.54534 1.18766 0
M  V30 7884 H 716.577 -3.01987 0.788055 0
M  V30 7885 N 716.879 -0.700114 -1.41195 0
M  V30 7886 C 717.809 -0.0521132 -2.33442 0
M  V30 7887 C 718.79 0.76228 -1.52063 0
M  V30 7888 O 719.975 0.714336 -1.80585 0
M  V30 7889 C 717.105 0.881693 -3.35922 0
M  V30 7890 C 716.059 0.174062 -4.27646 0
M  V30 7891 C 715.385 1.22254 -5.20536 0
M  V30 7892 C 716.685 -0.962396 -5.13357 0
M  V30 7893 H 718.379 -0.822574 -2.87879 0
M  V30 7894 H 715.925 -0.397011 -1.38419 0
M  V30 7895 H 717.878 1.34429 -3.99383 0
M  V30 7896 H 716.602 1.68387 -2.79845 0
M  V30 7897 H 715.261 -0.268551 -3.65615 0
M  V30 7898 H 714.909 2.01736 -4.60773 0
M  V30 7899 H 714.609 0.754038 -5.82742 0
M  V30 7900 H 716.133 1.68555 -5.86874 0
M  V30 7901 H 717.547 -0.579875 -5.7036 0
M  V30 7902 H 715.944 -1.35828 -5.84526 0
M  V30 7903 H 717.014 -1.80003 -4.50252 0
M  V30 7904 N 718.357 1.51182 -0.445186 0
M  V30 7905 C 719.605 2.01753 0.11841 0
M  V30 7906 C 719.926 1.33087 1.42523 0
M  V30 7907 O 719.196 0.467891 1.9023 0
M  V30 7908 H 717.776 0.745536 0.0467492 0
M  V30 7909 H 720.438 1.85765 -0.589688 0
M  V30 7910 H 719.534 3.10762 0.288665 0
M  V30 7911 N 719.835 0.176821 1.56605 0
M  V30 7912 C 720.765 -0.746841 2.21234 0
M  V30 7913 C 721.746 -1.23502 1.16967 0
M  V30 7914 O 722.931 -1.28718 1.45414 0
M  V30 7915 C 720.061 -1.97407 2.8574 0
M  V30 7916 C 719.015 -1.62153 3.96094 0
M  V30 7917 C 718.341 -2.92387 4.47676 0
M  V30 7918 C 719.641 -0.845353 5.15413 0
M  V30 7919 H 721.335 -0.208116 2.98676 0
M  V30 7920 H 718.881 -0.0986594 1.43662 0
M  V30 7921 H 720.834 -2.62531 3.2963 0
M  V30 7922 H 719.558 -2.53703 2.05676 0
M  V30 7923 H 718.217 -0.993964 3.52868 0
M  V30 7924 H 717.865 -3.46734 3.64396 0
M  V30 7925 H 717.565 -2.69551 5.22127 0
M  V30 7926 H 719.089 -3.5853 4.94255 0
M  V30 7927 H 720.503 -1.39929 5.55961 0
M  V30 7928 H 718.9 -0.715814 5.95815 0
M  V30 7929 H 719.97 0.157239 4.84645 0
M  V30 7930 N 721.313 -1.57302 -0.09688 0
M  V30 7931 C 722.729 -1.53094 -0.451041 0
M  V30 7932 C 722.929 -0.893265 -1.80618 0
M  V30 7933 O 721.985 -0.485013 -2.47798 0
M  V30 7934 C 723.298 -2.9782 -0.415172 0
M  V30 7935 C 724.846 -3.09026 -0.497155 0
M  V30 7936 C 725.321 -4.55356 -0.491452 0
M  V30 7937 N 726.812 -4.59896 -0.552258 0
M  V30 7938 C 727.547 -5.70563 -0.569654 0
M  V30 7939 N 727.043 -6.90666 -0.543365 0
M  V30 7940 N 728.836 -5.58733 -0.614331 0
M  V30 7941 H 720.987 -1.97131 0.790771 0
M  V30 7942 H 723.25 -0.901211 0.294147 0
M  V30 7943 H 722.956 -3.47933 0.513362 0
M  V30 7944 H 722.83 -3.56416 -1.23481 0
M  V30 7945 H 725.217 -2.58902 -1.41611 0
M  V30 7946 H 725.298 -2.53386 0.35059 0
M  V30 7947 H 724.942 -5.06131 0.423549 0
M  V30 7948 H 724.872 -5.08832 -1.35639 0
M  V30 7949 H 727.363 -3.73456 -0.577842 0
M  V30 7950 H 727.676 -7.70769 -0.559873 0
M  V30 7951 H 726.021 -6.93123 -0.510441 0
M  V30 7952 H 729.212 -4.63809 -0.632387 0
M  V30 7953 H 729.385 -6.44984 -0.62442 0
M  V30 7954 N 722.791 0.367657 -1.53252 0
M  V30 7955 C 723.723 1.47032 -1.75824 0
M  V30 7956 C 724.736 1.49736 -0.63898 0
M  V30 7957 O 725.925 1.53253 -0.915193 0
M  V30 7958 C 723.025 2.85805 -1.82122 0
M  V30 7959 C 722.198 3.06822 -3.11736 0
M  V30 7960 C 721.257 4.25698 -3.09302 0
M  V30 7961 O 720.283 4.20972 -3.83107 0
M  V30 7962 N 721.485 5.33002 -2.29977 0
M  V30 7963 H 724.25 1.28048 -2.70968 0
M  V30 7964 H 721.811 0.557363 -1.52004 0
M  V30 7965 H 723.803 3.63465 -1.77975 0
M  V30 7966 H 722.373 2.98046 -0.942716 0
M  V30 7967 H 721.593 2.1684 -3.29202 0
M  V30 7968 H 722.881 3.17731 -3.97397 0
M  V30 7969 H 722.279 5.39703 -1.69521 0
M  V30 7970 H 720.836 6.09247 -2.3165 0
M  V30 7971 N 724.269 1.44576 0.627338 0
M  V30 7972 C 725.499 1.50829 1.41189 0
M  V30 7973 C 725.907 0.133083 1.88731 0
M  V30 7974 O 725.25 -0.87199 1.61685 0
M  V30 7975 C 725.312 2.41449 2.66351 0
M  V30 7976 C 724.976 3.88549 2.40579 0
M  V30 7977 C 725.973 4.78981 2.0217 0
M  V30 7978 C 723.658 4.33287 2.54102 0
M  V30 7979 C 725.652 6.12153 1.77618 0
M  V30 7980 C 723.339 5.66505 2.29163 0
M  V30 7981 C 724.337 6.55756 1.9098 0
M  V30 7982 O 724.025 7.86506 1.66321 0
M  V30 7983 H 723.757 0.513797 0.439304 0
M  V30 7984 H 726.311 1.90256 0.774059 0
M  V30 7985 H 724.541 1.96955 3.32784 0
M  V30 7986 H 726.23 2.38608 3.28361 0
M  V30 7987 H 726.996 4.45689 1.91277 0
M  V30 7988 H 722.875 3.64074 2.82792 0
M  V30 7989 H 726.419 6.81776 1.47739 0
M  V30 7990 H 722.316 5.99358 2.39668 0
M  V30 7991 H 723.084 7.98341 1.80536 0
M  V30 7992 N 725.747 -0.868086 1.31537 0
M  V30 7993 C 726.994 -1.62127 1.2133 0
M  V30 7994 C 727.322 -1.93158 -0.2281 0
M  V30 7995 O 726.577 -1.5632 -1.1774 0
M  V30 7996 C 726.876 -2.95889 2.0046 0
M  V30 7997 C 726.542 -2.84343 3.49943 0
M  V30 7998 C 725.204 -2.80901 3.90702 0
M  V30 7999 C 727.556 -2.71243 4.45058 0
M  V30 8000 C 724.884 -2.6222 5.24841 0
M  V30 8001 C 727.236 -2.54098 5.79325 0
M  V30 8002 C 725.9 -2.4904 6.19302 0
M  V30 8003 H 725.17 -0.593265 0.443979 0
M  V30 8004 H 727.817 -1.00803 1.62822 0
M  V30 8005 H 726.122 -3.61259 1.51655 0
M  V30 8006 H 727.819 -3.53161 1.89942 0
M  V30 8007 H 724.409 -2.8784 3.17563 0
M  V30 8008 H 728.593 -2.72956 4.14498 0
M  V30 8009 H 723.849 -2.56731 5.54887 0
M  V30 8010 H 728.023 -2.42938 6.52652 0
M  V30 8011 H 725.65 -2.34324 7.23185 0
M  V30 8012 N 727.225 -1.14528 -1.08264 0
M  V30 8013 C 728.158 -0.777154 -2.14559 0
M  V30 8014 C 729.136 0.242165 -1.60787 0
M  V30 8015 O 730.32 0.130882 -1.88045 0
M  V30 8016 C 727.447 -0.154092 -3.38349 0
M  V30 8017 C 726.493 -1.14382 -4.10876 0
M  V30 8018 S 727.326 -2.68173 -4.63512 0
M  V30 8019 C 728.482 -2.0726 -5.90588 0
M  V30 8020 H 728.715 -1.67748 -2.45454 0
M  V30 8021 H 726.248 -0.966661 -1.20395 0
M  V30 8022 H 728.206 0.19897 -4.10018 0
M  V30 8023 H 726.867 0.723688 -3.05649 0
M  V30 8024 H 726.06 -0.655908 -4.99714 0
M  V30 8025 H 725.662 -1.44095 -3.45127 0
M  V30 8026 H 727.954 -1.42895 -6.62259 0
M  V30 8027 H 728.897 -2.94227 -6.44078 0
M  V30 8028 H 729.305 -1.51935 -5.43669 0
M  V30 8029 N 728.703 1.26451 -0.940633 0
M  V30 8030 C 729.928 1.98407 -0.60412 0
M  V30 8031 C 730.353 1.69584 0.81382 0
M  V30 8032 O 729.711 0.943553 1.54812 0
M  V30 8033 C 729.759 3.50387 -0.852136 0
M  V30 8034 O 728.863 4.1233 0.076013 0
M  V30 8035 H 728.204 0.622466 -0.231153 0
M  V30 8036 H 730.734 1.60932 -1.26342 0
M  V30 8037 H 730.744 4.00614 -0.772816 0
M  V30 8038 H 729.419 3.70696 -1.88566 0
M  V30 8039 H 727.996 3.7286 -0.0543187 0
M  V30 8040 N 730.181 0.707592 1.40822 0
M  V30 8041 C 731.43 0.240705 2.00259 0
M  V30 8042 C 731.743 -1.17027 1.56729 0
M  V30 8043 O 732.949 -1.73526 2.08809 0
M  V30 8044 C 731.405 0.379432 3.57894 0
M  V30 8045 C 731.013 1.79654 4.104 0
M  V30 8046 C 732.757 -0.0270684 4.24491 0
M  V30 8047 C 730.664 1.88628 5.60512 0
M  V30 8048 H 729.594 0.0862369 0.749052 0
M  V30 8049 H 732.245 0.877528 1.61157 0
M  V30 8050 H 730.627 -0.325842 3.94657 0
M  V30 8051 H 731.801 2.53155 3.85032 0
M  V30 8052 H 730.116 2.15379 3.56372 0
M  V30 8053 H 732.713 0.0193743 5.34696 0
M  V30 8054 H 733.056 -1.06772 4.02375 0
M  V30 8055 H 733.589 0.628361 3.92806 0
M  V30 8056 H 730.328 2.90787 5.87472 0
M  V30 8057 H 729.848 1.19528 5.8777 0
M  V30 8058 H 731.527 1.6547 6.25483 0
M  V30 8059 N 731.66 -1.50943 0.453197 0
M  V30 8060 C 732.907 -2.02212 -0.107922 0
M  V30 8061 C 733.235 -1.33639 -1.41318 0
M  V30 8062 O 732.49 -0.445154 -1.9057 0
M  V30 8063 C 732.789 -3.55603 -0.357944 0
M  V30 8064 C 732.455 -4.42556 0.863427 0
M  V30 8065 C 731.117 -4.6604 1.19834 0
M  V30 8066 C 733.469 -4.93468 1.67747 0
M  V30 8067 C 730.797 -5.37681 2.34768 0
M  V30 8068 C 733.149 -5.6637 2.81793 0
M  V30 8069 C 731.813 -5.88113 3.1572 0
M  V30 8070 H 731.083 -0.739947 -0.0394916 0
M  V30 8071 H 733.73 -1.81738 0.60363 0
M  V30 8072 H 732.035 -3.74495 -1.15156 0
M  V30 8073 H 733.732 -3.92821 -0.805781 0
M  V30 8074 H 730.322 -4.24485 0.592478 0
M  V30 8075 H 734.506 -4.75194 1.43192 0
M  V30 8076 H 729.762 -5.52727 2.61348 0
M  V30 8077 H 733.936 -6.04806 3.45229 0
M  V30 8078 H 731.563 -6.43404 4.04889 0
M  V30 8079 N 733.138 -0.185124 -1.56509 0
M  V30 8080 C 734.086 0.756505 -2.19954 0
M  V30 8081 C 735.08 1.22725 -1.16769 0
M  V30 8082 O 736.286 1.1913 -1.34937 0
M  V30 8083 H 732.661 0.262279 -0.704779 0
M  V30 8084 H 734.632 0.197587 -2.97745 0
M  V30 8085 C 733.381 1.96975 -2.86524 0
M  V30 8086 H 732.704 1.61658 -3.65659 0
M  V30 8087 H 734.144 2.60719 -3.34367 0
M  V30 8088 C 732.603 2.80219 -1.87027 0
M  V30 8089 O 733.133 3.77821 -1.36433 0
M  V30 8090 N 731.339 2.4551 -1.55477 0
M  V30 8091 H 730.886 1.66199 -1.96813 0
M  V30 8092 H 730.844 3.01493 -0.891597 0
M  V30 8093 N 734.616 1.57351 0.0885366 0
M  V30 8094 C 736.032 1.53331 0.442916 0
M  V30 8095 C 736.232 0.902831 1.80142 0
M  V30 8096 O 735.288 0.498147 2.47537 0
M  V30 8097 C 736.601 2.98036 0.399372 0
M  V30 8098 C 738.149 3.09286 0.480759 0
M  V30 8099 C 738.624 4.5561 0.467296 0
M  V30 8100 N 740.115 4.60182 0.52786 0
M  V30 8101 C 740.85 5.70857 0.539388 0
M  V30 8102 N 740.346 6.90944 0.506729 0
M  V30 8103 N 742.139 5.59051 0.584691 0
M  V30 8104 H 734.29 1.96709 -0.801215 0
M  V30 8105 H 736.553 0.899639 -0.298922 0
M  V30 8106 H 736.259 3.47656 -0.531806 0
M  V30 8107 H 736.133 3.57066 1.21589 0
M  V30 8108 H 738.52 2.5965 1.40236 0
M  V30 8109 H 738.601 2.53197 -0.364023 0
M  V30 8110 H 738.245 5.05899 -0.450384 0
M  V30 8111 H 738.175 5.09544 1.32938 0
M  V30 8112 H 740.666 3.73757 0.558028 0
M  V30 8113 H 740.979 7.71055 0.518989 0
M  V30 8114 H 739.324 6.93384 0.473675 0
M  V30 8115 H 742.515 4.64138 0.607781 0
M  V30 8116 H 742.688 6.45307 0.590206 0
M  V30 8117 N 736.094 -0.359525 1.53444 0
M  V30 8118 C 737.341 -1.10152 1.6992 0
M  V30 8119 C 737.669 -1.89125 0.4541 0
M  V30 8120 O 736.924 -1.87396 -0.564023 0
M  V30 8121 C 737.223 -2.08287 2.90433 0
M  V30 8122 C 736.889 -1.45749 4.26694 0
M  V30 8123 C 735.551 -1.28421 4.63747 0
M  V30 8124 C 737.903 -1.00557 5.11408 0
M  V30 8125 C 735.231 -0.644951 5.83144 0
M  V30 8126 C 737.583 -0.380288 6.31456 0
M  V30 8127 C 736.247 -0.194557 6.67216 0
M  V30 8128 H 735.517 -0.403076 0.621781 0
M  V30 8129 H 738.164 -0.382612 1.87639 0
M  V30 8130 H 736.469 -2.86503 2.67251 0
M  V30 8131 H 738.166 -2.65662 3.00374 0
M  V30 8132 H 734.756 -1.6023 3.97523 0
M  V30 8133 H 738.94 -1.12735 4.83326 0
M  V30 8134 H 734.196 -0.48952 6.09437 0
M  V30 8135 H 738.37 -0.0219455 6.96397 0
M  V30 8136 H 735.997 0.30285 7.59597 0
M  V30 8137 N 737.572 -1.44907 -0.619662 0
M  V30 8138 C 738.849 -1.38766 -1.37852 0
M  V30 8139 C 739.229 -0.0521393 -2.11036 0
M  V30 8140 O 738.577 0.965613 -2.07095 0
M  V30 8141 C 738.787 -2.59344 -2.33541 0
M  V30 8142 C 740.135 -3.03909 -2.96521 0
M  V30 8143 O 741.159 -2.59631 -2.43865 0
M  V30 8144 O 740.018 -3.80713 -3.92071 0
M  V30 8145 H 737.112 -0.550083 -0.617525 0
M  V30 8146 H 739.658 -1.57015 -0.643759 0
M  V30 8147 H 738.43 -3.48142 -1.78642 0
M  V30 8148 H 738.053 -2.43367 -3.14417 0
M  V30 8149 N 739.05 0.861098 -1.31996 0
M  V30 8150 C 740.29 1.62873 -1.23498 0
M  V30 8151 C 740.654 1.90938 0.201692 0
M  V30 8152 O 741.855 2.6565 0.410305 0
M  V30 8153 C 740.126 2.91759 -2.06426 0
M  V30 8154 S 741.685 3.82583 -2.14885 0
M  V30 8155 H 738.503 0.558726 -0.439712 0
M  V30 8156 H 741.105 1.02025 -1.66767 0
M  V30 8157 H 739.809 2.69077 -3.0988 0
M  V30 8158 H 739.34 3.57627 -1.6391 0
M  V30 8159 H 741.355 4.7904 -1.29364 0
M  V30 8160 N 740.528 1.15101 1.07655 0
M  V30 8161 C 741.775 0.923974 1.80191 0
M  V30 8162 C 742.103 -0.549065 1.86589 0
M  V30 8163 O 741.358 -1.42307 1.3434 0
M  V30 8164 C 741.657 1.47954 3.25337 0
M  V30 8165 C 741.323 2.97253 3.39044 0
M  V30 8166 C 739.985 3.38012 3.42493 0
M  V30 8167 C 742.337 3.93219 3.42094 0
M  V30 8168 C 739.665 4.73384 3.4659 0
M  V30 8169 C 742.017 5.28458 3.47728 0
M  V30 8170 C 740.681 5.68717 3.49453 0
M  V30 8171 H 739.951 0.338106 0.659367 0
M  V30 8172 H 742.598 1.43594 1.26701 0
M  V30 8173 H 740.903 0.888691 3.81588 0
M  V30 8174 H 742.6 1.27972 3.80032 0
M  V30 8175 H 739.19 2.64746 3.37057 0
M  V30 8176 H 743.374 3.62805 3.38654 0
M  V30 8177 H 738.63 5.03925 3.46222 0
M  V30 8178 H 742.804 6.02618 3.49034 0
M  V30 8179 H 740.431 6.73596 3.5238 0
M  V30 8180 N 742.006 -1.2595 0.947325 0
M  V30 8181 C 743.252 -1.9375 0.599064 0
M  V30 8182 C 743.585 -1.74088 -0.860632 0
M  V30 8183 O 742.86 -1.08158 -1.61654 0
M  V30 8184 C 743.143 -3.47353 0.949634 0
M  V30 8185 C 742.996 -3.76273 2.46452 0
M  V30 8186 C 744.315 -4.37589 0.469442 0
M  V30 8187 H 741.434 -0.703674 0.219115 0
M  V30 8188 H 744.076 -1.48705 1.18266 0
M  V30 8189 H 742.226 -3.8585 0.453008 0
M  V30 8190 H 743.898 -3.47455 3.03435 0
M  V30 8191 H 742.141 -3.22135 2.90537 0
M  V30 8192 H 742.812 -4.83664 2.66032 0
M  V30 8193 H 745.288 -4.06353 0.89534 0
M  V30 8194 H 744.164 -5.43841 0.7435 0
M  V30 8195 H 744.425 -4.37579 -0.630618 0
M  V30 8196 N 743.484 -0.715051 -1.40445 0
M  V30 8197 C 744.73 -0.254705 -2.01194 0
M  V30 8198 C 745.063 1.14894 -1.56567 0
M  V30 8199 O 744.338 1.77933 -0.785491 0
M  V30 8200 C 744.621 -0.334148 -3.58546 0
M  V30 8201 C 744.474 -1.77613 -4.13248 0
M  V30 8202 C 745.793 0.294968 -4.3911 0
M  V30 8203 H 742.912 -0.094025 -0.730978 0
M  V30 8204 H 745.554 -0.907449 -1.66929 0
M  V30 8205 H 743.704 0.221609 -3.87867 0
M  V30 8206 H 745.376 -2.38723 -3.94727 0
M  V30 8207 H 743.619 -2.30402 -3.67556 0
M  V30 8208 H 744.29 -1.78311 -5.22407 0
M  V30 8209 H 746.766 -0.178563 -4.15717 0
M  V30 8210 H 745.642 0.208934 -5.48502 0
M  V30 8211 H 745.903 1.37841 -4.20062 0
M  V30 8212 N 744.962 1.50701 -0.461195 0
M  V30 8213 C 746.202 2.04174 0.0960673 0
M  V30 8214 C 746.566 1.33628 1.37868 0
M  V30 8215 O 747.767 1.77602 2.0177 0
M  V30 8216 C 746.038 3.56256 0.285676 0
M  V30 8217 S 747.597 4.31392 0.802917 0
M  V30 8218 H 744.415 0.710701 0.0206282 0
M  V30 8219 H 747.017 1.85204 -0.62607 0
M  V30 8220 H 745.721 4.05159 -0.653773 0
M  V30 8221 H 745.252 3.79562 1.03421 0
M  V30 8222 H 747.267 4.50611 2.07761 0
M  V30 8223 N 746.441 0.193421 1.56409 0
M  V30 8224 C 747.666 -0.454552 2.02358 0
M  V30 8225 C 748.091 -1.54516 1.07268 0
M  V30 8226 O 747.449 -1.81214 0.0558962 0
M  V30 8227 C 747.497 -0.989469 3.46759 0
M  V30 8228 O 746.601 -2.10244 3.54783 0
M  V30 8229 H 745.942 -0.106417 0.655417 0
M  V30 8230 H 748.472 0.303807 2.02332 0
M  V30 8231 H 748.482 -1.30649 3.86516 0
M  V30 8232 H 747.157 -0.191083 4.15461 0
M  V30 8233 H 745.734 -1.79419 3.26899 0
M  V30 8234 N 747.919 -1.57396 -0.0801906 0
M  V30 8235 C 749.167 -1.86467 -0.779384 0
M  V30 8236 C 749.488 -0.784243 -1.78535 0
M  V30 8237 O 748.758 0.187986 -1.94996 0
M  V30 8238 H 747.338 -0.68806 -0.29083 0
M  V30 8239 H 750 -1.94813 -0.0582749 0
M  V30 8240 H 749.096 -2.83701 -1.30078 0
M  V30 8241 N 749.397 0.351382 -1.53633 0
M  V30 8242 C 750.646 1.08988 -1.69719 0
M  V30 8243 C 750.959 1.90043 -0.462948 0
M  V30 8244 O 752.165 2.66769 -0.504613 0
M  V30 8245 C 750.621 1.98691 -3.00083 0
M  V30 8246 C 750.229 1.22881 -4.30818 0
M  V30 8247 C 751.973 2.72446 -3.25536 0
M  V30 8248 C 749.88 2.11568 -5.52262 0
M  V30 8249 H 748.81 0.410588 -0.632403 0
M  V30 8250 H 751.461 0.349886 -1.80133 0
M  V30 8251 H 749.843 2.76478 -2.83506 0
M  V30 8252 H 751.017 0.500582 -4.58073 0
M  V30 8253 H 749.332 0.60928 -4.11918 0
M  V30 8254 H 751.929 3.39055 -4.13456 0
M  V30 8255 H 752.272 3.38588 -2.42206 0
M  V30 8256 H 752.805 2.01735 -3.42852 0
M  V30 8257 H 749.544 1.4998 -6.38111 0
M  V30 8258 H 749.064 2.82201 -5.29266 0
M  V30 8259 H 750.743 2.70802 -5.87601 0
M  V30 8260 N 750.875 1.45233 0.611969 0
M  V30 8261 C 751.805 1.5641 1.73373 0
M  V30 8262 C 752.786 0.415896 1.64937 0
M  V30 8263 O 753.971 0.638478 1.83404 0
M  V30 8264 C 751.101 1.52627 3.11965 0
M  V30 8265 C 750.055 2.66119 3.35208 0
M  V30 8266 C 749.381 2.4739 4.74028 0
M  V30 8267 C 750.681 4.08157 3.25891 0
M  V30 8268 H 752.375 2.50307 1.64277 0
M  V30 8269 H 749.921 1.20467 0.788904 0
M  V30 8270 H 751.874 1.59043 3.90235 0
M  V30 8271 H 750.598 0.552564 3.21892 0
M  V30 8272 H 749.257 2.59123 2.59327 0
M  V30 8273 H 748.905 1.48168 4.80682 0
M  V30 8274 H 748.605 3.23494 4.90536 0
M  V30 8275 H 750.129 2.55653 5.54503 0
M  V30 8276 H 751.543 4.1642 3.9404 0
M  V30 8277 H 749.94 4.84617 3.5393 0
M  V30 8278 H 751.01 4.30374 2.23397 0
M  V30 8279 N 752.353 -0.854086 1.3245 0
M  V30 8280 C 753.263 -1.99503 1.23434 0
M  V30 8281 C 754.279 -1.73371 0.147828 0
M  V30 8282 O 755.455 -1.97998 0.368609 0
M  V30 8283 C 752.52 -3.33192 0.958328 0
M  V30 8284 C 751.581 -3.72542 2.13333 0
M  V30 8285 C 750.814 -4.99852 1.8704 0
M  V30 8286 O 751.037 -5.64573 0.813239 0
M  V30 8287 O 749.971 -5.36345 2.73161 0
M  V30 8288 H 753.797 -2.10046 2.1935 0
M  V30 8289 H 751.382 -0.984823 1.12346 0
M  V30 8290 H 753.264 -4.13327 0.820918 0
M  V30 8291 H 751.939 -3.23687 0.0293299 0
M  V30 8292 H 750.846 -2.92981 2.32622 0
M  V30 8293 H 752.179 -3.86694 3.04514 0
M  V30 8294 N 753.831 -1.1567 -1.07043 0
M  V30 8295 C 755.08 -0.928039 -1.79082 0
M  V30 8296 C 755.393 0.545968 -1.87826 0
M  V30 8297 O 756.599 0.892308 -2.56418 0
M  V30 8298 C 755.055 -1.61103 -3.21829 0
M  V30 8299 C 754.663 -3.12228 -3.21275 0
M  V30 8300 C 756.407 -1.46404 -3.98455 0
M  V30 8301 C 754.314 -3.733 -4.58695 0
M  V30 8302 H 753.244 -0.34357 -0.671175 0
M  V30 8303 H 755.895 -1.38718 -1.20123 0
M  V30 8304 H 754.277 -1.07958 -3.81 0
M  V30 8305 H 755.451 -3.72155 -2.71731 0
M  V30 8306 H 753.766 -3.26725 -2.58147 0
M  V30 8307 H 756.363 -1.8942 -5.00024 0
M  V30 8308 H 756.706 -0.41195 -4.14257 0
M  V30 8309 H 757.239 -1.96663 -3.45787 0
M  V30 8310 H 753.978 -4.78423 -4.48098 0
M  V30 8311 H 753.498 -3.18157 -5.08465 0
M  V30 8312 H 755.177 -3.7441 -5.27661 0
M  V30 8313 N 755.309 1.25446 -0.953992 0
M  V30 8314 C 756.239 2.28264 -0.491717 0
M  V30 8315 C 757.22 1.63717 0.461617 0
M  V30 8316 O 758.405 1.90821 0.36071 0
M  V30 8317 C 755.535 3.46525 0.231915 0
M  V30 8318 C 754.489 4.23247 -0.636098 0
M  V30 8319 C 753.815 5.34254 0.218238 0
M  V30 8320 C 755.115 4.85971 -1.91389 0
M  V30 8321 H 756.809 2.67183 -1.35106 0
M  V30 8322 H 754.355 1.2844 -0.651095 0
M  V30 8323 H 756.308 4.17576 0.566439 0
M  V30 8324 H 755.032 3.06594 1.12551 0
M  V30 8325 H 753.691 3.53978 -0.953696 0
M  V30 8326 H 753.339 4.90564 1.11156 0
M  V30 8327 H 753.039 5.86501 -0.359232 0
M  V30 8328 H 754.563 6.08138 0.547743 0
M  V30 8329 H 755.977 5.49168 -1.64581 0
M  V30 8330 H 754.374 5.48391 -2.43696 0
M  V30 8331 H 755.444 4.08192 -2.61738 0
M  V30 8332 N 756.787 0.722489 1.40064 0
M  V30 8333 C 757.717 0.0892452 2.33329 0
M  V30 8334 C 758.698 -0.737992 1.53257 0
M  V30 8335 O 759.883 -0.685516 1.81698 0
M  V30 8336 C 757.013 -0.828139 3.37282 0
M  V30 8337 C 755.967 -0.106005 4.27869 0
M  V30 8338 C 755.293 -1.13957 5.22415 0
M  V30 8339 C 756.593 1.04395 5.11761 0
M  V30 8340 H 758.287 0.868269 2.86534 0
M  V30 8341 H 755.833 0.418982 1.3777 0
M  V30 8342 H 757.786 -1.28058 4.01471 0
M  V30 8343 H 756.51 -1.63914 2.82489 0
M  V30 8344 H 755.169 0.326683 3.65142 0
M  V30 8345 H 754.817 -1.9438 4.63924 0
M  V30 8346 H 754.517 -0.661233 5.83868 0
M  V30 8347 H 756.041 -1.59197 5.89482 0
M  V30 8348 H 757.455 0.670541 5.69365 0
M  V30 8349 H 755.852 1.4511 5.82291 0
M  V30 8350 H 756.922 1.87144 4.47331 0
M  V30 8351 N 758.265 -1.50454 0.469181 0
M  V30 8352 C 759.511 -2.02615 -0.0865971 0
M  V30 8353 C 759.844 -1.35062 -1.39542 0
M  V30 8354 O 759.119 -0.475701 -1.88593 0
M  V30 8355 C 759.402 -3.59068 -0.272385 0
M  V30 8356 C 759.255 -4.37196 1.05733 0
M  V30 8357 C 760.574 -4.2793 -1.0278 0
M  V30 8358 H 757.693 -0.736389 -0.0299977 0
M  V30 8359 H 760.335 -1.79792 0.614399 0
M  V30 8360 H 758.485 -3.78646 -0.869471 0
M  V30 8361 H 760.157 -4.29195 1.69084 0
M  V30 8362 H 758.4 -4.01013 1.65442 0
M  V30 8363 H 759.071 -5.44924 0.880997 0
M  V30 8364 H 761.547 -4.12816 -0.521718 0
M  V30 8365 H 760.423 -5.37214 -1.12659 0
M  V30 8366 H 760.684 -3.90968 -2.0639 0
M  V30 8367 N 759.743 -0.201713 -1.56304 0
M  V30 8368 C 760.653 0.728296 -2.23009 0
M  V30 8369 C 761.669 1.22945 -1.23128 0
M  V30 8370 O 762.845 1.27523 -1.55884 0
M  V30 8371 C 759.91 1.92792 -2.88153 0
M  V30 8372 C 758.971 1.47068 -4.03323 0
M  V30 8373 C 758.204 2.61312 -4.65351 0
M  V30 8374 O 758.427 3.7896 -4.26317 0
M  V30 8375 O 757.361 2.33646 -5.54701 0
M  V30 8376 H 761.187 0.190166 -3.03104 0
M  V30 8377 H 758.772 0.0278725 -1.49374 0
M  V30 8378 H 760.654 2.6289 -3.29343 0
M  V30 8379 H 759.329 2.45452 -2.11033 0
M  V30 8380 H 758.236 0.738299 -3.66742 0
M  V30 8381 H 759.569 0.990666 -4.82127 0
M  V30 8382 N 761.222 1.57436 0.0718424 0
M  V30 8383 C 762.447 1.91858 0.787745 0
M  V30 8384 C 762.872 0.798119 1.70328 0
M  V30 8385 O 762.23 -0.24905 1.79581 0
M  V30 8386 C 762.278 3.25232 1.55744 0
M  V30 8387 O 761.382 3.14462 2.6681 0
M  V30 8388 H 760.723 0.628258 0.214914 0
M  V30 8389 H 763.253 2.04561 0.0401012 0
M  V30 8390 H 763.263 3.59105 1.9367 0
M  V30 8391 H 761.938 4.0636 0.885691 0
M  V30 8392 H 760.515 2.92148 2.31741 0
M  V30 8393 N 762.7 -0.34323 1.53817 0
M  V30 8394 C 763.948 -1.0813 1.70741 0
M  V30 8395 C 764.269 -1.89165 0.473461 0
M  V30 8396 O 763.539 -1.89075 -0.512605 0
M  V30 8397 H 762.119 -0.40219 0.629486 0
M  V30 8398 H 764.781 -0.384426 1.91071 0
M  V30 8399 H 763.877 -1.7585 2.57843 0
M  V30 8400 N 764.178 -1.45556 -0.604258 0
M  V30 8401 C 765.141 -1.54091 -1.69672 0
M  V30 8402 C 766.141 -0.420076 -1.55216 0
M  V30 8403 O 767.331 -0.683671 -1.60224 0
M  V30 8404 C 764.463 -1.44063 -3.08964 0
M  V30 8405 H 765.656 -2.51431 -1.6347 0
M  V30 8406 H 763.209 -1.33046 -0.820273 0
M  V30 8407 H 763.944 -0.479201 -3.2074 0
M  V30 8408 H 763.729 -2.25362 -3.20865 0
M  V30 8409 H 765.219 -1.53075 -3.88533 0
M  V30 8410 N 765.656 0.84705 -1.32902 0
M  V30 8411 C 766.589 1.96038 -1.1681 0
M  V30 8412 C 767.567 1.62468 -0.0656144 0
M  V30 8413 O 768.751 1.87136 -0.226339 0
M  V30 8414 C 765.878 3.29362 -0.789839 0
M  V30 8415 C 764.924 3.81908 -1.89865 0
M  V30 8416 S 765.757 4.04576 -3.50826 0
M  V30 8417 C 766.913 5.40863 -3.14989 0
M  V30 8418 H 767.146 2.09387 -2.11055 0
M  V30 8419 H 764.679 0.999896 -1.1765 0
M  V30 8420 H 766.637 4.06405 -0.578369 0
M  V30 8421 H 765.298 3.13815 0.133878 0
M  V30 8422 H 764.491 4.78357 -1.58716 0
M  V30 8423 H 764.093 3.11733 -2.06636 0
M  V30 8424 H 766.385 6.23393 -2.65306 0
M  V30 8425 H 767.328 5.7698 -4.10488 0
M  V30 8426 H 767.736 5.05228 -2.51804 0
M  V30 8427 N 767.134 1.16236 1.06428 0
M  V30 8428 C 768.362 0.967184 1.82902 0
M  V30 8429 C 768.777 -0.484601 1.82475 0
M  V30 8430 O 768.134 -1.33631 1.24294 0
M  V30 8431 C 768.185 1.48534 3.29576 0
M  V30 8432 O 767.906 2.88026 3.3011 0
M  V30 8433 C 769.407 1.33298 4.22784 0
M  V30 8434 H 766.627 0.342923 0.576754 0
M  V30 8435 H 769.171 1.54232 1.34286 0
M  V30 8436 H 767.326 0.952513 3.75508 0
M  V30 8437 H 767.74 3.11721 4.21818 0
M  V30 8438 H 769.214 1.74385 5.23731 0
M  V30 8439 H 769.691 0.278356 4.38317 0
M  V30 8440 H 770.297 1.85535 3.82697 0
M  V30 8441 N 768.612 -1.24939 0.960631 0
M  V30 8442 C 770.023 -1.74701 0.658529 0
M  V30 8443 C 770.374 -1.77967 -0.825959 0
M  V30 8444 O 769.499 -1.40444 -1.64634 0
M  V30 8445 C 770.094 -3.17263 1.18867 0
M  V30 8446 C 768.653 -3.64561 0.936614 0
M  V30 8447 C 767.8 -2.43423 1.32817 0
M  V30 8448 H 770.751 -1.10741 1.13676 0
M  V30 8449 H 770.772 -3.76481 0.551589 0
M  V30 8450 H 770.284 -3.14854 2.26912 0
M  V30 8451 H 768.385 -3.72378 -0.128608 0
M  V30 8452 H 768.498 -4.52392 1.57729 0
M  V30 8453 H 766.862 -2.43513 0.746548 0
M  V30 8454 H 767.645 -2.437 2.41796 0
M  V30 8455 N 770.09 -0.729906 -1.39679 0
M  V30 8456 C 771.02 -0.101618 -2.33279 0
M  V30 8457 C 772.001 0.729854 -1.53646 0
M  V30 8458 O 773.186 0.67587 -1.82059 0
M  V30 8459 C 770.316 0.81024 -3.37716 0
M  V30 8460 C 769.27 0.0833126 -4.27919 0
M  V30 8461 C 768.596 1.11185 -5.23012 0
M  V30 8462 C 769.896 -1.07107 -5.112 0
M  V30 8463 H 771.59 -0.883452 -2.86069 0
M  V30 8464 H 769.136 -0.426283 -1.37546 0
M  V30 8465 H 771.089 1.25927 -4.02145 0
M  V30 8466 H 769.813 1.62413 -2.83354 0
M  V30 8467 H 768.472 -0.346043 -3.64963 0
M  V30 8468 H 768.12 1.91917 -4.64948 0
M  V30 8469 H 767.82 0.63026 -5.8421 0
M  V30 8470 H 769.344 1.56068 -5.90318 0
M  V30 8471 H 770.758 -0.700726 -5.69002 0
M  V30 8472 H 769.155 -1.48196 -5.81514 0
M  V30 8473 H 770.225 -1.89513 -4.46332 0
M  V30 8474 N 771.568 1.50203 -0.477153 0
M  V30 8475 C 772.816 2.01959 0.0755889 0
M  V30 8476 C 773.137 1.3608 1.39668 0
M  V30 8477 O 772.407 0.508136 1.89195 0
M  V30 8478 H 770.987 0.74636 0.0309248 0
M  V30 8479 H 773.649 1.84473 -0.628959 0
M  V30 8480 H 772.745 3.11305 0.222683 0
M  V30 8481 N 773.046 0.209999 1.56195 0
M  V30 8482 C 774.295 -0.425106 1.97169 0
M  V30 8483 C 774.608 -1.61718 1.10031 0
M  V30 8484 O 775.814 -2.32105 1.40853 0
M  V30 8485 C 774.27 -0.80771 3.50719 0
M  V30 8486 C 773.878 0.360902 4.46544 0
M  V30 8487 C 775.622 -1.40906 4.00432 0
M  V30 8488 C 773.529 -0.0434919 5.91384 0
M  V30 8489 H 772.459 -0.162598 0.736259 0
M  V30 8490 H 775.11 0.304382 1.80958 0
M  V30 8491 H 773.492 -1.59429 3.62489 0
M  V30 8492 H 774.666 1.13846 4.46515 0
M  V30 8493 H 772.981 0.874729 4.07109 0
M  V30 8494 H 775.578 -1.72433 5.06133 0
M  V30 8495 H 775.921 -2.32081 3.45607 0
M  V30 8496 H 776.454 -0.686154 3.91838 0
M  V30 8497 H 773.193 0.834448 6.50167 0
M  V30 8498 H 772.713 -0.785598 5.94633 0
M  V30 8499 H 774.392 -0.474176 6.4526 0
M  V30 8500 N 774.524 -1.57472 -0.0634922 0
M  V30 8501 C 775.749 -1.92273 -0.77756 0
M  V30 8502 C 776.174 -0.807141 -1.69902 0
M  V30 8503 O 775.532 0.239523 -1.79711 0
M  V30 8504 C 775.58 -3.26054 -1.54017 0
M  V30 8505 O 774.684 -3.15873 -2.65138 0
M  V30 8506 H 774.025 -0.629389 -0.211579 0
M  V30 8507 H 776.555 -2.04579 -0.0292523 0
M  V30 8508 H 776.565 -3.60127 -1.91763 0
M  V30 8509 H 775.24 -4.06824 -0.864128 0
M  V30 8510 H 773.817 -2.93373 -2.30189 0
M  V30 8511 N 776.003 0.335068 -1.53997 0
M  V30 8512 C 777.249 1.07594 -1.71905 0
M  V30 8513 C 777.582 1.88039 -0.485264 0
M  V30 8514 O 776.857 1.87482 0.517752 0
M  V30 8515 C 777.14 2.01016 -2.98772 0
M  V30 8516 C 776.993 1.23977 -4.32377 0
M  V30 8517 C 778.312 3.0071 -3.21343 0
M  V30 8518 H 775.431 0.38976 -0.625505 0
M  V30 8519 H 778.073 0.353684 -1.86679 0
M  V30 8520 H 776.223 2.62603 -2.86307 0
M  V30 8521 H 777.895 0.649383 -4.56706 0
M  V30 8522 H 776.138 0.541878 -4.30402 0
M  V30 8523 H 776.809 1.92512 -5.17342 0
M  V30 8524 H 779.285 2.4924 -3.33194 0
M  V30 8525 H 778.161 3.63272 -4.11491 0
M  V30 8526 H 778.422 3.72549 -2.38033 0
M  V30 8527 N 777.481 1.45874 0.596531 0
M  V30 8528 C 778.411 1.5824 1.71705 0
M  V30 8529 C 779.392 0.433366 1.64487 0
M  V30 8530 O 780.577 0.657895 1.82717 0
M  V30 8531 C 777.707 1.55927 3.10329 0
M  V30 8532 C 776.661 2.69659 3.32367 0
M  V30 8533 C 775.987 2.52403 4.71377 0
M  V30 8534 C 777.287 4.11591 3.21544 0
M  V30 8535 H 778.981 2.52035 1.61613 0
M  V30 8536 H 776.527 1.21297 0.776082 0
M  V30 8537 H 778.48 1.63173 3.88526 0
M  V30 8538 H 777.204 0.586674 3.21288 0
M  V30 8539 H 775.863 2.61859 2.56564 0
M  V30 8540 H 775.511 1.53258 4.79083 0
M  V30 8541 H 775.211 3.28679 4.87077 0
M  V30 8542 H 776.735 2.6152 5.5176 0
M  V30 8543 H 778.149 4.20576 3.89601 0
M  V30 8544 H 776.546 4.88344 3.4877 0
M  V30 8545 H 777.616 4.32719 2.1882 0
M  V30 8546 N 778.959 -0.83999 1.33349 0
M  V30 8547 C 780.375 -1.13049 1.12659 0
M  V30 8548 C 780.575 -2.01328 -0.0832613 0
M  V30 8549 O 779.631 -2.40669 -0.763856 0
M  V30 8550 C 780.944 -1.79366 2.41347 0
M  V30 8551 C 782.492 -1.91937 2.47243 0
M  V30 8552 C 782.967 -2.6167 3.75889 0
M  V30 8553 N 784.458 -2.69184 3.76954 0
M  V30 8554 C 785.193 -3.23827 4.73206 0
M  V30 8555 N 784.689 -3.79166 5.79832 0
M  V30 8556 N 786.482 -3.22068 4.60683 0
M  V30 8557 H 778.633 -0.252432 2.10895 0
M  V30 8558 H 780.896 -0.174501 0.931801 0
M  V30 8559 H 780.602 -1.2196 3.29877 0
M  V30 8560 H 780.476 -2.79396 2.53412 0
M  V30 8561 H 782.863 -2.48498 1.59163 0
M  V30 8562 H 782.944 -0.908604 2.39119 0
M  V30 8563 H 782.588 -2.05769 4.64351 0
M  V30 8564 H 782.518 -3.63217 3.81289 0
M  V30 8565 H 785.009 -2.2994 2.99893 0
M  V30 8566 H 785.322 -4.19061 6.49313 0
M  V30 8567 H 783.667 -3.77457 5.83568 0
M  V30 8568 H 786.858 -2.78092 3.7654 0
M  V30 8569 H 787.031 -3.64351 5.35866 0
M  V30 8570 N 780.437 -1.16799 -1.0581 0
M  V30 8571 C 781.677 -0.963264 -1.80279 0
M  V30 8572 C 782.041 0.499671 -1.85384 0
M  V30 8573 O 783.242 0.823264 -2.55882 0
M  V30 8574 C 781.513 -1.57938 -3.20609 0
M  V30 8575 S 783.072 -1.51997 -4.11634 0
M  V30 8576 H 779.89 -0.346302 -0.620964 0
M  V30 8577 H 782.492 -1.48632 -1.26999 0
M  V30 8578 H 781.196 -2.63672 -3.14492 0
M  V30 8579 H 780.727 -1.05586 -3.78966 0
M  V30 8580 H 782.742 -0.523625 -4.93429 0
M  V30 8581 N 781.915 1.24427 -0.967243 0
M  V30 8582 C 783.164 1.91789 -0.624478 0
M  V30 8583 C 783.477 1.76448 0.844129 0
M  V30 8584 O 784.683 2.38495 1.2974 0
M  V30 8585 C 783.139 3.43743 -1.06626 0
M  V30 8586 C 782.747 3.67771 -2.55829 0
M  V30 8587 C 784.491 4.16958 -0.79662 0
M  V30 8588 C 782.398 5.13293 -2.93742 0
M  V30 8589 H 781.328 0.71811 -0.229856 0
M  V30 8590 H 783.979 1.41081 -1.17339 0
M  V30 8591 H 782.361 3.93484 -0.445663 0
M  V30 8592 H 783.535 3.28631 -3.23015 0
M  V30 8593 H 781.85 3.07841 -2.80398 0
M  V30 8594 H 784.447 5.24171 -1.05589 0
M  V30 8595 H 784.79 4.15442 0.267163 0
M  V30 8596 H 785.323 3.73164 -1.37816 0
M  V30 8597 H 782.062 5.19931 -3.9919 0
M  V30 8598 H 781.582 5.53433 -2.3124 0
M  V30 8599 H 783.261 5.81521 -2.83623 0
M  V30 8600 N 783.393 0.737304 1.3929 0
M  V30 8601 C 784.809 0.413132 1.5416 0
M  V30 8602 C 785.009 -1.07574 1.70382 0
M  V30 8603 O 784.065 -1.86185 1.70562 0
M  V30 8604 C 785.378 1.19817 2.75798 0
M  V30 8605 C 786.926 1.18662 2.89635 0
M  V30 8606 C 787.401 1.95427 4.14213 0
M  V30 8607 N 788.892 1.92605 4.21257 0
M  V30 8608 C 789.627 2.48808 5.16606 0
M  V30 8609 N 789.123 3.13659 6.1773 0
M  V30 8610 N 790.916 2.38829 5.08839 0
M  V30 8611 H 783.067 1.70243 1.27008 0
M  V30 8612 H 785.33 0.720802 0.61575 0
M  V30 8613 H 785.036 2.25179 2.70161 0
M  V30 8614 H 784.91 0.804144 3.68529 0
M  V30 8615 H 787.297 0.141112 2.94762 0
M  V30 8616 H 787.378 1.62003 1.97961 0
M  V30 8617 H 787.022 2.9998 4.09847 0
M  V30 8618 H 786.952 1.4949 5.04936 0
M  V30 8619 H 789.443 1.45362 3.48824 0
M  V30 8620 H 789.756 3.54006 6.8695 0
M  V30 8621 H 788.101 3.17749 6.1811 0
M  V30 8622 H 791.292 1.87806 4.28773 0
M  V30 8623 H 791.465 2.82929 5.82971 0
M  V30 8624 N 784.871 -1.49948 0.485112 0
M  V30 8625 C 785.801 -2.31675 -0.291364 0
M  V30 8626 C 786.782 -1.39216 -0.977383 0
M  V30 8627 O 787.967 -1.68133 -0.971855 0
M  V30 8628 C 785.097 -3.19326 -1.36558 0
M  V30 8629 C 784.051 -4.2045 -0.800359 0
M  V30 8630 C 783.377 -4.96931 -1.97391 0
M  V30 8631 C 784.677 -5.21925 0.197867 0
M  V30 8632 H 786.371 -2.96839 0.390775 0
M  V30 8633 H 783.917 -1.42749 0.189375 0
M  V30 8634 H 785.87 -3.75304 -1.91638 0
M  V30 8635 H 784.594 -2.52074 -2.07668 0
M  V30 8636 H 783.253 -3.65594 -0.271428 0
M  V30 8637 H 782.901 -4.26141 -2.67232 0
M  V30 8638 H 782.601 -5.65344 -1.60187 0
M  V30 8639 H 784.125 -5.55749 -2.52935 0
M  V30 8640 H 785.539 -5.72691 -0.264239 0
M  V30 8641 H 783.936 -5.98138 0.484908 0
M  V30 8642 H 785.006 -4.71809 1.11912 0
M  V30 8643 N 786.349 -0.21828 -1.56081 0
M  V30 8644 C 787.279 0.687922 -2.23136 0
M  V30 8645 C 788.26 1.20357 -1.202 0
M  V30 8646 O 789.445 1.24817 -1.48776 0
M  V30 8647 C 786.575 1.89762 -2.90874 0
M  V30 8648 C 785.529 1.51595 -4.00254 0
M  V30 8649 C 784.855 2.80415 -4.55271 0
M  V30 8650 C 786.155 0.708404 -5.17474 0
M  V30 8651 H 787.849 0.128854 -2.99123 0
M  V30 8652 H 785.395 0.0605354 -1.43873 0
M  V30 8653 H 787.348 2.53699 -3.36474 0
M  V30 8654 H 786.072 2.4816 -2.1233 0
M  V30 8655 H 784.731 0.900058 -3.55379 0
M  V30 8656 H 784.379 3.36951 -3.73461 0
M  V30 8657 H 784.079 2.55613 -5.2909 0
M  V30 8658 H 785.603 3.453 -5.03587 0
M  V30 8659 H 787.017 1.2514 -5.59476 0
M  V30 8660 H 785.414 0.557593 -5.97504 0
M  V30 8661 H 786.484 -0.285679 -4.84058 0
M  V30 8662 N 787.827 1.57504 0.0551401 0
M  V30 8663 C 789.243 1.54236 0.410292 0
M  V30 8664 C 789.443 0.940839 1.78187 0
M  V30 8665 O 788.499 0.550541 2.46425 0
M  V30 8666 C 789.812 2.98816 0.336064 0
M  V30 8667 C 791.36 3.10236 0.415047 0
M  V30 8668 C 791.835 4.56499 0.37055 0
M  V30 8669 N 793.326 4.61199 0.43013 0
M  V30 8670 C 794.061 5.71873 0.418179 0
M  V30 8671 N 793.557 6.91864 0.360056 0
M  V30 8672 N 795.35 5.60165 0.465977 0
M  V30 8673 H 787.501 1.94965 -0.842759 0
M  V30 8674 H 789.764 0.893096 -0.317937 0
M  V30 8675 H 789.47 3.4645 -0.605429 0
M  V30 8676 H 789.344 3.59564 1.13988 0
M  V30 8677 H 791.731 2.62566 1.34697 0
M  V30 8678 H 791.812 2.52367 -0.417648 0
M  V30 8679 H 791.456 5.0483 -0.557592 0
M  V30 8680 H 791.386 5.12249 1.221 0
M  V30 8681 H 793.877 3.74857 0.478623 0
M  V30 8682 H 794.19 7.71983 0.35532 0
M  V30 8683 H 792.535 6.94233 0.326492 0
M  V30 8684 H 795.726 4.65322 0.509194 0
M  V30 8685 H 795.899 6.46413 0.453194 0
M  V30 8686 N 789.305 -0.326896 1.54172 0
M  V30 8687 C 790.554 -1.06274 1.71431 0
M  V30 8688 C 790.867 -1.89282 0.493123 0
M  V30 8689 O 792.073 -2.65933 0.54699 0
M  V30 8690 C 790.529 -1.93892 3.03206 0
M  V30 8691 C 790.137 -1.16011 4.32719 0
M  V30 8692 C 791.881 -2.67232 3.29829 0
M  V30 8693 C 789.788 -2.02755 5.55558 0
M  V30 8694 H 788.718 -0.400475 0.638855 0
M  V30 8695 H 791.369 -0.321184 1.80667 0
M  V30 8696 H 789.751 -2.71933 2.87869 0
M  V30 8697 H 790.925 -0.427643 4.58811 0
M  V30 8698 H 789.24 -0.54367 4.12836 0
M  V30 8699 H 791.837 -3.32434 4.18798 0
M  V30 8700 H 792.18 -3.34692 2.47562 0
M  V30 8701 H 792.713 -1.96255 3.46018 0
M  V30 8702 H 789.452 -1.3981 6.40417 0
M  V30 8703 H 788.972 -2.73745 5.33689 0
M  V30 8704 H 790.651 -2.61419 5.91835 0
M  V30 8705 N 790.784 -1.46188 -0.588786 0
M  V30 8706 C 792.031 -1.51184 -1.34721 0
M  V30 8707 C 792.359 -0.161084 -1.93832 0
M  V30 8708 O 791.614 0.842557 -1.76634 0
M  V30 8709 C 791.913 -2.55364 -2.50048 0
M  V30 8710 C 791.579 -3.99553 -2.08969 0
M  V30 8711 C 790.241 -4.38811 -1.9748 0
M  V30 8712 C 792.593 -4.90156 -1.77191 0
M  V30 8713 C 789.921 -5.66544 -1.52463 0
M  V30 8714 C 792.273 -6.1832 -1.33654 0
M  V30 8715 C 790.937 -6.5649 -1.20738 0
M  V30 8716 H 790.207 -0.55322 -0.49298 0
M  V30 8717 H 792.854 -1.79634 -0.663627 0
M  V30 8718 H 791.159 -2.20552 -3.23827 0
M  V30 8719 H 792.856 -2.5646 -3.08268 0
M  V30 8720 H 789.446 -3.68518 -2.18843 0
M  V30 8721 H 793.63 -4.60549 -1.84955 0
M  V30 8722 H 788.886 -5.94895 -1.411 0
M  V30 8723 H 793.06 -6.87956 -1.08117 0
M  V30 8724 H 790.687 -7.55362 -0.856307 0
M  V30 8725 N 792.262 0.832906 -1.33792 0
M  V30 8726 C 793.209 1.94314 -1.24541 0
M  V30 8727 C 794.179 1.65646 -0.122753 0
M  V30 8728 O 795.364 1.88394 -0.30204 0
M  V30 8729 C 792.504 3.30395 -0.996641 0
M  V30 8730 C 791.617 3.71422 -2.20612 0
M  V30 8731 C 790.752 4.96401 -1.89101 0
M  V30 8732 C 789.791 5.2998 -3.06247 0
M  V30 8733 N 788.928 6.46137 -2.74685 0
M  V30 8734 H 793.768 2.01559 -2.19495 0
M  V30 8735 H 791.305 0.986243 -1.09141 0
M  V30 8736 H 793.263 4.08803 -0.832817 0
M  V30 8737 H 791.893 3.22691 -0.0838242 0
M  V30 8738 H 790.945 2.88488 -2.47949 0
M  V30 8739 H 792.257 3.92215 -3.0817 0
M  V30 8740 H 791.411 5.82572 -1.69396 0
M  V30 8741 H 790.15 4.7759 -0.987882 0
M  V30 8742 H 789.155 4.42312 -3.26559 0
M  V30 8743 H 790.38 5.50737 -3.97323 0
M  V30 8744 H 788.326 6.28801 -1.86938 0
M  V30 8745 H 788.243 6.67054 -3.55774 0
M  V30 8746 H 789.511 7.35403 -2.58461 0
M  V30 8747 N 793.74 1.17359 1.05189 0
M  V30 8748 C 794.989 0.956412 1.77583 0
M  V30 8749 C 795.302 -0.516018 1.88671 0
M  V30 8750 O 796.508 -0.851401 2.57805 0
M  V30 8751 C 794.964 1.66203 3.19225 0
M  V30 8752 C 794.572 3.17299 3.16267 0
M  V30 8753 C 796.316 1.52725 3.96075 0
M  V30 8754 C 794.223 3.8055 4.52698 0
M  V30 8755 H 793.153 0.354204 0.665624 0
M  V30 8756 H 795.804 1.40612 1.17901 0
M  V30 8757 H 794.186 1.14006 3.79234 0
M  V30 8758 H 795.36 3.76431 2.65776 0
M  V30 8759 H 793.675 3.3079 2.52917 0
M  V30 8760 H 796.272 1.97351 4.96947 0
M  V30 8761 H 796.615 0.477803 4.13549 0
M  V30 8762 H 797.148 2.02139 3.42614 0
M  V30 8763 H 793.887 4.85492 4.4043 0
M  V30 8764 H 793.407 3.26206 5.03339 0
M  V30 8765 H 795.086 3.82757 5.21638 0
M  V30 8766 N 795.218 -1.23913 0.973828 0
M  V30 8767 C 796.446 -1.96195 0.656891 0
M  V30 8768 C 796.861 -1.72166 -0.774876 0
M  V30 8769 O 796.218 -1.0091 -1.52064 0
M  V30 8770 C 796.269 -3.49342 0.929638 0
M  V30 8771 O 795.99 -3.72553 2.30512 0
M  V30 8772 C 797.491 -4.38833 0.627739 0
M  V30 8773 H 794.711 -0.624841 0.244572 0
M  V30 8774 H 797.255 -1.57579 1.30343 0
M  V30 8775 H 795.41 -3.85999 0.329216 0
M  V30 8776 H 795.824 -4.66893 2.3898 0
M  V30 8777 H 797.298 -5.45117 0.868991 0
M  V30 8778 H 797.775 -4.37009 -0.438104 0
M  V30 8779 H 798.381 -4.07773 1.20834 0
M  V30 8780 N 796.696 -0.74468 -1.38897 0
M  V30 8781 C 797.643 -0.111064 -2.30533 0
M  V30 8782 C 798.613 0.719276 -1.49719 0
M  V30 8783 O 799.798 0.677244 -1.78376 0
M  V30 8784 C 796.938 0.78292 -3.36102 0
M  V30 8785 C 796.051 -0.0610817 -4.31957 0
M  V30 8786 C 795.186 0.835075 -5.24595 0
M  V30 8787 C 794.225 -0.0130974 -6.12099 0
M  V30 8788 N 793.362 0.839525 -6.97063 0
M  V30 8789 H 798.202 -0.898113 -2.84144 0
M  V30 8790 H 795.739 -0.454537 -1.39901 0
M  V30 8791 H 797.697 1.31578 -3.95908 0
M  V30 8792 H 796.327 1.53585 -2.83922 0
M  V30 8793 H 795.379 -0.711469 -3.73687 0
M  V30 8794 H 796.691 -0.716482 -4.93627 0
M  V30 8795 H 795.845 1.43542 -5.89475 0
M  V30 8796 H 794.584 1.52423 -4.63269 0
M  V30 8797 H 793.589 -0.626179 -5.46223 0
M  V30 8798 H 794.814 -0.699181 -6.75491 0
M  V30 8799 H 792.76 1.5138 -6.38295 0
M  V30 8800 H 792.677 0.240823 -7.55616 0
M  V30 8801 H 793.945 1.42513 -7.66362 0
M  V30 8802 N 798.174 1.49689 -0.493057 0
M  V30 8803 C 799.404 2.06536 0.0512397 0
M  V30 8804 C 799.812 1.35459 1.32089 0
M  V30 8805 O 799.155 0.424145 1.78736 0
M  V30 8806 C 799.217 3.57452 0.383231 0
M  V30 8807 C 798.881 4.50163 -0.787555 0
M  V30 8808 C 799.878 4.92151 -1.67582 0
M  V30 8809 C 797.563 4.92565 -0.984109 0
M  V30 8810 C 799.557 5.7527 -2.74487 0
M  V30 8811 C 797.244 5.75463 -2.05634 0
M  V30 8812 C 798.242 6.16719 -2.93507 0
M  V30 8813 O 797.93 6.97961 -3.98881 0
M  V30 8814 H 797.662 0.675862 -0.0136516 0
M  V30 8815 H 800.216 1.9356 -0.687298 0
M  V30 8816 H 798.446 3.68408 1.17526 0
M  V30 8817 H 800.135 3.96572 0.8652 0
M  V30 8818 H 800.901 4.60043 -1.53575 0
M  V30 8819 H 796.78 4.5996 -0.309541 0
M  V30 8820 H 800.324 6.07392 -3.43104 0
M  V30 8821 H 796.221 6.06983 -2.19639 0
M  V30 8822 H 796.989 7.16253 -3.96137 0
M  V30 8823 N 799.652 0.226554 1.55963 0
M  V30 8824 C 800.898 -0.397608 1.99476 0
M  V30 8825 C 801.253 -1.57031 1.11172 0
M  V30 8826 O 800.546 -1.90907 0.162757 0
M  V30 8827 C 800.74 -0.87642 3.46488 0
M  V30 8828 C 800.569 0.248344 4.49014 0
M  V30 8829 C 799.339 0.71638 5.00196 0
M  V30 8830 C 801.537 1.06835 5.03081 0
M  V30 8831 N 799.519 1.81568 5.86435 0
M  V30 8832 C 800.89 2.01641 5.86294 0
M  V30 8833 C 802.945 1.10722 4.85433 0
M  V30 8834 C 801.648 3.0002 6.53743 0
M  V30 8835 C 803.674 2.07921 5.53645 0
M  V30 8836 C 803.036 3.01466 6.3663 0
M  V30 8837 H 799.135 -0.112024 0.773935 0
M  V30 8838 H 801.719 0.339472 1.91718 0
M  V30 8839 H 799.89 -1.58285 3.54684 0
M  V30 8840 H 801.622 -1.47382 3.76909 0
M  V30 8841 H 798.377 0.30409 4.72623 0
M  V30 8842 H 798.801 2.36748 6.34255 0
M  V30 8843 H 803.443 0.397909 4.20923 0
M  V30 8844 H 801.161 3.71911 7.17432 0
M  V30 8845 H 804.747 2.11609 5.41953 0
M  V30 8846 H 803.627 3.75451 6.88481 0
M  V30 8847 N 801.13 -1.57531 -0.0467866 0
M  V30 8848 C 802.358 -1.92696 -0.753371 0
M  V30 8849 C 802.773 -0.824792 -1.69831 0
M  V30 8850 O 802.13 0.200155 -1.81399 0
M  V30 8851 C 802.181 -3.27728 -1.52566 0
M  V30 8852 O 801.902 -4.3371 -0.618674 0
M  V30 8853 C 803.403 -3.77066 -2.33101 0
M  V30 8854 H 800.623 -0.636367 -0.212788 0
M  V30 8855 H 803.167 -2.04498 -0.00959361 0
M  V30 8856 H 801.322 -3.17378 -2.22148 0
M  V30 8857 H 801.736 -5.11548 -1.15839 0
M  V30 8858 H 803.21 -4.74109 -2.82709 0
M  V30 8859 H 803.687 -3.07348 -3.13741 0
M  V30 8860 H 804.293 -3.90442 -1.68628 0
M  V30 8861 N 802.608 0.318715 -1.54344 0
M  V30 8862 C 803.833 1.07987 -1.77069 0
M  V30 8863 C 804.258 1.80766 -0.520117 0
M  V30 8864 O 803.616 1.73424 0.528566 0
M  V30 8865 C 803.664 2.04987 -2.96669 0
M  V30 8866 O 802.768 3.12974 -2.68554 0
M  V30 8867 H 802.109 0.311109 -0.586606 0
M  V30 8868 H 804.639 0.361533 -2.0138 0
M  V30 8869 H 804.649 2.47771 -3.2415 0
M  V30 8870 H 803.324 1.51417 -3.87357 0
M  V30 8871 H 801.901 2.74831 -2.52037 0
M  V30 8872 N 804.086 1.46499 0.581025 0
M  V30 8873 C 805.016 1.60052 1.70017 0
M  V30 8874 C 805.997 0.450788 1.64018 0
M  V30 8875 O 807.182 0.677237 1.82009 0
M  V30 8876 C 804.312 1.5921 3.08658 0
M  V30 8877 C 803.266 2.73169 3.29488 0
M  V30 8878 C 802.592 2.57389 4.68674 0
M  V30 8879 C 803.892 4.14978 3.1716 0
M  V30 8880 H 805.586 2.53735 1.5893 0
M  V30 8881 H 803.132 1.22113 0.763173 0
M  V30 8882 H 805.085 1.67285 3.86773 0
M  V30 8883 H 803.809 0.620718 3.20647 0
M  V30 8884 H 802.468 2.64566 2.53773 0
M  V30 8885 H 802.116 1.58331 4.77431 0
M  V30 8886 H 801.816 3.33826 4.83564 0
M  V30 8887 H 803.34 2.67358 5.48956 0
M  V30 8888 H 804.754 4.24684 3.85119 0
M  V30 8889 H 803.151 4.92016 3.4357 0
M  V30 8890 H 804.221 4.35016 2.14218 0
M  V30 8891 N 805.565 -0.825799 1.34232 0
M  V30 8892 C 806.79 -1.61883 1.29648 0
M  V30 8893 C 807.215 -1.87669 -0.127295 0
M  V30 8894 O 806.573 -1.45016 -1.08813 0
M  V30 8895 C 806.621 -2.93846 2.09014 0
M  V30 8896 O 805.725 -3.85778 1.4577 0
M  V30 8897 H 805.066 -0.492454 0.445405 0
M  V30 8898 H 807.596 -1.02641 1.76992 0
M  V30 8899 H 807.606 -3.43435 2.20264 0
M  V30 8900 H 806.281 -2.74401 3.12533 0
M  V30 8901 H 804.858 -3.4429 1.43245 0
M  V30 8902 N 807.043 -1.17915 -1.04565 0
M  V30 8903 C 807.991 -0.897919 -2.1457 0
M  V30 8904 C 808.985 0.139883 -1.68821 0
M  V30 8905 O 810.191 -0.00779463 -1.79998 0
M  V30 8906 H 806.566 -0.272867 -0.700748 0
M  V30 8907 H 808.537 -1.83268 -2.3549 0
M  V30 8908 C 807.286 -0.434634 -3.44973 0
M  V30 8909 H 806.609 -1.22469 -3.8058 0
M  V30 8910 H 808.049 -0.276804 -4.23095 0
M  V30 8911 C 806.508 0.848738 -3.26034 0
M  V30 8912 O 807.038 1.9141 -3.53164 0
M  V30 8913 N 805.244 0.799373 -2.79389 0
M  V30 8914 H 804.791 -0.0678192 -2.57511 0
M  V30 8915 H 804.749 1.6585 -2.67098 0
M  V30 8916 N 808.521 1.23394 -0.980386 0
M  V30 8917 C 809.451 2.2717 -0.540024 0
M  V30 8918 C 810.432 1.64659 0.426787 0
M  V30 8919 O 811.617 1.91543 0.320153 0
M  V30 8920 C 808.747 3.46939 0.15836 0
M  V30 8921 C 807.701 4.21802 -0.725732 0
M  V30 8922 C 807.027 5.34597 0.104866 0
M  V30 8923 C 808.327 4.81802 -2.01654 0
M  V30 8924 H 810.021 2.64257 -1.40743 0
M  V30 8925 H 807.567 1.2703 -0.678193 0
M  V30 8926 H 809.52 4.18683 0.477737 0
M  V30 8927 H 808.244 3.08912 1.06022 0
M  V30 8928 H 806.903 3.51875 -1.02857 0
M  V30 8929 H 806.551 4.92812 1.00726 0
M  V30 8930 H 806.251 5.85607 -0.483557 0
M  V30 8931 H 807.775 6.09163 0.418624 0
M  V30 8932 H 809.189 5.45554 -1.76193 0
M  V30 8933 H 807.586 5.43098 -2.55273 0
M  V30 8934 H 808.656 4.02549 -2.70338 0
M  V30 8935 N 809.999 0.752036 1.385 0
M  V30 8936 C 811.245 0.307958 2.00448 0
M  V30 8937 C 811.578 -1.10702 1.59558 0
M  V30 8938 O 810.853 -1.75788 0.832391 0
M  V30 8939 C 811.136 0.429092 3.57534 0
M  V30 8940 C 810.989 1.88507 4.08393 0
M  V30 8941 C 812.308 -0.178442 4.39738 0
M  V30 8942 H 809.427 0.113373 0.728228 0
M  V30 8943 H 812.069 0.951389 1.64465 0
M  V30 8944 H 810.219 -0.118695 3.88319 0
M  V30 8945 H 811.891 2.49104 3.88259 0
M  V30 8946 H 810.134 2.40066 3.61318 0
M  V30 8947 H 810.805 1.92099 5.17496 0
M  V30 8948 H 813.281 0.28872 4.15097 0
M  V30 8949 H 812.157 -0.0634349 5.48863 0
M  V30 8950 H 812.418 -1.26655 4.23569 0
M  V30 8951 N 811.477 -1.49425 0.500989 0
M  V30 8952 C 812.44 -2.27646 -0.266416 0
M  V30 8953 C 813.44 -1.3366 -0.893961 0
M  V30 8954 O 814.63 -1.5682 -0.758495 0
M  V30 8955 C 811.762 -3.11618 -1.38227 0
M  V30 8956 H 812.955 -2.96945 0.419973 0
M  V30 8957 H 810.508 -1.5419 0.255954 0
M  V30 8958 H 811.243 -2.46885 -2.10281 0
M  V30 8959 H 811.028 -3.80721 -0.937746 0
M  V30 8960 H 812.518 -3.70698 -1.92283 0
M  V30 8961 N 812.955 -0.234822 -1.55841 0
M  V30 8962 C 814.18 0.400741 -2.03492 0
M  V30 8963 C 814.605 1.51618 -1.11327 0
M  V30 8964 O 813.963 1.81002 -0.103922 0
M  V30 8965 C 814.011 0.897184 -3.49261 0
M  V30 8966 O 813.115 2.00764 -3.60233 0
M  V30 8967 H 812.456 0.0890023 -0.658008 0
M  V30 8968 H 814.986 -0.357345 -2.01455 0
M  V30 8969 H 814.996 1.20356 -3.89844 0
M  V30 8970 H 813.671 0.0808639 -4.15821 0
M  V30 8971 H 812.248 1.70689 -3.31541 0
M  V30 8972 N 814.433 1.57553 0.0384317 0
M  V30 8973 C 815.363 2.0898 1.04161 0
M  V30 8974 C 816.344 0.99029 1.38301 0
M  V30 8975 O 817.529 1.26499 1.47349 0
M  V30 8976 C 814.659 2.56145 2.34536 0
M  V30 8977 C 813.613 3.70275 2.14663 0
M  V30 8978 C 812.939 4.03612 3.50715 0
M  V30 8979 C 814.239 4.99067 1.54045 0
M  V30 8980 H 815.933 2.93046 0.613548 0
M  V30 8981 H 813.479 1.40973 0.293684 0
M  V30 8982 H 815.432 2.90741 3.05037 0
M  V30 8983 H 814.156 1.6915 2.79385 0
M  V30 8984 H 812.815 3.36013 1.46597 0
M  V30 8985 H 812.463 3.13698 3.93195 0
M  V30 8986 H 812.163 4.80482 3.38247 0
M  V30 8987 H 813.687 4.40735 4.22593 0
M  V30 8988 H 815.101 5.3168 2.14451 0
M  V30 8989 H 813.498 5.80484 1.52178 0
M  V30 8990 H 814.568 4.8226 0.505259 0
M  V30 8991 N 815.911 -0.310526 1.54511 0
M  V30 8992 C 816.841 -1.38757 1.878 0
M  V30 8993 C 817.822 -1.53353 0.735991 0
M  V30 8994 O 819.007 -1.67018 0.990887 0
M  V30 8995 C 816.137 -2.75327 2.11689 0
M  V30 8996 C 815.091 -2.75506 3.27537 0
M  V30 8997 C 814.417 -4.15275 3.36824 0
M  V30 8998 C 815.717 -2.38093 4.64875 0
M  V30 8999 H 817.411 -1.11146 2.78005 0
M  V30 9000 H 814.957 -0.533232 1.33763 0
M  V30 9001 H 816.91 -3.50752 2.33562 0
M  V30 9002 H 815.634 -3.04443 1.18245 0
M  V30 9003 H 814.293 -2.02538 3.05572 0
M  V30 9004 H 813.941 -4.41553 2.40915 0
M  V30 9005 H 813.641 -4.16299 4.14692 0
M  V30 9006 H 815.165 -4.92493 3.60947 0
M  V30 9007 H 816.579 -3.03232 4.86542 0
M  V30 9008 H 814.976 -2.50345 5.45387 0
M  V30 9009 H 816.046 -1.33227 4.66239 0
M  V30 9010 N 817.389 -1.46805 -0.573248 0
M  V30 9011 C 818.337 -1.58468 -1.70267 0
M  V30 9012 C 819.331 -0.452694 -1.63239 0
M  V30 9013 O 820.537 -0.629915 -1.68618 0
M  V30 9014 H 816.912 -0.498408 -0.56311 0
M  V30 9015 H 818.883 -2.5341 -1.57563 0
M  V30 9016 C 817.632 -1.60104 -3.08645 0
M  V30 9017 H 816.955 -2.4655 -3.14727 0
M  V30 9018 H 818.395 -1.72318 -3.87405 0
M  V30 9019 C 816.854 -0.33138 -3.35266 0
M  V30 9020 O 817.384 0.57438 -3.97572 0
M  V30 9021 N 815.59 -0.216358 -2.89793 0
M  V30 9022 H 815.137 -0.954345 -2.3927 0
M  V30 9023 H 815.095 0.632253 -3.07977 0
M  V30 9024 N 818.867 0.818669 -1.34668 0
M  V30 9025 C 820.092 1.61193 -1.30505 0
M  V30 9026 C 820.517 1.87734 0.117341 0
M  V30 9027 O 819.875 1.45591 1.08042 0
M  V30 9028 C 819.923 2.92733 -2.1057 0
M  V30 9029 O 819.027 3.85 -1.47813 0
M  V30 9030 H 818.368 0.490085 -0.44801 0
M  V30 9031 H 820.898 1.01701 -1.77534 0
M  V30 9032 H 820.908 3.42262 -2.22082 0
M  V30 9033 H 819.583 2.7274 -3.13984 0
M  V30 9034 H 818.16 3.43525 -1.45069 0
M  V30 9035 N 820.346 1.18468 1.03938 0
M  V30 9036 C 821.595 0.975193 1.76558 0
M  V30 9037 C 821.908 -0.495978 1.89207 0
M  V30 9038 O 823.114 -0.824009 2.58694 0
M  V30 9039 C 821.57 1.69579 3.17444 0
M  V30 9040 C 821.178 3.20636 3.12884 0
M  V30 9041 C 822.922 1.56917 3.94433 0
M  V30 9042 C 820.829 3.8533 4.48636 0
M  V30 9043 H 819.759 0.361244 0.66183 0
M  V30 9044 H 822.41 1.41854 1.16403 0
M  V30 9045 H 820.792 1.18022 3.78004 0
M  V30 9046 H 821.966 3.79228 2.61768 0
M  V30 9047 H 820.281 3.33454 2.49394 0
M  V30 9048 H 822.878 2.02611 4.94826 0
M  V30 9049 H 823.221 0.521638 4.13019 0
M  V30 9050 H 823.754 2.05762 3.40451 0
M  V30 9051 H 820.493 4.90136 4.35255 0
M  V30 9052 H 820.013 3.31526 4.99851 0
M  V30 9053 H 821.692 3.88269 5.17549 0
M  V30 9054 N 821.824 -1.22873 0.986916 0
M  V30 9055 C 823.24 -1.43594 0.696633 0
M  V30 9056 C 823.44 -1.87622 -0.734869 0
M  V30 9057 O 822.496 -2.02633 -1.50652 0
M  V30 9058 C 823.809 -2.48231 1.69711 0
M  V30 9059 C 825.357 -2.62037 1.71188 0
M  V30 9060 C 825.832 -3.6989 2.70084 0
M  V30 9061 N 827.323 -3.77341 2.68641 0
M  V30 9062 C 828.058 -4.6037 3.41829 0
M  V30 9063 N 827.554 -5.47438 4.24598 0
M  V30 9064 N 829.347 -4.54626 3.30563 0
M  V30 9065 H 821.498 -0.925982 1.91153 0
M  V30 9066 H 823.761 -0.46866 0.824052 0
M  V30 9067 H 823.467 -2.22812 2.72117 0
M  V30 9068 H 823.341 -3.46731 1.48516 0
M  V30 9069 H 825.728 -2.86803 0.694837 0
M  V30 9070 H 825.809 -1.63831 1.96451 0
M  V30 9071 H 825.453 -3.45872 3.71934 0
M  V30 9072 H 825.383 -4.67652 2.42093 0
M  V30 9073 H 827.874 -3.15124 2.08578 0
M  V30 9074 H 828.187 -6.078 4.77283 0
M  V30 9075 H 826.532 -5.4704 4.28687 0
M  V30 9076 H 829.723 -3.85627 2.65347 0
M  V30 9077 H 829.896 -5.19103 3.8786 0
M  V30 9078 N 823.302 -0.75937 -1.38099 0
M  V30 9079 C 824.527 -0.327859 -2.04792 0
M  V30 9080 C 824.952 1.03752 -1.56899 0
M  V30 9081 O 824.31 1.66235 -0.723581 0
M  V30 9082 C 824.358 -0.366264 -3.58735 0
M  V30 9083 O 823.462 0.637697 -4.0744 0
M  V30 9084 H 822.803 -0.144092 -0.648177 0
M  V30 9085 H 825.333 -1.03211 -1.7666 0
M  V30 9086 H 825.343 -0.219179 -4.07411 0
M  V30 9087 H 824.018 -1.36243 -3.92951 0
M  V30 9088 H 822.595 0.454749 -3.70117 0
M  V30 9089 N 824.78 1.49157 -0.508906 0
M  V30 9090 C 826.029 2.0167 0.0346854 0
M  V30 9091 C 826.342 1.39302 1.37311 0
M  V30 9092 O 827.548 1.83189 2.00385 0
M  V30 9093 C 826.004 3.59725 0.112261 0
M  V30 9094 C 825.612 4.31069 -1.21999 0
M  V30 9095 C 827.356 4.20155 0.605798 0
M  V30 9096 C 825.263 5.81001 -1.10415 0
M  V30 9097 H 824.193 0.753814 0.0167355 0
M  V30 9098 H 826.844 1.7162 -0.649518 0
M  V30 9099 H 825.226 3.86525 0.861087 0
M  V30 9100 H 826.4 4.15962 -1.98273 0
M  V30 9101 H 824.715 3.82418 -1.64759 0
M  V30 9102 H 827.312 5.29964 0.710102 0
M  V30 9103 H 827.655 3.84051 1.60656 0
M  V30 9104 H 828.188 3.97705 -0.0867239 0
M  V30 9105 H 824.927 6.21643 -2.07941 0
M  V30 9106 H 824.447 5.9858 -0.382428 0
M  V30 9107 H 826.126 6.42207 -0.786116 0
M  V30 9108 N 826.258 0.243083 1.55714 0
M  V30 9109 C 827.221 -0.644723 2.19945 0
M  V30 9110 C 828.221 -1.10562 1.16759 0
M  V30 9111 O 829.411 -1.01095 1.41865 0
M  V30 9112 C 826.543 -1.88569 2.83997 0
M  V30 9113 H 827.736 -0.0843839 2.99781 0
M  V30 9114 H 825.289 -0.00647246 1.56299 0
M  V30 9115 H 826.024 -2.48736 2.08089 0
M  V30 9116 H 825.809 -1.56345 3.59581 0
M  V30 9117 H 827.299 -2.51774 3.33166 0
M  V30 9118 N 827.736 -1.57571 -0.0300757 0
M  V30 9119 C 828.961 -1.93879 -0.736601 0
M  V30 9120 C 829.386 -0.842998 -1.68152 0
M  V30 9121 O 828.744 0.20135 -1.80178 0
M  V30 9122 C 828.792 -3.29247 -1.47066 0
M  V30 9123 O 827.896 -3.21426 -2.58378 0
M  V30 9124 H 827.237 -0.633735 -0.198181 0
M  V30 9125 H 829.767 -2.04595 0.0141485 0
M  V30 9126 H 829.777 -3.64113 -1.84081 0
M  V30 9127 H 828.452 -4.08565 -0.77764 0
M  V30 9128 H 827.029 -2.98189 -2.23914 0
M  V30 9129 N 829.214 0.302327 -1.54673 0
M  V30 9130 C 830.144 1.37759 -1.88533 0
M  V30 9131 C 831.125 1.52961 -0.744113 0
M  V30 9132 O 832.31 1.6649 -0.999731 0
M  V30 9133 C 829.44 2.74201 -2.13146 0
M  V30 9134 C 828.394 2.73765 -3.28993 0
M  V30 9135 C 827.72 4.13483 -3.39022 0
M  V30 9136 C 829.02 2.35624 -4.66132 0
M  V30 9137 H 830.714 1.0967 -2.78591 0
M  V30 9138 H 828.26 0.52613 -1.34044 0
M  V30 9139 H 830.213 3.49508 -2.35419 0
M  V30 9140 H 828.937 3.03812 -1.19858 0
M  V30 9141 H 827.596 2.00914 -3.06642 0
M  V30 9142 H 827.244 4.40269 -2.43253 0
M  V30 9143 H 826.944 4.14093 -4.16894 0
M  V30 9144 H 828.468 4.90572 -3.63553 0
M  V30 9145 H 829.882 3.00647 -4.88143 0
M  V30 9146 H 828.279 2.47449 -5.46707 0
M  V30 9147 H 829.349 1.30753 -4.66939 0
M  V30 9148 N 830.692 1.47107 0.565454 0
M  V30 9149 C 831.622 1.61846 1.68309 0
M  V30 9150 C 832.603 0.468159 1.63531 0
M  V30 9151 O 833.788 0.696504 1.8128 0
M  V30 9152 C 830.918 1.62474 3.06952 0
M  V30 9153 C 829.872 2.76649 3.26572 0
M  V30 9154 C 829.198 2.62345 4.65917 0
M  V30 9155 C 830.498 4.18319 3.12741 0
M  V30 9156 H 832.192 2.55407 1.5623 0
M  V30 9157 H 829.738 1.22916 0.750179 0
M  V30 9158 H 831.691 1.71378 3.84977 0
M  V30 9159 H 830.415 0.654692 3.19971 0
M  V30 9160 H 829.074 2.67242 2.50952 0
M  V30 9161 H 828.722 1.63386 4.75725 0
M  V30 9162 H 828.422 3.38936 4.79996 0
M  V30 9163 H 829.946 2.73165 5.46089 0
M  V30 9164 H 831.36 4.28745 3.80593 0
M  V30 9165 H 829.757 4.95632 3.38333 0
M  V30 9166 H 830.827 4.37263 2.09592 0
M  V30 9167 N 832.17 -0.811516 1.35101 0
M  V30 9168 C 833.1 -1.9378 1.30275 0
M  V30 9169 C 834.081 -1.69165 0.178075 0
M  V30 9170 O 835.266 -1.90599 0.372256 0
M  V30 9171 C 832.396 -3.30439 1.06899 0
M  V30 9172 C 831.35 -3.69523 2.15955 0
M  V30 9173 C 830.676 -5.0429 1.77751 0
M  V30 9174 C 831.976 -3.80419 3.57881 0
M  V30 9175 H 833.67 -1.98075 2.24514 0
M  V30 9176 H 831.216 -0.951586 1.08078 0
M  V30 9177 H 833.169 -4.08828 1.02164 0
M  V30 9178 H 831.893 -3.26473 0.0910462 0
M  V30 9179 H 830.552 -2.93416 2.19778 0
M  V30 9180 H 830.2 -4.96823 0.785876 0
M  V30 9181 H 829.9 -5.31411 2.5075 0
M  V30 9182 H 831.424 -5.85125 1.74533 0
M  V30 9183 H 832.838 -4.49051 3.56407 0
M  V30 9184 H 831.235 -4.19005 4.29598 0
M  V30 9185 H 832.305 -2.82105 3.94391 0
M  V30 9186 N 833.648 -1.19017 -1.03309 0
M  V30 9187 C 834.578 -0.94772 -2.13402 0
M  V30 9188 C 835.559 0.117383 -1.69694 0
M  V30 9189 O 836.744 -0.0367733 -1.94165 0
M  V30 9190 C 833.874 -0.480977 -3.43953 0
M  V30 9191 C 832.828 -1.48743 -4.01322 0
M  V30 9192 C 832.154 -0.877924 -5.27443 0
M  V30 9193 C 833.454 -2.86642 -4.36616 0
M  V30 9194 H 835.148 -1.86846 -2.33942 0
M  V30 9195 H 832.694 -0.899781 -1.12427 0
M  V30 9196 H 834.647 -0.298677 -4.2034 0
M  V30 9197 H 833.371 0.475348 -3.23122 0
M  V30 9198 H 832.03 -1.65681 -3.27025 0
M  V30 9199 H 831.678 0.0858232 -5.02927 0
M  V30 9200 H 831.378 -1.54996 -5.66789 0
M  V30 9201 H 832.902 -0.706326 -6.06501 0
M  V30 9202 H 834.316 -2.73312 -5.03958 0
M  V30 9203 H 832.713 -3.50599 -4.87032 0
M  V30 9204 H 833.783 -3.39617 -3.46105 0
M  V30 9205 N 835.127 1.22348 -0.993418 0
M  V30 9206 C 836.057 2.26584 -0.564088 0
M  V30 9207 C 837.038 1.65102 0.409298 0
M  V30 9208 O 838.223 1.91872 0.299819 0
M  V30 9209 C 835.353 3.47087 0.121554 0
M  V30 9210 C 834.307 4.21009 -0.770429 0
M  V30 9211 C 833.633 5.34678 0.0481586 0
M  V30 9212 C 834.933 4.79636 -2.06752 0
M  V30 9213 H 836.627 2.62749 -1.43538 0
M  V30 9214 H 834.173 1.26303 -0.691628 0
M  V30 9215 H 836.126 4.19166 0.433303 0
M  V30 9216 H 834.85 3.1002 1.0274 0
M  V30 9217 H 833.509 3.50764 -1.06583 0
M  V30 9218 H 833.157 4.93852 0.954933 0
M  V30 9219 H 832.857 5.85061 -0.545641 0
M  V30 9220 H 834.381 6.09573 0.353991 0
M  V30 9221 H 835.795 5.43654 -1.81969 0
M  V30 9222 H 834.192 5.4036 -2.61019 0
M  V30 9223 H 835.262 3.99659 -2.74592 0
M  V30 9224 N 836.605 0.766683 1.37694 0
M  V30 9225 C 837.852 0.328714 1.99814 0
M  V30 9226 C 838.18 -1.09333 1.60862 0
M  V30 9227 O 837.435 -1.7657 0.8439 0
M  V30 9228 C 837.734 0.413831 3.54996 0
M  V30 9229 C 837.4 1.7934 4.137 0
M  V30 9230 C 836.062 2.17092 4.29447 0
M  V30 9231 C 838.414 2.69776 4.45949 0
M  V30 9232 C 835.742 3.44726 4.74743 0
M  V30 9233 C 838.094 3.96814 4.92667 0
M  V30 9234 C 836.758 4.34618 5.0662 0
M  V30 9235 H 836.028 0.120285 0.731172 0
M  V30 9236 H 838.675 0.97972 1.64541 0
M  V30 9237 H 836.98 -0.320723 3.90485 0
M  V30 9238 H 838.677 0.0563369 4.0096 0
M  V30 9239 H 835.267 1.48997 4.01868 0
M  V30 9240 H 839.451 2.41871 4.33373 0
M  V30 9241 H 834.707 3.73917 4.83731 0
M  V30 9242 H 838.881 4.67022 5.16588 0
M  V30 9243 H 836.508 5.33578 5.41478 0
M  V30 9244 N 838.083 -1.48885 0.516809 0
M  V30 9245 C 839.013 -2.32241 -0.242157 0
M  V30 9246 C 839.994 -1.41258 -0.947633 0
M  V30 9247 O 841.179 -1.70156 -0.935973 0
M  V30 9248 C 838.309 -3.22151 -1.29754 0
M  V30 9249 C 837.263 -4.22053 -0.710995 0
M  V30 9250 C 836.589 -5.01007 -1.86806 0
M  V30 9251 C 837.889 -5.21388 0.30853 0
M  V30 9252 H 839.583 -2.95943 0.453651 0
M  V30 9253 H 837.129 -1.42316 0.219612 0
M  V30 9254 H 839.082 -3.79284 -1.83634 0
M  V30 9255 H 837.806 -2.56423 -2.02274 0
M  V30 9256 H 836.465 -3.66087 -0.193819 0
M  V30 9257 H 836.113 -4.31713 -2.58133 0
M  V30 9258 H 835.813 -5.68615 -1.48159 0
M  V30 9259 H 837.337 -5.60989 -2.4109 0
M  V30 9260 H 838.751 -5.73122 -0.142703 0
M  V30 9261 H 837.148 -5.96975 0.611673 0
M  V30 9262 H 838.218 -4.69329 1.21894 0
M  V30 9263 N 839.561 -0.251338 -1.55583 0
M  V30 9264 C 840.808 0.372169 -1.99051 0
M  V30 9265 C 841.136 1.57623 -1.13953 0
M  V30 9266 O 840.391 1.94762 -0.191398 0
M  V30 9267 C 840.69 0.821186 -3.47838 0
M  V30 9268 C 840.356 -0.275608 -4.50057 0
M  V30 9269 C 839.018 -0.57683 -4.7773 0
M  V30 9270 C 841.37 -1.01585 -5.11204 0
M  V30 9271 C 838.698 -1.62229 -5.63825 0
M  V30 9272 C 841.05 -2.05087 -5.98433 0
M  V30 9273 C 839.714 -2.35869 -6.24437 0
M  V30 9274 H 838.984 0.136186 -0.728378 0
M  V30 9275 H 841.631 -0.360089 -1.88084 0
M  V30 9276 H 839.936 1.63272 -3.56159 0
M  V30 9277 H 841.633 1.31396 -3.78861 0
M  V30 9278 H 838.223 -0.030697 -4.28589 0
M  V30 9279 H 842.407 -0.79639 -4.89869 0
M  V30 9280 H 837.663 -1.86607 -5.82226 0
M  V30 9281 H 841.837 -2.62934 -6.44855 0
M  V30 9282 H 839.464 -3.17017 -6.90944 0
M  V30 9283 N 841.039 1.57585 0.0217189 0
M  V30 9284 C 842.288 1.88786 0.710125 0
M  V30 9285 C 842.601 0.850819 1.76126 0
M  V30 9286 O 843.807 1.0523 2.50277 0
M  V30 9287 C 842.263 3.3505 1.31413 0
M  V30 9288 C 841.871 4.47001 0.298959 0
M  V30 9289 C 843.615 3.7539 1.98199 0
M  V30 9290 C 841.522 5.8433 0.911727 0
M  V30 9291 H 840.452 0.704388 0.268986 0
M  V30 9292 H 843.103 1.83466 -0.0352638 0
M  V30 9293 H 841.485 3.35138 2.10947 0
M  V30 9294 H 842.659 4.58395 -0.470203 0
M  V30 9295 H 840.974 4.15542 -0.267222 0
M  V30 9296 H 843.571 4.75314 2.4491 0
M  V30 9297 H 843.914 3.07766 2.80331 0
M  V30 9298 H 844.447 3.77508 1.2543 0
M  V30 9299 H 841.186 6.55372 0.129659 0
M  V30 9300 H 840.706 5.76643 1.65056 0
M  V30 9301 H 842.385 6.31295 1.41688 0
M  V30 9302 N 842.517 -0.29412 1.54831 0
M  V30 9303 C 843.763 -1.02999 1.74697 0
M  V30 9304 C 844.096 -1.86687 0.534949 0
M  V30 9305 O 843.371 -1.88789 -0.467863 0
M  V30 9306 C 843.654 -1.93024 3.03996 0
M  V30 9307 C 843.507 -1.1247 4.35512 0
M  V30 9308 C 844.826 -2.92085 3.29203 0
M  V30 9309 H 841.945 -0.373039 0.635618 0
M  V30 9310 H 844.587 -0.304065 1.87551 0
M  V30 9311 H 842.737 -2.5492 2.93169 0
M  V30 9312 H 844.409 -0.528067 4.58268 0
M  V30 9313 H 842.652 -0.427574 4.31688 0
M  V30 9314 H 843.323 -1.78728 5.22265 0
M  V30 9315 H 845.799 -2.40319 3.39685 0
M  V30 9316 H 844.675 -3.52234 4.20978 0
M  V30 9317 H 844.936 -3.66107 2.47827 0
M  V30 9318 N 843.995 -1.47404 -0.557645 0
M  V30 9319 C 845.244 -1.53268 -1.31118 0
M  V30 9320 C 845.557 -0.199414 -1.94581 0
M  V30 9321 O 846.763 -0.136039 -2.71159 0
M  V30 9322 C 845.219 -2.70178 -2.37764 0
M  V30 9323 C 844.827 -4.10032 -1.80493 0
M  V30 9324 C 846.571 -2.85334 -3.14301 0
M  V30 9325 C 844.478 -5.18244 -2.84916 0
M  V30 9326 H 843.408 -0.570491 -0.493007 0
M  V30 9327 H 846.059 -1.73678 -0.592308 0
M  V30 9328 H 844.441 -2.43147 -3.12563 0
M  V30 9329 H 845.615 -4.46964 -1.12069 0
M  V30 9330 H 843.93 -3.99759 -1.16542 0
M  V30 9331 H 846.527 -3.63347 -3.92279 0
M  V30 9332 H 846.87 -1.93761 -3.68459 0
M  V30 9333 H 847.403 -3.12133 -2.46613 0
M  V30 9334 H 844.142 -6.11691 -2.35614 0
M  V30 9335 H 843.662 -4.85829 -3.51753 0
M  V30 9336 H 845.341 -5.45174 -3.48417 0
M  V30 9337 N 845.473 0.80434 -1.35529 0
M  V30 9338 C 846.72 1.56154 -1.28927 0
M  V30 9339 C 847.048 1.94026 0.135682 0
M  V30 9340 O 846.303 1.61759 1.10148 0
M  V30 9341 C 846.602 2.85988 -2.14349 0
M  V30 9342 C 846.268 2.67323 -3.6311 0
M  V30 9343 C 844.93 2.61941 -4.03659 0
M  V30 9344 C 847.282 2.49699 -4.57493 0
M  V30 9345 C 844.61 2.3688 -5.36754 0
M  V30 9346 C 846.962 2.26168 -5.90788 0
M  V30 9347 C 845.626 2.19209 -6.30479 0
M  V30 9348 H 844.896 0.571407 -0.471779 0
M  V30 9349 H 847.543 0.929193 -1.67446 0
M  V30 9350 H 845.848 3.53612 -1.68718 0
M  V30 9351 H 847.545 3.43697 -2.06576 0
M  V30 9352 H 844.135 2.72361 -3.30934 0
M  V30 9353 H 848.319 2.52869 -4.27049 0
M  V30 9354 H 843.575 2.29964 -5.66504 0
M  V30 9355 H 847.749 2.11522 -6.63499 0
M  V30 9356 H 845.376 1.99553 -7.33541 0
M  V30 9357 N 846.951 1.19563 1.02676 0
M  V30 9358 C 847.914 0.937182 2.09164 0
M  V30 9359 C 848.914 -0.0831927 1.60585 0
M  V30 9360 O 850.104 0.15178 1.73538 0
M  V30 9361 C 847.236 0.408912 3.38439 0
M  V30 9362 H 848.429 1.88164 2.33526 0
M  V30 9363 H 845.982 1.00959 1.19319 0
M  V30 9364 H 846.717 -0.541497 3.19747 0
M  V30 9365 H 846.502 1.14464 3.7502 0
M  V30 9366 H 847.992 0.247242 4.16867 0
M  V30 9367 N 848.429 -1.21819 0.999893 0
M  V30 9368 C 849.359 -2.26282 0.576096 0
M  V30 9369 C 850.34 -1.65317 -0.400537 0
M  V30 9370 O 851.525 -1.92028 -0.28964 0
M  V30 9371 C 848.655 -3.47147 -0.103145 0
M  V30 9372 C 847.609 -4.20594 0.792745 0
M  V30 9373 C 846.935 -5.34696 -0.0198026 0
M  V30 9374 C 848.235 -4.78533 2.09293 0
M  V30 9375 H 849.929 -2.61984 1.4493 0
M  V30 9376 H 847.475 -1.25935 0.698316 0
M  V30 9377 H 849.428 -4.1939 -0.411068 0
M  V30 9378 H 848.152 -3.1056 -1.01094 0
M  V30 9379 H 846.811 -3.50194 1.08442 0
M  V30 9380 H 846.459 -4.94352 -0.928729 0
M  V30 9381 H 846.159 -5.84764 0.576661 0
M  V30 9382 H 847.683 -6.09752 -0.321659 0
M  V30 9383 H 849.097 -5.42682 1.8485 0
M  V30 9384 H 847.494 -5.38968 2.63881 0
M  V30 9385 H 848.564 -3.98197 2.76708 0
M  V30 9386 N 849.908 -0.773975 -1.37286 0
M  V30 9387 C 850.838 -0.175782 -2.32837 0
M  V30 9388 C 851.819 0.680603 -1.5589 0
M  V30 9389 O 853.004 0.617607 -1.84117 0
M  V30 9390 C 850.134 0.702388 -3.40123 0
M  V30 9391 C 849.088 -0.0528687 -4.27967 0
M  V30 9392 C 848.414 0.944891 -5.26285 0
M  V30 9393 C 849.714 -1.23316 -5.07534 0
M  V30 9394 H 851.408 -0.974016 -2.83114 0
M  V30 9395 H 848.954 -0.469826 -1.3612 0
M  V30 9396 H 850.907 1.13069 -4.05947 0
M  V30 9397 H 849.631 1.53316 -2.88378 0
M  V30 9398 H 848.29 -0.461978 -3.63678 0
M  V30 9399 H 847.938 1.77028 -4.70819 0
M  V30 9400 H 847.638 0.444079 -5.8592 0
M  V30 9401 H 849.162 1.37209 -5.94984 0
M  V30 9402 H 850.576 -0.881395 -5.66484 0
M  V30 9403 H 848.973 -1.66621 -5.76504 0
M  V30 9404 H 850.043 -2.03617 -4.40077 0
M  V30 9405 N 851.386 1.48609 -0.524698 0
M  V30 9406 C 852.634 2.02097 0.0112991 0
M  V30 9407 C 852.955 1.40455 1.35268 0
M  V30 9408 O 852.225 0.56807 1.87483 0
M  V30 9409 H 850.805 0.746966 0.00716426 0
M  V30 9410 H 853.467 1.82378 -0.687329 0
M  V30 9411 H 852.563 3.11855 0.123531 0
M  V30 9412 N 852.864 0.259585 1.55447 0
M  V30 9413 C 853.797 -0.675542 2.17972 0
M  V30 9414 C 854.775 -1.16362 1.13572 0
M  V30 9415 O 855.959 -1.23944 1.42021 0
M  V30 9416 C 853.086 -1.91952 2.79056 0
M  V30 9417 C 852.132 -1.56824 3.96621 0
M  V30 9418 S 852.965 -0.659846 5.31419 0
M  V30 9419 C 854.121 -1.91255 5.95963 0
M  V30 9420 H 854.354 -0.144236 2.9695 0
M  V30 9421 H 851.887 0.0439448 1.54337 0
M  V30 9422 H 853.845 -2.63362 3.14882 0
M  V30 9423 H 852.506 -2.42196 2 0
M  V30 9424 H 851.699 -2.49348 4.37997 0
M  V30 9425 H 851.301 -0.934472 3.62138 0
M  V30 9426 H 853.593 -2.85834 6.14252 0
M  V30 9427 H 854.536 -1.54207 6.91105 0
M  V30 9428 H 854.944 -2.07042 5.25161 0
M  V30 9429 N 854.342 -1.57594 -0.0133615 0
M  V30 9430 C 855.274 -2.04402 -1.03695 0
M  V30 9431 C 856.287 -0.959546 -1.31516 0
M  V30 9432 O 857.476 -1.23659 -1.28727 0
M  V30 9433 C 854.576 -2.41766 -2.37491 0
M  V30 9434 C 853.749 -3.72785 -2.28802 0
M  V30 9435 C 852.808 -3.97165 -3.45176 0
M  V30 9436 O 851.834 -4.68013 -3.23963 0
M  V30 9437 N 853.036 -3.44021 -4.67579 0
M  V30 9438 H 855.801 -2.92833 -0.637874 0
M  V30 9439 H 853.362 -1.60647 -0.20101 0
M  V30 9440 H 855.354 -2.55201 -3.14093 0
M  V30 9441 H 853.924 -1.58924 -2.69188 0
M  V30 9442 H 853.144 -3.69555 -1.37197 0
M  V30 9443 H 854.432 -4.58704 -2.20154 0
M  V30 9444 H 853.83 -2.86623 -4.87713 0
M  V30 9445 H 852.387 -3.62808 -5.41492 0
M  V30 9446 N 855.82 0.285905 -1.54985 0
M  V30 9447 C 856.75 1.35752 -1.89983 0
M  V30 9448 C 857.731 1.52163 -0.760295 0
M  V30 9449 O 858.916 1.65421 -1.01733 0
M  V30 9450 C 856.046 2.71925 -2.16042 0
M  V30 9451 C 855 2.70261 -3.31878 0
M  V30 9452 C 854.326 4.09864 -3.43388 0
M  V30 9453 C 855.626 2.30667 -4.68604 0
M  V30 9454 H 857.32 1.06709 -2.79738 0
M  V30 9455 H 854.866 0.511884 -1.34595 0
M  V30 9456 H 856.819 3.46992 -2.39113 0
M  V30 9457 H 855.543 3.02523 -1.23074 0
M  V30 9458 H 854.202 1.97651 -3.08755 0
M  V30 9459 H 853.85 4.37664 -2.47909 0
M  V30 9460 H 853.55 4.09648 -4.21262 0
M  V30 9461 H 855.074 4.86689 -3.68736 0
M  V30 9462 H 856.488 2.95453 -4.91305 0
M  V30 9463 H 854.885 2.41637 -5.49301 0
M  V30 9464 H 855.955 1.25793 -4.68299 0
M  V30 9465 N 857.298 1.47698 0.54982 0
M  V30 9466 C 858.545 1.54702 1.30665 0
M  V30 9467 C 858.873 0.212418 1.93337 0
M  V30 9468 O 858.128 -0.79543 1.78805 0
M  V30 9469 C 858.427 2.61903 2.4319 0
M  V30 9470 C 858.093 4.04953 1.98302 0
M  V30 9471 C 856.755 4.43893 1.85776 0
M  V30 9472 C 859.107 4.94682 1.64133 0
M  V30 9473 C 856.435 5.70387 1.37388 0
M  V30 9474 C 858.787 6.21646 1.17214 0
M  V30 9475 C 857.451 6.5946 1.0329 0
M  V30 9476 H 856.721 0.566096 0.478139 0
M  V30 9477 H 859.368 1.8133 0.615767 0
M  V30 9478 H 857.673 2.2906 3.17866 0
M  V30 9479 H 859.37 2.64543 3.0136 0
M  V30 9480 H 855.96 3.74191 2.08995 0
M  V30 9481 H 860.144 4.65291 1.72679 0
M  V30 9482 H 855.4 5.98427 1.25278 0
M  V30 9483 H 859.574 6.90581 0.898391 0
M  V30 9484 H 857.201 7.57367 0.655735 0
M  V30 9485 N 858.776 -0.797141 1.35954 0
M  V30 9486 C 860.024 -1.55161 1.29497 0
M  V30 9487 C 860.345 -1.94582 -0.127659 0
M  V30 9488 O 859.615 -1.64343 -1.06622 0
M  V30 9489 H 858.195 -0.575413 0.47635 0
M  V30 9490 H 860.857 -0.950282 1.70164 0
M  V30 9491 H 859.953 -2.46272 1.9172 0
M  V30 9492 N 860.254 -1.20106 -1.0204 0
M  V30 9493 C 861.502 -1.0069 -1.75231 0
M  V30 9494 C 861.823 0.462491 -1.89436 0
M  V30 9495 O 861.093 1.33455 -1.4341 0
M  V30 9496 H 859.673 -0.369576 -0.649171 0
M  V30 9497 H 862.335 -1.51149 -1.23044 0
M  V30 9498 H 861.431 -1.46205 -2.75736 0
M  V30 9499 N 861.732 1.21287 -1.00634 0
M  V30 9500 C 863.148 1.42467 -0.719389 0
M  V30 9501 C 863.348 1.88767 0.704927 0
M  V30 9502 O 862.404 2.05004 1.47409 0
M  V30 9503 C 863.717 2.455 -1.73639 0
M  V30 9504 C 865.265 2.59281 -1.75335 0
M  V30 9505 C 865.74 3.65547 -2.75934 0
M  V30 9506 N 867.231 3.73019 -2.74611 0
M  V30 9507 C 867.966 4.54873 -3.4911 0
M  V30 9508 N 867.462 5.40614 -4.33253 0
M  V30 9509 N 869.255 4.49309 -3.37754 0
M  V30 9510 H 861.406 0.895454 -1.92602 0
M  V30 9511 H 863.669 0.455491 -0.831404 0
M  V30 9512 H 863.375 2.18455 -2.75627 0
M  V30 9513 H 863.249 3.44325 -1.54014 0
M  V30 9514 H 865.636 2.85661 -0.740377 0
M  V30 9515 H 865.717 1.60685 -1.99032 0
M  V30 9516 H 865.361 3.39911 -3.77389 0
M  V30 9517 H 865.291 4.63741 -2.49503 0
M  V30 9518 H 867.782 3.11766 -2.13565 0
M  V30 9519 H 868.095 6.0013 -4.86892 0
M  V30 9520 H 866.44 5.40151 -4.37335 0
M  V30 9521 H 869.631 3.81357 -2.71449 0
M  V30 9522 H 869.804 5.12867 -3.9607 0
M  V30 9523 N 863.21 0.781244 1.36873 0
M  V30 9524 C 864.44 0.361042 2.03421 0
M  V30 9525 C 864.848 -1.02471 1.59048 0
M  V30 9526 O 864.191 -1.66712 0.771552 0
M  V30 9527 C 864.253 0.336202 3.57924 0
M  V30 9528 C 863.917 1.66815 4.25467 0
M  V30 9529 C 864.914 2.62224 4.48926 0
M  V30 9530 C 862.599 1.9452 4.63106 0
M  V30 9531 C 864.593 3.83538 5.09095 0
M  V30 9532 C 862.28 3.16103 5.22994 0
M  V30 9533 C 863.278 4.10431 5.45926 0
M  V30 9534 O 862.966 5.29871 6.04559 0
M  V30 9535 H 862.698 0.147956 0.65961 0
M  V30 9536 H 865.252 1.05895 1.75998 0
M  V30 9537 H 863.482 -0.418147 3.84433 0
M  V30 9538 H 865.171 -0.0582199 4.05858 0
M  V30 9539 H 865.937 2.42104 4.20251 0
M  V30 9540 H 861.816 1.21921 4.44585 0
M  V30 9541 H 865.36 4.57178 5.2691 0
M  V30 9542 H 861.257 3.36104 5.51094 0
M  V30 9543 H 862.025 5.30825 6.23031 0
M  V30 9544 N 864.689 -1.48329 0.532571 0
M  V30 9545 C 865.966 -1.95492 -0.0650985 0
M  V30 9546 C 866.346 -1.47485 -1.51034 0
M  V30 9547 O 865.694 -0.702516 -2.17433 0
M  V30 9548 C 865.904 -3.48957 0.0548341 0
M  V30 9549 C 867.252 -4.24475 -0.103115 0
M  V30 9550 O 868.276 -3.56195 -0.0188343 0
M  V30 9551 O 867.135 -5.45781 -0.280164 0
M  V30 9552 H 864.229 -0.823327 -0.0778603 0
M  V30 9553 H 866.775 -1.58839 0.597353 0
M  V30 9554 H 865.547 -3.76628 1.06148 0
M  V30 9555 H 865.17 -3.92311 -0.64635 0
M  V30 9556 N 866.167 -0.267825 -1.55308 0
M  V30 9557 C 867.414 0.351036 -1.99434 0
M  V30 9558 C 867.742 1.56406 -1.15618 0
M  V30 9559 O 866.997 1.94548 -0.212045 0
M  V30 9560 C 867.296 0.784247 -3.48689 0
M  V30 9561 C 866.962 -0.323328 -4.49739 0
M  V30 9562 C 865.624 -0.627467 -4.77091 0
M  V30 9563 C 867.976 -1.07002 -5.10098 0
M  V30 9564 C 865.304 -1.682 -5.62073 0
M  V30 9565 C 867.656 -2.11422 -5.96224 0
M  V30 9566 C 866.32 -2.42479 -6.21901 0
M  V30 9567 H 865.59 0.128453 -0.729781 0
M  V30 9568 H 868.237 -0.380018 -1.87692 0
M  V30 9569 H 866.542 1.59485 -3.57871 0
M  V30 9570 H 868.239 1.2737 -3.80234 0
M  V30 9571 H 864.829 -0.0761528 -4.28532 0
M  V30 9572 H 869.013 -0.848302 -4.88996 0
M  V30 9573 H 864.269 -1.92772 -5.80215 0
M  V30 9574 H 868.443 -2.69759 -6.4203 0
M  V30 9575 H 866.07 -3.24328 -6.87543 0
M  V30 9576 N 867.645 1.57599 0.00500368 0
M  V30 9577 C 868.555 2.11532 1.01446 0
M  V30 9578 C 869.571 1.05941 1.3803 0
M  V30 9579 O 870.747 1.37815 1.46864 0
M  V30 9580 C 867.812 2.60382 2.28915 0
M  V30 9581 C 866.873 3.80554 1.98689 0
M  V30 9582 C 866.106 4.27064 3.20081 0
M  V30 9583 O 866.329 3.72939 4.31593 0
M  V30 9584 O 865.263 5.1927 3.04371 0
M  V30 9585 H 869.089 2.97993 0.586011 0
M  V30 9586 H 866.674 1.47718 0.223519 0
M  V30 9587 H 868.556 2.92024 3.03809 0
M  V30 9588 H 867.231 1.77022 2.71007 0
M  V30 9589 H 866.138 3.53893 1.21286 0
M  V30 9590 H 867.471 4.64972 1.61437 0
M  V30 9591 N 869.123 -0.277682 1.55134 0
M  V30 9592 C 870.4 -1.0309 1.66228 0
M  V30 9593 C 870.78 -2.0445 0.525701 0
M  V30 9594 O 870.128 -2.23512 -0.474816 0
M  V30 9595 C 870.338 -1.6919 3.05247 0
M  V30 9596 C 871.686 -2.20526 3.62841 0
M  V30 9597 O 872.71 -1.79185 3.07849 0
M  V30 9598 O 871.569 -2.96342 4.59177 0
M  V30 9599 H 868.663 -0.4779 0.674937 0
M  V30 9600 H 871.209 -0.273912 1.67475 0
M  V30 9601 H 869.981 -0.957163 3.79413 0
M  V30 9602 H 869.604 -2.51587 3.07879 0
M  V30 9603 N 870.601 -1.47988 -0.541979 0
M  V30 9604 C 871.829 -1.59034 -1.32347 0
M  V30 9605 C 872.244 -0.246123 -1.87189 0
M  V30 9606 O 871.601 0.762889 -1.6579 0
M  V30 9607 C 871.652 -2.62759 -2.48274 0
M  V30 9608 O 871.373 -3.91963 -1.95695 0
M  V30 9609 C 872.874 -2.84133 -3.4027 0
M  V30 9610 H 870.094 -0.536574 -0.402901 0
M  V30 9611 H 872.638 -1.93725 -0.655045 0
M  V30 9612 H 870.793 -2.3096 -3.11025 0
M  V30 9613 H 871.207 -4.48769 -2.7149 0
M  V30 9614 H 872.681 -3.60538 -4.17991 0
M  V30 9615 H 873.158 -1.92512 -3.9476 0
M  V30 9616 H 873.764 -3.17188 -2.83322 0
M  V30 9617 N 872.079 0.78992 -1.36375 0
M  V30 9618 C 872.989 1.93386 -1.32812 0
M  V30 9619 C 874.005 1.72468 -0.230377 0
M  V30 9620 O 875.181 1.96014 -0.462657 0
M  V30 9621 C 872.246 3.2824 -1.11621 0
M  V30 9622 C 871.307 3.61939 -2.30865 0
M  V30 9623 C 870.54 4.90359 -2.10675 0
M  V30 9624 O 870.763 5.6005 -1.08168 0
M  V30 9625 O 869.697 5.22702 -2.9844 0
M  V30 9626 H 873.523 1.99342 -2.29121 0
M  V30 9627 H 871.108 0.9301 -1.16917 0
M  V30 9628 H 872.99 4.08939 -1.01719 0
M  V30 9629 H 871.665 3.23178 -0.183732 0
M  V30 9630 H 870.572 2.81549 -2.46335 0
M  V30 9631 H 871.905 3.71725 -3.22617 0
M  V30 9632 N 873.557 1.20646 1.01402 0
M  V30 9633 C 874.803 1.0197 1.753 0
M  V30 9634 C 875.136 -0.446803 1.8899 0
M  V30 9635 O 874.411 -1.33169 1.41762 0
M  V30 9636 C 874.694 1.70693 3.17074 0
M  V30 9637 C 874.547 3.24805 3.11162 0
M  V30 9638 C 875.866 1.44212 4.15802 0
M  V30 9639 H 872.985 0.371844 0.636318 0
M  V30 9640 H 875.627 1.48696 1.18277 0
M  V30 9641 H 873.777 1.30968 3.65759 0
M  V30 9642 H 875.449 3.73841 2.70261 0
M  V30 9643 H 873.692 3.55576 2.48492 0
M  V30 9644 H 874.363 3.68049 4.11393 0
M  V30 9645 H 876.839 1.7868 3.75783 0
M  V30 9646 H 875.715 1.94825 5.13161 0
M  V30 9647 H 875.976 0.370252 4.40547 0
M  V30 9648 N 875.035 -1.20752 1.01276 0
M  V30 9649 C 876.451 -1.42084 0.726934 0
M  V30 9650 C 876.651 -1.89138 -0.694907 0
M  V30 9651 O 875.707 -2.05783 -1.4632 0
M  V30 9652 C 877.02 -2.44575 1.74938 0
M  V30 9653 C 878.568 -2.58347 1.76708 0
M  V30 9654 C 879.043 -3.64078 2.77869 0
M  V30 9655 N 880.534 -3.71558 2.76585 0
M  V30 9656 C 881.269 -4.53016 3.51517 0
M  V30 9657 N 880.765 -5.38309 4.36114 0
M  V30 9658 N 882.558 -4.47512 3.40132 0
M  V30 9659 H 874.709 -0.885228 1.93074 0
M  V30 9660 H 876.972 -0.451075 0.833808 0
M  V30 9661 H 876.678 -2.1699 2.76782 0
M  V30 9662 H 876.552 -3.43503 1.55838 0
M  V30 9663 H 878.939 -2.85265 0.755516 0
M  V30 9664 H 879.02 -1.59628 1.99882 0
M  V30 9665 H 878.664 -3.37905 3.79187 0
M  V30 9666 H 878.594 -4.62412 2.51958 0
M  V30 9667 H 881.085 -3.10629 2.15216 0
M  V30 9668 H 881.398 -5.9754 4.90068 0
M  V30 9669 H 879.743 -5.37824 4.40194 0
M  V30 9670 H 882.934 -3.79912 2.73467 0
M  V30 9671 H 883.107 -5.10759 3.98784 0
M  V30 9672 N 876.513 -0.788492 -1.36457 0
M  V30 9673 C 877.929 -0.470063 -1.52521 0
M  V30 9674 C 878.129 1.01176 -1.74258 0
M  V30 9675 O 877.185 1.79726 -1.77355 0
M  V30 9676 C 878.498 -1.2997 -2.71161 0
M  V30 9677 C 880.046 -1.2933 -2.85031 0
M  V30 9678 C 880.521 -2.10665 -4.06674 0
M  V30 9679 N 882.012 -2.08107 -4.13819 0
M  V30 9680 C 882.747 -2.6781 -5.07016 0
M  V30 9681 N 882.243 -3.36369 -6.05663 0
M  V30 9682 N 884.036 -2.57549 -4.99625 0
M  V30 9683 H 876.187 -1.7484 -1.20602 0
M  V30 9684 H 878.45 -0.743159 -0.588574 0
M  V30 9685 H 878.156 -2.35051 -2.61618 0
M  V30 9686 H 878.03 -0.940367 -3.6529 0
M  V30 9687 H 880.417 -0.250414 -2.94036 0
M  V30 9688 H 880.498 -1.69239 -1.91812 0
M  V30 9689 H 880.142 -3.14984 -3.98431 0
M  V30 9690 H 880.072 -1.68128 -4.9904 0
M  V30 9691 H 882.563 -1.58208 -3.43189 0
M  V30 9692 H 882.876 -3.79258 -6.73338 0
M  V30 9693 H 881.221 -3.40471 -6.05891 0
M  V30 9694 H 884.412 -2.0359 -4.21508 0
M  V30 9695 H 884.585 -3.0437 -5.72069 0
M  V30 9696 N 877.991 1.48044 -0.54043 0
M  V30 9697 C 879.216 2.07396 -0.0124765 0
M  V30 9698 C 879.641 1.39288 1.26414 0
M  V30 9699 O 878.999 0.462252 1.75308 0
M  V30 9700 C 879.047 3.60131 0.18377 0
M  V30 9701 O 878.151 3.92995 1.25014 0
M  V30 9702 H 877.492 0.662554 -0.0438026 0
M  V30 9703 H 880.022 1.90306 -0.751327 0
M  V30 9704 H 880.032 4.06003 0.403197 0
M  V30 9705 H 878.707 4.09105 -0.74874 0
M  V30 9706 H 877.284 3.5889 1.01254 0
M  V30 9707 N 879.47 0.276058 1.55163 0
M  V30 9708 C 880.418 -0.626978 2.2399 0
M  V30 9709 C 881.412 -1.15708 1.23725 0
M  V30 9710 O 882.618 -1.1106 1.41653 0
M  V30 9711 H 878.993 -0.220742 0.718872 0
M  V30 9712 H 880.964 -0.0236569 2.98391 0
M  V30 9713 C 879.713 -1.79935 2.97521 0
M  V30 9714 H 879.036 -1.40064 3.74463 0
M  V30 9715 H 880.476 -2.40781 3.48999 0
M  V30 9716 C 878.935 -2.68838 2.03046 0
M  V30 9717 O 879.465 -3.69224 1.58229 0
M  V30 9718 N 877.671 -2.36028 1.69527 0
M  V30 9719 H 877.218 -1.54442 2.06169 0
M  V30 9720 H 877.176 -2.95782 1.06586 0
M  V30 9721 N 880.948 -1.576 0.00335426 0
M  V30 9722 C 882.195 -1.90713 -0.680791 0
M  V30 9723 C 882.523 -0.877263 -1.73592 0
M  V30 9724 O 881.778 0.117497 -1.95347 0
M  V30 9725 C 882.077 -3.3058 -1.35837 0
M  V30 9726 C 881.743 -4.48786 -0.436111 0
M  V30 9727 C 880.405 -4.80855 -0.182195 0
M  V30 9728 C 882.757 -5.20821 0.198677 0
M  V30 9729 C 880.085 -5.8233 0.714747 0
M  V30 9730 C 882.437 -6.23252 1.08351 0
M  V30 9731 C 881.101 -6.53776 1.34658 0
M  V30 9732 H 880.371 -0.697869 -0.249119 0
M  V30 9733 H 883.018 -1.91407 0.0596011 0
M  V30 9734 H 881.323 -3.26026 -2.17289 0
M  V30 9735 H 883.02 -3.53462 -1.89383 0
M  V30 9736 H 879.61 -4.23731 -0.644186 0
M  V30 9737 H 883.794 -4.96298 0.0155259 0
M  V30 9738 H 879.05 -6.04339 0.926529 0
M  V30 9739 H 883.224 -6.78199 1.58172 0
M  V30 9740 H 880.851 -7.32225 2.04328 0
M  V30 9741 N 882.426 0.269451 -1.5528 0
M  V30 9742 C 883.703 1.02207 -1.66773 0
M  V30 9743 C 884.083 2.04168 -0.536536 0
M  V30 9744 O 883.431 2.23761 0.462956 0
M  V30 9745 C 883.641 1.67569 -3.0614 0
M  V30 9746 C 884.989 2.18599 -3.64005 0
M  V30 9747 O 886.013 1.7755 -3.08795 0
M  V30 9748 O 884.872 2.93903 -4.60742 0
M  V30 9749 H 881.966 0.474314 -0.677462 0
M  V30 9750 H 884.512 0.265026 -1.67618 0
M  V30 9751 H 883.284 0.937029 -3.79915 0
M  V30 9752 H 882.907 2.49951 -3.09209 0
M  V30 9753 N 883.904 1.48273 0.534124 0
M  V30 9754 C 884.852 1.62926 1.66005 0
M  V30 9755 C 885.846 0.495814 1.61982 0
M  V30 9756 O 887.052 0.6744 1.66889 0
M  V30 9757 H 883.427 0.513163 0.549698 0
M  V30 9758 H 885.398 2.57498 1.50789 0
M  V30 9759 C 884.147 1.68231 3.04292 0
M  V30 9760 H 883.47 2.54807 3.0808 0
M  V30 9761 H 884.91 1.82528 3.827 0
M  V30 9762 C 883.369 0.420154 3.3427 0
M  V30 9763 O 883.899 -0.468769 3.98955 0
M  V30 9764 N 882.105 0.293115 2.89118 0
M  V30 9765 H 881.652 1.01745 2.36655 0
M  V30 9766 H 881.61 -0.550376 3.09545 0
M  V30 9767 N 885.382 -0.782676 1.36792 0
M  V30 9768 C 886.629 -1.54083 1.31395 0
M  V30 9769 C 886.957 -1.94217 -0.104797 0
M  V30 9770 O 886.212 -1.63491 -1.0756 0
M  V30 9771 C 886.511 -2.82542 2.18872 0
M  V30 9772 C 886.177 -2.61512 3.67317 0
M  V30 9773 C 884.839 -2.55486 4.07775 0
M  V30 9774 C 887.191 -2.42389 4.61407 0
M  V30 9775 C 884.519 -2.28311 5.40454 0
M  V30 9776 C 886.871 -2.1674 5.94312 0
M  V30 9777 C 885.535 -2.09151 6.33887 0
M  V30 9778 H 884.805 -0.563829 0.48081 0
M  V30 9779 H 887.452 -0.902436 1.68903 0
M  V30 9780 H 885.757 -3.50883 1.74323 0
M  V30 9781 H 887.454 -3.40367 2.12017 0
M  V30 9782 H 884.044 -2.67062 3.35225 0
M  V30 9783 H 888.228 -2.46043 4.31018 0
M  V30 9784 H 883.484 -2.20922 5.70091 0
M  V30 9785 H 887.658 -2.0094 6.6678 0
M  V30 9786 H 885.285 -1.87857 7.36623 0
M  V30 9787 N 886.86 -1.21182 -1.00761 0
M  V30 9788 C 888.271 -1.02652 -1.55947 0
M  V30 9789 C 888.622 0.414466 -1.91772 0
M  V30 9790 O 887.747 1.29727 -1.73204 0
M  V30 9791 C 888.342 -1.85713 -2.83366 0
M  V30 9792 C 886.901 -1.71523 -3.35048 0
M  V30 9793 C 886.048 -1.83087 -2.08265 0
M  V30 9794 H 888.999 -1.35242 -0.830379 0
M  V30 9795 H 889.02 -1.36583 -3.55141 0
M  V30 9796 H 888.532 -2.90584 -2.5726 0
M  V30 9797 H 886.633 -0.693257 -3.66094 0
M  V30 9798 H 886.746 -2.53333 -4.06644 0
M  V30 9799 H 885.11 -1.26367 -2.21141 0
M  V30 9800 H 885.893 -2.8946 -1.84575 0
M  V30 9801 N 888.338 1.20213 -1.01915 0
M  V30 9802 C 889.27 2.2251 -0.549725 0
M  V30 9803 C 890.283 1.58558 0.369235 0
M  V30 9804 O 891.472 1.77715 0.167176 0
M  V30 9805 C 888.572 3.38189 0.219432 0
M  V30 9806 C 887.745 4.31729 -0.702066 0
M  V30 9807 C 886.804 5.26196 0.0199624 0
M  V30 9808 O 885.83 5.65993 -0.60339 0
M  V30 9809 N 887.032 5.65895 1.29397 0
M  V30 9810 H 889.797 2.63412 -1.42948 0
M  V30 9811 H 887.358 1.3478 -0.896987 0
M  V30 9812 H 889.35 3.98392 0.711763 0
M  V30 9813 H 887.92 2.96156 1.00051 0
M  V30 9814 H 887.14 3.69455 -1.37466 0
M  V30 9815 H 888.428 4.91145 -1.3287 0
M  V30 9816 H 887.826 5.35579 1.8213 0
M  V30 9817 H 886.383 6.28395 1.73098 0
M  V30 9818 N 889.816 0.795718 1.36037 0
M  V30 9819 C 890.779 0.204318 2.28287 0
M  V30 9820 C 891.779 -0.602017 1.49105 0
M  V30 9821 O 892.969 -0.422089 1.69009 0
M  V30 9822 C 890.101 -0.716431 3.33287 0
M  V30 9823 H 891.294 1.01781 2.821 0
M  V30 9824 H 888.847 0.565588 1.45708 0
M  V30 9825 H 889.582 -1.55403 2.84641 0
M  V30 9826 H 889.367 -0.140096 3.9185 0
M  V30 9827 H 890.857 -1.12488 4.02164 0
M  V30 9828 N 891.294 -1.47756 0.548274 0
M  V30 9829 C 892.224 -2.32702 -0.19284 0
M  V30 9830 C 893.205 -1.43237 -0.917457 0
M  V30 9831 O 894.39 -1.72103 -0.89967 0
M  V30 9832 C 891.52 -3.24831 -1.22891 0
M  V30 9833 C 890.474 -4.23466 -0.621312 0
M  V30 9834 C 889.8 -5.04856 -1.76137 0
M  V30 9835 C 891.1 -5.20616 0.419055 0
M  V30 9836 H 892.794 -2.94914 0.516323 0
M  V30 9837 H 890.34 -1.41818 0.24975 0
M  V30 9838 H 892.293 -3.83094 -1.75547 0
M  V30 9839 H 891.017 -2.60656 -1.9679 0
M  V30 9840 H 889.676 -3.66416 -0.116123 0
M  V30 9841 H 889.324 -4.37091 -2.48918 0
M  V30 9842 H 889.024 -5.71629 -1.36065 0
M  V30 9843 H 890.548 -5.65976 -2.29136 0
M  V30 9844 H 891.962 -5.73296 -0.0211034 0
M  V30 9845 H 890.359 -5.95543 0.738163 0
M  V30 9846 H 891.429 -4.66638 1.31822 0
M  V30 9847 N 892.772 -0.284283 -1.55015 0
M  V30 9848 C 894.021 0.33055 -1.98973 0
M  V30 9849 C 894.334 1.56284 -1.17621 0
M  V30 9850 O 895.54 2.2512 -1.51767 0
M  V30 9851 C 893.996 0.639457 -3.54174 0
M  V30 9852 C 893.604 -0.573543 -4.44313 0
M  V30 9853 C 895.348 1.21641 -4.06699 0
M  V30 9854 C 893.255 -0.238715 -5.90918 0
M  V30 9855 H 892.185 0.127285 -0.743179 0
M  V30 9856 H 894.836 -0.390372 -1.793 0
M  V30 9857 H 893.218 1.41953 -3.69683 0
M  V30 9858 H 894.392 -1.3502 -4.40575 0
M  V30 9859 H 892.707 -1.06797 -4.02472 0
M  V30 9860 H 895.304 1.48088 -5.13784 0
M  V30 9861 H 895.647 2.15328 -3.56286 0
M  V30 9862 H 896.18 0.498422 -3.94665 0
M  V30 9863 H 892.919 -1.1437 -6.45445 0
M  V30 9864 H 892.439 0.500997 -5.97704 0
M  V30 9865 H 894.118 0.165774 -6.46788 0
M  V30 9866 N 894.251 1.57596 -0.0117121 0
M  V30 9867 C 895.476 1.95764 0.684938 0
M  V30 9868 C 895.901 0.887285 1.65858 0
M  V30 9869 O 895.259 -0.153508 1.80649 0
M  V30 9870 C 895.307 3.33031 1.38285 0
M  V30 9871 O 894.411 3.28163 2.49765 0
M  V30 9872 H 893.752 0.638767 0.181309 0
M  V30 9873 H 896.282 2.04486 -0.0683883 0
M  V30 9874 H 896.292 3.68866 1.74362 0
M  V30 9875 H 894.967 4.10483 0.669043 0
M  V30 9876 H 893.544 3.04021 2.15929 0
M  V30 9877 N 895.729 -0.261212 1.5542 0
M  V30 9878 C 896.975 -0.992699 1.76843 0
M  V30 9879 C 897.308 -1.8551 0.574428 0
M  V30 9880 O 896.583 -1.89739 -0.427713 0
M  V30 9881 C 896.866 -1.86532 3.08022 0
M  V30 9882 C 896.719 -1.03206 4.378 0
M  V30 9883 C 898.038 -2.85036 3.35324 0
M  V30 9884 H 895.157 -0.359473 0.643388 0
M  V30 9885 H 897.799 -0.264214 1.88154 0
M  V30 9886 H 895.949 -2.48644 2.9851 0
M  V30 9887 H 897.621 -0.430743 4.59285 0
M  V30 9888 H 895.864 -0.335911 4.32497 0
M  V30 9889 H 896.535 -1.6761 5.25938 0
M  V30 9890 H 899.011 -2.3306 3.44706 0
M  V30 9891 H 897.887 -3.43226 4.28354 0
M  V30 9892 H 898.148 -3.60768 2.55537 0
M  V30 9893 N 897.207 -1.48554 -0.526253 0
M  V30 9894 C 898.454 -1.56761 -1.28188 0
M  V30 9895 C 898.782 -0.24315 -1.92974 0
M  V30 9896 O 898.037 0.766883 -1.80048 0
M  V30 9897 C 898.336 -2.65739 -2.38993 0
M  V30 9898 C 898.002 -4.08057 -1.91834 0
M  V30 9899 C 896.664 -4.46792 -1.78691 0
M  V30 9900 C 899.016 -4.9723 -1.56242 0
M  V30 9901 C 896.344 -5.72501 -1.28296 0
M  V30 9902 C 898.696 -6.23432 -1.07309 0
M  V30 9903 C 897.36 -6.6102 -0.927853 0
M  V30 9904 H 896.63 -0.573631 -0.469072 0
M  V30 9905 H 899.277 -1.82287 -0.586842 0
M  V30 9906 H 897.582 -2.34088 -3.14181 0
M  V30 9907 H 899.279 -2.69304 -2.97113 0
M  V30 9908 H 895.869 -3.77469 -2.03016 0
M  V30 9909 H 900.053 -4.67979 -1.65255 0
M  V30 9910 H 895.309 -6.00345 -1.15742 0
M  V30 9911 H 899.483 -6.91923 -0.788412 0
M  V30 9912 H 897.11 -7.58314 -0.535162 0
M  V30 9913 N 898.685 0.775411 -1.37205 0
M  V30 9914 C 899.617 1.89761 -1.28544 0
M  V30 9915 C 900.63 1.61542 -0.201996 0
M  V30 9916 O 901.819 1.72528 -0.457848 0
M  V30 9917 C 898.919 3.24904 -0.963885 0
M  V30 9918 C 898.092 3.80796 -2.15205 0
M  V30 9919 C 897.151 4.94407 -1.80135 0
M  V30 9920 O 896.177 5.10185 -2.52388 0
M  V30 9921 N 897.379 5.75722 -0.743298 0
M  V30 9922 H 900.144 1.97708 -2.25237 0
M  V30 9923 H 897.705 0.954348 -1.30782 0
M  V30 9924 H 899.697 3.9842 -0.710182 0
M  V30 9925 H 898.267 3.12483 -0.085632 0
M  V30 9926 H 897.487 2.99101 -2.56773 0
M  V30 9927 H 898.775 4.1487 -2.94552 0
M  V30 9928 H 898.173 5.65518 -0.143655 0
M  V30 9929 H 896.73 6.4948 -0.549446 0
M  V30 9930 N 900.163 1.21714 1.00117 0
M  V30 9931 C 901.409 1.03823 1.74208 0
M  V30 9932 C 901.742 -0.426733 1.89454 0
M  V30 9933 O 901.017 -1.31658 1.43166 0
M  V30 9934 C 901.3 1.74047 3.15246 0
M  V30 9935 C 901.153 3.28087 3.077 0
M  V30 9936 C 902.472 1.48614 4.14249 0
M  V30 9937 H 899.591 0.378573 0.632338 0
M  V30 9938 H 902.233 1.49942 1.16694 0
M  V30 9939 H 900.383 1.3484 3.64349 0
M  V30 9940 H 902.055 3.76686 2.6628 0
M  V30 9941 H 900.298 3.58191 2.44707 0
M  V30 9942 H 900.969 3.72392 4.07466 0
M  V30 9943 H 903.445 1.82656 3.73866 0
M  V30 9944 H 902.321 2.00257 5.11066 0
M  V30 9945 H 902.582 0.416957 4.40129 0
M  V30 9946 N 901.641 -1.19671 1.02551 0
M  V30 9947 C 902.571 -2.25009 0.623965 0
M  V30 9948 C 903.552 -1.66129 -0.36538 0
M  V30 9949 O 904.737 -1.92599 -0.248842 0
M  V30 9950 C 901.867 -3.47287 -0.0294869 0
M  V30 9951 C 900.821 -4.18818 0.881781 0
M  V30 9952 C 900.147 -5.34618 0.0936189 0
M  V30 9953 C 901.447 -4.73986 2.19396 0
M  V30 9954 H 903.141 -2.58851 1.50454 0
M  V30 9955 H 900.687 -1.24425 0.724872 0
M  V30 9956 H 902.64 -4.20168 -0.322016 0
M  V30 9957 H 901.364 -3.12635 -0.944838 0
M  V30 9958 H 900.023 -3.47815 1.15845 0
M  V30 9959 H 899.671 -4.9621 -0.823661 0
M  V30 9960 H 899.371 -5.83409 0.700568 0
M  V30 9961 H 900.895 -6.10297 -0.192249 0
M  V30 9962 H 902.309 -5.38639 1.96319 0
M  V30 9963 H 900.706 -5.3325 2.75254 0
M  V30 9964 H 901.776 -3.92238 2.85092 0
M  V30 9965 N 903.119 -0.802921 -1.35613 0
M  V30 9966 C 904.347 -0.39393 -2.03115 0
M  V30 9967 C 904.762 0.993961 -1.60517 0
M  V30 9968 O 904.119 1.63984 -0.800973 0
M  V30 9969 C 904.17 -0.463486 -3.58516 0
M  V30 9970 O 903.891 -1.79666 -3.99565 0
M  V30 9971 C 905.392 -0.0468377 -4.43275 0
M  V30 9972 H 902.612 -0.160519 -0.651517 0
M  V30 9973 H 905.156 -1.08552 -1.73311 0
M  V30 9974 H 903.311 0.179821 -3.86982 0
M  V30 9975 H 903.725 -1.75688 -4.942 0
M  V30 9976 H 905.199 -0.146626 -5.51805 0
M  V30 9977 H 905.676 1.00741 -4.2749 0
M  V30 9978 H 906.282 -0.663158 -4.20098 0
M  V30 9979 N 904.597 1.47463 -0.556102 0
M  V30 9980 C 905.845 2.02075 -0.0315712 0
M  V30 9981 C 906.166 1.43292 1.32259 0
M  V30 9982 O 905.436 0.60771 1.86236 0
M  V30 9983 H 904.016 0.74695 -0.0086816 0
M  V30 9984 H 906.678 1.80879 -0.725859 0
M  V30 9985 H 905.774 3.12047 0.0573538 0
M  V30 9986 N 906.075 0.2925 1.54862 0
M  V30 9987 C 906.985 -0.597036 2.26876 0
M  V30 9988 C 908.001 -1.15558 1.30086 0
M  V30 9989 O 909.177 -1.18217 1.63054 0
M  V30 9990 C 906.242 -1.75664 2.98903 0
M  V30 9991 C 905.303 -1.23303 4.11212 0
M  V30 9992 C 904.536 -2.33736 4.79795 0
M  V30 9993 O 904.759 -3.53459 4.47686 0
M  V30 9994 O 903.693 -2.00908 5.67379 0
M  V30 9995 H 907.519 -0.0131242 3.03697 0
M  V30 9996 H 905.104 0.0592642 1.49282 0
M  V30 9997 H 906.986 -2.43241 3.4411 0
M  V30 9998 H 905.661 -2.32731 2.24984 0
M  V30 9999 H 904.568 -0.523222 3.70423 0
M  V30 10000 H 905.901 -0.707887 4.87083 0
M  V30 10001 N 907.553 -1.57587 0.0200696 0
M  V30 10002 C 908.83 -1.82696 -0.698677 0
M  V30 10003 C 909.21 -0.902082 -1.90855 0
M  V30 10004 O 908.558 0.0444834 -2.28457 0
M  V30 10005 C 908.768 -3.31691 -1.08546 0
M  V30 10006 C 910.116 -3.97938 -1.4809 0
M  V30 10007 O 911.14 -3.36133 -1.17869 0
M  V30 10008 O 909.999 -5.06851 -2.04364 0
M  V30 10009 H 907.093 -0.752997 -0.341942 0
M  V30 10010 H 909.639 -1.69635 0.04706 0
M  V30 10011 H 908.411 -3.90659 -0.223956 0
M  V30 10012 H 908.034 -3.49825 -1.88965 0
M  V30 10013 N 909.032 0.252966 -1.55557 0
M  V30 10014 C 910.278 0.979092 -1.78284 0
M  V30 10015 C 910.633 1.83194 -0.588009 0
M  V30 10016 O 909.926 1.86965 0.418899 0
M  V30 10017 C 910.12 1.87785 -3.04091 0
M  V30 10018 C 909.949 1.11349 -4.35697 0
M  V30 10019 C 908.719 0.821038 -4.98585 0
M  V30 10020 C 910.917 0.494039 -5.11922 0
M  V30 10021 N 908.899 0.0319767 -6.13892 0
M  V30 10022 C 910.27 -0.159888 -6.19794 0
M  V30 10023 C 912.325 0.403894 -4.96259 0
M  V30 10024 C 911.028 -0.895295 -7.13706 0
M  V30 10025 C 913.054 -0.317968 -5.90545 0
M  V30 10026 C 912.416 -0.960555 -6.9782 0
M  V30 10027 H 908.515 0.339586 -0.704419 0
M  V30 10028 H 911.099 0.252801 -1.93052 0
M  V30 10029 H 909.27 2.57623 -2.90663 0
M  V30 10030 H 911.002 2.53908 -3.15139 0
M  V30 10031 H 907.757 1.13132 -4.59889 0
M  V30 10032 H 908.181 -0.35047 -6.76092 0
M  V30 10033 H 912.823 0.886366 -4.13405 0
M  V30 10034 H 910.541 -1.38939 -7.96066 0
M  V30 10035 H 914.127 -0.388302 -5.80503 0
M  V30 10036 H 913.007 -1.51022 -7.69521 0
M  V30 10037 N 910.51 1.48831 0.518367 0
M  V30 10038 C 911.738 1.6112 1.298 0
M  V30 10039 C 912.153 0.275872 1.86774 0
M  V30 10040 O 911.51 -0.736416 1.66983 0
M  V30 10041 C 911.561 2.66675 2.44063 0
M  V30 10042 O 911.282 3.95027 1.89434 0
M  V30 10043 C 912.783 2.8951 3.35706 0
M  V30 10044 H 910.003 0.542916 0.394314 0
M  V30 10045 H 912.547 1.94743 0.624142 0
M  V30 10046 H 910.702 2.35879 3.07311 0
M  V30 10047 H 911.116 4.53031 2.64316 0
M  V30 10048 H 912.59 3.67142 4.12202 0
M  V30 10049 H 913.067 1.98768 3.91648 0
M  V30 10050 H 913.673 3.21656 2.7824 0
M  V30 10051 N 911.988 -0.768124 1.37614 0
M  V30 10052 C 913.213 -1.56239 1.36397 0
M  V30 10053 C 913.638 -1.8804 -0.0475839 0
M  V30 10054 O 912.996 -1.495 -1.02564 0
M  V30 10055 C 913.044 -2.84716 2.21289 0
M  V30 10056 O 912.148 -3.79249 1.62001 0
M  V30 10057 H 911.489 -0.473119 0.465891 0
M  V30 10058 H 914.019 -0.950415 1.81186 0
M  V30 10059 H 914.029 -3.33784 2.34632 0
M  V30 10060 H 912.704 -2.60899 3.2389 0
M  V30 10061 H 911.281 -3.37904 1.57719 0
M  V30 10062 N 913.466 -1.22244 -0.994698 0
M  V30 10063 C 914.399 -0.934168 -2.08203 0
M  V30 10064 C 915.377 0.122231 -1.6214 0
M  V30 10065 O 916.561 -0.00896598 -1.88498 0
M  V30 10066 C 913.688 -0.404646 -3.36274 0
M  V30 10067 C 912.734 -1.44544 -4.01259 0
M  V30 10068 S 913.567 -3.01816 -4.42343 0
M  V30 10069 C 914.723 -2.50497 -5.73587 0
M  V30 10070 H 914.956 -1.85493 -2.32335 0
M  V30 10071 H 912.489 -1.0533 -1.12893 0
M  V30 10072 H 914.447 -0.105719 -4.10364 0
M  V30 10073 H 913.108 0.494971 -3.10176 0
M  V30 10074 H 912.301 -1.02478 -4.93472 0
M  V30 10075 H 911.903 -1.69298 -3.33488 0
M  V30 10076 H 914.195 -1.91626 -6.49835 0
M  V30 10077 H 915.138 -3.41193 -6.20478 0
M  V30 10078 H 915.546 -1.91845 -5.30901 0
M  V30 10079 N 914.944 1.19125 -1.03184 0
M  V30 10080 C 915.877 2.21229 -0.559739 0
M  V30 10081 C 916.855 1.57578 0.400998 0
M  V30 10082 O 918.039 1.85809 0.317399 0
M  V30 10083 C 915.166 3.38203 0.183442 0
M  V30 10084 C 914.212 4.2022 -0.729182 0
M  V30 10085 S 915.045 4.87903 -2.20706 0
M  V30 10086 C 916.201 6.08284 -1.47448 0
M  V30 10087 H 916.434 2.60932 -1.42484 0
M  V30 10088 H 913.967 1.29419 -0.842028 0
M  V30 10089 H 915.925 4.06001 0.606084 0
M  V30 10090 H 914.586 2.96929 1.02432 0
M  V30 10091 H 913.779 5.03761 -0.155272 0
M  V30 10092 H 913.381 3.57755 -1.09028 0
M  V30 10093 H 915.673 6.73193 -0.762687 0
M  V30 10094 H 916.616 6.70165 -2.28659 0
M  V30 10095 H 917.024 5.56092 -0.97068 0
M  V30 10096 N 916.422 0.810101 1.35185 0
M  V30 10097 C 917.652 0.404109 2.02609 0
M  V30 10098 C 918.06 -0.990748 1.61186 0
M  V30 10099 O 917.403 -1.65038 0.80674 0
M  V30 10100 C 917.465 0.412047 3.57131 0
M  V30 10101 C 917.129 1.75802 4.21832 0
M  V30 10102 C 918.126 2.71687 4.43263 0
M  V30 10103 C 915.811 2.04299 4.58876 0
M  V30 10104 C 917.805 3.9425 5.00845 0
M  V30 10105 C 915.492 3.27125 5.16171 0
M  V30 10106 C 916.49 4.21918 5.37098 0
M  V30 10107 O 916.178 5.42576 5.93184 0
M  V30 10108 H 915.91 0.161914 0.656323 0
M  V30 10109 H 918.464 1.09605 1.73712 0
M  V30 10110 H 916.694 -0.336509 3.85233 0
M  V30 10111 H 918.383 0.0278817 4.0589 0
M  V30 10112 H 919.149 2.50964 4.15021 0
M  V30 10113 H 915.028 1.31324 4.41899 0
M  V30 10114 H 918.572 4.68251 5.17094 0
M  V30 10115 H 914.469 3.47718 5.43841 0
M  V30 10116 H 915.237 5.43921 6.11631 0
M  V30 10117 N 917.9 -1.47166 0.563914 0
M  V30 10118 C 918.848 -2.31798 -0.193009 0
M  V30 10119 C 919.842 -1.43338 -0.902805 0
M  V30 10120 O 921.048 -1.60067 -0.823328 0
M  V30 10121 H 917.423 -0.747613 -0.0811139 0
M  V30 10122 H 919.394 -2.93476 0.539876 0
M  V30 10123 C 918.143 -3.26131 -1.20555 0
M  V30 10124 H 917.466 -3.94166 -0.668803 0
M  V30 10125 H 918.906 -3.88167 -1.70593 0
M  V30 10126 C 917.365 -2.50132 -2.25689 0
M  V30 10127 O 917.895 -2.25064 -3.3273 0
M  V30 10128 N 916.101 -2.11022 -1.99795 0
M  V30 10129 H 915.648 -2.3161 -1.1276 0
M  V30 10130 H 915.606 -1.60489 -2.70353 0
M  V30 10131 N 919.378 -0.300708 -1.54705 0
M  V30 10132 C 920.626 0.308044 -1.99739 0
M  V30 10133 C 920.947 1.54433 -1.19061 0
M  V30 10134 O 920.217 1.93794 -0.286507 0
M  V30 10135 H 918.797 0.116811 -0.73781 0
M  V30 10136 H 921.459 -0.41197 -1.90496 0
M  V30 10137 H 920.555 0.580287 -3.06658 0
M  V30 10138 N 920.856 1.57574 -0.0284266 0
M  V30 10139 C 922.105 1.9095 0.649704 0
M  V30 10140 C 922.418 0.906421 1.7333 0
M  V30 10141 O 923.624 1.1314 2.46803 0
M  V30 10142 C 922.08 3.39061 1.20687 0
M  V30 10143 C 921.688 4.47726 0.156597 0
M  V30 10144 C 923.432 3.81505 1.86156 0
M  V30 10145 C 921.339 5.86935 0.725365 0
M  V30 10146 H 920.269 0.712589 0.24644 0
M  V30 10147 H 922.92 1.83261 -0.0936143 0
M  V30 10148 H 921.302 3.41679 2.00178 0
M  V30 10149 H 922.476 4.56667 -0.6158 0
M  V30 10150 H 920.791 4.14481 -0.399288 0
M  V30 10151 H 923.388 4.82865 2.29665 0
M  V30 10152 H 923.731 3.16529 2.70398 0
M  V30 10153 H 924.264 3.81307 1.13356 0
M  V30 10154 H 921.003 6.55453 -0.0789081 0
M  V30 10155 H 920.523 5.81602 1.46627 0
M  V30 10156 H 922.202 6.35483 1.21532 0
M  V30 10157 N 922.334 -0.244713 1.55689 0
M  V30 10158 C 923.267 -1.32946 1.85474 0
M  V30 10159 C 924.245 -1.46279 0.710021 0
M  V30 10160 O 925.429 -1.62459 0.956004 0
M  V30 10161 C 922.556 -2.7027 2.04137 0
M  V30 10162 C 921.602 -2.74075 3.2678 0
M  V30 10163 S 922.435 -2.30465 4.8337 0
M  V30 10164 C 923.591 -3.69709 5.05041 0
M  V30 10165 H 923.824 -1.07482 2.77191 0
M  V30 10166 H 921.357 -0.445807 1.47824 0
M  V30 10167 H 923.315 -3.4934 2.15574 0
M  V30 10168 H 921.976 -2.9297 1.13259 0
M  V30 10169 H 921.169 -3.74932 3.36812 0
M  V30 10170 H 920.771 -2.03051 3.1408 0
M  V30 10171 H 923.063 -4.65222 4.92518 0
M  V30 10172 H 924.006 -3.6461 6.07014 0
M  V30 10173 H 924.414 -3.62323 4.32877 0
M  V30 10174 N 923.813 -1.49104 -0.510467 0
M  V30 10175 C 924.776 -1.64569 -1.59529 0
M  V30 10176 C 925.776 -0.517937 -1.5223 0
M  V30 10177 O 926.966 -0.784183 -1.55551 0
M  V30 10178 C 924.098 -1.6342 -2.99177 0
M  V30 10179 H 925.291 -2.61318 -1.4715 0
M  V30 10180 H 922.844 -1.37993 -0.734001 0
M  V30 10181 H 923.579 -0.68221 -3.17043 0
M  V30 10182 H 923.364 -2.45312 -3.05883 0
M  V30 10183 H 924.854 -1.77474 -3.78011 0
M  V30 10184 N 925.291 0.760815 -1.38019 0
M  V30 10185 C 926.521 1.54776 -1.3685 0
M  V30 10186 C 926.929 1.89146 0.0453971 0
M  V30 10187 O 926.272 1.52746 1.0205 0
M  V30 10188 C 926.334 2.87923 -2.15269 0
M  V30 10189 C 925.998 2.76131 -3.64144 0
M  V30 10190 C 926.995 2.46417 -4.57794 0
M  V30 10191 C 924.68 2.9381 -4.07408 0
M  V30 10192 C 926.674 2.34525 -5.92686 0
M  V30 10193 C 924.361 2.81539 -5.42383 0
M  V30 10194 C 925.359 2.51938 -6.34836 0
M  V30 10195 O 925.047 2.39713 -7.67329 0
M  V30 10196 H 924.779 0.485776 -0.470104 0
M  V30 10197 H 927.333 0.949939 -1.82113 0
M  V30 10198 H 925.563 3.49867 -1.64712 0
M  V30 10199 H 927.252 3.49389 -2.06596 0
M  V30 10200 H 928.018 2.32433 -4.25676 0
M  V30 10201 H 923.897 3.15849 -3.35799 0
M  V30 10202 H 927.441 2.11342 -6.64816 0
M  V30 10203 H 923.338 2.95093 -5.741 0
M  V30 10204 H 924.106 2.5498 -7.77771 0
M  V30 10205 N 926.769 1.22769 0.988202 0
M  V30 10206 C 928.017 1.05301 1.725 0
M  V30 10207 C 928.338 -0.412103 1.90596 0
M  V30 10208 O 927.608 -1.29606 1.46898 0
M  V30 10209 H 926.188 0.386658 0.639144 0
M  V30 10210 H 928.85 1.54359 1.18993 0
M  V30 10211 H 927.946 1.53465 2.71763 0
M  V30 10212 N 928.247 -1.18576 1.03814 0
M  V30 10213 C 929.495 -1.88121 0.738574 0
M  V30 10214 C 929.816 -1.80587 -0.735744 0
M  V30 10215 O 929.086 -1.22251 -1.53074 0
M  V30 10216 H 927.666 -0.696417 0.270208 0
M  V30 10217 H 930.328 -1.43912 1.31435 0
M  V30 10218 H 929.424 -2.94222 1.04115 0
M  V30 10219 N 929.725 -0.817259 -1.34754 0
M  V30 10220 C 931.136 -0.462215 -1.80888 0
M  V30 10221 C 931.487 1.01685 -1.67794 0
M  V30 10222 O 930.612 1.79094 -1.21468 0
M  V30 10223 C 931.207 -0.832204 -3.2842 0
M  V30 10224 C 929.766 -0.52961 -3.72655 0
M  V30 10225 C 928.913 -1.05214 -2.56564 0
M  V30 10226 H 931.864 -1.00795 -1.22581 0
M  V30 10227 H 931.885 -0.133804 -3.80265 0
M  V30 10228 H 931.397 -1.90873 -3.37919 0
M  V30 10229 H 929.498 0.537743 -3.68699 0
M  V30 10230 H 929.611 -1.06971 -4.67005 0
M  V30 10231 H 927.975 -0.473949 -2.50251 0
M  V30 10232 H 928.758 -2.135 -2.68836 0
M  V30 10233 N 931.203 1.46865 -0.571711 0
M  V30 10234 C 932.428 2.07323 -0.0564655 0
M  V30 10235 C 932.853 1.41938 1.23431 0
M  V30 10236 O 932.211 0.499334 1.74288 0
M  V30 10237 C 932.259 3.6044 0.107339 0
M  V30 10238 O 931.363 3.95558 1.1665 0
M  V30 10239 H 930.704 0.661475 -0.0578465 0
M  V30 10240 H 933.234 1.88669 -0.791524 0
M  V30 10241 H 933.244 4.06767 0.316987 0
M  V30 10242 H 931.919 4.07425 -0.835348 0
M  V30 10243 H 930.496 3.60957 0.936189 0
M  V30 10244 N 932.681 0.308908 1.54543 0
M  V30 10245 C 933.911 -0.299983 2.04411 0
M  V30 10246 C 934.319 -1.47463 1.18538 0
M  V30 10247 O 933.662 -1.82547 0.205463 0
M  V30 10248 C 933.724 -0.811579 3.50219 0
M  V30 10249 C 933.388 0.238834 4.56375 0
M  V30 10250 C 934.385 1.06997 5.08771 0
M  V30 10251 C 932.07 0.382808 5.00839 0
M  V30 10252 C 934.064 2.03096 6.04178 0
M  V30 10253 C 931.751 1.34723 5.96065 0
M  V30 10254 C 932.749 2.16978 6.47618 0
M  V30 10255 O 932.437 3.11783 7.40977 0
M  V30 10256 H 932.169 -0.0679682 0.672574 0
M  V30 10257 H 934.723 0.448815 2.00437 0
M  V30 10258 H 932.953 -1.61104 3.51543 0
M  V30 10259 H 934.642 -1.33721 3.83241 0
M  V30 10260 H 935.408 0.969654 4.75208 0
M  V30 10261 H 931.287 -0.247507 4.60335 0
M  V30 10262 H 934.831 2.67338 6.44342 0
M  V30 10263 H 930.728 1.44824 6.29044 0
M  V30 10264 H 931.496 3.06853 7.58804 0
M  V30 10265 N 934.159 -1.57557 0.0367827 0
M  V30 10266 C 935.57 -1.79853 -0.500971 0
M  V30 10267 C 935.921 -0.947749 -1.71791 0
M  V30 10268 O 935.046 -0.160287 -2.15806 0
M  V30 10269 C 935.641 -3.26193 -0.915626 0
M  V30 10270 C 934.2 -3.49457 -1.39845 0
M  V30 10271 C 933.347 -2.74864 -0.366784 0
M  V30 10272 H 936.298 -1.56509 0.262768 0
M  V30 10273 H 936.319 -3.36324 -1.7795 0
M  V30 10274 H 935.831 -3.88089 -0.0297227 0
M  V30 10275 H 933.932 -2.92823 -2.30402 0
M  V30 10276 H 934.045 -4.58172 -1.40054 0
M  V30 10277 H 932.409 -2.4057 -0.836554 0
M  V30 10278 H 933.192 -3.39479 0.510785 0
M  V30 10279 N 935.637 0.236453 -1.55816 0
M  V30 10280 C 936.885 0.96111 -1.77784 0
M  V30 10281 C 937.206 1.85454 -0.602648 0
M  V30 10282 O 936.476 1.92157 0.381137 0
M  V30 10283 H 935.056 0.35787 -0.655697 0
M  V30 10284 H 937.718 0.251888 -1.93265 0
M  V30 10285 H 936.814 1.5767 -2.69345 0
M  V30 10286 N 937.115 1.49373 0.502552 0
M  V30 10287 C 938.048 1.60529 1.6219 0
M  V30 10288 C 939.026 0.454431 1.56121 0
M  V30 10289 O 940.21 0.669768 1.762 0
M  V30 10290 C 937.337 1.55879 3.00698 0
M  V30 10291 C 936.383 2.76143 3.25034 0
M  V30 10292 S 937.216 4.37831 3.08325 0
M  V30 10293 C 938.372 4.35824 4.49231 0
M  V30 10294 H 938.605 2.55219 1.52482 0
M  V30 10295 H 936.138 1.38244 0.687594 0
M  V30 10296 H 938.096 1.53882 3.80566 0
M  V30 10297 H 936.757 0.624791 3.07823 0
M  V30 10298 H 935.95 2.69104 4.26144 0
M  V30 10299 H 935.552 2.75544 2.52886 0
M  V30 10300 H 937.844 4.07447 5.41288 0
M  V30 10301 H 938.787 5.37206 4.6132 0
M  V30 10302 H 939.195 3.65923 4.29838 0
M  V30 10303 N 938.594 -0.753485 1.38421 0
M  V30 10304 C 939.524 -1.8808 1.38377 0
M  V30 10305 C 940.505 -1.68258 0.249664 0
M  V30 10306 O 941.69 -1.88848 0.45276 0
M  V30 10307 C 938.82 -3.25608 1.20818 0
M  V30 10308 C 937.774 -3.60032 2.31433 0
M  V30 10309 C 937.1 -4.96297 1.9898 0
M  V30 10310 C 938.4 -3.64898 3.73694 0
M  V30 10311 H 940.094 -1.88375 2.32713 0
M  V30 10312 H 937.64 -0.90489 1.12017 0
M  V30 10313 H 939.593 -4.04127 1.19412 0
M  V30 10314 H 938.317 -3.25793 0.229433 0
M  V30 10315 H 936.976 -2.83831 2.32025 0
M  V30 10316 H 936.624 -4.93043 0.995889 0
M  V30 10317 H 936.324 -5.20298 2.73063 0
M  V30 10318 H 937.848 -5.77196 1.99193 0
M  V30 10319 H 939.262 -4.33531 3.75132 0
M  V30 10320 H 937.659 -4.00407 4.46983 0
M  V30 10321 H 938.729 -2.65124 4.06002 0
M  V30 10322 N 940.072 -1.23292 -0.981677 0
M  V30 10323 C 941.318 -1.06582 -1.72535 0
M  V30 10324 C 941.651 0.396538 -1.90108 0
M  V30 10325 O 940.926 1.29363 -1.45243 0
M  V30 10326 C 941.209 -1.7904 -3.12437 0
M  V30 10327 C 941.062 -3.32941 -3.02441 0
M  V30 10328 C 942.381 -1.55185 -4.11832 0
M  V30 10329 H 939.5 -0.388585 -0.626236 0
M  V30 10330 H 942.142 -1.51779 -1.14293 0
M  V30 10331 H 940.292 -1.40619 -3.62158 0
M  V30 10332 H 941.964 -3.80875 -2.60254 0
M  V30 10333 H 940.207 -3.62039 -2.38977 0
M  V30 10334 H 940.878 -3.78827 -4.0149 0
M  V30 10335 H 943.354 -1.88581 -3.70913 0
M  V30 10336 H 942.23 -2.08362 -5.07815 0
M  V30 10337 H 942.491 -0.486925 -4.3941 0
M  V30 10338 N 941.55 1.18024 -1.04442 0
M  V30 10339 C 942.79 1.89787 -0.758957 0
M  V30 10340 C 943.154 1.78757 0.700707 0
M  V30 10341 O 944.355 2.45265 1.09994 0
M  V30 10342 C 942.626 3.36047 -1.21685 0
M  V30 10343 S 944.185 4.25864 -1.05761 0
M  V30 10344 H 941.003 0.655311 -0.275841 0
M  V30 10345 H 943.605 1.42589 -1.33749 0
M  V30 10346 H 942.309 3.41606 -2.2745 0
M  V30 10347 H 941.84 3.88286 -0.63227 0
M  V30 10348 H 943.855 4.96195 0.022729 0
M  V30 10349 N 943.028 0.824394 1.34319 0
M  V30 10350 C 944.277 0.40956 1.97498 0
M  V30 10351 C 944.59 -1.03323 1.66083 0
M  V30 10352 O 945.796 -1.55205 2.22764 0
M  V30 10353 C 944.252 0.681384 3.53391 0
M  V30 10354 C 943.86 2.1379 3.93698 0
M  V30 10355 C 945.604 0.332788 4.23194 0
M  V30 10356 C 943.511 2.35453 5.42509 0
M  V30 10357 H 942.441 0.149409 0.739049 0
M  V30 10358 H 945.092 1.01095 1.5314 0
M  V30 10359 H 943.474 0.00980375 3.95999 0
M  V30 10360 H 944.648 2.84876 3.62191 0
M  V30 10361 H 942.963 2.44807 3.36836 0
M  V30 10362 H 945.56 0.472463 5.32609 0
M  V30 10363 H 945.903 -0.722862 4.09976 0
M  V30 10364 H 946.436 0.959005 3.86067 0
M  V30 10365 H 943.175 3.39529 5.60714 0
M  V30 10366 H 942.695 1.68912 5.75525 0
M  V30 10367 H 944.374 2.17885 6.09209 0
M  V30 10368 N 944.506 -1.46559 0.579492 0
M  V30 10369 C 945.736 -2.06484 0.0692642 0
M  V30 10370 C 946.144 -1.4293 -1.23967 0
M  V30 10371 O 945.487 -0.527632 -1.75959 0
M  V30 10372 C 945.549 -3.59078 -0.174174 0
M  V30 10373 C 945.213 -4.44805 1.04867 0
M  V30 10374 C 946.21 -4.81543 1.95991 0
M  V30 10375 C 943.895 -4.8599 1.26961 0
M  V30 10376 C 945.889 -5.58288 3.0756 0
M  V30 10377 C 943.576 -5.62495 2.38836 0
M  V30 10378 C 944.574 -5.98558 3.28964 0
M  V30 10379 O 944.262 -6.73518 4.38896 0
M  V30 10380 H 943.994 -0.673917 0.0530331 0
M  V30 10381 H 946.548 -1.89223 0.79898 0
M  V30 10382 H 944.778 -3.74634 -0.958464 0
M  V30 10383 H 946.467 -4.00941 -0.632515 0
M  V30 10384 H 947.233 -4.50307 1.80136 0
M  V30 10385 H 943.112 -4.57372 0.577184 0
M  V30 10386 H 946.656 -5.86355 3.77933 0
M  V30 10387 H 942.553 -5.93145 2.54655 0
M  V30 10388 H 943.321 -6.91938 4.37223 0
M  V30 10389 N 945.984 -0.3171 -1.54377 0
M  V30 10390 C 947.231 0.28741 -2.0045 0
M  V30 10391 C 947.559 1.52648 -1.20535 0
M  V30 10392 O 946.814 1.93775 -0.273831 0
M  V30 10393 C 947.113 0.672917 -3.51008 0
M  V30 10394 C 946.779 -0.466245 -4.48483 0
M  V30 10395 C 945.441 -0.778933 -4.74854 0
M  V30 10396 C 947.793 -1.23176 -5.06436 0
M  V30 10397 C 945.121 -1.85997 -5.56437 0
M  V30 10398 C 947.473 -2.30284 -5.89196 0
M  V30 10399 C 946.137 -2.62141 -6.13872 0
M  V30 10400 H 945.407 0.105171 -0.733499 0
M  V30 10401 H 948.054 -0.439538 -1.86388 0
M  V30 10402 H 946.359 1.48019 -3.62764 0
M  V30 10403 H 948.056 1.15209 -3.84094 0
M  V30 10404 H 944.646 -0.212449 -4.28073 0
M  V30 10405 H 948.83 -1.00344 -4.8605 0
M  V30 10406 H 944.086 -2.11134 -5.73788 0
M  V30 10407 H 948.26 -2.90048 -6.33123 0
M  V30 10408 H 945.887 -3.46037 -6.76877 0
M  V30 10409 N 947.462 1.57535 -0.0451378 0
M  V30 10410 C 948.711 1.91628 0.629415 0
M  V30 10411 C 949.024 0.924754 1.72359 0
M  V30 10412 O 950.23 1.15751 2.45589 0
M  V30 10413 C 948.686 3.40322 1.17084 0
M  V30 10414 C 948.294 4.47867 0.109101 0
M  V30 10415 C 950.038 3.83458 1.82099 0
M  V30 10416 C 947.945 5.87671 0.663072 0
M  V30 10417 H 946.875 0.715163 0.238868 0
M  V30 10418 H 949.526 1.83151 -0.113046 0
M  V30 10419 H 947.908 3.43783 1.96543 0
M  V30 10420 H 949.082 4.55988 -0.664201 0
M  V30 10421 H 947.397 4.14034 -0.443227 0
M  V30 10422 H 949.994 4.85273 2.2453 0
M  V30 10423 H 950.337 3.19379 2.67026 0
M  V30 10424 H 950.87 3.82488 1.09305 0
M  V30 10425 H 947.609 6.55332 -0.148423 0
M  V30 10426 H 947.129 5.83124 1.4045 0
M  V30 10427 H 948.808 6.36737 1.14785 0
M  V30 10428 N 948.94 -0.228186 1.55939 0
M  V30 10429 C 950.189 -0.951563 1.77843 0
M  V30 10430 C 950.502 -1.85763 0.612501 0
M  V30 10431 O 951.708 -2.61916 0.715006 0
M  V30 10432 C 950.164 -1.74216 3.14923 0
M  V30 10433 C 949.772 -0.882569 4.39221 0
M  V30 10434 C 951.516 -2.45715 3.46156 0
M  V30 10435 C 949.423 -1.67014 5.67327 0
M  V30 10436 H 948.353 -0.359035 0.663031 0
M  V30 10437 H 951.004 -0.205636 1.82344 0
M  V30 10438 H 949.386 -2.53075 3.0458 0
M  V30 10439 H 950.56 -0.13499 4.60602 0
M  V30 10440 H 948.875 -0.280022 4.15457 0
M  V30 10441 H 951.472 -3.05127 4.39092 0
M  V30 10442 H 951.815 -3.1827 2.68346 0
M  V30 10443 H 952.348 -1.73852 3.57799 0
M  V30 10444 H 949.087 -0.987985 6.48012 0
M  V30 10445 H 948.607 -2.3925 5.50018 0
M  V30 10446 H 950.286 -2.23252 6.07262 0
M  V30 10447 N 950.418 -1.49637 -0.494624 0
M  V30 10448 C 951.348 -1.69692 -1.60396 0
M  V30 10449 C 952.329 -0.545648 -1.61111 0
M  V30 10450 O 953.514 -0.782202 -1.77751 0
M  V30 10451 C 950.644 -1.76934 -2.9885 0
M  V30 10452 C 949.598 -2.91915 -3.13001 0
M  V30 10453 C 948.924 -2.84276 -4.5287 0
M  V30 10454 C 950.224 -4.32764 -2.92426 0
M  V30 10455 H 951.918 -2.6257 -1.43866 0
M  V30 10456 H 949.464 -1.26355 -0.690679 0
M  V30 10457 H 951.417 -1.8955 -3.76362 0
M  V30 10458 H 950.141 -0.806609 -3.16483 0
M  V30 10459 H 948.8 -2.78911 -2.37916 0
M  V30 10460 H 948.448 -1.85897 -4.67388 0
M  V30 10461 H 948.148 -3.61452 -4.63278 0
M  V30 10462 H 949.672 -2.98909 -5.32434 0
M  V30 10463 H 951.086 -4.46415 -3.59703 0
M  V30 10464 H 949.483 -5.1121 -3.143 0
M  V30 10465 H 950.553 -4.46765 -1.88491 0
M  V30 10466 N 951.896 0.746133 -1.38819 0
M  V30 10467 C 953.143 1.50545 -1.35434 0
M  V30 10468 C 953.471 1.94427 0.0532669 0
M  V30 10469 O 952.726 1.66285 1.03188 0
M  V30 10470 C 953.025 2.76639 -2.26286 0
M  V30 10471 C 952.691 2.51682 -3.74122 0
M  V30 10472 C 951.353 2.44584 -4.14406 0
M  V30 10473 C 953.705 2.30071 -4.67672 0
M  V30 10474 C 951.033 2.13902 -5.46318 0
M  V30 10475 C 953.385 2.00907 -5.99849 0
M  V30 10476 C 952.049 1.92271 -6.39209 0
M  V30 10477 H 951.319 0.550883 -0.49559 0
M  V30 10478 H 953.966 0.857337 -1.71237 0
M  V30 10479 H 952.271 3.46138 -1.83564 0
M  V30 10480 H 953.968 3.34626 -2.20967 0
M  V30 10481 H 950.558 2.5808 -3.42188 0
M  V30 10482 H 954.742 2.34528 -4.3739 0
M  V30 10483 H 949.998 2.0573 -5.75748 0
M  V30 10484 H 954.172 1.83191 -6.71874 0
M  V30 10485 H 951.799 1.68261 -7.41345 0
M  V30 10486 N 953.375 1.23811 0.975125 0
M  V30 10487 C 954.621 1.07495 1.71967 0
M  V30 10488 C 954.954 -0.386451 1.90316 0
M  V30 10489 O 954.229 -1.28591 1.45927 0
M  V30 10490 C 954.512 1.80694 3.11483 0
M  V30 10491 C 954.365 3.3454 3.00671 0
M  V30 10492 C 955.684 1.57367 4.11003 0
M  V30 10493 H 952.803 0.3919 0.624166 0
M  V30 10494 H 955.445 1.52383 1.13487 0
M  V30 10495 H 953.595 1.42538 3.61407 0
M  V30 10496 H 955.267 3.8225 2.5823 0
M  V30 10497 H 953.51 3.63301 2.37054 0
M  V30 10498 H 954.181 3.80951 3.99475 0
M  V30 10499 H 956.657 1.90545 3.69908 0
M  V30 10500 H 955.533 2.11052 5.06703 0
M  V30 10501 H 955.794 0.510221 4.39146 0
M  V30 10502 N 954.853 -1.17469 1.05066 0
M  V30 10503 C 956.093 -1.89382 0.769012 0
M  V30 10504 C 956.457 -1.79126 -0.691217 0
M  V30 10505 O 957.658 -2.45845 -1.08692 0
M  V30 10506 C 955.929 -3.35397 1.23465 0
M  V30 10507 S 957.488 -4.25297 1.08018 0
M  V30 10508 H 954.306 -0.653839 0.279312 0
M  V30 10509 H 956.908 -1.41877 1.34503 0
M  V30 10510 H 955.612 -3.40395 2.29258 0
M  V30 10511 H 955.143 -3.87945 0.652853 0
M  V30 10512 H 957.158 -4.962 0.00358573 0
M  V30 10513 N 956.331 -0.831506 -1.3388 0
M  V30 10514 C 957.579 -0.422837 -1.97627 0
M  V30 10515 C 957.9 1.01961 -1.6622 0
M  V30 10516 O 957.17 1.70916 -0.957323 0
M  V30 10517 H 955.75 -0.153365 -0.731087 0
M  V30 10518 H 958.412 -1.06284 -1.6337 0
M  V30 10519 H 957.508 -0.548858 -3.07236 0
M  V30 10520 N 957.809 1.4625 -0.587256 0
M  V30 10521 C 958.757 2.32076 0.156108 0
M  V30 10522 C 959.751 1.44756 0.879887 0
M  V30 10523 O 960.957 1.61356 0.797759 0
M  V30 10524 H 957.332 0.748808 0.0692098 0
M  V30 10525 H 959.303 2.9258 -0.586497 0
M  V30 10526 C 958.052 3.28008 1.15352 0
M  V30 10527 H 957.375 3.9518 0.60601 0
M  V30 10528 H 958.815 3.90832 1.64396 0
M  V30 10529 C 957.274 2.53691 2.21681 0
M  V30 10530 O 957.804 2.30329 3.29107 0
M  V30 10531 N 956.01 2.14174 1.96412 0
M  V30 10532 H 955.557 2.33374 1.09061 0
M  V30 10533 H 955.515 1.6477 2.67765 0
M  V30 10534 N 959.287 0.325282 1.54207 0
M  V30 10535 C 960.517 -0.278285 2.04717 0
M  V30 10536 C 960.925 -1.46198 1.20095 0
M  V30 10537 O 960.268 -1.82319 0.224813 0
M  V30 10538 C 960.33 -0.774387 3.51061 0
M  V30 10539 C 959.994 0.287225 4.56096 0
M  V30 10540 C 960.991 1.12388 5.07607 0
M  V30 10541 C 958.676 0.435908 5.00405 0
M  V30 10542 C 960.67 2.09492 6.0199 0
M  V30 10543 C 958.357 1.41037 5.94602 0
M  V30 10544 C 959.355 2.23834 6.45281 0
M  V30 10545 O 959.043 3.19625 7.37628 0
M  V30 10546 H 958.775 -0.0608309 0.673257 0
M  V30 10547 H 961.329 0.470049 1.99949 0
M  V30 10548 H 959.559 -1.57366 3.53232 0
M  V30 10549 H 961.248 -1.29649 3.84637 0
M  V30 10550 H 962.014 1.02 4.74153 0
M  V30 10551 H 957.893 -0.198668 4.60572 0
M  V30 10552 H 961.437 2.74157 6.4147 0
M  V30 10553 H 957.334 1.51487 6.27473 0
M  V30 10554 H 958.102 3.14884 7.55507 0
M  V30 10555 N 960.765 -1.57509 0.0534917 0
M  V30 10556 C 962.014 -1.91959 -0.619244 0
M  V30 10557 C 962.327 -0.933882 -1.71866 0
M  V30 10558 O 963.533 -1.17052 -2.44972 0
M  V30 10559 C 961.989 -3.40938 -1.15278 0
M  V30 10560 C 961.597 -4.47919 -0.085348 0
M  V30 10561 C 963.341 -3.84419 -1.80063 0
M  V30 10562 C 961.248 -5.88014 -0.631897 0
M  V30 10563 H 960.178 -0.71642 -0.235072 0
M  V30 10564 H 962.829 -1.83089 0.122758 0
M  V30 10565 H 961.211 -3.44821 -1.94717 0
M  V30 10566 H 962.385 -4.55629 0.688374 0
M  V30 10567 H 960.7 -4.13793 0.465178 0
M  V30 10568 H 963.297 -4.86457 -2.21954 0
M  V30 10569 H 963.64 -3.20791 -2.65328 0
M  V30 10570 H 964.173 -3.83062 -1.07275 0
M  V30 10571 H 960.912 -6.55244 0.183175 0
M  V30 10572 H 960.432 -5.83861 -1.37355 0
M  V30 10573 H 962.111 -6.37336 -1.11407 0
M  V30 10574 N 962.243 0.219913 -1.56058 0
M  V30 10575 C 963.173 1.27572 -1.9557 0
M  V30 10576 C 964.154 1.48801 -0.824148 0
M  V30 10577 O 965.339 1.60957 -1.08658 0
M  V30 10578 C 962.469 2.62517 -2.27381 0
M  V30 10579 C 961.423 2.55941 -3.43042 0
M  V30 10580 C 960.749 3.94931 -3.60463 0
M  V30 10581 C 962.049 2.10584 -4.77966 0
M  V30 10582 H 963.743 0.947482 -2.84013 0
M  V30 10583 H 961.289 0.454337 -1.36645 0
M  V30 10584 H 963.242 3.36538 -2.53615 0
M  V30 10585 H 961.966 2.97031 -1.35794 0
M  V30 10586 H 960.625 1.84377 -3.1686 0
M  V30 10587 H 960.273 4.26756 -2.66249 0
M  V30 10588 H 959.973 3.91413 -4.38258 0
M  V30 10589 H 961.497 4.70611 -3.89046 0
M  V30 10590 H 962.911 2.74349 -5.03394 0
M  V30 10591 H 961.308 2.18122 -5.59055 0
M  V30 10592 H 962.378 1.05818 -4.73213 0
M  V30 10593 N 963.721 1.49897 0.486681 0
M  V30 10594 C 964.651 1.7054 1.59494 0
M  V30 10595 C 965.632 0.554184 1.60819 0
M  V30 10596 O 966.817 0.791617 1.77333 0
M  V30 10597 C 963.947 1.78517 2.97908 0
M  V30 10598 C 962.901 2.93571 3.11449 0
M  V30 10599 C 962.227 2.86674 4.51356 0
M  V30 10600 C 963.527 4.34308 2.90127 0
M  V30 10601 H 965.221 2.63329 1.42472 0
M  V30 10602 H 962.767 1.2672 0.683969 0
M  V30 10603 H 964.72 1.91544 3.75352 0
M  V30 10604 H 963.444 0.823381 3.16051 0
M  V30 10605 H 962.103 2.80169 2.36433 0
M  V30 10606 H 961.751 1.88373 4.66395 0
M  V30 10607 H 961.451 3.63903 4.61355 0
M  V30 10608 H 962.975 3.01728 5.30841 0
M  V30 10609 H 964.389 4.48317 3.57331 0
M  V30 10610 H 962.786 5.12869 3.11585 0
M  V30 10611 H 963.856 4.47759 1.86119 0
M  V30 10612 N 965.199 -0.738761 1.39212 0
M  V30 10613 C 966.147 -1.8741 1.3777 0
M  V30 10614 C 967.141 -1.67371 0.261375 0
M  V30 10615 O 968.347 -1.74759 0.431209 0
M  V30 10616 H 964.722 -0.616843 0.430126 0
M  V30 10617 H 966.693 -1.85742 2.33543 0
M  V30 10618 C 965.442 -3.25053 1.23433 0
M  V30 10619 H 964.765 -3.41066 2.086 0
M  V30 10620 H 966.205 -4.04696 1.2648 0
M  V30 10621 C 964.664 -3.36851 -0.0575624 0
M  V30 10622 O 965.194 -3.88293 -1.02915 0
M  V30 10623 N 963.4 -2.90355 -0.119364 0
M  V30 10624 H 962.947 -2.48681 0.671976 0
M  V30 10625 H 962.905 -2.98628 -0.983286 0
M  V30 10626 N 966.677 -1.24326 -0.968545 0
M  V30 10627 C 967.923 -1.08406 -1.71394 0
M  V30 10628 C 968.256 0.376353 -1.90518 0
M  V30 10629 O 967.531 1.27816 -1.46606 0
M  V30 10630 C 967.814 -1.82344 -3.1052 0
M  V30 10631 C 967.667 -3.3613 -2.98893 0
M  V30 10632 C 968.986 -1.59545 -4.10163 0
M  V30 10633 H 966.105 -0.395205 -0.622079 0
M  V30 10634 H 968.747 -1.52983 -1.12677 0
M  V30 10635 H 966.897 -1.44452 -3.60646 0
M  V30 10636 H 968.569 -3.83614 -2.56199 0
M  V30 10637 H 966.812 -3.64553 -2.35124 0
M  V30 10638 H 967.483 -3.83064 -3.97449 0
M  V30 10639 H 969.959 -1.92504 -3.68892 0
M  V30 10640 H 968.835 -2.13736 -5.05577 0
M  V30 10641 H 969.096 -0.533503 -4.38869 0
M  V30 10642 N 968.156 1.1691 -1.05688 0
M  V30 10643 C 969.403 1.87292 -0.76993 0
M  V30 10644 C 969.731 1.81339 0.703295 0
M  V30 10645 O 968.986 1.21959 1.5305 0
M  V30 10646 C 969.285 3.36578 -1.20207 0
M  V30 10647 C 968.951 3.62732 -2.67836 0
M  V30 10648 C 967.613 3.69579 -3.08163 0
M  V30 10649 C 969.965 3.73803 -3.63209 0
M  V30 10650 C 967.293 3.84992 -4.42717 0
M  V30 10651 C 969.645 3.90735 -4.97503 0
M  V30 10652 C 968.309 3.95823 -5.37476 0
M  V30 10653 H 967.579 0.68535 -0.281737 0
M  V30 10654 H 970.226 1.38274 -1.32486 0
M  V30 10655 H 968.531 3.87687 -0.566222 0
M  V30 10656 H 970.228 3.89409 -0.957183 0
M  V30 10657 H 966.818 3.58031 -2.35609 0
M  V30 10658 H 971.002 3.67829 -3.3319 0
M  V30 10659 H 966.258 3.87181 -4.73182 0
M  V30 10660 H 970.432 3.98243 -5.71293 0
M  V30 10661 H 968.059 4.07518 -6.41742 0
M  V30 10662 N 969.634 0.838594 1.33437 0
M  V30 10663 C 970.564 0.286672 2.31734 0
M  V30 10664 C 971.545 -0.605451 1.5896 0
M  V30 10665 O 972.73 -0.529059 1.86854 0
M  V30 10666 C 969.86 -0.539311 3.43087 0
M  V30 10667 C 968.814 0.256997 4.27228 0
M  V30 10668 C 968.14 -0.692718 5.30194 0
M  V30 10669 C 969.44 1.47391 5.01072 0
M  V30 10670 H 971.134 1.10798 2.78144 0
M  V30 10671 H 968.68 0.534235 1.33723 0
M  V30 10672 H 970.633 -0.935724 4.1088 0
M  V30 10673 H 969.357 -1.39383 2.95364 0
M  V30 10674 H 968.016 0.634967 3.61059 0
M  V30 10675 H 967.664 -1.54363 4.78729 0
M  V30 10676 H 967.364 -0.164023 5.87371 0
M  V30 10677 H 968.888 -1.08665 6.00853 0
M  V30 10678 H 970.302 1.15067 5.61634 0
M  V30 10679 H 968.699 1.93937 5.67898 0
M  V30 10680 H 969.769 2.24382 4.29861 0
M  V30 10681 N 971.112 -1.45937 0.595003 0
M  V30 10682 C 972.075 -2.2888 -0.121102 0
M  V30 10683 C 973.075 -1.39075 -0.807149 0
M  V30 10684 O 974.265 -1.61326 -0.657228 0
M  V30 10685 C 971.397 -3.19778 -1.1813 0
M  V30 10686 H 972.59 -2.93673 0.607968 0
M  V30 10687 H 970.143 -1.5225 0.353495 0
M  V30 10688 H 970.878 -2.59759 -1.94154 0
M  V30 10689 H 970.663 -3.85914 -0.693724 0
M  V30 10690 H 972.153 -3.82176 -1.68319 0
M  V30 10691 N 972.59 -0.333456 -1.54032 0
M  V30 10692 C 973.839 0.267081 -1.99924 0
M  V30 10693 C 974.152 1.52463 -1.22534 0
M  V30 10694 O 975.358 2.20178 -1.58852 0
M  V30 10695 C 973.814 0.526456 -3.56029 0
M  V30 10696 C 973.422 -0.714607 -4.42264 0
M  V30 10697 C 975.166 1.0864 -4.10363 0
M  V30 10698 C 973.073 -0.42659 -5.89859 0
M  V30 10699 H 972.003 0.103577 -0.746852 0
M  V30 10700 H 974.654 -0.447218 -1.77967 0
M  V30 10701 H 973.036 1.3012 -3.74012 0
M  V30 10702 H 974.21 -1.48968 -4.36056 0
M  V30 10703 H 972.525 -1.19547 -3.9887 0
M  V30 10704 H 975.122 1.31668 -5.18235 0
M  V30 10705 H 975.465 2.03884 -3.62956 0
M  V30 10706 H 975.998 0.37261 -3.96051 0
M  V30 10707 H 972.737 -1.34847 -6.4148 0
M  V30 10708 H 972.257 0.310588 -5.98995 0
M  V30 10709 H 973.936 -0.0400807 -6.46988 0
M  V30 10710 N 974.068 1.57479 -0.061844 0
M  V30 10711 C 975.031 2.1104 0.894127 0
M  V30 10712 C 976.031 1.03227 1.23292 0
M  V30 10713 O 977.221 1.29256 1.16784 0
M  V30 10714 C 974.353 2.6035 2.20069 0
M  V30 10715 H 975.546 2.96807 0.429619 0
M  V30 10716 H 973.099 1.55181 0.18672 0
M  V30 10717 H 973.834 1.78008 2.71079 0
M  V30 10718 H 973.619 3.39146 1.9678 0
M  V30 10719 H 975.109 3.019 2.88525 0
M  V30 10720 N 975.546 -0.211634 1.56173 0
M  V30 10721 C 976.792 -0.935935 1.79911 0
M  V30 10722 C 977.125 -1.83589 0.633155 0
M  V30 10723 O 976.4 -1.91004 -0.367132 0
M  V30 10724 C 976.683 -1.76638 3.13801 0
M  V30 10725 C 976.536 -0.892259 4.40861 0
M  V30 10726 C 977.855 -2.74224 3.44223 0
M  V30 10727 H 974.974 -0.338822 0.654499 0
M  V30 10728 H 977.616 -0.20422 1.88899 0
M  V30 10729 H 975.766 -2.39021 3.0627 0
M  V30 10730 H 977.438 -0.284407 4.60422 0
M  V30 10731 H 975.681 -0.198145 4.33347 0
M  V30 10732 H 976.352 -1.50793 5.31004 0
M  V30 10733 H 978.828 -2.21975 3.51946 0
M  V30 10734 H 977.704 -3.29424 4.39057 0
M  V30 10735 H 977.965 -3.52455 2.66885 0
M  V30 10736 N 977.024 -1.50153 -0.478725 0
M  V30 10737 C 978.301 -1.51274 -1.23999 0
M  V30 10738 C 978.681 -0.253048 -2.09578 0
M  V30 10739 O 978.029 0.763827 -2.15355 0
M  V30 10740 C 978.239 -2.80423 -2.07759 0
M  V30 10741 C 979.587 -3.30788 -2.66204 0
M  V30 10742 O 980.611 -2.81693 -2.18008 0
M  V30 10743 O 979.47 -4.1635 -3.53999 0
M  V30 10744 H 976.564 -0.606438 -0.562283 0
M  V30 10745 H 979.11 -1.62436 -0.491171 0
M  V30 10746 H 977.882 -3.63584 -1.44645 0
M  V30 10747 H 977.505 -2.72228 -2.89789 0
M  V30 10748 N 978.502 0.731368 -1.39602 0
M  V30 10749 C 979.45 1.86676 -1.38761 0
M  V30 10750 C 980.444 1.6723 -0.270247 0
M  V30 10751 O 981.65 1.74528 -0.440471 0
M  V30 10752 H 978.025 0.614553 -0.433391 0
M  V30 10753 H 979.996 1.84501 -2.34525 0
M  V30 10754 C 978.745 3.24394 -1.25155 0
M  V30 10755 H 978.068 3.39955 -2.10406 0
M  V30 10756 H 979.508 4.04019 -1.28625 0
M  V30 10757 C 977.967 3.36877 0.0396976 0
M  V30 10758 O 978.497 3.88833 1.00854 0
M  V30 10759 N 976.703 2.90414 0.103965 0
M  V30 10760 H 976.25 2.48321 -0.685155 0
M  V30 10761 H 976.208 2.99146 0.967435 0
M  V30 10762 N 979.98 1.24838 0.961938 0
M  V30 10763 C 980.91 1.07053 2.07514 0
M  V30 10764 C 981.891 -0.0182465 1.7009 0
M  V30 10765 O 983.076 0.149915 1.9362 0
M  V30 10766 C 980.206 0.680693 3.40564 0
M  V30 10767 C 979.16 1.71889 3.91967 0
M  V30 10768 C 978.486 1.18395 5.21428 0
M  V30 10769 C 979.786 3.1161 4.19161 0
M  V30 10770 H 981.48 2.00167 2.22651 0
M  V30 10771 H 979.026 0.963799 1.0699 0
M  V30 10772 H 980.979 0.54324 4.17884 0
M  V30 10773 H 979.703 -0.28615 3.25344 0
M  V30 10774 H 978.362 1.84465 3.16809 0
M  V30 10775 H 978.01 0.207543 5.02572 0
M  V30 10776 H 977.71 1.87778 5.56788 0
M  V30 10777 H 979.234 1.05873 6.01351 0
M  V30 10778 H 980.648 3.0223 4.87165 0
M  V30 10779 H 979.045 3.78398 4.65763 0
M  V30 10780 H 980.115 3.59218 3.25715 0
M  V30 10781 N 981.458 -1.16348 1.06306 0
M  V30 10782 C 982.421 -2.18941 0.678053 0
M  V30 10783 C 983.421 -1.58409 -0.276277 0
M  V30 10784 O 984.611 -1.74101 -0.0586435 0
M  V30 10785 C 981.743 -3.409 -0.00228684 0
M  V30 10786 H 982.936 -2.54516 1.58624 0
M  V30 10787 H 980.489 -1.30625 0.858298 0
M  V30 10788 H 981.224 -3.10881 -0.923212 0
M  V30 10789 H 981.009 -3.86089 0.683949 0
M  V30 10790 H 982.499 -4.16806 -0.257374 0
M  V30 10791 N 982.937 -0.845659 -1.3299 0
M  V30 10792 C 983.847 -0.2864 -2.32845 0
M  V30 10793 C 984.863 0.591105 -1.63652 0
M  V30 10794 O 986.039 0.493615 -1.95257 0
M  V30 10795 C 983.104 0.523636 -3.42723 0
M  V30 10796 C 982.165 -0.378945 -4.27624 0
M  V30 10797 C 981.398 0.392526 -5.32255 0
M  V30 10798 O 981.621 1.6235 -5.46808 0
M  V30 10799 O 980.555 -0.237 -6.01433 0
M  V30 10800 H 984.381 -1.11346 -2.82552 0
M  V30 10801 H 981.966 -0.608356 -1.36453 0
M  V30 10802 H 983.848 0.983718 -4.09757 0
M  V30 10803 H 982.523 1.32764 -2.95221 0
M  V30 10804 H 981.43 -0.887012 -3.63432 0
M  V30 10805 H 982.763 -1.1479 -4.78627 0
M  V30 10806 N 984.415 1.45619 -0.602734 0
M  V30 10807 C 985.378 2.28941 0.108962 0
M  V30 10808 C 986.378 1.39501 0.799762 0
M  V30 10809 O 987.568 1.61673 0.648663 0
M  V30 10810 C 984.7 3.204 1.16432 0
M  V30 10811 H 985.893 2.93346 -0.623534 0
M  V30 10812 H 983.446 1.52061 -0.361565 0
M  V30 10813 H 984.181 2.60785 1.92774 0
M  V30 10814 H 983.966 3.86277 0.673248 0
M  V30 10815 H 985.456 3.83063 1.6629 0
M  V30 10816 N 985.893 0.34162 1.53853 0
M  V30 10817 C 986.803 -0.524555 2.2866 0
M  V30 10818 C 987.819 -1.1136 1.33697 0
M  V30 10819 O 988.995 -1.1297 1.66732 0
M  V30 10820 C 986.06 -1.66065 3.04341 0
M  V30 10821 C 985.121 -1.10158 4.14926 0
M  V30 10822 C 984.354 -2.18353 4.86988 0
M  V30 10823 O 984.577 -3.39038 4.58704 0
M  V30 10824 O 983.511 -1.82756 5.73484 0
M  V30 10825 H 987.337 0.0835014 3.03585 0
M  V30 10826 H 984.922 0.106727 1.49018 0
M  V30 10827 H 986.804 -2.3217 3.51674 0
M  V30 10828 H 985.479 -2.25456 2.32275 0
M  V30 10829 H 984.386 -0.405109 3.719 0
M  V30 10830 H 985.719 -0.552567 4.89088 0
M  V30 10831 N 987.371 -1.57444 0.0701946 0
M  V30 10832 C 988.596 -1.98171 -0.61181 0
M  V30 10833 C 989.021 -0.94823 -1.62451 0
M  V30 10834 O 988.379 0.0863553 -1.81094 0
M  V30 10835 C 988.427 -3.37934 -1.2583 0
M  V30 10836 O 987.531 -3.37207 -2.37414 0
M  V30 10837 H 986.872 -0.645056 -0.157477 0
M  V30 10838 H 989.402 -2.04091 0.144235 0
M  V30 10839 H 989.412 -3.75083 -1.60552 0
M  V30 10840 H 988.087 -4.12684 -0.516234 0
M  V30 10841 H 986.664 -3.11826 -2.04497 0
M  V30 10842 N 988.849 0.203349 -1.56283 0
M  V30 10843 C 989.779 1.2549 -1.96912 0
M  V30 10844 C 990.76 1.47919 -0.839884 0
M  V30 10845 O 991.945 1.59795 -1.10359 0
M  V30 10846 C 989.075 2.6009 -2.30153 0
M  V30 10847 C 988.029 2.52289 -3.45738 0
M  V30 10848 C 987.355 3.91086 -3.64632 0
M  V30 10849 C 988.655 2.05503 -4.80173 0
M  V30 10850 H 990.349 0.917306 -2.85002 0
M  V30 10851 H 987.895 0.439818 -1.37119 0
M  V30 10852 H 989.848 3.33829 -2.5717 0
M  V30 10853 H 988.572 2.95574 -1.38937 0
M  V30 10854 H 987.231 1.81006 -3.18798 0
M  V30 10855 H 986.879 4.23908 -2.7076 0
M  V30 10856 H 986.579 3.86742 -4.42385 0
M  V30 10857 H 988.103 4.66459 -3.94016 0
M  V30 10858 H 989.517 2.68995 -5.06275 0
M  V30 10859 H 987.914 2.1218 -5.61337 0
M  V30 10860 H 988.984 1.00793 -4.74309 0
M  V30 10861 N 990.327 1.50405 0.470755 0
M  V30 10862 C 991.555 1.65168 1.24608 0
M  V30 10863 C 991.97 0.335153 1.85801 0
M  V30 10864 O 991.327 -0.682919 1.69241 0
M  V30 10865 C 991.378 2.74305 2.35455 0
M  V30 10866 O 991.099 4.00854 1.76771 0
M  V30 10867 C 992.6 3.00044 3.26326 0
M  V30 10868 H 989.82 0.555186 0.376842 0
M  V30 10869 H 992.364 1.9663 0.56187 0
M  V30 10870 H 990.519 2.45536 2.99651 0
M  V30 10871 H 990.933 4.61211 2.49769 0
M  V30 10872 H 992.407 3.8007 4.00313 0
M  V30 10873 H 992.884 2.11128 3.85126 0
M  V30 10874 H 993.49 3.30345 2.67866 0
M  V30 10875 N 991.805 -0.723954 1.39988 0
M  V30 10876 C 993.03 -1.5182 1.41299 0
M  V30 10877 C 993.455 -1.88096 0.0122636 0
M  V30 10878 O 992.813 -1.52687 -0.977559 0
M  V30 10879 C 992.861 -2.77532 2.30235 0
M  V30 10880 O 991.965 -3.73903 1.73984 0
M  V30 10881 H 991.306 -0.458058 0.480707 0
M  V30 10882 H 993.836 -0.892291 1.84118 0
M  V30 10883 H 993.846 -3.2615 2.45132 0
M  V30 10884 H 992.521 -2.50462 3.32026 0
M  V30 10885 H 991.098 -3.32715 1.68389 0
M  V30 10886 N 993.283 -1.25346 -0.955304 0
M  V30 10887 C 994.246 -1.05754 -2.03344 0
M  V30 10888 C 995.246 -0.0105743 -1.60797 0
M  V30 10889 O 996.436 -0.252699 -1.72357 0
M  V30 10890 C 993.568 -0.605536 -3.35479 0
M  V30 10891 H 994.761 -2.01459 -2.22158 0
M  V30 10892 H 992.314 -1.07744 -1.1323 0
M  V30 10893 H 993.049 0.354154 -3.2236 0
M  V30 10894 H 992.834 -1.36134 -3.67709 0
M  V30 10895 H 994.324 -0.489867 -4.14717 0
M  V30 10896 N 994.761 1.15782 -1.06922 0
M  V30 10897 C 995.693 2.19978 -0.643604 0
M  V30 10898 C 996.706 1.59981 0.301653 0
M  V30 10899 O 997.895 1.78265 0.0916508 0
M  V30 10900 C 994.995 3.38815 0.0757973 0
M  V30 10901 C 994.168 4.28363 -0.884545 0
M  V30 10902 C 993.227 5.25807 -0.203233 0
M  V30 10903 O 992.253 5.62924 -0.842904 0
M  V30 10904 N 993.455 5.70874 1.05279 0
M  V30 10905 H 996.22 2.57112 -1.53992 0
M  V30 10906 H 993.781 1.30855 -0.953344 0
M  V30 10907 H 995.773 4.01052 0.542151 0
M  V30 10908 H 994.343 3.00133 0.874 0
M  V30 10909 H 993.563 3.63292 -1.53012 0
M  V30 10910 H 994.851 4.85067 -1.53581 0
M  V30 10911 H 994.249 5.42822 1.5925 0
M  V30 10912 H 992.806 6.35171 1.46289 0
M  V30 10913 N 996.239 0.8527 1.3254 0
M  V30 10914 C 997.186 0.293905 2.28921 0
M  V30 10915 C 998.156 -0.598027 1.54961 0
M  V30 10916 O 999.341 -0.533355 1.83194 0
M  V30 10917 C 996.481 -0.513361 3.4126 0
M  V30 10918 C 995.594 0.404144 4.30105 0
M  V30 10919 C 994.729 -0.415564 5.29572 0
M  V30 10920 C 993.768 0.499461 6.10059 0
M  V30 10921 N 992.905 -0.282949 7.0153 0
M  V30 10922 H 997.745 1.12107 2.76109 0
M  V30 10923 H 995.282 0.564272 1.35847 0
M  V30 10924 H 997.24 -0.997008 4.05112 0
M  V30 10925 H 995.87 -1.30537 2.95229 0
M  V30 10926 H 994.922 1.00617 3.66852 0
M  V30 10927 H 996.234 1.10648 4.86373 0
M  V30 10928 H 995.388 -0.962458 5.99017 0
M  V30 10929 H 994.127 -1.15127 4.73917 0
M  V30 10930 H 993.132 1.05825 5.39519 0
M  V30 10931 H 994.357 1.23375 6.67799 0
M  V30 10932 H 992.303 -1.00179 6.48306 0
M  V30 10933 H 992.22 0.36039 7.55141 0
M  V30 10934 H 993.488 -0.811632 7.75263 0
M  V30 10935 N 997.718 -1.45297 0.610449 0
M  V30 10936 C 998.681 -2.28995 -0.0968194 0
M  V30 10937 C 999.681 -1.39923 -0.792353 0
M  V30 10938 O 1000.87 -1.62014 -0.64008 0
M  V30 10939 C 998.003 -3.21013 -1.14731 0
M  V30 10940 H 999.196 -2.93012 0.639082 0
M  V30 10941 H 996.749 -1.51867 0.369624 0
M  V30 10942 H 997.484 -2.61803 -1.91388 0
M  V30 10943 H 997.269 -3.86628 -0.652753 0
M  V30 10944 H 998.759 -3.8394 -1.64256 0
M  V30 10945 N 999.196 -0.349774 -1.5367 0
M  V30 10946 C 1000.14 0.504121 -2.25227 0
M  V30 10947 C 1001.11 1.09048 -1.2529 0
M  V30 10948 O 1002.3 1.12594 -1.54037 0
M  V30 10949 C 999.438 1.64601 -3.03316 0
M  V30 10950 C 998.551 1.08635 -4.18118 0
M  V30 10951 C 997.686 2.19605 -4.83681 0
M  V30 10952 C 996.725 1.61023 -5.90541 0
M  V30 10953 N 995.862 2.6576 -6.49858 0
M  V30 10954 H 1000.7 -0.112621 -2.97787 0
M  V30 10955 H 998.239 -0.0673503 -1.46946 0
M  V30 10956 H 1000.2 2.31836 -3.46854 0
M  V30 10957 H 998.827 2.23364 -2.33041 0
M  V30 10958 H 997.879 0.304748 -3.79177 0
M  V30 10959 H 999.191 0.617911 -4.94958 0
M  V30 10960 H 998.345 2.94693 -5.30322 0
M  V30 10961 H 997.084 2.69795 -4.06278 0
M  V30 10962 H 996.089 0.844428 -5.43277 0
M  V30 10963 H 997.314 1.11677 -6.69855 0
M  V30 10964 H 995.26 3.15193 -5.75317 0
M  V30 10965 H 995.177 2.23557 -7.2219 0
M  V30 10966 H 996.445 3.40598 -7.01151 0
M  V30 10967 N 1000.67 1.57404 -0.0785433 0
M  V30 10968 C 1001.64 2.11977 0.871693 0
M  V30 10969 C 1002.64 1.04529 1.2219 0
M  V30 10970 O 1003.83 1.30488 1.15406 0
M  V30 10971 C 1000.96 2.6267 2.17296 0
M  V30 10972 H 1002.15 2.97246 0.398115 0
M  V30 10973 H 999.705 1.5537 0.170251 0
M  V30 10974 H 1000.44 1.80873 2.69175 0
M  V30 10975 H 1000.22 3.41214 1.93171 0
M  V30 10976 H 1001.71 3.04943 2.85306 0
M  V30 10977 N 1002.15 -0.195058 1.56388 0
M  V30 10978 C 1003.06 -1.26219 1.97752 0
M  V30 10979 C 1004.08 -1.49801 0.885192 0
M  V30 10980 O 1005.25 -1.62415 1.19094 0
M  V30 10981 C 1002.32 -2.5865 2.3087 0
M  V30 10982 C 1001.38 -2.4314 3.5381 0
M  V30 10983 C 1000.61 -3.69255 3.85339 0
M  V30 10984 O 1000.84 -4.73425 3.18159 0
M  V30 10985 O 999.77 -3.64782 4.78767 0
M  V30 10986 H 1003.6 -0.941161 2.88749 0
M  V30 10987 H 1001.18 -0.40006 1.43944 0
M  V30 10988 H 1003.06 -3.36814 2.53247 0
M  V30 10989 H 1001.74 -2.9038 1.43042 0
M  V30 10990 H 1000.64 -1.63086 3.3668 0
M  V30 10991 H 1001.98 -2.16341 4.42105 0
M  V30 10992 N 1003.63 -1.50653 -0.462772 0
M  V30 10993 C 1004.54 -1.72923 -1.58539 0
M  V30 10994 C 1005.56 -0.612577 -1.6286 0
M  V30 10995 O 1006.73 -0.891885 -1.80575 0
M  V30 10996 C 1003.8 -1.82623 -2.94703 0
M  V30 10997 C 1002.86 -3.06392 -3.00704 0
M  V30 10998 C 1002.09 -3.15618 -4.30373 0
M  V30 10999 O 1002.31 -2.31423 -5.21344 0
M  V30 11000 O 1001.25 -4.0841 -4.42136 0
M  V30 11001 H 1005.07 -2.68103 -1.42669 0
M  V30 11002 H 1002.66 -1.34848 -0.643144 0
M  V30 11003 H 1004.54 -1.91134 -3.7556 0
M  V30 11004 H 1003.22 -0.906275 -3.10754 0
M  V30 11005 H 1002.12 -3.03375 -2.18894 0
M  V30 11006 H 1003.46 -3.97992 -2.89591 0
M  V30 11007 N 1005.11 0.71652 -1.4037 0
M  V30 11008 C 1006.06 1.8306 -1.40562 0
M  V30 11009 C 1007.03 1.64009 -0.262697 0
M  V30 11010 O 1008.21 1.85157 -0.460619 0
M  V30 11011 C 1005.35 3.2076 -1.27307 0
M  V30 11012 C 1004.46 3.51389 -2.51296 0
M  V30 11013 C 1003.6 4.78589 -2.30491 0
M  V30 11014 C 1002.64 5.02119 -3.50061 0
M  V30 11015 N 1001.77 6.20533 -3.28457 0
M  V30 11016 H 1006.61 1.82231 -2.35788 0
M  V30 11017 H 1004.15 0.890198 -1.17106 0
M  V30 11018 H 1006.11 4.00274 -1.17628 0
M  V30 11019 H 1004.74 3.2082 -0.357005 0
M  V30 11020 H 1003.79 2.66436 -2.71507 0
M  V30 11021 H 1005.1 3.64686 -3.40302 0
M  V30 11022 H 1004.26 5.66119 -2.1816 0
M  V30 11023 H 1003 4.67499 -1.38909 0
M  V30 11024 H 1002 4.13044 -3.6287 0
M  V30 11025 H 1003.23 5.15082 -4.42569 0
M  V30 11026 H 1001.17 6.10695 -2.39556 0
M  V30 11027 H 1001.09 6.34502 -4.11027 0
M  V30 11028 H 1002.36 7.10853 -3.19857 0
M  V30 11029 N 1006.59 1.25851 0.948643 0
M  V30 11030 C 1007.53 1.06759 2.04625 0
M  V30 11031 C 1008.5 -0.0251144 1.66081 0
M  V30 11032 O 1009.69 0.133221 1.90334 0
M  V30 11033 C 1006.83 0.698724 3.37952 0
M  V30 11034 C 1005.94 1.8669 3.89578 0
M  V30 11035 C 1005.08 1.44184 5.11258 0
M  V30 11036 C 1004.12 2.57878 5.55126 0
M  V30 11037 N 1003.25 2.16106 6.68014 0
M  V30 11038 H 1008.09 2.00691 2.20289 0
M  V30 11039 H 1005.63 0.999327 1.07944 0
M  V30 11040 H 1007.59 0.465788 4.14592 0
M  V30 11041 H 1006.22 -0.203618 3.22157 0
M  V30 11042 H 1005.27 2.21298 3.09405 0
M  V30 11043 H 1006.58 2.72051 4.18079 0
M  V30 11044 H 1005.74 1.16891 5.95333 0
M  V30 11045 H 1004.47 0.559035 4.84485 0
M  V30 11046 H 1003.48 2.85909 4.69612 0
M  V30 11047 H 1004.7 3.46747 5.83904 0
M  V30 11048 H 1002.65 1.3025 6.42939 0
M  V30 11049 H 1002.57 2.95012 6.96063 0
M  V30 11050 H 1003.84 1.92005 7.55483 0
M  V30 11051 N 1008.06 -1.15214 1.07534 0
M  V30 11052 C 1009.48 -1.38031 0.801228 0
M  V30 11053 C 1009.68 -1.92556 -0.593672 0
M  V30 11054 O 1008.74 -2.1325 -1.35206 0
M  V30 11055 C 1010.05 -2.34958 1.87657 0
M  V30 11056 C 1011.6 -2.48617 1.90154 0
M  V30 11057 C 1012.07 -3.48837 2.96777 0
M  V30 11058 N 1013.56 -3.56374 2.95892 0
M  V30 11059 C 1014.3 -4.33746 3.75036 0
M  V30 11060 N 1013.79 -5.14435 4.64036 0
M  V30 11061 N 1015.59 -4.28853 3.63375 0
M  V30 11062 H 1007.74 -0.781639 1.97495 0
M  V30 11063 H 1010 -0.406243 0.856546 0
M  V30 11064 H 1009.71 -2.02013 2.87895 0
M  V30 11065 H 1009.58 -3.3476 1.73827 0
M  V30 11066 H 1011.97 -2.80859 0.905666 0
M  V30 11067 H 1012.05 -1.48808 2.08062 0
M  V30 11068 H 1011.69 -3.1733 3.96565 0
M  V30 11069 H 1011.62 -4.48406 2.76116 0
M  V30 11070 H 1014.11 -2.98784 2.31379 0
M  V30 11071 H 1014.43 -5.70722 5.21053 0
M  V30 11072 H 1012.77 -5.13734 4.68084 0
M  V30 11073 H 1015.96 -3.64882 2.93221 0
M  V30 11074 H 1016.14 -4.88903 4.25298 0
M  V30 11075 N 1009.54 -0.859717 -1.32086 0
M  V30 11076 C 1010.96 -0.55025 -1.49815 0
M  V30 11077 C 1011.16 0.917966 -1.79376 0
M  V30 11078 O 1010.21 1.70073 -1.86632 0
M  V30 11079 C 1011.53 -1.44161 -2.6389 0
M  V30 11080 C 1013.08 -1.44257 -2.77775 0
M  V30 11081 C 1013.55 -2.31926 -3.94936 0
M  V30 11082 N 1015.04 -2.2975 -4.02206 0
M  V30 11083 C 1015.78 -2.9431 -4.92107 0
M  V30 11084 N 1015.27 -3.68001 -5.86981 0
M  V30 11085 N 1017.07 -2.83671 -4.8527 0
M  V30 11086 H 1009.22 -1.80987 -1.11164 0
M  V30 11087 H 1011.48 -0.773313 -0.548353 0
M  V30 11088 H 1011.19 -2.48588 -2.4879 0
M  V30 11089 H 1011.06 -1.13268 -3.59792 0
M  V30 11090 H 1013.45 -0.405923 -2.92295 0
M  V30 11091 H 1013.53 -1.79169 -1.82571 0
M  V30 11092 H 1013.17 -3.35661 -3.81174 0
M  V30 11093 H 1013.1 -1.94344 -4.89426 0
M  V30 11094 H 1015.59 -1.76177 -3.3432 0
M  V30 11095 H 1015.91 -4.14417 -6.52287 0
M  V30 11096 H 1014.25 -3.72109 -5.86992 0
M  V30 11097 H 1017.44 -2.25647 -4.10123 0
M  V30 11098 H 1017.61 -3.34267 -5.5513 0
M  V30 11099 N 1011.02 1.44971 -0.618145 0
M  V30 11100 C 1011.97 2.30606 0.09449 0
M  V30 11101 C 1012.94 1.42725 0.849633 0
M  V30 11102 O 1014.12 1.71643 0.833266 0
M  V30 11103 C 1011.26 3.27803 1.07886 0
M  V30 11104 C 1010.38 4.30787 0.323488 0
M  V30 11105 C 1009.51 5.15085 1.29851 0
M  V30 11106 C 1008.55 6.09788 0.531561 0
M  V30 11107 N 1007.69 6.86829 1.4564 0
M  V30 11108 H 1012.53 2.91008 -0.641738 0
M  V30 11109 H 1010.06 1.43391 -0.328259 0
M  V30 11110 H 1012.02 3.82631 1.66281 0
M  V30 11111 H 1010.65 2.69131 1.78237 0
M  V30 11112 H 1009.7 3.78536 -0.376164 0
M  V30 11113 H 1011.02 4.98044 -0.274443 0
M  V30 11114 H 1010.17 5.74365 1.95421 0
M  V30 11115 H 1008.91 4.4787 1.93037 0
M  V30 11116 H 1007.91 5.49628 -0.137702 0
M  V30 11117 H 1009.14 6.79033 -0.0953993 0
M  V30 11118 H 1007.08 6.22295 2.07571 0
M  V30 11119 H 1007 7.50477 0.912167 0
M  V30 11120 H 1008.27 7.50642 2.10134 0
M  V30 11121 N 1012.5 0.357919 1.53482 0
M  V30 11122 C 1013.43 -0.535553 2.21827 0
M  V30 11123 C 1014.41 -1.08904 1.20742 0
M  V30 11124 O 1015.59 -1.14661 1.49616 0
M  V30 11125 C 1012.72 -1.73817 2.90698 0
M  V30 11126 C 1011.77 -1.31283 4.05792 0
M  V30 11127 S 1012.6 -0.320548 5.3454 0
M  V30 11128 C 1013.76 -1.52967 6.0692 0
M  V30 11129 H 1013.99 0.0449045 2.97266 0
M  V30 11130 H 1011.52 0.142009 1.53746 0
M  V30 11131 H 1013.48 -2.42803 3.30994 0
M  V30 11132 H 1012.14 -2.28987 2.14998 0
M  V30 11133 H 1011.33 -2.20989 4.52968 0
M  V30 11134 H 1010.94 -0.702275 3.67347 0
M  V30 11135 H 1013.23 -2.46191 6.31186 0
M  V30 11136 H 1014.17 -1.09943 6.99513 0
M  V30 11137 H 1014.58 -1.73224 5.37265 0
M  V30 11138 N 1013.98 -1.5736 0.0868897 0
M  V30 11139 C 1015.2 -1.98809 -0.590757 0
M  V30 11140 C 1015.63 -0.965407 -1.61436 0
M  V30 11141 O 1014.98 0.067143 -1.81176 0
M  V30 11142 C 1015.03 -3.39249 -1.22238 0
M  V30 11143 O 1014.14 -3.39706 -2.33824 0
M  V30 11144 H 1013.48 -0.64669 -0.150626 0
M  V30 11145 H 1016.01 -2.03927 0.165873 0
M  V30 11146 H 1016.02 -3.76765 -1.56564 0
M  V30 11147 H 1014.69 -4.13208 -0.472434 0
M  V30 11148 H 1013.27 -3.13977 -2.01178 0
M  V30 11149 N 1015.45 0.186762 -1.56489 0
M  V30 11150 C 1016.4 1.23141 -1.95205 0
M  V30 11151 C 1017.37 1.44799 -0.81378 0
M  V30 11152 O 1018.56 1.57795 -1.07263 0
M  V30 11153 C 1015.7 2.56926 -2.30397 0
M  V30 11154 C 1014.81 2.42777 -3.57328 0
M  V30 11155 C 1013.94 3.69323 -3.81804 0
M  V30 11156 C 1012.98 3.50041 -5.02133 0
M  V30 11157 N 1012.12 4.68619 -5.2282 0
M  V30 11158 H 1016.96 0.894256 -2.84266 0
M  V30 11159 H 1014.5 0.430187 -1.40669 0
M  V30 11160 H 1016.46 3.3488 -2.4882 0
M  V30 11161 H 1015.09 2.88668 -1.44466 0
M  V30 11162 H 1014.14 1.56078 -3.46906 0
M  V30 11163 H 1015.45 2.24468 -4.45439 0
M  V30 11164 H 1014.6 4.55715 -4.00511 0
M  V30 11165 H 1013.34 3.90595 -2.92039 0
M  V30 11166 H 1012.35 2.62034 -4.8334 0
M  V30 11167 H 1013.57 3.30206 -5.93414 0
M  V30 11168 H 1011.52 4.90139 -4.36005 0
M  V30 11169 H 1011.44 4.53165 -6.05126 0
M  V30 11170 H 1012.7 5.56338 -5.45993 0
M  V30 11171 N 1016.93 1.50896 0.454776 0
M  V30 11172 C 1018.18 1.62378 1.20324 0
M  V30 11173 C 1018.5 0.333883 1.9212 0
M  V30 11174 O 1017.77 -0.649477 1.8482 0
M  V30 11175 H 1016.35 0.598395 0.447139 0
M  V30 11176 H 1019.01 1.87749 0.523102 0
M  V30 11177 H 1018.11 2.44296 1.94232 0
M  V30 11178 N 1018.41 -0.709066 1.40748 0
M  V30 11179 C 1019.34 -1.83583 1.4429 0
M  V30 11180 C 1020.32 -1.67378 0.303067 0
M  V30 11181 O 1021.51 -1.87312 0.512612 0
M  V30 11182 C 1018.64 -3.21599 1.31116 0
M  V30 11183 C 1017.59 -3.52486 2.4277 0
M  V30 11184 C 1016.92 -4.89716 2.14668 0
M  V30 11185 C 1018.22 -3.52824 3.85113 0
M  V30 11186 H 1019.91 -1.80876 2.38588 0
M  V30 11187 H 1017.46 -0.868795 1.14839 0
M  V30 11188 H 1019.41 -4.00123 1.32209 0
M  V30 11189 H 1018.13 -3.24898 0.332965 0
M  V30 11190 H 1016.79 -2.76305 2.40937 0
M  V30 11191 H 1016.44 -4.89625 1.15224 0
M  V30 11192 H 1016.14 -5.11347 2.89478 0
M  V30 11193 H 1017.66 -5.70566 2.17455 0
M  V30 11194 H 1019.08 -4.21377 3.88734 0
M  V30 11195 H 1017.48 -3.85984 4.59496 0
M  V30 11196 H 1018.55 -2.52073 4.14231 0
M  V30 11197 N 1019.89 -1.26353 -0.941956 0
M  V30 11198 C 1021.3 -1.10774 -1.50287 0
M  V30 11199 C 1021.65 0.312229 -1.937 0
M  V30 11200 O 1020.78 1.20364 -1.79838 0
M  V30 11201 C 1021.37 -2.00473 -2.73123 0
M  V30 11202 C 1019.93 -1.89042 -3.25485 0
M  V30 11203 C 1019.08 -1.93869 -1.98267 0
M  V30 11204 H 1022.03 -1.39454 -0.757523 0
M  V30 11205 H 1022.05 -1.55216 -3.47402 0
M  V30 11206 H 1021.56 -3.03812 -2.41495 0
M  V30 11207 H 1019.66 -0.886341 -3.61904 0
M  V30 11208 H 1019.78 -2.74533 -3.92643 0
M  V30 11209 H 1018.14 -1.37912 -2.14132 0
M  V30 11210 H 1018.92 -2.98837 -1.68972 0
M  V30 11211 N 1021.37 1.14642 -1.08144 0
M  V30 11212 C 1022.64 1.81774 -0.72232 0
M  V30 11213 C 1023.02 1.95587 0.794294 0
M  V30 11214 O 1022.37 1.51361 1.71178 0
M  V30 11215 C 1022.58 3.1763 -1.44611 0
M  V30 11216 C 1023.93 3.93161 -1.60343 0
M  V30 11217 O 1024.95 3.2721 -1.40755 0
M  V30 11218 O 1023.81 5.11422 -1.9264 0
M  V30 11219 H 1020.91 0.785733 -0.257978 0
M  V30 11220 H 1023.45 1.21683 -1.18285 0
M  V30 11221 H 1022.23 3.02723 -2.4794 0
M  V30 11222 H 1021.85 3.85412 -0.976892 0
M  V30 11223 N 1022.85 0.866709 1.31628 0
M  V30 11224 C 1023.79 0.318169 2.28596 0
M  V30 11225 C 1024.76 -0.581558 1.55586 0
M  V30 11226 O 1025.95 -0.513895 1.83749 0
M  V30 11227 C 1023.09 -0.477137 3.41786 0
M  V30 11228 C 1022.2 0.449739 4.29653 0
M  V30 11229 C 1021.34 -0.359373 5.29983 0
M  V30 11230 C 1020.37 0.564138 6.09495 0
M  V30 11231 N 1019.51 -0.208526 7.0179 0
M  V30 11232 H 1024.35 1.15029 2.74904 0
M  V30 11233 H 1021.89 0.578649 1.35241 0
M  V30 11234 H 1023.85 -0.953985 4.06146 0
M  V30 11235 H 1022.48 -1.27398 2.96597 0
M  V30 11236 H 1021.53 1.04502 3.65764 0
M  V30 11237 H 1022.84 1.158 4.85172 0
M  V30 11238 H 1021.99 -0.89887 6.00004 0
M  V30 11239 H 1020.73 -1.10094 4.75111 0
M  V30 11240 H 1019.74 1.11542 5.38366 0
M  V30 11241 H 1020.96 1.30451 6.66453 0
M  V30 11242 H 1018.91 -0.932969 6.49332 0
M  V30 11243 H 1018.83 0.440463 7.54716 0
M  V30 11244 H 1020.09 -0.72936 7.7608 0
M  V30 11245 N 1024.32 -1.44642 0.625825 0
M  V30 11246 C 1025.55 -2.06971 0.133373 0
M  V30 11247 C 1025.97 -1.46421 -1.18078 0
M  V30 11248 O 1025.33 -0.563676 -1.72315 0
M  V30 11249 C 1025.38 -3.6059 0.0265097 0
M  V30 11250 O 1024.48 -3.99615 -1.01889 0
M  V30 11251 H 1023.82 -0.658873 0.0823568 0
M  V30 11252 H 1026.35 -1.85601 0.861002 0
M  V30 11253 H 1026.36 -4.07663 -0.1658 0
M  V30 11254 H 1025.04 -4.04043 0.985986 0
M  V30 11255 H 1023.62 -3.64183 -0.801577 0
M  V30 11256 N 1025.8 -0.366053 -1.5329 0
M  V30 11257 C 1026.71 0.488111 -2.29466 0
M  V30 11258 C 1027.73 1.09219 -1.35452 0
M  V30 11259 O 1028.9 1.10303 -1.68509 0
M  V30 11260 C 1025.97 1.61202 -3.06944 0
M  V30 11261 C 1025.03 1.03543 -4.16626 0
M  V30 11262 C 1024.26 2.10578 -4.904 0
M  V30 11263 O 1024.49 3.31697 -4.6404 0
M  V30 11264 O 1023.42 1.73609 -5.76319 0
M  V30 11265 H 1027.25 -0.131789 -3.03414 0
M  V30 11266 H 1024.83 -0.130421 -1.4883 0
M  V30 11267 H 1026.71 2.26546 -3.55324 0
M  V30 11268 H 1025.39 2.21732 -2.35832 0
M  V30 11269 H 1024.29 0.345892 -3.72498 0
M  V30 11270 H 1025.63 0.474687 -4.89906 0
M  V30 11271 N 1027.28 1.57312 -0.0952337 0
M  V30 11272 C 1028.19 2.17556 0.877877 0
M  V30 11273 C 1029.21 1.14505 1.31014 0
M  V30 11274 O 1030.38 1.46876 1.37802 0
M  V30 11275 C 1027.45 2.74413 2.11892 0
M  V30 11276 C 1026.51 3.92419 1.74085 0
M  V30 11277 C 1025.74 4.46556 2.92273 0
M  V30 11278 O 1025.96 3.99631 4.07002 0
M  V30 11279 O 1024.9 5.37576 2.70732 0
M  V30 11280 H 1028.72 3.01116 0.395312 0
M  V30 11281 H 1026.31 1.48841 0.129123 0
M  V30 11282 H 1028.19 3.10754 2.84622 0
M  V30 11283 H 1026.87 1.93899 2.59201 0
M  V30 11284 H 1025.77 3.6089 0.985346 0
M  V30 11285 H 1027.11 4.74298 1.31539 0
M  V30 11286 N 1028.76 -0.17846 1.56586 0
M  V30 11287 C 1029.67 -1.24115 1.9908 0
M  V30 11288 C 1030.68 -1.48854 0.901031 0
M  V30 11289 O 1031.86 -1.61142 1.2081 0
M  V30 11290 C 1028.92 -2.56187 2.33601 0
M  V30 11291 C 1027.99 -2.39373 3.56369 0
M  V30 11292 C 1027.22 -3.65147 3.89234 0
M  V30 11293 O 1027.44 -4.70024 3.23162 0
M  V30 11294 O 1026.38 -3.59683 4.82609 0
M  V30 11295 H 1030.2 -0.910482 2.89731 0
M  V30 11296 H 1027.79 -0.38477 1.4436 0
M  V30 11297 H 1029.67 -3.34109 2.56806 0
M  V30 11298 H 1028.34 -2.88847 1.46113 0
M  V30 11299 H 1027.25 -1.59506 3.38391 0
M  V30 11300 H 1028.58 -2.1164 4.44375 0
M  V30 11301 N 1030.24 -1.51135 -0.446768 0
M  V30 11302 C 1031.18 -1.71767 -1.54158 0
M  V30 11303 C 1032.15 -0.559201 -1.56404 0
M  V30 11304 O 1033.34 -0.792567 -1.7356 0
M  V30 11305 C 1030.48 -1.84006 -2.91952 0
M  V30 11306 C 1029.59 -3.11511 -2.99308 0
M  V30 11307 C 1028.73 -3.144 -4.28166 0
M  V30 11308 C 1027.76 -4.36258 -4.29355 0
M  V30 11309 N 1026.9 -4.3675 -5.49722 0
M  V30 11310 H 1031.74 -2.65224 -1.35869 0
M  V30 11311 H 1029.28 -1.31453 -0.660186 0
M  V30 11312 H 1031.24 -1.89083 -3.71892 0
M  V30 11313 H 1029.87 -0.939661 -3.08821 0
M  V30 11314 H 1028.92 -3.15788 -2.12089 0
M  V30 11315 H 1030.23 -4.01445 -2.96047 0
M  V30 11316 H 1029.38 -3.18341 -5.16473 0
M  V30 11317 H 1028.12 -2.22338 -4.3407 0
M  V30 11318 H 1027.13 -4.32503 -3.39442 0
M  V30 11319 H 1028.35 -5.29574 -4.25122 0
M  V30 11320 H 1026.3 -3.47554 -5.56365 0
M  V30 11321 H 1026.22 -5.20481 -5.48302 0
M  V30 11322 H 1027.48 -4.4487 -6.40086 0
M  V30 11323 N 1031.71 0.701592 -1.41122 0
M  V30 11324 C 1032.94 1.49553 -1.43696 0
M  V30 11325 C 1033.36 1.88053 -0.0421865 0
M  V30 11326 O 1032.72 1.54223 0.953144 0
M  V30 11327 C 1032.77 2.73834 -2.34622 0
M  V30 11328 O 1031.87 3.71088 -1.7991 0
M  V30 11329 H 1031.21 0.450352 -0.487933 0
M  V30 11330 H 1033.74 0.862886 -1.85514 0
M  V30 11331 H 1033.75 3.22209 -2.5029 0
M  V30 11332 H 1032.43 2.45149 -3.35969 0
M  V30 11333 H 1031.01 3.29994 -1.73661 0
M  V30 11334 N 1033.19 1.2685 0.935242 0
M  V30 11335 C 1034.42 1.15538 1.71635 0
M  V30 11336 C 1034.83 -0.288698 1.8658 0
M  V30 11337 O 1034.19 -1.19721 1.37743 0
M  V30 11338 C 1034.24 1.8259 3.11999 0
M  V30 11339 O 1033.96 3.21355 2.97763 0
M  V30 11340 C 1035.46 1.77307 4.06297 0
M  V30 11341 H 1032.68 0.402055 0.537208 0
M  V30 11342 H 1035.23 1.67582 1.17203 0
M  V30 11343 H 1033.38 1.3447 3.63313 0
M  V30 11344 H 1033.8 3.54626 3.86446 0
M  V30 11345 H 1035.27 2.28851 5.02326 0
M  V30 11346 H 1035.75 0.740823 4.32907 0
M  V30 11347 H 1036.35 2.25007 3.60904 0
M  V30 11348 N 1034.67 -1.14067 1.0875 0
M  V30 11349 C 1035.6 -2.18306 0.664652 0
M  V30 11350 C 1036.58 -1.59312 -0.325359 0
M  V30 11351 O 1037.77 -1.87111 -0.228385 0
M  V30 11352 C 1034.89 -3.38693 -0.0218723 0
M  V30 11353 C 1033.94 -4.16263 0.928844 0
M  V30 11354 S 1034.77 -4.76817 2.43734 0
M  V30 11355 C 1035.93 -6.00557 1.76302 0
M  V30 11356 H 1036.16 -2.53837 1.54772 0
M  V30 11357 H 1033.69 -1.25254 0.902817 0
M  V30 11358 H 1035.65 -4.0843 -0.411686 0
M  V30 11359 H 1034.31 -3.01478 -0.881481 0
M  V30 11360 H 1033.51 -5.02446 0.395446 0
M  V30 11361 H 1033.11 -3.52146 1.25972 0
M  V30 11362 H 1035.4 -6.68788 1.08301 0
M  V30 11363 H 1036.34 -6.58492 2.60373 0
M  V30 11364 H 1036.75 -5.50827 1.23489 0
M  V30 11365 N 1036.15 -0.873678 -1.31166 0
M  V30 11366 C 1037.11 -0.337069 -2.26708 0
M  V30 11367 C 1038.11 0.51406 -1.52362 0
M  V30 11368 O 1039.3 0.322834 -1.71182 0
M  V30 11369 C 1036.43 0.520897 -3.36897 0
M  V30 11370 H 1037.63 -1.18056 -2.75686 0
M  V30 11371 H 1035.18 -0.649577 -1.42163 0
M  V30 11372 H 1035.91 1.38543 -2.93217 0
M  V30 11373 H 1035.7 -0.0886015 -3.92 0
M  V30 11374 H 1037.19 0.888497 -4.08039 0
M  V30 11375 N 1037.63 1.44308 -0.633487 0
M  V30 11376 C 1038.57 2.30694 0.0700257 0
M  V30 11377 C 1039.54 1.43618 0.834447 0
M  V30 11378 O 1040.73 1.72517 0.815014 0
M  V30 11379 C 1037.87 3.28929 1.04403 0
M  V30 11380 C 1036.98 4.31106 0.277779 0
M  V30 11381 C 1036.12 5.16433 1.24381 0
M  V30 11382 C 1035.16 6.10317 0.466855 0
M  V30 11383 N 1034.29 6.88335 1.38347 0
M  V30 11384 H 1039.13 2.90311 -0.672567 0
M  V30 11385 H 1036.67 1.43034 -0.343449 0
M  V30 11386 H 1038.63 3.84373 1.62214 0
M  V30 11387 H 1037.26 2.71006 1.75372 0
M  V30 11388 H 1036.31 3.78115 -0.416292 0
M  V30 11389 H 1037.62 4.97725 -0.327251 0
M  V30 11390 H 1036.78 5.76406 1.89318 0
M  V30 11391 H 1035.51 4.49893 1.88276 0
M  V30 11392 H 1034.52 5.49451 -0.195989 0
M  V30 11393 H 1035.74 6.78894 -0.167414 0
M  V30 11394 H 1033.69 6.24461 2.00959 0
M  V30 11395 H 1033.61 7.51402 0.832517 0
M  V30 11396 H 1034.88 7.52829 2.0216 0
M  V30 11397 N 1039.1 0.374177 1.53094 0
M  V30 11398 C 1040.05 -0.468226 2.26001 0
M  V30 11399 C 1041.02 -1.07041 1.27009 0
M  V30 11400 O 1042.21 -1.10129 1.55809 0
M  V30 11401 C 1039.35 -1.59754 3.05896 0
M  V30 11402 C 1038.46 -1.01969 4.19793 0
M  V30 11403 C 1037.59 -2.11882 4.87113 0
M  V30 11404 C 1036.63 -1.51607 5.93028 0
M  V30 11405 N 1035.77 -2.55388 6.54004 0
M  V30 11406 H 1040.61 0.159983 2.9757 0
M  V30 11407 H 1038.15 0.0907196 1.4682 0
M  V30 11408 H 1040.11 -2.26288 3.50499 0
M  V30 11409 H 1038.74 -2.19628 2.36565 0
M  V30 11410 H 1037.79 -0.244386 3.79614 0
M  V30 11411 H 1039.1 -0.539089 4.95878 0
M  V30 11412 H 1038.25 -2.86218 5.34943 0
M  V30 11413 H 1036.99 -2.63297 4.10519 0
M  V30 11414 H 1036 -0.757891 5.44551 0
M  V30 11415 H 1037.22 -1.01006 6.71546 0
M  V30 11416 H 1035.17 -3.06 5.80258 0
M  V30 11417 H 1035.09 -2.12039 7.25655 0
M  V30 11418 H 1036.35 -3.294 7.06481 0
M  V30 11419 N 1040.58 -1.57259 0.103575 0
M  V30 11420 C 1041.51 -2.17509 -0.84923 0
M  V30 11421 C 1042.49 -1.11079 -1.28824 0
M  V30 11422 O 1043.68 -1.39252 -1.35361 0
M  V30 11423 C 1040.81 -2.76221 -2.10522 0
M  V30 11424 C 1039.76 -3.88098 -1.80454 0
M  V30 11425 C 1039.09 -4.33549 -3.12952 0
M  V30 11426 C 1040.39 -5.10909 -1.08486 0
M  V30 11427 H 1042.08 -2.9738 -0.347217 0
M  V30 11428 H 1039.63 -1.43045 -0.165568 0
M  V30 11429 H 1041.58 -3.17024 -2.77621 0
M  V30 11430 H 1040.31 -1.93617 -2.63021 0
M  V30 11431 H 1038.96 -3.47847 -1.15749 0
M  V30 11432 H 1038.61 -3.47825 -3.63355 0
M  V30 11433 H 1038.31 -5.08984 -2.93614 0
M  V30 11434 H 1039.84 -4.76992 -3.81196 0
M  V30 11435 H 1041.25 -5.48828 -1.65711 0
M  V30 11436 H 1039.65 -5.91828 -0.992973 0
M  V30 11437 H 1040.72 -4.84851 -0.0690108 0
M  V30 11438 N 1042.06 0.170153 -1.56679 0
M  V30 11439 C 1042.97 1.23057 -1.99735 0
M  V30 11440 C 1043.99 1.48374 -0.908912 0
M  V30 11441 O 1045.16 1.60499 -1.21663 0
M  V30 11442 C 1042.23 2.54944 -2.34956 0
M  V30 11443 C 1041.29 2.3748 -3.57634 0
M  V30 11444 C 1040.52 3.63078 -3.91165 0
M  V30 11445 O 1040.74 4.68304 -3.2565 0
M  V30 11446 O 1039.68 3.57119 -4.8451 0
M  V30 11447 H 1043.5 0.895104 -2.9021 0
M  V30 11448 H 1041.09 0.377109 -1.44562 0
M  V30 11449 H 1042.97 3.32742 -2.58574 0
M  V30 11450 H 1041.65 2.88068 -1.47643 0
M  V30 11451 H 1040.55 1.57709 -3.39232 0
M  V30 11452 H 1041.89 2.0928 -4.45491 0
M  V30 11453 N 1043.54 1.5137 0.438746 0
M  V30 11454 C 1044.47 1.68774 1.55074 0
M  V30 11455 C 1045.48 0.568436 1.52554 0
M  V30 11456 O 1046.67 0.842707 1.57355 0
M  V30 11457 C 1043.77 1.68592 2.9399 0
M  V30 11458 C 1042.95 2.97084 3.2103 0
M  V30 11459 C 1042 2.89108 4.39663 0
M  V30 11460 O 1041.03 3.63052 4.38385 0
M  V30 11461 N 1042.23 2.04863 5.4315 0
M  V30 11462 H 1045 2.647 1.40549 0
M  V30 11463 H 1042.56 1.49238 0.627663 0
M  V30 11464 H 1044.55 1.60826 3.71372 0
M  V30 11465 H 1043.12 0.802657 3.02119 0
M  V30 11466 H 1042.34 3.18729 2.3196 0
M  V30 11467 H 1043.63 3.82143 3.35923 0
M  V30 11468 H 1043.03 1.4416 5.47023 0
M  V30 11469 H 1041.58 2.02977 6.1939 0
M  V30 11470 N 1045.02 -0.694098 1.41492 0
M  V30 11471 C 1045.96 -1.80801 1.43456 0
M  V30 11472 C 1046.93 -1.63571 0.288757 0
M  V30 11473 O 1048.12 -1.844 0.490017 0
M  V30 11474 C 1045.26 -3.18694 1.32394 0
M  V30 11475 C 1044.37 -3.47346 2.56855 0
M  V30 11476 C 1043.51 -4.74862 2.38075 0
M  V30 11477 C 1042.55 -4.96486 3.58005 0
M  V30 11478 N 1041.68 -6.15229 3.38287 0
M  V30 11479 H 1046.52 -1.78457 2.38657 0
M  V30 11480 H 1044.06 -0.871455 1.18508 0
M  V30 11481 H 1046.02 -3.98352 1.23982 0
M  V30 11482 H 1044.65 -3.20211 0.407999 0
M  V30 11483 H 1043.7 -2.62083 2.75711 0
M  V30 11484 H 1045.01 -3.59226 3.4606 0
M  V30 11485 H 1044.17 -5.62577 2.27139 0
M  V30 11486 H 1042.9 -4.6523 1.46329 0
M  V30 11487 H 1041.91 -4.07219 3.69395 0
M  V30 11488 H 1043.13 -5.07976 4.50708 0
M  V30 11489 H 1041.08 -6.06807 2.49242 0
M  V30 11490 H 1041 -6.27883 4.21069 0
M  V30 11491 H 1042.27 -7.05674 3.31126 0
M  V30 11492 N 1046.49 -1.27344 -0.928501 0
M  V30 11493 C 1047.91 -1.12361 -1.49103 0
M  V30 11494 C 1048.26 0.291667 -1.9402 0
M  V30 11495 O 1047.38 1.18449 -1.81104 0
M  V30 11496 C 1047.98 -2.03358 -2.70981 0
M  V30 11497 C 1046.54 -1.92483 -3.23461 0
M  V30 11498 C 1045.68 -1.95961 -1.962 0
M  V30 11499 H 1048.63 -1.40249 -0.742689 0
M  V30 11500 H 1048.65 -1.58892 -3.45736 0
M  V30 11501 H 1048.17 -3.06356 -2.38259 0
M  V30 11502 H 1046.27 -0.924676 -3.60944 0
M  V30 11503 H 1046.38 -2.78682 -3.89709 0
M  V30 11504 H 1044.74 -1.40175 -2.12657 0
M  V30 11505 H 1045.53 -3.00612 -1.65793 0
M  V30 11506 N 1047.97 1.13488 -1.09353 0
M  V30 11507 C 1048.92 2.18876 -0.732251 0
M  V30 11508 C 1049.89 1.63616 0.286175 0
M  V30 11509 O 1051.07 1.90059 0.167981 0
M  V30 11510 C 1048.21 3.44737 -0.158157 0
M  V30 11511 C 1047.33 4.14104 -1.23053 0
M  V30 11512 C 1046.46 5.27578 -0.619272 0
M  V30 11513 C 1045.5 5.88793 -1.67301 0
M  V30 11514 N 1044.64 6.937 -1.08283 0
M  V30 11515 H 1049.48 2.49128 -1.63522 0
M  V30 11516 H 1047.02 1.22326 -0.816995 0
M  V30 11517 H 1048.97 4.16756 0.192488 0
M  V30 11518 H 1047.6 3.14938 0.708082 0
M  V30 11519 H 1046.66 3.40376 -1.69847 0
M  V30 11520 H 1047.97 4.55683 -2.02865 0
M  V30 11521 H 1047.12 6.0631 -0.217428 0
M  V30 11522 H 1045.86 4.87246 0.210399 0
M  V30 11523 H 1044.87 5.08756 -2.0844 0
M  V30 11524 H 1046.09 6.31197 -2.50533 0
M  V30 11525 H 1044.04 6.55426 -0.274426 0
M  V30 11526 H 1043.95 7.33817 -1.81792 0
M  V30 11527 H 1045.22 7.76286 -0.707167 0
M  V30 11528 N 1049.45 0.880621 1.30701 0
M  V30 11529 C 1050.7 0.495894 1.95922 0
M  V30 11530 C 1051.02 -0.957214 1.69889 0
M  V30 11531 O 1050.29 -1.67245 1.0201 0
M  V30 11532 H 1048.87 0.180394 0.724891 0
M  V30 11533 H 1051.53 1.12274 1.59313 0
M  V30 11534 H 1050.63 0.662508 3.04987 0
M  V30 11535 N 1050.93 -1.4397 0.641131 0
M  V30 11536 C 1051.84 -2.34526 -0.058742 0
M  V30 11537 C 1052.86 -1.53194 -0.825088 0
M  V30 11538 O 1054.03 -1.85888 -0.775081 0
M  V30 11539 C 1051.1 -3.31313 -1.02139 0
M  V30 11540 C 1050.16 -4.28552 -0.253319 0
M  V30 11541 C 1049.39 -5.20715 -1.17012 0
M  V30 11542 O 1049.61 -5.17028 -2.40911 0
M  V30 11543 O 1048.55 -5.9839 -0.649039 0
M  V30 11544 H 1052.37 -2.95843 0.686329 0
M  V30 11545 H 1049.96 -1.43909 0.401316 0
M  V30 11546 H 1051.84 -3.90862 -1.57496 0
M  V30 11547 H 1050.52 -2.72516 -1.7469 0
M  V30 11548 H 1049.42 -3.72519 0.343531 0
M  V30 11549 H 1050.76 -4.90297 0.432372 0
M  V30 11550 N 1052.41 -0.382291 -1.52893 0
M  V30 11551 C 1053.66 0.201734 -2.01091 0
M  V30 11552 C 1053.98 1.47905 -1.2708 0
M  V30 11553 O 1053.25 1.92002 -0.38883 0
M  V30 11554 H 1051.83 0.0775373 -0.742965 0
M  V30 11555 H 1054.49 -0.512369 -1.88045 0
M  V30 11556 H 1053.58 0.416919 -3.09303 0
M  V30 11557 N 1053.89 1.57202 -0.111913 0
M  V30 11558 C 1055.13 1.94125 0.547573 0
M  V30 11559 C 1055.45 0.997026 1.68282 0
M  V30 11560 O 1056.65 1.26063 2.40459 0
M  V30 11561 C 1055.11 3.44982 1.02545 0
M  V30 11562 C 1054.72 4.47927 -0.0809529 0
M  V30 11563 C 1056.46 3.90837 1.65671 0
M  V30 11564 C 1054.37 5.89955 0.413224 0
M  V30 11565 H 1053.3 0.724651 0.208321 0
M  V30 11566 H 1055.95 1.82507 -0.190625 0
M  V30 11567 H 1054.33 3.5181 1.81785 0
M  V30 11568 H 1055.51 4.52761 -0.857003 0
M  V30 11569 H 1053.82 4.11782 -0.618434 0
M  V30 11570 H 1056.42 4.9436 2.03746 0
M  V30 11571 H 1056.76 3.30417 2.53239 0
M  V30 11572 H 1057.29 3.8678 0.929844 0
M  V30 11573 H 1054.03 6.54113 -0.426238 0
M  V30 11574 H 1053.55 5.88557 1.15591 0
M  V30 11575 H 1055.23 6.41032 0.876756 0
M  V30 11576 N 1055.36 -0.161842 1.56767 0
M  V30 11577 C 1056.77 -0.723385 1.72116 0
M  V30 11578 C 1057.13 -1.82355 0.723961 0
M  V30 11579 O 1056.25 -2.16107 -0.112643 0
M  V30 11580 C 1056.85 -1.31895 3.12072 0
M  V30 11581 C 1055.4 -1.82722 3.29074 0
M  V30 11582 C 1054.55 -0.709863 2.6806 0
M  V30 11583 H 1057.5 0.0636647 1.58572 0
M  V30 11584 H 1057.52 -2.18871 3.11249 0
M  V30 11585 H 1057.04 -0.51801 3.84627 0
M  V30 11586 H 1055.14 -2.6543 2.61491 0
M  V30 11587 H 1055.25 -1.96614 4.36898 0
M  V30 11588 H 1053.61 -1.13273 2.28126 0
M  V30 11589 H 1054.4 0.0793884 3.43208 0
M  V30 11590 N 1056.84 -1.516 -0.430713 0
M  V30 11591 C 1058.07 -1.68414 -1.20185 0
M  V30 11592 C 1058.48 -0.384297 -1.84847 0
M  V30 11593 O 1057.84 0.637808 -1.70992 0
M  V30 11594 C 1057.89 -2.80451 -2.28099 0
M  V30 11595 O 1057.61 -4.05399 -1.66081 0
M  V30 11596 C 1059.11 -3.0859 -3.18256 0
M  V30 11597 H 1056.33 -0.564982 -0.361989 0
M  V30 11598 H 1058.88 -1.9805 -0.50954 0
M  V30 11599 H 1057.03 -2.53395 -2.93036 0
M  V30 11600 H 1057.45 -4.67671 -2.37453 0
M  V30 11601 H 1058.92 -3.9055 -3.90096 0
M  V30 11602 H 1059.4 -2.21264 -3.79393 0
M  V30 11603 H 1060 -3.37331 -2.59014 0
M  V30 11604 N 1058.32 0.686584 -1.41858 0
M  V30 11605 C 1059.55 1.47519 -1.45072 0
M  V30 11606 C 1059.96 1.88709 -0.0585868 0
M  V30 11607 O 1059.32 1.57373 0.924116 0
M  V30 11608 C 1059.37 2.73195 -2.36742 0
M  V30 11609 O 1059.09 2.33736 -3.70539 0
M  V30 11610 C 1060.59 3.66861 -2.48854 0
M  V30 11611 H 1057.81 0.454307 -0.493808 0
M  V30 11612 H 1060.36 0.844612 -1.86243 0
M  V30 11613 H 1058.51 3.32468 -1.98856 0
M  V30 11614 H 1058.93 3.14809 -4.19518 0
M  V30 11615 H 1060.4 4.51801 -3.17143 0
M  V30 11616 H 1060.88 4.11961 -1.52265 0
M  V30 11617 H 1061.48 3.13486 -2.87414 0
M  V30 11618 N 1059.8 1.27835 0.921735 0
M  V30 11619 C 1060.76 1.11108 2.00469 0
M  V30 11620 C 1061.76 0.053203 1.60712 0
M  V30 11621 O 1062.95 0.298308 1.71627 0
M  V30 11622 C 1060.08 0.694269 3.33755 0
M  V30 11623 H 1061.28 2.07279 2.16738 0
M  V30 11624 H 1058.83 1.10708 1.10333 0
M  V30 11625 H 1059.56 -0.268561 3.23186 0
M  V30 11626 H 1059.35 1.45836 3.6397 0
M  V30 11627 H 1060.84 0.59965 4.13272 0
M  V30 11628 N 1061.28 -1.12907 1.09954 0
M  V30 11629 C 1062.22 -2.18485 0.743848 0
M  V30 11630 C 1063.19 -1.63766 -0.277494 0
M  V30 11631 O 1064.38 -1.90146 -0.157899 0
M  V30 11632 C 1061.52 -3.44649 0.176437 0
M  V30 11633 C 1060.63 -4.13445 1.25248 0
M  V30 11634 C 1059.77 -5.27242 0.647242 0
M  V30 11635 C 1058.8 -5.87897 1.70421 0
M  V30 11636 N 1057.94 -6.93116 1.1196 0
M  V30 11637 H 1062.78 -2.48257 1.64841 0
M  V30 11638 H 1060.32 -1.21891 0.823471 0
M  V30 11639 H 1062.28 -4.16852 -0.170384 0
M  V30 11640 H 1060.91 -3.15309 -0.69137 0
M  V30 11641 H 1059.96 -3.39471 1.7165 0
M  V30 11642 H 1061.27 -4.54601 2.05279 0
M  V30 11643 H 1060.42 -6.06186 0.249579 0
M  V30 11644 H 1059.16 -4.87351 -0.184556 0
M  V30 11645 H 1058.17 -5.07643 2.11136 0
M  V30 11646 H 1059.39 -6.2986 2.53877 0
M  V30 11647 H 1057.34 -6.55271 0.309181 0
M  V30 11648 H 1057.26 -7.32843 1.85681 0
M  V30 11649 H 1058.52 -7.759 0.748326 0
M  V30 11650 N 1062.75 -0.88754 -1.30232 0
M  V30 11651 C 1063.68 -0.372481 -2.3051 0
M  V30 11652 C 1064.66 0.546037 -1.61098 0
M  V30 11653 O 1065.85 0.459345 -1.88689 0
M  V30 11654 C 1062.98 0.411605 -3.44852 0
M  V30 11655 C 1061.93 -0.415383 -4.2598 0
M  V30 11656 C 1061.26 0.495463 -5.324 0
M  V30 11657 C 1062.56 -1.65886 -4.95257 0
M  V30 11658 H 1064.25 -1.21045 -2.7384 0
M  V30 11659 H 1061.8 -0.583498 -1.31648 0
M  V30 11660 H 1063.75 0.782584 -4.1407 0
M  V30 11661 H 1062.48 1.28325 -3.00334 0
M  V30 11662 H 1061.14 -0.768534 -3.58454 0
M  V30 11663 H 1060.78 1.36489 -4.84128 0
M  V30 11664 H 1060.48 -0.0540885 -5.87575 0
M  V30 11665 H 1062.01 0.862901 -6.04472 0
M  V30 11666 H 1063.42 -1.35832 -5.56976 0
M  V30 11667 H 1061.82 -2.14881 -5.60309 0
M  V30 11668 H 1062.89 -2.40181 -4.21237 0
M  V30 11669 N 1064.23 1.43628 -0.648757 0
M  V30 11670 C 1065.18 2.30755 0.0455536 0
M  V30 11671 C 1066.15 1.44495 0.819168 0
M  V30 11672 O 1067.33 1.73372 0.79667 0
M  V30 11673 C 1064.47 3.30017 1.00908 0
M  V30 11674 C 1063.59 4.31376 0.232039 0
M  V30 11675 C 1062.72 5.17723 1.18897 0
M  V30 11676 C 1061.76 6.10778 0.402096 0
M  V30 11677 N 1060.9 6.89763 1.31038 0
M  V30 11678 H 1065.74 2.89581 -0.70332 0
M  V30 11679 H 1063.28 1.42662 -0.3586 0
M  V30 11680 H 1065.23 3.86072 1.58128 0
M  V30 11681 H 1063.86 2.72851 1.72488 0
M  V30 11682 H 1062.92 3.77652 -0.456373 0
M  V30 11683 H 1064.23 4.9735 -0.380023 0
M  V30 11684 H 1063.38 5.78381 1.83194 0
M  V30 11685 H 1062.12 4.51864 1.83494 0
M  V30 11686 H 1061.13 5.49212 -0.254255 0
M  V30 11687 H 1062.35 6.78678 -0.239411 0
M  V30 11688 H 1060.3 6.26557 1.94324 0
M  V30 11689 H 1060.21 7.52243 0.752774 0
M  V30 11690 H 1061.48 7.54931 1.94164 0
M  V30 11691 N 1065.71 0.390394 1.52688 0
M  V30 11692 C 1066.96 -0.192697 2.00777 0
M  V30 11693 C 1067.27 -1.4781 1.28108 0
M  V30 11694 O 1068.48 -2.1413 1.66914 0
M  V30 11695 C 1066.93 -0.393955 3.57737 0
M  V30 11696 C 1066.54 0.878259 4.39307 0
M  V30 11697 C 1068.29 -0.933352 4.14112 0
M  V30 11698 C 1066.19 0.645218 5.8787 0
M  V30 11699 H 1065.12 -0.0757862 0.750182 0
M  V30 11700 H 1067.77 0.512961 1.76184 0
M  V30 11701 H 1066.16 -1.16149 3.78583 0
M  V30 11702 H 1067.33 1.65049 4.30227 0
M  V30 11703 H 1065.65 1.34269 3.94158 0
M  V30 11704 H 1068.24 -1.12343 5.22765 0
M  V30 11705 H 1068.59 -1.90272 3.70273 0
M  V30 11706 H 1069.12 -0.225361 3.97161 0
M  V30 11707 H 1065.86 1.58562 6.36033 0
M  V30 11708 H 1065.38 -0.0880609 5.99735 0
M  V30 11709 H 1067.06 0.280178 6.46393 0
M  V30 11710 N 1067.19 -1.57141 0.120249 0
M  V30 11711 C 1068.47 -1.8677 -0.581075 0
M  V30 11712 C 1068.85 -1.02163 -1.84732 0
M  V30 11713 O 1068.19 -0.100897 -2.28277 0
M  V30 11714 C 1068.4 -3.37923 -0.872316 0
M  V30 11715 C 1069.75 -4.0655 -1.22483 0
M  V30 11716 O 1070.78 -3.42948 -0.962539 0
M  V30 11717 O 1069.63 -5.18821 -1.71717 0
M  V30 11718 H 1066.73 -0.773219 -0.293362 0
M  V30 11719 H 1069.27 -1.68992 0.154846 0
M  V30 11720 H 1068.05 -3.91292 0.0249416 0
M  V30 11721 H 1067.67 -3.61135 -1.66335 0
M  V30 11722 N 1068.67 0.153526 -1.5685 0
M  V30 11723 C 1069.58 1.20932 -2.01029 0
M  V30 11724 C 1070.59 1.47401 -0.924598 0
M  V30 11725 O 1071.77 1.592 -1.23359 0
M  V30 11726 C 1068.83 2.52438 -2.37647 0
M  V30 11727 C 1067.89 2.33673 -3.60132 0
M  V30 11728 C 1067.13 3.58909 -3.94994 0
M  V30 11729 O 1067.35 4.64823 -3.30599 0
M  V30 11730 O 1066.28 3.5196 -4.8827 0
M  V30 11731 H 1070.11 0.864273 -2.91143 0
M  V30 11732 H 1067.7 0.361755 -1.44954 0
M  V30 11733 H 1069.58 3.29981 -2.62088 0
M  V30 11734 H 1068.25 2.86486 -1.5069 0
M  V30 11735 H 1067.16 1.54102 -3.40886 0
M  V30 11736 H 1068.49 2.04544 -4.47686 0
M  V30 11737 N 1070.14 1.51827 0.422667 0
M  V30 11738 C 1071.39 1.6522 1.17084 0
M  V30 11739 C 1071.72 0.375508 1.90841 0
M  V30 11740 O 1070.97 -0.641029 1.84903 0
M  V30 11741 C 1071.27 2.81572 2.20119 0
M  V30 11742 C 1070.94 4.20303 1.63268 0
M  V30 11743 C 1069.6 4.5804 1.47488 0
M  V30 11744 C 1071.95 5.06812 1.21618 0
M  V30 11745 C 1069.28 5.79979 0.885531 0
M  V30 11746 C 1071.63 6.29343 0.641071 0
M  V30 11747 C 1070.3 6.65841 0.470286 0
M  V30 11748 H 1069.57 0.604581 0.428442 0
M  V30 11749 H 1072.21 1.85896 0.459874 0
M  V30 11750 H 1070.52 2.55175 2.97309 0
M  V30 11751 H 1072.22 2.89132 2.77856 0
M  V30 11752 H 1068.81 3.90557 1.76531 0
M  V30 11753 H 1072.99 4.78251 1.32624 0
M  V30 11754 H 1068.25 6.06892 0.741105 0
M  V30 11755 H 1072.42 6.9571 0.309888 0
M  V30 11756 H 1070.05 7.60199 0.0115038 0
M  V30 11757 N 1071.62 -0.679052 1.4222 0
M  V30 11758 C 1072.53 -1.82221 1.47759 0
M  V30 11759 C 1073.55 -1.70092 0.3667 0
M  V30 11760 O 1074.72 -1.91718 0.616957 0
M  V30 11761 C 1071.79 -3.18332 1.37351 0
M  V30 11762 C 1070.85 -3.42449 2.58896 0
M  V30 11763 C 1070.08 -4.72067 2.48976 0
M  V30 11764 O 1070.31 -5.49683 1.5233 0
M  V30 11765 O 1069.24 -4.97333 3.39033 0
M  V30 11766 H 1073.07 -1.80504 2.44238 0
M  V30 11767 H 1070.65 -0.834251 1.23938 0
M  V30 11768 H 1072.53 -3.99563 1.33893 0
M  V30 11769 H 1071.21 -3.20696 0.439965 0
M  V30 11770 H 1070.12 -2.61083 2.6793 0
M  V30 11771 H 1071.45 -3.44912 3.51136 0
M  V30 11772 N 1073.1 -1.28322 -0.914942 0
M  V30 11773 C 1074.33 -1.1837 -1.70304 0
M  V30 11774 C 1074.75 0.254291 -1.86373 0
M  V30 11775 O 1074.11 1.18398 -1.37301 0
M  V30 11776 C 1074.16 -1.88603 -3.07346 0
M  V30 11777 O 1073.26 -1.19268 -3.94777 0
M  V30 11778 H 1072.6 -0.410978 -0.52153 0
M  V30 11779 H 1075.13 -1.69622 -1.14409 0
M  V30 11780 H 1075.14 -1.96463 -3.57584 0
M  V30 11781 H 1073.82 -2.93201 -2.94967 0
M  V30 11782 H 1072.39 -1.19563 -3.53212 0
M  V30 11783 N 1074.58 1.12322 -1.10551 0
M  V30 11784 C 1075.53 2.20166 -0.750317 0
M  V30 11785 C 1076.52 1.67484 0.254066 0
M  V30 11786 O 1077.73 1.79637 0.114309 0
M  V30 11787 H 1074.1 0.717642 -0.22471 0
M  V30 11788 H 1076.07 2.47378 -1.66873 0
M  V30 11789 C 1074.82 3.47126 -0.199651 0
M  V30 11790 H 1074.14 3.88011 -0.963735 0
M  V30 11791 H 1075.58 4.23999 0.0108033 0
M  V30 11792 C 1074.04 3.19526 1.06792 0
M  V30 11793 O 1074.57 3.39368 2.14923 0
M  V30 11794 N 1072.78 2.73324 0.987032 0
M  V30 11795 H 1072.33 2.57378 0.106997 0
M  V30 11796 H 1072.28 2.55234 1.83584 0
M  V30 11797 N 1076.06 0.894434 1.2976 0
M  V30 11798 C 1077.3 0.518435 1.96061 0
M  V30 11799 C 1077.64 -0.931882 1.70381 0
M  V30 11800 O 1076.91 -1.65988 1.01381 0
M  V30 11801 C 1077.19 0.80519 3.50982 0
M  V30 11802 C 1077.05 2.30683 3.86142 0
M  V30 11803 C 1078.37 0.288096 4.39156 0
M  V30 11804 H 1075.48 0.18983 0.712133 0
M  V30 11805 H 1078.13 1.12016 1.53468 0
M  V30 11806 H 1076.28 0.293071 3.87393 0
M  V30 11807 H 1077.95 2.88808 3.59705 0
M  V30 11808 H 1076.19 2.76968 3.33873 0
M  V30 11809 H 1076.86 2.45805 4.94251 0
M  V30 11810 H 1079.34 0.726547 4.09708 0
M  V30 11811 H 1078.21 0.517985 5.4645 0
M  V30 11812 H 1078.48 -0.811018 4.34597 0
M  V30 11813 N 1077.53 -1.43282 0.656365 0
M  V30 11814 C 1078.48 -2.32556 -0.0452037 0
M  V30 11815 C 1079.48 -1.48789 -0.80982 0
M  V30 11816 O 1080.68 -1.64979 -0.719865 0
M  V30 11817 H 1077.06 -0.751258 -0.0334043 0
M  V30 11818 H 1079.03 -2.89448 0.725423 0
M  V30 11819 C 1077.78 -3.33138 -0.995706 0
M  V30 11820 H 1077.1 -3.97622 -0.416774 0
M  V30 11821 H 1078.54 -3.98231 -1.45562 0
M  V30 11822 C 1077 -2.63978 -2.09325 0
M  V30 11823 O 1077.53 -2.45769 -3.17743 0
M  V30 11824 N 1075.74 -2.23301 -1.8597 0
M  V30 11825 H 1075.28 -2.38312 -0.97802 0
M  V30 11826 H 1075.24 -1.77358 -2.59599 0
M  V30 11827 N 1079.01 -0.398486 -1.52479 0
M  V30 11828 C 1079.92 0.439328 -2.3045 0
M  V30 11829 C 1080.94 1.06322 -1.37738 0
M  V30 11830 O 1082.12 1.06704 -1.7081 0
M  V30 11831 C 1079.18 1.54655 -3.10294 0
M  V30 11832 C 1078.24 0.946824 -4.18729 0
M  V30 11833 C 1077.47 2.00129 -4.94757 0
M  V30 11834 O 1077.7 3.2178 -4.70971 0
M  V30 11835 O 1076.63 1.61345 -5.79872 0
M  V30 11836 H 1080.46 -0.196118 -3.03066 0
M  V30 11837 H 1078.04 -0.161961 -1.4852 0
M  V30 11838 H 1079.92 2.18958 -3.60049 0
M  V30 11839 H 1078.6 2.1668 -2.40482 0
M  V30 11840 H 1077.51 0.266802 -3.73147 0
M  V30 11841 H 1078.84 0.370664 -4.90802 0
M  V30 11842 N 1080.49 1.57075 -0.12858 0
M  V30 11843 C 1081.74 1.9581 0.527868 0
M  V30 11844 C 1082.07 1.01253 1.65715 0
M  V30 11845 O 1081.35 0.0514853 1.94432 0
M  V30 11846 C 1081.63 3.44406 1.05151 0
M  V30 11847 C 1081.48 4.49737 -0.0750113 0
M  V30 11848 C 1082.8 3.95069 1.9393 0
M  V30 11849 H 1079.92 0.711978 0.19041 0
M  V30 11850 H 1082.56 1.88879 -0.206081 0
M  V30 11851 H 1080.71 3.50443 1.67697 0
M  V30 11852 H 1082.38 4.55793 -0.710685 0
M  V30 11853 H 1080.63 4.27497 -0.736809 0
M  V30 11854 H 1081.3 5.50996 0.332779 0
M  V30 11855 H 1083.77 3.91395 1.41241 0
M  V30 11856 H 1082.65 4.99542 2.27484 0
M  V30 11857 H 1082.91 3.36329 2.86941 0
M  V30 11858 N 1081.97 -0.145205 1.5693 0
M  V30 11859 C 1082.92 -1.17923 1.98401 0
M  V30 11860 C 1083.89 -1.42591 0.851885 0
M  V30 11861 O 1085.07 -1.54896 1.11409 0
M  V30 11862 C 1082.21 -2.50727 2.37128 0
M  V30 11863 C 1081.32 -2.33218 3.63639 0
M  V30 11864 C 1080.46 -3.5907 3.91462 0
M  V30 11865 C 1079.5 -3.36605 5.11237 0
M  V30 11866 N 1078.64 -4.54592 5.35061 0
M  V30 11867 H 1083.48 -0.818573 2.86537 0
M  V30 11868 H 1081.01 -0.392739 1.4176 0
M  V30 11869 H 1082.97 -3.28165 2.57611 0
M  V30 11870 H 1081.6 -2.84736 1.52069 0
M  V30 11871 H 1080.65 -1.46826 3.50922 0
M  V30 11872 H 1081.96 -2.12579 4.51234 0
M  V30 11873 H 1081.12 -4.44936 4.12453 0
M  V30 11874 H 1079.86 -3.82715 3.02293 0
M  V30 11875 H 1078.86 -2.49127 4.90118 0
M  V30 11876 H 1080.09 -3.14357 6.01961 0
M  V30 11877 H 1078.03 -4.78406 4.48847 0
M  V30 11878 H 1077.95 -4.36962 6.16928 0
M  V30 11879 H 1079.22 -5.41666 5.60551 0
M  V30 11880 N 1083.45 -1.52049 -0.414609 0
M  V30 11881 C 1084.72 -1.56397 -1.17471 0
M  V30 11882 C 1085.1 -0.34171 -2.08316 0
M  V30 11883 O 1084.45 0.6718 -2.18401 0
M  V30 11884 C 1084.66 -2.88983 -1.95678 0
M  V30 11885 C 1086.01 -3.41781 -2.51935 0
M  V30 11886 O 1087.03 -2.90686 -2.05865 0
M  V30 11887 O 1085.89 -4.30989 -3.36022 0
M  V30 11888 H 1082.99 -0.62974 -0.536056 0
M  V30 11889 H 1085.53 -1.64374 -0.421834 0
M  V30 11890 H 1084.31 -3.69392 -1.29094 0
M  V30 11891 H 1083.93 -2.84274 -2.77983 0
M  V30 11892 N 1084.93 0.6715 -1.42579 0
M  V30 11893 C 1086.34 1.2522 -1.38481 0
M  V30 11894 C 1086.69 1.96038 -0.079719 0
M  V30 11895 O 1085.81 2.00203 0.821441 0
M  V30 11896 C 1086.41 2.27736 -2.50842 0
M  V30 11897 C 1084.97 2.81325 -2.50067 0
M  V30 11898 C 1084.11 1.55694 -2.29466 0
M  V30 11899 H 1087.06 0.464673 -1.51745 0
M  V30 11900 H 1087.09 3.09539 -2.21283 0
M  V30 11901 H 1086.6 1.76164 -3.45815 0
M  V30 11902 H 1084.7 3.37008 -1.58922 0
M  V30 11903 H 1084.81 3.30116 -3.47218 0
M  V30 11904 H 1083.18 1.82383 -1.77788 0
M  V30 11905 H 1083.96 1.06084 -3.26498 0
M  V30 11906 N 1086.4 1.28806 0.908124 0
M  V30 11907 C 1087.63 1.1898 1.689 0
M  V30 11908 C 1088.04 -0.253334 1.87496 0
M  V30 11909 O 1087.38 -1.18245 1.40584 0
M  V30 11910 C 1087.45 1.82266 3.0987 0
M  V30 11911 C 1087.11 3.31534 3.14538 0
M  V30 11912 C 1088.11 4.27886 2.95313 0
M  V30 11913 C 1085.79 3.72589 3.36872 0
M  V30 11914 C 1087.79 5.63267 2.98343 0
M  V30 11915 C 1085.47 5.08095 3.39534 0
M  V30 11916 C 1086.47 6.03244 3.2029 0
M  V30 11917 O 1086.16 7.36277 3.22724 0
M  V30 11918 H 1085.89 0.413772 0.534574 0
M  V30 11919 H 1088.45 1.7055 1.14464 0
M  V30 11920 H 1086.68 1.25197 3.65872 0
M  V30 11921 H 1088.36 1.6688 3.70008 0
M  V30 11922 H 1089.13 3.97502 2.77879 0
M  V30 11923 H 1085.01 2.98989 3.50894 0
M  V30 11924 H 1088.55 6.37511 2.83241 0
M  V30 11925 H 1084.45 5.38126 3.56497 0
M  V30 11926 H 1085.22 7.44976 3.39048 0
M  V30 11927 N 1087.88 -1.11734 1.11145 0
M  V30 11928 C 1089.29 -1.64928 0.874959 0
M  V30 11929 C 1089.64 -1.87012 -0.593375 0
M  V30 11930 O 1088.77 -1.60206 -1.45475 0
M  V30 11931 C 1089.36 -2.99608 1.58178 0
M  V30 11932 C 1087.92 -3.49723 1.39179 0
M  V30 11933 C 1087.07 -2.24595 1.62642 0
M  V30 11934 H 1090.02 -0.954154 1.26813 0
M  V30 11935 H 1090.04 -3.66434 1.02501 0
M  V30 11936 H 1089.55 -2.83504 2.65042 0
M  V30 11937 H 1087.65 -3.70998 0.345111 0
M  V30 11938 H 1087.77 -4.28711 2.13878 0
M  V30 11939 H 1086.13 -2.32067 1.04961 0
M  V30 11940 H 1086.91 -2.11036 2.70774 0
M  V30 11941 N 1089.36 -0.901303 -1.29284 0
M  V30 11942 C 1090.58 -0.542823 -2.0017 0
M  V30 11943 C 1091.01 0.865583 -1.67001 0
M  V30 11944 O 1090.37 1.5764 -0.895502 0
M  V30 11945 C 1090.42 -0.743987 -3.52842 0
M  V30 11946 O 1089.52 0.202771 -4.11901 0
M  V30 11947 H 1088.86 -0.211903 -0.62928 0
M  V30 11948 H 1091.39 -1.21333 -1.64741 0
M  V30 11949 H 1091.4 -0.64926 -4.02801 0
M  V30 11950 H 1090.08 -1.77077 -3.7632 0
M  V30 11951 H 1088.65 0.0603637 -3.72851 0
M  V30 11952 N 1090.84 1.42931 -0.663954 0
M  V30 11953 C 1091.8 2.29197 0.0117626 0
M  V30 11954 C 1092.8 1.42767 0.739875 0
M  V30 11955 O 1093.99 1.64278 0.579509 0
M  V30 11956 C 1091.12 3.2505 1.02738 0
M  V30 11957 H 1092.32 2.90438 -0.747391 0
M  V30 11958 H 1089.87 1.5039 -0.425733 0
M  V30 11959 H 1090.6 2.68726 1.8154 0
M  V30 11960 H 1090.39 3.88785 0.508809 0
M  V30 11961 H 1091.88 3.89771 1.49893 0
M  V30 11962 N 1092.32 0.406567 1.52266 0
M  V30 11963 C 1093.59 -0.228477 1.94261 0
M  V30 11964 C 1093.97 -1.62848 1.34328 0
M  V30 11965 O 1093.32 -2.22549 0.518082 0
M  V30 11966 C 1093.53 -0.237401 3.48192 0
M  V30 11967 C 1094.88 -0.457997 4.22123 0
M  V30 11968 O 1095.9 -0.316868 3.54788 0
M  V30 11969 O 1094.76 -0.735946 5.41522 0
M  V30 11970 H 1091.86 -0.146492 0.813922 0
M  V30 11971 H 1094.4 0.462325 1.63281 0
M  V30 11972 H 1093.17 0.742556 3.8419 0
M  V30 11973 H 1092.8 -0.972408 3.85526 0
M  V30 11974 N 1093.79 -1.57004 0.136909 0
M  V30 11975 C 1095.04 -1.95797 -0.516711 0
M  V30 11976 C 1095.37 -1.02123 -1.65533 0
M  V30 11977 O 1094.62 -0.0484835 -1.9564 0
M  V30 11978 C 1094.92 -3.40903 -1.07331 0
M  V30 11979 C 1094.59 -4.50867 -0.0541941 0
M  V30 11980 C 1093.25 -4.80669 0.225988 0
M  V30 11981 C 1095.6 -5.17264 0.639361 0
M  V30 11982 C 1092.93 -5.74177 1.2057 0
M  V30 11983 C 1095.28 -6.11827 1.60783 0
M  V30 11984 C 1093.95 -6.40012 1.89581 0
M  V30 11985 H 1093.22 -0.716471 -0.189078 0
M  V30 11986 H 1095.86 -1.90213 0.221605 0
M  V30 11987 H 1094.17 -3.43268 -1.88876 0
M  V30 11988 H 1095.87 -3.6824 -1.58745 0
M  V30 11989 H 1092.46 -4.27666 -0.282754 0
M  V30 11990 H 1096.64 -4.9438 0.436085 0
M  V30 11991 H 1091.9 -5.94312 1.43538 0
M  V30 11992 H 1096.07 -6.62354 2.15081 0
M  V30 11993 H 1093.7 -7.12274 2.65649 0
M  V30 11994 N 1095.27 0.136881 -1.57004 0
M  V30 11995 C 1096.68 0.695911 -1.73245 0
M  V30 11996 C 1097.03 1.8118 -0.75288 0
M  V30 11997 O 1096.16 2.16258 0.0782477 0
M  V30 11998 C 1096.75 1.26914 -3.14131 0
M  V30 11999 C 1095.31 1.77463 -3.31939 0
M  V30 12000 C 1094.46 0.667128 -2.69156 0
M  V30 12001 H 1097.41 -0.0888841 -1.58451 0
M  V30 12002 H 1097.43 2.13892 -3.14691 0
M  V30 12003 H 1096.94 0.456754 -3.85403 0
M  V30 12004 H 1095.05 2.61236 -2.65681 0
M  V30 12005 H 1095.16 1.89638 -4.39971 0
M  V30 12006 H 1093.52 1.09629 -2.29899 0
M  V30 12007 H 1094.31 -0.13398 -3.43038 0
M  V30 12008 N 1096.75 1.52266 0.40654 0
M  V30 12009 C 1098 1.66123 1.15097 0
M  V30 12010 C 1098.32 0.394836 1.90961 0
M  V30 12011 O 1097.59 -0.590349 1.86793 0
M  V30 12012 H 1096.17 0.612317 0.427875 0
M  V30 12013 H 1098.83 1.89318 0.463106 0
M  V30 12014 H 1097.93 2.50351 1.86361 0
M  V30 12015 N 1098.23 -0.663929 1.42933 0
M  V30 12016 C 1099.51 -1.42054 1.34462 0
M  V30 12017 C 1099.89 -2.11096 -0.0127801 0
M  V30 12018 O 1099.23 -2.04027 -1.02884 0
M  V30 12019 C 1099.44 -2.41406 2.5204 0
M  V30 12020 C 1100.79 -3.05726 2.94647 0
M  V30 12021 O 1101.82 -2.51733 2.52009 0
M  V30 12022 O 1100.67 -4.03593 3.68477 0
M  V30 12023 H 1097.77 -0.634149 0.530834 0
M  V30 12024 H 1100.31 -0.691738 1.54962 0
M  V30 12025 H 1099.09 -1.89263 3.42484 0
M  V30 12026 H 1098.71 -3.21752 2.33584 0
M  V30 12027 N 1099.71 -1.29285 -0.901281 0
M  V30 12028 C 1100.98 -1.07847 -1.63182 0
M  V30 12029 C 1101.36 0.377927 -2.07689 0
M  V30 12030 O 1100.71 1.36642 -1.83143 0
M  V30 12031 C 1100.92 -2.06457 -2.81383 0
M  V30 12032 C 1102.27 -2.37289 -3.52107 0
M  V30 12033 O 1103.29 -2.0464 -2.91549 0
M  V30 12034 O 1102.15 -2.93067 -4.61274 0
M  V30 12035 H 1099.25 -0.413073 -0.71645 0
M  V30 12036 H 1101.79 -1.40651 -0.949488 0
M  V30 12037 H 1100.56 -3.04561 -2.4568 0
M  V30 12038 H 1100.19 -1.74374 -3.57323 0
M  V30 12039 N 1101.18 1.11143 -1.11736 0
M  V30 12040 C 1102.09 2.20851 -0.791331 0
M  V30 12041 C 1103.11 1.72644 0.216833 0
M  V30 12042 O 1104.29 2.01332 0.0522401 0
M  V30 12043 C 1101.35 3.4585 -0.242694 0
M  V30 12044 C 1100.41 4.08829 -1.30986 0
M  V30 12045 C 1099.65 5.27861 -0.787305 0
M  V30 12046 O 1099.87 5.69122 0.381549 0
M  V30 12047 O 1098.8 5.81506 -1.55352 0
M  V30 12048 H 1102.63 2.51158 -1.70744 0
M  V30 12049 H 1100.21 1.19739 -0.893478 0
M  V30 12050 H 1102.1 4.21359 0.0587472 0
M  V30 12051 H 1100.77 3.17187 0.646079 0
M  V30 12052 H 1099.68 3.35037 -1.66436 0
M  V30 12053 H 1101.01 4.41678 -2.17213 0
M  V30 12054 N 1102.66 0.908147 1.28804 0
M  V30 12055 C 1103.57 0.397167 2.31214 0
M  V30 12056 C 1104.59 -0.512352 1.66286 0
M  V30 12057 O 1105.76 -0.399893 1.9739 0
M  V30 12058 C 1102.83 -0.359522 3.44831 0
M  V30 12059 C 1101.89 0.582539 4.25329 0
M  V30 12060 C 1101.12 -0.138133 5.33521 0
M  V30 12061 O 1101.35 -1.36076 5.53931 0
M  V30 12062 O 1100.28 0.523682 5.99618 0
M  V30 12063 H 1104.11 1.247 2.76918 0
M  V30 12064 H 1101.69 0.672766 1.33395 0
M  V30 12065 H 1103.57 -0.787098 4.13984 0
M  V30 12066 H 1102.25 -1.18528 3.01219 0
M  V30 12067 H 1101.16 1.0594 3.58786 0
M  V30 12068 H 1102.49 1.37495 4.72605 0
M  V30 12069 N 1104.14 -1.42577 0.671525 0
M  V30 12070 C 1105.42 -1.95222 0.121529 0
M  V30 12071 C 1105.8 -1.61209 -1.36289 0
M  V30 12072 O 1105.15 -0.906561 -2.09747 0
M  V30 12073 C 1105.36 -3.46846 0.387189 0
M  V30 12074 C 1106.7 -4.23525 0.301938 0
M  V30 12075 O 1107.73 -3.54753 0.320755 0
M  V30 12076 O 1106.59 -5.45967 0.241317 0
M  V30 12077 H 1103.68 -0.826999 0.000968615 0
M  V30 12078 H 1106.23 -1.52422 0.746029 0
M  V30 12079 H 1105 -3.64795 1.41563 0
M  V30 12080 H 1104.62 -3.96686 -0.26948 0
M  V30 12081 N 1105.62 -0.414636 -1.52048 0
M  V30 12082 C 1106.53 0.414861 -2.30903 0
M  V30 12083 C 1107.54 1.04855 -1.38858 0
M  V30 12084 O 1108.72 1.04886 -1.71933 0
M  V30 12085 C 1105.79 1.51356 -3.11917 0
M  V30 12086 C 1104.85 0.902359 -4.19709 0
M  V30 12087 C 1104.08 1.9487 -4.96852 0
M  V30 12088 O 1104.3 3.16766 -4.74358 0
M  V30 12089 O 1103.24 1.55186 -5.8155 0
M  V30 12090 H 1107.06 -0.228251 -3.02841 0
M  V30 12091 H 1104.65 -0.177704 -1.48339 0
M  V30 12092 H 1106.53 2.15127 -3.62351 0
M  V30 12093 H 1105.2 2.14117 -2.42767 0
M  V30 12094 H 1104.11 0.22721 -3.73409 0
M  V30 12095 H 1105.44 0.318587 -4.91168 0
M  V30 12096 N 1107.1 1.56929 -0.145233 0
M  V30 12097 C 1108.51 1.82877 0.375884 0
M  V30 12098 C 1108.86 1.06384 1.64854 0
M  V30 12099 O 1107.98 0.30857 2.14189 0
M  V30 12100 C 1108.58 3.31725 0.688744 0
M  V30 12101 C 1107.14 3.58261 1.15439 0
M  V30 12102 C 1106.28 2.76737 0.176565 0
M  V30 12103 H 1109.24 1.54328 -0.36996 0
M  V30 12104 H 1109.26 3.47784 1.54359 0
M  V30 12105 H 1108.77 3.87371 -0.237694 0
M  V30 12106 H 1106.87 3.08 2.09683 0
M  V30 12107 H 1106.98 4.66732 1.08158 0
M  V30 12108 H 1105.35 2.45761 0.668843 0
M  V30 12109 H 1106.13 3.35154 -0.743432 0
M  V30 12110 N 1108.58 -0.128553 1.57075 0
M  V30 12111 C 1109.49 -1.17718 2.02927 0
M  V30 12112 C 1110.5 -1.45912 0.947932 0
M  V30 12113 O 1111.68 -1.57217 1.25876 0
M  V30 12114 C 1108.74 -2.48625 2.41633 0
M  V30 12115 C 1107.8 -2.27914 3.63804 0
M  V30 12116 C 1107.04 -3.52579 4.00654 0
M  V30 12117 O 1107.26 -4.59505 3.37952 0
M  V30 12118 O 1106.19 -3.44147 4.93808 0
M  V30 12119 H 1110.02 -0.817846 2.92481 0
M  V30 12120 H 1107.6 -0.338649 1.45511 0
M  V30 12121 H 1109.49 -3.2577 2.67305 0
M  V30 12122 H 1108.16 -2.84052 1.55229 0
M  V30 12123 H 1107.07 -1.4866 3.43294 0
M  V30 12124 H 1108.4 -1.97395 4.50883 0
M  V30 12125 N 1110.05 -1.5248 -0.398459 0
M  V30 12126 C 1111.3 -1.66287 -1.14155 0
M  V30 12127 C 1111.62 -0.40429 -1.91376 0
M  V30 12128 O 1112.82 -0.422341 -2.68195 0
M  V30 12129 C 1111.28 -2.93831 -2.07825 0
M  V30 12130 C 1110.89 -4.26836 -1.3607 0
M  V30 12131 C 1112.63 -3.17004 -2.82327 0
M  V30 12132 C 1110.54 -5.45495 -2.28451 0
M  V30 12133 H 1109.47 -0.619478 -0.42984 0
M  V30 12134 H 1112.12 -1.78972 -0.405112 0
M  V30 12135 H 1110.5 -2.7487 -2.85065 0
M  V30 12136 H 1111.67 -4.56317 -0.641205 0
M  V30 12137 H 1109.99 -4.0985 -0.735659 0
M  V30 12138 H 1112.59 -4.02834 -3.51609 0
M  V30 12139 H 1112.93 -2.3168 -3.45876 0
M  V30 12140 H 1113.46 -3.36487 -2.12183 0
M  V30 12141 H 1110.2 -6.33198 -1.69532 0
M  V30 12142 H 1109.72 -5.20338 -2.98343 0
M  V30 12143 H 1111.4 -5.78996 -2.88743 0
M  V30 12144 N 1111.53 0.65634 -1.43283 0
M  V30 12145 C 1112.94 1.23744 -1.39801 0
M  V30 12146 C 1113.29 1.95942 -0.100507 0
M  V30 12147 O 1112.42 2.01063 0.800161 0
M  V30 12148 C 1113.01 2.25062 -2.53244 0
M  V30 12149 C 1111.57 2.78657 -2.53036 0
M  V30 12150 C 1110.72 1.53251 -2.31105 0
M  V30 12151 H 1113.67 0.448553 -1.52229 0
M  V30 12152 H 1113.69 3.07174 -2.24553 0
M  V30 12153 H 1113.2 1.72487 -3.47664 0
M  V30 12154 H 1111.3 3.35304 -1.62487 0
M  V30 12155 H 1111.42 3.26414 -3.507 0
M  V30 12156 H 1109.78 1.80487 -1.79713 0
M  V30 12157 H 1110.56 1.02615 -3.27605 0
M  V30 12158 N 1113.01 1.29761 0.894412 0
M  V30 12159 C 1113.94 1.17902 2.01547 0
M  V30 12160 C 1114.92 0.0719402 1.69948 0
M  V30 12161 O 1116.11 0.252338 1.92554 0
M  V30 12162 C 1113.24 0.860262 3.36477 0
M  V30 12163 C 1112.19 1.92424 3.82305 0
M  V30 12164 C 1111.52 1.45868 5.14419 0
M  V30 12165 C 1112.82 3.33391 4.02054 0
M  V30 12166 H 1114.51 2.11688 2.11727 0
M  V30 12167 H 1112.06 1.01916 1.01731 0
M  V30 12168 H 1114.01 0.763987 4.14417 0
M  V30 12169 H 1112.73 -0.113289 3.26403 0
M  V30 12170 H 1111.39 2.00999 3.06586 0
M  V30 12171 H 1111.04 0.473654 5.00765 0
M  V30 12172 H 1110.74 2.17028 5.46052 0
M  V30 12173 H 1112.26 1.37601 5.94894 0
M  V30 12174 H 1113.68 3.27628 4.7046 0
M  V30 12175 H 1112.07 4.02555 4.4505 0
M  V30 12176 H 1113.14 3.75978 3.06216 0
M  V30 12177 N 1114.49 -1.10549 1.12324 0
M  V30 12178 C 1115.71 -1.8681 0.900927 0
M  V30 12179 C 1116.14 -1.80049 -0.54443 0
M  V30 12180 O 1115.5 -1.16957 -1.38531 0
M  V30 12181 C 1115.54 -3.33197 1.37883 0
M  V30 12182 O 1114.65 -4.08628 0.556529 0
M  V30 12183 H 1113.99 -0.579709 0.32378 0
M  V30 12184 H 1116.52 -1.39678 1.49503 0
M  V30 12185 H 1116.53 -3.84047 1.37739 0
M  V30 12186 H 1115.2 -3.37435 2.43127 0
M  V30 12187 H 1113.78 -3.67627 0.62486 0
M  V30 12188 N 1115.97 -0.914965 -1.28321 0
M  V30 12189 C 1117.38 -0.59512 -1.76961 0
M  V30 12190 C 1117.73 0.88958 -1.74874 0
M  V30 12191 O 1116.85 1.6959 -1.34418 0
M  V30 12192 C 1117.45 -1.07353 -3.21342 0
M  V30 12193 C 1116.01 -0.804577 -3.677 0
M  V30 12194 C 1115.15 -1.23955 -2.48053 0
M  V30 12195 H 1118.1 -1.0961 -1.14767 0
M  V30 12196 H 1118.13 -0.415506 -3.78225 0
M  V30 12197 H 1117.64 -2.15413 -3.22829 0
M  V30 12198 H 1115.74 0.26277 -3.71672 0
M  V30 12199 H 1115.85 -1.41317 -4.57784 0
M  V30 12200 H 1114.22 -0.658274 -2.46046 0
M  V30 12201 H 1115 -2.32853 -2.52258 0
M  V30 12202 N 1117.44 1.42219 -0.679077 0
M  V30 12203 C 1118.86 1.55737 -0.349034 0
M  V30 12204 C 1119.06 1.65789 1.14527 0
M  V30 12205 O 1118.12 1.62717 1.93079 0
M  V30 12206 C 1119.43 2.80516 -1.0831 0
M  V30 12207 C 1120.98 2.94294 -1.06584 0
M  V30 12208 C 1121.45 4.2194 -1.78132 0
M  V30 12209 N 1122.94 4.28861 -1.75021 0
M  V30 12210 C 1123.68 5.26453 -2.27234 0
M  V30 12211 N 1123.17 6.30171 -2.87847 0
M  V30 12212 N 1124.97 5.1828 -2.17584 0
M  V30 12213 H 1117.12 1.33939 -1.64846 0
M  V30 12214 H 1119.38 0.645029 -0.694725 0
M  V30 12215 H 1119.09 2.79241 -2.13816 0
M  V30 12216 H 1118.96 3.71539 -0.651069 0
M  V30 12217 H 1121.35 2.95094 -0.0191061 0
M  V30 12218 H 1121.43 2.04491 -1.53679 0
M  V30 12219 H 1121.07 4.21901 -2.82776 0
M  V30 12220 H 1121 5.10685 -1.28483 0
M  V30 12221 H 1123.49 3.54537 -1.30814 0
M  V30 12222 H 1123.81 7.01 -3.25298 0
M  V30 12223 H 1122.15 6.30721 -2.91918 0
M  V30 12224 H 1125.34 4.36172 -1.69916 0
M  V30 12225 H 1125.52 5.94172 -2.58581 0
M  V30 12226 N 1118.92 0.422693 1.51826 0
M  V30 12227 C 1120.33 -0.0438129 1.86649 0
M  V30 12228 C 1120.68 -1.43246 1.34071 0
M  V30 12229 O 1119.81 -2.05256 0.685501 0
M  V30 12230 C 1120.4 -0.0862802 3.3869 0
M  V30 12231 C 1118.96 -0.497157 3.73102 0
M  V30 12232 C 1118.11 0.319655 2.75451 0
M  V30 12233 H 1121.06 0.639181 1.45259 0
M  V30 12234 H 1121.08 -0.8988 3.69732 0
M  V30 12235 H 1120.59 0.924525 3.76927 0
M  V30 12236 H 1118.69 -1.51411 3.40449 0
M  V30 12237 H 1118.81 -0.232125 4.78537 0
M  V30 12238 H 1117.17 -0.219963 2.53748 0
M  V30 12239 H 1117.95 1.32906 3.16529 0
M  V30 12240 N 1120.4 -1.5685 0.153553 0
M  V30 12241 C 1121.82 -1.58306 -0.202801 0
M  V30 12242 C 1122.02 -1.16813 -1.64186 0
M  V30 12243 O 1121.07 -0.871468 -2.36985 0
M  V30 12244 C 1122.38 -3.00636 0.0619012 0
M  V30 12245 C 1123.93 -3.13 -0.00129219 0
M  V30 12246 C 1124.41 -4.57391 0.236164 0
M  V30 12247 N 1125.9 -4.62837 0.18332 0
M  V30 12248 C 1126.63 -5.72382 0.341471 0
M  V30 12249 N 1126.13 -6.90552 0.557704 0
M  V30 12250 N 1127.92 -5.61409 0.278615 0
M  V30 12251 H 1120.07 -1.82113 1.09309 0
M  V30 12252 H 1122.34 -0.843228 0.433209 0
M  V30 12253 H 1122.04 -3.35406 1.0581 0
M  V30 12254 H 1121.92 -3.71477 -0.654555 0
M  V30 12255 H 1124.3 -2.78068 -0.98805 0
M  V30 12256 H 1124.38 -2.44632 0.747596 0
M  V30 12257 H 1124.03 -4.93029 1.22005 0
M  V30 12258 H 1123.96 -5.23894 -0.533125 0
M  V30 12259 H 1126.45 -3.77894 0.0211138 0
M  V30 12260 H 1126.76 -7.69905 0.66831 0
M  V30 12261 H 1125.11 -6.92456 0.594105 0
M  V30 12262 H 1128.3 -4.6797 0.110401 0
M  V30 12263 H 1128.47 -6.46731 0.4053 0
M  V30 12264 N 1121.88 0.120221 -1.57141 0
M  V30 12265 C 1123.29 0.677497 -1.73974 0
M  V30 12266 C 1123.64 1.80371 -0.772055 0
M  V30 12267 O 1122.76 2.16329 0.0553062 0
M  V30 12268 C 1123.36 1.23575 -3.1546 0
M  V30 12269 C 1121.92 1.73933 -3.33803 0
M  V30 12270 C 1121.07 0.638542 -2.69848 0
M  V30 12271 H 1124.02 -0.105685 -1.58348 0
M  V30 12272 H 1124.04 2.10542 -3.16942 0
M  V30 12273 H 1123.55 0.415851 -3.85866 0
M  V30 12274 H 1121.65 2.58404 -2.68437 0
M  V30 12275 H 1121.76 1.84961 -4.41957 0
M  V30 12276 H 1120.13 1.07185 -2.31049 0
M  V30 12277 H 1120.91 -0.170356 -3.42877 0
M  V30 12278 N 1123.36 1.52689 0.390367 0
M  V30 12279 C 1124.29 1.80338 1.48325 0
M  V30 12280 C 1125.27 0.655338 1.56969 0
M  V30 12281 O 1126.45 0.902792 1.7194 0
M  V30 12282 C 1123.58 1.97101 2.85952 0
M  V30 12283 C 1122.54 3.12783 2.92148 0
M  V30 12284 C 1121.86 3.14798 4.32211 0
M  V30 12285 C 1123.16 4.5188 2.61919 0
M  V30 12286 H 1124.86 2.71857 1.25437 0
M  V30 12287 H 1122.4 1.30813 0.601995 0
M  V30 12288 H 1124.36 2.15027 3.62411 0
M  V30 12289 H 1123.08 1.02271 3.10174 0
M  V30 12290 H 1121.74 2.94638 2.18137 0
M  V30 12291 H 1121.39 2.17653 4.53471 0
M  V30 12292 H 1121.09 3.92507 4.37278 0
M  V30 12293 H 1122.61 3.34877 5.10578 0
M  V30 12294 H 1124.02 4.70134 3.28096 0
M  V30 12295 H 1122.42 5.31647 2.78337 0
M  V30 12296 H 1123.49 4.58689 1.57266 0
M  V30 12297 N 1124.83 -0.648732 1.43629 0
M  V30 12298 C 1125.8 -1.74331 1.488 0
M  V30 12299 C 1126.8 -1.56434 0.372147 0
M  V30 12300 O 1127.99 -1.6225 0.634078 0
M  V30 12301 C 1125.12 -3.13248 1.34494 0
M  V30 12302 H 1126.31 -1.71125 2.46285 0
M  V30 12303 H 1123.87 -0.860798 1.30461 0
M  V30 12304 H 1124.6 -3.22062 0.380345 0
M  V30 12305 H 1124.39 -3.27643 2.15389 0
M  V30 12306 H 1125.88 -3.93056 1.41055 0
M  V30 12307 N 1126.31 -1.30234 -0.887518 0
M  V30 12308 C 1127.22 -1.18316 -2.02579 0
M  V30 12309 C 1128.24 -0.103658 -1.73691 0
M  V30 12310 O 1129.41 -0.3181 -1.98872 0
M  V30 12311 C 1126.48 -0.873222 -3.35523 0
M  V30 12312 C 1125.54 -2.03783 -3.7785 0
M  V30 12313 C 1124.77 -1.74258 -5.0445 0
M  V30 12314 O 1125 -0.669295 -5.6646 0
M  V30 12315 O 1123.93 -2.59423 -5.43124 0
M  V30 12316 H 1127.76 -2.13933 -2.15561 0
M  V30 12317 H 1125.34 -1.09803 -1.0131 0
M  V30 12318 H 1127.22 -0.715463 -4.15282 0
M  V30 12319 H 1125.9 0.053056 -3.23657 0
M  V30 12320 H 1124.81 -2.2509 -2.98806 0
M  V30 12321 H 1126.14 -2.94574 -3.94318 0
M  V30 12322 N 1127.79 1.09952 -1.12909 0
M  V30 12323 C 1128.72 2.18477 -0.824014 0
M  V30 12324 C 1129.7 1.68744 0.214324 0
M  V30 12325 O 1130.89 1.94057 0.0744281 0
M  V30 12326 C 1128.02 3.46143 -0.283308 0
M  V30 12327 C 1126.97 4.09178 -1.25528 0
M  V30 12328 C 1126.3 5.31604 -0.574574 0
M  V30 12329 C 1127.6 4.52308 -2.6118 0
M  V30 12330 H 1129.29 2.44254 -1.73148 0
M  V30 12331 H 1126.84 1.17394 -0.833952 0
M  V30 12332 H 1128.79 4.21361 -0.057583 0
M  V30 12333 H 1127.51 3.19872 0.659525 0
M  V30 12334 H 1126.17 3.35973 -1.4669 0
M  V30 12335 H 1125.82 5.01611 0.37356 0
M  V30 12336 H 1125.52 5.74732 -1.22299 0
M  V30 12337 H 1127.04 6.0955 -0.358004 0
M  V30 12338 H 1128.46 5.18776 -2.44017 0
M  V30 12339 H 1126.86 5.06302 -3.22147 0
M  V30 12340 H 1127.93 3.64977 -3.19249 0
M  V30 12341 N 1129.27 0.921757 1.27833 0
M  V30 12342 C 1130.2 0.373575 2.26135 0
M  V30 12343 C 1131.21 -0.492414 1.55174 0
M  V30 12344 O 1132.4 -0.305998 1.75858 0
M  V30 12345 C 1129.5 -0.483911 3.35427 0
M  V30 12346 C 1128.68 0.361411 4.35904 0
M  V30 12347 C 1127.73 -0.432461 5.2442 0
M  V30 12348 O 1126.76 0.15777 5.68981 0
M  V30 12349 N 1127.96 -1.73367 5.54007 0
M  V30 12350 H 1130.73 1.21856 2.73809 0
M  V30 12351 H 1128.29 0.788552 1.41398 0
M  V30 12352 H 1130.28 -1.02193 3.91585 0
M  V30 12353 H 1128.85 -1.22963 2.874 0
M  V30 12354 H 1128.07 1.08076 3.79095 0
M  V30 12355 H 1129.36 0.939528 5.0005 0
M  V30 12356 H 1128.76 -2.23561 5.19651 0
M  V30 12357 H 1127.31 -2.21834 6.12889 0
M  V30 12358 N 1130.75 -1.41857 0.686609 0
M  V30 12359 C 1131.68 -2.33481 0.0298353 0
M  V30 12360 C 1132.66 -1.51329 -0.776756 0
M  V30 12361 O 1133.84 -1.79895 -0.731535 0
M  V30 12362 C 1130.97 -3.35065 -0.913707 0
M  V30 12363 C 1129.93 -4.2746 -0.214861 0
M  V30 12364 C 1129.25 -5.19346 -1.27215 0
M  V30 12365 C 1130.55 -5.14252 0.913367 0
M  V30 12366 H 1132.25 -2.8865 0.795067 0
M  V30 12367 H 1129.79 -1.38792 0.383785 0
M  V30 12368 H 1131.75 -3.98082 -1.38234 0
M  V30 12369 H 1130.47 -2.78226 -1.7105 0
M  V30 12370 H 1129.13 -3.65855 0.233651 0
M  V30 12371 H 1128.78 -4.58827 -2.06124 0
M  V30 12372 H 1128.48 -5.81996 -0.80961 0
M  V30 12373 H 1130 -5.85239 -1.74147 0
M  V30 12374 H 1131.41 -5.70887 0.525424 0
M  V30 12375 H 1129.81 -5.85796 1.30244 0
M  V30 12376 H 1130.88 -4.51949 1.75699 0
M  V30 12377 N 1132.22 -0.430739 -1.51599 0
M  V30 12378 C 1133.17 0.384024 -2.27583 0
M  V30 12379 C 1134.14 1.02254 -1.30895 0
M  V30 12380 O 1135.33 1.0427 -1.59789 0
M  V30 12381 C 1132.47 1.48291 -3.11615 0
M  V30 12382 C 1131.58 0.863187 -4.23288 0
M  V30 12383 C 1130.71 1.93657 -4.94642 0
M  V30 12384 C 1129.75 1.29493 -5.98246 0
M  V30 12385 N 1128.89 2.30939 -6.63032 0
M  V30 12386 H 1133.73 -0.270314 -2.96771 0
M  V30 12387 H 1131.27 -0.145148 -1.46382 0
M  V30 12388 H 1133.23 2.13124 -3.58656 0
M  V30 12389 H 1131.86 2.10697 -2.44554 0
M  V30 12390 H 1130.91 0.103326 -3.8026 0
M  V30 12391 H 1132.22 0.354676 -4.97537 0
M  V30 12392 H 1131.37 2.66167 -5.45197 0
M  V30 12393 H 1130.11 2.4788 -4.20008 0
M  V30 12394 H 1129.12 0.555262 -5.46989 0
M  V30 12395 H 1130.34 0.760122 -6.74833 0
M  V30 12396 H 1128.29 2.84254 -5.91216 0
M  V30 12397 H 1128.21 1.84961 -7.33025 0
M  V30 12398 H 1129.47 3.02953 -7.1822 0
M  V30 12399 N 1133.7 1.56767 -0.161869 0
M  V30 12400 C 1134.61 2.21083 0.784814 0
M  V30 12401 C 1135.63 1.19959 1.26039 0
M  V30 12402 O 1136.8 1.52588 1.31449 0
M  V30 12403 C 1133.87 2.83153 2.00063 0
M  V30 12404 C 1132.93 3.9945 1.57285 0
M  V30 12405 C 1132.16 4.5855 2.7307 0
M  V30 12406 O 1132.39 4.16534 3.89686 0
M  V30 12407 O 1131.32 5.48575 2.47688 0
M  V30 12408 H 1135.15 3.02522 0.267243 0
M  V30 12409 H 1132.73 1.49255 0.0658783 0
M  V30 12410 H 1134.61 3.22546 2.71186 0
M  V30 12411 H 1133.29 2.04718 2.50744 0
M  V30 12412 H 1132.2 3.64745 0.831393 0
M  V30 12413 H 1133.53 4.7945 1.11304 0
M  V30 12414 N 1135.18 -0.111886 1.57202 0
M  V30 12415 C 1136.13 -1.13688 2.00858 0
M  V30 12416 C 1137.1 -1.40752 0.881939 0
M  V30 12417 O 1138.28 -1.52498 1.14669 0
M  V30 12418 C 1135.42 -2.45641 2.42393 0
M  V30 12419 C 1134.54 -2.25452 3.68504 0
M  V30 12420 C 1133.67 -3.50686 3.9899 0
M  V30 12421 C 1132.71 -3.25685 5.18262 0
M  V30 12422 N 1131.85 -4.4314 5.44583 0
M  V30 12423 H 1136.69 -0.757611 2.88209 0
M  V30 12424 H 1134.22 -0.362582 1.42561 0
M  V30 12425 H 1136.18 -3.22627 2.64514 0
M  V30 12426 H 1134.81 -2.81447 1.58074 0
M  V30 12427 H 1133.86 -1.39349 3.53958 0
M  V30 12428 H 1135.18 -2.0296 4.55641 0
M  V30 12429 H 1134.33 -4.36087 4.21797 0
M  V30 12430 H 1133.07 -3.76216 3.10343 0
M  V30 12431 H 1132.07 -2.38675 4.95292 0
M  V30 12432 H 1133.3 -3.01518 6.08493 0
M  V30 12433 H 1131.24 -4.68778 4.58893 0
M  V30 12434 H 1131.16 -4.23778 6.26058 0
M  V30 12435 H 1132.43 -5.29654 5.71915 0
M  V30 12436 N 1136.66 -1.52894 -0.382264 0
M  V30 12437 C 1137.62 -1.77497 -1.45008 0
M  V30 12438 C 1138.62 -0.64509 -1.47293 0
M  V30 12439 O 1139.81 -0.913192 -1.48346 0
M  V30 12440 C 1136.94 -1.88188 -2.8425 0
M  V30 12441 H 1138.14 -2.72849 -1.24473 0
M  V30 12442 H 1135.69 -1.43717 -0.61441 0
M  V30 12443 H 1136.42 -0.948451 -3.10121 0
M  V30 12444 H 1136.21 -2.70353 -2.83992 0
M  V30 12445 H 1137.7 -2.08873 -3.6161 0
M  V30 12446 N 1138.14 0.641106 -1.43971 0
M  V30 12447 C 1139.38 1.40291 -1.46445 0
M  V30 12448 C 1139.72 1.93978 -0.0929004 0
M  V30 12449 O 1138.99 1.73043 0.888043 0
M  V30 12450 C 1139.27 2.57551 -2.51673 0
M  V30 12451 C 1139.13 2.09279 -3.98149 0
M  V30 12452 C 1140.45 3.59752 -2.53508 0
M  V30 12453 H 1137.57 0.508771 -0.533218 0
M  V30 12454 H 1140.21 0.725767 -1.75592 0
M  V30 12455 H 1138.36 3.15319 -2.2695 0
M  V30 12456 H 1140.03 1.56418 -4.33971 0
M  V30 12457 H 1138.27 1.40545 -4.10402 0
M  V30 12458 H 1138.94 2.93655 -4.67409 0
M  V30 12459 H 1141.42 3.11766 -2.75574 0
M  V30 12460 H 1140.3 4.39332 -3.29057 0
M  V30 12461 H 1140.56 4.13156 -1.57335 0
M  V30 12462 N 1139.62 1.30703 0.880598 0
M  V30 12463 C 1141.03 1.17818 1.4483 0
M  V30 12464 C 1141.38 -0.219456 1.94969 0
M  V30 12465 O 1140.5 -1.11646 1.85375 0
M  V30 12466 C 1141.1 2.13275 2.63247 0
M  V30 12467 C 1139.66 2.04356 3.16094 0
M  V30 12468 C 1138.8 2.03108 1.88792 0
M  V30 12469 H 1141.75 1.42909 0.690125 0
M  V30 12470 H 1141.78 1.71615 3.39601 0
M  V30 12471 H 1141.29 3.14988 2.26725 0
M  V30 12472 H 1139.39 1.058 3.57263 0
M  V30 12473 H 1139.5 2.92953 3.79098 0
M  V30 12474 H 1137.87 1.47971 2.07308 0
M  V30 12475 H 1138.65 3.06558 1.54521 0
M  V30 12476 N 1141.09 -1.09351 1.1349 0
M  V30 12477 C 1142.34 -1.80915 0.89177 0
M  V30 12478 C 1142.66 -1.86688 -0.5837 0
M  V30 12479 O 1143.86 -2.54568 -0.943788 0
M  V30 12480 C 1142.32 -3.25009 1.54587 0
M  V30 12481 C 1141.93 -3.27501 3.05691 0
M  V30 12482 C 1143.67 -4.01323 1.38346 0
M  V30 12483 C 1141.58 -4.66123 3.63983 0
M  V30 12484 H 1140.51 -0.677961 0.329978 0
M  V30 12485 H 1143.16 -1.22893 1.3627 0
M  V30 12486 H 1141.54 -3.83098 1.0026 0
M  V30 12487 H 1142.71 -2.79174 3.66604 0
M  V30 12488 H 1141.03 -2.64677 3.21457 0
M  V30 12489 H 1143.63 -5.03739 1.79307 0
M  V30 12490 H 1143.97 -4.15003 0.328404 0
M  V30 12491 H 1144.5 -3.49679 1.89656 0
M  V30 12492 H 1141.24 -4.57646 4.69298 0
M  V30 12493 H 1140.76 -5.14772 3.07848 0
M  V30 12494 H 1142.44 -5.35097 3.63703 0
M  V30 12495 N 1142.57 -0.928524 -1.27343 0
M  V30 12496 C 1143.98 -0.613856 -1.7632 0
M  V30 12497 C 1144.33 0.870983 -1.75808 0
M  V30 12498 O 1143.46 1.68155 -1.36209 0
M  V30 12499 C 1144.05 -1.10755 -3.20186 0
M  V30 12500 C 1142.61 -0.843532 -3.66826 0
M  V30 12501 C 1141.76 -1.26579 -2.46724 0
M  V30 12502 H 1144.71 -1.10821 -1.13598 0
M  V30 12503 H 1144.73 -0.455598 -3.77763 0
M  V30 12504 H 1144.24 -2.18825 -3.20526 0
M  V30 12505 H 1142.34 0.223334 -3.7193 0
M  V30 12506 H 1142.46 -1.46165 -4.56259 0
M  V30 12507 H 1140.82 -0.684334 -2.45334 0
M  V30 12508 H 1141.6 -2.35516 -2.49774 0
M  V30 12509 N 1144.05 1.41491 -0.694123 0
M  V30 12510 C 1144.96 2.34583 -0.0283414 0
M  V30 12511 C 1145.98 1.5615 0.767662 0
M  V30 12512 O 1147.15 1.88637 0.705556 0
M  V30 12513 C 1144.22 3.34876 0.897726 0
M  V30 12514 C 1143.28 4.29197 0.0940905 0
M  V30 12515 C 1142.51 5.24699 0.976051 0
M  V30 12516 O 1142.73 5.25613 2.21556 0
M  V30 12517 O 1141.67 6.00387 0.426503 0
M  V30 12518 H 1145.49 2.93092 -0.795656 0
M  V30 12519 H 1143.08 1.4232 -0.45445 0
M  V30 12520 H 1144.96 3.96438 1.4288 0
M  V30 12521 H 1143.64 2.78812 1.64456 0
M  V30 12522 H 1142.54 3.70988 -0.481552 0
M  V30 12523 H 1143.88 4.88355 -0.614045 0
M  V30 12524 N 1145.53 0.438773 1.51369 0
M  V30 12525 C 1146.49 -0.36032 2.2635 0
M  V30 12526 C 1147.49 -0.948465 1.29849 0
M  V30 12527 O 1148.68 -0.822692 1.53549 0
M  V30 12528 C 1145.81 -1.50994 3.05636 0
M  V30 12529 H 1147.01 0.296826 2.98427 0
M  V30 12530 H 1144.56 0.191978 1.55117 0
M  V30 12531 H 1145.29 -2.2031 2.37979 0
M  V30 12532 H 1145.08 -1.09437 3.76518 0
M  V30 12533 H 1146.57 -2.07447 3.6243 0
M  V30 12534 N 1147.01 -1.56678 0.170181 0
M  V30 12535 C 1148.23 -2.0166 -0.484543 0
M  V30 12536 C 1148.66 -1.04962 -1.56091 0
M  V30 12537 O 1148.01 -0.0289887 -1.81277 0
M  V30 12538 C 1148.06 -3.45252 -1.04084 0
M  V30 12539 O 1147.17 -3.51623 -2.15488 0
M  V30 12540 H 1146.51 -0.653765 -0.116135 0
M  V30 12541 H 1149.04 -2.02761 0.273737 0
M  V30 12542 H 1149.05 -3.84534 -1.36373 0
M  V30 12543 H 1147.72 -4.15131 -0.252738 0
M  V30 12544 H 1146.3 -3.242 -1.84252 0
M  V30 12545 N 1148.48 0.103547 -1.57259 0
M  V30 12546 C 1149.71 0.82624 -1.90232 0
M  V30 12547 C 1150.13 1.71902 -0.763641 0
M  V30 12548 O 1149.49 1.79043 0.285181 0
M  V30 12549 C 1149.54 1.62265 -3.22029 0
M  V30 12550 O 1148.64 2.73091 -3.09023 0
M  V30 12551 H 1147.98 0.227528 -0.6238 0
M  V30 12552 H 1150.51 0.081307 -2.04438 0
M  V30 12553 H 1150.52 2.00865 -3.5513 0
M  V30 12554 H 1149.2 0.967383 -4.04493 0
M  V30 12555 H 1147.78 2.3758 -2.8742 0
M  V30 12556 N 1149.96 1.53094 0.37415 0
M  V30 12557 C 1151.21 1.68861 1.11769 0
M  V30 12558 C 1151.54 0.436032 1.89549 0
M  V30 12559 O 1150.79 -0.581879 1.86849 0
M  V30 12560 C 1151.09 2.88432 2.11049 0
M  V30 12561 C 1150.76 4.25284 1.49814 0
M  V30 12562 C 1149.42 4.62501 1.32841 0
M  V30 12563 C 1151.77 5.10425 1.05433 0
M  V30 12564 C 1149.1 5.82502 0.700567 0
M  V30 12565 C 1151.45 6.31064 0.440525 0
M  V30 12566 C 1150.11 6.67 0.258216 0
M  V30 12567 H 1149.38 0.617906 0.40899 0
M  V30 12568 H 1152.03 1.87265 0.4005 0
M  V30 12569 H 1150.34 2.64505 2.8904 0
M  V30 12570 H 1152.03 2.97825 2.68517 0
M  V30 12571 H 1148.62 3.95976 1.64016 0
M  V30 12572 H 1152.81 4.82229 1.17342 0
M  V30 12573 H 1148.06 6.08942 0.547652 0
M  V30 12574 H 1152.24 6.96344 0.0883962 0
M  V30 12575 H 1149.86 7.59851 -0.230354 0
M  V30 12576 N 1151.44 -0.633461 1.44309 0
M  V30 12577 C 1152.69 -1.39306 1.46969 0
M  V30 12578 C 1153.01 -1.94235 0.101403 0
M  V30 12579 O 1152.27 -1.73959 -0.896475 0
M  V30 12580 C 1152.57 -2.57783 2.47554 0
M  V30 12581 C 1152.23 -2.21156 3.92939 0
M  V30 12582 C 1150.9 -2.1088 4.32531 0
M  V30 12583 C 1153.25 -1.9218 4.84475 0
M  V30 12584 C 1150.58 -1.69812 5.61588 0
M  V30 12585 C 1152.93 -1.52605 6.13917 0
M  V30 12586 C 1151.59 -1.40868 6.52466 0
M  V30 12587 H 1150.86 -0.509758 0.537799 0
M  V30 12588 H 1153.51 -0.718552 1.77508 0
M  V30 12589 H 1151.81 -3.30456 2.1049 0
M  V30 12590 H 1153.51 -3.16009 2.46859 0
M  V30 12591 H 1150.1 -2.30072 3.61614 0
M  V30 12592 H 1154.29 -1.9903 4.54644 0
M  V30 12593 H 1149.54 -1.59327 5.90275 0
M  V30 12594 H 1153.72 -1.29221 6.84306 0
M  V30 12595 H 1151.34 -1.08818 7.52371 0
M  V30 12596 N 1152.92 -1.31168 -0.873655 0
M  V30 12597 C 1154.17 -1.20003 -1.62118 0
M  V30 12598 C 1154.48 0.241505 -1.94103 0
M  V30 12599 O 1155.69 0.474801 -2.67316 0
M  V30 12600 C 1154.14 -2.10055 -2.92241 0
M  V30 12601 C 1153.75 -3.59183 -2.67752 0
M  V30 12602 C 1155.49 -2.07681 -3.70228 0
M  V30 12603 C 1153.4 -4.41255 -3.93761 0
M  V30 12604 H 1152.33 -0.445564 -0.608267 0
M  V30 12605 H 1154.98 -1.55997 -0.966287 0
M  V30 12606 H 1153.36 -1.66956 -3.59085 0
M  V30 12607 H 1154.54 -4.10504 -2.09339 0
M  V30 12608 H 1152.85 -3.63496 -2.03125 0
M  V30 12609 H 1155.45 -2.66246 -4.637 0
M  V30 12610 H 1155.79 -1.06304 -4.02499 0
M  V30 12611 H 1156.33 -2.48961 -3.10263 0
M  V30 12612 H 1153.07 -5.43372 -3.66643 0
M  V30 12613 H 1152.59 -3.94694 -4.51638 0
M  V30 12614 H 1154.26 -4.53278 -4.6168 0
M  V30 12615 N 1154.4 1.08748 -1.14068 0
M  V30 12616 C 1155.64 1.81065 -0.906738 0
M  V30 12617 C 1155.97 1.86057 0.566844 0
M  V30 12618 O 1155.23 1.32976 1.43582 0
M  V30 12619 C 1155.53 3.26734 -1.44843 0
M  V30 12620 C 1155.19 3.41866 -2.94005 0
M  V30 12621 C 1153.85 3.45703 -3.34729 0
M  V30 12622 C 1156.21 3.45831 -3.89937 0
M  V30 12623 C 1153.53 3.51092 -4.70055 0
M  V30 12624 C 1155.89 3.52755 -5.25116 0
M  V30 12625 C 1154.55 3.54863 -5.65357 0
M  V30 12626 H 1153.82 0.662564 -0.331799 0
M  V30 12627 H 1156.47 1.28065 -1.42378 0
M  V30 12628 H 1154.77 3.82419 -0.852239 0
M  V30 12629 H 1156.47 3.81236 -1.2434 0
M  V30 12630 H 1153.06 3.39568 -2.61518 0
M  V30 12631 H 1157.24 3.421 -3.59557 0
M  V30 12632 H 1152.5 3.51015 -5.00598 0
M  V30 12633 H 1156.67 3.54768 -5.9926 0
M  V30 12634 H 1154.3 3.58792 -6.70203 0
M  V30 12635 N 1155.87 0.935264 1.26849 0
M  V30 12636 C 1157.1 0.595704 1.98661 0
M  V30 12637 C 1157.52 -0.821001 1.69237 0
M  V30 12638 O 1156.88 -1.55211 0.936982 0
M  V30 12639 C 1156.93 0.837275 3.50745 0
M  V30 12640 O 1156.03 -0.0934914 4.12294 0
M  V30 12641 H 1155.38 0.228512 0.623441 0
M  V30 12642 H 1157.91 1.25658 1.61466 0
M  V30 12643 H 1157.92 0.755827 4.00938 0
M  V30 12644 H 1156.59 1.86993 3.71492 0
M  V30 12645 H 1155.17 0.0385124 3.7288 0
M  V30 12646 N 1157.35 -1.41121 0.701616 0
M  V30 12647 C 1158.76 -1.84122 0.309208 0
M  V30 12648 C 1159.11 -1.58695 -1.15371 0
M  V30 12649 O 1158.24 -1.06053 -1.88631 0
M  V30 12650 C 1158.83 -3.34233 0.554429 0
M  V30 12651 C 1157.39 -3.7578 0.215876 0
M  V30 12652 C 1156.54 -2.6447 0.833729 0
M  V30 12653 H 1159.49 -1.30587 0.901822 0
M  V30 12654 H 1159.51 -3.8005 -0.18491 0
M  V30 12655 H 1159.02 -3.52707 1.61923 0
M  V30 12656 H 1157.13 -3.62905 -0.844421 0
M  V30 12657 H 1157.24 -4.74319 0.675118 0
M  V30 12658 H 1155.6 -2.5334 0.262851 0
M  V30 12659 H 1156.39 -2.85761 1.90252 0
M  V30 12660 N 1158.83 -0.446794 -1.51134 0
M  V30 12661 C 1160.06 0.114893 -2.06581 0
M  V30 12662 C 1160.47 1.35642 -1.31327 0
M  V30 12663 O 1159.83 1.78595 -0.375506 0
M  V30 12664 C 1159.88 0.427589 -3.58962 0
M  V30 12665 O 1159.6 -0.764669 -4.31375 0
M  V30 12666 C 1161.1 1.03891 -4.30954 0
M  V30 12667 H 1158.32 0.00373031 -0.67099 0
M  V30 12668 H 1160.87 -0.628596 -1.94599 0
M  V30 12669 H 1159.02 1.12099 -3.70827 0
M  V30 12670 H 1159.44 -0.494605 -5.22163 0
M  V30 12671 H 1160.91 1.20764 -5.38628 0
M  V30 12672 H 1161.39 2.02252 -3.8986 0
M  V30 12673 H 1161.99 0.384623 -4.23557 0
M  V30 12674 N 1160.31 1.56586 -0.178487 0
M  V30 12675 C 1161.26 2.19631 0.765822 0
M  V30 12676 C 1162.25 1.16247 1.23219 0
M  V30 12677 O 1163.46 1.34431 1.19701 0
M  V30 12678 H 1159.83 0.703661 0.265264 0
M  V30 12679 H 1161.8 2.97659 0.210207 0
M  V30 12680 C 1160.55 2.85686 1.98188 0
M  V30 12681 H 1159.87 3.64971 1.63206 0
M  V30 12682 H 1161.31 3.33259 2.62134 0
M  V30 12683 C 1159.77 1.85837 2.81009 0
M  V30 12684 O 1160.3 1.3483 3.78396 0
M  V30 12685 N 1158.51 1.54435 2.46167 0
M  V30 12686 H 1158.06 1.96107 1.67032 0
M  V30 12687 H 1158.01 0.878808 3.01868 0
M  V30 12688 N 1161.79 -0.095206 1.57312 0
M  V30 12689 C 1162.73 -1.11551 2.02052 0
M  V30 12690 C 1163.7 -1.39808 0.896818 0
M  V30 12691 O 1164.89 -1.51273 1.1628 0
M  V30 12692 C 1162.03 -2.43056 2.44985 0
M  V30 12693 C 1161.14 -2.21531 3.70875 0
M  V30 12694 C 1160.28 -3.46434 4.02687 0
M  V30 12695 C 1159.32 -3.2017 5.21687 0
M  V30 12696 N 1158.45 -4.37339 5.49253 0
M  V30 12697 H 1163.29 -0.727 2.88996 0
M  V30 12698 H 1160.83 -0.347441 1.42938 0
M  V30 12699 H 1162.79 -3.19803 2.67921 0
M  V30 12700 H 1161.42 -2.79754 1.61051 0
M  V30 12701 H 1160.47 -1.35587 3.55416 0
M  V30 12702 H 1161.78 -1.98116 4.57768 0
M  V30 12703 H 1160.94 -4.31589 4.26399 0
M  V30 12704 H 1159.67 -3.72904 3.14315 0
M  V30 12705 H 1158.68 -2.33409 4.97796 0
M  V30 12706 H 1159.9 -2.95047 6.11657 0
M  V30 12707 H 1157.85 -4.63885 4.6384 0
M  V30 12708 H 1157.77 -4.17114 6.30517 0
M  V30 12709 H 1159.04 -5.23559 5.775 0
M  V30 12710 N 1163.26 -1.53291 -0.366026 0
M  V30 12711 C 1164.51 -1.68671 -1.10602 0
M  V30 12712 C 1164.83 -0.444793 -1.90476 0
M  V30 12713 O 1166.03 -0.479135 -2.67239 0
M  V30 12714 C 1164.49 -2.98174 -2.01545 0
M  V30 12715 C 1164.1 -4.29626 -1.26986 0
M  V30 12716 C 1165.84 -3.22921 -2.7554 0
M  V30 12717 C 1163.75 -5.50218 -2.16828 0
M  V30 12718 H 1162.68 -0.628456 -0.416604 0
M  V30 12719 H 1165.33 -1.79791 -0.367058 0
M  V30 12720 H 1163.71 -2.80855 -2.79171 0
M  V30 12721 H 1164.88 -4.57574 -0.544269 0
M  V30 12722 H 1163.2 -4.11318 -0.648558 0
M  V30 12723 H 1165.8 -4.10202 -3.42985 0
M  V30 12724 H 1166.14 -2.38964 -3.40884 0
M  V30 12725 H 1166.67 -3.40912 -2.04997 0
M  V30 12726 H 1163.41 -6.36651 -1.56063 0
M  V30 12727 H 1162.93 -5.26549 -2.87238 0
M  V30 12728 H 1164.61 -5.84991 -2.76396 0
M  V30 12729 N 1164.74 0.6258 -1.44643 0
M  V30 12730 C 1166.16 0.944569 -1.28647 0
M  V30 12731 C 1166.36 2.00227 -0.226134 0
M  V30 12732 O 1165.41 2.4953 0.386161 0
M  V30 12733 C 1166.73 1.40278 -2.65975 0
M  V30 12734 C 1168.28 1.51797 -2.73727 0
M  V30 12735 C 1168.75 2.01 -4.11537 0
M  V30 12736 N 1170.24 2.08262 -4.13741 0
M  V30 12737 C 1170.98 2.47515 -5.17227 0
M  V30 12738 N 1170.47 2.85867 -6.31072 0
M  V30 12739 N 1172.27 2.47695 -5.04583 0
M  V30 12740 H 1164.42 -0.0736157 -2.12272 0
M  V30 12741 H 1166.68 0.0296998 -0.947535 0
M  V30 12742 H 1166.39 0.699871 -3.44666 0
M  V30 12743 H 1166.26 2.37279 -2.93221 0
M  V30 12744 H 1168.65 2.21183 -1.95351 0
M  V30 12745 H 1168.73 0.531574 -2.50216 0
M  V30 12746 H 1168.37 1.32207 -4.90391 0
M  V30 12747 H 1168.3 3.0052 -4.32429 0
M  V30 12748 H 1170.79 1.81286 -3.31578 0
M  V30 12749 H 1171.11 3.14647 -7.05845 0
M  V30 12750 H 1169.45 2.83605 -6.34502 0
M  V30 12751 H 1172.64 2.17127 -4.14697 0
M  V30 12752 H 1172.81 2.77962 -5.85356 0
M  V30 12753 N 1166.22 1.31629 0.866686 0
M  V30 12754 C 1167.47 1.21683 1.62238 0
M  V30 12755 C 1167.8 -0.223767 1.92907 0
M  V30 12756 O 1167.07 -1.15761 1.563 0
M  V30 12757 C 1167.36 2.06443 2.95048 0
M  V30 12758 C 1167.21 3.58818 2.71237 0
M  V30 12759 C 1168.53 1.91634 3.96187 0
M  V30 12760 H 1165.65 0.443389 0.588707 0
M  V30 12761 H 1168.29 1.61453 1.00164 0
M  V30 12762 H 1166.44 1.72654 3.48027 0
M  V30 12763 H 1168.11 4.0276 2.24905 0
M  V30 12764 H 1166.36 3.82085 2.05411 0
M  V30 12765 H 1167.03 4.13436 3.65752 0
M  V30 12766 H 1169.5 2.21209 3.52428 0
M  V30 12767 H 1168.38 2.53236 4.86993 0
M  V30 12768 H 1168.64 0.880564 4.33242 0
M  V30 12769 N 1167.7 -1.08142 1.14644 0
M  V30 12770 C 1168.63 -2.17139 0.858667 0
M  V30 12771 C 1169.61 -1.69064 -0.187452 0
M  V30 12772 O 1170.8 -1.94151 -0.0435458 0
M  V30 12773 C 1167.93 -3.45648 0.33834 0
M  V30 12774 C 1166.88 -4.07129 1.32021 0
M  V30 12775 C 1166.21 -5.30623 0.659075 0
M  V30 12776 C 1167.51 -4.48095 2.68343 0
M  V30 12777 H 1169.2 -2.41468 1.77012 0
M  V30 12778 H 1166.75 -1.16052 0.852523 0
M  V30 12779 H 1168.7 -4.21216 0.124611 0
M  V30 12780 H 1167.42 -3.2088 -0.608553 0
M  V30 12781 H 1166.08 -3.33596 1.52016 0
M  V30 12782 H 1165.73 -5.02142 -0.293711 0
M  V30 12783 H 1165.43 -5.72714 1.31427 0
M  V30 12784 H 1166.95 -6.08903 0.454933 0
M  V30 12785 H 1168.37 -5.14828 2.5224 0
M  V30 12786 H 1166.76 -5.01113 3.30161 0
M  V30 12787 H 1167.83 -3.59852 3.25015 0
M  V30 12788 N 1169.18 -0.941978 -1.26351 0
M  V30 12789 C 1170.42 -0.597462 -1.95473 0
M  V30 12790 C 1170.78 0.847851 -1.72266 0
M  V30 12791 O 1171.98 1.30134 -2.35199 0
M  V30 12792 C 1170.25 -0.931342 -3.45052 0
M  V30 12793 S 1171.81 -0.697491 -4.33221 0
M  V30 12794 H 1168.63 -0.22003 -0.676097 0
M  V30 12795 H 1171.23 -1.21346 -1.53282 0
M  V30 12796 H 1169.94 -1.98063 -3.59443 0
M  V30 12797 H 1169.47 -0.305095 -3.92215 0
M  V30 12798 H 1171.48 0.437915 -4.94264 0
M  V30 12799 N 1170.66 1.40747 -0.709091 0
M  V30 12800 C 1171.61 2.27982 -0.0289269 0
M  V30 12801 C 1172.59 1.42917 0.739164 0
M  V30 12802 O 1173.78 1.66067 0.612433 0
M  V30 12803 C 1170.91 3.31378 0.896856 0
M  V30 12804 C 1170 4.23918 0.124296 0
M  V30 12805 N 1170.39 4.97925 -0.889043 0
M  V30 12806 C 1168.69 4.44562 0.357808 0
M  V30 12807 C 1169.39 5.65754 -1.35268 0
M  V30 12808 N 1168.36 5.3938 -0.676047 0
M  V30 12809 H 1172.16 2.82641 -0.805676 0
M  V30 12810 H 1169.68 1.5312 -0.541105 0
M  V30 12811 H 1171.68 3.92712 1.39939 0
M  V30 12812 H 1170.34 2.78279 1.67305 0
M  V30 12813 H 1171.35 5.02095 -1.2697 0
M  V30 12814 H 1168.02 4.02451 1.11084 0
M  V30 12815 H 1169.41 6.35058 -2.19432 0
M  V30 12816 N 1172.13 0.454803 1.50895 0
M  V30 12817 C 1173.55 0.108037 1.59234 0
M  V30 12818 C 1173.75 -1.38416 1.46435 0
M  V30 12819 O 1172.81 -2.15586 1.31449 0
M  V30 12820 C 1174.12 0.643721 2.93729 0
M  V30 12821 C 1175.67 0.605703 3.07083 0
M  V30 12822 C 1176.14 1.11865 4.44128 0
M  V30 12823 N 1177.63 1.07738 4.50496 0
M  V30 12824 C 1178.37 1.44495 5.54895 0
M  V30 12825 N 1177.86 1.88624 6.66628 0
M  V30 12826 N 1179.66 1.36201 5.45349 0
M  V30 12827 H 1171.81 1.4255 1.57459 0
M  V30 12828 H 1174.07 0.588504 0.743214 0
M  V30 12829 H 1173.78 1.68844 3.0852 0
M  V30 12830 H 1173.65 0.0782404 3.77119 0
M  V30 12831 H 1176.04 -0.430065 2.91949 0
M  V30 12832 H 1176.12 1.2078 2.2549 0
M  V30 12833 H 1175.76 2.15297 4.6001 0
M  V30 12834 H 1175.69 0.492933 5.24288 0
M  V30 12835 H 1178.18 0.753526 3.70311 0
M  V30 12836 H 1178.5 2.14863 7.4233 0
M  V30 12837 H 1176.84 1.92564 6.6779 0
M  V30 12838 H 1180.03 1.01579 4.56946 0
M  V30 12839 H 1180.21 1.65175 6.26595 0
M  V30 12840 N 1173.61 -1.56489 0.186789 0
M  V30 12841 C 1174.86 -1.96517 -0.45433 0
M  V30 12842 C 1175.17 -1.07618 -1.63333 0
M  V30 12843 O 1176.38 -1.37392 -2.3417 0
M  V30 12844 C 1174.84 -3.49482 -0.859685 0
M  V30 12845 C 1174.44 -4.47031 0.294572 0
M  V30 12846 C 1176.19 -3.98296 -1.46835 0
M  V30 12847 C 1174.09 -5.91254 -0.131279 0
M  V30 12848 H 1173.02 -0.733765 -0.17351 0
M  V30 12849 H 1175.68 -1.8139 0.277485 0
M  V30 12850 H 1174.06 -3.60082 -1.64793 0
M  V30 12851 H 1175.23 -4.48156 1.07205 0
M  V30 12852 H 1173.55 -4.08362 0.814197 0
M  V30 12853 H 1176.14 -5.03518 -1.79928 0
M  V30 12854 H 1176.49 -3.42123 -2.37186 0
M  V30 12855 H 1177.02 -3.90776 -0.744247 0
M  V30 12856 H 1173.76 -6.51334 0.737839 0
M  V30 12857 H 1173.28 -5.93401 -0.873786 0
M  V30 12858 H 1174.96 -6.44485 -0.569913 0
M  V30 12859 N 1175.09 0.086862 -1.5736 0
M  V30 12860 C 1176.34 0.790008 -1.8678 0
M  V30 12861 C 1176.67 1.77977 -0.777042 0
M  V30 12862 O 1175.94 1.93317 0.21419 0
M  V30 12863 C 1176.23 1.51143 -3.26845 0
M  V30 12864 C 1176.08 0.539106 -4.46558 0
M  V30 12865 C 1177.4 2.46003 -3.64926 0
M  V30 12866 H 1174.52 0.285741 -0.679354 0
M  V30 12867 H 1177.16 0.0534655 -1.89925 0
M  V30 12868 H 1175.31 2.13928 -3.24295 0
M  V30 12869 H 1176.98 -0.0823679 -4.61226 0
M  V30 12870 H 1175.22 -0.146842 -4.33551 0
M  V30 12871 H 1175.9 1.0812 -5.41308 0
M  V30 12872 H 1178.37 1.93306 -3.68473 0
M  V30 12873 H 1177.25 2.93493 -4.63846 0
M  V30 12874 H 1177.51 3.30133 -2.94049 0
M  V30 12875 N 1176.57 1.53483 0.357892 0
M  V30 12876 C 1177.52 1.81143 1.45911 0
M  V30 12877 C 1178.51 0.681002 1.55109 0
M  V30 12878 O 1179.72 0.864086 1.57904 0
M  V30 12879 H 1176.09 0.573663 0.486225 0
M  V30 12880 H 1178.06 2.733 1.19789 0
M  V30 12881 C 1176.81 2.02509 2.8264 0
M  V30 12882 H 1176.13 2.88938 2.76324 0
M  V30 12883 H 1177.57 2.25837 3.58851 0
M  V30 12884 C 1176.03 0.806412 3.27106 0
M  V30 12885 O 1176.56 -0.00116809 4.017 0
M  V30 12886 N 1174.77 0.627677 2.8374 0
M  V30 12887 H 1174.32 1.28601 2.23203 0
M  V30 12888 H 1174.27 -0.186301 3.13848 0
M  V30 12889 N 1178.05 -0.61812 1.44973 0
M  V30 12890 C 1179.01 -1.71135 1.52465 0
M  V30 12891 C 1180.01 -1.5561 0.405246 0
M  V30 12892 O 1181.2 -1.60869 0.668351 0
M  V30 12893 C 1178.33 -3.10324 1.41108 0
M  V30 12894 H 1179.52 -1.65862 2.49859 0
M  V30 12895 H 1177.08 -0.832932 1.32257 0
M  V30 12896 H 1177.81 -3.21183 0.448574 0
M  V30 12897 H 1177.6 -3.23001 2.2229 0
M  V30 12898 H 1179.09 -3.89976 1.49361 0
M  V30 12899 N 1179.52 -1.32087 -0.859693 0
M  V30 12900 C 1180.75 -1.25348 -1.64607 0
M  V30 12901 C 1181.17 0.179425 -1.87945 0
M  V30 12902 O 1180.52 1.11487 -1.44489 0
M  V30 12903 C 1180.57 -2.0047 -3.00822 0
M  V30 12904 O 1180.3 -3.38169 -2.7852 0
M  V30 12905 C 1181.8 -2.00694 -3.95268 0
M  V30 12906 H 1179.02 -0.432692 -0.512854 0
M  V30 12907 H 1181.56 -1.7413 -1.07234 0
M  V30 12908 H 1179.72 -1.55423 -3.54855 0
M  V30 12909 H 1180.13 -3.76553 -3.65113 0
M  V30 12910 H 1181.6 -2.57748 -4.88129 0
M  V30 12911 H 1182.08 -0.99196 -4.27851 0
M  V30 12912 H 1182.69 -2.45666 -3.47172 0
M  V30 12913 N 1181 1.07532 -1.15215 0
M  V30 12914 C 1182.25 1.8052 -0.937234 0
M  V30 12915 C 1182.6 1.84954 0.530084 0
M  V30 12916 O 1181.9 1.32091 1.3879 0
M  V30 12917 C 1182.09 3.2518 -1.483 0
M  V30 12918 C 1181.92 3.34841 -3.00185 0
M  V30 12919 C 1180.69 3.45509 -3.68716 0
M  V30 12920 C 1182.89 3.25749 -3.97985 0
M  V30 12921 N 1180.87 3.44055 -5.08429 0
M  V30 12922 C 1182.24 3.31391 -5.24004 0
M  V30 12923 C 1184.29 3.09547 -3.89981 0
M  V30 12924 C 1183 3.22498 -6.42952 0
M  V30 12925 C 1185.02 3.01987 -5.08486 0
M  V30 12926 C 1184.39 3.08239 -6.33378 0
M  V30 12927 H 1180.48 0.673971 -0.396594 0
M  V30 12928 H 1183.07 1.2837 -1.46387 0
M  V30 12929 H 1181.24 3.75754 -0.983021 0
M  V30 12930 H 1182.97 3.86279 -1.20709 0
M  V30 12931 H 1179.73 3.49778 -3.193 0
M  V30 12932 H 1180.15 3.4686 -5.81392 0
M  V30 12933 H 1184.79 3.03568 -2.94289 0
M  V30 12934 H 1182.51 3.27236 -7.38879 0
M  V30 12935 H 1186.1 2.90557 -5.04051 0
M  V30 12936 H 1184.98 3.02431 -7.23537 0
M  V30 12937 N 1182.48 0.948665 1.2585 0
M  V30 12938 C 1183.73 0.600236 1.934 0
M  V30 12939 C 1184.06 -0.86185 1.74363 0
M  V30 12940 O 1183.31 -1.63294 1.07858 0
M  V30 12941 C 1183.61 0.89784 3.45939 0
M  V30 12942 C 1183.28 2.345 3.85124 0
M  V30 12943 C 1181.94 2.74058 3.95532 0
M  V30 12944 C 1184.29 3.2851 4.04636 0
M  V30 12945 C 1181.62 4.06707 4.22855 0
M  V30 12946 C 1183.97 4.60764 4.3345 0
M  V30 12947 C 1182.63 5.00127 4.42074 0
M  V30 12948 H 1181.9 0.219642 0.707699 0
M  V30 12949 H 1184.55 1.19658 1.49513 0
M  V30 12950 H 1182.86 0.219037 3.91187 0
M  V30 12951 H 1184.55 0.606916 3.96381 0
M  V30 12952 H 1181.14 2.02819 3.77574 0
M  V30 12953 H 1185.33 2.99141 3.96015 0
M  V30 12954 H 1180.58 4.36856 4.27746 0
M  V30 12955 H 1184.76 5.33594 4.47493 0
M  V30 12956 H 1182.38 6.02939 4.63 0
M  V30 12957 N 1183.96 -1.40369 0.716545 0
M  V30 12958 C 1185.19 -2.05181 0.266143 0
M  V30 12959 C 1185.6 -1.53988 -1.09239 0
M  V30 12960 O 1184.96 -0.696859 -1.68672 0
M  V30 12961 C 1185.01 -3.60713 0.238384 0
M  V30 12962 O 1184.73 -4.10018 1.54328 0
M  V30 12963 C 1186.23 -4.42701 -0.230453 0
M  V30 12964 H 1183.45 -0.66028 0.119463 0
M  V30 12965 H 1186 -1.7976 0.97502 0
M  V30 12966 H 1184.15 -3.85101 -0.421466 0
M  V30 12967 H 1184.56 -5.0422 1.4444 0
M  V30 12968 H 1186.04 -5.51642 -0.198728 0
M  V30 12969 H 1186.52 -4.20354 -1.27276 0
M  V30 12970 H 1187.12 -4.23423 0.399155 0
M  V30 12971 N 1185.44 -0.462799 -1.50652 0
M  V30 12972 C 1186.38 0.349784 -2.29955 0
M  V30 12973 C 1187.38 0.997947 -1.36885 0
M  V30 12974 O 1188.58 0.93 -1.54114 0
M  V30 12975 H 1184.96 0.131635 -0.740389 0
M  V30 12976 H 1186.93 -0.33958 -2.96461 0
M  V30 12977 C 1185.68 1.42398 -3.17204 0
M  V30 12978 H 1185 0.934611 -3.88722 0
M  V30 12979 H 1186.44 1.96528 -3.75703 0
M  V30 12980 C 1184.9 2.42135 -2.34248 0
M  V30 12981 O 1185.43 3.47229 -2.01978 0
M  V30 12982 N 1183.64 2.13647 -1.96985 0
M  V30 12983 H 1183.18 1.28209 -2.23428 0
M  V30 12984 H 1183.14 2.80615 -1.41783 0
M  V30 12985 N 1186.91 1.56388 -0.195085 0
M  V30 12986 C 1188.16 1.9758 0.443686 0
M  V30 12987 C 1188.49 1.08196 1.61629 0
M  V30 12988 O 1187.74 0.121061 1.95325 0
M  V30 12989 C 1188.04 3.44651 0.946051 0
M  V30 12990 C 1187.71 4.50758 -0.11318 0
M  V30 12991 C 1186.37 4.79499 -0.404229 0
M  V30 12992 C 1188.72 5.14534 -0.830899 0
M  V30 12993 C 1186.05 5.69307 -1.41797 0
M  V30 12994 C 1188.4 6.05438 -1.83379 0
M  V30 12995 C 1187.07 6.32535 -2.13204 0
M  V30 12996 H 1186.34 0.722995 0.162356 0
M  V30 12997 H 1188.98 1.8926 -0.292049 0
M  V30 12998 H 1187.29 3.50042 1.76006 0
M  V30 12999 H 1188.99 3.73878 1.44969 0
M  V30 13000 H 1185.58 4.28421 0.123833 0
M  V30 13001 H 1189.76 4.92421 -0.61927 0
M  V30 13002 H 1185.02 5.88575 -1.65496 0
M  V30 13003 H 1189.19 6.53915 -2.39516 0
M  V30 13004 H 1186.82 7.01924 -2.91902 0
M  V30 13005 N 1188.39 -0.0785156 1.57404 0
M  V30 13006 C 1189.64 -0.777722 1.86103 0
M  V30 13007 C 1189.95 -1.79079 0.786771 0
M  V30 13008 O 1191.16 -2.53908 0.961393 0
M  V30 13009 C 1189.62 -1.43407 3.30095 0
M  V30 13010 C 1189.22 -0.459912 4.45633 0
M  V30 13011 C 1190.97 -2.11603 3.68 0
M  V30 13012 C 1188.88 -1.12179 5.80663 0
M  V30 13013 H 1187.81 -0.294205 0.694233 0
M  V30 13014 H 1190.46 -0.0309003 1.83474 0
M  V30 13015 H 1188.84 -2.22892 3.27315 0
M  V30 13016 H 1190.01 0.304642 4.59792 0
M  V30 13017 H 1188.33 0.117242 4.16235 0
M  V30 13018 H 1190.92 -2.61887 4.66175 0
M  V30 13019 H 1191.27 -2.91244 2.9746 0
M  V30 13020 H 1191.8 -1.38958 3.72741 0
M  V30 13021 H 1188.54 -0.365842 6.54478 0
M  V30 13022 H 1188.06 -1.85737 5.70317 0
M  V30 13023 H 1189.74 -1.64355 6.25777 0
M  V30 13024 N 1189.87 -1.5367 -0.349747 0
M  V30 13025 C 1190.8 -1.84208 -1.43492 0
M  V30 13026 C 1191.78 -0.696725 -1.55177 0
M  V30 13027 O 1192.97 -0.948061 -1.69486 0
M  V30 13028 C 1190.1 -2.04613 -2.80625 0
M  V30 13029 C 1189.05 -3.20419 -2.83753 0
M  V30 13030 C 1188.38 -3.26147 -4.23713 0
M  V30 13031 C 1189.68 -4.58666 -2.49846 0
M  V30 13032 H 1191.37 -2.75087 -1.18185 0
M  V30 13033 H 1188.92 -1.32363 -0.567101 0
M  V30 13034 H 1190.87 -2.2456 -3.56582 0
M  V30 13035 H 1189.59 -1.10459 -3.07354 0
M  V30 13036 H 1188.25 -3.00318 -2.10249 0
M  V30 13037 H 1187.9 -2.29599 -4.47541 0
M  V30 13038 H 1187.6 -4.03963 -4.26717 0
M  V30 13039 H 1189.12 -3.48296 -5.0152 0
M  V30 13040 H 1190.54 -4.78668 -3.15516 0
M  V30 13041 H 1188.94 -5.3884 -2.64144 0
M  V30 13042 H 1190.01 -4.62697 -1.4505 0
M  V30 13043 N 1191.35 0.610423 -1.45298 0
M  V30 13044 C 1192.28 1.73207 -1.56594 0
M  V30 13045 C 1193.26 1.64893 -0.417651 0
M  V30 13046 O 1194.44 1.83336 -0.64043 0
M  V30 13047 C 1191.57 3.11803 -1.52959 0
M  V30 13048 C 1190.53 3.34925 -2.66475 0
M  V30 13049 C 1189.85 4.73764 -2.47894 0
M  V30 13050 C 1191.15 3.25456 -4.08504 0
M  V30 13051 H 1192.85 1.6401 -2.50482 0
M  V30 13052 H 1190.39 0.787621 -1.20551 0
M  V30 13053 H 1192.35 3.90065 -1.59458 0
M  V30 13054 H 1191.07 3.21833 -0.55599 0
M  V30 13055 H 1189.73 2.59051 -2.59399 0
M  V30 13056 H 1189.38 4.80524 -1.4868 0
M  V30 13057 H 1189.08 4.90191 -3.24016 0
M  V30 13058 H 1190.6 5.54231 -2.56243 0
M  V30 13059 H 1192.02 3.93597 -4.16839 0
M  V30 13060 H 1190.41 3.53414 -4.84994 0
M  V30 13061 H 1191.48 2.22939 -4.30612 0
M  V30 13062 N 1192.83 1.32541 0.852676 0
M  V30 13063 C 1194.07 1.23214 1.607 0
M  V30 13064 C 1194.4 -0.205542 1.93411 0
M  V30 13065 O 1193.66 -1.15907 1.57683 0
M  V30 13066 C 1193.96 2.039 2.9353 0
M  V30 13067 C 1193.62 3.53237 2.8024 0
M  V30 13068 C 1192.28 3.93953 2.76323 0
M  V30 13069 C 1194.64 4.48194 2.6603 0
M  V30 13070 C 1191.96 5.27865 2.56077 0
M  V30 13071 C 1194.32 5.82251 2.47319 0
M  V30 13072 C 1192.98 6.22166 2.41796 0
M  V30 13073 H 1192.25 0.450873 0.588043 0
M  V30 13074 H 1194.9 1.63988 0.988954 0
M  V30 13075 H 1193.2 1.55861 3.59464 0
M  V30 13076 H 1194.9 1.94051 3.50921 0
M  V30 13077 H 1191.49 3.209 2.84114 0
M  V30 13078 H 1195.67 4.17656 2.681 0
M  V30 13079 H 1190.93 5.57845 2.50237 0
M  V30 13080 H 1195.1 6.55442 2.35305 0
M  V30 13081 H 1192.73 7.2587 2.25868 0
M  V30 13082 N 1194.3 -1.0692 1.15784 0
M  V30 13083 C 1195.55 -1.78983 0.929944 0
M  V30 13084 C 1195.87 -1.87884 -0.543969 0
M  V30 13085 O 1197.07 -2.56513 -0.889578 0
M  V30 13086 C 1195.53 -3.21657 1.61446 0
M  V30 13087 C 1195.14 -3.20943 3.12569 0
M  V30 13088 C 1196.88 -3.98299 1.46828 0
M  V30 13089 C 1194.79 -4.58298 3.73788 0
M  V30 13090 H 1193.72 -0.670809 0.344284 0
M  V30 13091 H 1196.37 -1.19975 1.38846 0
M  V30 13092 H 1194.75 -3.80885 1.08364 0
M  V30 13093 H 1195.92 -2.71334 3.72444 0
M  V30 13094 H 1194.24 -2.57799 3.26999 0
M  V30 13095 H 1196.84 -4.99822 1.89952 0
M  V30 13096 H 1197.18 -4.14213 0.416358 0
M  V30 13097 H 1197.71 -3.45577 1.97031 0
M  V30 13098 H 1194.45 -4.47588 4.789 0
M  V30 13099 H 1193.97 -5.08126 3.18698 0
M  V30 13100 H 1195.65 -5.27262 3.74972 0
M  V30 13101 N 1195.78 -0.955326 -1.25345 0
M  V30 13102 C 1196.71 -0.494145 -2.28211 0
M  V30 13103 C 1197.69 0.459875 -1.63766 0
M  V30 13104 O 1198.88 0.358679 -1.90859 0
M  V30 13105 C 1196.01 0.228228 -3.46549 0
M  V30 13106 C 1194.96 -0.640601 -4.23179 0
M  V30 13107 C 1194.29 0.212553 -5.34277 0
M  V30 13108 C 1195.59 -1.91906 -4.85767 0
M  V30 13109 H 1197.28 -1.35391 -2.67039 0
M  V30 13110 H 1194.83 -0.652462 -1.2837 0
M  V30 13111 H 1196.78 0.561995 -4.17636 0
M  V30 13112 H 1195.51 1.12224 -3.06714 0
M  V30 13113 H 1194.16 -0.957462 -3.53876 0
M  V30 13114 H 1193.81 1.10634 -4.90682 0
M  V30 13115 H 1193.51 -0.365473 -5.86462 0
M  V30 13116 H 1195.04 0.541271 -6.08196 0
M  V30 13117 H 1196.45 -1.65165 -5.48993 0
M  V30 13118 H 1194.85 -2.44279 -5.48131 0
M  V30 13119 H 1195.92 -2.62173 -4.07914 0
M  V30 13120 N 1197.26 1.39987 -0.723979 0
M  V30 13121 C 1198.19 2.3332 -0.0917282 0
M  V30 13122 C 1199.17 1.53335 0.736361 0
M  V30 13123 O 1200.36 1.81771 0.683582 0
M  V30 13124 C 1197.49 3.3737 0.824549 0
M  V30 13125 C 1196.44 4.2788 0.101452 0
M  V30 13126 C 1195.77 5.22536 1.13401 0
M  V30 13127 C 1197.07 5.11649 -1.04939 0
M  V30 13128 H 1198.76 2.86441 -0.871318 0
M  V30 13129 H 1196.31 1.37725 -0.420448 0
M  V30 13130 H 1198.26 4.01607 1.27631 0
M  V30 13131 H 1196.98 2.82663 1.63613 0
M  V30 13132 H 1195.64 3.65107 -0.330569 0
M  V30 13133 H 1195.29 4.64131 1.93886 0
M  V30 13134 H 1194.99 5.83938 0.65502 0
M  V30 13135 H 1196.52 5.89651 1.58569 0
M  V30 13136 H 1197.93 5.69293 -0.6766 0
M  V30 13137 H 1196.33 5.82137 -1.45729 0
M  V30 13138 H 1197.4 4.47132 -1.8762 0
M  V30 13139 N 1198.74 0.470782 1.50404 0
M  V30 13140 C 1199.96 -0.084284 2.07229 0
M  V30 13141 C 1200.39 -1.32774 1.33239 0
M  V30 13142 O 1199.75 -1.77274 0.379971 0
M  V30 13143 C 1199.8 -0.351565 3.58882 0
M  V30 13144 O 1198.9 -1.43211 3.86736 0
M  V30 13145 H 1198.24 0.0128479 0.663876 0
M  V30 13146 H 1200.77 0.661735 1.93603 0
M  V30 13147 H 1200.78 -0.592151 4.0368 0
M  V30 13148 H 1199.46 0.557084 4.12152 0
M  V30 13149 H 1198.03 -1.17886 3.53776 0
M  V30 13150 N 1200.22 -1.56282 0.203376 0
M  V30 13151 C 1201.44 -2.02643 -0.441658 0
M  V30 13152 C 1201.87 -1.0825 -1.5383 0
M  V30 13153 O 1201.23 -0.0674337 -1.81175 0
M  V30 13154 C 1201.27 -3.47382 -0.967369 0
M  V30 13155 O 1200.38 -3.56115 -2.07981 0
M  V30 13156 H 1199.72 -0.656081 -0.102242 0
M  V30 13157 H 1202.25 -2.02134 0.316684 0
M  V30 13158 H 1202.26 -3.8734 -1.28186 0
M  V30 13159 H 1200.93 -4.15574 -0.164625 0
M  V30 13160 H 1199.51 -3.28035 -1.77334 0
M  V30 13161 N 1201.7 0.070167 -1.57444 0
M  V30 13162 C 1202.66 1.06761 -2.02817 0
M  V30 13163 C 1203.66 1.31498 -0.925462 0
M  V30 13164 O 1204.85 1.27192 -1.19029 0
M  V30 13165 C 1201.98 2.41086 -2.41019 0
M  V30 13166 H 1203.17 0.67651 -2.9217 0
M  V30 13167 H 1200.73 0.315936 -1.53074 0
M  V30 13168 H 1201.46 2.85025 -1.54697 0
M  V30 13169 H 1201.25 2.24472 -3.21488 0
M  V30 13170 H 1202.74 3.12778 -2.76694 0
M  V30 13171 N 1203.17 1.53854 0.341593 0
M  V30 13172 C 1204.14 1.8128 1.40251 0
M  V30 13173 C 1205.14 0.683915 1.45531 0
M  V30 13174 O 1206.33 0.952202 1.45872 0
M  V30 13175 C 1203.46 1.95658 2.79161 0
M  V30 13176 H 1204.65 2.76053 1.17195 0
M  V30 13177 H 1202.2 1.45296 0.57609 0
M  V30 13178 H 1202.94 1.03034 3.07497 0
M  V30 13179 H 1202.72 2.77788 2.76724 0
M  V30 13180 H 1204.21 2.18387 3.55945 0
M  V30 13181 N 1204.65 -0.602709 1.4562 0
M  V30 13182 C 1205.58 -1.72374 1.5751 0
M  V30 13183 C 1206.56 -1.64669 0.426389 0
M  V30 13184 O 1207.75 -1.82994 0.650143 0
M  V30 13185 C 1204.88 -3.10987 1.5461 0
M  V30 13186 C 1203.83 -3.33507 2.68248 0
M  V30 13187 C 1203.16 -4.72443 2.50403 0
M  V30 13188 C 1204.46 -3.23285 4.10224 0
M  V30 13189 H 1206.15 -1.62679 2.51348 0
M  V30 13190 H 1203.7 -0.781217 1.20967 0
M  V30 13191 H 1205.65 -3.89214 1.61525 0
M  V30 13192 H 1204.37 -3.21533 0.573049 0
M  V30 13193 H 1203.03 -2.57672 2.60769 0
M  V30 13194 H 1202.68 -4.79729 1.51226 0
M  V30 13195 H 1202.38 -4.88466 3.26611 0
M  V30 13196 H 1203.91 -5.52864 2.59179 0
M  V30 13197 H 1205.32 -3.91381 4.1892 0
M  V30 13198 H 1203.72 -3.50837 4.86861 0
M  V30 13199 H 1204.79 -2.20652 4.31788 0
M  V30 13200 N 1206.13 -1.32992 -0.845635 0
M  V30 13201 C 1207.09 -1.22607 -1.9365 0
M  V30 13202 C 1208.09 -0.146812 -1.60128 0
M  V30 13203 O 1209.28 -0.397863 -1.69596 0
M  V30 13204 C 1206.41 -0.887677 -3.2914 0
M  V30 13205 H 1207.61 -2.19563 -2.04285 0
M  V30 13206 H 1205.16 -1.16952 -1.03691 0
M  V30 13207 H 1205.9 0.0796777 -3.24202 0
M  V30 13208 H 1205.68 -1.66808 -3.54849 0
M  V30 13209 H 1207.17 -0.83958 -4.09073 0
M  V30 13210 N 1207.61 1.06304 -1.1635 0
M  V30 13211 C 1208.57 2.11947 -0.872419 0
M  V30 13212 C 1209.57 1.60253 0.132534 0
M  V30 13213 O 1210.76 1.73922 -0.0983441 0
M  V30 13214 C 1207.89 3.39536 -0.304646 0
M  V30 13215 H 1209.09 2.39201 -1.80894 0
M  V30 13216 H 1206.64 1.22367 -0.972419 0
M  V30 13217 H 1207.37 3.17931 0.639565 0
M  V30 13218 H 1207.16 3.78363 -1.02878 0
M  V30 13219 H 1208.65 4.17431 -0.118936 0
M  V30 13220 N 1209.09 0.96196 1.24836 0
M  V30 13221 C 1210 0.494876 2.29321 0
M  V30 13222 C 1211.01 -0.441363 1.68309 0
M  V30 13223 O 1212.19 -0.315814 1.98908 0
M  V30 13224 C 1209.25 -0.212944 3.46045 0
M  V30 13225 C 1208.31 0.762411 4.22476 0
M  V30 13226 C 1207.55 0.0882756 5.33627 0
M  V30 13227 O 1207.77 -1.12459 5.59204 0
M  V30 13228 O 1206.7 0.777529 5.96857 0
M  V30 13229 H 1210.53 1.36333 2.7138 0
M  V30 13230 H 1208.11 0.728738 1.30421 0
M  V30 13231 H 1210 -0.610805 4.1695 0
M  V30 13232 H 1208.67 -1.05645 3.05975 0
M  V30 13233 H 1207.58 1.21062 3.5397 0
M  V30 13234 H 1208.91 1.57416 4.66349 0
M  V30 13235 N 1210.56 -1.39601 0.731392 0
M  V30 13236 C 1211.84 -1.94531 0.20422 0
M  V30 13237 C 1212.22 -1.66845 -1.29329 0
M  V30 13238 O 1211.57 -0.994706 -2.05713 0
M  V30 13239 C 1211.78 -3.44891 0.53395 0
M  V30 13240 C 1213.13 -4.21863 0.481298 0
M  V30 13241 O 1214.15 -3.53073 0.470929 0
M  V30 13242 O 1213.01 -5.44452 0.472663 0
M  V30 13243 H 1210.1 -0.826214 0.0360436 0
M  V30 13244 H 1212.65 -1.49121 0.810005 0
M  V30 13245 H 1211.42 -3.58463 1.56907 0
M  V30 13246 H 1211.04 -3.97472 -0.10099 0
M  V30 13247 N 1212.04 -0.478751 -1.50152 0
M  V30 13248 C 1213.45 -0.0254907 -1.86683 0
M  V30 13249 C 1213.8 1.38171 -1.39295 0
M  V30 13250 O 1212.93 2.0257 -0.761207 0
M  V30 13251 C 1213.52 -0.0394819 -3.38777 0
M  V30 13252 C 1212.08 0.35834 -3.7469 0
M  V30 13253 C 1211.23 -0.421667 -2.74075 0
M  V30 13254 H 1214.18 -0.692653 -1.42787 0
M  V30 13255 H 1214.2 0.760957 -3.72813 0
M  V30 13256 H 1213.71 -1.06378 -3.73236 0
M  V30 13257 H 1211.82 1.38671 -3.45834 0
M  V30 13258 H 1211.93 0.0543589 -4.79069 0
M  V30 13259 H 1210.29 0.125634 -2.5439 0
M  V30 13260 H 1211.08 -1.44562 -3.11379 0
M  V30 13261 N 1213.52 1.56172 -0.211661 0
M  V30 13262 C 1214.77 1.97214 0.423008 0
M  V30 13263 C 1215.08 1.10203 1.616 0
M  V30 13264 O 1216.29 1.411 2.31955 0
M  V30 13265 C 1214.74 3.50805 0.803977 0
M  V30 13266 C 1214.35 4.46505 -0.365654 0
M  V30 13267 C 1216.1 4.00582 1.4048 0
M  V30 13268 C 1214 5.91388 0.0371986 0
M  V30 13269 H 1212.93 0.736432 0.161814 0
M  V30 13270 H 1215.58 1.80925 -0.306307 0
M  V30 13271 H 1213.97 3.62659 1.59043 0
M  V30 13272 H 1215.14 4.46394 -1.14321 0
M  V30 13273 H 1213.46 4.07015 -0.879061 0
M  V30 13274 H 1216.05 5.06317 1.71894 0
M  V30 13275 H 1216.4 3.45853 2.31713 0
M  V30 13276 H 1216.93 3.9191 0.681984 0
M  V30 13277 H 1213.67 6.50078 -0.841367 0
M  V30 13278 H 1213.19 5.94716 0.77927 0
M  V30 13279 H 1214.87 6.4531 0.467309 0
M  V30 13280 N 1215 -0.0618163 1.57479 0
M  V30 13281 C 1216.41 -0.416827 1.54061 0
M  V30 13282 C 1216.61 -1.78584 0.933277 0
M  V30 13283 O 1215.67 -2.46656 0.54009 0
M  V30 13284 C 1216.98 -0.348728 2.98671 0
M  V30 13285 C 1218.53 -0.428194 3.10057 0
M  V30 13286 C 1219.01 -0.389898 4.56337 0
M  V30 13287 N 1220.5 -0.449677 4.61012 0
M  V30 13288 C 1221.23 -0.442418 5.71691 0
M  V30 13289 N 1220.73 -0.389381 6.91705 0
M  V30 13290 N 1222.52 -0.489719 5.59963 0
M  V30 13291 H 1214.67 0.834487 1.9532 0
M  V30 13292 H 1216.94 0.314149 0.894435 0
M  V30 13293 H 1216.64 0.590738 3.46703 0
M  V30 13294 H 1216.52 -1.15511 3.59078 0
M  V30 13295 H 1218.9 -1.35808 2.61992 0
M  V30 13296 H 1218.98 0.406946 2.52542 0
M  V30 13297 H 1218.63 0.536186 5.05062 0
M  V30 13298 H 1218.56 -1.24271 5.11727 0
M  V30 13299 H 1221.05 -0.49451 3.74651 0
M  V30 13300 H 1221.36 -0.388042 7.71825 0
M  V30 13301 H 1219.71 -0.355918 6.94088 0
M  V30 13302 H 1222.9 -0.528915 4.65102 0
M  V30 13303 H 1223.07 -0.480592 6.46215 0
M  V30 13304 N 1216.48 -1.54033 -0.333429 0
M  V30 13305 C 1217.44 -1.82021 -1.39288 0
M  V30 13306 C 1218.44 -0.691623 -1.45166 0
M  V30 13307 O 1219.63 -0.959925 -1.45365 0
M  V30 13308 C 1216.76 -1.97136 -2.78119 0
M  V30 13309 H 1217.95 -2.76671 -1.1573 0
M  V30 13310 H 1215.51 -1.45599 -0.568376 0
M  V30 13311 H 1216.24 -1.04663 -3.06946 0
M  V30 13312 H 1216.03 -2.79251 -2.75247 0
M  V30 13313 H 1217.52 -2.20271 -3.54782 0
M  V30 13314 N 1217.95 0.594978 -1.45938 0
M  V30 13315 C 1219.23 1.35477 -1.41086 0
M  V30 13316 C 1219.61 2.10917 -0.0879512 0
M  V30 13317 O 1218.96 2.08704 0.930323 0
M  V30 13318 C 1219.17 2.29106 -2.63271 0
M  V30 13319 C 1220.52 2.9132 -3.08898 0
M  V30 13320 O 1221.54 2.39423 -2.63733 0
M  V30 13321 O 1220.4 3.85553 -3.87313 0
M  V30 13322 H 1217.49 0.6081 -0.560485 0
M  V30 13323 H 1220.04 0.617016 -1.58085 0
M  V30 13324 H 1218.81 1.72707 -3.51124 0
M  V30 13325 H 1218.44 3.10241 -2.48669 0
M  V30 13326 N 1219.43 1.33438 0.838571 0
M  V30 13327 C 1220.66 1.28097 1.63113 0
M  V30 13328 C 1221.08 -0.145197 1.87539 0
M  V30 13329 O 1220.44 -1.10191 1.43971 0
M  V30 13330 C 1220.49 2.06201 2.95827 0
M  V30 13331 O 1219.59 1.42082 3.87152 0
M  V30 13332 H 1218.93 0.440685 0.496681 0
M  V30 13333 H 1221.46 1.76004 1.04325 0
M  V30 13334 H 1221.47 2.16977 3.45521 0
M  V30 13335 H 1220.15 3.099 2.77371 0
M  V30 13336 H 1218.73 1.39953 3.45641 0
M  V30 13337 N 1220.91 -1.05686 1.16912 0
M  V30 13338 C 1221.84 -2.12775 0.824755 0
M  V30 13339 C 1222.82 -1.61286 -0.206289 0
M  V30 13340 O 1224.01 -1.8829 -0.0889616 0
M  V30 13341 C 1221.13 -3.37922 0.229422 0
M  V30 13342 C 1220.18 -4.08226 1.23506 0
M  V30 13343 S 1221.01 -4.57424 2.78431 0
M  V30 13344 C 1222.17 -5.85825 2.20364 0
M  V30 13345 H 1222.4 -2.41657 1.73174 0
M  V30 13346 H 1219.93 -1.18212 0.99324 0
M  V30 13347 H 1221.89 -4.10359 -0.107588 0
M  V30 13348 H 1220.55 -3.07186 -0.655424 0
M  V30 13349 H 1219.75 -4.98129 0.767059 0
M  V30 13350 H 1219.35 -3.41832 1.51747 0
M  V30 13351 H 1221.64 -6.58912 1.57611 0
M  V30 13352 H 1222.58 -6.37364 3.08501 0
M  V30 13353 H 1222.99 -5.4015 1.64008 0
M  V30 13354 N 1222.39 -0.968567 -1.24324 0
M  V30 13355 C 1223.8 -0.675239 -1.44612 0
M  V30 13356 C 1224 0.762641 -1.8651 0
M  V30 13357 O 1223.06 1.53644 -2.00374 0
M  V30 13358 C 1224.37 -1.66007 -2.50723 0
M  V30 13359 C 1225.92 -1.6728 -2.6455 0
M  V30 13360 C 1226.4 -2.64563 -3.73859 0
M  V30 13361 N 1227.89 -2.6301 -3.81287 0
M  V30 13362 C 1228.62 -3.34957 -4.65394 0
M  V30 13363 N 1228.12 -4.16424 -5.53681 0
M  V30 13364 N 1229.91 -3.23778 -4.59483 0
M  V30 13365 H 1222.06 -1.89757 -0.954257 0
M  V30 13366 H 1224.33 -0.817004 -0.480841 0
M  V30 13367 H 1224.03 -2.68779 -2.26827 0
M  V30 13368 H 1223.91 -1.43353 -3.48898 0
M  V30 13369 H 1226.29 -0.652184 -2.87803 0
M  V30 13370 H 1226.37 -1.93997 -1.6673 0
M  V30 13371 H 1226.02 -3.66759 -3.51355 0
M  V30 13372 H 1225.95 -2.35124 -4.71194 0
M  V30 13373 H 1228.44 -2.03877 -3.18186 0
M  V30 13374 H 1228.75 -4.68207 -6.14818 0
M  V30 13375 H 1227.1 -4.20518 -5.53344 0
M  V30 13376 H 1230.29 -2.59594 -3.89524 0
M  V30 13377 H 1230.46 -3.80112 -5.24804 0
M  V30 13378 N 1223.87 1.39211 -0.738786 0
M  V30 13379 C 1224.81 2.32424 -0.0904601 0
M  V30 13380 C 1225.81 1.53258 0.721694 0
M  V30 13381 O 1227.01 1.68895 0.622454 0
M  V30 13382 H 1223.39 0.751927 -0.010453 0
M  V30 13383 H 1225.36 2.84726 -0.892945 0
M  V30 13384 C 1224.11 3.38377 0.799783 0
M  V30 13385 H 1223.43 3.99375 0.18424 0
M  V30 13386 H 1224.87 4.0604 1.22096 0
M  V30 13387 C 1223.33 2.75734 1.93578 0
M  V30 13388 O 1223.86 2.63876 3.02874 0
M  V30 13389 N 1222.07 2.33764 1.72634 0
M  V30 13390 H 1221.61 2.43609 0.837413 0
M  V30 13391 H 1221.57 1.92191 2.48817 0
M  V30 13392 N 1225.34 0.486708 1.49896 0
M  V30 13393 C 1226.28 -0.335809 2.26727 0
M  V30 13394 C 1227.29 -0.94333 1.32684 0
M  V30 13395 O 1228.48 -0.82909 1.58077 0
M  V30 13396 C 1225.58 -1.48642 3.04563 0
M  V30 13397 C 1224.75 -0.988837 4.26076 0
M  V30 13398 C 1223.81 -2.01535 4.86076 0
M  V30 13399 O 1222.84 -1.58966 5.46552 0
M  V30 13400 N 1224.04 -3.34471 4.74457 0
M  V30 13401 H 1226.8 0.322919 2.97955 0
M  V30 13402 H 1224.36 0.318403 1.58738 0
M  V30 13403 H 1226.36 -2.17039 3.41579 0
M  V30 13404 H 1224.93 -2.04956 2.36033 0
M  V30 13405 H 1224.15 -0.130232 3.93985 0
M  V30 13406 H 1225.43 -0.634562 5.04827 0
M  V30 13407 H 1224.83 -3.71755 4.26398 0
M  V30 13408 H 1223.39 -3.98621 5.15698 0
M  V30 13409 N 1226.82 -1.56058 0.219941 0
M  V30 13410 C 1228.07 -1.97436 -0.412543 0
M  V30 13411 C 1228.39 -1.11058 -1.61014 0
M  V30 13412 O 1229.59 -1.42328 -2.31203 0
M  V30 13413 C 1228.05 -3.51227 -0.785362 0
M  V30 13414 C 1227.66 -4.46305 0.389328 0
M  V30 13415 C 1229.4 -4.01321 -1.38354 0
M  V30 13416 C 1227.31 -5.914 -0.00583531 0
M  V30 13417 H 1226.24 -0.73728 -0.157906 0
M  V30 13418 H 1228.89 -1.8076 0.315898 0
M  V30 13419 H 1227.27 -3.63497 -1.57118 0
M  V30 13420 H 1228.44 -4.45781 1.16686 0
M  V30 13421 H 1226.76 -4.06543 0.900633 0
M  V30 13422 H 1229.36 -5.07221 -1.69207 0
M  V30 13423 H 1229.7 -3.47077 -2.29876 0
M  V30 13424 H 1230.23 -3.92267 -0.66119 0
M  V30 13425 H 1226.97 -6.49623 0.87583 0
M  V30 13426 H 1226.49 -5.95121 -0.74772 0
M  V30 13427 H 1228.17 -6.45549 -0.43308 0
M  V30 13428 N 1228.3 0.053464 -1.57509 0
M  V30 13429 C 1229.23 1.06151 -2.07977 0
M  V30 13430 C 1230.21 1.3924 -0.977047 0
M  V30 13431 O 1231.4 1.48549 -1.25087 0
M  V30 13432 C 1228.53 2.36969 -2.53895 0
M  V30 13433 C 1227.48 2.18186 -3.6821 0
M  V30 13434 C 1226.81 3.54551 -4.00247 0
M  V30 13435 C 1228.11 1.588 -4.97574 0
M  V30 13436 H 1229.8 0.641483 -2.92447 0
M  V30 13437 H 1227.35 0.307122 -1.40687 0
M  V30 13438 H 1229.3 3.07797 -2.87817 0
M  V30 13439 H 1228.02 2.80986 -1.66476 0
M  V30 13440 H 1226.68 1.49796 -3.34599 0
M  V30 13441 H 1226.33 3.96171 -3.09932 0
M  V30 13442 H 1226.03 3.42816 -4.77232 0
M  V30 13443 H 1227.56 4.2678 -4.36682 0
M  V30 13444 H 1228.97 2.19515 -5.29609 0
M  V30 13445 H 1227.37 1.57711 -5.79006 0
M  V30 13446 H 1228.44 0.551254 -4.81756 0
M  V30 13447 N 1229.78 1.54207 0.325255 0
M  V30 13448 C 1230.73 1.83474 1.40021 0
M  V30 13449 C 1231.7 0.681719 1.51466 0
M  V30 13450 O 1232.88 0.92798 1.66713 0
M  V30 13451 C 1230.02 2.06624 2.76407 0
M  V30 13452 C 1229.13 3.3431 2.73607 0
M  V30 13453 C 1228.27 3.4743 4.01828 0
M  V30 13454 C 1227.31 4.68997 3.93329 0
M  V30 13455 N 1226.45 4.79052 5.13277 0
M  V30 13456 H 1231.29 2.75182 1.14363 0
M  V30 13457 H 1228.82 1.36284 0.553639 0
M  V30 13458 H 1230.78 2.18037 3.5569 0
M  V30 13459 H 1229.41 1.18209 3.00377 0
M  V30 13460 H 1228.46 3.31643 1.86324 0
M  V30 13461 H 1229.77 4.237 2.6321 0
M  V30 13462 H 1228.93 3.58376 4.89542 0
M  V30 13463 H 1227.67 2.56128 4.1503 0
M  V30 13464 H 1226.67 4.58109 3.04 0
M  V30 13465 H 1227.9 5.61681 3.81695 0
M  V30 13466 H 1225.84 3.90666 5.26988 0
M  V30 13467 H 1225.76 5.62406 5.05208 0
M  V30 13468 H 1227.03 4.94328 6.02711 0
M  V30 13469 N 1231.26 -0.58723 1.46251 0
M  V30 13470 C 1232.21 -1.69141 1.5289 0
M  V30 13471 C 1233.19 -1.56096 0.39024 0
M  V30 13472 O 1234.38 -1.65087 0.638373 0
M  V30 13473 C 1231.51 -3.07922 1.51785 0
M  V30 13474 C 1230.6 -3.2628 2.70928 0
M  V30 13475 N 1230.99 -3.14815 3.95885 0
M  V30 13476 C 1229.29 -3.57207 2.67056 0
M  V30 13477 C 1229.99 -3.35055 4.75514 0
M  V30 13478 N 1228.96 -3.59999 4.0731 0
M  V30 13479 H 1232.77 -1.588 2.47305 0
M  V30 13480 H 1230.28 -0.791124 1.41827 0
M  V30 13481 H 1232.28 -3.87164 1.54628 0
M  V30 13482 H 1230.94 -3.19397 0.584435 0
M  V30 13483 H 1231.95 -2.92778 4.27202 0
M  V30 13484 H 1228.63 -3.75394 1.82717 0
M  V30 13485 H 1230.02 -3.31412 5.84479 0
M  V30 13486 N 1232.74 -1.33881 -0.831482 0
M  V30 13487 C 1233.98 -1.25755 -1.58719 0
M  V30 13488 C 1234.31 0.174746 -1.93713 0
M  V30 13489 O 1233.57 1.13384 -1.59507 0
M  V30 13490 C 1233.86 -2.08544 -2.90249 0
M  V30 13491 C 1233.53 -3.57651 -2.74585 0
M  V30 13492 C 1232.19 -3.983 -2.7002 0
M  V30 13493 C 1234.54 -4.52369 -2.58866 0
M  V30 13494 C 1231.87 -5.31872 -2.47647 0
M  V30 13495 C 1234.22 -5.86112 -2.38025 0
M  V30 13496 C 1232.89 -6.25934 -2.31867 0
M  V30 13497 H 1232.16 -0.460171 -0.580796 0
M  V30 13498 H 1234.81 -1.6554 -0.96274 0
M  V30 13499 H 1233.11 -1.6156 -3.56939 0
M  V30 13500 H 1234.81 -1.99609 -3.47789 0
M  V30 13501 H 1231.4 -3.2538 -2.78973 0
M  V30 13502 H 1235.58 -4.21868 -2.61421 0
M  V30 13503 H 1230.84 -5.61756 -2.41331 0
M  V30 13504 H 1235.01 -6.59103 -2.24847 0
M  V30 13505 H 1232.64 -7.29372 -2.14291 0
M  V30 13506 N 1234.21 1.05064 -1.1747 0
M  V30 13507 C 1235.49 1.74999 -0.873776 0
M  V30 13508 C 1235.87 2.01615 0.625676 0
M  V30 13509 O 1235.22 1.65324 1.57734 0
M  V30 13510 C 1235.43 3.04231 -1.7101 0
M  V30 13511 C 1236.78 3.78157 -1.93087 0
M  V30 13512 O 1237.8 3.14104 -1.6798 0
M  V30 13513 O 1236.66 4.93255 -2.3529 0
M  V30 13514 H 1233.75 0.761042 -0.323641 0
M  V30 13515 H 1236.3 1.1122 -1.28172 0
M  V30 13516 H 1235.07 2.80621 -2.72704 0
M  V30 13517 H 1234.69 3.75746 -1.30002 0
M  V30 13518 N 1235.69 0.975146 1.23809 0
M  V30 13519 C 1236.94 0.636678 1.91388 0
M  V30 13520 C 1237.25 -0.832876 1.76982 0
M  V30 13521 O 1238.46 -1.28218 2.39316 0
M  V30 13522 C 1236.92 1.08813 3.43057 0
M  V30 13523 C 1236.52 2.58165 3.66135 0
M  V30 13524 C 1238.27 0.823154 4.16443 0
M  V30 13525 C 1236.17 2.97004 5.11412 0
M  V30 13526 H 1235.1 0.234424 0.716632 0
M  V30 13527 H 1237.76 1.18235 1.40331 0
M  V30 13528 H 1236.14 0.470709 3.93192 0
M  V30 13529 H 1237.31 3.25101 3.26567 0
M  V30 13530 H 1235.63 2.82353 3.06049 0
M  V30 13531 H 1238.22 1.08925 5.23488 0
M  V30 13532 H 1238.57 -0.240705 4.15604 0
M  V30 13533 H 1239.1 1.4019 3.72279 0
M  V30 13534 H 1235.84 4.02492 5.17378 0
M  V30 13535 H 1235.36 2.34759 5.51949 0
M  V30 13536 H 1237.04 2.8732 5.79704 0
M  V30 13537 N 1237.17 -1.38817 0.746158 0
M  V30 13538 C 1238.42 -1.99885 0.298425 0
M  V30 13539 C 1238.74 -1.59518 -1.12156 0
M  V30 13540 O 1238.01 -0.848568 -1.76568 0
M  V30 13541 H 1236.59 -0.739247 0.107347 0
M  V30 13542 H 1239.25 -1.69696 0.9586 0
M  V30 13543 H 1238.35 -3.10067 0.355656 0
M  V30 13544 N 1238.65 -0.49465 -1.49636 0
M  V30 13545 C 1239.89 0.0521172 -2.02433 0
M  V30 13546 C 1240.22 1.37579 -1.37485 0
M  V30 13547 O 1239.48 1.8927 -0.497538 0
M  V30 13548 C 1239.78 0.259743 -3.56455 0
M  V30 13549 C 1239.44 -0.985143 -4.40007 0
M  V30 13550 C 1238.1 -1.3264 -4.62558 0
M  V30 13551 C 1240.46 -1.81291 -4.88654 0
M  V30 13552 C 1237.78 -2.49506 -5.31003 0
M  V30 13553 C 1240.14 -2.97305 -5.58384 0
M  V30 13554 C 1238.8 -3.31818 -5.79183 0
M  V30 13555 H 1238.07 0.0190711 -0.740755 0
M  V30 13556 H 1240.72 -0.653519 -1.80004 0
M  V30 13557 H 1239.02 1.04785 -3.77528 0
M  V30 13558 H 1240.72 0.697146 -3.94893 0
M  V30 13559 H 1237.31 -0.709313 -4.2269 0
M  V30 13560 H 1241.49 -1.56242 -4.71065 0
M  V30 13561 H 1236.75 -2.76491 -5.4531 0
M  V30 13562 H 1240.92 -3.61777 -5.95055 0
M  V30 13563 H 1238.55 -4.22478 -6.31994 0
M  V30 13564 N 1240.13 1.55939 -0.228214 0
M  V30 13565 C 1241.35 2.0287 0.406348 0
M  V30 13566 C 1241.77 1.1079 1.52876 0
M  V30 13567 O 1241.13 0.118747 1.82113 0
M  V30 13568 C 1241.18 3.49286 0.931734 0
M  V30 13569 O 1240.9 4.37857 -0.145933 0
M  V30 13570 C 1242.4 4.11893 1.63887 0
M  V30 13571 H 1239.62 0.663696 0.0987358 0
M  V30 13572 H 1242.16 2.01541 -0.346616 0
M  V30 13573 H 1240.32 3.5121 1.63494 0
M  V30 13574 H 1240.73 5.23904 0.250005 0
M  V30 13575 H 1242.21 5.16091 1.95841 0
M  V30 13576 H 1242.68 3.57281 2.55435 0
M  V30 13577 H 1243.29 4.13839 0.980697 0
M  V30 13578 N 1241.6 -0.0451101 1.57535 0
M  V30 13579 C 1242.83 -0.755068 1.93167 0
M  V30 13580 C 1243.25 -1.68949 0.826915 0
M  V30 13581 O 1242.61 -1.79978 -0.218534 0
M  V30 13582 C 1242.66 -1.50201 3.27829 0
M  V30 13583 O 1241.76 -2.61434 3.18945 0
M  V30 13584 H 1241.11 -0.204219 0.631815 0
M  V30 13585 H 1243.64 -0.00537504 2.04599 0
M  V30 13586 H 1243.65 -1.87547 3.6234 0
M  V30 13587 H 1242.32 -0.816591 4.07805 0
M  V30 13588 H 1240.9 -2.26749 2.96039 0
M  V30 13589 N 1243.08 -1.54377 -0.317073 0
M  V30 13590 C 1244.33 -1.73149 -1.05581 0
M  V30 13591 C 1244.66 -0.507176 -1.8746 0
M  V30 13592 O 1243.94 0.495837 -1.88074 0
M  V30 13593 C 1244.22 -3.01098 -1.97515 0
M  V30 13594 C 1244.07 -4.33794 -1.18922 0
M  V30 13595 C 1245.39 -3.24831 -2.9694 0
M  V30 13596 H 1242.51 -0.630011 -0.382434 0
M  V30 13597 H 1245.15 -1.87079 -0.331873 0
M  V30 13598 H 1243.3 -2.89352 -2.59244 0
M  V30 13599 H 1244.97 -4.57433 -0.596039 0
M  V30 13600 H 1243.22 -4.31005 -0.491612 0
M  V30 13601 H 1243.89 -5.19554 -1.86462 0
M  V30 13602 H 1246.36 -3.3608 -2.45335 0
M  V30 13603 H 1245.24 -4.15702 -3.58445 0
M  V30 13604 H 1245.5 -2.42365 -3.69745 0
M  V30 13605 N 1244.56 0.579466 -1.4656 0
M  V30 13606 C 1245.81 1.33756 -1.52038 0
M  V30 13607 C 1246.14 1.93725 -0.173423 0
M  V30 13608 O 1245.39 1.77167 0.831293 0
M  V30 13609 C 1245.69 2.48417 -2.56951 0
M  V30 13610 C 1245.36 2.0642 -4.00876 0
M  V30 13611 C 1244.02 1.94682 -4.4006 0
M  V30 13612 C 1246.37 1.74066 -4.91274 0
M  V30 13613 C 1243.7 1.48852 -5.67503 0
M  V30 13614 C 1246.05 1.29714 -6.19158 0
M  V30 13615 C 1244.71 1.16555 -6.57245 0
M  V30 13616 H 1243.98 0.489447 -0.556347 0
M  V30 13617 H 1246.63 0.652176 -1.80053 0
M  V30 13618 H 1244.94 3.22416 -2.2261 0
M  V30 13619 H 1246.63 3.06629 -2.58418 0
M  V30 13620 H 1243.22 2.16492 -3.69904 0
M  V30 13621 H 1247.41 1.82019 -4.61717 0
M  V30 13622 H 1242.66 1.3731 -5.95782 0
M  V30 13623 H 1246.84 1.03734 -6.88631 0
M  V30 13624 H 1244.46 0.808193 -7.55892 0
M  V30 13625 N 1246.04 1.3432 0.824371 0
M  V30 13626 C 1247.27 1.29669 1.61226 0
M  V30 13627 C 1247.68 -0.129532 1.88355 0
M  V30 13628 O 1247.04 -1.07616 1.47394 0
M  V30 13629 C 1247.09 2.08375 2.95402 0
M  V30 13630 O 1246.81 3.45434 2.69456 0
M  V30 13631 C 1248.31 2.11103 3.89808 0
M  V30 13632 H 1245.53 0.446137 0.501201 0
M  V30 13633 H 1248.08 1.76912 1.02579 0
M  V30 13634 H 1246.23 1.64777 3.5061 0
M  V30 13635 H 1246.64 3.86101 3.55001 0
M  V30 13636 H 1248.12 2.706 4.81124 0
M  V30 13637 H 1248.6 1.10505 4.25071 0
M  V30 13638 H 1249.2 2.54784 3.40537 0
M  V30 13639 N 1247.52 -1.0444 1.18026 0
M  V30 13640 C 1248.76 -1.77838 0.974756 0
M  V30 13641 C 1249.1 -1.87792 -0.494755 0
M  V30 13642 O 1248.37 -1.38327 -1.36733 0
M  V30 13643 C 1248.65 -3.21315 1.62569 0
M  V30 13644 C 1248.51 -3.19327 3.16781 0
M  V30 13645 C 1249.83 -4.19337 1.33583 0
M  V30 13646 H 1246.94 -0.645575 0.35553 0
M  V30 13647 H 1249.59 -1.22023 1.45638 0
M  V30 13648 H 1247.74 -3.68974 1.21617 0
M  V30 13649 H 1249.41 -2.79687 3.66842 0
M  V30 13650 H 1247.65 -2.57461 3.49137 0
M  V30 13651 H 1248.32 -4.20626 3.5746 0
M  V30 13652 H 1250.8 -3.80208 1.69059 0
M  V30 13653 H 1249.67 -5.17953 1.81702 0
M  V30 13654 H 1249.94 -4.41346 0.258016 0
M  V30 13655 N 1248.99 -0.981699 -1.2329 0
M  V30 13656 C 1249.9 -0.531296 -2.28505 0
M  V30 13657 C 1250.92 0.414531 -1.6899 0
M  V30 13658 O 1252.1 0.284129 -1.99386 0
M  V30 13659 C 1249.16 0.157864 -3.4634 0
M  V30 13660 C 1248.22 -0.829527 -4.21209 0
M  V30 13661 C 1247.46 -0.17316 -5.33419 0
M  V30 13662 O 1247.68 1.03549 -5.60922 0
M  V30 13663 O 1246.61 -0.872385 -5.95544 0
M  V30 13664 H 1250.44 -1.40633 -2.69177 0
M  V30 13665 H 1248.02 -0.749395 -1.29246 0
M  V30 13666 H 1249.91 0.544394 -4.17869 0
M  V30 13667 H 1248.58 1.00764 -3.07617 0
M  V30 13668 H 1247.49 -1.26678 -3.51999 0
M  V30 13669 H 1248.82 -1.64815 -4.63785 0
M  V30 13670 N 1250.47 1.3842 -0.753509 0
M  V30 13671 C 1251.72 1.99359 -0.306416 0
M  V30 13672 C 1252.03 1.60492 1.11811 0
M  V30 13673 O 1253.24 2.14401 1.66567 0
M  V30 13674 C 1251.7 3.56453 -0.496895 0
M  V30 13675 C 1251.3 4.04272 -1.9305 0
M  V30 13676 C 1253.05 4.24351 -0.11251 0
M  V30 13677 C 1250.96 5.54007 -2.06955 0
M  V30 13678 H 1249.89 0.745812 -0.110818 0
M  V30 13679 H 1252.54 1.58185 -0.930039 0
M  V30 13680 H 1250.92 3.95515 0.195912 0
M  V30 13681 H 1252.09 3.765 -2.65677 0
M  V30 13682 H 1250.41 3.49098 -2.26979 0
M  V30 13683 H 1253 5.34344 -0.195161 0
M  V30 13684 H 1253.35 4.05668 0.934849 0
M  V30 13685 H 1253.88 3.90528 -0.757168 0
M  V30 13686 H 1250.62 5.77594 -3.09944 0
M  V30 13687 H 1250.14 5.83522 -1.38788 0
M  V30 13688 H 1251.82 6.19704 -1.85945 0
M  V30 13689 N 1251.95 0.502579 1.49372 0
M  V30 13690 C 1253.2 -0.0414423 2.02758 0
M  V30 13691 C 1253.53 -1.36499 1.38136 0
M  V30 13692 O 1252.8 -1.87487 0.517593 0
M  V30 13693 C 1253.09 -0.192333 3.59586 0
M  V30 13694 C 1252.94 1.15445 4.34733 0
M  V30 13695 C 1254.26 -0.932218 4.30114 0
M  V30 13696 H 1251.38 -0.0135869 0.736875 0
M  V30 13697 H 1254.02 0.654296 1.78379 0
M  V30 13698 H 1252.17 -0.78491 3.80488 0
M  V30 13699 H 1253.84 1.78603 4.25322 0
M  V30 13700 H 1252.09 1.74333 3.97228 0
M  V30 13701 H 1252.76 1.00216 5.42827 0
M  V30 13702 H 1255.23 -0.429632 4.13876 0
M  V30 13703 H 1254.11 -1.00664 5.39591 0
M  V30 13704 H 1254.37 -1.9763 3.95468 0
M  V30 13705 N 1253.43 -1.55816 0.23648 0
M  V30 13706 C 1254.36 -2.23924 -0.661834 0
M  V30 13707 C 1255.34 -1.21597 -1.18946 0
M  V30 13708 O 1256.52 -1.50222 -1.23073 0
M  V30 13709 C 1253.65 -2.93069 -1.86355 0
M  V30 13710 C 1252.61 -4.01996 -1.46913 0
M  V30 13711 C 1251.93 -4.58512 -2.75083 0
M  V30 13712 C 1253.23 -5.18265 -0.647964 0
M  V30 13713 H 1254.93 -2.99253 -0.0939368 0
M  V30 13714 H 1252.47 -1.43934 -0.0437407 0
M  V30 13715 H 1254.43 -3.39412 -2.49755 0
M  V30 13716 H 1253.15 -2.15212 -2.45665 0
M  V30 13717 H 1251.81 -3.56406 -0.858522 0
M  V30 13718 H 1251.46 -3.77368 -3.3257 0
M  V30 13719 H 1251.16 -5.32037 -2.49421 0
M  V30 13720 H 1252.68 -5.07583 -3.39399 0
M  V30 13721 H 1254.1 -5.60898 -1.18602 0
M  V30 13722 H 1252.49 -5.98114 -0.487823 0
M  V30 13723 H 1253.56 -4.83691 0.342151 0
M  V30 13724 N 1254.91 0.036755 -1.57557 0
M  V30 13725 C 1255.85 1.03975 -2.06053 0
M  V30 13726 C 1256.82 1.36384 -0.948089 0
M  V30 13727 O 1258.01 1.46853 -1.21815 0
M  V30 13728 C 1255.15 2.33796 -2.53837 0
M  V30 13729 C 1254.26 2.07614 -3.78841 0
M  V30 13730 C 1253.4 3.3125 -4.15267 0
M  V30 13731 C 1252.44 3.00587 -5.33211 0
M  V30 13732 N 1251.57 4.16653 -5.65106 0
M  V30 13733 H 1256.41 0.61924 -2.91495 0
M  V30 13734 H 1253.95 0.294151 -1.44129 0
M  V30 13735 H 1255.91 3.09639 -2.79606 0
M  V30 13736 H 1254.54 2.73584 -1.71323 0
M  V30 13737 H 1253.59 1.22302 -3.60203 0
M  V30 13738 H 1254.9 1.80989 -4.64806 0
M  V30 13739 H 1254.06 4.15466 -4.42123 0
M  V30 13740 H 1252.79 3.60981 -3.27939 0
M  V30 13741 H 1251.8 2.14772 -5.06115 0
M  V30 13742 H 1253.02 2.72142 -6.22186 0
M  V30 13743 H 1250.97 4.4635 -4.80737 0
M  V30 13744 H 1250.89 3.93425 -6.45564 0
M  V30 13745 H 1252.16 5.01764 -5.96534 0
M  V30 13746 N 1256.39 1.54543 0.308881 0
M  V30 13747 C 1257.32 1.79818 1.40502 0
M  V30 13748 C 1258.3 0.648927 1.4909 0
M  V30 13749 O 1259.48 0.888009 1.66273 0
M  V30 13750 C 1256.61 1.92787 2.7848 0
M  V30 13751 C 1255.65 3.15167 2.87353 0
M  V30 13752 S 1256.49 4.73427 2.50255 0
M  V30 13753 C 1257.64 4.89321 3.90276 0
M  V30 13754 H 1257.88 2.7251 1.18852 0
M  V30 13755 H 1255.41 1.45854 0.506551 0
M  V30 13756 H 1257.37 2.00944 3.57955 0
M  V30 13757 H 1256.03 1.01047 2.97403 0
M  V30 13758 H 1255.22 3.2102 3.88538 0
M  V30 13759 H 1254.82 3.05416 2.15864 0
M  V30 13760 H 1257.11 4.7286 4.8519 0
M  V30 13761 H 1258.06 5.91418 3.89398 0
M  V30 13762 H 1258.47 4.17524 3.79913 0
M  V30 13763 N 1257.86 -0.571685 1.46866 0
M  V30 13764 C 1259.09 -1.35524 1.56336 0
M  V30 13765 C 1259.51 -1.87647 0.208359 0
M  V30 13766 O 1258.86 -1.64219 -0.796136 0
M  V30 13767 C 1258.91 -2.53518 2.57703 0
M  V30 13768 O 1258.64 -2.03552 3.87941 0
M  V30 13769 C 1260.14 -3.45925 2.77219 0
M  V30 13770 H 1257.36 -0.41363 0.528348 0
M  V30 13771 H 1259.9 -0.693943 1.92366 0
M  V30 13772 H 1258.06 -3.15615 2.24647 0
M  V30 13773 H 1258.47 -2.80476 4.43208 0
M  V30 13774 H 1259.94 -4.2517 3.52043 0
M  V30 13775 H 1260.42 -3.98559 1.8452 0
M  V30 13776 H 1261.03 -2.89655 3.11416 0
M  V30 13777 N 1259.34 -1.34755 -0.817236 0
M  V30 13778 C 1260.57 -1.30522 -1.60536 0
M  V30 13779 C 1260.98 0.119541 -1.88421 0
M  V30 13780 O 1260.34 1.06833 -1.47962 0
M  V30 13781 C 1260.39 -2.09939 -2.94292 0
M  V30 13782 O 1260.11 -3.46858 -2.67621 0
M  V30 13783 C 1261.61 -2.13168 -3.88683 0
M  V30 13784 H 1258.83 -0.448789 -0.498828 0
M  V30 13785 H 1261.38 -1.77453 -1.01639 0
M  V30 13786 H 1259.53 -1.66634 -3.49731 0
M  V30 13787 H 1259.95 -3.87979 -3.52949 0
M  V30 13788 H 1261.42 -2.73147 -4.79682 0
M  V30 13789 H 1261.9 -1.12758 -4.24479 0
M  V30 13790 H 1262.5 -2.56587 -3.39181 0
M  V30 13791 N 1260.82 1.03812 -1.18578 0
M  V30 13792 C 1262.05 1.8044 -1.00623 0
M  V30 13793 C 1262.46 1.83808 0.448451 0
M  V30 13794 O 1261.8 1.27417 1.32328 0
M  V30 13795 C 1261.86 3.27266 -1.48785 0
M  V30 13796 C 1261.53 3.47553 -2.96742 0
M  V30 13797 C 1262.52 3.38533 -3.94578 0
M  V30 13798 C 1260.21 3.74067 -3.3523 0
M  V30 13799 C 1262.2 3.55735 -5.28896 0
M  V30 13800 C 1259.89 3.90916 -4.6971 0
M  V30 13801 C 1260.89 3.81751 -5.66352 0
M  V30 13802 O 1260.58 3.98115 -6.98398 0
M  V30 13803 H 1260.31 0.574996 -0.355465 0
M  V30 13804 H 1262.86 1.31708 -1.57614 0
M  V30 13805 H 1261.09 3.76979 -0.861613 0
M  V30 13806 H 1262.78 3.85461 -1.27181 0
M  V30 13807 H 1263.55 3.18011 -3.66189 0
M  V30 13808 H 1259.43 3.80298 -2.60566 0
M  V30 13809 H 1262.97 3.48498 -6.04314 0
M  V30 13810 H 1258.87 4.10934 -4.97799 0
M  V30 13811 H 1259.63 4.1526 -7.05338 0
M  V30 13812 N 1262.3 0.988223 1.22768 0
M  V30 13813 C 1263.55 0.660154 1.91014 0
M  V30 13814 C 1263.87 -0.809788 1.77391 0
M  V30 13815 O 1263.14 -1.57998 1.15817 0
M  V30 13816 H 1261.72 0.24118 0.706995 0
M  V30 13817 H 1264.38 1.25372 1.49224 0
M  V30 13818 H 1263.47 0.918603 2.98275 0
M  V30 13819 N 1263.78 -1.38018 0.760839 0
M  V30 13820 C 1264.74 -2.28734 0.146154 0
M  V30 13821 C 1265.74 -1.47525 -0.639768 0
M  V30 13822 O 1266.93 -1.6788 -0.464964 0
M  V30 13823 C 1264.06 -3.31356 -0.801019 0
M  V30 13824 H 1265.25 -2.84599 0.945692 0
M  V30 13825 H 1262.81 -1.471 0.528323 0
M  V30 13826 H 1263.54 -2.80594 -1.62597 0
M  V30 13827 H 1263.33 -3.91366 -0.239775 0
M  V30 13828 H 1264.82 -3.99171 -1.22687 0
M  V30 13829 N 1265.25 -0.510493 -1.49103 0
M  V30 13830 C 1266.5 0.0306436 -2.02477 0
M  V30 13831 C 1266.83 1.36113 -1.38937 0
M  V30 13832 O 1266.08 1.88731 -0.517584 0
M  V30 13833 C 1266.38 0.221921 -3.5671 0
M  V30 13834 C 1266.05 -1.03176 -4.38937 0
M  V30 13835 C 1264.71 -1.37539 -4.61125 0
M  V30 13836 C 1267.06 -1.86464 -4.86704 0
M  V30 13837 C 1264.39 -2.55124 -5.28326 0
M  V30 13838 C 1266.74 -3.03211 -5.55199 0
M  V30 13839 C 1265.41 -3.37943 -5.75631 0
M  V30 13840 H 1264.68 0.0112133 -0.740915 0
M  V30 13841 H 1267.32 -0.672574 -1.79301 0
M  V30 13842 H 1265.63 1.00775 -3.78618 0
M  V30 13843 H 1267.33 0.655223 -3.95611 0
M  V30 13844 H 1263.92 -0.754105 -4.21914 0
M  V30 13845 H 1268.1 -1.61229 -4.69381 0
M  V30 13846 H 1263.36 -2.8226 -5.42346 0
M  V30 13847 H 1267.53 -3.68068 -5.91185 0
M  V30 13848 H 1265.16 -4.29158 -6.27477 0
M  V30 13849 N 1266.73 1.55688 -0.24474 0
M  V30 13850 C 1267.66 2.24272 0.64995 0
M  V30 13851 C 1268.64 1.22226 1.183 0
M  V30 13852 O 1269.83 1.50873 1.22274 0
M  V30 13853 C 1266.96 2.94053 1.84798 0
M  V30 13854 C 1265.91 4.02769 1.44779 0
M  V30 13855 C 1265.24 4.59965 2.72647 0
M  V30 13856 C 1266.54 5.18601 0.62047 0
M  V30 13857 H 1268.23 2.99298 0.0780654 0
M  V30 13858 H 1265.78 1.43955 0.0361069 0
M  V30 13859 H 1267.73 3.40732 2.47951 0
M  V30 13860 H 1266.45 2.16511 2.44521 0
M  V30 13861 H 1265.11 3.56856 0.839609 0
M  V30 13862 H 1264.76 3.79126 3.30564 0
M  V30 13863 H 1264.46 5.33352 2.46596 0
M  V30 13864 H 1265.99 5.09376 3.36703 0
M  V30 13865 H 1267.4 5.61519 1.15625 0
M  V30 13866 H 1265.8 5.98364 0.456097 0
M  V30 13867 H 1266.87 4.83503 -0.367798 0
M  V30 13868 N 1268.21 -0.0283989 1.57574 0
M  V30 13869 C 1269.16 -1.03669 2.03069 0
M  V30 13870 C 1270.14 -1.31994 0.920129 0
M  V30 13871 O 1271.34 -1.31568 1.18402 0
M  V30 13872 C 1268.46 -2.3376 2.51418 0
M  V30 13873 C 1267.55 -2.08522 3.69296 0
M  V30 13874 N 1267.94 -1.53345 4.81995 0
M  V30 13875 C 1266.24 -2.38803 3.76682 0
M  V30 13876 C 1266.94 -1.43926 5.63613 0
M  V30 13877 N 1265.92 -1.91507 5.0875 0
M  V30 13878 H 1269.72 -0.604097 2.87625 0
M  V30 13879 H 1267.23 -0.234689 1.60695 0
M  V30 13880 H 1269.23 -3.06804 2.82271 0
M  V30 13881 H 1267.89 -2.77698 1.68268 0
M  V30 13882 H 1268.9 -1.21607 5.0342 0
M  V30 13883 H 1265.58 -2.8581 3.04333 0
M  V30 13884 H 1266.97 -1.0175 6.64151 0
M  V30 13885 N 1269.69 -1.54705 -0.300681 0
M  V30 13886 C 1270.63 -1.85678 -1.37084 0
M  V30 13887 C 1271.6 -0.70573 -1.50362 0
M  V30 13888 O 1272.79 -0.954385 -1.65215 0
M  V30 13889 C 1269.93 -2.10995 -2.73084 0
M  V30 13890 C 1269.04 -3.38621 -2.68254 0
M  V30 13891 C 1268.18 -3.53779 -3.9625 0
M  V30 13892 C 1267.22 -4.75195 -3.85818 0
M  V30 13893 N 1266.35 -4.87157 -5.05591 0
M  V30 13894 H 1271.19 -2.76967 -1.09971 0
M  V30 13895 H 1268.73 -1.37147 -0.531887 0
M  V30 13896 H 1270.69 -2.23669 -3.52176 0
M  V30 13897 H 1269.32 -1.22973 -2.98458 0
M  V30 13898 H 1268.37 -3.34566 -1.81025 0
M  V30 13899 H 1269.68 -4.27834 -2.56436 0
M  V30 13900 H 1268.84 -3.66119 -4.83779 0
M  V30 13901 H 1267.58 -2.62699 -4.10902 0
M  V30 13902 H 1266.58 -4.62888 -2.96673 0
M  V30 13903 H 1267.81 -5.67683 -3.72711 0
M  V30 13904 H 1265.75 -3.99001 -5.20706 0
M  V30 13905 H 1265.67 -5.70372 -4.96197 0
M  V30 13906 H 1266.94 -5.03854 -5.9477 0
M  V30 13907 N 1271.17 0.563888 -1.47167 0
M  V30 13908 C 1272.41 1.31875 -1.53145 0
M  V30 13909 C 1272.74 1.94047 -0.192518 0
M  V30 13910 O 1272.01 1.79577 0.782872 0
M  V30 13911 H 1270.59 0.489694 -0.5641 0
M  V30 13912 H 1273.25 0.658976 -1.83422 0
M  V30 13913 H 1272.34 2.11574 -2.2944 0
M  V30 13914 N 1272.64 1.35187 0.810078 0
M  V30 13915 C 1273.87 1.31528 1.60359 0
M  V30 13916 C 1274.29 -0.105385 1.87805 0
M  V30 13917 O 1273.65 -1.07113 1.46276 0
M  V30 13918 C 1273.7 2.12429 2.91386 0
M  V30 13919 O 1272.8 1.50262 3.84051 0
M  V30 13920 H 1272.15 0.451122 0.487222 0
M  V30 13921 H 1274.68 1.78178 1.00568 0
M  V30 13922 H 1274.69 2.24257 3.40841 0
M  V30 13923 H 1273.36 3.15714 2.70735 0
M  V30 13924 H 1271.94 1.47253 3.42594 0
M  V30 13925 N 1274.12 -1.03182 1.19127 0
M  V30 13926 C 1275.37 -1.76533 0.992093 0
M  V30 13927 C 1275.7 -1.88549 -0.477429 0
M  V30 13928 O 1274.95 -1.39675 -1.37074 0
M  V30 13929 C 1275.25 -3.19452 1.60267 0
M  V30 13930 C 1274.92 -3.27449 3.09981 0
M  V30 13931 C 1273.58 -3.29338 3.50841 0
M  V30 13932 C 1275.93 -3.26833 4.05992 0
M  V30 13933 C 1273.26 -3.28265 4.86271 0
M  V30 13934 C 1275.61 -3.27299 5.41348 0
M  V30 13935 C 1274.28 -3.27485 5.81644 0
M  V30 13936 H 1273.55 -0.645979 0.363033 0
M  V30 13937 H 1276.19 -1.21127 1.48326 0
M  V30 13938 H 1274.5 -3.77917 1.03372 0
M  V30 13939 H 1276.19 -3.74869 1.42388 0
M  V30 13940 H 1272.78 -3.26704 2.77421 0
M  V30 13941 H 1276.97 -3.24556 3.75469 0
M  V30 13942 H 1272.22 -3.26731 5.16775 0
M  V30 13943 H 1276.4 -3.25773 6.15504 0
M  V30 13944 H 1274.03 -3.26407 6.86558 0
M  V30 13945 N 1275.6 -0.99472 -1.22242 0
M  V30 13946 C 1276.84 -0.679831 -1.92763 0
M  V30 13947 C 1277.2 0.774024 -1.75707 0
M  V30 13948 O 1278.41 1.20041 -2.40507 0
M  V30 13949 C 1276.68 -1.07685 -3.40791 0
M  V30 13950 S 1278.24 -0.880607 -4.29873 0
M  V30 13951 H 1275.05 -0.248508 -0.666157 0
M  V30 13952 H 1277.66 -1.27738 -1.47997 0
M  V30 13953 H 1276.36 -2.1313 -3.50719 0
M  V30 13954 H 1275.89 -0.471172 -3.90568 0
M  V30 13955 H 1277.91 0.227887 -4.95676 0
M  V30 13956 N 1277.08 1.37613 -0.768148 0
M  V30 13957 C 1278.49 1.53202 -0.44737 0
M  V30 13958 C 1278.69 1.72736 1.03752 0
M  V30 13959 O 1277.75 1.74667 1.8234 0
M  V30 13960 C 1279.06 2.7306 -1.25931 0
M  V30 13961 C 1280.61 2.8692 -1.25084 0
M  V30 13962 C 1281.09 4.09757 -2.04605 0
M  V30 13963 N 1282.58 4.16862 -2.0194 0
M  V30 13964 C 1283.31 5.10936 -2.60254 0
M  V30 13965 N 1282.81 6.1059 -3.27341 0
M  V30 13966 N 1284.6 5.03393 -2.50104 0
M  V30 13967 H 1276.75 1.23184 -1.7303 0
M  V30 13968 H 1279.02 0.599541 -0.73434 0
M  V30 13969 H 1278.72 2.65078 -2.31141 0
M  V30 13970 H 1278.6 3.66646 -0.886036 0
M  V30 13971 H 1280.98 2.94375 -0.206736 0
M  V30 13972 H 1281.06 1.94303 -1.66373 0
M  V30 13973 H 1280.71 4.03063 -3.09035 0
M  V30 13974 H 1280.64 5.01481 -1.60701 0
M  V30 13975 H 1283.13 3.455 -1.53096 0
M  V30 13976 H 1283.44 6.78893 -3.6922 0
M  V30 13977 H 1281.79 6.10879 -3.31439 0
M  V30 13978 H 1284.98 4.24483 -1.9731 0
M  V30 13979 H 1285.15 5.76524 -2.95844 0
M  V30 13980 N 1278.56 0.518393 1.4883 0
M  V30 13981 C 1279.5 -0.264197 2.31095 0
M  V30 13982 C 1280.5 -0.946455 1.40494 0
M  V30 13983 O 1281.7 -0.872161 1.57459 0
M  V30 13984 H 1278.08 -0.104065 0.744765 0
M  V30 13985 H 1280.05 0.449375 2.94997 0
M  V30 13986 C 1278.8 -1.30527 3.2227 0
M  V30 13987 H 1278.12 -0.789695 3.91923 0
M  V30 13988 H 1279.56 -1.82449 3.82738 0
M  V30 13989 C 1278.02 -2.33274 2.43073 0
M  V30 13990 O 1278.55 -3.39493 2.14726 0
M  V30 13991 N 1276.76 -2.06189 2.04779 0
M  V30 13992 H 1276.3 -1.19829 2.28033 0
M  V30 13993 H 1276.26 -2.7516 1.521 0
M  V30 13994 N 1280.03 -1.55556 0.252993 0
M  V30 13995 C 1281.26 -2.03196 -0.37348 0
M  V30 13996 C 1281.67 -1.13145 -1.51641 0
M  V30 13997 O 1281.02 -0.139519 -1.83169 0
M  V30 13998 C 1281.08 -3.47066 -0.937308 0
M  V30 13999 C 1280.74 -4.5694 0.0741513 0
M  V30 14000 C 1281.74 -5.12297 0.885862 0
M  V30 14001 C 1279.42 -5.01894 0.202003 0
M  V30 14002 C 1281.42 -6.11107 1.81182 0
M  V30 14003 C 1279.1 -6.00534 1.13146 0
M  V30 14004 C 1280.1 -6.5502 1.93489 0
M  V30 14005 O 1279.79 -7.51735 2.84868 0
M  V30 14006 H 1279.52 -0.669687 -0.092171 0
M  V30 14007 H 1282.08 -2.01924 0.376264 0
M  V30 14008 H 1280.31 -3.45507 -1.73672 0
M  V30 14009 H 1282 -3.78171 -1.47451 0
M  V30 14010 H 1282.76 -4.78395 0.797707 0
M  V30 14011 H 1278.64 -4.59144 -0.413301 0
M  V30 14012 H 1282.18 -6.53561 2.43935 0
M  V30 14013 H 1278.08 -6.33856 1.22052 0
M  V30 14014 H 1278.85 -7.69373 2.79298 0
M  V30 14015 N 1281.51 0.0200419 -1.57587 0
M  V30 14016 C 1282.76 0.709027 -1.89681 0
M  V30 14017 C 1283.09 1.74876 -0.851396 0
M  V30 14018 O 1282.34 1.95151 0.146483 0
M  V30 14019 C 1282.64 1.40729 -3.28527 0
M  V30 14020 C 1282.31 0.502686 -4.48089 0
M  V30 14021 C 1280.97 0.253558 -4.80532 0
M  V30 14022 C 1283.32 -0.121338 -5.21059 0
M  V30 14023 C 1280.65 -0.628221 -5.83327 0
M  V30 14024 C 1283 -0.990873 -6.24792 0
M  V30 14025 C 1281.67 -1.24937 -6.55703 0
M  V30 14026 H 1280.94 0.259451 -0.694094 0
M  V30 14027 H 1283.58 -0.03118 -1.91475 0
M  V30 14028 H 1281.89 2.22105 -3.22764 0
M  V30 14029 H 1283.58 1.94609 -3.50611 0
M  V30 14030 H 1280.17 0.707018 -4.22728 0
M  V30 14031 H 1284.36 0.0581516 -4.96266 0
M  V30 14032 H 1279.61 -0.836712 -6.05648 0
M  V30 14033 H 1283.79 -1.48087 -6.80473 0
M  V30 14034 H 1281.42 -1.93436 -7.35178 0
M  V30 14035 N 1282.99 1.54862 0.292472 0
M  V30 14036 C 1283.94 1.87168 1.38097 0
M  V30 14037 C 1284.93 0.746176 1.52081 0
M  V30 14038 O 1286.14 0.930281 1.54097 0
M  V30 14039 H 1282.51 0.593769 0.461456 0
M  V30 14040 H 1284.48 2.78135 1.0809 0
M  V30 14041 C 1283.23 2.14315 2.73796 0
M  V30 14042 H 1282.56 3.00398 2.63821 0
M  V30 14043 H 1284 2.40853 3.48949 0
M  V30 14044 C 1282.46 0.944424 3.23392 0
M  V30 14045 O 1282.99 0.169208 4.01343 0
M  V30 14046 N 1281.19 0.747456 2.80823 0
M  V30 14047 H 1280.74 1.37953 2.17547 0
M  V30 14048 H 1280.7 -0.0530199 3.14355 0
M  V30 14049 N 1284.47 -0.556076 1.47464 0
M  V30 14050 C 1285.4 -1.67872 1.54578 0
M  V30 14051 C 1286.38 -1.57658 0.397853 0
M  V30 14052 O 1287.56 -1.785 0.605811 0
M  V30 14053 C 1284.69 -3.06122 1.44937 0
M  V30 14054 C 1283.74 -3.34778 2.64246 0
M  V30 14055 S 1284.57 -3.23909 4.26431 0
M  V30 14056 C 1285.73 -4.64651 4.19345 0
M  V30 14057 H 1285.96 -1.61583 2.49556 0
M  V30 14058 H 1283.49 -0.736985 1.35676 0
M  V30 14059 H 1285.45 -3.85866 1.40062 0
M  V30 14060 H 1284.11 -3.09876 0.513412 0
M  V30 14061 H 1283.3 -4.35569 2.53567 0
M  V30 14062 H 1282.91 -2.62655 2.66248 0
M  V30 14063 H 1285.2 -5.55625 3.87669 0
M  V30 14064 H 1286.14 -4.80386 5.20225 0
M  V30 14065 H 1286.55 -4.42751 3.50189 0
M  V30 14066 N 1285.95 -1.35615 -0.802897 0
M  V30 14067 C 1286.88 -1.31506 -1.92947 0
M  V30 14068 C 1287.86 -0.188843 -1.69048 0
M  V30 14069 O 1289.04 -0.384384 -1.90358 0
M  V30 14070 C 1286.17 -1.09001 -3.29752 0
M  V30 14071 C 1285.13 -2.18303 -3.68141 0
M  V30 14072 C 1284.45 -1.80959 -5.03148 0
M  V30 14073 C 1285.75 -3.60296 -3.78132 0
M  V30 14074 H 1287.45 -2.25771 -1.96642 0
M  V30 14075 H 1284.99 -1.08682 -0.944685 0
M  V30 14076 H 1286.95 -1.04766 -4.08169 0
M  V30 14077 H 1285.67 -0.111832 -3.26408 0
M  V30 14078 H 1284.33 -2.21642 -2.92011 0
M  V30 14079 H 1283.98 -0.817495 -4.96312 0
M  V30 14080 H 1283.68 -2.54129 -5.29804 0
M  V30 14081 H 1285.2 -1.78255 -5.84001 0
M  V30 14082 H 1286.62 -3.59259 -4.46773 0
M  V30 14083 H 1285.01 -4.32258 -4.16261 0
M  V30 14084 H 1286.08 -3.9618 -2.79588 0
M  V30 14085 N 1287.43 1.02549 -1.19673 0
M  V30 14086 C 1288.7 1.73106 -0.9107 0
M  V30 14087 C 1289.08 2.02897 0.582769 0
M  V30 14088 O 1288.43 1.68633 1.54192 0
M  V30 14089 C 1288.64 3.00535 -1.77425 0
M  V30 14090 C 1289.99 3.73976 -2.01065 0
M  V30 14091 O 1291.01 3.1047 -1.74605 0
M  V30 14092 O 1289.87 4.88153 -2.457 0
M  V30 14093 H 1286.97 0.754006 -0.339711 0
M  V30 14094 H 1289.51 1.08477 -1.30502 0
M  V30 14095 H 1288.28 2.74773 -2.78595 0
M  V30 14096 H 1287.91 3.72904 -1.37943 0
M  V30 14097 N 1288.9 1.00119 1.21713 0
M  V30 14098 C 1289.83 0.578504 2.2622 0
M  V30 14099 C 1290.81 -0.398777 1.6536 0
M  V30 14100 O 1292 -0.287596 1.92059 0
M  V30 14101 C 1289.13 -0.0994508 3.47158 0
M  V30 14102 C 1288.08 0.79722 4.2051 0
M  V30 14103 C 1287.41 -0.0141125 5.34698 0
M  V30 14104 C 1288.71 2.09802 4.7831 0
M  V30 14105 H 1290.4 1.45208 2.6183 0
M  V30 14106 H 1287.95 0.699656 1.2586 0
M  V30 14107 H 1289.9 -0.406605 4.19434 0
M  V30 14108 H 1288.63 -1.00763 3.10667 0
M  V30 14109 H 1287.29 1.08814 3.50079 0
M  V30 14110 H 1286.93 -0.923468 4.9445 0
M  V30 14111 H 1286.63 0.582883 5.84702 0
M  V30 14112 H 1288.16 -0.31517 6.09786 0
M  V30 14113 H 1289.57 1.85427 5.42485 0
M  V30 14114 H 1287.97 2.64455 5.38687 0
M  V30 14115 H 1289.04 2.77132 3.97902 0
M  V30 14116 N 1290.38 -1.37203 0.775435 0
M  V30 14117 C 1291.31 -2.32819 0.17826 0
M  V30 14118 C 1292.29 -1.55963 -0.678944 0
M  V30 14119 O 1293.48 -1.84183 -0.615648 0
M  V30 14120 C 1290.61 -3.40198 -0.698768 0
M  V30 14121 C 1289.56 -4.27961 0.057423 0
M  V30 14122 C 1288.89 -5.26385 -0.93929 0
M  V30 14123 C 1290.19 -5.07402 1.23856 0
M  V30 14124 H 1291.88 -2.8301 0.977028 0
M  V30 14125 H 1289.43 -1.3607 0.471274 0
M  V30 14126 H 1291.38 -4.06067 -1.12637 0
M  V30 14127 H 1290.1 -2.88541 -1.53009 0
M  V30 14128 H 1288.76 -3.63628 0.465848 0
M  V30 14129 H 1288.41 -4.71007 -1.76527 0
M  V30 14130 H 1288.11 -5.85966 -0.437844 0
M  V30 14131 H 1289.64 -5.9513 -1.36576 0
M  V30 14132 H 1291.05 -5.6639 0.887423 0
M  V30 14133 H 1289.45 -5.76327 1.67234 0
M  V30 14134 H 1290.52 -4.3986 2.04085 0
M  V30 14135 N 1291.86 -0.526279 -1.48553 0
M  V30 14136 C 1293.11 0.00918008 -2.02798 0
M  V30 14137 C 1293.44 1.34284 -1.4029 0
M  V30 14138 O 1292.71 1.86639 -0.547355 0
M  V30 14139 C 1293 0.135102 -3.59846 0
M  V30 14140 C 1292.85 -1.22347 -4.32841 0
M  V30 14141 C 1294.17 0.863673 -4.31542 0
M  V30 14142 H 1291.29 0.00186216 -0.736998 0
M  V30 14143 H 1293.93 -0.682591 -1.77315 0
M  V30 14144 H 1292.08 0.724279 -3.81689 0
M  V30 14145 H 1293.75 -1.85347 -4.22427 0
M  V30 14146 H 1291.99 -1.80631 -3.94405 0
M  V30 14147 H 1292.67 -1.08839 -5.41164 0
M  V30 14148 H 1295.14 0.363734 -4.14507 0
M  V30 14149 H 1294.02 0.92067 -5.41124 0
M  V30 14150 H 1294.28 1.91313 -3.98562 0
M  V30 14151 N 1293.34 1.5542 -0.261239 0
M  V30 14152 C 1294.58 1.99579 0.36002 0
M  V30 14153 C 1294.92 1.14933 1.56538 0
M  V30 14154 O 1294.19 0.216082 1.93296 0
M  V30 14155 C 1294.47 3.52078 0.755842 0
M  V30 14156 C 1294.33 4.47484 -0.455896 0
M  V30 14157 C 1295.65 4.10083 1.5975 0
M  V30 14158 H 1292.77 0.725554 0.129385 0
M  V30 14159 H 1295.41 1.86453 -0.365415 0
M  V30 14160 H 1293.56 3.63394 1.37393 0
M  V30 14161 H 1295.23 4.4813 -1.09441 0
M  V30 14162 H 1293.47 4.19714 -1.09646 0
M  V30 14163 H 1294.14 5.51834 -0.13539 0
M  V30 14164 H 1296.62 4.01957 1.07562 0
M  V30 14165 H 1295.5 5.17024 1.84329 0
M  V30 14166 H 1295.76 3.59438 2.57404 0
M  V30 14167 N 1294.82 -0.0116844 1.57596 0
M  V30 14168 C 1295.78 -0.991601 2.0664 0
M  V30 14169 C 1296.78 -1.27973 0.973629 0
M  V30 14170 O 1297.97 -1.22686 1.23668 0
M  V30 14171 C 1295.1 -2.31975 2.49801 0
M  V30 14172 H 1296.29 -0.567607 2.9448 0
M  V30 14173 H 1293.85 -0.258906 1.54141 0
M  V30 14174 H 1294.58 -2.79087 1.65169 0
M  V30 14175 H 1294.37 -2.12386 3.29598 0
M  V30 14176 H 1295.86 -3.02294 2.88112 0
M  V30 14177 N 1296.29 -1.55015 -0.284256 0
M  V30 14178 C 1297.54 -1.7535 -1.01884 0
M  V30 14179 C 1297.87 -0.546825 -1.86342 0
M  V30 14180 O 1297.15 0.455832 -1.89083 0
M  V30 14181 C 1297.43 -3.05219 -1.91084 0
M  V30 14182 C 1297.28 -4.36219 -1.09694 0
M  V30 14183 C 1298.6 -3.31056 -2.89983 0
M  V30 14184 H 1295.72 -0.637981 -0.368984 0
M  V30 14185 H 1298.36 -1.87741 -0.292116 0
M  V30 14186 H 1296.51 -2.94786 -2.53048 0
M  V30 14187 H 1298.19 -4.58594 -0.498876 0
M  V30 14188 H 1296.43 -4.31951 -0.400078 0
M  V30 14189 H 1297.1 -5.23392 -1.75399 0
M  V30 14190 H 1299.58 -3.41209 -2.38151 0
M  V30 14191 H 1298.45 -4.23212 -3.49547 0
M  V30 14192 H 1298.71 -2.50153 -3.64521 0
M  V30 14193 N 1297.77 0.548248 -1.47757 0
M  V30 14194 C 1299 1.335 -1.58722 0
M  V30 14195 C 1299.42 1.86549 -0.241034 0
M  V30 14196 O 1298.78 1.63447 0.784517 0
M  V30 14197 C 1298.83 2.47457 -2.62293 0
M  V30 14198 O 1297.93 3.49956 -2.18185 0
M  V30 14199 H 1297.27 0.396166 -0.532868 0
M  V30 14200 H 1299.8 0.66164 -1.93607 0
M  V30 14201 H 1299.81 2.93901 -2.82995 0
M  V30 14202 H 1298.49 2.08203 -3.60034 0
M  V30 14203 H 1297.06 3.09755 -2.0762 0
M  V30 14204 N 1299.25 1.36039 0.795694 0
M  V30 14205 C 1300.18 1.32528 1.92246 0
M  V30 14206 C 1301.16 0.197805 1.68946 0
M  V30 14207 O 1302.35 0.394474 1.90151 0
M  V30 14208 C 1299.48 1.10748 3.29169 0
M  V30 14209 C 1298.43 2.20253 3.66978 0
M  V30 14210 C 1297.76 1.83624 5.02181 0
M  V30 14211 C 1299.06 3.62296 3.76216 0
M  V30 14212 H 1300.75 2.2681 1.95442 0
M  V30 14213 H 1298.3 1.09181 0.938908 0
M  V30 14214 H 1300.25 1.06929 4.07608 0
M  V30 14215 H 1298.97 0.129141 3.26345 0
M  V30 14216 H 1297.63 2.23187 2.90832 0
M  V30 14217 H 1297.28 0.843804 4.95872 0
M  V30 14218 H 1296.98 2.56935 5.28449 0
M  V30 14219 H 1298.5 1.81349 5.83048 0
M  V30 14220 H 1299.92 3.61623 4.44861 0
M  V30 14221 H 1298.31 4.34459 4.13963 0
M  V30 14222 H 1299.38 3.97657 2.77483 0
M  V30 14223 N 1300.73 -1.01913 1.20215 0
M  V30 14224 C 1301.98 -1.74878 1.00502 0
M  V30 14225 C 1302.29 -1.90022 -0.463792 0
M  V30 14226 O 1303.5 -2.60055 -0.779982 0
M  V30 14227 C 1301.95 -3.1452 1.74943 0
M  V30 14228 C 1301.56 -3.07397 3.259 0
M  V30 14229 C 1303.3 -3.91713 1.63589 0
M  V30 14230 C 1301.21 -4.42032 3.92889 0
M  V30 14231 H 1300.14 -0.655603 0.372426 0
M  V30 14232 H 1302.79 -1.13978 1.4381 0
M  V30 14233 H 1301.17 -3.75946 1.24421 0
M  V30 14234 H 1302.35 -2.55294 3.83617 0
M  V30 14235 H 1300.66 -2.43698 3.37639 0
M  V30 14236 H 1303.26 -4.91316 2.1098 0
M  V30 14237 H 1303.6 -4.12074 0.591665 0
M  V30 14238 H 1304.14 -3.3691 2.11511 0
M  V30 14239 H 1300.88 -4.26874 4.97453 0
M  V30 14240 H 1300.4 -4.94151 3.39962 0
M  V30 14241 H 1302.07 -5.10884 3.96997 0
M  V30 14242 N 1302.21 -1.00763 -1.2118 0
M  V30 14243 C 1303.43 -0.710515 -1.9485 0
M  V30 14244 C 1303.86 0.720934 -1.73736 0
M  V30 14245 O 1303.21 1.49484 -1.02588 0
M  V30 14246 C 1303.26 -1.04035 -3.45267 0
M  V30 14247 O 1302.37 -0.147047 -4.12138 0
M  V30 14248 H 1301.71 -0.264472 -0.609057 0
M  V30 14249 H 1304.24 -1.34858 -1.53865 0
M  V30 14250 H 1304.25 -0.9883 -3.95849 0
M  V30 14251 H 1302.92 -2.08334 -3.59958 0
M  V30 14252 H 1301.5 -0.255847 -3.72021 0
M  V30 14253 N 1303.68 1.3679 -0.7827 0
M  V30 14254 C 1304.62 2.27871 -0.122531 0
M  V30 14255 C 1305.6 1.46885 0.697399 0
M  V30 14256 O 1306.78 1.76198 0.669819 0
M  V30 14257 C 1303.91 3.28314 0.832311 0
M  V30 14258 C 1302.95 4.26394 0.0950152 0
M  V30 14259 S 1303.79 5.2131 -1.22457 0
M  V30 14260 C 1304.94 6.25302 -0.273558 0
M  V30 14261 H 1305.17 2.83514 -0.894814 0
M  V30 14262 H 1302.71 1.43229 -0.5766 0
M  V30 14263 H 1304.67 3.86688 1.37778 0
M  V30 14264 H 1303.33 2.71597 1.57779 0
M  V30 14265 H 1302.52 4.97297 0.819278 0
M  V30 14266 H 1302.12 3.72067 -0.379778 0
M  V30 14267 H 1304.41 6.75263 0.550064 0
M  V30 14268 H 1305.36 7.01684 -0.951071 0
M  V30 14269 H 1305.76 5.64372 0.120115 0
M  V30 14270 N 1305.16 0.53415 1.48272 0
M  V30 14271 C 1306.41 0.00156948 2.021 0
M  V30 14272 C 1306.73 -1.34371 1.41313 0
M  V30 14273 O 1306 -1.87117 0.579996 0
M  V30 14274 H 1304.58 -0.00240789 0.746996 0
M  V30 14275 H 1307.24 0.698928 1.81937 0
M  V30 14276 H 1306.34 -0.103671 3.11928 0
M  V30 14277 N 1306.64 -1.55279 0.269478 0
M  V30 14278 C 1307.57 -2.25278 -0.614188 0
M  V30 14279 C 1308.55 -1.24092 -1.1634 0
M  V30 14280 O 1309.74 -1.52799 -1.19858 0
M  V30 14281 C 1306.87 -2.96956 -1.80096 0
M  V30 14282 C 1305.82 -4.05021 -1.38353 0
M  V30 14283 C 1305.15 -4.64244 -2.65295 0
M  V30 14284 C 1306.45 -5.19523 -0.537886 0
M  V30 14285 H 1308.14 -2.99385 -0.0304397 0
M  V30 14286 H 1305.69 -1.43994 -0.0132004 0
M  V30 14287 H 1307.64 -3.44633 -2.42499 0
M  V30 14288 H 1306.36 -2.20374 -2.41045 0
M  V30 14289 H 1305.02 -3.58146 -0.78273 0
M  V30 14290 H 1304.67 -3.84337 -3.2449 0
M  V30 14291 H 1304.37 -5.37208 -2.38079 0
M  V30 14292 H 1305.89 -5.14668 -3.28557 0
M  V30 14293 H 1307.31 -5.63287 -1.06677 0
M  V30 14294 H 1305.71 -5.99014 -0.360845 0
M  V30 14295 H 1306.78 -4.82857 0.444672 0
M  V30 14296 N 1308.12 0.00332656 -1.576 0
M  V30 14297 C 1309.03 1.01221 -2.1164 0
M  V30 14298 C 1310.04 1.37918 -1.06088 0
M  V30 14299 O 1311.22 1.46717 -1.37971 0
M  V30 14300 C 1308.29 2.28638 -2.60626 0
M  V30 14301 C 1307.35 1.98284 -3.80765 0
M  V30 14302 C 1306.58 3.19626 -4.27405 0
M  V30 14303 O 1306.8 4.31196 -3.73398 0
M  V30 14304 O 1305.74 3.03819 -5.19594 0
M  V30 14305 H 1309.56 0.582839 -2.98055 0
M  V30 14306 H 1307.15 0.221947 -1.47742 0
M  V30 14307 H 1309.03 3.03498 -2.92347 0
M  V30 14308 H 1307.7 2.70819 -1.7731 0
M  V30 14309 H 1306.61 1.2091 -3.54022 0
M  V30 14310 H 1307.94 1.60942 -4.65144 0
M  V30 14311 N 1309.6 1.55164 0.276031 0
M  V30 14312 C 1310.82 1.7998 1.03063 0
M  V30 14313 C 1311.25 0.569769 1.79263 0
M  V30 14314 O 1310.6 -0.48054 1.74816 0
M  V30 14315 C 1310.65 3.02209 1.96728 0
M  V30 14316 O 1309.76 2.77083 3.05449 0
M  V30 14317 H 1309.1 0.594963 0.294814 0
M  V30 14318 H 1311.63 2.02301 0.305861 0
M  V30 14319 H 1311.64 3.3086 2.38738 0
M  V30 14320 H 1310.31 3.91386 1.40677 0
M  V30 14321 H 1308.89 2.5952 2.67776 0
M  V30 14322 N 1311.07 -0.540404 1.48045 0
M  V30 14323 C 1312.3 -1.32656 1.59427 0
M  V30 14324 C 1312.72 -1.86419 0.250924 0
M  V30 14325 O 1312.08 -1.63861 -0.775838 0
M  V30 14326 C 1312.13 -2.46062 2.63602 0
M  V30 14327 O 1311.23 -3.48794 2.20038 0
M  V30 14328 H 1310.58 -0.393334 0.534962 0
M  V30 14329 H 1313.11 -0.651363 1.93955 0
M  V30 14330 H 1313.12 -2.92396 2.84549 0
M  V30 14331 H 1311.79 -2.06291 3.61133 0
M  V30 14332 H 1310.37 -3.0865 2.0926 0
M  V30 14333 N 1312.55 -1.36459 -0.788468 0
M  V30 14334 C 1313.52 -1.3071 -1.88275 0
M  V30 14335 C 1314.52 -0.214596 -1.59362 0
M  V30 14336 O 1315.71 -0.469437 -1.67756 0
M  V30 14337 C 1312.84 -1.02648 -3.25079 0
M  V30 14338 H 1314.03 -2.28029 -1.94788 0
M  V30 14339 H 1311.58 -1.21245 -0.986375 0
M  V30 14340 H 1312.32 -0.0578992 -3.24248 0
M  V30 14341 H 1312.1 -1.81708 -3.47454 0
M  V30 14342 H 1313.59 -1.01233 -4.05144 0
M  V30 14343 N 1314.03 1.01274 -1.20754 0
M  V30 14344 C 1315.28 1.74342 -1.01428 0
M  V30 14345 C 1315.59 1.90265 0.453708 0
M  V30 14346 O 1316.8 2.60465 0.76618 0
M  V30 14347 C 1315.25 3.13588 -1.76609 0
M  V30 14348 C 1314.86 3.05664 -3.27526 0
M  V30 14349 C 1316.61 3.9084 -1.65664 0
M  V30 14350 C 1314.51 4.39942 -3.95228 0
M  V30 14351 H 1313.44 0.653619 -0.375897 0
M  V30 14352 H 1316.09 1.13214 -1.44412 0
M  V30 14353 H 1314.48 3.75281 -1.26413 0
M  V30 14354 H 1315.65 2.53256 -3.84965 0
M  V30 14355 H 1313.97 2.41904 -3.38927 0
M  V30 14356 H 1316.56 4.9019 -2.13583 0
M  V30 14357 H 1316.91 4.11754 -0.61351 0
M  V30 14358 H 1317.44 3.35783 -2.13294 0
M  V30 14359 H 1314.18 4.24229 -4.9971 0
M  V30 14360 H 1313.7 4.92342 -3.42578 0
M  V30 14361 H 1315.38 5.08771 -3.99701 0
M  V30 14362 N 1315.51 1.01404 1.20644 0
M  V30 14363 C 1316.73 0.720839 1.9447 0
M  V30 14364 C 1317.16 -0.711711 1.74116 0
M  V30 14365 O 1316.52 -1.48938 1.03379 0
M  V30 14366 C 1316.57 1.05864 3.4471 0
M  V30 14367 O 1315.67 0.168901 4.12054 0
M  V30 14368 H 1315.01 0.267698 0.607646 0
M  V30 14369 H 1317.54 1.35672 1.53147 0
M  V30 14370 H 1317.55 1.00928 3.9532 0
M  V30 14371 H 1316.23 2.1024 3.58848 0
M  V30 14372 H 1314.8 0.275572 3.7188 0
M  V30 14373 N 1316.99 -1.36373 0.789944 0
M  V30 14374 C 1318.23 -1.99523 0.363119 0
M  V30 14375 C 1318.57 -1.6255 -1.0626 0
M  V30 14376 O 1317.84 -0.880551 -1.73426 0
M  V30 14377 C 1318.12 -3.56215 0.527526 0
M  V30 14378 C 1317.98 -4.0304 1.99697 0
M  V30 14379 C 1319.3 -4.40063 -0.0571079 0
M  V30 14380 H 1316.42 -0.724824 0.133412 0
M  V30 14381 H 1319.06 -1.61778 0.996381 0
M  V30 14382 H 1317.21 -3.88498 -0.0115636 0
M  V30 14383 H 1318.88 -3.81241 2.59717 0
M  V30 14384 H 1317.12 -3.54561 2.49939 0
M  V30 14385 H 1317.79 -5.12001 2.06297 0
M  V30 14386 H 1320.27 -4.14143 0.403082 0
M  V30 14387 H 1319.15 -5.4883 0.0879494 0
M  V30 14388 H 1319.41 -4.26901 -1.14926 0
M  V30 14389 N 1318.47 -0.542005 -1.47987 0
M  V30 14390 C 1319.71 -0.0123299 -2.02796 0
M  V30 14391 C 1320.04 1.32789 -1.41707 0
M  V30 14392 O 1319.32 1.86048 -0.567119 0
M  V30 14393 C 1319.6 0.0969277 -3.5997 0
M  V30 14394 C 1319.46 -1.26931 -4.31519 0
M  V30 14395 C 1320.77 0.817854 -4.32434 0
M  V30 14396 H 1317.89 -0.00595479 -0.736976 0
M  V30 14397 H 1320.54 -0.70136 -1.76581 0
M  V30 14398 H 1318.69 0.683755 -3.82436 0
M  V30 14399 H 1320.36 -1.89817 -4.20437 0
M  V30 14400 H 1318.6 -1.84804 -3.92467 0
M  V30 14401 H 1319.27 -1.14573 -5.39979 0
M  V30 14402 H 1321.75 0.319749 -4.1487 0
M  V30 14403 H 1320.62 0.863225 -5.4207 0
M  V30 14404 H 1320.88 1.87075 -4.00569 0
M  V30 14405 N 1319.94 1.55134 -0.277709 0
M  V30 14406 C 1320.89 2.2263 0.608637 0
M  V30 14407 C 1321.86 1.20067 1.14774 0
M  V30 14408 O 1323.05 1.48617 1.19657 0
M  V30 14409 C 1320.19 2.95308 1.78571 0
M  V30 14410 C 1319.3 4.12595 1.28021 0
M  V30 14411 C 1318.43 4.7291 2.41929 0
M  V30 14412 C 1317.47 5.82386 1.88395 0
M  V30 14413 N 1316.61 6.36754 2.95786 0
M  V30 14414 H 1321.45 2.97988 0.0264138 0
M  V30 14415 H 1318.99 1.471 0.00127068 0
M  V30 14416 H 1320.94 3.35662 2.47764 0
M  V30 14417 H 1319.57 2.22368 2.33992 0
M  V30 14418 H 1318.63 3.77343 0.481297 0
M  V30 14419 H 1319.94 4.91537 0.848128 0
M  V30 14420 H 1319.09 5.15997 3.1911 0
M  V30 14421 H 1317.83 3.93251 2.88453 0
M  V30 14422 H 1316.84 5.38746 1.09694 0
M  V30 14423 H 1318.06 6.63916 1.42803 0
M  V30 14424 H 1316.01 5.59987 3.41687 0
M  V30 14425 H 1315.92 7.10975 2.57002 0
M  V30 14426 H 1317.19 6.845 3.72935 0
M  V30 14427 N 1321.42 0.00503138 1.57599 0
M  V30 14428 C 1322.67 -0.677979 1.89964 0
M  V30 14429 C 1322.98 -1.74657 0.88059 0
M  V30 14430 O 1324.19 -2.48455 1.09463 0
M  V30 14431 C 1322.65 -1.25708 3.37232 0
M  V30 14432 C 1322.25 -0.223045 4.47444 0
M  V30 14433 C 1324 -1.91799 3.787 0
M  V30 14434 C 1321.9 -0.812416 5.85793 0
M  V30 14435 H 1320.83 -0.256991 0.708852 0
M  V30 14436 H 1323.49 0.0663988 1.8338 0
M  V30 14437 H 1321.87 -2.05228 3.3867 0
M  V30 14438 H 1323.04 0.54794 4.57531 0
M  V30 14439 H 1321.36 0.337714 4.15028 0
M  V30 14440 H 1323.95 -2.36808 4.79402 0
M  V30 14441 H 1324.3 -2.75067 3.1248 0
M  V30 14442 H 1324.83 -1.19004 3.79583 0
M  V30 14443 H 1321.57 -0.0184031 6.55497 0
M  V30 14444 H 1321.09 -1.55244 5.79361 0
M  V30 14445 H 1322.77 -1.30952 6.33609 0
M  V30 14446 N 1322.9 -1.55308 -0.267798 0
M  V30 14447 C 1323.83 -1.91555 -1.33525 0
M  V30 14448 C 1324.81 -0.778001 -1.51265 0
M  V30 14449 O 1326 -1.03657 -1.64222 0
M  V30 14450 C 1323.13 -2.19201 -2.69385 0
M  V30 14451 C 1322.08 -3.3501 -2.66369 0
M  V30 14452 C 1321.41 -3.48148 -4.05829 0
M  V30 14453 C 1322.71 -4.71265 -2.25182 0
M  V30 14454 H 1324.4 -2.80965 -1.03437 0
M  V30 14455 H 1321.95 -1.35183 -0.496141 0
M  V30 14456 H 1323.9 -2.43146 -3.44177 0
M  V30 14457 H 1322.62 -1.26596 -3.01067 0
M  V30 14458 H 1321.28 -3.11041 -1.94034 0
M  V30 14459 H 1320.93 -2.53 -4.34741 0
M  V30 14460 H 1320.63 -4.26014 -4.04704 0
M  V30 14461 H 1322.15 -3.74391 -4.82352 0
M  V30 14462 H 1323.57 -4.94719 -2.89699 0
M  V30 14463 H 1321.96 -5.52084 -2.3521 0
M  V30 14464 H 1323.03 -4.69735 -1.20319 0
M  V30 14465 N 1324.38 0.532545 -1.4833 0
M  V30 14466 C 1325.79 0.860843 -1.34394 0
M  V30 14467 C 1325.99 1.98384 -0.353013 0
M  V30 14468 O 1325.05 2.5148 0.226688 0
M  V30 14469 C 1326.36 1.23079 -2.74358 0
M  V30 14470 C 1327.91 1.34082 -2.82827 0
M  V30 14471 C 1328.39 1.74421 -4.23487 0
M  V30 14472 N 1329.88 1.81528 -4.26148 0
M  V30 14473 C 1330.61 2.1412 -5.31921 0
M  V30 14474 N 1330.11 2.45154 -6.47975 0
M  V30 14475 N 1331.9 2.15104 -5.19314 0
M  V30 14476 H 1324.05 -0.208464 -2.11375 0
M  V30 14477 H 1326.31 -0.03062 -0.947505 0
M  V30 14478 H 1326.02 0.47926 -3.48419 0
M  V30 14479 H 1325.89 2.18151 -3.07718 0
M  V30 14480 H 1328.28 2.08311 -2.09022 0
M  V30 14481 H 1328.36 0.37137 -2.5309 0
M  V30 14482 H 1328.01 1.00752 -4.97807 0
M  V30 14483 H 1327.94 2.72411 -4.50666 0
M  V30 14484 H 1330.43 1.59832 -3.42436 0
M  V30 14485 H 1330.74 2.69121 -7.24426 0
M  V30 14486 H 1329.09 2.42679 -6.51254 0
M  V30 14487 H 1332.28 1.90315 -4.27666 0
M  V30 14488 H 1332.45 2.40173 -6.01848 0
M  V30 14489 N 1325.86 1.36875 0.78122 0
M  V30 14490 C 1327.1 1.31754 1.54171 0
M  V30 14491 C 1327.43 -0.100632 1.93939 0
M  V30 14492 O 1326.71 -1.05587 1.63345 0
M  V30 14493 C 1326.99 2.24789 2.81322 0
M  V30 14494 C 1326.85 3.75342 2.47868 0
M  V30 14495 C 1328.16 2.16442 3.83198 0
M  V30 14496 H 1325.28 0.479931 0.559317 0
M  V30 14497 H 1327.93 1.67497 0.896935 0
M  V30 14498 H 1326.08 1.94438 3.36342 0
M  V30 14499 H 1327.75 4.16247 1.98836 0
M  V30 14500 H 1325.99 3.94375 1.80696 0
M  V30 14501 H 1326.66 4.3586 3.38719 0
M  V30 14502 H 1329.14 2.43175 3.37647 0
M  V30 14503 H 1328.01 2.83695 4.69903 0
M  V30 14504 H 1328.27 1.15431 4.26765 0
M  V30 14505 N 1327.33 -1.00632 1.21289 0
M  V30 14506 C 1328.26 -2.11238 0.995021 0
M  V30 14507 C 1329.24 -1.69914 -0.0795537 0
M  V30 14508 O 1330.43 -1.94035 0.0800152 0
M  V30 14509 C 1327.56 -3.42797 0.557475 0
M  V30 14510 C 1326.51 -3.97909 1.57646 0
M  V30 14511 C 1325.84 -5.25357 0.995197 0
M  V30 14512 C 1327.14 -4.30123 2.96297 0
M  V30 14513 H 1328.83 -2.29722 1.9201 0
M  V30 14514 H 1326.38 -1.10395 0.924602 0
M  V30 14515 H 1328.33 -4.19571 0.392236 0
M  V30 14516 H 1327.06 -3.24101 -0.403253 0
M  V30 14517 H 1325.72 -3.23254 1.72924 0
M  V30 14518 H 1325.36 -5.02993 0.026227 0
M  V30 14519 H 1325.06 -5.63196 1.67583 0
M  V30 14520 H 1326.59 -6.04777 0.841251 0
M  V30 14521 H 1328 -4.97744 2.8447 0
M  V30 14522 H 1326.4 -4.79101 3.61361 0
M  V30 14523 H 1327.47 -3.38454 3.47242 0
M  V30 14524 N 1328.81 -1.02043 -1.20104 0
M  V30 14525 C 1330.23 -0.735967 -1.41618 0
M  V30 14526 C 1330.43 0.68285 -1.89577 0
M  V30 14527 O 1329.48 1.45007 -2.06711 0
M  V30 14528 C 1330.8 -1.76492 -2.43457 0
M  V30 14529 C 1332.34 -1.78349 -2.57217 0
M  V30 14530 C 1332.82 -2.80181 -3.62302 0
M  V30 14531 N 1334.31 -2.78945 -3.69789 0
M  V30 14532 C 1335.05 -3.54395 -4.50768 0
M  V30 14533 N 1334.54 -4.39533 -5.35521 0
M  V30 14534 N 1336.33 -3.42974 -4.45337 0
M  V30 14535 H 1328.49 -1.93634 -0.872916 0
M  V30 14536 H 1330.75 -0.836663 -0.445757 0
M  V30 14537 H 1330.45 -2.78158 -2.15223 0
M  V30 14538 H 1330.33 -1.58022 -3.42504 0
M  V30 14539 H 1332.72 -0.773665 -2.84778 0
M  V30 14540 H 1332.8 -2.00894 -1.58352 0
M  V30 14541 H 1332.44 -3.81331 -3.35484 0
M  V30 14542 H 1332.37 -2.54898 -4.60798 0
M  V30 14543 H 1334.86 -2.17189 -3.09253 0
M  V30 14544 H 1335.17 -4.93863 -5.94407 0
M  V30 14545 H 1333.52 -4.43609 -5.3501 0
M  V30 14546 H 1336.71 -2.75881 -3.78163 0
M  V30 14547 H 1336.88 -4.02028 -5.0821 0
M  V30 14548 N 1330.29 1.35952 -0.797165 0
M  V30 14549 C 1331.54 1.99327 -0.373695 0
M  V30 14550 C 1331.87 1.63111 1.05396 0
M  V30 14551 O 1331.14 0.889736 1.72956 0
M  V30 14552 C 1331.43 3.5593 -0.54641 0
M  V30 14553 C 1331.28 4.01975 -2.01832 0
M  V30 14554 C 1332.6 4.40087 0.0337694 0
M  V30 14555 H 1329.72 0.724107 -0.137254 0
M  V30 14556 H 1332.36 1.61248 -1.00495 0
M  V30 14557 H 1330.51 3.88499 -0.00903959 0
M  V30 14558 H 1332.18 3.79859 -2.61735 0
M  V30 14559 H 1330.43 3.5323 -2.51815 0
M  V30 14560 H 1331.1 5.109 -2.09009 0
M  V30 14561 H 1333.57 4.13923 -0.425039 0
M  V30 14562 H 1332.45 5.48775 -0.117054 0
M  V30 14563 H 1332.71 4.27504 1.12661 0
M  V30 14564 N 1331.77 0.549846 1.47697 0
M  V30 14565 C 1332.7 -0.190364 2.32723 0
M  V30 14566 C 1333.68 -0.915933 1.43334 0
M  V30 14567 O 1334.86 -0.897838 1.72199 0
M  V30 14568 C 1331.99 -1.22545 3.24961 0
M  V30 14569 C 1330.95 -0.616805 4.23532 0
M  V30 14570 C 1330.27 -1.75599 5.05044 0
M  V30 14571 C 1331.57 0.424595 5.20571 0
M  V30 14572 H 1333.27 0.519461 2.94859 0
M  V30 14573 H 1330.81 0.251259 1.41791 0
M  V30 14574 H 1332.77 -1.75139 3.83281 0
M  V30 14575 H 1331.49 -1.96512 2.60865 0
M  V30 14576 H 1330.15 -0.112224 3.66428 0
M  V30 14577 H 1329.8 -2.48453 4.37356 0
M  V30 14578 H 1329.5 -1.35456 5.71774 0
M  V30 14579 H 1331.02 -2.28533 5.6622 0
M  V30 14580 H 1332.44 -0.0150025 5.73298 0
M  V30 14581 H 1330.83 0.7445 5.95464 0
M  V30 14582 H 1331.9 1.32318 4.66497 0
M  V30 14583 N 1333.25 -1.54984 0.285932 0
M  V30 14584 C 1334.66 -1.59455 -0.0679061 0
M  V30 14585 C 1334.86 -1.30308 -1.53695 0
M  V30 14586 O 1333.92 -1.06918 -2.28746 0
M  V30 14587 C 1335.23 -2.9903 0.316469 0
M  V30 14588 C 1336.78 -3.11885 0.263982 0
M  V30 14589 C 1337.25 -4.53744 0.622956 0
M  V30 14590 N 1338.75 -4.59618 0.574917 0
M  V30 14591 C 1339.48 -5.67429 0.825339 0
M  V30 14592 N 1338.98 -6.83341 1.14094 0
M  V30 14593 N 1340.77 -5.57028 0.75341 0
M  V30 14594 H 1332.92 -1.72194 1.2435 0
M  V30 14595 H 1335.18 -0.80348 0.503114 0
M  V30 14596 H 1334.89 -3.25232 1.33855 0
M  V30 14597 H 1334.76 -3.75688 -0.337371 0
M  V30 14598 H 1337.15 -2.85441 -0.748832 0
M  V30 14599 H 1337.23 -2.37416 0.952233 0
M  V30 14600 H 1336.88 -4.80915 1.63351 0
M  V30 14601 H 1336.81 -5.26528 -0.0872039 0
M  V30 14602 H 1339.3 -3.76356 0.341305 0
M  V30 14603 H 1339.61 -7.61471 1.3184 0
M  V30 14604 H 1337.95 -6.8493 1.17883 0
M  V30 14605 H 1341.15 -4.6535 0.506611 0
M  V30 14606 H 1341.32 -6.4097 0.95195 0
M  V30 14607 N 1334.72 -0.0133892 -1.57594 0
M  V30 14608 C 1336.14 0.527615 -1.7909 0
M  V30 14609 C 1336.49 1.73179 -0.922142 0
M  V30 14610 O 1335.61 2.1602 -0.128233 0
M  V30 14611 C 1336.21 0.963949 -3.24798 0
M  V30 14612 C 1334.77 1.45017 -3.47343 0
M  V30 14613 C 1333.91 0.407548 -2.74289 0
M  V30 14614 H 1336.86 -0.239505 -1.56882 0
M  V30 14615 H 1336.88 1.82924 -3.33645 0
M  V30 14616 H 1336.4 0.0873315 -3.88002 0
M  V30 14617 H 1334.5 2.34724 -2.89371 0
M  V30 14618 H 1334.61 1.4684 -4.56043 0
M  V30 14619 H 1332.97 0.872174 -2.39301 0
M  V30 14620 H 1333.76 -0.460333 -3.402 0
M  V30 14621 N 1336.2 1.55448 0.259558 0
M  V30 14622 C 1337.13 1.9226 1.32508 0
M  V30 14623 C 1338.11 0.786012 1.5085 0
M  V30 14624 O 1339.3 1.04526 1.6367 0
M  V30 14625 C 1336.43 2.20627 2.68218 0
M  V30 14626 C 1335.38 3.36418 2.64589 0
M  V30 14627 C 1334.71 3.50295 4.03977 0
M  V30 14628 C 1336.01 4.72452 2.2268 0
M  V30 14629 H 1337.7 2.81509 1.01945 0
M  V30 14630 H 1335.25 1.35444 0.488965 0
M  V30 14631 H 1337.2 2.44968 3.42883 0
M  V30 14632 H 1335.93 1.28191 3.00391 0
M  V30 14633 H 1334.58 3.12065 1.92382 0
M  V30 14634 H 1334.23 2.55302 4.33394 0
M  V30 14635 H 1333.93 4.28155 4.02439 0
M  V30 14636 H 1335.46 3.76944 4.8036 0
M  V30 14637 H 1336.87 4.96249 2.87071 0
M  V30 14638 H 1335.27 5.53323 2.32279 0
M  V30 14639 H 1336.34 4.70367 1.17826 0
M  V30 14640 N 1337.68 -0.524672 1.4861 0
M  V30 14641 C 1339.1 -0.853703 1.34848 0
M  V30 14642 C 1339.3 -1.98194 0.363529 0
M  V30 14643 O 1338.35 -2.51597 -0.213348 0
M  V30 14644 C 1339.67 -1.21622 2.75006 0
M  V30 14645 C 1341.21 -1.3258 2.83534 0
M  V30 14646 C 1341.69 -1.72172 4.24406 0
M  V30 14647 N 1343.18 -1.79265 4.27105 0
M  V30 14648 C 1343.91 -2.11296 5.33049 0
M  V30 14649 N 1343.41 -2.41714 6.49266 0
M  V30 14650 N 1345.2 -2.12347 5.20447 0
M  V30 14651 H 1337.35 0.219671 2.11261 0
M  V30 14652 H 1339.62 0.0356444 0.94733 0
M  V30 14653 H 1339.32 -0.460776 3.48669 0
M  V30 14654 H 1339.2 -2.16516 3.0887 0
M  V30 14655 H 1341.58 -2.072 2.10124 0
M  V30 14656 H 1341.67 -0.357943 2.53283 0
M  V30 14657 H 1341.31 -0.981108 4.98334 0
M  V30 14658 H 1341.24 -2.70017 4.52104 0
M  V30 14659 H 1343.73 -1.58013 3.43279 0
M  V30 14660 H 1344.04 -2.65276 7.25843 0
M  V30 14661 H 1342.39 -2.39222 6.52532 0
M  V30 14662 H 1345.58 -1.88044 4.28669 0
M  V30 14663 H 1345.75 -2.36978 6.03113 0
M  V30 14664 N 1339.16 -1.37287 -0.77395 0
M  V30 14665 C 1340.12 -1.32699 -1.86878 0
M  V30 14666 C 1341.12 -0.231486 -1.59125 0
M  V30 14667 O 1342.31 -0.487203 -1.67248 0
M  V30 14668 C 1339.44 -1.0609 -3.23972 0
M  V30 14669 H 1340.64 -2.30083 -1.92359 0
M  V30 14670 H 1338.19 -1.22284 -0.973459 0
M  V30 14671 H 1338.92 -0.0922868 -3.24169 0
M  V30 14672 H 1338.71 -1.85383 -3.45508 0
M  V30 14673 H 1340.2 -1.05524 -4.04048 0
M  V30 14674 N 1340.64 0.999871 -1.21821 0
M  V30 14675 C 1341.89 1.73257 -1.03271 0
M  V30 14676 C 1342.2 1.90736 0.433502 0
M  V30 14677 O 1343.4 2.61263 0.738511 0
M  V30 14678 C 1341.86 3.11697 -1.79925 0
M  V30 14679 C 1341.47 3.02173 -3.3075 0
M  V30 14680 C 1343.21 3.89061 -1.698 0
M  V30 14681 C 1341.12 4.35725 -3.99872 0
M  V30 14682 H 1340.05 0.649595 -0.382809 0
M  V30 14683 H 1342.7 1.11676 -1.45605 0
M  V30 14684 H 1341.08 3.73919 -1.30386 0
M  V30 14685 H 1342.26 2.49158 -3.8763 0
M  V30 14686 H 1340.57 2.38296 -3.41473 0
M  V30 14687 H 1343.17 4.87897 -2.1877 0
M  V30 14688 H 1343.51 4.11081 -0.657148 0
M  V30 14689 H 1344.04 3.33502 -2.16844 0
M  V30 14690 H 1340.78 4.18906 -5.04181 0
M  V30 14691 H 1340.3 4.8868 -3.47781 0
M  V30 14692 H 1341.98 5.04503 -4.05075 0
M  V30 14693 N 1342.11 1.02678 1.19562 0
M  V30 14694 C 1343.06 0.599259 2.24748 0
M  V30 14695 C 1344.06 -0.367079 1.65375 0
M  V30 14696 O 1345.26 -0.235887 1.78448 0
M  V30 14697 H 1341.64 0.175517 0.73123 0
M  V30 14698 H 1343.61 1.4971 2.58127 0
M  V30 14699 C 1342.36 -0.0362515 3.47681 0
M  V30 14700 H 1341.68 0.698343 3.93654 0
M  V30 14701 H 1343.12 -0.298361 4.22949 0
M  V30 14702 C 1341.58 -1.28218 3.11547 0
M  V30 14703 O 1342.11 -2.37446 3.24009 0
M  V30 14704 N 1340.32 -1.17014 2.66 0
M  V30 14705 H 1339.86 -0.28132 2.56059 0
M  V30 14706 H 1339.82 -2.00473 2.42194 0
M  V30 14707 N 1343.59 -1.35528 0.804364 0
M  V30 14708 C 1345.01 -1.51962 0.487831 0
M  V30 14709 C 1345.21 -1.75426 -0.991353 0
M  V30 14710 O 1344.26 -1.7944 -1.77644 0
M  V30 14711 C 1345.58 -2.69626 1.33126 0
M  V30 14712 C 1347.13 -2.83502 1.32648 0
M  V30 14713 C 1347.6 -4.04188 2.15397 0
M  V30 14714 N 1349.09 -4.11362 2.12922 0
M  V30 14715 C 1349.83 -5.03856 2.73709 0
M  V30 14716 N 1349.32 -6.01696 3.43415 0
M  V30 14717 N 1351.12 -4.96585 2.63363 0
M  V30 14718 H 1343.27 -1.18553 1.76235 0
M  V30 14719 H 1345.53 -0.57986 0.749977 0
M  V30 14720 H 1345.24 -2.58857 2.38088 0
M  V30 14721 H 1345.11 -3.64168 0.982934 0
M  V30 14722 H 1347.5 -2.93723 0.284712 0
M  V30 14723 H 1347.58 -1.89824 1.71466 0
M  V30 14724 H 1347.22 -3.94728 3.19613 0
M  V30 14725 H 1347.15 -4.97044 1.7394 0
M  V30 14726 H 1349.64 -3.41319 1.62203 0
M  V30 14727 H 1349.96 -6.68866 3.8709 0
M  V30 14728 H 1348.3 -6.01877 3.47519 0
M  V30 14729 H 1351.49 -4.19103 2.08496 0
M  V30 14730 H 1351.66 -5.68478 3.11026 0
M  V30 14731 N 1345.07 -0.557671 -1.47404 0
M  V30 14732 C 1346.03 0.179311 -2.28498 0
M  V30 14733 C 1347.03 0.842281 -1.36975 0
M  V30 14734 O 1348.22 0.698072 -1.59601 0
M  V30 14735 C 1345.36 1.26229 -3.16668 0
M  V30 14736 H 1346.55 -0.533033 -2.95125 0
M  V30 14737 H 1344.1 -0.314634 -1.531 0
M  V30 14738 H 1344.84 2.00702 -2.54733 0
M  V30 14739 H 1344.62 0.791712 -3.84024 0
M  V30 14740 H 1346.11 1.77991 -3.77768 0
M  V30 14741 N 1346.55 1.54831 -0.294147 0
M  V30 14742 C 1347.5 2.23263 0.58499 0
M  V30 14743 C 1348.47 1.21278 1.13494 0
M  V30 14744 O 1349.65 1.49878 1.18073 0
M  V30 14745 C 1346.79 2.97185 1.75429 0
M  V30 14746 C 1345.9 4.1393 1.23638 0
M  V30 14747 C 1345.04 4.7545 2.36899 0
M  V30 14748 C 1344.08 5.84352 1.82207 0
M  V30 14749 N 1343.22 6.39855 2.89015 0
M  V30 14750 H 1348.06 2.98 -0.00519329 0
M  V30 14751 H 1345.59 1.47093 -0.0143313 0
M  V30 14752 H 1347.55 3.38271 2.4419 0
M  V30 14753 H 1346.18 2.24837 2.3162 0
M  V30 14754 H 1345.23 3.77832 0.441247 0
M  V30 14755 H 1346.54 4.92409 0.795946 0
M  V30 14756 H 1345.7 5.19353 3.1362 0
M  V30 14757 H 1344.44 3.96288 2.84266 0
M  V30 14758 H 1343.44 5.39879 1.03974 0
M  V30 14759 H 1344.67 6.65393 1.35753 0
M  V30 14760 H 1342.61 5.6358 3.35729 0
M  V30 14761 H 1342.53 7.13661 2.49447 0
M  V30 14762 H 1343.8 6.88417 3.65654 0
M  V30 14763 N 1348.03 0.0217466 1.57585 0
M  V30 14764 C 1349.28 -0.657187 1.91116 0
M  V30 14765 C 1349.6 -1.7309 0.898039 0
M  V30 14766 O 1348.87 -1.95803 -0.0615116 0
M  V30 14767 H 1347.45 -0.245732 0.705425 0
M  V30 14768 H 1350.11 0.0678096 1.94782 0
M  V30 14769 H 1349.2 -1.11462 2.91518 0
M  V30 14770 N 1349.51 -1.55583 -0.251311 0
M  V30 14771 C 1350.44 -1.9296 -1.31486 0
M  V30 14772 C 1351.42 -0.794001 -1.50431 0
M  V30 14773 O 1352.6 -1.05393 -1.63113 0
M  V30 14774 C 1349.73 -2.22046 -2.67045 0
M  V30 14775 C 1348.69 -3.37816 -2.62801 0
M  V30 14776 C 1348.01 -3.52433 -4.02113 0
M  V30 14777 C 1349.31 -4.73626 -2.20171 0
M  V30 14778 H 1351.01 -2.82046 -1.00451 0
M  V30 14779 H 1348.55 -1.35702 -0.481775 0
M  V30 14780 H 1350.5 -2.46783 -3.41579 0
M  V30 14781 H 1349.23 -1.29782 -2.99707 0
M  V30 14782 H 1347.89 -3.13081 -1.90724 0
M  V30 14783 H 1347.54 -2.57597 -4.32034 0
M  V30 14784 H 1347.24 -4.30283 -4.00163 0
M  V30 14785 H 1348.76 -3.79486 -4.78354 0
M  V30 14786 H 1350.17 -4.97764 -2.84436 0
M  V30 14787 H 1348.57 -5.54547 -2.29341 0
M  V30 14788 H 1349.64 -4.70985 -1.1533 0
M  V30 14789 N 1350.98 0.516783 -1.48886 0
M  V30 14790 C 1351.93 1.62003 -1.64389 0
M  V30 14791 C 1352.9 1.58842 -0.485633 0
M  V30 14792 O 1354.09 1.77068 -0.710742 0
M  V30 14793 C 1351.23 3.00218 -1.70186 0
M  V30 14794 C 1350.34 3.13513 -2.97209 0
M  V30 14795 C 1349.47 4.42366 -2.94084 0
M  V30 14796 C 1348.51 4.49238 -4.15754 0
M  V30 14797 N 1347.65 5.69497 -4.10631 0
M  V30 14798 H 1352.49 1.48093 -2.58597 0
M  V30 14799 H 1350.03 0.720788 -1.2823 0
M  V30 14800 H 1351.98 3.80307 -1.71529 0
M  V30 14801 H 1350.61 3.12868 -0.794578 0
M  V30 14802 H 1349.67 2.26589 -3.05551 0
M  V30 14803 H 1350.98 3.14451 -3.87197 0
M  V30 14804 H 1350.13 5.3076 -2.93902 0
M  V30 14805 H 1348.87 4.43969 -2.01847 0
M  V30 14806 H 1347.88 3.59248 -4.16198 0
M  V30 14807 H 1349.1 4.49363 -5.09166 0
M  V30 14808 H 1347.05 5.71973 -3.21222 0
M  V30 14809 H 1346.96 5.71985 -4.94337 0
M  V30 14810 H 1348.23 6.60142 -4.14527 0
M  V30 14811 N 1352.46 1.37696 0.766659 0
M  V30 14812 C 1353.41 1.30383 1.87041 0
M  V30 14813 C 1354.4 0.190643 1.59767 0
M  V30 14814 O 1355.59 0.425485 1.7181 0
M  V30 14815 C 1352.72 1.11817 3.2458 0
M  V30 14816 C 1351.8 2.27701 3.57789 0
M  V30 14817 N 1352.19 3.53108 3.62144 0
M  V30 14818 C 1350.49 2.19967 3.87983 0
M  V30 14819 C 1351.19 4.29555 3.92247 0
M  V30 14820 N 1350.17 3.58754 4.08408 0
M  V30 14821 H 1353.97 2.25348 1.88668 0
M  V30 14822 H 1351.48 1.30741 0.963362 0
M  V30 14823 H 1353.48 1.04663 4.03548 0
M  V30 14824 H 1352.14 0.177731 3.24213 0
M  V30 14825 H 1353.15 3.86949 3.44225 0
M  V30 14826 H 1349.83 1.34009 3.95408 0
M  V30 14827 H 1351.22 5.38112 4.0235 0
M  V30 14828 N 1353.94 -0.993397 1.22349 0
M  V30 14829 C 1355.19 -1.73544 1.04931 0
M  V30 14830 C 1355.52 -1.89721 -0.414661 0
M  V30 14831 O 1354.79 -1.44001 -1.30743 0
M  V30 14832 C 1355.08 -3.14131 1.7605 0
M  V30 14833 C 1354.93 -3.05604 3.30039 0
M  V30 14834 C 1356.25 -4.13294 1.51249 0
M  V30 14835 H 1353.37 -0.629915 0.382591 0
M  V30 14836 H 1356.01 -1.15737 1.50682 0
M  V30 14837 H 1354.16 -3.63483 1.37157 0
M  V30 14838 H 1355.83 -2.63876 3.78374 0
M  V30 14839 H 1354.07 -2.42421 3.59742 0
M  V30 14840 H 1354.75 -4.05086 3.74979 0
M  V30 14841 H 1357.22 -3.72696 1.85033 0
M  V30 14842 H 1356.1 -5.09781 2.03507 0
M  V30 14843 H 1356.36 -4.39855 0.444973 0
M  V30 14844 N 1355.42 -1.03311 -1.19015 0
M  V30 14845 C 1356.66 -0.733124 -1.89085 0
M  V30 14846 C 1357 0.73675 -1.79682 0
M  V30 14847 O 1356.27 1.53692 -1.19201 0
M  V30 14848 C 1356.55 -1.19028 -3.39859 0
M  V30 14849 C 1356.41 -2.72169 -3.58112 0
M  V30 14850 C 1357.73 -0.774383 -4.33234 0
M  V30 14851 H 1354.85 -0.2678 -0.686624 0
M  V30 14852 H 1357.49 -1.28378 -1.40068 0
M  V30 14853 H 1355.64 -0.721799 -3.81736 0
M  V30 14854 H 1357.31 -3.26996 -3.25379 0
M  V30 14855 H 1355.55 -3.12358 -3.01023 0
M  V30 14856 H 1356.22 -2.99213 -4.6387 0
M  V30 14857 H 1358.7 -1.17739 -3.99095 0
M  V30 14858 H 1357.58 -1.12209 -5.37308 0
M  V30 14859 H 1357.84 0.322989 -4.40919 0
M  V30 14860 N 1356.9 1.35099 -0.81154 0
M  V30 14861 C 1357.83 2.28468 -0.183012 0
M  V30 14862 C 1358.84 1.50509 0.620553 0
M  V30 14863 O 1360.03 1.7268 0.4521 0
M  V30 14864 C 1357.13 3.30201 0.762933 0
M  V30 14865 C 1356.3 4.374 0.00466561 0
M  V30 14866 C 1355.36 5.18961 0.869832 0
M  V30 14867 O 1354.39 5.68306 0.318964 0
M  V30 14868 N 1355.59 5.37555 2.19123 0
M  V30 14869 H 1358.35 2.83046 -0.985132 0
M  V30 14870 H 1355.92 1.47502 -0.667449 0
M  V30 14871 H 1357.91 3.81659 1.34606 0
M  V30 14872 H 1356.48 2.76101 1.46584 0
M  V30 14873 H 1355.7 3.8681 -0.759702 0
M  V30 14874 H 1356.99 5.06159 -0.517739 0
M  V30 14875 H 1356.38 4.99118 2.66266 0
M  V30 14876 H 1354.94 5.92174 2.72348 0
M  V30 14877 N 1358.37 0.56548 1.47106 0
M  V30 14878 C 1359.61 0.0469867 2.04346 0
M  V30 14879 C 1359.98 -1.28183 1.42944 0
M  V30 14880 O 1361.18 -1.88852 1.91281 0
M  V30 14881 C 1359.45 -0.0357764 3.57382 0
M  V30 14882 S 1361.01 -0.499194 4.35951 0
M  V30 14883 H 1357.83 0.0291355 0.710403 0
M  V30 14884 H 1360.43 0.754085 1.80371 0
M  V30 14885 H 1359.13 0.935578 3.99594 0
M  V30 14886 H 1358.66 -0.766177 3.85867 0
M  V30 14887 H 1360.68 -1.75732 4.6404 0
M  V30 14888 N 1359.85 -1.54672 0.302354 0
M  V30 14889 C 1360.79 -2.19752 -0.615175 0
M  V30 14890 C 1361.76 -1.16737 -1.13186 0
M  V30 14891 O 1362.95 -1.45385 -1.19981 0
M  V30 14892 C 1360.07 -2.84243 -1.84184 0
M  V30 14893 C 1359.12 -4.00795 -1.45827 0
M  V30 14894 S 1359.95 -5.33037 -0.513046 0
M  V30 14895 C 1361.11 -6.01011 -1.74747 0
M  V30 14896 H 1361.34 -2.97235 -0.0622917 0
M  V30 14897 H 1358.88 -1.54158 0.0864897 0
M  V30 14898 H 1360.83 -3.22025 -2.54578 0
M  V30 14899 H 1359.49 -2.06603 -2.36589 0
M  V30 14900 H 1358.69 -4.44707 -2.37175 0
M  V30 14901 H 1358.29 -3.64577 -0.83425 0
M  V30 14902 H 1360.58 -6.21901 -2.68786 0
M  V30 14903 H 1361.52 -6.95095 -1.35089 0
M  V30 14904 H 1361.93 -5.30671 -1.9248 0
M  V30 14905 N 1361.33 -0.0301034 -1.57571 0
M  V30 14906 C 1362.58 0.648323 -1.91841 0
M  V30 14907 C 1362.91 1.72078 -0.906601 0
M  V30 14908 O 1362.16 1.95518 0.0843233 0
M  V30 14909 C 1362.46 1.30206 -3.32838 0
M  V30 14910 C 1362.13 0.359876 -4.49462 0
M  V30 14911 C 1360.79 0.100552 -4.81095 0
M  V30 14912 C 1363.14 -0.287048 -5.20409 0
M  V30 14913 C 1360.47 -0.813484 -5.81033 0
M  V30 14914 C 1362.82 -1.18914 -6.21323 0
M  V30 14915 C 1361.48 -1.45735 -6.51397 0
M  V30 14916 H 1360.75 0.237238 -0.701997 0
M  V30 14917 H 1363.4 -0.0920804 -1.91278 0
M  V30 14918 H 1361.71 2.11724 -3.29667 0
M  V30 14919 H 1363.4 1.83356 -3.56625 0
M  V30 14920 H 1359.99 0.572172 -4.24764 0
M  V30 14921 H 1364.18 -0.0997611 -4.962 0
M  V30 14922 H 1359.43 -1.02897 -6.02679 0
M  V30 14923 H 1363.61 -1.69661 -6.75417 0
M  V30 14924 H 1361.23 -2.16727 -7.28652 0
M  V30 14925 N 1362.81 1.55714 0.243056 0
M  V30 14926 C 1364.05 1.77989 0.971993 0
M  V30 14927 C 1364.39 0.596038 1.84827 0
M  V30 14928 O 1363.66 -0.40554 1.90225 0
M  V30 14929 C 1363.95 3.10178 1.82925 0
M  V30 14930 C 1363.8 4.38974 0.9809 0
M  V30 14931 C 1365.12 3.38628 2.81103 0
M  V30 14932 H 1362.24 0.64754 0.35194 0
M  V30 14933 H 1364.88 1.88449 0.242237 0
M  V30 14934 H 1363.03 3.01392 2.45143 0
M  V30 14935 H 1364.7 4.59756 0.377113 0
M  V30 14936 H 1362.94 4.3286 0.285414 0
M  V30 14937 H 1363.61 5.27858 1.61461 0
M  V30 14938 H 1366.09 3.47403 2.29021 0
M  V30 14939 H 1364.97 4.32331 3.38203 0
M  V30 14940 H 1365.23 2.5973 3.57761 0
M  V30 14941 N 1364.29 -0.50888 1.49158 0
M  V30 14942 C 1365.25 -1.59354 1.64739 0
M  V30 14943 C 1366.25 -1.52175 0.519557 0
M  V30 14944 O 1367.44 -1.55468 0.785838 0
M  V30 14945 C 1364.57 -2.99002 1.63739 0
M  V30 14946 H 1365.76 -1.46871 2.61474 0
M  V30 14947 H 1363.32 -0.732532 1.38071 0
M  V30 14948 H 1364.05 -3.1697 0.685583 0
M  V30 14949 H 1363.84 -3.05622 2.45637 0
M  V30 14950 H 1365.33 -3.77822 1.77877 0
M  V30 14951 N 1365.76 -1.381 -0.759346 0
M  V30 14952 C 1367.01 -1.33311 -1.51364 0
M  V30 14953 C 1367.33 0.0761325 -1.95452 0
M  V30 14954 O 1368.53 0.246541 -2.70378 0
M  V30 14955 C 1366.99 -2.34067 -2.73387 0
M  V30 14956 C 1366.6 -3.80583 -2.36348 0
M  V30 14957 C 1368.34 -2.38311 -3.51295 0
M  V30 14958 C 1366.25 -4.73039 -3.54948 0
M  V30 14959 H 1365.18 -0.495512 -0.568317 0
M  V30 14960 H 1367.83 -1.63625 -0.830602 0
M  V30 14961 H 1366.21 -1.96788 -3.43643 0
M  V30 14962 H 1367.38 -4.26769 -1.73796 0
M  V30 14963 H 1365.7 -3.79403 -1.71587 0
M  V30 14964 H 1368.3 -3.04586 -4.39467 0
M  V30 14965 H 1368.64 -1.40034 -3.92041 0
M  V30 14966 H 1369.17 -2.74361 -2.88047 0
M  V30 14967 H 1365.91 -5.7249 -3.19273 0
M  V30 14968 H 1365.43 -4.3155 -4.16563 0
M  V30 14969 H 1367.11 -4.90775 -4.21603 0
M  V30 14970 N 1367.24 0.986894 -1.22875 0
M  V30 14971 C 1368.47 1.768 -1.08427 0
M  V30 14972 C 1368.89 1.84612 0.360555 0
M  V30 14973 O 1368.25 1.30299 1.26063 0
M  V30 14974 C 1368.3 3.17638 -1.70701 0
M  V30 14975 O 1367.4 4.00957 -0.964752 0
M  V30 14976 H 1366.74 0.544199 -0.380451 0
M  V30 14977 H 1369.27 1.23931 -1.62795 0
M  V30 14978 H 1369.28 3.68243 -1.75672 0
M  V30 14979 H 1367.96 3.11267 -2.75837 0
M  V30 14980 H 1366.54 3.59477 -0.991493 0
M  V30 14981 N 1368.72 1.0394 1.18466 0
M  V30 14982 C 1369.95 0.762014 1.92356 0
M  V30 14983 C 1370.36 -0.680652 1.76104 0
M  V30 14984 O 1369.72 -1.46385 1.08985 0
M  V30 14985 C 1369.77 1.11717 3.43805 0
M  V30 14986 O 1369.49 2.50319 3.59544 0
M  V30 14987 C 1370.99 0.864099 4.34797 0
M  V30 14988 H 1368.21 0.277999 0.610702 0
M  V30 14989 H 1370.76 1.38672 1.503 0
M  V30 14990 H 1368.91 0.537445 3.83654 0
M  V30 14991 H 1369.33 2.63875 4.53288 0
M  V30 14992 H 1370.8 1.16247 5.39621 0
M  V30 14993 H 1371.28 -0.20117 4.38739 0
M  V30 14994 H 1371.88 1.42706 4.00643 0
M  V30 14995 N 1370.2 -1.34667 0.818693 0
M  V30 14996 C 1371.45 -1.9767 0.401184 0
M  V30 14997 C 1371.76 -1.65644 -1.04027 0
M  V30 14998 O 1372.97 -2.22104 -1.56148 0
M  V30 14999 C 1371.42 -3.53677 0.666398 0
M  V30 15000 C 1371.03 -3.94601 2.12119 0
M  V30 15001 C 1372.77 -4.23331 0.314845 0
M  V30 15002 C 1370.68 -5.43502 2.33151 0
M  V30 15003 H 1369.61 -0.739675 0.146275 0
M  V30 15004 H 1372.26 -1.53568 1.00445 0
M  V30 15005 H 1370.64 -3.95999 -0.00698307 0
M  V30 15006 H 1371.82 -3.63396 2.83338 0
M  V30 15007 H 1370.13 -3.37871 2.43377 0
M  V30 15008 H 1372.73 -5.32804 0.449881 0
M  V30 15009 H 1373.07 -4.09666 -0.740235 0
M  V30 15010 H 1373.61 -3.8647 0.942631 0
M  V30 15011 H 1370.35 -5.62148 3.37149 0
M  V30 15012 H 1369.87 -5.76236 1.66471 0
M  V30 15013 H 1371.54 -6.10127 2.153 0
M  V30 15014 N 1371.68 -0.573274 -1.46804 0
M  V30 15015 C 1372.92 -0.0551522 -2.02025 0
M  V30 15016 C 1373.25 1.30577 -1.44826 0
M  V30 15017 O 1372.52 1.85514 -0.629403 0
M  V30 15018 H 1371.1 -0.0173982 -0.746797 0
M  V30 15019 H 1373.76 -0.746919 -1.8002 0
M  V30 15020 H 1372.85 0.0209326 -3.12093 0
M  V30 15021 N 1373.15 1.5451 -0.310553 0
M  V30 15022 C 1374.1 2.25332 0.576928 0
M  V30 15023 C 1375.1 1.26272 1.12924 0
M  V30 15024 O 1376.3 1.44092 1.07878 0
M  V30 15025 H 1372.68 0.723611 0.204674 0
M  V30 15026 H 1374.65 2.98369 -0.0428167 0
M  V30 15027 C 1373.4 3.01455 1.73263 0
M  V30 15028 H 1372.72 3.7749 1.31688 0
M  V30 15029 H 1374.16 3.54276 2.32947 0
M  V30 15030 C 1372.62 2.08984 2.64248 0
M  V30 15031 O 1373.15 1.66414 3.65608 0
M  V30 15032 N 1371.36 1.74742 2.32193 0
M  V30 15033 H 1370.9 2.09558 1.49811 0
M  V30 15034 H 1370.86 1.13148 2.93334 0
M  V30 15035 N 1374.63 0.0384594 1.57553 0
M  V30 15036 C 1375.88 -0.637533 1.91359 0
M  V30 15037 C 1376.2 -1.7275 0.91744 0
M  V30 15038 O 1377.4 -2.46078 1.14709 0
M  V30 15039 C 1375.86 -1.18526 3.39823 0
M  V30 15040 C 1375.47 -0.128086 4.47817 0
M  V30 15041 C 1377.21 -1.83723 3.82683 0
M  V30 15042 C 1375.12 -0.687978 5.87385 0
M  V30 15043 H 1374.05 -0.241898 0.714144 0
M  V30 15044 H 1376.7 0.105281 1.83198 0
M  V30 15045 H 1375.08 -1.97999 3.42947 0
M  V30 15046 H 1376.25 0.644865 4.56265 0
M  V30 15047 H 1374.57 0.425672 4.14219 0
M  V30 15048 H 1377.17 -2.26585 4.84317 0
M  V30 15049 H 1377.51 -2.68377 3.18244 0
M  V30 15050 H 1378.04 -1.10926 3.82021 0
M  V30 15051 H 1374.78 0.120642 6.55389 0
M  V30 15052 H 1374.3 -1.4292 5.82524 0
M  V30 15053 H 1375.98 -1.17483 6.36244 0
M  V30 15054 N 1376.11 -1.55841 -0.234795 0
M  V30 15055 C 1377.36 -1.78502 -0.96254 0
M  V30 15056 C 1377.69 -0.605832 -1.84508 0
M  V30 15057 O 1376.97 0.395446 -1.90438 0
M  V30 15058 C 1377.25 -3.11144 -1.81277 0
M  V30 15059 C 1377.1 -4.39488 -0.957607 0
M  V30 15060 C 1378.42 -3.40114 -2.79304 0
M  V30 15061 H 1375.54 -0.649397 -0.348501 0
M  V30 15062 H 1378.18 -1.88575 -0.23224 0
M  V30 15063 H 1376.33 -3.02687 -2.43542 0
M  V30 15064 H 1378 -4.59949 -0.352726 0
M  V30 15065 H 1376.25 -4.33005 -0.262454 0
M  V30 15066 H 1376.92 -5.28707 -1.58659 0
M  V30 15067 H 1379.39 -3.48612 -2.27175 0
M  V30 15068 H 1378.27 -4.34118 -3.35906 0
M  V30 15069 H 1378.53 -2.61623 -3.56378 0
M  V30 15070 N 1377.59 0.500963 -1.49426 0
M  V30 15071 C 1378.52 1.61114 -1.69011 0
M  V30 15072 C 1379.5 1.61341 -0.538813 0
M  V30 15073 O 1380.69 1.78081 -0.77466 0
M  V30 15074 C 1377.82 2.99598 -1.75666 0
M  V30 15075 C 1376.77 3.14236 -2.90585 0
M  V30 15076 C 1376.1 4.54071 -2.82354 0
M  V30 15077 C 1377.4 2.94258 -4.3152 0
M  V30 15078 H 1379.09 1.44978 -2.61957 0
M  V30 15079 H 1376.64 0.69603 -1.26061 0
M  V30 15080 H 1378.59 3.77163 -1.87953 0
M  V30 15081 H 1377.31 3.16822 -0.793186 0
M  V30 15082 H 1375.97 2.39096 -2.779 0
M  V30 15083 H 1375.62 4.68172 -1.83914 0
M  V30 15084 H 1375.32 4.64806 -3.59485 0
M  V30 15085 H 1376.84 5.33696 -2.96649 0
M  V30 15086 H 1378.26 3.61592 -4.44886 0
M  V30 15087 H 1376.65 3.16464 -5.09873 0
M  V30 15088 H 1377.72 1.90383 -4.45962 0
M  V30 15089 N 1379.07 1.38501 0.752011 0
M  V30 15090 C 1380.31 1.34995 1.51341 0
M  V30 15091 C 1380.65 -0.0594724 1.94109 0
M  V30 15092 O 1379.92 -1.02098 1.65548 0
M  V30 15093 C 1380.2 2.30705 2.76491 0
M  V30 15094 C 1380.06 3.80515 2.39851 0
M  V30 15095 C 1381.38 2.24521 3.78521 0
M  V30 15096 H 1378.5 0.491687 0.549011 0
M  V30 15097 H 1381.14 1.69361 0.861205 0
M  V30 15098 H 1379.29 2.01529 3.32142 0
M  V30 15099 H 1380.96 4.20371 1.89962 0
M  V30 15100 H 1379.2 3.98119 1.7229 0
M  V30 15101 H 1379.87 4.42946 3.29397 0
M  V30 15102 H 1382.35 2.50282 3.32413 0
M  V30 15103 H 1381.23 2.93598 4.63779 0
M  V30 15104 H 1381.49 1.24457 4.2422 0
M  V30 15105 N 1380.55 -0.980364 1.23396 0
M  V30 15106 C 1381.77 -1.75689 1.09275 0
M  V30 15107 C 1382.19 -1.85418 -0.355773 0
M  V30 15108 O 1381.55 -1.33337 -1.24609 0
M  V30 15109 C 1381.6 -3.18378 1.71223 0
M  V30 15110 O 1381.32 -3.09154 3.10411 0
M  V30 15111 C 1382.82 -4.12425 1.62545 0
M  V30 15112 H 1380.04 -0.551354 0.382427 0
M  V30 15113 H 1382.58 -1.23169 1.63247 0
M  V30 15114 H 1380.74 -3.67925 1.21285 0
M  V30 15115 H 1381.15 -3.9898 3.40464 0
M  V30 15116 H 1382.63 -5.1025 2.10592 0
M  V30 15117 H 1383.1 -4.35296 0.584275 0
M  V30 15118 H 1383.71 -3.68782 2.1185 0
M  V30 15119 N 1382.02 -1.04567 -1.17913 0
M  V30 15120 C 1383.25 -0.772204 -1.9195 0
M  V30 15121 C 1383.67 0.671303 -1.76462 0
M  V30 15122 O 1383.02 1.45805 -1.0976 0
M  V30 15123 C 1383.07 -1.13539 -3.43207 0
M  V30 15124 O 1382.8 -2.52223 -3.58211 0
M  V30 15125 C 1384.3 -0.887146 -4.34332 0
M  V30 15126 H 1381.52 -0.281234 -0.609219 0
M  V30 15127 H 1384.06 -1.39467 -1.49563 0
M  V30 15128 H 1382.22 -0.557784 -3.83363 0
M  V30 15129 H 1382.63 -2.66275 -4.51882 0
M  V30 15130 H 1384.1 -1.19107 -5.38997 0
M  V30 15131 H 1384.58 0.1779 -4.3884 0
M  V30 15132 H 1385.19 -1.44829 -3.99881 0
M  V30 15133 N 1383.5 1.34231 -0.825823 0
M  V30 15134 C 1384.43 2.31997 -0.264546 0
M  V30 15135 C 1385.41 1.58375 0.620592 0
M  V30 15136 O 1386.6 1.86341 0.546865 0
M  V30 15137 C 1383.73 3.42557 0.572025 0
M  V30 15138 C 1382.68 4.27454 -0.216219 0
M  V30 15139 C 1382.01 5.29509 0.743279 0
M  V30 15140 C 1383.31 5.02456 -1.42603 0
M  V30 15141 H 1385 2.79189 -1.08139 0
M  V30 15142 H 1382.55 1.34227 -0.521451 0
M  V30 15143 H 1384.5 4.09968 0.974889 0
M  V30 15144 H 1383.22 2.94021 1.42195 0
M  V30 15145 H 1381.88 3.61649 -0.600485 0
M  V30 15146 H 1381.53 4.77234 1.58924 0
M  V30 15147 H 1381.23 5.87188 0.220064 0
M  V30 15148 H 1382.76 5.99789 1.14394 0
M  V30 15149 H 1384.17 5.62706 -1.09702 0
M  V30 15150 H 1382.57 5.69723 -1.88509 0
M  V30 15151 H 1383.64 4.31983 -2.2027 0
M  V30 15152 N 1384.98 0.581051 1.46498 0
M  V30 15153 C 1385.91 -0.140957 2.33074 0
M  V30 15154 C 1386.89 -0.885323 1.45245 0
M  V30 15155 O 1388.08 -0.86111 1.74065 0
M  V30 15156 C 1385.21 -1.15625 3.27488 0
M  V30 15157 C 1384.16 -0.526829 4.24745 0
M  V30 15158 C 1383.49 -1.64847 5.08655 0
M  V30 15159 C 1384.79 0.53492 5.19554 0
M  V30 15160 H 1386.48 0.581888 2.93691 0
M  V30 15161 H 1384.03 0.281278 1.41226 0
M  V30 15162 H 1385.98 -1.6697 3.8691 0
M  V30 15163 H 1384.7 -1.90935 2.64974 0
M  V30 15164 H 1383.36 -0.0344738 3.66584 0
M  V30 15165 H 1383.01 -2.3912 4.42528 0
M  V30 15166 H 1382.71 -1.23298 5.74518 0
M  V30 15167 H 1384.23 -2.16472 5.7094 0
M  V30 15168 H 1385.65 0.106606 5.73201 0
M  V30 15169 H 1384.04 0.870639 5.93751 0
M  V30 15170 H 1385.11 1.42184 4.63586 0
M  V30 15171 N 1386.46 -1.54343 0.318742 0
M  V30 15172 C 1387.39 -2.21652 -0.583351 0
M  V30 15173 C 1388.4 -1.21494 -1.08366 0
M  V30 15174 O 1389.59 -1.4799 -0.998064 0
M  V30 15175 C 1386.69 -2.86349 -1.81266 0
M  V30 15176 C 1385.86 -4.12601 -1.45186 0
M  V30 15177 C 1384.92 -4.60937 -2.53818 0
M  V30 15178 O 1383.95 -5.25731 -2.18164 0
M  V30 15179 N 1385.15 -4.34755 -3.84667 0
M  V30 15180 H 1387.92 -2.99699 -0.00703539 0
M  V30 15181 H 1385.48 -1.61278 0.141728 0
M  V30 15182 H 1387.47 -3.15611 -2.53321 0
M  V30 15183 H 1386.04 -2.12037 -2.29693 0
M  V30 15184 H 1385.26 -3.90157 -0.563143 0
M  V30 15185 H 1386.55 -4.94774 -1.18642 0
M  V30 15186 H 1385.95 -3.82883 -4.16434 0
M  V30 15187 H 1384.5 -4.68683 -4.52967 0
M  V30 15188 N 1387.94 -0.0468143 -1.5753 0
M  V30 15189 C 1389.18 0.627939 -1.92518 0
M  V30 15190 C 1389.51 1.71107 -0.924801 0
M  V30 15191 O 1388.77 1.95597 0.0635812 0
M  V30 15192 C 1389.06 1.26669 -3.342 0
M  V30 15193 C 1388.73 0.312184 -4.49818 0
M  V30 15194 C 1387.39 0.0495202 -4.81175 0
M  V30 15195 C 1389.74 -0.342228 -5.20075 0
M  V30 15196 C 1387.07 -0.875064 -5.80137 0
M  V30 15197 C 1389.42 -1.25498 -6.20027 0
M  V30 15198 C 1388.09 -1.52636 -6.49814 0
M  V30 15199 H 1387.36 0.229779 -0.704473 0
M  V30 15200 H 1390.01 -0.112363 -1.9117 0
M  V30 15201 H 1388.31 2.08215 -3.31894 0
M  V30 15202 H 1390.01 1.79563 -3.5855 0
M  V30 15203 H 1386.6 0.527088 -4.25347 0
M  V30 15204 H 1390.78 -0.152384 -4.96066 0
M  V30 15205 H 1386.04 -1.09284 -6.01554 0
M  V30 15206 H 1390.21 -1.76815 -6.7358 0
M  V30 15207 H 1387.84 -2.24443 -7.26312 0
M  V30 15208 N 1389.41 1.55964 0.226527 0
M  V30 15209 C 1390.35 1.87013 1.30772 0
M  V30 15210 C 1391.33 0.727044 1.4544 0
M  V30 15211 O 1392.51 0.974898 1.61332 0
M  V30 15212 C 1389.64 2.07278 2.67869 0
M  V30 15213 C 1388.68 3.29956 2.70243 0
M  V30 15214 S 1389.52 4.86026 2.24808 0
M  V30 15215 C 1390.67 5.09321 3.6379 0
M  V30 15216 H 1390.9 2.78427 1.0424 0
M  V30 15217 H 1388.44 1.48334 0.428525 0
M  V30 15218 H 1390.4 2.19636 3.468 0
M  V30 15219 H 1389.06 1.1667 2.91628 0
M  V30 15220 H 1388.25 3.41164 3.70975 0
M  V30 15221 H 1387.85 3.16429 1.99371 0
M  V30 15222 H 1390.14 4.97914 4.59443 0
M  V30 15223 H 1391.09 6.11227 3.57501 0
M  V30 15224 H 1391.49 4.37076 3.57247 0
M  V30 15225 N 1390.89 -0.493031 1.4969 0
M  V30 15226 C 1392.14 -1.24664 1.59578 0
M  V30 15227 C 1392.47 -1.92385 0.286075 0
M  V30 15228 O 1391.72 -1.81712 -0.726586 0
M  V30 15229 C 1392.02 -2.33014 2.70997 0
M  V30 15230 C 1391.69 -1.82697 4.12229 0
M  V30 15231 C 1390.35 -1.68694 4.50662 0
M  V30 15232 C 1392.7 -1.45127 5.00587 0
M  V30 15233 C 1390.03 -1.15512 5.75216 0
M  V30 15234 C 1392.38 -0.933951 6.25668 0
M  V30 15235 C 1391.05 -0.780378 6.62923 0
M  V30 15236 H 1390.32 -0.456178 0.583937 0
M  V30 15237 H 1392.96 -0.546091 1.83549 0
M  V30 15238 H 1391.27 -3.08889 2.41029 0
M  V30 15239 H 1392.96 -2.91041 2.75855 0
M  V30 15240 H 1389.55 -1.94557 3.81897 0
M  V30 15241 H 1393.74 -1.5479 4.71544 0
M  V30 15242 H 1388.99 -1.0234 6.02774 0
M  V30 15243 H 1393.17 -0.634088 6.93507 0
M  V30 15244 H 1390.8 -0.366111 7.59318 0
M  V30 15245 N 1392.37 -1.38898 -0.744656 0
M  V30 15246 C 1393.33 -1.36633 -1.84022 0
M  V30 15247 C 1394.33 -0.265187 -1.58598 0
M  V30 15248 O 1395.52 -0.522569 -1.66177 0
M  V30 15249 C 1392.66 -1.12938 -3.21649 0
M  V30 15250 H 1393.85 -2.34111 -1.87435 0
M  V30 15251 H 1391.4 -1.24322 -0.947302 0
M  V30 15252 H 1392.14 -0.161027 -3.239 0
M  V30 15253 H 1391.92 -1.9267 -3.41498 0
M  V30 15254 H 1393.41 -1.14071 -4.01718 0
M  V30 15255 N 1393.85 0.973806 -1.23914 0
M  V30 15256 C 1395.09 1.731 -1.08701 0
M  V30 15257 C 1395.45 1.88425 0.368772 0
M  V30 15258 O 1396.65 2.61014 0.642259 0
M  V30 15259 C 1394.92 3.08777 -1.79977 0
M  V30 15260 S 1396.48 3.99993 -1.80419 0
M  V30 15261 H 1393.3 0.595219 -0.38889 0
M  V30 15262 H 1395.9 1.16291 -1.57152 0
M  V30 15263 H 1394.61 2.95278 -2.85024 0
M  V30 15264 H 1394.14 3.70652 -1.31835 0
M  V30 15265 H 1396.15 4.88558 -0.867494 0
M  V30 15266 N 1395.33 1.05191 1.17357 0
M  V30 15267 C 1396.58 0.757104 1.86951 0
M  V30 15268 C 1396.89 -0.718637 1.8192 0
M  V30 15269 O 1398.09 -1.12739 2.46986 0
M  V30 15270 C 1396.55 1.30409 3.35442 0
M  V30 15271 C 1396.16 2.80928 3.48975 0
M  V30 15272 C 1397.9 1.08633 4.10365 0
M  V30 15273 C 1395.81 3.28927 4.91488 0
M  V30 15274 H 1394.74 0.279525 0.700273 0
M  V30 15275 H 1397.39 1.2692 1.32528 0
M  V30 15276 H 1395.77 0.719812 3.89403 0
M  V30 15277 H 1396.95 3.45211 3.05231 0
M  V30 15278 H 1395.26 3.01245 2.87473 0
M  V30 15279 H 1397.86 1.41996 5.15501 0
M  V30 15280 H 1398.2 0.0240903 4.16293 0
M  V30 15281 H 1398.73 1.63581 3.6261 0
M  V30 15282 H 1395.47 4.34581 4.90734 0
M  V30 15283 H 1394.99 2.69386 5.35902 0
M  V30 15284 H 1396.67 3.23605 5.60258 0
M  V30 15285 N 1396.8 -1.33791 0.83293 0
M  V30 15286 C 1398.05 -1.97582 0.42494 0
M  V30 15287 C 1398.37 -1.66328 -1.01784 0
M  V30 15288 O 1397.64 -0.959141 -1.70814 0
M  V30 15289 H 1396.22 -0.730923 0.154143 0
M  V30 15290 H 1398.89 -1.63257 1.06458 0
M  V30 15291 H 1397.98 -3.07177 0.552127 0
M  V30 15292 N 1398.28 -0.588812 -1.46187 0
M  V30 15293 C 1399.53 -0.0768417 -2.02654 0
M  V30 15294 C 1399.86 1.28213 -1.4586 0
M  V30 15295 O 1399.14 1.8415 -0.626022 0
M  V30 15296 C 1399.42 -0.0176429 -3.60096 0
M  V30 15297 C 1399.27 -1.40595 -4.27262 0
M  V30 15298 C 1400.59 0.679864 -4.34817 0
M  V30 15299 H 1397.71 -0.0293981 -0.736413 0
M  V30 15300 H 1400.35 -0.757183 -1.74261 0
M  V30 15301 H 1398.5 0.56174 -3.84417 0
M  V30 15302 H 1400.17 -2.03097 -4.14185 0
M  V30 15303 H 1398.42 -1.97196 -3.86388 0
M  V30 15304 H 1399.09 -1.31694 -5.3606 0
M  V30 15305 H 1401.56 0.1876 -4.15677 0
M  V30 15306 H 1400.44 0.690333 -5.44542 0
M  V30 15307 H 1400.7 1.74237 -4.06318 0
M  V30 15308 N 1399.76 1.54172 -0.326923 0
M  V30 15309 C 1400.69 2.21958 0.571588 0
M  V30 15310 C 1401.71 1.22067 1.0772 0
M  V30 15311 O 1402.89 1.48517 0.990202 0
M  V30 15312 C 1399.99 2.87307 1.79744 0
M  V30 15313 C 1399.17 4.13366 1.42995 0
M  V30 15314 C 1398.23 4.62276 2.5137 0
M  V30 15315 O 1397.25 5.2688 2.15373 0
M  V30 15316 N 1398.45 4.36789 3.82355 0
M  V30 15317 H 1401.22 2.99699 -0.00885848 0
M  V30 15318 H 1398.78 1.61201 -0.150279 0
M  V30 15319 H 1400.77 3.1695 2.51644 0
M  V30 15320 H 1399.34 2.13252 2.28566 0
M  V30 15321 H 1398.56 3.9045 0.542444 0
M  V30 15322 H 1399.85 4.95396 1.16017 0
M  V30 15323 H 1399.25 3.85086 4.14397 0
M  V30 15324 H 1397.81 4.71079 4.50475 0
M  V30 15325 N 1401.24 0.0551678 1.57503 0
M  V30 15326 C 1402.17 -0.915714 2.14795 0
M  V30 15327 C 1403.15 -1.32179 1.07065 0
M  V30 15328 O 1404.33 -1.39579 1.35023 0
M  V30 15329 C 1401.46 -2.18916 2.69616 0
M  V30 15330 C 1400.42 -1.92303 3.82366 0
M  V30 15331 C 1399.74 -3.26136 4.23721 0
M  V30 15332 C 1401.04 -1.24146 5.07331 0
M  V30 15333 H 1402.74 -0.438499 2.96171 0
M  V30 15334 H 1400.28 -0.209477 1.42468 0
M  V30 15335 H 1402.24 -2.87239 3.08337 0
M  V30 15336 H 1400.96 -2.6885 1.85437 0
M  V30 15337 H 1399.62 -1.26391 3.44123 0
M  V30 15338 H 1399.27 -3.73879 3.36487 0
M  V30 15339 H 1398.97 -3.09126 4.99715 0
M  V30 15340 H 1400.49 -3.95684 4.65045 0
M  V30 15341 H 1401.91 -1.8251 5.43473 0
M  V30 15342 H 1400.3 -1.17449 5.88494 0
M  V30 15343 H 1401.37 -0.218073 4.84409 0
M  V30 15344 N 1402.72 -1.56081 -0.218252 0
M  V30 15345 C 1403.96 -1.79247 -0.942157 0
M  V30 15346 C 1404.29 -0.624492 -1.84202 0
M  V30 15347 O 1403.55 0.390973 -1.91755 0
M  V30 15348 C 1403.85 -3.08199 -1.80965 0
M  V30 15349 C 1403.51 -4.38197 -1.06274 0
M  V30 15350 C 1402.17 -4.73517 -0.856432 0
M  V30 15351 C 1404.53 -5.18441 -0.535532 0
M  V30 15352 C 1401.85 -5.86595 -0.111065 0
M  V30 15353 C 1404.21 -6.32295 0.196507 0
M  V30 15354 C 1402.87 -6.66215 0.414041 0
M  V30 15355 H 1402.14 -0.655913 -0.34476 0
M  V30 15356 H 1404.79 -1.90344 -0.210095 0
M  V30 15357 H 1403.09 -2.92238 -2.60967 0
M  V30 15358 H 1404.79 -3.23325 -2.37196 0
M  V30 15359 H 1401.38 -4.10466 -1.23352 0
M  V30 15360 H 1405.56 -4.91586 -0.682386 0
M  V30 15361 H 1400.82 -6.11363 0.0676711 0
M  V30 15362 H 1404.99 -6.93701 0.612516 0
M  V30 15363 H 1402.62 -7.5368 0.993532 0
M  V30 15364 N 1404.2 0.485086 -1.49949 0
M  V30 15365 C 1405.14 1.5848 -1.67788 0
M  V30 15366 C 1406.11 1.57776 -0.519216 0
M  V30 15367 O 1407.3 1.75521 -0.748141 0
M  V30 15368 C 1404.44 2.9654 -1.76516 0
M  V30 15369 C 1403.55 3.07139 -3.03792 0
M  V30 15370 C 1402.69 4.36029 -3.03401 0
M  V30 15371 C 1401.72 4.40318 -4.2519 0
M  V30 15372 N 1400.86 5.60659 -4.22618 0
M  V30 15373 H 1405.7 1.42575 -2.6168 0
M  V30 15374 H 1403.24 0.693426 -1.29731 0
M  V30 15375 H 1405.2 3.76583 -1.79557 0
M  V30 15376 H 1403.83 3.11112 -0.860764 0
M  V30 15377 H 1402.88 2.20057 -3.10289 0
M  V30 15378 H 1404.19 3.06167 -3.9378 0
M  V30 15379 H 1403.34 5.24407 -3.05094 0
M  V30 15380 H 1402.08 4.39588 -2.11219 0
M  V30 15381 H 1401.09 3.50339 -4.23725 0
M  V30 15382 H 1402.31 4.38461 -5.18583 0
M  V30 15383 H 1400.26 5.6503 -3.33282 0
M  V30 15384 H 1400.18 5.61371 -5.06359 0
M  V30 15385 H 1401.44 6.51201 -4.28436 0
M  V30 15386 N 1405.67 1.39291 0.737279 0
M  V30 15387 C 1406.92 1.36121 1.49384 0
M  V30 15388 C 1407.24 -0.0429406 1.94953 0
M  V30 15389 O 1406.51 -0.993756 1.68823 0
M  V30 15390 H 1405.09 0.500916 0.554159 0
M  V30 15391 H 1407.75 1.74134 0.875402 0
M  V30 15392 H 1406.85 2.02246 2.37704 0
M  V30 15393 N 1407.15 -0.967221 1.24429 0
M  V30 15394 C 1408.1 -2.06187 1.03709 0
M  V30 15395 C 1409.07 -1.66025 -0.0497665 0
M  V30 15396 O 1410.25 -1.90511 0.104951 0
M  V30 15397 C 1407.39 -3.38952 0.648477 0
M  V30 15398 C 1406.51 -3.92306 1.80886 0
M  V30 15399 C 1405.64 -5.13342 1.36579 0
M  V30 15400 C 1404.68 -5.58893 2.49609 0
M  V30 15401 N 1403.82 -6.71148 2.06165 0
M  V30 15402 H 1408.66 -2.23244 1.97399 0
M  V30 15403 H 1406.19 -1.09415 0.983192 0
M  V30 15404 H 1408.15 -4.15237 0.40419 0
M  V30 15405 H 1406.78 -3.21819 -0.25142 0
M  V30 15406 H 1405.83 -3.12656 2.1668 0
M  V30 15407 H 1407.15 -4.22071 2.65815 0
M  V30 15408 H 1406.3 -5.97003 1.0804 0
M  V30 15409 H 1405.04 -4.85262 0.487051 0
M  V30 15410 H 1404.04 -4.73805 2.78906 0
M  V30 15411 H 1405.27 -5.88987 3.3804 0
M  V30 15412 H 1403.22 -6.44802 1.20691 0
M  V30 15413 H 1403.13 -7.00366 2.84647 0
M  V30 15414 H 1404.4 -7.5825 1.80769 0
M  V30 15415 N 1408.63 -1.05812 -1.16797 0
M  V30 15416 C 1409.88 -0.771923 -1.8721 0
M  V30 15417 C 1410.2 0.701365 -1.81414 0
M  V30 15418 O 1409.46 1.5292 -1.22122 0
M  V30 15419 C 1409.76 -1.20565 -3.3645 0
M  V30 15420 C 1409.42 -2.68222 -3.62447 0
M  V30 15421 C 1408.09 -3.08556 -3.69251 0
M  V30 15422 C 1410.44 -3.63607 -3.73416 0
M  V30 15423 C 1407.77 -4.43126 -3.84521 0
M  V30 15424 C 1410.12 -4.97918 -3.90205 0
M  V30 15425 C 1408.78 -5.37897 -3.9525 0
M  V30 15426 H 1408.05 -0.282467 -0.68505 0
M  V30 15427 H 1410.7 -1.32633 -1.38133 0
M  V30 15428 H 1409 -0.570347 -3.87626 0
M  V30 15429 H 1410.7 -0.961326 -3.89306 0
M  V30 15430 H 1407.29 -2.3599 -3.5778 0
M  V30 15431 H 1411.48 -3.33581 -3.67474 0
M  V30 15432 H 1406.73 -4.73593 -3.86677 0
M  V30 15433 H 1410.91 -5.71716 -3.97635 0
M  V30 15434 H 1408.53 -6.42176 -4.06834 0
M  V30 15435 N 1410.11 1.33347 -0.840014 0
M  V30 15436 C 1411.35 1.97745 -0.436274 0
M  V30 15437 C 1411.68 1.66538 1.00475 0
M  V30 15438 O 1410.94 0.938137 1.71748 0
M  V30 15439 C 1411.24 3.52239 -0.605173 0
M  V30 15440 C 1410.9 4.03398 -2.01446 0
M  V30 15441 C 1409.56 4.1708 -2.39994 0
M  V30 15442 C 1411.92 4.3071 -2.93494 0
M  V30 15443 C 1409.24 4.55409 -3.69891 0
M  V30 15444 C 1411.6 4.70491 -4.22873 0
M  V30 15445 C 1410.26 4.82379 -4.61375 0
M  V30 15446 H 1409.53 0.723599 -0.159644 0
M  V30 15447 H 1412.18 1.59003 -1.06725 0
M  V30 15448 H 1410.48 3.91648 0.109116 0
M  V30 15449 H 1412.18 4.00069 -0.273056 0
M  V30 15450 H 1408.77 3.93224 -1.70508 0
M  V30 15451 H 1412.95 4.19661 -2.64949 0
M  V30 15452 H 1408.21 4.62806 -3.99525 0
M  V30 15453 H 1412.38 4.9058 -4.94271 0
M  V30 15454 H 1410.01 5.11835 -5.62075 0
M  V30 15455 N 1411.59 0.596556 1.45873 0
M  V30 15456 C 1413 0.259317 1.57479 0
M  V30 15457 C 1413.2 -1.23829 1.58961 0
M  V30 15458 O 1412.26 -2.02076 1.51399 0
M  V30 15459 C 1413.57 0.920755 2.86256 0
M  V30 15460 C 1415.12 0.895638 2.99912 0
M  V30 15461 C 1415.59 1.53688 4.31444 0
M  V30 15462 N 1417.08 1.50186 4.38176 0
M  V30 15463 C 1417.82 1.96727 5.38596 0
M  V30 15464 N 1417.32 2.51304 6.45615 0
M  V30 15465 N 1419.11 1.87561 5.29884 0
M  V30 15466 H 1411.26 1.56909 1.43155 0
M  V30 15467 H 1413.52 0.656664 0.683737 0
M  V30 15468 H 1413.23 1.97481 2.91023 0
M  V30 15469 H 1413.1 0.437331 3.74656 0
M  V30 15470 H 1415.49 -0.149838 2.94719 0
M  V30 15471 H 1415.57 1.41722 2.12952 0
M  V30 15472 H 1415.21 2.58163 4.37395 0
M  V30 15473 H 1415.14 0.990408 5.17203 0
M  V30 15474 H 1417.64 1.10305 3.61443 0
M  V30 15475 H 1417.95 2.84639 7.18471 0
M  V30 15476 H 1416.29 2.55337 6.46396 0
M  V30 15477 H 1419.48 1.4467 4.45183 0
M  V30 15478 H 1419.66 2.24146 6.07999 0
M  V30 15479 N 1413.06 -1.53996 0.335095 0
M  V30 15480 C 1414.3 -2.02682 -0.264447 0
M  V30 15481 C 1414.67 -1.21779 -1.48438 0
M  V30 15482 O 1415.87 -1.60322 -2.15755 0
M  V30 15483 C 1414.14 -3.52678 -0.579072 0
M  V30 15484 S 1415.7 -4.23282 -1.15663 0
M  V30 15485 H 1412.52 -0.706566 -0.0792826 0
M  V30 15486 H 1415.12 -1.89744 0.470895 0
M  V30 15487 H 1413.82 -4.09176 0.316756 0
M  V30 15488 H 1413.35 -3.69719 -1.34431 0
M  V30 15489 H 1415.37 -4.31903 -2.44284 0
M  V30 15490 N 1414.54 -0.0635198 -1.57472 0
M  V30 15491 C 1415.77 0.616735 -1.97494 0
M  V30 15492 C 1416.18 1.63646 -0.941568 0
M  V30 15493 O 1415.54 1.82355 0.0727768 0
M  V30 15494 C 1415.59 1.29268 -3.37597 0
M  V30 15495 O 1415.31 0.313781 -4.36975 0
M  V30 15496 C 1416.81 2.06154 -3.92448 0
M  V30 15497 H 1414.03 0.167753 -0.649692 0
M  V30 15498 H 1416.58 -0.133475 -2.04064 0
M  V30 15499 H 1414.73 1.99404 -3.3214 0
M  V30 15500 H 1415.15 0.797723 -5.18398 0
M  V30 15501 H 1416.62 2.48853 -4.92723 0
M  V30 15502 H 1417.1 2.91474 -3.28541 0
M  V30 15503 H 1417.7 1.40903 -4.01281 0
M  V30 15504 N 1416.02 1.56195 0.209972 0
M  V30 15505 C 1417.3 1.70553 0.957653 0
M  V30 15506 C 1417.68 0.614091 2.01971 0
M  V30 15507 O 1417.02 -0.377192 2.25365 0
M  V30 15508 C 1417.23 3.12314 1.55759 0
M  V30 15509 C 1418.58 3.72085 2.04543 0
M  V30 15510 O 1419.61 3.15349 1.65631 0
M  V30 15511 O 1418.47 4.71627 2.76099 0
M  V30 15512 H 1415.56 0.695077 0.448104 0
M  V30 15513 H 1418.11 1.68507 0.20084 0
M  V30 15514 H 1416.88 3.83215 0.791302 0
M  V30 15515 H 1416.5 3.18526 2.37964 0
M  V30 15516 N 1417.5 -0.477127 1.50204 0
M  V30 15517 C 1418.43 -1.58405 1.71552 0
M  V30 15518 C 1419.41 -1.60463 0.564413 0
M  V30 15519 O 1420.59 -1.76826 0.802893 0
M  V30 15520 C 1417.72 -2.96765 1.8041 0
M  V30 15521 C 1416.68 -3.09573 2.95548 0
M  V30 15522 C 1416 -4.49522 2.89542 0
M  V30 15523 C 1417.3 -2.87356 4.36147 0
M  V30 15524 H 1419 -1.40792 2.64231 0
M  V30 15525 H 1416.54 -0.675886 1.27153 0
M  V30 15526 H 1418.5 -3.74125 1.9393 0
M  V30 15527 H 1417.22 -3.1552 0.843489 0
M  V30 15528 H 1415.88 -2.34645 2.81669 0
M  V30 15529 H 1415.53 -4.65186 1.91339 0
M  V30 15530 H 1415.23 -4.59028 3.66834 0
M  V30 15531 H 1416.75 -5.28909 3.05102 0
M  V30 15532 H 1418.17 -3.54469 4.50583 0
M  V30 15533 H 1416.56 -3.08313 5.14843 0
M  V30 15534 H 1417.63 -1.83264 4.48935 0
M  V30 15535 N 1418.98 -1.3968 -0.729882 0
M  V30 15536 C 1420.2 -1.40654 -1.52418 0
M  V30 15537 C 1420.63 -0.00428997 -1.881 0
M  V30 15538 O 1419.98 0.984023 -1.52272 0
M  V30 15539 C 1420.03 -2.29057 -2.78506 0
M  V30 15540 O 1419.14 -1.72397 -3.74637 0
M  V30 15541 H 1418.48 -0.478761 -0.460091 0
M  V30 15542 H 1421.01 -1.83738 -0.900087 0
M  V30 15543 H 1421.02 -2.43748 -3.27187 0
M  V30 15544 H 1419.69 -3.30961 -2.51868 0
M  V30 15545 H 1418.27 -1.66977 -3.33426 0
M  V30 15546 N 1420.45 0.960609 -1.2494 0
M  V30 15547 C 1421.4 2.05634 -1.04801 0
M  V30 15548 C 1422.37 1.66049 0.0409611 0
M  V30 15549 O 1423.56 1.90453 -0.115053 0
M  V30 15550 C 1420.7 3.38604 -0.666444 0
M  V30 15551 C 1419.81 3.91341 -1.82964 0
M  V30 15552 C 1418.94 5.1261 -1.39299 0
M  V30 15553 C 1417.98 5.57562 -2.52569 0
M  V30 15554 N 1417.12 6.70046 -2.09722 0
M  V30 15555 H 1421.96 2.22194 -1.9858 0
M  V30 15556 H 1419.5 1.08892 -0.988981 0
M  V30 15557 H 1421.46 4.15017 -0.426205 0
M  V30 15558 H 1420.09 3.21948 0.23435 0
M  V30 15559 H 1419.14 3.11502 -2.18335 0
M  V30 15560 H 1420.45 4.20656 -2.68049 0
M  V30 15561 H 1419.6 5.96421 -1.11205 0
M  V30 15562 H 1418.34 4.84997 -0.512779 0
M  V30 15563 H 1417.35 4.72319 -2.81415 0
M  V30 15564 H 1418.57 5.87186 -3.41159 0
M  V30 15565 H 1416.52 6.44153 -1.24109 0
M  V30 15566 H 1416.44 6.98846 -2.88357 0
M  V30 15567 H 1417.7 7.57281 -1.84787 0
M  V30 15568 N 1421.93 1.0643 1.16234 0
M  V30 15569 C 1422.87 0.620534 2.19601 0
M  V30 15570 C 1423.84 -0.35739 1.58624 0
M  V30 15571 O 1425.03 -0.266037 1.86613 0
M  V30 15572 C 1422.15 -0.0901061 3.3858 0
M  V30 15573 C 1421.2 0.844789 4.1805 0
M  V30 15574 S 1422.03 2.34077 4.81631 0
M  V30 15575 C 1423.19 1.64167 6.03987 0
M  V30 15576 H 1423.42 1.49626 2.56903 0
M  V30 15577 H 1420.96 0.877398 1.27048 0
M  V30 15578 H 1422.91 -0.493891 4.07518 0
M  V30 15579 H 1421.57 -0.942042 2.9964 0
M  V30 15580 H 1420.77 0.294135 5.03141 0
M  V30 15581 H 1420.37 1.18852 3.54613 0
M  V30 15582 H 1422.66 0.948043 6.70834 0
M  V30 15583 H 1423.6 2.47054 6.63604 0
M  V30 15584 H 1424.01 1.12366 5.53203 0
M  V30 15585 N 1423.41 -1.329 0.847073 0
M  V30 15586 C 1424.64 -2.0171 0.460497 0
M  V30 15587 C 1425.05 -1.63699 -0.940649 0
M  V30 15588 O 1424.41 -0.854454 -1.61262 0
M  V30 15589 C 1424.46 -3.56799 0.581108 0
M  V30 15590 O 1424.18 -3.93442 1.92705 0
M  V30 15591 C 1425.68 -4.42882 0.192552 0
M  V30 15592 H 1422.9 -0.645887 0.181853 0
M  V30 15593 H 1425.45 -1.69648 1.14192 0
M  V30 15594 H 1423.6 -3.87364 -0.0524924 0
M  V30 15595 H 1424.02 -4.88157 1.91841 0
M  V30 15596 H 1425.49 -5.51025 0.327969 0
M  V30 15597 H 1425.97 -4.30571 -0.866315 0
M  V30 15598 H 1426.57 -4.17691 0.800918 0
M  V30 15599 N 1424.89 -0.604284 -1.45555 0
M  V30 15600 C 1425.8 0.118409 -2.34301 0
M  V30 15601 C 1426.81 0.863807 -1.51044 0
M  V30 15602 O 1427.99 0.822138 -1.83856 0
M  V30 15603 C 1425.06 1.10538 -3.28606 0
M  V30 15604 C 1424.12 0.362301 -4.27768 0
M  V30 15605 C 1423.35 1.30226 -5.17568 0
M  V30 15606 O 1423.57 2.53991 -5.10729 0
M  V30 15607 O 1422.51 0.801116 -5.96545 0
M  V30 15608 H 1426.33 -0.610816 -2.97494 0
M  V30 15609 H 1423.92 -0.364562 -1.44884 0
M  V30 15610 H 1425.8 1.67392 -3.86727 0
M  V30 15611 H 1424.47 1.81569 -2.67982 0
M  V30 15612 H 1423.38 -0.248616 -3.73273 0
M  V30 15613 H 1424.71 -0.307454 -4.91239 0
M  V30 15614 N 1426.37 1.53816 -0.343257 0
M  V30 15615 C 1427.28 2.28716 0.522121 0
M  V30 15616 C 1428.29 1.33815 1.11218 0
M  V30 15617 O 1429.47 1.66853 1.12793 0
M  V30 15618 C 1426.53 3.04517 1.65741 0
M  V30 15619 C 1425.59 4.15043 1.09716 0
M  V30 15620 C 1424.83 4.8722 2.17835 0
M  V30 15621 O 1425.05 4.59065 3.38549 0
M  V30 15622 O 1423.98 5.73678 1.82145 0
M  V30 15623 H 1427.81 3.03576 -0.086732 0
M  V30 15624 H 1425.4 1.49007 -0.108313 0
M  V30 15625 H 1427.28 3.51921 2.31796 0
M  V30 15626 H 1425.95 2.32514 2.25208 0
M  V30 15627 H 1424.86 3.71943 0.401152 0
M  V30 15628 H 1426.19 4.89147 0.547362 0
M  V30 15629 N 1427.84 0.0718701 1.57436 0
M  V30 15630 C 1428.75 -0.910077 2.16229 0
M  V30 15631 C 1429.77 -1.32699 1.12548 0
M  V30 15632 O 1430.95 -1.39967 1.44814 0
M  V30 15633 C 1428.01 -2.15942 2.71238 0
M  V30 15634 C 1427.07 -1.79891 3.89792 0
M  V30 15635 C 1426.31 -2.9887 4.42168 0
M  V30 15636 O 1426.53 -4.1289 3.93545 0
M  V30 15637 O 1425.46 -2.78682 5.33498 0
M  V30 15638 H 1429.29 -0.439969 3.00496 0
M  V30 15639 H 1426.87 -0.151204 1.48633 0
M  V30 15640 H 1428.76 -2.89204 3.06494 0
M  V30 15641 H 1427.43 -2.62051 1.90029 0
M  V30 15642 H 1426.34 -1.03881 3.59388 0
M  V30 15643 H 1427.67 -1.38566 4.72293 0
M  V30 15644 N 1429.32 -1.56304 -0.201686 0
M  V30 15645 C 1430.56 -1.82021 -0.929934 0
M  V30 15646 C 1430.93 -0.648382 -1.80721 0
M  V30 15647 O 1432.13 -0.785292 -2.57073 0
M  V30 15648 C 1430.4 -3.12731 -1.73014 0
M  V30 15649 S 1431.96 -3.59831 -2.51131 0
M  V30 15650 H 1428.78 -0.638874 -0.312027 0
M  V30 15651 H 1431.38 -1.94536 -0.193861 0
M  V30 15652 H 1430.08 -3.96039 -1.07616 0
M  V30 15653 H 1429.61 -3.03076 -2.50816 0
M  V30 15654 H 1431.63 -3.24744 -3.75174 0
M  V30 15655 N 1430.8 0.469154 -1.50455 0
M  V30 15656 C 1432.22 0.803067 -1.37924 0
M  V30 15657 C 1432.42 1.96708 -0.436837 0
M  V30 15658 O 1431.47 2.52216 0.119823 0
M  V30 15659 C 1432.79 1.11332 -2.79331 0
M  V30 15660 C 1434.33 1.21965 -2.88259 0
M  V30 15661 C 1434.81 1.56302 -4.30504 0
M  V30 15662 N 1436.3 1.6329 -4.33464 0
M  V30 15663 C 1437.03 1.91367 -5.40524 0
M  V30 15664 N 1436.53 2.17451 -6.57789 0
M  V30 15665 N 1438.32 1.92885 -5.2797 0
M  V30 15666 H 1430.47 -0.297928 -2.103 0
M  V30 15667 H 1432.74 -0.0707794 -0.945354 0
M  V30 15668 H 1432.44 0.331052 -3.50138 0
M  V30 15669 H 1432.32 2.04903 -3.16693 0
M  V30 15670 H 1434.7 1.99259 -2.17669 0
M  V30 15671 H 1434.79 0.263692 -2.54437 0
M  V30 15672 H 1434.43 0.795479 -5.01632 0
M  V30 15673 H 1434.36 2.53052 -4.61814 0
M  V30 15674 H 1436.85 1.45164 -3.48907 0
M  V30 15675 H 1437.16 2.38154 -7.35189 0
M  V30 15676 H 1435.51 2.14839 -6.60961 0
M  V30 15677 H 1438.7 1.72005 -4.35353 0
M  V30 15678 H 1438.87 2.1443 -6.11493 0
M  V30 15679 N 1432.28 1.40065 0.722464 0
M  V30 15680 C 1433.53 1.37698 1.47932 0
M  V30 15681 C 1433.85 -0.0222608 1.94987 0
M  V30 15682 O 1433.12 -0.975795 1.69868 0
M  V30 15683 H 1431.7 0.506766 0.548815 0
M  V30 15684 H 1434.36 1.75053 0.856884 0
M  V30 15685 H 1433.46 2.04756 2.35545 0
M  V30 15686 N 1433.76 -0.95397 1.25448 0
M  V30 15687 C 1434.99 -1.7308 1.12814 0
M  V30 15688 C 1435.4 -1.86461 -0.320764 0
M  V30 15689 O 1434.74 -1.3623 -1.23236 0
M  V30 15690 C 1434.8 -3.16239 1.70976 0
M  V30 15691 C 1434.46 -3.26286 3.19979 0
M  V30 15692 C 1435.46 -3.10547 4.16961 0
M  V30 15693 C 1433.15 -3.50085 3.60202 0
M  V30 15694 C 1435.14 -3.18456 5.52146 0
M  V30 15695 C 1432.83 -3.5763 4.95524 0
M  V30 15696 C 1433.83 -3.4183 5.91305 0
M  V30 15697 O 1433.51 -3.49058 7.24164 0
M  V30 15698 H 1433.25 -0.549143 0.394231 0
M  V30 15699 H 1435.8 -1.20538 1.66312 0
M  V30 15700 H 1434.03 -3.70148 1.11926 0
M  V30 15701 H 1435.72 -3.75784 1.53432 0
M  V30 15702 H 1436.48 -2.92029 3.87226 0
M  V30 15703 H 1432.36 -3.61445 2.86145 0
M  V30 15704 H 1435.91 -3.0604 6.26885 0
M  V30 15705 H 1431.8 -3.75665 5.24925 0
M  V30 15706 H 1432.57 -3.65684 7.32269 0
M  V30 15707 N 1435.24 -1.07045 -1.15668 0
M  V30 15708 C 1436.47 -0.811567 -1.89992 0
M  V30 15709 C 1436.87 0.638628 -1.78096 0
M  V30 15710 O 1436.22 1.44953 -1.12846 0
M  V30 15711 C 1436.28 -1.13665 -3.41058 0
M  V30 15712 C 1435.94 -2.58681 -3.7674 0
M  V30 15713 C 1436.94 -3.56923 -3.78023 0
M  V30 15714 C 1434.62 -2.94178 -4.07142 0
M  V30 15715 C 1436.62 -4.88699 -4.09209 0
M  V30 15716 C 1434.31 -4.26152 -4.37993 0
M  V30 15717 C 1435.3 -5.23222 -4.39007 0
M  V30 15718 O 1434.99 -6.52826 -4.6912 0
M  V30 15719 H 1434.72 -0.293243 -0.609085 0
M  V30 15720 H 1437.28 -1.42941 -1.47502 0
M  V30 15721 H 1435.51 -0.461762 -3.83933 0
M  V30 15722 H 1437.2 -0.860808 -3.96667 0
M  V30 15723 H 1437.96 -3.30842 -3.54639 0
M  V30 15724 H 1433.84 -2.19272 -4.05513 0
M  V30 15725 H 1437.39 -5.6446 -4.09915 0
M  V30 15726 H 1433.28 -4.51988 -4.60844 0
M  V30 15727 H 1434.05 -6.5793 -4.86898 0
M  V30 15728 N 1436.71 1.32449 -0.85411 0
M  V30 15729 C 1437.94 2.01171 -0.470505 0
M  V30 15730 C 1438.35 1.64356 0.937218 0
M  V30 15731 O 1437.69 0.860565 1.62296 0
M  V30 15732 C 1437.76 3.55583 -0.529241 0
M  V30 15733 C 1437.42 4.15824 -1.89576 0
M  V30 15734 C 1438.42 4.34091 -2.86114 0
M  V30 15735 C 1436.1 4.51911 -2.19276 0
M  V30 15736 C 1438.1 4.87612 -4.10504 0
M  V30 15737 C 1435.78 5.05137 -3.43919 0
M  V30 15738 C 1436.78 5.22936 -4.39349 0
M  V30 15739 O 1436.47 5.75024 -5.61785 0
M  V30 15740 H 1436.2 0.650645 -0.183405 0
M  V30 15741 H 1438.76 1.70015 -1.15257 0
M  V30 15742 H 1436.99 3.86131 0.209671 0
M  V30 15743 H 1438.67 4.05579 -0.161315 0
M  V30 15744 H 1439.44 4.06545 -2.64473 0
M  V30 15745 H 1435.32 4.37343 -1.45782 0
M  V30 15746 H 1438.86 5.0142 -4.84999 0
M  V30 15747 H 1434.76 5.32114 -3.6541 0
M  V30 15748 H 1435.53 5.93418 -5.63736 0
M  V30 15749 N 1438.19 0.611994 1.45232 0
M  V30 15750 C 1439.44 0.109073 2.02506 0
M  V30 15751 C 1439.77 -1.25876 1.47881 0
M  V30 15752 O 1439.05 -1.83131 0.65524 0
M  V30 15753 C 1439.33 0.0749288 3.60022 0
M  V30 15754 C 1439.18 1.47374 4.24972 0
M  V30 15755 C 1440.5 -0.610602 4.35844 0
M  V30 15756 H 1437.62 0.0411101 0.735853 0
M  V30 15757 H 1440.26 0.78481 1.73034 0
M  V30 15758 H 1438.41 -0.500511 3.85262 0
M  V30 15759 H 1440.08 2.0966 4.10902 0
M  V30 15760 H 1438.33 2.03319 3.83202 0
M  V30 15761 H 1439 1.40206 5.33897 0
M  V30 15762 H 1441.47 -0.121445 4.15923 0
M  V30 15763 H 1440.35 -0.603614 5.45571 0
M  V30 15764 H 1440.61 -1.6775 4.09038 0
M  V30 15765 N 1439.67 -1.53632 0.351409 0
M  V30 15766 C 1440.9 -2.0516 -0.243498 0
M  V30 15767 C 1441.31 -1.22559 -1.44138 0
M  V30 15768 O 1440.65 -0.255726 -1.81911 0
M  V30 15769 C 1440.71 -3.52324 -0.71469 0
M  V30 15770 C 1440.38 -4.55543 0.364598 0
M  V30 15771 C 1441.37 -5.05626 1.20987 0
M  V30 15772 C 1439.06 -4.99593 0.520779 0
M  V30 15773 C 1441.05 -5.98347 2.1968 0
M  V30 15774 C 1438.74 -5.92123 1.51109 0
M  V30 15775 C 1439.74 -6.41389 2.34754 0
M  V30 15776 O 1439.43 -7.32097 3.32098 0
M  V30 15777 H 1439.16 -0.674193 -0.0493948 0
M  V30 15778 H 1441.71 -1.99123 0.503919 0
M  V30 15779 H 1439.94 -3.55852 -1.51348 0
M  V30 15780 H 1441.63 -3.86783 -1.23102 0
M  V30 15781 H 1442.4 -4.72353 1.10033 0
M  V30 15782 H 1438.28 -4.60843 -0.120466 0
M  V30 15783 H 1441.82 -6.36724 2.85005 0
M  V30 15784 H 1437.72 -6.24811 1.62116 0
M  V30 15785 H 1438.48 -7.50053 3.27662 0
M  V30 15786 N 1441.15 -0.0802183 -1.57396 0
M  V30 15787 C 1442.09 0.884041 -2.13198 0
M  V30 15788 C 1443.06 1.28975 -1.04664 0
M  V30 15789 O 1444.25 1.37413 -1.32372 0
M  V30 15790 C 1441.39 2.14323 -2.7048 0
M  V30 15791 C 1440.5 1.7894 -3.93198 0
M  V30 15792 C 1439.64 2.99534 -4.38695 0
M  V30 15793 C 1438.68 2.60207 -5.54039 0
M  V30 15794 N 1437.81 3.73587 -5.94455 0
M  V30 15795 H 1442.65 0.40131 -2.95285 0
M  V30 15796 H 1440.19 0.186429 -1.45914 0
M  V30 15797 H 1442.15 2.88046 -3.01804 0
M  V30 15798 H 1440.78 2.60122 -1.91144 0
M  V30 15799 H 1439.83 0.952465 -3.68283 0
M  V30 15800 H 1441.14 1.46012 -4.76951 0
M  V30 15801 H 1440.3 3.81526 -4.71724 0
M  V30 15802 H 1439.04 3.35661 -3.53812 0
M  V30 15803 H 1438.04 1.76638 -5.20652 0
M  V30 15804 H 1439.27 2.2524 -6.40659 0
M  V30 15805 H 1437.21 4.0946 -5.12521 0
M  V30 15806 H 1437.13 3.44455 -6.72969 0
M  V30 15807 H 1438.4 4.56133 -6.3211 0
M  V30 15808 N 1442.63 1.56409 0.193394 0
M  V30 15809 C 1443.9 1.71559 0.93951 0
M  V30 15810 C 1444.28 0.635478 2.01308 0
M  V30 15811 O 1443.63 -0.353267 2.25753 0
M  V30 15812 C 1443.84 3.13948 1.52438 0
M  V30 15813 C 1445.19 3.74234 2.00585 0
M  V30 15814 O 1446.21 3.17088 1.62277 0
M  V30 15815 O 1445.07 4.74529 2.71081 0
M  V30 15816 H 1442.17 0.69979 0.440707 0
M  V30 15817 H 1444.71 1.68711 0.182957 0
M  V30 15818 H 1443.48 3.84033 0.750613 0
M  V30 15819 H 1443.11 3.21032 2.34572 0
M  V30 15820 N 1444.1 -0.461169 1.50702 0
M  V30 15821 C 1445.35 -1.21012 1.61866 0
M  V30 15822 C 1445.67 -1.9226 0.325736 0
M  V30 15823 O 1444.94 -1.84543 -0.657306 0
M  V30 15824 H 1443.52 -0.449671 0.596494 0
M  V30 15825 H 1446.18 -0.531056 1.87525 0
M  V30 15826 H 1445.28 -1.95266 2.4347 0
M  V30 15827 N 1445.58 -1.40446 -0.715026 0
M  V30 15828 C 1446.86 -1.29253 -1.4681 0
M  V30 15829 C 1447.24 0.0888738 -2.10913 0
M  V30 15830 O 1446.59 1.10172 -2.00186 0
M  V30 15831 C 1446.8 -2.43173 -2.50335 0
M  V30 15832 C 1448.14 -2.83433 -3.1615 0
M  V30 15833 O 1449.17 -2.4277 -2.60655 0
M  V30 15834 O 1448.03 -3.53687 -4.16615 0
M  V30 15835 H 1445.12 -0.507627 -0.652873 0
M  V30 15836 H 1447.67 -1.52367 -0.747153 0
M  V30 15837 H 1446.44 -3.35438 -2.01486 0
M  V30 15838 H 1446.06 -2.21832 -3.29964 0
M  V30 15839 N 1447.06 0.947303 -1.25952 0
M  V30 15840 C 1448.47 1.50755 -1.10136 0
M  V30 15841 C 1448.82 1.93566 0.320437 0
M  V30 15842 O 1447.95 1.79326 1.21125 0
M  V30 15843 C 1448.54 2.7397 -1.99313 0
M  V30 15844 C 1447.1 3.26283 -1.8766 0
M  V30 15845 C 1446.25 1.99088 -1.93027 0
M  V30 15846 H 1449.2 0.763427 -1.39131 0
M  V30 15847 H 1449.22 3.48057 -1.53742 0
M  V30 15848 H 1448.73 2.42781 -3.02785 0
M  V30 15849 H 1446.83 3.62277 -0.870992 0
M  V30 15850 H 1446.95 3.93803 -2.72866 0
M  V30 15851 H 1445.31 2.14714 -1.37003 0
M  V30 15852 H 1446.09 1.70237 -2.98118 0
M  V30 15853 N 1448.54 1.07657 1.15099 0
M  V30 15854 C 1449.47 0.643791 2.18931 0
M  V30 15855 C 1450.45 -0.340546 1.58994 0
M  V30 15856 O 1451.63 -0.24623 1.86885 0
M  V30 15857 C 1448.76 -0.0541901 3.38657 0
M  V30 15858 C 1447.81 0.889081 4.1713 0
M  V30 15859 S 1448.64 2.39173 4.79121 0
M  V30 15860 C 1449.8 1.70563 6.02212 0
M  V30 15861 H 1450.03 1.52342 2.55302 0
M  V30 15862 H 1447.56 0.890824 1.2611 0
M  V30 15863 H 1449.52 -0.45064 4.08019 0
M  V30 15864 H 1448.18 -0.910208 3.00623 0
M  V30 15865 H 1447.37 0.347484 5.02801 0
M  V30 15866 H 1446.98 1.22606 3.53332 0
M  V30 15867 H 1449.27 1.01914 6.69791 0
M  V30 15868 H 1450.21 2.54078 6.60946 0
M  V30 15869 H 1450.62 1.18228 5.51981 0
M  V30 15870 N 1450.02 -1.31994 0.861122 0
M  V30 15871 C 1450.95 -2.27632 0.267681 0
M  V30 15872 C 1451.96 -1.52709 -0.564265 0
M  V30 15873 O 1453.15 -1.74239 -0.3877 0
M  V30 15874 C 1450.25 -3.32805 -0.639856 0
M  V30 15875 C 1449.42 -4.37116 0.157676 0
M  V30 15876 C 1448.48 -5.21832 -0.676624 0
M  V30 15877 O 1447.51 -5.69098 -0.107822 0
M  V30 15878 N 1448.71 -5.45317 -1.99022 0
M  V30 15879 H 1451.48 -2.79195 1.0895 0
M  V30 15880 H 1449.04 -1.44923 0.721733 0
M  V30 15881 H 1451.03 -3.86391 -1.20348 0
M  V30 15882 H 1449.6 -2.81351 -1.36236 0
M  V30 15883 H 1448.82 -3.83724 0.902741 0
M  V30 15884 H 1450.11 -5.03889 0.70524 0
M  V30 15885 H 1449.5 -5.08656 -2.47558 0
M  V30 15886 H 1448.06 -6.01874 -2.50182 0
M  V30 15887 N 1451.49 -0.619688 -1.44906 0
M  V30 15888 C 1452.74 -0.117147 -2.0136 0
M  V30 15889 C 1453.06 1.2644 -1.49239 0
M  V30 15890 O 1454.26 1.86034 -1.97747 0
M  V30 15891 C 1452.72 -0.15871 -3.5955 0
M  V30 15892 C 1452.33 -1.54086 -4.20668 0
M  V30 15893 C 1454.07 0.287961 -4.23522 0
M  V30 15894 C 1451.98 -1.53816 -5.71047 0
M  V30 15895 H 1450.91 -0.040028 -0.752937 0
M  V30 15896 H 1453.56 -0.776802 -1.66247 0
M  V30 15897 H 1451.94 0.56783 -3.91908 0
M  V30 15898 H 1453.11 -2.29007 -3.99865 0
M  V30 15899 H 1451.43 -1.93065 -3.68938 0
M  V30 15900 H 1454.03 0.309351 -5.33804 0
M  V30 15901 H 1454.37 1.31305 -3.9505 0
M  V30 15902 H 1454.9 -0.385707 -3.95926 0
M  V30 15903 H 1451.64 -2.54124 -6.04236 0
M  V30 15904 H 1451.16 -0.831708 -5.94006 0
M  V30 15905 H 1452.84 -1.26708 -6.34472 0
M  V30 15906 N 1452.97 1.53444 -0.359552 0
M  V30 15907 C 1453.88 2.29257 0.497834 0
M  V30 15908 C 1454.9 1.34987 1.09793 0
M  V30 15909 O 1456.07 1.68039 1.11017 0
M  V30 15910 C 1453.14 3.06258 1.62502 0
M  V30 15911 C 1452.2 4.16183 1.05308 0
M  V30 15912 C 1451.43 4.89503 2.12655 0
M  V30 15913 O 1451.66 4.6263 3.33661 0
M  V30 15914 O 1450.59 5.75578 1.76051 0
M  V30 15915 H 1454.42 3.03467 -0.118925 0
M  V30 15916 H 1452 1.48884 -0.124111 0
M  V30 15917 H 1453.88 3.5436 2.2805 0
M  V30 15918 H 1452.56 2.3489 2.22729 0
M  V30 15919 H 1451.47 3.72348 0.361679 0
M  V30 15920 H 1452.8 4.897 0.49545 0
M  V30 15921 N 1454.45 0.0885642 1.57351 0
M  V30 15922 C 1455.38 -0.869946 2.16689 0
M  V30 15923 C 1456.36 -1.29878 1.09844 0
M  V30 15924 O 1457.55 -1.36684 1.37954 0
M  V30 15925 C 1454.68 -2.13148 2.74199 0
M  V30 15926 C 1453.63 -1.84149 3.86359 0
M  V30 15927 C 1452.96 -3.17075 4.30543 0
M  V30 15928 C 1454.26 -1.13357 5.09851 0
M  V30 15929 H 1455.95 -0.375578 2.97035 0
M  V30 15930 H 1453.5 -0.17921 1.42881 0
M  V30 15931 H 1455.45 -2.80634 3.14361 0
M  V30 15932 H 1454.17 -2.64856 1.91098 0
M  V30 15933 H 1452.83 -1.19063 3.46727 0
M  V30 15934 H 1452.48 -3.66658 3.44342 0
M  V30 15935 H 1452.18 -2.98457 5.06159 0
M  V30 15936 H 1453.7 -3.85731 4.73333 0
M  V30 15937 H 1455.12 -1.70941 5.47222 0
M  V30 15938 H 1453.52 -1.0494 5.90853 0
M  V30 15939 H 1454.59 -0.115273 4.84763 0
M  V30 15940 N 1455.93 -1.56509 -0.185096 0
M  V30 15941 C 1457.34 -1.50318 -0.536334 0
M  V30 15942 C 1457.54 -0.790387 -1.85351 0
M  V30 15943 O 1456.6 -0.345039 -2.50131 0
M  V30 15944 C 1457.91 -2.95017 -0.581825 0
M  V30 15945 C 1459.46 -3.05746 -0.669974 0
M  V30 15946 C 1459.94 -4.51876 -0.746485 0
M  V30 15947 N 1461.43 -4.56067 -0.809746 0
M  V30 15948 C 1462.16 -5.66462 -0.889286 0
M  V30 15949 N 1461.66 -6.86523 -0.930509 0
M  V30 15950 N 1463.45 -5.54399 -0.927246 0
M  V30 15951 H 1455.6 -2.01262 0.678778 0
M  V30 15952 H 1457.87 -0.916313 0.243054 0
M  V30 15953 H 1457.57 -3.50268 0.317089 0
M  V30 15954 H 1457.45 -3.48916 -1.43309 0
M  V30 15955 H 1459.83 -2.50538 -1.55932 0
M  V30 15956 H 1459.91 -2.54955 0.207689 0
M  V30 15957 H 1459.56 -5.07711 0.138546 0
M  V30 15958 H 1459.49 -5.00408 -1.6401 0
M  V30 15959 H 1461.98 -3.6962 -0.786729 0
M  V30 15960 H 1462.29 -7.66407 -0.991992 0
M  V30 15961 H 1460.64 -6.89161 -0.899017 0
M  V30 15962 H 1463.83 -4.59524 -0.891947 0
M  V30 15963 H 1464 -6.40458 -0.985773 0
M  V30 15964 N 1457.41 0.45317 -1.50944 0
M  V30 15965 C 1458.36 1.54689 -1.67498 0
M  V30 15966 C 1459.34 1.51949 -0.529193 0
M  V30 15967 O 1460.53 1.58669 -0.784415 0
M  V30 15968 C 1457.66 2.93006 -1.78892 0
M  V30 15969 C 1456.75 3.00562 -2.99204 0
M  V30 15970 N 1457.14 2.77893 -4.22621 0
M  V30 15971 C 1455.44 3.31712 -2.98132 0
M  V30 15972 C 1456.14 2.90882 -5.03749 0
M  V30 15973 N 1455.11 3.21866 -4.38068 0
M  V30 15974 H 1458.92 1.35889 -2.60598 0
M  V30 15975 H 1456.43 0.660219 -1.48374 0
M  V30 15976 H 1458.43 3.71669 -1.88858 0
M  V30 15977 H 1457.09 3.12838 -0.869626 0
M  V30 15978 H 1458.1 2.53126 -4.51827 0
M  V30 15979 H 1454.77 3.57419 -2.15773 0
M  V30 15980 H 1456.16 2.77444 -6.11943 0
M  V30 15981 N 1458.88 1.40823 0.707568 0
M  V30 15982 C 1460.3 1.23029 1.01666 0
M  V30 15983 C 1460.5 0.111152 2.01193 0
M  V30 15984 O 1459.56 -0.52836 2.4691 0
M  V30 15985 C 1460.87 2.57509 1.55272 0
M  V30 15986 C 1462.42 2.6459 1.67216 0
M  V30 15987 C 1462.89 3.99357 2.24227 0
M  V30 15988 N 1464.38 4.01141 2.31603 0
M  V30 15989 C 1465.12 5.02211 2.76715 0
M  V30 15990 N 1464.61 6.13674 3.21521 0
M  V30 15991 N 1466.41 4.89577 2.76172 0
M  V30 15992 H 1458.56 2.12346 0.0480107 0
M  V30 15993 H 1460.82 0.944281 0.0838885 0
M  V30 15994 H 1460.53 3.40095 0.896012 0
M  V30 15995 H 1460.4 2.79158 2.53674 0
M  V30 15996 H 1462.79 1.8237 2.32002 0
M  V30 15997 H 1462.87 2.46763 0.673927 0
M  V30 15998 H 1462.51 4.8202 1.6006 0
M  V30 15999 H 1462.44 4.14518 3.2478 0
M  V30 16000 H 1464.93 3.20657 1.99968 0
M  V30 16001 H 1465.25 6.86677 3.54534 0
M  V30 16002 H 1463.59 6.17228 3.1946 0
M  V30 16003 H 1466.78 4.01588 2.40509 0
M  V30 16004 H 1466.96 5.68485 3.11012 0
M  V30 16005 N 1460.36 -0.94061 1.26453 0
M  V30 16006 C 1461.27 -2.07298 1.09839 0
M  V30 16007 C 1462.29 -1.73971 0.0317477 0
M  V30 16008 O 1463.46 -2.00017 0.235594 0
M  V30 16009 C 1460.53 -3.38847 0.733736 0
M  V30 16010 C 1459.59 -3.85954 1.87985 0
M  V30 16011 C 1458.82 -5.11224 1.5325 0
M  V30 16012 O 1459.05 -5.68743 0.434491 0
M  V30 16013 O 1457.98 -5.53386 2.36743 0
M  V30 16014 H 1461.81 -2.24222 2.04837 0
M  V30 16015 H 1459.39 -1.05763 1.0552 0
M  V30 16016 H 1461.27 -4.17885 0.543131 0
M  V30 16017 H 1459.95 -3.2316 -0.186843 0
M  V30 16018 H 1458.86 -3.07858 2.12542 0
M  V30 16019 H 1460.19 -4.06162 2.78017 0
M  V30 16020 N 1461.84 -1.08266 -1.14527 0
M  V30 16021 C 1463.09 -0.822513 -1.86028 0
M  V30 16022 C 1463.44 0.644706 -1.81277 0
M  V30 16023 O 1462.73 1.46778 -1.23153 0
M  V30 16024 C 1462.93 -1.27675 -3.33817 0
M  V30 16025 C 1462.76 -2.78659 -3.52958 0
M  V30 16026 C 1461.53 -3.46388 -3.67891 0
M  V30 16027 C 1463.73 -3.76835 -3.49999 0
M  V30 16028 N 1461.71 -4.85918 -3.75176 0
M  V30 16029 C 1463.08 -5.02255 -3.63511 0
M  V30 16030 C 1465.13 -3.6986 -3.33328 0
M  V30 16031 C 1463.84 -6.21527 -3.62073 0
M  V30 16032 C 1465.86 -4.88606 -3.33194 0
M  V30 16033 C 1465.22 -6.12863 -3.47244 0
M  V30 16034 H 1461.32 -0.353671 -0.697453 0
M  V30 16035 H 1463.91 -1.38073 -1.37273 0
M  V30 16036 H 1462.08 -0.746122 -3.81166 0
M  V30 16037 H 1463.81 -0.963174 -3.93071 0
M  V30 16038 H 1460.57 -2.96802 -3.6906 0
M  V30 16039 H 1460.99 -5.58564 -3.82538 0
M  V30 16040 H 1465.63 -2.7473 -3.21377 0
M  V30 16041 H 1463.35 -7.1697 -3.728 0
M  V30 16042 H 1466.94 -4.84895 -3.21509 0
M  V30 16043 H 1465.82 -7.03208 -3.47085 0
M  V30 16044 N 1463.32 1.31536 -0.86811 0
M  V30 16045 C 1464.57 1.97066 -0.478829 0
M  V30 16046 C 1464.9 1.68469 0.966021 0
M  V30 16047 O 1464.17 0.980166 1.67997 0
M  V30 16048 C 1464.46 3.52533 -0.734313 0
M  V30 16049 C 1464.31 3.90711 -2.22856 0
M  V30 16050 C 1465.63 4.39647 -0.199559 0
M  V30 16051 H 1462.75 0.715813 -0.175444 0
M  V30 16052 H 1465.39 1.55694 -1.08901 0
M  V30 16053 H 1463.54 3.87905 -0.214962 0
M  V30 16054 H 1465.21 3.65451 -2.81502 0
M  V30 16055 H 1463.45 3.39385 -2.70185 0
M  V30 16056 H 1464.13 4.99103 -2.35797 0
M  V30 16057 H 1466.6 4.11088 -0.643853 0
M  V30 16058 H 1465.48 5.47383 -0.407783 0
M  V30 16059 H 1465.74 4.32875 0.898414 0
M  V30 16060 N 1464.8 0.627364 1.44575 0
M  V30 16061 C 1465.75 -0.101618 2.27773 0
M  V30 16062 C 1466.73 -0.819759 1.38451 0
M  V30 16063 O 1467.92 -0.706487 1.62289 0
M  V30 16064 C 1465.05 -1.08507 3.25701 0
M  V30 16065 C 1464.14 -0.366745 4.22511 0
M  V30 16066 N 1464.53 0.602571 5.02198 0
M  V30 16067 C 1462.83 -0.611691 4.41785 0
M  V30 16068 C 1463.53 1.02662 5.72569 0
M  V30 16069 N 1462.5 0.366195 5.42365 0
M  V30 16070 H 1466.31 0.642569 2.8679 0
M  V30 16071 H 1463.82 0.452571 1.55967 0
M  V30 16072 H 1465.82 -1.62189 3.84058 0
M  V30 16073 H 1464.48 -1.8296 2.68246 0
M  V30 16074 H 1465.49 0.980215 5.08539 0
M  V30 16075 H 1462.17 -1.33938 3.95432 0
M  V30 16076 H 1463.56 1.82721 6.46578 0
M  V30 16077 N 1466.28 -1.53251 0.367684 0
M  V30 16078 C 1467.5 -2.0618 -0.224645 0
M  V30 16079 C 1467.93 -1.23927 -1.41505 0
M  V30 16080 O 1467.28 -0.258858 -1.79443 0
M  V30 16081 C 1467.33 -3.55671 -0.594171 0
M  V30 16082 O 1466.44 -3.76132 -1.69112 0
M  V30 16083 H 1465.78 -0.663218 -0.0322099 0
M  V30 16084 H 1468.31 -1.97646 0.528897 0
M  V30 16085 H 1468.32 -3.98734 -0.864589 0
M  V30 16086 H 1466.99 -4.14982 0.276254 0
M  V30 16087 H 1465.57 -3.44965 -1.41609 0
M  V30 16088 N 1467.75 -0.0969077 -1.57302 0
M  V30 16089 C 1469.03 0.608737 -1.85886 0
M  V30 16090 C 1469.41 1.86228 -0.994096 0
M  V30 16091 O 1468.76 2.28402 -0.0669975 0
M  V30 16092 C 1468.97 0.922385 -3.3659 0
M  V30 16093 C 1470.32 1.28505 -4.04687 0
M  V30 16094 O 1471.34 1.01334 -3.41482 0
M  V30 16095 O 1470.2 1.794 -5.16215 0
M  V30 16096 H 1467.29 0.304808 -0.768779 0
M  V30 16097 H 1469.84 -0.129742 -1.69203 0
M  V30 16098 H 1468.61 0.0331488 -3.91286 0
M  V30 16099 H 1468.23 1.71678 -3.58626 0
M  V30 16100 N 1469.23 1.56605 0.176793 0
M  V30 16101 C 1470.48 1.81682 0.894302 0
M  V30 16102 C 1470.81 0.67311 1.82481 0
M  V30 16103 O 1470.06 -0.339995 1.92724 0
M  V30 16104 C 1470.36 3.12888 1.7273 0
M  V30 16105 C 1470.03 4.40861 0.946186 0
M  V30 16106 C 1468.69 4.75622 0.730586 0
M  V30 16107 C 1471.04 5.19679 0.397889 0
M  V30 16108 C 1468.37 5.86683 -0.0444995 0
M  V30 16109 C 1470.72 6.31551 -0.36408 0
M  V30 16110 C 1469.38 6.64883 -0.59053 0
M  V30 16111 H 1468.65 0.664823 0.327248 0
M  V30 16112 H 1471.3 1.90834 0.159555 0
M  V30 16113 H 1469.61 2.99055 2.53128 0
M  V30 16114 H 1471.3 3.295 2.2854 0
M  V30 16115 H 1467.89 4.13592 1.12426 0
M  V30 16116 H 1472.08 4.93223 0.55181 0
M  V30 16117 H 1467.33 6.10968 -0.229739 0
M  V30 16118 H 1471.51 6.91833 -0.796223 0
M  V30 16119 H 1469.13 7.50781 -1.19301 0
M  V30 16120 N 1470.71 -0.445159 1.51182 0
M  V30 16121 C 1471.66 -1.53798 1.68316 0
M  V30 16122 C 1472.64 -1.51666 0.537244 0
M  V30 16123 O 1473.84 -1.58251 0.792818 0
M  V30 16124 C 1470.96 -2.92053 1.80444 0
M  V30 16125 C 1470.05 -2.98971 3.00794 0
M  V30 16126 N 1470.44 -2.75648 4.24089 0
M  V30 16127 C 1468.74 -3.30127 2.99887 0
M  V30 16128 C 1469.44 -2.88206 5.05284 0
M  V30 16129 N 1468.42 -3.19538 4.39769 0
M  V30 16130 H 1472.22 -1.34506 2.61315 0
M  V30 16131 H 1469.73 -0.652341 1.48722 0
M  V30 16132 H 1471.73 -3.70663 1.90827 0
M  V30 16133 H 1470.39 -3.12372 0.886204 0
M  V30 16134 H 1471.4 -2.50727 4.53163 0
M  V30 16135 H 1468.08 -3.5627 2.17665 0
M  V30 16136 H 1469.47 -2.74194 6.13406 0
M  V30 16137 N 1472.19 -1.41197 -0.700089 0
M  V30 16138 C 1473.43 -1.40311 -1.46011 0
M  V30 16139 C 1473.76 -0.0106853 -1.94497 0
M  V30 16140 O 1473.02 0.976648 -1.69588 0
M  V30 16141 C 1473.32 -2.35259 -2.6905 0
M  V30 16142 C 1472.98 -3.82194 -2.39245 0
M  V30 16143 C 1471.64 -4.22223 -2.30827 0
M  V30 16144 C 1474 -4.74983 -2.1457 0
M  V30 16145 C 1471.32 -5.53055 -1.95824 0
M  V30 16146 C 1473.68 -6.0613 -1.81077 0
M  V30 16147 C 1472.34 -6.45185 -1.71151 0
M  V30 16148 H 1471.61 -0.513434 -0.534291 0
M  V30 16149 H 1474.26 -1.73963 -0.800574 0
M  V30 16150 H 1472.56 -1.94845 -3.39915 0
M  V30 16151 H 1474.26 -2.31849 -3.2718 0
M  V30 16152 H 1470.85 -3.50488 -2.4669 0
M  V30 16153 H 1475.03 -4.44864 -2.20021 0
M  V30 16154 H 1470.29 -5.822 -1.86689 0
M  V30 16155 H 1474.46 -6.77533 -1.61002 0
M  V30 16156 H 1472.09 -7.46476 -1.43796 0
M  V30 16157 N 1473.67 0.933891 -1.2695 0
M  V30 16158 C 1474.94 1.65874 -1.0366 0
M  V30 16159 C 1475.32 2.0666 0.43066 0
M  V30 16160 O 1474.67 1.79606 1.41259 0
M  V30 16161 C 1474.88 2.86546 -1.99229 0
M  V30 16162 C 1476.23 3.58031 -2.28251 0
M  V30 16163 O 1477.25 2.96663 -1.97154 0
M  V30 16164 O 1476.11 4.68583 -2.81233 0
M  V30 16165 H 1473.21 0.72673 -0.394706 0
M  V30 16166 H 1475.75 0.984975 -1.38189 0
M  V30 16167 H 1474.52 2.53351 -2.9821 0
M  V30 16168 H 1474.15 3.61645 -1.65224 0
M  V30 16169 N 1475.14 1.08871 1.13951 0
M  V30 16170 C 1476.09 0.71755 2.21255 0
M  V30 16171 C 1477.09 -0.278901 1.67088 0
M  V30 16172 O 1478.29 -0.140964 1.79447 0
M  V30 16173 H 1474.67 0.214032 0.720898 0
M  V30 16174 H 1476.64 1.63182 2.49828 0
M  V30 16175 C 1475.39 0.148098 3.47384 0
M  V30 16176 H 1474.71 0.906028 3.89398 0
M  V30 16177 H 1476.15 -0.0737451 4.23936 0
M  V30 16178 C 1474.61 -1.11524 3.17906 0
M  V30 16179 O 1475.14 -2.19937 3.3614 0
M  V30 16180 N 1473.34 -1.0275 2.71829 0
M  V30 16181 H 1472.89 -0.145193 2.5719 0
M  V30 16182 H 1472.85 -1.87353 2.5248 0
M  V30 16183 N 1476.62 -1.31073 0.875073 0
M  V30 16184 C 1477.87 -1.96809 0.489273 0
M  V30 16185 C 1478.2 -1.68979 -0.957073 0
M  V30 16186 O 1477.48 -0.989061 -1.67475 0
M  V30 16187 C 1477.76 -3.52139 0.752998 0
M  V30 16188 C 1477.61 -3.89524 2.24925 0
M  V30 16189 C 1478.93 -4.39535 0.222871 0
M  V30 16190 H 1476.05 -0.714873 0.179238 0
M  V30 16191 H 1478.69 -1.55114 1.09725 0
M  V30 16192 H 1476.84 -3.87785 0.23553 0
M  V30 16193 H 1478.51 -3.63953 2.83436 0
M  V30 16194 H 1476.76 -3.37948 2.71981 0
M  V30 16195 H 1477.43 -4.97845 2.38441 0
M  V30 16196 H 1479.9 -4.10741 0.665645 0
M  V30 16197 H 1478.78 -5.47159 0.436806 0
M  V30 16198 H 1479.04 -4.33346 -0.875445 0
M  V30 16199 N 1478.1 -0.635022 -1.4424 0
M  V30 16200 C 1479.03 0.0543561 -2.33437 0
M  V30 16201 C 1480.01 0.830807 -1.48431 0
M  V30 16202 O 1481.2 0.795913 -1.77141 0
M  V30 16203 C 1478.33 1.03391 -3.31553 0
M  V30 16204 C 1477.28 0.368824 -4.26408 0
M  V30 16205 C 1476.61 1.45855 -5.14422 0
M  V30 16206 C 1477.91 -0.727381 -5.1721 0
M  V30 16207 H 1479.6 -0.690489 -2.91329 0
M  V30 16208 H 1477.15 -0.3335 -1.40085 0
M  V30 16209 H 1479.1 1.52495 -3.9284 0
M  V30 16210 H 1477.82 1.80969 -2.71878 0
M  V30 16211 H 1476.48 -0.101605 -3.66459 0
M  V30 16212 H 1476.13 2.22531 -4.51098 0
M  V30 16213 H 1475.83 1.0189 -5.78699 0
M  V30 16214 H 1477.35 1.95132 -5.78581 0
M  V30 16215 H 1478.77 -0.319272 -5.7241 0
M  V30 16216 H 1477.17 -1.09041 -5.9011 0
M  V30 16217 H 1478.24 -1.59292 -4.57989 0
M  V30 16218 N 1479.58 1.53054 -0.375806 0
M  V30 16219 C 1480.8 2.06296 0.213708 0
M  V30 16220 C 1481.23 1.24675 1.40846 0
M  V30 16221 O 1480.59 0.268371 1.79303 0
M  V30 16222 C 1480.63 3.55981 0.575301 0
M  V30 16223 O 1479.74 3.77023 1.67115 0
M  V30 16224 H 1479.08 0.66338 0.0286922 0
M  V30 16225 H 1481.61 1.97362 -0.539371 0
M  V30 16226 H 1481.62 3.99187 0.843431 0
M  V30 16227 H 1480.29 4.14829 -0.298258 0
M  V30 16228 H 1478.87 3.45712 1.39778 0
M  V30 16229 N 1481.06 0.105248 1.57248 0
M  V30 16230 C 1482.02 -0.835589 2.13426 0
M  V30 16231 C 1483.02 -1.20398 1.06587 0
M  V30 16232 O 1484.21 -1.13175 1.32428 0
M  V30 16233 C 1481.34 -2.12806 2.6632 0
M  V30 16234 H 1482.53 -0.347606 2.97879 0
M  V30 16235 H 1480.09 -0.143855 1.55637 0
M  V30 16236 H 1480.82 -2.66066 1.85416 0
M  V30 16237 H 1480.61 -1.87352 3.44444 0
M  V30 16238 H 1482.1 -2.80089 3.09741 0
M  V30 16239 N 1482.53 -1.56697 -0.168486 0
M  V30 16240 C 1483.47 -1.91738 -1.23741 0
M  V30 16241 C 1484.45 -0.780522 -1.42642 0
M  V30 16242 O 1485.63 -1.0341 -1.57602 0
M  V30 16243 C 1482.76 -2.17077 -2.59991 0
M  V30 16244 C 1481.8 -3.39759 -2.5781 0
M  V30 16245 S 1482.64 -4.94035 -2.06614 0
M  V30 16246 C 1483.79 -5.22472 -3.44636 0
M  V30 16247 H 1484.02 -2.82104 -0.938344 0
M  V30 16248 H 1481.56 -1.49822 -0.373177 0
M  V30 16249 H 1483.52 -2.32356 -3.38409 0
M  V30 16250 H 1482.18 -1.27413 -2.87097 0
M  V30 16251 H 1481.37 -3.54698 -3.58058 0
M  V30 16252 H 1480.97 -3.2361 -1.8749 0
M  V30 16253 H 1483.26 -5.14623 -4.40647 0
M  V30 16254 H 1484.21 -6.24075 -3.34569 0
M  V30 16255 H 1484.61 -4.50034 -3.40779 0
M  V30 16256 N 1484.01 0.437135 -1.51416 0
M  V30 16257 C 1484.95 1.55058 -1.67429 0
M  V30 16258 C 1485.92 1.53997 -0.521878 0
M  V30 16259 O 1487.11 1.73121 -0.74574 0
M  V30 16260 C 1484.23 2.93637 -1.68805 0
M  V30 16261 C 1483.28 3.12721 -2.90013 0
M  V30 16262 S 1484.11 2.88998 -4.50822 0
M  V30 16263 C 1485.27 4.29858 -4.54942 0
M  V30 16264 H 1485.5 1.41241 -2.61607 0
M  V30 16265 H 1483.04 0.62684 -1.41103 0
M  V30 16266 H 1484.99 3.73516 -1.70282 0
M  V30 16267 H 1483.65 3.04816 -0.758031 0
M  V30 16268 H 1482.85 4.14041 -2.87377 0
M  V30 16269 H 1482.45 2.40667 -2.86278 0
M  V30 16270 H 1484.74 5.23062 -4.30596 0
M  V30 16271 H 1485.68 4.37528 -5.56754 0
M  V30 16272 H 1486.09 4.13523 -3.84265 0
M  V30 16273 N 1485.49 1.41566 0.692592 0
M  V30 16274 C 1486.72 1.44646 1.48635 0
M  V30 16275 C 1487.14 0.0541597 1.88022 0
M  V30 16276 O 1486.5 -0.943305 1.54827 0
M  V30 16277 C 1486.55 2.3636 2.72335 0
M  V30 16278 O 1485.65 1.8227 3.69934 0
M  V30 16279 H 1484.99 0.490791 0.447236 0
M  V30 16280 H 1487.52 1.8606 0.851056 0
M  V30 16281 H 1487.53 2.52337 3.20609 0
M  V30 16282 H 1486.21 3.37523 2.43004 0
M  V30 16283 H 1484.78 1.75759 3.28882 0
M  V30 16284 N 1486.97 -0.927146 1.27443 0
M  V30 16285 C 1487.9 -2.04483 1.12735 0
M  V30 16286 C 1488.88 -1.70076 0.0286662 0
M  V30 16287 O 1490.06 -1.93133 0.203252 0
M  V30 16288 C 1487.19 -3.38557 0.774352 0
M  V30 16289 C 1486.15 -3.87078 1.82632 0
M  V30 16290 C 1485.47 -5.17964 1.32729 0
M  V30 16291 C 1486.77 -4.10409 3.23051 0
M  V30 16292 H 1488.47 -2.17046 2.06231 0
M  V30 16293 H 1486.01 -1.04292 0.992937 0
M  V30 16294 H 1487.97 -4.16227 0.658273 0
M  V30 16295 H 1486.69 -3.26009 -0.196321 0
M  V30 16296 H 1485.35 -3.11602 1.93132 0
M  V30 16297 H 1485 -5.01808 0.346059 0
M  V30 16298 H 1484.7 -5.51398 2.03061 0
M  V30 16299 H 1486.22 -5.98203 1.22416 0
M  V30 16300 H 1487.64 -4.78646 3.15549 0
M  V30 16301 H 1486.03 -4.5515 3.91099 0
M  V30 16302 H 1487.1 -3.15685 3.68064 0
M  V30 16303 N 1488.45 -1.09474 -1.13372 0
M  V30 16304 C 1489.69 -0.831091 -1.84659 0
M  V30 16305 C 1490.02 0.643294 -1.83554 0
M  V30 16306 O 1489.28 1.48958 -1.26925 0
M  V30 16307 C 1489.58 -1.31208 -3.32444 0
M  V30 16308 C 1489.24 -2.79617 -3.5373 0
M  V30 16309 C 1487.9 -3.20147 -3.59248 0
M  V30 16310 C 1490.26 -3.75303 -3.61659 0
M  V30 16311 C 1487.58 -4.55135 -3.70228 0
M  V30 16312 C 1489.94 -5.1008 -3.74167 0
M  V30 16313 C 1488.6 -5.50199 -3.77938 0
M  V30 16314 H 1487.87 -0.304118 -0.675717 0
M  V30 16315 H 1490.52 -1.36961 -1.33843 0
M  V30 16316 H 1488.82 -0.693379 -3.85616 0
M  V30 16317 H 1490.52 -1.08469 -3.86051 0
M  V30 16318 H 1487.11 -2.47253 -3.50091 0
M  V30 16319 H 1491.29 -3.45103 -3.56676 0
M  V30 16320 H 1486.55 -4.85656 -3.71414 0
M  V30 16321 H 1490.72 -5.84077 -3.79245 0
M  V30 16322 H 1488.35 -6.54794 -3.86198 0
M  V30 16323 N 1489.92 1.30607 -0.882012 0
M  V30 16324 C 1491.15 2.00418 -0.513815 0
M  V30 16325 C 1491.57 1.66135 0.896916 0
M  V30 16326 O 1490.92 0.89691 1.5894 0
M  V30 16327 C 1490.98 3.55133 -0.675503 0
M  V30 16328 O 1490.7 3.88194 -2.03069 0
M  V30 16329 C 1492.2 4.42215 -0.309906 0
M  V30 16330 H 1489.42 0.640839 -0.198913 0
M  V30 16331 H 1491.96 1.66561 -1.1865 0
M  V30 16332 H 1490.12 3.87367 -0.0502289 0
M  V30 16333 H 1490.53 4.82899 -2.04717 0
M  V30 16334 H 1492 5.49962 -0.473948 0
M  V30 16335 H 1492.48 4.32717 0.751852 0
M  V30 16336 H 1493.09 4.1542 -0.91138 0
M  V30 16337 N 1491.4 0.642663 1.43901 0
M  V30 16338 C 1492.65 0.152003 2.0223 0
M  V30 16339 C 1492.98 -1.22711 1.50518 0
M  V30 16340 O 1492.26 -1.817 0.693937 0
M  V30 16341 C 1492.54 0.151278 3.59782 0
M  V30 16342 C 1492.39 1.56356 4.2175 0
M  V30 16343 C 1493.71 -0.518016 4.37041 0
M  V30 16344 H 1490.83 0.0567094 0.734815 0
M  V30 16345 H 1493.47 0.821337 1.7133 0
M  V30 16346 H 1491.62 -0.418679 3.86237 0
M  V30 16347 H 1493.29 2.18329 4.06362 0
M  V30 16348 H 1491.54 2.11401 3.78803 0
M  V30 16349 H 1492.21 1.51499 5.30803 0
M  V30 16350 H 1494.68 -0.0331947 4.16087 0
M  V30 16351 H 1493.56 -0.487754 5.46729 0
M  V30 16352 H 1493.82 -1.59036 4.12504 0
M  V30 16353 N 1492.88 -1.52852 0.383918 0
M  V30 16354 C 1494.11 -2.06406 -0.202764 0
M  V30 16355 C 1494.53 -1.25421 -1.40183 0
M  V30 16356 O 1493.89 -0.277876 -1.79158 0
M  V30 16357 C 1493.94 -3.56281 -0.556414 0
M  V30 16358 O 1493.04 -3.77904 -1.65113 0
M  V30 16359 H 1492.38 -0.663523 -0.0251737 0
M  V30 16360 H 1494.91 -1.97074 0.54983 0
M  V30 16361 H 1494.92 -3.99629 -0.822249 0
M  V30 16362 H 1493.6 -4.14665 0.320253 0
M  V30 16363 H 1492.17 -3.46448 -1.37943 0
M  V30 16364 N 1494.36 -0.113586 -1.5719 0
M  V30 16365 C 1495.59 0.553592 -1.99356 0
M  V30 16366 C 1496 1.60567 -0.993154 0
M  V30 16367 O 1495.36 1.82494 0.0147252 0
M  V30 16368 C 1495.41 1.18462 -3.41539 0
M  V30 16369 O 1495.13 0.174602 -4.37752 0
M  V30 16370 C 1496.63 1.93564 -3.98808 0
M  V30 16371 H 1493.85 0.146998 -0.6547 0
M  V30 16372 H 1496.4 -0.198329 -2.03536 0
M  V30 16373 H 1494.55 1.88736 -3.38316 0
M  V30 16374 H 1494.97 0.632395 -5.20674 0
M  V30 16375 H 1496.44 2.33051 -5.00391 0
M  V30 16376 H 1496.92 2.80874 -3.37648 0
M  V30 16377 H 1497.52 1.28066 -4.0556 0
M  V30 16378 N 1495.84 1.56784 0.160173 0
M  V30 16379 C 1497.08 1.82621 0.874982 0
M  V30 16380 C 1497.41 0.692427 1.81757 0
M  V30 16381 O 1496.67 -0.319535 1.93074 0
M  V30 16382 C 1496.97 3.14703 1.69402 0
M  V30 16383 C 1496.63 4.41839 0.899373 0
M  V30 16384 C 1495.29 4.7637 0.680099 0
M  V30 16385 C 1497.65 5.20072 0.342747 0
M  V30 16386 C 1494.97 5.86603 -0.106723 0
M  V30 16387 C 1497.33 6.3113 -0.431044 0
M  V30 16388 C 1495.99 6.64219 -0.661017 0
M  V30 16389 H 1495.26 0.668256 0.320178 0
M  V30 16390 H 1497.91 1.90993 0.139305 0
M  V30 16391 H 1496.21 3.01723 2.49941 0
M  V30 16392 H 1497.91 3.31906 2.25032 0
M  V30 16393 H 1494.5 4.14761 1.08033 0
M  V30 16394 H 1498.68 4.9378 0.499467 0
M  V30 16395 H 1493.94 6.1069 -0.294528 0
M  V30 16396 H 1498.11 6.9095 -0.869557 0
M  V30 16397 H 1495.74 7.49473 -1.27257 0
M  V30 16398 N 1497.32 -0.429099 1.51646 0
M  V30 16399 C 1498.23 -1.54648 1.76412 0
M  V30 16400 C 1499.24 -1.61455 0.648703 0
M  V30 16401 O 1500.42 -1.78544 0.931888 0
M  V30 16402 C 1497.48 -2.90562 1.89142 0
M  V30 16403 C 1496.54 -2.93804 3.13014 0
M  V30 16404 C 1495.78 -4.23235 3.25127 0
M  V30 16405 O 1496 -5.1606 2.42979 0
M  V30 16406 O 1494.93 -4.32929 4.18158 0
M  V30 16407 H 1498.76 -1.36661 2.71215 0
M  V30 16408 H 1496.34 -0.612946 1.36247 0
M  V30 16409 H 1498.23 -3.7121 1.99453 0
M  V30 16410 H 1496.9 -3.08659 0.975272 0
M  V30 16411 H 1495.81 -2.12082 3.08175 0
M  V30 16412 H 1497.14 -2.80654 4.04344 0
M  V30 16413 N 1498.79 -1.41931 -0.685074 0
M  V30 16414 C 1500.04 -1.41571 -1.44229 0
M  V30 16415 C 1500.36 -0.0294445 -1.94978 0
M  V30 16416 O 1499.63 0.930414 -1.72395 0
M  V30 16417 H 1498.21 -0.521138 -0.535186 0
M  V30 16418 H 1500.87 -1.77263 -0.81017 0
M  V30 16419 H 1499.97 -2.10929 -2.30034 0
M  V30 16420 N 1500.27 0.920374 -1.27933 0
M  V30 16421 C 1501.52 1.67163 -1.1588 0
M  V30 16422 C 1501.87 1.90186 0.291025 0
M  V30 16423 O 1501.17 1.4864 1.209 0
M  V30 16424 C 1501.36 3.03725 -1.88377 0
M  V30 16425 C 1501.19 2.94029 -3.4026 0
M  V30 16426 C 1499.96 2.95912 -4.0959 0
M  V30 16427 C 1502.16 2.72596 -4.36115 0
M  V30 16428 N 1500.14 2.76734 -5.47988 0
M  V30 16429 C 1501.51 2.62196 -5.6183 0
M  V30 16430 C 1503.56 2.57541 -4.26119 0
M  V30 16431 C 1502.27 2.38276 -6.78688 0
M  V30 16432 C 1504.29 2.35 -5.42705 0
M  V30 16433 C 1503.66 2.25348 -6.67381 0
M  V30 16434 H 1499.75 0.618178 -0.478936 0
M  V30 16435 H 1502.34 1.0875 -1.61498 0
M  V30 16436 H 1500.51 3.60237 -1.45203 0
M  V30 16437 H 1502.24 3.67832 -1.68765 0
M  V30 16438 H 1499 3.06418 -3.61116 0
M  V30 16439 H 1499.42 2.70256 -6.20718 0
M  V30 16440 H 1504.06 2.63757 -3.30442 0
M  V30 16441 H 1501.78 2.30799 -7.7444 0
M  V30 16442 H 1505.37 2.24225 -5.36856 0
M  V30 16443 H 1504.25 2.08143 -7.56073 0
M  V30 16444 N 1501.75 1.10074 1.1279 0
M  V30 16445 C 1503.16 0.859181 1.65756 0
M  V30 16446 C 1503.51 -0.611193 1.86437 0
M  V30 16447 O 1502.64 -1.46997 1.58811 0
M  V30 16448 C 1503.23 1.55312 3.01104 0
M  V30 16449 C 1501.79 1.35836 3.51035 0
M  V30 16450 C 1500.94 1.60491 2.26137 0
M  V30 16451 H 1503.89 1.25897 0.966211 0
M  V30 16452 H 1503.91 0.990001 3.67395 0
M  V30 16453 H 1503.42 2.62325 2.8602 0
M  V30 16454 H 1501.52 0.309694 3.71311 0
M  V30 16455 H 1501.64 2.09777 4.30732 0
M  V30 16456 H 1500 1.02742 2.33058 0
M  V30 16457 H 1500.78 2.68748 2.1361 0
M  V30 16458 N 1503.23 -1.30138 0.888926 0
M  V30 16459 C 1504.16 -2.27013 0.315904 0
M  V30 16460 C 1505.17 -1.53871 -0.531746 0
M  V30 16461 O 1506.36 -1.75022 -0.350654 0
M  V30 16462 C 1503.46 -3.34087 -0.569119 0
M  V30 16463 C 1502.63 -4.36683 0.250359 0
M  V30 16464 C 1501.69 -5.23149 -0.565783 0
M  V30 16465 O 1500.72 -5.69199 0.0129167 0
M  V30 16466 N 1501.92 -5.49416 -1.8741 0
M  V30 16467 H 1504.69 -2.76821 1.14848 0
M  V30 16468 H 1502.25 -1.43359 0.752311 0
M  V30 16469 H 1504.24 -3.88857 -1.12125 0
M  V30 16470 H 1502.81 -2.84178 -1.30237 0
M  V30 16471 H 1502.03 -3.81723 0.983931 0
M  V30 16472 H 1503.32 -5.02279 0.811964 0
M  V30 16473 H 1502.72 -5.13793 -2.36713 0
M  V30 16474 H 1501.27 -6.07045 -2.37359 0
M  V30 16475 N 1504.71 -0.650285 -1.43559 0
M  V30 16476 C 1505.64 0.0295939 -2.33481 0
M  V30 16477 C 1506.62 0.815017 -1.49303 0
M  V30 16478 O 1507.8 0.77708 -1.77975 0
M  V30 16479 C 1504.93 0.998683 -3.32631 0
M  V30 16480 C 1503.89 0.323577 -4.26775 0
M  V30 16481 C 1503.21 1.40391 -5.1594 0
M  V30 16482 C 1504.51 -0.782197 -5.1641 0
M  V30 16483 H 1506.21 -0.721349 -2.9058 0
M  V30 16484 H 1503.75 -0.348339 -1.39723 0
M  V30 16485 H 1505.7 1.4832 -3.94435 0
M  V30 16486 H 1504.43 1.78075 -2.73782 0
M  V30 16487 H 1503.09 -0.140467 -3.66331 0
M  V30 16488 H 1502.74 2.17734 -4.53432 0
M  V30 16489 H 1502.44 0.957462 -5.79747 0
M  V30 16490 H 1503.96 1.88985 -5.80618 0
M  V30 16491 H 1505.37 -0.379966 -5.72039 0
M  V30 16492 H 1503.77 -1.15293 -5.88921 0
M  V30 16493 H 1504.84 -1.6414 -4.56274 0
M  V30 16494 N 1506.18 1.52647 -0.392018 0
M  V30 16495 C 1507.11 2.29446 0.433228 0
M  V30 16496 C 1508.09 1.32945 1.06111 0
M  V30 16497 O 1509.28 1.61841 1.07337 0
M  V30 16498 C 1506.41 3.10328 1.55929 0
M  V30 16499 C 1505.36 4.14735 1.05731 0
M  V30 16500 C 1504.69 4.83858 2.27565 0
M  V30 16501 C 1505.99 5.22154 0.123346 0
M  V30 16502 H 1507.68 2.9868 -0.207563 0
M  V30 16503 H 1505.23 1.43643 -0.101266 0
M  V30 16504 H 1507.18 3.62814 2.14346 0
M  V30 16505 H 1505.91 2.38832 2.22771 0
M  V30 16506 H 1504.57 3.63234 0.495653 0
M  V30 16507 H 1504.21 4.08907 2.92923 0
M  V30 16508 H 1503.91 5.54428 1.94637 0
M  V30 16509 H 1505.44 5.39149 2.86619 0
M  V30 16510 H 1506.85 5.69983 0.615784 0
M  V30 16511 H 1505.25 5.99987 -0.116304 0
M  V30 16512 H 1506.32 4.77796 -0.826969 0
M  V30 16513 N 1507.66 0.121921 1.57128 0
M  V30 16514 C 1508.89 -0.542225 1.99358 0
M  V30 16515 C 1509.3 -1.60578 1.00057 0
M  V30 16516 O 1508.64 -1.83694 -0.0142649 0
M  V30 16517 C 1508.71 -1.22448 3.38004 0
M  V30 16518 C 1508.37 -0.308522 4.55957 0
M  V30 16519 C 1509.37 0.454012 5.17914 0
M  V30 16520 C 1507.05 -0.218741 5.01823 0
M  V30 16521 C 1509.05 1.29403 6.24126 0
M  V30 16522 C 1506.73 0.624906 6.07896 0
M  V30 16523 C 1507.73 1.37992 6.68915 0
M  V30 16524 O 1507.42 2.20955 7.72938 0
M  V30 16525 H 1507.15 -0.147894 0.659624 0
M  V30 16526 H 1509.7 0.205954 2.04365 0
M  V30 16527 H 1507.93 -2.01979 3.2976 0
M  V30 16528 H 1509.62 -1.78583 3.64504 0
M  V30 16529 H 1510.39 0.394539 4.83393 0
M  V30 16530 H 1506.27 -0.796109 4.54074 0
M  V30 16531 H 1509.81 1.88382 6.71683 0
M  V30 16532 H 1505.71 0.685762 6.41847 0
M  V30 16533 H 1506.48 2.13929 7.90049 0
M  V30 16534 N 1509.14 -1.56867 -0.151857 0
M  V30 16535 C 1510.09 -1.97899 -1.18763 0
M  V30 16536 C 1511.06 -0.845833 -1.42951 0
M  V30 16537 O 1512.24 -1.10751 -1.55367 0
M  V30 16538 C 1509.38 -2.36063 -2.5173 0
M  V30 16539 C 1508.5 -3.62647 -2.34757 0
M  V30 16540 C 1507.63 -3.89936 -3.60726 0
M  V30 16541 C 1506.67 -5.09806 -3.38769 0
M  V30 16542 N 1505.81 -5.33129 -4.56856 0
M  V30 16543 H 1510.65 -2.86187 -0.830713 0
M  V30 16544 H 1508.18 -1.41592 -0.398745 0
M  V30 16545 H 1510.14 -2.56218 -3.29254 0
M  V30 16546 H 1508.77 -1.50861 -2.85379 0
M  V30 16547 H 1507.82 -3.50297 -1.48312 0
M  V30 16548 H 1509.14 -4.50328 -2.1449 0
M  V30 16549 H 1508.29 -4.10563 -4.4668 0
M  V30 16550 H 1507.03 -3.00668 -3.83993 0
M  V30 16551 H 1506.03 -4.89057 -2.51203 0
M  V30 16552 H 1507.26 -6.00623 -3.16906 0
M  V30 16553 H 1505.2 -4.46815 -4.80305 0
M  V30 16554 H 1505.12 -6.1507 -4.39574 0
M  V30 16555 H 1506.39 -5.5825 -5.44038 0
M  V30 16556 N 1510.62 0.421051 -1.51871 0
M  V30 16557 C 1511.58 1.49478 -1.73749 0
M  V30 16558 C 1512.58 1.48887 -0.607395 0
M  V30 16559 O 1513.77 1.50622 -0.875143 0
M  V30 16560 C 1510.9 2.88947 -1.80893 0
M  V30 16561 H 1512.1 1.31377 -2.69593 0
M  V30 16562 H 1509.65 0.650786 -1.42107 0
M  V30 16563 H 1510.38 3.12434 -0.86922 0
M  V30 16564 H 1510.17 2.90781 -2.63038 0
M  V30 16565 H 1511.66 3.66809 -1.99602 0
M  V30 16566 N 1512.1 1.42293 0.677538 0
M  V30 16567 C 1513.35 1.41909 1.43334 0
M  V30 16568 C 1513.66 0.037951 1.95563 0
M  V30 16569 O 1514.86 -0.0884836 2.71356 0
M  V30 16570 C 1513.32 2.49608 2.59275 0
M  V30 16571 C 1512.93 3.93716 2.13757 0
M  V30 16572 C 1514.67 2.58387 3.36803 0
M  V30 16573 C 1512.58 4.92929 3.26764 0
M  V30 16574 H 1511.51 0.527803 0.538461 0
M  V30 16575 H 1514.16 1.6819 0.733791 0
M  V30 16576 H 1512.54 2.16488 3.31585 0
M  V30 16577 H 1513.72 4.36176 1.48618 0
M  V30 16578 H 1512.03 3.88762 1.49175 0
M  V30 16579 H 1514.63 3.29691 4.20961 0
M  V30 16580 H 1514.97 1.62653 3.8321 0
M  V30 16581 H 1515.5 2.90688 2.71561 0
M  V30 16582 H 1512.24 5.90131 2.85352 0
M  V30 16583 H 1511.76 4.55103 3.90694 0
M  V30 16584 H 1513.44 5.1452 3.92273 0
M  V30 16585 N 1513.57 -0.913576 1.28419 0
M  V30 16586 C 1514.85 -1.64203 1.06285 0
M  V30 16587 C 1515.23 -2.07319 -0.397728 0
M  V30 16588 O 1514.58 -1.8183 -1.38383 0
M  V30 16589 C 1514.79 -2.8334 2.03763 0
M  V30 16590 C 1516.14 -3.54355 2.33918 0
M  V30 16591 O 1517.16 -2.93489 2.01848 0
M  V30 16592 O 1516.02 -4.6405 2.88652 0
M  V30 16593 H 1513.11 -0.720359 0.406217 0
M  V30 16594 H 1515.66 -0.962866 1.39739 0
M  V30 16595 H 1514.43 -2.48575 3.02203 0
M  V30 16596 H 1514.06 -3.5897 1.70956 0
M  V30 16597 N 1515.05 -1.1067 -1.12204 0
M  V30 16598 C 1516.28 -0.873095 -1.88127 0
M  V30 16599 C 1516.7 0.571099 -1.79221 0
M  V30 16600 O 1516.06 1.40251 -1.14888 0
M  V30 16601 C 1516.11 -1.32922 -3.35208 0
M  V30 16602 O 1515.21 -0.495807 -4.09409 0
M  V30 16603 H 1514.55 -0.315138 -0.584452 0
M  V30 16604 H 1517.08 -1.47413 -1.41882 0
M  V30 16605 H 1517.09 -1.32023 -3.86049 0
M  V30 16606 H 1515.77 -2.38091 -3.41007 0
M  V30 16607 H 1514.35 -0.570216 -3.68515 0
M  V30 16608 N 1516.53 1.29665 -0.895815 0
M  V30 16609 C 1517.48 2.29791 -0.360404 0
M  V30 16610 C 1518.47 1.60617 0.538384 0
M  V30 16611 O 1519.68 1.74993 0.421616 0
M  V30 16612 H 1516.05 0.745599 -0.0979118 0
M  V30 16613 H 1518.02 2.72396 -1.21832 0
M  V30 16614 C 1516.77 3.45386 0.400451 0
M  V30 16615 H 1516.1 3.98805 -0.281915 0
M  V30 16616 H 1517.54 4.17492 0.740003 0
M  V30 16617 C 1516 2.96393 1.60165 0
M  V30 16618 O 1516.53 2.97339 2.70097 0
M  V30 16619 N 1514.73 2.52271 1.44249 0
M  V30 16620 H 1514.28 2.51701 0.548142 0
M  V30 16621 H 1514.24 2.19849 2.24753 0
M  V30 16622 N 1518.01 0.657889 1.43212 0
M  V30 16623 C 1518.97 -0.0214783 2.2919 0
M  V30 16624 C 1519.97 -0.745921 1.42452 0
M  V30 16625 O 1521.16 -0.586468 1.64031 0
M  V30 16626 C 1518.29 -1.04115 3.24612 0
M  V30 16627 H 1519.49 0.735072 2.90752 0
M  V30 16628 H 1517.04 0.419354 1.50569 0
M  V30 16629 H 1517.77 -1.82677 2.67954 0
M  V30 16630 H 1517.56 -0.525285 3.88566 0
M  V30 16631 H 1519.05 -1.51544 3.89132 0
M  V30 16632 N 1519.49 -1.52437 0.400108 0
M  V30 16633 C 1520.4 -2.30496 -0.436875 0
M  V30 16634 C 1521.41 -1.37851 -1.06175 0
M  V30 16635 O 1522.59 -1.70924 -1.06522 0
M  V30 16636 C 1519.65 -3.10459 -1.54325 0
M  V30 16637 C 1518.71 -4.18829 -0.942367 0
M  V30 16638 C 1517.95 -4.94969 -1.99602 0
M  V30 16639 O 1518.17 -4.71314 -3.21278 0
M  V30 16640 O 1517.1 -5.80043 -1.60728 0
M  V30 16641 H 1520.93 -3.03045 0.199343 0
M  V30 16642 H 1518.52 -1.48502 0.163541 0
M  V30 16643 H 1520.4 -3.60282 -2.18575 0
M  V30 16644 H 1519.07 -2.40713 -2.16423 0
M  V30 16645 H 1517.98 -3.73176 -0.262831 0
M  V30 16646 H 1519.31 -4.90841 -0.365441 0
M  V30 16647 N 1520.96 -0.130252 -1.57061 0
M  V30 16648 C 1522.24 0.569171 -1.87136 0
M  V30 16649 C 1522.62 1.84078 -1.03337 0
M  V30 16650 O 1521.97 2.28208 -0.11543 0
M  V30 16651 C 1522.18 0.850782 -3.38471 0
M  V30 16652 C 1523.53 1.19892 -4.07322 0
M  V30 16653 O 1524.55 0.940682 -3.43554 0
M  V30 16654 O 1523.41 1.6841 -5.19904 0
M  V30 16655 H 1520.5 0.288433 -0.775071 0
M  V30 16656 H 1523.05 -0.165603 -1.6889 0
M  V30 16657 H 1521.82 -0.0498562 -3.91268 0
M  V30 16658 H 1521.45 1.64032 -3.62187 0
M  V30 16659 N 1522.44 1.56945 0.143535 0
M  V30 16660 C 1523.69 1.8381 0.856831 0
M  V30 16661 C 1524.02 0.712375 1.80662 0
M  V30 16662 O 1523.3 -0.283743 1.92419 0
M  V30 16663 C 1523.58 3.21184 1.62828 0
M  V30 16664 C 1523.43 4.44324 0.699744 0
M  V30 16665 C 1524.75 3.5582 2.58999 0
M  V30 16666 H 1521.87 0.668611 0.310046 0
M  V30 16667 H 1524.51 1.89609 0.1219 0
M  V30 16668 H 1522.66 3.16372 2.2548 0
M  V30 16669 H 1524.34 4.61224 0.0839619 0
M  V30 16670 H 1522.58 4.33799 0.0095529 0
M  V30 16671 H 1523.25 5.37058 1.27564 0
M  V30 16672 H 1525.73 3.61264 2.06464 0
M  V30 16673 H 1524.6 4.52964 3.10024 0
M  V30 16674 H 1524.86 2.81956 3.40519 0
M  V30 16675 N 1523.92 -0.412991 1.52093 0
M  V30 16676 C 1525.17 -1.15801 1.65634 0
M  V30 16677 C 1525.49 -1.91127 0.386737 0
M  V30 16678 O 1524.76 -1.86541 -0.598262 0
M  V30 16679 H 1523.34 -0.430467 0.610498 0
M  V30 16680 H 1526 -0.471127 1.8912 0
M  V30 16681 H 1525.1 -1.87421 2.49559 0
M  V30 16682 N 1525.4 -1.4265 -0.669982 0
M  V30 16683 C 1526.81 -1.38614 -1.25072 0
M  V30 16684 C 1527.16 -0.0818051 -1.96029 0
M  V30 16685 O 1526.29 0.81931 -2.0029 0
M  V30 16686 C 1526.88 -2.51085 -2.27469 0
M  V30 16687 C 1525.44 -2.50366 -2.81059 0
M  V30 16688 C 1524.59 -2.29632 -1.5545 0
M  V30 16689 H 1527.54 -1.51794 -0.463058 0
M  V30 16690 H 1527.56 -2.21612 -3.09303 0
M  V30 16691 H 1527.07 -3.46002 -1.75796 0
M  V30 16692 H 1525.17 -1.5928 -3.36839 0
M  V30 16693 H 1525.29 -3.47569 -3.29746 0
M  V30 16694 H 1523.65 -1.77982 -1.82193 0
M  V30 16695 H 1524.43 -3.26611 -1.05736 0
M  V30 16696 N 1526.88 0.906753 -1.28902 0
M  V30 16697 C 1528.13 1.65119 -1.15839 0
M  V30 16698 C 1528.44 1.93426 0.290825 0
M  V30 16699 O 1529.65 2.66021 0.542678 0
M  V30 16700 C 1528.1 2.97492 -2.0255 0
M  V30 16701 C 1527.71 2.76807 -3.52253 0
M  V30 16702 C 1529.45 3.75393 -1.98192 0
M  V30 16703 C 1527.36 4.04863 -4.31091 0
M  V30 16704 H 1526.29 0.619409 -0.429939 0
M  V30 16705 H 1528.94 1.00567 -1.53488 0
M  V30 16706 H 1527.32 3.63217 -1.57763 0
M  V30 16707 H 1528.5 2.19719 -4.05044 0
M  V30 16708 H 1526.81 2.1231 -3.58209 0
M  V30 16709 H 1529.41 4.70325 -2.54358 0
M  V30 16710 H 1529.75 4.05074 -0.960267 0
M  V30 16711 H 1530.29 3.16498 -2.40985 0
M  V30 16712 H 1527.02 3.80353 -5.33865 0
M  V30 16713 H 1526.54 4.61537 -3.83072 0
M  V30 16714 H 1528.22 4.73066 -4.41381 0
M  V30 16715 N 1528.36 1.11264 1.11616 0
M  V30 16716 C 1529.59 0.881522 1.8685 0
M  V30 16717 C 1529.99 -0.572088 1.80344 0
M  V30 16718 O 1529.34 -1.40665 1.18148 0
M  V30 16719 C 1529.4 1.26245 3.36604 0
M  V30 16720 C 1529.06 2.72485 3.6688 0
M  V30 16721 C 1530.06 3.70708 3.64516 0
M  V30 16722 C 1527.74 3.09086 3.95943 0
M  V30 16723 C 1529.74 5.0355 3.90789 0
M  V30 16724 C 1527.43 4.42114 4.21875 0
M  V30 16725 C 1528.42 5.39155 4.19286 0
M  V30 16726 O 1528.11 6.69787 4.44568 0
M  V30 16727 H 1527.84 0.315647 0.597782 0
M  V30 16728 H 1530.4 1.48317 1.42095 0
M  V30 16729 H 1528.63 0.603938 3.81955 0
M  V30 16730 H 1530.32 1.00744 3.93199 0
M  V30 16731 H 1531.08 3.43776 3.42115 0
M  V30 16732 H 1526.96 2.34171 3.97095 0
M  V30 16733 H 1530.51 5.79285 3.88684 0
M  V30 16734 H 1526.4 4.6878 4.43751 0
M  V30 16735 H 1527.17 6.75548 4.62144 0
M  V30 16736 N 1529.83 -1.29188 0.902679 0
M  V30 16737 C 1530.78 -2.29597 0.372585 0
M  V30 16738 C 1531.78 -1.609 -0.529858 0
M  V30 16739 O 1532.98 -1.75214 -0.41233 0
M  V30 16740 H 1529.36 -0.745069 0.101864 0
M  V30 16741 H 1531.33 -2.71746 1.23275 0
M  V30 16742 C 1530.08 -3.45594 -0.382128 0
M  V30 16743 H 1529.4 -3.9865 0.303061 0
M  V30 16744 H 1530.84 -4.17879 -0.717852 0
M  V30 16745 C 1529.3 -2.97238 -1.58591 0
M  V30 16746 O 1529.83 -2.98767 -2.68517 0
M  V30 16747 N 1528.03 -2.53032 -1.42909 0
M  V30 16748 H 1527.58 -2.51988 -0.534786 0
M  V30 16749 H 1527.54 -2.21038 -2.23584 0
M  V30 16750 N 1531.31 -0.665475 -1.42861 0
M  V30 16751 C 1532.26 0.030395 -2.3258 0
M  V30 16752 C 1533.25 0.800329 -1.49302 0
M  V30 16753 O 1534.46 0.709346 -1.65434 0
M  V30 16754 H 1530.83 0.0286201 -0.751455 0
M  V30 16755 H 1532.81 -0.743838 -2.8898 0
M  V30 16756 C 1531.55 0.974474 -3.33765 0
M  V30 16757 H 1530.88 0.391447 -3.97879 0
M  V30 16758 H 1532.32 1.43023 -3.99149 0
M  V30 16759 C 1530.78 2.0764 -2.65306 0
M  V30 16760 O 1531.31 3.16172 -2.47787 0
M  V30 16761 N 1529.51 1.84544 -2.24481 0
M  V30 16762 H 1529.06 0.962826 -2.3893 0
M  V30 16763 H 1529.02 2.58464 -1.79007 0
M  V30 16764 N 1532.79 1.52222 -0.408187 0
M  V30 16765 C 1534.21 1.59491 -0.0590201 0
M  V30 16766 C 1534.41 1.42109 1.42854 0
M  V30 16767 O 1533.46 1.24757 2.19527 0
M  V30 16768 C 1534.77 2.9557 -0.553093 0
M  V30 16769 C 1536.32 3.08801 -0.510986 0
M  V30 16770 C 1536.8 4.47358 -0.981554 0
M  V30 16771 N 1538.29 4.53596 -0.938335 0
M  V30 16772 C 1539.02 5.59076 -1.27364 0
M  V30 16773 N 1538.52 6.72113 -1.68035 0
M  V30 16774 N 1540.31 5.49279 -1.19367 0
M  V30 16775 H 1532.46 1.61768 -1.37641 0
M  V30 16776 H 1534.73 0.760959 -0.565372 0
M  V30 16777 H 1534.43 3.13566 -1.59276 0
M  V30 16778 H 1534.31 3.77181 0.0377629 0
M  V30 16779 H 1536.69 2.90489 0.519637 0
M  V30 16780 H 1536.77 2.29098 -1.13788 0
M  V30 16781 H 1536.42 4.66413 -2.0105 0
M  V30 16782 H 1536.35 5.25556 -0.331478 0
M  V30 16783 H 1538.84 3.72453 -0.639297 0
M  V30 16784 H 1539.15 7.48586 -1.91934 0
M  V30 16785 H 1537.5 6.73396 -1.71938 0
M  V30 16786 H 1540.69 4.59853 -0.8748 0
M  V30 16787 H 1540.86 6.31378 -1.45829 0
M  V30 16788 N 1534.27 0.138579 1.5699 0
M  V30 16789 C 1535.51 -0.51539 1.96142 0
M  V30 16790 C 1535.85 -1.65067 1.02306 0
M  V30 16791 O 1535.12 -1.94395 0.0638645 0
M  V30 16792 C 1535.4 -1.02956 3.45068 0
M  V30 16793 C 1535.26 0.103646 4.49681 0
M  V30 16794 C 1536.58 -1.91411 3.96295 0
M  V30 16795 H 1533.7 -0.185873 0.713176 0
M  V30 16796 H 1536.34 0.218103 1.88744 0
M  V30 16797 H 1534.49 -1.65462 3.51503 0
M  V30 16798 H 1536.16 0.739693 4.55331 0
M  V30 16799 H 1534.4 0.764014 4.27019 0
M  V30 16800 H 1535.07 -0.297688 5.51197 0
M  V30 16801 H 1537.55 -1.38746 3.92286 0
M  V30 16802 H 1536.43 -2.24298 5.0098 0
M  V30 16803 H 1536.69 -2.84793 3.38149 0
M  V30 16804 N 1535.75 -1.57019 -0.13521 0
M  V30 16805 C 1536.66 -2.02427 -1.18578 0
M  V30 16806 C 1537.67 -0.941738 -1.46312 0
M  V30 16807 O 1538.85 -1.25208 -1.57749 0
M  V30 16808 C 1535.91 -2.40577 -2.49647 0
M  V30 16809 C 1534.97 -3.62835 -2.29455 0
M  V30 16810 C 1534.21 -3.99156 -3.54274 0
M  V30 16811 O 1534.43 -3.36001 -4.60933 0
M  V30 16812 O 1533.36 -4.92345 -3.46238 0
M  V30 16813 H 1537.19 -2.92131 -0.830237 0
M  V30 16814 H 1534.77 -1.45366 -0.344814 0
M  V30 16815 H 1536.66 -2.65922 -3.269 0
M  V30 16816 H 1535.33 -1.54023 -2.84708 0
M  V30 16817 H 1534.24 -3.42661 -1.50114 0
M  V30 16818 H 1535.57 -4.50043 -1.99305 0
M  V30 16819 N 1537.22 0.404919 -1.52309 0
M  V30 16820 C 1538.16 1.51471 -1.7068 0
M  V30 16821 C 1539.14 1.52856 -0.554425 0
M  V30 16822 O 1540.32 1.715 -0.782294 0
M  V30 16823 C 1537.45 2.8999 -1.74995 0
M  V30 16824 C 1536.49 3.06499 -2.96581 0
M  V30 16825 S 1537.33 2.7937 -4.56851 0
M  V30 16826 C 1538.48 4.20112 -4.63958 0
M  V30 16827 H 1538.71 1.35661 -2.64544 0
M  V30 16828 H 1536.25 0.596769 -1.42401 0
M  V30 16829 H 1538.21 3.6982 -1.78167 0
M  V30 16830 H 1536.87 3.03139 -0.822517 0
M  V30 16831 H 1536.06 4.07853 -2.96095 0
M  V30 16832 H 1535.66 2.34541 -2.91319 0
M  V30 16833 H 1537.95 5.13811 -4.41594 0
M  V30 16834 H 1538.9 4.2562 -5.6591 0
M  V30 16835 H 1539.3 4.05279 -3.9295 0
M  V30 16836 N 1538.7 1.43003 0.662408 0
M  V30 16837 C 1539.67 1.4713 1.75743 0
M  V30 16838 C 1540.67 0.357203 1.56782 0
M  V30 16839 O 1541.86 0.618566 1.62848 0
M  V30 16840 C 1538.99 1.31499 3.14517 0
M  V30 16841 H 1540.18 2.44641 1.73467 0
M  V30 16842 H 1537.73 1.29633 0.873208 0
M  V30 16843 H 1538.47 0.349596 3.2241 0
M  V30 16844 H 1538.25 2.12253 3.29683 0
M  V30 16845 H 1539.74 1.37298 3.94384 0
M  V30 16846 N 1540.18 -0.899904 1.29381 0
M  V30 16847 C 1541.43 -1.64502 1.16713 0
M  V30 16848 C 1541.74 -1.93577 -0.280563 0
M  V30 16849 O 1542.95 -2.66305 -0.528563 0
M  V30 16850 C 1541.4 -2.96414 2.04125 0
M  V30 16851 C 1541.01 -2.74935 3.53716 0
M  V30 16852 C 1542.76 -3.74337 2.0018 0
M  V30 16853 C 1540.66 -4.02571 4.33232 0
M  V30 16854 H 1539.59 -0.617121 0.433218 0
M  V30 16855 H 1542.24 -0.997521 1.54019 0
M  V30 16856 H 1540.63 -3.62375 1.59687 0
M  V30 16857 H 1541.8 -2.17567 4.06203 0
M  V30 16858 H 1540.12 -2.10407 3.5933 0
M  V30 16859 H 1542.71 -4.6897 2.56849 0
M  V30 16860 H 1543.06 -4.04559 0.981735 0
M  V30 16861 H 1543.59 -3.15216 2.4266 0
M  V30 16862 H 1540.33 -3.77516 5.35875 0
M  V30 16863 H 1539.85 -4.59499 3.85514 0
M  V30 16864 H 1541.53 -4.70719 4.43884 0
M  V30 16865 N 1541.66 -1.11854 -1.11024 0
M  V30 16866 C 1542.91 -0.870073 -1.82855 0
M  V30 16867 C 1543.23 0.604215 -1.84877 0
M  V30 16868 O 1542.49 1.46232 -1.30056 0
M  V30 16869 C 1542.79 -1.3823 -3.29586 0
M  V30 16870 C 1542.45 -2.87057 -3.4772 0
M  V30 16871 C 1541.12 -3.27696 -3.52376 0
M  V30 16872 C 1543.47 -3.8289 -3.53617 0
M  V30 16873 C 1540.8 -4.62886 -3.60491 0
M  V30 16874 C 1543.15 -5.17902 -3.63263 0
M  V30 16875 C 1541.81 -5.58092 -3.66182 0
M  V30 16876 H 1541.08 -0.318382 -0.669114 0
M  V30 16877 H 1543.73 -1.39769 -1.30908 0
M  V30 16878 H 1542.03 -0.775018 -3.84058 0
M  V30 16879 H 1543.73 -1.16634 -3.83663 0
M  V30 16880 H 1540.32 -2.54623 -3.44768 0
M  V30 16881 H 1544.5 -3.52591 -3.49275 0
M  V30 16882 H 1539.76 -4.93425 -3.61029 0
M  V30 16883 H 1543.93 -5.9199 -3.6677 0
M  V30 16884 H 1541.56 -6.62838 -3.72222 0
M  V30 16885 N 1543.14 1.28707 -0.909517 0
M  V30 16886 C 1544.38 1.95154 -0.540481 0
M  V30 16887 C 1544.71 1.7163 0.91506 0
M  V30 16888 O 1543.97 1.02786 1.66534 0
M  V30 16889 C 1544.27 3.48536 -0.791037 0
M  V30 16890 C 1543.93 3.92153 -2.22546 0
M  V30 16891 C 1542.59 4.03772 -2.61766 0
M  V30 16892 C 1544.95 4.14547 -3.15912 0
M  V30 16893 C 1542.27 4.35162 -3.93511 0
M  V30 16894 C 1544.63 4.47414 -4.47218 0
M  V30 16895 C 1543.29 4.57244 -4.86296 0
M  V30 16896 H 1542.56 0.714119 -0.197776 0
M  V30 16897 H 1545.21 1.53122 -1.15004 0
M  V30 16898 H 1543.51 3.91676 -0.0986412 0
M  V30 16899 H 1545.21 3.98059 -0.48474 0
M  V30 16900 H 1541.8 3.83633 -1.91113 0
M  V30 16901 H 1545.98 4.05027 -2.86822 0
M  V30 16902 H 1541.24 4.40977 -4.23496 0
M  V30 16903 H 1545.41 4.6369 -5.19581 0
M  V30 16904 H 1543.04 4.81321 -5.88416 0
M  V30 16905 N 1544.61 0.673042 1.42506 0
M  V30 16906 C 1545.86 0.1918 2.00786 0
M  V30 16907 C 1546.18 -1.20814 1.53829 0
M  V30 16908 O 1547.38 -1.78566 2.04515 0
M  V30 16909 C 1545.84 0.292045 3.58713 0
M  V30 16910 C 1545.45 1.69593 4.14659 0
M  V30 16911 C 1547.19 -0.130575 4.24299 0
M  V30 16912 C 1545.1 1.74904 5.64945 0
M  V30 16913 H 1544.03 0.0679452 0.750932 0
M  V30 16914 H 1546.68 0.837968 1.63249 0
M  V30 16915 H 1545.06 -0.421985 3.93745 0
M  V30 16916 H 1546.23 2.4369 3.9109 0
M  V30 16917 H 1544.55 2.06625 3.61518 0
M  V30 16918 H 1547.15 -0.11102 5.34585 0
M  V30 16919 H 1547.49 -1.16552 3.99651 0
M  V30 16920 H 1548.02 0.532386 3.94221 0
M  V30 16921 H 1544.76 2.76374 5.94388 0
M  V30 16922 H 1544.28 1.0516 5.9051 0
M  V30 16923 H 1545.96 1.50168 6.29332 0
M  V30 16924 N 1546.09 -1.52004 0.416254 0
M  V30 16925 C 1547.34 -2.01076 -0.158591 0
M  V30 16926 C 1547.65 -1.30598 -1.45614 0
M  V30 16927 O 1548.86 -1.70525 -2.11267 0
M  V30 16928 C 1547.32 -3.58354 -0.333179 0
M  V30 16929 C 1546.92 -4.37753 0.952696 0
M  V30 16930 C 1548.67 -4.15637 -0.86293 0
M  V30 16931 C 1546.58 -5.8669 0.744905 0
M  V30 16932 H 1545.51 -0.75136 -0.0630423 0
M  V30 16933 H 1548.16 -1.75288 0.542791 0
M  V30 16934 H 1546.54 -3.805 -1.09706 0
M  V30 16935 H 1547.71 -4.27364 1.72328 0
M  V30 16936 H 1546.03 -3.91823 1.40939 0
M  V30 16937 H 1548.62 -5.24596 -1.03454 0
M  V30 16938 H 1548.97 -3.73449 -1.8396 0
M  V30 16939 H 1549.5 -3.97486 -0.157918 0
M  V30 16940 H 1546.24 -6.3325 1.69334 0
M  V30 16941 H 1545.76 -5.99798 0.0137458 0
M  V30 16942 H 1547.44 -6.45824 0.389851 0
M  V30 16943 N 1547.57 -0.146903 -1.56914 0
M  V30 16944 C 1548.8 0.51044 -2.00195 0
M  V30 16945 C 1549.21 1.58966 -1.02599 0
M  V30 16946 O 1548.55 1.83694 -0.0149611 0
M  V30 16947 C 1548.61 1.17055 -3.39909 0
M  V30 16948 C 1548.28 0.235944 -4.56391 0
M  V30 16949 C 1549.27 -0.536351 -5.17126 0
M  V30 16950 C 1546.96 0.138878 -5.02108 0
M  V30 16951 C 1548.95 -1.39316 -6.21989 0
M  V30 16952 C 1546.64 -0.721538 -6.06825 0
M  V30 16953 C 1547.64 -1.48616 -6.66635 0
M  V30 16954 O 1547.33 -2.33224 -7.69325 0
M  V30 16955 H 1547.06 0.137381 -0.661893 0
M  V30 16956 H 1549.61 -0.23844 -2.04011 0
M  V30 16957 H 1547.84 1.96707 -3.32931 0
M  V30 16958 H 1549.53 1.72761 -3.67299 0
M  V30 16959 H 1550.3 -0.471393 -4.82704 0
M  V30 16960 H 1546.18 0.723769 -4.55283 0
M  V30 16961 H 1549.72 -1.99044 -6.68601 0
M  V30 16962 H 1545.62 -0.787788 -6.40675 0
M  V30 16963 H 1546.39 -2.26471 -7.86545 0
M  V30 16964 N 1549.05 1.57088 0.126881 0
M  V30 16965 C 1550.3 1.83624 0.834582 0
M  V30 16966 C 1550.61 0.731331 1.81414 0
M  V30 16967 O 1551.82 0.88286 2.56745 0
M  V30 16968 C 1550.27 3.25529 1.5349 0
M  V30 16969 C 1549.88 4.44008 0.59673 0
M  V30 16970 C 1551.62 3.6132 2.22819 0
M  V30 16971 C 1549.53 5.76939 1.29982 0
M  V30 16972 H 1548.46 0.684858 0.315414 0
M  V30 16973 H 1551.11 1.83292 0.087305 0
M  V30 16974 H 1549.49 3.20306 2.32852 0
M  V30 16975 H 1550.67 4.60511 -0.163109 0
M  V30 16976 H 1548.98 4.16399 0.0108081 0
M  V30 16977 H 1551.58 4.57902 2.76098 0
M  V30 16978 H 1551.92 2.88363 3.00254 0
M  V30 16979 H 1552.46 3.68291 1.50354 0
M  V30 16980 H 1549.2 6.53044 0.566925 0
M  V30 16981 H 1548.72 5.64336 2.03187 0
M  V30 16982 H 1550.39 6.20427 1.8352 0
M  V30 16983 N 1550.53 -0.396836 1.52522 0
M  V30 16984 C 1551.78 -1.13978 1.66409 0
M  V30 16985 C 1552.09 -1.91333 0.406326 0
M  V30 16986 O 1553.29 -2.6815 0.425195 0
M  V30 16987 C 1551.75 -2.07512 2.94052 0
M  V30 16988 C 1551.36 -1.35616 4.2698 0
M  V30 16989 C 1553.1 -2.8199 3.17304 0
M  V30 16990 C 1551.01 -2.2787 5.45737 0
M  V30 16991 H 1549.94 -0.429181 0.619935 0
M  V30 16992 H 1552.59 -0.403207 1.79015 0
M  V30 16993 H 1550.97 -2.84773 2.75174 0
M  V30 16994 H 1552.15 -0.636349 4.56385 0
M  V30 16995 H 1550.46 -0.731297 4.09928 0
M  V30 16996 H 1553.06 -3.5118 4.03208 0
M  V30 16997 H 1553.4 -3.45629 2.32048 0
M  V30 16998 H 1553.93 -2.11824 3.36712 0
M  V30 16999 H 1550.67 -1.68858 6.33378 0
M  V30 17000 H 1550.19 -2.97789 5.20655 0
M  V30 17001 H 1551.87 -2.88126 5.79303 0
M  V30 17002 N 1552.01 -1.43353 -0.654814 0
M  V30 17003 C 1552.94 -1.51194 -1.7794 0
M  V30 17004 C 1553.92 -0.366747 -1.66099 0
M  V30 17005 O 1555.1 -0.58375 -1.85219 0
M  V30 17006 C 1552.23 -1.43298 -3.16359 0
M  V30 17007 C 1551.19 -2.5605 -3.42961 0
M  V30 17008 C 1550.51 -2.33208 -4.81163 0
M  V30 17009 C 1551.81 -3.98303 -3.37864 0
M  V30 17010 H 1553.51 -2.4532 -1.71635 0
M  V30 17011 H 1551.05 -1.18072 -0.824319 0
M  V30 17012 H 1553 -1.47388 -3.94784 0
M  V30 17013 H 1551.73 -0.456761 -3.2339 0
M  V30 17014 H 1550.39 -2.5131 -2.66906 0
M  V30 17015 H 1550.04 -1.33833 -4.84869 0
M  V30 17016 H 1549.74 -3.08789 -4.99923 0
M  V30 17017 H 1551.26 -2.39079 -5.61848 0
M  V30 17018 H 1552.67 -4.04538 -4.06229 0
M  V30 17019 H 1551.07 -4.73897 -3.6816 0
M  V30 17020 H 1552.14 -4.23552 -2.36075 0
M  V30 17021 N 1553.48 0.89303 -1.29857 0
M  V30 17022 C 1554.73 1.63881 -1.17583 0
M  V30 17023 C 1555.05 1.93723 0.270293 0
M  V30 17024 O 1556.25 2.66582 0.514432 0
M  V30 17025 C 1554.71 2.95327 -2.05694 0
M  V30 17026 C 1554.32 2.73055 -3.55169 0
M  V30 17027 C 1556.06 3.7327 -2.02162 0
M  V30 17028 C 1553.97 4.00268 -4.35361 0
M  V30 17029 H 1552.9 0.614815 -0.436485 0
M  V30 17030 H 1555.55 0.989339 -1.54546 0
M  V30 17031 H 1553.93 3.61523 -1.61607 0
M  V30 17032 H 1555.1 2.1541 -4.07351 0
M  V30 17033 H 1553.42 2.08498 -3.6044 0
M  V30 17034 H 1556.02 4.67601 -2.59333 0
M  V30 17035 H 1556.36 4.04032 -1.00318 0
M  V30 17036 H 1556.89 3.13925 -2.44328 0
M  V30 17037 H 1553.63 3.74669 -5.37869 0
M  V30 17038 H 1553.15 4.57448 -3.87945 0
M  V30 17039 H 1554.83 4.68358 -4.46374 0
M  V30 17040 N 1554.96 1.12442 1.10429 0
M  V30 17041 C 1555.92 0.795443 2.14954 0
M  V30 17042 C 1556.92 -0.19022 1.59671 0
M  V30 17043 O 1558.11 0.0355797 1.74164 0
M  V30 17044 C 1555.25 0.182043 3.40414 0
M  V30 17045 H 1556.44 1.72153 2.45567 0
M  V30 17046 H 1553.99 0.927672 1.25793 0
M  V30 17047 H 1554.73 -0.753766 3.15419 0
M  V30 17048 H 1554.51 0.891708 3.81826 0
M  V30 17049 H 1556 -0.0316286 4.17588 0
M  V30 17050 N 1556.44 -1.28223 0.91633 0
M  V30 17051 C 1557.69 -1.94865 0.550823 0
M  V30 17052 C 1558.01 -1.72113 -0.905945 0
M  V30 17053 O 1557.27 -1.03668 -1.65987 0
M  V30 17054 C 1557.57 -3.48112 0.809509 0
M  V30 17055 C 1557.23 -3.90967 2.24623 0
M  V30 17056 C 1555.9 -4.02379 2.63903 0
M  V30 17057 C 1558.25 -4.12865 3.18106 0
M  V30 17058 C 1555.58 -4.33069 3.95814 0
M  V30 17059 C 1557.93 -4.45036 4.49584 0
M  V30 17060 C 1556.59 -4.54659 4.88714 0
M  V30 17061 H 1555.86 -0.71306 0.20156 0
M  V30 17062 H 1558.51 -1.5251 1.15814 0
M  V30 17063 H 1556.81 -3.91618 0.119411 0
M  V30 17064 H 1558.51 -3.97797 0.505843 0
M  V30 17065 H 1555.1 -3.82614 1.93144 0
M  V30 17066 H 1559.29 -4.035 2.88966 0
M  V30 17067 H 1554.54 -4.38725 4.25829 0
M  V30 17068 H 1558.72 -4.60928 5.22033 0
M  V30 17069 H 1556.34 -4.78194 5.90961 0
M  V30 17070 N 1557.92 -0.68059 -1.42147 0
M  V30 17071 C 1559.16 -0.205263 -2.01457 0
M  V30 17072 C 1559.49 1.19015 -1.53837 0
M  V30 17073 O 1558.75 1.81423 -0.733763 0
M  V30 17074 C 1559.05 -0.194825 -3.56869 0
M  V30 17075 C 1558.71 -1.5357 -4.23942 0
M  V30 17076 C 1557.37 -1.90282 -4.4198 0
M  V30 17077 C 1559.73 -2.41852 -4.61689 0
M  V30 17078 C 1557.05 -3.14891 -4.95036 0
M  V30 17079 C 1559.41 -3.65779 -5.16129 0
M  V30 17080 C 1558.07 -4.02653 -5.32379 0
M  V30 17081 H 1557.34 -0.0751109 -0.737183 0
M  V30 17082 H 1559.99 -0.87672 -1.70252 0
M  V30 17083 H 1558.29 0.560155 -3.87775 0
M  V30 17084 H 1559.99 0.190248 -4.00548 0
M  V30 17085 H 1556.58 -1.24012 -4.10267 0
M  V30 17086 H 1560.76 -2.14773 -4.47422 0
M  V30 17087 H 1556.02 -3.43474 -5.05802 0
M  V30 17088 H 1560.19 -4.34384 -5.4432 0
M  V30 17089 H 1557.82 -4.99283 -5.73254 0
M  V30 17090 N 1559.4 1.51781 -0.424309 0
M  V30 17091 C 1560.33 2.23945 0.438604 0
M  V30 17092 C 1561.31 1.25363 1.03552 0
M  V30 17093 O 1562.49 1.5446 1.08048 0
M  V30 17094 C 1559.62 2.9798 1.61014 0
M  V30 17095 C 1558.66 4.11116 1.13516 0
M  V30 17096 S 1559.5 5.35428 0.0878448 0
M  V30 17097 C 1560.65 6.12997 1.26435 0
M  V30 17098 H 1560.89 2.9679 -0.174103 0
M  V30 17099 H 1558.42 1.52983 -0.208718 0
M  V30 17100 H 1560.38 3.41237 2.28183 0
M  V30 17101 H 1559.04 2.2475 2.19423 0
M  V30 17102 H 1558.23 4.62147 2.01086 0
M  V30 17103 H 1557.83 3.70053 0.5419 0
M  V30 17104 H 1560.12 6.41293 2.18517 0
M  V30 17105 H 1561.07 7.03631 0.794265 0
M  V30 17106 H 1561.48 5.44288 1.49702 0
M  V30 17107 N 1560.87 0.155222 1.56834 0
M  V30 17108 C 1561.81 -0.819563 2.12975 0
M  V30 17109 C 1562.78 -1.23685 1.05549 0
M  V30 17110 O 1563.97 -1.3315 1.33429 0
M  V30 17111 C 1561.1 -2.10155 2.65617 0
M  V30 17112 C 1560.14 -1.82954 3.85266 0
M  V30 17113 S 1560.97 -1.01317 5.25828 0
M  V30 17114 C 1562.13 -2.30617 5.81865 0
M  V30 17115 H 1562.36 -0.342172 2.95324 0
M  V30 17116 H 1559.9 -0.0591958 1.54286 0
M  V30 17117 H 1561.85 -2.83797 2.96597 0
M  V30 17118 H 1560.52 -2.55008 1.83383 0
M  V30 17119 H 1559.71 -2.78035 4.20372 0
M  V30 17120 H 1559.31 -1.17417 3.55091 0
M  V30 17121 H 1561.6 -3.26206 5.93798 0
M  V30 17122 H 1562.55 -2.00004 6.79267 0
M  V30 17123 H 1562.95 -2.41642 5.10166 0
M  V30 17124 N 1562.35 -1.57153 -0.118549 0
M  V30 17125 C 1563.3 -2.01357 -1.1644 0
M  V30 17126 C 1564.29 -0.910574 -1.42846 0
M  V30 17127 O 1565.5 -1.09578 -1.42803 0
M  V30 17128 H 1561.87 -0.641376 -0.392607 0
M  V30 17129 H 1563.85 -2.88425 -0.765087 0
M  V30 17130 C 1562.59 -2.43416 -2.48282 0
M  V30 17131 H 1561.92 -3.27857 -2.288 0
M  V30 17132 H 1563.36 -2.78143 -3.20019 0
M  V30 17133 C 1561.82 -1.29799 -3.10892 0
M  V30 17134 O 1562.35 -0.614207 -3.96977 0
M  V30 17135 N 1560.55 -1.05493 -2.70776 0
M  V30 17136 H 1560.1 -1.61276 -2.00868 0
M  V30 17137 H 1560.06 -0.296678 -3.12997 0
M  V30 17138 N 1563.83 0.388742 -1.5273 0
M  V30 17139 C 1565.08 1.13094 -1.67011 0
M  V30 17140 C 1565.39 1.91115 -0.416467 0
M  V30 17141 O 1566.6 2.67921 -0.43941 0
M  V30 17142 C 1565.05 2.0595 -2.95149 0
M  V30 17143 C 1564.66 1.3335 -4.27694 0
M  V30 17144 C 1566.41 2.80303 -3.18795 0
M  V30 17145 C 1564.31 2.24973 -5.46938 0
M  V30 17146 H 1563.24 0.425887 -0.622203 0
M  V30 17147 H 1565.89 0.393708 -1.79227 0
M  V30 17148 H 1564.28 2.83309 -2.7668 0
M  V30 17149 H 1565.45 0.612137 -4.56716 0
M  V30 17150 H 1563.76 0.709547 -4.1031 0
M  V30 17151 H 1566.36 3.49036 -4.05065 0
M  V30 17152 H 1566.7 3.44394 -2.33877 0
M  V30 17153 H 1567.24 2.10036 -3.37831 0
M  V30 17154 H 1563.98 1.65497 -6.34264 0
M  V30 17155 H 1563.5 2.95024 -5.22227 0
M  V30 17156 H 1565.18 2.8505 -5.80823 0
M  V30 17157 N 1565.31 1.43698 0.647203 0
M  V30 17158 C 1566.55 1.45633 1.40703 0
M  V30 17159 C 1566.88 0.0828643 1.94323 0
M  V30 17160 O 1566.14 -0.913033 1.73096 0
M  V30 17161 C 1566.44 2.45083 2.60133 0
M  V30 17162 C 1566.1 3.9081 2.24896 0
M  V30 17163 C 1564.76 4.30499 2.14998 0
M  V30 17164 C 1567.12 4.8262 1.96794 0
M  V30 17165 C 1564.44 5.59942 1.75163 0
M  V30 17166 C 1566.8 6.12433 1.58456 0
M  V30 17167 C 1565.46 6.51092 1.47088 0
M  V30 17168 H 1564.73 0.53291 0.514867 0
M  V30 17169 H 1567.38 1.76814 0.735458 0
M  V30 17170 H 1565.68 2.07327 3.3245 0
M  V30 17171 H 1567.38 2.43833 3.1835 0
M  V30 17172 H 1563.97 3.59403 2.33512 0
M  V30 17173 H 1568.15 4.52724 2.03359 0
M  V30 17174 H 1563.41 5.88728 1.64952 0
M  V30 17175 H 1567.58 6.83042 1.35745 0
M  V30 17176 H 1565.21 7.51299 1.15992 0
M  V30 17177 N 1566.79 -0.886131 1.30328 0
M  V30 17178 C 1568.03 -1.64026 1.19261 0
M  V30 17179 C 1568.37 -1.92553 -0.252379 0
M  V30 17180 O 1567.64 -1.54564 -1.18069 0
M  V30 17181 C 1567.92 -2.9808 2.0204 0
M  V30 17182 C 1567.78 -2.76534 3.54752 0
M  V30 17183 C 1569.1 -3.98989 1.85731 0
M  V30 17184 H 1566.21 -0.595224 0.4346 0
M  V30 17185 H 1568.86 -1.0255 1.59949 0
M  V30 17186 H 1567.01 -3.50552 1.67469 0
M  V30 17187 H 1568.68 -2.3086 3.99376 0
M  V30 17188 H 1566.92 -2.1106 3.78993 0
M  V30 17189 H 1567.59 -3.71849 4.07961 0
M  V30 17190 H 1570.07 -3.55673 2.15953 0
M  V30 17191 H 1568.94 -4.90699 2.45979 0
M  V30 17192 H 1569.21 -4.34501 0.816152 0
M  V30 17193 N 1568.26 -1.13026 -1.09832 0
M  V30 17194 C 1569.51 -0.887662 -1.81563 0
M  V30 17195 C 1569.83 0.587935 -1.85926 0
M  V30 17196 O 1569.1 1.42732 -1.3418 0
M  V30 17197 H 1567.68 -0.32541 -0.672397 0
M  V30 17198 H 1570.35 -1.42597 -1.32861 0
M  V30 17199 H 1569.44 -1.2747 -2.84882 0
M  V30 17200 N 1569.74 1.27735 -0.923117 0
M  V30 17201 C 1570.99 1.9457 -0.561149 0
M  V30 17202 C 1571.32 1.72591 0.896805 0
M  V30 17203 O 1570.57 1.04546 1.65434 0
M  V30 17204 C 1570.87 3.47677 -0.827959 0
M  V30 17205 C 1570.54 3.8977 -2.26693 0
M  V30 17206 C 1569.2 4.00973 -2.66033 0
M  V30 17207 C 1571.55 4.11173 -3.20291 0
M  V30 17208 C 1568.88 4.30963 -3.98105 0
M  V30 17209 C 1571.23 4.42645 -4.51938 0
M  V30 17210 C 1569.9 4.52061 -4.91119 0
M  V30 17211 H 1569.17 0.711981 -0.205339 0
M  V30 17212 H 1571.81 1.51894 -1.16621 0
M  V30 17213 H 1570.12 3.91549 -0.140178 0
M  V30 17214 H 1571.81 3.97523 -0.526932 0
M  V30 17215 H 1568.4 3.81584 -1.95171 0
M  V30 17216 H 1572.59 4.01962 -2.91102 0
M  V30 17217 H 1567.84 4.36461 -4.28149 0
M  V30 17218 H 1572.02 4.58153 -5.2447 0
M  V30 17219 H 1569.65 4.75053 -5.93488 0
M  V30 17220 N 1571.22 0.688118 1.41784 0
M  V30 17221 C 1572.47 0.216263 2.01644 0
M  V30 17222 C 1572.8 -1.17861 1.54345 0
M  V30 17223 O 1572.07 -1.794 0.751392 0
M  V30 17224 C 1572.36 0.265663 3.59119 0
M  V30 17225 C 1572.21 1.69694 4.16562 0
M  V30 17226 C 1573.53 -0.378713 4.38468 0
M  V30 17227 H 1570.65 0.0800582 0.732639 0
M  V30 17228 H 1573.29 0.875428 1.68631 0
M  V30 17229 H 1571.44 -0.295588 3.87374 0
M  V30 17230 H 1573.11 2.31146 3.9921 0
M  V30 17231 H 1571.36 2.23345 3.71886 0
M  V30 17232 H 1572.03 1.68309 5.25715 0
M  V30 17233 H 1574.5 0.0991969 4.15982 0
M  V30 17234 H 1573.38 -0.31357 5.48004 0
M  V30 17235 H 1573.64 -1.45832 4.17355 0
M  V30 17236 N 1572.7 -1.51554 0.432352 0
M  V30 17237 C 1573.95 -2.01232 -0.137255 0
M  V30 17238 C 1574.26 -1.32135 -1.44221 0
M  V30 17239 O 1575.47 -1.72756 -2.09446 0
M  V30 17240 C 1573.92 -3.58688 -0.295152 0
M  V30 17241 C 1573.53 -4.36718 0.999072 0
M  V30 17242 C 1575.27 -4.16528 -0.818798 0
M  V30 17243 C 1573.18 -5.85867 0.80709 0
M  V30 17244 H 1572.11 -0.751986 -0.0550696 0
M  V30 17245 H 1574.76 -1.74703 0.561352 0
M  V30 17246 H 1573.14 -3.81643 -1.05664 0
M  V30 17247 H 1574.32 -4.25512 1.76851 0
M  V30 17248 H 1572.63 -3.90306 1.45087 0
M  V30 17249 H 1575.23 -5.25664 -0.978841 0
M  V30 17250 H 1575.57 -3.75379 -1.79989 0
M  V30 17251 H 1576.11 -3.97632 -0.11575 0
M  V30 17252 H 1572.85 -6.31419 1.76041 0
M  V30 17253 H 1572.37 -5.9975 0.0773617 0
M  V30 17254 H 1574.04 -6.45375 0.458328 0
M  V30 17255 N 1574.18 -0.163538 -1.56749 0
M  V30 17256 C 1575.42 0.48412 -1.96937 0
M  V30 17257 C 1575.76 1.63418 -1.04919 0
M  V30 17258 O 1575.03 1.94269 -0.094783 0
M  V30 17259 C 1575.31 0.974532 -3.46663 0
M  V30 17260 C 1575.17 -0.175173 -4.49459 0
M  V30 17261 C 1576.49 1.85082 -3.9929 0
M  V30 17262 H 1573.6 0.174503 -0.716043 0
M  V30 17263 H 1576.25 -0.248103 -1.88373 0
M  V30 17264 H 1574.4 1.59849 -3.54091 0
M  V30 17265 H 1576.07 -0.812038 -4.54096 0
M  V30 17266 H 1574.31 -0.831853 -4.2575 0
M  V30 17267 H 1574.98 0.20996 -5.51601 0
M  V30 17268 H 1577.46 1.32488 -3.94444 0
M  V30 17269 H 1576.33 2.163 -5.04485 0
M  V30 17270 H 1576.6 2.79378 -3.42638 0
M  V30 17271 N 1575.65 1.57214 0.110213 0
M  V30 17272 C 1576.88 1.89505 0.830391 0
M  V30 17273 C 1577.3 0.755702 1.73016 0
M  V30 17274 O 1576.65 -0.273072 1.80445 0
M  V30 17275 C 1576.71 3.21316 1.65646 0
M  V30 17276 O 1576.43 4.30865 0.7929 0
M  V30 17277 C 1577.93 3.67369 2.48102 0
M  V30 17278 H 1575.15 0.627277 0.238252 0
M  V30 17279 H 1577.69 2.04293 0.0919716 0
M  V30 17280 H 1575.85 3.08171 2.34754 0
M  V30 17281 H 1576.26 5.06466 1.36353 0
M  V30 17282 H 1577.73 4.62335 3.0158 0
M  V30 17283 H 1578.21 2.94459 3.25869 0
M  V30 17284 H 1578.82 3.83331 1.8422 0
M  V30 17285 N 1577.13 -0.380637 1.52934 0
M  V30 17286 C 1578.38 -1.12483 1.68386 0
M  V30 17287 C 1578.71 -1.89733 0.427993 0
M  V30 17288 O 1577.96 -1.86601 -0.589795 0
M  V30 17289 C 1578.26 -2.1227 2.87535 0
M  V30 17290 C 1577.93 -1.51615 4.24645 0
M  V30 17291 C 1576.59 -1.348 4.61933 0
M  V30 17292 C 1578.94 -1.07595 5.09973 0
M  V30 17293 C 1576.27 -0.725254 5.822 0
M  V30 17294 C 1578.62 -0.467273 6.30872 0
M  V30 17295 C 1577.29 -0.286488 6.66885 0
M  V30 17296 H 1576.56 -0.411606 0.616167 0
M  V30 17297 H 1579.2 -0.408435 1.87094 0
M  V30 17298 H 1577.51 -2.90159 2.63277 0
M  V30 17299 H 1579.2 -2.69777 2.96684 0
M  V30 17300 H 1575.79 -1.65693 3.95277 0
M  V30 17301 H 1579.98 -1.19385 4.81727 0
M  V30 17302 H 1575.23 -0.573461 6.08705 0
M  V30 17303 H 1579.41 -0.117914 6.963 0
M  V30 17304 H 1577.04 0.198141 7.59942 0
M  V30 17305 N 1578.61 -1.44039 -0.639573 0
M  V30 17306 C 1579.54 -1.46233 -1.76489 0
M  V30 17307 C 1580.56 -0.356739 -1.58843 0
M  V30 17308 O 1581.74 -0.621988 -1.67313 0
M  V30 17309 C 1578.84 -1.27252 -3.14102 0
M  V30 17310 C 1578.02 -2.50902 -3.58283 0
M  V30 17311 C 1577.08 -2.26944 -4.74745 0
M  V30 17312 O 1576.1 -3.00381 -4.83487 0
M  V30 17313 N 1577.3 -1.29468 -5.65878 0
M  V30 17314 H 1580.07 -2.43243 -1.7508 0
M  V30 17315 H 1577.63 -1.3937 -0.823867 0
M  V30 17316 H 1579.62 -1.09085 -3.89721 0
M  V30 17317 H 1578.19 -0.386383 -3.10203 0
M  V30 17318 H 1577.41 -2.84403 -2.72963 0
M  V30 17319 H 1578.7 -3.33163 -3.84552 0
M  V30 17320 H 1578.1 -0.687994 -5.61501 0
M  V30 17321 H 1576.66 -1.17281 -6.41162 0
M  V30 17322 N 1580.09 0.879207 -1.30796 0
M  V30 17323 C 1581 2.01822 -1.19604 0
M  V30 17324 C 1582.01 1.73621 -0.114715 0
M  V30 17325 O 1583.19 1.98665 -0.330757 0
M  V30 17326 C 1580.26 3.3496 -0.894569 0
M  V30 17327 C 1579.32 3.76545 -2.06185 0
M  V30 17328 C 1578.55 5.0333 -1.77467 0
M  V30 17329 O 1578.77 5.66022 -0.70535 0
M  V30 17330 O 1577.71 5.41461 -2.62876 0
M  V30 17331 H 1581.53 2.14194 -2.15301 0
M  V30 17332 H 1579.12 1.00608 -1.10446 0
M  V30 17333 H 1581 4.14818 -0.741891 0
M  V30 17334 H 1579.67 3.23684 0.0324464 0
M  V30 17335 H 1578.58 2.97367 -2.26988 0
M  V30 17336 H 1579.91 3.92434 -2.97079 0
M  V30 17337 N 1581.57 1.13606 1.09231 0
M  V30 17338 C 1582.5 0.77306 2.15769 0
M  V30 17339 C 1583.51 -0.206148 1.6149 0
M  V30 17340 O 1584.7 0.014338 1.78494 0
M  V30 17341 C 1581.8 0.125475 3.38668 0
M  V30 17342 C 1580.97 1.13728 4.22356 0
M  V30 17343 C 1580.03 0.515021 5.23674 0
M  V30 17344 O 1579.06 1.1756 5.56928 0
M  V30 17345 N 1580.26 -0.712028 5.76117 0
M  V30 17346 H 1583.03 1.68984 2.47517 0
M  V30 17347 H 1580.59 1.02935 1.24964 0
M  V30 17348 H 1582.58 -0.303109 4.03563 0
M  V30 17349 H 1581.15 -0.694284 3.04792 0
M  V30 17350 H 1580.37 1.74309 3.53568 0
M  V30 17351 H 1581.66 1.82106 4.75094 0
M  V30 17352 H 1581.06 -1.26745 5.51319 0
M  V30 17353 H 1579.61 -1.08324 6.42736 0
M  V30 17354 N 1583.05 -1.27244 0.929878 0
M  V30 17355 C 1584.29 -1.93886 0.570331 0
M  V30 17356 C 1584.61 -1.7342 -0.891656 0
M  V30 17357 O 1583.88 -1.0832 -1.63228 0
M  V30 17358 H 1582.46 -0.717476 0.207937 0
M  V30 17359 H 1585.13 -1.5491 1.18275 0
M  V30 17360 H 1584.22 -3.02236 0.778463 0
M  V30 17361 N 1584.52 -0.695628 -1.41417 0
M  V30 17362 C 1585.43 -0.0308378 -2.3458 0
M  V30 17363 C 1586.45 0.766 -1.56232 0
M  V30 17364 O 1587.63 0.703548 -1.88712 0
M  V30 17365 C 1584.69 0.894162 -3.34971 0
M  V30 17366 C 1583.75 0.0895231 -4.29207 0
M  V30 17367 C 1582.98 0.970467 -5.24802 0
M  V30 17368 O 1583.21 2.20997 -5.25848 0
M  V30 17369 O 1582.14 0.420114 -6.00432 0
M  V30 17370 H 1585.97 -0.798775 -2.93007 0
M  V30 17371 H 1583.55 -0.455964 -1.42272 0
M  V30 17372 H 1585.43 1.42458 -3.9659 0
M  V30 17373 H 1584.11 1.64159 -2.78987 0
M  V30 17374 H 1583.02 -0.4855 -3.70936 0
M  V30 17375 H 1584.35 -0.619241 -4.88289 0
M  V30 17376 N 1586 1.51322 -0.440383 0
M  V30 17377 C 1587.23 2.0653 0.123649 0
M  V30 17378 C 1587.64 1.30751 1.36197 0
M  V30 17379 O 1587 0.367932 1.78753 0
M  V30 17380 C 1587.05 3.58778 0.442802 0
M  V30 17381 O 1586.77 4.31695 -0.746375 0
M  V30 17382 C 1588.27 4.3051 1.05717 0
M  V30 17383 H 1585.49 0.670968 0.00657466 0
M  V30 17384 H 1588.04 1.94864 -0.620341 0
M  V30 17385 H 1586.19 3.70349 1.13669 0
M  V30 17386 H 1586.61 5.22368 -0.472466 0
M  V30 17387 H 1588.08 5.38111 1.23046 0
M  V30 17388 H 1588.56 3.88999 2.03903 0
M  V30 17389 H 1589.16 4.2339 0.402574 0
M  V30 17390 N 1587.48 0.171848 1.5666 0
M  V30 17391 C 1588.39 -0.770721 2.21579 0
M  V30 17392 C 1589.41 -1.25273 1.20759 0
M  V30 17393 O 1590.58 -1.30474 1.53422 0
M  V30 17394 C 1587.65 -1.98256 2.84422 0
M  V30 17395 C 1586.71 -1.54738 4.00443 0
M  V30 17396 C 1585.94 -2.70145 4.6028 0
M  V30 17397 O 1586.16 -3.87026 4.19007 0
M  V30 17398 O 1585.1 -2.44189 5.50141 0
M  V30 17399 H 1588.92 -0.247974 3.02686 0
M  V30 17400 H 1586.51 -0.0563734 1.49294 0
M  V30 17401 H 1588.39 -2.69127 3.24266 0
M  V30 17402 H 1587.07 -2.49435 2.0631 0
M  V30 17403 H 1585.97 -0.808152 3.65267 0
M  V30 17404 H 1587.31 -1.08249 4.80149 0
M  V30 17405 N 1588.96 -1.5727 -0.101874 0
M  V30 17406 C 1590.19 -1.89667 -0.81914 0
M  V30 17407 C 1590.6 -0.763027 -1.73132 0
M  V30 17408 O 1589.94 0.274317 -1.8164 0
M  V30 17409 C 1590 -3.17252 -1.6909 0
M  V30 17410 C 1589.66 -4.4699 -0.951257 0
M  V30 17411 C 1590.66 -5.19123 -0.28417 0
M  V30 17412 C 1588.35 -4.93665 -0.927349 0
M  V30 17413 C 1590.34 -6.36163 0.396934 0
M  V30 17414 C 1588.03 -6.10619 -0.242456 0
M  V30 17415 C 1589.03 -6.81717 0.418514 0
M  V30 17416 O 1588.71 -7.96443 1.09244 0
M  V30 17417 H 1588.45 -0.632024 -0.239836 0
M  V30 17418 H 1591 -2.05222 -0.0855979 0
M  V30 17419 H 1589.23 -2.97825 -2.46651 0
M  V30 17420 H 1590.92 -3.35533 -2.28413 0
M  V30 17421 H 1591.68 -4.84107 -0.294146 0
M  V30 17422 H 1587.56 -4.38219 -1.43126 0
M  V30 17423 H 1591.11 -6.91594 0.913417 0
M  V30 17424 H 1587 -6.45089 -0.230303 0
M  V30 17425 H 1587.77 -8.12385 0.998647 0
M  V30 17426 N 1590.44 0.372521 -1.53134 0
M  V30 17427 C 1591.38 1.45597 -1.79082 0
M  V30 17428 C 1592.35 1.5349 -0.63482 0
M  V30 17429 O 1593.54 1.69488 -0.876276 0
M  V30 17430 C 1590.68 2.8263 -1.98026 0
M  V30 17431 C 1589.79 2.83758 -3.25738 0
M  V30 17432 C 1588.93 4.12322 -3.34909 0
M  V30 17433 C 1587.96 4.07565 -4.5668 0
M  V30 17434 N 1587.1 5.27766 -4.63042 0
M  V30 17435 H 1591.94 1.22771 -2.71535 0
M  V30 17436 H 1589.48 0.595285 -1.34517 0
M  V30 17437 H 1591.44 3.62227 -2.06997 0
M  V30 17438 H 1590.07 3.0387 -1.08917 0
M  V30 17439 H 1589.12 1.96435 -3.25757 0
M  V30 17440 H 1590.43 2.76114 -4.15406 0
M  V30 17441 H 1589.58 5.00331 -3.43153 0
M  V30 17442 H 1588.32 4.22709 -2.43245 0
M  V30 17443 H 1587.33 3.17943 -4.48545 0
M  V30 17444 H 1588.55 3.98786 -5.49678 0
M  V30 17445 H 1586.5 5.38752 -3.74276 0
M  V30 17446 H 1586.42 5.22264 -5.46605 0
M  V30 17447 H 1587.68 6.17626 -4.75561 0
M  V30 17448 N 1591.91 1.44376 0.631925 0
M  V30 17449 C 1592.86 1.51479 1.76513 0
M  V30 17450 C 1593.86 0.386562 1.6493 0
M  V30 17451 O 1595.06 0.561473 1.71019 0
M  V30 17452 H 1591.44 0.475318 0.582733 0
M  V30 17453 H 1593.41 2.46856 1.67644 0
M  V30 17454 C 1592.16 1.4754 3.14845 0
M  V30 17455 H 1591.48 2.3367 3.24405 0
M  V30 17456 H 1592.92 1.5657 3.94033 0
M  V30 17457 C 1591.38 0.196043 3.36329 0
M  V30 17458 O 1591.91 -0.734083 3.94936 0
M  V30 17459 N 1590.11 0.0994331 2.9043 0
M  V30 17460 H 1589.66 0.857176 2.4292 0
M  V30 17461 H 1589.62 -0.755814 3.0518 0
M  V30 17462 N 1593.39 -0.872258 1.31261 0
M  V30 17463 C 1594.63 -1.63914 1.22113 0
M  V30 17464 C 1595 -1.9076 -0.217873 0
M  V30 17465 O 1596.2 -2.65293 -0.432812 0
M  V30 17466 C 1594.47 -2.93498 2.03945 0
M  V30 17467 S 1596.03 -3.84391 2.11634 0
M  V30 17468 H 1592.84 -0.562434 0.434959 0
M  V30 17469 H 1595.45 -1.03435 1.65896 0
M  V30 17470 H 1594.15 -2.71695 3.07587 0
M  V30 17471 H 1593.68 -3.59004 1.60872 0
M  V30 17472 H 1595.7 -4.8012 1.25298 0
M  V30 17473 N 1594.87 -1.14184 -1.08627 0
M  V30 17474 C 1595.78 -0.84033 -2.19033 0
M  V30 17475 C 1596.8 0.178322 -1.73084 0
M  V30 17476 O 1597.97 0.00737963 -2.01399 0
M  V30 17477 C 1595.04 -0.319674 -3.45223 0
M  V30 17478 C 1594.1 -1.4006 -4.0581 0
M  V30 17479 C 1593.33 -0.904693 -5.25976 0
M  V30 17480 O 1593.55 0.25468 -5.69831 0
M  V30 17481 O 1592.49 -1.68267 -5.77901 0
M  V30 17482 H 1596.31 -1.76296 -2.47292 0
M  V30 17483 H 1593.9 -0.919929 -1.17719 0
M  V30 17484 H 1595.78 -0.0351268 -4.21385 0
M  V30 17485 H 1594.46 0.575264 -3.18547 0
M  V30 17486 H 1593.36 -1.73858 -3.31247 0
M  V30 17487 H 1594.7 -2.26998 -4.3673 0
M  V30 17488 N 1596.35 1.26749 -0.936613 0
M  V30 17489 C 1597.28 2.2892 -0.460213 0
M  V30 17490 C 1598.26 1.63065 0.484135 0
M  V30 17491 O 1599.44 1.90305 0.386973 0
M  V30 17492 C 1596.57 3.46172 0.279648 0
M  V30 17493 C 1595.53 4.24083 -0.57771 0
M  V30 17494 C 1594.85 5.33903 0.291843 0
M  V30 17495 C 1596.15 4.88562 -1.84673 0
M  V30 17496 H 1597.85 2.69019 -1.31412 0
M  V30 17497 H 1595.39 1.29325 -0.633333 0
M  V30 17498 H 1597.35 4.16755 0.623931 0
M  V30 17499 H 1596.07 3.05014 1.16765 0
M  V30 17500 H 1594.73 3.55258 -0.904824 0
M  V30 17501 H 1594.38 4.88986 1.17906 0
M  V30 17502 H 1594.08 5.8694 -0.278372 0
M  V30 17503 H 1595.6 6.07326 0.631498 0
M  V30 17504 H 1597.02 5.51384 -1.56997 0
M  V30 17505 H 1595.41 5.51697 -2.36115 0
M  V30 17506 H 1596.48 4.11761 -2.56088 0
M  V30 17507 N 1597.83 0.703118 1.41046 0
M  V30 17508 C 1599.1 0.164985 1.94903 0
M  V30 17509 C 1599.48 -1.32665 1.64205 0
M  V30 17510 O 1598.83 -2.07675 0.953058 0
M  V30 17511 C 1599.04 0.464354 3.45897 0
M  V30 17512 C 1600.39 0.396205 4.22747 0
M  V30 17513 O 1601.41 0.399698 3.5395 0
M  V30 17514 O 1600.27 0.362874 5.45294 0
M  V30 17515 H 1597.37 0.0193901 0.826773 0
M  V30 17516 H 1599.91 0.779796 1.50722 0
M  V30 17517 H 1598.68 1.49653 3.61552 0
M  V30 17518 H 1598.31 -0.18105 3.97188 0
M  V30 17519 N 1599.3 -1.51086 0.448402 0
M  V30 17520 C 1600.25 -2.28015 -0.357438 0
M  V30 17521 C 1601.22 -1.32079 -1.00719 0
M  V30 17522 O 1602.41 -1.60995 -1.02398 0
M  V30 17523 C 1599.55 -3.13324 -1.44644 0
M  V30 17524 C 1598.66 -4.24267 -0.813729 0
M  V30 17525 C 1597.79 -4.96868 -1.87871 0
M  V30 17526 C 1596.83 -5.99716 -1.22502 0
M  V30 17527 N 1595.97 -6.65682 -2.23185 0
M  V30 17528 H 1600.81 -2.96436 0.30493 0
M  V30 17529 H 1598.35 -1.46203 0.162222 0
M  V30 17530 H 1600.31 -3.61119 -2.08924 0
M  V30 17531 H 1598.94 -2.46996 -2.07829 0
M  V30 17532 H 1597.99 -3.80354 -0.0589414 0
M  V30 17533 H 1599.3 -4.97917 -0.296587 0
M  V30 17534 H 1598.45 -5.48266 -2.59786 0
M  V30 17535 H 1597.19 -4.22873 -2.42961 0
M  V30 17536 H 1596.2 -5.476 -0.491388 0
M  V30 17537 H 1597.42 -6.75674 -0.681315 0
M  V30 17538 H 1595.37 -5.94493 -2.77334 0
M  V30 17539 H 1595.29 -7.35134 -1.76393 0
M  V30 17540 H 1596.55 -7.21707 -2.9455 0
M  V30 17541 N 1600.78 -0.180154 -1.56567 0
M  V30 17542 C 1601.73 0.763484 -2.19713 0
M  V30 17543 C 1602.72 1.23095 -1.16378 0
M  V30 17544 O 1603.93 1.19558 -1.34558 0
M  V30 17545 H 1600.31 0.264515 -0.703943 0
M  V30 17546 H 1602.28 0.207039 -2.97681 0
M  V30 17547 C 1601.03 1.97884 -2.85897 0
M  V30 17548 H 1600.35 1.62818 -3.65144 0
M  V30 17549 H 1601.79 2.61779 -3.33538 0
M  V30 17550 C 1600.25 2.80811 -1.86136 0
M  V30 17551 O 1600.78 3.78253 -1.35232 0
M  V30 17552 N 1598.98 2.46003 -1.54697 0
M  V30 17553 H 1598.53 1.66823 -1.96285 0
M  V30 17554 H 1598.49 3.01774 -0.88202 0
M  V30 17555 N 1602.26 1.57322 0.0935319 0
M  V30 17556 C 1603.19 1.98861 1.13961 0
M  V30 17557 C 1604.21 0.891385 1.36228 0
M  V30 17558 O 1605.39 1.16949 1.34853 0
M  V30 17559 C 1602.49 2.29369 2.49485 0
M  V30 17560 C 1601.67 3.6066 2.47473 0
M  V30 17561 C 1600.73 3.79087 3.64937 0
M  V30 17562 O 1599.75 4.50923 3.47357 0
M  V30 17563 N 1600.95 3.19784 4.84478 0
M  V30 17564 H 1603.72 2.89208 0.786048 0
M  V30 17565 H 1601.28 1.59416 0.282491 0
M  V30 17566 H 1603.27 2.38889 3.26671 0
M  V30 17567 H 1601.84 1.45021 2.76925 0
M  V30 17568 H 1601.06 3.62095 1.55823 0
M  V30 17569 H 1602.35 4.46908 2.43209 0
M  V30 17570 H 1601.75 2.61436 5.01665 0
M  V30 17571 H 1600.31 3.34786 5.59251 0
M  V30 17572 N 1603.74 -0.364395 1.53329 0
M  V30 17573 C 1605.15 -0.706147 1.43128 0
M  V30 17574 C 1605.35 -1.93231 0.571307 0
M  V30 17575 O 1604.41 -2.52442 0.0542079 0
M  V30 17576 C 1605.72 -0.918245 2.86337 0
M  V30 17577 C 1607.27 -1.01818 2.95976 0
M  V30 17578 C 1607.75 -1.26274 4.40249 0
M  V30 17579 N 1609.24 -1.33042 4.43683 0
M  V30 17580 C 1609.97 -1.53677 5.52423 0
M  V30 17581 N 1609.47 -1.7162 6.71207 0
M  V30 17582 N 1611.26 -1.56056 5.40003 0
M  V30 17583 H 1603.41 0.442091 2.07748 0
M  V30 17584 H 1605.68 0.135735 0.938232 0
M  V30 17585 H 1605.38 -0.0890628 3.51587 0
M  V30 17586 H 1605.26 -1.826 3.30056 0
M  V30 17587 H 1607.64 -1.83791 2.30879 0
M  V30 17588 H 1607.72 -0.0877892 2.55649 0
M  V30 17589 H 1607.37 -0.448026 5.0592 0
M  V30 17590 H 1607.3 -2.20637 4.78149 0
M  V30 17591 H 1609.79 -1.20784 3.58078 0
M  V30 17592 H 1610.1 -1.86942 7.49848 0
M  V30 17593 H 1608.45 -1.68797 6.7419 0
M  V30 17594 H 1611.64 -1.41605 4.46168 0
M  V30 17595 H 1611.81 -1.71796 6.24812 0
M  V30 17596 N 1605.22 -1.44709 -0.62426 0
M  V30 17597 C 1606.15 -1.48097 -1.74928 0
M  V30 17598 C 1607.16 -0.373567 -1.58456 0
M  V30 17599 O 1608.35 -0.639699 -1.66644 0
M  V30 17600 C 1605.45 -1.30576 -3.12735 0
M  V30 17601 C 1604.62 -2.54688 -3.55602 0
M  V30 17602 C 1603.68 -2.31966 -4.72311 0
M  V30 17603 O 1602.71 -3.05492 -4.80274 0
M  V30 17604 N 1603.91 -1.35463 -5.64473 0
M  V30 17605 H 1606.68 -2.45086 -1.72491 0
M  V30 17606 H 1604.24 -1.40236 -0.809039 0
M  V30 17607 H 1606.23 -1.13212 -3.88542 0
M  V30 17608 H 1604.8 -0.419262 -3.09776 0
M  V30 17609 H 1604.02 -2.87282 -2.69931 0
M  V30 17610 H 1605.31 -3.37223 -3.80996 0
M  V30 17611 H 1604.7 -0.747509 -5.60739 0
M  V30 17612 H 1603.26 -1.24075 -6.39882 0
M  V30 17613 N 1606.69 0.865285 -1.31722 0
M  V30 17614 C 1607.93 1.63264 -1.2298 0
M  V30 17615 C 1608.3 1.90873 0.207754 0
M  V30 17616 O 1609.5 2.65518 0.418737 0
M  V30 17617 C 1607.77 2.92412 -2.05499 0
M  V30 17618 S 1609.33 3.83263 -2.13669 0
M  V30 17619 H 1606.15 0.560119 -0.437936 0
M  V30 17620 H 1608.75 1.02554 -1.66442 0
M  V30 17621 H 1607.45 2.7006 -3.09024 0
M  V30 17622 H 1606.98 3.58145 -1.62774 0
M  V30 17623 H 1609 4.79448 -1.27843 0
M  V30 17624 N 1608.17 1.14759 1.0802 0
M  V30 17625 C 1609.42 0.919609 1.80751 0
M  V30 17626 C 1609.75 -0.552268 1.86182 0
M  V30 17627 O 1609.03 -1.40922 1.34057 0
M  V30 17628 C 1609.31 1.52611 3.26162 0
M  V30 17629 C 1609.16 3.06811 3.28918 0
M  V30 17630 C 1610.48 1.20625 4.23246 0
M  V30 17631 H 1607.6 0.33551 0.656203 0
M  V30 17632 H 1610.24 1.41816 1.26444 0
M  V30 17633 H 1608.39 1.10213 3.72539 0
M  V30 17634 H 1610.06 3.58068 2.90835 0
M  V30 17635 H 1608.31 3.41055 2.68075 0
M  V30 17636 H 1608.98 3.44357 4.31419 0
M  V30 17637 H 1611.45 1.57287 3.85227 0
M  V30 17638 H 1610.33 1.65689 5.23296 0
M  V30 17639 H 1610.59 0.122177 4.41931 0
M  V30 17640 N 1609.65 -1.26251 0.943322 0
M  V30 17641 C 1610.58 -2.25468 0.411904 0
M  V30 17642 C 1611.6 -1.55988 -0.466005 0
M  V30 17643 O 1612.78 -1.76352 -0.276106 0
M  V30 17644 C 1609.88 -3.362 -0.426909 0
M  V30 17645 C 1609.06 -4.35228 0.435346 0
M  V30 17646 C 1608.12 -5.25078 -0.343388 0
M  V30 17647 O 1607.14 -5.68632 0.254322 0
M  V30 17648 N 1608.34 -5.5687 -1.63939 0
M  V30 17649 H 1611.11 -2.71701 1.26486 0
M  V30 17650 H 1608.67 -1.40039 0.812438 0
M  V30 17651 H 1610.66 -3.93263 -0.955316 0
M  V30 17652 H 1609.23 -2.89446 -1.18067 0
M  V30 17653 H 1608.45 -3.77206 1.14495 0
M  V30 17654 H 1609.74 -4.98384 1.02427 0
M  V30 17655 H 1609.14 -5.2337 -2.14709 0
M  V30 17656 H 1607.7 -6.16566 -2.11399 0
M  V30 17657 N 1611.13 -0.710588 -1.40671 0
M  V30 17658 C 1612.36 -0.257069 -2.04994 0
M  V30 17659 C 1612.77 1.10431 -1.53628 0
M  V30 17660 O 1612.11 1.70422 -0.685726 0
M  V30 17661 C 1612.17 -0.153646 -3.59172 0
M  V30 17662 C 1611.84 -1.4495 -4.33403 0
M  V30 17663 C 1612.83 -2.39042 -4.61687 0
M  V30 17664 C 1610.52 -1.70704 -4.72404 0
M  V30 17665 C 1612.51 -3.57137 -5.27951 0
M  V30 17666 C 1610.2 -2.89082 -5.384 0
M  V30 17667 C 1611.2 -3.82121 -5.66103 0
M  V30 17668 O 1610.89 -4.98424 -6.30737 0
M  V30 17669 H 1610.62 -0.114202 -0.666284 0
M  V30 17670 H 1613.17 -0.968028 -1.81158 0
M  V30 17671 H 1611.4 0.613213 -3.81807 0
M  V30 17672 H 1613.09 0.264655 -4.05036 0
M  V30 17673 H 1613.86 -2.20407 -4.32025 0
M  V30 17674 H 1609.74 -0.99142 -4.50213 0
M  V30 17675 H 1613.28 -4.29775 -5.4949 0
M  V30 17676 H 1609.18 -3.07627 -5.67482 0
M  V30 17677 H 1609.94 -4.98436 -6.49233 0
M  V30 17678 N 1612.61 1.50847 -0.456408 0
M  V30 17679 C 1613.57 2.26755 0.33388 0
M  V30 17680 C 1614.57 1.30947 0.933247 0
M  V30 17681 O 1615.76 1.54499 0.804716 0
M  V30 17682 C 1612.89 3.07378 1.47417 0
M  V30 17683 H 1614.09 2.98061 -0.331634 0
M  V30 17684 H 1611.64 1.54882 -0.210067 0
M  V30 17685 H 1612.37 2.40534 2.17518 0
M  V30 17686 H 1612.16 3.7777 1.05036 0
M  V30 17687 H 1613.65 3.64826 2.03204 0
M  V30 17688 N 1614.09 0.188454 1.56469 0
M  V30 17689 C 1615.02 -0.730379 2.21783 0
M  V30 17690 C 1616 -1.22629 1.17882 0
M  V30 17691 O 1617.18 -1.27634 1.46367 0
M  V30 17692 C 1614.31 -1.95278 2.872 0
M  V30 17693 C 1613.27 -1.59205 3.97288 0
M  V30 17694 C 1612.59 -2.89052 4.49836 0
M  V30 17695 C 1613.89 -0.807027 5.16027 0
M  V30 17696 H 1615.59 -0.185914 2.98822 0
M  V30 17697 H 1613.13 -0.0879804 1.43731 0
M  V30 17698 H 1615.08 -2.60074 3.31571 0
M  V30 17699 H 1613.81 -2.52167 2.07556 0
M  V30 17700 H 1612.47 -0.967713 3.53597 0
M  V30 17701 H 1612.12 -3.44017 3.66963 0
M  V30 17702 H 1611.82 -2.65663 5.24115 0
M  V30 17703 H 1613.34 -3.54847 4.96906 0
M  V30 17704 H 1614.75 -1.35794 5.56986 0
M  V30 17705 H 1613.15 -0.671516 5.96331 0
M  V30 17706 H 1614.22 0.193251 4.84515 0
M  V30 17707 N 1615.56 -1.5737 -0.0851874 0
M  V30 17708 C 1616.51 -2.02758 -1.10262 0
M  V30 17709 C 1617.48 -0.905702 -1.39235 0
M  V30 17710 O 1618.67 -1.17241 -1.50529 0
M  V30 17711 C 1615.81 -2.46528 -2.41492 0
M  V30 17712 C 1614.92 -3.72278 -2.19165 0
M  V30 17713 C 1614.05 -4.04885 -3.43863 0
M  V30 17714 C 1613.09 -5.23715 -3.16842 0
M  V30 17715 N 1612.23 -5.52026 -4.33833 0
M  V30 17716 H 1617.07 -2.89453 -0.708583 0
M  V30 17717 H 1614.61 -1.43156 -0.338332 0
M  V30 17718 H 1616.56 -2.69952 -3.18091 0
M  V30 17719 H 1615.19 -1.62829 -2.78723 0
M  V30 17720 H 1614.25 -3.56272 -1.33321 0
M  V30 17721 H 1615.56 -4.5902 -1.95197 0
M  V30 17722 H 1614.71 -4.29138 -4.28865 0
M  V30 17723 H 1613.45 -3.16683 -3.70895 0
M  V30 17724 H 1612.46 -4.99272 -2.30234 0
M  V30 17725 H 1613.68 -6.13523 -2.91146 0
M  V30 17726 H 1611.63 -4.66784 -4.60922 0
M  V30 17727 H 1611.54 -6.3316 -4.13091 0
M  V30 17728 H 1612.81 -5.80822 -5.19871 0
M  V30 17729 N 1617.04 0.356258 -1.53521 0
M  V30 17730 C 1618 1.41975 -1.79933 0
M  V30 17731 C 1619 1.46177 -0.669997 0
M  V30 17732 O 1620.19 1.46774 -0.938239 0
M  V30 17733 C 1617.33 2.81015 -1.92985 0
M  V30 17734 H 1618.52 1.19824 -2.74922 0
M  V30 17735 H 1616.07 0.589928 -1.4474 0
M  V30 17736 H 1616.81 3.08466 -1.00095 0
M  V30 17737 H 1616.59 2.79363 -2.75135 0
M  V30 17738 H 1618.08 3.58013 -2.1498 0
M  V30 17739 N 1618.52 1.45038 0.616577 0
M  V30 17740 C 1619.94 1.29246 0.936359 0
M  V30 17741 C 1620.14 0.238879 2.00079 0
M  V30 17742 O 1619.19 -0.370265 2.4977 0
M  V30 17743 C 1620.5 2.66863 1.38581 0
M  V30 17744 C 1622.05 2.74688 1.50051 0
M  V30 17745 C 1622.53 4.12809 1.98375 0
M  V30 17746 N 1624.02 4.15058 2.05623 0
M  V30 17747 C 1624.75 5.18793 2.44216 0
M  V30 17748 N 1624.25 6.3288 2.81843 0
M  V30 17749 N 1626.04 5.06149 2.44477 0
M  V30 17750 H 1618.19 2.12221 -0.0871304 0
M  V30 17751 H 1620.46 0.947705 0.0236659 0
M  V30 17752 H 1620.16 3.45105 0.677911 0
M  V30 17753 H 1620.04 2.94726 2.35407 0
M  V30 17754 H 1622.42 1.96756 2.19934 0
M  V30 17755 H 1622.5 2.50549 0.515631 0
M  V30 17756 H 1622.15 4.91223 1.29082 0
M  V30 17757 H 1622.08 4.34334 2.97761 0
M  V30 17758 H 1624.57 3.32726 1.79171 0
M  V30 17759 H 1624.88 7.07834 3.10147 0
M  V30 17760 H 1623.23 6.36295 2.7956 0
M  V30 17761 H 1626.42 4.16071 2.14482 0
M  V30 17762 H 1626.59 5.87114 2.74229 0
M  V30 17763 N 1620 -0.858287 1.32179 0
M  V30 17764 C 1621.41 -1.4281 1.20259 0
M  V30 17765 C 1621.76 -1.95313 -0.186332 0
M  V30 17766 O 1620.88 -1.87244 -1.08484 0
M  V30 17767 C 1621.48 -2.59589 2.17713 0
M  V30 17768 C 1620.04 -3.1258 2.09691 0
M  V30 17769 C 1619.19 -1.85317 2.06283 0
M  V30 17770 H 1622.14 -0.665769 1.4406 0
M  V30 17771 H 1622.16 -3.36639 1.77354 0
M  V30 17772 H 1621.67 -2.21346 3.18791 0
M  V30 17773 H 1619.77 -3.55416 1.11849 0
M  V30 17774 H 1619.88 -3.74071 2.99346 0
M  V30 17775 H 1618.25 -2.04766 1.51469 0
M  V30 17776 H 1619.03 -1.49296 3.09137 0
M  V30 17777 N 1621.48 -1.1533 -1.07409 0
M  V30 17778 C 1622.41 -0.872476 -2.16587 0
M  V30 17779 C 1623.39 0.176683 -1.6918 0
M  V30 17780 O 1624.57 0.0311826 -1.94175 0
M  V30 17781 C 1621.7 -0.360342 -3.45426 0
M  V30 17782 C 1620.66 -1.34611 -4.06281 0
M  V30 17783 C 1619.98 -0.692848 -5.30192 0
M  V30 17784 C 1621.28 -2.71191 -4.46378 0
M  V30 17785 H 1622.98 -1.78546 -2.40336 0
M  V30 17786 H 1620.52 -0.859895 -1.15507 0
M  V30 17787 H 1622.47 -0.151429 -4.21128 0
M  V30 17788 H 1621.2 0.588109 -3.21261 0
M  V30 17789 H 1619.86 -1.54137 -3.32622 0
M  V30 17790 H 1619.51 0.261732 -5.02319 0
M  V30 17791 H 1619.21 -1.35071 -5.71865 0
M  V30 17792 H 1620.73 -0.493695 -6.08601 0
M  V30 17793 H 1622.14 -2.55513 -5.13212 0
M  V30 17794 H 1620.54 -3.33345 -4.99 0
M  V30 17795 H 1621.61 -3.273 -3.57775 0
M  V30 17796 N 1622.95 1.25748 -0.950004 0
M  V30 17797 C 1624.37 1.45599 -0.653697 0
M  V30 17798 C 1624.57 1.85357 0.790245 0
M  V30 17799 O 1623.63 1.98071 1.56601 0
M  V30 17800 C 1624.94 2.5316 -1.62267 0
M  V30 17801 C 1626.49 2.67004 -1.63334 0
M  V30 17802 C 1626.96 3.77745 -2.58984 0
M  V30 17803 N 1628.45 3.8515 -2.57321 0
M  V30 17804 C 1629.19 4.70315 -3.28011 0
M  V30 17805 N 1628.68 5.59802 -4.08159 0
M  V30 17806 N 1630.48 4.64239 -3.16921 0
M  V30 17807 H 1622.63 0.982321 -1.88319 0
M  V30 17808 H 1624.89 0.492917 -0.809776 0
M  V30 17809 H 1624.6 2.30792 -2.65382 0
M  V30 17810 H 1624.47 3.50988 -1.38158 0
M  V30 17811 H 1626.86 2.88739 -0.609388 0
M  V30 17812 H 1626.94 1.69591 -1.915 0
M  V30 17813 H 1626.58 3.56761 -3.61502 0
M  V30 17814 H 1626.51 4.74633 -2.28103 0
M  V30 17815 H 1629 3.21178 -1.99131 0
M  V30 17816 H 1629.32 6.21701 -4.59029 0
M  V30 17817 H 1627.66 5.59525 -4.12258 0
M  V30 17818 H 1630.85 3.93335 -2.53782 0
M  V30 17819 H 1631.03 5.30389 -3.72279 0
M  V30 17820 N 1624.43 0.718038 1.40292 0
M  V30 17821 C 1625.67 0.263057 2.027 0
M  V30 17822 C 1626.04 -1.1233 1.55711 0
M  V30 17823 O 1627.24 -1.67541 2.10199 0
M  V30 17824 C 1625.51 0.342773 3.55752 0
M  V30 17825 S 1627.07 -0.0348622 4.38786 0
M  V30 17826 H 1623.88 0.10418 0.703326 0
M  V30 17827 H 1626.49 0.940801 1.71374 0
M  V30 17828 H 1625.19 1.35336 3.87443 0
M  V30 17829 H 1624.72 -0.353367 3.9181 0
M  V30 17830 H 1626.74 -1.25618 4.80036 0
M  V30 17831 N 1625.91 -1.50602 0.464402 0
M  V30 17832 C 1627.14 -2.06401 -0.0906449 0
M  V30 17833 C 1627.55 -1.32913 -1.3465 0
M  V30 17834 O 1626.89 -0.389959 -1.79513 0
M  V30 17835 C 1626.95 -3.56655 -0.451375 0
M  V30 17836 C 1626.62 -4.51584 0.701504 0
M  V30 17837 C 1627.61 -4.95259 1.5816 0
M  V30 17838 C 1625.3 -4.94354 0.88993 0
M  V30 17839 C 1627.29 -5.80404 2.63458 0
M  V30 17840 C 1624.98 -5.79283 1.94615 0
M  V30 17841 C 1625.98 -6.22208 2.81684 0
M  V30 17842 O 1625.67 -7.05446 3.85489 0
M  V30 17843 H 1625.4 -0.676 0.000751268 0
M  V30 17844 H 1627.95 -1.94836 0.650235 0
M  V30 17845 H 1626.18 -3.66098 -1.24535 0
M  V30 17846 H 1627.87 -3.94848 -0.940722 0
M  V30 17847 H 1628.64 -4.6289 1.44768 0
M  V30 17848 H 1624.52 -4.60467 0.221708 0
M  V30 17849 H 1628.06 -6.13829 3.3145 0
M  V30 17850 H 1623.96 -6.11064 2.08016 0
M  V30 17851 H 1624.73 -7.23682 3.82396 0
M  V30 17852 N 1627.39 -0.19675 -1.56367 0
M  V30 17853 C 1628.64 0.441807 -1.96802 0
M  V30 17854 C 1628.95 1.62645 -1.08656 0
M  V30 17855 O 1630.16 2.33291 -1.3888 0
M  V30 17856 C 1628.61 0.837415 -3.50022 0
M  V30 17857 C 1628.22 -0.323031 -4.46834 0
M  V30 17858 C 1629.96 1.44296 -3.99223 0
M  V30 17859 C 1627.87 0.0936285 -5.91326 0
M  V30 17860 H 1626.8 0.168834 -0.734854 0
M  V30 17861 H 1629.45 -0.289029 -1.81209 0
M  V30 17862 H 1627.83 1.62497 -3.61124 0
M  V30 17863 H 1629.01 -1.10056 -4.47464 0
M  V30 17864 H 1627.32 -0.840182 -4.07836 0
M  V30 17865 H 1629.92 1.76718 -5.04653 0
M  V30 17866 H 1630.26 2.35003 -3.43627 0
M  V30 17867 H 1630.8 0.71935 -3.91242 0
M  V30 17868 H 1627.54 -0.779297 -6.50851 0
M  V30 17869 H 1627.06 0.835984 -5.93946 0
M  V30 17870 H 1628.73 0.528864 -6.44835 0
M  V30 17871 N 1628.87 1.57413 0.0768405 0
M  V30 17872 C 1630.28 1.75776 0.629262 0
M  V30 17873 C 1630.63 0.821502 1.78173 0
M  V30 17874 O 1629.75 0.00437198 2.164 0
M  V30 17875 C 1630.35 3.18747 1.14828 0
M  V30 17876 C 1628.91 3.38472 1.64661 0
M  V30 17877 C 1628.05 2.71506 0.563884 0
M  V30 17878 H 1631.01 1.57996 -0.149312 0
M  V30 17879 H 1631.03 3.22628 2.01722 0
M  V30 17880 H 1630.54 3.86866 0.309282 0
M  V30 17881 H 1628.64 2.75461 2.50903 0
M  V30 17882 H 1628.75 4.4689 1.72703 0
M  V30 17883 H 1627.12 2.33917 1.00772 0
M  V30 17884 H 1627.9 3.42277 -0.264847 0
M  V30 17885 N 1630.34 -0.348112 1.53707 0
M  V30 17886 C 1631.29 -1.42729 1.81375 0
M  V30 17887 C 1632.26 -1.52461 0.659159 0
M  V30 17888 O 1633.45 -1.68072 0.903129 0
M  V30 17889 C 1630.59 -2.79443 2.02498 0
M  V30 17890 C 1629.7 -2.7854 3.30211 0
M  V30 17891 C 1628.83 -4.06942 3.41426 0
M  V30 17892 C 1627.87 -4.00248 4.63106 0
M  V30 17893 N 1627.01 -5.20332 4.7138 0
M  V30 17894 H 1631.85 -1.18436 2.73454 0
M  V30 17895 H 1629.39 -0.573809 1.35447 0
M  V30 17896 H 1631.35 -3.58888 2.12733 0
M  V30 17897 H 1629.98 -3.02099 1.13737 0
M  V30 17898 H 1629.03 -1.91227 3.28841 0
M  V30 17899 H 1630.34 -2.69471 4.19746 0
M  V30 17900 H 1629.49 -4.94808 3.51069 0
M  V30 17901 H 1628.23 -4.18786 2.49939 0
M  V30 17902 H 1627.24 -3.10767 4.53546 0
M  V30 17903 H 1628.46 -3.89991 5.55953 0
M  V30 17904 H 1626.41 -5.32729 3.828 0
M  V30 17905 H 1626.33 -5.13502 5.54844 0
M  V30 17906 H 1627.59 -6.09982 4.85326 0
M  V30 17907 N 1631.82 -1.45363 -0.608876 0
M  V30 17908 C 1632.77 -1.54268 -1.7408 0
M  V30 17909 C 1633.76 -0.412752 -1.64295 0
M  V30 17910 O 1634.97 -0.58861 -1.70104 0
M  V30 17911 H 1631.35 -0.484528 -0.575097 0
M  V30 17912 H 1633.32 -2.49492 -1.63696 0
M  V30 17913 C 1632.07 -1.5253 -3.12458 0
M  V30 17914 H 1631.39 -2.38801 -3.20646 0
M  V30 17915 H 1632.83 -1.62819 -3.91492 0
M  V30 17916 C 1631.29 -0.249525 -3.35975 0
M  V30 17917 O 1631.82 0.671159 -3.96053 0
M  V30 17918 N 1630.02 -0.145625 -2.90235 0
M  V30 17919 H 1629.57 -0.895714 -2.41526 0
M  V30 17920 H 1629.53 0.707167 -3.06344 0
M  V30 17921 N 1633.3 0.851265 -1.32632 0
M  V30 17922 C 1634.71 1.4217 -1.21015 0
M  V30 17923 C 1635.06 1.95409 0.175972 0
M  V30 17924 O 1634.19 1.87816 1.07489 0
M  V30 17925 C 1634.78 2.58431 -2.19086 0
M  V30 17926 C 1633.34 3.11464 -2.11346 0
M  V30 17927 C 1632.49 1.84221 -2.07263 0
M  V30 17928 H 1635.44 0.65812 -1.44411 0
M  V30 17929 H 1635.46 3.35694 -1.79137 0
M  V30 17930 H 1634.97 2.19652 -3.1996 0
M  V30 17931 H 1633.07 3.54818 -1.13732 0
M  V30 17932 H 1633.19 3.72478 -3.01325 0
M  V30 17933 H 1631.55 2.0396 -1.52553 0
M  V30 17934 H 1632.33 1.47654 -3.09924 0
M  V30 17935 N 1634.78 1.15898 1.06796 0
M  V30 17936 C 1636.01 0.959978 1.82943 0
M  V30 17937 C 1636.42 -0.495084 1.82608 0
M  V30 17938 O 1635.76 -1.35528 1.24008 0
M  V30 17939 C 1635.82 1.40408 3.30947 0
M  V30 17940 C 1635.49 2.87801 3.54993 0
M  V30 17941 C 1636.48 3.85834 3.48465 0
M  V30 17942 C 1634.17 3.25601 3.82478 0
M  V30 17943 C 1636.16 5.19672 3.6908 0
M  V30 17944 C 1633.85 4.59609 4.02744 0
M  V30 17945 C 1634.85 5.56454 3.96041 0
M  V30 17946 O 1634.53 6.8804 4.1576 0
M  V30 17947 H 1634.27 0.340717 0.583856 0
M  V30 17948 H 1636.82 1.54211 1.35677 0
M  V30 17949 H 1635.05 0.765395 3.7905 0
M  V30 17950 H 1636.74 1.1733 3.88572 0
M  V30 17951 H 1637.51 3.57977 3.27227 0
M  V30 17952 H 1633.38 2.50803 3.86806 0
M  V30 17953 H 1636.93 5.95249 3.63764 0
M  V30 17954 H 1632.83 4.8718 4.23469 0
M  V30 17955 H 1633.59 6.94541 4.33076 0
M  V30 17956 N 1636.26 -1.25243 0.956659 0
M  V30 17957 C 1637.19 -2.25019 0.435795 0
M  V30 17958 C 1638.2 -1.56473 -0.449435 0
M  V30 17959 O 1639.39 -1.76635 -0.257386 0
M  V30 17960 C 1636.49 -3.36634 -0.391226 0
M  V30 17961 C 1635.66 -4.34742 0.481483 0
M  V30 17962 C 1634.72 -5.25413 -0.287678 0
M  V30 17963 O 1633.75 -5.6833 0.314618 0
M  V30 17964 N 1634.95 -5.58578 -1.58023 0
M  V30 17965 H 1637.72 -2.70344 1.2936 0
M  V30 17966 H 1635.28 -1.3917 0.827245 0
M  V30 17967 H 1637.27 -3.94254 -0.913552 0
M  V30 17968 H 1635.84 -2.90682 -1.14991 0
M  V30 17969 H 1635.06 -3.75971 1.18489 0
M  V30 17970 H 1636.35 -4.97269 1.07707 0
M  V30 17971 H 1635.74 -5.25618 -2.09146 0
M  V30 17972 H 1634.3 -6.18774 -2.04848 0
M  V30 17973 N 1637.73 -0.725468 -1.3991 0
M  V30 17974 C 1638.96 -0.278797 -2.0471 0
M  V30 17975 C 1639.37 1.08796 -1.54791 0
M  V30 17976 O 1638.72 1.69685 -0.703763 0
M  V30 17977 C 1638.78 -0.191732 -3.58988 0
M  V30 17978 C 1638.44 -1.49539 -4.31842 0
M  V30 17979 C 1639.44 -2.43925 -4.59126 0
M  V30 17980 C 1637.12 -1.75705 -4.70567 0
M  V30 17981 C 1639.12 -3.62717 -5.24133 0
M  V30 17982 C 1636.8 -2.94776 -5.35304 0
M  V30 17983 C 1637.8 -3.88104 -5.62018 0
M  V30 17984 O 1637.49 -5.05085 -6.25415 0
M  V30 17985 H 1637.22 -0.121262 -0.665035 0
M  V30 17986 H 1639.78 -0.987188 -1.80122 0
M  V30 17987 H 1638.01 0.572683 -3.82436 0
M  V30 17988 H 1639.7 0.22168 -4.05294 0
M  V30 17989 H 1640.46 -2.24977 -4.29663 0
M  V30 17990 H 1636.34 -1.03912 -4.49136 0
M  V30 17991 H 1639.88 -4.35579 -5.44901 0
M  V30 17992 H 1635.78 -3.13629 -5.64187 0
M  V30 17993 H 1636.55 -5.05294 -6.4391 0
M  V30 17994 N 1639.21 1.50354 -0.472382 0
M  V30 17995 C 1640.14 2.26396 0.357429 0
M  V30 17996 C 1641.16 1.31778 0.955949 0
M  V30 17997 O 1642.35 1.57279 0.844136 0
M  V30 17998 C 1639.45 3.03131 1.51542 0
M  V30 17999 C 1638.62 4.25113 1.02945 0
M  V30 18000 C 1637.68 4.84131 2.06164 0
M  V30 18001 O 1636.7 5.4501 1.64174 0
M  V30 18002 N 1637.91 4.71244 3.38983 0
M  V30 18003 H 1640.67 2.9825 -0.294473 0
M  V30 18004 H 1638.23 1.59035 -0.303242 0
M  V30 18005 H 1640.22 3.39492 2.20289 0
M  V30 18006 H 1638.79 2.34067 2.07199 0
M  V30 18007 H 1638.01 3.93843 0.167821 0
M  V30 18008 H 1639.3 5.04199 0.682705 0
M  V30 18009 H 1638.7 4.22831 3.75807 0
M  V30 18010 H 1637.26 5.11871 4.03524 0
M  V30 18011 N 1640.69 0.205039 1.56261 0
M  V30 18012 C 1641.94 -0.431735 1.98151 0
M  V30 18013 C 1642.27 -1.60579 1.09215 0
M  V30 18014 O 1641.55 -1.93949 0.146257 0
M  V30 18015 C 1641.83 -0.882278 3.49124 0
M  V30 18016 C 1641.68 0.294278 4.48836 0
M  V30 18017 C 1643 -1.7443 4.04057 0
M  V30 18018 H 1640.12 -0.155457 0.720418 0
M  V30 18019 H 1642.76 0.29796 1.87649 0
M  V30 18020 H 1640.91 -1.50404 3.58205 0
M  V30 18021 H 1642.58 0.932148 4.51784 0
M  V30 18022 H 1640.83 0.94444 4.23394 0
M  V30 18023 H 1641.5 -0.063639 5.51963 0
M  V30 18024 H 1643.97 -1.21983 3.97818 0
M  V30 18025 H 1642.85 -2.02848 5.10043 0
M  V30 18026 H 1643.11 -2.70195 3.49924 0
M  V30 18027 N 1642.17 -1.57451 -0.0684915 0
M  V30 18028 C 1643.42 -1.88551 -0.762893 0
M  V30 18029 C 1643.77 -0.799127 -1.75019 0
M  V30 18030 O 1643.06 0.196383 -1.90591 0
M  V30 18031 C 1643.26 -3.24044 -1.50765 0
M  V30 18032 C 1643.09 -4.4576 -0.593989 0
M  V30 18033 C 1641.86 -5.04778 -0.229695 0
M  V30 18034 C 1644.05 -5.14181 0.110706 0
M  V30 18035 N 1642.04 -6.10017 0.689348 0
M  V30 18036 C 1643.41 -6.13625 0.886817 0
M  V30 18037 C 1645.46 -4.97568 0.181829 0
M  V30 18038 C 1644.17 -6.98249 1.72745 0
M  V30 18039 C 1646.19 -5.82721 1.00945 0
M  V30 18040 C 1645.55 -6.81706 1.77359 0
M  V30 18041 H 1641.65 -0.739431 -0.254491 0
M  V30 18042 H 1644.24 -1.94685 -0.0242838 0
M  V30 18043 H 1642.41 -3.18913 -2.21696 0
M  V30 18044 H 1644.14 -3.42782 -2.15133 0
M  V30 18045 H 1640.89 -4.69994 -0.583282 0
M  V30 18046 H 1641.32 -6.67295 1.14221 0
M  V30 18047 H 1645.96 -4.20954 -0.394627 0
M  V30 18048 H 1643.68 -7.74235 2.31486 0
M  V30 18049 H 1647.26 -5.71923 1.0675 0
M  V30 18050 H 1646.14 -7.46454 2.40367 0
M  V30 18051 N 1643.65 0.339955 -1.5389 0
M  V30 18052 C 1644.88 1.09816 -1.74997 0
M  V30 18053 C 1645.29 1.82725 -0.490746 0
M  V30 18054 O 1644.63 1.75352 0.547467 0
M  V30 18055 C 1644.69 2.15388 -2.87834 0
M  V30 18056 C 1644.35 1.62022 -4.27315 0
M  V30 18057 C 1645.35 1.07064 -5.08757 0
M  V30 18058 C 1643.04 1.6676 -4.7381 0
M  V30 18059 C 1645.03 0.575529 -6.34796 0
M  V30 18060 C 1642.72 1.16861 -5.99822 0
M  V30 18061 C 1643.72 0.623505 -6.80148 0
M  V30 18062 O 1643.4 0.131966 -8.03792 0
M  V30 18063 H 1643.14 0.333199 -0.588179 0
M  V30 18064 H 1645.69 0.39682 -2.0153 0
M  V30 18065 H 1643.92 2.89091 -2.56834 0
M  V30 18066 H 1645.61 2.76801 -2.96877 0
M  V30 18067 H 1646.37 1.02723 -4.73997 0
M  V30 18068 H 1642.25 2.08129 -4.11343 0
M  V30 18069 H 1645.8 0.149389 -6.9744 0
M  V30 18070 H 1641.69 1.20904 -6.34076 0
M  V30 18071 H 1642.46 0.24892 -8.18121 0
M  V30 18072 N 1645.13 1.45684 0.601159 0
M  V30 18073 C 1646.37 1.49308 1.3561 0
M  V30 18074 C 1646.69 0.141561 1.95087 0
M  V30 18075 O 1647.89 0.0554805 2.71443 0
M  V30 18076 C 1646.35 2.63001 2.4568 0
M  V30 18077 C 1645.96 4.04493 1.92586 0
M  V30 18078 C 1647.7 2.75877 3.22633 0
M  V30 18079 C 1645.61 5.09557 3.00176 0
M  V30 18080 H 1644.54 0.555604 0.509726 0
M  V30 18081 H 1647.19 1.71843 0.643606 0
M  V30 18082 H 1645.57 2.33761 3.19643 0
M  V30 18083 H 1646.75 4.4344 1.25289 0
M  V30 18084 H 1645.06 3.96123 1.28358 0
M  V30 18085 H 1647.66 3.51541 4.02893 0
M  V30 18086 H 1648 1.82737 3.74049 0
M  V30 18087 H 1648.53 3.04674 2.5577 0
M  V30 18088 H 1645.27 6.04427 2.53669 0
M  V30 18089 H 1644.79 4.75173 3.6602 0
M  V30 18090 H 1646.47 5.34591 3.64447 0
M  V30 18091 N 1646.6 -0.84422 1.33082 0
M  V30 18092 C 1647.85 -1.60149 1.24419 0
M  V30 18093 C 1648.18 -1.93259 -0.190992 0
M  V30 18094 O 1647.46 -1.58242 -1.13092 0
M  V30 18095 C 1647.74 -2.91502 2.11421 0
M  V30 18096 C 1647.59 -2.65108 3.6337 0
M  V30 18097 C 1648.91 -3.92878 1.98331 0
M  V30 18098 H 1646.03 -0.581096 0.453317 0
M  V30 18099 H 1648.67 -0.974093 1.6313 0
M  V30 18100 H 1646.82 -3.45046 1.78537 0
M  V30 18101 H 1648.5 -2.18037 4.06519 0
M  V30 18102 H 1646.74 -1.98896 3.85516 0
M  V30 18103 H 1647.41 -3.58682 4.19584 0
M  V30 18104 H 1649.89 -3.48623 2.27159 0
M  V30 18105 H 1648.76 -4.82625 2.61466 0
M  V30 18106 H 1649.02 -4.31685 0.953972 0
M  V30 18107 N 1648.08 -1.16463 -1.0618 0
M  V30 18108 C 1649.31 -0.971075 -1.82696 0
M  V30 18109 C 1649.72 0.480716 -1.82578 0
M  V30 18110 O 1649.08 1.33366 -1.24579 0
M  V30 18111 C 1649.13 -1.49235 -3.29259 0
M  V30 18112 O 1648.85 -2.88728 -3.29496 0
M  V30 18113 C 1650.35 -1.34197 -4.225 0
M  V30 18114 H 1647.57 -0.34415 -0.576023 0
M  V30 18115 H 1650.12 -1.54517 -1.33958 0
M  V30 18116 H 1648.27 -0.960503 -3.75304 0
M  V30 18117 H 1648.69 -3.12618 -4.21153 0
M  V30 18118 H 1650.16 -1.75499 -5.23358 0
M  V30 18119 H 1650.64 -0.287685 -4.38257 0
M  V30 18120 H 1651.24 -1.86349 -3.82301 0
M  V30 18121 N 1649.56 1.24734 -0.963288 0
M  V30 18122 C 1650.78 1.97285 -0.639808 0
M  V30 18123 C 1651.21 1.71024 0.783099 0
M  V30 18124 O 1650.57 0.971324 1.53085 0
M  V30 18125 C 1650.62 3.48793 -0.915197 0
M  V30 18126 O 1649.72 4.124 0.00162805 0
M  V30 18127 H 1649.06 0.618196 -0.242343 0
M  V30 18128 H 1651.59 1.58627 -1.29224 0
M  V30 18129 H 1651.6 3.99155 -0.84495 0
M  V30 18130 H 1650.28 3.67235 -1.95221 0
M  V30 18131 H 1648.85 3.72702 -0.121563 0
M  V30 18132 N 1651.04 0.732878 1.39523 0
M  V30 18133 C 1652.26 0.288717 2.05381 0
M  V30 18134 C 1652.69 -1.06727 1.5489 0
M  V30 18135 O 1652.05 -1.67585 0.691726 0
M  V30 18136 C 1652.09 0.297738 3.59369 0
M  V30 18137 O 1651.2 -0.715335 4.06149 0
M  V30 18138 H 1650.54 0.131696 0.650809 0
M  V30 18139 H 1653.07 0.998206 1.78597 0
M  V30 18140 H 1653.08 0.141391 4.07755 0
M  V30 18141 H 1651.75 1.28719 3.9548 0
M  V30 18142 H 1650.33 -0.525298 3.69182 0
M  V30 18143 N 1652.52 -1.50101 0.480349 0
M  V30 18144 C 1653.75 -2.06486 -0.0687482 0
M  V30 18145 C 1654.15 -1.34334 -1.33233 0
M  V30 18146 O 1653.5 -0.408976 -1.7909 0
M  V30 18147 C 1653.56 -3.57114 -0.413522 0
M  V30 18148 C 1653.22 -4.50814 0.749361 0
M  V30 18149 C 1654.22 -4.93554 1.63404 0
M  V30 18150 C 1651.9 -4.93382 0.942313 0
M  V30 18151 C 1653.9 -5.77577 2.696 0
M  V30 18152 C 1651.59 -5.77186 2.00748 0
M  V30 18153 C 1652.58 -6.19185 2.88268 0
M  V30 18154 O 1652.27 -7.01317 3.92949 0
M  V30 18155 H 1652 -0.675954 0.00792111 0
M  V30 18156 H 1654.56 -1.94135 0.670863 0
M  V30 18157 H 1652.79 -3.67399 -1.20645 0
M  V30 18158 H 1654.48 -3.95824 -0.89879 0
M  V30 18159 H 1655.24 -4.61329 1.4967 0
M  V30 18160 H 1651.12 -4.60206 0.270534 0
M  V30 18161 H 1654.67 -6.10279 3.37942 0
M  V30 18162 H 1650.56 -6.08824 2.14486 0
M  V30 18163 H 1651.33 -7.19585 3.9005 0
M  V30 18164 N 1653.99 -0.213323 -1.5615 0
M  V30 18165 C 1655.24 0.420598 -1.98084 0
M  V30 18166 C 1655.57 1.60355 -1.10075 0
M  V30 18167 O 1654.82 1.95171 -0.143848 0
M  V30 18168 C 1655.12 0.905764 -3.45732 0
M  V30 18169 C 1654.79 -0.165778 -4.50595 0
M  V30 18170 C 1653.45 -0.460161 -4.78995 0
M  V30 18171 C 1655.8 -0.890891 -5.1353 0
M  V30 18172 C 1653.13 -1.48432 -5.67613 0
M  V30 18173 C 1655.48 -1.90433 -6.03256 0
M  V30 18174 C 1654.15 -2.20572 -6.30004 0
M  V30 18175 H 1653.42 0.153908 -0.72484 0
M  V30 18176 H 1656.06 -0.314117 -1.88906 0
M  V30 18177 H 1654.37 1.71909 -3.52072 0
M  V30 18178 H 1656.07 1.40596 -3.75545 0
M  V30 18179 H 1652.66 0.0738261 -4.28536 0
M  V30 18180 H 1656.84 -0.676696 -4.91665 0
M  V30 18181 H 1652.1 -1.72354 -5.86604 0
M  V30 18182 H 1656.27 -2.47131 -6.51075 0
M  V30 18183 H 1653.9 -3.00074 -6.9847 0
M  V30 18184 N 1655.47 1.57485 0.0601405 0
M  V30 18185 C 1656.38 2.07853 1.08785 0
M  V30 18186 C 1657.4 1.01047 1.41653 0
M  V30 18187 O 1658.57 1.32592 1.51596 0
M  V30 18188 C 1655.64 2.52214 2.37885 0
M  V30 18189 C 1654.7 3.73369 2.11882 0
M  V30 18190 C 1653.93 4.15604 3.34827 0
M  V30 18191 O 1654.16 3.5761 4.44377 0
M  V30 18192 O 1653.09 5.08303 3.22353 0
M  V30 18193 H 1656.92 2.9576 0.689912 0
M  V30 18194 H 1654.5 1.46846 0.275065 0
M  V30 18195 H 1656.38 2.81216 3.1384 0
M  V30 18196 H 1655.06 1.67432 2.77035 0
M  V30 18197 H 1653.97 3.49433 1.33594 0
M  V30 18198 H 1655.3 4.59039 1.77606 0
M  V30 18199 N 1656.95 -0.331789 1.54068 0
M  V30 18200 C 1658.18 -1.08886 1.75577 0
M  V30 18201 C 1658.59 -1.82462 0.50043 0
M  V30 18202 O 1657.93 -1.7564 -0.53816 0
M  V30 18203 C 1657.99 -2.13858 2.88972 0
M  V30 18204 C 1657.66 -1.59754 4.28168 0
M  V30 18205 C 1658.65 -1.04365 5.09317 0
M  V30 18206 C 1656.34 -1.64245 4.74688 0
M  V30 18207 C 1658.33 -0.541856 6.35093 0
M  V30 18208 C 1656.02 -1.13679 6.00433 0
M  V30 18209 C 1657.02 -0.587426 6.80469 0
M  V30 18210 O 1656.71 -0.0893367 8.0385 0
M  V30 18211 H 1656.44 -0.330075 0.589938 0
M  V30 18212 H 1658.99 -0.386127 2.01738 0
M  V30 18213 H 1657.22 -2.87724 2.58363 0
M  V30 18214 H 1658.91 -2.75223 2.98341 0
M  V30 18215 H 1659.68 -1.00208 4.74535 0
M  V30 18216 H 1655.56 -2.05945 4.12441 0
M  V30 18217 H 1659.1 -0.1124 6.97509 0
M  V30 18218 H 1655 -1.1754 6.34708 0
M  V30 18219 H 1655.77 -0.205529 8.18242 0
M  V30 18220 N 1658.43 -1.46001 -0.593424 0
M  V30 18221 C 1659.36 -1.58605 -1.71367 0
M  V30 18222 C 1660.34 -0.436866 -1.64394 0
M  V30 18223 O 1661.52 -0.661782 -1.82576 0
M  V30 18224 C 1658.65 -1.56587 -3.09996 0
M  V30 18225 C 1657.61 -2.70366 -3.31792 0
M  V30 18226 C 1656.93 -2.53406 -4.70839 0
M  V30 18227 C 1658.23 -4.12274 -3.20667 0
M  V30 18228 H 1659.93 -2.52379 -1.61076 0
M  V30 18229 H 1657.47 -1.21462 -0.773499 0
M  V30 18230 H 1659.43 -1.64 -3.88178 0
M  V30 18231 H 1658.15 -0.593511 -3.21162 0
M  V30 18232 H 1656.81 -2.62405 -2.56006 0
M  V30 18233 H 1656.46 -1.54278 -4.78756 0
M  V30 18234 H 1656.16 -3.29715 -4.86376 0
M  V30 18235 H 1657.68 -2.62694 -5.51203 0
M  V30 18236 H 1659.1 -4.21404 -3.88705 0
M  V30 18237 H 1657.49 -4.89085 -3.47729 0
M  V30 18238 H 1658.56 -4.33184 -2.17898 0
M  V30 18239 N 1659.91 0.83715 -1.33527 0
M  V30 18240 C 1660.84 1.95164 -1.18263 0
M  V30 18241 C 1661.82 1.62414 -0.0776864 0
M  V30 18242 O 1663 1.86963 -0.24024 0
M  V30 18243 C 1660.13 3.28766 -0.814294 0
M  V30 18244 C 1659.17 3.80486 -1.92698 0
M  V30 18245 S 1660.01 4.01957 -3.53823 0
M  V30 18246 C 1661.16 5.38507 -3.19 0
M  V30 18247 H 1661.4 2.07813 -2.12605 0
M  V30 18248 H 1658.93 0.991125 -1.18389 0
M  V30 18249 H 1660.89 4.05964 -0.608556 0
M  V30 18250 H 1659.55 3.13905 0.110553 0
M  V30 18251 H 1658.74 4.77164 -1.62266 0
M  V30 18252 H 1658.34 3.10189 -2.08947 0
M  V30 18253 H 1660.64 6.21404 -2.69931 0
M  V30 18254 H 1661.58 5.73913 -4.14764 0
M  V30 18255 H 1661.99 5.03342 -2.55552 0
M  V30 18256 N 1661.38 1.17024 1.05561 0
M  V30 18257 C 1662.63 0.956325 1.78496 0
M  V30 18258 C 1662.96 -0.51532 1.87549 0
M  V30 18259 O 1662.21 -1.3986 1.36885 0
M  V30 18260 C 1662.51 1.53798 3.22616 0
M  V30 18261 C 1662.18 3.03321 3.33628 0
M  V30 18262 C 1660.84 3.44135 3.3634 0
M  V30 18263 C 1663.19 3.99325 3.34946 0
M  V30 18264 C 1660.52 4.79558 3.37995 0
M  V30 18265 C 1662.87 5.34644 3.3814 0
M  V30 18266 C 1661.54 5.74928 3.39138 0
M  V30 18267 H 1660.81 0.349944 0.653162 0
M  V30 18268 H 1663.45 1.45856 1.2409 0
M  V30 18269 H 1661.76 0.957374 3.79923 0
M  V30 18270 H 1663.46 1.34806 3.77662 0
M  V30 18271 H 1660.05 2.70782 3.32227 0
M  V30 18272 H 1664.23 3.68854 3.32055 0
M  V30 18273 H 1659.49 5.10088 3.37076 0
M  V30 18274 H 1663.66 6.08815 3.38108 0
M  V30 18275 H 1661.29 6.79843 3.40173 0
M  V30 18276 N 1662.86 -1.24221 0.969889 0
M  V30 18277 C 1663.83 -2.23529 0.506686 0
M  V30 18278 C 1664.83 -1.55797 -0.397968 0
M  V30 18279 O 1666.02 -1.73126 -0.193124 0
M  V30 18280 C 1663.15 -3.39861 -0.265943 0
M  V30 18281 H 1664.34 -2.66022 1.38463 0
M  V30 18282 H 1661.89 -1.36872 0.754698 0
M  V30 18283 H 1662.63 -3.0281 -1.16089 0
M  V30 18284 H 1662.41 -3.90222 0.383286 0
M  V30 18285 H 1663.9 -4.13567 -0.578975 0
M  V30 18286 N 1664.34 -0.740267 -1.39132 0
M  V30 18287 C 1665.27 -0.118951 -2.33197 0
M  V30 18288 C 1666.25 0.718416 -1.54184 0
M  V30 18289 O 1667.44 0.662322 -1.82557 0
M  V30 18290 C 1664.57 0.78512 -3.38309 0
M  V30 18291 C 1663.52 0.0515093 -4.27969 0
M  V30 18292 C 1662.85 1.07295 -5.23824 0
M  V30 18293 C 1664.15 -1.10903 -5.1039 0
M  V30 18294 H 1665.84 -0.904687 -2.85405 0
M  V30 18295 H 1663.39 -0.436493 -1.37225 0
M  V30 18296 H 1665.34 1.22935 -4.03069 0
M  V30 18297 H 1664.06 1.60303 -2.84553 0
M  V30 18298 H 1662.72 -0.373156 -3.64696 0
M  V30 18299 H 1662.37 1.88456 -4.66362 0
M  V30 18300 H 1662.07 0.586827 -5.84662 0
M  V30 18301 H 1663.59 1.51677 -5.91461 0
M  V30 18302 H 1665.01 -0.742993 -5.68465 0
M  V30 18303 H 1663.41 -1.52513 -5.80396 0
M  V30 18304 H 1664.48 -1.92825 -4.44912 0
M  V30 18305 N 1665.82 1.49844 -0.488302 0
M  V30 18306 C 1667.07 2.01603 0.0624744 0
M  V30 18307 C 1667.38 1.37397 1.39217 0
M  V30 18308 O 1668.59 1.8041 2.0289 0
M  V30 18309 C 1667.04 3.59536 0.161824 0
M  V30 18310 C 1666.65 4.32709 -1.16047 0
M  V30 18311 C 1668.39 4.1928 0.663642 0
M  V30 18312 C 1666.3 5.82468 -1.02397 0
M  V30 18313 H 1665.23 0.753512 0.0271222 0
M  V30 18314 H 1667.88 1.72499 -0.625805 0
M  V30 18315 H 1666.26 3.85301 0.914273 0
M  V30 18316 H 1667.44 4.18655 -1.92522 0
M  V30 18317 H 1665.75 3.84652 -1.59473 0
M  V30 18318 H 1668.35 5.28935 0.783069 0
M  V30 18319 H 1668.69 3.81801 1.65933 0
M  V30 18320 H 1669.23 3.97787 -0.0319078 0
M  V30 18321 H 1665.97 6.2445 -1.99355 0
M  V30 18322 H 1665.49 5.9905 -0.299902 0
M  V30 18323 H 1667.16 6.43229 -0.697538 0
M  V30 18324 N 1667.3 0.221601 1.56034 0
M  V30 18325 C 1668.23 -0.728495 2.1626 0
M  V30 18326 C 1669.21 -1.19097 1.107 0
M  V30 18327 O 1670.39 -1.27371 1.38957 0
M  V30 18328 C 1667.52 -1.987 2.74292 0
M  V30 18329 C 1666.56 -1.66449 3.92679 0
M  V30 18330 S 1667.4 -0.78924 5.29652 0
M  V30 18331 C 1668.55 -2.05731 5.91122 0
M  V30 18332 H 1668.79 -0.216607 2.9651 0
M  V30 18333 H 1666.32 0.0062956 1.54399 0
M  V30 18334 H 1668.28 -2.70962 3.08366 0
M  V30 18335 H 1666.94 -2.47001 1.94034 0
M  V30 18336 H 1666.13 -2.59955 4.31786 0
M  V30 18337 H 1665.73 -1.0225 3.59751 0
M  V30 18338 H 1668.03 -3.00728 6.07099 0
M  V30 18339 H 1668.97 -1.71014 6.87139 0
M  V30 18340 H 1669.38 -2.19786 5.19956 0
M  V30 18341 N 1668.77 -1.57515 -0.0517878 0
M  V30 18342 C 1669.7 -2.0809 -1.05929 0
M  V30 18343 C 1670.69 -0.978529 -1.39136 0
M  V30 18344 O 1671.87 -1.25245 -1.48416 0
M  V30 18345 C 1669 -2.54147 -2.36699 0
M  V30 18346 C 1667.95 -3.68442 -2.17794 0
M  V30 18347 C 1667.28 -4.00624 -3.54125 0
M  V30 18348 C 1668.58 -4.97743 -1.5827 0
M  V30 18349 H 1670.27 -2.92515 -0.638371 0
M  V30 18350 H 1667.82 -1.40719 -0.305625 0
M  V30 18351 H 1669.77 -2.88145 -3.07491 0
M  V30 18352 H 1668.5 -1.66775 -2.80809 0
M  V30 18353 H 1667.16 -3.34758 -1.4944 0
M  V30 18354 H 1666.8 -3.10353 -3.95841 0
M  V30 18355 H 1666.5 -4.77597 -3.42308 0
M  V30 18356 H 1668.03 -4.37136 -4.26315 0
M  V30 18357 H 1669.44 -5.29843 -2.18951 0
M  V30 18358 H 1667.84 -5.79173 -1.57094 0
M  V30 18359 H 1668.91 -4.81815 -0.546127 0
M  V30 18360 N 1670.25 0.323614 -1.54242 0
M  V30 18361 C 1671.2 1.4184 -1.84348 0
M  V30 18362 C 1672.2 1.53553 -0.715384 0
M  V30 18363 O 1673.4 1.5594 -0.899045 0
M  V30 18364 H 1669.78 0.473326 -0.584352 0
M  V30 18365 H 1671.75 1.13672 -2.75901 0
M  V30 18366 C 1670.5 2.78059 -2.08755 0
M  V30 18367 H 1669.82 2.69819 -2.95021 0
M  V30 18368 H 1671.26 3.53731 -2.33774 0
M  V30 18369 C 1669.72 3.25229 -0.879076 0
M  V30 18370 O 1670.25 4.01603 -0.0883125 0
M  V30 18371 N 1668.45 2.82272 -0.690726 0
M  V30 18372 H 1668 2.20283 -1.33542 0
M  V30 18373 H 1667.96 3.14185 0.116344 0
M  V30 18374 N 1671.73 1.46313 0.585673 0
M  V30 18375 C 1672.96 1.55035 1.3701 0
M  V30 18376 C 1673.37 0.190444 1.87837 0
M  V30 18377 O 1672.73 -0.81177 1.63452 0
M  V30 18378 C 1672.78 2.55272 2.55965 0
M  V30 18379 O 1672.5 3.85981 2.07245 0
M  V30 18380 C 1674 2.73906 3.48555 0
M  V30 18381 H 1671.22 0.524377 0.418653 0
M  V30 18382 H 1673.77 1.91695 0.712267 0
M  V30 18383 H 1671.92 2.21625 3.17744 0
M  V30 18384 H 1672.34 4.40512 2.84692 0
M  V30 18385 H 1673.81 3.4797 4.2851 0
M  V30 18386 H 1674.29 1.80708 4.00301 0
M  V30 18387 H 1674.89 3.08638 2.92614 0
M  V30 18388 N 1673.21 -0.830057 1.33969 0
M  V30 18389 C 1674.46 -1.58084 1.25269 0
M  V30 18390 C 1674.77 -1.94792 -0.177557 0
M  V30 18391 O 1675.98 -2.68733 -0.386657 0
M  V30 18392 C 1674.43 -2.85177 2.1955 0
M  V30 18393 C 1674.04 -2.55798 3.67792 0
M  V30 18394 C 1675.79 -3.632 2.19741 0
M  V30 18395 C 1673.69 -3.79041 4.53963 0
M  V30 18396 H 1672.62 -0.593289 0.465321 0
M  V30 18397 H 1675.27 -0.914476 1.5909 0
M  V30 18398 H 1673.66 -3.53401 1.78672 0
M  V30 18399 H 1674.83 -1.9573 4.17165 0
M  V30 18400 H 1673.14 -1.91064 3.69978 0
M  V30 18401 H 1675.74 -4.54695 2.81347 0
M  V30 18402 H 1676.08 -3.98786 1.1948 0
M  V30 18403 H 1676.62 -3.0191 2.59028 0
M  V30 18404 H 1673.36 -3.4858 5.55133 0
M  V30 18405 H 1672.88 -4.38417 4.09329 0
M  V30 18406 H 1674.56 -4.46527 4.68212 0
M  V30 18407 N 1674.69 -1.17582 -1.04939 0
M  V30 18408 C 1675.93 -0.976635 -1.79558 0
M  V30 18409 C 1676.29 0.48588 -1.8575 0
M  V30 18410 O 1677.49 0.804225 -2.56487 0
M  V30 18411 C 1675.76 -1.60316 -3.19427 0
M  V30 18412 S 1677.32 -1.55052 -4.10493 0
M  V30 18413 H 1674.14 -0.350907 -0.618373 0
M  V30 18414 H 1676.74 -1.49572 -1.25891 0
M  V30 18415 H 1675.45 -2.66002 -3.12524 0
M  V30 18416 H 1674.98 -1.08399 -3.78171 0
M  V30 18417 H 1676.99 -0.56028 -4.93027 0
M  V30 18418 N 1676.17 1.23705 -0.976463 0
M  V30 18419 C 1677.1 2.2734 -0.532809 0
M  V30 18420 C 1678.08 1.64523 0.432012 0
M  V30 18421 O 1679.26 1.9144 0.326233 0
M  V30 18422 C 1676.39 3.46887 0.169374 0
M  V30 18423 C 1675.35 4.22031 -0.712336 0
M  V30 18424 C 1674.67 5.34561 0.121838 0
M  V30 18425 C 1675.97 4.8244 -2.00123 0
M  V30 18426 H 1677.67 2.64702 -1.39904 0
M  V30 18427 H 1675.21 1.27244 -0.674156 0
M  V30 18428 H 1677.16 4.18529 0.491028 0
M  V30 18429 H 1675.89 3.08574 1.07002 0
M  V30 18430 H 1674.55 3.522 -1.01739 0
M  V30 18431 H 1674.2 4.92489 1.0229 0
M  V30 18432 H 1673.9 5.85758 -0.464962 0
M  V30 18433 H 1675.42 6.09027 0.437963 0
M  V30 18434 H 1676.83 5.46111 -1.7446 0
M  V30 18435 H 1675.23 5.43906 -2.53548 0
M  V30 18436 H 1676.3 4.03405 -2.69059 0
M  V30 18437 N 1677.64 0.747635 1.38738 0
M  V30 18438 C 1678.89 0.300552 1.99853 0
M  V30 18439 C 1679.21 -1.11986 1.59638 0
M  V30 18440 O 1678.48 -1.76477 0.850447 0
M  V30 18441 H 1677.06 0.108134 0.739132 0
M  V30 18442 H 1679.72 0.960405 1.69594 0
M  V30 18443 H 1678.82 0.358956 3.10029 0
M  V30 18444 N 1679.12 -1.49583 0.496242 0
M  V30 18445 C 1680.05 -2.25783 -0.331257 0
M  V30 18446 C 1681.03 -1.3016 -0.974526 0
M  V30 18447 O 1682.22 -1.59439 -1.00556 0
M  V30 18448 C 1679.34 -3.05323 -1.46614 0
M  V30 18449 C 1678.39 -4.16064 -0.937722 0
M  V30 18450 S 1679.22 -5.35237 0.167715 0
M  V30 18451 C 1680.38 -6.18331 -0.970443 0
M  V30 18452 H 1680.61 -2.95621 0.315507 0
M  V30 18453 H 1678.14 -1.51813 0.28147 0
M  V30 18454 H 1680.1 -3.51735 -2.11642 0
M  V30 18455 H 1678.76 -2.34963 -2.0845 0
M  V30 18456 H 1677.96 -4.71215 -1.78808 0
M  V30 18457 H 1677.56 -3.72217 -0.364726 0
M  V30 18458 H 1679.85 -6.50988 -1.87671 0
M  V30 18459 H 1680.79 -7.0662 -0.457649 0
M  V30 18460 H 1681.2 -5.50811 -1.23563 0
M  V30 18461 N 1680.6 -0.229873 -1.55915 0
M  V30 18462 C 1681.53 0.70927 -2.1795 0
M  V30 18463 C 1682.54 1.15142 -1.15092 0
M  V30 18464 O 1683.73 1.08114 -1.42034 0
M  V30 18465 C 1680.83 1.97359 -2.75504 0
M  V30 18466 C 1680.01 1.68565 -4.03614 0
M  V30 18467 C 1679.07 2.79786 -4.45652 0
M  V30 18468 O 1678.09 2.479 -5.12381 0
M  V30 18469 N 1679.29 4.08921 -4.12024 0
M  V30 18470 H 1682.06 0.178573 -2.99168 0
M  V30 18471 H 1679.62 -0.0491789 -1.61825 0
M  V30 18472 H 1681.61 2.70972 -3.00593 0
M  V30 18473 H 1680.18 2.41454 -1.98542 0
M  V30 18474 H 1679.4 0.785547 -3.86294 0
M  V30 18475 H 1680.69 1.46769 -4.87172 0
M  V30 18476 H 1680.09 4.37667 -3.58419 0
M  V30 18477 H 1678.64 4.79052 -4.41987 0
M  V30 18478 N 1682.08 1.5754 0.0434337 0
M  V30 18479 C 1683.03 2.0207 1.05602 0
M  V30 18480 C 1684.01 0.907491 1.32866 0
M  V30 18481 O 1685.2 1.17141 1.32692 0
M  V30 18482 C 1682.33 2.49176 2.36149 0
M  V30 18483 C 1681.42 3.67289 2.12037 0
M  V30 18484 N 1681.81 4.8051 1.57937 0
M  V30 18485 C 1680.11 3.74386 2.42387 0
M  V30 18486 C 1680.81 5.62214 1.49298 0
M  V30 18487 N 1679.78 5.06899 1.96353 0
M  V30 18488 H 1683.59 2.87035 0.631515 0
M  V30 18489 H 1681.1 1.60464 0.250012 0
M  V30 18490 H 1683.1 2.79331 3.09483 0
M  V30 18491 H 1681.76 1.65611 2.79291 0
M  V30 18492 H 1682.77 5.02237 1.26405 0
M  V30 18493 H 1679.45 3.01592 2.88701 0
M  V30 18494 H 1680.84 6.6315 1.08082 0
M  V30 18495 N 1683.56 -0.31543 1.54411 0
M  V30 18496 C 1684.79 -1.07018 1.76722 0
M  V30 18497 C 1685.19 -1.81921 0.519754 0
M  V30 18498 O 1684.54 -1.76201 -0.519501 0
M  V30 18499 C 1684.6 -2.10781 2.91224 0
M  V30 18500 C 1684.26 -1.55204 4.29838 0
M  V30 18501 C 1685.26 -0.989568 5.10395 0
M  V30 18502 C 1682.94 -1.59201 4.76403 0
M  V30 18503 C 1684.94 -0.474466 6.35632 0
M  V30 18504 C 1682.63 -1.07304 6.01605 0
M  V30 18505 C 1683.62 -0.51522 6.81054 0
M  V30 18506 O 1683.31 -0.00407259 8.039 0
M  V30 18507 H 1683.04 -0.323799 0.593406 0
M  V30 18508 H 1685.6 -0.364708 2.02136 0
M  V30 18509 H 1683.83 -2.84968 2.614 0
M  V30 18510 H 1685.52 -2.72043 3.01243 0
M  V30 18511 H 1686.28 -0.951691 4.75571 0
M  V30 18512 H 1682.16 -2.01559 4.14602 0
M  V30 18513 H 1685.71 -0.0384139 6.97589 0
M  V30 18514 H 1681.6 -1.10802 6.35919 0
M  V30 18515 H 1682.37 -0.118732 8.18414 0
M  V30 18516 N 1685.03 -1.46622 -0.577906 0
M  V30 18517 C 1685.98 -1.57926 -1.70769 0
M  V30 18518 C 1686.98 -0.447509 -1.63382 0
M  V30 18519 O 1688.18 -0.624559 -1.68817 0
M  V30 18520 H 1684.56 -0.496618 -0.56469 0
M  V30 18521 H 1686.53 -2.52908 -1.58367 0
M  V30 18522 C 1685.28 -1.59124 -3.09152 0
M  V30 18523 H 1684.6 -2.45549 -3.15509 0
M  V30 18524 H 1686.04 -1.71087 -3.8795 0
M  V30 18525 C 1684.5 -0.320734 -3.3537 0
M  V30 18526 O 1685.03 0.586999 -3.97388 0
M  V30 18527 N 1683.24 -0.207156 -2.89861 0
M  V30 18528 H 1682.78 -0.946744 -2.39572 0
M  V30 18529 H 1682.74 0.642028 -3.07775 0
M  V30 18530 N 1686.51 0.822941 -1.34408 0
M  V30 18531 C 1687.44 1.94142 -1.21826 0
M  V30 18532 C 1688.46 1.6215 -0.145353 0
M  V30 18533 O 1689.65 1.74025 -0.397205 0
M  V30 18534 C 1686.75 3.28077 -0.849619 0
M  V30 18535 C 1685.92 3.88092 -2.0175 0
M  V30 18536 C 1684.98 5.00406 -1.62726 0
M  V30 18537 O 1684 5.18703 -2.34383 0
M  V30 18538 N 1685.21 5.7797 -0.541413 0
M  V30 18539 H 1687.97 2.05467 -2.18182 0
M  V30 18540 H 1685.53 0.999521 -1.27362 0
M  V30 18541 H 1687.52 4.00661 -0.57035 0
M  V30 18542 H 1686.09 3.12591 0.0237499 0
M  V30 18543 H 1685.31 3.07902 -2.46151 0
M  V30 18544 H 1686.6 4.24921 -2.79856 0
M  V30 18545 H 1686 5.65674 0.0542929 0
M  V30 18546 H 1684.56 6.51005 -0.321874 0
M  V30 18547 N 1687.99 1.18137 1.04314 0
M  V30 18548 C 1689.22 1.00062 1.81666 0
M  V30 18549 C 1689.64 -0.446281 1.82729 0
M  V30 18550 O 1689 -1.32004 1.24277 0
M  V30 18551 C 1689.05 1.55698 3.25255 0
M  V30 18552 O 1688.15 0.776662 4.05021 0
M  V30 18553 H 1687.49 0.354651 0.561354 0
M  V30 18554 H 1690.02 1.56837 1.3139 0
M  V30 18555 H 1690.03 1.58303 3.76037 0
M  V30 18556 H 1688.71 2.61016 3.23795 0
M  V30 18557 H 1687.28 0.822723 3.63711 0
M  V30 18558 N 1689.47 -1.23186 0.98301 0
M  V30 18559 C 1690.38 -2.28448 0.533727 0
M  V30 18560 C 1691.39 -1.69034 -0.412732 0
M  V30 18561 O 1692.57 -1.99416 -0.282007 0
M  V30 18562 C 1689.64 -3.46357 -0.154179 0
M  V30 18563 C 1688.7 -4.21121 0.834009 0
M  V30 18564 C 1687.93 -5.334 0.178836 0
M  V30 18565 O 1688.15 -5.61032 -1.02952 0
M  V30 18566 O 1687.09 -5.95451 0.878722 0
M  V30 18567 H 1690.91 -2.69027 1.40919 0
M  V30 18568 H 1688.5 -1.29166 0.75077 0
M  V30 18569 H 1690.38 -4.17926 -0.539947 0
M  V30 18570 H 1689.05 -3.07724 -1.00437 0
M  V30 18571 H 1687.96 -3.51864 1.27053 0
M  V30 18572 H 1689.29 -4.6361 1.65309 0
M  V30 18573 N 1690.95 -0.754982 -1.38339 0
M  V30 18574 C 1691.88 -0.0883836 -2.2903 0
M  V30 18575 C 1692.89 0.682258 -1.47814 0
M  V30 18576 O 1694.08 0.523117 -1.70663 0
M  V30 18577 C 1691.18 0.898819 -3.26764 0
M  V30 18578 C 1690.35 0.185527 -4.37006 0
M  V30 18579 C 1689.41 1.08368 -5.1492 0
M  V30 18580 O 1688.44 0.553687 -5.66501 0
M  V30 18581 N 1689.64 2.41164 -5.28034 0
M  V30 18582 H 1692.41 -0.86725 -2.86878 0
M  V30 18583 H 1689.97 -0.605886 -1.50135 0
M  V30 18584 H 1691.96 1.50273 -3.75766 0
M  V30 18585 H 1690.53 1.57876 -2.69804 0
M  V30 18586 H 1689.75 -0.599106 -3.89621 0
M  V30 18587 H 1691.04 -0.307999 -5.07867 0
M  V30 18588 H 1690.43 2.86677 -4.87681 0
M  V30 18589 H 1688.99 2.96602 -5.80406 0
M  V30 18590 N 1692.42 1.49318 -0.504168 0
M  V30 18591 C 1693.36 2.25955 0.319279 0
M  V30 18592 C 1694.34 1.30675 0.967609 0
M  V30 18593 O 1695.52 1.5997 0.997086 0
M  V30 18594 C 1692.65 3.06096 1.44992 0
M  V30 18595 C 1691.69 4.16555 0.915644 0
M  V30 18596 S 1692.53 5.35141 -0.196097 0
M  V30 18597 C 1693.68 6.18837 0.937637 0
M  V30 18598 H 1693.91 2.9545 -0.33118 0
M  V30 18599 H 1691.45 1.51661 -0.289517 0
M  V30 18600 H 1693.41 3.52853 2.09774 0
M  V30 18601 H 1692.07 2.36065 2.07201 0
M  V30 18602 H 1691.26 4.72157 1.76306 0
M  V30 18603 H 1690.86 3.72406 0.344981 0
M  V30 18604 H 1693.15 6.51975 1.84216 0
M  V30 18605 H 1694.1 7.06852 0.420168 0
M  V30 18606 H 1694.5 5.51458 1.2064 0
M  V30 18607 N 1693.9 0.238138 1.5579 0
M  V30 18608 C 1694.85 -0.681413 2.22395 0
M  V30 18609 C 1695.84 -1.18691 1.20867 0
M  V30 18610 O 1697.05 -1.14482 1.38903 0
M  V30 18611 H 1693.43 -0.238207 0.713275 0
M  V30 18612 H 1695.4 -0.0964141 2.98244 0
M  V30 18613 C 1694.15 -1.87137 2.93045 0
M  V30 18614 H 1693.47 -1.49153 3.70936 0
M  V30 18615 H 1694.91 -2.4922 3.43024 0
M  V30 18616 C 1693.37 -2.73709 1.9643 0
M  V30 18617 O 1693.9 -3.72973 1.49178 0
M  V30 18618 N 1692.1 -2.40092 1.6372 0
M  V30 18619 H 1691.65 -1.59423 2.02341 0
M  V30 18620 H 1691.61 -2.98293 0.993414 0
M  V30 18621 N 1695.38 -1.57561 -0.0350783 0
M  V30 18622 C 1696.33 -2.02627 -1.04528 0
M  V30 18623 C 1697.31 -0.914525 -1.32383 0
M  V30 18624 O 1698.51 -1.17843 -1.32068 0
M  V30 18625 C 1695.64 -2.50425 -2.34824 0
M  V30 18626 C 1694.72 -3.68408 -2.10086 0
M  V30 18627 N 1695.11 -4.8134 -1.55387 0
M  V30 18628 C 1693.41 -3.75666 -2.40398 0
M  V30 18629 C 1694.11 -5.62998 -1.46314 0
M  V30 18630 N 1693.09 -5.07933 -1.93662 0
M  V30 18631 H 1696.89 -2.87366 -0.616284 0
M  V30 18632 H 1694.4 -1.60594 -0.241499 0
M  V30 18633 H 1696.4 -2.80968 -3.07998 0
M  V30 18634 H 1695.06 -1.67089 -2.78408 0
M  V30 18635 H 1696.07 -5.029 -1.2374 0
M  V30 18636 H 1692.75 -3.03119 -2.87098 0
M  V30 18637 H 1694.14 -6.63714 -1.04564 0
M  V30 18638 N 1696.86 0.307236 -1.54576 0
M  V30 18639 C 1698.11 1.04082 -1.72771 0
M  V30 18640 C 1698.42 1.88639 -0.517188 0
M  V30 18641 O 1699.63 2.65215 -0.580811 0
M  V30 18642 C 1698.08 1.90015 -3.05651 0
M  V30 18643 C 1697.69 1.10491 -4.34161 0
M  V30 18644 C 1699.43 2.6301 -3.33205 0
M  V30 18645 C 1697.34 1.95664 -5.58094 0
M  V30 18646 H 1696.27 0.392307 -0.643903 0
M  V30 18647 H 1698.92 0.29815 -1.81062 0
M  V30 18648 H 1697.3 2.68245 -2.91309 0
M  V30 18649 H 1698.48 0.369181 -4.59319 0
M  V30 18650 H 1696.79 0.491053 -4.13494 0
M  V30 18651 H 1699.39 3.27074 -4.22997 0
M  V30 18652 H 1699.73 3.31512 -2.51804 0
M  V30 18653 H 1700.27 1.91833 -3.4849 0
M  V30 18654 H 1697.01 1.31643 -6.42145 0
M  V30 18655 H 1696.53 2.66927 -5.37131 0
M  V30 18656 H 1698.2 2.53861 -5.95116 0
M  V30 18657 N 1698.34 1.46926 0.570122 0
M  V30 18658 C 1699.56 1.56722 1.35841 0
M  V30 18659 C 1699.99 0.213314 1.86887 0
M  V30 18660 O 1699.34 -0.808694 1.62265 0
M  V30 18661 C 1699.39 2.5859 2.51323 0
M  V30 18662 O 1698.5 2.12966 3.53156 0
M  V30 18663 H 1697.84 0.526929 0.404032 0
M  V30 18664 H 1700.37 1.92603 0.690308 0
M  V30 18665 H 1700.38 2.78601 2.9807 0
M  V30 18666 H 1699.05 3.56903 2.13525 0
M  V30 18667 H 1697.63 2.02999 3.12803 0
M  V30 18668 N 1699.82 -0.815801 1.34842 0
M  V30 18669 C 1701.09 -1.55867 1.18173 0
M  V30 18670 C 1701.47 -2.09698 -0.242848 0
M  V30 18671 O 1700.82 -1.91594 -1.24514 0
M  V30 18672 C 1701.03 -2.67445 2.24219 0
M  V30 18673 C 1702.38 -3.36027 2.59559 0
M  V30 18674 O 1703.4 -2.77708 2.23062 0
M  V30 18675 O 1702.26 -4.4136 3.22279 0
M  V30 18676 H 1699.36 -0.688242 0.458533 0
M  V30 18677 H 1701.9 -0.856558 1.46496 0
M  V30 18678 H 1700.67 -2.25473 3.19809 0
M  V30 18679 H 1700.3 -3.453 1.97113 0
M  V30 18680 N 1701.29 -1.18689 -1.03686 0
M  V30 18681 C 1702.54 -0.978948 -1.7635 0
M  V30 18682 C 1702.86 0.49195 -1.89312 0
M  V30 18683 O 1704.06 0.818501 -2.58868 0
M  V30 18684 C 1702.52 -1.70255 -3.17083 0
M  V30 18685 C 1702.13 -3.21301 -3.12201 0
M  V30 18686 C 1703.87 -1.57756 -3.94098 0
M  V30 18687 C 1701.78 -3.86284 -4.47815 0
M  V30 18688 H 1700.71 -0.362652 -0.661059 0
M  V30 18689 H 1703.36 -1.42102 -1.161 0
M  V30 18690 H 1701.74 -1.18826 -3.77752 0
M  V30 18691 H 1702.91 -3.79785 -2.6096 0
M  V30 18692 H 1701.23 -3.33984 -2.48684 0
M  V30 18693 H 1703.83 -2.03664 -4.94394 0
M  V30 18694 H 1704.17 -0.530427 -4.12907 0
M  V30 18695 H 1704.7 -2.06486 -3.40012 0
M  V30 18696 H 1701.44 -4.91061 -4.34211 0
M  V30 18697 H 1700.96 -3.32589 -4.99144 0
M  V30 18698 H 1702.64 -3.89369 -5.16721 0
M  V30 18699 N 1702.77 1.22662 -0.989529 0
M  V30 18700 C 1703.7 2.26762 -0.556891 0
M  V30 18701 C 1704.68 1.64971 0.414538 0
M  V30 18702 O 1705.87 1.91775 0.305909 0
M  V30 18703 C 1703 3.47047 0.132573 0
M  V30 18704 C 1701.95 4.21251 -0.757058 0
M  V30 18705 C 1701.28 5.3466 0.065134 0
M  V30 18706 C 1702.58 4.8029 -2.05229 0
M  V30 18707 H 1704.27 2.63204 -1.42703 0
M  V30 18708 H 1701.82 1.26522 -0.687614 0
M  V30 18709 H 1703.77 4.19027 0.446609 0
M  V30 18710 H 1702.49 3.09692 1.03723 0
M  V30 18711 H 1701.15 3.51101 -1.05469 0
M  V30 18712 H 1700.8 4.93547 0.970607 0
M  V30 18713 H 1700.5 5.85231 -0.527063 0
M  V30 18714 H 1702.03 6.09458 0.373342 0
M  V30 18715 H 1703.44 5.44229 -1.80242 0
M  V30 18716 H 1701.84 5.41186 -2.59302 0
M  V30 18717 H 1702.91 4.00529 -2.73322 0
M  V30 18718 N 1704.25 0.762308 1.37937 0
M  V30 18719 C 1705.2 0.129897 2.32237 0
M  V30 18720 C 1706.19 -0.695577 1.54461 0
M  V30 18721 O 1707.4 -0.593697 1.69927 0
M  V30 18722 H 1703.77 0.023214 0.751642 0
M  V30 18723 H 1705.74 0.941144 2.8317 0
M  V30 18724 C 1704.49 -0.742235 3.39685 0
M  V30 18725 H 1703.82 -0.116427 3.9963 0
M  V30 18726 H 1705.26 -1.15187 4.08054 0
M  V30 18727 C 1703.71 -1.8887 2.7898 0
M  V30 18728 O 1704.24 -2.98351 2.68979 0
M  V30 18729 N 1702.45 -1.68642 2.36661 0
M  V30 18730 H 1702 -0.795945 2.44995 0
M  V30 18731 H 1701.96 -2.45519 1.96387 0
M  V30 18732 N 1705.73 -1.49049 0.51208 0
M  V30 18733 C 1706.97 -2.0278 -0.0285311 0
M  V30 18734 C 1707.31 -1.39003 -1.35617 0
M  V30 18735 O 1706.58 -0.52952 -1.87153 0
M  V30 18736 C 1706.86 -3.59701 -0.169433 0
M  V30 18737 C 1706.72 -4.33989 1.18211 0
M  V30 18738 C 1708.04 -4.30698 -0.904812 0
M  V30 18739 H 1705.16 -0.736946 -0.00889467 0
M  V30 18740 H 1707.8 -1.77959 0.66564 0
M  V30 18741 H 1705.95 -3.8098 -0.760667 0
M  V30 18742 H 1707.62 -4.24176 1.81307 0
M  V30 18743 H 1705.86 -3.9611 1.76859 0
M  V30 18744 H 1706.53 -5.42177 1.03671 0
M  V30 18745 H 1709.01 -4.14141 -0.40327 0
M  V30 18746 H 1707.89 -5.40221 -0.972264 0
M  V30 18747 H 1708.15 -3.96718 -1.95108 0
M  V30 18748 N 1707.21 -0.246397 -1.55662 0
M  V30 18749 C 1708.17 0.640041 -2.20082 0
M  V30 18750 C 1709.17 1.10313 -1.16994 0
M  V30 18751 O 1710.36 1.00792 -1.42079 0
M  V30 18752 C 1707.49 1.87964 -2.84398 0
M  V30 18753 H 1708.68 0.0780034 -2.99799 0
M  V30 18754 H 1706.24 0.00314588 -1.563 0
M  V30 18755 H 1706.97 2.48292 -2.08618 0
M  V30 18756 H 1706.76 1.5558 -3.59913 0
M  V30 18757 H 1708.25 2.51065 -3.33701 0
M  V30 18758 N 1708.68 1.57577 0.026722 0
M  V30 18759 C 1709.93 1.89379 0.717062 0
M  V30 18760 C 1710.26 0.843976 1.75235 0
M  V30 18761 O 1709.51 -0.154755 1.95087 0
M  V30 18762 C 1709.81 3.27927 1.42121 0
M  V30 18763 C 1709.48 4.47872 0.521676 0
M  V30 18764 C 1708.14 4.8042 0.273926 0
M  V30 18765 C 1710.49 5.21105 -0.0992493 0
M  V30 18766 C 1707.82 5.83588 -0.603488 0
M  V30 18767 C 1710.17 6.25206 -0.964379 0
M  V30 18768 C 1708.84 6.56227 -1.22157 0
M  V30 18769 H 1708.11 0.692988 0.262391 0
M  V30 18770 H 1710.75 1.91486 -0.0230629 0
M  V30 18771 H 1709.06 3.2182 2.23471 0
M  V30 18772 H 1710.76 3.49783 1.96094 0
M  V30 18773 H 1707.35 4.22425 0.724931 0
M  V30 18774 H 1711.53 4.96237 0.0791882 0
M  V30 18775 H 1706.79 6.05997 -0.811031 0
M  V30 18776 H 1710.96 6.81094 -1.45201 0
M  V30 18777 H 1708.59 7.35991 -1.90317 0
M  V30 18778 N 1710.16 -0.299034 1.54737 0
M  V30 18779 C 1711.39 -1.0529 1.78105 0
M  V30 18780 C 1711.8 -1.80868 0.541499 0
M  V30 18781 O 1711.16 -1.75834 -0.488726 0
M  V30 18782 C 1711.21 -2.03192 2.9899 0
M  V30 18783 O 1710.93 -1.30681 4.18156 0
M  V30 18784 C 1712.43 -2.90602 3.34762 0
M  V30 18785 H 1709.65 -0.312173 0.593961 0
M  V30 18786 H 1712.2 -0.337712 2.01692 0
M  V30 18787 H 1710.35 -2.70211 2.77606 0
M  V30 18788 H 1710.77 -1.96446 4.86322 0
M  V30 18789 H 1712.24 -3.55144 4.22584 0
M  V30 18790 H 1712.72 -3.59006 2.53004 0
M  V30 18791 H 1713.32 -2.29112 3.58313 0
M  V30 18792 N 1711.64 -1.47227 -0.562322 0
M  V30 18793 C 1712.89 -1.52851 -1.31604 0
M  V30 18794 C 1713.2 -0.193236 -1.94643 0
M  V30 18795 O 1714.41 -0.127429 -2.71201 0
M  V30 18796 C 1712.86 -2.69422 -2.3862 0
M  V30 18797 C 1712.47 -4.09457 -1.81794 0
M  V30 18798 C 1714.22 -2.84334 -3.15205 0
M  V30 18799 C 1712.12 -5.17337 -2.8656 0
M  V30 18800 H 1711.05 -0.568923 -0.494816 0
M  V30 18801 H 1713.7 -1.73489 -0.597819 0
M  V30 18802 H 1712.09 -2.42153 -3.13333 0
M  V30 18803 H 1713.26 -4.46606 -1.13487 0
M  V30 18804 H 1711.57 -3.99387 -1.17811 0
M  V30 18805 H 1714.17 -3.621 -3.93431 0
M  V30 18806 H 1714.51 -1.9259 -3.69073 0
M  V30 18807 H 1715.05 -3.11348 -2.47603 0
M  V30 18808 H 1711.79 -6.1094 -2.37554 0
M  V30 18809 H 1711.31 -4.8471 -3.53293 0
M  V30 18810 H 1712.99 -5.44065 -3.50146 0
M  V30 18811 N 1713.12 0.808639 -1.35273 0
M  V30 18812 C 1714.37 1.56071 -1.27768 0
M  V30 18813 C 1714.68 1.9505 0.146545 0
M  V30 18814 O 1715.89 2.69314 0.343855 0
M  V30 18815 C 1714.34 2.81648 -2.24059 0
M  V30 18816 C 1713.95 2.49915 -3.71815 0
M  V30 18817 C 1715.69 3.59658 -2.25492 0
M  V30 18818 C 1713.6 3.7177 -4.59936 0
M  V30 18819 H 1712.53 0.585811 -0.474701 0
M  V30 18820 H 1715.18 0.889051 -1.60525 0
M  V30 18821 H 1713.56 3.50514 -1.84271 0
M  V30 18822 H 1714.74 1.89068 -4.20226 0
M  V30 18823 H 1713.05 1.85154 -3.72971 0
M  V30 18824 H 1715.65 4.50162 -2.88545 0
M  V30 18825 H 1715.99 3.96835 -1.2581 0
M  V30 18826 H 1716.53 2.97751 -2.63798 0
M  V30 18827 H 1713.26 3.39704 -5.60608 0
M  V30 18828 H 1712.78 4.3185 -4.16252 0
M  V30 18829 H 1714.46 4.39022 -4.75256 0
M  V30 18830 N 1714.6 1.19237 1.03055 0
M  V30 18831 C 1715.84 0.993971 1.76427 0
M  V30 18832 C 1716.17 -0.475422 1.886 0
M  V30 18833 O 1715.43 -1.36925 1.39821 0
M  V30 18834 C 1715.73 1.60607 3.19281 0
M  V30 18835 C 1715.39 3.10329 3.27119 0
M  V30 18836 C 1714.05 3.51192 3.28965 0
M  V30 18837 C 1716.41 4.0634 3.264 0
M  V30 18838 C 1713.73 4.8662 3.27747 0
M  V30 18839 C 1716.09 5.41696 3.26723 0
M  V30 18840 C 1714.75 5.81992 3.26866 0
M  V30 18841 H 1714.02 0.36372 0.645592 0
M  V30 18842 H 1716.67 1.48455 1.20969 0
M  V30 18843 H 1714.97 1.03775 3.77807 0
M  V30 18844 H 1716.67 1.42786 3.74717 0
M  V30 18845 H 1713.26 2.77769 3.26409 0
M  V30 18846 H 1717.44 3.75814 3.24156 0
M  V30 18847 H 1712.7 5.17123 3.26181 0
M  V30 18848 H 1716.87 6.1585 3.25118 0
M  V30 18849 H 1714.5 6.86905 3.25676 0
M  V30 18850 N 1716.07 -1.22136 0.99602 0
M  V30 18851 C 1717.3 -1.94978 0.692172 0
M  V30 18852 C 1717.72 -1.73536 -0.743696 0
M  V30 18853 O 1717.07 -1.03637 -1.50219 0
M  V30 18854 C 1717.13 -3.47609 0.992498 0
M  V30 18855 O 1716.85 -3.68334 2.37195 0
M  V30 18856 C 1718.35 -4.37629 0.70679 0
M  V30 18857 H 1715.57 -0.620327 0.255802 0
M  V30 18858 H 1718.11 -1.55202 1.33164 0
M  V30 18859 H 1716.27 -3.85342 0.398785 0
M  V30 18860 H 1716.68 -4.62506 2.47362 0
M  V30 18861 H 1718.15 -5.43461 0.967173 0
M  V30 18862 H 1718.63 -4.37729 -0.359208 0
M  V30 18863 H 1719.24 -4.05528 1.2817 0
M  V30 18864 N 1717.55 -0.769612 -1.37531 0
M  V30 18865 C 1718.48 -0.168389 -2.32892 0
M  V30 18866 C 1719.46 0.685549 -1.55673 0
M  V30 18867 O 1720.65 0.62345 -1.8392 0
M  V30 18868 C 1717.78 0.713183 -3.39898 0
M  V30 18869 C 1716.73 -0.0392808 -4.27982 0
M  V30 18870 C 1716.06 0.961596 -5.25982 0
M  V30 18871 C 1717.36 -1.21704 -5.07923 0
M  V30 18872 H 1719.05 -0.965022 -2.83421 0
M  V30 18873 H 1716.6 -0.465502 -1.36268 0
M  V30 18874 H 1718.55 1.14358 -4.05586 0
M  V30 18875 H 1717.28 1.54231 -2.87889 0
M  V30 18876 H 1715.93 -0.450429 -3.63822 0
M  V30 18877 H 1715.58 1.78522 -4.70254 0
M  V30 18878 H 1715.28 0.462679 -5.85776 0
M  V30 18879 H 1716.81 1.39097 -5.94545 0
M  V30 18880 H 1718.22 -0.863405 -5.66761 0
M  V30 18881 H 1716.62 -1.6479 -5.77031 0
M  V30 18882 H 1717.69 -2.02219 -4.40722 0
M  V30 18883 N 1719.03 1.48775 -0.519977 0
M  V30 18884 C 1719.94 2.33239 0.252329 0
M  V30 18885 C 1720.96 1.45852 0.948849 0
M  V30 18886 O 1722.13 1.78848 0.92603 0
M  V30 18887 C 1719.2 3.2174 1.29166 0
M  V30 18888 C 1718.26 4.24993 0.606564 0
M  V30 18889 C 1717.49 5.09266 1.59638 0
M  V30 18890 O 1717.71 4.95353 2.82809 0
M  V30 18891 O 1716.65 5.90981 1.14127 0
M  V30 18892 H 1720.47 3.00503 -0.439527 0
M  V30 18893 H 1718.06 1.46733 -0.281032 0
M  V30 18894 H 1719.94 3.76512 1.89254 0
M  V30 18895 H 1718.62 2.5715 1.96611 0
M  V30 18896 H 1717.52 3.74084 -0.0345447 0
M  V30 18897 H 1718.86 4.92193 -0.0257627 0
M  V30 18898 N 1720.51 0.254649 1.55529 0
M  V30 18899 C 1721.44 -0.682459 2.17756 0
M  V30 18900 C 1722.42 -1.16722 1.13202 0
M  V30 18901 O 1723.6 -1.24395 1.41627 0
M  V30 18902 C 1720.73 -1.92837 2.78445 0
M  V30 18903 C 1719.78 -1.58082 3.96121 0
M  V30 18904 S 1720.61 -0.676715 5.31207 0
M  V30 18905 C 1721.77 -1.93146 5.95353 0
M  V30 18906 H 1722 -0.153664 2.96903 0
M  V30 18907 H 1719.53 0.0390444 1.54351 0
M  V30 18908 H 1721.49 -2.6436 3.14045 0
M  V30 18909 H 1720.15 -2.4283 1.9923 0
M  V30 18910 H 1719.34 -2.50738 4.37203 0
M  V30 18911 H 1718.95 -0.945965 3.61839 0
M  V30 18912 H 1721.24 -2.87783 6.13341 0
M  V30 18913 H 1722.18 -1.564 6.90612 0
M  V30 18914 H 1722.59 -2.08708 5.24501 0
M  V30 18915 N 1721.99 -1.57589 -0.0183649 0
M  V30 18916 C 1723.24 -1.88937 -0.706105 0
M  V30 18917 C 1723.55 -0.854565 -1.75945 0
M  V30 18918 O 1724.75 -1.05763 -2.50053 0
M  V30 18919 C 1723.21 -3.35329 -1.307 0
M  V30 18920 C 1722.82 -4.47064 -0.289444 0
M  V30 18921 C 1724.56 -3.75811 -1.97399 0
M  V30 18922 C 1722.47 -5.84523 -0.899288 0
M  V30 18923 H 1721.4 -0.704959 -0.267486 0
M  V30 18924 H 1724.05 -1.83458 0.0391685 0
M  V30 18925 H 1722.43 -3.35586 -2.10233 0
M  V30 18926 H 1723.61 -4.58294 0.479958 0
M  V30 18927 H 1721.92 -4.15484 0.276066 0
M  V30 18928 H 1724.52 -4.75834 -2.43898 0
M  V30 18929 H 1724.86 -3.08362 -2.79676 0
M  V30 18930 H 1725.39 -3.77774 -1.24626 0
M  V30 18931 H 1722.13 -6.55398 -0.11571 0
M  V30 18932 H 1721.65 -5.76993 -1.63828 0
M  V30 18933 H 1723.33 -6.31595 -1.40344 0
M  V30 18934 N 1723.46 0.290824 -1.54893 0
M  V30 18935 C 1724.39 1.36354 -1.89551 0
M  V30 18936 C 1725.38 1.52403 -0.75546 0
M  V30 18937 O 1726.56 1.65743 -1.01208 0
M  V30 18938 C 1723.69 2.72609 -2.15178 0
M  V30 18939 C 1722.64 2.71313 -3.31019 0
M  V30 18940 C 1721.97 4.10952 -3.42085 0
M  V30 18941 C 1723.27 2.32153 -4.6787 0
M  V30 18942 H 1724.96 1.07597 -2.79398 0
M  V30 18943 H 1722.51 0.516154 -1.34432 0
M  V30 18944 H 1724.46 3.47749 -2.3801 0
M  V30 18945 H 1723.19 3.02913 -1.22112 0
M  V30 18946 H 1721.85 1.9863 -3.08126 0
M  V30 18947 H 1721.49 4.38449 -2.46518 0
M  V30 18948 H 1721.19 4.10984 -4.1996 0
M  V30 18949 H 1722.72 4.87857 -3.67189 0
M  V30 18950 H 1724.13 2.97011 -4.90364 0
M  V30 18951 H 1722.53 2.4338 -5.48531 0
M  V30 18952 H 1723.6 1.27279 -4.67897 0
M  V30 18953 N 1724.94 1.47523 0.554506 0
M  V30 18954 C 1725.89 1.60213 1.66134 0
M  V30 18955 C 1726.86 0.445051 1.60027 0
M  V30 18956 O 1728.04 0.665449 1.7882 0
M  V30 18957 C 1725.18 1.62491 3.04452 0
M  V30 18958 C 1724.3 2.89134 3.20976 0
M  V30 18959 C 1723.43 2.82731 4.49707 0
M  V30 18960 C 1722.47 4.04187 4.59673 0
M  V30 18961 N 1721.61 3.96004 5.79763 0
M  V30 18962 H 1726.45 2.54744 1.54626 0
M  V30 18963 H 1723.99 1.26355 0.753189 0
M  V30 18964 H 1725.94 1.61795 3.84549 0
M  V30 18965 H 1724.57 0.714698 3.14789 0
M  V30 18966 H 1723.63 2.99685 2.34292 0
M  V30 18967 H 1724.94 3.79069 3.24203 0
M  V30 18968 H 1724.09 2.80299 5.38068 0
M  V30 18969 H 1722.83 1.90483 4.48963 0
M  V30 18970 H 1721.84 4.06921 3.69724 0
M  V30 18971 H 1723.06 4.97565 4.62175 0
M  V30 18972 H 1721.01 3.06561 5.79962 0
M  V30 18973 H 1720.92 4.7962 5.8438 0
M  V30 18974 H 1722.19 3.97593 6.70478 0
M  V30 18975 N 1726.42 -0.801453 1.357 0
M  V30 18976 C 1727.35 -1.92807 1.31711 0
M  V30 18977 C 1728.33 -1.69028 0.190642 0
M  V30 18978 O 1729.52 -1.90317 0.38641 0
M  V30 18979 C 1726.65 -3.29635 1.09352 0
M  V30 18980 C 1725.6 -3.67908 2.18695 0
M  V30 18981 C 1724.93 -5.02955 1.81494 0
M  V30 18982 C 1726.23 -3.77749 3.60698 0
M  V30 18983 H 1727.92 -1.96401 2.2598 0
M  V30 18984 H 1725.47 -0.943528 1.08782 0
M  V30 18985 H 1727.42 -4.08058 1.052 0
M  V30 18986 H 1726.14 -3.26396 0.115306 0
M  V30 18987 H 1724.8 -2.91775 2.21952 0
M  V30 18988 H 1724.45 -4.96225 0.822776 0
M  V30 18989 H 1724.15 -5.29533 2.54692 0
M  V30 18990 H 1725.67 -5.83811 1.78876 0
M  V30 18991 H 1727.09 -4.4639 3.59734 0
M  V30 18992 H 1725.49 -4.15801 4.327 0
M  V30 18993 H 1726.56 -2.79167 3.96477 0
M  V30 18994 N 1727.9 -1.19782 -1.02421 0
M  V30 18995 C 1728.83 -0.883119 -2.10419 0
M  V30 18996 C 1729.81 0.161733 -1.61794 0
M  V30 18997 O 1730.99 0.037003 -1.88464 0
M  V30 18998 C 1728.12 -0.322524 -3.37161 0
M  V30 18999 C 1727.17 -1.34717 -4.04665 0
M  V30 19000 S 1728 -2.9094 -4.49571 0
M  V30 19001 C 1729.16 -2.36436 -5.79525 0
M  V30 19002 H 1729.39 -1.79772 -2.36789 0
M  V30 19003 H 1726.92 -1.02546 -1.15428 0
M  V30 19004 H 1728.88 -0.00561772 -4.105 0
M  V30 19005 H 1727.54 0.570462 -3.08876 0
M  V30 19006 H 1726.73 -0.904136 -4.95824 0
M  V30 19007 H 1726.34 -1.61116 -3.37517 0
M  V30 19008 H 1728.63 -1.75722 -6.54315 0
M  V30 19009 H 1729.57 -3.25961 -6.28614 0
M  V30 19010 H 1729.98 -1.78841 -5.35421 0
M  V30 19011 N 1729.38 1.21606 -1.00248 0
M  V30 19012 C 1730.34 2.22107 -0.565772 0
M  V30 19013 C 1731.34 1.56798 0.356521 0
M  V30 19014 O 1732.53 1.73577 0.147154 0
M  V30 19015 C 1729.66 3.40447 0.175742 0
M  V30 19016 H 1730.86 2.62258 -1.45468 0
M  V30 19017 H 1728.41 1.34823 -0.790721 0
M  V30 19018 H 1729.14 3.05781 1.0802 0
M  V30 19019 H 1728.93 3.89069 -0.486612 0
M  V30 19020 H 1730.42 4.14957 0.469122 0
M  V30 19021 N 1730.86 0.776895 1.37121 0
M  V30 19022 C 1732.1 0.343555 1.99564 0
M  V30 19023 C 1732.43 -1.08134 1.6167 0
M  V30 19024 O 1731.69 -1.75938 0.856998 0
M  V30 19025 C 1731.98 0.440201 3.54679 0
M  V30 19026 C 1731.65 1.82409 4.12356 0
M  V30 19027 C 1730.31 2.20277 4.27822 0
M  V30 19028 C 1732.66 2.73082 4.43932 0
M  V30 19029 C 1729.99 3.48244 4.72168 0
M  V30 19030 C 1732.34 4.00465 4.89705 0
M  V30 19031 C 1731.01 4.38371 5.03376 0
M  V30 19032 H 1730.28 0.125716 0.730258 0
M  V30 19033 H 1732.93 0.991921 1.63808 0
M  V30 19034 H 1731.23 -0.291695 3.90713 0
M  V30 19035 H 1732.93 0.0861328 4.00907 0
M  V30 19036 H 1729.52 1.5198 4.0075 0
M  V30 19037 H 1733.7 2.45085 4.31564 0
M  V30 19038 H 1728.96 3.77501 4.80939 0
M  V30 19039 H 1733.13 4.70849 5.13103 0
M  V30 19040 H 1730.76 5.37587 5.37498 0
M  V30 19041 N 1732.33 -1.48497 0.527859 0
M  V30 19042 C 1733.28 -2.2959 -0.23607 0
M  V30 19043 C 1734.25 -1.37232 -0.935762 0
M  V30 19044 O 1735.44 -1.66196 -0.937202 0
M  V30 19045 C 1732.58 -3.20551 -1.27832 0
M  V30 19046 C 1731.69 -4.27984 -0.58769 0
M  V30 19047 C 1730.82 -5.06128 -1.61269 0
M  V30 19048 C 1729.86 -6.05367 -0.905404 0
M  V30 19049 N 1729 -6.76577 -1.87585 0
M  V30 19050 H 1733.84 -2.94403 0.461635 0
M  V30 19051 H 1731.38 -1.45137 0.239493 0
M  V30 19052 H 1733.33 -3.71686 -1.89488 0
M  V30 19053 H 1731.96 -2.57665 -1.94444 0
M  V30 19054 H 1731.02 -3.80132 0.142759 0
M  V30 19055 H 1732.33 -4.9879 -0.0322348 0
M  V30 19056 H 1731.48 -5.61266 -2.30359 0
M  V30 19057 H 1730.22 -4.35157 -2.20204 0
M  V30 19058 H 1729.23 -5.49435 -0.200426 0
M  V30 19059 H 1730.45 -6.78335 -0.322197 0
M  V30 19060 H 1728.4 -6.08358 -2.45432 0
M  V30 19061 H 1728.31 -7.4345 -1.37178 0
M  V30 19062 H 1729.58 -7.36305 -2.5588 0
M  V30 19063 N 1733.81 -0.262893 -1.55392 0
M  V30 19064 C 1734.77 0.616662 -2.20749 0
M  V30 19065 C 1735.77 1.09066 -1.18158 0
M  V30 19066 O 1736.96 0.992797 -1.4314 0
M  V30 19067 C 1734.1 1.84937 -2.86376 0
M  V30 19068 H 1735.29 0.0462013 -2.99864 0
M  V30 19069 H 1732.84 -0.013432 -1.56294 0
M  V30 19070 H 1733.58 2.46066 -2.1124 0
M  V30 19071 H 1733.36 1.51754 -3.61543 0
M  V30 19072 H 1734.85 2.47511 -3.36345 0
M  V30 19073 N 1735.29 1.57597 0.0100073 0
M  V30 19074 C 1736.71 1.55348 0.365949 0
M  V30 19075 C 1736.91 0.991487 1.75419 0
M  V30 19076 O 1735.96 0.620894 2.44747 0
M  V30 19077 C 1737.27 2.99656 0.250343 0
M  V30 19078 C 1738.82 3.11297 0.326023 0
M  V30 19079 C 1739.3 4.57373 0.239653 0
M  V30 19080 N 1740.79 4.62241 0.297863 0
M  V30 19081 C 1741.52 5.72836 0.254219 0
M  V30 19082 N 1741.02 6.92611 0.161753 0
M  V30 19083 N 1742.81 5.6127 0.30535 0
M  V30 19084 H 1734.96 1.92471 -0.898253 0
M  V30 19085 H 1737.23 0.883623 -0.343386 0
M  V30 19086 H 1736.93 3.44574 -0.704407 0
M  V30 19087 H 1736.81 3.62682 1.03643 0
M  V30 19088 H 1739.19 2.66316 1.27121 0
M  V30 19089 H 1739.27 2.51068 -0.489756 0
M  V30 19090 H 1738.92 5.03026 -0.70195 0
M  V30 19091 H 1738.85 5.15536 1.07379 0
M  V30 19092 H 1741.34 3.76074 0.371065 0
M  V30 19093 H 1741.65 7.72684 0.134073 0
M  V30 19094 H 1740 6.94883 0.127524 0
M  V30 19095 H 1743.19 4.6659 0.375713 0
M  V30 19096 H 1743.36 6.47446 0.267871 0
M  V30 19097 N 1736.77 -0.282606 1.55045 0
M  V30 19098 C 1738.02 -1.01346 1.74852 0
M  V30 19099 C 1738.34 -1.87161 0.547327 0
M  V30 19100 O 1737.61 -1.9094 -0.438015 0
M  V30 19101 H 1736.19 -0.377178 0.644784 0
M  V30 19102 H 1738.85 -0.309152 1.92432 0
M  V30 19103 H 1737.94 -1.65596 2.64545 0
M  V30 19104 N 1738.25 -1.47815 -0.546675 0
M  V30 19105 C 1739.48 -1.58384 -1.32658 0
M  V30 19106 C 1739.88 -0.236934 -1.87711 0
M  V30 19107 O 1739.23 0.781521 -1.66247 0
M  V30 19108 C 1739.29 -2.55766 -2.52634 0
M  V30 19109 C 1738.95 -4.01222 -2.18791 0
M  V30 19110 C 1739.95 -4.89399 -1.75455 0
M  V30 19111 C 1737.63 -4.46637 -2.29827 0
M  V30 19112 C 1739.63 -6.21014 -1.43598 0
M  V30 19113 C 1737.32 -5.78277 -1.97582 0
M  V30 19114 C 1738.31 -6.65288 -1.54536 0
M  V30 19115 O 1738 -7.9448 -1.22706 0
M  V30 19116 H 1737.73 -0.537236 -0.410309 0
M  V30 19117 H 1740.29 -1.94235 -0.667988 0
M  V30 19118 H 1738.52 -2.15003 -3.2142 0
M  V30 19119 H 1740.21 -2.56349 -3.14706 0
M  V30 19120 H 1740.97 -4.55556 -1.66414 0
M  V30 19121 H 1736.85 -3.79111 -2.62289 0
M  V30 19122 H 1740.4 -6.88885 -1.09926 0
M  V30 19123 H 1736.29 -6.1166 -2.06259 0
M  V30 19124 H 1737.06 -8.07081 -1.36246 0
M  V30 19125 N 1739.72 0.794246 -1.36123 0
M  V30 19126 C 1740.97 1.55191 -1.30084 0
M  V30 19127 C 1741.3 1.94122 0.121259 0
M  V30 19128 O 1740.55 1.62573 1.08942 0
M  V30 19129 C 1740.85 2.84387 -2.16469 0
M  V30 19130 C 1740.52 2.64617 -3.65087 0
M  V30 19131 C 1739.18 2.58934 -4.05594 0
M  V30 19132 C 1741.53 2.46293 -4.59336 0
M  V30 19133 C 1738.86 2.32885 -5.38499 0
M  V30 19134 C 1741.21 2.21771 -5.92453 0
M  V30 19135 C 1739.88 2.14518 -6.32091 0
M  V30 19136 H 1739.15 0.567885 -0.476013 0
M  V30 19137 H 1741.79 0.916723 -1.68132 0
M  V30 19138 H 1740.1 3.52348 -1.71342 0
M  V30 19139 H 1741.8 3.42152 -2.09124 0
M  V30 19140 H 1738.39 2.69894 -3.32949 0
M  V30 19141 H 1742.57 2.49688 -4.28917 0
M  V30 19142 H 1737.83 2.25748 -5.68197 0
M  V30 19143 H 1742 2.06586 -6.65053 0
M  V30 19144 H 1739.63 1.94096 -7.35004 0
M  V30 19145 N 1741.2 1.20323 1.01785 0
M  V30 19146 C 1742.45 1.01063 1.75016 0
M  V30 19147 C 1742.77 -0.458458 1.89534 0
M  V30 19148 O 1742.04 -1.3315 1.43694 0
M  V30 19149 H 1740.62 0.370957 0.648383 0
M  V30 19150 H 1743.28 1.51411 1.22722 0
M  V30 19151 H 1742.38 1.46792 2.75424 0
M  V30 19152 N 1742.68 -1.21073 1.00892 0
M  V30 19153 C 1743.96 -1.85871 0.609214 0
M  V30 19154 C 1744.34 -1.90334 -0.913023 0
M  V30 19155 O 1743.68 -1.40552 -1.80159 0
M  V30 19156 C 1743.89 -3.25918 1.24813 0
M  V30 19157 C 1745.24 -4.02274 1.35871 0
M  V30 19158 O 1746.27 -3.35244 1.20375 0
M  V30 19159 O 1745.13 -5.22296 1.60838 0
M  V30 19160 H 1742.22 -0.800105 0.20919 0
M  V30 19161 H 1744.77 -1.28724 1.10581 0
M  V30 19162 H 1743.54 -3.17392 2.28862 0
M  V30 19163 H 1743.16 -3.90688 0.738124 0
M  V30 19164 N 1744.16 -0.784156 -1.36707 0
M  V30 19165 C 1745.57 -0.417967 -1.81961 0
M  V30 19166 C 1745.92 1.05746 -1.65264 0
M  V30 19167 O 1745.05 1.82003 -1.17064 0
M  V30 19168 C 1745.64 -0.751869 -3.30352 0
M  V30 19169 C 1744.2 -0.438578 -3.73836 0
M  V30 19170 C 1743.35 -0.989262 -2.59054 0
M  V30 19171 H 1746.3 -0.977754 -1.25003 0
M  V30 19172 H 1746.32 -0.041034 -3.80478 0
M  V30 19173 H 1745.83 -1.82576 -3.42473 0
M  V30 19174 H 1743.93 0.627493 -3.67278 0
M  V30 19175 H 1744.04 -0.955508 -4.69475 0
M  V30 19176 H 1742.41 -0.412783 -2.51333 0
M  V30 19177 H 1743.19 -2.06881 -2.73962 0
M  V30 19178 N 1745.64 1.48215 -0.535727 0
M  V30 19179 C 1746.88 2.03397 -0.01188 0
M  V30 19180 C 1747.24 1.40493 1.31451 0
M  V30 19181 O 1746.53 0.543545 1.83728 0
M  V30 19182 C 1746.72 3.57036 0.161344 0
M  V30 19183 C 1746.55 4.34834 -1.1467 0
M  V30 19184 C 1745.32 4.75553 -1.70815 0
M  V30 19185 C 1747.52 4.71297 -2.05873 0
M  V30 19186 N 1745.5 5.3791 -2.95849 0
M  V30 19187 C 1746.87 5.33733 -3.15483 0
M  V30 19188 C 1748.93 4.53228 -2.06129 0
M  V30 19189 C 1747.63 5.80008 -4.25421 0
M  V30 19190 C 1749.66 5.00488 -3.15065 0
M  V30 19191 C 1749.02 5.62953 -4.23395 0
M  V30 19192 H 1745.12 0.780647 -0.0459869 0
M  V30 19193 H 1747.7 1.80967 -0.718276 0
M  V30 19194 H 1745.87 3.79278 0.836833 0
M  V30 19195 H 1747.61 3.98855 0.685316 0
M  V30 19196 H 1744.36 4.56839 -1.24881 0
M  V30 19197 H 1744.79 5.73649 -3.59522 0
M  V30 19198 H 1749.43 4.04309 -1.23669 0
M  V30 19199 H 1747.15 6.27929 -5.08656 0
M  V30 19200 H 1750.73 4.88292 -3.16325 0
M  V30 19201 H 1749.61 5.98858 -5.06299 0
M  V30 19202 N 1747.11 0.27113 1.5525 0
M  V30 19203 C 1748.06 -0.634087 2.2379 0
M  V30 19204 C 1749.06 -1.16101 1.23357 0
M  V30 19205 O 1750.26 -1.1151 1.413 0
M  V30 19206 H 1746.64 -0.223023 0.718168 0
M  V30 19207 H 1748.61 -0.0331304 2.98382 0
M  V30 19208 C 1747.36 -1.80879 2.96948 0
M  V30 19209 H 1746.68 -1.41252 3.74016 0
M  V30 19210 H 1748.12 -2.41888 3.48233 0
M  V30 19211 C 1746.58 -2.69481 2.02192 0
M  V30 19212 O 1747.11 -3.69725 1.57056 0
M  V30 19213 N 1745.32 -2.36565 1.68776 0
M  V30 19214 H 1744.86 -1.55096 2.05677 0
M  V30 19215 H 1744.82 -2.96119 1.05646 0
M  V30 19216 N 1748.59 -1.576 -0.00164943 0
M  V30 19217 C 1749.84 -1.90778 -0.68786 0
M  V30 19218 C 1750.17 -0.872138 -1.73515 0
M  V30 19219 O 1749.45 0.109349 -1.94192 0
M  V30 19220 C 1749.73 -3.34539 -1.3325 0
M  V30 19221 C 1749.58 -4.48819 -0.296862 0
M  V30 19222 C 1750.9 -3.77693 -2.25911 0
M  V30 19223 H 1748.02 -0.69381 -0.24859 0
M  V30 19224 H 1750.66 -1.89936 0.0493059 0
M  V30 19225 H 1748.81 -3.35388 -1.9608 0
M  V30 19226 H 1750.48 -4.60106 0.331635 0
M  V30 19227 H 1748.73 -4.32123 0.38105 0
M  V30 19228 H 1749.4 -5.46362 -0.786927 0
M  V30 19229 H 1751.87 -3.78386 -1.73099 0
M  V30 19230 H 1750.75 -4.79037 -2.67983 0
M  V30 19231 H 1751.01 -3.11469 -3.1375 0
M  V30 19232 N 1750.07 0.274379 -1.55193 0
M  V30 19233 C 1751.32 1.00617 -1.75734 0
M  V30 19234 C 1751.65 1.86334 -0.557679 0
M  V30 19235 O 1750.9 1.90221 0.459848 0
M  V30 19236 C 1751.2 1.91958 -3.01475 0
M  V30 19237 C 1750.87 1.22002 -4.34081 0
M  V30 19238 C 1749.53 1.02658 -4.70122 0
M  V30 19239 C 1751.88 0.722087 -5.16174 0
M  V30 19240 C 1749.21 0.322465 -5.85813 0
M  V30 19241 C 1751.56 0.0315683 -6.32592 0
M  V30 19242 C 1750.22 -0.173595 -6.67274 0
M  V30 19243 H 1749.49 0.368182 -0.643058 0
M  V30 19244 H 1752.14 0.278579 -1.89463 0
M  V30 19245 H 1750.45 2.71333 -2.8264 0
M  V30 19246 H 1752.14 2.48698 -3.14564 0
M  V30 19247 H 1748.73 1.3807 -4.05752 0
M  V30 19248 H 1752.92 0.859163 -4.88807 0
M  V30 19249 H 1748.17 0.152775 -6.11209 0
M  V30 19250 H 1752.35 -0.362033 -6.95458 0
M  V30 19251 H 1749.97 -0.721178 -7.56771 0
M  V30 19252 N 1751.55 1.48103 0.538828 0
M  V30 19253 C 1752.83 1.46155 1.29992 0
M  V30 19254 C 1753.21 0.16841 2.10427 0
M  V30 19255 O 1752.55 -0.849967 2.12103 0
M  V30 19256 C 1752.76 2.71826 2.18888 0
M  V30 19257 C 1754.11 3.19794 2.79315 0
M  V30 19258 O 1755.14 2.72681 2.2918 0
M  V30 19259 O 1753.99 4.0175 3.70485 0
M  V30 19260 H 1751.09 0.583293 0.586258 0
M  V30 19261 H 1753.63 1.60326 0.556212 0
M  V30 19262 H 1752.41 3.57462 1.59176 0
M  V30 19263 H 1752.03 2.60332 3.00521 0
M  V30 19264 N 1753.03 -0.787016 1.36542 0
M  V30 19265 C 1754.27 -1.54499 1.30906 0
M  V30 19266 C 1754.6 -1.94183 -0.110963 0
M  V30 19267 O 1753.86 -1.63149 -1.08079 0
M  V30 19268 C 1754.16 -2.83235 2.17974 0
M  V30 19269 C 1753.82 -2.62677 3.66485 0
M  V30 19270 C 1752.48 -2.56779 4.06962 0
M  V30 19271 C 1754.84 -2.43853 4.60636 0
M  V30 19272 C 1752.16 -2.30026 5.39727 0
M  V30 19273 C 1754.52 -2.18626 5.93621 0
M  V30 19274 C 1753.18 -2.11162 6.33219 0
M  V30 19275 H 1752.45 -0.565352 0.479017 0
M  V30 19276 H 1755.1 -0.907794 1.68616 0
M  V30 19277 H 1753.4 -3.51435 1.73208 0
M  V30 19278 H 1755.1 -3.41038 2.10936 0
M  V30 19279 H 1751.69 -2.68125 3.34376 0
M  V30 19280 H 1755.87 -2.4741 4.30235 0
M  V30 19281 H 1751.13 -2.22731 5.69386 0
M  V30 19282 H 1755.3 -2.03056 6.66139 0
M  V30 19283 H 1752.93 -1.90195 7.36023 0
M  V30 19284 N 1754.5 -1.20861 -1.01145 0
M  V30 19285 C 1755.43 -0.986058 -2.11658 0
M  V30 19286 C 1756.42 0.0867558 -1.69879 0
M  V30 19287 O 1757.6 -0.0717892 -1.94067 0
M  V30 19288 C 1754.73 -0.542938 -3.4303 0
M  V30 19289 C 1753.68 -1.55958 -3.98574 0
M  V30 19290 C 1753.01 -0.972917 -5.25774 0
M  V30 19291 C 1754.31 -2.94471 -4.31375 0
M  V30 19292 H 1756 -1.91035 -2.30534 0
M  V30 19293 H 1753.55 -0.919914 -1.10786 0
M  V30 19294 H 1755.5 -0.374446 -4.19733 0
M  V30 19295 H 1754.23 0.416988 -3.23927 0
M  V30 19296 H 1752.89 -1.71552 -3.23984 0
M  V30 19297 H 1752.53 -0.00490446 -5.03 0
M  V30 19298 H 1752.23 -1.65194 -5.63901 0
M  V30 19299 H 1753.76 -0.815607 -6.05128 0
M  V30 19300 H 1755.17 -2.82358 -4.98946 0
M  V30 19301 H 1753.57 -3.59327 -4.80629 0
M  V30 19302 H 1754.64 -3.45804 -3.39923 0
M  V30 19303 N 1755.98 1.20536 -1.01532 0
M  V30 19304 C 1757.23 1.89191 -0.699258 0
M  V30 19305 C 1757.54 1.79624 0.774238 0
M  V30 19306 O 1758.75 2.43402 1.20281 0
M  V30 19307 C 1757.21 3.39294 -1.20033 0
M  V30 19308 C 1756.81 3.57449 -2.70064 0
M  V30 19309 C 1758.56 4.13511 -0.959626 0
M  V30 19310 C 1756.47 5.01371 -3.13658 0
M  V30 19311 H 1755.4 0.708537 -0.257859 0
M  V30 19312 H 1758.05 1.36368 -1.22785 0
M  V30 19313 H 1756.43 3.91432 -0.599728 0
M  V30 19314 H 1757.6 3.15702 -3.35662 0
M  V30 19315 H 1755.92 2.966 -2.92262 0
M  V30 19316 H 1758.51 5.19624 -1.26077 0
M  V30 19317 H 1758.86 4.1617 0.103934 0
M  V30 19318 H 1759.39 3.67469 -1.52354 0
M  V30 19319 H 1756.13 5.03866 -4.19285 0
M  V30 19320 H 1755.65 5.43933 -2.52779 0
M  V30 19321 H 1757.33 5.69944 -3.06224 0
M  V30 19322 N 1757.46 0.791395 1.36289 0
M  V30 19323 C 1758.71 0.365242 1.99484 0
M  V30 19324 C 1759.04 -1.06087 1.62663 0
M  V30 19325 O 1758.31 -1.73332 0.882396 0
M  V30 19326 C 1758.6 0.531317 3.56159 0
M  V30 19327 C 1758.45 2.00126 4.02827 0
M  V30 19328 C 1759.77 -0.0524248 4.40069 0
M  V30 19329 H 1756.89 0.134183 0.724682 0
M  V30 19330 H 1759.53 0.998102 1.61672 0
M  V30 19331 H 1757.68 -0.0074293 3.88499 0
M  V30 19332 H 1759.35 2.60122 3.80965 0
M  V30 19333 H 1757.6 2.50316 3.54294 0
M  V30 19334 H 1758.27 2.06842 5.11782 0
M  V30 19335 H 1760.74 0.407489 4.141 0
M  V30 19336 H 1759.62 0.0937898 5.4882 0
M  V30 19337 H 1759.88 -1.14472 4.27023 0
M  V30 19338 N 1758.94 -1.47929 0.54358 0
M  V30 19339 C 1760.19 -2.01696 0.0123924 0
M  V30 19340 C 1760.5 -1.42469 -1.34022 0
M  V30 19341 O 1761.71 -1.87816 -1.96054 0
M  V30 19342 C 1760.16 -3.59889 -0.0282734 0
M  V30 19343 C 1759.77 -4.28104 1.32027 0
M  V30 19344 C 1761.52 -4.21455 -0.507571 0
M  V30 19345 C 1759.42 -5.78266 1.23945 0
M  V30 19346 H 1758.35 -0.754 0.000862593 0
M  V30 19347 H 1761 -1.70058 0.689396 0
M  V30 19348 H 1759.39 -3.88429 -0.770641 0
M  V30 19349 H 1760.56 -4.11221 2.07927 0
M  V30 19350 H 1758.87 -3.78468 1.7364 0
M  V30 19351 H 1761.47 -5.31477 -0.586219 0
M  V30 19352 H 1761.81 -3.87696 -1.51648 0
M  V30 19353 H 1762.35 -3.97395 0.179522 0
M  V30 19354 H 1759.09 -6.16621 2.22393 0
M  V30 19355 H 1758.61 -5.97524 0.522029 0
M  V30 19356 H 1760.29 -6.40197 0.935788 0
M  V30 19357 N 1760.42 -0.27936 -1.55104 0
M  V30 19358 C 1761.67 0.335541 -1.99295 0
M  V30 19359 C 1761.99 1.56059 -1.16921 0
M  V30 19360 O 1761.26 1.9417 -0.259773 0
M  V30 19361 H 1759.84 0.126968 -0.736131 0
M  V30 19362 H 1762.5 -0.385679 -1.91046 0
M  V30 19363 H 1761.59 0.622493 -3.05829 0
M  V30 19364 N 1761.9 1.57599 -0.0067085 0
M  V30 19365 C 1763.12 1.95545 0.69115 0
M  V30 19366 C 1763.55 0.882014 1.66139 0
M  V30 19367 O 1762.9 -0.159242 1.80599 0
M  V30 19368 C 1762.95 3.3259 1.39342 0
M  V30 19369 O 1762.06 3.27368 2.50806 0
M  V30 19370 H 1761.4 0.638188 0.183336 0
M  V30 19371 H 1763.93 2.04506 -0.0618957 0
M  V30 19372 H 1763.94 3.6831 1.75532 0
M  V30 19373 H 1762.61 4.10269 0.682072 0
M  V30 19374 H 1761.19 3.03334 2.16894 0
M  V30 19375 N 1763.37 -0.266145 1.55336 0
M  V30 19376 C 1764.62 -0.994648 1.7547 0
M  V30 19377 C 1764.94 -1.87201 0.56702 0
M  V30 19378 O 1766.14 -2.63582 0.650924 0
M  V30 19379 C 1764.6 -1.81844 3.10581 0
M  V30 19380 C 1764.21 -0.989413 4.36938 0
M  V30 19381 C 1765.95 -2.54084 3.40061 0
M  V30 19382 C 1763.86 -1.80799 5.63086 0
M  V30 19383 H 1762.79 -0.375097 0.654078 0
M  V30 19384 H 1765.44 -0.25004 1.81788 0
M  V30 19385 H 1763.82 -2.60427 2.98318 0
M  V30 19386 H 1764.99 -0.247271 4.60136 0
M  V30 19387 H 1763.31 -0.38125 4.14651 0
M  V30 19388 H 1765.91 -3.15744 4.3152 0
M  V30 19389 H 1766.25 -3.2472 2.60505 0
M  V30 19390 H 1766.78 -1.82526 3.53453 0
M  V30 19391 H 1763.52 -1.14571 6.4541 0
M  V30 19392 H 1763.04 -2.52592 5.4402 0
M  V30 19393 H 1764.72 -2.37994 6.01638 0
M  V30 19394 N 1764.85 -1.48386 -0.530967 0
M  V30 19395 C 1766.1 -1.55608 -1.28332 0
M  V30 19396 C 1766.41 -0.234479 -1.94189 0
M  V30 19397 O 1767.62 -0.184926 -2.70869 0
M  V30 19398 C 1766.08 -2.74423 -2.32852 0
M  V30 19399 C 1765.68 -4.13221 -1.73068 0
M  V30 19400 C 1767.43 -2.90956 -3.09103 0
M  V30 19401 C 1765.33 -5.23299 -2.75522 0
M  V30 19402 H 1764.26 -0.579291 -0.482637 0
M  V30 19403 H 1766.92 -1.74718 -0.560885 0
M  V30 19404 H 1765.3 -2.48745 -3.08126 0
M  V30 19405 H 1766.47 -4.48913 -1.03989 0
M  V30 19406 H 1764.79 -4.01796 -1.09312 0
M  V30 19407 H 1767.38 -3.70363 -3.85662 0
M  V30 19408 H 1767.73 -2.00376 -3.64905 0
M  V30 19409 H 1768.26 -3.1653 -2.40943 0
M  V30 19410 H 1765 -6.15842 -2.24542 0
M  V30 19411 H 1764.52 -4.92095 -3.42932 0
M  V30 19412 H 1766.2 -5.5137 -3.38526 0
M  V30 19413 N 1766.33 0.779763 -1.36958 0
M  V30 19414 C 1767.61 1.52679 -1.22264 0
M  V30 19415 C 1767.99 2.10269 0.187164 0
M  V30 19416 O 1767.33 1.94828 1.19391 0
M  V30 19417 C 1767.54 2.61406 -2.31231 0
M  V30 19418 C 1768.89 3.29027 -2.68377 0
M  V30 19419 O 1769.92 2.71696 -2.30347 0
M  V30 19420 O 1768.78 4.3266 -3.33868 0
M  V30 19421 H 1765.87 0.675843 -0.476619 0
M  V30 19422 H 1768.42 0.817416 -1.48716 0
M  V30 19423 H 1767.19 2.16915 -3.25674 0
M  V30 19424 H 1766.81 3.39953 -2.06199 0
M  V30 19425 N 1767.81 1.21396 1.00503 0
M  V30 19426 C 1769.05 1.0327 1.74537 0
M  V30 19427 C 1769.39 -0.432746 1.89317 0
M  V30 19428 O 1768.66 -1.32111 1.42747 0
M  V30 19429 C 1768.94 1.73045 3.15797 0
M  V30 19430 C 1768.8 3.27108 3.0874 0
M  V30 19431 C 1770.12 1.47298 4.14718 0
M  V30 19432 H 1767.24 0.376563 0.633537 0
M  V30 19433 H 1769.88 1.49571 1.17169 0
M  V30 19434 H 1768.03 1.33682 3.64776 0
M  V30 19435 H 1769.7 3.75839 2.67475 0
M  V30 19436 H 1767.94 3.57413 2.45843 0
M  V30 19437 H 1768.61 3.71096 4.08646 0
M  V30 19438 H 1771.09 1.81468 3.74444 0
M  V30 19439 H 1769.97 1.98633 5.11699 0
M  V30 19440 H 1770.23 0.402981 4.4026 0
M  V30 19441 N 1769.29 -1.19996 1.0217 0
M  V30 19442 C 1770.53 -1.88818 0.709281 0
M  V30 19443 C 1770.85 -1.80032 -0.764702 0
M  V30 19444 O 1772.05 -2.44037 -1.18988 0
M  V30 19445 C 1770.51 -3.38652 1.2183 0
M  V30 19446 C 1770.12 -3.56012 2.71955 0
M  V30 19447 C 1771.86 -4.12996 0.981542 0
M  V30 19448 C 1769.77 -4.997 3.16313 0
M  V30 19449 H 1768.7 -0.70716 0.261613 0
M  V30 19450 H 1771.35 -1.35715 1.23506 0
M  V30 19451 H 1769.73 -3.91109 0.620478 0
M  V30 19452 H 1770.91 -3.13918 3.37331 0
M  V30 19453 H 1769.22 -2.95046 2.93831 0
M  V30 19454 H 1771.82 -5.18948 1.28831 0
M  V30 19455 H 1772.16 -4.1622 -0.0818616 0
M  V30 19456 H 1772.69 -3.66656 1.543 0
M  V30 19457 H 1769.43 -5.01635 4.21951 0
M  V30 19458 H 1768.95 -5.42585 2.5566 0
M  V30 19459 H 1770.63 -5.68312 3.09242 0
M  V30 19460 N 1770.76 -0.798611 -1.35867 0
M  V30 19461 C 1771.69 -0.217751 -2.32482 0
M  V30 19462 C 1772.67 0.652374 -1.57093 0
M  V30 19463 O 1773.86 0.584297 -1.85202 0
M  V30 19464 C 1770.99 0.640925 -3.41335 0
M  V30 19465 C 1769.94 -0.130053 -4.27802 0
M  V30 19466 C 1769.27 0.849811 -5.27904 0
M  V30 19467 C 1770.57 -1.32451 -5.05227 0
M  V30 19468 H 1772.26 -1.02492 -2.81311 0
M  V30 19469 H 1769.81 -0.494302 -1.3525 0
M  V30 19470 H 1771.76 1.05729 -4.07921 0
M  V30 19471 H 1770.49 1.4809 -2.91096 0
M  V30 19472 H 1769.15 -0.5275 -3.62785 0
M  V30 19473 H 1768.79 1.68507 -4.73935 0
M  V30 19474 H 1768.49 0.338323 -5.86625 0
M  V30 19475 H 1770.02 1.26455 -5.97362 0
M  V30 19476 H 1771.43 -0.983429 -5.64802 0
M  V30 19477 H 1769.83 -1.76992 -5.73405 0
M  V30 19478 H 1770.9 -2.11522 -4.36333 0
M  V30 19479 N 1772.24 1.47639 -0.551417 0
M  V30 19480 C 1773.47 2.07381 -0.0278888 0
M  V30 19481 C 1773.89 1.40223 1.25375 0
M  V30 19482 O 1773.25 0.475268 1.7496 0
M  V30 19483 C 1773.3 3.60258 0.157001 0
M  V30 19484 O 1772.4 3.93913 1.2209 0
M  V30 19485 H 1771.74 0.66221 -0.0487252 0
M  V30 19486 H 1774.27 1.89742 -0.765449 0
M  V30 19487 H 1774.28 4.06291 0.373013 0
M  V30 19488 H 1772.96 4.08537 -0.779122 0
M  V30 19489 H 1771.53 3.59633 0.985843 0
M  V30 19490 N 1773.72 0.287581 1.54954 0
M  V30 19491 C 1774.63 -0.604236 2.26685 0
M  V30 19492 C 1775.65 -1.1597 1.29719 0
M  V30 19493 O 1776.82 -1.18735 1.62678 0
M  V30 19494 C 1773.89 -1.76612 2.98344 0
M  V30 19495 C 1772.95 -1.24608 4.10818 0
M  V30 19496 C 1772.18 -2.35258 4.7905 0
M  V30 19497 O 1772.4 -3.54879 4.46561 0
M  V30 19498 O 1771.34 -2.02709 5.66739 0
M  V30 19499 H 1775.16 -0.0227663 3.03691 0
M  V30 19500 H 1772.75 0.0545243 1.493 0
M  V30 19501 H 1774.63 -2.44332 3.43336 0
M  V30 19502 H 1773.31 -2.33444 2.24244 0
M  V30 19503 H 1772.21 -0.53498 3.70255 0
M  V30 19504 H 1773.55 -0.723348 4.86856 0
M  V30 19505 N 1775.2 -1.57593 0.0150662 0
M  V30 19506 C 1776.45 -1.90392 -0.66587 0
M  V30 19507 C 1776.76 -0.891694 -1.74092 0
M  V30 19508 O 1777.97 -1.11043 -2.47753 0
M  V30 19509 C 1776.42 -3.38026 -1.23558 0
M  V30 19510 C 1776.03 -4.47577 -0.19455 0
M  V30 19511 C 1777.77 -3.79913 -1.89384 0
M  V30 19512 C 1775.68 -5.86299 -0.7751 0
M  V30 19513 H 1774.61 -0.710474 -0.252473 0
M  V30 19514 H 1777.26 -1.83334 0.0780739 0
M  V30 19515 H 1775.64 -3.3997 -2.03068 0
M  V30 19516 H 1776.82 -4.57172 0.577061 0
M  V30 19517 H 1775.13 -4.14805 0.364134 0
M  V30 19518 H 1777.73 -4.809 -2.3375 0
M  V30 19519 H 1778.07 -3.14225 -2.73072 0
M  V30 19520 H 1778.61 -3.80333 -1.16585 0
M  V30 19521 H 1775.35 -6.55496 0.0233354 0
M  V30 19522 H 1774.87 -5.80338 -1.51552 0
M  V30 19523 H 1776.54 -6.3443 -1.26915 0
M  V30 19524 N 1776.68 0.257904 -1.55475 0
M  V30 19525 C 1777.95 1.00965 -1.67528 0
M  V30 19526 C 1778.33 2.03763 -0.551694 0
M  V30 19527 O 1777.68 2.24099 0.446314 0
M  V30 19528 C 1777.89 1.65289 -3.07377 0
M  V30 19529 C 1779.24 2.15888 -3.65619 0
M  V30 19530 O 1780.26 1.7525 -3.10106 0
M  V30 19531 O 1779.12 2.90471 -4.62913 0
M  V30 19532 H 1776.22 0.469266 -0.680969 0
M  V30 19533 H 1778.76 0.252562 -1.6781 0
M  V30 19534 H 1777.53 0.908769 -3.80601 0
M  V30 19535 H 1777.16 2.47646 -3.11058 0
M  V30 19536 N 1778.15 1.48666 0.52309 0
M  V30 19537 C 1779.38 1.60707 1.30311 0
M  V30 19538 C 1779.8 0.269941 1.8686 0
M  V30 19539 O 1779.15 -0.741714 1.66748 0
M  V30 19540 C 1779.21 2.65899 2.44908 0
M  V30 19541 O 1778.93 3.94423 1.90688 0
M  V30 19542 C 1780.43 2.88443 3.36624 0
M  V30 19543 H 1777.65 0.541661 0.396035 0
M  V30 19544 H 1780.19 1.94544 0.630322 0
M  V30 19545 H 1778.35 2.34902 3.08058 0
M  V30 19546 H 1778.76 4.5219 2.65753 0
M  V30 19547 H 1780.23 3.65831 4.13366 0
M  V30 19548 H 1780.71 1.97524 3.92277 0
M  V30 19549 H 1781.32 3.20771 2.7926 0
M  V30 19550 N 1779.63 -0.772489 1.37369 0
M  V30 19551 C 1780.88 -1.53102 1.32537 0
M  V30 19552 C 1781.21 -1.9429 -0.0903608 0
M  V30 19553 O 1780.46 -1.64286 -1.06342 0
M  V30 19554 C 1780.76 -2.80907 2.20966 0
M  V30 19555 C 1780.43 -2.58775 3.69251 0
M  V30 19556 C 1779.09 -2.52448 4.09663 0
M  V30 19557 C 1781.44 -2.38954 4.63196 0
M  V30 19558 C 1778.77 -2.24288 5.42136 0
M  V30 19559 C 1781.12 -2.12318 5.95906 0
M  V30 19560 C 1779.79 -2.04434 6.35423 0
M  V30 19561 H 1779.06 -0.56024 0.484987 0
M  V30 19562 H 1781.7 -0.889859 1.69569 0
M  V30 19563 H 1780.01 -3.49578 1.76925 0
M  V30 19564 H 1781.7 -3.38782 2.14541 0
M  V30 19565 H 1778.29 -2.64563 3.37201 0
M  V30 19566 H 1782.48 -2.42833 4.32835 0
M  V30 19567 H 1777.73 -2.16679 5.71717 0
M  V30 19568 H 1781.91 -1.95979 6.68255 0
M  V30 19569 H 1779.54 -1.82378 7.37999 0
M  V30 19570 N 1781.11 -1.21927 -0.998575 0
M  V30 19571 C 1782.04 -1.00845 -2.106 0
M  V30 19572 C 1783.02 0.068733 -1.69961 0
M  V30 19573 O 1784.21 -0.0923686 -1.9398 0
M  V30 19574 C 1781.34 -0.57929 -3.42435 0
M  V30 19575 C 1780.29 -1.60177 -3.96897 0
M  V30 19576 C 1779.62 -1.02863 -5.24713 0
M  V30 19577 C 1780.92 -2.9903 -4.28227 0
M  V30 19578 H 1782.61 -1.93469 -2.28495 0
M  V30 19579 H 1780.16 -0.931612 -1.09804 0
M  V30 19580 H 1782.11 -0.418944 -4.19312 0
M  V30 19581 H 1780.83 0.382608 -3.24351 0
M  V30 19582 H 1779.49 -1.74979 -3.22146 0
M  V30 19583 H 1779.14 -0.058254 -5.02966 0
M  V30 19584 H 1778.84 -1.71166 -5.62117 0
M  V30 19585 H 1780.36 -0.879743 -6.04229 0
M  V30 19586 H 1781.78 -2.87634 -4.95923 0
M  V30 19587 H 1780.18 -3.64404 -4.76791 0
M  V30 19588 H 1781.25 -3.4939 -3.36236 0
M  V30 19589 N 1782.59 1.19452 -1.02805 0
M  V30 19590 C 1783.55 2.20857 -0.612757 0
M  V30 19591 C 1784.55 1.57519 0.323182 0
M  V30 19592 O 1785.74 1.7385 0.110303 0
M  V30 19593 C 1782.87 3.40743 0.103488 0
M  V30 19594 H 1784.07 2.59113 -1.50998 0
M  V30 19595 H 1781.62 1.33116 -0.819142 0
M  V30 19596 H 1782.35 3.08004 1.0151 0
M  V30 19597 H 1782.14 3.87949 -0.56903 0
M  V30 19598 H 1783.63 4.15858 0.380998 0
M  V30 19599 N 1784.07 0.805805 1.35442 0
M  V30 19600 C 1785.29 0.397179 2.03561 0
M  V30 19601 C 1785.72 -0.983665 1.6033 0
M  V30 19602 O 1785.07 -1.63683 0.779586 0
M  V30 19603 C 1785.12 0.487813 3.57285 0
M  V30 19604 O 1784.23 -0.499039 4.09369 0
M  V30 19605 H 1783.57 0.166009 0.642913 0
M  V30 19606 H 1786.1 1.09147 1.73055 0
M  V30 19607 H 1786.11 0.357334 4.06432 0
M  V30 19608 H 1784.78 1.49501 3.88101 0
M  V30 19609 H 1783.36 -0.328864 3.71447 0
M  V30 19610 N 1785.54 -1.47344 0.559239 0
M  V30 19611 C 1786.77 -2.07364 0.0388864 0
M  V30 19612 C 1787.19 -1.40886 -1.2463 0
M  V30 19613 O 1786.55 -0.48454 -1.74705 0
M  V30 19614 C 1786.6 -3.60336 -0.137894 0
M  V30 19615 O 1785.7 -3.94555 -1.2 0
M  V30 19616 H 1785.05 -0.661942 0.0522363 0
M  V30 19617 H 1787.58 -1.89333 0.7755 0
M  V30 19618 H 1787.59 -4.06483 -0.351462 0
M  V30 19619 H 1786.26 -4.08118 0.800776 0
M  V30 19620 H 1784.84 -3.6015 -0.966757 0
M  V30 19621 N 1787.02 -0.295795 -1.54799 0
M  V30 19622 C 1788.27 0.314384 -1.9964 0
M  V30 19623 C 1788.59 1.5481 -1.1857 0
M  V30 19624 O 1787.86 1.93884 -0.280353 0
M  V30 19625 H 1786.44 0.119153 -0.737436 0
M  V30 19626 H 1789.1 -0.40592 -1.90626 0
M  V30 19627 H 1788.2 0.59002 -3.06472 0
M  V30 19628 N 1788.5 1.57583 -0.0234236 0
M  V30 19629 C 1789.75 1.91186 0.655152 0
M  V30 19630 C 1790.07 0.89988 1.72995 0
M  V30 19631 O 1789.34 -0.0594278 1.9581 0
M  V30 19632 H 1787.92 0.705686 0.244982 0
M  V30 19633 H 1790.58 1.94775 -0.0698824 0
M  V30 19634 H 1789.68 2.91636 1.11152 0
M  V30 19635 N 1789.98 -0.249655 1.5561 0
M  V30 19636 C 1790.91 -1.31281 1.931 0
M  V30 19637 C 1791.89 -1.50347 0.795601 0
M  V30 19638 O 1793.08 -1.63001 1.05566 0
M  V30 19639 C 1790.21 -2.66808 2.2233 0
M  V30 19640 C 1789.16 -2.62441 3.38096 0
M  V30 19641 C 1788.49 -4.01738 3.52861 0
M  V30 19642 C 1789.79 -2.19667 4.7386 0
M  V30 19643 H 1791.48 -1.00151 2.82153 0
M  V30 19644 H 1789.03 -0.480331 1.35753 0
M  V30 19645 H 1790.98 -3.41316 2.47146 0
M  V30 19646 H 1789.7 -2.99569 1.30101 0
M  V30 19647 H 1788.36 -1.90391 3.13284 0
M  V30 19648 H 1788.01 -4.31759 2.58056 0
M  V30 19649 H 1787.71 -3.99705 4.30708 0
M  V30 19650 H 1789.23 -4.7795 3.79995 0
M  V30 19651 H 1790.65 -2.83906 4.98067 0
M  V30 19652 H 1789.04 -2.28751 5.54791 0
M  V30 19653 H 1790.11 -1.14829 4.71108 0
M  V30 19654 N 1791.46 -1.48941 -0.515198 0
M  V30 19655 C 1792.69 -1.61162 -1.29269 0
M  V30 19656 C 1793.1 -0.276697 -1.87166 0
M  V30 19657 O 1792.44 0.746082 -1.67867 0
M  V30 19658 C 1792.5 -2.61067 -2.47152 0
M  V30 19659 C 1792.16 -4.05773 -2.10232 0
M  V30 19660 C 1793.16 -4.93011 -1.65035 0
M  V30 19661 C 1790.85 -4.51412 -2.20302 0
M  V30 19662 C 1792.84 -6.2392 -1.30393 0
M  V30 19663 C 1790.53 -5.82338 -1.85271 0
M  V30 19664 C 1791.53 -6.68416 -1.4039 0
M  V30 19665 O 1791.21 -7.96904 -1.05826 0
M  V30 19666 H 1790.95 -0.545818 -0.398821 0
M  V30 19667 H 1793.5 -1.95608 -0.626638 0
M  V30 19668 H 1791.73 -2.21773 -3.16787 0
M  V30 19669 H 1793.42 -2.62967 -3.09198 0
M  V30 19670 H 1794.18 -4.58984 -1.56713 0
M  V30 19671 H 1790.06 -3.8459 -2.54189 0
M  V30 19672 H 1793.61 -6.91061 -0.952892 0
M  V30 19673 H 1789.5 -6.15897 -1.93238 0
M  V30 19674 H 1790.27 -8.09789 -1.19096 0
M  V30 19675 N 1792.94 0.765193 -1.37777 0
M  V30 19676 C 1794.18 1.53692 -1.34752 0
M  V30 19677 C 1794.54 1.91888 0.0655965 0
M  V30 19678 O 1795.74 2.67893 0.220628 0
M  V30 19679 C 1794.01 2.76363 -2.26623 0
M  V30 19680 S 1795.57 3.66358 -2.4151 0
M  V30 19681 H 1792.39 0.526091 -0.478277 0
M  V30 19682 H 1794.99 0.899252 -1.73591 0
M  V30 19683 H 1793.69 2.46393 -3.28205 0
M  V30 19684 H 1793.23 3.45085 -1.88892 0
M  V30 19685 H 1795.24 4.68644 -1.63055 0
M  V30 19686 N 1794.41 1.22455 0.992094 0
M  V30 19687 C 1795.34 1.01961 2.10063 0
M  V30 19688 C 1796.32 -0.0597186 1.69995 0
M  V30 19689 O 1797.51 0.102655 1.93928 0
M  V30 19690 C 1794.64 0.597442 3.42123 0
M  V30 19691 C 1793.59 1.62279 3.96042 0
M  V30 19692 C 1792.92 1.05644 5.2416 0
M  V30 19693 C 1794.22 3.01296 4.26635 0
M  V30 19694 H 1795.91 1.94678 2.27466 0
M  V30 19695 H 1793.46 0.937422 1.09309 0
M  V30 19696 H 1795.41 0.441175 4.19084 0
M  V30 19697 H 1794.14 -0.365401 3.24549 0
M  V30 19698 H 1792.8 1.76685 3.21213 0
M  V30 19699 H 1792.44 0.0849267 5.02928 0
M  V30 19700 H 1792.14 1.74144 5.61202 0
M  V30 19701 H 1793.67 0.911774 6.03754 0
M  V30 19702 H 1795.08 2.9026 4.94391 0
M  V30 19703 H 1793.48 3.66928 4.74852 0
M  V30 19704 H 1794.55 3.51168 3.34378 0
M  V30 19705 N 1795.89 -1.18905 1.03437 0
M  V30 19706 C 1797.14 -1.88354 0.732598 0
M  V30 19707 C 1797.46 -1.80353 -0.741474 0
M  V30 19708 O 1796.73 -1.21764 -1.53461 0
M  V30 19709 H 1795.31 -0.697272 0.267995 0
M  V30 19710 H 1797.97 -1.44329 1.30978 0
M  V30 19711 H 1797.07 -2.94551 1.03181 0
M  V30 19712 N 1797.37 -0.812977 -1.35013 0
M  V30 19713 C 1798.62 -0.395562 -1.98191 0
M  V30 19714 C 1798.94 1.04242 -1.64799 0
M  V30 19715 O 1798.21 1.72219 -0.933678 0
M  V30 19716 H 1796.79 -0.143276 -0.733131 0
M  V30 19717 H 1799.45 -1.04023 -1.64819 0
M  V30 19718 H 1798.55 -0.506466 -3.07963 0
M  V30 19719 N 1798.85 1.47045 -0.567045 0
M  V30 19720 C 1800.1 2.02046 -0.0465877 0
M  V30 19721 C 1800.42 1.44271 1.3119 0
M  V30 19722 O 1799.69 0.621533 1.85779 0
M  V30 19723 H 1798.27 0.746864 -0.0142323 0
M  V30 19724 H 1800.93 1.80335 -0.739281 0
M  V30 19725 H 1800.02 3.12081 0.0341623 0
M  V30 19726 N 1800.33 0.304 1.5464 0
M  V30 19727 C 1801.57 -0.305229 2.02108 0
M  V30 19728 C 1801.93 -1.50862 1.18763 0
M  V30 19729 O 1803.13 -2.18941 1.55943 0
M  V30 19730 C 1801.4 -0.65001 3.51439 0
M  V30 19731 S 1802.96 -1.24167 4.20866 0
M  V30 19732 H 1799.78 -0.0935021 0.704825 0
M  V30 19733 H 1802.38 0.432571 1.90654 0
M  V30 19734 H 1801.08 0.234253 4.09731 0
M  V30 19735 H 1800.62 -1.41852 3.66935 0
M  V30 19736 H 1802.63 -2.52936 4.26893 0
M  V30 19737 N 1801.8 -1.57568 0.0317802 0
M  V30 19738 C 1803.05 -1.91531 -0.645004 0
M  V30 19739 C 1803.37 -0.909042 -1.72515 0
M  V30 19740 O 1802.64 0.0490427 -1.95839 0
M  V30 19741 H 1801.22 -0.706976 -0.241236 0
M  V30 19742 H 1803.88 -1.94735 0.0802108 0
M  V30 19743 H 1802.98 -2.92221 -1.09604 0
M  V30 19744 N 1803.28 0.241399 -1.5574 0
M  V30 19745 C 1804.23 1.31868 -1.91608 0
M  V30 19746 C 1805.22 1.49545 -0.795774 0
M  V30 19747 O 1806.43 1.50955 -0.980442 0
M  V30 19748 H 1802.81 0.441685 -0.60862 0
M  V30 19749 H 1804.78 0.98887 -2.81538 0
M  V30 19750 C 1803.53 2.66602 -2.23201 0
M  V30 19751 H 1802.85 2.53802 -3.08909 0
M  V30 19752 H 1804.29 3.40842 -2.52196 0
M  V30 19753 C 1802.75 3.20112 -1.05024 0
M  V30 19754 O 1803.28 4.0057 -0.301069 0
M  V30 19755 N 1801.48 2.78214 -0.839381 0
M  V30 19756 H 1801.03 2.12894 -1.4503 0
M  V30 19757 H 1800.99 3.1436 -0.050362 0
M  V30 19758 N 1804.76 1.49212 0.507292 0
M  V30 19759 C 1806.01 1.58616 1.26368 0
M  V30 19760 C 1806.34 0.269215 1.92325 0
M  V30 19761 O 1805.61 -0.72672 1.80414 0
M  V30 19762 C 1805.9 2.74088 2.33555 0
M  V30 19763 C 1805.75 4.15557 1.7214 0
M  V30 19764 C 1807.07 2.85225 3.35164 0
M  V30 19765 H 1804.19 0.577347 0.458083 0
M  V30 19766 H 1806.83 1.81473 0.562797 0
M  V30 19767 H 1804.98 2.5473 2.93335 0
M  V30 19768 H 1806.65 4.46416 1.16236 0
M  V30 19769 H 1804.9 4.21498 1.02576 0
M  V30 19770 H 1805.57 4.92215 2.49856 0
M  V30 19771 H 1808.04 3.02828 2.85367 0
M  V30 19772 H 1806.92 3.67709 4.07531 0
M  V30 19773 H 1807.18 1.94316 3.97107 0
M  V30 19774 N 1806.24 -0.757876 1.38181 0
M  V30 19775 C 1807.52 -1.50715 1.24677 0
M  V30 19776 C 1807.9 -2.1054 -0.153689 0
M  V30 19777 O 1807.24 -1.96703 -1.16276 0
M  V30 19778 C 1807.45 -2.57695 2.3536 0
M  V30 19779 C 1808.8 -3.24716 2.73578 0
M  V30 19780 O 1809.83 -2.67997 2.3464 0
M  V30 19781 O 1808.68 -4.27294 3.40709 0
M  V30 19782 H 1805.78 -0.668175 0.487311 0
M  V30 19783 H 1808.32 -0.793653 1.49997 0
M  V30 19784 H 1807.1 -2.11706 3.29084 0
M  V30 19785 H 1806.72 -3.36629 2.11581 0
M  V30 19786 N 1807.72 -1.22979 -0.985586 0
M  V30 19787 C 1809.13 -1.05448 -1.5407 0
M  V30 19788 C 1809.48 0.379808 -1.92489 0
M  V30 19789 O 1808.6 1.26582 -1.75516 0
M  V30 19790 C 1809.2 -1.90794 -2.7997 0
M  V30 19791 C 1807.76 -1.77538 -3.31899 0
M  V30 19792 C 1806.9 -1.86814 -2.04929 0
M  V30 19793 H 1809.86 -1.36718 -0.80585 0
M  V30 19794 H 1809.88 -1.42967 -3.5262 0
M  V30 19795 H 1809.39 -2.95177 -2.51977 0
M  V30 19796 H 1807.49 -0.759177 -3.64784 0
M  V30 19797 H 1807.6 -2.60627 -4.02008 0
M  V30 19798 H 1805.97 -1.30336 -2.18826 0
M  V30 19799 H 1806.75 -2.92742 -1.79324 0
M  V30 19800 N 1809.19 1.18355 -1.04066 0
M  V30 19801 C 1810.47 1.8419 -0.65828 0
M  V30 19802 C 1810.85 1.92688 0.862238 0
M  V30 19803 O 1810.2 1.4528 1.76369 0
M  V30 19804 C 1810.41 3.22495 -1.3341 0
M  V30 19805 C 1811.76 3.9853 -1.46489 0
M  V30 19806 O 1812.78 3.31934 -1.29221 0
M  V30 19807 O 1811.64 5.17848 -1.74629 0
M  V30 19808 H 1808.73 0.794278 -0.230329 0
M  V30 19809 H 1811.28 1.25747 -1.13955 0
M  V30 19810 H 1810.05 3.11213 -2.37197 0
M  V30 19811 H 1809.68 3.88594 -0.841449 0
M  V30 19812 N 1810.67 0.820125 1.3458 0
M  V30 19813 C 1811.58 0.241913 2.33349 0
M  V30 19814 C 1812.6 -0.622228 1.62494 0
M  V30 19815 O 1813.77 -0.530787 1.9428 0
M  V30 19816 C 1810.84 -0.588944 3.41661 0
M  V30 19817 C 1809.9 0.29727 4.2827 0
M  V30 19818 C 1809.13 -0.494028 5.31409 0
M  V30 19819 O 1809.36 -1.72755 5.4361 0
M  V30 19820 O 1808.29 0.122182 6.01776 0
M  V30 19821 H 1812.12 1.05934 2.84626 0
M  V30 19822 H 1809.7 0.582205 1.37589 0
M  V30 19823 H 1811.58 -1.06174 4.07805 0
M  V30 19824 H 1810.26 -1.38374 2.92633 0
M  V30 19825 H 1809.17 0.817495 3.65059 0
M  V30 19826 H 1810.5 1.05635 4.80731 0
M  V30 19827 N 1812.15 -1.46743 0.574835 0
M  V30 19828 C 1813.38 -2.07311 0.0608779 0
M  V30 19829 C 1813.8 -1.422 -1.23129 0
M  V30 19830 O 1813.16 -0.503042 -1.74181 0
M  V30 19831 C 1813.21 -3.60462 -0.0996676 0
M  V30 19832 O 1812.31 -3.95806 -1.15808 0
M  V30 19833 H 1811.65 -0.661351 0.0592542 0
M  V30 19834 H 1814.18 -1.885 0.795538 0
M  V30 19835 H 1814.19 -4.06833 -0.308329 0
M  V30 19836 H 1812.87 -4.07246 0.844018 0
M  V30 19837 H 1811.44 -3.61155 -0.928504 0
M  V30 19838 N 1813.63 -0.312197 -1.54477 0
M  V30 19839 C 1814.59 0.54612 -2.22599 0
M  V30 19840 C 1815.59 1.05252 -1.21568 0
M  V30 19841 O 1816.78 0.946756 -1.46226 0
M  V30 19842 C 1813.91 1.75733 -2.92114 0
M  V30 19843 H 1815.11 -0.0492216 -2.9986 0
M  V30 19844 H 1812.66 -0.063149 -1.56172 0
M  V30 19845 H 1813.39 2.39221 -2.18961 0
M  V30 19846 H 1813.18 1.40175 -3.66188 0
M  V30 19847 H 1814.67 2.36685 -3.44049 0
M  V30 19848 N 1815.11 1.57549 -0.040136 0
M  V30 19849 C 1816.52 1.56434 0.316341 0
M  V30 19850 C 1816.72 1.04679 1.72176 0
M  V30 19851 O 1815.78 0.698444 2.42648 0
M  V30 19852 C 1817.09 3.00301 0.154883 0
M  V30 19853 C 1818.64 3.12177 0.226821 0
M  V30 19854 C 1819.11 4.57903 0.0940219 0
M  V30 19855 N 1820.61 4.62955 0.150654 0
M  V30 19856 C 1821.34 5.73355 0.0718466 0
M  V30 19857 N 1820.84 6.92775 -0.0586777 0
M  V30 19858 N 1822.63 5.61957 0.126632 0
M  V30 19859 H 1814.78 1.89516 -0.959032 0
M  V30 19860 H 1817.04 0.872251 -0.371324 0
M  V30 19861 H 1816.75 3.42158 -0.813674 0
M  V30 19862 H 1816.62 3.65795 0.920521 0
M  V30 19863 H 1819.01 2.70225 1.18584 0
M  V30 19864 H 1819.09 2.49383 -0.569384 0
M  V30 19865 H 1818.74 5.00538 -0.861629 0
M  V30 19866 H 1818.67 5.18691 0.909231 0
M  V30 19867 H 1821.16 3.77064 0.251232 0
M  V30 19868 H 1821.47 7.72719 -0.111818 0
M  V30 19869 H 1819.81 6.94937 -0.0936119 0
M  V30 19870 H 1823.01 4.67549 0.227081 0
M  V30 19871 H 1823.18 6.47971 0.0617551 0
M  V30 19872 N 1816.58 -0.233136 1.55866 0
M  V30 19873 C 1817.83 -0.957205 1.7754 0
M  V30 19874 C 1818.15 -1.85956 0.606601 0
M  V30 19875 O 1819.35 -2.62142 0.706687 0
M  V30 19876 C 1817.81 -1.75215 3.14369 0
M  V30 19877 C 1817.42 -0.896509 4.38938 0
M  V30 19878 C 1819.16 -2.46813 3.45374 0
M  V30 19879 C 1817.07 -1.68814 5.66794 0
M  V30 19880 H 1816 -0.361139 0.661887 0
M  V30 19881 H 1818.65 -0.211424 1.82278 0
M  V30 19882 H 1817.03 -2.54041 3.03775 0
M  V30 19883 H 1818.2 -0.149614 4.60557 0
M  V30 19884 H 1816.52 -0.293211 4.15366 0
M  V30 19885 H 1819.12 -3.0652 4.38121 0
M  V30 19886 H 1819.46 -3.19121 2.67334 0
M  V30 19887 H 1819.99 -1.74987 3.57245 0
M  V30 19888 H 1816.73 -1.00855 6.47695 0
M  V30 19889 H 1816.25 -2.40995 5.49255 0
M  V30 19890 H 1817.93 -2.25178 6.06551 0
M  V30 19891 N 1818.06 -1.49479 -0.499372 0
M  V30 19892 C 1819.29 -1.63025 -1.28209 0
M  V30 19893 C 1819.71 -0.302238 -1.85656 0
M  V30 19894 O 1819.07 0.730355 -1.65938 0
M  V30 19895 C 1819.12 -2.70287 -2.38699 0
M  V30 19896 O 1818.22 -2.29573 -3.42593 0
M  V30 19897 H 1817.56 -0.545605 -0.378432 0
M  V30 19898 H 1820.09 -1.95677 -0.597628 0
M  V30 19899 H 1820.1 -2.92505 -2.84438 0
M  V30 19900 H 1818.78 -3.66684 -1.96253 0
M  V30 19901 H 1817.36 -2.17692 -3.02761 0
M  V30 19902 N 1819.54 0.750537 -1.38581 0
M  V30 19903 C 1820.77 1.54489 -1.38376 0
M  V30 19904 C 1821.19 1.88085 0.023634 0
M  V30 19905 O 1820.55 1.50794 1.00652 0
M  V30 19906 C 1820.6 2.81875 -2.24897 0
M  V30 19907 O 1819.7 3.77155 -1.66817 0
M  V30 19908 H 1819.04 0.467148 -0.471878 0
M  V30 19909 H 1821.57 0.927264 -1.82381 0
M  V30 19910 H 1821.58 3.30769 -2.38864 0
M  V30 19911 H 1820.26 2.56753 -3.27186 0
M  V30 19912 H 1818.83 3.35868 -1.62009 0
M  V30 19913 N 1821.02 1.235 0.979051 0
M  V30 19914 C 1821.98 1.01854 2.05325 0
M  V30 19915 C 1822.98 -0.0201133 1.60787 0
M  V30 19916 O 1824.17 0.219761 1.72808 0
M  V30 19917 C 1821.3 0.541404 3.36573 0
M  V30 19918 H 1822.5 1.97183 2.25962 0
M  V30 19919 H 1820.05 1.05563 1.15265 0
M  V30 19920 H 1820.79 -0.415607 3.21626 0
M  V30 19921 H 1820.57 1.29092 3.7024 0
M  V30 19922 H 1822.06 0.410635 4.15576 0
M  V30 19923 N 1822.5 -1.17802 1.04693 0
M  V30 19924 C 1823.74 -1.87938 0.754024 0
M  V30 19925 C 1824.07 -1.80737 -0.718644 0
M  V30 19926 O 1823.33 -1.20657 -1.54079 0
M  V30 19927 C 1823.63 -3.37585 1.17349 0
M  V30 19928 C 1823.29 -3.6499 2.64751 0
M  V30 19929 C 1821.95 -3.72179 3.05019 0
M  V30 19930 C 1824.31 -3.76869 3.60027 0
M  V30 19931 C 1821.63 -3.88731 4.39437 0
M  V30 19932 C 1823.99 -3.94939 4.94172 0
M  V30 19933 C 1822.65 -4.00365 5.34101 0
M  V30 19934 H 1821.92 -0.687714 0.275917 0
M  V30 19935 H 1824.57 -1.39392 1.31309 0
M  V30 19936 H 1822.87 -3.88153 0.533333 0
M  V30 19937 H 1824.57 -3.90206 0.924134 0
M  V30 19938 H 1821.16 -3.60016 2.32565 0
M  V30 19939 H 1825.34 -3.70641 3.30059 0
M  V30 19940 H 1820.6 -3.91179 4.69882 0
M  V30 19941 H 1824.77 -4.03072 5.67896 0
M  V30 19942 H 1822.4 -4.12944 6.38264 0
M  V30 19943 N 1823.98 -0.827251 -1.34143 0
M  V30 19944 C 1825.22 -0.417385 -1.98152 0
M  V30 19945 C 1825.55 1.0206 -1.65572 0
M  V30 19946 O 1824.81 1.72636 -0.921706 0
M  V30 19947 C 1825.1 -0.571534 -3.52801 0
M  V30 19948 C 1824.77 -1.97588 -4.05302 0
M  V30 19949 C 1823.43 -2.36004 -4.19352 0
M  V30 19950 C 1825.78 -2.89371 -4.33491 0
M  V30 19951 C 1823.11 -3.65529 -4.58918 0
M  V30 19952 C 1825.46 -4.18364 -4.74504 0
M  V30 19953 C 1824.13 -4.56751 -4.86759 0
M  V30 19954 H 1823.4 -0.152732 -0.725089 0
M  V30 19955 H 1826.05 -1.05203 -1.60014 0
M  V30 19956 H 1824.35 0.146483 -3.91526 0
M  V30 19957 H 1826.05 -0.234868 -4.00312 0
M  V30 19958 H 1822.64 -1.66748 -3.94833 0
M  V30 19959 H 1826.82 -2.60933 -4.2217 0
M  V30 19960 H 1822.08 -3.95091 -4.66597 0
M  V30 19961 H 1826.25 -4.89568 -4.95274 0
M  V30 19962 H 1823.88 -5.57166 -5.17175 0
M  V30 19963 N 1825.45 1.46436 -0.582609 0
M  V30 19964 C 1826.87 1.5772 -0.244278 0
M  V30 19965 C 1827.07 1.57772 1.2534 0
M  V30 19966 O 1826.13 1.49463 2.03512 0
M  V30 19967 C 1827.44 2.87122 -0.893398 0
M  V30 19968 C 1828.99 3.00753 -0.866979 0
M  V30 19969 C 1829.46 4.32891 -1.49564 0
M  V30 19970 N 1830.95 4.3959 -1.45998 0
M  V30 19971 C 1831.69 5.40449 -1.91578 0
M  V30 19972 N 1831.18 6.47983 -2.45132 0
M  V30 19973 N 1832.98 5.3165 -1.82496 0
M  V30 19974 H 1825.13 1.44646 -1.55536 0
M  V30 19975 H 1827.39 0.689972 -0.650109 0
M  V30 19976 H 1827.1 2.92894 -1.94695 0
M  V30 19977 H 1826.97 3.75056 -0.40156 0
M  V30 19978 H 1829.36 2.94563 0.177954 0
M  V30 19979 H 1829.44 2.14295 -1.39684 0
M  V30 19980 H 1829.08 4.39839 -2.53977 0
M  V30 19981 H 1829.01 5.18124 -0.94101 0
M  V30 19982 H 1831.5 3.62479 -1.06851 0
M  V30 19983 H 1831.82 7.21154 -2.7777 0
M  V30 19984 H 1830.16 6.48803 -2.49157 0
M  V30 19985 H 1833.35 4.46543 -1.40416 0
M  V30 19986 H 1833.53 6.1011 -2.18334 0
M  V30 19987 N 1826.93 0.320385 1.54309 0
M  V30 19988 C 1827.86 -0.539789 2.27175 0
M  V30 19989 C 1828.84 -1.12198 1.2785 0
M  V30 19990 O 1830.03 -1.1477 1.56657 0
M  V30 19991 C 1827.16 -1.70236 3.02716 0
M  V30 19992 C 1826.11 -1.24962 4.09351 0
M  V30 19993 C 1825.44 -2.49888 4.72715 0
M  V30 19994 C 1826.74 -0.366788 5.21011 0
M  V30 19995 H 1828.43 0.0680079 2.99323 0
M  V30 19996 H 1825.98 0.0341488 1.4396 0
M  V30 19997 H 1827.93 -2.31037 3.5242 0
M  V30 19998 H 1826.65 -2.33669 2.2818 0
M  V30 19999 H 1825.31 -0.664556 3.60526 0
M  V30 20000 H 1824.96 -3.11679 3.94798 0
M  V30 20001 H 1824.66 -2.20288 5.44745 0
M  V30 20002 H 1826.19 -3.11458 5.25192 0
M  V30 20003 H 1827.6 -0.881001 5.6649 0
M  V30 20004 H 1826 -0.163707 5.99877 0
M  V30 20005 H 1827.07 0.603185 4.81134 0
M  V30 20006 N 1828.41 -1.57525 0.0484906 0
M  V30 20007 C 1829.66 -1.92585 -0.62589 0
M  V30 20008 C 1829.98 -0.926621 -1.71009 0
M  V30 20009 O 1829.24 0.0614997 -1.95603 0
M  V30 20010 C 1829.54 -3.34335 -1.26313 0
M  V30 20011 C 1829.2 -4.49851 -0.307397 0
M  V30 20012 C 1827.87 -4.8118 -0.0443996 0
M  V30 20013 C 1830.22 -5.20039 0.347762 0
M  V30 20014 C 1827.55 -5.80044 0.881238 0
M  V30 20015 C 1829.9 -6.19893 1.26157 0
M  V30 20016 C 1828.56 -6.49651 1.53327 0
M  V30 20017 H 1827.83 -0.704717 -0.229029 0
M  V30 20018 H 1830.48 -1.91158 0.114397 0
M  V30 20019 H 1828.78 -3.32115 -2.07862 0
M  V30 20020 H 1830.48 -3.58741 -1.79182 0
M  V30 20021 H 1827.07 -4.25402 -0.522561 0
M  V30 20022 H 1831.26 -4.9605 0.157663 0
M  V30 20023 H 1826.51 -6.01437 1.09924 0
M  V30 20024 H 1830.69 -6.73391 1.77532 0
M  V30 20025 H 1828.31 -7.26073 2.25216 0
M  V30 20026 N 1829.89 0.224867 -1.55988 0
M  V30 20027 C 1831.3 0.574415 -1.48905 0
M  V30 20028 C 1831.5 1.87303 -0.74296 0
M  V30 20029 O 1830.56 2.50929 -0.28127 0
M  V30 20030 C 1831.87 0.656717 -2.93441 0
M  V30 20031 C 1833.42 0.747568 -3.03941 0
M  V30 20032 C 1833.9 0.861243 -4.4983 0
M  V30 20033 N 1835.39 0.92555 -4.53859 0
M  V30 20034 C 1836.12 1.03316 -5.64015 0
M  V30 20035 N 1835.62 1.10492 -6.83932 0
M  V30 20036 N 1837.41 1.06804 -5.5186 0
M  V30 20037 H 1829.56 -0.627339 -2.02924 0
M  V30 20038 H 1831.82 -0.219656 -0.922201 0
M  V30 20039 H 1831.53 -0.227845 -3.50961 0
M  V30 20040 H 1831.4 1.52142 -3.45156 0
M  V30 20041 H 1833.79 1.62257 -2.46489 0
M  V30 20042 H 1833.87 -0.142737 -2.55401 0
M  V30 20043 H 1833.52 -0.00929123 -5.07899 0
M  V30 20044 H 1833.45 1.76692 -4.96072 0
M  V30 20045 H 1835.94 0.880541 -3.67498 0
M  V30 20046 H 1836.25 1.18672 -7.63634 0
M  V30 20047 H 1834.6 1.07411 -6.8665 0
M  V30 20048 H 1837.79 1.0086 -4.57105 0
M  V30 20049 H 1837.96 1.14845 -6.37742 0
M  V30 20050 N 1831.37 1.49742 0.491438 0
M  V30 20051 C 1832.61 1.59947 1.24679 0
M  V30 20052 C 1832.94 0.289598 1.92029 0
M  V30 20053 O 1832.22 -0.707544 1.81174 0
M  V30 20054 C 1832.5 2.7655 2.30634 0
M  V30 20055 C 1832.36 4.1736 1.67723 0
M  V30 20056 C 1833.67 2.88764 3.3212 0
M  V30 20057 H 1830.79 0.582173 0.451934 0
M  V30 20058 H 1833.44 1.8206 0.543517 0
M  V30 20059 H 1831.59 2.57826 2.90616 0
M  V30 20060 H 1833.26 4.47623 1.11495 0
M  V30 20061 H 1831.5 4.22562 0.981 0
M  V30 20062 H 1832.17 4.94838 2.44621 0
M  V30 20063 H 1834.65 3.05838 2.82139 0
M  V30 20064 H 1833.52 3.7201 4.03608 0
M  V30 20065 H 1833.78 1.98517 3.95023 0
M  V30 20066 N 1832.84 -0.743177 1.38977 0
M  V30 20067 C 1833.78 -1.86554 1.31427 0
M  V30 20068 C 1834.76 -1.61493 0.189386 0
M  V30 20069 O 1835.94 -1.84864 0.368464 0
M  V30 20070 C 1833.07 -3.22375 1.03884 0
M  V30 20071 C 1832.11 -3.66308 2.18451 0
M  V30 20072 S 1832.95 -3.76628 3.80672 0
M  V30 20073 C 1834.1 -5.15253 3.55338 0
M  V30 20074 H 1834.33 -1.92674 2.26416 0
M  V30 20075 H 1831.87 -0.907215 1.24936 0
M  V30 20076 H 1833.83 -4.00807 0.88677 0
M  V30 20077 H 1832.49 -3.13921 0.105952 0
M  V30 20078 H 1831.68 -4.64852 1.94752 0
M  V30 20079 H 1831.28 -2.95058 2.29819 0
M  V30 20080 H 1833.57 -6.01333 3.12097 0
M  V30 20081 H 1834.52 -5.43977 4.53315 0
M  V30 20082 H 1834.92 -4.84542 2.89619 0
M  V30 20083 N 1834.32 -1.24018 -0.972487 0
M  V30 20084 C 1835.74 -1.00454 -1.24021 0
M  V30 20085 C 1835.94 0.289568 -1.99409 0
M  V30 20086 O 1834.99 1.00696 -2.31552 0
M  V30 20087 C 1836.31 -2.21651 -2.03202 0
M  V30 20088 C 1837.86 -2.26225 -2.16312 0
M  V30 20089 C 1838.33 -3.47031 -2.98888 0
M  V30 20090 N 1839.82 -3.47318 -3.06471 0
M  V30 20091 C 1840.56 -4.3745 -3.70709 0
M  V30 20092 N 1840.05 -5.37829 -4.36705 0
M  V30 20093 N 1841.85 -4.25173 -3.67674 0
M  V30 20094 H 1834 -2.07187 -0.467668 0
M  V30 20095 H 1836.26 -0.908955 -0.269267 0
M  V30 20096 H 1835.97 -3.15608 -1.55191 0
M  V30 20097 H 1835.84 -2.2338 -3.03943 0
M  V30 20098 H 1838.23 -1.32803 -2.63529 0
M  V30 20099 H 1838.31 -2.28525 -1.14936 0
M  V30 20100 H 1837.95 -4.40765 -2.52366 0
M  V30 20101 H 1837.88 -3.41974 -4.00452 0
M  V30 20102 H 1840.37 -2.74695 -2.59521 0
M  V30 20103 H 1840.69 -6.02846 -4.83525 0
M  V30 20104 H 1839.03 -5.41721 -4.35389 0
M  V30 20105 H 1842.22 -3.45992 -3.15289 0
M  V30 20106 H 1842.39 -4.95617 -4.17454 0
M  V30 20107 N 1835.8 1.17245 -1.05316 0
M  V30 20108 C 1836.73 2.23491 -0.67631 0
M  V30 20109 C 1837.71 1.66937 0.326507 0
M  V30 20110 O 1838.9 1.93127 0.203823 0
M  V30 20111 C 1836.03 3.47262 -0.0515755 0
M  V30 20112 C 1834.98 4.16646 -0.97929 0
M  V30 20113 C 1834.31 5.34254 -0.218369 0
M  V30 20114 C 1835.61 4.68736 -2.30399 0
M  V30 20115 H 1837.3 2.55269 -1.56455 0
M  V30 20116 H 1834.85 1.22699 -0.753714 0
M  V30 20117 H 1836.8 4.20805 0.223865 0
M  V30 20118 H 1835.52 3.14755 0.871614 0
M  V30 20119 H 1834.18 3.45017 -1.23931 0
M  V30 20120 H 1833.83 4.97998 0.707624 0
M  V30 20121 H 1833.53 5.81615 -0.83654 0
M  V30 20122 H 1835.05 6.1058 0.0497574 0
M  V30 20123 H 1836.47 5.3391 -2.08837 0
M  V30 20124 H 1834.87 5.2668 -2.87625 0
M  V30 20125 H 1835.94 3.85477 -2.94169 0
M  V30 20126 N 1837.28 0.834353 1.33702 0
M  V30 20127 C 1838.53 0.424225 1.97188 0
M  V30 20128 C 1838.84 -1.02086 1.66846 0
M  V30 20129 O 1840.05 -1.53545 2.23911 0
M  V30 20130 C 1838.5 0.707628 3.52875 0
M  V30 20131 C 1838.11 2.16709 3.92098 0
M  V30 20132 C 1839.85 0.364228 4.22935 0
M  V30 20133 C 1837.76 2.39478 5.40744 0
M  V30 20134 H 1836.69 0.154897 0.737918 0
M  V30 20135 H 1839.34 1.02231 1.52385 0
M  V30 20136 H 1837.72 0.0392323 3.95981 0
M  V30 20137 H 1838.9 2.87559 3.60064 0
M  V30 20138 H 1837.21 2.47303 3.35008 0
M  V30 20139 H 1839.81 0.512031 5.32243 0
M  V30 20140 H 1840.15 -0.692375 4.10502 0
M  V30 20141 H 1840.69 0.98767 3.85344 0
M  V30 20142 H 1837.43 3.43687 5.58175 0
M  V30 20143 H 1836.95 1.73184 5.74254 0
M  V30 20144 H 1838.62 2.22406 6.07573 0
M  V30 20145 N 1838.76 -1.46125 0.590367 0
M  V30 20146 C 1839.7 -2.30384 -0.138481 0
M  V30 20147 C 1840.67 -1.41078 -0.876715 0
M  V30 20148 O 1841.86 -1.70022 -0.86587 0
M  V30 20149 C 1839 -3.25684 -1.14122 0
M  V30 20150 C 1838.11 -4.30091 -0.405639 0
M  V30 20151 C 1837.25 -5.12513 -1.39657 0
M  V30 20152 C 1836.29 -6.08662 -0.647833 0
M  V30 20153 N 1835.42 -6.83924 -1.5872 0
M  V30 20154 H 1840.26 -2.9218 0.586086 0
M  V30 20155 H 1837.8 -1.43991 0.300835 0
M  V30 20156 H 1839.76 -3.79388 -1.73553 0
M  V30 20157 H 1838.39 -2.6568 -1.8334 0
M  V30 20158 H 1837.44 -3.79184 0.303858 0
M  V30 20159 H 1838.75 -4.98477 0.179348 0
M  V30 20160 H 1837.91 -5.70531 -2.06346 0
M  V30 20161 H 1836.64 -4.44105 -2.01549 0
M  V30 20162 H 1835.65 -5.4979 0.0327878 0
M  V30 20163 H 1836.87 -6.79091 -0.0342018 0
M  V30 20164 H 1834.82 -6.1822 -2.19408 0
M  V30 20165 H 1834.74 -7.48599 -1.05522 0
M  V30 20166 H 1836.01 -7.46496 -2.2442 0
M  V30 20167 N 1840.23 -0.328564 -1.54137 0
M  V30 20168 C 1841.16 0.527734 -2.27458 0
M  V30 20169 C 1842.15 1.11518 -1.28444 0
M  V30 20170 O 1843.33 1.13938 -1.57264 0
M  V30 20171 C 1840.46 1.68628 -3.03615 0
M  V30 20172 C 1839.41 1.22789 -4.10008 0
M  V30 20173 C 1838.74 2.47378 -4.74034 0
M  V30 20174 C 1840.04 0.339152 -5.21198 0
M  V30 20175 H 1841.73 -0.0838808 -2.99282 0
M  V30 20176 H 1839.28 -0.0417829 -1.43939 0
M  V30 20177 H 1841.23 2.29165 -3.5364 0
M  V30 20178 H 1839.96 2.32456 -2.29416 0
M  V30 20179 H 1838.62 0.645427 -3.60874 0
M  V30 20180 H 1838.26 3.09581 -3.96445 0
M  V30 20181 H 1837.96 2.17396 -5.45905 0
M  V30 20182 H 1839.49 3.08668 -5.26836 0
M  V30 20183 H 1840.9 0.850947 -5.6695 0
M  V30 20184 H 1839.3 0.131892 -5.99955 0
M  V30 20185 H 1840.37 -0.628692 -4.80807 0
M  V30 20186 N 1841.71 1.57497 -0.0568439 0
M  V30 20187 C 1842.64 2.14892 0.913427 0
M  V30 20188 C 1843.62 1.07205 1.32065 0
M  V30 20189 O 1844.81 1.35172 1.39435 0
M  V30 20190 C 1841.94 2.69849 2.18629 0
M  V30 20191 C 1840.89 3.8257 1.91896 0
M  V30 20192 C 1840.22 4.24068 3.25685 0
M  V30 20193 C 1841.52 5.07463 1.23606 0
M  V30 20194 H 1843.21 2.96218 0.435347 0
M  V30 20195 H 1840.76 1.4249 0.20796 0
M  V30 20196 H 1842.71 3.08643 2.86911 0
M  V30 20197 H 1841.44 1.85723 2.68653 0
M  V30 20198 H 1840.09 3.44258 1.26024 0
M  V30 20199 H 1839.74 3.36884 3.73521 0
M  V30 20200 H 1839.44 5.00043 3.08594 0
M  V30 20201 H 1840.97 4.65466 3.95189 0
M  V30 20202 H 1842.38 5.43667 1.81931 0
M  V30 20203 H 1840.78 5.88619 1.16823 0
M  V30 20204 H 1841.85 4.84432 0.212918 0
M  V30 20205 N 1843.19 -0.216591 1.56105 0
M  V30 20206 C 1844.42 -0.961164 1.83784 0
M  V30 20207 C 1844.84 -1.76957 0.637792 0
M  V30 20208 O 1844.2 -1.76523 -0.413449 0
M  V30 20209 C 1844.25 -1.85047 3.095 0
M  V30 20210 O 1843.35 -2.94648 2.88542 0
M  V30 20211 H 1842.69 -0.271885 0.605784 0
M  V30 20212 H 1845.22 -0.228404 2.03321 0
M  V30 20213 H 1845.23 -2.25932 3.39733 0
M  V30 20214 H 1843.91 -1.25633 3.96471 0
M  V30 20215 H 1842.48 -2.57673 2.69554 0
M  V30 20216 N 1844.67 -1.5 -0.48349 0
M  V30 20217 C 1846.08 -1.37151 -0.816192 0
M  V30 20218 C 1846.28 -0.418047 -1.97116 0
M  V30 20219 O 1845.34 0.143884 -2.5209 0
M  V30 20220 C 1846.65 -2.78256 -1.13992 0
M  V30 20221 C 1848.2 -2.87082 -1.2471 0
M  V30 20222 C 1848.68 -4.28993 -1.60403 0
M  V30 20223 N 1850.17 -4.31886 -1.67419 0
M  V30 20224 C 1850.9 -5.38673 -1.96516 0
M  V30 20225 N 1850.4 -6.55685 -2.23718 0
M  V30 20226 N 1852.19 -5.26105 -1.97914 0
M  V30 20227 H 1844.34 -2.10575 0.277847 0
M  V30 20228 H 1846.61 -0.945986 0.0617554 0
M  V30 20229 H 1846.31 -3.49807 -0.364448 0
M  V30 20230 H 1846.19 -3.14724 -2.07916 0
M  V30 20231 H 1848.57 -2.15758 -2.01327 0
M  V30 20232 H 1848.65 -2.54174 -0.287959 0
M  V30 20233 H 1848.3 -5.0085 -0.84331 0
M  V30 20234 H 1848.23 -4.59379 -2.57447 0
M  V30 20235 H 1850.72 -3.47506 -1.48487 0
M  V30 20236 H 1851.03 -7.32883 -2.45158 0
M  V30 20237 H 1849.38 -6.58881 -2.21136 0
M  V30 20238 H 1852.57 -4.33692 -1.76151 0
M  V30 20239 H 1852.74 -6.09419 -2.20256 0
M  V30 20240 N 1846.15 0.735796 -1.39369 0
M  V30 20241 C 1847.11 1.83148 -1.37802 0
M  V30 20242 C 1848.11 1.58426 -0.27528 0
M  V30 20243 O 1849.3 1.65841 -0.53314 0
M  V30 20244 C 1846.43 3.20923 -1.14984 0
M  V30 20245 H 1847.62 1.85941 -2.353 0
M  V30 20246 H 1845.18 0.939367 -1.24922 0
M  V30 20247 H 1845.91 3.23791 -0.181648 0
M  V30 20248 H 1845.7 3.40264 -1.94841 0
M  V30 20249 H 1847.19 4.00984 -1.16626 0
M  V30 20250 N 1847.63 1.24532 0.965897 0
M  V30 20251 C 1848.54 1.0564 2.09469 0
M  V30 20252 C 1849.55 -0.00330962 1.74 0
M  V30 20253 O 1850.73 0.195248 2.00451 0
M  V30 20254 C 1847.79 0.665318 3.40256 0
M  V30 20255 C 1846.85 1.80171 3.89663 0
M  V30 20256 C 1846.09 1.42919 5.14208 0
M  V30 20257 O 1846.31 0.319815 5.69503 0
M  V30 20258 O 1845.24 2.25546 5.58044 0
M  V30 20259 H 1849.07 2.00277 2.28304 0
M  V30 20260 H 1846.65 1.03368 1.07868 0
M  V30 20261 H 1848.54 0.458827 4.18895 0
M  V30 20262 H 1847.21 -0.251914 3.22718 0
M  V30 20263 H 1846.12 2.06296 3.12078 0
M  V30 20264 H 1847.45 2.69778 4.11681 0
M  V30 20265 N 1849.1 -1.16685 1.05936 0
M  V30 20266 C 1850.35 -1.86758 0.772386 0
M  V30 20267 C 1850.67 -1.81885 -0.703051 0
M  V30 20268 O 1849.94 -1.24992 -1.50844 0
M  V30 20269 H 1848.52 -0.69143 0.282725 0
M  V30 20270 H 1851.18 -1.41518 1.3401 0
M  V30 20271 H 1850.28 -2.92296 1.09405 0
M  V30 20272 N 1850.58 -0.841432 -1.33258 0
M  V30 20273 C 1851.83 -0.439027 -1.97991 0
M  V30 20274 C 1852.16 0.999767 -1.66488 0
M  V30 20275 O 1851.44 1.69938 -0.94612 0
M  V30 20276 C 1851.72 -0.663137 -3.53941 0
M  V30 20277 C 1851.57 -2.14939 -3.95122 0
M  V30 20278 C 1852.89 -0.11094 -4.3996 0
M  V30 20279 H 1850.01 -0.160987 -0.719203 0
M  V30 20280 H 1852.65 -1.05742 -1.57856 0
M  V30 20281 H 1850.8 -0.136765 -3.88259 0
M  V30 20282 H 1852.47 -2.74082 -3.71048 0
M  V30 20283 H 1850.72 -2.63293 -3.4476 0
M  V30 20284 H 1851.39 -2.25694 -5.03752 0
M  V30 20285 H 1853.86 -0.560898 -4.12302 0
M  V30 20286 H 1852.74 -0.297416 -5.48094 0
M  V30 20287 H 1853 0.985446 -4.30977 0
M  V30 20288 N 1852.06 1.4581 -0.598108 0
M  V30 20289 C 1853.48 1.57452 -0.260993 0
M  V30 20290 C 1853.68 1.59093 1.2366 0
M  V30 20291 O 1852.73 1.51614 2.01915 0
M  V30 20292 C 1854.04 2.86158 -0.923801 0
M  V30 20293 C 1855.59 2.99817 -0.89883 0
M  V30 20294 C 1856.07 4.3128 -1.54147 0
M  V30 20295 N 1857.56 4.38016 -1.50652 0
M  V30 20296 C 1858.29 5.38387 -1.973 0
M  V30 20297 N 1857.79 6.45347 -2.51991 0
M  V30 20298 N 1859.58 5.29684 -1.88124 0
M  V30 20299 H 1851.73 1.42988 -1.57061 0
M  V30 20300 H 1854 0.683038 -0.657391 0
M  V30 20301 H 1853.7 2.90812 -1.97791 0
M  V30 20302 H 1853.58 3.74609 -0.441318 0
M  V30 20303 H 1855.96 2.94735 0.146702 0
M  V30 20304 H 1856.04 2.12801 -1.41949 0
M  V30 20305 H 1855.69 4.3712 -2.58628 0
M  V30 20306 H 1855.62 5.17097 -0.995911 0
M  V30 20307 H 1858.11 3.61326 -1.1069 0
M  V30 20308 H 1858.42 7.18168 -2.85403 0
M  V30 20309 H 1856.77 6.46124 -2.56025 0
M  V30 20310 H 1859.96 4.45029 -1.45144 0
M  V30 20311 H 1860.13 6.0776 -2.24793 0
M  V30 20312 N 1853.54 0.336733 1.53961 0
M  V30 20313 C 1854.77 -0.263446 2.05216 0
M  V30 20314 C 1855.18 -1.44752 1.21212 0
M  V30 20315 O 1854.54 -1.80837 0.245844 0
M  V30 20316 C 1854.59 -0.685127 3.54948 0
M  V30 20317 O 1854.31 0.451854 4.35764 0
M  V30 20318 C 1855.81 -1.34674 4.22348 0
M  V30 20319 H 1853.03 -0.0520687 0.668977 0
M  V30 20320 H 1855.57 0.486744 1.98623 0
M  V30 20321 H 1853.73 -1.38527 3.61786 0
M  V30 20322 H 1854.14 0.117076 5.24369 0
M  V30 20323 H 1855.62 -1.59261 5.28526 0
M  V30 20324 H 1856.09 -2.29818 3.74273 0
M  V30 20325 H 1856.7 -0.688817 4.19685 0
M  V30 20326 N 1855.02 -1.57465 0.0651956 0
M  V30 20327 C 1855.95 -2.15374 -0.902018 0
M  V30 20328 C 1856.93 -1.07904 -1.31494 0
M  V30 20329 O 1858.11 -1.35909 -1.38717 0
M  V30 20330 C 1855.24 -2.71005 -2.17195 0
M  V30 20331 C 1854.2 -3.83583 -1.89864 0
M  V30 20332 C 1853.52 -4.25789 -3.23432 0
M  V30 20333 C 1854.82 -5.08112 -1.20913 0
M  V30 20334 H 1856.52 -2.96445 -0.419631 0
M  V30 20335 H 1854.06 -1.42599 -0.200401 0
M  V30 20336 H 1856.01 -3.1016 -2.8527 0
M  V30 20337 H 1854.74 -1.87146 -2.67664 0
M  V30 20338 H 1853.4 -3.44921 -1.24197 0
M  V30 20339 H 1853.05 -3.38861 -3.71729 0
M  V30 20340 H 1852.75 -5.01673 -3.05938 0
M  V30 20341 H 1854.27 -4.67555 -3.92715 0
M  V30 20342 H 1855.68 -5.44624 -1.79046 0
M  V30 20343 H 1854.08 -5.8923 -1.137 0
M  V30 20344 H 1855.15 -4.84538 -0.187224 0
M  V30 20345 N 1856.49 0.20831 -1.56217 0
M  V30 20346 C 1857.42 1.26115 -1.96513 0
M  V30 20347 C 1858.4 1.48185 -0.835183 0
M  V30 20348 O 1859.59 1.60145 -1.09851 0
M  V30 20349 C 1856.72 2.6082 -2.29326 0
M  V30 20350 C 1855.67 2.53385 -3.44935 0
M  V30 20351 C 1855 3.92241 -3.63388 0
M  V30 20352 C 1856.3 2.07026 -4.79518 0
M  V30 20353 H 1857.99 0.92635 -2.84709 0
M  V30 20354 H 1855.54 0.444169 -1.36979 0
M  V30 20355 H 1857.49 3.34644 -2.56109 0
M  V30 20356 H 1856.22 2.96014 -1.37997 0
M  V30 20357 H 1854.88 1.82018 -3.18222 0
M  V30 20358 H 1854.52 4.24766 -2.69413 0
M  V30 20359 H 1854.22 3.88145 -4.41154 0
M  V30 20360 H 1855.75 4.67707 -3.92533 0
M  V30 20361 H 1857.16 2.70601 -5.05419 0
M  V30 20362 H 1855.56 2.13961 -5.60661 0
M  V30 20363 H 1856.63 1.02298 -4.73986 0
M  V30 20364 N 1857.97 1.50255 0.475528 0
M  V30 20365 C 1859.22 1.6223 1.22691 0
M  V30 20366 C 1859.57 0.316569 1.89778 0
M  V30 20367 O 1858.87 -0.685188 1.78929 0
M  V30 20368 C 1859.06 2.73698 2.29835 0
M  V30 20369 C 1858.89 4.14984 1.73259 0
M  V30 20370 C 1857.66 4.81444 1.53428 0
M  V30 20371 C 1859.86 4.99374 1.23004 0
M  V30 20372 N 1857.84 6.0696 0.920483 0
M  V30 20373 C 1859.21 6.15578 0.739186 0
M  V30 20374 C 1861.26 4.85182 1.11816 0
M  V30 20375 C 1859.97 7.19149 0.147502 0
M  V30 20376 C 1861.99 5.88926 0.540422 0
M  V30 20377 C 1861.36 7.04375 0.0599282 0
M  V30 20378 H 1857.45 0.647828 0.437999 0
M  V30 20379 H 1860.04 1.87357 0.529653 0
M  V30 20380 H 1858.21 2.503 2.96992 0
M  V30 20381 H 1859.94 2.75055 2.96861 0
M  V30 20382 H 1856.7 4.38663 1.78526 0
M  V30 20383 H 1857.12 6.74042 0.632126 0
M  V30 20384 H 1861.76 3.96215 1.47559 0
M  V30 20385 H 1859.48 8.07795 -0.222137 0
M  V30 20386 H 1863.07 5.80008 0.456289 0
M  V30 20387 H 1861.95 7.83278 -0.380127 0
M  V30 20388 N 1859.45 -0.728395 1.39758 0
M  V30 20389 C 1860.68 -1.5176 1.40629 0
M  V30 20390 C 1861.09 -1.888 0.00253909 0
M  V30 20391 O 1860.45 -1.54561 -0.970428 0
M  V30 20392 C 1860.5 -2.80102 2.28528 0
M  V30 20393 O 1860.22 -2.44633 3.63436 0
M  V30 20394 C 1861.72 -3.74087 2.37853 0
M  V30 20395 H 1858.94 -0.468767 0.480103 0
M  V30 20396 H 1861.49 -0.89953 1.83654 0
M  V30 20397 H 1859.64 -3.38225 1.88898 0
M  V30 20398 H 1860.06 -3.27124 4.09988 0
M  V30 20399 H 1861.53 -4.61017 3.03591 0
M  V30 20400 H 1862.01 -4.163 1.39968 0
M  V30 20401 H 1862.61 -3.2188 2.7798 0
M  V30 20402 N 1860.93 -1.25042 -0.959279 0
M  V30 20403 C 1862.17 -1.09514 -1.70332 0
M  V30 20404 C 1862.5 0.364654 -1.91051 0
M  V30 20405 O 1861.76 1.2854 -1.47566 0
M  V30 20406 C 1862.06 -1.78948 -3.09374 0
M  V30 20407 C 1861.72 -3.28873 -3.08469 0
M  V30 20408 C 1860.38 -3.69774 -3.0793 0
M  V30 20409 C 1862.74 -4.24679 -3.02154 0
M  V30 20410 C 1860.06 -5.049 -2.98818 0
M  V30 20411 C 1862.42 -5.59824 -2.94585 0
M  V30 20412 C 1861.08 -6.00059 -2.92378 0
M  V30 20413 H 1860.35 -0.400741 -0.623288 0
M  V30 20414 H 1863 -1.55255 -1.12107 0
M  V30 20415 H 1861.3 -1.25625 -3.71114 0
M  V30 20416 H 1863 -1.64391 -3.65755 0
M  V30 20417 H 1859.59 -2.96327 -3.09659 0
M  V30 20418 H 1863.77 -3.94074 -3.01694 0
M  V30 20419 H 1859.03 -5.3526 -2.95476 0
M  V30 20420 H 1863.2 -6.33758 -2.88659 0
M  V30 20421 H 1860.83 -7.04725 -2.85074 0
M  V30 20422 N 1862.41 1.16121 -1.06553 0
M  V30 20423 C 1863.66 1.86055 -0.778871 0
M  V30 20424 C 1863.97 1.82747 0.697357 0
M  V30 20425 O 1865.17 2.48285 1.09849 0
M  V30 20426 C 1863.63 3.33897 -1.34315 0
M  V30 20427 C 1863.24 3.45673 -2.84981 0
M  V30 20428 C 1864.98 4.09069 -1.13415 0
M  V30 20429 C 1862.89 4.87616 -3.34641 0
M  V30 20430 H 1861.82 0.696963 -0.287678 0
M  V30 20431 H 1864.47 1.31038 -1.28458 0
M  V30 20432 H 1862.85 3.88536 -0.765208 0
M  V30 20433 H 1864.03 3.01181 -3.4875 0
M  V30 20434 H 1862.34 2.83938 -3.04579 0
M  V30 20435 H 1864.94 5.13809 -1.48002 0
M  V30 20436 H 1865.28 4.16237 -0.0726719 0
M  V30 20437 H 1865.81 3.60676 -1.67802 0
M  V30 20438 H 1862.55 4.85629 -4.40278 0
M  V30 20439 H 1862.07 5.32722 -2.75622 0
M  V30 20440 H 1863.75 5.56443 -3.30122 0
M  V30 20441 N 1863.88 0.848487 1.3281 0
M  V30 20442 C 1864.83 0.286636 2.29013 0
M  V30 20443 C 1865.8 -0.602944 1.5477 0
M  V30 20444 O 1866.99 -0.539169 1.83024 0
M  V30 20445 C 1864.13 -0.524193 3.41096 0
M  V30 20446 C 1863.24 0.390486 4.30232 0
M  V30 20447 C 1862.37 -0.432376 5.29437 0
M  V30 20448 C 1861.41 0.48009 6.10214 0
M  V30 20449 N 1860.55 -0.30522 7.01436 0
M  V30 20450 H 1865.39 1.1123 2.76463 0
M  V30 20451 H 1862.93 0.559956 1.36025 0
M  V30 20452 H 1864.89 -1.00987 4.04793 0
M  V30 20453 H 1863.52 -1.31474 2.94813 0
M  V30 20454 H 1862.57 0.994518 3.6717 0
M  V30 20455 H 1863.88 1.09103 4.86722 0
M  V30 20456 H 1863.03 -0.981471 5.98709 0
M  V30 20457 H 1861.77 -1.16631 4.73549 0
M  V30 20458 H 1860.78 1.04112 5.39853 0
M  V30 20459 H 1862 1.21254 6.68187 0
M  V30 20460 H 1859.95 -1.02236 6.47984 0
M  V30 20461 H 1859.87 0.336414 7.55251 0
M  V30 20462 H 1861.13 -0.836242 7.75001 0
M  V30 20463 N 1865.36 -1.4549 0.605832 0
M  V30 20464 C 1866.59 -2.07135 0.104838 0
M  V30 20465 C 1867.01 -1.4478 -1.20085 0
M  V30 20466 O 1866.37 -0.539875 -1.73075 0
M  V30 20467 C 1866.42 -3.60593 -0.0231858 0
M  V30 20468 O 1865.52 -3.98173 -1.07386 0
M  V30 20469 H 1864.86 -0.659945 0.0732691 0
M  V30 20470 H 1867.39 -1.8677 0.835343 0
M  V30 20471 H 1867.4 -4.07396 -0.221964 0
M  V30 20472 H 1866.08 -4.05364 0.930211 0
M  V30 20473 H 1864.66 -3.63044 -0.851689 0
M  V30 20474 N 1866.84 -0.344893 -1.5378 0
M  V30 20475 C 1868.09 0.251208 -2.00936 0
M  V30 20476 C 1868.42 1.50449 -1.23269 0
M  V30 20477 O 1867.67 1.93249 -0.308738 0
M  V30 20478 C 1867.97 0.609495 -3.52165 0
M  V30 20479 C 1867.64 -0.547063 -4.47569 0
M  V30 20480 C 1866.3 -0.864456 -4.73372 0
M  V30 20481 C 1868.65 -1.3229 -5.04132 0
M  V30 20482 C 1865.98 -1.96003 -5.52991 0
M  V30 20483 C 1868.33 -2.40874 -5.84947 0
M  V30 20484 C 1866.99 -2.73171 -6.09043 0
M  V30 20485 H 1866.26 0.0919233 -0.735276 0
M  V30 20486 H 1868.91 -0.473086 -1.85564 0
M  V30 20487 H 1867.22 1.41452 -3.65375 0
M  V30 20488 H 1868.91 1.08262 -3.86109 0
M  V30 20489 H 1865.5 -0.289626 -4.2762 0
M  V30 20490 H 1869.69 -1.09095 -4.84161 0
M  V30 20491 H 1864.94 -2.21449 -5.69886 0
M  V30 20492 H 1869.12 -3.01421 -6.27789 0
M  V30 20493 H 1866.74 -3.5819 -6.70525 0
M  V30 20494 N 1868.32 1.57428 -0.0735454 0
M  V30 20495 C 1869.25 2.09808 0.922679 0
M  V30 20496 C 1870.26 1.0306 1.26026 0
M  V30 20497 O 1871.45 1.30568 1.21714 0
M  V30 20498 C 1868.55 2.54492 2.23801 0
M  V30 20499 C 1867.73 3.84832 2.07901 0
M  V30 20500 C 1866.78 4.15592 3.22754 0
M  V30 20501 O 1865.81 4.85163 2.97667 0
M  V30 20502 N 1867.01 3.69277 4.47901 0
M  V30 20503 H 1869.78 2.95905 0.475456 0
M  V30 20504 H 1867.34 1.61511 0.112135 0
M  V30 20505 H 1869.33 2.7213 2.99545 0
M  V30 20506 H 1867.9 1.73523 2.60016 0
M  V30 20507 H 1867.12 3.76557 1.16614 0
M  V30 20508 H 1868.41 4.70144 1.9453 0
M  V30 20509 H 1867.81 3.13076 4.71168 0
M  V30 20510 H 1866.36 3.92111 5.20665 0
M  V30 20511 N 1869.8 -0.200022 1.56326 0
M  V30 20512 C 1870.76 -1.23155 1.93302 0
M  V30 20513 C 1871.76 -1.38696 0.81364 0
M  V30 20514 O 1872.95 -1.36592 1.08112 0
M  V30 20515 C 1870.08 -2.60177 2.20274 0
M  V30 20516 H 1871.27 -0.915616 2.85581 0
M  V30 20517 H 1868.83 -0.44134 1.4994 0
M  V30 20518 H 1869.56 -2.96833 1.30617 0
M  V30 20519 H 1869.35 -2.50269 3.01841 0
M  V30 20520 H 1870.84 -3.34572 2.49903 0
M  V30 20521 N 1871.27 -1.50505 -0.467553 0
M  V30 20522 C 1872.2 -1.72558 -1.57309 0
M  V30 20523 C 1873.19 -0.574619 -1.601 0
M  V30 20524 O 1874.37 -0.814135 -1.76311 0
M  V30 20525 C 1871.5 -1.82296 -2.9561 0
M  V30 20526 C 1870.45 -2.97513 -3.07685 0
M  V30 20527 C 1869.78 -2.92398 -4.47669 0
M  V30 20528 C 1871.08 -4.37968 -2.84573 0
M  V30 20529 H 1872.77 -2.65122 -1.39107 0
M  V30 20530 H 1870.32 -1.2758 -0.667776 0
M  V30 20531 H 1872.27 -1.96308 -3.72882 0
M  V30 20532 H 1871 -0.863562 -3.14976 0
M  V30 20533 H 1869.66 -2.83157 -2.32847 0
M  V30 20534 H 1869.3 -1.94297 -4.63959 0
M  V30 20535 H 1869 -3.69749 -4.56683 0
M  V30 20536 H 1870.53 -3.08464 -5.26956 0
M  V30 20537 H 1871.94 -4.52831 -3.51593 0
M  V30 20538 H 1870.34 -5.16796 -3.05028 0
M  V30 20539 H 1871.41 -4.50093 -1.80402 0
M  V30 20540 N 1872.75 0.720973 -1.40142 0
M  V30 20541 C 1874.16 1.29988 -1.34015 0
M  V30 20542 C 1874.51 1.96197 -0.0110816 0
M  V30 20543 O 1873.64 1.97207 0.890984 0
M  V30 20544 C 1874.23 2.36373 -2.42721 0
M  V30 20545 C 1872.79 2.89902 -2.40071 0
M  V30 20546 C 1871.94 1.63627 -2.23878 0
M  V30 20547 H 1874.89 0.51748 -1.50026 0
M  V30 20548 H 1874.91 3.17091 -2.10317 0
M  V30 20549 H 1874.42 1.88156 -3.39439 0
M  V30 20550 H 1872.53 3.42362 -1.47033 0
M  V30 20551 H 1872.64 3.42062 -3.35456 0
M  V30 20552 H 1871 1.88491 -1.71298 0
M  V30 20553 H 1871.79 1.17442 -3.22587 0
M  V30 20554 N 1874.23 1.25549 0.952634 0
M  V30 20555 C 1875.46 1.12998 1.7296 0
M  V30 20556 C 1875.87 -0.318779 1.86495 0
M  V30 20557 O 1875.21 -1.23091 1.36361 0
M  V30 20558 C 1875.27 1.71313 3.16057 0
M  V30 20559 C 1874.94 3.20326 3.25945 0
M  V30 20560 C 1875.93 4.17291 3.10103 0
M  V30 20561 C 1873.62 3.60574 3.49702 0
M  V30 20562 C 1875.61 5.52484 3.17868 0
M  V30 20563 C 1873.3 4.95904 3.57103 0
M  V30 20564 C 1874.3 5.91668 3.412 0
M  V30 20565 O 1873.99 7.24535 3.48287 0
M  V30 20566 H 1873.72 0.394815 0.548723 0
M  V30 20567 H 1876.27 1.66441 1.20361 0
M  V30 20568 H 1874.5 1.1232 3.70029 0
M  V30 20569 H 1876.19 1.53832 3.7562 0
M  V30 20570 H 1876.96 3.87537 2.91617 0
M  V30 20571 H 1872.84 2.86529 3.6114 0
M  V30 20572 H 1876.38 6.27211 3.05373 0
M  V30 20573 H 1872.28 5.25324 3.75106 0
M  V30 20574 H 1873.05 7.32657 3.64905 0
M  V30 20575 N 1875.71 -1.15554 1.07168 0
M  V30 20576 C 1876.95 -1.86572 0.794894 0
M  V30 20577 C 1877.29 -1.82007 -0.677276 0
M  V30 20578 O 1876.56 -1.2419 -1.4969 0
M  V30 20579 C 1876.85 -3.35762 1.30137 0
M  V30 20580 C 1876.7 -3.4897 2.83796 0
M  V30 20581 C 1878.02 -4.30453 0.916402 0
M  V30 20582 H 1875.14 -0.677448 0.29023 0
M  V30 20583 H 1877.78 -1.35772 1.32914 0
M  V30 20584 H 1875.93 -3.79156 0.846915 0
M  V30 20585 H 1877.6 -3.14452 3.37517 0
M  V30 20586 H 1875.84 -2.9059 3.22087 0
M  V30 20587 H 1876.51 -4.53782 3.14302 0
M  V30 20588 H 1878.99 -3.95008 1.30797 0
M  V30 20589 H 1877.87 -5.33329 1.29814 0
M  V30 20590 H 1878.13 -4.41742 -0.17785 0
M  V30 20591 N 1877.19 -0.855519 -1.32358 0
M  V30 20592 C 1878.15 -0.305794 -2.27151 0
M  V30 20593 C 1879.15 0.535008 -1.51639 0
M  V30 20594 O 1880.34 0.346394 -1.70721 0
M  V30 20595 C 1877.47 0.567275 -3.36147 0
M  V30 20596 H 1878.67 -1.14245 -2.77287 0
M  V30 20597 H 1876.22 -0.629924 -1.43044 0
M  V30 20598 H 1876.95 1.42571 -2.9128 0
M  V30 20599 H 1876.74 -0.0345714 -3.92085 0
M  V30 20600 H 1878.23 0.944644 -4.06775 0
M  V30 20601 N 1878.67 1.45167 -0.61354 0
M  V30 20602 C 1879.6 2.3333 0.089004 0
M  V30 20603 C 1880.58 1.47181 0.85275 0
M  V30 20604 O 1881.76 1.7594 0.822122 0
M  V30 20605 C 1878.89 3.29982 1.08301 0
M  V30 20606 C 1877.85 4.25813 0.432084 0
M  V30 20607 C 1877.17 5.122 1.53476 0
M  V30 20608 C 1878.47 5.18233 -0.65052 0
M  V30 20609 H 1880.17 2.92322 -0.647165 0
M  V30 20610 H 1877.71 1.40565 -0.312667 0
M  V30 20611 H 1879.66 3.90533 1.5831 0
M  V30 20612 H 1878.39 2.69162 1.84985 0
M  V30 20613 H 1877.05 3.6657 -0.0471927 0
M  V30 20614 H 1876.7 4.47744 2.29203 0
M  V30 20615 H 1876.4 5.77122 1.10469 0
M  V30 20616 H 1877.92 5.7562 2.037 0
M  V30 20617 H 1879.33 5.72821 -0.234262 0
M  V30 20618 H 1877.73 5.91664 -1.00268 0
M  V30 20619 H 1878.8 4.60304 -1.52475 0
M  V30 20620 N 1880.14 0.353044 1.53595 0
M  V30 20621 C 1881.07 -0.491481 2.28269 0
M  V30 20622 C 1882.05 -1.0946 1.30201 0
M  V30 20623 O 1883.24 -1.11421 1.59056 0
M  V30 20624 C 1880.37 -1.63776 3.06259 0
M  V30 20625 C 1879.32 -1.16251 4.1191 0
M  V30 20626 C 1878.65 -2.39805 4.7791 0
M  V30 20627 C 1879.95 -0.256191 5.21671 0
M  V30 20628 H 1881.64 0.131483 2.99111 0
M  V30 20629 H 1879.19 0.0646771 1.43855 0
M  V30 20630 H 1881.14 -2.2351 3.57241 0
M  V30 20631 H 1879.87 -2.28777 2.33085 0
M  V30 20632 H 1878.53 -0.587934 3.61855 0
M  V30 20633 H 1878.17 -3.03234 4.0132 0
M  V30 20634 H 1877.87 -2.08684 5.49295 0
M  V30 20635 H 1879.4 -3.00248 5.3168 0
M  V30 20636 H 1880.81 -0.760642 5.68232 0
M  V30 20637 H 1879.21 -0.0364273 6.00089 0
M  V30 20638 H 1880.28 0.705105 4.79746 0
M  V30 20639 N 1881.62 -1.57387 0.0818932 0
M  V30 20640 C 1882.87 -1.93045 -0.584519 0
M  V30 20641 C 1883.18 -0.96473 -1.70154 0
M  V30 20642 O 1884.39 -1.21451 -2.42821 0
M  V30 20643 C 1882.85 -3.42962 -1.0911 0
M  V30 20644 C 1882.45 -4.48 -0.00454233 0
M  V30 20645 C 1884.2 -3.87604 -1.731 0
M  V30 20646 C 1882.1 -5.89059 -0.525733 0
M  V30 20647 H 1881.03 -0.720543 -0.222112 0
M  V30 20648 H 1883.69 -1.82838 0.155762 0
M  V30 20649 H 1882.07 -3.48277 -1.88466 0
M  V30 20650 H 1883.24 -4.54314 0.770444 0
M  V30 20651 H 1881.56 -4.12887 0.539739 0
M  V30 20652 H 1884.15 -4.90382 -2.13143 0
M  V30 20653 H 1884.5 -3.25524 -2.59499 0
M  V30 20654 H 1885.03 -3.84935 -1.00349 0
M  V30 20655 H 1881.77 -6.54807 0.301333 0
M  V30 20656 H 1881.29 -5.86243 -1.26802 0
M  V30 20657 H 1882.97 -6.39242 -0.998928 0
M  V30 20658 N 1883.1 0.191729 -1.56429 0
M  V30 20659 C 1884.35 0.912948 -1.81089 0
M  V30 20660 C 1884.68 1.82767 -0.656483 0
M  V30 20661 O 1883.95 1.91456 0.342779 0
M  V30 20662 C 1884.24 1.72628 -3.16025 0
M  V30 20663 C 1884.09 0.836045 -4.41962 0
M  V30 20664 C 1885.41 2.69818 -3.47687 0
M  V30 20665 H 1882.53 0.33046 -0.658761 0
M  V30 20666 H 1885.17 0.180148 -1.89144 0
M  V30 20667 H 1883.32 2.35102 -3.09289 0
M  V30 20668 H 1884.99 0.225751 -4.60747 0
M  V30 20669 H 1883.23 0.142944 -4.33564 0
M  V30 20670 H 1883.91 1.44019 -5.32881 0
M  V30 20671 H 1886.38 2.17475 -3.54745 0
M  V30 20672 H 1885.26 3.23806 -4.43216 0
M  V30 20673 H 1885.52 3.49028 -2.71352 0
M  V30 20674 N 1884.58 1.50751 0.459565 0
M  V30 20675 C 1885.51 1.65108 1.57526 0
M  V30 20676 C 1886.49 0.498959 1.54755 0
M  V30 20677 O 1887.67 0.719958 1.74209 0
M  V30 20678 C 1884.8 1.64427 2.96111 0
M  V30 20679 C 1883.85 2.85339 3.16992 0
M  V30 20680 S 1884.68 4.46482 2.95659 0
M  V30 20681 C 1885.83 4.48511 4.36565 0
M  V30 20682 H 1886.07 2.59481 1.45109 0
M  V30 20683 H 1883.6 1.40157 0.647718 0
M  V30 20684 H 1885.56 1.64718 3.76003 0
M  V30 20685 H 1884.22 0.712698 3.05908 0
M  V30 20686 H 1883.41 2.81199 4.18262 0
M  V30 20687 H 1883.01 2.82674 2.4489 0
M  V30 20688 H 1885.31 4.22783 5.29396 0
M  V30 20689 H 1886.25 5.50198 4.45744 0
M  V30 20690 H 1886.66 3.78084 4.19181 0
M  V30 20691 N 1886.06 -0.713531 1.40522 0
M  V30 20692 C 1886.99 -1.8404 1.43707 0
M  V30 20693 C 1887.97 -1.67474 0.297751 0
M  V30 20694 O 1889.15 -1.87474 0.506662 0
M  V30 20695 C 1886.28 -3.22014 1.30094 0
M  V30 20696 C 1885.24 -3.53255 2.4165 0
M  V30 20697 C 1884.56 -4.90395 2.13113 0
M  V30 20698 C 1885.86 -3.54045 3.83991 0
M  V30 20699 H 1887.56 -1.81632 2.38013 0
M  V30 20700 H 1885.1 -0.872437 1.14562 0
M  V30 20701 H 1887.05 -4.00541 1.30938 0
M  V30 20702 H 1885.78 -3.25002 0.322648 0
M  V30 20703 H 1884.44 -2.77069 2.40059 0
M  V30 20704 H 1884.09 -4.89988 1.13669 0
M  V30 20705 H 1883.79 -5.12264 2.87853 0
M  V30 20706 H 1885.31 -5.71254 2.15642 0
M  V30 20707 H 1886.72 -4.22609 3.87395 0
M  V30 20708 H 1885.12 -3.87441 4.58268 0
M  V30 20709 H 1886.19 -2.53387 4.13428 0
M  V30 20710 N 1887.53 -1.26053 -0.945962 0
M  V30 20711 C 1888.78 -1.11315 -1.69161 0
M  V30 20712 C 1889.11 0.34437 -1.91427 0
M  V30 20713 O 1888.36 1.26968 -1.48921 0
M  V30 20714 C 1888.66 -1.8222 -3.07459 0
M  V30 20715 C 1888.33 -3.32126 -3.04964 0
M  V30 20716 C 1886.99 -3.73019 -3.03991 0
M  V30 20717 C 1889.34 -4.2786 -2.97633 0
M  V30 20718 C 1886.67 -5.08041 -2.93446 0
M  V30 20719 C 1889.02 -5.62917 -2.88631 0
M  V30 20720 C 1887.69 -6.03127 -2.85998 0
M  V30 20721 H 1886.96 -0.407329 -0.619002 0
M  V30 20722 H 1889.6 -1.56435 -1.10454 0
M  V30 20723 H 1887.91 -1.29554 -3.69761 0
M  V30 20724 H 1889.61 -1.68261 -3.63991 0
M  V30 20725 H 1886.2 -2.99594 -3.06498 0
M  V30 20726 H 1890.38 -3.97252 -2.97497 0
M  V30 20727 H 1885.64 -5.38364 -2.89782 0
M  V30 20728 H 1889.81 -6.36784 -2.81921 0
M  V30 20729 H 1887.44 -7.07709 -2.77583 0
M  V30 20730 N 1889.01 1.14984 -1.07779 0
M  V30 20731 C 1890.26 1.85873 -0.803587 0
M  V30 20732 C 1890.59 1.82579 0.670472 0
M  V30 20733 O 1889.84 1.247 1.50826 0
M  V30 20734 C 1890.14 3.34355 -1.26259 0
M  V30 20735 C 1889.81 3.57842 -2.74335 0
M  V30 20736 C 1888.47 3.63961 -3.14779 0
M  V30 20737 C 1890.82 3.67191 -3.69893 0
M  V30 20738 C 1888.15 3.76944 -4.49589 0
M  V30 20739 C 1890.5 3.81698 -5.04469 0
M  V30 20740 C 1889.16 3.86064 -5.44528 0
M  V30 20741 H 1888.43 0.680157 -0.294053 0
M  V30 20742 H 1891.08 1.35862 -1.34959 0
M  V30 20743 H 1889.39 3.86603 -0.636057 0
M  V30 20744 H 1891.08 3.87619 -1.02727 0
M  V30 20745 H 1887.67 3.53723 -2.42028 0
M  V30 20746 H 1891.86 3.61759 -3.3977 0
M  V30 20747 H 1887.11 3.78583 -4.80088 0
M  V30 20748 H 1891.29 3.87873 -5.78383 0
M  V30 20749 H 1888.91 3.95876 -6.48989 0
M  V30 20750 N 1890.49 0.862526 1.31902 0
M  V30 20751 C 1891.74 0.465956 1.96244 0
M  V30 20752 C 1892.05 -0.985243 1.68974 0
M  V30 20753 O 1893.26 -1.48761 2.27118 0
M  V30 20754 C 1891.71 0.782319 3.51294 0
M  V30 20755 C 1891.32 2.24978 3.87413 0
M  V30 20756 C 1893.07 0.453857 4.22067 0
M  V30 20757 C 1890.97 2.50894 5.35543 0
M  V30 20758 H 1889.9 0.170515 0.734466 0
M  V30 20759 H 1892.55 1.0544 1.50182 0
M  V30 20760 H 1890.94 0.123217 3.95808 0
M  V30 20761 H 1892.11 2.95132 3.53884 0
M  V30 20762 H 1890.42 2.54354 3.29687 0
M  V30 20763 H 1893.02 0.624812 5.31037 0
M  V30 20764 H 1893.36 -0.605145 4.11878 0
M  V30 20765 H 1893.9 1.06918 3.83162 0
M  V30 20766 H 1890.64 3.55449 5.5076 0
M  V30 20767 H 1890.16 1.85326 5.70451 0
M  V30 20768 H 1891.84 2.35244 6.02718 0
M  V30 20769 N 1891.97 -1.4484 0.62123 0
M  V30 20770 C 1893.2 -2.06201 0.128374 0
M  V30 20771 C 1893.61 -1.46421 -1.19822 0
M  V30 20772 O 1892.95 -0.577812 -1.74376 0
M  V30 20773 C 1893.01 -3.59429 -0.0712601 0
M  V30 20774 C 1892.68 -4.41619 1.17564 0
M  V30 20775 C 1893.67 -4.75732 2.09703 0
M  V30 20776 C 1891.36 -4.82154 1.40828 0
M  V30 20777 C 1893.35 -5.49251 3.23423 0
M  V30 20778 C 1891.04 -5.55424 2.54848 0
M  V30 20779 C 1892.04 -5.88891 3.45972 0
M  V30 20780 O 1891.72 -6.60671 4.58006 0
M  V30 20781 H 1891.46 -0.672121 0.0723128 0
M  V30 20782 H 1894.01 -1.86857 0.852847 0
M  V30 20783 H 1892.24 -3.77225 -0.850773 0
M  V30 20784 H 1893.93 -4.02589 -0.517423 0
M  V30 20785 H 1894.7 -4.44963 1.92959 0
M  V30 20786 H 1890.57 -4.55532 0.707942 0
M  V30 20787 H 1894.12 -5.7529 3.94572 0
M  V30 20788 H 1890.02 -5.85608 2.71538 0
M  V30 20789 H 1890.78 -6.79132 4.56861 0
M  V30 20790 N 1893.45 -0.361184 -1.53405 0
M  V30 20791 C 1894.41 0.475026 -2.24223 0
M  V30 20792 C 1895.41 1.01331 -1.24855 0
M  V30 20793 O 1896.6 0.899756 -1.49164 0
M  V30 20794 C 1893.73 1.6635 -2.97557 0
M  V30 20795 H 1894.92 -0.144595 -2.99551 0
M  V30 20796 H 1892.48 -0.112802 -1.55892 0
M  V30 20797 H 1893.21 2.32133 -2.26461 0
M  V30 20798 H 1893 1.28454 -3.70462 0
M  V30 20799 H 1894.49 2.2562 -3.51405 0
M  V30 20800 N 1894.92 1.57341 -0.0902386 0
M  V30 20801 C 1896.17 1.94464 0.575461 0
M  V30 20802 C 1896.5 0.971819 1.68135 0
M  V30 20803 O 1895.78 0.00405665 1.945 0
M  V30 20804 C 1896.06 3.41739 1.13518 0
M  V30 20805 C 1895.91 4.49787 0.0346821 0
M  V30 20806 C 1897.23 3.90222 2.03506 0
M  V30 20807 H 1894.35 0.707123 0.207716 0
M  V30 20808 H 1896.99 1.89325 -0.15996 0
M  V30 20809 H 1895.14 3.46249 1.76192 0
M  V30 20810 H 1896.82 4.5739 -0.599326 0
M  V30 20811 H 1895.06 4.29166 -0.632342 0
M  V30 20812 H 1895.73 5.50021 0.467044 0
M  V30 20813 H 1898.21 3.87834 1.50744 0
M  V30 20814 H 1897.08 4.93846 2.39598 0
M  V30 20815 H 1897.34 3.29232 2.95057 0
M  V30 20816 N 1896.4 -0.183431 1.56529 0
M  V30 20817 C 1897.65 -0.900237 1.80495 0
M  V30 20818 C 1897.96 -1.83932 0.665454 0
M  V30 20819 O 1899.17 -2.59761 0.789728 0
M  V30 20820 C 1897.63 -1.65125 3.19784 0
M  V30 20821 C 1897.23 -0.756411 4.41568 0
M  V30 20822 C 1898.98 -2.357 3.53052 0
M  V30 20823 C 1896.89 -1.50696 5.71878 0
M  V30 20824 H 1895.82 -0.339898 0.673042 0
M  V30 20825 H 1898.47 -0.153327 1.82858 0
M  V30 20826 H 1896.85 -2.44248 3.11703 0
M  V30 20827 H 1898.02 -0.00301509 4.608 0
M  V30 20828 H 1896.34 -0.160916 4.16089 0
M  V30 20829 H 1898.93 -2.92426 4.4765 0
M  V30 20830 H 1899.28 -3.10454 2.77352 0
M  V30 20831 H 1899.81 -1.63533 3.62632 0
M  V30 20832 H 1896.55 -0.801985 6.50575 0
M  V30 20833 H 1896.07 -2.23399 5.56644 0
M  V30 20834 H 1897.75 -2.05768 6.13407 0
M  V30 20835 N 1897.88 -1.50992 -0.451564 0
M  V30 20836 C 1899.13 -1.62633 -1.19978 0
M  V30 20837 C 1899.45 -0.337971 -1.92049 0
M  V30 20838 O 1898.72 0.645542 -1.84958 0
M  V30 20839 H 1897.3 -0.599345 -0.445864 0
M  V30 20840 H 1899.96 -1.8786 -0.519104 0
M  V30 20841 H 1899.06 -2.44709 -1.93711 0
M  V30 20842 N 1899.36 0.706069 -1.40899 0
M  V30 20843 C 1900.29 1.83004 -1.36327 0
M  V30 20844 C 1901.27 1.60934 -0.232136 0
M  V30 20845 O 1902.45 1.83822 -0.417348 0
M  V30 20846 C 1899.58 3.19508 -1.12395 0
M  V30 20847 C 1898.63 3.60387 -2.28086 0
M  V30 20848 S 1899.46 3.66403 -3.90524 0
M  V30 20849 C 1900.62 5.0565 -3.68874 0
M  V30 20850 H 1900.85 1.86603 -2.31445 0
M  V30 20851 H 1898.38 0.873772 -1.27297 0
M  V30 20852 H 1900.34 3.98315 -0.992725 0
M  V30 20853 H 1899 3.1353 -0.189145 0
M  V30 20854 H 1898.19 4.59526 -2.07008 0
M  V30 20855 H 1897.8 2.88861 -2.37561 0
M  V30 20856 H 1900.09 5.92847 -3.27931 0
M  V30 20857 H 1901.03 5.31767 -4.67578 0
M  V30 20858 H 1901.44 4.76693 -3.02364 0
M  V30 20859 N 1900.84 1.26553 0.939264 0
M  V30 20860 C 1901.77 1.04069 2.04211 0
M  V30 20861 C 1902.78 0.000506291 1.628 0
M  V30 20862 O 1903.97 0.240794 1.76868 0
M  V30 20863 C 1901.07 0.554348 3.34335 0
M  V30 20864 C 1900.24 1.6642 4.04503 0
M  V30 20865 C 1899.3 1.17558 5.129 0
M  V30 20866 O 1898.33 1.87303 5.375 0
M  V30 20867 N 1899.53 0.0250252 5.80495 0
M  V30 20868 H 1902.3 1.99036 2.24065 0
M  V30 20869 H 1899.86 1.17964 1.10888 0
M  V30 20870 H 1901.85 0.211606 4.04146 0
M  V30 20871 H 1900.42 -0.301779 3.1114 0
M  V30 20872 H 1899.64 2.17779 3.28582 0
M  V30 20873 H 1900.93 2.4094 4.48136 0
M  V30 20874 H 1900.32 -0.557378 5.62947 0
M  V30 20875 H 1898.88 -0.258625 6.51287 0
M  V30 20876 N 1902.31 -1.14411 1.08387 0
M  V30 20877 C 1903.25 -2.18516 0.657718 0
M  V30 20878 C 1904.23 -1.59207 -0.330415 0
M  V30 20879 O 1905.41 -1.87038 -0.234325 0
M  V30 20880 C 1902.54 -3.38684 -0.0326254 0
M  V30 20881 C 1901.58 -4.16556 0.915623 0
M  V30 20882 S 1902.42 -4.77588 2.42218 0
M  V30 20883 C 1903.57 -6.01113 1.74395 0
M  V30 20884 H 1903.8 -2.54327 1.53965 0
M  V30 20885 H 1901.34 -1.2554 0.898836 0
M  V30 20886 H 1903.3 -4.08298 -0.424651 0
M  V30 20887 H 1901.96 -3.01196 -0.891048 0
M  V30 20888 H 1901.15 -5.02569 0.379492 0
M  V30 20889 H 1900.75 -3.52544 1.24854 0
M  V30 20890 H 1903.04 -6.69128 1.06177 0
M  V30 20891 H 1903.99 -6.59315 2.58281 0
M  V30 20892 H 1904.39 -5.51217 1.2174 0
M  V30 20893 N 1903.79 -0.869509 -1.31443 0
M  V30 20894 C 1905.04 -0.480214 -1.96724 0
M  V30 20895 C 1905.37 0.967405 -1.68735 0
M  V30 20896 O 1904.62 1.69616 -0.976162 0
M  V30 20897 C 1904.92 -0.683486 -3.50804 0
M  V30 20898 C 1904.59 -2.10382 -3.98811 0
M  V30 20899 C 1903.25 -2.49226 -4.11631 0
M  V30 20900 C 1905.6 -3.03015 -4.24065 0
M  V30 20901 C 1902.93 -3.79944 -4.47057 0
M  V30 20902 C 1905.28 -4.33248 -4.60954 0
M  V30 20903 C 1903.95 -4.72006 -4.71982 0
M  V30 20904 H 1903.22 -0.175723 -0.719863 0
M  V30 20905 H 1905.86 -1.10241 -1.56586 0
M  V30 20906 H 1904.17 0.0218481 -3.91794 0
M  V30 20907 H 1905.86 -0.362105 -3.99362 0
M  V30 20908 H 1902.45 -1.79225 -3.89328 0
M  V30 20909 H 1906.64 -2.74232 -4.13655 0
M  V30 20910 H 1901.89 -4.09736 -4.53792 0
M  V30 20911 H 1906.07 -5.05077 -4.79448 0
M  V30 20912 H 1903.7 -5.73337 -4.99188 0
M  V30 20913 N 1905.27 1.44508 -0.628902 0
M  V30 20914 C 1906.52 2.01667 -0.13224 0
M  V30 20915 C 1906.84 1.49706 1.24953 0
M  V30 20916 O 1906.11 0.699769 1.82976 0
M  V30 20917 H 1904.69 0.745589 -0.0458966 0
M  V30 20918 H 1907.35 1.77037 -0.815102 0
M  V30 20919 H 1906.45 3.11945 -0.0982328 0
M  V30 20920 N 1906.75 0.369315 1.53212 0
M  V30 20921 C 1907.7 -0.475399 2.25851 0
M  V30 20922 C 1908.67 -1.07444 1.26669 0
M  V30 20923 O 1909.85 -1.10623 1.55458 0
M  V30 20924 C 1906.99 -1.60725 3.05388 0
M  V30 20925 C 1906.1 -1.03302 4.19467 0
M  V30 20926 C 1905.24 -2.13427 4.86438 0
M  V30 20927 C 1904.28 -1.53489 5.92543 0
M  V30 20928 N 1903.42 -2.57463 6.5319 0
M  V30 20929 H 1908.26 0.150534 2.9762 0
M  V30 20930 H 1905.79 0.0860577 1.46848 0
M  V30 20931 H 1907.75 -2.274 3.49779 0
M  V30 20932 H 1906.38 -2.20378 2.35867 0
M  V30 20933 H 1905.43 -0.256437 3.79535 0
M  V30 20934 H 1906.74 -0.55483 4.95705 0
M  V30 20935 H 1905.9 -2.87915 5.34032 0
M  V30 20936 H 1904.64 -2.64599 4.09681 0
M  V30 20937 H 1903.64 -0.775176 5.44308 0
M  V30 20938 H 1904.87 -1.03137 6.71222 0
M  V30 20939 H 1902.81 -3.07841 5.79284 0
M  V30 20940 H 1902.73 -2.14342 7.24978 0
M  V30 20941 H 1904 -3.31642 7.05432 0
M  V30 20942 N 1908.23 -1.57291 0.0985816 0
M  V30 20943 C 1909.48 -1.93654 -0.564011 0
M  V30 20944 C 1909.79 -0.982723 -1.69121 0
M  V30 20945 O 1911 -1.2402 -2.41519 0
M  V30 20946 C 1909.45 -3.441 -1.05466 0
M  V30 20947 C 1909.06 -4.47979 0.0429743 0
M  V30 20948 C 1910.8 -3.89418 -1.68979 0
M  V30 20949 C 1908.71 -5.89583 -0.463226 0
M  V30 20950 H 1907.64 -0.722858 -0.214457 0
M  V30 20951 H 1910.29 -1.82662 0.175145 0
M  V30 20952 H 1908.67 -3.50256 -1.84761 0
M  V30 20953 H 1909.85 -4.53471 0.818587 0
M  V30 20954 H 1908.16 -4.12291 0.583501 0
M  V30 20955 H 1910.76 -4.92615 -2.0793 0
M  V30 20956 H 1911.1 -3.28258 -2.56032 0
M  V30 20957 H 1911.64 -3.85978 -0.962602 0
M  V30 20958 H 1908.37 -6.54451 0.370767 0
M  V30 20959 H 1907.89 -5.87555 -1.20577 0
M  V30 20960 H 1909.57 -6.40266 -0.931072 0
M  V30 20961 N 1909.71 0.175127 -1.56624 0
M  V30 20962 C 1910.67 1.20064 -1.95237 0
M  V30 20963 C 1911.67 1.37384 -0.835603 0
M  V30 20964 O 1912.86 1.34855 -1.10272 0
M  V30 20965 C 1909.99 2.5664 -2.24386 0
M  V30 20966 H 1911.18 0.870066 -2.87001 0
M  V30 20967 H 1908.74 0.41743 -1.50623 0
M  V30 20968 H 1909.47 2.94717 -1.35322 0
M  V30 20969 H 1909.26 2.45436 -3.05784 0
M  V30 20970 H 1910.75 3.30554 -2.55194 0
M  V30 20971 N 1911.18 1.5123 0.44355 0
M  V30 20972 C 1912.11 1.75038 1.54544 0
M  V30 20973 C 1913.09 0.600017 1.59166 0
M  V30 20974 O 1914.28 0.842082 1.74993 0
M  V30 20975 C 1911.41 1.86976 2.92673 0
M  V30 20976 C 1910.36 3.0237 3.02913 0
M  V30 20977 C 1909.69 2.99483 4.4296 0
M  V30 20978 C 1910.99 4.4244 2.77569 0
M  V30 20979 H 1912.68 2.67301 1.34872 0
M  V30 20980 H 1910.23 1.28627 0.647395 0
M  V30 20981 H 1912.18 2.02215 3.69712 0
M  V30 20982 H 1910.91 0.913563 3.13563 0
M  V30 20983 H 1909.57 2.86826 2.28312 0
M  V30 20984 H 1909.21 2.01654 4.60809 0
M  V30 20985 H 1908.91 3.76968 4.50743 0
M  V30 20986 H 1910.44 3.16808 5.21982 0
M  V30 20987 H 1911.85 4.58367 3.44344 0
M  V30 20988 H 1910.25 5.21583 2.96768 0
M  V30 20989 H 1911.32 4.52906 1.73218 0
M  V30 20990 N 1912.66 -0.698586 1.41271 0
M  V30 20991 C 1913.91 -1.46077 1.40674 0
M  V30 20992 C 1914.24 -1.94194 0.0146774 0
M  V30 20993 O 1913.52 -1.69325 -0.957036 0
M  V30 20994 C 1913.8 -2.67481 2.41093 0
M  V30 20995 C 1913.65 -2.25149 3.89394 0
M  V30 20996 C 1914.97 -3.69673 2.38809 0
M  V30 20997 H 1912.09 -0.529839 0.512288 0
M  V30 20998 H 1914.73 -0.795918 1.72526 0
M  V30 20999 H 1912.88 -3.24206 2.14062 0
M  V30 21000 H 1914.55 -1.73775 4.27317 0
M  V30 21001 H 1912.8 -1.56965 4.04406 0
M  V30 21002 H 1913.47 -3.12247 4.55199 0
M  V30 21003 H 1915.94 -3.22615 2.6279 0
M  V30 21004 H 1914.82 -4.52232 3.1109 0
M  V30 21005 H 1915.08 -4.1916 1.40562 0
M  V30 21006 N 1914.14 -1.27049 -0.93254 0
M  V30 21007 C 1915.42 -1.03836 -1.65763 0
M  V30 21008 C 1915.8 0.428461 -2.06706 0
M  V30 21009 O 1915.14 1.41067 -1.79756 0
M  V30 21010 C 1915.35 -1.99534 -2.86334 0
M  V30 21011 C 1916.7 -2.28632 -3.57788 0
M  V30 21012 O 1917.73 -1.97469 -2.96453 0
M  V30 21013 O 1916.59 -2.81732 -4.68284 0
M  V30 21014 H 1913.68 -0.395479 -0.72631 0
M  V30 21015 H 1916.23 -1.38294 -0.983504 0
M  V30 21016 H 1915 -2.98479 -2.53033 0
M  V30 21017 H 1914.62 -1.65608 -3.61469 0
M  V30 21018 N 1915.62 1.13835 -1.08993 0
M  V30 21019 C 1916.87 1.84645 -0.82163 0
M  V30 21020 C 1917.19 1.83685 0.65458 0
M  V30 21021 O 1916.46 1.28948 1.47477 0
M  V30 21022 H 1915.04 0.683691 -0.300958 0
M  V30 21023 H 1917.7 1.37915 -1.37715 0
M  V30 21024 H 1916.79 2.89292 -1.17117 0
M  V30 21025 N 1917.1 0.876467 1.3098 0
M  V30 21026 C 1918.32 0.505315 2.00634 0
M  V30 21027 C 1918.74 -0.903951 1.65753 0
M  V30 21028 O 1918.1 -1.59318 0.890164 0
M  V30 21029 C 1918.15 0.660442 3.55416 0
M  V30 21030 O 1917.87 2.01422 3.89051 0
M  V30 21031 C 1919.37 0.291158 4.42343 0
M  V30 21032 H 1916.59 0.196195 0.641676 0
M  V30 21033 H 1919.13 1.17942 1.67062 0
M  V30 21034 H 1917.29 0.0338076 3.87385 0
M  V30 21035 H 1917.7 2.02668 4.83762 0
M  V30 21036 H 1919.18 0.450631 5.50158 0
M  V30 21037 H 1919.65 -0.770188 4.32394 0
M  V30 21038 H 1920.26 0.893762 4.15803 0
M  V30 21039 N 1918.57 -1.44173 0.636557 0
M  V30 21040 C 1919.51 -2.28966 -0.103602 0
M  V30 21041 C 1920.52 -1.41586 -0.80357 0
M  V30 21042 O 1921.71 -1.65686 -0.66411 0
M  V30 21043 C 1918.81 -3.18095 -1.16913 0
M  V30 21044 C 1917.98 -4.33921 -0.550607 0
M  V30 21045 C 1917.04 -5.04044 -1.51081 0
M  V30 21046 O 1916.07 -5.59879 -1.02585 0
M  V30 21047 N 1917.27 -5.05999 -2.84509 0
M  V30 21048 H 1920.03 -2.93129 0.624119 0
M  V30 21049 H 1917.59 -1.54679 0.478112 0
M  V30 21050 H 1919.59 -3.61872 -1.81193 0
M  V30 21051 H 1918.16 -2.55645 -1.79902 0
M  V30 21052 H 1917.38 -3.93268 0.27093 0
M  V30 21053 H 1918.66 -5.08663 -0.118116 0
M  V30 21054 H 1918.06 -4.61978 -3.26486 0
M  V30 21055 H 1916.62 -5.53547 -3.44135 0
M  V30 21056 N 1920.05 -0.377435 -1.53014 0
M  V30 21057 C 1921.3 0.209712 -2.00607 0
M  V30 21058 C 1921.61 1.48891 -1.2685 0
M  V30 21059 O 1922.82 2.15538 -1.65093 0
M  V30 21060 C 1921.28 0.424271 -3.5739 0
M  V30 21061 C 1920.88 -0.840982 -4.40036 0
M  V30 21062 C 1922.63 0.968428 -4.13306 0
M  V30 21063 C 1920.53 -0.595355 -5.88396 0
M  V30 21064 H 1919.46 0.0821436 -0.749512 0
M  V30 21065 H 1922.12 -0.498005 -1.76613 0
M  V30 21066 H 1920.5 1.19354 -3.77585 0
M  V30 21067 H 1921.67 -1.61396 -4.31611 0
M  V30 21068 H 1919.99 -1.30922 -3.95283 0
M  V30 21069 H 1922.58 1.16771 -5.21794 0
M  V30 21070 H 1922.93 1.93405 -3.68647 0
M  V30 21071 H 1923.46 0.259025 -3.96956 0
M  V30 21072 H 1920.2 -1.53164 -6.37355 0
M  V30 21073 H 1919.72 0.138904 -5.99639 0
M  V30 21074 H 1921.4 -0.225366 -6.46607 0
M  V30 21075 N 1921.53 1.57237 -0.106922 0
M  V30 21076 C 1922.48 2.15912 0.865145 0
M  V30 21077 C 1923.47 1.1051 1.2839 0
M  V30 21078 O 1924.68 1.28834 1.25705 0
M  V30 21079 H 1921.05 0.690837 0.297065 0
M  V30 21080 H 1923.02 2.96391 0.345677 0
M  V30 21081 C 1921.77 2.76355 2.11005 0
M  V30 21082 H 1921.1 3.57152 1.79674 0
M  V30 21083 H 1922.54 3.20963 2.77053 0
M  V30 21084 C 1921 1.72834 2.89188 0
M  V30 21085 O 1921.53 1.1744 3.84149 0
M  V30 21086 N 1919.73 1.43053 2.52951 0
M  V30 21087 H 1919.28 1.88289 1.75798 0
M  V30 21088 H 1919.24 0.740287 3.0556 0
M  V30 21089 N 1923.01 -0.166818 1.56715 0
M  V30 21090 C 1924.42 -0.518754 1.50934 0
M  V30 21091 C 1924.62 -1.84416 0.811964 0
M  V30 21092 O 1923.68 -2.49712 0.374207 0
M  V30 21093 C 1924.99 -0.547356 2.95676 0
M  V30 21094 C 1926.54 -0.634247 3.06507 0
M  V30 21095 C 1927.02 -0.693699 4.52716 0
M  V30 21096 N 1928.51 -0.756466 4.56981 0
M  V30 21097 C 1929.24 -0.823116 5.67461 0
M  V30 21098 N 1928.74 -0.850325 6.87562 0
M  V30 21099 N 1930.53 -0.862482 5.55444 0
M  V30 21100 H 1922.68 0.70222 2.00456 0
M  V30 21101 H 1924.95 0.253731 0.913414 0
M  V30 21102 H 1924.65 0.357945 3.49874 0
M  V30 21103 H 1924.53 -1.39227 3.50565 0
M  V30 21104 H 1926.91 -1.52997 2.52341 0
M  V30 21105 H 1926.99 0.23743 2.54696 0
M  V30 21106 H 1926.64 0.197788 5.07515 0
M  V30 21107 H 1926.57 -1.58158 5.02288 0
M  V30 21108 H 1929.06 -0.74354 3.70513 0
M  V30 21109 H 1929.37 -0.902481 7.67512 0
M  V30 21110 H 1927.72 -0.818528 6.90163 0
M  V30 21111 H 1930.91 -0.838257 4.60533 0
M  V30 21112 H 1931.08 -0.910962 6.41565 0
M  V30 21113 N 1924.49 -1.51463 -0.435524 0
M  V30 21114 C 1925.43 -1.73484 -1.54939 0
M  V30 21115 C 1926.43 -0.601197 -1.58373 0
M  V30 21116 O 1927.63 -0.782622 -1.62096 0
M  V30 21117 H 1924.01 -0.54818 -0.514784 0
M  V30 21118 H 1925.98 -2.66851 -1.3354 0
M  V30 21119 C 1924.73 -1.87866 -2.92578 0
M  V30 21120 H 1924.05 -2.74503 -2.90668 0
M  V30 21121 H 1925.49 -2.07285 -3.69877 0
M  V30 21122 C 1923.95 -0.638928 -3.30786 0
M  V30 21123 O 1924.48 0.205561 -4.01174 0
M  V30 21124 N 1922.69 -0.48249 -2.86567 0
M  V30 21125 H 1922.23 -1.17078 -2.29457 0
M  V30 21126 H 1922.19 0.345753 -3.12493 0
M  V30 21127 N 1925.96 0.691085 -1.4164 0
M  V30 21128 C 1926.91 1.82625 -1.44051 0
M  V30 21129 C 1927.91 1.66388 -0.318032 0
M  V30 21130 O 1929.11 1.73194 -0.490276 0
M  V30 21131 H 1925.49 0.601889 -0.450815 0
M  V30 21132 H 1927.46 1.77709 -2.39713 0
M  V30 21133 C 1926.21 3.20676 -1.34395 0
M  V30 21134 H 1925.53 3.3379 -2.20056 0
M  V30 21135 H 1926.97 4.0017 -1.40143 0
M  V30 21136 C 1925.43 3.36852 -0.0568027 0
M  V30 21137 O 1925.96 3.91562 0.896762 0
M  V30 21138 N 1924.17 2.90593 0.0207452 0
M  V30 21139 H 1923.71 2.46257 -0.755995 0
M  V30 21140 H 1923.67 3.01794 0.88136 0
M  V30 21141 N 1927.44 1.27542 0.925789 0
M  V30 21142 C 1928.39 1.10271 2.048 0
M  V30 21143 C 1929.38 0.0252694 1.69381 0
M  V30 21144 O 1930.59 0.183134 1.79066 0
M  V30 21145 H 1926.97 0.339845 0.670828 0
M  V30 21146 H 1928.94 2.0534 2.16513 0
M  V30 21147 C 1927.69 0.768681 3.39097 0
M  V30 21148 H 1927.01 1.58967 3.66837 0
M  V30 21149 H 1928.45 0.687719 4.18386 0
M  V30 21150 C 1926.91 -0.527037 3.32752 0
M  V30 21151 O 1927.44 -1.5609 3.70134 0
M  V30 21152 N 1925.64 -0.523354 2.85848 0
M  V30 21153 H 1925.19 0.318395 2.55625 0
M  V30 21154 H 1925.15 -1.39037 2.81986 0
M  V30 21155 N 1928.92 -1.13255 1.09595 0
M  V30 21156 C 1930.17 -1.84571 0.833056 0
M  V30 21157 C 1930.5 -1.83622 -0.641341 0
M  V30 21158 O 1929.75 -1.27084 -1.48823 0
M  V30 21159 C 1930.05 -3.32304 1.31562 0
M  V30 21160 C 1929.72 -3.53433 2.79993 0
M  V30 21161 C 1928.38 -3.58907 3.2053 0
M  V30 21162 C 1930.73 -3.61259 3.75687 0
M  V30 21163 C 1928.06 -3.69744 4.55529 0
M  V30 21164 C 1930.41 -3.73624 5.10478 0
M  V30 21165 C 1929.07 -3.77352 5.50601 0
M  V30 21166 H 1928.34 -0.675393 0.304837 0
M  V30 21167 H 1930.99 -1.33697 1.37103 0
M  V30 21168 H 1929.3 -3.85542 0.697482 0
M  V30 21169 H 1930.99 -3.85935 1.0888 0
M  V30 21170 H 1927.58 -3.49828 2.47625 0
M  V30 21171 H 1931.77 -3.56308 3.45483 0
M  V30 21172 H 1927.02 -3.70897 4.8605 0
M  V30 21173 H 1931.2 -3.78623 5.84481 0
M  V30 21174 H 1928.82 -3.85501 6.55204 0
M  V30 21175 N 1930.4 -0.883401 -1.30514 0
M  V30 21176 C 1931.33 -0.306278 -2.27144 0
M  V30 21177 C 1932.34 0.538264 -1.53644 0
M  V30 21178 O 1933.53 0.35807 -1.74872 0
M  V30 21179 C 1930.63 0.583276 -3.33843 0
M  V30 21180 C 1929.81 -0.231845 -4.36785 0
M  V30 21181 C 1928.86 0.587955 -5.22905 0
M  V30 21182 O 1927.89 0.0112122 -5.69199 0
M  V30 21183 N 1929.09 1.89737 -5.48617 0
M  V30 21184 H 1931.86 -1.13674 -2.77306 0
M  V30 21185 H 1929.42 -0.746227 -1.43677 0
M  V30 21186 H 1931.41 1.13773 -3.88379 0
M  V30 21187 H 1929.98 1.31441 -2.83623 0
M  V30 21188 H 1929.2 -0.967741 -3.82137 0
M  V30 21189 H 1930.49 -0.790664 -5.02619 0
M  V30 21190 H 1929.89 2.38889 -5.12785 0
M  V30 21191 H 1928.44 2.39931 -6.06033 0
M  V30 21192 N 1931.88 1.43833 -0.644194 0
M  V30 21193 C 1933.1 2.0627 -0.161397 0
M  V30 21194 C 1933.52 1.4823 1.16933 0
M  V30 21195 O 1932.88 0.610133 1.71999 0
M  V30 21196 C 1932.93 3.61459 -0.0545357 0
M  V30 21197 O 1932.65 4.17339 -1.33265 0
M  V30 21198 C 1934.15 4.40955 0.455411 0
M  V30 21199 H 1931.37 0.665503 -0.0857112 0
M  V30 21200 H 1933.91 1.84488 -0.882291 0
M  V30 21201 H 1932.07 3.82457 0.616868 0
M  V30 21202 H 1932.48 5.10916 -1.18597 0
M  V30 21203 H 1933.96 5.49916 0.479159 0
M  V30 21204 H 1934.43 4.13333 1.485 0
M  V30 21205 H 1935.04 4.24905 -0.18319 0
M  V30 21206 N 1933.35 0.385544 1.52811 0
M  V30 21207 C 1934.6 -0.197845 2.01531 0
M  V30 21208 C 1934.93 -1.47128 1.27215 0
M  V30 21209 O 1934.18 -1.92363 0.359866 0
M  V30 21210 C 1934.48 -0.515911 3.53657 0
M  V30 21211 C 1934.15 0.665535 4.45961 0
M  V30 21212 C 1932.81 0.989658 4.70913 0
M  V30 21213 C 1935.16 1.4561 5.00447 0
M  V30 21214 C 1932.49 2.10596 5.476 0
M  V30 21215 C 1934.84 2.56298 5.78355 0
M  V30 21216 C 1933.51 2.89223 6.01587 0
M  V30 21217 H 1932.78 -0.0723965 0.737455 0
M  V30 21218 H 1935.42 0.522118 1.84245 0
M  V30 21219 H 1933.73 -1.31715 3.68996 0
M  V30 21220 H 1935.43 -0.979874 3.88844 0
M  V30 21221 H 1932.02 0.4029 4.26702 0
M  V30 21222 H 1936.2 1.21893 4.81098 0
M  V30 21223 H 1931.46 2.3648 5.63815 0
M  V30 21224 H 1935.63 3.1796 6.19576 0
M  V30 21225 H 1933.26 3.75842 6.60793 0
M  V30 21226 N 1934.83 -1.57178 0.115259 0
M  V30 21227 C 1936.24 -1.82126 -0.410715 0
M  V30 21228 C 1936.59 -1.03219 -1.66854 0
M  V30 21229 O 1935.72 -0.267639 -2.14739 0
M  V30 21230 C 1936.31 -3.30351 -0.751923 0
M  V30 21231 C 1934.87 -3.55993 -1.22255 0
M  V30 21232 C 1934.02 -2.7635 -0.229344 0
M  V30 21233 H 1936.97 -1.55005 0.340441 0
M  V30 21234 H 1936.99 -3.44775 -1.60968 0
M  V30 21235 H 1936.5 -3.87754 0.163726 0
M  V30 21236 H 1934.61 -3.03942 -2.15522 0
M  V30 21237 H 1934.72 -4.64583 -1.17046 0
M  V30 21238 H 1933.08 -2.4444 -0.715621 0
M  V30 21239 H 1933.87 -3.36511 0.679337 0
M  V30 21240 N 1936.31 0.158505 -1.56801 0
M  V30 21241 C 1937.24 1.22086 -1.93978 0
M  V30 21242 C 1938.26 1.39798 -0.834291 0
M  V30 21243 O 1939.45 1.39573 -1.11272 0
M  V30 21244 C 1936.55 2.58757 -2.18857 0
M  V30 21245 C 1935.72 2.62175 -3.50118 0
M  V30 21246 C 1934.78 3.80301 -3.63673 0
M  V30 21247 O 1933.8 3.65706 -4.36174 0
M  V30 21248 N 1935.01 4.97286 -2.99477 0
M  V30 21249 H 1937.77 0.904964 -2.8571 0
M  V30 21250 H 1935.33 0.348168 -1.58112 0
M  V30 21251 H 1937.32 3.3627 -2.25177 0
M  V30 21252 H 1935.89 2.82685 -1.33446 0
M  V30 21253 H 1935.11 1.70662 -3.55342 0
M  V30 21254 H 1936.4 2.61481 -4.36469 0
M  V30 21255 H 1935.8 5.12046 -2.40469 0
M  V30 21256 H 1934.36 5.72616 -3.11375 0
M  V30 21257 N 1937.79 1.51692 0.427485 0
M  V30 21258 C 1938.75 1.73114 1.50214 0
M  V30 21259 C 1939.75 0.601079 1.49143 0
M  V30 21260 O 1940.94 0.86875 1.50991 0
M  V30 21261 C 1938.07 1.79666 2.89712 0
M  V30 21262 H 1939.27 2.69033 1.32518 0
M  V30 21263 H 1936.82 1.4183 0.656804 0
M  V30 21264 H 1937.56 0.855968 3.128 0
M  V30 21265 H 1937.34 2.61803 2.91893 0
M  V30 21266 H 1938.83 1.98045 3.67652 0
M  V30 21267 N 1939.27 -0.683564 1.42004 0
M  V30 21268 C 1940.51 -1.44577 1.42216 0
M  V30 21269 C 1940.85 -1.94168 0.0352735 0
M  V30 21270 O 1940.12 -1.70331 -0.939023 0
M  V30 21271 C 1940.4 -2.64909 2.43916 0
M  V30 21272 C 1940.26 -2.21006 3.9176 0
M  V30 21273 C 1941.58 -3.6712 2.42716 0
M  V30 21274 H 1938.7 -0.524376 0.517879 0
M  V30 21275 H 1941.34 -0.777575 1.7336 0
M  V30 21276 H 1939.49 -3.21918 2.17489 0
M  V30 21277 H 1941.16 -1.69233 4.29136 0
M  V30 21278 H 1939.4 -1.52667 4.06048 0
M  V30 21279 H 1940.07 -3.07401 4.58485 0
M  V30 21280 H 1942.55 -3.1981 2.66197 0
M  V30 21281 H 1941.43 -4.48907 3.15869 0
M  V30 21282 H 1941.69 -4.17645 1.45 0
M  V30 21283 N 1940.75 -1.28031 -0.919012 0
M  V30 21284 C 1941.68 -1.14034 -2.03761 0
M  V30 21285 C 1942.66 -0.039495 -1.70054 0
M  V30 21286 O 1943.84 -0.215546 -1.93 0
M  V30 21287 C 1940.97 -0.795894 -3.38057 0
M  V30 21288 C 1939.93 -1.85093 -3.85907 0
M  V30 21289 C 1939.25 -1.36024 -5.17109 0
M  V30 21290 C 1940.55 -3.25658 -4.08343 0
M  V30 21291 H 1942.25 -2.07609 -2.15729 0
M  V30 21292 H 1939.79 -0.999558 -1.03657 0
M  V30 21293 H 1941.74 -0.684762 -4.15799 0
M  V30 21294 H 1940.47 0.175558 -3.26128 0
M  V30 21295 H 1939.13 -1.95112 -3.10366 0
M  V30 21296 H 1938.78 -0.378004 -5.01578 0
M  V30 21297 H 1938.48 -2.06568 -5.50094 0
M  V30 21298 H 1940 -1.26223 -5.97411 0
M  V30 21299 H 1941.41 -3.1859 -4.76627 0
M  V30 21300 H 1939.81 -3.93989 -4.52651 0
M  V30 21301 H 1940.88 -3.70066 -3.13335 0
M  V30 21302 N 1942.22 1.12672 -1.10194 0
M  V30 21303 C 1943.15 2.20422 -0.770492 0
M  V30 21304 C 1944.13 1.68172 0.25541 0
M  V30 21305 O 1945.32 1.93818 0.121728 0
M  V30 21306 C 1942.45 3.4673 -0.198815 0
M  V30 21307 C 1941.4 4.12118 -1.15512 0
M  V30 21308 C 1940.73 5.32847 -0.444768 0
M  V30 21309 C 1942.03 4.58542 -2.50073 0
M  V30 21310 H 1943.72 2.48404 -1.67141 0
M  V30 21311 H 1941.27 1.19392 -0.805077 0
M  V30 21312 H 1943.22 4.21376 0.0451853 0
M  V30 21313 H 1941.95 3.18168 0.737331 0
M  V30 21314 H 1940.61 3.3945 -1.38453 0
M  V30 21315 H 1940.25 5.00551 0.49577 0
M  V30 21316 H 1939.95 5.77543 -1.08247 0
M  V30 21317 H 1941.48 6.10241 -0.209255 0
M  V30 21318 H 1942.89 5.24572 -2.31294 0
M  V30 21319 H 1941.29 5.14007 -3.09704 0
M  V30 21320 H 1942.36 3.72654 -3.10254 0
M  V30 21321 N 1943.7 0.89031 1.30043 0
M  V30 21322 C 1944.63 0.377386 2.3043 0
M  V30 21323 C 1945.61 -0.542607 1.61213 0
M  V30 21324 O 1946.8 -0.455328 1.88787 0
M  V30 21325 C 1943.93 -0.404264 3.44939 0
M  V30 21326 C 1942.88 0.424448 4.2589 0
M  V30 21327 C 1942.21 -0.48413 5.32504 0
M  V30 21328 C 1943.51 1.6694 4.94902 0
M  V30 21329 H 1945.2 1.21628 2.73582 0
M  V30 21330 H 1942.75 0.586299 1.31524 0
M  V30 21331 H 1944.7 -0.773769 4.14235 0
M  V30 21332 H 1943.42 -1.27685 3.00606 0
M  V30 21333 H 1942.08 0.776162 3.58289 0
M  V30 21334 H 1941.73 -1.35458 4.84417 0
M  V30 21335 H 1941.43 0.0665939 5.87562 0
M  V30 21336 H 1942.96 -0.850034 6.04654 0
M  V30 21337 H 1944.37 1.37017 5.56686 0
M  V30 21338 H 1942.77 2.16073 5.59851 0
M  V30 21339 H 1943.84 2.41077 4.20725 0
M  V30 21340 N 1945.18 -1.43489 0.651812 0
M  V30 21341 C 1946.43 -2.0183 0.164632 0
M  V30 21342 C 1946.75 -1.51408 -1.2209 0
M  V30 21343 O 1946.01 -0.697062 -1.82865 0
M  V30 21344 C 1946.31 -3.57189 0.122885 0
M  V30 21345 C 1945.97 -4.2695 1.44997 0
M  V30 21346 C 1944.64 -4.45724 1.81339 0
M  V30 21347 C 1946.99 -4.66468 2.32501 0
M  V30 21348 C 1944.32 -5.0128 3.04853 0
M  V30 21349 C 1946.67 -5.23393 3.55306 0
M  V30 21350 C 1945.33 -5.40383 3.91845 0
M  V30 21351 H 1944.6 -0.738547 0.0602433 0
M  V30 21352 H 1947.25 -1.71984 0.842241 0
M  V30 21353 H 1945.55 -3.86568 -0.638169 0
M  V30 21354 H 1947.25 -4.00084 -0.270911 0
M  V30 21355 H 1943.84 -4.12682 1.15721 0
M  V30 21356 H 1948.03 -4.51658 2.05715 0
M  V30 21357 H 1943.28 -5.1262 3.33213 0
M  V30 21358 H 1947.46 -5.52961 4.23329 0
M  V30 21359 H 1945.08 -5.83197 4.87632 0
M  V30 21360 N 1946.66 -0.393643 -1.52605 0
M  V30 21361 C 1948.07 -0.0437985 -1.5954 0
M  V30 21362 C 1948.27 1.44203 -1.4074 0
M  V30 21363 O 1947.33 2.20707 -1.22657 0
M  V30 21364 C 1948.64 -0.524864 -2.96084 0
M  V30 21365 C 1950.19 -0.481497 -3.09274 0
M  V30 21366 C 1950.67 -0.938821 -4.48275 0
M  V30 21367 N 1952.16 -0.895009 -4.54471 0
M  V30 21368 C 1952.89 -1.22023 -5.60266 0
M  V30 21369 N 1952.39 -1.61614 -6.73686 0
M  V30 21370 N 1954.18 -1.1412 -5.50393 0
M  V30 21371 H 1946.33 -1.36091 -1.63074 0
M  V30 21372 H 1948.59 -0.558085 -0.766319 0
M  V30 21373 H 1948.3 -1.56277 -3.15072 0
M  V30 21374 H 1948.17 0.0737526 -3.77128 0
M  V30 21375 H 1950.56 0.547333 -2.8998 0
M  V30 21376 H 1950.64 -1.11597 -2.30173 0
M  V30 21377 H 1950.29 -1.9659 -4.6831 0
M  V30 21378 H 1950.22 -0.281313 -5.25848 0
M  V30 21379 H 1952.71 -0.603728 -3.73046 0
M  V30 21380 H 1953.02 -1.84782 -7.50384 0
M  V30 21381 H 1951.37 -1.65504 -6.75006 0
M  V30 21382 H 1954.56 -0.83088 -4.60667 0
M  V30 21383 H 1954.73 -1.39797 -6.32741 0
M  V30 21384 N 1948.14 1.57115 -0.123593 0
M  V30 21385 C 1949.38 1.97238 0.536324 0
M  V30 21386 C 1949.74 1.00568 1.63554 0
M  V30 21387 O 1950.94 1.29647 2.35468 0
M  V30 21388 C 1949.21 3.41596 1.05106 0
M  V30 21389 S 1950.77 4.03734 1.71886 0
M  V30 21390 H 1947.59 0.689335 0.17418 0
M  V30 21391 H 1950.19 1.94371 -0.209763 0
M  V30 21392 H 1948.89 4.09698 0.239937 0
M  V30 21393 H 1948.43 3.48123 1.83231 0
M  V30 21394 H 1950.44 3.94867 3.0049 0
M  V30 21395 N 1949.61 -0.150187 1.56883 0
M  V30 21396 C 1950.58 -1.16943 1.97122 0
M  V30 21397 C 1951.58 -1.36037 0.857354 0
M  V30 21398 O 1952.77 -1.33083 1.12403 0
M  V30 21399 C 1949.9 -2.53037 2.2844 0
M  V30 21400 H 1951.09 -0.824297 2.88349 0
M  V30 21401 H 1948.64 -0.393414 1.51268 0
M  V30 21402 H 1949.38 -2.92527 1.39994 0
M  V30 21403 H 1949.16 -2.4054 3.0965 0
M  V30 21404 H 1950.65 -3.26452 2.6042 0
M  V30 21405 N 1951.09 -1.51916 -0.419434 0
M  V30 21406 C 1952.32 -1.69302 -1.1893 0
M  V30 21407 C 1952.74 -0.398024 -1.84557 0
M  V30 21408 O 1952.09 0.625083 -1.71461 0
M  V30 21409 C 1952.14 -2.82139 -2.26009 0
M  V30 21410 O 1951.86 -4.06623 -1.63064 0
M  V30 21411 C 1953.37 -3.10947 -3.15954 0
M  V30 21412 H 1950.59 -0.567657 -0.357781 0
M  V30 21413 H 1953.13 -1.98424 -0.494807 0
M  V30 21414 H 1951.28 -2.55565 -2.91144 0
M  V30 21415 H 1951.7 -4.69423 -2.33971 0
M  V30 21416 H 1953.17 -3.93438 -3.87183 0
M  V30 21417 H 1953.65 -2.24078 -3.77738 0
M  V30 21418 H 1954.26 -3.39246 -2.56499 0
M  V30 21419 N 1952.57 0.676023 -1.42365 0
M  V30 21420 C 1953.82 1.43324 -1.42487 0
M  V30 21421 C 1954.14 1.94955 -0.0418589 0
M  V30 21422 O 1953.41 1.72984 0.919418 0
M  V30 21423 H 1951.99 0.531857 -0.524535 0
M  V30 21424 H 1954.65 0.798867 -1.77775 0
M  V30 21425 H 1953.75 2.28686 -2.12389 0
M  V30 21426 N 1954.05 1.28517 0.912209 0
M  V30 21427 C 1954.96 1.14429 2.048 0
M  V30 21428 C 1955.97 0.0704926 1.73857 0
M  V30 21429 O 1957.15 0.280091 1.99443 0
M  V30 21430 C 1954.22 0.809034 3.37128 0
M  V30 21431 C 1953.28 1.96535 3.8167 0
M  V30 21432 C 1952.51 1.646 5.07684 0
M  V30 21433 O 1952.73 0.561072 5.67634 0
M  V30 21434 O 1951.67 2.49011 5.47975 0
M  V30 21435 H 1955.49 2.0978 2.19604 0
M  V30 21436 H 1953.08 1.0785 1.03387 0
M  V30 21437 H 1954.96 0.636082 4.16572 0
M  V30 21438 H 1953.63 -0.114812 3.23496 0
M  V30 21439 H 1952.54 2.19347 3.03047 0
M  V30 21440 H 1953.87 2.86996 3.99868 0
M  V30 21441 N 1955.53 -1.12086 1.1079 0
M  V30 21442 C 1956.49 -2.16111 0.763446 0
M  V30 21443 C 1957.49 -1.59371 -0.213903 0
M  V30 21444 O 1958.68 -1.74197 0.00972099 0
M  V30 21445 C 1955.81 -3.40646 0.131488 0
M  V30 21446 H 1957 -2.48096 1.68489 0
M  V30 21447 H 1954.56 -1.27156 0.908896 0
M  V30 21448 H 1955.29 -3.14265 -0.800507 0
M  V30 21449 H 1955.08 -3.83108 0.834928 0
M  V30 21450 H 1956.57 -4.17495 -0.0936165 0
M  V30 21451 N 1957 -0.897194 -1.29569 0
M  V30 21452 C 1958.25 -0.53201 -1.96319 0
M  V30 21453 C 1958.61 0.911189 -1.69455 0
M  V30 21454 O 1957.9 1.637 -0.995636 0
M  V30 21455 C 1958.09 -0.757743 -3.49275 0
M  V30 21456 C 1957.92 -2.22133 -3.91008 0
M  V30 21457 C 1956.69 -2.86829 -4.16002 0
M  V30 21458 C 1958.89 -3.1963 -4.02916 0
M  V30 21459 N 1956.87 -4.23657 -4.44284 0
M  V30 21460 C 1958.24 -4.41568 -4.35221 0
M  V30 21461 C 1960.3 -3.15253 -3.85383 0
M  V30 21462 C 1959 -5.59688 -4.51821 0
M  V30 21463 C 1961.03 -4.32656 -4.0319 0
M  V30 21464 C 1960.39 -5.53364 -4.35853 0
M  V30 21465 H 1956.49 -0.244236 -0.742881 0
M  V30 21466 H 1959.07 -1.15748 -1.56558 0
M  V30 21467 H 1957.24 -0.16167 -3.88063 0
M  V30 21468 H 1958.97 -0.358243 -4.03111 0
M  V30 21469 H 1955.73 -2.37635 -4.09666 0
M  V30 21470 H 1956.15 -4.94356 -4.62538 0
M  V30 21471 H 1960.8 -2.2302 -3.59196 0
M  V30 21472 H 1958.51 -6.52415 -4.76845 0
M  V30 21473 H 1962.1 -4.30754 -3.91079 0
M  V30 21474 H 1960.98 -6.42696 -4.49345 0
M  V30 21475 N 1958.48 1.43142 -0.659413 0
M  V30 21476 C 1959.41 2.29102 0.0671619 0
M  V30 21477 C 1960.43 1.42846 0.780943 0
M  V30 21478 O 1961.62 1.66722 0.637666 0
M  V30 21479 C 1958.72 3.19915 1.11838 0
M  V30 21480 C 1957.89 4.34742 0.481505 0
M  V30 21481 C 1956.95 5.06384 1.43043 0
M  V30 21482 O 1955.97 5.61441 0.936648 0
M  V30 21483 N 1957.18 5.10461 2.76423 0
M  V30 21484 H 1959.94 2.92099 -0.670674 0
M  V30 21485 H 1957.5 1.53899 -0.50266 0
M  V30 21486 H 1959.49 3.64708 1.75413 0
M  V30 21487 H 1958.06 2.58474 1.75812 0
M  V30 21488 H 1957.28 3.92787 -0.333461 0
M  V30 21489 H 1958.57 5.08786 0.0371775 0
M  V30 21490 H 1957.97 4.67114 3.19095 0
M  V30 21491 H 1956.53 5.58952 3.35285 0
M  V30 21492 N 1959.96 0.40173 1.52394 0
M  V30 21493 C 1960.87 -0.434422 2.30543 0
M  V30 21494 C 1961.89 -1.06028 1.37964 0
M  V30 21495 O 1963.06 -1.0634 1.71037 0
M  V30 21496 C 1960.13 -1.53995 3.10623 0
M  V30 21497 C 1959.19 -0.93791 4.18929 0
M  V30 21498 C 1958.42 -1.99075 4.95182 0
M  V30 21499 O 1958.64 -3.20777 4.71655 0
M  V30 21500 O 1957.58 -1.60111 5.80214 0
M  V30 21501 H 1961.4 0.202567 3.03024 0
M  V30 21502 H 1958.99 0.165122 1.48485 0
M  V30 21503 H 1960.87 -2.18191 3.60514 0
M  V30 21504 H 1959.55 -2.16167 2.40943 0
M  V30 21505 H 1958.45 -0.25886 3.73203 0
M  V30 21506 H 1959.79 -0.360217 4.9088 0
M  V30 21507 N 1961.44 -1.57047 0.131923 0
M  V30 21508 C 1962.69 -1.94807 -0.522807 0
M  V30 21509 C 1963 -1.01837 -1.66998 0
M  V30 21510 O 1964.21 -1.29115 -2.38834 0
M  V30 21511 C 1962.66 -3.4626 -0.981434 0
M  V30 21512 C 1962.27 -4.47787 0.137988 0
M  V30 21513 C 1964.01 -3.92915 -1.60681 0
M  V30 21514 C 1961.92 -5.90433 -0.338063 0
M  V30 21515 H 1960.85 -0.727245 -0.199076 0
M  V30 21516 H 1963.5 -1.8225 0.213851 0
M  V30 21517 H 1961.88 -3.54096 -1.7729 0
M  V30 21518 H 1963.06 -4.51632 0.914591 0
M  V30 21519 H 1961.37 -4.10961 0.670823 0
M  V30 21520 H 1963.97 -4.96914 -1.97434 0
M  V30 21521 H 1964.31 -3.33615 -2.49011 0
M  V30 21522 H 1964.85 -3.87933 -0.880514 0
M  V30 21523 H 1961.59 -6.53517 0.509502 0
M  V30 21524 H 1961.11 -5.89981 -1.08087 0
M  V30 21525 H 1962.78 -6.42096 -0.795053 0
M  V30 21526 N 1962.92 0.141865 -1.5696 0
M  V30 21527 C 1963.85 1.17667 -2.01685 0
M  V30 21528 C 1964.83 1.44509 -0.897282 0
M  V30 21529 O 1966.01 1.55342 -1.16544 0
M  V30 21530 C 1963.14 2.50859 -2.40182 0
M  V30 21531 C 1962.1 2.38527 -3.55371 0
M  V30 21532 C 1961.42 3.76476 -3.79697 0
M  V30 21533 C 1962.72 1.86502 -4.87867 0
M  V30 21534 H 1964.42 0.804761 -2.88382 0
M  V30 21535 H 1961.96 0.385672 -1.38739 0
M  V30 21536 H 1963.92 3.2348 -2.70071 0
M  V30 21537 H 1962.64 2.89895 -1.50428 0
M  V30 21538 H 1961.3 1.68357 -3.25656 0
M  V30 21539 H 1960.95 4.12957 -2.87186 0
M  V30 21540 H 1960.65 3.69085 -4.5722 0
M  V30 21541 H 1962.17 4.50638 -4.12017 0
M  V30 21542 H 1963.58 2.48921 -5.16441 0
M  V30 21543 H 1961.98 1.89989 -5.69231 0
M  V30 21544 H 1963.05 0.821025 -4.77899 0
M  V30 21545 N 1964.39 1.52136 0.411372 0
M  V30 21546 C 1965.32 1.78277 1.50796 0
M  V30 21547 C 1966.31 0.633643 1.57857 0
M  V30 21548 O 1967.49 0.879011 1.73168 0
M  V30 21549 C 1964.62 1.93142 2.88641 0
M  V30 21550 C 1963.57 3.08727 2.96431 0
M  V30 21551 C 1962.9 3.08812 4.36508 0
M  V30 21552 C 1964.2 4.48228 2.68122 0
M  V30 21553 H 1965.89 2.70102 1.29171 0
M  V30 21554 H 1963.44 1.29971 0.619965 0
M  V30 21555 H 1965.39 2.10012 3.65339 0
M  V30 21556 H 1964.12 0.979869 3.11554 0
M  V30 21557 H 1962.78 2.91604 2.22177 0
M  V30 21558 H 1962.42 2.11383 4.56428 0
M  V30 21559 H 1962.12 3.86444 4.42645 0
M  V30 21560 H 1963.65 3.27809 5.15144 0
M  V30 21561 H 1965.06 4.65568 3.34544 0
M  V30 21562 H 1963.46 5.27761 2.85638 0
M  V30 21563 H 1964.53 4.56478 1.63572 0
M  V30 21564 N 1965.87 -0.668464 1.42721 0
M  V30 21565 C 1966.84 -1.76365 1.46384 0
M  V30 21566 C 1967.84 -1.56932 0.350554 0
M  V30 21567 O 1969.03 -1.63109 0.611658 0
M  V30 21568 C 1966.16 -3.15071 1.30164 0
M  V30 21569 H 1967.35 -1.74503 2.43903 0
M  V30 21570 H 1964.9 -0.878695 1.29262 0
M  V30 21571 H 1965.64 -3.22555 0.335926 0
M  V30 21572 H 1965.42 -3.3058 2.10853 0
M  V30 21573 H 1966.91 -3.94963 1.35625 0
M  V30 21574 N 1967.35 -1.28999 -0.905381 0
M  V30 21575 C 1968.59 -1.17901 -1.66969 0
M  V30 21576 C 1968.96 0.26635 -1.90144 0
M  V30 21577 O 1970.16 0.500188 -2.64105 0
M  V30 21578 C 1968.43 -1.9641 -2.98593 0
M  V30 21579 S 1969.99 -2.01783 -3.89653 0
M  V30 21580 H 1966.8 -0.420505 -0.573321 0
M  V30 21581 H 1969.41 -1.6321 -1.07624 0
M  V30 21582 H 1968.11 -3.00573 -2.79435 0
M  V30 21583 H 1967.64 -1.51684 -3.62981 0
M  V30 21584 H 1969.66 -1.13039 -4.83153 0
M  V30 21585 N 1968.83 1.11497 -1.11383 0
M  V30 21586 C 1970.05 1.87567 -0.885056 0
M  V30 21587 C 1970.48 1.79581 0.559675 0
M  V30 21588 O 1969.84 1.15779 1.39517 0
M  V30 21589 C 1969.89 3.34354 -1.35053 0
M  V30 21590 O 1968.99 4.09085 -0.521865 0
M  V30 21591 H 1968.33 0.582433 -0.318853 0
M  V30 21592 H 1970.86 1.4094 -1.48314 0
M  V30 21593 H 1970.87 3.85201 -1.34478 0
M  V30 21594 H 1969.55 3.39484 -2.40257 0
M  V30 21595 H 1968.12 3.68144 -0.593669 0
M  V30 21596 N 1970.31 0.904053 1.29092 0
M  V30 21597 C 1971.54 0.546964 1.99228 0
M  V30 21598 C 1971.95 -0.873787 1.67814 0
M  V30 21599 O 1971.29 -1.58892 0.921898 0
M  V30 21600 C 1971.35 0.664609 3.53303 0
M  V30 21601 C 1971.01 2.05313 4.08284 0
M  V30 21602 C 1972.01 3.02478 4.22851 0
M  V30 21603 C 1969.7 2.36369 4.4321 0
M  V30 21604 C 1971.69 4.28821 4.71584 0
M  V30 21605 C 1969.38 3.62953 4.91638 0
M  V30 21606 C 1970.38 4.58993 5.05781 0
M  V30 21607 O 1970.06 5.83329 5.53157 0
M  V30 21608 H 1969.8 0.208111 0.643168 0
M  V30 21609 H 1972.35 1.21663 1.65491 0
M  V30 21610 H 1970.58 -0.0621014 3.8665 0
M  V30 21611 H 1972.27 0.316038 4.04668 0
M  V30 21612 H 1973.03 2.79801 3.96152 0
M  V30 21613 H 1968.91 1.62373 4.31458 0
M  V30 21614 H 1972.46 5.03789 4.82538 0
M  V30 21615 H 1968.35 3.85459 5.17776 0
M  V30 21616 H 1969.12 5.8598 5.71463 0
M  V30 21617 N 1971.79 -1.4279 0.666995 0
M  V30 21618 C 1973.03 -2.01245 0.185662 0
M  V30 21619 C 1973.35 -1.52966 -1.2094 0
M  V30 21620 O 1972.62 -0.748036 -1.81056 0
M  V30 21621 H 1971.2 -0.74411 0.0656484 0
M  V30 21622 H 1973.87 -1.74814 0.861754 0
M  V30 21623 H 1972.96 -3.11575 0.180905 0
M  V30 21624 N 1973.26 -0.409806 -1.52179 0
M  V30 21625 C 1974.21 0.415351 -2.27032 0
M  V30 21626 C 1975.18 1.04048 -1.29473 0
M  V30 21627 O 1976.37 1.06462 -1.58336 0
M  V30 21628 C 1973.51 1.52571 -3.09542 0
M  V30 21629 C 1972.62 0.921439 -4.22059 0
M  V30 21630 C 1971.75 2.00455 -4.91926 0
M  V30 21631 C 1970.79 1.37725 -5.96404 0
M  V30 21632 N 1969.93 2.40054 -6.59787 0
M  V30 21633 H 1974.77 -0.22939 -2.97116 0
M  V30 21634 H 1972.31 -0.124962 -1.46568 0
M  V30 21635 H 1974.26 2.18046 -3.55685 0
M  V30 21636 H 1972.89 2.14047 -2.41627 0
M  V30 21637 H 1971.95 0.15572 -3.80081 0
M  V30 21638 H 1973.26 0.423208 -4.97001 0
M  V30 21639 H 1972.41 2.73655 -5.41477 0
M  V30 21640 H 1971.15 2.53644 -4.16552 0
M  V30 21641 H 1970.16 0.63059 -5.46172 0
M  V30 21642 H 1971.38 0.853049 -6.73721 0
M  V30 21643 H 1969.33 2.92374 -5.87242 0
M  V30 21644 H 1969.24 1.95045 -7.30406 0
M  V30 21645 H 1970.51 3.12822 -7.13977 0
M  V30 21646 N 1974.74 1.56975 -0.14025 0
M  V30 21647 C 1975.67 2.19432 0.798233 0
M  V30 21648 C 1976.65 1.14055 1.26196 0
M  V30 21649 O 1977.84 1.42373 1.32074 0
M  V30 21650 C 1974.97 2.81059 2.04018 0
M  V30 21651 C 1973.92 3.92204 1.71347 0
M  V30 21652 C 1973.25 4.40735 3.02748 0
M  V30 21653 C 1974.55 5.13302 0.965327 0
M  V30 21654 H 1976.24 2.98109 0.277716 0
M  V30 21655 H 1973.79 1.43392 0.132137 0
M  V30 21656 H 1975.74 3.23417 2.70147 0
M  V30 21657 H 1974.46 1.99703 2.5843 0
M  V30 21658 H 1973.12 3.50454 1.07599 0
M  V30 21659 H 1972.77 3.5621 3.55138 0
M  V30 21660 H 1972.47 5.15698 2.81654 0
M  V30 21661 H 1974 4.85759 3.6996 0
M  V30 21662 H 1975.41 5.52547 1.52857 0
M  V30 21663 H 1973.81 5.93984 0.854574 0
M  V30 21664 H 1974.88 4.8488 -0.0441688 0
M  V30 21665 N 1976.22 -0.133539 1.57033 0
M  V30 21666 C 1977.46 -0.849918 1.85892 0
M  V30 21667 C 1977.82 -1.77731 0.72634 0
M  V30 21668 O 1979.02 -2.53416 0.896316 0
M  V30 21669 C 1977.3 -1.59254 3.19958 0
M  V30 21670 S 1978.85 -2.3525 3.70409 0
M  V30 21671 H 1975.67 -0.283955 0.651836 0
M  V30 21672 H 1978.27 -0.1091 1.95195 0
M  V30 21673 H 1976.98 -0.902961 4.00343 0
M  V30 21674 H 1976.51 -2.37402 3.13694 0
M  V30 21675 H 1978.52 -3.60701 3.40748 0
M  V30 21676 N 1977.7 -1.52352 -0.403298 0
M  V30 21677 C 1978.97 -1.57265 -1.16305 0
M  V30 21678 C 1979.35 -0.357181 -2.08056 0
M  V30 21679 O 1978.7 0.655551 -2.18894 0
M  V30 21680 C 1978.91 -2.90429 -1.93525 0
M  V30 21681 C 1980.26 -3.43643 -2.49388 0
M  V30 21682 O 1981.28 -2.92208 -2.03699 0
M  V30 21683 O 1980.14 -4.33474 -3.32809 0
M  V30 21684 H 1977.24 -0.633707 -0.531361 0
M  V30 21685 H 1979.78 -1.64682 -0.409607 0
M  V30 21686 H 1978.56 -3.70341 -1.26346 0
M  V30 21687 H 1978.18 -2.86331 -2.75862 0
M  V30 21688 N 1979.18 0.660885 -1.43074 0
M  V30 21689 C 1980.59 1.24187 -1.39407 0
M  V30 21690 C 1980.94 1.95973 -0.0942854 0
M  V30 21691 O 1980.06 2.00808 0.80654 0
M  V30 21692 C 1980.66 2.25865 -2.52528 0
M  V30 21693 C 1979.22 2.79459 -2.5215 0
M  V30 21694 C 1978.36 1.53984 -2.30617 0
M  V30 21695 H 1981.31 0.453383 -1.52086 0
M  V30 21696 H 1981.34 3.07886 -2.23577 0
M  V30 21697 H 1980.85 1.73589 -3.47114 0
M  V30 21698 H 1978.95 3.35818 -1.61422 0
M  V30 21699 H 1979.06 3.27526 -3.49662 0
M  V30 21700 H 1977.43 1.81056 -1.79139 0
M  V30 21701 H 1978.21 1.03654 -3.27278 0
M  V30 21702 N 1980.65 1.29477 0.898527 0
M  V30 21703 C 1981.56 1.16595 2.03575 0
M  V30 21704 C 1982.58 0.0889285 1.73773 0
M  V30 21705 O 1983.76 0.301228 1.99135 0
M  V30 21706 C 1980.82 0.844745 3.36251 0
M  V30 21707 C 1979.88 2.00573 3.79564 0
M  V30 21708 C 1979.12 1.69975 5.05909 0
M  V30 21709 O 1979.34 0.621246 5.67007 0
M  V30 21710 O 1978.27 2.54809 5.45303 0
M  V30 21711 H 1982.1 2.12098 2.17367 0
M  V30 21712 H 1979.68 1.0894 1.02237 0
M  V30 21713 H 1981.57 0.680229 4.15874 0
M  V30 21714 H 1980.24 -0.080494 3.236 0
M  V30 21715 H 1979.15 2.22549 3.00704 0
M  V30 21716 H 1980.48 2.91221 3.96801 0
M  V30 21717 N 1982.13 -1.10905 1.11972 0
M  V30 21718 C 1983.36 -1.87095 0.894991 0
M  V30 21719 C 1983.78 -1.79875 -0.550144 0
M  V30 21720 O 1983.14 -1.16517 -1.38901 0
M  V30 21721 C 1983.19 -3.33634 1.36825 0
M  V30 21722 O 1982.29 -4.08802 0.543553 0
M  V30 21723 H 1981.63 -0.580734 0.321938 0
M  V30 21724 H 1984.16 -1.40152 1.49059 0
M  V30 21725 H 1984.17 -3.84482 1.36519 0
M  V30 21726 H 1982.85 -3.38205 2.42054 0
M  V30 21727 H 1981.43 -3.67824 0.613185 0
M  V30 21728 N 1983.61 -0.910886 -1.2861 0
M  V30 21729 C 1984.89 -0.461608 -1.90075 0
M  V30 21730 C 1985.27 1.05944 -1.8259 0
M  V30 21731 O 1984.62 1.90624 -1.25995 0
M  V30 21732 C 1984.83 -0.98875 -3.34701 0
M  V30 21733 C 1986.17 -1.03913 -4.11688 0
M  V30 21734 O 1987.2 -0.937194 -3.4365 0
M  V30 21735 O 1986.06 -1.19392 -5.33299 0
M  V30 21736 H 1983.15 -0.145814 -0.814044 0
M  V30 21737 H 1985.7 -1.00148 -1.36998 0
M  V30 21738 H 1984.47 -2.03273 -3.34359 0
M  V30 21739 H 1984.09 -0.429535 -3.95273 0
M  V30 21740 N 1985.09 1.42434 -0.674558 0
M  V30 21741 C 1986.32 2.05582 -0.204816 0
M  V30 21742 C 1986.73 1.50768 1.14305 0
M  V30 21743 O 1986.07 0.642132 1.72111 0
M  V30 21744 C 1986.13 3.59446 -0.0621889 0
M  V30 21745 C 1985.8 4.36952 -1.33873 0
M  V30 21746 C 1986.79 4.67621 -2.27215 0
M  V30 21747 C 1984.48 4.76595 -1.58626 0
M  V30 21748 C 1986.47 5.36868 -3.43586 0
M  V30 21749 C 1984.16 5.45583 -2.75287 0
M  V30 21750 C 1985.16 5.75644 -3.6759 0
M  V30 21751 O 1984.84 6.43217 -4.8221 0
M  V30 21752 H 1984.58 0.668974 -0.0972083 0
M  V30 21753 H 1987.13 1.83563 -0.92161 0
M  V30 21754 H 1985.36 3.80123 0.710183 0
M  V30 21755 H 1987.05 4.04232 0.367648 0
M  V30 21756 H 1987.82 4.37494 -2.09341 0
M  V30 21757 H 1983.69 4.5259 -0.876522 0
M  V30 21758 H 1987.24 5.6025 -4.15651 0
M  V30 21759 H 1983.14 5.75127 -2.93086 0
M  V30 21760 H 1983.9 6.61708 -4.81752 0
M  V30 21761 N 1986.57 0.417871 1.51959 0
M  V30 21762 C 1987.53 -0.391479 2.25832 0
M  V30 21763 C 1988.53 -0.96627 1.2853 0
M  V30 21764 O 1989.72 -0.843774 1.52401 0
M  V30 21765 C 1986.85 -1.55192 3.03526 0
M  V30 21766 H 1988.04 0.255672 2.98808 0
M  V30 21767 H 1985.6 0.170583 1.55366 0
M  V30 21768 H 1986.33 -2.23569 2.3492 0
M  V30 21769 H 1986.12 -1.14616 3.74974 0
M  V30 21770 H 1987.61 -2.12422 3.59537 0
M  V30 21771 N 1988.04 -1.56898 0.148573 0
M  V30 21772 C 1989.46 -1.82957 -0.371991 0
M  V30 21773 C 1989.81 -1.06735 -1.64627 0
M  V30 21774 O 1988.93 -0.313128 -2.14123 0
M  V30 21775 C 1989.53 -3.31871 -0.681682 0
M  V30 21776 C 1988.09 -3.58506 -1.14676 0
M  V30 21777 C 1987.23 -2.76774 -0.170675 0
M  V30 21778 H 1990.18 -1.54248 0.373244 0
M  V30 21779 H 1990.2 -3.48112 -1.53618 0
M  V30 21780 H 1989.72 -3.8732 0.245938 0
M  V30 21781 H 1987.82 -3.08445 -2.09027 0
M  V30 21782 H 1987.93 -4.66961 -1.07165 0
M  V30 21783 H 1986.29 -2.45903 -0.663611 0
M  V30 21784 H 1987.08 -3.34995 0.750563 0
M  V30 21785 N 1989.52 0.125209 -1.57102 0
M  V30 21786 C 1990.77 0.832437 -1.8416 0
M  V30 21787 C 1991.09 1.80706 -0.732819 0
M  V30 21788 O 1990.36 1.94378 0.243723 0
M  V30 21789 H 1988.94 0.310405 -0.679454 0
M  V30 21790 H 1991.6 0.114013 -1.94566 0
M  V30 21791 H 1990.7 1.38145 -2.79861 0
M  V30 21792 N 1991 1.52564 0.395213 0
M  V30 21793 C 1991.91 1.79813 1.5068 0
M  V30 21794 C 1992.93 0.684507 1.5997 0
M  V30 21795 O 1994.1 0.971428 1.76423 0
M  V30 21796 C 1991.17 1.95567 2.86277 0
M  V30 21797 C 1990.23 3.19481 2.86759 0
M  V30 21798 C 1989.46 3.34474 4.15888 0
M  V30 21799 O 1989.68 2.54414 5.10519 0
M  V30 21800 O 1988.62 4.27698 4.23507 0
M  V30 21801 H 1992.44 2.74191 1.30586 0
M  V30 21802 H 1990.03 1.37579 0.582445 0
M  V30 21803 H 1991.91 2.07672 3.66675 0
M  V30 21804 H 1990.59 1.04378 3.0641 0
M  V30 21805 H 1989.49 3.12823 2.05164 0
M  V30 21806 H 1990.83 4.10496 2.71577 0
M  V30 21807 N 1992.48 -0.653289 1.43422 0
M  V30 21808 C 1993.39 -1.79526 1.51022 0
M  V30 21809 C 1994.4 -1.69403 0.39732 0
M  V30 21810 O 1995.58 -1.90574 0.651437 0
M  V30 21811 C 1992.65 -3.15803 1.43071 0
M  V30 21812 C 1991.71 -3.37723 2.65031 0
M  V30 21813 C 1990.94 -4.67499 2.5745 0
M  V30 21814 O 1991.16 -5.46846 1.6222 0
M  V30 21815 O 1990.1 -4.91137 3.47948 0
M  V30 21816 H 1993.92 -1.76069 2.47454 0
M  V30 21817 H 1991.51 -0.81176 1.25423 0
M  V30 21818 H 1993.39 -3.97083 1.41079 0
M  V30 21819 H 1992.06 -3.1985 0.497738 0
M  V30 21820 H 1990.97 -2.56208 2.72595 0
M  V30 21821 H 1992.3 -3.38523 3.573 0
M  V30 21822 N 1993.96 -1.29952 -0.891648 0
M  V30 21823 C 1995.19 -1.21121 -1.67371 0
M  V30 21824 C 1995.59 0.229437 -1.87804 0
M  V30 21825 O 1994.94 1.16445 -1.42079 0
M  V30 21826 C 1995 -1.86197 -3.07524 0
M  V30 21827 C 1994.66 -3.35513 -3.10291 0
M  V30 21828 C 1995.66 -4.31612 -2.8984 0
M  V30 21829 C 1993.35 -3.76848 -3.321 0
M  V30 21830 C 1995.34 -5.67021 -2.91146 0
M  V30 21831 C 1993.03 -5.12377 -3.33036 0
M  V30 21832 C 1994.02 -6.07274 -3.12582 0
M  V30 21833 O 1993.71 -7.40327 -3.13322 0
M  V30 21834 H 1993.44 -0.420546 -0.529261 0
M  V30 21835 H 1996 -1.71994 -1.12283 0
M  V30 21836 H 1994.23 -1.29846 -3.64248 0
M  V30 21837 H 1995.92 -1.71578 -3.67853 0
M  V30 21838 H 1996.68 -4.01009 -2.72795 0
M  V30 21839 H 1992.56 -3.03433 -3.47058 0
M  V30 21840 H 1996.11 -6.41066 -2.751 0
M  V30 21841 H 1992 -5.42623 -3.49615 0
M  V30 21842 H 1992.77 -7.49233 -3.29533 0
M  V30 21843 N 1995.44 1.1031 -1.12559 0
M  V30 21844 C 1996.66 1.86078 -0.90458 0
M  V30 21845 C 1997.08 1.80726 0.546224 0
M  V30 21846 O 1996.44 1.1969 1.3777 0
M  V30 21847 C 1996.49 3.34425 -1.37268 0
M  V30 21848 O 1996.21 3.39691 -2.76661 0
M  V30 21849 C 1997.71 4.27063 -1.18879 0
M  V30 21850 H 1994.93 0.588055 -0.32316 0
M  V30 21851 H 1997.47 1.39441 -1.49588 0
M  V30 21852 H 1995.63 3.78523 -0.824578 0
M  V30 21853 H 1996.04 4.3215 -2.97232 0
M  V30 21854 H 1997.52 5.29345 -1.56518 0
M  V30 21855 H 1997.99 4.39009 -0.129502 0
M  V30 21856 H 1998.6 3.88771 -1.72445 0
M  V30 21857 N 1996.91 0.917694 1.28125 0
M  V30 21858 C 1998.15 0.56005 1.96578 0
M  V30 21859 C 1998.52 -0.880571 1.70616 0
M  V30 21860 O 1999.72 -1.34599 2.32673 0
M  V30 21861 C 1997.99 0.865324 3.46766 0
M  V30 21862 S 1999.55 0.61469 4.34473 0
M  V30 21863 H 1996.37 0.207088 0.680173 0
M  V30 21864 H 1998.97 1.18399 1.5557 0
M  V30 21865 H 1997.67 1.91167 3.63157 0
M  V30 21866 H 1997.2 0.23019 3.92726 0
M  V30 21867 H 1999.22 -0.532159 4.93338 0
M  V30 21868 N 1998.39 -1.42074 0.682102 0
M  V30 21869 C 1999.64 -2.01037 0.206997 0
M  V30 21870 C 1999.96 -1.5424 -1.19311 0
M  V30 21871 O 1999.23 -0.767197 -1.80252 0
M  V30 21872 H 1997.81 -0.743372 0.073537 0
M  V30 21873 H 2000.47 -1.7389 0.880247 0
M  V30 21874 H 1999.57 -3.11366 0.213942 0
M  V30 21875 N 1999.87 -0.425924 -1.51735 0
M  V30 21876 C 2001.1 0.143351 -2.06403 0
M  V30 21877 C 2001.51 1.37439 -1.29445 0
M  V30 21878 O 2000.87 1.79096 -0.350858 0
M  V30 21879 C 2000.92 0.477017 -3.58339 0
M  V30 21880 O 2000.64 -0.705148 -4.32388 0
M  V30 21881 C 2002.14 1.09821 -4.29481 0
M  V30 21882 H 1999.36 0.0129769 -0.670875 0
M  V30 21883 H 2001.91 -0.601719 -1.95447 0
M  V30 21884 H 2000.06 1.17198 -3.69247 0
M  V30 21885 H 2000.48 -0.422599 -5.22795 0
M  V30 21886 H 2001.95 1.28175 -5.36913 0
M  V30 21887 H 2002.43 2.07605 -3.87036 0
M  V30 21888 H 2003.03 0.442957 -4.22987 0
M  V30 21889 N 2001.35 1.56817 -0.156891 0
M  V30 21890 C 2002.3 2.18555 0.796017 0
M  V30 21891 C 2003.29 1.14538 1.24809 0
M  V30 21892 O 2004.5 1.32768 1.21542 0
M  V30 21893 H 2000.87 0.699939 0.274936 0
M  V30 21894 H 2002.84 2.97341 0.251207 0
M  V30 21895 C 2001.59 2.82928 2.02106 0
M  V30 21896 H 2000.91 3.62687 1.6822 0
M  V30 21897 H 2002.35 3.29615 2.66702 0
M  V30 21898 C 2000.81 1.81947 2.83543 0
M  V30 21899 O 2001.34 1.29602 3.80219 0
M  V30 21900 N 1999.55 1.51028 2.48272 0
M  V30 21901 H 1999.1 1.93787 1.69719 0
M  V30 21902 H 1999.05 0.837124 3.0305 0
M  V30 21903 N 2002.83 -0.116876 1.57166 0
M  V30 21904 C 2004.07 -0.824288 1.84964 0
M  V30 21905 C 2004.4 -1.79779 0.742287 0
M  V30 21906 O 2003.66 -1.93881 -0.26617 0
M  V30 21907 C 2003.95 -1.60659 3.19255 0
M  V30 21908 C 2003.62 -0.777185 4.44152 0
M  V30 21909 C 2002.28 -0.548471 4.78064 0
M  V30 21910 C 2004.63 -0.199197 5.20819 0
M  V30 21911 C 2001.96 0.26845 5.86086 0
M  V30 21912 C 2004.31 0.604927 6.29701 0
M  V30 21913 C 2002.98 0.843937 6.62143 0
M  V30 21914 H 2002.25 -0.301628 0.676832 0
M  V30 21915 H 2004.9 -0.0865824 1.91304 0
M  V30 21916 H 2003.2 -2.41526 3.08501 0
M  V30 21917 H 2004.9 -2.15794 3.37985 0
M  V30 21918 H 2001.49 -0.965541 4.17583 0
M  V30 21919 H 2005.67 -0.363107 4.9497 0
M  V30 21920 H 2000.93 0.462826 6.09646 0
M  V30 21921 H 2005.1 1.05977 6.88289 0
M  V30 21922 H 2002.73 1.47877 7.45679 0
M  V30 21923 N 2004.3 -1.52772 -0.387116 0
M  V30 21924 C 2005.27 -1.77036 -1.45571 0
M  V30 21925 C 2006.27 -0.64041 -1.47497 0
M  V30 21926 O 2007.46 -0.908478 -1.48635 0
M  V30 21927 C 2004.59 -1.87284 -2.84846 0
M  V30 21928 H 2005.78 -2.72452 -1.25339 0
M  V30 21929 H 2003.33 -1.43522 -0.61897 0
M  V30 21930 H 2004.07 -0.9386 -3.1042 0
M  V30 21931 H 2003.85 -2.6945 -2.84849 0
M  V30 21932 H 2005.34 -2.07723 -3.62272 0
M  V30 21933 N 2005.78 0.645673 -1.43767 0
M  V30 21934 C 2007.01 1.43095 -1.49021 0
M  V30 21935 C 2007.42 1.88885 -0.109072 0
M  V30 21936 O 2006.76 1.60563 0.89248 0
M  V30 21937 C 2006.82 2.694 -2.38042 0
M  V30 21938 C 2006.49 2.45501 -3.85458 0
M  V30 21939 C 2007.49 2.08245 -4.76372 0
M  V30 21940 C 2005.17 2.59592 -4.3002 0
M  V30 21941 C 2007.16 1.85388 -6.09844 0
M  V30 21942 C 2004.85 2.36349 -5.63544 0
M  V30 21943 C 2005.85 1.99304 -6.53274 0
M  V30 21944 O 2005.54 1.7631 -7.84328 0
M  V30 21945 H 2005.27 0.445803 -0.508169 0
M  V30 21946 H 2007.82 0.798192 -1.89257 0
M  V30 21947 H 2006.05 3.35262 -1.92707 0
M  V30 21948 H 2007.74 3.31369 -2.34413 0
M  V30 21949 H 2008.51 1.96929 -4.4322 0
M  V30 21950 H 2004.39 2.87399 -3.60448 0
M  V30 21951 H 2007.93 1.56397 -6.79842 0
M  V30 21952 H 2003.83 2.4727 -5.96261 0
M  V30 21953 H 2004.6 1.90674 -7.95981 0
M  V30 21954 N 2007.26 1.30423 0.884744 0
M  V30 21955 C 2008.49 1.22007 1.66727 0
M  V30 21956 C 2008.9 -0.219474 1.87923 0
M  V30 21957 O 2008.24 -1.1569 1.42694 0
M  V30 21958 C 2008.3 1.87825 3.06532 0
M  V30 21959 C 2007.97 3.37154 3.08507 0
M  V30 21960 C 2008.96 4.33143 2.87547 0
M  V30 21961 C 2006.65 3.78604 3.30097 0
M  V30 21962 C 2008.64 5.68557 2.88135 0
M  V30 21963 C 2006.33 5.14136 3.30314 0
M  V30 21964 C 2007.33 6.08923 3.09357 0
M  V30 21965 O 2007.02 7.41979 3.09391 0
M  V30 21966 H 2006.75 0.423347 0.527023 0
M  V30 21967 H 2009.3 1.72587 1.11369 0
M  V30 21968 H 2007.53 1.31776 3.63555 0
M  V30 21969 H 2009.22 1.73527 3.66938 0
M  V30 21970 H 2009.99 4.0245 2.70664 0
M  V30 21971 H 2005.87 3.05269 3.45444 0
M  V30 21972 H 2009.41 6.42516 2.71696 0
M  V30 21973 H 2005.31 5.44469 3.46733 0
M  V30 21974 H 2006.07 7.5097 3.25555 0
M  V30 21975 N 2008.74 -1.09711 1.13142 0
M  V30 21976 C 2009.97 -1.85326 0.91311 0
M  V30 21977 C 2010.38 -1.81289 -0.541396 0
M  V30 21978 O 2009.72 -1.20519 -1.3864 0
M  V30 21979 C 2009.78 -3.34413 1.3194 0
M  V30 21980 C 2009.44 -3.62202 2.78673 0
M  V30 21981 C 2010.44 -3.58171 3.76841 0
M  V30 21982 C 2008.13 -3.9064 3.15762 0
M  V30 21983 C 2010.12 -3.82186 5.1011 0
M  V30 21984 C 2007.81 -4.1431 4.49211 0
M  V30 21985 C 2008.81 -4.10074 5.46194 0
M  V30 21986 O 2008.49 -4.33135 6.77236 0
M  V30 21987 H 2008.23 -0.592338 0.325748 0
M  V30 21988 H 2010.78 -1.39558 1.50708 0
M  V30 21989 H 2009.01 -3.80875 0.668681 0
M  V30 21990 H 2010.7 -3.91433 1.07403 0
M  V30 21991 H 2011.46 -3.36231 3.49533 0
M  V30 21992 H 2007.34 -3.93064 2.40878 0
M  V30 21993 H 2010.89 -3.78795 5.85799 0
M  V30 21994 H 2006.78 -4.35731 4.76245 0
M  V30 21995 H 2007.55 -4.50611 6.83295 0
M  V30 21996 N 2010.22 -0.924476 -1.27637 0
M  V30 21997 C 2011.46 -0.563219 -1.9451 0
M  V30 21998 C 2011.79 0.894968 -1.72686 0
M  V30 21999 O 2011.05 1.65323 -1.04722 0
M  V30 22000 C 2011.35 -0.831659 -3.47589 0
M  V30 22001 C 2011.01 -2.27108 -3.89529 0
M  V30 22002 C 2009.67 -2.6646 -4.0069 0
M  V30 22003 C 2012.03 -3.20729 -4.10832 0
M  V30 22004 C 2009.35 -3.98563 -4.3054 0
M  V30 22005 C 2011.71 -4.52409 -4.42164 0
M  V30 22006 C 2010.37 -4.91599 -4.51538 0
M  V30 22007 H 2009.64 -0.206096 -0.711762 0
M  V30 22008 H 2012.29 -1.16783 -1.51769 0
M  V30 22009 H 2010.59 -0.144345 -3.91534 0
M  V30 22010 H 2012.29 -0.531162 -3.97467 0
M  V30 22011 H 2008.88 -1.95577 -3.81376 0
M  V30 22012 H 2013.06 -2.9153 -4.01652 0
M  V30 22013 H 2008.32 -4.28614 -4.36005 0
M  V30 22014 H 2012.49 -5.24957 -4.57595 0
M  V30 22015 H 2010.12 -5.93994 -4.74421 0
M  V30 22016 N 2011.69 1.41711 -0.689627 0
M  V30 22017 C 2012.94 2.00548 -0.215219 0
M  V30 22018 C 2013.26 1.55228 1.19011 0
M  V30 22019 O 2014.46 2.06585 1.76167 0
M  V30 22020 C 2012.92 3.58348 -0.333888 0
M  V30 22021 C 2012.53 4.12652 -1.74421 0
M  V30 22022 C 2014.27 4.24423 0.0810486 0
M  V30 22023 C 2012.18 5.62865 -1.81485 0
M  V30 22024 H 2011.11 0.750088 -0.0767043 0
M  V30 22025 H 2013.76 1.6226 -0.856963 0
M  V30 22026 H 2012.14 3.94211 0.376004 0
M  V30 22027 H 2013.31 3.8822 -2.48238 0
M  V30 22028 H 2011.63 3.59082 -2.1083 0
M  V30 22029 H 2014.23 5.34678 0.0486243 0
M  V30 22030 H 2014.57 4.00984 1.1188 0
M  V30 22031 H 2015.1 3.93573 -0.578357 0
M  V30 22032 H 2011.84 5.91122 -2.83292 0
M  V30 22033 H 2011.36 5.89242 -1.12044 0
M  V30 22034 H 2013.04 6.27536 -1.57503 0
M  V30 22035 N 2013.17 0.433965 1.51507 0
M  V30 22036 C 2014.4 -0.134793 2.06962 0
M  V30 22037 C 2014.82 -1.35984 1.29962 0
M  V30 22038 O 2014.18 -1.78147 0.336629 0
M  V30 22039 C 2014.23 -0.438976 3.57918 0
M  V30 22040 O 2013.33 -1.52599 3.83128 0
M  V30 22041 H 2012.67 -0.00334493 0.663992 0
M  V30 22042 H 2015.2 0.614327 1.95159 0
M  V30 22043 H 2015.21 -0.690415 4.02116 0
M  V30 22044 H 2013.89 0.456413 4.13388 0
M  V30 22045 H 2012.47 -1.26478 3.50796 0
M  V30 22046 N 2014.65 -1.56732 0.165206 0
M  V30 22047 C 2015.9 -1.96697 -0.481311 0
M  V30 22048 C 2016.23 -1.05092 -1.63664 0
M  V30 22049 O 2015.48 -0.0837635 -1.95521 0
M  V30 22050 C 2015.78 -3.42783 -1.01165 0
M  V30 22051 C 2015.45 -4.50892 0.0271385 0
M  V30 22052 C 2014.11 -4.80183 0.31265 0
M  V30 22053 C 2016.46 -5.16026 0.732556 0
M  V30 22054 C 2013.79 -5.71909 1.30907 0
M  V30 22055 C 2016.14 -6.08827 1.71792 0
M  V30 22056 C 2014.8 -6.36488 2.01094 0
M  V30 22057 H 2014.07 -0.719765 -0.176124 0
M  V30 22058 H 2016.72 -1.89783 0.255878 0
M  V30 22059 H 2015.03 -3.46619 -1.82654 0
M  V30 22060 H 2016.72 -3.71044 -1.52078 0
M  V30 22061 H 2013.31 -4.28107 -0.205569 0
M  V30 22062 H 2017.5 -4.93513 0.525186 0
M  V30 22063 H 2012.75 -5.91626 1.54234 0
M  V30 22064 H 2016.93 -6.58367 2.26993 0
M  V30 22065 H 2014.55 -7.07367 2.78454 0
M  V30 22066 N 2016.13 0.10854 -1.57226 0
M  V30 22067 C 2017.36 0.827173 -1.89318 0
M  V30 22068 C 2017.77 1.73453 -0.755681 0
M  V30 22069 O 2017.11 1.81522 0.282015 0
M  V30 22070 C 2017.17 1.70434 -3.16532 0
M  V30 22071 C 2016.84 0.970197 -4.46583 0
M  V30 22072 C 2017.83 0.306173 -5.18998 0
M  V30 22073 C 2015.52 0.948268 -4.93268 0
M  V30 22074 C 2017.51 -0.369963 -6.36325 0
M  V30 22075 C 2015.2 0.268339 -6.10511 0
M  V30 22076 C 2016.2 -0.389611 -6.81888 0
M  V30 22077 O 2015.88 -1.05867 -7.96899 0
M  V30 22078 H 2015.62 0.242513 -0.631002 0
M  V30 22079 H 2018.17 0.0942966 -2.05183 0
M  V30 22080 H 2016.4 2.47912 -2.96777 0
M  V30 22081 H 2018.09 2.29833 -3.34562 0
M  V30 22082 H 2018.86 0.314665 -4.83978 0
M  V30 22083 H 2014.73 1.44982 -4.37608 0
M  V30 22084 H 2018.28 -0.884092 -6.91975 0
M  V30 22085 H 2014.18 0.257647 -6.44986 0
M  V30 22086 H 2014.94 -0.964201 -8.12801 0
M  V30 22087 N 2017.61 1.52975 0.379009 0
M  V30 22088 C 2018.54 1.73226 1.48553 0
M  V30 22089 C 2019.52 0.58029 1.51893 0
M  V30 22090 O 2020.7 0.81129 1.70148 0
M  V30 22091 C 2017.83 1.79892 2.86978 0
M  V30 22092 C 2016.87 3.01741 3.01421 0
M  V30 22093 S 2017.71 4.61527 2.71576 0
M  V30 22094 C 2018.86 4.71022 4.12176 0
M  V30 22095 H 2019.1 2.66808 1.31151 0
M  V30 22096 H 2016.63 1.43393 0.572513 0
M  V30 22097 H 2018.59 1.84418 3.66743 0
M  V30 22098 H 2017.25 0.873851 3.017 0
M  V30 22099 H 2016.44 3.02975 4.02768 0
M  V30 22100 H 2016.04 2.95258 2.29562 0
M  V30 22101 H 2018.34 4.50251 5.06241 0
M  V30 22102 H 2019.28 5.73052 4.15953 0
M  V30 22103 H 2019.69 3.99772 3.98551 0
M  V30 22104 N 2019.08 -0.63804 1.44107 0
M  V30 22105 C 2020.01 -1.76164 1.5326 0
M  V30 22106 C 2021 -1.6566 0.386107 0
M  V30 22107 O 2022.18 -1.84525 0.605326 0
M  V30 22108 C 2019.31 -3.14665 1.4698 0
M  V30 22109 C 2018.26 -3.39949 2.60035 0
M  V30 22110 C 2017.59 -4.78409 2.38808 0
M  V30 22111 C 2018.89 -3.33193 4.02219 0
M  V30 22112 H 2020.58 -1.6876 2.47306 0
M  V30 22113 H 2018.13 -0.810483 1.19026 0
M  V30 22114 H 2020.08 -3.93037 1.51986 0
M  V30 22115 H 2018.81 -3.22835 0.494471 0
M  V30 22116 H 2017.47 -2.63955 2.54408 0
M  V30 22117 H 2017.11 -4.83274 1.39483 0
M  V30 22118 H 2016.81 -4.96285 3.14602 0
M  V30 22119 H 2018.34 -5.5902 2.4562 0
M  V30 22120 H 2019.75 -4.0148 4.09252 0
M  V30 22121 H 2018.15 -3.62605 4.78161 0
M  V30 22122 H 2019.22 -2.31116 4.26279 0
M  V30 22123 N 2020.56 -1.3089 -0.877815 0
M  V30 22124 C 2021.8 -1.21417 -1.6443 0
M  V30 22125 C 2022.17 0.225958 -1.90666 0
M  V30 22126 O 2023.37 0.444054 -2.65107 0
M  V30 22127 C 2021.64 -2.02699 -2.9436 0
M  V30 22128 S 2023.2 -2.10002 -3.85285 0
M  V30 22129 H 2020.02 -0.432571 -0.564272 0
M  V30 22130 H 2022.62 -1.65456 -1.04138 0
M  V30 22131 H 2021.32 -3.06433 -2.72996 0
M  V30 22132 H 2020.85 -1.59349 -3.59682 0
M  V30 22133 H 2022.87 -1.23262 -4.80646 0
M  V30 22134 N 2022.04 1.0911 -1.13723 0
M  V30 22135 C 2023 2.14011 -0.820475 0
M  V30 22136 C 2024 1.59882 0.171573 0
M  V30 22137 O 2025.19 1.7411 -0.0559029 0
M  V30 22138 C 2022.33 3.40178 -0.221758 0
M  V30 22139 H 2023.52 2.43541 -1.75007 0
M  V30 22140 H 2021.07 1.24702 -0.94229 0
M  V30 22141 H 2021.81 3.16277 0.716904 0
M  V30 22142 H 2021.59 3.80759 -0.936208 0
M  V30 22143 H 2023.08 4.17596 -0.0171079 0
M  V30 22144 N 2023.52 0.931232 1.27145 0
M  V30 22145 C 2024.77 0.573527 1.94208 0
M  V30 22146 C 2025.09 -0.885797 1.73159 0
M  V30 22147 O 2024.35 -1.64765 1.05598 0
M  V30 22148 C 2024.65 0.850081 3.47143 0
M  V30 22149 C 2024.31 2.29171 3.88319 0
M  V30 22150 C 2022.98 2.68581 3.99271 0
M  V30 22151 C 2025.33 3.22903 4.09125 0
M  V30 22152 C 2022.66 4.00841 4.2842 0
M  V30 22153 C 2025.01 4.54747 4.39759 0
M  V30 22154 C 2023.67 4.93987 4.48924 0
M  V30 22155 H 2022.94 0.209868 0.710659 0
M  V30 22156 H 2025.59 1.17586 1.51148 0
M  V30 22157 H 2023.89 0.165107 3.91452 0
M  V30 22158 H 2025.59 0.552233 3.97179 0
M  V30 22159 H 2022.18 1.97597 3.80334 0
M  V30 22160 H 2026.36 2.93656 4.001 0
M  V30 22161 H 2021.62 4.3092 4.33726 0
M  V30 22162 H 2025.79 5.27377 4.54804 0
M  V30 22163 H 2023.42 5.96501 4.71265 0
M  V30 22164 N 2025 -1.41343 0.697132 0
M  V30 22165 C 2025.93 -2.33452 0.0471857 0
M  V30 22166 C 2026.91 -1.51902 -0.765488 0
M  V30 22167 O 2028.09 -1.80434 -0.718146 0
M  V30 22168 C 2025.22 -3.35735 -0.888781 0
M  V30 22169 C 2024.18 -4.27608 -0.183088 0
M  V30 22170 C 2023.5 -5.20277 -1.23352 0
M  V30 22171 C 2024.8 -5.13559 0.951558 0
M  V30 22172 H 2026.5 -2.88052 0.816496 0
M  V30 22173 H 2024.04 -1.38502 0.394089 0
M  V30 22174 H 2026 -3.99098 -1.35272 0
M  V30 22175 H 2024.72 -2.79489 -1.68977 0
M  V30 22176 H 2023.38 -3.65671 0.260833 0
M  V30 22177 H 2023.03 -4.60346 -2.02708 0
M  V30 22178 H 2022.73 -5.82581 -0.766336 0
M  V30 22179 H 2024.25 -5.86517 -1.69793 0
M  V30 22180 H 2025.67 -5.70481 0.567835 0
M  V30 22181 H 2024.06 -5.84812 1.34593 0
M  V30 22182 H 2025.13 -4.50631 1.79053 0
M  V30 22183 N 2026.48 -0.441993 -1.51275 0
M  V30 22184 C 2027.72 0.123093 -2.02426 0
M  V30 22185 C 2028.05 1.41953 -1.32525 0
M  V30 22186 O 2027.33 1.8942 -0.44164 0
M  V30 22187 C 2027.61 0.337043 -3.58519 0
M  V30 22188 C 2027.47 -0.978373 -4.39031 0
M  V30 22189 C 2028.78 1.10474 -4.26009 0
M  V30 22190 H 2025.9 0.0432623 -0.735729 0
M  V30 22191 H 2028.55 -0.581901 -1.8087 0
M  V30 22192 H 2026.7 0.93756 -3.77017 0
M  V30 22193 H 2028.37 -1.61323 -4.32172 0
M  V30 22194 H 2026.61 -1.58189 -4.03929 0
M  V30 22195 H 2027.28 -0.78266 -5.46423 0
M  V30 22196 H 2029.76 0.596021 -4.11809 0
M  V30 22197 H 2028.63 1.22321 -5.35097 0
M  V30 22198 H 2028.89 2.13401 -3.87185 0
M  V30 22199 N 2027.95 1.56642 -0.173515 0
M  V30 22200 C 2029.2 1.96124 0.470974 0
M  V30 22201 C 2029.52 1.06229 1.6424 0
M  V30 22202 O 2030.72 1.35402 2.35327 0
M  V30 22203 C 2029.18 3.4874 0.889284 0
M  V30 22204 C 2028.79 4.47264 -0.256662 0
M  V30 22205 C 2030.53 3.97037 1.50207 0
M  V30 22206 C 2028.44 5.91122 0.181401 0
M  V30 22207 H 2027.37 0.732267 0.179724 0
M  V30 22208 H 2030.02 1.81619 -0.262096 0
M  V30 22209 H 2028.4 3.58672 1.6784 0
M  V30 22210 H 2029.57 4.49049 -1.03401 0
M  V30 22211 H 2027.89 4.09038 -0.779546 0
M  V30 22212 H 2030.49 5.01974 1.8419 0
M  V30 22213 H 2030.83 3.401 2.40078 0
M  V30 22214 H 2031.36 3.90131 0.777351 0
M  V30 22215 H 2028.1 6.51936 -0.682591 0
M  V30 22216 H 2027.62 5.92639 0.924063 0
M  V30 22217 H 2029.3 6.43979 0.624532 0
M  V30 22218 N 2029.43 -0.1002 1.57281 0
M  V30 22219 C 2030.38 -1.14082 2.02702 0
M  V30 22220 C 2031.37 -1.41773 0.927183 0
M  V30 22221 O 2032.58 -1.41514 1.11237 0
M  V30 22222 H 2028.95 -0.385095 0.645915 0
M  V30 22223 H 2030.93 -0.731375 2.89298 0
M  V30 22224 C 2029.67 -2.45424 2.46297 0
M  V30 22225 H 2029 -2.24959 3.30505 0
M  V30 22226 H 2030.44 -3.16752 2.81859 0
M  V30 22227 C 2028.9 -3.09356 1.33418 0
M  V30 22228 O 2029.43 -3.96233 0.660494 0
M  V30 22229 N 2027.63 -2.69526 1.08646 0
M  V30 22230 H 2027.18 -1.98972 1.63609 0
M  V30 22231 H 2027.14 -3.1263 0.333186 0
M  V30 22232 N 2030.91 -1.53174 -0.370891 0
M  V30 22233 C 2031.84 -1.82213 -1.46017 0
M  V30 22234 C 2032.82 -0.675274 -1.56122 0
M  V30 22235 O 2034.01 -0.924614 -1.70776 0
M  V30 22236 C 2031.14 -2.00727 -2.83419 0
M  V30 22237 C 2030.09 -3.16478 -2.88141 0
M  V30 22238 C 2029.42 -3.20276 -4.28167 0
M  V30 22239 C 2030.72 -4.55179 -2.56143 0
M  V30 22240 H 2032.41 -2.73432 -1.21965 0
M  V30 22241 H 2029.96 -1.31569 -0.585288 0
M  V30 22242 H 2031.91 -2.19625 -3.59643 0
M  V30 22243 H 2030.63 -1.06213 -3.08847 0
M  V30 22244 H 2029.29 -2.97392 -2.14367 0
M  V30 22245 H 2028.94 -2.2341 -4.50663 0
M  V30 22246 H 2028.64 -3.98044 -4.32244 0
M  V30 22247 H 2030.16 -3.41352 -5.06272 0
M  V30 22248 H 2031.58 -4.74274 -3.22082 0
M  V30 22249 H 2029.97 -5.35148 -2.71544 0
M  V30 22250 H 2031.04 -4.60654 -1.51412 0
M  V30 22251 N 2032.39 0.630389 -1.44443 0
M  V30 22252 C 2033.63 1.38993 -1.47265 0
M  V30 22253 C 2033.96 1.94213 -0.105537 0
M  V30 22254 O 2033.22 1.7415 0.89277 0
M  V30 22255 C 2033.52 2.57255 -2.48102 0
M  V30 22256 C 2033.18 2.20319 -3.93408 0
M  V30 22257 C 2031.84 2.09959 -4.32979 0
M  V30 22258 C 2034.2 1.91148 -4.84883 0
M  V30 22259 C 2031.52 1.68616 -5.61948 0
M  V30 22260 C 2033.88 1.51298 -6.14241 0
M  V30 22261 C 2032.54 1.39479 -6.52765 0
M  V30 22262 H 2031.81 0.508613 -0.538882 0
M  V30 22263 H 2034.46 0.714772 -1.77661 0
M  V30 22264 H 2032.76 3.30007 -2.11193 0
M  V30 22265 H 2034.46 3.15483 -2.47531 0
M  V30 22266 H 2031.05 2.29301 -3.62103 0
M  V30 22267 H 2035.23 1.98061 -4.55066 0
M  V30 22268 H 2030.49 1.5807 -5.90613 0
M  V30 22269 H 2034.66 1.27764 -6.8458 0
M  V30 22270 H 2032.29 1.07216 -7.52601 0
M  V30 22271 N 2033.87 1.31354 0.870861 0
M  V30 22272 C 2035.11 1.21167 1.62623 0
M  V30 22273 C 2035.44 -0.22989 1.92835 0
M  V30 22274 O 2034.72 -1.16257 1.55931 0
M  V30 22275 C 2035 2.05505 2.95702 0
M  V30 22276 C 2034.86 3.57955 2.72375 0
M  V30 22277 C 2036.17 1.90375 3.96794 0
M  V30 22278 H 2033.29 0.441517 0.590111 0
M  V30 22279 H 2035.94 1.61134 1.00676 0
M  V30 22280 H 2034.09 1.71549 3.48573 0
M  V30 22281 H 2035.76 4.02044 2.26183 0
M  V30 22282 H 2034 3.81431 2.06623 0
M  V30 22283 H 2034.67 4.12273 3.67063 0
M  V30 22284 H 2037.15 2.20089 3.53129 0
M  V30 22285 H 2036.02 2.51689 4.87795 0
M  V30 22286 H 2036.28 0.866804 4.33519 0
M  V30 22287 N 2035.34 -1.08505 1.143 0
M  V30 22288 C 2036.31 -2.13573 0.831813 0
M  V30 22289 C 2037.31 -1.59971 -0.163092 0
M  V30 22290 O 2038.5 -1.74078 0.0651356 0
M  V30 22291 C 2035.63 -3.40056 0.239795 0
M  V30 22292 H 2036.82 -2.4261 1.76297 0
M  V30 22293 H 2034.37 -1.24201 0.94889 0
M  V30 22294 H 2035.11 -3.16652 -0.700121 0
M  V30 22295 H 2034.89 -3.80257 0.956388 0
M  V30 22296 H 2036.38 -4.17582 0.0392538 0
M  V30 22297 N 2036.82 -0.937962 -1.26649 0
M  V30 22298 C 2038.07 -0.584683 -1.94189 0
M  V30 22299 C 2038.4 0.873516 -1.73446 0
M  V30 22300 O 2037.68 1.62451 -1.06957 0
M  V30 22301 C 2037.96 -0.923855 -3.48047 0
M  V30 22302 C 2037.81 -2.43656 -3.7809 0
M  V30 22303 C 2039.13 -0.436986 -4.37925 0
M  V30 22304 H 2036.25 -0.213892 -0.70528 0
M  V30 22305 H 2038.89 -1.1716 -1.49578 0
M  V30 22306 H 2037.04 -0.424389 -3.86175 0
M  V30 22307 H 2038.71 -3.00851 -3.49695 0
M  V30 22308 H 2036.96 -2.88141 -3.2428 0
M  V30 22309 H 2037.63 -2.62439 -4.85623 0
M  V30 22310 H 2040.1 -0.865189 -4.07006 0
M  V30 22311 H 2038.98 -0.703159 -5.44378 0
M  V30 22312 H 2039.24 0.663042 -4.371 0
M  V30 22313 N 2038.3 1.40971 -0.704618 0
M  V30 22314 C 2039.55 2.00309 -0.236478 0
M  V30 22315 C 2039.86 1.56482 1.17358 0
M  V30 22316 O 2041.07 2.08442 1.73966 0
M  V30 22317 C 2039.52 3.57974 -0.371877 0
M  V30 22318 C 2039.13 4.10779 -1.78788 0
M  V30 22319 C 2040.88 4.24485 0.0360284 0
M  V30 22320 C 2038.78 5.60909 -1.87445 0
M  V30 22321 H 2037.71 0.749233 -0.0846557 0
M  V30 22322 H 2040.36 1.61342 -0.874125 0
M  V30 22323 H 2038.75 3.94587 0.334172 0
M  V30 22324 H 2039.92 3.85565 -2.52342 0
M  V30 22325 H 2038.23 3.56826 -2.14626 0
M  V30 22326 H 2040.83 5.34699 -0.00808813 0
M  V30 22327 H 2041.17 4.02149 1.07621 0
M  V30 22328 H 2041.71 3.92938 -0.620069 0
M  V30 22329 H 2038.45 5.88084 -2.89546 0
M  V30 22330 H 2037.97 5.88021 -1.18287 0
M  V30 22331 H 2039.65 6.25831 -1.6415 0
M  V30 22332 N 2039.78 0.45001 1.51039 0
M  V30 22333 C 2040.71 -0.40053 2.24658 0
M  V30 22334 C 2041.69 -1.01409 1.27102 0
M  V30 22335 O 2042.87 -1.05411 1.56272 0
M  V30 22336 C 2040 -1.55933 3.0067 0
M  V30 22337 C 2039.05 -1.06522 4.12983 0
M  V30 22338 S 2039.88 0.00304687 5.355 0
M  V30 22339 C 2041.04 -1.16012 6.15054 0
M  V30 22340 H 2041.27 0.224453 2.96452 0
M  V30 22341 H 2038.8 0.234654 1.52606 0
M  V30 22342 H 2040.76 -2.22358 3.45061 0
M  V30 22343 H 2039.42 -2.15576 2.28442 0
M  V30 22344 H 2038.61 -1.93213 4.65494 0
M  V30 22345 H 2038.22 -0.479013 3.7092 0
M  V30 22346 H 2040.51 -2.076 6.4491 0
M  V30 22347 H 2041.45 -0.674722 7.04878 0
M  V30 22348 H 2041.86 -1.40442 5.46751 0
M  V30 22349 N 2041.26 -1.56548 0.18182 0
M  V30 22350 C 2042.53 -1.88906 -0.507337 0
M  V30 22351 C 2042.91 -1.09334 -1.80581 0
M  V30 22352 O 2042.26 -0.190397 -2.27705 0
M  V30 22353 C 2042.47 -3.41085 -0.73904 0
M  V30 22354 C 2043.82 -4.11043 -1.06435 0
M  V30 22355 O 2044.84 -3.46461 -0.82722 0
M  V30 22356 O 2043.7 -5.2516 -1.51225 0
M  V30 22357 H 2040.8 -0.784135 -0.262794 0
M  V30 22358 H 2043.34 -1.68254 0.221041 0
M  V30 22359 H 2042.11 -3.90893 0.17847 0
M  V30 22360 H 2041.74 -3.67384 -1.52036 0
M  V30 22361 N 2042.73 0.0918577 -1.57332 0
M  V30 22362 C 2043.68 1.13005 -2.03304 0
M  V30 22363 C 2044.68 1.4128 -0.934688 0
M  V30 22364 O 2045.88 1.40923 -1.11986 0
M  V30 22365 H 2042.26 0.381664 -0.647948 0
M  V30 22366 H 2044.23 0.716022 -2.89682 0
M  V30 22367 C 2042.98 2.44114 -2.47595 0
M  V30 22368 H 2042.3 2.23203 -3.31694 0
M  V30 22369 H 2043.74 3.15252 -2.83535 0
M  V30 22370 C 2042.2 3.08644 -1.35057 0
M  V30 22371 O 2042.73 3.95877 -0.681498 0
M  V30 22372 N 2040.94 2.68946 -1.10074 0
M  V30 22373 H 2040.48 1.98101 -1.64662 0
M  V30 22374 H 2040.44 3.12448 -0.349761 0
M  V30 22375 N 2044.21 1.53368 0.362763 0
M  V30 22376 C 2045.46 1.69687 1.10511 0
M  V30 22377 C 2045.79 0.450107 1.8922 0
M  V30 22378 O 2045.04 -0.567977 1.87277 0
M  V30 22379 C 2045.34 2.89992 2.089 0
M  V30 22380 C 2045.01 4.26386 1.46649 0
M  V30 22381 C 2043.67 4.63475 1.294 0
M  V30 22382 C 2046.02 5.11194 1.01636 0
M  V30 22383 C 2043.35 5.83007 0.657259 0
M  V30 22384 C 2045.7 6.31374 0.393615 0
M  V30 22385 C 2044.37 6.67174 0.20864 0
M  V30 22386 H 2043.64 0.620928 0.404387 0
M  V30 22387 H 2046.28 1.87558 0.386572 0
M  V30 22388 H 2044.59 2.66646 2.87067 0
M  V30 22389 H 2046.28 2.99812 2.66296 0
M  V30 22390 H 2042.87 3.97184 1.61069 0
M  V30 22391 H 2047.06 4.83087 1.13755 0
M  V30 22392 H 2042.31 6.09332 0.502383 0
M  V30 22393 H 2046.49 6.9639 0.0366447 0
M  V30 22394 H 2044.12 7.59659 -0.286816 0
M  V30 22395 N 2045.69 -0.62272 1.44776 0
M  V30 22396 C 2046.97 -1.38145 1.38475 0
M  V30 22397 C 2047.35 -2.11046 0.0476847 0
M  V30 22398 O 2046.7 -2.0689 -0.969982 0
M  V30 22399 C 2046.91 -2.34088 2.58851 0
M  V30 22400 C 2048.25 -2.97162 3.03282 0
M  V30 22401 O 2049.28 -2.44412 2.59116 0
M  V30 22402 O 2048.14 -3.92874 3.79885 0
M  V30 22403 H 2045.23 -0.618685 0.548779 0
M  V30 22404 H 2047.78 -0.647072 1.56879 0
M  V30 22405 H 2046.55 -1.79376 3.47764 0
M  V30 22406 H 2046.17 -3.1493 2.42703 0
M  V30 22407 N 2047.17 -1.31814 -0.863883 0
M  V30 22408 C 2048.4 -1.24644 -1.64765 0
M  V30 22409 C 2048.81 0.189549 -1.88248 0
M  V30 22410 O 2048.15 1.13405 -1.44517 0
M  V30 22411 C 2048.21 -1.92678 -3.03505 0
M  V30 22412 C 2047.88 -3.42019 -3.03104 0
M  V30 22413 C 2048.87 -4.37662 -2.8062 0
M  V30 22414 C 2046.56 -3.83808 -3.24032 0
M  V30 22415 C 2048.55 -5.73069 -2.79053 0
M  V30 22416 C 2046.24 -5.19326 -3.22093 0
M  V30 22417 C 2047.24 -6.13767 -2.99631 0
M  V30 22418 O 2046.92 -7.46807 -2.97548 0
M  V30 22419 H 2046.66 -0.431678 -0.520222 0
M  V30 22420 H 2049.21 -1.74337 -1.08609 0
M  V30 22421 H 2047.44 -1.37543 -3.61412 0
M  V30 22422 H 2049.13 -1.79342 -3.64131 0
M  V30 22423 H 2049.9 -4.06705 -2.64228 0
M  V30 22424 H 2045.77 -3.10727 -3.40544 0
M  V30 22425 H 2049.32 -6.46757 -2.6144 0
M  V30 22426 H 2045.22 -5.49916 -3.38027 0
M  V30 22427 H 2045.98 -7.56054 -3.13567 0
M  V30 22428 N 2048.65 1.07897 -1.14873 0
M  V30 22429 C 2049.58 2.16955 -0.863287 0
M  V30 22430 C 2050.56 1.69103 0.183853 0
M  V30 22431 O 2051.74 1.9416 0.0394136 0
M  V30 22432 C 2048.87 3.45575 -0.345696 0
M  V30 22433 C 2047.83 4.06847 -1.32888 0
M  V30 22434 C 2047.15 5.30481 -0.670367 0
M  V30 22435 C 2048.45 4.47523 -2.69296 0
M  V30 22436 H 2050.15 2.41091 -1.77526 0
M  V30 22437 H 2047.69 1.1587 -0.854991 0
M  V30 22438 H 2049.65 4.21188 -0.133575 0
M  V30 22439 H 2048.37 3.21009 0.601722 0
M  V30 22440 H 2047.03 3.33272 -1.52726 0
M  V30 22441 H 2046.68 5.02203 0.283023 0
M  V30 22442 H 2046.38 5.72433 -1.32645 0
M  V30 22443 H 2047.9 6.08805 -0.467891 0
M  V30 22444 H 2049.31 5.1429 -2.53335 0
M  V30 22445 H 2047.71 5.00409 -3.31226 0
M  V30 22446 H 2048.78 3.59159 -3.2578 0
M  V30 22447 N 2050.12 0.944665 1.2615 0
M  V30 22448 C 2051.35 0.610956 1.97674 0
M  V30 22449 C 2051.77 -0.814818 1.70312 0
M  V30 22450 O 2051.12 -1.54376 0.973364 0
M  V30 22451 C 2051.18 0.847912 3.51415 0
M  V30 22452 O 2050.9 2.21761 3.77827 0
M  V30 22453 C 2052.4 0.525225 4.40178 0
M  V30 22454 H 2049.62 0.229933 0.630374 0
M  V30 22455 H 2052.16 1.26632 1.60576 0
M  V30 22456 H 2050.32 0.239105 3.86661 0
M  V30 22457 H 2050.73 2.28026 4.72339 0
M  V30 22458 H 2052.2 0.741624 5.46995 0
M  V30 22459 H 2052.68 -0.539903 4.35869 0
M  V30 22460 H 2053.29 1.11291 4.10481 0
M  V30 22461 N 2051.6 -1.40596 0.712085 0
M  V30 22462 C 2053.02 -1.5488 0.385286 0
M  V30 22463 C 2053.22 -1.68416 -1.10626 0
M  V30 22464 O 2052.27 -1.67179 -1.89228 0
M  V30 22465 C 2053.59 -2.77912 1.14828 0
M  V30 22466 C 2055.14 -2.91726 1.13424 0
M  V30 22467 C 2055.61 -4.17667 1.87931 0
M  V30 22468 N 2057.1 -4.2466 1.84982 0
M  V30 22469 C 2057.84 -5.21006 2.39459 0
M  V30 22470 N 2057.33 -6.23282 3.02476 0
M  V30 22471 N 2059.13 -5.1306 2.29621 0
M  V30 22472 H 2051.28 -1.30055 1.67927 0
M  V30 22473 H 2053.54 -0.628638 0.70959 0
M  V30 22474 H 2053.25 -2.74175 2.20275 0
M  V30 22475 H 2053.12 -3.69918 0.737606 0
M  V30 22476 H 2055.51 -2.94969 0.0879737 0
M  V30 22477 H 2055.59 -2.00848 1.5841 0
M  V30 22478 H 2055.23 -4.15186 2.92546 0
M  V30 22479 H 2055.16 -5.07548 1.40367 0
M  V30 22480 H 2057.65 -3.51387 1.39053 0
M  V30 22481 H 2057.97 -6.93217 3.4157 0
M  V30 22482 H 2056.31 -6.23736 3.06559 0
M  V30 22483 H 2059.5 -4.32088 1.80049 0
M  V30 22484 H 2059.67 -5.87975 2.72378 0
M  V30 22485 N 2053.08 -0.458013 -1.50798 0
M  V30 22486 C 2054.36 0.162411 -1.94925 0
M  V30 22487 C 2054.74 1.58194 -1.39777 0
M  V30 22488 O 2054.09 2.20663 -0.59332 0
M  V30 22489 C 2054.3 0.119083 -3.48797 0
M  V30 22490 C 2055.64 0.314458 -4.23434 0
M  V30 22491 O 2056.67 0.196266 -3.55659 0
M  V30 22492 O 2055.53 0.551722 -5.43708 0
M  V30 22493 H 2052.62 0.118781 -0.818425 0
M  V30 22494 H 2055.17 -0.517478 -1.61618 0
M  V30 22495 H 2053.94 -0.872528 -3.81448 0
M  V30 22496 H 2053.56 0.840995 -3.88604 0
M  V30 22497 N 2054.56 1.56449 -0.190119 0
M  V30 22498 C 2055.81 1.98494 0.444021 0
M  V30 22499 C 2056.16 1.07479 1.59581 0
M  V30 22500 O 2055.45 0.11819 1.91235 0
M  V30 22501 C 2055.65 3.44349 0.956988 0
M  V30 22502 C 2055.48 4.49471 -0.143558 0
M  V30 22503 C 2054.25 5.01731 -0.59953 0
M  V30 22504 C 2056.44 5.05436 -0.950731 0
M  V30 22505 N 2054.43 5.9051 -1.67842 0
M  V30 22506 C 2055.8 5.90837 -1.87913 0
M  V30 22507 C 2057.85 4.87883 -0.993705 0
M  V30 22508 C 2056.56 6.60563 -2.84692 0
M  V30 22509 C 2058.58 5.58343 -1.94953 0
M  V30 22510 C 2057.94 6.43487 -2.86537 0
M  V30 22511 H 2054.04 0.771111 0.130043 0
M  V30 22512 H 2056.63 1.92457 -0.294668 0
M  V30 22513 H 2054.8 3.50896 1.66513 0
M  V30 22514 H 2056.53 3.7337 1.56132 0
M  V30 22515 H 2053.28 4.73203 -0.193784 0
M  V30 22516 H 2053.71 6.39604 -2.21892 0
M  V30 22517 H 2058.35 4.21737 -0.299635 0
M  V30 22518 H 2056.07 7.2591 -3.55078 0
M  V30 22519 H 2059.65 5.4674 -1.98912 0
M  V30 22520 H 2058.53 6.9705 -3.59292 0
M  V30 22521 N 2056.04 -0.0835127 1.57379 0
M  V30 22522 C 2057.26 -0.801948 1.91268 0
M  V30 22523 C 2057.69 -1.70915 0.785469 0
M  V30 22524 O 2057.05 -1.79392 -0.262357 0
M  V30 22525 C 2057.09 -1.58151 3.24069 0
M  V30 22526 O 2056.2 -2.69134 3.12475 0
M  V30 22527 H 2055.54 -0.219566 0.626647 0
M  V30 22528 H 2058.07 -0.0552662 2.04525 0
M  V30 22529 H 2058.08 -1.96327 3.57659 0
M  V30 22530 H 2056.75 -0.915794 4.05692 0
M  V30 22531 H 2055.33 -2.33901 2.90422 0
M  V30 22532 N 2057.52 -1.53558 -0.354624 0
M  V30 22533 C 2058.76 -1.69489 -1.09346 0
M  V30 22534 C 2059.08 -0.458936 -1.9014 0
M  V30 22535 O 2060.28 -0.498981 -2.66875 0
M  V30 22536 C 2058.74 -2.99663 -1.99324 0
M  V30 22537 C 2058.35 -4.30558 -1.2379 0
M  V30 22538 C 2060.09 -3.2496 -2.73132 0
M  V30 22539 C 2058 -5.51814 -2.12733 0
M  V30 22540 H 2056.93 -0.631535 -0.411922 0
M  V30 22541 H 2059.58 -1.80059 -0.353687 0
M  V30 22542 H 2057.96 -2.82922 -2.77076 0
M  V30 22543 H 2059.14 -4.57966 -0.51025 0
M  V30 22544 H 2057.45 -4.11789 -0.617973 0
M  V30 22545 H 2060.05 -4.12739 -3.39927 0
M  V30 22546 H 2060.39 -2.41491 -3.39099 0
M  V30 22547 H 2060.92 -3.42426 -2.02458 0
M  V30 22548 H 2057.66 -6.37793 -1.51327 0
M  V30 22549 H 2057.18 -5.28669 -2.83317 0
M  V30 22550 H 2058.86 -5.87028 -2.72041 0
M  V30 22551 N 2058.99 0.615033 -1.45104 0
M  V30 22552 C 2059.92 1.73703 -1.56043 0
M  V30 22553 C 2060.9 1.65025 -0.412413 0
M  V30 22554 O 2062.09 1.83539 -0.634606 0
M  V30 22555 C 2059.22 3.12287 -1.51968 0
M  V30 22556 C 2058.17 3.35769 -2.65411 0
M  V30 22557 C 2057.5 4.74549 -2.46389 0
M  V30 22558 C 2058.8 3.26752 -4.07469 0
M  V30 22559 H 2060.49 1.64805 -2.4996 0
M  V30 22560 H 2058.04 0.791445 -1.203 0
M  V30 22561 H 2059.99 3.9057 -1.58219 0
M  V30 22562 H 2058.72 3.22008 -0.545769 0
M  V30 22563 H 2057.38 2.59874 -2.58575 0
M  V30 22564 H 2057.02 4.80994 -1.47153 0
M  V30 22565 H 2056.72 4.91217 -3.22458 0
M  V30 22566 H 2058.25 5.55041 -2.54482 0
M  V30 22567 H 2059.66 3.94918 -4.15587 0
M  V30 22568 H 2058.06 3.54952 -4.83869 0
M  V30 22569 H 2059.13 2.24305 -4.29902 0
M  V30 22570 N 2060.47 1.3227 0.85688 0
M  V30 22571 C 2061.72 1.22461 1.60772 0
M  V30 22572 C 2062.04 -0.214164 1.9382 0
M  V30 22573 O 2061.31 -1.13833 1.59433 0
M  V30 22574 H 2059.89 0.450259 0.596051 0
M  V30 22575 H 2062.55 1.65764 1.0251 0
M  V30 22576 H 2061.65 1.80566 2.54563 0
M  V30 22577 N 2061.95 -1.07287 1.15444 0
M  V30 22578 C 2063.36 -1.61368 0.939004 0
M  V30 22579 C 2063.71 -1.89196 -0.519532 0
M  V30 22580 O 2062.84 -1.65791 -1.39076 0
M  V30 22581 C 2063.43 -2.93171 1.69813 0
M  V30 22582 C 2061.99 -3.43992 1.52796 0
M  V30 22583 C 2061.14 -2.1804 1.7133 0
M  V30 22584 H 2064.09 -0.903656 1.3046 0
M  V30 22585 H 2064.11 -3.62129 1.16802 0
M  V30 22586 H 2063.62 -2.72885 2.75963 0
M  V30 22587 H 2061.72 -3.69358 0.490429 0
M  V30 22588 H 2061.84 -4.19988 2.30536 0
M  V30 22589 H 2060.2 -2.2777 1.13987 0
M  V30 22590 H 2060.98 -2.00248 2.78847 0
M  V30 22591 N 2063.43 -0.951342 -1.25647 0
M  V30 22592 C 2064.38 -0.439691 -2.2372 0
M  V30 22593 C 2065.36 0.469243 -1.53906 0
M  V30 22594 O 2066.55 0.302832 -1.7439 0
M  V30 22595 C 2063.68 0.284397 -3.4212 0
M  V30 22596 C 2062.77 -0.642416 -4.19206 0
M  V30 22597 N 2063.16 -1.77263 -4.73721 0
M  V30 22598 C 2061.46 -0.449973 -4.43724 0
M  V30 22599 C 2062.16 -2.35101 -5.32074 0
M  V30 22600 N 2061.13 -1.6379 -5.18337 0
M  V30 22601 H 2064.94 -1.30229 -2.63472 0
M  V30 22602 H 2062.45 -0.808431 -1.40848 0
M  V30 22603 H 2064.45 0.668054 -4.11513 0
M  V30 22604 H 2063.11 1.14364 -3.03893 0
M  V30 22605 H 2064.12 -2.15456 -4.70955 0
M  V30 22606 H 2060.8 0.366665 -4.15887 0
M  V30 22607 H 2062.19 -3.30386 -5.8506 0
M  V30 22608 N 2064.91 1.40216 -0.719531 0
M  V30 22609 C 2065.86 2.27954 -0.0458686 0
M  V30 22610 C 2066.84 1.43462 0.728523 0
M  V30 22611 O 2068.03 1.66518 0.600075 0
M  V30 22612 C 2065.16 3.32035 0.872205 0
M  V30 22613 C 2064.25 4.23998 0.0927891 0
M  V30 22614 N 2064.64 4.97251 -0.926022 0
M  V30 22615 C 2062.94 4.44816 0.324761 0
M  V30 22616 C 2063.64 5.64733 -1.39469 0
M  V30 22617 N 2062.61 5.38862 -0.716112 0
M  V30 22618 H 2066.41 2.82035 -0.826658 0
M  V30 22619 H 2063.93 1.52714 -0.552469 0
M  V30 22620 H 2065.93 3.93741 1.37017 0
M  V30 22621 H 2064.59 2.79514 1.65233 0
M  V30 22622 H 2065.6 5.01137 -1.30698 0
M  V30 22623 H 2062.27 4.03265 1.0809 0
M  V30 22624 H 2063.66 6.3341 -2.24145 0
M  V30 22625 N 2066.38 0.466004 1.50553 0
M  V30 22626 C 2067.31 -0.320802 2.31286 0
M  V30 22627 C 2068.29 -0.995008 1.37962 0
M  V30 22628 O 2069.48 -0.993158 1.66883 0
M  V30 22629 C 2066.61 -1.40607 3.17564 0
M  V30 22630 C 2065.56 -0.853763 4.19398 0
M  V30 22631 C 2064.89 -2.03694 4.94381 0
M  V30 22632 C 2066.19 0.131478 5.22134 0
M  V30 22633 H 2067.88 0.352995 2.97312 0
M  V30 22634 H 2065.43 0.171207 1.42979 0
M  V30 22635 H 2067.38 -1.96395 3.72836 0
M  V30 22636 H 2066.11 -2.10857 2.49413 0
M  V30 22637 H 2064.77 -0.317899 3.65219 0
M  V30 22638 H 2064.41 -2.7263 4.22708 0
M  V30 22639 H 2064.11 -1.67364 5.63261 0
M  V30 22640 H 2065.64 -2.59982 5.52487 0
M  V30 22641 H 2067.05 -0.337046 5.72308 0
M  V30 22642 H 2065.45 0.408804 5.98706 0
M  V30 22643 H 2066.52 1.05903 4.73194 0
M  V30 22644 N 2067.86 -1.56346 0.198413 0
M  V30 22645 C 2069.14 -1.89433 -0.487272 0
M  V30 22646 C 2069.52 -1.11243 -1.79411 0
M  V30 22647 O 2068.87 -0.214538 -2.27491 0
M  V30 22648 C 2069.08 -3.4185 -0.702822 0
M  V30 22649 C 2070.42 -4.12149 -1.0207 0
M  V30 22650 O 2071.45 -3.47319 -0.790427 0
M  V30 22651 O 2070.31 -5.26735 -1.45647 0
M  V30 22652 H 2067.4 -0.786878 -0.254463 0
M  V30 22653 H 2069.95 -1.6801 0.238874 0
M  V30 22654 H 2068.72 -3.90682 0.219919 0
M  V30 22655 H 2068.34 -3.68976 -1.48131 0
M  V30 22656 N 2069.34 0.0751653 -1.57421 0
M  V30 22657 C 2070.25 1.10763 -2.06806 0
M  V30 22658 C 2071.27 1.4261 -0.99691 0
M  V30 22659 O 2072.44 1.52854 -1.31139 0
M  V30 22660 C 2069.51 2.40281 -2.49932 0
M  V30 22661 C 2068.57 2.15435 -3.7133 0
M  V30 22662 C 2067.8 3.38777 -4.1239 0
M  V30 22663 O 2068.02 4.4777 -3.53353 0
M  V30 22664 O 2066.96 3.27189 -5.05204 0
M  V30 22665 H 2070.78 0.718102 -2.95088 0
M  V30 22666 H 2068.37 0.289065 -1.46577 0
M  V30 22667 H 2070.25 3.16509 -2.78208 0
M  V30 22668 H 2068.93 2.7862 -1.64781 0
M  V30 22669 H 2067.83 1.36922 -3.48142 0
M  V30 22670 H 2069.17 1.81978 -4.57324 0
M  V30 22671 N 2070.82 1.53744 0.346476 0
M  V30 22672 C 2072.07 1.70849 1.08705 0
M  V30 22673 C 2072.39 0.470151 1.88732 0
M  V30 22674 O 2071.65 -0.548082 1.87868 0
M  V30 22675 C 2071.95 2.92192 2.05812 0
M  V30 22676 C 2071.61 4.27917 1.42119 0
M  V30 22677 C 2070.28 4.64821 1.24477 0
M  V30 22678 C 2072.63 5.12243 0.962087 0
M  V30 22679 C 2069.96 5.83671 0.595386 0
M  V30 22680 C 2072.31 6.31756 0.326627 0
M  V30 22681 C 2070.97 6.67358 0.137866 0
M  V30 22682 H 2070.24 0.625182 0.397779 0
M  V30 22683 H 2072.89 1.87957 0.366657 0
M  V30 22684 H 2071.19 2.69675 2.84223 0
M  V30 22685 H 2072.89 3.0262 2.63101 0
M  V30 22686 H 2069.48 3.9887 1.56847 0
M  V30 22687 H 2073.66 4.84267 1.08625 0
M  V30 22688 H 2068.92 6.09831 0.437727 0
M  V30 22689 H 2073.09 6.9639 -0.0372189 0
M  V30 22690 H 2070.72 7.59312 -0.367372 0
M  V30 22691 N 2072.3 -0.607329 1.45428 0
M  V30 22692 C 2073.24 -1.71802 1.54119 0
M  V30 22693 C 2074.21 -1.61527 0.387071 0
M  V30 22694 O 2075.4 -1.81102 0.60055 0
M  V30 22695 C 2072.54 -3.10112 1.5141 0
M  V30 22696 C 2071.65 -3.31191 2.77375 0
M  V30 22697 C 2070.79 -4.59608 2.66335 0
M  V30 22698 C 2069.83 -4.73946 3.87353 0
M  V30 22699 N 2068.96 -5.93662 3.74846 0
M  V30 22700 H 2073.8 -1.6371 2.49004 0
M  V30 22701 H 2071.34 -0.798251 1.23557 0
M  V30 22702 H 2073.3 -3.90132 1.47826 0
M  V30 22703 H 2071.93 -3.17161 0.600749 0
M  V30 22704 H 2070.98 -2.44944 2.91044 0
M  V30 22705 H 2072.29 -3.37658 3.67135 0
M  V30 22706 H 2071.45 -5.47823 2.60719 0
M  V30 22707 H 2070.18 -4.55538 1.74174 0
M  V30 22708 H 2069.19 -3.84153 3.93327 0
M  V30 22709 H 2070.41 -4.79812 4.8058 0
M  V30 22710 H 2068.36 -5.90637 2.85454 0
M  V30 22711 H 2068.28 -6.01291 4.58241 0
M  V30 22712 H 2069.55 -6.84375 3.73163 0
M  V30 22713 N 2073.77 -1.32722 -0.849853 0
M  V30 22714 C 2074.74 -1.21991 -1.94038 0
M  V30 22715 C 2075.74 -0.141727 -1.60174 0
M  V30 22716 O 2076.93 -0.392477 -1.69721 0
M  V30 22717 C 2074.06 -0.877223 -3.2942 0
M  V30 22718 H 2075.25 -2.18913 -2.04981 0
M  V30 22719 H 2072.81 -1.16623 -1.04062 0
M  V30 22720 H 2073.54 0.0899704 -3.24175 0
M  V30 22721 H 2073.33 -1.65681 -3.55376 0
M  V30 22722 H 2074.82 -0.826588 -4.09338 0
M  V30 22723 N 2075.25 1.06673 -1.16011 0
M  V30 22724 C 2076.5 1.78785 -0.933751 0
M  V30 22725 C 2076.81 1.87999 0.539969 0
M  V30 22726 O 2078.02 2.56701 0.884117 0
M  V30 22727 C 2076.48 3.21313 -1.6213 0
M  V30 22728 C 2076.08 3.20277 -3.13252 0
M  V30 22729 C 2077.83 3.97985 -1.47675 0
M  V30 22730 C 2075.74 4.57501 -3.74762 0
M  V30 22731 H 2074.67 0.670074 -0.345711 0
M  V30 22732 H 2077.32 1.19679 -1.39101 0
M  V30 22733 H 2075.7 3.80653 -1.09174 0
M  V30 22734 H 2076.87 2.70541 -3.7302 0
M  V30 22735 H 2075.19 2.57103 -3.27547 0
M  V30 22736 H 2077.78 4.99417 -1.91016 0
M  V30 22737 H 2078.13 4.14123 -0.425173 0
M  V30 22738 H 2078.66 3.45157 -1.97766 0
M  V30 22739 H 2075.4 4.46568 -4.79851 0
M  V30 22740 H 2074.92 5.07446 -3.19778 0
M  V30 22741 H 2076.6 5.26463 -3.76093 0
M  V30 22742 N 2076.73 0.957992 1.25141 0
M  V30 22743 C 2077.98 0.625071 1.93557 0
M  V30 22744 C 2078.33 -0.829302 1.7361 0
M  V30 22745 O 2077.62 -1.58763 1.07261 0
M  V30 22746 C 2077.82 0.923523 3.45262 0
M  V30 22747 C 2077.65 2.40536 3.79964 0
M  V30 22748 C 2076.42 3.0635 4.01843 0
M  V30 22749 C 2078.62 3.38489 3.87207 0
M  V30 22750 N 2076.6 4.44371 4.23565 0
M  V30 22751 C 2077.97 4.6183 4.13658 0
M  V30 22752 C 2080.02 3.33281 3.69903 0
M  V30 22753 C 2078.73 5.80608 4.24603 0
M  V30 22754 C 2080.75 4.514 3.82088 0
M  V30 22755 C 2080.11 5.73529 4.08954 0
M  V30 22756 H 2076.21 0.279402 0.730383 0
M  V30 22757 H 2078.8 1.23086 1.50857 0
M  V30 22758 H 2076.97 0.346636 3.8685 0
M  V30 22759 H 2078.7 0.550165 4.00943 0
M  V30 22760 H 2075.46 2.5691 3.97862 0
M  V30 22761 H 2075.88 5.15861 4.38425 0
M  V30 22762 H 2080.52 2.39904 3.48146 0
M  V30 22763 H 2078.24 6.74422 4.45174 0
M  V30 22764 H 2081.83 4.48922 3.70082 0
M  V30 22765 H 2080.71 6.63403 4.1817 0
M  V30 22766 N 2078.21 -1.39832 0.726957 0
M  V30 22767 C 2079.17 -2.29022 0.0903329 0
M  V30 22768 C 2080.17 -1.45921 -0.675553 0
M  V30 22769 O 2081.36 -1.66696 -0.505765 0
M  V30 22770 C 2078.49 -3.29304 -0.881584 0
M  V30 22771 H 2079.69 -2.86821 0.87601 0
M  V30 22772 H 2077.24 -1.48345 0.492294 0
M  V30 22773 H 2077.97 -2.76545 -1.69391 0
M  V30 22774 H 2077.76 -3.90665 -0.33514 0
M  V30 22775 H 2079.25 -3.96061 -1.32384 0
M  V30 22776 N 2079.69 -0.473982 -1.50304 0
M  V30 22777 C 2080.6 0.323933 -2.32353 0
M  V30 22778 C 2081.61 0.993251 -1.42865 0
M  V30 22779 O 2082.79 0.980589 -1.75916 0
M  V30 22780 C 2079.85 1.38999 -3.17616 0
M  V30 22781 C 2078.91 0.736965 -4.22927 0
M  V30 22782 C 2078.15 1.75223 -5.04116 0
M  V30 22783 O 2078.37 2.97908 -4.86423 0
M  V30 22784 O 2077.3 1.32246 -5.87192 0
M  V30 22785 H 2081.13 -0.346913 -3.01712 0
M  V30 22786 H 2078.72 -0.235777 -1.47528 0
M  V30 22787 H 2080.6 2.00742 -3.70514 0
M  V30 22788 H 2079.27 2.04425 -2.50982 0
M  V30 22789 H 2078.18 0.0805047 -3.74013 0
M  V30 22790 H 2079.51 0.125602 -4.9204 0
M  V30 22791 N 2081.16 1.56239 -0.206702 0
M  V30 22792 C 2082.39 2.01998 0.433638 0
M  V30 22793 C 2082.8 1.08593 1.54933 0
M  V30 22794 O 2082.15 0.0850804 1.83503 0
M  V30 22795 C 2082.21 3.4413 1.03993 0
M  V30 22796 C 2081.87 4.56959 0.0615327 0
M  V30 22797 C 2082.87 5.14701 -0.733387 0
M  V30 22798 C 2080.55 5.02272 -0.0529169 0
M  V30 22799 C 2082.55 6.16216 -1.62961 0
M  V30 22800 C 2080.23 6.03628 -0.952684 0
M  V30 22801 C 2081.23 6.60475 -1.73959 0
M  V30 22802 O 2080.92 7.59861 -2.62425 0
M  V30 22803 H 2080.65 0.666655 0.112011 0
M  V30 22804 H 2083.21 2.02952 -0.316153 0
M  V30 22805 H 2081.44 3.40198 1.83853 0
M  V30 22806 H 2083.13 3.73627 1.58612 0
M  V30 22807 H 2083.89 4.80552 -0.655335 0
M  V30 22808 H 2079.77 4.57714 0.549424 0
M  V30 22809 H 2083.31 6.60514 -2.24425 0
M  V30 22810 H 2079.21 6.372 -1.03181 0
M  V30 22811 H 2079.98 7.77326 -2.56334 0
M  V30 22812 N 2082.64 -0.0668159 1.57458 0
M  V30 22813 C 2083.92 -0.798309 1.78568 0
M  V30 22814 C 2084.3 -1.95537 0.79552 0
M  V30 22815 O 2083.65 -2.27864 -0.170331 0
M  V30 22816 C 2083.86 -1.26662 3.25204 0
M  V30 22817 C 2085.21 -1.69798 3.89171 0
M  V30 22818 O 2086.23 -1.36216 3.29125 0
M  V30 22819 O 2085.09 -2.31989 4.94817 0
M  V30 22820 H 2082.18 -0.382924 0.733006 0
M  V30 22821 H 2084.73 -0.0465065 1.69636 0
M  V30 22822 H 2083.5 -0.438929 3.8883 0
M  V30 22823 H 2083.12 -2.07959 3.38879 0
M  V30 22824 N 2084.12 -1.53926 -0.338317 0
M  V30 22825 C 2085.53 -1.62818 -0.913629 0
M  V30 22826 C 2085.88 -0.512813 -1.8938 0
M  V30 22827 O 2085.01 0.356629 -2.13441 0
M  V30 22828 C 2085.6 -2.9513 -1.66385 0
M  V30 22829 C 2084.16 -3.06267 -2.1881 0
M  V30 22830 C 2083.31 -2.58298 -1.00884 0
M  V30 22831 H 2086.26 -1.58273 -0.116306 0
M  V30 22832 H 2086.28 -2.84463 -2.52708 0
M  V30 22833 H 2085.79 -3.76288 -0.950215 0
M  V30 22834 H 2083.89 -2.29753 -2.93333 0
M  V30 22835 H 2084.01 -4.11824 -2.44822 0
M  V30 22836 H 2082.37 -2.13832 -1.38376 0
M  V30 22837 H 2083.15 -3.419 -0.309757 0
M  V30 22838 N 2085.6 0.599608 -1.45748 0
M  V30 22839 C 2086.51 1.73797 -1.57581 0
M  V30 22840 C 2087.53 1.67812 -0.45992 0
M  V30 22841 O 2088.7 1.88024 -0.721718 0
M  V30 22842 C 2085.77 3.10276 -1.54693 0
M  V30 22843 C 2084.83 3.27654 -2.77383 0
M  V30 22844 C 2084.06 4.57622 -2.74623 0
M  V30 22845 O 2084.28 5.40449 -1.82404 0
M  V30 22846 O 2083.22 4.77885 -3.65937 0
M  V30 22847 H 2087.04 1.66764 -2.53818 0
M  V30 22848 H 2084.63 0.764651 -1.28349 0
M  V30 22849 H 2086.51 3.91573 -1.55719 0
M  V30 22850 H 2085.19 3.17783 -0.616105 0
M  V30 22851 H 2084.09 2.45914 -2.81917 0
M  V30 22852 H 2085.43 3.25028 -3.69618 0
M  V30 22853 N 2087.08 1.33171 0.842803 0
M  V30 22854 C 2088.04 1.23019 1.93388 0
M  V30 22855 C 2089.04 0.15022 1.60097 0
M  V30 22856 O 2090.23 0.401472 1.69511 0
M  V30 22857 C 2087.36 0.89468 3.2895 0
M  V30 22858 H 2088.56 2.19997 2.03817 0
M  V30 22859 H 2086.11 1.17173 1.03442 0
M  V30 22860 H 2086.84 -0.0727774 3.24218 0
M  V30 22861 H 2086.63 1.67563 3.54493 0
M  V30 22862 H 2088.12 0.848284 4.08894 0
M  V30 22863 N 2088.56 -1.06056 1.16576 0
M  V30 22864 C 2089.5 -2.13591 0.874513 0
M  V30 22865 C 2090.47 -1.65143 -0.178027 0
M  V30 22866 O 2091.66 -1.90752 -0.0427107 0
M  V30 22867 C 2088.8 -3.42953 0.384377 0
M  V30 22868 C 2087.91 -4.05121 1.50002 0
M  V30 22869 C 2087.05 -5.22367 0.964658 0
M  V30 22870 C 2086.08 -5.76525 2.05635 0
M  V30 22871 N 2085.22 -6.85084 1.53639 0
M  V30 22872 H 2090.06 -2.37842 1.79541 0
M  V30 22873 H 2087.6 -1.16692 0.895622 0
M  V30 22874 H 2089.56 -4.1712 0.0818205 0
M  V30 22875 H 2088.19 -3.18911 -0.499573 0
M  V30 22876 H 2087.24 -3.28478 1.91849 0
M  V30 22877 H 2088.55 -4.41366 2.32374 0
M  V30 22878 H 2087.7 -6.03571 0.615426 0
M  V30 22879 H 2086.44 -4.87575 0.110275 0
M  V30 22880 H 2085.45 -4.93957 2.41425 0
M  V30 22881 H 2086.67 -6.13368 2.91474 0
M  V30 22882 H 2084.62 -6.52205 0.70458 0
M  V30 22883 H 2084.54 -7.20283 2.29626 0
M  V30 22884 H 2085.8 -7.6996 1.21581 0
M  V30 22885 N 2090.03 -0.964615 -1.24631 0
M  V30 22886 C 2091.28 -0.623582 -1.92239 0
M  V30 22887 C 2091.6 0.843493 -1.75813 0
M  V30 22888 O 2090.87 1.60179 -1.12781 0
M  V30 22889 H 2089.45 -0.227644 -0.711468 0
M  V30 22890 H 2092.11 -1.22502 -1.51589 0
M  V30 22891 H 2091.21 -0.861514 -2.99974 0
M  V30 22892 N 2091.51 1.39445 -0.734362 0
M  V30 22893 C 2092.93 1.54247 -0.409878 0
M  V30 22894 C 2093.13 1.70155 1.07933 0
M  V30 22895 O 2092.18 1.70169 1.86545 0
M  V30 22896 C 2093.5 2.7605 -1.19234 0
M  V30 22897 C 2095.04 2.89885 -1.1805 0
M  V30 22898 C 2095.52 4.14625 -1.94552 0
M  V30 22899 N 2097.01 4.21663 -1.91715 0
M  V30 22900 C 2097.75 5.1713 -2.47717 0
M  V30 22901 N 2097.24 6.1839 -3.12354 0
M  V30 22902 N 2099.03 5.09342 -2.37754 0
M  V30 22903 H 2091.19 1.27367 -1.69975 0
M  V30 22904 H 2093.45 0.61727 -0.719501 0
M  V30 22905 H 2093.15 2.70636 -2.24609 0
M  V30 22906 H 2093.03 3.68698 -0.796363 0
M  V30 22907 H 2095.42 2.94792 -0.13489 0
M  V30 22908 H 2095.5 1.98302 -1.61585 0
M  V30 22909 H 2095.14 4.10479 -2.99114 0
M  V30 22910 H 2095.07 5.0525 -1.48424 0
M  V30 22911 H 2097.56 3.4913 -1.44625 0
M  V30 22912 H 2097.87 6.87695 -3.52555 0
M  V30 22913 H 2096.22 6.1878 -3.16444 0
M  V30 22914 H 2099.41 4.29169 -1.86901 0
M  V30 22915 H 2099.58 5.83567 -2.81698 0
M  V30 22916 N 2092.99 0.481946 1.5005 0
M  V30 22917 C 2094.24 -0.0710199 2.01575 0
M  V30 22918 C 2094.55 -1.39798 1.36806 0
M  V30 22919 O 2095.76 -2.03653 1.79549 0
M  V30 22920 C 2094.21 -0.177064 3.59464 0
M  V30 22921 C 2093.82 1.14212 4.33197 0
M  V30 22922 C 2095.57 -0.681409 4.18995 0
M  V30 22923 C 2093.47 0.999274 5.82897 0
M  V30 22924 H 2092.4 -0.0303162 0.75339 0
M  V30 22925 H 2095.05 0.618487 1.72763 0
M  V30 22926 H 2093.44 -0.930598 3.8491 0
M  V30 22927 H 2094.61 1.90745 4.19467 0
M  V30 22928 H 2092.92 1.57841 3.85325 0
M  V30 22929 H 2095.52 -0.805484 5.28598 0
M  V30 22930 H 2095.86 -1.6755 3.81094 0
M  V30 22931 H 2096.4 0.015045 3.97797 0
M  V30 22932 H 2093.14 1.96706 6.2529 0
M  V30 22933 H 2092.66 0.274505 5.99172 0
M  V30 22934 H 2094.34 0.670265 6.43519 0
M  V30 22935 N 2094.47 -1.56127 0.214985 0
M  V30 22936 C 2095.41 -2.19998 -0.697834 0
M  V30 22937 C 2096.38 -1.15346 -1.19518 0
M  V30 22938 O 2097.57 -1.43676 -1.25547 0
M  V30 22939 C 2094.71 -2.87874 -1.90323 0
M  V30 22940 C 2093.82 -4.07102 -1.44539 0
M  V30 22941 C 2092.96 -4.6278 -2.60784 0
M  V30 22942 C 2092 -5.74324 -2.11705 0
M  V30 22943 N 2091.13 -6.24321 -3.21198 0
M  V30 22944 H 2095.97 -2.9764 -0.146443 0
M  V30 22945 H 2093.51 -1.46975 -0.0605317 0
M  V30 22946 H 2095.47 -3.25408 -2.61085 0
M  V30 22947 H 2094.1 -2.12761 -2.42761 0
M  V30 22948 H 2093.15 -3.75098 -0.632926 0
M  V30 22949 H 2094.46 -4.87721 -1.04546 0
M  V30 22950 H 2093.62 -5.02723 -3.39639 0
M  V30 22951 H 2092.36 -3.8131 -3.04062 0
M  V30 22952 H 2091.36 -5.33889 -1.31309 0
M  V30 22953 H 2092.59 -6.57624 -1.69434 0
M  V30 22954 H 2090.53 -5.45767 -3.6397 0
M  V30 22955 H 2090.45 -7.00044 -2.85437 0
M  V30 22956 H 2091.72 -6.6892 -4.00208 0
M  V30 22957 N 2095.95 0.0584645 -1.57492 0
M  V30 22958 C 2096.9 1.07525 -2.01053 0
M  V30 22959 C 2097.88 1.33726 -0.894772 0
M  V30 22960 O 2099.07 1.33803 -1.15869 0
M  V30 22961 C 2096.2 2.38516 -2.46911 0
M  V30 22962 C 2095.29 2.15532 -3.65249 0
M  V30 22963 N 2095.68 1.62515 -4.78981 0
M  V30 22964 C 2093.98 2.45948 -3.72056 0
M  V30 22965 C 2094.68 1.54656 -5.60764 0
M  V30 22966 N 2093.65 2.01181 -5.05002 0
M  V30 22967 H 2097.45 0.658876 -2.86419 0
M  V30 22968 H 2094.97 0.265312 -1.60218 0
M  V30 22969 H 2096.97 3.12135 -2.76365 0
M  V30 22970 H 2095.63 2.80858 -1.62938 0
M  V30 22971 H 2096.64 1.31192 -5.01008 0
M  V30 22972 H 2093.31 2.91566 -2.98824 0
M  V30 22973 H 2094.7 1.14405 -6.62088 0
M  V30 22974 N 2097.42 1.54103 0.330149 0
M  V30 22975 C 2098.35 1.8602 1.41134 0
M  V30 22976 C 2099.33 0.716429 1.54277 0
M  V30 22977 O 2100.52 0.969568 1.68265 0
M  V30 22978 C 2097.65 2.08171 2.77997 0
M  V30 22979 C 2096.6 3.24007 2.79649 0
M  V30 22980 C 2095.93 3.31516 4.19525 0
M  V30 22981 C 2097.23 4.6181 2.43985 0
M  V30 22982 H 2098.92 2.76569 1.14672 0
M  V30 22983 H 2096.47 1.33074 0.550199 0
M  V30 22984 H 2098.42 2.29083 3.53694 0
M  V30 22985 H 2097.15 1.14364 3.05922 0
M  V30 22986 H 2095.81 3.02971 2.06407 0
M  V30 22987 H 2095.45 2.3528 4.44581 0
M  V30 22988 H 2095.15 4.09364 4.21538 0
M  V30 22989 H 2096.68 3.54655 4.97044 0
M  V30 22990 H 2098.09 4.82647 3.09395 0
M  V30 22991 H 2096.49 5.4216 2.5726 0
M  V30 22992 H 2097.56 4.64507 1.39146 0
M  V30 22993 N 2098.9 -0.59187 1.46064 0
M  V30 22994 C 2100.18 -1.35177 1.41374 0
M  V30 22995 C 2100.56 -2.10898 0.09244 0
M  V30 22996 O 2099.91 -2.08901 -0.925879 0
M  V30 22997 C 2100.12 -2.28545 2.63758 0
M  V30 22998 C 2101.47 -2.90662 3.09517 0
M  V30 22999 O 2102.49 -2.38861 2.64242 0
M  V30 23000 O 2101.35 -3.84728 3.88133 0
M  V30 23001 H 2098.44 -0.606905 0.561778 0
M  V30 23002 H 2100.99 -0.61365 1.58216 0
M  V30 23003 H 2099.76 -1.71959 3.51491 0
M  V30 23004 H 2099.38 -3.09711 2.49328 0
M  V30 23005 N 2100.38 -1.33616 -0.835729 0
M  V30 23006 C 2101.63 -1.25436 -1.59354 0
M  V30 23007 C 2101.96 0.178683 -1.93376 0
M  V30 23008 O 2101.23 1.12082 -1.58959 0
M  V30 23009 C 2101.52 -2.13273 -2.9015 0
M  V30 23010 C 2101.37 -3.65051 -2.62789 0
M  V30 23011 C 2102.69 -2.00828 -3.91607 0
M  V30 23012 H 2099.81 -0.457008 -0.578198 0
M  V30 23013 H 2102.45 -1.63747 -0.963686 0
M  V30 23014 H 2100.6 -1.8073 -3.43902 0
M  V30 23015 H 2102.27 -4.07899 -2.15444 0
M  V30 23016 H 2100.52 -3.86775 -1.96437 0
M  V30 23017 H 2101.19 -4.2186 -3.56003 0
M  V30 23018 H 2103.66 -2.29375 -3.47169 0
M  V30 23019 H 2102.54 -2.64533 -4.8095 0
M  V30 23020 H 2102.8 -0.98144 -4.31069 0
M  V30 23021 N 2101.86 1.05436 -1.17136 0
M  V30 23022 C 2103.1 1.78658 -0.959644 0
M  V30 23023 C 2103.44 1.87366 0.510659 0
M  V30 23024 O 2102.71 1.37162 1.37901 0
M  V30 23025 C 2103 3.22682 -1.59839 0
M  V30 23026 C 2102.85 3.22002 -3.14062 0
M  V30 23027 C 2104.17 4.20454 -1.30023 0
M  V30 23028 H 2101.29 0.648566 -0.350044 0
M  V30 23029 H 2103.93 1.23254 -1.44598 0
M  V30 23030 H 2102.08 3.69992 -1.18484 0
M  V30 23031 H 2103.75 2.82787 -3.64457 0
M  V30 23032 H 2101.99 2.60411 -3.46941 0
M  V30 23033 H 2102.66 4.23642 -3.53881 0
M  V30 23034 H 2105.14 3.81628 -1.65829 0
M  V30 23035 H 2104.02 5.19475 -1.77304 0
M  V30 23036 H 2104.28 4.41549 -0.220588 0
M  V30 23037 N 2103.34 0.971211 1.24118 0
M  V30 23038 C 2104.56 0.652748 1.96333 0
M  V30 23039 C 2104.98 -0.778509 1.72002 0
M  V30 23040 O 2104.34 -1.52276 1.00589 0
M  V30 23041 C 2104.39 0.922262 3.49538 0
M  V30 23042 O 2104.11 2.29726 3.73039 0
M  V30 23043 C 2105.61 0.618475 4.38964 0
M  V30 23044 H 2102.83 0.243252 0.625355 0
M  V30 23045 H 2105.37 1.3001 1.57853 0
M  V30 23046 H 2103.53 0.321067 3.86067 0
M  V30 23047 H 2103.94 2.37994 4.67396 0
M  V30 23048 H 2105.42 0.857482 5.45299 0
M  V30 23049 H 2105.89 -0.447327 4.36916 0
M  V30 23050 H 2106.5 1.19973 4.08028 0
M  V30 23051 N 2104.81 -1.39054 0.741747 0
M  V30 23052 C 2105.74 -2.33184 0.121433 0
M  V30 23053 C 2106.73 -1.54261 -0.716774 0
M  V30 23054 O 2107.91 -1.82627 -0.660379 0
M  V30 23055 C 2105.04 -3.38393 -0.78152 0
M  V30 23056 C 2103.99 -4.27974 -0.046955 0
M  V30 23057 C 2103.32 -5.23938 -1.06737 0
M  V30 23058 C 2104.62 -5.10272 1.11446 0
M  V30 23059 H 2106.31 -2.85308 0.907724 0
M  V30 23060 H 2103.86 -1.37179 0.437953 0
M  V30 23061 H 2105.81 -4.032 -1.22506 0
M  V30 23062 H 2104.54 -2.84724 -1.6 0
M  V30 23063 H 2103.2 -3.64656 0.377036 0
M  V30 23064 H 2102.84 -4.66562 -1.8796 0
M  V30 23065 H 2102.54 -5.84725 -0.580605 0
M  V30 23066 H 2104.07 -5.91622 -1.51048 0
M  V30 23067 H 2105.48 -5.68386 0.749042 0
M  V30 23068 H 2103.88 -5.80234 1.53131 0
M  V30 23069 H 2104.95 -4.44706 1.93299 0
M  V30 23070 N 2106.29 -0.489897 -1.49792 0
M  V30 23071 C 2107.22 0.283966 -2.31767 0
M  V30 23072 C 2108.2 0.972934 -1.39528 0
M  V30 23073 O 2109.39 0.966482 -1.68442 0
M  V30 23074 C 2106.52 1.35538 -3.19761 0
M  V30 23075 C 2105.47 0.786932 -4.20703 0
M  V30 23076 C 2104.8 1.95803 -4.97559 0
M  V30 23077 C 2106.1 -0.214528 -5.21859 0
M  V30 23078 H 2107.79 -0.40025 -2.96713 0
M  V30 23079 H 2105.34 -0.193932 -1.42688 0
M  V30 23080 H 2107.29 1.90438 -3.75914 0
M  V30 23081 H 2106.02 2.06862 -2.52736 0
M  V30 23082 H 2104.67 0.259755 -3.65679 0
M  V30 23083 H 2104.32 2.65871 -4.26992 0
M  V30 23084 H 2104.02 1.58381 -5.65853 0
M  V30 23085 H 2105.55 2.51159 -5.56553 0
M  V30 23086 H 2106.96 0.245954 -5.72772 0
M  V30 23087 H 2105.36 -0.504002 -5.9798 0
M  V30 23088 H 2106.43 -1.13417 -4.71449 0
M  V30 23089 N 2107.77 1.56011 -0.223262 0
M  V30 23090 C 2109.19 1.59052 0.132091 0
M  V30 23091 C 2109.39 1.2401 1.5882 0
M  V30 23092 O 2108.44 0.976155 2.32868 0
M  V30 23093 C 2109.76 3.00062 -0.195742 0
M  V30 23094 C 2111.3 3.12695 -0.138118 0
M  V30 23095 C 2111.78 4.55885 -0.439651 0
M  V30 23096 N 2113.27 4.61561 -0.389284 0
M  V30 23097 C 2114 5.70293 -0.596069 0
M  V30 23098 N 2113.5 6.87382 -0.86472 0
M  V30 23099 N 2115.29 5.59611 -0.528389 0
M  V30 23100 H 2107.44 1.77064 -1.17312 0
M  V30 23101 H 2109.71 0.823097 -0.470336 0
M  V30 23102 H 2109.41 3.3036 -1.20644 0
M  V30 23103 H 2109.29 3.74024 0.48845 0
M  V30 23104 H 2111.67 2.82192 0.863219 0
M  V30 23105 H 2111.76 2.41059 -0.855813 0
M  V30 23106 H 2111.4 4.87105 -1.43843 0
M  V30 23107 H 2111.33 5.25749 0.299255 0
M  V30 23108 H 2113.82 3.77425 -0.189406 0
M  V30 23109 H 2114.13 7.66164 -1.01056 0
M  V30 23110 H 2112.48 6.89123 -0.901933 0
M  V30 23111 H 2115.67 4.67014 -0.318724 0
M  V30 23112 H 2115.84 6.44284 -0.69295 0
M  V30 23113 N 2109.25 -0.0501116 1.5752 0
M  V30 23114 C 2110.66 -0.405366 1.54366 0
M  V30 23115 C 2110.86 -1.77885 0.946523 0
M  V30 23116 O 2109.92 -2.46248 0.558406 0
M  V30 23117 C 2111.23 -0.326523 2.98922 0
M  V30 23118 C 2112.78 -0.40514 3.10367 0
M  V30 23119 C 2113.26 -0.355974 4.56615 0
M  V30 23120 N 2114.75 -0.415404 4.61334 0
M  V30 23121 C 2115.48 -0.39992 5.72004 0
M  V30 23122 N 2114.98 -0.337966 6.91975 0
M  V30 23123 N 2116.77 -0.448091 5.60311 0
M  V30 23124 H 2108.92 0.848979 1.94695 0
M  V30 23125 H 2111.19 0.320787 0.892076 0
M  V30 23126 H 2110.89 0.616487 3.46255 0
M  V30 23127 H 2110.77 -1.12839 3.59927 0
M  V30 23128 H 2113.15 -1.33858 2.62995 0
M  V30 23129 H 2113.23 0.425702 2.52233 0
M  V30 23130 H 2112.88 0.573705 5.04649 0
M  V30 23131 H 2112.81 -1.20464 5.12636 0
M  V30 23132 H 2115.3 -0.466654 3.75008 0
M  V30 23133 H 2115.61 -0.330673 7.72092 0
M  V30 23134 H 2113.96 -0.304327 6.94333 0
M  V30 23135 H 2117.15 -0.494336 4.65482 0
M  V30 23136 H 2117.32 -0.432555 6.46555 0
M  V30 23137 N 2110.73 -1.54276 -0.321972 0
M  V30 23138 C 2111.98 -1.7177 -1.05726 0
M  V30 23139 C 2112.29 -0.499164 -1.89124 0
M  V30 23140 O 2113.49 -0.555477 -2.65757 0
M  V30 23141 C 2111.95 -3.03824 -1.92923 0
M  V30 23142 C 2111.56 -4.33087 -1.14629 0
M  V30 23143 C 2113.3 -3.30681 -2.66178 0
M  V30 23144 C 2111.21 -5.56202 -2.00981 0
M  V30 23145 H 2110.14 -0.64013 -0.398433 0
M  V30 23146 H 2112.79 -1.80769 -0.315414 0
M  V30 23147 H 2111.17 -2.88736 -2.71012 0
M  V30 23148 H 2112.35 -4.58946 -0.412993 0
M  V30 23149 H 2110.66 -4.13007 -0.530488 0
M  V30 23150 H 2113.26 -4.19857 -3.31096 0
M  V30 23151 H 2113.6 -2.48629 -3.339 0
M  V30 23152 H 2114.13 -3.46643 -1.95149 0
M  V30 23153 H 2110.87 -6.4086 -1.37764 0
M  V30 23154 H 2110.39 -5.3456 -2.7204 0
M  V30 23155 H 2112.07 -5.92667 -2.59528 0
M  V30 23156 N 2112.2 0.584116 -1.46376 0
M  V30 23157 C 2113.14 1.70778 -1.52865 0
M  V30 23158 C 2114.15 1.57366 -0.417122 0
M  V30 23159 O 2115.34 1.64816 -0.685411 0
M  V30 23160 C 2112.44 3.09015 -1.39151 0
M  V30 23161 C 2111.61 3.48443 -2.64397 0
M  V30 23162 C 2110.67 4.65735 -2.44903 0
M  V30 23163 O 2109.7 4.71667 -3.1862 0
M  V30 23164 N 2110.9 5.60523 -1.50978 0
M  V30 23165 H 2113.66 1.65666 -2.49749 0
M  V30 23166 H 2111.22 0.770058 -1.42414 0
M  V30 23167 H 2113.22 3.85272 -1.23884 0
M  V30 23168 H 2111.79 3.08502 -0.50453 0
M  V30 23169 H 2111.01 2.61906 -2.94616 0
M  V30 23170 H 2112.29 3.71552 -3.47601 0
M  V30 23171 H 2111.69 5.58465 -0.90186 0
M  V30 23172 H 2110.25 6.36217 -1.41674 0
M  V30 23173 N 2113.68 1.34058 0.828631 0
M  V30 23174 C 2115.09 1.2341 1.40095 0
M  V30 23175 C 2115.45 -0.142779 1.9568 0
M  V30 23176 O 2114.57 -1.04286 1.89614 0
M  V30 23177 C 2115.17 2.23441 2.54675 0
M  V30 23178 C 2113.72 2.16602 3.07832 0
M  V30 23179 C 2112.87 2.1036 1.80676 0
M  V30 23180 H 2115.82 1.45507 0.633514 0
M  V30 23181 H 2115.84 1.84809 3.32605 0
M  V30 23182 H 2115.36 3.23642 2.1419 0
M  V30 23183 H 2113.46 1.19738 3.52836 0
M  V30 23184 H 2113.57 3.07604 3.6731 0
M  V30 23185 H 2111.93 1.55992 2.01342 0
M  V30 23186 H 2112.72 3.12386 1.42373 0
M  V30 23187 N 2115.16 -1.04814 1.17694 0
M  V30 23188 C 2116.57 -1.5934 0.973022 0
M  V30 23189 C 2116.92 -1.90256 -0.479284 0
M  V30 23190 O 2116.05 -1.68704 -1.35528 0
M  V30 23191 C 2116.64 -2.89503 1.75993 0
M  V30 23192 C 2115.2 -3.40674 1.60058 0
M  V30 23193 C 2114.35 -2.14356 1.75916 0
M  V30 23194 H 2117.3 -0.87578 1.32347 0
M  V30 23195 H 2117.32 -3.5957 1.24457 0
M  V30 23196 H 2116.83 -2.6697 2.81689 0
M  V30 23197 H 2114.93 -3.68235 0.568665 0
M  V30 23198 H 2115.05 -4.15004 2.39393 0
M  V30 23199 H 2113.41 -2.25301 1.18793 0
M  V30 23200 H 2114.19 -1.94288 2.83032 0
M  V30 23201 N 2116.64 -0.977779 -1.23601 0
M  V30 23202 C 2117.57 -0.535228 -2.27283 0
M  V30 23203 C 2118.55 0.430261 -1.64568 0
M  V30 23204 O 2119.74 0.324195 -1.91475 0
M  V30 23205 C 2116.87 0.165683 -3.46905 0
M  V30 23206 C 2115.82 -0.716827 -4.21954 0
M  V30 23207 C 2115.15 0.116149 -5.34574 0
M  V30 23208 C 2116.45 -2.00636 -4.82227 0
M  V30 23209 H 2118.14 -1.40185 -2.64553 0
M  V30 23210 H 2115.69 -0.67551 -1.27173 0
M  V30 23211 H 2117.64 0.486573 -4.18581 0
M  V30 23212 H 2116.36 1.06674 -3.08688 0
M  V30 23213 H 2115.02 -1.02114 -3.52091 0
M  V30 23214 H 2114.67 1.01766 -4.92598 0
M  V30 23215 H 2114.37 -0.471195 -5.85708 0
M  V30 23216 H 2115.89 0.431481 -6.09074 0
M  V30 23217 H 2117.31 -1.75041 -5.45925 0
M  V30 23218 H 2115.7 -2.54126 -5.43636 0
M  V30 23219 H 2116.77 -2.69488 -4.03118 0
M  V30 23220 N 2118.12 1.38658 -0.749111 0
M  V30 23221 C 2119.37 1.99821 -0.302678 0
M  V30 23222 C 2119.69 1.59757 1.11816 0
M  V30 23223 O 2118.96 0.852324 1.76387 0
M  V30 23224 H 2117.54 0.739016 -0.108921 0
M  V30 23225 H 2120.2 1.69492 -0.962209 0
M  V30 23226 H 2119.29 3.09991 -0.362255 0
M  V30 23227 N 2119.6 0.497834 1.49531 0
M  V30 23228 C 2120.84 -0.0478087 2.02444 0
M  V30 23229 C 2121.17 -1.37286 1.37778 0
M  V30 23230 O 2120.43 -1.89163 0.501565 0
M  V30 23231 C 2120.72 -0.252156 3.56509 0
M  V30 23232 C 2120.39 0.994505 4.39796 0
M  V30 23233 C 2119.05 1.33624 4.62275 0
M  V30 23234 C 2121.4 1.82331 4.88267 0
M  V30 23235 C 2118.73 2.50636 5.3047 0
M  V30 23236 C 2121.08 2.98493 5.5775 0
M  V30 23237 C 2119.75 3.3305 5.78475 0
M  V30 23238 H 2119.02 -0.0174944 0.740793 0
M  V30 23239 H 2121.67 0.657348 1.79864 0
M  V30 23240 H 2119.97 -1.03981 3.7775 0
M  V30 23241 H 2121.67 -0.68874 3.95041 0
M  V30 23242 H 2118.26 0.718308 4.22538 0
M  V30 23243 H 2122.44 1.57244 4.70731 0
M  V30 23244 H 2117.7 2.77651 5.4472 0
M  V30 23245 H 2121.87 3.63042 5.94284 0
M  V30 23246 H 2119.5 4.23822 6.31093 0
M  V30 23247 N 2121.07 -1.5589 0.231532 0
M  V30 23248 C 2122.32 -1.98169 -0.396667 0
M  V30 23249 C 2122.64 -1.12067 -1.59581 0
M  V30 23250 O 2121.91 -0.199942 -1.94877 0
M  V30 23251 H 2120.49 -0.731878 -0.149544 0
M  V30 23252 H 2123.15 -1.92142 0.326749 0
M  V30 23253 H 2122.25 -3.0377 -0.716243 0
M  V30 23254 N 2122.55 0.0417572 -1.57545 0
M  V30 23255 C 2123.5 1.04629 -2.05722 0
M  V30 23256 C 2124.47 1.36684 -0.943754 0
M  V30 23257 O 2125.65 1.47239 -1.21348 0
M  V30 23258 C 2122.79 2.34601 -2.53093 0
M  V30 23259 C 2121.91 2.08815 -3.7818 0
M  V30 23260 C 2121.04 3.32567 -4.14214 0
M  V30 23261 C 2120.08 3.02279 -5.32254 0
M  V30 23262 N 2119.22 4.18445 -5.6378 0
M  V30 23263 H 2124.06 0.628491 -2.91297 0
M  V30 23264 H 2121.59 0.298725 -1.44035 0
M  V30 23265 H 2123.55 3.10525 -2.78621 0
M  V30 23266 H 2122.18 2.74127 -1.70453 0
M  V30 23267 H 2121.23 1.23445 -3.59813 0
M  V30 23268 H 2122.55 1.82464 -4.64229 0
M  V30 23269 H 2121.7 4.16867 -4.40802 0
M  V30 23270 H 2120.44 3.6202 -3.26791 0
M  V30 23271 H 2119.44 2.16378 -5.05431 0
M  V30 23272 H 2120.67 2.74116 -6.21319 0
M  V30 23273 H 2118.62 4.47874 -4.79317 0
M  V30 23274 H 2118.53 3.95473 -6.44311 0
M  V30 23275 H 2119.8 5.03656 -5.94938 0
M  V30 23276 N 2124.03 1.54445 0.313786 0
M  V30 23277 C 2125.28 1.73117 1.05056 0
M  V30 23278 C 2125.6 0.510078 1.87692 0
M  V30 23279 O 2124.86 -0.508109 1.88989 0
M  V30 23280 C 2125.16 2.96492 1.99568 0
M  V30 23281 C 2124.82 4.30835 1.3301 0
M  V30 23282 C 2123.49 4.67357 1.14589 0
M  V30 23283 C 2125.84 5.14169 0.853216 0
M  V30 23284 C 2123.17 5.84803 0.471447 0
M  V30 23285 C 2125.52 6.32307 0.192549 0
M  V30 23286 C 2124.18 6.675 -0.00372174 0
M  V30 23287 H 2123.45 0.633479 0.384428 0
M  V30 23288 H 2126.1 1.88693 0.326706 0
M  V30 23289 H 2124.4 2.75643 2.78438 0
M  V30 23290 H 2126.1 3.08133 2.56623 0
M  V30 23291 H 2122.69 4.02107 1.48351 0
M  V30 23292 H 2126.88 4.86462 0.983284 0
M  V30 23293 H 2122.13 6.10622 0.308274 0
M  V30 23294 H 2126.31 6.96154 -0.184925 0
M  V30 23295 H 2123.93 7.58362 -0.52835 0
M  V30 23296 N 2125.51 -0.576345 1.46683 0
M  V30 23297 C 2126.75 -1.3453 1.53886 0
M  V30 23298 C 2127.11 -1.91071 0.188643 0
M  V30 23299 O 2128.31 -2.68459 0.135445 0
M  V30 23300 C 2126.58 -2.4398 2.61168 0
M  V30 23301 S 2128.14 -3.31217 2.87821 0
M  V30 23302 H 2124.96 -0.458249 0.543626 0
M  V30 23303 H 2127.56 -0.661885 1.83955 0
M  V30 23304 H 2126.27 -2.00844 3.57896 0
M  V30 23305 H 2125.8 -3.17086 2.32852 0
M  V30 23306 H 2127.81 -4.42977 2.23576 0
M  V30 23307 N 2126.99 -1.34495 -0.82151 0
M  V30 23308 C 2128.4 -1.24152 -1.39439 0
M  V30 23309 C 2128.75 0.1324 -1.95753 0
M  V30 23310 O 2127.87 1.03279 -1.90164 0
M  V30 23311 C 2128.47 -2.24789 -2.53487 0
M  V30 23312 C 2127.03 -2.18232 -3.06679 0
M  V30 23313 C 2126.17 -2.11315 -1.79558 0
M  V30 23314 H 2129.12 -1.45841 -0.625789 0
M  V30 23315 H 2129.15 -1.8657 -3.3162 0
M  V30 23316 H 2128.66 -3.24774 -2.1247 0
M  V30 23317 H 2126.76 -1.21608 -3.52196 0
M  V30 23318 H 2126.87 -3.09548 -3.65673 0
M  V30 23319 H 2125.24 -1.57058 -2.00512 0
M  V30 23320 H 2126.02 -3.13136 -1.40714 0
M  V30 23321 N 2128.46 1.04188 -1.18248 0
M  V30 23322 C 2129.41 2.10485 -0.876358 0
M  V30 23323 C 2130.4 1.60167 0.153389 0
M  V30 23324 O 2131.59 1.76928 -0.0504786 0
M  V30 23325 C 2128.72 3.40932 -0.402528 0
M  V30 23326 C 2127.81 3.9802 -1.46428 0
M  V30 23327 N 2128.2 4.28938 -2.68041 0
M  V30 23328 C 2126.49 4.25879 -1.32451 0
M  V30 23329 C 2127.2 4.74605 -3.3634 0
M  V30 23330 N 2126.17 4.75344 -2.63722 0
M  V30 23331 H 2129.97 2.32265 -1.80084 0
M  V30 23332 H 2127.49 1.2193 -1.0727 0
M  V30 23333 H 2129.48 4.16574 -0.164728 0
M  V30 23334 H 2128.14 3.2058 0.51563 0
M  V30 23335 H 2129.16 4.18623 -3.04918 0
M  V30 23336 H 2125.83 4.1486 -0.468792 0
M  V30 23337 H 2127.22 5.07557 -4.40267 0
M  V30 23338 N 2129.94 0.98432 1.23081 0
M  V30 23339 C 2131.36 0.6936 1.43741 0
M  V30 23340 C 2131.56 -0.738828 1.87466 0
M  V30 23341 O 2130.61 -1.51079 2.02315 0
M  V30 23342 C 2131.93 1.69187 2.48589 0
M  V30 23343 C 2133.48 1.70635 2.62398 0
M  V30 23344 C 2133.95 2.69302 3.7046 0
M  V30 23345 N 2135.44 2.67844 3.77907 0
M  V30 23346 C 2136.18 3.40857 4.6109 0
M  V30 23347 N 2135.67 4.23441 5.48333 0
M  V30 23348 N 2137.47 3.29603 4.55322 0
M  V30 23349 H 2129.62 1.90957 0.930015 0
M  V30 23350 H 2131.88 0.823061 0.470398 0
M  V30 23351 H 2131.59 2.71646 2.23386 0
M  V30 23352 H 2131.46 1.47784 3.47044 0
M  V30 23353 H 2133.85 0.688782 2.86949 0
M  V30 23354 H 2133.93 1.96104 1.64246 0
M  V30 23355 H 2133.57 3.71203 3.46656 0
M  V30 23356 H 2133.5 2.41106 4.68162 0
M  V30 23357 H 2135.99 2.07913 3.15564 0
M  V30 23358 H 2136.31 4.75999 6.08806 0
M  V30 23359 H 2134.65 4.27531 5.47944 0
M  V30 23360 H 2137.84 2.64533 3.86186 0
M  V30 23361 H 2138.01 3.86764 5.19921 0
M  V30 23362 N 2131.42 -1.38259 0.756453 0
M  V30 23363 C 2132.67 -2.00349 0.314356 0
M  V30 23364 C 2133 -1.5991 -1.10192 0
M  V30 23365 O 2132.27 -0.837999 -1.75522 0
M  V30 23366 C 2132.56 -3.57396 0.440504 0
M  V30 23367 C 2132.41 -4.0779 1.8981 0
M  V30 23368 C 2133.73 -4.39793 -0.164403 0
M  V30 23369 H 2130.85 -0.727862 0.115697 0
M  V30 23370 H 2133.49 -1.6416 0.956635 0
M  V30 23371 H 2131.64 -3.88355 -0.106298 0
M  V30 23372 H 2133.31 -3.87461 2.50343 0
M  V30 23373 H 2131.56 -3.6055 2.41218 0
M  V30 23374 H 2132.23 -5.1688 1.9375 0
M  V30 23375 H 2134.7 -4.15003 0.301971 0
M  V30 23376 H 2133.58 -5.48881 -0.0459121 0
M  V30 23377 H 2133.84 -4.23971 -1.25303 0
M  V30 23378 N 2132.9 -0.505757 -1.49264 0
M  V30 23379 C 2133.86 0.259147 -2.2773 0
M  V30 23380 C 2134.86 0.88969 -1.33945 0
M  V30 23381 O 2136.05 0.753485 -1.57061 0
M  V30 23382 C 2133.18 1.37232 -3.12058 0
M  V30 23383 H 2134.38 -0.42945 -2.96809 0
M  V30 23384 H 2131.93 -0.260876 -1.54108 0
M  V30 23385 H 2132.66 2.09492 -2.47555 0
M  V30 23386 H 2132.45 0.925587 -3.81019 0
M  V30 23387 H 2133.94 1.91099 -3.7131 0
M  V30 23388 N 2134.38 1.55765 -0.239796 0
M  V30 23389 C 2135.62 2.00673 0.38854 0
M  V30 23390 C 2135.98 1.12423 1.55644 0
M  V30 23391 O 2137.18 1.46756 2.25202 0
M  V30 23392 C 2135.45 3.48451 0.794775 0
M  V30 23393 S 2137.01 4.15371 1.41464 0
M  V30 23394 H 2133.83 0.700356 0.122567 0
M  V30 23395 H 2136.43 1.9228 -0.353365 0
M  V30 23396 H 2135.14 4.10349 -0.0646279 0
M  V30 23397 H 2134.67 3.60756 1.56904 0
M  V30 23398 H 2136.68 4.16069 2.70372 0
M  V30 23399 N 2135.85 -0.0334016 1.57565 0
M  V30 23400 C 2136.8 -1.03536 2.06274 0
M  V30 23401 C 2137.77 -1.36182 0.950989 0
M  V30 23402 O 2138.96 -1.46593 1.22127 0
M  V30 23403 C 2136.1 -2.33256 2.54334 0
M  V30 23404 C 2135.21 -2.06807 3.79282 0
M  V30 23405 C 2134.34 -3.30365 4.15971 0
M  V30 23406 C 2133.38 -2.99452 5.33849 0
M  V30 23407 N 2132.52 -4.15449 5.65991 0
M  V30 23408 H 2137.36 -0.613034 2.91626 0
M  V30 23409 H 2134.9 -0.291083 1.44191 0
M  V30 23410 H 2136.86 -3.09044 2.80264 0
M  V30 23411 H 2135.49 -2.73219 1.71905 0
M  V30 23412 H 2134.54 -1.21536 3.60463 0
M  V30 23413 H 2135.85 -1.8 4.6519 0
M  V30 23414 H 2135 -4.14524 4.43007 0
M  V30 23415 H 2133.74 -3.60282 3.28706 0
M  V30 23416 H 2132.75 -2.13695 5.06571 0
M  V30 23417 H 2133.97 -2.70817 6.22764 0
M  V30 23418 H 2131.92 -4.45326 4.81686 0
M  V30 23419 H 2131.84 -3.9205 6.464 0
M  V30 23420 H 2133.1 -5.00494 5.976 0
M  V30 23421 N 2137.33 -1.54609 -0.305591 0
M  V30 23422 C 2138.75 -1.4572 -0.650988 0
M  V30 23423 C 2138.95 -0.644662 -1.90909 0
M  V30 23424 O 2138 -0.150545 -2.52051 0
M  V30 23425 C 2139.32 -2.89634 -0.808259 0
M  V30 23426 C 2140.87 -2.99648 -0.904441 0
M  V30 23427 C 2141.34 -4.44748 -1.09375 0
M  V30 23428 N 2142.83 -4.48438 -1.16006 0
M  V30 23429 C 2143.57 -5.57887 -1.32474 0
M  V30 23430 N 2143.06 -6.77269 -1.4587 0
M  V30 23431 N 2144.86 -5.45567 -1.35326 0
M  V30 23432 H 2137.01 -2.05909 0.521082 0
M  V30 23433 H 2139.27 -0.932366 0.171455 0
M  V30 23434 H 2138.98 -3.51671 0.0452303 0
M  V30 23435 H 2138.85 -3.36787 -1.69866 0
M  V30 23436 H 2141.24 -2.37727 -1.74842 0
M  V30 23437 H 2141.32 -2.55798 0.00987599 0
M  V30 23438 H 2140.96 -5.07262 -0.25455 0
M  V30 23439 H 2140.89 -4.86224 -2.02222 0
M  V30 23440 H 2143.38 -3.62428 -1.07025 0
M  V30 23441 H 2143.7 -7.56439 -1.58179 0
M  V30 23442 H 2142.04 -6.80143 -1.42934 0
M  V30 23443 H 2145.23 -4.51248 -1.24469 0
M  V30 23444 H 2145.4 -6.30915 -1.47817 0
M  V30 23445 N 2138.81 0.568558 -1.46987 0
M  V30 23446 C 2139.74 1.68651 -1.61491 0
M  V30 23447 C 2140.72 1.63629 -0.464706 0
M  V30 23448 O 2141.91 1.81427 -0.692676 0
M  V30 23449 C 2139.04 3.07294 -1.61826 0
M  V30 23450 C 2137.99 3.27156 -2.75959 0
M  V30 23451 C 2137.32 4.6647 -2.61361 0
M  V30 23452 C 2138.62 3.13623 -4.17658 0
M  V30 23453 H 2140.31 1.56769 -2.55076 0
M  V30 23454 H 2137.86 0.752771 -1.22757 0
M  V30 23455 H 2139.81 3.85338 -1.70565 0
M  V30 23456 H 2138.53 3.20108 -0.647937 0
M  V30 23457 H 2137.19 2.51516 -2.66712 0
M  V30 23458 H 2136.84 4.76069 -1.62381 0
M  V30 23459 H 2136.54 4.8071 -3.37923 0
M  V30 23460 H 2138.06 5.46664 -2.72012 0
M  V30 23461 H 2139.48 3.81497 -4.27941 0
M  V30 23462 H 2137.88 3.39378 -4.94917 0
M  V30 23463 H 2138.95 2.10514 -4.3682 0
M  V30 23464 N 2140.29 1.34929 0.814366 0
M  V30 23465 C 2141.53 1.27956 1.57338 0
M  V30 23466 C 2141.87 -0.147896 1.93636 0
M  V30 23467 O 2141.14 -1.09539 1.60722 0
M  V30 23468 C 2141.43 2.17862 2.8672 0
M  V30 23469 C 2141.28 3.69185 2.56948 0
M  V30 23470 C 2142.6 2.07033 3.88362 0
M  V30 23471 H 2139.72 0.466149 0.570854 0
M  V30 23472 H 2142.36 1.65259 0.937513 0
M  V30 23473 H 2140.51 1.86178 3.40984 0
M  V30 23474 H 2142.18 4.11275 2.08927 0
M  V30 23475 H 2140.42 3.89851 1.90259 0
M  V30 23476 H 2141.09 4.2747 3.49247 0
M  V30 23477 H 2143.57 2.34869 3.43476 0
M  V30 23478 H 2142.45 2.72151 4.76681 0
M  V30 23479 H 2142.71 1.04989 4.29453 0
M  V30 23480 N 2141.77 -1.0356 1.18799 0
M  V30 23481 C 2143.01 -1.76497 0.984535 0
M  V30 23482 C 2143.34 -1.88833 -0.486544 0
M  V30 23483 O 2142.61 -1.41702 -1.35268 0
M  V30 23484 H 2141.19 -0.653818 0.36129 0
M  V30 23485 H 2143.85 -1.24956 1.49573 0
M  V30 23486 H 2142.94 -2.77573 1.42687 0
M  V30 23487 N 2143.25 -0.990834 -1.22557 0
M  V30 23488 C 2144.18 -0.484367 -2.23 0
M  V30 23489 C 2145.16 0.454224 -1.56127 0
M  V30 23490 O 2146.34 0.380249 -1.84625 0
M  V30 23491 C 2143.47 0.298068 -3.37386 0
M  V30 23492 C 2142.51 -0.586207 -4.22452 0
M  V30 23493 S 2143.35 -2.04028 -4.95109 0
M  V30 23494 C 2144.5 -1.26728 -6.12936 0
M  V30 23495 H 2144.74 -1.33551 -2.65615 0
M  V30 23496 H 2142.27 -0.79764 -1.32201 0
M  V30 23497 H 2144.23 0.743467 -4.03711 0
M  V30 23498 H 2142.89 1.12446 -2.93283 0
M  V30 23499 H 2142.08 0.0157123 -5.03998 0
M  V30 23500 H 2141.68 -0.968283 -3.61248 0
M  V30 23501 H 2143.97 -0.533875 -6.75393 0
M  V30 23502 H 2144.92 -2.05793 -6.77536 0
M  V30 23503 H 2145.33 -0.781474 -5.59065 0
M  V30 23504 N 2144.72 1.37856 -0.763775 0
M  V30 23505 C 2145.67 2.32223 -0.132368 0
M  V30 23506 C 2146.67 1.54535 0.693933 0
M  V30 23507 O 2147.87 1.6999 0.591889 0
M  V30 23508 H 2144.25 0.751616 -0.0240139 0
M  V30 23509 H 2146.22 2.83069 -0.944157 0
M  V30 23510 C 2144.97 3.39764 0.73862 0
M  V30 23511 H 2144.29 3.99643 0.112174 0
M  V30 23512 H 2145.73 4.08176 1.14753 0
M  V30 23513 C 2144.19 2.7918 1.88573 0
M  V30 23514 O 2144.72 2.69296 2.98065 0
M  V30 23515 N 2142.92 2.3684 1.6839 0
M  V30 23516 H 2142.47 2.45079 0.793337 0
M  V30 23517 H 2142.43 1.96648 2.4531 0
M  V30 23518 N 2146.2 0.513665 1.48994 0
M  V30 23519 C 2147.13 -0.304885 2.26154 0
M  V30 23520 C 2148.11 -0.959269 1.31289 0
M  V30 23521 O 2149.3 -0.98688 1.60602 0
M  V30 23522 C 2146.42 -1.4304 3.07013 0
M  V30 23523 C 2145.47 -0.889102 4.1713 0
M  V30 23524 S 2146.3 0.230168 5.35005 0
M  V30 23525 C 2147.46 -0.898215 6.19421 0
M  V30 23526 H 2147.69 0.349986 2.95233 0
M  V30 23527 H 2145.22 0.299168 1.51474 0
M  V30 23528 H 2147.18 -2.07523 3.54181 0
M  V30 23529 H 2145.84 -2.05693 2.3738 0
M  V30 23530 H 2145.04 -1.73296 4.7327 0
M  V30 23531 H 2144.64 -0.321262 3.72618 0
M  V30 23532 H 2146.93 -1.80061 6.53134 0
M  V30 23533 H 2147.87 -0.375152 7.07106 0
M  V30 23534 H 2148.28 -1.17126 5.52215 0
M  V30 23535 N 2147.68 -1.55636 0.248053 0
M  V30 23536 C 2149.09 -1.84952 -0.254884 0
M  V30 23537 C 2149.44 -1.16988 -1.57506 0
M  V30 23538 O 2148.57 -0.448668 -2.11698 0
M  V30 23539 C 2149.16 -3.35535 -0.469244 0
M  V30 23540 C 2147.72 -3.65073 -0.916445 0
M  V30 23541 C 2146.87 -2.77299 0.00568866 0
M  V30 23542 H 2149.82 -1.51563 0.470584 0
M  V30 23543 H 2149.84 -3.57176 -1.31169 0
M  V30 23544 H 2149.35 -3.84972 0.491761 0
M  V30 23545 H 2147.45 -3.21114 -1.88988 0
M  V30 23546 H 2147.57 -4.72831 -0.772508 0
M  V30 23547 H 2145.93 -2.49626 -0.505882 0
M  V30 23548 H 2146.71 -3.29543 0.962088 0
M  V30 23549 N 2149.16 0.0250451 -1.5758 0
M  V30 23550 C 2150.09 1.02382 -2.09857 0
M  V30 23551 C 2151.07 1.37455 -1.002 0
M  V30 23552 O 2152.25 1.46269 -1.27746 0
M  V30 23553 C 2149.38 2.32351 -2.58128 0
M  V30 23554 C 2148.34 2.11509 -3.72086 0
M  V30 23555 C 2147.66 3.47274 -4.06577 0
M  V30 23556 C 2148.96 1.49799 -5.00357 0
M  V30 23557 H 2150.66 0.58863 -2.93557 0
M  V30 23558 H 2148.2 0.281696 -1.41218 0
M  V30 23559 H 2150.16 3.02556 -2.93322 0
M  V30 23560 H 2148.88 2.77938 -1.71518 0
M  V30 23561 H 2147.54 1.43737 -3.37247 0
M  V30 23562 H 2147.19 3.90516 -3.17027 0
M  V30 23563 H 2146.89 3.34153 -4.83338 0
M  V30 23564 H 2148.41 4.18834 -4.44309 0
M  V30 23565 H 2149.83 2.09927 -5.33483 0
M  V30 23566 H 2148.22 1.47241 -5.81756 0
M  V30 23567 H 2149.29 0.464269 -4.82672 0
M  V30 23568 N 2150.64 1.54769 0.297388 0
M  V30 23569 C 2151.58 1.86729 1.3869 0
M  V30 23570 C 2152.58 0.741344 1.52317 0
M  V30 23571 O 2153.78 0.925384 1.54391 0
M  V30 23572 H 2150.16 0.592301 0.463339 0
M  V30 23573 H 2152.13 2.77791 1.08972 0
M  V30 23574 C 2150.88 2.13444 2.74475 0
M  V30 23575 H 2150.2 2.99558 2.64773 0
M  V30 23576 H 2151.64 2.39744 3.49712 0
M  V30 23577 C 2150.1 0.934151 3.2369 0
M  V30 23578 O 2150.63 0.156464 4.01395 0
M  V30 23579 N 2148.84 0.738537 2.81059 0
M  V30 23580 H 2148.38 1.37261 2.17984 0
M  V30 23581 H 2148.34 -0.0630002 3.14337 0
M  V30 23582 N 2152.11 -0.560755 1.47286 0
M  V30 23583 C 2153.34 -1.34841 1.57584 0
M  V30 23584 C 2153.76 -1.86747 0.22521 0
M  V30 23585 O 2153.12 -1.62776 -0.798346 0
M  V30 23586 C 2153.17 -2.49671 2.60186 0
M  V30 23587 O 2152.27 -3.51793 2.1521 0
M  V30 23588 H 2151.61 -0.400669 0.529491 0
M  V30 23589 H 2154.14 -0.67803 1.93039 0
M  V30 23590 H 2154.15 -2.9629 2.80493 0
M  V30 23591 H 2152.83 -2.11248 3.58256 0
M  V30 23592 H 2151.41 -3.11504 2.04987 0
M  V30 23593 N 2153.59 -1.35359 -0.807199 0
M  V30 23594 C 2154.87 -1.19163 -1.55111 0
M  V30 23595 C 2155.25 0.22949 -2.09849 0
M  V30 23596 O 2154.6 1.23292 -1.92383 0
M  V30 23597 C 2154.81 -2.25917 -2.66012 0
M  V30 23598 C 2156.15 -2.61693 -3.34368 0
M  V30 23599 O 2157.18 -2.24826 -2.76282 0
M  V30 23600 O 2156.04 -3.25083 -4.39299 0
M  V30 23601 H 2153.13 -0.462906 -0.685308 0
M  V30 23602 H 2155.68 -1.47039 -0.847213 0
M  V30 23603 H 2154.45 -3.21238 -2.23432 0
M  V30 23604 H 2154.07 -1.99307 -3.44038 0
M  V30 23605 N 2155.07 1.02928 -1.19346 0
M  V30 23606 C 2156.32 1.75973 -0.993881 0
M  V30 23607 C 2156.64 1.89088 0.476523 0
M  V30 23608 O 2155.91 1.42417 1.34515 0
M  V30 23609 H 2154.49 0.651893 -0.364753 0
M  V30 23610 H 2157.15 1.24161 -1.50233 0
M  V30 23611 H 2156.25 2.76812 -1.44157 0
M  V30 23612 N 2156.55 0.997319 1.2203 0
M  V30 23613 C 2157.78 0.694247 1.94905 0
M  V30 23614 C 2158.19 -0.741849 1.73615 0
M  V30 23615 O 2157.55 -1.50108 1.03796 0
M  V30 23616 C 2157.6 0.996196 3.47503 0
M  V30 23617 O 2157.32 2.37587 3.68082 0
M  V30 23618 C 2158.82 0.711446 4.37554 0
M  V30 23619 H 2156.04 0.256462 0.620055 0
M  V30 23620 H 2158.58 1.33329 1.5506 0
M  V30 23621 H 2156.74 0.402886 3.85299 0
M  V30 23622 H 2157.15 2.47854 4.62243 0
M  V30 23623 H 2158.63 0.972956 5.43358 0
M  V30 23624 H 2159.1 -0.35455 4.37767 0
M  V30 23625 H 2159.71 1.28601 4.05391 0
M  V30 23626 N 2158.03 -1.37449 0.771075 0
M  V30 23627 C 2159.27 -2.00004 0.335588 0
M  V30 23628 C 2159.61 -1.6107 -1.0849 0
M  V30 23629 O 2158.88 -0.856568 -1.74623 0
M  V30 23630 C 2159.16 -3.56908 0.478386 0
M  V30 23631 C 2159.02 -4.05753 1.94124 0
M  V30 23632 C 2160.34 -4.39942 -0.117748 0
M  V30 23633 H 2157.45 -0.726594 0.12341 0
M  V30 23634 H 2160.1 -1.63136 0.973992 0
M  V30 23635 H 2158.25 -3.88445 -0.0651015 0
M  V30 23636 H 2159.92 -3.84784 2.54438 0
M  V30 23637 H 2158.16 -3.57971 2.45029 0
M  V30 23638 H 2158.83 -5.14796 1.99222 0
M  V30 23639 H 2161.31 -4.14659 0.34597 0
M  V30 23640 H 2160.18 -5.48899 0.0123067 0
M  V30 23641 H 2160.45 -4.25276 -1.20799 0
M  V30 23642 N 2159.5 -0.52156 -1.4872 0
M  V30 23643 C 2160.73 0.0117966 -2.06897 0
M  V30 23644 C 2161.15 1.28928 -1.37924 0
M  V30 23645 O 2160.5 1.76502 -0.464046 0
M  V30 23646 C 2160.56 0.248161 -3.60647 0
M  V30 23647 O 2160.28 -0.978703 -4.27028 0
M  V30 23648 C 2161.78 0.822848 -4.35596 0
M  V30 23649 H 2159 -0.0297145 -0.670342 0
M  V30 23650 H 2161.54 -0.724798 -1.91225 0
M  V30 23651 H 2159.7 0.934783 -3.75953 0
M  V30 23652 H 2160.11 -0.754221 -5.19049 0
M  V30 23653 H 2161.58 0.937703 -5.43977 0
M  V30 23654 H 2162.06 1.82571 -3.99455 0
M  V30 23655 H 2162.67 0.173056 -4.24948 0
M  V30 23656 N 2160.98 1.55502 -0.256304 0
M  V30 23657 C 2162.23 1.99168 0.365812 0
M  V30 23658 C 2162.56 1.14455 1.57259 0
M  V30 23659 O 2161.81 0.197615 1.947 0
M  V30 23660 C 2162.11 3.48098 0.810077 0
M  V30 23661 C 2161.78 4.49967 -0.289975 0
M  V30 23662 C 2160.44 4.77544 -0.592079 0
M  V30 23663 C 2162.79 5.10877 -1.03217 0
M  V30 23664 C 2160.12 5.63304 -1.64029 0
M  V30 23665 C 2162.47 5.97775 -2.06996 0
M  V30 23666 C 2161.14 6.23681 -2.37861 0
M  V30 23667 H 2160.41 0.728809 0.13386 0
M  V30 23668 H 2163.05 1.87968 -0.366092 0
M  V30 23669 H 2161.36 3.56679 1.62134 0
M  V30 23670 H 2163.05 3.79279 1.30186 0
M  V30 23671 H 2159.64 4.28577 -0.0443795 0
M  V30 23672 H 2163.83 4.89612 -0.812025 0
M  V30 23673 H 2159.08 5.81628 -1.88465 0
M  V30 23674 H 2163.26 6.44013 -2.64992 0
M  V30 23675 H 2160.89 6.89929 -3.19221 0
M  V30 23676 N 2162.46 -0.0166879 1.57591 0
M  V30 23677 C 2163.41 -1.03177 2.08464 0
M  V30 23678 C 2164.4 -1.36659 1.00103 0
M  V30 23679 O 2165.61 -1.35419 1.18582 0
M  V30 23680 H 2161.98 -0.350315 0.66542 0
M  V30 23681 H 2163.95 -0.576996 2.92768 0
M  V30 23682 C 2162.7 -2.32023 2.58961 0
M  V30 23683 H 2162.03 -2.07123 3.41965 0
M  V30 23684 H 2163.47 -3.01365 2.98253 0
M  V30 23685 C 2161.93 -3.01849 1.49629 0
M  V30 23686 O 2162.46 -3.92175 0.8696 0
M  V30 23687 N 2160.66 -2.63388 1.2278 0
M  V30 23688 H 2160.21 -1.9002 1.73926 0
M  V30 23689 H 2160.17 -3.10424 0.498436 0
M  V30 23690 N 2163.94 -1.54924 -0.289176 0
M  V30 23691 C 2164.9 -1.85935 -1.34017 0
M  V30 23692 C 2165.9 -0.732916 -1.43126 0
M  V30 23693 O 2167.09 -1.00116 -1.42556 0
M  V30 23694 C 2164.22 -2.0502 -2.72359 0
M  V30 23695 H 2165.42 -2.79872 -1.07758 0
M  V30 23696 H 2162.97 -1.47168 -0.526442 0
M  V30 23697 H 2163.7 -1.13412 -3.03823 0
M  V30 23698 H 2163.49 -2.8702 -2.67136 0
M  V30 23699 H 2164.98 -2.30342 -3.48328 0
M  V30 23700 N 2165.42 0.552936 -1.47582 0
M  V30 23701 C 2166.64 1.33522 -1.58049 0
M  V30 23702 C 2167.06 1.87366 -0.232239 0
M  V30 23703 O 2166.42 1.6522 0.775159 0
M  V30 23704 C 2166.47 2.50216 -2.60911 0
M  V30 23705 O 2166.19 1.98596 -3.90502 0
M  V30 23706 C 2167.69 3.42367 -2.81602 0
M  V30 23707 H 2164.91 0.406868 -0.533572 0
M  V30 23708 H 2167.45 0.669389 -1.93234 0
M  V30 23709 H 2165.61 3.12728 -2.28648 0
M  V30 23710 H 2166.02 2.74809 -4.46744 0
M  V30 23711 H 2167.5 4.20653 -3.57429 0
M  V30 23712 H 2167.97 3.96177 -1.8958 0
M  V30 23713 H 2168.58 2.85666 -3.15079 0
M  V30 23714 N 2166.89 1.35785 0.800009 0
M  V30 23715 C 2167.82 1.31917 1.92666 0
M  V30 23716 C 2168.81 0.19244 1.69008 0
M  V30 23717 O 2169.99 0.388435 1.90276 0
M  V30 23718 C 2167.12 1.09703 3.29519 0
M  V30 23719 C 2166.07 2.19086 3.67675 0
M  V30 23720 C 2165.4 1.82029 5.02762 0
M  V30 23721 C 2166.7 3.611 3.77365 0
M  V30 23722 H 2168.39 2.26189 1.96161 0
M  V30 23723 H 2165.94 1.08882 0.94237 0
M  V30 23724 H 2167.89 1.05634 4.07945 0
M  V30 23725 H 2166.62 0.118779 3.26384 0
M  V30 23726 H 2165.28 2.22263 2.91539 0
M  V30 23727 H 2164.92 0.828056 4.96137 0
M  V30 23728 H 2164.62 2.55256 5.29262 0
M  V30 23729 H 2166.15 1.79497 5.83621 0
M  V30 23730 H 2167.56 3.60209 4.46007 0
M  V30 23731 H 2165.96 4.33143 4.1534 0
M  V30 23732 H 2167.03 3.96774 2.78744 0
M  V30 23733 N 2168.37 -1.02294 1.19891 0
M  V30 23734 C 2169.62 -1.7579 1.00519 0
M  V30 23735 C 2169.95 -1.88899 -0.463403 0
M  V30 23736 O 2169.2 -1.4069 -1.36032 0
M  V30 23737 C 2169.5 -3.18252 1.62636 0
M  V30 23738 C 2169.17 -3.25136 3.12406 0
M  V30 23739 C 2167.83 -3.26722 3.53279 0
M  V30 23740 C 2170.18 -3.23806 4.0841 0
M  V30 23741 C 2167.51 -3.24642 4.88697 0
M  V30 23742 C 2169.86 -3.23267 5.43766 0
M  V30 23743 C 2168.53 -3.23154 5.84061 0
M  V30 23744 H 2167.8 -0.643263 0.367823 0
M  V30 23745 H 2170.44 -1.20021 1.49222 0
M  V30 23746 H 2168.75 -3.77138 1.06178 0
M  V30 23747 H 2170.44 -3.738 1.4517 0
M  V30 23748 H 2167.03 -3.24633 2.79841 0
M  V30 23749 H 2171.22 -3.21757 3.77871 0
M  V30 23750 H 2166.47 -3.22881 5.19189 0
M  V30 23751 H 2170.65 -3.2119 6.17908 0
M  V30 23752 H 2168.28 -3.21296 6.88965 0
M  V30 23753 N 2169.85 -1.00378 -1.21499 0
M  V30 23754 C 2170.81 -0.568136 -2.22047 0
M  V30 23755 C 2171.81 0.354852 -1.56836 0
M  V30 23756 O 2173 0.145307 -1.73593 0
M  V30 23757 C 2170.14 0.172119 -3.40465 0
M  V30 23758 H 2171.33 -1.45747 -2.62103 0
M  V30 23759 H 2168.88 -0.792156 -1.34739 0
M  V30 23760 H 2169.62 1.07695 -3.05896 0
M  V30 23761 H 2169.4 -0.490752 -3.89017 0
M  V30 23762 H 2170.89 0.464705 -4.15006 0
M  V30 23763 N 2171.33 1.37038 -0.778354 0
M  V30 23764 C 2172.26 2.3278 -0.183215 0
M  V30 23765 C 2173.24 1.56107 0.675623 0
M  V30 23766 O 2174.42 1.84314 0.611726 0
M  V30 23767 C 2171.55 3.40346 0.691526 0
M  V30 23768 C 2170.51 4.27948 -0.0665313 0
M  V30 23769 C 2169.83 5.26584 0.928085 0
M  V30 23770 C 2171.13 5.07137 -1.24936 0
M  V30 23771 H 2172.83 2.82801 -0.983049 0
M  V30 23772 H 2170.37 1.35969 -0.474169 0
M  V30 23773 H 2172.33 4.06306 1.11773 0
M  V30 23774 H 2171.05 2.88866 1.52395 0
M  V30 23775 H 2169.71 3.63528 -0.473586 0
M  V30 23776 H 2169.36 4.71381 1.75524 0
M  V30 23777 H 2169.06 5.86058 0.425371 0
M  V30 23778 H 2170.58 5.95419 1.35309 0
M  V30 23779 H 2172 5.662 -0.899476 0
M  V30 23780 H 2170.39 5.7597 -1.68461 0
M  V30 23781 H 2171.46 4.39425 -2.05021 0
M  V30 23782 N 2172.81 0.529439 1.48441 0
M  V30 23783 C 2174.05 -0.00486384 2.02799 0
M  V30 23784 C 2174.39 -1.33985 1.40576 0
M  V30 23785 O 2173.66 -1.86523 0.551326 0
M  V30 23786 C 2173.94 -0.127443 3.59874 0
M  V30 23787 C 2173.8 1.23268 4.3258 0
M  V30 23788 C 2175.12 -0.854486 4.31725 0
M  V30 23789 H 2172.24 -0.00029358 0.737 0
M  V30 23790 H 2174.88 0.686364 1.7717 0
M  V30 23791 H 2173.03 -0.716153 3.81842 0
M  V30 23792 H 2174.7 1.86245 4.22031 0
M  V30 23793 H 2172.94 1.8147 3.94019 0
M  V30 23794 H 2173.61 1.09991 5.40931 0
M  V30 23795 H 2176.09 -0.354911 4.14584 0
M  V30 23796 H 2174.97 -0.909151 5.41318 0
M  V30 23797 H 2175.23 -1.90464 3.98968 0
M  V30 23798 N 2174.29 -1.55364 0.264547 0
M  V30 23799 C 2175.7 -1.59347 -0.0898743 0
M  V30 23800 C 2175.9 -1.28177 -1.55476 0
M  V30 23801 O 2174.96 -1.03755 -2.30198 0
M  V30 23802 C 2176.27 -2.99438 0.27523 0
M  V30 23803 C 2177.82 -3.12219 0.220976 0
M  V30 23804 C 2178.29 -4.54559 0.560366 0
M  V30 23805 N 2179.78 -4.60367 0.511522 0
M  V30 23806 C 2180.52 -5.68513 0.747063 0
M  V30 23807 N 2180.02 -6.84848 1.04666 0
M  V30 23808 N 2181.81 -5.58013 0.676574 0
M  V30 23809 H 2173.96 -1.73891 1.21966 0
M  V30 23810 H 2176.22 -0.810337 0.491994 0
M  V30 23811 H 2175.93 -3.27046 1.2936 0
M  V30 23812 H 2175.8 -3.75188 -0.389113 0
M  V30 23813 H 2178.19 -2.84382 -0.788097 0
M  V30 23814 H 2178.27 -2.38705 0.919424 0
M  V30 23815 H 2177.91 -4.8312 1.56708 0
M  V30 23816 H 2177.84 -5.26358 -0.159757 0
M  V30 23817 H 2180.34 -3.7679 0.289407 0
M  V30 23818 H 2180.65 -7.63216 1.21334 0
M  V30 23819 H 2178.99 -6.86489 1.08433 0
M  V30 23820 H 2182.18 -4.66004 0.442433 0
M  V30 23821 H 2182.36 -6.42221 0.863527 0
M  V30 23822 N 2175.76 0.00833021 -1.57598 0
M  V30 23823 C 2176.99 0.706123 -1.94478 0
M  V30 23824 C 2177.41 1.67768 -0.86599 0
M  V30 23825 O 2176.76 1.81834 0.155828 0
M  V30 23826 C 2176.81 1.44523 -3.31354 0
M  V30 23827 O 2176.54 0.512651 -4.3509 0
M  V30 23828 C 2178.04 2.2383 -3.82642 0
M  V30 23829 H 2175.26 0.197195 -0.64137 0
M  V30 23830 H 2177.8 -0.0403132 -2.0446 0
M  V30 23831 H 2175.96 2.14337 -3.22705 0
M  V30 23832 H 2176.37 1.03321 -5.14223 0
M  V30 23833 H 2177.84 2.71055 -4.80867 0
M  V30 23834 H 2178.32 3.06148 -3.14913 0
M  V30 23835 H 2178.93 1.59049 -3.94441 0
M  V30 23836 N 2177.24 1.55075 0.280956 0
M  V30 23837 C 2178.2 1.86644 1.33029 0
M  V30 23838 C 2179.2 0.740496 1.42735 0
M  V30 23839 O 2180.39 1.00871 1.42023 0
M  V30 23840 C 2177.53 2.06462 2.71268 0
M  V30 23841 H 2178.72 2.80439 1.06273 0
M  V30 23842 H 2176.27 1.47445 0.51863 0
M  V30 23843 H 2177.01 1.15021 3.03217 0
M  V30 23844 H 2176.79 2.88433 2.65611 0
M  V30 23845 H 2178.28 2.32186 3.47101 0
M  V30 23846 N 2178.72 -0.545102 1.47873 0
M  V30 23847 C 2179.65 -1.6606 1.64153 0
M  V30 23848 C 2180.63 -1.62869 0.490679 0
M  V30 23849 O 2181.82 -1.80302 0.721451 0
M  V30 23850 C 2178.95 -3.04681 1.66694 0
M  V30 23851 C 2177.9 -3.22724 2.81128 0
M  V30 23852 C 2177.23 -4.62253 2.68749 0
M  V30 23853 C 2178.53 -3.06939 4.22594 0
M  V30 23854 H 2180.22 -1.52691 2.57538 0
M  V30 23855 H 2177.77 -0.733146 1.23939 0
M  V30 23856 H 2179.72 -3.82576 1.76674 0
M  V30 23857 H 2178.44 -3.19037 0.698781 0
M  V30 23858 H 2177.1 -2.47241 2.7068 0
M  V30 23859 H 2176.75 -4.73425 1.69935 0
M  V30 23860 H 2176.45 -4.75273 3.45527 0
M  V30 23861 H 2177.97 -5.42268 2.80674 0
M  V30 23862 H 2179.39 -3.7464 4.33956 0
M  V30 23863 H 2177.78 -3.31461 5.00253 0
M  V30 23864 H 2178.85 -2.03538 4.40114 0
M  V30 23865 N 2180.2 -1.36208 -0.792797 0
M  V30 23866 C 2181.14 -1.30258 -1.90529 0
M  V30 23867 C 2182.11 -0.171903 -1.65208 0
M  V30 23868 O 2183.3 -0.357869 -1.87414 0
M  V30 23869 C 2180.44 -1.09434 -3.27289 0
M  V30 23870 C 2179.55 -2.31548 -3.64705 0
M  V30 23871 C 2178.69 -2.03763 -4.90565 0
M  V30 23872 C 2177.73 -3.21855 -5.20649 0
M  V30 23873 N 2176.86 -2.93756 -6.37692 0
M  V30 23874 H 2181.7 -2.25385 -1.9495 0
M  V30 23875 H 2179.24 -1.12022 -0.953389 0
M  V30 23876 H 2181.2 -0.953883 -4.06149 0
M  V30 23877 H 2179.83 -0.179641 -3.223 0
M  V30 23878 H 2178.88 -2.56409 -2.80996 0
M  V30 23879 H 2180.19 -3.19685 -3.82888 0
M  V30 23880 H 2179.35 -1.86627 -5.77283 0
M  V30 23881 H 2178.09 -1.12931 -4.74445 0
M  V30 23882 H 2177.09 -3.39553 -4.32416 0
M  V30 23883 H 2178.32 -4.13507 -5.38691 0
M  V30 23884 H 2176.26 -2.05533 -6.2297 0
M  V30 23885 H 2176.18 -3.75431 -6.56192 0
M  V30 23886 H 2177.45 -2.80192 -7.27401 0
M  V30 23887 N 2181.68 1.01656 -1.20431 0
M  V30 23888 C 2182.92 1.74663 -1.00874 0
M  V30 23889 C 2183.24 1.9012 0.459746 0
M  V30 23890 O 2184.44 2.6022 0.774445 0
M  V30 23891 C 2182.9 3.14147 -1.75612 0
M  V30 23892 C 2182.51 3.06703 -3.26554 0
M  V30 23893 C 2184.25 3.91364 -1.64422 0
M  V30 23894 C 2182.16 4.41194 -3.93829 0
M  V30 23895 H 2181.09 0.654809 -0.37382 0
M  V30 23896 H 2183.74 1.13672 -1.44052 0
M  V30 23897 H 2182.12 3.7568 -1.25221 0
M  V30 23898 H 2183.3 2.54477 -3.84159 0
M  V30 23899 H 2181.61 2.42979 -3.38157 0
M  V30 23900 H 2184.21 4.90866 -2.12026 0
M  V30 23901 H 2184.55 4.11947 -0.600434 0
M  V30 23902 H 2185.08 3.36459 -2.12227 0
M  V30 23903 H 2181.82 4.25814 -4.9836 0
M  V30 23904 H 2181.34 4.93427 -3.41013 0
M  V30 23905 H 2183.02 5.10038 -3.98084 0
M  V30 23906 N 2183.15 1.01021 1.20965 0
M  V30 23907 C 2184.1 0.575015 2.23522 0
M  V30 23908 C 2185.07 -0.401609 1.61172 0
M  V30 23909 O 2186.26 -0.302487 1.88387 0
M  V30 23910 C 2183.4 -0.0869827 3.4499 0
M  V30 23911 C 2182.51 0.933442 4.21795 0
M  V30 23912 C 2181.64 0.243164 5.30643 0
M  V30 23913 C 2180.68 1.25078 5.99184 0
M  V30 23914 N 2179.82 0.587617 6.99637 0
M  V30 23915 H 2184.66 1.45423 2.60108 0
M  V30 23916 H 2182.2 0.728091 1.27817 0
M  V30 23917 H 2184.15 -0.487872 4.14338 0
M  V30 23918 H 2182.78 -0.929881 3.09117 0
M  V30 23919 H 2181.84 1.45254 3.51576 0
M  V30 23920 H 2183.15 1.70003 4.68936 0
M  V30 23921 H 2182.3 -0.213561 6.06324 0
M  V30 23922 H 2181.04 -0.555781 4.84523 0
M  V30 23923 H 2180.05 1.71796 5.2227 0
M  V30 23924 H 2181.27 2.0509 6.47391 0
M  V30 23925 H 2179.22 -0.191575 6.5572 0
M  V30 23926 H 2179.13 1.29237 7.44872 0
M  V30 23927 H 2180.4 0.154271 7.79347 0
M  V30 23928 N 2184.63 -1.36623 0.78561 0
M  V30 23929 C 2185.86 -2.036 0.368068 0
M  V30 23930 C 2186.27 -1.5924 -1.01429 0
M  V30 23931 O 2185.63 -0.780055 -1.64989 0
M  V30 23932 C 2185.68 -3.59077 0.417857 0
M  V30 23933 O 2185.4 -4.01817 1.7457 0
M  V30 23934 C 2186.9 -4.43299 -0.00953716 0
M  V30 23935 H 2184.12 -0.653506 0.152221 0
M  V30 23936 H 2186.67 -1.74677 1.0634 0
M  V30 23937 H 2184.82 -3.86722 -0.229019 0
M  V30 23938 H 2185.24 -4.96395 1.69389 0
M  V30 23939 H 2186.71 -5.51947 0.0764418 0
M  V30 23940 H 2187.19 -4.26175 -1.06169 0
M  V30 23941 H 2187.79 -4.20907 0.60968 0
M  V30 23942 N 2186.11 -0.537304 -1.48158 0
M  V30 23943 C 2187.02 0.225092 -2.33518 0
M  V30 23944 C 2188.04 0.931763 -1.4695 0
M  V30 23945 O 2189.21 0.905094 -1.79917 0
M  V30 23946 C 2186.28 1.25403 -3.23226 0
M  V30 23947 C 2185.34 0.556924 -4.25672 0
M  V30 23948 C 2184.57 1.53684 -5.11094 0
M  V30 23949 O 2184.79 2.77009 -4.9862 0
M  V30 23950 O 2183.73 1.07222 -5.92273 0
M  V30 23951 H 2187.55 -0.474567 -2.99969 0
M  V30 23952 H 2185.14 -0.298137 -1.46395 0
M  V30 23953 H 2187.02 1.84847 -3.78695 0
M  V30 23954 H 2185.7 1.93596 -2.59427 0
M  V30 23955 H 2184.6 -0.0781996 -3.74018 0
M  V30 23956 H 2185.94 -0.0832021 -4.9213 0
M  V30 23957 N 2187.59 1.55221 -0.272782 0
M  V30 23958 C 2188.84 1.99151 0.343986 0
M  V30 23959 C 2189.16 1.16259 1.56553 0
M  V30 23960 O 2188.43 0.25154 1.94278 0
M  V30 23961 H 2187.01 0.735586 0.130087 0
M  V30 23962 H 2189.67 1.91208 -0.377577 0
M  V30 23963 H 2188.77 3.05562 0.635452 0
M  V30 23964 N 2189.07 2.77022e-05 1.576 0
M  V30 23965 C 2190.01 -1.0096 2.09547 0
M  V30 23966 C 2191.01 -1.3559 1.01547 0
M  V30 23967 O 2192.21 -1.34154 1.20012 0
M  V30 23968 H 2188.59 -0.343238 0.669098 0
M  V30 23969 H 2190.56 -0.545912 2.93364 0
M  V30 23970 C 2189.31 -2.29263 2.61407 0
M  V30 23971 H 2188.63 -2.03484 3.44143 0
M  V30 23972 H 2190.07 -2.98185 3.01433 0
M  V30 23973 C 2188.53 -3.00245 1.52822 0
M  V30 23974 O 2189.06 -3.9123 0.911146 0
M  V30 23975 N 2187.27 -2.62071 1.25567 0
M  V30 23976 H 2186.81 -1.88164 1.75932 0
M  V30 23977 H 2186.77 -3.09878 0.531333 0
M  V30 23978 N 2190.54 -1.55222 -0.272728 0
M  V30 23979 C 2191.79 -1.75841 -1.00429 0
M  V30 23980 C 2192.12 -0.559662 -1.86274 0
M  V30 23981 O 2191.37 0.457824 -1.90269 0
M  V30 23982 C 2191.67 -3.01679 -1.91637 0
M  V30 23983 C 2191.34 -4.34211 -1.2154 0
M  V30 23984 C 2190 -4.70231 -1.02158 0
M  V30 23985 C 2192.35 -5.1625 -0.716594 0
M  V30 23986 C 2189.68 -5.85847 -0.316231 0
M  V30 23987 C 2192.03 -6.32595 -0.0248364 0
M  V30 23988 C 2190.7 -6.67255 0.180696 0
M  V30 23989 H 2189.97 -0.643449 -0.367497 0
M  V30 23990 H 2192.61 -1.89492 -0.276563 0
M  V30 23991 H 2190.92 -2.82929 -2.71032 0
M  V30 23992 H 2192.62 -3.14828 -2.48363 0
M  V30 23993 H 2189.21 -4.05899 -1.37638 0
M  V30 23994 H 2193.39 -4.88898 -0.853961 0
M  V30 23995 H 2188.65 -6.11225 -0.14627 0
M  V30 23996 H 2192.82 -6.95419 0.369433 0
M  V30 23997 H 2190.45 -7.56694 0.729231 0
M  V30 23998 N 2192.02 0.537252 -1.4816 0
M  V30 23999 C 2192.93 1.66957 -1.6481 0
M  V30 24000 C 2193.95 1.6571 -0.53068 0
M  V30 24001 O 2195.12 1.84794 -0.800816 0
M  V30 24002 C 2192.19 3.03435 -1.67714 0
M  V30 24003 C 2191.25 3.15595 -2.9103 0
M  V30 24004 C 2190.48 4.45562 -2.93786 0
M  V30 24005 O 2190.71 5.32226 -2.05162 0
M  V30 24006 O 2189.64 4.61934 -3.85876 0
M  V30 24007 H 2193.47 1.55849 -2.60662 0
M  V30 24008 H 2191.05 0.709526 -1.31477 0
M  V30 24009 H 2192.93 3.84616 -1.72187 0
M  V30 24010 H 2191.61 3.14884 -0.750333 0
M  V30 24011 H 2190.52 2.33736 -2.92093 0
M  V30 24012 H 2191.85 3.09059 -3.83071 0
M  V30 24013 N 2193.5 1.36626 0.785562 0
M  V30 24014 C 2194.43 1.27134 1.90708 0
M  V30 24015 C 2195.45 0.190014 1.61687 0
M  V30 24016 O 2196.63 0.445045 1.72863 0
M  V30 24017 C 2193.73 0.93977 3.25609 0
M  V30 24018 C 2192.91 2.12376 3.82381 0
M  V30 24019 C 2191.97 1.76464 4.95729 0
M  V30 24020 O 2190.99 2.48598 5.12043 0
M  V30 24021 N 2192.19 0.700594 5.76257 0
M  V30 24022 H 2194.96 2.23765 1.99372 0
M  V30 24023 H 2192.52 1.3007 0.964018 0
M  V30 24024 H 2194.51 0.680624 3.98936 0
M  V30 24025 H 2193.08 0.0624623 3.12538 0
M  V30 24026 H 2192.3 2.54548 3.00997 0
M  V30 24027 H 2193.59 2.91468 4.17042 0
M  V30 24028 H 2192.99 0.101724 5.65609 0
M  V30 24029 H 2191.55 0.501279 6.4987 0
M  V30 24030 N 2194.98 -1.01016 1.20969 0
M  V30 24031 C 2195.94 -2.07851 0.965954 0
M  V30 24032 C 2196.94 -1.60684 -0.0610263 0
M  V30 24033 O 2198.13 -1.73312 0.175711 0
M  V30 24034 C 2195.26 -3.37842 0.455573 0
M  V30 24035 H 2196.46 -2.30907 1.91369 0
M  V30 24036 H 2194.01 -1.17915 1.02596 0
M  V30 24037 H 2194.74 -3.20464 -0.497325 0
M  V30 24038 H 2194.53 -3.73405 1.19628 0
M  V30 24039 H 2196.02 -4.16487 0.304741 0
M  V30 24040 N 2196.46 -1.01661 -1.20428 0
M  V30 24041 C 2197.4 -0.580183 -2.25248 0
M  V30 24042 C 2198.4 0.381086 -1.65058 0
M  V30 24043 O 2199.6 0.251007 -1.78241 0
M  V30 24044 H 2195.98 -0.169312 -0.732692 0
M  V30 24045 H 2197.95 -1.47516 -2.59387 0
M  V30 24046 C 2196.7 0.0657269 -3.47638 0
M  V30 24047 H 2196.02 -0.664944 -3.94232 0
M  V30 24048 H 2197.46 0.334208 -4.22681 0
M  V30 24049 C 2195.92 1.30855 -3.10449 0
M  V30 24050 O 2196.45 2.40185 -3.21985 0
M  V30 24051 N 2194.66 1.19265 -2.64998 0
M  V30 24052 H 2194.2 0.303019 -2.55812 0
M  V30 24053 H 2194.16 2.02519 -2.40486 0
M  V30 24054 N 2197.93 1.36205 -0.792844 0
M  V30 24055 C 2198.84 2.33789 -0.19485 0
M  V30 24056 C 2199.86 1.61207 0.65484 0
M  V30 24057 O 2201.04 1.93171 0.569822 0
M  V30 24058 C 2198.1 3.40405 0.657661 0
M  V30 24059 C 2197.16 4.28782 -0.210924 0
M  V30 24060 C 2196.4 5.30305 0.600993 0
M  V30 24061 O 2196.62 5.40019 1.83673 0
M  V30 24062 O 2195.55 6.019 -0.000914076 0
M  V30 24063 H 2199.38 2.86702 -1.00178 0
M  V30 24064 H 2196.96 1.38734 -0.554366 0
M  V30 24065 H 2198.85 4.05583 1.14368 0
M  V30 24066 H 2197.52 2.89786 1.44242 0
M  V30 24067 H 2196.43 3.66632 -0.743779 0
M  V30 24068 H 2197.76 4.82761 -0.95928 0
M  V30 24069 N 2199.41 0.545154 1.47871 0
M  V30 24070 C 2200.32 -0.212705 2.33634 0
M  V30 24071 C 2201.34 -0.923957 1.47442 0
M  V30 24072 O 2202.51 -0.89554 1.80394 0
M  V30 24073 C 2199.58 -1.23687 3.23886 0
M  V30 24074 C 2198.64 -0.534342 4.25962 0
M  V30 24075 C 2197.87 -1.50971 5.11902 0
M  V30 24076 O 2198.1 -2.74361 5.00082 0
M  V30 24077 O 2197.03 -1.0408 5.92833 0
M  V30 24078 H 2200.86 0.490469 2.99713 0
M  V30 24079 H 2198.44 0.305896 1.46235 0
M  V30 24080 H 2200.32 -1.82836 3.7967 0
M  V30 24081 H 2199 -1.92218 2.6045 0
M  V30 24082 H 2197.91 0.0980336 3.73972 0
M  V30 24083 H 2199.24 0.1093 4.92079 0
M  V30 24084 N 2200.89 -1.55074 0.28101 0
M  V30 24085 C 2201.82 -2.25728 -0.597429 0
M  V30 24086 C 2202.8 -1.24954 -1.15415 0
M  V30 24087 O 2203.99 -1.53686 -1.1872 0
M  V30 24088 C 2201.12 -2.98286 -1.77884 0
M  V30 24089 C 2200.07 -4.06038 -1.35339 0
M  V30 24090 C 2199.4 -4.66203 -2.61838 0
M  V30 24091 C 2200.7 -5.19908 -0.499263 0
M  V30 24092 H 2202.39 -2.99399 -0.00819002 0
M  V30 24093 H 2199.94 -1.44 -0.00249909 0
M  V30 24094 H 2201.89 -3.46426 -2.39931 0
M  V30 24095 H 2200.61 -2.22159 -2.39401 0
M  V30 24096 H 2199.27 -3.58718 -0.756093 0
M  V30 24097 H 2198.92 -3.86738 -3.21625 0
M  V30 24098 H 2198.62 -5.38962 -2.3408 0
M  V30 24099 H 2200.14 -5.17095 -3.24723 0
M  V30 24100 H 2201.56 -5.64065 -1.02488 0
M  V30 24101 H 2199.96 -5.99266 -0.316319 0
M  V30 24102 H 2201.03 -4.82513 0.480544 0
M  V30 24103 N 2202.37 -0.00838561 -1.57598 0
M  V30 24104 C 2203.79 0.347795 -1.55764 0
M  V30 24105 C 2203.99 1.7425 -1.01189 0
M  V30 24106 O 2203.04 2.44006 -0.649414 0
M  V30 24107 C 2204.35 0.215355 -2.99928 0
M  V30 24108 C 2205.9 0.289671 -3.11657 0
M  V30 24109 C 2206.38 0.186259 -4.57621 0
M  V30 24110 N 2207.87 0.243897 -4.62557 0
M  V30 24111 C 2208.6 0.187349 -5.73094 0
M  V30 24112 N 2208.1 0.0809113 -6.92753 0
M  V30 24113 N 2209.89 0.239827 -5.61588 0
M  V30 24114 H 2202.04 -0.920654 -1.9141 0
M  V30 24115 H 2204.31 -0.353675 -0.879556 0
M  V30 24116 H 2204.01 -0.744572 -3.43728 0
M  V30 24117 H 2203.89 0.994033 -3.63866 0
M  V30 24118 H 2206.27 1.24005 -2.67781 0
M  V30 24119 H 2206.35 -0.519024 -2.50479 0
M  V30 24120 H 2206 -0.760608 -5.02172 0
M  V30 24121 H 2205.93 1.01355 -5.16754 0
M  V30 24122 H 2208.42 0.327151 -3.76481 0
M  V30 24123 H 2208.73 0.0438883 -7.72788 0
M  V30 24124 H 2207.08 0.0464198 -6.94984 0
M  V30 24125 H 2210.27 0.321234 -4.66996 0
M  V30 24126 H 2210.44 0.192293 -6.47715 0
M  V30 24127 N 2203.85 1.55365 0.264492 0
M  V30 24128 C 2204.81 1.88044 1.31042 0
M  V30 24129 C 2205.81 0.755594 1.41942 0
M  V30 24130 O 2207 1.02372 1.40946 0
M  V30 24131 C 2204.13 2.09327 2.69063 0
M  V30 24132 H 2205.33 2.81551 1.03292 0
M  V30 24133 H 2202.88 1.47986 0.502963 0
M  V30 24134 H 2203.61 1.18231 3.0198 0
M  V30 24135 H 2203.4 2.91234 2.62536 0
M  V30 24136 H 2204.89 2.35854 3.44619 0
M  V30 24137 N 2205.33 -0.529387 1.48443 0
M  V30 24138 C 2206.57 -1.28166 1.55744 0
M  V30 24139 C 2206.89 -1.94164 0.236545 0
M  V30 24140 O 2208.09 -2.7085 0.187809 0
M  V30 24141 C 2206.55 -2.3256 2.74671 0
M  V30 24142 C 2206.16 -1.72628 4.13405 0
M  V30 24143 C 2207.9 -3.08793 2.91285 0
M  V30 24144 C 2205.81 -2.74965 5.23591 0
M  V30 24145 H 2204.74 -0.48202 0.579804 0
M  V30 24146 H 2207.39 -0.559025 1.74777 0
M  V30 24147 H 2205.77 -3.07862 2.49073 0
M  V30 24148 H 2206.95 -1.03511 4.49024 0
M  V30 24149 H 2205.26 -1.08885 4.01912 0
M  V30 24150 H 2207.86 -3.85267 3.70774 0
M  V30 24151 H 2208.2 -3.64691 2.00764 0
M  V30 24152 H 2208.73 -2.40606 3.16786 0
M  V30 24153 H 2205.47 -2.23887 6.1608 0
M  V30 24154 H 2204.99 -3.42409 4.9246 0
M  V30 24155 H 2206.67 -3.37939 5.5173 0
M  V30 24156 N 2206.8 -1.37041 -0.778305 0
M  V30 24157 C 2208.05 -1.31213 -1.53187 0
M  V30 24158 C 2208.37 0.103061 -1.95328 0
M  V30 24159 O 2209.57 0.283779 -2.70013 0
M  V30 24160 C 2208.03 -2.30277 -2.76587 0
M  V30 24161 C 2207.64 -3.7729 -2.4157 0
M  V30 24162 C 2209.38 -2.33447 -3.54546 0
M  V30 24163 C 2207.29 -4.68103 -3.61433 0
M  V30 24164 H 2206.22 -0.487633 -0.575092 0
M  V30 24165 H 2208.87 -1.62465 -0.853073 0
M  V30 24166 H 2207.25 -1.92033 -3.46322 0
M  V30 24167 H 2208.42 -4.24333 -1.7966 0
M  V30 24168 H 2206.74 -3.77002 -1.768 0
M  V30 24169 H 2209.34 -2.98501 -4.43623 0
M  V30 24170 H 2209.68 -1.34618 -3.93934 0
M  V30 24171 H 2210.21 -2.70365 -2.91801 0
M  V30 24172 H 2206.95 -5.68036 -3.27132 0
M  V30 24173 H 2206.47 -4.25768 -4.2247 0
M  V30 24174 H 2208.15 -4.84918 -4.28327 0
M  V30 24175 N 2208.28 1.00373 -1.21503 0
M  V30 24176 C 2209.23 2.09175 -0.975424 0
M  V30 24177 C 2210.2 1.65805 0.0990324 0
M  V30 24178 O 2211.38 1.90739 -0.0483483 0
M  V30 24179 C 2208.52 3.40728 -0.547567 0
M  V30 24180 C 2207.64 3.97503 -1.6916 0
M  V30 24181 C 2206.77 5.1717 -1.21279 0
M  V30 24182 C 2205.81 5.66057 -2.32907 0
M  V30 24183 N 2204.95 6.76973 -1.8615 0
M  V30 24184 H 2209.79 2.29005 -1.90684 0
M  V30 24185 H 2207.32 1.12286 -0.950277 0
M  V30 24186 H 2209.28 4.16254 -0.280741 0
M  V30 24187 H 2207.91 3.20931 0.346848 0
M  V30 24188 H 2206.96 3.18951 -2.07303 0
M  V30 24189 H 2208.28 4.29776 -2.53167 0
M  V30 24190 H 2207.43 5.99947 -0.902697 0
M  V30 24191 H 2206.17 4.86494 -0.342777 0
M  V30 24192 H 2205.17 4.81876 -2.64718 0
M  V30 24193 H 2206.4 5.98763 -3.20406 0
M  V30 24194 H 2204.35 6.48101 -1.01495 0
M  V30 24195 H 2204.26 7.08507 -2.6373 0
M  V30 24196 H 2205.53 7.63282 -1.58179 0
M  V30 24197 N 2209.76 1.02298 1.19887 0
M  V30 24198 C 2210.71 0.598691 2.229 0
M  V30 24199 C 2211.68 -0.384492 1.61589 0
M  V30 24200 O 2212.86 -0.282489 1.88697 0
M  V30 24201 C 2210 -0.0503869 3.45063 0
M  V30 24202 C 2209.11 0.978127 4.20781 0
M  V30 24203 C 2208.25 0.299432 5.30355 0
M  V30 24204 C 2207.29 1.31426 5.97824 0
M  V30 24205 N 2206.43 0.66179 6.98974 0
M  V30 24206 H 2211.27 1.48173 2.58551 0
M  V30 24207 H 2208.8 0.741606 1.27038 0
M  V30 24208 H 2210.76 -0.443898 4.14832 0
M  V30 24209 H 2209.39 -0.897042 3.10085 0
M  V30 24210 H 2208.44 1.48975 3.50015 0
M  V30 24211 H 2209.75 1.74967 4.67106 0
M  V30 24212 H 2208.91 -0.14924 6.06516 0
M  V30 24213 H 2207.65 -0.50436 4.85085 0
M  V30 24214 H 2206.65 1.77326 5.20419 0
M  V30 24215 H 2207.88 2.11945 6.45179 0
M  V30 24216 H 2205.82 -0.122017 6.55887 0
M  V30 24217 H 2205.74 1.3713 7.43459 0
M  V30 24218 H 2207.01 0.236922 7.7914 0
M  V30 24219 N 2211.24 -1.35782 0.800057 0
M  V30 24220 C 2212.49 -1.98204 0.373905 0
M  V30 24221 C 2212.8 -1.64194 -1.06299 0
M  V30 24222 O 2214.01 -2.19931 -1.59194 0
M  V30 24223 C 2212.46 -3.54561 0.617594 0
M  V30 24224 C 2212.07 -3.97486 2.06661 0
M  V30 24225 C 2213.81 -4.23725 0.256476 0
M  V30 24226 C 2211.72 -5.46663 2.25639 0
M  V30 24227 H 2210.65 -0.741621 0.136068 0
M  V30 24228 H 2213.3 -1.54937 0.983193 0
M  V30 24229 H 2211.68 -3.95952 -0.0615552 0
M  V30 24230 H 2212.86 -3.67266 2.78303 0
M  V30 24231 H 2211.17 -3.41193 2.38697 0
M  V30 24232 H 2213.77 -5.33373 0.376412 0
M  V30 24233 H 2214.11 -4.08607 -0.796621 0
M  V30 24234 H 2214.65 -3.87733 0.889282 0
M  V30 24235 H 2211.38 -5.66741 3.2937 0
M  V30 24236 H 2210.9 -5.78475 1.58514 0
M  V30 24237 H 2212.58 -6.13036 2.06872 0
M  V30 24238 N 2212.72 -0.552988 -1.4758 0
M  V30 24239 C 2213.96 -0.0356165 -2.03369 0
M  V30 24240 C 2214.32 1.29802 -1.42018 0
M  V30 24241 O 2213.61 1.83082 -0.56495 0
M  V30 24242 C 2213.8 0.119666 -3.572 0
M  V30 24243 C 2213.63 -1.19737 -4.33466 0
M  V30 24244 C 2212.4 -1.76353 -4.73527 0
M  V30 24245 C 2214.6 -2.11359 -4.68862 0
M  V30 24246 N 2212.58 -3.02106 -5.3442 0
M  V30 24247 C 2213.95 -3.2169 -5.30014 0
M  V30 24248 C 2216.01 -2.11404 -4.50791 0
M  V30 24249 C 2214.71 -4.32161 -5.75004 0
M  V30 24250 C 2216.74 -3.20885 -4.96777 0
M  V30 24251 C 2216.1 -4.29936 -5.57974 0
M  V30 24252 H 2212.2 -0.0550943 -0.780057 0
M  V30 24253 H 2214.78 -0.739347 -1.80116 0
M  V30 24254 H 2212.95 0.792513 -3.80229 0
M  V30 24255 H 2214.69 0.638721 -3.99628 0
M  V30 24256 H 2211.44 -1.30204 -4.5535 0
M  V30 24257 H 2211.86 -3.66192 -5.69414 0
M  V30 24258 H 2216.51 -1.28379 -4.02838 0
M  V30 24259 H 2214.22 -5.15949 -6.2195 0
M  V30 24260 H 2217.81 -3.22002 -4.84568 0
M  V30 24261 H 2216.69 -5.13253 -5.92909 0
M  V30 24262 N 2214.19 1.54923 -0.28923 0
M  V30 24263 C 2215.14 2.23076 0.592075 0
M  V30 24264 C 2216.11 1.20917 1.13879 0
M  V30 24265 O 2217.3 1.49502 1.18549 0
M  V30 24266 C 2214.44 2.96626 1.76371 0
M  V30 24267 C 2213.55 4.13535 1.24951 0
M  V30 24268 C 2212.68 4.74695 2.38407 0
M  V30 24269 C 2211.72 5.8377 1.84062 0
M  V30 24270 N 2210.86 6.38934 2.91045 0
M  V30 24271 H 2215.7 2.98 0.00426799 0
M  V30 24272 H 2213.24 1.47097 -0.00966114 0
M  V30 24273 H 2215.19 3.37494 2.45262 0
M  V30 24274 H 2213.82 2.24101 2.32333 0
M  V30 24275 H 2212.88 3.7769 0.453241 0
M  V30 24276 H 2214.19 4.92153 0.811576 0
M  V30 24277 H 2213.34 5.18355 3.15267 0
M  V30 24278 H 2212.08 3.95383 2.85523 0
M  V30 24279 H 2211.09 5.39546 1.05687 0
M  V30 24280 H 2212.31 6.64959 1.37865 0
M  V30 24281 H 2210.26 5.62511 3.37516 0
M  V30 24282 H 2210.17 7.12866 2.51712 0
M  V30 24283 H 2211.44 6.87252 3.67838 0
M  V30 24284 N 2215.67 0.0167433 1.57591 0
M  V30 24285 C 2217.09 -0.339529 1.55947 0
M  V30 24286 C 2217.29 -1.73711 1.02112 0
M  V30 24287 O 2216.34 -2.43658 0.662345 0
M  V30 24288 C 2217.66 -0.199446 3.00038 0
M  V30 24289 C 2219.2 -0.273139 3.11806 0
M  V30 24290 C 2219.68 -0.161988 4.57713 0
M  V30 24291 N 2221.17 -0.219363 4.6268 0
M  V30 24292 C 2221.91 -0.156954 5.73185 0
M  V30 24293 N 2221.4 -0.0441718 6.92786 0
M  V30 24294 N 2223.19 -0.210041 5.61707 0
M  V30 24295 H 2215.35 0.930792 1.90919 0
M  V30 24296 H 2217.61 0.358334 0.877668 0
M  V30 24297 H 2217.31 0.76279 3.43328 0
M  V30 24298 H 2217.19 -0.974722 3.64389 0
M  V30 24299 H 2219.58 -1.22583 2.68435 0
M  V30 24300 H 2219.66 0.5323 2.502 0
M  V30 24301 H 2219.3 0.787228 5.01762 0
M  V30 24302 H 2219.23 -0.986131 5.17284 0
M  V30 24303 H 2221.72 -0.30718 3.76649 0
M  V30 24304 H 2222.03 -0.00290485 7.728 0
M  V30 24305 H 2220.38 -0.00956241 6.94999 0
M  V30 24306 H 2223.57 -0.296464 4.6716 0
M  V30 24307 H 2223.74 -0.15794 6.47807 0
M  V30 24308 N 2217.15 -1.55503 -0.256249 0
M  V30 24309 C 2218.38 -1.80941 -1.00339 0
M  V30 24310 C 2218.79 -0.591171 -1.79306 0
M  V30 24311 O 2218.15 0.44005 -1.77115 0
M  V30 24312 C 2218.2 -3.0448 -1.9487 0
M  V30 24313 O 2217.92 -4.216 -1.19099 0
M  V30 24314 C 2219.42 -3.42648 -2.81259 0
M  V30 24315 H 2216.64 -0.602344 -0.295674 0
M  V30 24316 H 2219.19 -2.02547 -0.281962 0
M  V30 24317 H 2217.34 -2.84952 -2.62452 0
M  V30 24318 H 2217.76 -4.91555 -1.8296 0
M  V30 24319 H 2219.23 -4.32217 -3.43355 0
M  V30 24320 H 2219.71 -2.62808 -3.51893 0
M  V30 24321 H 2220.31 -3.64495 -2.19143 0
M  V30 24322 N 2218.63 0.521507 -1.48721 0
M  V30 24323 C 2219.85 1.30615 -1.61104 0
M  V30 24324 C 2220.28 1.86084 -0.274643 0
M  V30 24325 O 2219.64 1.64836 0.754908 0
M  V30 24326 C 2219.68 2.42685 -2.66714 0
M  V30 24327 O 2218.79 3.45963 -2.24462 0
M  V30 24328 H 2218.13 0.38649 -0.539927 0
M  V30 24329 H 2220.66 0.626611 -1.94768 0
M  V30 24330 H 2220.67 2.88749 -2.8825 0
M  V30 24331 H 2219.34 2.01675 -3.63731 0
M  V30 24332 H 2217.92 3.0596 -2.13174 0
M  V30 24333 N 2220.11 1.37452 0.771027 0
M  V30 24334 C 2221.04 1.27641 1.89164 0
M  V30 24335 C 2222.02 0.15681 1.61842 0
M  V30 24336 O 2223.2 0.331144 1.85569 0
M  V30 24337 C 2220.33 0.973678 3.24403 0
M  V30 24338 C 2219.37 2.11027 3.70635 0
M  V30 24339 S 2220.21 3.73007 3.84221 0
M  V30 24340 C 2221.36 3.44885 5.22307 0
M  V30 24341 H 2221.6 2.22488 1.97196 0
M  V30 24342 H 2219.13 1.23083 0.932202 0
M  V30 24343 H 2221.09 0.805837 4.02513 0
M  V30 24344 H 2219.75 0.0426831 3.14071 0
M  V30 24345 H 2218.94 1.85347 4.68682 0
M  V30 24346 H 2218.54 2.23828 2.99628 0
M  V30 24347 H 2220.84 2.99918 6.07499 0
M  V30 24348 H 2221.78 4.42263 5.53 0
M  V30 24349 H 2222.19 2.79798 4.90279 0
M  V30 24350 N 2221.58 -0.997276 1.22033 0
M  V30 24351 C 2222.53 -2.08655 0.986504 0
M  V30 24352 C 2223.5 -1.65855 -0.090238 0
M  V30 24353 O 2224.69 -1.9071 0.0584629 0
M  V30 24354 C 2221.83 -3.40433 0.565629 0
M  V30 24355 C 2220.94 -3.966 1.71266 0
M  V30 24356 C 2220.07 -5.1652 1.2402 0
M  V30 24357 C 2219.11 -5.64814 2.35906 0
M  V30 24358 N 2218.25 -6.75976 1.89738 0
M  V30 24359 H 2223.09 -2.27991 1.91896 0
M  V30 24360 H 2220.63 -1.1178 0.956219 0
M  V30 24361 H 2222.59 -4.161 0.302812 0
M  V30 24362 H 2221.22 -3.21111 -0.329823 0
M  V30 24363 H 2220.27 -3.17847 2.08992 0
M  V30 24364 H 2221.58 -4.28428 2.55443 0
M  V30 24365 H 2220.73 -5.9946 0.934501 0
M  V30 24366 H 2219.47 -4.86305 0.368573 0
M  V30 24367 H 2218.48 -4.80465 2.67269 0
M  V30 24368 H 2219.7 -5.97055 3.23577 0
M  V30 24369 H 2217.65 -6.47553 1.04931 0
M  V30 24370 H 2217.57 -7.07099 2.67483 0
M  V30 24371 H 2218.83 -7.62433 1.62224 0
M  V30 24372 N 2223.06 -1.02932 -1.19343 0
M  V30 24373 C 2223.99 -0.631145 -2.24808 0
M  V30 24374 C 2224.97 0.360075 -1.66245 0
M  V30 24375 O 2226.16 0.242692 -1.92678 0
M  V30 24376 C 2223.29 0.0183996 -3.47295 0
M  V30 24377 C 2222.24 -0.895147 -4.18534 0
M  V30 24378 C 2221.57 -0.110686 -5.34585 0
M  V30 24379 C 2222.87 -2.20909 -4.73283 0
M  V30 24380 H 2224.56 -1.5128 -2.5837 0
M  V30 24381 H 2222.11 -0.72884 -1.24193 0
M  V30 24382 H 2224.06 0.308601 -4.20269 0
M  V30 24383 H 2222.79 0.934852 -3.12935 0
M  V30 24384 H 2221.44 -1.16955 -3.47444 0
M  V30 24385 H 2221.09 0.807815 -4.96471 0
M  V30 24386 H 2220.79 -0.71919 -5.83182 0
M  V30 24387 H 2222.32 0.172764 -6.10356 0
M  V30 24388 H 2223.73 -1.98038 -5.38009 0
M  V30 24389 H 2222.13 -2.76955 -5.32368 0
M  V30 24390 H 2223.2 -2.86343 -3.91326 0
M  V30 24391 N 2224.54 1.35356 -0.807246 0
M  V30 24392 C 2225.47 2.32339 -0.23255 0
M  V30 24393 C 2226.45 1.57505 0.642358 0
M  V30 24394 O 2227.64 1.8557 0.572493 0
M  V30 24395 C 2224.77 3.41736 0.619178 0
M  V30 24396 C 2223.72 4.27711 -0.157291 0
M  V30 24397 C 2223.05 5.28434 0.81618 0
M  V30 24398 C 2224.35 5.04373 -1.35665 0
M  V30 24399 H 2226.04 2.80652 -1.04281 0
M  V30 24400 H 2223.59 1.34933 -0.502904 0
M  V30 24401 H 2225.54 4.08586 1.03129 0
M  V30 24402 H 2224.26 2.92033 1.46233 0
M  V30 24403 H 2222.92 3.62442 -0.550589 0
M  V30 24404 H 2222.57 4.74998 1.65486 0
M  V30 24405 H 2222.27 5.86829 0.300964 0
M  V30 24406 H 2223.79 5.98155 1.22649 0
M  V30 24407 H 2225.21 5.64165 -1.01937 0
M  V30 24408 H 2223.61 5.72267 -1.8064 0
M  V30 24409 H 2224.68 4.34977 -2.14296 0
M  V30 24410 N 2226.02 0.560807 1.47284 0
M  V30 24411 C 2227.3 -0.0277455 1.9558 0
M  V30 24412 C 2227.68 -1.4819 1.50343 0
M  V30 24413 O 2227.02 -2.16051 0.74392 0
M  V30 24414 C 2227.23 0.121479 3.48789 0
M  V30 24415 C 2228.58 -0.0220166 4.24594 0
M  V30 24416 O 2229.61 0.0492065 3.56166 0
M  V30 24417 O 2228.46 -0.175862 5.46217 0
M  V30 24418 H 2225.56 -0.0621197 0.824664 0
M  V30 24419 H 2228.1 0.627584 1.57669 0
M  V30 24420 H 2226.88 1.13323 3.74531 0
M  V30 24421 H 2226.5 -0.571296 3.93474 0
M  V30 24422 N 2227.5 -1.54768 0.297442 0
M  V30 24423 C 2228.43 -2.20827 -0.613842 0
M  V30 24424 C 2229.44 -1.19989 -1.1003 0
M  V30 24425 O 2230.63 -1.466 -1.01836 0
M  V30 24426 C 2227.73 -2.83824 -1.85195 0
M  V30 24427 C 2226.9 -4.10561 -1.50858 0
M  V30 24428 C 2225.96 -4.57395 -2.60146 0
M  V30 24429 O 2224.99 -5.22674 -2.25389 0
M  V30 24430 N 2226.19 -4.29413 -3.90621 0
M  V30 24431 H 2228.96 -2.99661 -0.0483364 0
M  V30 24432 H 2226.52 -1.61458 0.119488 0
M  V30 24433 H 2228.51 -3.1209 -2.57647 0
M  V30 24434 H 2227.08 -2.08852 -2.32594 0
M  V30 24435 H 2226.3 -3.89344 -0.616857 0
M  V30 24436 H 2227.59 -4.93092 -1.2545 0
M  V30 24437 H 2226.98 -3.77108 -4.21671 0
M  V30 24438 H 2225.54 -4.62396 -4.59383 0
M  V30 24439 N 2228.97 -0.0251005 -1.5758 0
M  V30 24440 C 2230.22 0.65538 -1.91918 0
M  V30 24441 C 2230.55 1.7201 -0.901464 0
M  V30 24442 O 2229.83 1.9435 0.0763727 0
M  V30 24443 C 2230.11 1.27552 -3.36753 0
M  V30 24444 C 2229.96 0.22064 -4.49259 0
M  V30 24445 C 2231.28 2.19468 -3.81473 0
M  V30 24446 H 2228.4 0.236778 -0.697929 0
M  V30 24447 H 2231.04 -0.081537 -1.89825 0
M  V30 24448 H 2229.19 1.90359 -3.38667 0
M  V30 24449 H 2230.87 -0.409682 -4.59477 0
M  V30 24450 H 2229.11 -0.45434 -4.31414 0
M  V30 24451 H 2229.78 0.694079 -5.47619 0
M  V30 24452 H 2232.26 1.66652 -3.81269 0
M  V30 24453 H 2231.13 2.59813 -4.83516 0
M  V30 24454 H 2231.39 3.08419 -3.1675 0
M  V30 24455 N 2230.45 1.55637 0.247999 0
M  V30 24456 C 2231.7 1.76619 0.974103 0
M  V30 24457 C 2232.01 0.588829 1.86527 0
M  V30 24458 O 2233.22 0.681641 2.62804 0
M  V30 24459 C 2231.68 3.12682 1.78207 0
M  V30 24460 C 2231.28 4.38063 0.938353 0
M  V30 24461 C 2233.03 3.43004 2.50098 0
M  V30 24462 C 2230.94 5.65158 1.74215 0
M  V30 24463 H 2229.87 0.658411 0.367438 0
M  V30 24464 H 2232.52 1.82068 0.228808 0
M  V30 24465 H 2230.9 3.01337 2.56928 0
M  V30 24466 H 2232.07 4.60393 0.193554 0
M  V30 24467 H 2230.39 4.15068 0.332832 0
M  V30 24468 H 2232.98 4.35176 3.10687 0
M  V30 24469 H 2233.33 2.64277 3.21657 0
M  V30 24470 H 2233.86 3.55559 1.78388 0
M  V30 24471 H 2230.6 6.46703 1.07031 0
M  V30 24472 H 2230.12 5.46931 2.46226 0
M  V30 24473 H 2231.8 6.04374 2.30956 0
M  V30 24474 N 2231.93 -0.513613 1.48996 0
M  V30 24475 C 2233.34 -1.09534 1.51192 0
M  V30 24476 C 2233.69 -1.94031 0.29094 0
M  V30 24477 O 2232.82 -2.07903 -0.600453 0
M  V30 24478 C 2233.41 -1.99317 2.73967 0
M  V30 24479 C 2231.97 -2.52677 2.78983 0
M  V30 24480 C 2231.12 -1.30005 2.44937 0
M  V30 24481 H 2234.07 -0.298098 1.55875 0
M  V30 24482 H 2234.09 -2.83834 2.53414 0
M  V30 24483 H 2233.6 -1.37792 3.62815 0
M  V30 24484 H 2231.7 -3.17877 1.94383 0
M  V30 24485 H 2231.82 -2.90692 3.80835 0
M  V30 24486 H 2230.18 -1.62118 1.96443 0
M  V30 24487 H 2230.96 -0.702072 3.36044 0
M  V30 24488 N 2233.41 -1.37859 -0.763727 0
M  V30 24489 C 2234.82 -1.29954 -1.34048 0
M  V30 24490 C 2235.17 0.0492554 -1.96138 0
M  V30 24491 O 2234.3 0.951205 -1.94373 0
M  V30 24492 C 2234.89 -2.35338 -2.43725 0
M  V30 24493 C 2233.45 -2.31043 -2.97147 0
M  V30 24494 C 2232.6 -2.18741 -1.70434 0
M  V30 24495 H 2235.55 -1.48364 -0.56337 0
M  V30 24496 H 2235.57 -2.00467 -3.23409 0
M  V30 24497 H 2235.08 -3.33493 -1.98505 0
M  V30 24498 H 2233.18 -1.36436 -3.46722 0
M  V30 24499 H 2233.3 -3.24778 -3.52215 0
M  V30 24500 H 2231.66 -1.65421 -1.9367 0
M  V30 24501 H 2232.44 -3.18823 -1.27306 0
M  V30 24502 N 2234.89 0.990791 -1.22561 0
M  V30 24503 C 2236.14 1.72485 -1.04556 0
M  V30 24504 C 2236.45 1.91053 0.419316 0
M  V30 24505 O 2237.66 2.61804 0.719075 0
M  V30 24506 C 2236.11 3.10351 -1.82236 0
M  V30 24507 C 2235.72 2.99707 -3.32986 0
M  V30 24508 C 2237.46 3.87788 -1.72687 0
M  V30 24509 C 2235.37 4.32741 -4.03099 0
M  V30 24510 H 2234.3 0.646732 -0.387626 0
M  V30 24511 H 2236.95 1.10591 -1.46431 0
M  V30 24512 H 2235.33 3.7294 -1.33161 0
M  V30 24513 H 2236.51 2.46271 -3.89471 0
M  V30 24514 H 2234.82 2.35752 -3.43235 0
M  V30 24515 H 2237.42 4.86258 -2.2239 0
M  V30 24516 H 2237.76 4.10581 -0.687679 0
M  V30 24517 H 2238.3 3.31881 -2.19316 0
M  V30 24518 H 2235.03 4.15147 -5.0728 0
M  V30 24519 H 2234.55 4.86082 -3.51403 0
M  V30 24520 H 2236.23 5.01479 -4.08813 0
M  V30 24521 N 2236.37 1.03564 1.18795 0
M  V30 24522 C 2237.61 0.734602 1.88276 0
M  V30 24523 C 2237.93 -0.739554 1.80432 0
M  V30 24524 O 2237.2 -1.53331 1.21928 0
M  V30 24525 H 2235.78 0.268737 0.696986 0
M  V30 24526 H 2238.45 1.31131 1.44189 0
M  V30 24527 H 2237.54 1.03494 2.94441 0
M  V30 24528 N 2237.84 -1.34926 0.814413 0
M  V30 24529 C 2239.12 -1.92941 0.321397 0
M  V30 24530 C 2239.5 -1.74355 -1.19011 0
M  V30 24531 O 2238.85 -1.1172 -1.99326 0
M  V30 24532 C 2239.06 -3.41034 0.741383 0
M  V30 24533 C 2240.41 -4.18184 0.73534 0
M  V30 24534 O 2241.43 -3.49582 0.683422 0
M  V30 24535 O 2240.29 -5.40601 0.800798 0
M  V30 24536 H 2237.38 -0.822526 0.0859038 0
M  V30 24537 H 2239.93 -1.43954 0.898634 0
M  V30 24538 H 2238.7 -3.48326 1.78282 0
M  V30 24539 H 2238.32 -3.97356 0.139377 0
M  V30 24540 N 2239.32 -0.56861 -1.46985 0
M  V30 24541 C 2240.6 0.017373 -1.95592 0
M  V30 24542 C 2240.98 1.4739 -1.51127 0
M  V30 24543 O 2240.33 2.15654 -0.755367 0
M  V30 24544 C 2240.54 -0.139974 -3.48719 0
M  V30 24545 C 2241.88 -0.00050101 -4.246 0
M  V30 24546 O 2242.91 -0.0680942 -3.56135 0
M  V30 24547 O 2241.77 0.146892 -5.46303 0
M  V30 24548 H 2238.86 0.0577454 -0.824981 0
M  V30 24549 H 2241.41 -0.635936 -1.57334 0
M  V30 24550 H 2240.18 -1.15307 -3.73925 0
M  V30 24551 H 2239.8 0.550421 -3.93772 0
M  V30 24552 N 2240.8 1.54608 -0.305646 0
M  V30 24553 C 2241.71 2.27375 0.57774 0
M  V30 24554 C 2242.73 1.31063 1.14448 0
M  V30 24555 O 2243.9 1.64052 1.16828 0
M  V30 24556 C 2240.97 3.00385 1.73118 0
M  V30 24557 C 2240.03 4.12244 1.19805 0
M  V30 24558 C 2239.26 4.81763 2.29651 0
M  V30 24559 O 2239.48 4.50673 3.49643 0
M  V30 24560 O 2238.42 5.69066 1.96081 0
M  V30 24561 H 2242.24 3.03697 -0.0126774 0
M  V30 24562 H 2239.83 1.49227 -0.0719446 0
M  V30 24563 H 2241.71 3.46164 2.40309 0
M  V30 24564 H 2240.39 2.26953 2.30811 0
M  V30 24565 H 2239.29 3.70854 0.491733 0
M  V30 24566 H 2240.63 4.87667 0.66648 0
M  V30 24567 N 2242.28 0.033457 1.57564 0
M  V30 24568 C 2243.52 -0.645193 1.92263 0
M  V30 24569 C 2243.86 -1.71529 0.910573 0
M  V30 24570 O 2243.13 -1.94388 -0.0660648 0
M  V30 24571 C 2243.41 -1.25765 3.37425 0
M  V30 24572 C 2243.27 -0.196812 4.49369 0
M  V30 24573 C 2244.59 -2.17442 3.82632 0
M  V30 24574 H 2241.71 -0.233073 0.699175 0
M  V30 24575 H 2244.35 0.0916027 1.89779 0
M  V30 24576 H 2242.5 -1.8856 3.39672 0
M  V30 24577 H 2244.17 0.434043 4.59253 0
M  V30 24578 H 2242.41 0.477213 4.31167 0
M  V30 24579 H 2243.08 -0.665027 5.47979 0
M  V30 24580 H 2245.56 -1.64628 3.82148 0
M  V30 24581 H 2244.44 -2.57246 4.84888 0
M  V30 24582 H 2244.7 -3.06734 3.18381 0
M  V30 24583 N 2243.76 -1.55766 -0.239741 0
M  V30 24584 C 2244.98 -1.81995 -0.984138 0
M  V30 24585 C 2245.4 -0.610156 -1.78669 0
M  V30 24586 O 2244.76 0.42124 -1.77572 0
M  V30 24587 C 2244.81 -3.0653 -1.91629 0
M  V30 24588 O 2244.53 -4.2284 -1.14621 0
M  V30 24589 C 2246.03 -3.45612 -2.77609 0
M  V30 24590 H 2243.25 -0.605446 -0.289269 0
M  V30 24591 H 2245.79 -2.02835 -0.260464 0
M  V30 24592 H 2243.95 -2.87719 -2.59415 0
M  V30 24593 H 2244.36 -4.93467 -1.77736 0
M  V30 24594 H 2245.84 -4.35834 -3.38751 0
M  V30 24595 H 2246.31 -2.66526 -3.49086 0
M  V30 24596 H 2246.92 -3.66798 -2.15265 0
M  V30 24597 N 2245.23 0.505704 -1.49266 0
M  V30 24598 C 2246.48 1.26199 -1.5875 0
M  V30 24599 C 2246.81 1.92296 -0.271261 0
M  V30 24600 O 2246.09 1.80491 0.724799 0
M  V30 24601 C 2246.37 2.33263 -2.74336 0
M  V30 24602 C 2246.22 1.71698 -4.1574 0
M  V30 24603 C 2247.54 3.3486 -2.85581 0
M  V30 24604 H 2244.66 0.457468 -0.577834 0
M  V30 24605 H 2247.3 0.560865 -1.81533 0
M  V30 24606 H 2245.45 2.93063 -2.55042 0
M  V30 24607 H 2247.13 1.15761 -4.46539 0
M  V30 24608 H 2245.37 1.02128 -4.21607 0
M  V30 24609 H 2246.04 2.49332 -4.92481 0
M  V30 24610 H 2248.52 2.85045 -3.03132 0
M  V30 24611 H 2247.39 4.0714 -3.68142 0
M  V30 24612 H 2247.65 3.969 -1.94739 0
M  V30 24613 N 2246.71 1.38262 0.756405 0
M  V30 24614 C 2247.96 1.34049 1.51245 0
M  V30 24615 C 2248.28 -0.069803 1.94875 0
M  V30 24616 O 2247.55 -1.01693 1.67438 0
M  V30 24617 H 2246.13 0.493232 0.561009 0
M  V30 24618 H 2248.79 1.72911 0.899317 0
M  V30 24619 H 2247.89 1.98951 2.40468 0
M  V30 24620 N 2248.19 -0.984277 1.23084 0
M  V30 24621 C 2249.14 -2.07597 1.00858 0
M  V30 24622 C 2250.11 -1.65941 -0.0726418 0
M  V30 24623 O 2251.29 -1.90638 0.078687 0
M  V30 24624 C 2248.43 -3.39814 0.601704 0
M  V30 24625 C 2247.55 -3.94762 1.75463 0
M  V30 24626 C 2246.68 -5.15175 1.29491 0
M  V30 24627 C 2245.72 -5.6228 2.41883 0
M  V30 24628 N 2244.86 -6.73926 1.96897 0
M  V30 24629 H 2249.7 -2.25943 1.94303 0
M  V30 24630 H 2247.23 -1.1076 0.968021 0
M  V30 24631 H 2249.19 -4.15755 0.346927 0
M  V30 24632 H 2247.82 -3.21442 -0.295746 0
M  V30 24633 H 2246.87 -3.15612 2.12351 0
M  V30 24634 H 2248.19 -4.25694 2.59973 0
M  V30 24635 H 2247.34 -5.98435 0.998029 0
M  V30 24636 H 2246.08 -4.85887 0.420131 0
M  V30 24637 H 2245.08 -4.77604 2.7235 0
M  V30 24638 H 2246.31 -5.93589 3.29891 0
M  V30 24639 H 2244.25 -6.46404 1.11793 0
M  V30 24640 H 2244.17 -7.04222 2.74968 0
M  V30 24641 H 2245.44 -7.60669 1.70302 0
M  V30 24642 N 2249.67 -1.04192 -1.18244 0
M  V30 24643 C 2250.92 -0.74605 -1.88256 0
M  V30 24644 C 2251.24 0.726299 -1.8043 0
M  V30 24645 O 2250.5 1.54589 -1.20003 0
M  V30 24646 C 2250.8 -1.15917 -3.3808 0
M  V30 24647 C 2250.46 -2.63202 -3.66109 0
M  V30 24648 C 2249.13 -3.03438 -3.73468 0
M  V30 24649 C 2251.48 -3.58426 -3.78391 0
M  V30 24650 C 2248.81 -4.37785 -3.90591 0
M  V30 24651 C 2251.16 -4.92493 -3.9703 0
M  V30 24652 C 2249.82 -5.32399 -4.02626 0
M  V30 24653 H 2249.09 -0.272999 -0.688878 0
M  V30 24654 H 2251.74 -1.30717 -1.39947 0
M  V30 24655 H 2250.04 -0.516874 -3.88376 0
M  V30 24656 H 2251.74 -0.907585 -3.90594 0
M  V30 24657 H 2248.33 -2.31037 -3.60999 0
M  V30 24658 H 2252.51 -3.28485 -3.72036 0
M  V30 24659 H 2247.77 -4.6822 -3.93167 0
M  V30 24660 H 2251.94 -5.66182 -4.05476 0
M  V30 24661 H 2249.57 -6.36508 -4.15646 0
M  V30 24662 N 2251.15 1.34492 -0.821557 0
M  V30 24663 C 2252.38 2.02259 -0.421308 0
M  V30 24664 C 2252.78 1.62022 0.977018 0
M  V30 24665 O 2252.13 0.820732 1.64346 0
M  V30 24666 C 2252.19 3.56768 -0.442373 0
M  V30 24667 C 2251.85 4.20324 -1.7938 0
M  V30 24668 C 2252.85 4.40939 -2.75443 0
M  V30 24669 C 2250.54 4.57124 -2.0819 0
M  V30 24670 C 2252.53 4.97477 -3.98491 0
M  V30 24671 C 2250.22 5.13373 -3.31498 0
M  V30 24672 C 2251.21 5.33494 -4.26466 0
M  V30 24673 O 2250.9 5.88553 -5.47596 0
M  V30 24674 H 2250.63 0.654924 -0.167484 0
M  V30 24675 H 2253.19 1.72775 -1.11076 0
M  V30 24676 H 2251.42 3.85505 0.303769 0
M  V30 24677 H 2253.11 4.05852 -0.0623638 0
M  V30 24678 H 2253.87 4.12874 -2.5448 0
M  V30 24679 H 2249.75 4.40768 -1.35074 0
M  V30 24680 H 2253.3 5.13098 -4.72627 0
M  V30 24681 H 2249.19 5.40867 -3.52325 0
M  V30 24682 H 2249.96 6.06988 -5.49097 0
M  V30 24683 N 2252.62 0.576397 1.46681 0
M  V30 24684 C 2253.59 -0.150199 2.28707 0
M  V30 24685 C 2254.59 -0.82477 1.38037 0
M  V30 24686 O 2255.78 -0.677691 1.60477 0
M  V30 24687 C 2252.91 -1.22187 3.1825 0
M  V30 24688 H 2254.1 0.570573 2.94422 0
M  V30 24689 H 2251.66 0.334105 1.52687 0
M  V30 24690 H 2252.39 -1.97442 2.57269 0
M  V30 24691 H 2252.18 -0.742744 3.85001 0
M  V30 24692 H 2253.67 -1.73166 3.80004 0
M  V30 24693 N 2254.1 -1.54444 0.313841 0
M  V30 24694 C 2255.33 -2.04802 -0.293882 0
M  V30 24695 C 2255.75 -1.1905 -1.46535 0
M  V30 24696 O 2255.1 -0.218971 -1.81182 0
M  V30 24697 C 2255.15 -3.53892 -0.737744 0
M  V30 24698 O 2254.87 -4.36386 0.387115 0
M  V30 24699 C 2256.38 -4.20302 -1.40929 0
M  V30 24700 H 2253.6 -0.66813 -0.061994 0
M  V30 24701 H 2256.14 -1.99324 0.457205 0
M  V30 24702 H 2254.29 -3.5969 -1.43883 0
M  V30 24703 H 2254.71 -5.24485 0.0392196 0
M  V30 24704 H 2256.18 -5.26104 -1.67089 0
M  V30 24705 H 2256.66 -3.7082 -2.35348 0
M  V30 24706 H 2257.27 -4.18616 -0.751043 0
M  V30 24707 N 2255.58 -0.0418125 -1.57545 0
M  V30 24708 C 2256.83 0.634048 -1.92318 0
M  V30 24709 C 2257.16 1.714 -0.919364 0
M  V30 24710 O 2256.41 1.95576 0.0697909 0
M  V30 24711 C 2256.71 1.27729 -3.33796 0
M  V30 24712 C 2256.38 0.326464 -4.49717 0
M  V30 24713 C 2255.04 0.0647968 -4.81156 0
M  V30 24714 C 2257.39 -0.325714 -5.20181 0
M  V30 24715 C 2254.72 -0.856641 -5.80412 0
M  V30 24716 C 2257.07 -1.23529 -6.20422 0
M  V30 24717 C 2255.73 -1.50572 -6.50296 0
M  V30 24718 H 2255 0.232015 -0.70374 0
M  V30 24719 H 2257.65 -0.106293 -1.91205 0
M  V30 24720 H 2255.96 2.09268 -3.31231 0
M  V30 24721 H 2257.65 1.80701 -3.57978 0
M  V30 24722 H 2254.24 0.54059 -4.25177 0
M  V30 24723 H 2258.43 -0.136634 -4.96112 0
M  V30 24724 H 2253.68 -1.07373 -6.01898 0
M  V30 24725 H 2257.86 -1.74676 -6.74138 0
M  V30 24726 H 2255.48 -2.22136 -7.27021 0
M  V30 24727 N 2257.06 1.55891 0.231477 0
M  V30 24728 C 2257.99 1.94619 1.29018 0
M  V30 24729 C 2258.97 0.813093 1.49408 0
M  V30 24730 O 2260.15 1.07462 1.61758 0
M  V30 24731 C 2257.28 2.25429 2.64195 0
M  V30 24732 C 2256.24 3.41135 2.58478 0
M  V30 24733 C 2255.56 3.57525 3.97593 0
M  V30 24734 C 2256.86 4.76392 2.14122 0
M  V30 24735 H 2258.56 2.83302 0.968513 0
M  V30 24736 H 2256.1 1.36304 0.464455 0
M  V30 24737 H 2258.06 2.51112 3.38409 0
M  V30 24738 H 2256.78 1.33588 2.9803 0
M  V30 24739 H 2255.44 3.15485 1.86722 0
M  V30 24740 H 2255.09 2.63077 4.28718 0
M  V30 24741 H 2254.79 4.35344 3.94651 0
M  V30 24742 H 2256.31 3.85547 4.73483 0
M  V30 24743 H 2257.73 5.01346 2.78074 0
M  V30 24744 H 2256.12 5.57423 2.2226 0
M  V30 24745 H 2257.19 4.72416 1.09323 0
M  V30 24746 N 2258.54 -0.497781 1.49532 0
M  V30 24747 C 2259.79 -1.24834 1.58428 0
M  V30 24748 C 2260.1 -1.93619 0.277677 0
M  V30 24749 O 2261.3 -2.7039 0.245218 0
M  V30 24750 C 2259.76 -2.26681 2.79542 0
M  V30 24751 C 2259.37 -1.63821 4.16973 0
M  V30 24752 C 2261.11 -3.02545 2.97769 0
M  V30 24753 C 2259.02 -2.63797 5.29306 0
M  V30 24754 H 2257.95 -0.469613 0.589898 0
M  V30 24755 H 2260.6 -0.521826 1.75924 0
M  V30 24756 H 2258.98 -3.02509 2.55547 0
M  V30 24757 H 2260.16 -0.939632 4.51118 0
M  V30 24758 H 2258.47 -1.00335 4.04131 0
M  V30 24759 H 2261.07 -3.77316 3.78862 0
M  V30 24760 H 2261.41 -3.60351 2.08454 0
M  V30 24761 H 2261.94 -2.33832 3.21819 0
M  V30 24762 H 2258.68 -2.10768 6.20691 0
M  V30 24763 H 2258.2 -3.31886 4.99612 0
M  V30 24764 H 2259.88 -3.2616 5.58774 0
M  V30 24765 N 2260.01 -1.38661 -0.749062 0
M  V30 24766 C 2260.95 -1.32145 -1.87271 0
M  V30 24767 C 2261.96 -0.232816 -1.61127 0
M  V30 24768 O 2263.15 -0.49072 -1.71622 0
M  V30 24769 C 2260.25 -1.02577 -3.23003 0
M  V30 24770 C 2259.42 -2.2244 -3.76616 0
M  V30 24771 C 2258.48 -1.89546 -4.90876 0
M  V30 24772 O 2257.51 -2.62087 -5.05271 0
M  V30 24773 N 2258.71 -0.853132 -5.74197 0
M  V30 24774 H 2261.47 -2.28973 -1.93369 0
M  V30 24775 H 2259.03 -1.32581 -0.929193 0
M  V30 24776 H 2261.03 -0.786155 -3.96991 0
M  V30 24777 H 2259.6 -0.145304 -3.12262 0
M  V30 24778 H 2258.82 -2.62439 -2.94142 0
M  V30 24779 H 2260.1 -3.02422 -4.09168 0
M  V30 24780 H 2259.5 -0.251649 -5.6514 0
M  V30 24781 H 2258.06 -0.673404 -6.48312 0
M  V30 24782 N 2261.49 0.977736 -1.23605 0
M  V30 24783 C 2262.4 2.10468 -1.03636 0
M  V30 24784 C 2263.42 1.73989 0.0199129 0
M  V30 24785 O 2264.6 2.00629 -0.176112 0
M  V30 24786 C 2261.66 3.40876 -0.63282 0
M  V30 24787 C 2260.72 3.91364 -1.76444 0
M  V30 24788 C 2259.95 5.15548 -1.38006 0
M  V30 24789 O 2260.18 5.69782 -0.265457 0
M  V30 24790 O 2259.11 5.6017 -2.2021 0
M  V30 24791 H 2262.94 2.30204 -1.9809 0
M  V30 24792 H 2260.52 1.08849 -1.02334 0
M  V30 24793 H 2262.4 4.19313 -0.418834 0
M  V30 24794 H 2261.08 3.22463 0.282697 0
M  V30 24795 H 2259.99 3.14032 -2.03309 0
M  V30 24796 H 2261.32 4.14236 -2.65837 0
M  V30 24797 N 2262.97 1.04818 1.1769 0
M  V30 24798 C 2263.92 0.61608 2.19519 0
M  V30 24799 C 2264.91 -0.345458 1.57148 0
M  V30 24800 O 2266.1 -0.163294 1.76245 0
M  V30 24801 C 2263.23 -0.0116314 3.43298 0
M  V30 24802 C 2262.31 0.973507 4.12776 0
M  V30 24803 N 2262.7 2.14347 4.58137 0
M  V30 24804 C 2261 0.801157 4.38745 0
M  V30 24805 C 2261.7 2.76639 5.11709 0
M  V30 24806 N 2260.68 2.04462 5.03683 0
M  V30 24807 H 2264.48 1.50755 2.5229 0
M  V30 24808 H 2261.99 0.917799 1.33978 0
M  V30 24809 H 2263.99 -0.338933 4.1552 0
M  V30 24810 H 2262.65 -0.898538 3.1202 0
M  V30 24811 H 2263.66 2.52199 4.52345 0
M  V30 24812 H 2260.34 -0.03502 4.17485 0
M  V30 24813 H 2261.73 3.75833 5.56955 0
M  V30 24814 N 2264.45 -1.34055 0.828678 0
M  V30 24815 C 2265.7 -1.98107 0.419493 0
M  V30 24816 C 2266.02 -1.6568 -1.01883 0
M  V30 24817 O 2265.28 -0.923543 -1.72537 0
M  V30 24818 C 2265.58 -3.5274 0.575288 0
M  V30 24819 C 2265.24 -4.05092 1.98019 0
M  V30 24820 C 2263.91 -4.191 2.3645 0
M  V30 24821 C 2266.26 -4.33182 2.89832 0
M  V30 24822 C 2263.59 -4.58529 3.66017 0
M  V30 24823 C 2265.94 -4.74059 4.18869 0
M  V30 24824 C 2264.6 -4.86273 4.57269 0
M  V30 24825 H 2263.87 -0.724926 0.153503 0
M  V30 24826 H 2266.52 -1.59902 1.05374 0
M  V30 24827 H 2264.82 -3.91541 -0.142317 0
M  V30 24828 H 2266.52 -4.00286 0.239128 0
M  V30 24829 H 2263.11 -3.94655 1.67168 0
M  V30 24830 H 2267.3 -4.21892 2.61382 0
M  V30 24831 H 2262.55 -4.66177 3.95587 0
M  V30 24832 H 2266.73 -4.94753 4.90094 0
M  V30 24833 H 2264.35 -5.16582 5.57716 0
M  V30 24834 N 2265.93 -0.584167 -1.46374 0
M  V30 24835 C 2267.34 -0.245956 -1.57693 0
M  V30 24836 C 2267.54 1.25172 -1.57906 0
M  V30 24837 O 2266.6 2.03352 -1.4968 0
M  V30 24838 C 2267.91 -0.896453 -2.87027 0
M  V30 24839 C 2269.46 -0.870179 -3.00661 0
M  V30 24840 C 2269.94 -1.50024 -4.32732 0
M  V30 24841 N 2271.43 -1.46465 -4.39434 0
M  V30 24842 C 2272.16 -1.92153 -5.40245 0
M  V30 24843 N 2271.66 -2.45821 -6.47722 0
M  V30 24844 N 2273.45 -1.83061 -5.31455 0
M  V30 24845 H 2265.6 -1.5569 -1.4448 0
M  V30 24846 H 2267.86 -0.650843 -0.68928 0
M  V30 24847 H 2267.57 -1.95007 -2.92686 0
M  V30 24848 H 2267.44 -0.405551 -3.75013 0
M  V30 24849 H 2269.83 0.174819 -2.94582 0
M  V30 24850 H 2269.91 -1.39912 -2.14146 0
M  V30 24851 H 2269.56 -2.54445 -4.39568 0
M  V30 24852 H 2269.49 -0.946523 -5.18024 0
M  V30 24853 H 2271.98 -1.07237 -3.62365 0
M  V30 24854 H 2272.29 -2.78537 -7.20858 0
M  V30 24855 H 2270.64 -2.49848 -6.48538 0
M  V30 24856 H 2273.83 -1.40891 -4.46394 0
M  V30 24857 H 2274 -2.18983 -6.09877 0
M  V30 24858 N 2267.41 1.54275 -0.322027 0
M  V30 24859 C 2268.35 2.24282 0.544624 0
M  V30 24860 C 2269.32 1.23305 1.11288 0
M  V30 24861 O 2270.51 1.51983 1.15351 0
M  V30 24862 C 2267.65 3.00301 1.7004 0
M  V30 24863 C 2266.76 4.16092 1.16152 0
M  V30 24864 C 2265.9 4.79645 2.28285 0
M  V30 24865 C 2264.93 5.87543 1.71638 0
M  V30 24866 N 2264.07 6.44964 2.77427 0
M  V30 24867 H 2268.91 2.97942 -0.0589431 0
M  V30 24868 H 2266.45 1.47043 -0.0408604 0
M  V30 24869 H 2268.41 3.4262 2.38048 0
M  V30 24870 H 2267.04 2.28979 2.27527 0
M  V30 24871 H 2266.09 3.78567 0.373025 0
M  V30 24872 H 2267.4 4.93764 0.707 0
M  V30 24873 H 2266.55 5.24925 3.04201 0
M  V30 24874 H 2265.29 4.01351 2.77072 0
M  V30 24875 H 2264.3 5.41667 0.942187 0
M  V30 24876 H 2265.52 6.67733 1.23729 0
M  V30 24877 H 2263.47 5.69544 3.25509 0
M  V30 24878 H 2263.39 7.18044 2.36534 0
M  V30 24879 H 2264.65 6.949 3.53177 0
M  V30 24880 N 2268.88 0.0501669 1.5752 0
M  V30 24881 C 2270.13 -0.62384 1.92651 0
M  V30 24882 C 2270.46 -1.7091 0.928441 0
M  V30 24883 O 2269.71 -1.9561 -0.0594181 0
M  V30 24884 C 2270.01 -1.25957 3.34469 0
M  V30 24885 C 2269.68 -0.30261 4.49883 0
M  V30 24886 C 2268.34 -0.039279 4.81184 0
M  V30 24887 C 2270.69 0.353296 5.20001 0
M  V30 24888 C 2268.02 0.88741 5.7995 0
M  V30 24889 C 2270.37 1.26817 6.19758 0
M  V30 24890 C 2269.04 1.54018 6.49488 0
M  V30 24891 H 2268.31 -0.228279 0.704961 0
M  V30 24892 H 2270.95 0.116431 1.91146 0
M  V30 24893 H 2269.26 -2.07509 3.32336 0
M  V30 24894 H 2270.96 -1.788 3.58931 0
M  V30 24895 H 2267.55 -0.518034 4.25458 0
M  V30 24896 H 2271.73 0.162942 4.96032 0
M  V30 24897 H 2266.99 1.10564 6.0132 0
M  V30 24898 H 2271.16 1.78248 6.73202 0
M  V30 24899 H 2268.79 2.25988 7.25833 0
M  V30 24900 N 2270.36 -1.56011 -0.223207 0
M  V30 24901 C 2271.29 -1.87291 -1.30374 0
M  V30 24902 C 2272.27 -0.730138 -1.45285 0
M  V30 24903 O 2273.46 -0.97833 -1.61124 0
M  V30 24904 C 2270.58 -2.07847 -2.67427 0
M  V30 24905 C 2269.63 -3.30531 -2.6954 0
M  V30 24906 S 2270.46 -4.86504 -2.23773 0
M  V30 24907 C 2271.62 -5.10094 -3.62705 0
M  V30 24908 H 2271.85 -2.78648 -1.03647 0
M  V30 24909 H 2269.38 -1.48425 -0.425367 0
M  V30 24910 H 2271.34 -2.20374 -3.46332 0
M  V30 24911 H 2270 -1.1729 -2.91379 0
M  V30 24912 H 2269.2 -3.41953 -3.70248 0
M  V30 24913 H 2268.8 -3.16852 -1.98697 0
M  V30 24914 H 2271.09 -4.98891 -4.58382 0
M  V30 24915 H 2272.03 -6.11987 -3.56199 0
M  V30 24916 H 2272.44 -4.37835 -3.56316 0
M  V30 24917 N 2271.84 0.489844 -1.49794 0
M  V30 24918 C 2272.79 1.59011 -1.67284 0
M  V30 24919 C 2273.76 1.5794 -0.514204 0
M  V30 24920 O 2274.94 1.75757 -0.742564 0
M  V30 24921 C 2272.08 2.97099 -1.75574 0
M  V30 24922 C 2271.19 3.08102 -3.02816 0
M  V30 24923 C 2270.33 4.3699 -3.02016 0
M  V30 24924 C 2269.37 4.41666 -4.2379 0
M  V30 24925 N 2268.51 5.61998 -4.20836 0
M  V30 24926 H 2273.35 1.43405 -2.61226 0
M  V30 24927 H 2270.88 0.697542 -1.2951 0
M  V30 24928 H 2272.84 3.77152 -1.78361 0
M  V30 24929 H 2271.47 3.11384 -0.850882 0
M  V30 24930 H 2270.52 2.21041 -3.09588 0
M  V30 24931 H 2271.83 3.07416 -3.92806 0
M  V30 24932 H 2270.99 5.25373 -3.03427 0
M  V30 24933 H 2269.73 4.40256 -2.09823 0
M  V30 24934 H 2268.73 3.51683 -4.2261 0
M  V30 24935 H 2269.96 4.40106 -5.17188 0
M  V30 24936 H 2267.9 5.66086 -3.31486 0
M  V30 24937 H 2267.82 5.62976 -5.04574 0
M  V30 24938 H 2269.09 6.52558 -4.26367 0
M  V30 24939 N 2273.32 1.39056 0.741698 0
M  V30 24940 C 2274.73 1.20514 1.04636 0
M  V30 24941 C 2274.93 0.0620572 2.01404 0
M  V30 24942 O 2273.99 -0.588414 2.45548 0
M  V30 24943 C 2275.3 2.53646 1.61506 0
M  V30 24944 C 2276.85 2.60433 1.73619 0
M  V30 24945 C 2277.33 3.93771 2.33899 0
M  V30 24946 N 2278.82 3.95374 2.41316 0
M  V30 24947 C 2279.55 4.95314 2.8888 0
M  V30 24948 N 2279.05 6.05651 3.3639 0
M  V30 24949 N 2280.84 4.82697 2.88028 0
M  V30 24950 H 2272.99 2.12166 0.0997782 0
M  V30 24951 H 2275.25 0.941955 0.10689 0
M  V30 24952 H 2274.96 3.37809 0.97868 0
M  V30 24953 H 2274.83 2.72889 2.60406 0
M  V30 24954 H 2277.22 1.76659 2.3638 0
M  V30 24955 H 2277.3 2.45046 0.733902 0
M  V30 24956 H 2276.95 4.77973 1.71767 0
M  V30 24957 H 2276.88 4.06475 3.34792 0
M  V30 24958 H 2279.37 3.15686 2.07728 0
M  V30 24959 H 2279.68 6.77827 3.71174 0
M  V30 24960 H 2278.03 6.09254 3.34416 0
M  V30 24961 H 2281.22 3.95604 2.5023 0
M  V30 24962 H 2281.39 5.60732 3.24783 0
M  V30 24963 N 2274.8 -0.971167 1.24121 0
M  V30 24964 C 2275.73 -2.06794 0.988386 0
M  V30 24965 C 2276.74 -1.62749 -0.0409255 0
M  V30 24966 O 2277.93 -1.77424 0.195704 0
M  V30 24967 C 2275.03 -3.35638 0.469082 0
M  V30 24968 C 2274.2 -4.08608 1.56072 0
M  V30 24969 C 2273.26 -5.15726 1.04467 0
M  V30 24970 O 2272.29 -5.42093 1.73563 0
M  V30 24971 N 2273.49 -5.8037 -0.122715 0
M  V30 24972 H 2276.25 -2.29057 1.93269 0
M  V30 24973 H 2273.82 -1.13854 1.15104 0
M  V30 24974 H 2275.81 -4.04554 0.108685 0
M  V30 24975 H 2274.38 -3.10271 -0.380865 0
M  V30 24976 H 2273.6 -3.34018 2.09346 0
M  V30 24977 H 2274.89 -4.54122 2.29457 0
M  V30 24978 H 2274.28 -5.61347 -0.700464 0
M  V30 24979 H 2272.84 -6.50418 -0.42429 0
M  V30 24980 N 2276.27 -1.05441 -1.17133 0
M  V30 24981 C 2277.18 -0.668405 -2.24877 0
M  V30 24982 C 2278.2 0.311657 -1.71186 0
M  V30 24983 O 2279.38 0.163126 -2.00738 0
M  V30 24984 C 2276.44 -0.0517089 -3.46661 0
M  V30 24985 C 2275.5 -1.08254 -4.15427 0
M  V30 24986 C 2274.74 -0.495175 -5.31398 0
M  V30 24987 O 2274.96 0.694643 -5.66154 0
M  V30 24988 O 2273.89 -1.23066 -5.89184 0
M  V30 24989 H 2277.72 -1.56642 -2.60187 0
M  V30 24990 H 2275.3 -0.826125 -1.24481 0
M  V30 24991 H 2277.19 0.290892 -4.20395 0
M  V30 24992 H 2275.86 0.819916 -3.13144 0
M  V30 24993 H 2274.77 -1.47717 -3.43701 0
M  V30 24994 H 2276.1 -1.9254 -4.52978 0
M  V30 24995 N 2277.75 1.33613 -0.835776 0
M  V30 24996 C 2278.66 2.33051 -0.269129 0
M  V30 24997 C 2279.68 1.63209 0.603222 0
M  V30 24998 O 2280.85 1.94886 0.508078 0
M  V30 24999 C 2277.92 3.42325 0.549031 0
M  V30 25000 C 2276.98 4.27893 -0.347231 0
M  V30 25001 C 2276.21 5.31949 0.431976 0
M  V30 25002 O 2276.44 5.45589 1.66399 0
M  V30 25003 O 2275.37 6.01592 -0.192404 0
M  V30 25004 H 2279.2 2.8337 -1.09248 0
M  V30 25005 H 2276.78 1.369 -0.598222 0
M  V30 25006 H 2278.66 4.09017 1.01407 0
M  V30 25007 H 2277.34 2.94228 1.34949 0
M  V30 25008 H 2276.25 3.6408 -0.860043 0
M  V30 25009 H 2277.58 4.79465 -1.11238 0
M  V30 25010 N 2279.23 0.591922 1.46062 0
M  V30 25011 C 2280.46 0.0868039 2.06418 0
M  V30 25012 C 2280.87 -1.22748 1.43978 0
M  V30 25013 O 2280.21 -1.75505 0.542562 0
M  V30 25014 C 2280.27 -0.143662 3.59213 0
M  V30 25015 C 2279.94 1.08642 4.43898 0
M  V30 25016 C 2280.93 2.00075 4.7986 0
M  V30 25017 C 2278.62 1.31086 4.84894 0
M  V30 25018 C 2280.61 3.12292 5.55655 0
M  V30 25019 C 2278.3 2.43606 5.60446 0
M  V30 25020 C 2279.3 3.34038 5.95741 0
M  V30 25021 O 2278.99 4.44602 6.69765 0
M  V30 25022 H 2278.72 0.0587566 0.673442 0
M  V30 25023 H 2281.27 0.815027 1.88538 0
M  V30 25024 H 2279.5 -0.926602 3.75434 0
M  V30 25025 H 2281.19 -0.59843 4.01464 0
M  V30 25026 H 2281.96 1.83955 4.4876 0
M  V30 25027 H 2277.84 0.61602 4.56866 0
M  V30 25028 H 2281.38 3.82901 5.83123 0
M  V30 25029 H 2277.28 2.59685 5.9096 0
M  V30 25030 H 2278.05 4.43085 6.88199 0
M  V30 25031 N 2280.71 -1.54102 0.330204 0
M  V30 25032 C 2281.94 -2.04805 -0.271748 0
M  V30 25033 C 2282.35 -1.20561 -1.45814 0
M  V30 25034 O 2281.69 -0.230632 -1.82246 0
M  V30 25035 C 2281.75 -3.51306 -0.763176 0
M  V30 25036 C 2281.42 -4.56002 0.301785 0
M  V30 25037 C 2282.41 -5.07246 1.14008 0
M  V30 25038 C 2280.1 -5.00263 0.451881 0
M  V30 25039 C 2282.09 -6.01318 2.11413 0
M  V30 25040 C 2279.78 -5.94149 1.42935 0
M  V30 25041 C 2280.78 -6.44563 2.25893 0
M  V30 25042 O 2280.46 -7.36604 3.21978 0
M  V30 25043 H 2280.2 -0.673448 -0.0586812 0
M  V30 25044 H 2282.75 -1.99798 0.47643 0
M  V30 25045 H 2280.98 -3.53733 -1.56238 0
M  V30 25046 H 2282.67 -3.85049 -1.28421 0
M  V30 25047 H 2283.44 -4.73825 1.03513 0
M  V30 25048 H 2279.31 -4.60633 -0.183963 0
M  V30 25049 H 2282.86 -6.40592 2.76203 0
M  V30 25050 H 2278.76 -6.26986 1.5349 0
M  V30 25051 H 2279.52 -7.54498 3.17294 0
M  V30 25052 N 2282.19 -0.0585199 -1.57491 0
M  V30 25053 C 2283.43 0.612402 -1.92598 0
M  V30 25054 C 2283.76 1.70947 -0.938192 0
M  V30 25055 O 2283.03 1.95894 0.0157957 0
M  V30 25056 H 2281.61 0.229201 -0.710968 0
M  V30 25057 H 2284.27 -0.113252 -1.94571 0
M  V30 25058 H 2283.36 1.04628 -2.9404 0
M  V30 25059 N 2283.66 1.56128 0.21493 0
M  V30 25060 C 2284.89 1.83272 0.953675 0
M  V30 25061 C 2285.3 0.636294 1.7818 0
M  V30 25062 O 2284.65 -0.404485 1.79192 0
M  V30 25063 C 2284.71 3.04243 1.9151 0
M  V30 25064 C 2284.37 4.38974 1.27086 0
M  V30 25065 C 2285.37 5.15726 0.657485 0
M  V30 25066 C 2283.05 4.857 1.28065 0
M  V30 25067 C 2285.05 6.37369 0.0624847 0
M  V30 25068 C 2282.73 6.07285 0.681807 0
M  V30 25069 C 2283.73 6.8296 0.0737846 0
M  V30 25070 O 2283.42 8.02244 -0.515724 0
M  V30 25071 H 2283.15 0.6131 0.284753 0
M  V30 25072 H 2285.71 2.04071 0.233248 0
M  V30 25073 H 2283.94 2.79279 2.6747 0
M  V30 25074 H 2285.63 3.18203 2.51996 0
M  V30 25075 H 2286.39 4.80729 0.642204 0
M  V30 25076 H 2282.27 4.26767 1.7433 0
M  V30 25077 H 2285.81 6.96378 -0.412716 0
M  V30 25078 H 2281.71 6.41753 0.694523 0
M  V30 25079 H 2282.48 8.17469 -0.410688 0
M  V30 25080 N 2285.14 -0.481893 1.50052 0
M  V30 25081 C 2286.56 -0.814732 1.37238 0
M  V30 25082 C 2286.76 -1.97071 0.420144 0
M  V30 25083 O 2285.81 -2.52105 -0.141201 0
M  V30 25084 C 2287.13 -1.13696 2.78377 0
M  V30 25085 C 2288.68 -1.24405 2.87215 0
M  V30 25086 C 2289.15 -1.59946 4.29163 0
M  V30 25087 N 2290.64 -1.66959 4.32064 0
M  V30 25088 C 2291.38 -1.95942 5.38882 0
M  V30 25089 N 2290.87 -2.2302 6.55922 0
M  V30 25090 N 2292.67 -1.97354 5.26315 0
M  V30 25091 H 2284.82 0.280087 2.10545 0
M  V30 25092 H 2287.08 0.062762 0.94592 0
M  V30 25093 H 2286.79 -0.360725 3.49845 0
M  V30 25094 H 2286.66 -2.07581 3.14945 0
M  V30 25095 H 2289.05 -2.01097 2.15972 0
M  V30 25096 H 2289.13 -0.285254 2.54205 0
M  V30 25097 H 2288.77 -0.837979 5.00939 0
M  V30 25098 H 2288.7 -2.56958 4.59652 0
M  V30 25099 H 2291.19 -1.48117 3.47663 0
M  V30 25100 H 2291.51 -2.44378 7.33143 0
M  V30 25101 H 2289.85 -2.20435 6.59116 0
M  V30 25102 H 2293.04 -1.75689 4.33879 0
M  V30 25103 H 2293.21 -2.19607 6.09653 0
M  V30 25104 N 2286.62 -1.39448 -0.734313 0
M  V30 25105 C 2288.03 -1.32768 -1.31261 0
M  V30 25106 C 2288.38 0.00764048 -1.96199 0
M  V30 25107 O 2287.51 0.909762 -1.96347 0
M  V30 25108 C 2288.1 -2.40454 -2.38678 0
M  V30 25109 C 2286.66 -2.37293 -2.92179 0
M  V30 25110 C 2285.81 -2.22307 -1.65756 0
M  V30 25111 H 2288.76 -1.49525 -0.531773 0
M  V30 25112 H 2288.78 -2.07282 -3.19084 0
M  V30 25113 H 2288.29 -3.37629 -1.91386 0
M  V30 25114 H 2286.39 -1.4376 -3.4375 0
M  V30 25115 H 2286.51 -3.32176 -3.45247 0
M  V30 25116 H 2284.87 -1.69492 -1.90117 0
M  V30 25117 H 2285.65 -3.21451 -1.20515 0
M  V30 25118 N 2288.1 0.964571 -1.24635 0
M  V30 25119 C 2289.05 2.05966 -1.04148 0
M  V30 25120 C 2290.02 1.66036 0.0462328 0
M  V30 25121 O 2291.2 1.90488 -0.109006 0
M  V30 25122 C 2288.34 3.38814 -0.65569 0
M  V30 25123 C 2287.45 3.9192 -1.81721 0
M  V30 25124 C 2286.59 5.1305 -1.37671 0
M  V30 25125 C 2285.63 5.58361 -2.50798 0
M  V30 25126 N 2284.76 6.70708 -2.07593 0
M  V30 25127 H 2289.6 2.22823 -1.97873 0
M  V30 25128 H 2287.14 1.09206 -0.985519 0
M  V30 25129 H 2289.1 4.1515 -0.413027 0
M  V30 25130 H 2287.73 3.21872 0.24457 0
M  V30 25131 H 2286.78 3.12194 -2.17345 0
M  V30 25132 H 2288.09 4.21504 -2.66712 0
M  V30 25133 H 2287.25 5.96771 -1.09311 0
M  V30 25134 H 2285.99 4.85157 -0.497378 0
M  V30 25135 H 2284.99 4.7321 -2.79914 0
M  V30 25136 H 2286.22 5.88266 -3.39293 0
M  V30 25137 H 2284.16 6.44544 -1.22063 0
M  V30 25138 H 2284.08 6.99758 -2.86137 0
M  V30 25139 H 2285.35 7.57863 -1.82382 0
M  V30 25140 N 2289.58 1.0606 1.16572 0
M  V30 25141 C 2290.52 0.669301 2.20882 0
M  V30 25142 C 2291.49 -0.332889 1.6273 0
M  V30 25143 O 2292.68 -0.222313 1.895 0
M  V30 25144 C 2289.82 0.0594178 3.45049 0
M  V30 25145 C 2288.93 1.1115 4.17456 0
M  V30 25146 C 2288.07 0.468009 5.29134 0
M  V30 25147 C 2287.11 1.50379 5.9334 0
M  V30 25148 N 2286.24 0.883828 6.96515 0
M  V30 25149 H 2291.08 1.56324 2.53706 0
M  V30 25150 H 2288.62 0.781647 1.24614 0
M  V30 25151 H 2290.58 -0.311698 4.16034 0
M  V30 25152 H 2289.21 -0.797937 3.12782 0
M  V30 25153 H 2288.26 1.60035 3.45099 0
M  V30 25154 H 2289.57 1.89739 4.61303 0
M  V30 25155 H 2288.73 0.0437937 6.06684 0
M  V30 25156 H 2287.46 -0.349778 4.86444 0
M  V30 25157 H 2286.47 1.93793 5.14514 0
M  V30 25158 H 2287.69 2.32363 6.3811 0
M  V30 25159 H 2285.64 0.0867103 6.55943 0
M  V30 25160 H 2285.56 1.60713 7.3872 0
M  V30 25161 H 2286.83 0.48468 7.77992 0
M  V30 25162 N 2291.06 -1.33168 0.84285 0
M  V30 25163 C 2292.33 -1.92216 0.36225 0
M  V30 25164 C 2292.71 -1.7684 -1.15286 0
M  V30 25165 O 2292.06 -1.15922 -1.96912 0
M  V30 25166 C 2292.27 -3.39385 0.813554 0
M  V30 25167 C 2293.62 -4.1653 0.823877 0
M  V30 25168 O 2294.64 -3.48054 0.757419 0
M  V30 25169 O 2293.5 -5.38781 0.915288 0
M  V30 25170 H 2290.6 -0.820519 0.103331 0
M  V30 25171 H 2293.14 -1.42015 0.928967 0
M  V30 25172 H 2291.91 -3.44466 1.8563 0
M  V30 25173 H 2291.54 -3.96971 0.22363 0
M  V30 25174 N 2292.53 -0.599659 -1.45746 0
M  V30 25175 C 2293.78 -0.0893865 -2.01502 0
M  V30 25176 C 2294.1 1.28485 -1.47482 0
M  V30 25177 O 2295.3 1.88741 -1.95164 0
M  V30 25178 C 2293.76 -0.109145 -3.59734 0
M  V30 25179 C 2293.37 -1.48274 -4.22751 0
M  V30 25180 C 2295.11 0.346299 -4.23085 0
M  V30 25181 C 2293.02 -1.45931 -5.73113 0
M  V30 25182 H 2291.95 -0.029648 -0.753417 0
M  V30 25183 H 2294.6 -0.753818 -1.67302 0
M  V30 25184 H 2292.98 0.621785 -3.91088 0
M  V30 25185 H 2294.15 -2.23475 -4.02983 0
M  V30 25186 H 2292.47 -1.87962 -3.71563 0
M  V30 25187 H 2295.07 0.382886 -5.33327 0
M  V30 25188 H 2295.41 1.36736 -3.93203 0
M  V30 25189 H 2295.94 -0.331107 -3.9642 0
M  V30 25190 H 2292.68 -2.45773 -6.07681 0
M  V30 25191 H 2292.2 -0.749769 -5.95095 0
M  V30 25192 H 2293.88 -1.17952 -6.36157 0
M  V30 25193 N 2294.01 1.53925 -0.338371 0
M  V30 25194 C 2295.26 2.01125 0.260108 0
M  V30 25195 C 2295.59 1.22592 1.50615 0
M  V30 25196 O 2294.87 0.312147 1.91979 0
M  V30 25197 C 2295.15 3.55408 0.579437 0
M  V30 25198 C 2295 4.44656 -0.678342 0
M  V30 25199 C 2296.32 4.17535 1.39114 0
M  V30 25200 H 2293.44 0.731101 0.0930644 0
M  V30 25201 H 2296.08 1.844 -0.457884 0
M  V30 25202 H 2294.23 3.6979 1.19112 0
M  V30 25203 H 2295.9 4.42119 -1.31639 0
M  V30 25204 H 2294.15 4.13728 -1.30427 0
M  V30 25205 H 2294.82 5.50473 -0.41024 0
M  V30 25206 H 2297.29 4.06818 0.873963 0
M  V30 25207 H 2296.17 5.25568 1.58333 0
M  V30 25208 H 2296.43 3.71819 2.39171 0
M  V30 25209 N 2295.49 0.0668712 1.57458 0
M  V30 25210 C 2296.42 -0.931565 2.09415 0
M  V30 25211 C 2297.43 -1.26462 1.02524 0
M  V30 25212 O 2298.62 -1.22266 1.30051 0
M  V30 25213 C 2295.72 -2.24878 2.53541 0
M  V30 25214 C 2294.9 -2.0953 3.83948 0
M  V30 25215 C 2293.96 -3.24513 4.1422 0
M  V30 25216 O 2292.98 -2.99721 4.83896 0
M  V30 25217 N 2294.18 -4.49462 3.67375 0
M  V30 25218 H 2296.95 -0.487996 2.957 0
M  V30 25219 H 2294.51 -0.11898 1.61462 0
M  V30 25220 H 2296.5 -3.00696 2.70858 0
M  V30 25221 H 2295.07 -2.6075 1.72419 0
M  V30 25222 H 2294.29 -1.18209 3.76059 0
M  V30 25223 H 2295.58 -1.96521 4.69315 0
M  V30 25224 H 2294.98 -4.72491 3.11076 0
M  V30 25225 H 2293.53 -5.22323 3.899 0
M  V30 25226 N 2296.97 -1.56239 -0.206647 0
M  V30 25227 C 2298.22 -1.79139 -0.926933 0
M  V30 25228 C 2298.53 -0.638076 -1.849 0
M  V30 25229 O 2299.74 -0.751079 -2.60904 0
M  V30 25230 C 2298.19 -3.17297 -1.69854 0
M  V30 25231 C 2297.8 -4.40397 -0.821878 0
M  V30 25232 C 2299.54 -3.49514 -2.40915 0
M  V30 25233 C 2297.45 -5.69578 -1.59169 0
M  V30 25234 H 2296.38 -0.667922 -0.349852 0
M  V30 25235 H 2299.03 -1.82611 -0.180455 0
M  V30 25236 H 2297.41 -3.08043 -2.48848 0
M  V30 25237 H 2298.59 -4.60745 -0.0714209 0
M  V30 25238 H 2296.9 -4.15804 -0.222668 0
M  V30 25239 H 2299.5 -4.4326 -2.99039 0
M  V30 25240 H 2299.84 -2.72712 -3.14537 0
M  V30 25241 H 2300.38 -3.60164 -1.68899 0
M  V30 25242 H 2297.11 -6.49313 -0.898475 0
M  V30 25243 H 2296.63 -5.53267 -2.31638 0
M  V30 25244 H 2298.31 -6.10285 -2.14851 0
M  V30 25245 N 2298.45 0.473929 -1.50305 0
M  V30 25246 C 2299.38 1.58968 -1.65112 0
M  V30 25247 C 2300.39 1.53838 -0.532703 0
M  V30 25248 O 2301.58 1.59278 -0.805779 0
M  V30 25249 C 2298.68 2.97842 -1.61689 0
M  V30 25250 C 2297.85 3.27871 -2.89516 0
M  V30 25251 C 2296.91 4.46285 -2.78775 0
M  V30 25252 O 2295.94 4.46733 -3.5273 0
M  V30 25253 N 2297.14 5.4778 -1.9214 0
M  V30 25254 H 2299.9 1.46684 -2.6135 0
M  V30 25255 H 2297.47 0.662298 -1.47734 0
M  V30 25256 H 2299.46 3.75022 -1.52121 0
M  V30 25257 H 2298.03 3.03909 -0.731979 0
M  V30 25258 H 2297.25 2.39331 -3.13232 0
M  V30 25259 H 2298.54 3.44744 -3.74205 0
M  V30 25260 H 2297.93 5.50237 -1.31363 0
M  V30 25261 H 2296.49 6.23955 -1.88477 0
M  V30 25262 N 2299.92 1.39835 0.726907 0
M  V30 25263 C 2300.89 1.38966 1.82267 0
M  V30 25264 C 2301.89 0.285362 1.58248 0
M  V30 25265 O 2303.08 0.543689 1.65498 0
M  V30 25266 C 2300.21 1.17025 3.20184 0
M  V30 25267 H 2301.4 2.36479 1.84439 0
M  V30 25268 H 2298.95 1.25518 0.931393 0
M  V30 25269 H 2299.69 0.202261 3.23669 0
M  V30 25270 H 2299.47 1.97003 3.39016 0
M  V30 25271 H 2300.96 1.19177 4.00233 0
M  V30 25272 N 2301.4 -0.957948 1.25144 0
M  V30 25273 C 2302.65 -1.69879 1.09479 0
M  V30 25274 C 2302.97 -1.91545 -0.365468 0
M  V30 25275 O 2302.24 -1.50017 -1.25983 0
M  V30 25276 H 2300.82 -0.629518 0.40214 0
M  V30 25277 H 2303.48 -1.15191 1.57216 0
M  V30 25278 H 2302.58 -2.67937 1.60051 0
M  V30 25279 N 2302.88 -1.06677 -1.16008 0
M  V30 25280 C 2303.81 -0.702346 -2.22687 0
M  V30 25281 C 2304.79 0.307003 -1.67307 0
M  V30 25282 O 2305.98 0.181271 -1.93352 0
M  V30 25283 C 2303.11 -0.092099 -3.47178 0
M  V30 25284 C 2302.06 -1.02785 -4.15475 0
M  V30 25285 C 2301.39 -0.280704 -5.33963 0
M  V30 25286 C 2302.69 -2.35854 -4.66015 0
M  V30 25287 H 2304.38 -1.59423 -2.53426 0
M  V30 25288 H 2301.93 -0.767982 -1.21811 0
M  V30 25289 H 2303.88 0.17474 -4.21038 0
M  V30 25290 H 2302.6 0.834821 -3.1575 0
M  V30 25291 H 2301.26 -1.2795 -3.43547 0
M  V30 25292 H 2300.91 0.649458 -4.9879 0
M  V30 25293 H 2300.61 -0.90436 -5.80599 0
M  V30 25294 H 2302.13 -0.0215033 -6.10596 0
M  V30 25295 H 2303.55 -2.15054 -5.31436 0
M  V30 25296 H 2301.94 -2.93752 -5.23288 0
M  V30 25297 H 2303.01 -2.98648 -3.82018 0
M  V30 25298 N 2304.36 1.32719 -0.8499 0
M  V30 25299 C 2305.77 1.50218 -0.539128 0
M  V30 25300 C 2305.97 1.7869 0.931239 0
M  V30 25301 O 2305.03 1.85366 1.71452 0
M  V30 25302 C 2306.34 2.64952 -1.42201 0
M  V30 25303 C 2307.89 2.78837 -1.42194 0
M  V30 25304 C 2308.37 3.96644 -2.28992 0
M  V30 25305 N 2309.86 4.03898 -2.26761 0
M  V30 25306 C 2310.59 4.94276 -2.90653 0
M  V30 25307 N 2310.09 5.89693 -3.63639 0
M  V30 25308 N 2311.88 4.8736 -2.80066 0
M  V30 25309 H 2304.03 1.12503 -1.80158 0
M  V30 25310 H 2306.29 0.554071 -0.769226 0
M  V30 25311 H 2306 2.50627 -2.46737 0
M  V30 25312 H 2305.87 3.60622 -1.10597 0
M  V30 25313 H 2308.26 2.92588 -0.384242 0
M  V30 25314 H 2308.34 1.83895 -1.7781 0
M  V30 25315 H 2307.99 3.83652 -3.32826 0
M  V30 25316 H 2307.92 4.90853 -1.9071 0
M  V30 25317 H 2310.41 3.35617 -1.73694 0
M  V30 25318 H 2310.72 6.55342 -4.09569 0
M  V30 25319 H 2309.07 5.89735 -3.67747 0
M  V30 25320 H 2312.26 4.11785 -2.226 0
M  V30 25321 H 2312.43 5.57593 -3.30142 0
M  V30 25322 N 2305.84 0.60738 1.45426 0
M  V30 25323 C 2307.06 0.10885 2.06613 0
M  V30 25324 C 2307.48 -1.20668 1.45206 0
M  V30 25325 O 2306.84 -1.73496 0.566162 0
M  V30 25326 C 2306.89 -0.0374712 3.61481 0
M  V30 25327 O 2306.61 1.22601 4.20596 0
M  V30 25328 C 2308.11 -0.567484 4.39653 0
M  V30 25329 H 2305.33 0.0687468 0.667469 0
M  V30 25330 H 2307.87 0.835054 1.86674 0
M  V30 25331 H 2306.03 -0.714001 3.80763 0
M  V30 25332 H 2306.44 1.05556 5.13769 0
M  V30 25333 H 2307.92 -0.618954 5.48519 0
M  V30 25334 H 2308.39 -1.58971 4.0942 0
M  V30 25335 H 2309 0.0749949 4.25234 0
M  V30 25336 N 2307.31 -1.53743 0.34653 0
M  V30 25337 C 2308.56 -2.00144 -0.250087 0
M  V30 25338 C 2308.88 -1.23825 -1.51416 0
M  V30 25339 O 2310.08 -1.60717 -2.1882 0
M  V30 25340 C 2308.54 -3.56463 -0.49619 0
M  V30 25341 C 2308.15 -4.41641 0.752155 0
M  V30 25342 C 2309.89 -4.11271 -1.0515 0
M  V30 25343 C 2307.8 -5.89476 0.476687 0
M  V30 25344 H 2306.73 -0.747705 -0.0972278 0
M  V30 25345 H 2309.38 -1.77581 0.462321 0
M  V30 25346 H 2307.76 -3.75104 -1.26938 0
M  V30 25347 H 2308.93 -4.34775 1.52667 0
M  V30 25348 H 2307.25 -3.9784 1.22932 0
M  V30 25349 H 2309.85 -5.19335 -1.2726 0
M  V30 25350 H 2310.19 -3.64675 -2.00793 0
M  V30 25351 H 2310.72 -3.96353 -0.338949 0
M  V30 25352 H 2307.46 -6.40311 1.40292 0
M  V30 25353 H 2306.98 -5.99238 -0.259688 0
M  V30 25354 H 2308.66 -6.4693 0.0950452 0
M  V30 25355 N 2308.79 -0.0752207 -1.5742 0
M  V30 25356 C 2309.7 0.905473 -2.16422 0
M  V30 25357 C 2310.72 1.32459 -1.1283 0
M  V30 25358 O 2311.89 1.39659 -1.45112 0
M  V30 25359 C 2308.96 2.15365 -2.71696 0
M  V30 25360 C 2308.02 1.79061 -3.90174 0
M  V30 25361 C 2307.25 2.97928 -4.42803 0
M  V30 25362 O 2307.48 4.12051 -3.94423 0
M  V30 25363 O 2306.41 2.77546 -5.3409 0
M  V30 25364 H 2310.24 0.433573 -3.00589 0
M  V30 25365 H 2307.82 0.148041 -1.48665 0
M  V30 25366 H 2309.7 2.88551 -3.07109 0
M  V30 25367 H 2308.38 2.61646 -1.90587 0
M  V30 25368 H 2307.29 1.03116 -3.59608 0
M  V30 25369 H 2308.62 1.3756 -4.72587 0
M  V30 25370 N 2310.27 1.56347 0.198358 0
M  V30 25371 C 2311.18 1.97485 1.26637 0
M  V30 25372 C 2312.2 0.882028 1.49988 0
M  V30 25373 O 2313.37 1.18751 1.62666 0
M  V30 25374 C 2310.44 2.30324 2.59137 0
M  V30 25375 C 2309.5 3.53296 2.43886 0
M  V30 25376 C 2308.73 3.84559 3.70067 0
M  V30 25377 O 2308.95 3.17159 4.74096 0
M  V30 25378 O 2307.89 4.77996 3.65792 0
M  V30 25379 H 2311.71 2.88549 0.947253 0
M  V30 25380 H 2309.3 1.43859 0.403098 0
M  V30 25381 H 2311.18 2.52536 3.37348 0
M  V30 25382 H 2309.86 1.42428 2.90682 0
M  V30 25383 H 2308.76 3.36335 1.63797 0
M  V30 25384 H 2310.1 4.41648 2.17274 0
M  V30 25385 N 2311.75 -0.465951 1.50554 0
M  V30 25386 C 2312.66 -1.58904 1.72588 0
M  V30 25387 C 2313.67 -1.62989 0.609138 0
M  V30 25388 O 2314.85 -1.80763 0.888072 0
M  V30 25389 C 2311.92 -2.95088 1.82 0
M  V30 25390 C 2310.98 -3.0135 3.05756 0
M  V30 25391 C 2310.21 -4.31038 3.14709 0
M  V30 25392 O 2310.43 -5.21831 2.30322 0
M  V30 25393 O 2309.37 -4.42997 4.07476 0
M  V30 25394 H 2313.19 -1.43235 2.67801 0
M  V30 25395 H 2310.78 -0.645989 1.34712 0
M  V30 25396 H 2312.66 -3.75963 1.90341 0
M  V30 25397 H 2311.33 -3.10945 0.899714 0
M  V30 25398 H 2310.24 -2.19534 3.02912 0
M  V30 25399 H 2311.57 -2.9043 3.9738 0
M  V30 25400 N 2313.23 -1.40218 -0.719481 0
M  V30 25401 C 2314.19 -1.3993 -1.81527 0
M  V30 25402 C 2315.19 -0.29375 -1.58094 0
M  V30 25403 O 2316.38 -0.552458 -1.65208 0
M  V30 25404 C 2313.51 -1.18721 -3.19559 0
M  V30 25405 H 2314.7 -2.37454 -1.83182 0
M  V30 25406 H 2312.26 -1.2601 -0.924724 0
M  V30 25407 H 2312.99 -0.219423 -3.23557 0
M  V30 25408 H 2312.78 -1.98799 -3.37967 0
M  V30 25409 H 2314.27 -1.21298 -3.99595 0
M  V30 25410 N 2314.7 0.951297 -1.25651 0
M  V30 25411 C 2315.67 2.03005 -1.06402 0
M  V30 25412 C 2316.67 1.60792 -0.0157077 0
M  V30 25413 O 2317.86 1.72276 -0.2582 0
M  V30 25414 C 2314.99 3.35284 -0.616243 0
M  V30 25415 H 2316.18 2.21514 -2.02168 0
M  V30 25416 H 2313.74 1.12885 -1.08105 0
M  V30 25417 H 2314.47 3.22472 0.343861 0
M  V30 25418 H 2314.26 3.67272 -1.37308 0
M  V30 25419 H 2315.75 4.14558 -0.503105 0
M  V30 25420 N 2316.18 1.07291 1.1544 0
M  V30 25421 C 2317.59 0.818505 1.67802 0
M  V30 25422 C 2317.94 -0.656475 1.84891 0
M  V30 25423 O 2317.07 -1.50826 1.55179 0
M  V30 25424 C 2317.66 1.47923 3.04802 0
M  V30 25425 C 2316.22 1.27235 3.54243 0
M  V30 25426 C 2315.37 1.54929 2.29983 0
M  V30 25427 H 2318.32 1.23503 0.996625 0
M  V30 25428 H 2318.34 0.900115 3.697 0
M  V30 25429 H 2317.85 2.55272 2.92332 0
M  V30 25430 H 2315.96 0.219055 3.71956 0
M  V30 25431 H 2316.07 1.99211 4.3572 0
M  V30 25432 H 2314.43 0.970283 2.35494 0
M  V30 25433 H 2315.22 2.63459 2.201 0
M  V30 25434 N 2317.66 -1.32267 0.856927 0
M  V30 25435 C 2318.57 -2.32594 0.306172 0
M  V30 25436 C 2319.59 -1.64148 -0.57718 0
M  V30 25437 O 2320.76 -1.9567 -0.477009 0
M  V30 25438 C 2317.83 -3.43155 -0.4945 0
M  V30 25439 C 2316.89 -4.27287 0.415261 0
M  V30 25440 C 2316.12 -5.32569 -0.347293 0
M  V30 25441 O 2316.34 -5.48167 -1.57698 0
M  V30 25442 O 2315.28 -6.0121 0.288087 0
M  V30 25443 H 2319.1 -2.81596 1.13742 0
M  V30 25444 H 2316.69 -1.35931 0.619926 0
M  V30 25445 H 2318.57 -4.10578 -0.948871 0
M  V30 25446 H 2317.25 -2.96338 -1.30251 0
M  V30 25447 H 2316.15 -3.62665 0.917856 0
M  V30 25448 H 2317.49 -4.77635 1.18852 0
M  V30 25449 N 2319.14 -0.615084 -1.45102 0
M  V30 25450 C 2320.39 -0.110753 -2.01396 0
M  V30 25451 C 2320.7 1.26914 -1.48836 0
M  V30 25452 O 2321.91 1.86661 -1.97155 0
M  V30 25453 C 2320.36 -0.147293 -3.59598 0
M  V30 25454 C 2319.97 -1.5275 -4.21155 0
M  V30 25455 C 2321.71 0.301406 -4.23429 0
M  V30 25456 C 2319.62 -1.52002 -5.71533 0
M  V30 25457 H 2318.55 -0.0376373 -0.75306 0
M  V30 25458 H 2321.2 -0.77152 -1.66493 0
M  V30 25459 H 2319.58 0.58027 -3.91725 0
M  V30 25460 H 2320.76 -2.27737 -4.0059 0
M  V30 25461 H 2319.07 -1.91892 -3.69549 0
M  V30 25462 H 2321.67 0.326298 -5.33703 0
M  V30 25463 H 2322.01 1.32558 -3.94631 0
M  V30 25464 H 2322.55 -0.373134 -3.96046 0
M  V30 25465 H 2319.29 -2.52204 -6.0504 0
M  V30 25466 H 2318.81 -0.812845 -5.94267 0
M  V30 25467 H 2320.48 -1.24693 -6.34871 0
M  V30 25468 N 2320.62 1.53557 -0.354678 0
M  V30 25469 C 2321.86 2.03002 0.238615 0
M  V30 25470 C 2322.22 1.23659 1.46876 0
M  V30 25471 O 2323.42 1.63057 2.13696 0
M  V30 25472 C 2321.69 3.53386 0.534113 0
M  V30 25473 S 2323.25 4.2472 1.10263 0
M  V30 25474 H 2320.07 0.707518 0.0702784 0
M  V30 25475 H 2322.67 1.89129 -0.49502 0
M  V30 25476 H 2321.38 4.08739 -0.368837 0
M  V30 25477 H 2320.91 3.71401 1.29712 0
M  V30 25478 H 2322.92 4.34978 2.38764 0
M  V30 25479 N 2322.1 0.083568 1.57378 0
M  V30 25480 C 2323.51 -0.273081 1.57246 0
M  V30 25481 C 2323.71 -1.69224 1.09388 0
M  V30 25482 O 2322.77 -2.4063 0.765093 0
M  V30 25483 C 2324.08 -0.07201 3.00614 0
M  V30 25484 C 2325.63 -0.140645 3.12684 0
M  V30 25485 C 2326.1 0.0322899 4.57989 0
M  V30 25486 N 2327.59 -0.0229271 4.63194 0
M  V30 25487 C 2328.33 0.0862949 5.73335 0
M  V30 25488 N 2327.83 0.249702 6.9235 0
M  V30 25489 N 2329.62 0.0283874 5.62093 0
M  V30 25490 H 2321.77 1.01093 1.86799 0
M  V30 25491 H 2324.03 0.395237 0.86168 0
M  V30 25492 H 2323.74 0.907721 3.39784 0
M  V30 25493 H 2323.61 -0.819296 3.68195 0
M  V30 25494 H 2326 -1.11087 2.73393 0
M  V30 25495 H 2326.08 0.63794 2.47718 0
M  V30 25496 H 2325.72 0.999334 4.97972 0
M  V30 25497 H 2325.65 -0.765846 5.21001 0
M  V30 25498 H 2328.15 -0.147154 3.77613 0
M  V30 25499 H 2328.46 0.324869 7.72117 0
M  V30 25500 H 2326.8 0.285219 6.94415 0
M  V30 25501 H 2329.99 -0.0980586 4.67997 0
M  V30 25502 H 2330.17 0.116959 6.47894 0
M  V30 25503 N 2323.57 -1.5645 -0.190064 0
M  V30 25504 C 2324.8 -1.85034 -0.92574 0
M  V30 25505 C 2325.22 -0.666689 -1.76637 0
M  V30 25506 O 2324.57 0.364534 -1.78822 0
M  V30 25507 C 2324.62 -3.12471 -1.8178 0
M  V30 25508 O 2324.35 -4.26272 -1.01111 0
M  V30 25509 C 2325.85 -3.54269 -2.66474 0
M  V30 25510 H 2323.07 -0.614342 -0.269861 0
M  V30 25511 H 2325.61 -2.0356 -0.195802 0
M  V30 25512 H 2323.77 -2.95827 -2.50131 0
M  V30 25513 H 2324.18 -4.98872 -1.61947 0
M  V30 25514 H 2325.65 -4.46391 -3.24714 0
M  V30 25515 H 2326.13 -2.77497 -3.40429 0
M  V30 25516 H 2326.74 -3.73461 -2.03487 0
M  V30 25517 N 2325.05 0.45796 -1.50799 0
M  V30 25518 C 2326.3 1.21085 -1.62685 0
M  V30 25519 C 2326.63 1.91336 -0.332301 0
M  V30 25520 O 2325.91 1.82705 0.667011 0
M  V30 25521 C 2326.19 2.24417 -2.81619 0
M  V30 25522 C 2326.04 1.58384 -4.20992 0
M  V30 25523 C 2327.36 3.25605 -2.9609 0
M  V30 25524 H 2324.48 0.438853 -0.592095 0
M  V30 25525 H 2327.12 0.502828 -1.83226 0
M  V30 25526 H 2325.27 2.84801 -2.64236 0
M  V30 25527 H 2326.94 1.01496 -4.49996 0
M  V30 25528 H 2325.19 0.886629 -4.24643 0
M  V30 25529 H 2325.86 2.33538 -5.00164 0
M  V30 25530 H 2328.33 2.75256 -3.12047 0
M  V30 25531 H 2327.21 3.95221 -3.80909 0
M  V30 25532 H 2327.47 3.90503 -2.07267 0
M  V30 25533 N 2326.53 1.40598 0.712035 0
M  V30 25534 C 2327.75 1.42584 1.50614 0
M  V30 25535 C 2328.18 0.0282432 1.88079 0
M  V30 25536 O 2327.54 -0.964552 1.53512 0
M  V30 25537 C 2327.59 2.32585 2.75566 0
M  V30 25538 O 2326.69 1.77154 3.72411 0
M  V30 25539 H 2326.03 0.484581 0.453957 0
M  V30 25540 H 2328.56 1.84869 0.876616 0
M  V30 25541 H 2328.57 2.47894 3.24056 0
M  V30 25542 H 2327.25 3.34142 2.47633 0
M  V30 25543 H 2325.82 1.7121 3.31273 0
M  V30 25544 N 2328.01 -0.94462 1.26153 0
M  V30 25545 C 2329.26 -1.68708 1.11274 0
M  V30 25546 C 2329.58 -1.91921 -0.345132 0
M  V30 25547 O 2328.85 -1.51345 -1.24384 0
M  V30 25548 H 2327.43 -0.625217 0.408794 0
M  V30 25549 H 2330.09 -1.13517 1.58429 0
M  V30 25550 H 2329.18 -2.66224 1.62884 0
M  V30 25551 N 2329.49 -1.07901 -1.1487 0
M  V30 25552 C 2330.76 -0.718482 -1.81926 0
M  V30 25553 C 2331.14 0.798421 -1.95419 0
M  V30 25554 O 2330.49 1.71497 -1.51 0
M  V30 25555 C 2330.7 -1.43941 -3.17934 0
M  V30 25556 C 2332.05 -1.59513 -3.93498 0
M  V30 25557 O 2333.07 -1.40064 -3.27507 0
M  V30 25558 O 2331.93 -1.9156 -5.11827 0
M  V30 25559 H 2329.03 -0.256319 -0.786276 0
M  V30 25560 H 2331.57 -1.18028 -1.21932 0
M  V30 25561 H 2330.34 -2.47301 -3.03246 0
M  V30 25562 H 2329.97 -0.968755 -3.85618 0
M  V30 25563 N 2330.96 1.31811 -0.863929 0
M  V30 25564 C 2331.89 2.31144 -0.330883 0
M  V30 25565 C 2332.87 1.60088 0.574977 0
M  V30 25566 O 2334.06 1.87831 0.493271 0
M  V30 25567 C 2331.19 3.44055 0.473679 0
M  V30 25568 C 2330.14 4.26659 -0.338556 0
M  V30 25569 C 2329.47 5.3142 0.591318 0
M  V30 25570 C 2330.77 4.98165 -1.56935 0
M  V30 25571 H 2332.46 2.75977 -1.16091 0
M  V30 25572 H 2330.01 1.32678 -0.559681 0
M  V30 25573 H 2331.96 4.12592 0.857071 0
M  V30 25574 H 2330.69 2.97973 1.33716 0
M  V30 25575 H 2329.35 3.5978 -0.703818 0
M  V30 25576 H 2328.99 4.8159 1.4519 0
M  V30 25577 H 2328.69 5.87577 0.0517989 0
M  V30 25578 H 2330.22 6.02819 0.971685 0
M  V30 25579 H 2331.63 5.59333 -1.25774 0
M  V30 25580 H 2330.03 5.6409 -2.04749 0
M  V30 25581 H 2331.1 4.25497 -2.32552 0
M  V30 25582 N 2332.44 0.62277 1.44773 0
M  V30 25583 C 2333.4 -0.0773612 2.29069 0
M  V30 25584 C 2334.4 -0.780437 1.40591 0
M  V30 25585 O 2335.59 -0.626293 1.62552 0
M  V30 25586 C 2332.73 -1.12 3.21976 0
M  V30 25587 H 2333.92 0.663952 2.92458 0
M  V30 25588 H 2331.47 0.382512 1.51547 0
M  V30 25589 H 2332.21 -1.89157 2.6342 0
M  V30 25590 H 2331.99 -0.619883 3.87169 0
M  V30 25591 H 2333.48 -1.60988 3.85321 0
M  V30 25592 N 2333.92 -1.53367 0.362817 0
M  V30 25593 C 2334.88 -2.24274 -0.472639 0
M  V30 25594 C 2335.88 -1.24963 -1.01198 0
M  V30 25595 O 2337.07 -1.4926 -0.898168 0
M  V30 25596 C 2334.2 -2.97734 -1.66034 0
M  V30 25597 H 2335.4 -2.99536 0.147782 0
M  V30 25598 H 2332.95 -1.5588 0.114461 0
M  V30 25599 H 2333.69 -2.26708 -2.31892 0
M  V30 25600 H 2333.47 -3.70598 -1.28059 0
M  V30 25601 H 2334.96 -3.51645 -2.25246 0
M  V30 25602 N 2335.4 -0.091913 -1.57332 0
M  V30 25603 C 2336.31 0.882467 -2.1737 0
M  V30 25604 C 2337.32 1.31255 -1.14228 0
M  V30 25605 O 2338.5 1.38112 -1.46585 0
M  V30 25606 C 2335.57 2.12471 -2.73965 0
M  V30 25607 C 2334.63 1.74913 -3.92051 0
M  V30 25608 C 2333.86 2.93215 -4.45938 0
M  V30 25609 O 2334.08 4.07845 -3.98771 0
M  V30 25610 O 2333.02 2.71866 -5.37003 0
M  V30 25611 H 2336.84 0.401667 -3.01032 0
M  V30 25612 H 2334.43 0.132264 -1.48813 0
M  V30 25613 H 2336.31 2.85278 -3.10152 0
M  V30 25614 H 2334.98 2.59609 -1.93351 0
M  V30 25615 H 2333.89 0.992961 -3.60681 0
M  V30 25616 H 2335.22 1.3254 -4.74019 0
M  V30 25617 N 2336.88 1.56548 0.181765 0
M  V30 25618 C 2337.79 1.98817 1.24535 0
M  V30 25619 C 2338.8 0.897887 1.49044 0
M  V30 25620 O 2339.98 1.2047 1.61397 0
M  V30 25621 C 2337.04 2.33059 2.56679 0
M  V30 25622 C 2336.1 3.55863 2.40125 0
M  V30 25623 C 2335.34 3.88463 3.65968 0
M  V30 25624 O 2335.56 3.22169 4.70705 0
M  V30 25625 O 2334.49 4.81849 3.60701 0
M  V30 25626 H 2338.32 2.89538 0.916596 0
M  V30 25627 H 2335.91 1.44279 0.387817 0
M  V30 25628 H 2337.79 2.561 3.3465 0
M  V30 25629 H 2336.46 1.45503 2.89155 0
M  V30 25630 H 2335.37 3.38054 1.6022 0
M  V30 25631 H 2336.7 4.43928 2.12578 0
M  V30 25632 N 2338.35 -0.449957 1.5104 0
M  V30 25633 C 2339.26 -1.57064 1.74264 0
M  V30 25634 C 2340.28 -1.62334 0.626391 0
M  V30 25635 O 2341.46 -1.79811 0.907194 0
M  V30 25636 C 2338.52 -2.93141 1.8512 0
M  V30 25637 C 2337.58 -2.9809 3.08935 0
M  V30 25638 C 2336.82 -4.27676 3.19263 0
M  V30 25639 O 2337.04 -5.19359 2.35844 0
M  V30 25640 O 2335.97 -4.38651 4.12152 0
M  V30 25641 H 2339.8 -1.40386 2.69305 0
M  V30 25642 H 2337.38 -0.631665 1.3539 0
M  V30 25643 H 2339.27 -3.73923 1.94318 0
M  V30 25644 H 2337.94 -3.09973 0.932643 0
M  V30 25645 H 2336.85 -2.16309 3.05224 0
M  V30 25646 H 2338.18 -2.86199 4.00438 0
M  V30 25647 N 2339.83 -1.40974 -0.704569 0
M  V30 25648 C 2340.76 -1.44876 -1.83121 0
M  V30 25649 C 2341.74 -0.308409 -1.67281 0
M  V30 25650 O 2342.93 -0.518589 -1.87148 0
M  V30 25651 C 2340.06 -1.32142 -3.21179 0
M  V30 25652 C 2339.01 -2.43894 -3.5171 0
M  V30 25653 C 2338.34 -2.16231 -4.89028 0
M  V30 25654 C 2339.64 -3.86238 -3.51593 0
M  V30 25655 H 2341.33 -2.39164 -1.80113 0
M  V30 25656 H 2338.88 -1.15116 -0.865124 0
M  V30 25657 H 2340.83 -1.33486 -3.99699 0
M  V30 25658 H 2339.56 -0.343336 -3.2479 0
M  V30 25659 H 2338.21 -2.41818 -2.75535 0
M  V30 25660 H 2337.86 -1.16787 -4.89254 0
M  V30 25661 H 2337.56 -2.91109 -5.10421 0
M  V30 25662 H 2339.09 -2.19275 -5.69869 0
M  V30 25663 H 2340.5 -3.90078 -4.20134 0
M  V30 25664 H 2338.9 -4.60725 -3.84515 0
M  V30 25665 H 2339.97 -4.15033 -2.50749 0
M  V30 25666 N 2341.31 0.937917 -1.26653 0
M  V30 25667 C 2342.22 2.07064 -1.10279 0
M  V30 25668 C 2343.24 1.73964 -0.0354503 0
M  V30 25669 O 2344.41 1.99967 -0.239851 0
M  V30 25670 C 2341.48 3.3869 -0.740946 0
M  V30 25671 C 2340.54 3.85553 -1.88806 0
M  V30 25672 C 2339.77 5.10897 -1.54338 0
M  V30 25673 O 2339.99 5.68649 -0.446594 0
M  V30 25674 O 2338.93 5.52881 -2.3792 0
M  V30 25675 H 2342.75 2.23786 -2.05313 0
M  V30 25676 H 2340.34 1.05538 -1.05745 0
M  V30 25677 H 2342.22 4.17769 -0.552024 0
M  V30 25678 H 2340.9 3.23199 0.179965 0
M  V30 25679 H 2339.8 3.07405 -2.13197 0
M  V30 25680 H 2341.14 4.05569 -2.78881 0
M  V30 25681 N 2342.79 1.08509 1.14296 0
M  V30 25682 C 2344.2 0.812926 1.37345 0
M  V30 25683 C 2344.4 -0.577291 1.93053 0
M  V30 25684 O 2343.46 -1.3339 2.14391 0
M  V30 25685 C 2344.77 1.89646 2.33356 0
M  V30 25686 C 2346.32 1.92259 2.46993 0
M  V30 25687 C 2346.8 2.9973 3.46303 0
M  V30 25688 N 2348.29 2.98908 3.53847 0
M  V30 25689 C 2349.02 3.78708 4.30544 0
M  V30 25690 N 2348.52 4.68389 5.10474 0
M  V30 25691 N 2350.31 3.67006 4.2575 0
M  V30 25692 H 2342.46 1.98152 0.764832 0
M  V30 25693 H 2344.73 0.859966 0.398951 0
M  V30 25694 H 2344.43 2.89601 1.9956 0
M  V30 25695 H 2344.31 1.76665 3.33271 0
M  V30 25696 H 2346.69 0.929495 2.80079 0
M  V30 25697 H 2346.77 2.09319 1.47035 0
M  V30 25698 H 2346.42 3.99247 3.1395 0
M  V30 25699 H 2346.35 2.79915 4.46044 0
M  V30 25700 H 2348.84 2.33909 2.96808 0
M  V30 25701 H 2349.15 5.25883 5.66275 0
M  V30 25702 H 2347.5 4.72431 5.09739 0
M  V30 25703 H 2350.69 2.96311 3.62378 0
M  V30 25704 H 2350.86 4.29436 4.85272 0
M  V30 25705 N 2344.27 -1.31351 0.870907 0
M  V30 25706 C 2345.23 -2.26779 0.332283 0
M  V30 25707 C 2346.23 -1.52253 -0.517275 0
M  V30 25708 O 2347.42 -1.71114 -0.326447 0
M  V30 25709 C 2344.55 -3.36786 -0.528007 0
M  V30 25710 H 2345.74 -2.75935 1.17473 0
M  V30 25711 H 2343.3 -1.42299 0.646575 0
M  V30 25712 H 2344.03 -2.92924 -1.39162 0
M  V30 25713 H 2343.82 -3.92018 0.0803271 0
M  V30 25714 H 2345.31 -4.0785 -0.897107 0
M  V30 25715 N 2345.74 -0.630439 -1.44441 0
M  V30 25716 C 2346.68 0.124207 -2.27862 0
M  V30 25717 C 2347.66 0.851907 -1.38497 0
M  V30 25718 O 2348.84 0.856136 -1.67936 0
M  V30 25719 C 2345.97 1.18191 -3.17409 0
M  V30 25720 C 2345.01 0.554817 -4.22876 0
M  V30 25721 S 2345.85 -0.654583 -5.31484 0
M  V30 25722 C 2347 0.40315 -6.246 0
M  V30 25723 H 2347.23 -0.583486 -2.91518 0
M  V30 25724 H 2344.77 -0.418591 -1.48618 0
M  V30 25725 H 2346.73 1.78722 -3.69552 0
M  V30 25726 H 2345.39 1.86179 -2.52974 0
M  V30 25727 H 2344.58 1.3514 -4.85544 0
M  V30 25728 H 2344.18 0.0241448 -3.73992 0
M  V30 25729 H 2346.47 1.2759 -6.65377 0
M  V30 25730 H 2347.42 -0.187937 -7.07851 0
M  V30 25731 H 2347.82 0.728739 -5.59776 0
M  V30 25732 N 2347.22 1.53172 -0.370945 0
M  V30 25733 C 2348.47 2.01632 0.217388 0
M  V30 25734 C 2348.8 1.25759 1.47981 0
M  V30 25735 O 2348.08 0.352798 1.91274 0
M  V30 25736 C 2348.36 3.56557 0.503919 0
M  V30 25737 C 2348.21 4.43117 -0.772508 0
M  V30 25738 C 2349.53 4.20392 1.30226 0
M  V30 25739 H 2346.65 0.73291 0.0775357 0
M  V30 25740 H 2349.29 1.83387 -0.496895 0
M  V30 25741 H 2347.44 3.72233 1.11241 0
M  V30 25742 H 2349.11 4.39227 -1.40987 0
M  V30 25743 H 2347.36 4.10869 -1.39174 0
M  V30 25744 H 2348.03 5.49479 -0.526911 0
M  V30 25745 H 2350.5 4.08581 0.787474 0
M  V30 25746 H 2349.38 5.28808 1.47149 0
M  V30 25747 H 2349.64 3.76809 2.31231 0
M  V30 25748 N 2348.7 0.100255 1.57281 0
M  V30 25749 C 2349.61 -0.870927 2.17835 0
M  V30 25750 C 2350.63 -1.30647 1.14923 0
M  V30 25751 O 2351.8 -1.37333 1.47315 0
M  V30 25752 C 2348.87 -2.11015 2.75088 0
M  V30 25753 C 2347.93 -1.72831 3.92973 0
M  V30 25754 C 2347.16 -2.90846 4.47487 0
M  V30 25755 O 2347.38 -4.05724 4.00929 0
M  V30 25756 O 2346.32 -2.69014 5.38438 0
M  V30 25757 H 2350.14 -0.385697 3.01241 0
M  V30 25758 H 2347.73 -0.124371 1.48881 0
M  V30 25759 H 2349.61 -2.83629 3.11661 0
M  V30 25760 H 2348.29 -2.5858 1.94725 0
M  V30 25761 H 2347.19 -0.97382 3.61203 0
M  V30 25762 H 2348.53 -1.30024 4.74715 0
M  V30 25763 N 2350.18 -1.56643 -0.17346 0
M  V30 25764 C 2351.14 -1.95364 -1.19856 0
M  V30 25765 C 2352.14 -0.837064 -1.37295 0
M  V30 25766 O 2353.33 -1.10415 -1.34737 0
M  V30 25767 C 2350.46 -2.24658 -2.56401 0
M  V30 25768 H 2351.66 -2.87094 -0.867012 0
M  V30 25769 H 2349.21 -1.50667 -0.415827 0
M  V30 25770 H 2349.95 -1.35636 -2.94573 0
M  V30 25771 H 2349.73 -3.06045 -2.4511 0
M  V30 25772 H 2351.22 -2.55546 -3.30282 0
M  V30 25773 N 2351.66 0.44194 -1.51277 0
M  V30 25774 C 2352.62 1.51859 -1.71673 0
M  V30 25775 C 2353.62 1.4971 -0.58682 0
M  V30 25776 O 2354.81 1.51813 -0.854303 0
M  V30 25777 C 2351.94 2.91413 -1.76894 0
M  V30 25778 H 2353.14 1.3508 -2.67756 0
M  V30 25779 H 2350.69 0.670308 -1.41197 0
M  V30 25780 H 2351.42 3.13602 -0.826081 0
M  V30 25781 H 2351.21 2.94378 -2.59006 0
M  V30 25782 H 2352.7 3.69525 -1.94528 0
M  V30 25783 N 2353.14 1.41345 0.697083 0
M  V30 25784 C 2354.07 1.37489 1.82132 0
M  V30 25785 C 2355.05 0.242379 1.60783 0
M  V30 25786 O 2356.23 0.429044 1.83552 0
M  V30 25787 C 2353.36 1.14427 3.18786 0
M  V30 25788 C 2352.4 2.30376 3.58928 0
M  V30 25789 S 2353.24 3.92849 3.63909 0
M  V30 25790 C 2354.39 3.72087 5.03291 0
M  V30 25791 H 2354.63 2.32628 1.85125 0
M  V30 25792 H 2352.16 1.27851 0.865648 0
M  V30 25793 H 2354.12 1.01807 3.97675 0
M  V30 25794 H 2352.78 0.209105 3.13403 0
M  V30 25795 H 2351.97 2.0993 4.58198 0
M  V30 25796 H 2351.57 2.39396 2.87343 0
M  V30 25797 H 2353.86 3.31699 5.90747 0
M  V30 25798 H 2354.81 4.70954 5.28779 0
M  V30 25799 H 2355.22 3.05393 4.74758 0
M  V30 25800 N 2354.61 -0.931187 1.27148 0
M  V30 25801 C 2355.52 -2.06476 1.11376 0
M  V30 25802 C 2356.54 -1.73943 0.0446756 0
M  V30 25803 O 2357.72 -1.99837 0.250452 0
M  V30 25804 C 2354.78 -3.38292 0.758897 0
M  V30 25805 C 2353.84 -3.84546 1.90848 0
M  V30 25806 C 2353.07 -5.10071 1.57045 0
M  V30 25807 O 2353.3 -5.68404 0.476745 0
M  V30 25808 O 2352.23 -5.51612 2.40849 0
M  V30 25809 H 2356.06 -2.22694 2.06497 0
M  V30 25810 H 2353.64 -1.04976 1.06303 0
M  V30 25811 H 2355.52 -4.1747 0.574171 0
M  V30 25812 H 2354.2 -3.2329 -0.162822 0
M  V30 25813 H 2353.11 -3.0627 2.14824 0
M  V30 25814 H 2354.44 -4.04084 2.81028 0
M  V30 25815 N 2356.09 -1.09114 -1.13719 0
M  V30 25816 C 2357 -0.739609 -2.22636 0
M  V30 25817 C 2358.02 0.257037 -1.72091 0
M  V30 25818 O 2359.19 0.0991801 -2.01156 0
M  V30 25819 C 2356.26 -0.16197 -3.46321 0
M  V30 25820 C 2355.32 -1.21415 -4.11773 0
M  V30 25821 C 2354.55 -0.663984 -5.29554 0
M  V30 25822 O 2354.78 0.514174 -5.68078 0
M  V30 25823 O 2353.71 -1.41748 -5.84971 0
M  V30 25824 H 2357.54 -1.6484 -2.55071 0
M  V30 25825 H 2355.12 -0.86531 -1.2179 0
M  V30 25826 H 2357 0.156999 -4.21107 0
M  V30 25827 H 2355.68 0.719877 -3.15594 0
M  V30 25828 H 2354.58 -1.58577 -3.38828 0
M  V30 25829 H 2355.92 -2.06853 -4.46624 0
M  V30 25830 N 2357.57 1.30887 -0.877861 0
M  V30 25831 C 2358.82 1.96026 -0.491757 0
M  V30 25832 C 2359.14 1.69687 0.960797 0
M  V30 25833 O 2358.41 1.01656 1.6746 0
M  V30 25834 H 2356.99 0.72527 -0.178863 0
M  V30 25835 H 2359.65 1.59549 -1.11938 0
M  V30 25836 H 2358.75 3.05126 -0.656069 0
M  V30 25837 N 2359.05 0.638091 1.44105 0
M  V30 25838 C 2360.3 0.14278 2.01194 0
M  V30 25839 C 2360.61 -1.2453 1.50837 0
M  V30 25840 O 2361.82 -1.835 2.001 0
M  V30 25841 C 2360.27 0.204484 3.59319 0
M  V30 25842 C 2359.88 1.59431 4.18671 0
M  V30 25843 C 2361.62 -0.234004 4.23855 0
M  V30 25844 C 2359.53 1.61075 5.69042 0
M  V30 25845 H 2358.46 0.0496131 0.752366 0
M  V30 25846 H 2361.11 0.79791 1.65244 0
M  V30 25847 H 2359.49 -0.517877 3.92599 0
M  V30 25848 H 2360.67 2.34081 3.96917 0
M  V30 25849 H 2358.98 1.97747 3.66449 0
M  V30 25850 H 2361.58 -0.241349 5.34155 0
M  V30 25851 H 2361.92 -1.26263 3.9669 0
M  V30 25852 H 2362.46 0.436095 3.95402 0
M  V30 25853 H 2359.19 2.61798 6.00951 0
M  V30 25854 H 2358.71 0.907285 5.92898 0
M  V30 25855 H 2360.39 1.34777 6.32807 0
M  V30 25856 N 2360.53 -1.52973 0.379063 0
M  V30 25857 C 2361.77 -2.01446 -0.206386 0
M  V30 25858 C 2362.1 -1.2659 -1.47666 0
M  V30 25859 O 2361.36 -0.351709 -1.92514 0
M  V30 25860 C 2361.65 -3.53435 -0.530898 0
M  V30 25861 C 2361.32 -4.46239 0.646625 0
M  V30 25862 C 2359.98 -4.71328 0.969687 0
M  V30 25863 C 2362.33 -5.0106 1.43487 0
M  V30 25864 C 2359.66 -5.48488 2.08273 0
M  V30 25865 C 2362.01 -5.79436 2.53844 0
M  V30 25866 C 2360.68 -6.02807 2.8667 0
M  V30 25867 H 2359.95 -0.737141 -0.075522 0
M  V30 25868 H 2362.6 -1.84465 0.514303 0
M  V30 25869 H 2360.9 -3.68435 -1.33278 0
M  V30 25870 H 2362.6 -3.88425 -0.996349 0
M  V30 25871 H 2359.19 -4.26869 0.384809 0
M  V30 25872 H 2363.37 -4.81611 1.19853 0
M  V30 25873 H 2358.63 -5.64812 2.34088 0
M  V30 25874 H 2362.8 -6.20919 3.1533 0
M  V30 25875 H 2360.43 -6.6238 3.73037 0
M  V30 25876 N 2362 -0.108595 -1.57225 0
M  V30 25877 C 2363.42 0.24803 -1.57661 0
M  V30 25878 C 2363.62 1.67462 -1.12066 0
M  V30 25879 O 2362.68 2.39382 -0.803278 0
M  V30 25880 C 2363.99 0.0241758 -3.0069 0
M  V30 25881 C 2365.54 0.0908822 -3.12868 0
M  V30 25882 C 2366.01 -0.105148 -4.57879 0
M  V30 25883 N 2367.5 -0.050766 -4.63172 0
M  V30 25884 C 2368.24 -0.177497 -5.73125 0
M  V30 25885 N 2367.73 -0.359817 -6.91865 0
M  V30 25886 N 2369.53 -0.117808 -5.61977 0
M  V30 25887 H 2361.68 -1.04052 -1.85167 0
M  V30 25888 H 2363.94 -0.408895 -0.855283 0
M  V30 25889 H 2363.65 -0.961663 -3.38297 0
M  V30 25890 H 2363.52 0.760615 -3.69452 0
M  V30 25891 H 2365.91 1.06724 -2.75126 0
M  V30 25892 H 2365.99 -0.677268 -2.46671 0
M  V30 25893 H 2365.63 -1.07843 -4.96319 0
M  V30 25894 H 2365.56 0.682862 -5.22154 0
M  V30 25895 H 2368.05 0.0870602 -3.778 0
M  V30 25896 H 2368.37 -0.447665 -7.71502 0
M  V30 25897 H 2366.71 -0.395658 -6.93873 0
M  V30 25898 H 2369.9 0.0235919 -4.68094 0
M  V30 25899 H 2370.08 -0.220019 -6.47626 0
M  V30 25900 N 2363.48 1.56732 0.16515 0
M  V30 25901 C 2364.9 1.50989 0.517148 0
M  V30 25902 C 2365.1 0.813926 1.8433 0
M  V30 25903 O 2364.15 0.376864 2.49672 0
M  V30 25904 C 2365.47 2.95734 0.544209 0
M  V30 25905 C 2367.01 3.06574 0.630985 0
M  V30 25906 C 2367.49 4.5279 0.688881 0
M  V30 25907 N 2368.98 4.57061 0.751602 0
M  V30 25908 C 2369.72 5.67549 0.817077 0
M  V30 25909 N 2369.21 6.87652 0.843008 0
M  V30 25910 N 2371 5.55535 0.856571 0
M  V30 25911 H 2363.16 2.00381 -0.704353 0
M  V30 25912 H 2365.42 0.913143 -0.254703 0
M  V30 25913 H 2365.12 3.49835 -0.361668 0
M  V30 25914 H 2365 3.50713 1.38854 0
M  V30 25915 H 2367.39 2.52503 1.52729 0
M  V30 25916 H 2367.47 2.5467 -0.24014 0
M  V30 25917 H 2367.11 5.07493 -0.203189 0
M  V30 25918 H 2367.04 5.02456 1.57624 0
M  V30 25919 H 2369.53 3.70592 0.739596 0
M  V30 25920 H 2369.84 7.67608 0.894313 0
M  V30 25921 H 2368.19 6.9025 0.811183 0
M  V30 25922 H 2371.38 4.60622 0.833356 0
M  V30 25923 H 2371.55 6.41661 0.904134 0
M  V30 25924 N 2364.96 -0.433911 1.51509 0
M  V30 25925 C 2366.19 -1.2054 1.68159 0
M  V30 25926 C 2366.6 -1.84928 0.380395 0
M  V30 25927 O 2365.96 -1.70857 -0.641416 0
M  V30 25928 C 2366.01 -2.28691 2.79969 0
M  V30 25929 O 2365.73 -1.66936 4.05048 0
M  V30 25930 C 2367.23 -3.18907 3.07918 0
M  V30 25931 H 2364.45 -0.363181 0.564217 0
M  V30 25932 H 2367 -0.513719 1.97942 0
M  V30 25933 H 2365.15 -2.9357 2.52776 0
M  V30 25934 H 2365.57 -2.3844 4.67169 0
M  V30 25935 H 2367.04 -3.90919 3.89726 0
M  V30 25936 H 2367.52 -3.79859 2.20463 0
M  V30 25937 H 2368.12 -2.59725 3.36783 0
M  V30 25938 N 2366.44 -1.41713 -0.689577 0
M  V30 25939 C 2367.69 -1.41113 -1.44678 0
M  V30 25940 C 2368.01 -0.0232539 -1.94986 0
M  V30 25941 O 2367.28 0.935883 -1.72099 0
M  V30 25942 H 2365.86 -0.519436 -0.536838 0
M  V30 25943 H 2368.52 -1.77005 -0.815794 0
M  V30 25944 H 2367.62 -2.10197 -2.30702 0
M  V30 25945 N 2367.92 0.924431 -1.2764 0
M  V30 25946 C 2369.16 1.66916 -1.13944 0
M  V30 25947 C 2369.49 1.92446 0.314555 0
M  V30 25948 O 2368.76 1.53305 1.21961 0
M  V30 25949 H 2367.34 0.618635 -0.418689 0
M  V30 25950 H 2370 1.10982 -1.60215 0
M  V30 25951 H 2369.09 2.63599 -1.67098 0
M  V30 25952 N 2369.39 1.09715 1.13139 0
M  V30 25953 C 2370.32 0.761141 2.20746 0
M  V30 25954 C 2371.31 -0.262537 1.68062 0
M  V30 25955 O 2372.49 -0.129943 1.93765 0
M  V30 25956 C 2369.62 0.184115 3.46812 0
M  V30 25957 C 2368.57 1.13764 4.12604 0
M  V30 25958 C 2367.9 0.422176 5.33031 0
M  V30 25959 C 2369.2 2.48127 4.59598 0
M  V30 25960 H 2370.89 1.66086 2.4911 0
M  V30 25961 H 2368.44 0.800008 1.19732 0
M  V30 25962 H 2370.39 -0.0630474 4.21353 0
M  V30 25963 H 2369.12 -0.750812 3.17853 0
M  V30 25964 H 2367.78 1.37013 3.40034 0
M  V30 25965 H 2367.42 -0.516984 5.00336 0
M  V30 25966 H 2367.12 1.05798 5.77997 0
M  V30 25967 H 2368.65 0.183385 6.10325 0
M  V30 25968 H 2370.06 2.29068 5.25548 0
M  V30 25969 H 2368.46 3.07523 5.15315 0
M  V30 25970 H 2369.53 3.08671 3.73965 0
M  V30 25971 N 2370.87 -1.30419 0.88479 0
M  V30 25972 C 2372.12 -1.9615 0.50314 0
M  V30 25973 C 2372.45 -1.69853 -0.947647 0
M  V30 25974 O 2371.7 -0.995891 -1.68465 0
M  V30 25975 C 2372 -3.49982 0.72438 0
M  V30 25976 C 2371.67 -3.96328 2.15022 0
M  V30 25977 C 2370.33 -4.08694 2.54013 0
M  V30 25978 C 2372.68 -4.205 3.07944 0
M  V30 25979 C 2370.01 -4.42592 3.85135 0
M  V30 25980 C 2372.36 -4.55867 4.38598 0
M  V30 25981 C 2371.03 -4.66441 4.77482 0
M  V30 25982 H 2370.3 -0.717763 0.184112 0
M  V30 25983 H 2372.94 -1.55289 1.12061 0
M  V30 25984 H 2371.25 -3.91793 0.0238775 0
M  V30 25985 H 2372.94 -3.98912 0.408687 0
M  V30 25986 H 2369.53 -3.8721 1.83757 0
M  V30 25987 H 2373.72 -4.10427 2.79041 0
M  V30 25988 H 2368.97 -4.48979 4.15004 0
M  V30 25989 H 2373.15 -4.73521 5.10638 0
M  V30 25990 H 2370.78 -4.92463 5.79124 0
M  V30 25991 N 2372.35 -0.645724 -1.43764 0
M  V30 25992 C 2373.6 -0.155767 -2.01499 0
M  V30 25993 C 2373.92 1.23197 -1.51154 0
M  V30 25994 O 2373.19 1.82146 -0.721076 0
M  V30 25995 H 2371.77 -0.0545948 -0.745002 0
M  V30 25996 H 2374.43 -0.835708 -1.76074 0
M  V30 25997 H 2373.53 -0.134631 -3.11809 0
M  V30 25998 N 2373.83 1.5277 -0.38717 0
M  V30 25999 C 2374.76 2.2403 0.484049 0
M  V30 26000 C 2375.77 1.262 1.02847 0
M  V30 26001 O 2376.96 1.52288 0.931159 0
M  V30 26002 C 2374.06 2.94139 1.68332 0
M  V30 26003 C 2373.24 4.18658 1.26664 0
M  V30 26004 C 2372.29 4.71784 2.33036 0
M  V30 26005 O 2371.32 5.34926 1.94532 0
M  V30 26006 N 2372.52 4.51457 3.64921 0
M  V30 26007 H 2375.29 2.99433 -0.126457 0
M  V30 26008 H 2372.85 1.60487 -0.21342 0
M  V30 26009 H 2374.84 3.26581 2.39013 0
M  V30 26010 H 2373.41 2.22057 2.20021 0
M  V30 26011 H 2372.63 3.92278 0.388809 0
M  V30 26012 H 2373.92 4.99567 0.964876 0
M  V30 26013 H 2373.32 4.01051 3.98967 0
M  V30 26014 H 2371.87 4.88393 4.31643 0
M  V30 26015 N 2375.31 0.116931 1.57166 0
M  V30 26016 C 2376.55 -0.542371 1.95413 0
M  V30 26017 C 2376.89 -1.66461 1.00022 0
M  V30 26018 O 2376.16 -1.94465 0.0370688 0
M  V30 26019 C 2376.44 -1.07702 3.43617 0
M  V30 26020 C 2376.3 0.0416659 4.49781 0
M  V30 26021 C 2377.62 -1.96854 3.9362 0
M  V30 26022 H 2374.73 -0.195684 0.710547 0
M  V30 26023 H 2377.38 0.192072 1.89027 0
M  V30 26024 H 2375.53 -1.7029 3.4919 0
M  V30 26025 H 2377.2 0.676873 4.56307 0
M  V30 26026 H 2375.44 0.705094 4.28031 0
M  V30 26027 H 2376.11 -0.373621 5.50734 0
M  V30 26028 H 2378.59 -1.44139 3.90337 0
M  V30 26029 H 2377.46 -2.31181 4.97842 0
M  V30 26030 H 2377.73 -2.89426 3.34193 0
M  V30 26031 N 2376.78 -1.56818 -0.156836 0
M  V30 26032 C 2378.06 -1.73705 -0.899213 0
M  V30 26033 C 2378.44 -0.682289 -1.9977 0
M  V30 26034 O 2377.79 0.300482 -2.26516 0
M  V30 26035 C 2378 -3.17421 -1.45069 0
M  V30 26036 C 2379.35 -3.78813 -1.91796 0
M  V30 26037 O 2380.37 -3.20789 -1.54832 0
M  V30 26038 O 2379.23 -4.80726 -2.59932 0
M  V30 26039 H 2376.32 -0.709886 -0.424254 0
M  V30 26040 H 2378.87 -1.69092 -0.143531 0
M  V30 26041 H 2377.64 -3.8568 -0.660778 0
M  V30 26042 H 2377.27 -3.2642 -2.27016 0
M  V30 26043 N 2378.26 0.425871 -1.51737 0
M  V30 26044 C 2379.21 1.53831 -1.74467 0
M  V30 26045 C 2380.2 1.57987 -0.611269 0
M  V30 26046 O 2381.41 1.61594 -0.792927 0
M  V30 26047 H 2377.79 0.511284 -0.551446 0
M  V30 26048 H 2379.76 1.31838 -2.67696 0
M  V30 26049 C 2378.51 2.91376 -1.89725 0
M  V30 26050 H 2377.83 2.88914 -2.76349 0
M  V30 26051 H 2379.27 3.6855 -2.09636 0
M  V30 26052 C 2377.73 3.30372 -0.659978 0
M  V30 26053 O 2378.26 4.01296 0.180013 0
M  V30 26054 N 2376.46 2.86254 -0.500727 0
M  V30 26055 H 2376.01 2.28707 -1.18537 0
M  V30 26056 H 2375.97 3.12707 0.325848 0
M  V30 26057 N 2379.74 1.42077 0.682052 0
M  V30 26058 C 2380.99 1.42159 1.44212 0
M  V30 26059 C 2381.32 0.0354527 1.94468 0
M  V30 26060 O 2380.57 -0.954972 1.70818 0
M  V30 26061 C 2380.87 2.38666 2.66032 0
M  V30 26062 C 2380.54 3.8521 2.34359 0
M  V30 26063 C 2379.2 4.25128 2.25432 0
M  V30 26064 C 2381.55 4.77677 2.08504 0
M  V30 26065 C 2378.88 5.55504 1.88765 0
M  V30 26066 C 2381.23 6.08387 1.73343 0
M  V30 26067 C 2379.89 6.47312 1.62921 0
M  V30 26068 H 2379.16 0.520196 0.527709 0
M  V30 26069 H 2381.81 1.74968 0.778356 0
M  V30 26070 H 2380.12 1.99158 3.37407 0
M  V30 26071 H 2381.81 2.35997 3.24201 0
M  V30 26072 H 2378.4 3.53601 2.42207 0
M  V30 26073 H 2382.59 4.4763 2.14338 0
M  V30 26074 H 2377.84 5.8453 1.7926 0
M  V30 26075 H 2382.02 6.79529 1.52361 0
M  V30 26076 H 2379.64 7.48247 1.34279 0
M  V30 26077 N 2381.22 -0.917649 1.28129 0
M  V30 26078 C 2382.15 -2.03639 1.14251 0
M  V30 26079 C 2383.13 -1.7005 0.0413047 0
M  V30 26080 O 2384.32 -1.92977 0.217599 0
M  V30 26081 C 2381.45 -3.37973 0.799491 0
M  V30 26082 C 2380.4 -3.8571 1.85504 0
M  V30 26083 C 2379.73 -5.16964 1.36575 0
M  V30 26084 C 2381.03 -4.07997 3.26092 0
M  V30 26085 H 2382.72 -2.15508 2.07839 0
M  V30 26086 H 2380.27 -1.03551 1.00066 0
M  V30 26087 H 2382.22 -4.15726 0.689187 0
M  V30 26088 H 2380.94 -3.26146 -0.172088 0
M  V30 26089 H 2379.6 -3.10158 1.95442 0
M  V30 26090 H 2379.25 -5.01537 0.383341 0
M  V30 26091 H 2378.95 -5.49874 2.07153 0
M  V30 26092 H 2380.47 -5.97277 1.26859 0
M  V30 26093 H 2381.89 -4.76287 3.19098 0
M  V30 26094 H 2380.28 -4.52231 3.9447 0
M  V30 26095 H 2381.35 -3.12941 3.70399 0
M  V30 26096 N 2382.7 -1.10314 -1.12555 0
M  V30 26097 C 2383.61 -0.763181 -2.21839 0
M  V30 26098 C 2384.62 0.23877 -1.72354 0
M  V30 26099 O 2385.8 0.0778393 -2.0125 0
M  V30 26100 C 2382.86 -0.198693 -3.4613 0
M  V30 26101 C 2381.93 -1.25776 -4.10462 0
M  V30 26102 C 2381.16 -0.720113 -5.28819 0
M  V30 26103 O 2381.38 0.453893 -5.68591 0
M  V30 26104 O 2380.32 -1.47945 -5.83435 0
M  V30 26105 H 2384.14 -1.67536 -2.53309 0
M  V30 26106 H 2381.73 -0.878179 -1.20865 0
M  V30 26107 H 2383.61 0.112326 -4.2125 0
M  V30 26108 H 2382.28 0.686363 -3.1634 0
M  V30 26109 H 2381.19 -1.62162 -3.37127 0
M  V30 26110 H 2382.52 -2.11579 -4.44404 0
M  V30 26111 N 2384.18 1.29948 -0.891694 0
M  V30 26112 C 2385.59 1.48427 -0.586646 0
M  V30 26113 C 2385.79 1.81562 0.873919 0
M  V30 26114 O 2384.85 1.90727 1.65468 0
M  V30 26115 C 2386.16 2.60294 -1.50558 0
M  V30 26116 C 2387.71 2.74172 -1.50993 0
M  V30 26117 C 2388.18 3.89158 -2.41495 0
M  V30 26118 N 2389.67 3.96479 -2.39496 0
M  V30 26119 C 2390.41 4.84778 -3.06231 0
M  V30 26120 N 2389.91 5.77826 -3.82216 0
M  V30 26121 N 2391.7 4.78203 -2.95429 0
M  V30 26122 H 2383.85 1.06715 -1.83646 0
M  V30 26123 H 2386.11 0.529318 -0.786464 0
M  V30 26124 H 2385.82 2.4265 -2.54586 0
M  V30 26125 H 2385.69 3.56921 -1.22014 0
M  V30 26126 H 2388.08 2.91217 -0.477132 0
M  V30 26127 H 2388.16 1.78145 -1.83571 0
M  V30 26128 H 2387.8 3.7287 -3.44863 0
M  V30 26129 H 2387.73 4.84538 -2.0623 0
M  V30 26130 H 2390.23 3.29921 -1.84283 0
M  V30 26131 H 2390.54 6.4198 -4.30211 0
M  V30 26132 H 2388.88 5.77737 -3.86323 0
M  V30 26133 H 2392.07 4.04494 -2.35588 0
M  V30 26134 H 2392.25 5.46808 -3.47714 0
M  V30 26135 N 2385.65 0.653339 1.4342 0
M  V30 26136 C 2386.88 0.174528 2.06163 0
M  V30 26137 C 2387.3 -1.15987 1.48971 0
M  V30 26138 O 2386.65 -1.71607 0.621072 0
M  V30 26139 C 2386.7 0.0775501 3.61417 0
M  V30 26140 O 2386.43 1.3592 4.16482 0
M  V30 26141 C 2387.93 -0.427324 4.41236 0
M  V30 26142 H 2385.15 0.089947 0.664944 0
M  V30 26143 H 2387.69 0.894021 1.83923 0
M  V30 26144 H 2385.85 -0.592503 3.82842 0
M  V30 26145 H 2386.26 1.21848 5.1015 0
M  V30 26146 H 2387.73 -0.444134 5.5021 0
M  V30 26147 H 2388.21 -1.45865 4.1427 0
M  V30 26148 H 2388.82 0.210242 4.2478 0
M  V30 26149 N 2387.13 -1.52563 0.395266 0
M  V30 26150 C 2388.08 -2.2817 -0.451818 0
M  V30 26151 C 2389.07 -1.32306 -1.0579 0
M  V30 26152 O 2390.28 -1.4982 -0.997692 0
M  V30 26153 H 2386.65 -0.733794 -0.164468 0
M  V30 26154 H 2388.63 -2.97679 0.207252 0
M  V30 26155 C 2387.37 -3.10549 -1.56379 0
M  V30 26156 H 2386.7 -3.84176 -1.10675 0
M  V30 26157 H 2388.14 -3.6658 -2.13061 0
M  V30 26158 C 2386.6 -2.23235 -2.52324 0
M  V30 26159 O 2387.13 -1.86318 -3.55877 0
M  V30 26160 N 2385.33 -1.87278 -2.22206 0
M  V30 26161 H 2384.88 -2.17498 -1.3803 0
M  V30 26162 H 2384.84 -1.29148 -2.8665 0
M  V30 26163 N 2388.61 -0.125265 -1.57101 0
M  V30 26164 C 2389.83 0.542066 -2.00191 0
M  V30 26165 C 2390.26 1.59032 -1.00452 0
M  V30 26166 O 2389.62 1.81286 0.0229104 0
M  V30 26167 C 2389.67 1.13923 -3.42131 0
M  V30 26168 O 2388.77 2.25464 -3.45311 0
M  V30 26169 H 2388.11 0.1348 -0.650173 0
M  V30 26170 H 2390.64 -0.215588 -2.03461 0
M  V30 26171 H 2390.65 1.47324 -3.80473 0
M  V30 26172 H 2389.33 0.371458 -4.14238 0
M  V30 26173 H 2387.9 1.93456 -3.18793 0
M  V30 26174 N 2390.09 1.56899 0.148518 0
M  V30 26175 C 2391.02 2.01184 1.18521 0
M  V30 26176 C 2392 0.891148 1.44888 0
M  V30 26177 O 2393.18 1.15885 1.55834 0
M  V30 26178 C 2390.31 2.39116 2.51874 0
M  V30 26179 C 2389.27 3.54357 2.40031 0
M  V30 26180 C 2388.59 3.78098 3.78082 0
M  V30 26181 C 2389.89 4.87072 1.88568 0
M  V30 26182 H 2391.59 2.88038 0.816979 0
M  V30 26183 H 2389.13 1.38574 0.39155 0
M  V30 26184 H 2391.09 2.68698 3.24622 0
M  V30 26185 H 2389.81 1.49198 2.9053 0
M  V30 26186 H 2388.47 3.24939 1.69736 0
M  V30 26187 H 2388.12 2.85433 4.1417 0
M  V30 26188 H 2387.82 4.55651 3.7102 0
M  V30 26189 H 2389.34 4.10103 4.5238 0
M  V30 26190 H 2390.76 5.15381 2.51108 0
M  V30 26191 H 2389.15 5.68421 1.924 0
M  V30 26192 H 2390.22 4.77546 0.841276 0
M  V30 26193 N 2391.57 -0.417818 1.51961 0
M  V30 26194 C 2392.98 -0.996972 1.57852 0
M  V30 26195 C 2393.33 -1.91788 0.413747 0
M  V30 26196 O 2392.45 -2.113 -0.467019 0
M  V30 26197 C 2393.05 -1.81491 2.86088 0
M  V30 26198 C 2391.61 -2.34423 2.94487 0
M  V30 26199 C 2390.75 -1.14165 2.52709 0
M  V30 26200 H 2393.7 -0.198364 1.57455 0
M  V30 26201 H 2393.73 -2.67143 2.70952 0
M  V30 26202 H 2393.24 -1.1444 3.70844 0
M  V30 26203 H 2391.34 -3.04872 2.14206 0
M  V30 26204 H 2391.45 -2.65884 3.98551 0
M  V30 26205 H 2389.82 -1.49297 2.06355 0
M  V30 26206 H 2390.6 -0.486939 3.39829 0
M  V30 26207 N 2393.04 -1.42436 -0.674508 0
M  V30 26208 C 2394.45 -1.38216 -1.25512 0
M  V30 26209 C 2394.81 -0.0755809 -1.96054 0
M  V30 26210 O 2393.93 0.825665 -2.00029 0
M  V30 26211 C 2394.53 -2.50361 -2.28265 0
M  V30 26212 C 2393.08 -2.49472 -2.81852 0
M  V30 26213 C 2392.23 -2.29137 -1.56178 0
M  V30 26214 H 2395.18 -1.51646 -0.467875 0
M  V30 26215 H 2395.2 -2.20629 -3.10005 0
M  V30 26216 H 2394.72 -3.45442 -1.76894 0
M  V30 26217 H 2392.82 -1.5821 -3.37343 0
M  V30 26218 H 2392.93 -3.46521 -3.30848 0
M  V30 26219 H 2391.29 -1.77403 -1.82758 0
M  V30 26220 H 2392.08 -3.26274 -1.06773 0
M  V30 26221 N 2394.52 0.910841 -1.28614 0
M  V30 26222 C 2395.77 1.66272 -1.16109 0
M  V30 26223 C 2396.1 1.92036 0.289079 0
M  V30 26224 O 2395.38 1.52283 1.20997 0
M  V30 26225 C 2395.66 3.01882 -1.96315 0
M  V30 26226 C 2395.51 2.83253 -3.4941 0
M  V30 26227 C 2396.83 4.0246 -1.78083 0
M  V30 26228 H 2393.95 0.603409 -0.423162 0
M  V30 26229 H 2396.59 1.05584 -1.57962 0
M  V30 26230 H 2394.74 3.53684 -1.60749 0
M  V30 26231 H 2396.41 2.38439 -3.94898 0
M  V30 26232 H 2394.66 2.18255 -3.74897 0
M  V30 26233 H 2395.33 3.79567 -4.0079 0
M  V30 26234 H 2397.8 3.5973 -2.09126 0
M  V30 26235 H 2396.68 4.95304 -2.3657 0
M  V30 26236 H 2396.94 4.3598 -0.733085 0
M  V30 26237 N 2396 1.10909 1.11969 0
M  V30 26238 C 2396.93 0.70623 2.16997 0
M  V30 26239 C 2397.91 -0.294869 1.59904 0
M  V30 26240 O 2399.1 -0.192603 1.87513 0
M  V30 26241 C 2396.22 0.042826 3.38673 0
M  V30 26242 C 2395.27 1.00819 4.14413 0
M  V30 26243 S 2396.1 2.52797 4.72074 0
M  V30 26244 C 2397.26 1.87741 5.9708 0
M  V30 26245 H 2397.49 1.59592 2.50834 0
M  V30 26246 H 2395.02 0.926577 1.23507 0
M  V30 26247 H 2396.98 -0.333596 4.09142 0
M  V30 26248 H 2395.64 -0.823734 3.03106 0
M  V30 26249 H 2394.84 0.491347 5.01599 0
M  V30 26250 H 2394.44 1.32676 3.49676 0
M  V30 26251 H 2396.73 1.21056 6.66597 0
M  V30 26252 H 2397.67 2.72904 6.53398 0
M  V30 26253 H 2398.08 1.33988 5.48368 0
M  V30 26254 N 2397.48 -1.29474 0.898573 0
M  V30 26255 C 2398.44 -2.26023 0.380311 0
M  V30 26256 C 2399.44 -1.53316 -0.484864 0
M  V30 26257 O 2400.63 -1.71768 -0.290077 0
M  V30 26258 C 2397.76 -3.3783 -0.456451 0
M  V30 26259 H 2398.96 -2.73381 1.233 0
M  V30 26260 H 2396.51 -1.40896 0.676614 0
M  V30 26261 H 2397.24 -2.9581 -1.32917 0
M  V30 26262 H 2397.03 -3.91759 0.163462 0
M  V30 26263 H 2398.52 -4.09661 -0.810394 0
M  V30 26264 N 2398.96 -0.660936 -1.43071 0
M  V30 26265 C 2399.9 0.0377791 -2.32569 0
M  V30 26266 C 2400.9 0.805066 -1.49047 0
M  V30 26267 O 2402.1 0.714595 -1.65208 0
M  V30 26268 H 2398.48 0.0310058 -0.751361 0
M  V30 26269 H 2400.45 -0.73466 -2.89215 0
M  V30 26270 C 2399.2 0.985066 -3.33454 0
M  V30 26271 H 2398.52 0.404078 -3.97753 0
M  V30 26272 H 2399.96 1.4429 -3.98693 0
M  V30 26273 C 2398.42 2.08481 -2.64645 0
M  V30 26274 O 2398.95 3.16957 -2.46782 0
M  V30 26275 N 2397.16 1.85256 -2.23894 0
M  V30 26276 H 2396.7 0.970407 -2.38623 0
M  V30 26277 H 2396.66 2.59031 -1.78186 0
M  V30 26278 N 2400.43 1.52351 -0.403352 0
M  V30 26279 C 2401.37 2.24531 0.46026 0
M  V30 26280 C 2402.38 1.27283 1.01503 0
M  V30 26281 O 2403.57 1.53267 0.914955 0
M  V30 26282 C 2400.67 2.95908 1.65203 0
M  V30 26283 C 2399.84 4.19978 1.22217 0
M  V30 26284 C 2398.9 4.7423 2.28019 0
M  V30 26285 O 2397.93 5.36959 1.88847 0
M  V30 26286 N 2399.13 4.55302 3.60112 0
M  V30 26287 H 2401.89 2.99282 -0.158209 0
M  V30 26288 H 2399.45 1.60252 -0.23043 0
M  V30 26289 H 2401.45 3.29097 2.35536 0
M  V30 26290 H 2400.02 2.24378 2.17654 0
M  V30 26291 H 2399.24 3.92668 0.347181 0
M  V30 26292 H 2400.52 5.00563 0.911836 0
M  V30 26293 H 2399.92 4.0526 3.94691 0
M  V30 26294 H 2398.48 4.92944 4.26438 0
M  V30 26295 N 2401.91 0.133594 1.57033 0
M  V30 26296 C 2403.33 -0.222916 1.58036 0
M  V30 26297 C 2403.53 -1.65658 1.14716 0
M  V30 26298 O 2402.58 -2.38074 0.84126 0
M  V30 26299 C 2403.9 0.0236644 3.00691 0
M  V30 26300 C 2405.45 -0.0410961 3.12973 0
M  V30 26301 C 2405.92 0.177979 4.57654 0
M  V30 26302 N 2407.41 0.124446 4.63033 0
M  V30 26303 C 2408.15 0.268653 5.7277 0
M  V30 26304 N 2407.64 0.469842 6.91205 0
M  V30 26305 N 2409.44 0.207199 5.61718 0
M  V30 26306 H 2401.59 1.06985 1.83489 0
M  V30 26307 H 2403.85 0.42245 0.848669 0
M  V30 26308 H 2403.56 1.01536 3.36724 0
M  V30 26309 H 2403.43 -0.701743 3.70615 0
M  V30 26310 H 2405.82 -1.02333 2.76789 0
M  V30 26311 H 2405.9 0.716426 2.45563 0
M  V30 26312 H 2405.54 1.15725 4.9454 0
M  V30 26313 H 2405.47 -0.599705 5.23174 0
M  V30 26314 H 2407.96 -0.0269446 3.7789 0
M  V30 26315 H 2408.28 0.570347 7.70692 0
M  V30 26316 H 2406.62 0.505997 6.93156 0
M  V30 26317 H 2409.81 0.0508808 4.68072 0
M  V30 26318 H 2409.98 0.323023 6.47194 0
M  V30 26319 N 2403.39 -1.56975 -0.140195 0
M  V30 26320 C 2404.8 -1.73098 -0.699566 0
M  V30 26321 C 2405.15 -0.749054 -1.81338 0
M  V30 26322 O 2404.28 0.0828122 -2.16241 0
M  V30 26323 C 2404.87 -3.13862 -1.27577 0
M  V30 26324 C 2403.43 -3.31564 -1.78164 0
M  V30 26325 C 2402.58 -2.69014 -0.672807 0
M  V30 26326 H 2405.53 -1.58469 0.0855394 0
M  V30 26327 H 2405.55 -3.14239 -2.14556 0
M  V30 26328 H 2405.06 -3.85306 -0.464887 0
M  V30 26329 H 2403.16 -2.65129 -2.61796 0
M  V30 26330 H 2403.28 -4.39569 -1.90567 0
M  V30 26331 H 2401.64 -2.29667 -1.10114 0
M  V30 26332 H 2402.42 -3.43066 0.126739 0
M  V30 26333 N 2404.87 0.409753 -1.5218 0
M  V30 26334 C 2405.8 1.50606 -1.78438 0
M  V30 26335 C 2406.78 1.5779 -0.635323 0
M  V30 26336 O 2407.96 1.73074 -0.880853 0
M  V30 26337 C 2405.09 2.88435 -1.93449 0
M  V30 26338 C 2404.05 2.96102 -3.09043 0
M  V30 26339 C 2403.37 4.36179 -3.09276 0
M  V30 26340 C 2404.67 2.67645 -4.48513 0
M  V30 26341 H 2406.37 1.28884 -2.70239 0
M  V30 26342 H 2403.91 0.618582 -1.30037 0
M  V30 26343 H 2405.87 3.65116 -2.10401 0
M  V30 26344 H 2404.59 3.1145 -0.983184 0
M  V30 26345 H 2403.25 2.21866 -2.9184 0
M  V30 26346 H 2402.9 4.56202 -2.11869 0
M  V30 26347 H 2402.6 4.42234 -3.86915 0
M  V30 26348 H 2404.12 5.14795 -3.28357 0
M  V30 26349 H 2405.54 3.34048 -4.65924 0
M  V30 26350 H 2403.93 2.85076 -5.28064 0
M  V30 26351 H 2405 1.63087 -4.56652 0
M  V30 26352 N 2406.35 1.42792 0.666944 0
M  V30 26353 C 2407.28 1.42839 1.79248 0
M  V30 26354 C 2408.29 0.326361 1.59495 0
M  V30 26355 O 2409.48 0.589946 1.68469 0
M  V30 26356 C 2406.58 1.21234 3.16473 0
M  V30 26357 C 2405.75 2.44019 3.63006 0
M  V30 26358 C 2404.81 2.17843 4.7899 0
M  V30 26359 O 2403.84 2.911 4.89132 0
M  V30 26360 N 2405.04 1.18645 5.68246 0
M  V30 26361 H 2407.81 2.39857 1.79691 0
M  V30 26362 H 2405.37 1.37773 0.850314 0
M  V30 26363 H 2407.36 1.01627 3.91732 0
M  V30 26364 H 2405.93 0.327115 3.10884 0
M  V30 26365 H 2405.15 2.79142 2.78341 0
M  V30 26366 H 2406.44 3.25764 3.90839 0
M  V30 26367 H 2405.83 0.580714 5.62711 0
M  V30 26368 H 2404.39 1.05024 6.43283 0
M  V30 26369 N 2407.82 -0.904008 1.29095 0
M  V30 26370 C 2409.07 -1.65409 1.16816 0
M  V30 26371 C 2409.4 -1.92456 -0.281247 0
M  V30 26372 O 2408.65 -1.53015 -1.22003 0
M  V30 26373 C 2408.95 -3.01301 1.9223 0
M  V30 26374 C 2408.62 -2.93879 3.41973 0
M  V30 26375 C 2407.28 -2.91562 3.82812 0
M  V30 26376 C 2409.63 -2.83405 4.37414 0
M  V30 26377 C 2406.96 -2.76584 5.17415 0
M  V30 26378 C 2409.31 -2.69967 5.72102 0
M  V30 26379 C 2407.98 -2.66013 6.12203 0
M  V30 26380 H 2407.25 -0.605276 0.427461 0
M  V30 26381 H 2409.89 -1.05252 1.59982 0
M  V30 26382 H 2408.2 -3.65301 1.41641 0
M  V30 26383 H 2409.9 -3.58262 1.80137 0
M  V30 26384 H 2406.49 -2.96483 3.09509 0
M  V30 26385 H 2410.67 -2.84275 4.06818 0
M  V30 26386 H 2405.93 -2.71925 5.47601 0
M  V30 26387 H 2410.1 -2.60832 6.45708 0
M  V30 26388 H 2407.73 -2.54165 7.16452 0
M  V30 26389 N 2409.3 -1.11501 -1.11379 0
M  V30 26390 C 2410.27 -0.777191 -2.15621 0
M  V30 26391 C 2411.27 0.203751 -1.59504 0
M  V30 26392 O 2412.46 -0.0208126 -1.74188 0
M  V30 26393 C 2409.59 -0.153176 -3.40556 0
M  V30 26394 H 2410.78 -1.70065 -2.47018 0
M  V30 26395 H 2408.33 -0.916974 -1.26575 0
M  V30 26396 H 2409.07 0.780481 -3.14768 0
M  V30 26397 H 2408.85 -0.859305 -3.82568 0
M  V30 26398 H 2410.34 0.067031 -4.17546 0
M  V30 26399 N 2410.78 1.28995 -0.905426 0
M  V30 26400 C 2411.69 2.31297 -0.392286 0
M  V30 26401 C 2412.71 1.66177 0.51586 0
M  V30 26402 O 2413.88 1.97305 0.404059 0
M  V30 26403 C 2410.95 3.44754 0.3668 0
M  V30 26404 C 2410.01 4.25451 -0.57356 0
M  V30 26405 C 2409.24 5.33491 0.149394 0
M  V30 26406 O 2409.47 5.53643 1.37245 0
M  V30 26407 O 2408.4 5.99727 -0.511024 0
M  V30 26408 H 2412.23 2.77181 -1.24115 0
M  V30 26409 H 2409.81 1.33537 -0.669949 0
M  V30 26410 H 2411.69 4.13817 0.795834 0
M  V30 26411 H 2410.37 3.00968 1.19163 0
M  V30 26412 H 2409.27 3.59009 -1.05182 0
M  V30 26413 H 2410.61 4.72895 -1.36497 0
M  V30 26414 N 2412.26 0.668514 1.42719 0
M  V30 26415 C 2413.51 0.185424 2.00846 0
M  V30 26416 C 2413.82 -1.21302 1.53444 0
M  V30 26417 O 2415.03 -1.79215 2.03947 0
M  V30 26418 C 2413.48 0.280654 3.58804 0
M  V30 26419 C 2413.09 1.68276 4.15196 0
M  V30 26420 C 2414.84 -0.144046 4.24256 0
M  V30 26421 C 2412.74 1.73109 5.65497 0
M  V30 26422 H 2411.67 0.0655607 0.751144 0
M  V30 26423 H 2414.32 0.832781 1.63515 0
M  V30 26424 H 2412.71 -0.434484 3.93609 0
M  V30 26425 H 2413.88 2.42447 3.91862 0
M  V30 26426 H 2412.19 2.05476 3.62172 0
M  V30 26427 H 2414.79 -0.127992 5.34547 0
M  V30 26428 H 2415.13 -1.1782 3.99279 0
M  V30 26429 H 2415.67 0.519867 3.94388 0
M  V30 26430 H 2412.41 2.74486 5.95263 0
M  V30 26431 H 2411.93 1.03284 5.9084 0
M  V30 26432 H 2413.61 1.48169 6.29805 0
M  V30 26433 N 2413.74 -1.52135 0.411426 0
M  V30 26434 C 2414.65 -2.30815 -0.419734 0
M  V30 26435 C 2415.66 -1.38636 -1.05148 0
M  V30 26436 O 2416.84 -1.71711 -1.05249 0
M  V30 26437 C 2413.9 -3.11597 -1.52014 0
M  V30 26438 C 2412.97 -4.19518 -0.911216 0
M  V30 26439 C 2412.2 -4.96439 -1.95918 0
M  V30 26440 O 2412.42 -4.73688 -3.17767 0
M  V30 26441 O 2411.36 -5.81222 -1.56413 0
M  V30 26442 H 2415.18 -3.02889 0.221858 0
M  V30 26443 H 2412.77 -1.48377 0.174573 0
M  V30 26444 H 2414.65 -3.61896 -2.15891 0
M  V30 26445 H 2413.32 -2.42314 -2.14629 0
M  V30 26446 H 2412.23 -3.73361 -0.235091 0
M  V30 26447 H 2413.56 -4.911 -0.328954 0
M  V30 26448 N 2415.22 -0.14192 -1.5696 0
M  V30 26449 C 2416.15 0.837589 -2.12273 0
M  V30 26450 C 2417.13 1.24576 -1.04497 0
M  V30 26451 O 2418.31 1.34276 -1.32296 0
M  V30 26452 C 2415.44 2.12399 -2.63826 0
M  V30 26453 C 2414.48 1.86214 -3.83701 0
M  V30 26454 S 2415.32 1.05772 -5.2495 0
M  V30 26455 C 2416.47 2.35542 -5.79889 0
M  V30 26456 H 2416.71 0.367197 -2.95024 0
M  V30 26457 H 2414.24 0.0722743 -1.54231 0
M  V30 26458 H 2416.2 2.86301 -2.9418 0
M  V30 26459 H 2414.86 2.56554 -1.81215 0
M  V30 26460 H 2414.05 2.81589 -4.18 0
M  V30 26461 H 2413.65 1.20423 -3.54082 0
M  V30 26462 H 2415.94 3.31229 -5.91011 0
M  V30 26463 H 2416.89 2.05756 -6.77547 0
M  V30 26464 H 2417.3 2.45958 -5.08099 0
M  V30 26465 N 2416.69 1.57047 0.131868 0
M  V30 26466 C 2417.6 2.02678 1.18147 0
M  V30 26467 C 2418.62 0.94485 1.46112 0
M  V30 26468 O 2419.8 1.25544 1.57483 0
M  V30 26469 C 2416.86 2.41107 2.49135 0
M  V30 26470 C 2415.92 3.63322 2.28682 0
M  V30 26471 C 2415.15 3.99909 3.53424 0
M  V30 26472 O 2415.38 3.36981 4.60217 0
M  V30 26473 O 2414.31 4.9308 3.45189 0
M  V30 26474 H 2418.14 2.92307 0.824017 0
M  V30 26475 H 2415.72 1.45439 0.341719 0
M  V30 26476 H 2417.6 2.66617 3.26333 0
M  V30 26477 H 2416.28 1.54629 2.84379 0
M  V30 26478 H 2415.19 3.4298 1.49384 0
M  V30 26479 H 2416.52 4.50466 1.98347 0
M  V30 26480 N 2418.17 -0.401677 1.52395 0
M  V30 26481 C 2419.08 -1.51441 1.79173 0
M  V30 26482 C 2420.1 -1.60259 0.67772 0
M  V30 26483 O 2421.27 -1.76834 0.96394 0
M  V30 26484 C 2418.34 -2.87103 1.94352 0
M  V30 26485 C 2417.4 -2.8811 3.18262 0
M  V30 26486 C 2416.63 -4.17302 3.32708 0
M  V30 26487 O 2416.86 -5.11593 2.52247 0
M  V30 26488 O 2415.79 -4.25316 4.25899 0
M  V30 26489 H 2419.62 -1.31747 2.73635 0
M  V30 26490 H 2417.2 -0.588272 1.37331 0
M  V30 26491 H 2419.08 -3.67552 2.06116 0
M  V30 26492 H 2417.76 -3.06849 1.03079 0
M  V30 26493 H 2416.66 -2.06489 3.11951 0
M  V30 26494 H 2418 -2.73315 4.09341 0
M  V30 26495 N 2419.65 -1.43144 -0.659362 0
M  V30 26496 C 2420.58 -1.4227 -1.78422 0
M  V30 26497 C 2421.56 -0.284922 -1.60084 0
M  V30 26498 O 2422.74 -0.477559 -1.8235 0
M  V30 26499 C 2419.87 -1.22839 -3.1564 0
M  V30 26500 C 2418.92 -2.39812 -3.52693 0
M  V30 26501 S 2419.75 -4.0236 -3.53365 0
M  V30 26502 C 2420.91 -3.853 -4.93249 0
M  V30 26503 H 2421.14 -2.37455 -1.78893 0
M  V30 26504 H 2418.67 -1.30101 -0.831447 0
M  V30 26505 H 2420.63 -1.12315 -3.94836 0
M  V30 26506 H 2419.29 -0.292125 -3.12739 0
M  V30 26507 H 2418.48 -2.22004 -4.52471 0
M  V30 26508 H 2418.09 -2.4693 -2.80894 0
M  V30 26509 H 2420.38 -3.47245 -5.81745 0
M  V30 26510 H 2421.32 -4.84808 -5.16107 0
M  V30 26511 H 2421.73 -3.17873 -4.66495 0
M  V30 26512 N 2421.13 0.897149 -1.29572 0
M  V30 26513 C 2422.04 2.03451 -1.16811 0
M  V30 26514 C 2423.05 1.73763 -0.0907777 0
M  V30 26515 O 2424.23 1.99102 -0.303347 0
M  V30 26516 C 2421.29 3.36161 -0.848323 0
M  V30 26517 C 2420.36 3.79351 -2.00976 0
M  V30 26518 C 2419.59 5.05728 -1.70514 0
M  V30 26519 O 2419.81 5.6694 -0.62728 0
M  V30 26520 O 2418.75 5.45032 -2.55389 0
M  V30 26521 H 2422.57 2.17141 -2.12329 0
M  V30 26522 H 2420.16 1.02121 -1.09049 0
M  V30 26523 H 2422.04 4.15801 -0.684654 0
M  V30 26524 H 2420.71 3.23608 0.0770503 0
M  V30 26525 H 2419.62 3.00467 -2.22869 0
M  V30 26526 H 2420.95 3.96491 -2.91643 0
M  V30 26527 N 2422.61 1.1209 1.10786 0
M  V30 26528 C 2423.83 0.896981 1.87 0
M  V30 26529 C 2424.26 -0.548229 1.79933 0
M  V30 26530 O 2423.61 -1.38777 1.16665 0
M  V30 26531 C 2423.66 1.3718 3.33488 0
M  V30 26532 O 2422.77 0.547903 4.08744 0
M  V30 26533 H 2422.11 0.322555 0.580391 0
M  V30 26534 H 2424.64 1.49208 1.39993 0
M  V30 26535 H 2424.65 1.36928 3.84337 0
M  V30 26536 H 2423.32 2.42414 3.37947 0
M  V30 26537 H 2421.9 0.617098 3.67758 0
M  V30 26538 N 2424.08 -1.28513 0.912254 0
M  V30 26539 C 2425.49 -1.77086 0.591383 0
M  V30 26540 C 2425.85 -1.74686 -0.89327 0
M  V30 26541 O 2424.97 -1.34059 -1.69874 0
M  V30 26542 C 2425.57 -3.21568 1.06674 0
M  V30 26543 C 2424.12 -3.67869 0.796814 0
M  V30 26544 C 2423.27 -2.48314 1.23432 0
M  V30 26545 H 2426.22 -1.14998 1.09367 0
M  V30 26546 H 2426.24 -3.78311 0.407522 0
M  V30 26547 H 2425.76 -3.23283 2.14731 0
M  V30 26548 H 2423.86 -3.71616 -0.270614 0
M  V30 26549 H 2423.97 -4.58081 1.40351 0
M  V30 26550 H 2422.33 -2.46185 0.653079 0
M  V30 26551 H 2423.12 -2.52749 2.3232 0
M  V30 26552 N 2425.56 -0.676073 -1.42362 0
M  V30 26553 C 2426.81 -0.19916 -2.0182 0
M  V30 26554 C 2427.14 1.19165 -1.53341 0
M  V30 26555 O 2426.42 1.80031 -0.736155 0
M  V30 26556 C 2426.7 -0.235207 -3.59331 0
M  V30 26557 C 2426.55 -1.66156 -4.17986 0
M  V30 26558 C 2427.87 0.415873 -4.38131 0
M  V30 26559 H 2424.99 -0.073844 -0.733291 0
M  V30 26560 H 2427.63 -0.8611 -1.69367 0
M  V30 26561 H 2425.78 0.328419 -3.87109 0
M  V30 26562 H 2427.45 -2.27754 -4.01156 0
M  V30 26563 H 2425.7 -2.20184 -3.73766 0
M  V30 26564 H 2426.37 -1.63846 -5.27123 0
M  V30 26565 H 2428.84 -0.063926 -4.16051 0
M  V30 26566 H 2427.72 0.360019 -5.47718 0
M  V30 26567 H 2427.98 1.49365 -4.16104 0
M  V30 26568 N 2427.04 1.51915 -0.419488 0
M  V30 26569 C 2428.29 2.01922 0.152904 0
M  V30 26570 C 2428.62 1.3046 1.44258 0
M  V30 26571 O 2427.87 0.402627 1.91513 0
M  V30 26572 C 2428.17 3.54718 0.437004 0
M  V30 26573 C 2427.84 4.44368 -0.76471 0
M  V30 26574 C 2426.5 4.68592 -1.09431 0
M  V30 26575 C 2428.85 4.97079 -1.56722 0
M  V30 26576 C 2426.18 5.42773 -2.22742 0
M  V30 26577 C 2428.53 5.72502 -2.69117 0
M  V30 26578 C 2427.19 5.94995 -3.02552 0
M  V30 26579 H 2426.46 0.738885 0.0559514 0
M  V30 26580 H 2429.11 1.83036 -0.56303 0
M  V30 26581 H 2427.42 3.71839 1.23463 0
M  V30 26582 H 2429.11 3.9093 0.893014 0
M  V30 26583 H 2425.7 4.25699 -0.49785 0
M  V30 26584 H 2429.89 4.78264 -1.3258 0
M  V30 26585 H 2425.14 5.58407 -2.48981 0
M  V30 26586 H 2429.32 6.1234 -3.31682 0
M  V30 26587 H 2426.94 6.52257 -3.90468 0
M  V30 26588 N 2428.52 0.150242 1.56882 0
M  V30 26589 C 2429.45 -0.784245 2.19936 0
M  V30 26590 C 2430.43 -1.25467 1.14856 0
M  V30 26591 O 2431.61 -1.31165 1.43211 0
M  V30 26592 C 2428.74 -2.02224 2.82352 0
M  V30 26593 C 2427.7 -1.68846 3.93287 0
M  V30 26594 C 2427.02 -2.99936 4.42654 0
M  V30 26595 C 2428.32 -0.932623 5.13906 0
M  V30 26596 H 2430.02 -0.258729 2.9828 0
M  V30 26597 H 2427.56 -0.123004 1.43474 0
M  V30 26598 H 2429.52 -2.68082 3.25131 0
M  V30 26599 H 2428.24 -2.57154 2.01345 0
M  V30 26600 H 2426.9 -1.05365 3.51132 0
M  V30 26601 H 2426.55 -3.52863 3.58464 0
M  V30 26602 H 2426.25 -2.78365 5.17481 0
M  V30 26603 H 2427.77 -3.66859 4.88105 0
M  V30 26604 H 2429.19 -1.49336 5.53509 0
M  V30 26605 H 2427.58 -0.816735 5.94516 0
M  V30 26606 H 2428.65 0.0750421 4.84842 0
M  V30 26607 N 2430 -1.57115 -0.123538 0
M  V30 26608 C 2430.91 -2.03302 -1.1707 0
M  V30 26609 C 2431.92 -0.952585 -1.45608 0
M  V30 26610 O 2433.1 -1.26377 -1.56815 0
M  V30 26611 C 2430.16 -2.42425 -2.47852 0
M  V30 26612 C 2429.22 -3.6453 -2.26752 0
M  V30 26613 C 2428.46 -4.01778 -3.51298 0
M  V30 26614 O 2428.68 -3.39417 -4.58424 0
M  V30 26615 O 2427.61 -4.94904 -3.42569 0
M  V30 26616 H 2431.44 -2.9274 -0.808504 0
M  V30 26617 H 2429.03 -1.45619 -0.334001 0
M  V30 26618 H 2430.91 -2.68344 -3.24915 0
M  V30 26619 H 2429.58 -1.56135 -2.83555 0
M  V30 26620 H 2428.49 -3.43767 -1.47563 0
M  V30 26621 H 2429.82 -4.51511 -1.95955 0
M  V30 26622 N 2431.47 0.393589 -1.52606 0
M  V30 26623 C 2432.75 1.15302 -1.58003 0
M  V30 26624 C 2433.13 2.07825 -0.370422 0
M  V30 26625 O 2432.48 2.19307 0.6416 0
M  V30 26626 C 2432.69 1.91672 -2.91655 0
M  V30 26627 C 2434.04 2.47195 -3.45224 0
M  V30 26628 O 2435.06 2.01834 -2.93499 0
M  V30 26629 O 2433.92 3.30043 -4.35585 0
M  V30 26630 H 2431.01 0.527316 -0.637077 0
M  V30 26631 H 2433.56 0.399112 -1.6494 0
M  V30 26632 H 2432.33 1.23985 -3.71138 0
M  V30 26633 H 2431.96 2.74034 -2.88082 0
M  V30 26634 N 2432.95 1.43492 0.651762 0
M  V30 26635 C 2434.2 1.45186 1.41164 0
M  V30 26636 C 2434.53 0.0766942 1.94349 0
M  V30 26637 O 2433.78 -0.918524 1.72805 0
M  V30 26638 C 2434.08 2.44255 2.6091 0
M  V30 26639 C 2433.75 3.90094 2.26135 0
M  V30 26640 C 2432.41 4.29814 2.16363 0
M  V30 26641 C 2434.76 4.81992 1.98325 0
M  V30 26642 C 2432.09 5.59383 1.7694 0
M  V30 26643 C 2434.44 6.11927 1.604 0
M  V30 26644 C 2433.11 6.50622 1.49154 0
M  V30 26645 H 2432.38 0.531273 0.516556 0
M  V30 26646 H 2435.02 1.7658 0.741068 0
M  V30 26647 H 2433.33 2.0627 3.33106 0
M  V30 26648 H 2435.02 2.42821 3.19122 0
M  V30 26649 H 2431.61 3.58659 2.34652 0
M  V30 26650 H 2435.8 4.52076 2.04795 0
M  V30 26651 H 2431.05 5.88201 1.66821 0
M  V30 26652 H 2435.23 6.82608 1.37913 0
M  V30 26653 H 2432.86 7.50927 1.18377 0
M  V30 26654 N 2434.43 -0.890264 1.30046 0
M  V30 26655 C 2435.84 -1.457 1.16741 0
M  V30 26656 C 2436.19 -1.94801 -0.233905 0
M  V30 26657 O 2435.32 -1.84543 -1.13018 0
M  V30 26658 C 2435.91 -2.64821 2.11318 0
M  V30 26659 C 2434.47 -3.17601 2.02007 0
M  V30 26660 C 2433.62 -1.90293 2.01703 0
M  V30 26661 H 2436.57 -0.700701 1.42393 0
M  V30 26662 H 2436.59 -3.40864 1.69092 0
M  V30 26663 H 2436.1 -2.29054 3.13298 0
M  V30 26664 H 2434.2 -3.58038 1.03148 0
M  V30 26665 H 2434.32 -3.81259 2.90135 0
M  V30 26666 H 2432.68 -2.08399 1.4643 0
M  V30 26667 H 2433.46 -1.5679 3.05404 0
M  V30 26668 N 2435.91 -1.12676 -1.1019 0
M  V30 26669 C 2436.84 -0.754739 -2.16417 0
M  V30 26670 C 2437.85 0.219832 -1.61309 0
M  V30 26671 O 2439.04 0.000795465 -1.785 0
M  V30 26672 C 2436.14 -0.0967576 -3.38762 0
M  V30 26673 C 2435.32 -1.10144 -4.23305 0
M  V30 26674 C 2434.37 -0.470605 -5.24091 0
M  V30 26675 O 2433.4 -1.12834 -5.57904 0
M  V30 26676 N 2434.6 0.760847 -5.75492 0
M  V30 26677 H 2437.37 -1.66879 -2.4894 0
M  V30 26678 H 2434.93 -1.01871 -1.25833 0
M  V30 26679 H 2436.92 0.337313 -4.03292 0
M  V30 26680 H 2435.49 0.720099 -3.04193 0
M  V30 26681 H 2434.71 -1.71305 -3.55033 0
M  V30 26682 H 2436 -1.78072 -4.76621 0
M  V30 26683 H 2435.4 1.31414 -5.50224 0
M  V30 26684 H 2433.95 1.1377 -6.41794 0
M  V30 26685 N 2437.39 1.28028 -0.919057 0
M  V30 26686 C 2438.66 1.89777 -0.473701 0
M  V30 26687 C 2439.04 1.83261 1.0478 0
M  V30 26688 O 2438.39 1.27206 1.89818 0
M  V30 26689 C 2438.6 3.34065 -1.01004 0
M  V30 26690 C 2439.95 4.11018 -1.06532 0
M  V30 26691 O 2440.97 3.43046 -0.959056 0
M  V30 26692 O 2439.83 5.32528 -1.22786 0
M  V30 26693 H 2436.93 0.813099 -0.150994 0
M  V30 26694 H 2439.47 1.36357 -1.01019 0
M  V30 26695 H 2438.24 3.33058 -2.05398 0
M  V30 26696 H 2437.87 3.94991 -0.454695 0
M  V30 26697 N 2438.86 0.683613 1.42002 0
M  V30 26698 C 2440.28 0.285769 1.845 0
M  V30 26699 C 2440.63 -1.17379 1.57215 0
M  V30 26700 O 2439.75 -1.89965 1.03646 0
M  V30 26701 C 2440.35 0.51188 3.34911 0
M  V30 26702 C 2438.91 0.168071 3.76025 0
M  V30 26703 C 2438.05 0.80003 2.65509 0
M  V30 26704 H 2441 0.885142 1.31723 0
M  V30 26705 H 2441.02 -0.233226 3.79785 0
M  V30 26706 H 2440.54 1.57425 3.54738 0
M  V30 26707 H 2438.64 -0.890504 3.61802 0
M  V30 26708 H 2438.75 0.614744 4.7514 0
M  V30 26709 H 2437.11 0.230613 2.53654 0
M  V30 26710 H 2437.9 1.86603 2.88157 0
M  V30 26711 N 2440.34 -1.5169 0.427538 0
M  V30 26712 C 2441.76 -1.59403 0.0793258 0
M  V30 26713 C 2441.96 -1.43917 -1.41033 0
M  V30 26714 O 2441.02 -1.27543 -2.1792 0
M  V30 26715 C 2442.33 -2.94841 0.590688 0
M  V30 26716 C 2443.88 -3.08125 0.550269 0
M  V30 26717 C 2444.35 -4.46072 1.03844 0
M  V30 26718 N 2445.84 -4.52364 0.996023 0
M  V30 26719 C 2446.58 -5.57409 1.34473 0
M  V30 26720 N 2446.07 -6.69919 1.76581 0
M  V30 26721 N 2447.87 -5.47715 1.26352 0
M  V30 26722 H 2440.02 -1.60002 1.39689 0
M  V30 26723 H 2442.28 -0.753698 0.575016 0
M  V30 26724 H 2441.99 -3.11513 1.63257 0
M  V30 26725 H 2441.86 -3.77199 0.0102724 0
M  V30 26726 H 2444.25 -2.91127 -0.482603 0
M  V30 26727 H 2444.33 -2.2763 1.16697 0
M  V30 26728 H 2443.97 -4.63815 2.06973 0
M  V30 26729 H 2443.9 -5.25091 0.398378 0
M  V30 26730 H 2446.39 -3.71609 0.686675 0
M  V30 26731 H 2446.71 -7.46081 2.01451 0
M  V30 26732 H 2445.05 -6.71152 1.80499 0
M  V30 26733 H 2448.24 -4.58702 0.933289 0
M  V30 26734 H 2448.42 -6.2947 1.53857 0
M  V30 26735 N 2441.82 -0.15856 -1.568 0
M  V30 26736 C 2443.05 0.496268 -2.0086 0
M  V30 26737 C 2443.46 1.57657 -1.03873 0
M  V30 26738 O 2442.82 1.82461 -0.0375485 0
M  V30 26739 C 2442.87 1.08632 -3.44792 0
M  V30 26740 O 2442.59 0.0491552 -4.38072 0
M  V30 26741 C 2444.09 1.82063 -4.04188 0
M  V30 26742 H 2441.31 0.128187 -0.658642 0
M  V30 26743 H 2443.86 -0.256542 -2.02884 0
M  V30 26744 H 2442.01 1.78969 -3.43582 0
M  V30 26745 H 2442.43 0.48301 -5.22271 0
M  V30 26746 H 2443.9 2.18624 -5.0686 0
M  V30 26747 H 2444.38 2.71089 -3.45554 0
M  V30 26748 H 2444.98 1.16397 -4.09062 0
M  V30 26749 N 2443.3 1.57178 0.115204 0
M  V30 26750 C 2444.25 2.01604 1.16011 0
M  V30 26751 C 2445.24 0.913612 1.42652 0
M  V30 26752 O 2446.45 1.09882 1.42569 0
M  V30 26753 H 2442.82 0.642211 0.391241 0
M  V30 26754 H 2444.79 2.88587 0.758947 0
M  V30 26755 C 2443.54 2.43944 2.47763 0
M  V30 26756 H 2442.87 3.28343 2.28102 0
M  V30 26757 H 2444.31 2.78824 3.19427 0
M  V30 26758 C 2442.76 1.3046 3.10615 0
M  V30 26759 O 2443.29 0.622654 3.96845 0
M  V30 26760 N 2441.5 1.06069 2.70551 0
M  V30 26761 H 2441.05 1.61703 2.00524 0
M  V30 26762 H 2441.01 0.303339 3.12933 0
M  V30 26763 N 2444.78 -0.38549 1.52813 0
M  V30 26764 C 2446.19 -0.963265 1.59932 0
M  V30 26765 C 2446.54 -1.90867 0.454335 0
M  V30 26766 O 2445.66 -2.12244 -0.422094 0
M  V30 26767 C 2446.26 -1.75381 2.89874 0
M  V30 26768 C 2444.82 -2.28124 2.99393 0
M  V30 26769 C 2443.97 -1.08779 2.55073 0
M  V30 26770 H 2446.92 -0.164921 1.57841 0
M  V30 26771 H 2446.94 -2.61336 2.76557 0
M  V30 26772 H 2446.45 -1.06548 3.73188 0
M  V30 26773 H 2444.55 -3.00259 2.20624 0
M  V30 26774 H 2444.66 -2.5737 4.04101 0
M  V30 26775 H 2443.03 -1.44886 2.09476 0
M  V30 26776 H 2443.81 -0.414747 3.40785 0
M  V30 26777 N 2446.26 -1.43835 -0.644143 0
M  V30 26778 C 2447.19 -1.52512 -1.76812 0
M  V30 26779 C 2448.17 -0.379081 -1.65822 0
M  V30 26780 O 2449.35 -0.597498 -1.8478 0
M  V30 26781 C 2446.48 -1.45645 -3.15285 0
M  V30 26782 C 2445.44 -2.58592 -3.41049 0
M  V30 26783 C 2444.76 -2.36778 -4.79417 0
M  V30 26784 C 2446.06 -4.00803 -3.34895 0
M  V30 26785 H 2447.76 -2.46588 -1.69807 0
M  V30 26786 H 2445.3 -1.18681 -0.815521 0
M  V30 26787 H 2447.25 -1.50318 -3.93678 0
M  V30 26788 H 2445.98 -0.480781 -3.23042 0
M  V30 26789 H 2444.64 -2.53287 -2.65031 0
M  V30 26790 H 2444.29 -1.37433 -4.83861 0
M  V30 26791 H 2443.99 -3.12496 -4.97614 0
M  V30 26792 H 2445.51 -2.43248 -5.60056 0
M  V30 26793 H 2446.92 -4.07546 -4.03211 0
M  V30 26794 H 2445.32 -4.76619 -3.64628 0
M  V30 26795 H 2446.39 -4.25295 -2.32921 0
M  V30 26796 N 2447.73 0.883355 -1.30517 0
M  V30 26797 C 2448.7 1.9708 -1.17014 0
M  V30 26798 C 2449.7 1.60483 -0.100918 0
M  V30 26799 O 2450.89 1.70665 -0.349157 0
M  V30 26800 C 2448.02 3.31546 -0.793103 0
M  V30 26801 H 2449.21 2.10486 -2.13625 0
M  V30 26802 H 2446.76 1.06996 -1.13936 0
M  V30 26803 H 2447.5 3.23841 0.172442 0
M  V30 26804 H 2447.28 3.59478 -1.56583 0
M  V30 26805 H 2448.77 4.11309 -0.722146 0
M  V30 26806 N 2449.21 1.13259 1.09591 0
M  V30 26807 C 2450.63 0.870447 1.33774 0
M  V30 26808 C 2450.83 -0.494891 1.95328 0
M  V30 26809 O 2449.88 -1.24177 2.19855 0
M  V30 26810 C 2451.2 1.99373 2.25102 0
M  V30 26811 C 2452.74 2.02562 2.38616 0
M  V30 26812 C 2453.22 3.14148 3.33279 0
M  V30 26813 N 2454.71 3.13647 3.40851 0
M  V30 26814 C 2455.45 3.96628 4.14094 0
M  V30 26815 N 2454.94 4.89619 4.90148 0
M  V30 26816 N 2456.73 3.84733 4.09801 0
M  V30 26817 H 2448.89 2.01217 0.680101 0
M  V30 26818 H 2451.15 0.876113 0.362118 0
M  V30 26819 H 2450.85 2.97804 1.87098 0
M  V30 26820 H 2450.73 1.90641 3.25478 0
M  V30 26821 H 2453.12 1.04745 2.75885 0
M  V30 26822 H 2453.2 2.15367 1.38025 0
M  V30 26823 H 2452.84 4.12203 2.96734 0
M  V30 26824 H 2452.77 2.98581 4.3377 0
M  V30 26825 H 2455.26 2.46287 2.8662 0
M  V30 26826 H 2455.57 5.49427 5.43461 0
M  V30 26827 H 2453.92 4.93626 4.89243 0
M  V30 26828 H 2457.11 3.11414 3.49484 0
M  V30 26829 H 2457.28 4.49632 4.66621 0
M  V30 26830 N 2450.69 -1.27539 0.925834 0
M  V30 26831 C 2451.65 -2.25165 0.428168 0
M  V30 26832 C 2452.65 -1.5431 -0.452234 0
M  V30 26833 O 2453.84 -1.72344 -0.253578 0
M  V30 26834 C 2450.97 -3.38723 -0.384689 0
M  V30 26835 H 2452.17 -2.70704 1.29071 0
M  V30 26836 H 2449.72 -1.39429 0.706347 0
M  V30 26837 H 2450.46 -2.98563 -1.26613 0
M  V30 26838 H 2450.24 -3.91324 0.246523 0
M  V30 26839 H 2451.73 -4.11288 -0.723317 0
M  V30 26840 N 2452.17 -0.691135 -1.41637 0
M  V30 26841 C 2453.12 -0.0115608 -2.32597 0
M  V30 26842 C 2454.11 0.773269 -1.50721 0
M  V30 26843 O 2455.32 0.679391 -1.66686 0
M  V30 26844 H 2451.69 0.0150613 -0.751849 0
M  V30 26845 H 2453.66 -0.795841 -2.87592 0
M  V30 26846 C 2452.41 0.914113 -3.35469 0
M  V30 26847 H 2451.73 0.319617 -3.9852 0
M  V30 26848 H 2453.17 1.35801 -4.01664 0
M  V30 26849 C 2451.63 2.02821 -2.69008 0
M  V30 26850 O 2452.16 3.11651 -2.53449 0
M  V30 26851 N 2450.37 1.80465 -2.27773 0
M  V30 26852 H 2449.92 0.919573 -2.40628 0
M  V30 26853 H 2449.87 2.55193 -1.8364 0
M  V30 26854 N 2453.65 1.51461 -0.435577 0
M  V30 26855 C 2454.87 2.0649 0.130206 0
M  V30 26856 C 2455.29 1.30318 1.36612 0
M  V30 26857 O 2454.65 0.362255 1.78869 0
M  V30 26858 C 2454.7 3.58635 0.45419 0
M  V30 26859 O 2454.42 4.3193 -0.732666 0
M  V30 26860 C 2455.92 4.30172 1.07084 0
M  V30 26861 H 2453.14 0.670944 0.0087049 0
M  V30 26862 H 2455.68 1.9506 -0.614151 0
M  V30 26863 H 2453.84 3.69986 1.14845 0
M  V30 26864 H 2454.25 5.22515 -0.455879 0
M  V30 26865 H 2455.73 5.37718 1.24754 0
M  V30 26866 H 2456.2 3.8835 2.05137 0
M  V30 26867 H 2456.81 4.2326 0.416015 0
M  V30 26868 N 2455.12 0.166873 1.56714 0
M  V30 26869 C 2456.07 -0.782084 2.19058 0
M  V30 26870 C 2457.07 -1.24077 1.15331 0
M  V30 26871 O 2458.27 -1.20695 1.3354 0
M  V30 26872 H 2454.65 -0.270474 0.701675 0
M  V30 26873 H 2456.62 -0.232269 2.97495 0
M  V30 26874 C 2455.37 -2.00301 2.84209 0
M  V30 26875 H 2454.69 -1.65908 3.63751 0
M  V30 26876 H 2456.13 -2.64598 3.31306 0
M  V30 26877 C 2454.59 -2.82379 1.83749 0
M  V30 26878 O 2455.12 -3.79386 1.32021 0
M  V30 26879 N 2453.33 -2.47305 1.52606 0
M  V30 26880 H 2452.87 -1.68482 1.94863 0
M  V30 26881 H 2452.83 -3.02511 0.856404 0
M  V30 26882 N 2456.6 -1.57237 -0.106866 0
M  V30 26883 C 2457.55 -2.02217 -1.1494 0
M  V30 26884 C 2458.54 -0.921165 -1.42165 0
M  V30 26885 O 2459.75 -1.10636 -1.41985 0
M  V30 26886 H 2456.13 -0.644276 -0.38783 0
M  V30 26887 H 2458.1 -2.88986 -0.743632 0
M  V30 26888 C 2456.85 -2.45255 -2.46466 0
M  V30 26889 H 2456.17 -3.29549 -2.26358 0
M  V30 26890 H 2457.61 -2.80514 -3.17944 0
M  V30 26891 C 2456.07 -1.32105 -3.09919 0
M  V30 26892 O 2456.6 -0.643691 -3.96509 0
M  V30 26893 N 2454.8 -1.07502 -2.69985 0
M  V30 26894 H 2454.35 -1.62764 -1.99664 0
M  V30 26895 H 2454.31 -0.319931 -3.12768 0
M  V30 26896 N 2458.08 0.377381 -1.53015 0
M  V30 26897 C 2459.04 1.44441 -1.77959 0
M  V30 26898 C 2460.04 1.47086 -0.649789 0
M  V30 26899 O 2461.23 1.48053 -0.917923 0
M  V30 26900 C 2458.37 2.83648 -1.89094 0
M  V30 26901 H 2459.56 1.23602 -2.73245 0
M  V30 26902 H 2457.11 0.609819 -1.43913 0
M  V30 26903 H 2457.85 3.09816 -0.958347 0
M  V30 26904 H 2457.63 2.83128 -2.71258 0
M  V30 26905 H 2459.12 3.60942 -2.10026 0
M  V30 26906 N 2459.56 1.44175 0.636506 0
M  V30 26907 C 2460.51 1.50918 1.76993 0
M  V30 26908 C 2461.5 0.381324 1.65052 0
M  V30 26909 O 2462.71 0.556041 1.71196 0
M  V30 26910 H 2459.08 0.473465 0.584239 0
M  V30 26911 H 2461.05 2.46323 1.68427 0
M  V30 26912 C 2459.8 1.4654 3.15312 0
M  V30 26913 H 2459.12 2.32639 3.25145 0
M  V30 26914 H 2460.56 1.55319 3.94528 0
M  V30 26915 C 2459.02 0.185364 3.3639 0
M  V30 26916 O 2459.55 -0.746618 3.94701 0
M  V30 26917 N 2457.76 0.0902117 2.9046 0
M  V30 26918 H 2457.31 0.849459 2.43191 0
M  V30 26919 H 2457.26 -0.7655 3.04938 0
M  V30 26920 N 2461.04 -0.876421 1.30983 0
M  V30 26921 C 2462 -1.96457 1.18057 0
M  V30 26922 C 2463 -1.60427 0.109428 0
M  V30 26923 O 2464.19 -1.70477 0.358203 0
M  V30 26924 C 2461.32 -3.31121 0.810675 0
M  V30 26925 H 2462.51 -2.0935 2.14739 0
M  V30 26926 H 2460.07 -1.0639 1.14502 0
M  V30 26927 H 2460.8 -3.23928 -0.155265 0
M  V30 26928 H 2460.59 -3.58642 1.58487 0
M  V30 26929 H 2462.08 -4.1092 0.743948 0
M  V30 26930 N 2462.51 -1.13839 -1.08989 0
M  V30 26931 C 2463.46 -0.815385 -2.1784 0
M  V30 26932 C 2464.46 0.204204 -1.68165 0
M  V30 26933 O 2465.66 0.0608988 -1.79897 0
M  V30 26934 H 2462.04 -0.245928 -0.71065 0
M  V30 26935 H 2464.01 -1.74148 -2.42312 0
M  V30 26936 C 2462.76 -0.302675 -3.4638 0
M  V30 26937 H 2462.08 -1.07857 -3.84977 0
M  V30 26938 H 2463.52 -0.115148 -4.23844 0
M  V30 26939 C 2461.98 0.972535 -3.22558 0
M  V30 26940 O 2462.51 2.04748 -3.45603 0
M  V30 26941 N 2460.72 0.905407 -2.76135 0
M  V30 26942 H 2460.26 0.0304968 -2.57582 0
M  V30 26943 H 2460.22 1.75922 -2.60574 0
M  V30 26944 N 2463.99 1.27046 -0.932584 0
M  V30 26945 C 2465.24 1.94435 -0.576446 0
M  V30 26946 C 2465.57 1.73074 0.88086 0
M  V30 26947 O 2464.85 1.06267 1.62903 0
M  V30 26948 C 2465.13 3.48436 -0.909093 0
M  V30 26949 C 2464.98 3.79119 -2.42051 0
M  V30 26950 C 2466.3 4.38106 -0.418418 0
M  V30 26951 H 2463.42 0.70618 -0.2109 0
M  V30 26952 H 2466.06 1.50073 -1.16525 0
M  V30 26953 H 2464.21 3.86352 -0.408015 0
M  V30 26954 H 2465.88 3.50967 -2.99365 0
M  V30 26955 H 2464.13 3.25498 -2.86763 0
M  V30 26956 H 2464.8 4.86731 -2.60378 0
M  V30 26957 H 2467.27 4.07369 -0.847928 0
M  V30 26958 H 2466.15 5.44671 -0.680076 0
M  V30 26959 H 2466.41 4.36815 0.681566 0
M  V30 26960 N 2465.47 0.698636 1.41269 0
M  V30 26961 C 2466.43 0.0441722 2.29157 0
M  V30 26962 C 2467.43 -0.704815 1.4453 0
M  V30 26963 O 2468.62 -0.539247 1.65643 0
M  V30 26964 C 2465.76 -0.947751 3.27461 0
M  V30 26965 H 2466.95 0.818044 2.88527 0
M  V30 26966 H 2464.5 0.462307 1.49306 0
M  V30 26967 H 2465.24 -1.74928 2.73076 0
M  V30 26968 H 2465.02 -0.413782 3.89911 0
M  V30 26969 H 2466.51 -1.40337 3.93313 0
M  V30 26970 N 2466.95 -1.51228 0.443603 0
M  V30 26971 C 2468.18 -2.06257 -0.11908 0
M  V30 26972 C 2468.59 -1.31045 -1.36469 0
M  V30 26973 O 2467.93 -0.365183 -1.80034 0
M  V30 26974 C 2467.99 -3.55999 -0.500483 0
M  V30 26975 C 2467.66 -4.52508 0.639205 0
M  V30 26976 C 2468.65 -4.97392 1.5132 0
M  V30 26977 C 2466.34 -4.95533 0.821719 0
M  V30 26978 C 2468.33 -5.83979 2.55435 0
M  V30 26979 C 2466.02 -5.8191 1.86613 0
M  V30 26980 C 2467.02 -6.26031 2.73083 0
M  V30 26981 O 2466.7 -7.10691 3.7573 0
M  V30 26982 H 2466.44 -0.675946 -0.00856477 0
M  V30 26983 H 2468.99 -1.95714 0.623323 0
M  V30 26984 H 2467.22 -3.64347 -1.29568 0
M  V30 26985 H 2468.91 -3.93514 -0.995047 0
M  V30 26986 H 2469.68 -4.64841 1.38375 0
M  V30 26987 H 2465.55 -4.60728 0.15823 0
M  V30 26988 H 2469.1 -6.18339 3.2296 0
M  V30 26989 H 2465 -6.13873 1.99575 0
M  V30 26990 H 2465.76 -7.28883 3.72387 0
M  V30 26991 N 2468.43 -0.175182 -1.56623 0
M  V30 26992 C 2469.67 0.467851 -1.9661 0
M  V30 26993 C 2470 1.63517 -1.06241 0
M  V30 26994 O 2469.27 1.95471 -0.129557 0
M  V30 26995 H 2467.85 0.175832 -0.726011 0
M  V30 26996 H 2470.51 -0.257268 -1.93195 0
M  V30 26997 H 2469.6 0.825289 -3.00991 0
M  V30 26998 N 2469.91 1.57292 0.0985263 0
M  V30 26999 C 2470.85 2.02823 1.13866 0
M  V30 27000 C 2471.85 0.928691 1.41675 0
M  V30 27001 O 2473.05 1.11387 1.41396 0
M  V30 27002 H 2469.43 0.646324 0.384408 0
M  V30 27003 H 2471.4 2.89376 0.728296 0
M  V30 27004 C 2470.15 2.46558 2.45162 0
M  V30 27005 H 2469.47 3.30744 2.24607 0
M  V30 27006 H 2470.91 2.82196 3.16451 0
M  V30 27007 C 2469.37 1.33747 3.09214 0
M  V30 27008 O 2469.9 0.66471 3.96162 0
M  V30 27009 N 2468.11 1.08932 2.69411 0
M  V30 27010 H 2467.65 1.63821 1.98798 0
M  V30 27011 H 2467.61 0.336513 3.12594 0
M  V30 27012 N 2471.38 -0.369261 1.53213 0
M  V30 27013 C 2472.61 -1.13747 1.73425 0
M  V30 27014 C 2473.03 -1.82378 0.460436 0
M  V30 27015 O 2472.39 -1.71593 -0.585268 0
M  V30 27016 C 2472.44 -2.14625 2.89773 0
M  V30 27017 O 2471.54 -3.21629 2.58124 0
M  V30 27018 H 2470.88 -0.330217 0.576067 0
M  V30 27019 H 2473.41 -0.427512 2.00084 0
M  V30 27020 H 2473.42 -2.58289 3.15834 0
M  V30 27021 H 2472.1 -1.64064 3.82173 0
M  V30 27022 H 2470.68 -2.82964 2.42869 0
M  V30 27023 N 2472.86 -1.4451 -0.628851 0
M  V30 27024 C 2473.81 -1.51855 -1.7619 0
M  V30 27025 C 2474.8 -0.390071 -1.64848 0
M  V30 27026 O 2476.01 -0.565112 -1.70899 0
M  V30 27027 H 2472.38 -0.476557 -0.58172 0
M  V30 27028 H 2474.36 -2.47212 -1.67119 0
M  V30 27029 C 2473.1 -1.4821 -3.1453 0
M  V30 27030 H 2472.43 -2.3436 -3.23907 0
M  V30 27031 H 2473.87 -1.57409 -3.93698 0
M  V30 27032 C 2472.33 -0.203201 -3.36287 0
M  V30 27033 O 2472.86 0.725676 -3.95091 0
M  V30 27034 N 2471.06 -0.105614 -2.90408 0
M  V30 27035 H 2470.61 -0.862344 -2.42737 0
M  V30 27036 H 2470.57 0.749317 -3.0534 0
M  V30 27037 N 2474.34 0.869463 -1.31446 0
M  V30 27038 C 2475.29 1.96442 -1.15735 0
M  V30 27039 C 2476.27 1.60755 -0.0682138 0
M  V30 27040 O 2477.47 1.74555 -0.293184 0
M  V30 27041 C 2474.59 3.32163 -0.867313 0
M  V30 27042 C 2473.68 3.74116 -1.99745 0
M  V30 27043 N 2474.07 3.88025 -3.24454 0
M  V30 27044 C 2472.37 4.03632 -1.8973 0
M  V30 27045 C 2473.07 4.23872 -3.98381 0
M  V30 27046 N 2472.05 4.34584 -3.26554 0
M  V30 27047 H 2475.85 2.05308 -2.10299 0
M  V30 27048 H 2473.36 1.06029 -1.23011 0
M  V30 27049 H 2475.36 4.10357 -0.73574 0
M  V30 27050 H 2474.02 3.24624 0.0701043 0
M  V30 27051 H 2475.03 3.72739 -3.59563 0
M  V30 27052 H 2471.71 4.04479 -1.03456 0
M  V30 27053 H 2473.1 4.42226 -5.05852 0
M  V30 27054 N 2475.82 1.14415 1.08383 0
M  V30 27055 C 2477.04 0.936445 1.85055 0
M  V30 27056 C 2477.47 -0.509939 1.81056 0
M  V30 27057 O 2476.83 -1.36271 1.19582 0
M  V30 27058 C 2476.87 1.44223 3.30503 0
M  V30 27059 O 2475.98 0.63448 4.0749 0
M  V30 27060 H 2475.32 0.334794 0.573419 0
M  V30 27061 H 2477.85 1.52144 1.36797 0
M  V30 27062 H 2477.86 1.4505 3.81346 0
M  V30 27063 H 2476.53 2.49528 3.32729 0
M  V30 27064 H 2475.11 0.694967 3.66367 0
M  V30 27065 N 2477.3 -1.26549 0.939309 0
M  V30 27066 C 2478.24 -2.28435 0.43819 0
M  V30 27067 C 2479.24 -1.62352 -0.483558 0
M  V30 27068 O 2480.44 -1.76323 -0.361978 0
M  V30 27069 H 2476.82 -0.741846 0.123162 0
M  V30 27070 H 2478.79 -2.68104 1.31007 0
M  V30 27071 C 2477.54 -3.46546 -0.282991 0
M  V30 27072 H 2476.86 -3.97618 0.417112 0
M  V30 27073 H 2478.3 -4.19764 -0.597874 0
M  V30 27074 C 2476.76 -3.01658 -1.50013 0
M  V30 27075 O 2477.29 -3.06335 -2.5985 0
M  V30 27076 N 2475.5 -2.57022 -1.35603 0
M  V30 27077 H 2475.04 -2.53416 -0.462395 0
M  V30 27078 H 2475 -2.27351 -2.17161 0
M  V30 27079 N 2478.77 -0.706118 -1.40896 0
M  V30 27080 C 2480 -0.249471 -2.05894 0
M  V30 27081 C 2480.42 1.09663 -1.52825 0
M  V30 27082 O 2479.78 1.68875 -0.659618 0
M  V30 27083 C 2479.83 -0.229104 -3.59871 0
M  V30 27084 O 2478.93 0.792713 -4.0471 0
M  V30 27085 H 2478.27 -0.119252 -0.653204 0
M  V30 27086 H 2480.8 -0.963942 -1.8047 0
M  V30 27087 H 2480.81 -0.0635509 -4.07951 0
M  V30 27088 H 2479.49 -1.21148 -3.97864 0
M  V30 27089 H 2478.07 0.595655 -3.68112 0
M  V30 27090 N 2480.25 1.50991 -0.451617 0
M  V30 27091 C 2481.2 2.24964 0.370822 0
M  V30 27092 C 2482.19 1.27761 0.978052 0
M  V30 27093 O 2483.38 1.52773 0.893827 0
M  V30 27094 C 2480.51 3.10548 1.46339 0
M  V30 27095 C 2479.59 4.15188 0.864852 0
M  V30 27096 N 2479.98 5.058 -0.00320245 0
M  V30 27097 C 2478.28 4.31424 1.13091 0
M  V30 27098 C 2478.98 5.807 -0.340874 0
M  V30 27099 N 2477.96 5.42883 0.279107 0
M  V30 27100 H 2481.76 2.92383 -0.298186 0
M  V30 27101 H 2479.27 1.60231 -0.264556 0
M  V30 27102 H 2481.27 3.62132 2.06558 0
M  V30 27103 H 2479.93 2.44674 2.13459 0
M  V30 27104 H 2480.94 5.16572 -0.370671 0
M  V30 27105 H 2477.62 3.76774 1.79854 0
M  V30 27106 H 2479.01 6.63675 -1.04812 0
M  V30 27107 N 2481.73 0.183486 1.56528 0
M  V30 27108 C 2482.98 -0.459002 1.97537 0
M  V30 27109 C 2483.31 -1.62069 1.06992 0
M  V30 27110 O 2482.58 -1.94132 0.119515 0
M  V30 27111 C 2482.87 -0.930307 3.47875 0
M  V30 27112 C 2482.72 0.232396 4.49199 0
M  V30 27113 C 2484.04 -1.79982 4.01615 0
M  V30 27114 H 2481.16 -0.165371 0.718207 0
M  V30 27115 H 2483.8 0.272072 1.88042 0
M  V30 27116 H 2481.95 -1.55327 3.56098 0
M  V30 27117 H 2483.62 0.869799 4.53026 0
M  V30 27118 H 2481.86 0.886002 4.24656 0
M  V30 27119 H 2482.54 -0.139699 5.51823 0
M  V30 27120 H 2485.01 -1.27454 3.96099 0
M  V30 27121 H 2483.89 -2.09858 5.07199 0
M  V30 27122 H 2484.15 -2.74992 3.46167 0
M  V30 27123 N 2483.21 -1.57342 -0.0901833 0
M  V30 27124 C 2484.45 -1.86337 -0.792775 0
M  V30 27125 C 2484.78 -0.772694 -1.78493 0
M  V30 27126 O 2484.04 0.233223 -1.94305 0
M  V30 27127 C 2484.34 -3.21936 -1.55217 0
M  V30 27128 C 2484 -4.45407 -0.701687 0
M  V30 27129 C 2482.66 -4.78926 -0.46725 0
M  V30 27130 C 2485.02 -5.21082 -0.110769 0
M  V30 27131 C 2482.34 -5.85545 0.367888 0
M  V30 27132 C 2484.7 -6.28584 0.71172 0
M  V30 27133 C 2483.36 -6.60616 0.956202 0
M  V30 27134 H 2482.63 -0.681854 -0.290097 0
M  V30 27135 H 2485.28 -1.91424 -0.0540996 0
M  V30 27136 H 2483.58 -3.12556 -2.36255 0
M  V30 27137 H 2485.28 -3.41599 -2.10026 0
M  V30 27138 H 2481.87 -4.19161 -0.894525 0
M  V30 27139 H 2486.05 -4.95515 -0.279042 0
M  V30 27140 H 2481.31 -6.08772 0.566235 0
M  V30 27141 H 2485.48 -6.86391 1.17644 0
M  V30 27142 H 2483.11 -7.43061 1.60512 0
M  V30 27143 N 2484.69 0.36113 -1.53407 0
M  V30 27144 C 2485.91 1.12826 -1.74026 0
M  V30 27145 C 2486.34 1.82131 -0.470101 0
M  V30 27146 O 2485.69 1.71901 0.57616 0
M  V30 27147 C 2485.74 2.13085 -2.90907 0
M  V30 27148 O 2484.85 3.20256 -2.59826 0
M  V30 27149 H 2484.19 0.327157 -0.57781 0
M  V30 27150 H 2486.72 0.416895 -2.00308 0
M  V30 27151 H 2486.73 2.5661 -3.17199 0
M  V30 27152 H 2485.4 1.62035 -3.83037 0
M  V30 27153 H 2483.98 2.81672 -2.44367 0
M  V30 27154 N 2486.16 1.44842 0.621179 0
M  V30 27155 C 2487.39 1.51874 1.41242 0
M  V30 27156 C 2487.81 0.147797 1.87518 0
M  V30 27157 O 2487.17 -0.864972 1.59336 0
M  V30 27158 C 2487.22 2.49639 2.60217 0
M  V30 27159 O 2486.32 2.0048 3.60391 0
M  V30 27160 H 2485.67 0.51247 0.422221 0
M  V30 27161 H 2488.2 1.9007 0.757272 0
M  V30 27162 H 2488.21 2.68001 3.07635 0
M  V30 27163 H 2486.88 3.49214 2.25881 0
M  V30 27164 H 2485.46 1.91931 3.19714 0
M  V30 27165 N 2487.64 -0.862479 1.31905 0
M  V30 27166 C 2488.89 -1.61849 1.222 0
M  V30 27167 C 2489.22 -1.92977 -0.217607 0
M  V30 27168 O 2488.5 -1.56668 -1.15262 0
M  V30 27169 C 2488.78 -2.94388 2.07384 0
M  V30 27170 C 2488.63 -2.7009 3.59682 0
M  V30 27171 C 2489.95 -3.95574 1.92898 0
M  V30 27172 H 2487.07 -0.587288 0.445266 0
M  V30 27173 H 2489.71 -0.996481 1.61772 0
M  V30 27174 H 2487.86 -3.47474 1.73765 0
M  V30 27175 H 2489.53 -2.23618 4.03476 0
M  V30 27176 H 2487.78 -2.0419 3.82739 0
M  V30 27177 H 2488.45 -3.6443 4.14602 0
M  V30 27178 H 2490.92 -3.5172 2.22333 0
M  V30 27179 H 2489.8 -4.86183 2.5479 0
M  V30 27180 H 2490.06 -4.32958 0.894391 0
M  V30 27181 N 2489.12 -1.14988 -1.07775 0
M  V30 27182 C 2490.07 -0.811219 -2.1308 0
M  V30 27183 C 2491.05 0.202569 -1.5962 0
M  V30 27184 O 2492.25 0.00395164 -1.77 0
M  V30 27185 C 2489.38 -0.297499 -3.42009 0
M  V30 27186 C 2488.46 -1.34119 -4.02334 0
M  V30 27187 N 2488.85 -2.54724 -4.36978 0
M  V30 27188 C 2487.15 -1.19292 -4.2975 0
M  V30 27189 C 2487.85 -3.21586 -4.84724 0
M  V30 27190 N 2486.83 -2.4898 -4.83229 0
M  V30 27191 H 2490.63 -1.72857 -2.37693 0
M  V30 27192 H 2488.14 -1.0347 -1.25171 0
M  V30 27193 H 2490.14 -0.036551 -4.16884 0
M  V30 27194 H 2488.8 0.613966 -3.18843 0
M  V30 27195 H 2489.81 -2.91901 -4.27801 0
M  V30 27196 H 2486.49 -0.340999 -4.16105 0
M  V30 27197 H 2487.88 -4.24451 -5.20856 0
M  V30 27198 N 2490.6 1.26049 -0.946007 0
M  V30 27199 C 2491.83 1.97322 -0.61217 0
M  V30 27200 C 2492.24 1.70596 0.818141 0
M  V30 27201 O 2491.58 0.97364 1.55775 0
M  V30 27202 C 2491.64 3.50927 -0.780408 0
M  V30 27203 C 2491.31 4.01313 -2.18626 0
M  V30 27204 C 2492.3 4.12678 -3.16217 0
M  V30 27205 C 2489.99 4.35199 -2.50813 0
M  V30 27206 C 2491.98 4.57231 -4.44093 0
M  V30 27207 C 2489.67 4.79439 -3.78921 0
M  V30 27208 C 2490.67 4.90417 -4.75374 0
M  V30 27209 O 2490.35 5.3368 -6.012 0
M  V30 27210 H 2490.09 0.635978 -0.229145 0
M  V30 27211 H 2492.64 1.61401 -1.27039 0
M  V30 27212 H 2490.87 3.86645 -0.0650544 0
M  V30 27213 H 2492.56 4.0341 -0.448913 0
M  V30 27214 H 2493.33 3.86738 -2.92674 0
M  V30 27215 H 2489.2 4.25886 -1.7647 0
M  V30 27216 H 2492.75 4.65714 -5.19381 0
M  V30 27217 H 2488.65 5.04823 -4.02274 0
M  V30 27218 H 2489.41 5.51888 -6.04452 0
M  V30 27219 N 2492.08 0.71358 1.4052 0
M  V30 27220 C 2492.99 0.0607079 2.34521 0
M  V30 27221 C 2494 -0.746043 1.57195 0
M  V30 27222 O 2495.18 -0.67946 1.89592 0
M  V30 27223 C 2492.24 -0.851432 3.36083 0
M  V30 27224 C 2491.3 -0.0348584 4.29286 0
M  V30 27225 C 2490.54 -0.903557 5.25996 0
M  V30 27226 O 2490.76 -2.14282 5.2862 0
M  V30 27227 O 2489.69 -0.343618 6.00918 0
M  V30 27228 H 2493.52 0.836023 2.91966 0
M  V30 27229 H 2491.11 0.474045 1.4168 0
M  V30 27230 H 2492.99 -1.37397 3.98372 0
M  V30 27231 H 2491.66 -1.60593 2.81055 0
M  V30 27232 H 2490.57 0.532698 3.70288 0
M  V30 27233 H 2491.9 0.681372 4.87461 0
M  V30 27234 N 2493.55 -1.50749 0.459618 0
M  V30 27235 C 2494.97 -1.59199 0.11312 0
M  V30 27236 C 2495.17 -1.46876 -1.37948 0
M  V30 27237 O 2494.23 -1.32136 -2.15166 0
M  V30 27238 C 2495.54 -2.93522 0.653095 0
M  V30 27239 C 2497.09 -3.06889 0.615503 0
M  V30 27240 C 2497.56 -4.43769 1.13283 0
M  V30 27241 N 2499.05 -4.5015 1.09175 0
M  V30 27242 C 2499.79 -5.54431 1.46266 0
M  V30 27243 N 2499.28 -6.66022 1.90751 0
M  V30 27244 N 2501.08 -5.44911 1.37942 0
M  V30 27245 H 2493.23 -1.57003 1.43052 0
M  V30 27246 H 2495.49 -0.741331 0.590874 0
M  V30 27247 H 2495.2 -3.0798 1.69828 0
M  V30 27248 H 2495.07 -3.77092 0.0902795 0
M  V30 27249 H 2497.46 -2.92085 -0.420742 0
M  V30 27250 H 2497.54 -2.25104 1.21499 0
M  V30 27251 H 2497.18 -4.59321 2.16765 0
M  V30 27252 H 2497.11 -5.24128 0.509668 0
M  V30 27253 H 2499.6 -3.70069 0.765345 0
M  V30 27254 H 2499.92 -7.4164 2.17231 0
M  V30 27255 H 2498.26 -6.67172 1.94695 0
M  V30 27256 H 2501.45 -4.56619 1.03038 0
M  V30 27257 H 2501.63 -6.26064 1.67175 0
M  V30 27258 N 2495.03 -0.191784 -1.56429 0
M  V30 27259 C 2495.94 0.742442 -2.22542 0
M  V30 27260 C 2496.96 1.23725 -1.22345 0
M  V30 27261 O 2498.13 1.2851 -1.55071 0
M  V30 27262 C 2495.2 1.94617 -2.86923 0
M  V30 27263 C 2494.26 1.49626 -4.02381 0
M  V30 27264 C 2493.49 2.64261 -4.63683 0
M  V30 27265 O 2493.72 3.81659 -4.23902 0
M  V30 27266 O 2492.65 2.37164 -5.53206 0
M  V30 27267 H 2496.48 0.209409 -3.02977 0
M  V30 27268 H 2494.06 0.037357 -1.49353 0
M  V30 27269 H 2495.94 2.64976 -3.27667 0
M  V30 27270 H 2494.62 2.46787 -2.0947 0
M  V30 27271 H 2493.53 0.761571 -3.66266 0
M  V30 27272 H 2494.86 1.02126 -4.81488 0
M  V30 27273 N 2496.51 1.57387 0.0818378 0
M  V30 27274 C 2497.76 1.86754 0.782882 0
M  V30 27275 C 2498.09 0.782149 1.78081 0
M  V30 27276 O 2497.34 -0.222916 1.94426 0
M  V30 27277 C 2497.64 3.22754 1.53507 0
M  V30 27278 C 2497.31 4.45773 0.678056 0
M  V30 27279 C 2495.97 4.79167 0.441845 0
M  V30 27280 C 2498.32 5.21134 0.0831327 0
M  V30 27281 C 2495.65 5.85342 -0.398936 0
M  V30 27282 C 2498 6.28197 -0.745045 0
M  V30 27283 C 2496.66 6.60099 -0.991223 0
M  V30 27284 H 2495.93 0.683383 0.286477 0
M  V30 27285 H 2498.58 1.9145 0.0439472 0
M  V30 27286 H 2496.89 3.13804 2.34594 0
M  V30 27287 H 2498.58 3.42708 2.08212 0
M  V30 27288 H 2495.17 4.1963 0.872283 0
M  V30 27289 H 2499.36 4.95656 0.25276 0
M  V30 27290 H 2494.61 6.08463 -0.598512 0
M  V30 27291 H 2498.79 6.85758 -1.21283 0
M  V30 27292 H 2496.41 7.42199 -1.6445 0
M  V30 27293 N 2497.99 -0.35299 1.53596 0
M  V30 27294 C 2499.4 -0.929124 1.61939 0
M  V30 27295 C 2499.75 -1.8986 0.494719 0
M  V30 27296 O 2498.88 -2.13091 -0.376979 0
M  V30 27297 C 2499.47 -1.69193 2.93529 0
M  V30 27298 C 2498.03 -2.21722 3.04165 0
M  V30 27299 C 2497.18 -1.03344 2.57323 0
M  V30 27300 H 2500.13 -0.131403 1.58155 0
M  V30 27301 H 2500.15 -2.55411 2.82038 0
M  V30 27302 H 2499.66 -0.986078 3.75364 0
M  V30 27303 H 2497.76 -2.95512 2.26944 0
M  V30 27304 H 2497.87 -2.48741 4.09469 0
M  V30 27305 H 2496.24 -1.4041 2.12502 0
M  V30 27306 H 2497.02 -0.342368 3.41589 0
M  V30 27307 N 2499.47 -1.45169 -0.613489 0
M  V30 27308 C 2500.38 -1.55915 -1.75293 0
M  V30 27309 C 2501.39 -0.443886 -1.68243 0
M  V30 27310 O 2502.57 -0.703743 -1.88705 0
M  V30 27311 C 2499.63 -1.51725 -3.11738 0
M  V30 27312 C 2498.7 -2.74244 -3.30286 0
M  V30 27313 C 2497.93 -2.70244 -4.60221 0
M  V30 27314 O 2498.15 -1.77239 -5.42165 0
M  V30 27315 O 2497.09 -3.6136 -4.81355 0
M  V30 27316 H 2500.91 -2.52215 -1.69178 0
M  V30 27317 H 2498.5 -1.27613 -0.776864 0
M  V30 27318 H 2500.38 -1.51975 -3.93041 0
M  V30 27319 H 2499.05 -0.585753 -3.18356 0
M  V30 27320 H 2497.96 -2.79557 -2.48593 0
M  V30 27321 H 2499.29 -3.665 -3.28541 0
M  V30 27322 N 2500.95 0.855472 -1.32361 0
M  V30 27323 C 2501.86 1.99632 -1.23225 0
M  V30 27324 C 2502.87 1.73386 -0.146013 0
M  V30 27325 O 2504.05 1.98037 -0.366537 0
M  V30 27326 C 2501.11 3.33292 -0.95484 0
M  V30 27327 C 2500.17 3.72765 -2.12943 0
M  V30 27328 C 2499.41 5.00047 -1.86517 0
M  V30 27329 O 2499.63 5.64658 -0.80733 0
M  V30 27330 O 2498.56 5.36631 -2.726 0
M  V30 27331 H 2502.39 2.10276 -2.1913 0
M  V30 27332 H 2499.97 0.985999 -1.12243 0
M  V30 27333 H 2501.86 4.13412 -0.816592 0
M  V30 27334 H 2500.53 3.2369 -0.0259423 0
M  V30 27335 H 2499.44 2.93224 -2.32315 0
M  V30 27336 H 2500.77 3.87012 -3.04109 0
M  V30 27337 N 2502.42 1.15558 1.07164 0
M  V30 27338 C 2503.65 0.955551 1.83512 0
M  V30 27339 C 2504.07 -0.496178 1.82163 0
M  V30 27340 O 2503.42 -1.34417 1.23443 0
M  V30 27341 C 2503.47 1.46438 3.30512 0
M  V30 27342 O 2503.2 2.85924 3.31932 0
M  V30 27343 C 2504.7 1.3061 4.23622 0
M  V30 27344 H 2501.92 0.339254 0.57892 0
M  V30 27345 H 2504.46 1.53376 1.35263 0
M  V30 27346 H 2502.62 0.92865 3.76105 0
M  V30 27347 H 2503.03 3.09036 4.23789 0
M  V30 27348 H 2504.5 1.71056 5.24828 0
M  V30 27349 H 2504.98 0.250518 4.38485 0
M  V30 27350 H 2505.59 1.83101 3.83867 0
M  V30 27351 N 2503.9 -1.25546 0.952678 0
M  V30 27352 C 2504.81 -2.29682 0.47786 0
M  V30 27353 C 2505.83 -1.67977 -0.453829 0
M  V30 27354 O 2507 -1.98669 -0.330552 0
M  V30 27355 C 2504.07 -3.45878 -0.238594 0
M  V30 27356 C 2503.13 -4.23029 0.731068 0
M  V30 27357 C 2502.36 -5.33678 0.0487103 0
M  V30 27358 O 2502.59 -5.58355 -1.16602 0
M  V30 27359 O 2501.52 -5.97417 0.733257 0
M  V30 27360 H 2505.35 -2.72383 1.34317 0
M  V30 27361 H 2502.93 -1.30958 0.719049 0
M  V30 27362 H 2504.81 -4.16485 -0.6417 0
M  V30 27363 H 2503.49 -3.05183 -1.07911 0
M  V30 27364 H 2502.39 -3.54858 1.18434 0
M  V30 27365 H 2503.73 -4.67503 1.53954 0
M  V30 27366 N 2505.38 -0.721022 -1.40139 0
M  V30 27367 C 2506.61 -0.272692 -2.05095 0
M  V30 27368 C 2507.02 1.08747 -1.54336 0
M  V30 27369 O 2506.38 1.68448 -0.702241 0
M  V30 27370 C 2506.43 -0.249898 -3.60635 0
M  V30 27371 O 2506.15 -1.55636 -4.09523 0
M  V30 27372 C 2507.65 0.216318 -4.42772 0
M  V30 27373 H 2504.87 -0.12157 -0.659895 0
M  V30 27374 H 2507.42 -0.980754 -1.79448 0
M  V30 27375 H 2505.57 0.409169 -3.85233 0
M  V30 27376 H 2505.99 -1.46049 -5.03756 0
M  V30 27377 H 2507.46 0.181115 -5.51703 0
M  V30 27378 H 2507.94 1.25934 -4.20758 0
M  V30 27379 H 2508.54 -0.412671 -4.23293 0
M  V30 27380 N 2506.86 1.50503 -0.467606 0
M  V30 27381 C 2508.27 1.86696 -0.0116494 0
M  V30 27382 C 2508.62 1.38267 1.392 0
M  V30 27383 O 2507.74 0.746168 2.03129 0
M  V30 27384 C 2508.34 3.38797 -0.014364 0
M  V30 27385 C 2506.9 3.74414 0.386109 0
M  V30 27386 C 2506.05 2.7438 -0.401335 0
M  V30 27387 H 2509 1.43296 -0.682047 0
M  V30 27388 H 2509.02 3.72239 0.788576 0
M  V30 27389 H 2508.53 3.74015 -1.03608 0
M  V30 27390 H 2506.63 3.44796 1.41231 0
M  V30 27391 H 2506.74 4.79016 0.0898754 0
M  V30 27392 H 2505.11 2.5429 0.144491 0
M  V30 27393 H 2505.89 3.12442 -1.4225 0
M  V30 27394 N 2508.34 0.200077 1.56325 0
M  V30 27395 C 2509.3 -0.705094 2.18085 0
M  V30 27396 C 2510.3 -1.13738 1.13668 0
M  V30 27397 O 2511.49 -1.04966 1.39025 0
M  V30 27398 C 2508.62 -1.96324 2.78693 0
M  V30 27399 H 2509.81 -0.16697 2.99435 0
M  V30 27400 H 2507.37 -0.049545 1.56221 0
M  V30 27401 H 2508.1 -2.54376 2.01155 0
M  V30 27402 H 2507.89 -1.66196 3.55136 0
M  V30 27403 H 2509.38 -2.60861 3.261 0
M  V30 27404 N 2509.81 -1.57429 -0.0734901 0
M  V30 27405 C 2511.04 -1.91391 -0.785936 0
M  V30 27406 C 2511.46 -0.795877 -1.71205 0
M  V30 27407 O 2510.81 0.230883 -1.81034 0
M  V30 27408 C 2510.86 -3.25094 -1.58101 0
M  V30 27409 O 2510.59 -4.32598 -0.692124 0
M  V30 27410 C 2512.09 -3.7306 -2.39461 0
M  V30 27411 H 2509.31 -0.632667 -0.223547 0
M  V30 27412 H 2511.85 -2.04452 -0.044266 0
M  V30 27413 H 2510.01 -3.13566 -2.27498 0
M  V30 27414 H 2510.42 -5.09511 -1.24496 0
M  V30 27415 H 2511.89 -4.69247 -2.90707 0
M  V30 27416 H 2512.37 -3.01984 -3.18908 0
M  V30 27417 H 2512.98 -3.87527 -1.75224 0
M  V30 27418 N 2511.29 0.344839 -1.53781 0
M  V30 27419 C 2512.71 0.687863 -1.44016 0
M  V30 27420 C 2512.91 1.92488 -0.595868 0
M  V30 27421 O 2511.96 2.52352 -0.0863508 0
M  V30 27422 C 2513.28 0.881707 -2.87483 0
M  V30 27423 C 2514.82 0.980407 -2.97249 0
M  V30 27424 C 2515.3 1.20658 -4.41821 0
M  V30 27425 N 2516.79 1.27381 -4.45341 0
M  V30 27426 C 2517.53 1.46629 -5.54335 0
M  V30 27427 N 2517.02 1.63059 -6.73338 0
M  V30 27428 N 2518.81 1.49166 -5.41946 0
M  V30 27429 H 2510.97 -0.468511 -2.07168 0
M  V30 27430 H 2513.23 -0.147672 -0.936428 0
M  V30 27431 H 2512.93 0.0442826 -3.51672 0
M  V30 27432 H 2512.81 1.78382 -3.32355 0
M  V30 27433 H 2515.2 1.80835 -2.33201 0
M  V30 27434 H 2515.28 0.0552264 -2.5574 0
M  V30 27435 H 2514.92 0.383563 -5.0645 0
M  V30 27436 H 2514.85 2.1453 -4.8092 0
M  V30 27437 H 2517.34 1.16214 -3.59587 0
M  V30 27438 H 2517.65 1.77378 -7.52168 0
M  V30 27439 H 2516 1.60197 -6.76285 0
M  V30 27440 H 2519.19 1.35912 -4.47935 0
M  V30 27441 H 2519.36 1.63826 -6.26949 0
M  V30 27442 N 2512.77 1.45492 0.605781 0
M  V30 27443 C 2514.02 1.49308 1.36204 0
M  V30 27444 C 2514.34 0.136897 1.94519 0
M  V30 27445 O 2513.61 -0.833952 1.77263 0
M  V30 27446 H 2512.19 0.549852 0.50564 0
M  V30 27447 H 2514.85 1.8146 0.711208 0
M  V30 27448 H 2513.95 2.2329 2.18055 0
M  V30 27449 N 2514.25 -0.848441 1.32813 0
M  V30 27450 C 2515.66 -1.13762 1.11939 0
M  V30 27451 C 2515.86 -2.01271 -0.0960435 0
M  V30 27452 O 2514.92 -2.40179 -0.779123 0
M  V30 27453 C 2516.23 -1.80895 2.40203 0
M  V30 27454 C 2517.78 -1.93504 2.46019 0
M  V30 27455 C 2518.26 -2.64052 3.7422 0
M  V30 27456 N 2519.75 -2.71572 3.75237 0
M  V30 27457 C 2520.48 -3.26825 4.7114 0
M  V30 27458 N 2519.98 -3.8284 5.77413 0
M  V30 27459 N 2521.77 -3.24987 4.58628 0
M  V30 27460 H 2513.92 -0.265818 2.1073 0
M  V30 27461 H 2516.19 -0.180415 0.930674 0
M  V30 27462 H 2515.89 -1.24052 3.29096 0
M  V30 27463 H 2515.77 -2.81 2.51632 0
M  V30 27464 H 2518.15 -2.49504 1.57582 0
M  V30 27465 H 2518.23 -0.923769 2.38538 0
M  V30 27466 H 2517.88 -2.08714 4.63035 0
M  V30 27467 H 2517.81 -3.6563 3.78975 0
M  V30 27468 H 2520.3 -2.3184 2.98427 0
M  V30 27469 H 2520.61 -4.23176 6.46639 0
M  V30 27470 H 2518.96 -3.81155 5.81159 0
M  V30 27471 H 2522.15 -2.80477 3.74767 0
M  V30 27472 H 2522.32 -3.67747 5.33541 0
M  V30 27473 N 2515.73 -1.16125 -1.06549 0
M  V30 27474 C 2516.69 -0.867944 -2.12131 0
M  V30 27475 C 2517.69 0.135916 -1.60225 0
M  V30 27476 O 2518.88 -0.0946728 -1.73943 0
M  V30 27477 C 2516.01 -0.297479 -3.396 0
M  V30 27478 H 2517.2 -1.80389 -2.39583 0
M  V30 27479 H 2514.76 -0.969834 -1.22572 0
M  V30 27480 H 2515.49 0.646274 -3.17795 0
M  V30 27481 H 2515.28 -1.02079 -3.78579 0
M  V30 27482 H 2516.77 -0.110125 -4.17455 0
M  V30 27483 N 2517.2 1.25039 -0.959323 0
M  V30 27484 C 2518.13 2.28053 -0.501429 0
M  V30 27485 C 2519.12 1.63912 0.454644 0
M  V30 27486 O 2520.3 1.90972 0.352584 0
M  V30 27487 C 2517.43 3.4662 0.217163 0
M  V30 27488 C 2516.38 4.22972 -0.654108 0
M  V30 27489 C 2515.71 5.34343 0.195495 0
M  V30 27490 C 2517.01 4.85152 -1.93455 0
M  V30 27491 H 2518.7 2.66605 -1.36242 0
M  V30 27492 H 2516.25 1.28161 -0.656556 0
M  V30 27493 H 2518.2 4.17813 0.548659 0
M  V30 27494 H 2516.93 3.0707 1.11244 0
M  V30 27495 H 2515.59 3.53569 -0.968755 0
M  V30 27496 H 2515.23 4.91033 1.09067 0
M  V30 27497 H 2514.93 5.86343 -0.384194 0
M  V30 27498 H 2516.46 6.08366 0.521851 0
M  V30 27499 H 2517.87 5.48463 -1.66917 0
M  V30 27500 H 2516.27 5.47348 -2.46028 0
M  V30 27501 H 2517.34 4.07075 -2.63474 0
M  V30 27502 N 2518.68 0.728444 1.39755 0
M  V30 27503 C 2519.93 0.272982 2.00248 0
M  V30 27504 C 2520.25 -1.14175 1.58079 0
M  V30 27505 O 2519.52 -1.77632 0.826046 0
M  V30 27506 H 2518.1 0.0979377 0.740552 0
M  V30 27507 H 2520.76 0.936942 1.70902 0
M  V30 27508 H 2519.86 0.316196 3.10494 0
M  V30 27509 N 2520.16 -1.50253 0.475581 0
M  V30 27510 C 2521.09 -2.26471 -0.35261 0
M  V30 27511 C 2522.11 -1.31981 -0.953142 0
M  V30 27512 O 2523.29 -1.57458 -0.840787 0
M  V30 27513 C 2520.39 -3.03453 -1.50896 0
M  V30 27514 C 2519.57 -4.25331 -1.0204 0
M  V30 27515 C 2518.63 -4.84569 -2.05133 0
M  V30 27516 O 2517.65 -5.45358 -1.63013 0
M  V30 27517 N 2518.85 -4.71964 -3.37979 0
M  V30 27518 H 2521.62 -2.98186 0.30082 0
M  V30 27519 H 2519.18 -1.5897 0.306626 0
M  V30 27520 H 2521.17 -3.3996 -2.19566 0
M  V30 27521 H 2519.74 -2.34507 -2.067 0
M  V30 27522 H 2518.96 -3.93877 -0.159438 0
M  V30 27523 H 2520.25 -5.04343 -0.671972 0
M  V30 27524 H 2519.65 -4.2363 -3.74906 0
M  V30 27525 H 2518.21 -5.12728 -4.02434 0
M  V30 27526 N 2521.64 -0.208365 -1.56217 0
M  V30 27527 C 2523.05 0.301871 -1.84243 0
M  V30 27528 C 2523.4 1.60432 -1.12942 0
M  V30 27529 O 2522.53 2.12771 -0.394647 0
M  V30 27530 C 2523.12 0.554484 -3.34232 0
M  V30 27531 C 2521.68 1.00906 -3.62622 0
M  V30 27532 C 2520.83 0.0648843 -2.77224 0
M  V30 27533 H 2523.78 -0.43186 -1.52711 0
M  V30 27534 H 2523.8 1.40216 -3.53723 0
M  V30 27535 H 2523.31 -0.393629 -3.86099 0
M  V30 27536 H 2521.41 1.97099 -3.16201 0
M  V30 27537 H 2521.52 0.892591 -4.70712 0
M  V30 27538 H 2519.89 0.569247 -2.48257 0
M  V30 27539 H 2520.67 -0.87791 -3.31885 0
M  V30 27540 N 2523.12 1.57465 0.0651402 0
M  V30 27541 C 2524.36 1.89411 0.768295 0
M  V30 27542 C 2524.72 0.802925 1.74405 0
M  V30 27543 O 2525.92 1.00565 2.49279 0
M  V30 27544 C 2524.19 3.26579 1.45193 0
M  V30 27545 S 2525.75 3.80287 2.18923 0
M  V30 27546 H 2522.57 0.663565 0.255347 0
M  V30 27547 H 2525.17 1.95485 0.0241327 0
M  V30 27548 H 2523.88 4.03891 0.728052 0
M  V30 27549 H 2523.41 3.23719 2.23539 0
M  V30 27550 H 2525.42 3.56108 3.45545 0
M  V30 27551 N 2524.59 -0.336679 1.53962 0
M  V30 27552 C 2526.01 -0.680215 1.44379 0
M  V30 27553 C 2526.21 -1.92169 0.606068 0
M  V30 27554 O 2525.27 -2.52303 0.0997324 0
M  V30 27555 C 2526.58 -0.866449 2.87946 0
M  V30 27556 C 2528.13 -0.964629 2.97765 0
M  V30 27557 C 2528.6 -1.18313 4.42455 0
M  V30 27558 N 2530.09 -1.25017 4.4601 0
M  V30 27559 C 2530.83 -1.43687 5.55105 0
M  V30 27560 N 2530.32 -1.59486 6.74193 0
M  V30 27561 N 2532.12 -1.4629 5.4273 0
M  V30 27562 H 2524.27 0.479491 2.06917 0
M  V30 27563 H 2526.53 0.152636 0.935632 0
M  V30 27564 H 2526.24 -0.0256319 3.51691 0
M  V30 27565 H 2526.11 -1.76617 3.33296 0
M  V30 27566 H 2528.5 -1.79596 2.34156 0
M  V30 27567 H 2528.58 -0.041663 2.55766 0
M  V30 27568 H 2528.22 -0.356699 5.06646 0
M  V30 27569 H 2528.15 -2.11977 4.82051 0
M  V30 27570 H 2530.64 -1.14305 3.60198 0
M  V30 27571 H 2530.96 -1.73387 7.53098 0
M  V30 27572 H 2529.3 -1.56609 6.77125 0
M  V30 27573 H 2532.49 -1.33535 4.48649 0
M  V30 27574 H 2532.67 -1.60499 6.27809 0
M  V30 27575 N 2526.07 -1.45812 -0.598057 0
M  V30 27576 C 2527.32 -1.50548 -1.35879 0
M  V30 27577 C 2527.65 -0.150479 -1.93616 0
M  V30 27578 O 2526.93 0.836249 -1.75605 0
M  V30 27579 C 2527.21 -2.59213 -2.49962 0
M  V30 27580 C 2527.06 -4.0419 -1.9736 0
M  V30 27581 C 2528.38 -2.64082 -3.52063 0
M  V30 27582 H 2525.5 -0.548095 -0.492707 0
M  V30 27583 H 2528.14 -1.77671 -0.673288 0
M  V30 27584 H 2526.29 -2.36216 -3.08439 0
M  V30 27585 H 2527.96 -4.38426 -1.43458 0
M  V30 27586 H 2526.21 -4.14395 -1.28293 0
M  V30 27587 H 2526.88 -4.75925 -2.79641 0
M  V30 27588 H 2529.35 -2.84713 -3.03443 0
M  V30 27589 H 2528.23 -3.41961 -4.29364 0
M  V30 27590 H 2528.49 -1.69538 -4.08301 0
M  V30 27591 N 2527.55 0.841385 -1.33261 0
M  V30 27592 C 2528.48 1.96632 -1.2593 0
M  V30 27593 C 2529.46 1.6952 -0.140378 0
M  V30 27594 O 2530.65 1.9138 -0.32974 0
M  V30 27595 C 2527.78 3.32736 -0.995178 0
M  V30 27596 C 2526.73 3.74239 -2.07676 0
M  V30 27597 C 2526.06 5.08122 -1.66483 0
M  V30 27598 C 2527.36 3.8829 -3.49325 0
M  V30 27599 H 2529.05 2.03023 -2.2005 0
M  V30 27600 H 2526.6 0.975406 -1.05933 0
M  V30 27601 H 2528.55 4.11001 -0.930395 0
M  V30 27602 H 2527.27 3.26595 -0.0183578 0
M  V30 27603 H 2525.93 2.98236 -2.13193 0
M  V30 27604 H 2525.58 4.98449 -0.6751 0
M  V30 27605 H 2525.28 5.36861 -2.3886 0
M  V30 27606 H 2526.8 5.88864 -1.61466 0
M  V30 27607 H 2528.22 4.56873 -3.46324 0
M  V30 27608 H 2526.62 4.28463 -4.20166 0
M  V30 27609 H 2527.69 2.90814 -3.88015 0
M  V30 27610 N 2529.03 1.16688 1.05932 0
M  V30 27611 C 2530.28 0.948775 1.78445 0
M  V30 27612 C 2530.6 -0.52449 1.87814 0
M  V30 27613 O 2529.87 -1.38096 1.38948 0
M  V30 27614 H 2528.45 0.348044 0.660965 0
M  V30 27615 H 2531.11 1.47025 1.27944 0
M  V30 27616 H 2530.21 1.37066 2.80392 0
M  V30 27617 N 2530.51 -1.24529 0.96594 0
M  V30 27618 C 2531.92 -1.74419 0.66596 0
M  V30 27619 C 2532.27 -1.78317 -0.818376 0
M  V30 27620 O 2531.39 -1.41144 -1.64035 0
M  V30 27621 C 2531.99 -3.16754 1.20217 0
M  V30 27622 C 2530.55 -3.64159 0.952123 0
M  V30 27623 C 2529.7 -2.42856 1.33852 0
M  V30 27624 H 2532.65 -1.10256 1.14146 0
M  V30 27625 H 2532.67 -3.76243 0.56761 0
M  V30 27626 H 2532.18 -3.13885 2.2825 0
M  V30 27627 H 2530.28 -3.72429 -0.112756 0
M  V30 27628 H 2530.39 -4.51716 1.59653 0
M  V30 27629 H 2528.76 -2.43193 0.756907 0
M  V30 27630 H 2529.54 -2.42668 2.42831 0
M  V30 27631 N 2531.99 -0.735845 -1.39367 0
M  V30 27632 C 2532.94 -0.0724687 -2.27885 0
M  V30 27633 C 2533.92 0.711731 -1.44302 0
M  V30 27634 O 2535.11 0.580601 -1.67207 0
M  V30 27635 C 2532.24 0.833396 -3.33031 0
M  V30 27636 C 2531.33 0.0433003 -4.24078 0
M  V30 27637 N 2531.72 -0.98399 -4.96136 0
M  V30 27638 C 2530.02 0.272827 -4.45165 0
M  V30 27639 C 2530.72 -1.4605 -5.63067 0
M  V30 27640 N 2529.69 -0.778951 -5.3799 0
M  V30 27641 H 2533.49 -0.859516 -2.81051 0
M  V30 27642 H 2531.01 -0.570254 -1.52059 0
M  V30 27643 H 2533.01 1.32412 -3.95313 0
M  V30 27644 H 2531.67 1.61959 -2.81424 0
M  V30 27645 H 2532.68 -1.36537 -4.99578 0
M  V30 27646 H 2529.35 1.03376 -4.04499 0
M  V30 27647 H 2530.74 -2.31522 -6.30751 0
M  V30 27648 N 2533.46 1.49999 -0.483543 0
M  V30 27649 C 2534.69 2.07293 0.0666755 0
M  V30 27650 C 2535.11 1.34362 1.31637 0
M  V30 27651 O 2534.47 0.395018 1.76944 0
M  V30 27652 C 2534.52 3.59168 0.321063 0
M  V30 27653 O 2533.62 3.87938 1.3992 0
M  V30 27654 H 2532.96 0.663743 -0.0184875 0
M  V30 27655 H 2535.49 1.93034 -0.678159 0
M  V30 27656 H 2535.5 4.04169 0.557835 0
M  V30 27657 H 2534.18 4.11664 -0.592079 0
M  V30 27658 H 2532.76 3.54765 1.14876 0
M  V30 27659 N 2534.94 0.216646 1.56104 0
M  V30 27660 C 2535.89 -0.695492 2.20072 0
M  V30 27661 C 2536.86 -1.19395 1.15473 0
M  V30 27662 O 2538.04 -1.25394 1.43809 0
M  V30 27663 C 2535.18 -1.90016 2.88076 0
M  V30 27664 C 2534.3 -1.44106 4.07256 0
M  V30 27665 C 2533.43 -2.60292 4.63057 0
M  V30 27666 C 2532.47 -2.11093 5.74549 0
M  V30 27667 N 2531.61 -3.20534 6.24662 0
M  V30 27668 H 2536.45 -0.143275 2.97655 0
M  V30 27669 H 2533.98 -0.0589676 1.46982 0
M  V30 27670 H 2535.94 -2.60739 3.25686 0
M  V30 27671 H 2534.57 -2.42534 2.13019 0
M  V30 27672 H 2533.62 -0.628934 3.75165 0
M  V30 27673 H 2534.94 -1.04027 4.87832 0
M  V30 27674 H 2534.09 -3.39104 5.03084 0
M  V30 27675 H 2532.83 -3.03656 3.81634 0
M  V30 27676 H 2531.83 -1.30741 5.34029 0
M  V30 27677 H 2533.06 -1.68734 6.57804 0
M  V30 27678 H 2531.01 -3.63389 5.46154 0
M  V30 27679 H 2530.92 -2.84691 7.00348 0
M  V30 27680 H 2532.19 -3.99496 6.69345 0
M  V30 27681 N 2536.42 -1.57498 -0.0567885 0
M  V30 27682 C 2537.83 -1.76563 -0.606827 0
M  V30 27683 C 2538.18 -0.844125 -1.77113 0
M  V30 27684 O 2537.31 -0.0319291 -2.16376 0
M  V30 27685 C 2537.9 -3.20184 -1.1076 0
M  V30 27686 C 2536.46 -3.40542 -1.60338 0
M  V30 27687 C 2535.61 -2.72202 -0.529263 0
M  V30 27688 H 2538.56 -1.57793 0.16942 0
M  V30 27689 H 2538.58 -3.2517 -1.97597 0
M  V30 27690 H 2538.09 -3.87228 -0.259992 0
M  V30 27691 H 2536.19 -2.78633 -2.47374 0
M  V30 27692 H 2536.31 -4.49053 -1.66998 0
M  V30 27693 H 2534.67 -2.35181 -0.977852 0
M  V30 27694 H 2535.45 -3.41912 0.308412 0
M  V30 27695 N 2537.9 0.328509 -1.54138 0
M  V30 27696 C 2539.14 1.07531 -1.73829 0
M  V30 27697 C 2539.5 1.85407 -0.498809 0
M  V30 27698 O 2540.7 2.62622 -0.572983 0
M  V30 27699 C 2538.97 1.97947 -2.97576 0
M  V30 27700 S 2540.53 2.79646 -3.38148 0
M  V30 27701 H 2537.35 0.363099 -0.611294 0
M  V30 27702 H 2539.95 0.351897 -1.92307 0
M  V30 27703 H 2538.66 1.39562 -3.85941 0
M  V30 27704 H 2538.19 2.74701 -2.81607 0
M  V30 27705 H 2540.2 4.00413 -2.93059 0
M  V30 27706 N 2539.38 1.46127 0.590316 0
M  V30 27707 C 2540.62 1.51266 1.35079 0
M  V30 27708 C 2540.95 0.160745 1.93534 0
M  V30 27709 O 2540.23 -0.826925 1.76046 0
M  V30 27710 C 2540.51 2.60535 2.48584 0
M  V30 27711 C 2540.37 4.05231 1.95213 0
M  V30 27712 C 2541.68 2.65946 3.50658 0
M  V30 27713 H 2538.8 0.550701 0.489794 0
M  V30 27714 H 2541.45 1.78025 0.663856 0
M  V30 27715 H 2539.6 2.37848 3.07181 0
M  V30 27716 H 2541.27 4.39181 1.41131 0
M  V30 27717 H 2539.51 4.1507 1.26093 0
M  V30 27718 H 2540.18 4.77402 2.77113 0
M  V30 27719 H 2542.66 2.86319 3.01929 0
M  V30 27720 H 2541.53 3.44234 4.27545 0
M  V30 27721 H 2541.79 1.71701 4.07396 0
M  V30 27722 N 2540.85 -0.834306 1.33705 0
M  V30 27723 C 2541.76 -1.97646 1.26385 0
M  V30 27724 C 2542.78 -1.73132 0.173579 0
M  V30 27725 O 2543.96 -1.97428 0.397996 0
M  V30 27726 C 2541.02 -3.31731 1.00774 0
M  V30 27727 C 2540.08 -3.6933 2.18847 0
M  V30 27728 C 2539.31 -4.97017 1.94448 0
M  V30 27729 O 2539.54 -5.63302 0.89706 0
M  V30 27730 O 2538.47 -5.32226 2.81103 0
M  V30 27731 H 2542.3 -2.06763 2.22447 0
M  V30 27732 H 2539.88 -0.968017 1.13797 0
M  V30 27733 H 2541.76 -4.12061 0.882259 0
M  V30 27734 H 2540.44 -3.23607 0.0774352 0
M  V30 27735 H 2539.35 -2.89491 2.36951 0
M  V30 27736 H 2540.68 -3.82125 3.10228 0
M  V30 27737 N 2542.33 -1.17248 -1.05312 0
M  V30 27738 C 2543.26 -0.831544 -2.1251 0
M  V30 27739 C 2544.24 0.201139 -1.61351 0
M  V30 27740 O 2545.43 0.08295 -1.88317 0
M  V30 27741 C 2542.55 -0.240209 -3.37847 0
M  V30 27742 C 2541.6 -1.24808 -4.0783 0
M  V30 27743 S 2542.43 -2.7989 -4.56532 0
M  V30 27744 C 2543.59 -2.22233 -5.85118 0
M  V30 27745 H 2543.82 -1.73945 -2.41103 0
M  V30 27746 H 2541.35 -0.997009 -1.17894 0
M  V30 27747 H 2543.31 0.0944867 -4.10391 0
M  V30 27748 H 2541.97 0.645614 -3.07393 0
M  V30 27749 H 2541.17 -0.782958 -4.97881 0
M  V30 27750 H 2540.77 -1.52837 -3.41346 0
M  V30 27751 H 2543.06 -1.59714 -6.58405 0
M  V30 27752 H 2544 -3.10535 -6.36376 0
M  V30 27753 H 2544.41 -1.65732 -5.39623 0
M  V30 27754 N 2543.81 1.24015 -0.972531 0
M  V30 27755 C 2544.74 2.27508 -0.525588 0
M  V30 27756 C 2545.72 1.64385 0.437233 0
M  V30 27757 O 2546.91 1.91336 0.332309 0
M  V30 27758 C 2544.04 3.46831 0.180387 0
M  V30 27759 C 2542.99 4.22255 -0.698933 0
M  V30 27760 C 2542.32 5.3452 0.138809 0
M  V30 27761 C 2543.62 4.83073 -1.9859 0
M  V30 27762 H 2545.31 2.65145 -1.39063 0
M  V30 27763 H 2542.86 1.27458 -0.670113 0
M  V30 27764 H 2544.81 4.18371 0.504313 0
M  V30 27765 H 2543.53 3.08233 1.07981 0
M  V30 27766 H 2542.19 3.52521 -1.0062 0
M  V30 27767 H 2541.84 4.92162 1.03853 0
M  V30 27768 H 2541.54 5.85902 -0.446362 0
M  V30 27769 H 2543.06 6.08885 0.457297 0
M  V30 27770 H 2544.48 5.46662 -1.72725 0
M  V30 27771 H 2542.88 5.44708 -2.5182 0
M  V30 27772 H 2543.95 4.04257 -2.67776 0
M  V30 27773 N 2545.29 0.743226 1.38974 0
M  V30 27774 C 2546.24 0.108651 2.30544 0
M  V30 27775 C 2547.21 -0.720842 1.49643 0
M  V30 27776 O 2548.39 -0.679111 1.78305 0
M  V30 27777 C 2545.53 -0.786437 3.3602 0
M  V30 27778 C 2544.64 0.0565608 4.31963 0
M  V30 27779 C 2543.78 -0.840565 5.24507 0
M  V30 27780 C 2542.82 0.00669122 6.121 0
M  V30 27781 N 2541.95 -0.84682 6.96974 0
M  V30 27782 H 2546.79 0.895138 2.84238 0
M  V30 27783 H 2544.33 0.453072 1.39949 0
M  V30 27784 H 2546.29 -1.31992 3.9577 0
M  V30 27785 H 2544.92 -1.53882 2.83761 0
M  V30 27786 H 2543.97 0.707558 3.73762 0
M  V30 27787 H 2545.28 0.711315 4.93702 0
M  V30 27788 H 2544.44 -1.44159 5.89324 0
M  V30 27789 H 2543.18 -1.52908 4.6311 0
M  V30 27790 H 2542.18 0.620462 5.46288 0
M  V30 27791 H 2543.41 0.692111 6.75564 0
M  V30 27792 H 2541.35 -1.52048 6.38136 0
M  V30 27793 H 2541.27 -0.248731 7.55591 0
M  V30 27794 H 2542.54 -1.43315 7.66212 0
M  V30 27795 N 2546.77 -1.4974 0.491491 0
M  V30 27796 C 2548.01 -2.02022 -0.0562786 0
M  V30 27797 C 2548.34 -1.37409 -1.38361 0
M  V30 27798 O 2547.61 -0.5262 -1.88701 0
M  V30 27799 H 2546.19 -0.746621 -0.0237883 0
M  V30 27800 H 2548.85 -1.83863 0.646565 0
M  V30 27801 H 2547.94 -3.11503 -0.192912 0
M  V30 27802 N 2548.24 -0.224922 -1.55987 0
M  V30 27803 C 2549.17 0.678418 -2.23427 0
M  V30 27804 C 2550.16 1.19845 -1.20712 0
M  V30 27805 O 2551.34 1.24183 -1.49306 0
M  V30 27806 C 2548.47 1.88522 -2.91679 0
M  V30 27807 C 2547.42 1.49889 -4.00895 0
M  V30 27808 C 2546.75 2.78475 -4.5646 0
M  V30 27809 C 2548.05 0.68637 -5.1777 0
M  V30 27810 H 2549.74 0.116121 -2.99175 0
M  V30 27811 H 2547.29 0.0544107 -1.43897 0
M  V30 27812 H 2549.24 2.52264 -3.37551 0
M  V30 27813 H 2547.97 2.47254 -2.13384 0
M  V30 27814 H 2546.63 0.884922 -3.55759 0
M  V30 27815 H 2546.27 3.35358 -3.74892 0
M  V30 27816 H 2545.97 2.53358 -5.30173 0
M  V30 27817 H 2547.5 3.43153 -5.05053 0
M  V30 27818 H 2548.91 1.22757 -5.60003 0
M  V30 27819 H 2547.31 0.532154 -5.97736 0
M  V30 27820 H 2548.38 -0.306281 -4.83932 0
M  V30 27821 N 2549.72 1.57526 0.0484352 0
M  V30 27822 C 2550.65 2.08314 1.05486 0
M  V30 27823 C 2551.63 0.981488 1.38927 0
M  V30 27824 O 2552.82 1.25561 1.48149 0
M  V30 27825 C 2549.95 2.5465 2.36158 0
M  V30 27826 C 2548.9 3.68905 2.1701 0
M  V30 27827 C 2548.23 4.01377 3.53271 0
M  V30 27828 C 2549.53 4.98078 1.57211 0
M  V30 27829 H 2551.22 2.9265 0.632144 0
M  V30 27830 H 2548.77 1.40784 0.302629 0
M  V30 27831 H 2550.72 2.88799 3.06877 0
M  V30 27832 H 2549.45 1.67373 2.80453 0
M  V30 27833 H 2548.1 3.35076 1.48727 0
M  V30 27834 H 2547.75 3.11195 3.95179 0
M  V30 27835 H 2547.45 4.78324 3.41291 0
M  V30 27836 H 2548.98 4.38043 4.25384 0
M  V30 27837 H 2550.39 5.30307 2.17823 0
M  V30 27838 H 2548.79 5.79506 1.55861 0
M  V30 27839 H 2549.86 4.8193 0.535871 0
M  V30 27840 N 2551.2 -0.32033 1.5431 0
M  V30 27841 C 2552.43 -1.07735 1.76638 0
M  V30 27842 C 2552.84 -1.81597 0.516522 0
M  V30 27843 O 2552.2 -1.75144 -0.512911 0
M  V30 27844 C 2552.25 -2.07293 2.96162 0
M  V30 27845 O 2551.97 -1.36431 4.16315 0
M  V30 27846 C 2553.47 -2.95188 3.30725 0
M  V30 27847 H 2550.69 -0.320328 0.589602 0
M  V30 27848 H 2553.24 -0.365475 2.01208 0
M  V30 27849 H 2551.39 -2.74011 2.73856 0
M  V30 27850 H 2551.81 -2.03129 4.83569 0
M  V30 27851 H 2553.28 -3.60933 4.17649 0
M  V30 27852 H 2553.76 -3.62459 2.48033 0
M  V30 27853 H 2554.36 -2.34028 3.55121 0
M  V30 27854 N 2552.68 -1.46438 -0.582558 0
M  V30 27855 C 2553.61 -1.53046 -1.70615 0
M  V30 27856 C 2554.62 -0.418796 -1.57321 0
M  V30 27857 O 2555.81 -0.687165 -1.64743 0
M  V30 27858 C 2552.91 -1.3948 -3.08867 0
M  V30 27859 C 2552.09 -2.64768 -3.48162 0
M  V30 27860 C 2551.14 -2.45398 -4.65474 0
M  V30 27861 O 2550.17 -3.19122 -4.71328 0
M  V30 27862 N 2551.37 -1.51574 -5.60362 0
M  V30 27863 H 2554.14 -2.49926 -1.654 0
M  V30 27864 H 2551.7 -1.42496 -0.768542 0
M  V30 27865 H 2553.69 -1.24294 -3.8514 0
M  V30 27866 H 2552.26 -0.507812 -3.08448 0
M  V30 27867 H 2551.48 -2.94895 -2.61592 0
M  V30 27868 H 2552.77 -3.47997 -3.71182 0
M  V30 27869 H 2552.17 -0.907803 -5.58369 0
M  V30 27870 H 2550.72 -1.42351 -6.36066 0
M  V30 27871 N 2554.16 0.827204 -1.34146 0
M  V30 27872 C 2555.57 1.11967 -1.13734 0
M  V30 27873 C 2555.77 2.01398 0.0640109 0
M  V30 27874 O 2554.83 2.41388 0.740814 0
M  V30 27875 C 2556.14 1.77051 -2.4305 0
M  V30 27876 C 2557.69 1.89565 -2.49066 0
M  V30 27877 C 2558.16 2.58065 -3.78373 0
M  V30 27878 N 2559.66 2.65568 -3.7951 0
M  V30 27879 C 2560.39 3.19288 -4.7628 0
M  V30 27880 N 2559.89 3.73606 -5.8343 0
M  V30 27881 N 2561.68 3.17649 -4.63741 0
M  V30 27882 H 2553.83 0.232259 -2.11126 0
M  V30 27883 H 2556.09 0.165586 -0.933427 0
M  V30 27884 H 2555.8 1.18801 -3.31027 0
M  V30 27885 H 2555.67 2.76961 -2.56071 0
M  V30 27886 H 2558.06 2.46965 -1.61531 0
M  V30 27887 H 2558.14 0.885703 -2.39977 0
M  V30 27888 H 2557.79 2.01321 -4.66296 0
M  V30 27889 H 2557.72 3.59555 -3.84744 0
M  V30 27890 H 2560.21 2.27063 -3.02078 0
M  V30 27891 H 2560.52 4.12835 -6.5329 0
M  V30 27892 H 2558.86 3.71861 -5.87149 0
M  V30 27893 H 2562.06 2.74479 -3.79182 0
M  V30 27894 H 2562.23 3.59212 -5.39324 0
M  V30 27895 N 2555.63 1.17805 1.04688 0
M  V30 27896 C 2556.6 0.901582 2.10723 0
M  V30 27897 C 2557.6 -0.110409 1.60421 0
M  V30 27898 O 2558.79 0.122334 1.7377 0
M  V30 27899 C 2555.92 0.351469 3.39083 0
M  V30 27900 H 2557.11 1.84178 2.36682 0
M  V30 27901 H 2554.67 0.989211 1.21014 0
M  V30 27902 H 2555.4 -0.595634 3.18783 0
M  V30 27903 H 2555.19 1.08089 3.76907 0
M  V30 27904 H 2556.68 0.176524 4.17227 0
M  V30 27905 N 2557.11 -1.23497 0.979094 0
M  V30 27906 C 2558.05 -2.23452 0.463066 0
M  V30 27907 C 2559.02 -1.55686 -0.469101 0
M  V30 27908 O 2560.21 -1.84254 -0.397849 0
M  V30 27909 C 2557.33 -3.37086 -0.330249 0
M  V30 27910 C 2556.38 -4.22992 0.545869 0
M  V30 27911 S 2557.21 -4.97033 1.99294 0
M  V30 27912 C 2558.37 -6.14118 1.20873 0
M  V30 27913 H 2558.6 -2.66878 1.3101 0
M  V30 27914 H 2556.14 -1.32956 0.784989 0
M  V30 27915 H 2558.09 -4.02983 -0.781956 0
M  V30 27916 H 2556.75 -2.92196 -1.15239 0
M  V30 27917 H 2555.95 -5.0396 -0.0638042 0
M  V30 27918 H 2555.55 -3.62156 0.933768 0
M  V30 27919 H 2557.84 -6.75872 0.469403 0
M  V30 27920 H 2558.78 -6.79469 1.99319 0
M  V30 27921 H 2559.19 -5.59785 0.728091 0
M  V30 27922 N 2558.59 -0.750586 -1.38578 0
M  V30 27923 C 2560 -0.37347 -1.82926 0
M  V30 27924 C 2560.35 1.09745 -1.62636 0
M  V30 27925 O 2559.48 1.84803 -1.12591 0
M  V30 27926 C 2560.07 -0.671087 -3.32087 0
M  V30 27927 C 2558.63 -0.347286 -3.74794 0
M  V30 27928 C 2557.78 -0.925796 -2.61389 0
M  V30 27929 H 2560.73 -0.946981 -1.2735 0
M  V30 27930 H 2560.75 0.05176 -3.80465 0
M  V30 27931 H 2560.26 -1.7417 -3.46823 0
M  V30 27932 H 2558.36 0.716869 -3.65639 0
M  V30 27933 H 2558.48 -0.840739 -4.71666 0
M  V30 27934 H 2556.84 -0.351372 -2.52265 0
M  V30 27935 H 2557.62 -2.00138 -2.78926 0
M  V30 27936 N 2560.07 1.49477 -0.499425 0
M  V30 27937 C 2561.49 1.58843 -0.155289 0
M  V30 27938 C 2561.69 1.50482 1.34006 0
M  V30 27939 O 2560.74 1.37795 2.11587 0
M  V30 27940 C 2562.05 2.91687 -0.730688 0
M  V30 27941 C 2563.6 3.05149 -0.696653 0
M  V30 27942 C 2564.08 4.4061 -1.25009 0
M  V30 27943 N 2565.57 4.47097 -1.21072 0
M  V30 27944 C 2566.3 5.50358 -1.60915 0
M  V30 27945 N 2565.8 6.60731 -2.08342 0
M  V30 27946 N 2567.59 5.41063 -1.5234 0
M  V30 27947 H 2559.74 1.53155 -1.47164 0
M  V30 27948 H 2562.01 0.725404 -0.610321 0
M  V30 27949 H 2561.71 3.03369 -1.77933 0
M  V30 27950 H 2561.59 3.7672 -0.190227 0
M  V30 27951 H 2563.97 2.93098 0.343153 0
M  V30 27952 H 2564.05 2.21803 -1.27424 0
M  V30 27953 H 2563.7 4.53412 -2.28867 0
M  V30 27954 H 2563.63 5.22592 -0.648452 0
M  V30 27955 H 2566.12 3.67909 -0.863193 0
M  V30 27956 H 2566.43 7.3562 -2.36818 0
M  V30 27957 H 2564.78 6.61776 -2.12315 0
M  V30 27958 H 2567.97 4.53727 -1.15108 0
M  V30 27959 H 2568.14 6.21412 -1.83715 0
M  V30 27960 N 2561.55 0.233191 1.55865 0
M  V30 27961 C 2562.8 -0.394558 1.98211 0
M  V30 27962 C 2563.12 -1.59461 1.12237 0
M  V30 27963 O 2562.39 -1.94856 0.202016 0
M  V30 27964 H 2560.97 -0.148765 0.732037 0
M  V30 27965 H 2563.63 0.328793 1.92107 0
M  V30 27966 H 2562.72 -0.71301 3.03846 0
M  V30 27967 N 2563.03 -1.57549 -0.0400806 0
M  V30 27968 C 2563.96 -2.02614 -1.07146 0
M  V30 27969 C 2564.97 -0.937109 -1.33124 0
M  V30 27970 O 2566.16 -1.21458 -1.30806 0
M  V30 27971 C 2563.26 -2.37705 -2.41557 0
M  V30 27972 C 2562.43 -3.68852 -2.3509 0
M  V30 27973 C 2561.49 -3.91255 -3.5186 0
M  V30 27974 O 2560.52 -4.62453 -3.31852 0
M  V30 27975 N 2561.72 -3.36043 -4.73345 0
M  V30 27976 H 2564.48 -2.91709 -0.687434 0
M  V30 27977 H 2562.05 -1.60283 -0.22822 0
M  V30 27978 H 2564.04 -2.49839 -3.18375 0
M  V30 27979 H 2562.61 -1.54337 -2.71844 0
M  V30 27980 H 2561.83 -3.67175 -1.43443 0
M  V30 27981 H 2563.12 -4.54905 -2.279 0
M  V30 27982 H 2562.51 -2.78313 -4.92502 0
M  V30 27983 H 2561.07 -3.53575 -5.47566 0
M  V30 27984 N 2564.5 0.312142 -1.54478 0
M  V30 27985 C 2565.47 1.36763 -1.83925 0
M  V30 27986 C 2566.47 1.44198 -0.711588 0
M  V30 27987 O 2567.66 1.44027 -0.979892 0
M  V30 27988 C 2564.79 2.75373 -2.00955 0
M  V30 27989 H 2565.98 1.11901 -2.78241 0
M  V30 27990 H 2563.53 0.548232 -1.4637 0
M  V30 27991 H 2564.27 3.05473 -1.08889 0
M  V30 27992 H 2564.05 2.71368 -2.83023 0
M  V30 27993 H 2565.54 3.51709 -2.25146 0
M  V30 27994 N 2565.98 1.46745 0.574784 0
M  V30 27995 C 2567.39 1.46534 1.15692 0
M  V30 27996 C 2567.74 0.210459 1.95068 0
M  V30 27997 O 2566.87 -0.685908 2.05242 0
M  V30 27998 C 2567.46 2.65491 2.10476 0
M  V30 27999 C 2566.02 2.68296 2.63997 0
M  V30 28000 C 2565.17 2.39351 1.40022 0
M  V30 28001 H 2568.12 1.54509 0.362298 0
M  V30 28002 H 2568.14 2.4146 2.9407 0
M  V30 28003 H 2567.65 3.56807 1.52677 0
M  V30 28004 H 2565.75 1.81073 3.25643 0
M  V30 28005 H 2565.87 3.68489 3.06191 0
M  V30 28006 H 2564.23 1.89571 1.70102 0
M  V30 28007 H 2565.01 3.32854 0.840427 0
M  V30 28008 N 2567.46 -0.820078 1.34583 0
M  V30 28009 C 2568.87 -1.39307 1.243 0
M  V30 28010 C 2569.22 -1.95767 -0.130317 0
M  V30 28011 O 2568.35 -1.90274 -1.03077 0
M  V30 28012 C 2568.94 -2.53247 2.25058 0
M  V30 28013 C 2567.5 -3.06446 2.18558 0
M  V30 28014 C 2566.65 -1.79333 2.11506 0
M  V30 28015 H 2569.6 -0.624236 1.45907 0
M  V30 28016 H 2569.62 -3.31421 1.86923 0
M  V30 28017 H 2569.13 -2.12125 3.25 0
M  V30 28018 H 2567.23 -3.52067 1.21982 0
M  V30 28019 H 2567.35 -3.65344 3.09937 0
M  V30 28020 H 2565.71 -2.00344 1.57271 0
M  V30 28021 H 2566.49 -1.40381 3.13286 0
M  V30 28022 N 2568.94 -1.18359 -1.04062 0
M  V30 28023 C 2569.9 -0.912744 -2.10242 0
M  V30 28024 C 2570.9 0.1019 -1.60477 0
M  V30 28025 O 2572.09 -0.131547 -1.73703 0
M  V30 28026 C 2569.22 -0.369446 -3.38892 0
M  V30 28027 H 2570.42 -1.8543 -2.35702 0
M  V30 28028 H 2567.97 -0.995615 -1.20487 0
M  V30 28029 H 2568.7 0.57872 -3.19095 0
M  V30 28030 H 2568.49 -1.10086 -3.76329 0
M  V30 28031 H 2569.98 -0.198648 -4.17127 0
M  V30 28032 N 2570.42 1.22976 -0.98563 0
M  V30 28033 C 2571.83 1.73337 -0.693624 0
M  V30 28034 C 2572.18 1.79597 0.789903 0
M  V30 28035 O 2571.3 1.43736 1.61769 0
M  V30 28036 C 2571.9 3.14802 -1.25241 0
M  V30 28037 C 2570.46 3.62598 -1.00994 0
M  V30 28038 C 2569.6 2.40695 -1.37699 0
M  V30 28039 H 2572.55 1.08426 -1.15886 0
M  V30 28040 H 2572.58 3.75292 -0.627395 0
M  V30 28041 H 2572.09 3.10214 -2.33214 0
M  V30 28042 H 2570.19 3.72562 0.053491 0
M  V30 28043 H 2570.3 4.49119 -1.6682 0
M  V30 28044 H 2568.67 2.41958 -0.795501 0
M  V30 28045 H 2569.45 2.38774 -2.46661 0
M  V30 28046 N 2571.89 0.757924 1.38178 0
M  V30 28047 C 2573.13 0.321004 2.01864 0
M  V30 28048 C 2573.5 -1.07824 1.58864 0
M  V30 28049 O 2574.7 -1.61452 2.14911 0
M  V30 28050 C 2572.97 0.444523 3.54625 0
M  V30 28051 S 2574.53 0.0908238 4.38706 0
M  V30 28052 H 2571.35 0.124281 0.700054 0
M  V30 28053 H 2573.95 0.989498 1.6861 0
M  V30 28054 H 2572.65 1.46377 3.83408 0
M  V30 28055 H 2572.18 -0.241004 3.92661 0
M  V30 28056 H 2574.2 -1.11818 4.83437 0
M  V30 28057 N 2573.37 -1.4921 0.507345 0
M  V30 28058 C 2574.3 -2.27168 -0.304492 0
M  V30 28059 C 2575.32 -1.33973 -0.924932 0
M  V30 28060 O 2576.51 -1.59206 -0.807199 0
M  V30 28061 C 2573.61 -3.06585 -1.44426 0
M  V30 28062 C 2572.78 -4.274 -0.929951 0
M  V30 28063 C 2571.84 -4.88811 -1.94809 0
M  V30 28064 O 2570.86 -5.48693 -1.51409 0
M  V30 28065 N 2572.07 -4.79027 -3.27892 0
M  V30 28066 H 2574.83 -2.97481 0.364002 0
M  V30 28067 H 2572.39 -1.58284 0.340277 0
M  V30 28068 H 2574.38 -3.44541 -2.12305 0
M  V30 28069 H 2572.95 -2.38839 -2.0168 0
M  V30 28070 H 2572.17 -3.94127 -0.0758551 0
M  V30 28071 H 2573.46 -5.05655 -0.564843 0
M  V30 28072 H 2572.86 -4.31487 -3.65836 0
M  V30 28073 H 2571.42 -5.21149 -3.91467 0
M  V30 28074 N 2574.85 -0.241454 -1.55739 0
M  V30 28075 C 2576.09 0.386404 -2.00714 0
M  V30 28076 C 2576.45 1.55524 -1.12589 0
M  V30 28077 O 2577.66 2.25046 -1.46996 0
M  V30 28078 C 2575.93 0.791067 -3.48535 0
M  V30 28079 S 2577.49 1.41022 -4.15522 0
M  V30 28080 H 2574.3 0.121821 -0.700486 0
M  V30 28081 H 2576.91 -0.355411 -1.92242 0
M  V30 28082 H 2575.61 -0.0689946 -4.10342 0
M  V30 28083 H 2575.14 1.5652 -3.60923 0
M  V30 28084 H 2577.16 2.69929 -4.16357 0
M  V30 28085 N 2576.33 1.57568 0.0317248 0
M  V30 28086 C 2577.74 1.77506 0.57866 0
M  V30 28087 C 2578.09 0.872195 1.75748 0
M  V30 28088 O 2577.22 0.0663487 2.16298 0
M  V30 28089 C 2577.81 3.21905 1.05652 0
M  V30 28090 C 2576.37 3.4305 1.549 0
M  V30 28091 C 2575.52 2.7301 0.485891 0
M  V30 28092 H 2578.47 1.57504 -0.194502 0
M  V30 28093 H 2578.49 3.28273 1.92399 0
M  V30 28094 H 2578 3.87593 0.198354 0
M  V30 28095 H 2576.1 2.82534 2.4291 0
M  V30 28096 H 2576.21 4.51653 1.59833 0
M  V30 28097 H 2574.58 2.36707 0.940313 0
M  V30 28098 H 2575.36 3.41378 -0.362769 0
M  V30 28099 N 2577.81 -0.303946 1.54641 0
M  V30 28100 C 2579.22 -0.649437 1.45789 0
M  V30 28101 C 2579.42 -1.90841 0.646693 0
M  V30 28102 O 2578.48 -2.52035 0.153227 0
M  V30 28103 C 2579.79 -0.805176 2.8972 0
M  V30 28104 C 2581.34 -0.901252 2.99744 0
M  V30 28105 C 2581.81 -1.08901 4.44865 0
M  V30 28106 N 2583.31 -1.15529 4.48561 0
M  V30 28107 C 2584.04 -1.31881 5.58028 0
M  V30 28108 N 2583.54 -1.45149 6.77424 0
M  V30 28109 N 2585.33 -1.34745 5.45711 0
M  V30 28110 H 2577.48 0.523273 2.05853 0
M  V30 28111 H 2579.74 0.172447 0.932183 0
M  V30 28112 H 2579.45 0.0489726 3.51666 0
M  V30 28113 H 2579.32 -1.69507 3.36967 0
M  V30 28114 H 2581.71 -1.74589 2.37913 0
M  V30 28115 H 2581.79 0.0125981 2.55797 0
M  V30 28116 H 2581.44 -0.249152 5.07289 0
M  V30 28117 H 2581.37 -2.01704 4.86439 0
M  V30 28118 H 2583.86 -1.06639 3.62542 0
M  V30 28119 H 2584.17 -1.57373 7.56607 0
M  V30 28120 H 2582.51 -1.42211 6.80295 0
M  V30 28121 H 2585.71 -1.23988 4.51381 0
M  V30 28122 H 2585.88 -1.47146 6.31072 0
M  V30 28123 N 2579.28 -1.47047 -0.566994 0
M  V30 28124 C 2580.53 -1.53396 -1.32656 0
M  V30 28125 C 2580.86 -0.191514 -1.93253 0
M  V30 28126 O 2580.14 0.798813 -1.77339 0
M  V30 28127 C 2580.42 -2.64456 -2.44407 0
M  V30 28128 C 2580.27 -4.08285 -1.88742 0
M  V30 28129 C 2581.59 -2.71491 -3.46382 0
M  V30 28130 H 2578.71 -0.558423 -0.480971 0
M  V30 28131 H 2581.35 -1.79059 -0.63545 0
M  V30 28132 H 2579.5 -2.42705 -3.03359 0
M  V30 28133 H 2581.18 -4.4137 -1.34127 0
M  V30 28134 H 2579.42 -4.17023 -1.19474 0
M  V30 28135 H 2580.09 -4.8175 -2.69483 0
M  V30 28136 H 2582.57 -2.91086 -2.97335 0
M  V30 28137 H 2581.44 -3.50992 -4.22014 0
M  V30 28138 H 2581.7 -1.7816 -4.04613 0
M  V30 28139 N 2580.76 0.812929 -1.35016 0
M  V30 28140 C 2581.67 1.9561 -1.29514 0
M  V30 28141 C 2582.69 1.72834 -0.201101 0
M  V30 28142 O 2583.86 1.9677 -0.429355 0
M  V30 28143 C 2580.93 3.30086 -1.06039 0
M  V30 28144 C 2579.99 3.65802 -2.24695 0
M  V30 28145 C 2579.22 4.9386 -2.02331 0
M  V30 28146 O 2579.45 5.61803 -0.986563 0
M  V30 28147 O 2578.38 5.27687 -2.89534 0
M  V30 28148 H 2582.21 2.03198 -2.25709 0
M  V30 28149 H 2579.79 0.94979 -1.15323 0
M  V30 28150 H 2581.67 4.10605 -0.947702 0
M  V30 28151 H 2580.35 3.23443 -0.128909 0
M  V30 28152 H 2579.26 2.85685 -2.41526 0
M  V30 28153 H 2580.59 3.77141 -3.16268 0
M  V30 28154 N 2582.24 1.18909 1.03433 0
M  V30 28155 C 2583.47 1.01409 1.80917 0
M  V30 28156 C 2583.89 -0.432689 1.83056 0
M  V30 28157 O 2583.25 -1.31077 1.25254 0
M  V30 28158 C 2583.3 1.58111 3.24089 0
M  V30 28159 O 2582.4 0.80674 4.04432 0
M  V30 28160 H 2581.74 0.358813 0.558703 0
M  V30 28161 H 2584.27 1.57809 1.30221 0
M  V30 28162 H 2584.28 1.61093 3.74851 0
M  V30 28163 H 2582.96 2.63415 3.21846 0
M  V30 28164 H 2581.53 0.84973 3.6309 0
M  V30 28165 N 2583.72 -1.22452 0.992137 0
M  V30 28166 C 2584.94 -1.95738 0.685679 0
M  V30 28167 C 2585.37 -1.72805 -0.74297 0
M  V30 28168 O 2584.73 -1.00679 -1.50776 0
M  V30 28169 C 2584.77 -3.46562 0.996354 0
M  V30 28170 O 2583.88 -4.12291 0.0946236 0
M  V30 28171 H 2583.22 -0.612371 0.256705 0
M  V30 28172 H 2585.75 -1.55567 1.32891 0
M  V30 28173 H 2585.76 -3.97074 0.93788 0
M  V30 28174 H 2584.43 -3.62579 2.03739 0
M  V30 28175 H 2583.01 -3.72317 0.208516 0
M  V30 28176 N 2585.2 -0.765242 -1.37774 0
M  V30 28177 C 2586.13 -0.0935425 -2.28008 0
M  V30 28178 C 2587.11 0.716022 -1.45986 0
M  V30 28179 O 2588.29 0.692172 -1.75332 0
M  V30 28180 C 2585.42 0.873995 -3.27229 0
M  V30 28181 C 2584.46 0.149232 -4.26239 0
M  V30 28182 S 2585.3 -1.15818 -5.22825 0
M  V30 28183 C 2586.45 -0.194016 -6.25599 0
M  V30 28184 H 2586.69 -0.858687 -2.84629 0
M  V30 28185 H 2584.22 -0.558338 -1.43951 0
M  V30 28186 H 2586.18 1.42685 -3.84904 0
M  V30 28187 H 2584.84 1.6122 -2.69568 0
M  V30 28188 H 2584.03 0.882453 -4.96214 0
M  V30 28189 H 2583.63 -0.332432 -3.7252 0
M  V30 28190 H 2585.93 0.635893 -6.74509 0
M  V30 28191 H 2586.87 -0.861761 -7.02837 0
M  V30 28192 H 2587.28 0.191876 -5.64174 0
M  V30 28193 N 2586.67 1.48939 -0.515251 0
M  V30 28194 C 2588.09 1.86565 -0.0710395 0
M  V30 28195 C 2588.44 1.42626 1.34731 0
M  V30 28196 O 2587.56 0.810414 2.00652 0
M  V30 28197 C 2588.16 3.3858 -0.122142 0
M  V30 28198 C 2586.72 3.75453 0.266797 0
M  V30 28199 C 2585.86 2.72965 -0.488424 0
M  V30 28200 H 2588.81 1.41054 -0.727291 0
M  V30 28201 H 2588.83 3.74559 0.669752 0
M  V30 28202 H 2588.35 3.70529 -1.15455 0
M  V30 28203 H 2586.45 3.49115 1.3019 0
M  V30 28204 H 2586.56 4.79059 -0.0625653 0
M  V30 28205 H 2584.92 2.54621 0.0635174 0
M  V30 28206 H 2585.71 3.07758 -1.52118 0
M  V30 28207 N 2588.15 0.249709 1.55609 0
M  V30 28208 C 2589.06 -0.659335 2.25144 0
M  V30 28209 C 2590.08 -1.19099 1.26852 0
M  V30 28210 O 2591.26 -1.22666 1.59734 0
M  V30 28211 C 2588.32 -1.83834 2.93949 0
M  V30 28212 C 2587.38 -1.34589 4.07657 0
M  V30 28213 C 2586.61 -2.4687 4.73171 0
M  V30 28214 O 2586.84 -3.65663 4.37775 0
M  V30 28215 O 2585.77 -2.16469 5.61627 0
M  V30 28216 H 2589.6 -0.0968165 3.03546 0
M  V30 28217 H 2587.18 0.0181003 1.49389 0
M  V30 28218 H 2589.06 -2.52632 3.37276 0
M  V30 28219 H 2587.74 -2.38843 2.18485 0
M  V30 28220 H 2586.65 -0.625109 3.6884 0
M  V30 28221 H 2587.98 -0.841855 4.84947 0
M  V30 28222 N 2589.63 -1.57583 -0.0233682 0
M  V30 28223 C 2590.91 -1.80701 -0.748762 0
M  V30 28224 C 2591.29 -0.84914 -1.93269 0
M  V30 28225 O 2590.64 0.107428 -2.28247 0
M  V30 28226 C 2590.85 -3.28573 -1.17646 0
M  V30 28227 C 2592.19 -3.93705 -1.59001 0
M  V30 28228 O 2593.22 -3.32757 -1.27088 0
M  V30 28229 O 2592.08 -5.01026 -2.18255 0
M  V30 28230 H 2589.17 -0.743287 -0.362564 0
M  V30 28231 H 2591.72 -1.697 0.000291787 0
M  V30 28232 H 2590.49 -3.89893 -0.331534 0
M  V30 28233 H 2590.11 -3.44485 -1.98535 0
M  V30 28234 N 2591.11 0.29574 -1.548 0
M  V30 28235 C 2592.53 0.641697 -1.46131 0
M  V30 28236 C 2592.73 1.90495 -0.656805 0
M  V30 28237 O 2591.78 2.5195 -0.166591 0
M  V30 28238 C 2593.09 0.789801 -2.90142 0
M  V30 28239 C 2594.64 0.885343 -3.00218 0
M  V30 28240 C 2595.12 1.0654 -4.45436 0
M  V30 28241 N 2596.61 1.13148 -4.49168 0
M  V30 28242 C 2597.34 1.28919 -5.58719 0
M  V30 28243 N 2596.84 1.41555 -6.78184 0
M  V30 28244 N 2598.63 1.31849 -5.46418 0
M  V30 28245 H 2590.78 -0.534183 -2.05573 0
M  V30 28246 H 2593.05 -0.177389 -0.931256 0
M  V30 28247 H 2592.75 -0.0676217 -3.51635 0
M  V30 28248 H 2592.63 1.67718 -3.37862 0
M  V30 28249 H 2595.01 1.73325 -2.38836 0
M  V30 28250 H 2595.09 -0.0261635 -2.55787 0
M  V30 28251 H 2594.74 0.222246 -5.07414 0
M  V30 28252 H 2594.67 1.99121 -4.87502 0
M  V30 28253 H 2597.16 1.04715 -3.63102 0
M  V30 28254 H 2597.47 1.53359 -7.5743 0
M  V30 28255 H 2595.82 1.38601 -6.8104 0
M  V30 28256 H 2599.01 1.21593 -4.52032 0
M  V30 28257 H 2599.18 1.43797 -6.31844 0
M  V30 28258 N 2592.59 1.47346 0.559187 0
M  V30 28259 C 2593.53 1.59684 1.66642 0
M  V30 28260 C 2594.5 0.439968 1.60167 0
M  V30 28261 O 2595.69 0.659768 1.7903 0
M  V30 28262 C 2592.83 1.61523 3.04966 0
M  V30 28263 C 2591.94 2.88114 3.21892 0
M  V30 28264 C 2591.08 2.81302 4.50603 0
M  V30 28265 C 2590.12 4.02725 4.60954 0
M  V30 28266 N 2589.25 3.94161 5.81017 0
M  V30 28267 H 2594.09 2.54252 1.55434 0
M  V30 28268 H 2591.63 1.26115 0.757196 0
M  V30 28269 H 2593.59 1.60573 3.85061 0
M  V30 28270 H 2592.22 0.7047 3.15014 0
M  V30 28271 H 2591.27 2.9894 2.35242 0
M  V30 28272 H 2592.58 3.78038 3.25405 0
M  V30 28273 H 2591.74 2.78589 5.38955 0
M  V30 28274 H 2590.48 1.89057 4.49565 0
M  V30 28275 H 2589.48 4.05745 3.71014 0
M  V30 28276 H 2590.71 4.96095 4.63753 0
M  V30 28277 H 2588.65 3.04718 5.80933 0
M  V30 28278 H 2588.57 4.77763 5.859 0
M  V30 28279 H 2589.84 3.95462 6.71737 0
M  V30 28280 N 2594.07 -0.805758 1.35445 0
M  V30 28281 C 2595.29 -1.59938 1.3204 0
M  V30 28282 C 2595.72 -1.87837 -0.0993885 0
M  V30 28283 O 2595.07 -1.46617 -1.06645 0
M  V30 28284 C 2595.12 -2.90707 2.13359 0
M  V30 28285 O 2594.23 -3.83569 1.51487 0
M  V30 28286 H 2593.57 -0.485779 0.452675 0
M  V30 28287 H 2596.1 -0.999987 1.78498 0
M  V30 28288 H 2596.11 -3.40124 2.25344 0
M  V30 28289 H 2594.78 -2.69726 3.16577 0
M  V30 28290 H 2593.36 -3.42122 1.48346 0
M  V30 28291 N 2595.54 -1.19456 -1.02801 0
M  V30 28292 C 2596.77 -1.02367 -1.80377 0
M  V30 28293 C 2597.19 0.422975 -1.83283 0
M  V30 28294 O 2596.55 1.30411 -1.25947 0
M  V30 28295 C 2596.6 -1.59827 -3.23246 0
M  V30 28296 O 2595.7 -0.828176 -4.03999 0
M  V30 28297 H 2595.04 -0.361771 -0.556792 0
M  V30 28298 H 2597.57 -1.58498 -1.29382 0
M  V30 28299 H 2597.58 -1.63079 -3.73991 0
M  V30 28300 H 2596.26 -2.65118 -3.20445 0
M  V30 28301 H 2594.84 -0.868973 -3.62634 0
M  V30 28302 N 2597.02 1.21924 -0.998617 0
M  V30 28303 C 2598.25 1.94831 -0.69632 0
M  V30 28304 C 2598.66 1.73693 0.740001 0
M  V30 28305 O 2598.02 1.03956 1.49998 0
M  V30 28306 C 2598.07 3.47397 -0.999894 0
M  V30 28307 O 2597.79 3.67829 -2.37978 0
M  V30 28308 C 2599.29 4.37478 -0.716102 0
M  V30 28309 H 2596.51 0.619782 -0.257122 0
M  V30 28310 H 2599.06 1.54918 -1.33494 0
M  V30 28311 H 2597.21 3.85256 -0.406986 0
M  V30 28312 H 2597.63 4.61979 -2.48346 0
M  V30 28313 H 2599.1 5.43254 -0.978737 0
M  V30 28314 H 2599.58 4.37804 0.349891 0
M  V30 28315 H 2600.18 4.05254 -1.29032 0
M  V30 28316 N 2598.5 0.772537 1.37367 0
M  V30 28317 C 2599.91 0.402525 1.82309 0
M  V30 28318 C 2600.26 -1.07144 1.64362 0
M  V30 28319 O 2599.39 -1.82988 1.15517 0
M  V30 28320 C 2599.98 0.723835 3.30977 0
M  V30 28321 C 2598.54 0.406868 3.74195 0
M  V30 28322 C 2597.69 0.967264 2.59883 0
M  V30 28323 H 2600.64 0.967121 1.25827 0
M  V30 28324 H 2600.66 0.0087752 3.80499 0
M  V30 28325 H 2600.17 1.79666 3.44008 0
M  V30 28326 H 2598.27 -0.658608 3.66733 0
M  V30 28327 H 2598.39 0.915671 4.70268 0
M  V30 28328 H 2596.75 0.39146 2.51674 0
M  V30 28329 H 2597.53 2.04551 2.75706 0
M  V30 28330 N 2599.98 -1.48664 0.523142 0
M  V30 28331 C 2601.23 -2.02096 -0.0134142 0
M  V30 28332 C 2601.55 -1.40313 -1.35415 0
M  V30 28333 O 2600.82 -0.566107 -1.87542 0
M  V30 28334 H 2599.4 -0.746958 -0.00794602 0
M  V30 28335 H 2602.06 -1.8245 0.68542 0
M  V30 28336 H 2601.15 -3.11842 -0.126795 0
M  V30 28337 N 2601.46 -0.257958 -1.55475 0
M  V30 28338 C 2602.68 0.370453 -2.04065 0
M  V30 28339 C 2603.11 1.49946 -1.13568 0
M  V30 28340 O 2602.46 1.80827 -0.130812 0
M  V30 28341 C 2602.51 0.845176 -3.50555 0
M  V30 28342 O 2601.62 1.95388 -3.63177 0
M  V30 28343 H 2600.96 0.0792128 -0.659258 0
M  V30 28344 H 2603.49 -0.387247 -2.00902 0
M  V30 28345 H 2603.5 1.14548 -3.9159 0
M  V30 28346 H 2602.17 0.0190528 -4.15896 0
M  V30 28347 H 2600.75 1.65742 -3.34042 0
M  V30 28348 N 2602.93 1.57593 0.0150108 0
M  V30 28349 C 2603.86 2.10505 1.01044 0
M  V30 28350 C 2604.85 1.01074 1.36814 0
M  V30 28351 O 2606.03 1.28675 1.45452 0
M  V30 28352 C 2603.16 2.59602 2.30703 0
M  V30 28353 C 2602.11 3.73425 2.09136 0
M  V30 28354 C 2601.44 4.0878 3.44678 0
M  V30 28355 C 2602.74 5.01301 1.4661 0
M  V30 28356 H 2604.43 2.93926 0.569926 0
M  V30 28357 H 2601.98 1.41394 0.272699 0
M  V30 28358 H 2603.93 2.95243 3.00682 0
M  V30 28359 H 2602.66 1.73284 2.7684 0
M  V30 28360 H 2601.32 3.38155 1.41586 0
M  V30 28361 H 2600.96 3.19507 3.8849 0
M  V30 28362 H 2600.66 4.85456 3.31068 0
M  V30 28363 H 2602.19 4.46967 4.15996 0
M  V30 28364 H 2603.6 5.34809 2.06525 0
M  V30 28365 H 2602 5.82682 1.43534 0
M  V30 28366 H 2603.07 4.82958 0.433526 0
M  V30 28367 N 2604.41 -0.287527 1.54955 0
M  V30 28368 C 2605.36 -1.35697 1.83222 0
M  V30 28369 C 2606.35 -1.45346 0.690177 0
M  V30 28370 O 2607.54 -1.49271 0.951163 0
M  V30 28371 C 2604.67 -2.71975 2.09486 0
M  V30 28372 C 2603.75 -2.66496 3.2991 0
M  V30 28373 N 2604.14 -2.30633 4.50158 0
M  V30 28374 C 2602.44 -2.9758 3.32208 0
M  V30 28375 C 2603.14 -2.34785 5.32213 0
M  V30 28376 N 2602.12 -2.7268 4.70262 0
M  V30 28377 H 2605.92 -1.06955 2.73748 0
M  V30 28378 H 2603.44 -0.49614 1.54636 0
M  V30 28379 H 2605.43 -3.49103 2.27888 0
M  V30 28380 H 2604.09 -3.01618 1.20235 0
M  V30 28381 H 2605.1 -2.02857 4.76518 0
M  V30 28382 H 2601.78 -3.32029 2.53106 0
M  V30 28383 H 2603.17 -2.09742 6.38324 0
M  V30 28384 N 2605.89 -1.47641 -0.551365 0
M  V30 28385 C 2606.8 -1.6321 -1.68522 0
M  V30 28386 C 2607.82 -0.514844 -1.66209 0
M  V30 28387 O 2608.99 -0.783146 -1.8555 0
M  V30 28388 C 2606.06 -1.64811 -3.05022 0
M  V30 28389 C 2605.12 -2.88005 -3.18357 0
M  V30 28390 C 2604.35 -2.89521 -4.48345 0
M  V30 28391 O 2604.57 -2.00074 -5.3416 0
M  V30 28392 O 2603.51 -3.81451 -4.65595 0
M  V30 28393 H 2607.33 -2.59163 -1.58329 0
M  V30 28394 H 2604.92 -1.30794 -0.72204 0
M  V30 28395 H 2606.8 -1.68509 -3.86242 0
M  V30 28396 H 2605.48 -0.720252 -3.15585 0
M  V30 28397 H 2604.38 -2.89849 -2.36513 0
M  V30 28398 H 2605.72 -3.80104 -3.127 0
M  V30 28399 N 2607.37 0.798563 -1.3587 0
M  V30 28400 C 2608.28 1.94226 -1.31581 0
M  V30 28401 C 2609.29 1.72611 -0.219421 0
M  V30 28402 O 2610.47 1.96304 -0.450201 0
M  V30 28403 C 2607.54 3.28942 -1.09534 0
M  V30 28404 C 2606.6 3.63398 -2.28562 0
M  V30 28405 C 2605.83 4.91686 -2.07558 0
M  V30 28406 O 2606.05 5.60725 -1.04609 0
M  V30 28407 O 2604.99 5.24586 -2.95115 0
M  V30 28408 H 2608.81 2.00792 -2.27851 0
M  V30 28409 H 2606.4 0.937505 -1.16324 0
M  V30 28410 H 2608.28 4.09577 -0.991199 0
M  V30 28411 H 2606.95 3.23288 -0.163207 0
M  V30 28412 H 2605.86 2.83107 -2.44543 0
M  V30 28413 H 2607.19 3.73766 -3.2025 0
M  V30 28414 N 2608.85 1.19999 1.02166 0
M  V30 28415 C 2610.07 1.03252 1.79295 0
M  V30 28416 C 2610.49 -0.41847 1.84104 0
M  V30 28417 O 2609.85 -1.29061 1.29033 0
M  V30 28418 C 2609.9 1.60324 3.24004 0
M  V30 28419 O 2609.62 2.99745 3.19507 0
M  V30 28420 C 2611.12 1.4846 4.17701 0
M  V30 28421 H 2608.34 0.363502 0.56401 0
M  V30 28422 H 2610.88 1.58975 1.28636 0
M  V30 28423 H 2609.04 1.08733 3.71828 0
M  V30 28424 H 2609.45 3.26733 4.103 0
M  V30 28425 H 2610.93 1.93162 5.171 0
M  V30 28426 H 2611.4 0.436269 4.37028 0
M  V30 28427 H 2612.01 1.99217 3.75756 0
M  V30 28428 N 2610.32 -1.21392 1.00507 0
M  V30 28429 C 2611.74 -1.72212 0.721112 0
M  V30 28430 C 2612.09 -1.80831 -0.761231 0
M  V30 28431 O 2611.21 -1.46291 -1.59461 0
M  V30 28432 C 2611.81 -3.12769 1.30233 0
M  V30 28433 C 2610.37 -3.60945 1.0675 0
M  V30 28434 C 2609.51 -2.38474 1.41511 0
M  V30 28435 H 2612.46 -1.06568 1.17596 0
M  V30 28436 H 2612.48 -3.74246 0.687021 0
M  V30 28437 H 2612 -3.06464 2.3812 0
M  V30 28438 H 2610.1 -3.726 0.00578711 0
M  V30 28439 H 2610.21 -4.46408 1.73944 0
M  V30 28440 H 2608.57 -2.40662 0.833894 0
M  V30 28441 H 2609.36 -2.3482 2.50429 0
M  V30 28442 N 2611.8 -0.779811 -1.36955 0
M  V30 28443 C 2612.75 -0.144932 -2.27539 0
M  V30 28444 C 2613.74 0.665462 -1.46494 0
M  V30 28445 O 2614.93 0.527111 -1.68969 0
M  V30 28446 C 2612.06 0.727023 -3.35513 0
M  V30 28447 C 2611.14 -0.0916387 -4.24001 0
M  V30 28448 N 2611.53 -1.14133 -4.92755 0
M  V30 28449 C 2609.83 0.131063 -4.45807 0
M  V30 28450 C 2610.53 -1.6389 -5.58135 0
M  V30 28451 N 2609.51 -0.949714 -5.3524 0
M  V30 28452 H 2613.31 -0.948495 -2.78174 0
M  V30 28453 H 2610.83 -0.618341 -1.50168 0
M  V30 28454 H 2612.82 1.19769 -3.99326 0
M  V30 28455 H 2611.48 1.52924 -2.86434 0
M  V30 28456 H 2612.49 -1.52362 -4.94981 0
M  V30 28457 H 2609.17 0.90455 -4.07583 0
M  V30 28458 H 2610.56 -2.51472 -6.23066 0
M  V30 28459 N 2613.28 1.48384 -0.531019 0
M  V30 28460 C 2614.51 2.074 0.000693079 0
M  V30 28461 C 2614.93 1.38482 1.27296 0
M  V30 28462 O 2614.29 0.451111 1.75598 0
M  V30 28463 C 2614.34 3.60007 0.206634 0
M  V30 28464 O 2613.44 3.92193 1.27507 0
M  V30 28465 H 2612.78 0.662818 -0.0395946 0
M  V30 28466 H 2615.31 1.90779 -0.739228 0
M  V30 28467 H 2615.32 4.05739 0.428969 0
M  V30 28468 H 2614 4.09572 -0.722747 0
M  V30 28469 H 2612.57 3.5824 1.03531 0
M  V30 28470 N 2614.76 0.2662 1.55336 0
M  V30 28471 C 2616.17 -0.0881785 1.59356 0
M  V30 28472 C 2616.37 -1.5534 1.28343 0
M  V30 28473 O 2615.43 -2.30087 1.04 0
M  V30 28474 C 2616.74 0.278416 2.99408 0
M  V30 28475 C 2618.29 0.224298 3.12195 0
M  V30 28476 C 2618.77 0.565203 4.54499 0
M  V30 28477 N 2620.26 0.516421 4.60312 0
M  V30 28478 C 2620.99 0.753113 5.68433 0
M  V30 28479 N 2620.49 1.05395 6.84736 0
M  V30 28480 N 2622.28 0.682512 5.57941 0
M  V30 28481 H 2614.43 1.22151 1.73761 0
M  V30 28482 H 2616.7 0.492856 0.809813 0
M  V30 28483 H 2616.4 1.29708 3.26908 0
M  V30 28484 H 2616.28 -0.38512 3.75229 0
M  V30 28485 H 2618.66 -0.78507 2.84466 0
M  V30 28486 H 2618.74 0.921964 2.38607 0
M  V30 28487 H 2618.39 1.57222 4.82953 0
M  V30 28488 H 2618.32 -0.154155 5.26374 0
M  V30 28489 H 2620.81 0.293416 3.76759 0
M  V30 28490 H 2621.12 1.22146 7.63086 0
M  V30 28491 H 2619.47 1.09163 6.86373 0
M  V30 28492 H 2622.66 0.447391 4.65957 0
M  V30 28493 H 2622.83 0.870361 6.42128 0
M  V30 28494 N 2616.24 -1.57599 -0.0066531 0
M  V30 28495 C 2617.46 -1.94952 -0.707704 0
M  V30 28496 C 2617.89 -0.867897 -1.66881 0
M  V30 28497 O 2617.24 0.174548 -1.80458 0
M  V30 28498 C 2617.29 -3.31397 -1.42157 0
M  V30 28499 O 2616.4 -3.2523 -2.53573 0
M  V30 28500 H 2615.74 -0.636611 -0.18874 0
M  V30 28501 H 2618.27 -2.04551 0.0445552 0
M  V30 28502 H 2618.28 -3.66809 -1.78649 0
M  V30 28503 H 2616.95 -4.09676 -0.716831 0
M  V30 28504 H 2615.53 -3.01484 -2.19457 0
M  V30 28505 N 2617.72 0.279305 -1.55105 0
M  V30 28506 C 2618.94 1.03014 -1.79432 0
M  V30 28507 C 2619.36 1.80164 -0.564488 0
M  V30 28508 O 2618.72 1.76442 0.466295 0
M  V30 28509 C 2618.77 1.99368 -3.01553 0
M  V30 28510 O 2618.49 1.25345 -4.19786 0
M  V30 28511 C 2619.99 2.86315 -3.38435 0
M  V30 28512 H 2617.21 0.304584 -0.597888 0
M  V30 28513 H 2619.75 0.312 -2.02106 0
M  V30 28514 H 2617.91 2.66654 -2.81024 0
M  V30 28515 H 2618.32 1.90237 -4.88784 0
M  V30 28516 H 2619.8 3.49733 -4.27072 0
M  V30 28517 H 2620.27 3.55755 -2.57555 0
M  V30 28518 H 2620.88 2.2453 -3.61201 0
M  V30 28519 N 2619.19 1.47931 0.543528 0
M  V30 28520 C 2620.61 1.33752 0.870783 0
M  V30 28521 C 2620.81 0.338295 1.9864 0
M  V30 28522 O 2619.87 -0.245327 2.51305 0
M  V30 28523 C 2621.18 2.73438 1.25109 0
M  V30 28524 C 2622.73 2.81825 1.36175 0
M  V30 28525 C 2623.2 4.22182 1.77556 0
M  V30 28526 N 2624.69 4.2479 1.84682 0
M  V30 28527 C 2625.43 5.30319 2.18058 0
M  V30 28528 N 2624.92 6.46139 2.49951 0
M  V30 28529 N 2626.72 5.17705 2.18948 0
M  V30 28530 H 2618.87 2.11523 -0.192787 0
M  V30 28531 H 2621.13 0.947706 -0.0235944 0
M  V30 28532 H 2620.84 3.48054 0.505078 0
M  V30 28533 H 2620.71 3.06092 2.20426 0
M  V30 28534 H 2623.1 2.07472 2.09855 0
M  V30 28535 H 2623.18 2.52808 0.390124 0
M  V30 28536 H 2622.82 4.97046 1.0444 0
M  V30 28537 H 2622.75 4.48634 2.75745 0
M  V30 28538 H 2625.24 3.41241 1.62366 0
M  V30 28539 H 2625.56 7.22411 2.74485 0
M  V30 28540 H 2623.9 6.49437 2.47501 0
M  V30 28541 H 2627.09 4.26243 1.9348 0
M  V30 28542 H 2627.27 6.00051 2.44628 0
M  V30 28543 N 2620.67 -0.791347 1.36292 0
M  V30 28544 C 2621.58 -1.93525 1.32609 0
M  V30 28545 C 2622.6 -1.72492 0.228572 0
M  V30 28546 O 2623.77 -1.96062 0.460605 0
M  V30 28547 C 2620.84 -3.28357 1.11277 0
M  V30 28548 C 2619.9 -3.62181 2.30486 0
M  V30 28549 C 2619.13 -4.90579 2.10162 0
M  V30 28550 O 2619.36 -5.60163 1.07582 0
M  V30 28551 O 2618.29 -5.23014 2.97893 0
M  V30 28552 H 2622.12 -1.99581 2.28913 0
M  V30 28553 H 2619.7 -0.931323 1.16819 0
M  V30 28554 H 2621.58 -4.09045 1.01291 0
M  V30 28555 H 2620.26 -3.23197 0.180349 0
M  V30 28556 H 2619.16 -2.81806 2.46041 0
M  V30 28557 H 2620.5 -3.72062 3.22228 0
M  V30 28558 N 2622.15 -1.2054 -1.01528 0
M  V30 28559 C 2623.1 -0.952272 -2.12213 0
M  V30 28560 C 2624.09 0.0968438 -1.69123 0
M  V30 28561 O 2625.3 -0.0536323 -1.7992 0
M  V30 28562 H 2621.67 -0.290625 -0.693571 0
M  V30 28563 H 2623.64 -1.89205 -2.30746 0
M  V30 28564 C 2622.39 -0.522347 -3.43754 0
M  V30 28565 H 2621.72 -1.32121 -3.77338 0
M  V30 28566 H 2623.16 -0.384464 -4.22253 0
M  V30 28567 C 2621.61 0.765431 -3.2809 0
M  V30 28568 O 2622.14 1.82354 -3.57924 0
M  V30 28569 N 2620.35 0.727962 -2.81334 0
M  V30 28570 H 2619.9 -0.133377 -2.57254 0
M  V30 28571 H 2619.86 1.58994 -2.71235 0
M  V30 28572 N 2623.63 1.20858 -1.01149 0
M  V30 28573 C 2624.86 1.94081 -0.716945 0
M  V30 28574 C 2625.27 1.74469 0.721537 0
M  V30 28575 O 2624.63 1.05541 1.48887 0
M  V30 28576 C 2624.68 3.46317 -1.03668 0
M  V30 28577 O 2624.4 3.65284 -2.41866 0
M  V30 28578 C 2625.9 4.36694 -0.762462 0
M  V30 28579 H 2623.12 0.61702 -0.263681 0
M  V30 28580 H 2625.66 1.53494 -1.35129 0
M  V30 28581 H 2623.82 3.84803 -0.447824 0
M  V30 28582 H 2624.23 4.59319 -2.53232 0
M  V30 28583 H 2625.71 5.42185 -1.0363 0
M  V30 28584 H 2626.18 4.38151 0.303437 0
M  V30 28585 H 2626.79 4.03863 -1.33323 0
M  V30 28586 N 2625.11 0.787064 1.3654 0
M  V30 28587 C 2626.33 0.369089 2.04089 0
M  V30 28588 C 2626.76 -1.00567 1.58959 0
M  V30 28589 O 2626.11 -1.64742 0.756955 0
M  V30 28590 C 2626.16 0.438529 3.57924 0
M  V30 28591 O 2625.27 -0.555407 4.08643 0
M  V30 28592 H 2624.61 0.157133 0.64514 0
M  V30 28593 H 2627.14 1.06752 1.74543 0
M  V30 28594 H 2627.15 0.30129 4.06886 0
M  V30 28595 H 2625.82 1.44139 3.90124 0
M  V30 28596 H 2624.4 -0.380022 3.70959 0
M  V30 28597 N 2626.58 -1.48101 0.53888 0
M  V30 28598 C 2628 -1.58375 0.197348 0
M  V30 28599 C 2628.2 -1.53982 -1.29969 0
M  V30 28600 O 2627.26 -1.43356 -2.07859 0
M  V30 28601 C 2628.57 -2.89647 0.807766 0
M  V30 28602 C 2630.12 -3.03194 0.777313 0
M  V30 28603 C 2630.59 -4.3714 1.36647 0
M  V30 28604 N 2632.08 -4.4373 1.32883 0
M  V30 28605 C 2632.82 -5.45898 1.7545 0
M  V30 28606 N 2632.31 -6.54975 2.25787 0
M  V30 28607 N 2634.11 -5.36833 1.66632 0
M  V30 28608 H 2626.26 -1.49199 1.51173 0
M  V30 28609 H 2628.52 -0.708968 0.62934 0
M  V30 28610 H 2628.23 -2.98544 1.85914 0
M  V30 28611 H 2628.1 -3.76083 0.290041 0
M  V30 28612 H 2630.49 -2.93905 -0.265322 0
M  V30 28613 H 2630.57 -2.18347 1.3326 0
M  V30 28614 H 2630.21 -4.47185 2.40808 0
M  V30 28615 H 2630.14 -5.20689 0.78678 0
M  V30 28616 H 2632.63 -3.65492 0.960434 0
M  V30 28617 H 2632.95 -7.29083 2.56239 0
M  V30 28618 H 2631.29 -6.55914 2.29787 0
M  V30 28619 H 2634.48 -4.50515 1.27097 0
M  V30 28620 H 2634.66 -6.16323 2.00126 0
M  V30 28621 N 2628.06 -0.274434 -1.55192 0
M  V30 28622 C 2629.3 0.343743 -2.01489 0
M  V30 28623 C 2629.67 1.53101 -1.15863 0
M  V30 28624 O 2630.87 2.21877 -1.51736 0
M  V30 28625 C 2629.14 0.716959 -3.50135 0
M  V30 28626 S 2630.7 1.32176 -4.18419 0
M  V30 28627 H 2627.51 0.106936 -0.702912 0
M  V30 28628 H 2630.12 -0.396108 -1.91445 0
M  V30 28629 H 2628.82 -0.156019 -4.10103 0
M  V30 28630 H 2628.35 1.48829 -3.64161 0
M  V30 28631 H 2630.37 2.61037 -4.21988 0
M  V30 28632 N 2629.54 1.576 -0.00170483 0
M  V30 28633 C 2630.76 1.95325 0.697355 0
M  V30 28634 C 2631.19 0.876735 1.66418 0
M  V30 28635 O 2630.55 -0.164976 1.80548 0
M  V30 28636 C 2630.6 3.32146 1.40397 0
M  V30 28637 O 2629.7 3.2657 2.51844 0
M  V30 28638 H 2629.04 0.637603 0.185362 0
M  V30 28639 H 2631.57 2.04525 -0.0554025 0
M  V30 28640 H 2631.58 3.67751 1.76701 0
M  V30 28641 H 2630.26 4.1005 0.695095 0
M  V30 28642 H 2628.83 3.02644 2.17856 0
M  V30 28643 N 2631.02 -0.271076 1.55251 0
M  V30 28644 C 2631.98 -1.31838 1.87487 0
M  V30 28645 C 2632.98 -1.42261 0.74957 0
M  V30 28646 O 2634.17 -1.41378 1.01773 0
M  V30 28647 C 2631.3 -2.69948 2.08185 0
M  V30 28648 H 2632.5 -1.04485 2.8111 0
M  V30 28649 H 2630.05 -0.509232 1.47772 0
M  V30 28650 H 2630.78 -3.02479 1.1695 0
M  V30 28651 H 2630.57 -2.63769 2.90118 0
M  V30 28652 H 2632.06 -3.45616 2.34392 0
M  V30 28653 N 2632.5 -1.48217 -0.535675 0
M  V30 28654 C 2633.91 -1.4955 -1.11767 0
M  V30 28655 C 2634.26 -0.262104 -1.94441 0
M  V30 28656 O 2633.38 0.63125 -2.06988 0
M  V30 28657 C 2633.98 -2.70978 -2.03363 0
M  V30 28658 C 2632.54 -2.75201 -2.56791 0
M  V30 28659 C 2631.68 -2.4298 -1.33627 0
M  V30 28660 H 2634.64 -1.55415 -0.321205 0
M  V30 28661 H 2634.66 -2.49172 -2.87565 0
M  V30 28662 H 2634.17 -3.6073 -1.43163 0
M  V30 28663 H 2632.27 -1.89643 -3.20728 0
M  V30 28664 H 2632.38 -3.76477 -2.96313 0
M  V30 28665 H 2630.75 -1.94015 -1.65017 0
M  V30 28666 H 2631.53 -3.34965 -0.751881 0
M  V30 28667 N 2633.97 0.784108 -1.3671 0
M  V30 28668 C 2634.94 1.87857 -1.3131 0
M  V30 28669 C 2635.94 1.59292 -0.219682 0
M  V30 28670 O 2637.13 1.67605 -0.47479 0
M  V30 28671 C 2634.26 3.24749 -1.03685 0
M  V30 28672 H 2635.45 1.9406 -2.2865 0
M  V30 28673 H 2633.01 0.982499 -1.21559 0
M  V30 28674 H 2633.74 3.24228 -0.0682506 0
M  V30 28675 H 2633.53 3.46872 -1.82817 0
M  V30 28676 H 2635.02 4.04819 -1.02526 0
M  V30 28677 N 2635.45 1.21076 1.00888 0
M  V30 28678 C 2636.68 1.05148 1.78189 0
M  V30 28679 C 2637.1 -0.398919 1.84537 0
M  V30 28680 O 2636.45 -1.27685 1.30395 0
M  V30 28681 C 2636.5 1.63752 3.22285 0
M  V30 28682 O 2636.22 3.03117 3.1631 0
M  V30 28683 C 2637.73 1.52882 4.16103 0
M  V30 28684 H 2634.95 0.369464 0.560123 0
M  V30 28685 H 2637.49 1.60331 1.26942 0
M  V30 28686 H 2635.64 1.12671 3.70654 0
M  V30 28687 H 2636.06 3.31066 4.06811 0
M  V30 28688 H 2637.53 1.98635 5.15022 0
M  V30 28689 H 2638.01 0.482598 4.36541 0
M  V30 28690 H 2638.62 2.03191 3.73622 0
M  V30 28691 N 2636.93 -1.2032 1.01789 0
M  V30 28692 C 2637.89 -2.21369 0.594011 0
M  V30 28693 C 2638.89 -1.57239 -0.336525 0
M  V30 28694 O 2640.08 -1.73751 -0.125038 0
M  V30 28695 C 2637.22 -3.40643 -0.132373 0
M  V30 28696 H 2638.41 -2.60384 1.48796 0
M  V30 28697 H 2635.96 -1.33805 0.807826 0
M  V30 28698 H 2636.7 -3.07132 -1.04117 0
M  V30 28699 H 2636.48 -3.88418 0.536119 0
M  V30 28700 H 2637.97 -4.1552 -0.416241 0
M  V30 28701 N 2638.41 -0.794293 -1.3612 0
M  V30 28702 C 2639.34 -0.210369 -2.3255 0
M  V30 28703 C 2640.32 0.657359 -1.56885 0
M  V30 28704 O 2641.5 0.590174 -1.85015 0
M  V30 28705 C 2638.63 0.651759 -3.4113 0
M  V30 28706 C 2637.59 -0.11647 -4.27841 0
M  V30 28707 C 2636.91 0.866567 -5.27631 0
M  V30 28708 C 2638.21 -1.30846 -5.05645 0
M  V30 28709 H 2639.91 -1.01599 -2.81635 0
M  V30 28710 H 2637.45 -0.490005 -1.35407 0
M  V30 28711 H 2639.41 1.07023 -4.07583 0
M  V30 28712 H 2638.13 1.49013 -2.90624 0
M  V30 28713 H 2636.79 -0.515979 -3.62951 0
M  V30 28714 H 2636.44 1.70011 -4.73398 0
M  V30 28715 H 2636.14 0.356947 -5.86515 0
M  V30 28716 H 2637.66 1.28351 -5.96958 0
M  V30 28717 H 2639.08 -0.965492 -5.65112 0
M  V30 28718 H 2637.47 -1.75171 -5.73964 0
M  V30 28719 H 2638.54 -2.10136 -4.37002 0
M  V30 28720 N 2639.89 1.47813 -0.546727 0
M  V30 28721 C 2640.82 2.32682 0.195276 0
M  V30 28722 C 2641.8 1.43141 0.918956 0
M  V30 28723 O 2642.98 1.72009 0.90147 0
M  V30 28724 C 2640.11 3.24702 1.23231 0
M  V30 28725 C 2639.07 4.23401 0.625743 0
M  V30 28726 C 2638.39 5.04672 1.76665 0
M  V30 28727 C 2639.69 5.2066 -0.413606 0
M  V30 28728 H 2641.39 2.94968 -0.513236 0
M  V30 28729 H 2638.93 1.41844 -0.248266 0
M  V30 28730 H 2640.89 3.8291 1.75948 0
M  V30 28731 H 2639.61 2.60449 1.97063 0
M  V30 28732 H 2638.27 3.66404 0.119958 0
M  V30 28733 H 2637.92 4.36831 2.49375 0
M  V30 28734 H 2637.62 5.71487 1.36663 0
M  V30 28735 H 2639.14 5.65736 2.29728 0
M  V30 28736 H 2640.55 5.73294 0.0271035 0
M  V30 28737 H 2638.95 5.9562 -0.731929 0
M  V30 28738 H 2640.02 4.66776 -1.31334 0
M  V30 28739 N 2641.36 0.28266 1.55044 0
M  V30 28740 C 2642.61 -0.332633 1.98938 0
M  V30 28741 C 2642.93 -1.56407 1.17458 0
M  V30 28742 O 2644.13 -2.25279 1.51531 0
M  V30 28743 C 2642.59 -0.643164 3.54107 0
M  V30 28744 C 2642.2 0.568892 4.44373 0
M  V30 28745 C 2643.94 -1.22066 4.06571 0
M  V30 28746 C 2641.85 0.23253 5.90943 0
M  V30 28747 H 2640.78 -0.128062 0.743045 0
M  V30 28748 H 2643.43 0.388496 1.7934 0
M  V30 28749 H 2641.81 -1.4234 3.69534 0
M  V30 28750 H 2642.98 1.34559 4.40716 0
M  V30 28751 H 2641.3 1.06376 4.02583 0
M  V30 28752 H 2643.9 -1.48626 5.13629 0
M  V30 28753 H 2644.24 -2.157 3.5606 0
M  V30 28754 H 2644.77 -0.502552 3.94613 0
M  V30 28755 H 2641.51 1.13695 6.45565 0
M  V30 28756 H 2641.03 -0.507252 5.97651 0
M  V30 28757 H 2642.71 -0.172543 6.4677 0
M  V30 28758 N 2642.84 -1.57597 0.0100627 0
M  V30 28759 C 2643.77 -2.0592 -1.00645 0
M  V30 28760 C 2644.79 -0.978987 -1.30076 0
M  V30 28761 O 2645.98 -1.25558 -1.26875 0
M  V30 28762 C 2643.08 -2.4527 -2.33872 0
M  V30 28763 C 2642.25 -3.76144 -2.23236 0
M  V30 28764 C 2641.31 -4.02251 -3.39235 0
M  V30 28765 O 2640.33 -4.72777 -3.16972 0
M  V30 28766 N 2641.54 -3.50932 -4.62414 0
M  V30 28767 H 2644.3 -2.93749 -0.594281 0
M  V30 28768 H 2641.86 -1.60928 -0.177111 0
M  V30 28769 H 2643.85 -2.59841 -3.10265 0
M  V30 28770 H 2642.42 -1.62907 -2.66796 0
M  V30 28771 H 2641.64 -3.71553 -1.31689 0
M  V30 28772 H 2642.93 -4.61926 -2.13313 0
M  V30 28773 H 2642.33 -2.9384 -4.83399 0
M  V30 28774 H 2640.89 -3.70816 -5.3604 0
M  V30 28775 N 2644.32 0.262839 -1.55393 0
M  V30 28776 C 2645.27 1.32513 -1.88968 0
M  V30 28777 C 2646.24 1.48595 -0.742213 0
M  V30 28778 O 2647.42 1.62837 -0.994419 0
M  V30 28779 C 2644.56 2.67854 -2.17596 0
M  V30 28780 C 2643.68 2.59911 -3.45066 0
M  V30 28781 C 2642.81 3.87499 -3.63343 0
M  V30 28782 C 2641.85 3.74107 -4.84469 0
M  V30 28783 N 2640.99 4.93552 -4.9935 0
M  V30 28784 H 2645.83 1.03179 -2.79568 0
M  V30 28785 H 2643.36 0.498261 -1.38404 0
M  V30 28786 H 2645.32 3.46613 -2.32196 0
M  V30 28787 H 2643.95 2.95369 -1.3022 0
M  V30 28788 H 2643 1.72806 -3.38884 0
M  V30 28789 H 2644.32 2.45919 -4.33965 0
M  V30 28790 H 2643.47 4.747 -3.77815 0
M  V30 28791 H 2642.21 4.04369 -2.72648 0
M  V30 28792 H 2641.21 2.85289 -4.6999 0
M  V30 28793 H 2642.44 3.58746 -5.76609 0
M  V30 28794 H 2640.38 5.10814 -4.11589 0
M  V30 28795 H 2640.3 4.8213 -5.82311 0
M  V30 28796 H 2641.57 5.82297 -5.18218 0
M  V30 28797 N 2645.8 1.48499 0.527807 0
M  V30 28798 C 2646.76 1.62699 1.61436 0
M  V30 28799 C 2647.76 0.500163 1.52823 0
M  V30 28800 O 2648.95 0.766003 1.56455 0
M  V30 28801 C 2646.08 1.59923 3.01061 0
M  V30 28802 H 2647.28 2.59585 1.50185 0
M  V30 28803 H 2644.83 1.37128 0.750031 0
M  V30 28804 H 2645.56 0.645219 3.17817 0
M  V30 28805 H 2645.35 2.41731 3.08721 0
M  V30 28806 H 2646.84 1.73057 3.80054 0
M  V30 28807 N 2647.28 -0.776847 1.37123 0
M  V30 28808 C 2648.21 -1.90399 1.35168 0
M  V30 28809 C 2649.19 -1.68657 0.221099 0
M  V30 28810 O 2650.37 -1.89589 0.420675 0
M  V30 28811 C 2647.5 -3.27609 1.1528 0
M  V30 28812 C 2646.46 -3.63904 2.25295 0
M  V30 28813 C 2645.78 -4.996 1.90536 0
M  V30 28814 C 2647.08 -3.71181 3.67453 0
M  V30 28815 H 2648.78 -1.92293 2.29486 0
M  V30 28816 H 2646.32 -0.923753 1.10466 0
M  V30 28817 H 2648.28 -4.06094 1.12543 0
M  V30 28818 H 2647 -3.26135 0.17416 0
M  V30 28819 H 2645.66 -2.87724 2.27179 0
M  V30 28820 H 2645.31 -4.9466 0.912147 0
M  V30 28821 H 2645.01 -5.24853 2.64202 0
M  V30 28822 H 2646.53 -5.8049 1.89377 0
M  V30 28823 H 2647.95 -4.39829 3.67727 0
M  V30 28824 H 2646.34 -4.07929 4.4013 0
M  V30 28825 H 2647.41 -2.7197 4.01448 0
M  V30 28826 N 2648.76 -1.2161 -1.00244 0
M  V30 28827 C 2650 -1.03641 -1.74317 0
M  V30 28828 C 2650.33 0.428715 -1.89409 0
M  V30 28829 O 2649.61 1.31807 -1.43028 0
M  V30 28830 C 2649.89 -1.73717 -3.15428 0
M  V30 28831 C 2649.75 -3.27765 -3.08043 0
M  V30 28832 C 2651.06 -1.4818 -4.14404 0
M  V30 28833 H 2648.18 -0.377911 -0.632734 0
M  V30 28834 H 2650.83 -1.4982 -1.16851 0
M  V30 28835 H 2648.98 -1.34458 -3.6449 0
M  V30 28836 H 2650.65 -3.76407 -2.66674 0
M  V30 28837 H 2648.89 -3.57935 -2.45081 0
M  V30 28838 H 2649.56 -3.71965 -4.07855 0
M  V30 28839 H 2652.04 -1.82264 -3.74057 0
M  V30 28840 H 2650.91 -1.99722 -5.11275 0
M  V30 28841 H 2651.17 -0.412351 -4.40173 0
M  V30 28842 N 2650.23 1.19778 -1.02425 0
M  V30 28843 C 2651.65 1.41382 -0.740484 0
M  V30 28844 C 2651.85 1.89794 0.676794 0
M  V30 28845 O 2650.91 2.07173 1.44346 0
M  V30 28846 C 2652.22 2.42892 -1.77268 0
M  V30 28847 C 2653.77 2.56646 -1.7917 0
M  V30 28848 C 2654.24 3.61405 -2.81337 0
M  V30 28849 N 2655.73 3.68897 -2.80124 0
M  V30 28850 C 2656.47 4.49634 -3.55832 0
M  V30 28851 N 2655.96 5.34115 -4.4124 0
M  V30 28852 N 2657.76 4.4424 -3.44394 0
M  V30 28853 H 2649.91 0.86673 -1.93911 0
M  V30 28854 H 2652.17 0.443083 -0.838082 0
M  V30 28855 H 2651.88 2.14334 -2.78844 0
M  V30 28856 H 2651.75 3.41998 -1.59114 0
M  V30 28857 H 2654.14 2.84529 -0.782752 0
M  V30 28858 H 2654.22 1.57709 -2.01398 0
M  V30 28859 H 2653.86 3.34265 -3.824 0
M  V30 28860 H 2653.79 4.59982 -2.56367 0
M  V30 28861 H 2656.28 3.08558 -2.18176 0
M  V30 28862 H 2656.6 5.92827 -4.95758 0
M  V30 28863 H 2654.94 5.33591 -4.45315 0
M  V30 28864 H 2658.13 3.7728 -2.77087 0
M  V30 28865 H 2658.31 5.06924 -4.03649 0
M  V30 28866 N 2651.71 0.801501 1.35697 0
M  V30 28867 C 2652.96 0.378745 1.98519 0
M  V30 28868 C 2653.28 -1.05635 1.63909 0
M  V30 28869 O 2652.55 -1.73004 0.919043 0
M  V30 28870 H 2651.13 0.137055 0.734319 0
M  V30 28871 H 2653.79 1.02622 1.65695 0
M  V30 28872 H 2652.89 0.480338 3.08382 0
M  V30 28873 N 2653.19 -1.47521 0.554558 0
M  V30 28874 C 2654.44 -2.02079 0.0294563 0
M  V30 28875 C 2654.76 -1.43154 -1.32409 0
M  V30 28876 O 2654.03 -0.605761 -1.86299 0
M  V30 28877 H 2652.61 -0.746958 0.00789985 0
M  V30 28878 H 2655.27 -1.80955 0.723966 0
M  V30 28879 H 2654.37 -3.12041 -0.0606196 0
M  V30 28880 N 2654.67 -0.290879 -1.54892 0
M  V30 28881 C 2655.6 0.583044 -2.26104 0
M  V30 28882 C 2656.58 1.14617 -1.25686 0
M  V30 28883 O 2657.76 1.17739 -1.54439 0
M  V30 28884 C 2654.89 1.75982 -2.99412 0
M  V30 28885 C 2653.85 1.32751 -4.06892 0
M  V30 28886 C 2653.17 2.58864 -4.67861 0
M  V30 28887 C 2654.47 0.466148 -5.20216 0
M  V30 28888 H 2656.17 -0.0108741 -2.99398 0
M  V30 28889 H 2653.71 -0.00666999 -1.43998 0
M  V30 28890 H 2655.67 2.3772 -3.47947 0
M  V30 28891 H 2654.39 2.37981 -2.23679 0
M  V30 28892 H 2653.05 0.733236 -3.59192 0
M  V30 28893 H 2652.7 3.19156 -3.88778 0
M  V30 28894 H 2652.4 2.30644 -5.40442 0
M  V30 28895 H 2653.92 3.21424 -5.19152 0
M  V30 28896 H 2655.34 0.988948 -5.64706 0
M  V30 28897 H 2653.73 0.278155 -5.99455 0
M  V30 28898 H 2654.8 -0.511257 -4.82197 0
M  V30 28899 N 2656.15 1.57589 -0.0184203 0
M  V30 28900 C 2657.39 1.90977 0.661219 0
M  V30 28901 C 2657.71 0.894383 1.73279 0
M  V30 28902 O 2656.98 -0.0656444 1.9579 0
M  V30 28903 H 2655.56 0.704905 0.247221 0
M  V30 28904 H 2658.23 1.94796 -0.0636981 0
M  V30 28905 H 2657.32 2.91282 1.12078 0
M  V30 28906 N 2657.62 -0.254594 1.5553 0
M  V30 28907 C 2658.85 -1.00146 1.81048 0
M  V30 28908 C 2659.27 -1.79243 0.593079 0
M  V30 28909 O 2658.62 -1.77162 -0.438165 0
M  V30 28910 C 2658.67 -1.94546 3.04687 0
M  V30 28911 O 2658.4 -1.18651 4.21727 0
M  V30 28912 C 2659.9 -2.80895 3.42948 0
M  V30 28913 H 2657.12 -0.295033 0.602658 0
M  V30 28914 H 2659.66 -0.279807 2.02577 0
M  V30 28915 H 2657.82 -2.62149 2.85231 0
M  V30 28916 H 2658.23 -1.82437 4.91749 0
M  V30 28917 H 2659.7 -3.42895 4.32582 0
M  V30 28918 H 2660.18 -3.51613 2.63183 0
M  V30 28919 H 2660.79 -2.18755 3.64728 0
M  V30 28920 N 2659.1 -1.48777 -0.519925 0
M  V30 28921 C 2660.03 -1.66948 -1.6325 0
M  V30 28922 C 2661.01 -0.518252 -1.62013 0
M  V30 28923 O 2662.2 -0.75195 -1.79051 0
M  V30 28924 C 2659.33 -1.71842 -3.01807 0
M  V30 28925 C 2658.28 -2.86566 -3.17906 0
M  V30 28926 C 2657.61 -2.76556 -4.57625 0
M  V30 28927 C 2658.91 -4.27743 -2.99722 0
M  V30 28928 H 2660.6 -2.60093 -1.48298 0
M  V30 28929 H 2658.15 -1.25166 -0.712004 0
M  V30 28930 H 2660.1 -1.83142 -3.79522 0
M  V30 28931 H 2658.82 -0.752831 -3.17805 0
M  V30 28932 H 2657.48 -2.74837 -2.42611 0
M  V30 28933 H 2657.13 -1.77946 -4.70472 0
M  V30 28934 H 2656.83 -3.53545 -4.6934 0
M  V30 28935 H 2658.36 -2.89838 -5.37426 0
M  V30 28936 H 2659.77 -4.40252 -3.67221 0
M  V30 28937 H 2658.17 -5.05807 -3.22923 0
M  V30 28938 H 2659.24 -4.43505 -1.96039 0
M  V30 28939 N 2660.58 0.769564 -1.37534 0
M  V30 28940 C 2661.54 1.86454 -1.33295 0
M  V30 28941 C 2662.54 1.5905 -0.236565 0
M  V30 28942 O 2663.73 1.67092 -0.49254 0
M  V30 28943 C 2660.86 3.23631 -1.07124 0
M  V30 28944 H 2662.06 1.91623 -2.30696 0
M  V30 28945 H 2659.61 0.96955 -1.22594 0
M  V30 28946 H 2660.35 3.24138 -0.102635 0
M  V30 28947 H 2660.13 3.44914 -1.86485 0
M  V30 28948 H 2661.62 4.03709 -1.06813 0
M  V30 28949 N 2662.06 1.22139 0.995977 0
M  V30 28950 C 2663.02 0.990145 2.06709 0
M  V30 28951 C 2664.02 -0.0422696 1.60744 0
M  V30 28952 O 2665.21 0.195925 1.73095 0
M  V30 28953 C 2662.34 0.494969 3.37288 0
M  V30 28954 H 2663.54 1.94051 2.28658 0
M  V30 28955 H 2661.09 1.03965 1.16709 0
M  V30 28956 H 2661.82 -0.459891 3.21023 0
M  V30 28957 H 2661.61 1.23978 3.71984 0
M  V30 28958 H 2663.1 0.353326 4.16103 0
M  V30 28959 N 2663.54 -1.19233 1.03059 0
M  V30 28960 C 2664.81 -1.84742 0.642641 0
M  V30 28961 C 2665.19 -1.9195 -0.878544 0
M  V30 28962 O 2664.54 -1.43779 -1.77595 0
M  V30 28963 C 2664.75 -3.23614 1.30671 0
M  V30 28964 C 2666.1 -3.99757 1.43105 0
M  V30 28965 O 2667.12 -3.33018 1.26402 0
M  V30 28966 O 2665.98 -5.1931 1.70232 0
M  V30 28967 H 2663.08 -0.796202 0.223587 0
M  V30 28968 H 2665.62 -1.26709 1.12885 0
M  V30 28969 H 2664.39 -3.13212 2.3455 0
M  V30 28970 H 2664.02 -3.89294 0.808473 0
M  V30 28971 N 2665.01 -0.808686 -1.3527 0
M  V30 28972 C 2665.98 -0.226133 -2.28082 0
M  V30 28973 C 2666.98 0.587735 -1.49674 0
M  V30 28974 O 2668.17 0.405913 -1.69405 0
M  V30 28975 C 2665.3 0.684537 -3.33956 0
M  V30 28976 H 2666.49 -1.04474 -2.81114 0
M  V30 28977 H 2664.05 -0.579491 -1.45161 0
M  V30 28978 H 2664.78 1.52675 -2.86113 0
M  V30 28979 H 2664.57 0.10263 -3.91966 0
M  V30 28980 H 2666.06 1.08639 -4.03221 0
M  V30 28981 N 2666.49 1.47225 -0.562374 0
M  V30 28982 C 2667.44 2.31778 0.195435 0
M  V30 28983 C 2668.43 1.43243 0.904305 0
M  V30 28984 O 2669.64 1.5998 0.825003 0
M  V30 28985 H 2666.02 0.747527 0.0818963 0
M  V30 28986 H 2667.99 2.93532 -0.536804 0
M  V30 28987 C 2666.74 3.26005 1.20897 0
M  V30 28988 H 2666.06 3.94096 0.672928 0
M  V30 28989 H 2667.5 3.87989 1.71 0
M  V30 28990 C 2665.96 2.49895 2.25951 0
M  V30 28991 O 2666.49 2.24715 3.32965 0
M  V30 28992 N 2664.69 2.10813 2.00015 0
M  V30 28993 H 2664.24 2.31491 1.13002 0
M  V30 28994 H 2664.2 1.60206 2.70521 0
M  V30 28995 N 2667.97 0.299089 1.54736 0
M  V30 28996 C 2669.22 -0.310748 2.00101 0
M  V30 28997 C 2669.55 -1.54042 1.18748 0
M  V30 28998 O 2668.8 -1.94081 0.251232 0
M  V30 28999 C 2669.1 -0.713773 3.502 0
M  V30 29000 C 2668.77 0.413952 4.48996 0
M  V30 29001 C 2667.43 0.723546 4.75729 0
M  V30 29002 C 2669.78 1.17266 5.07837 0
M  V30 29003 C 2667.11 1.795 5.58566 0
M  V30 29004 C 2669.46 2.23402 5.9184 0
M  V30 29005 C 2668.12 2.5497 6.16885 0
M  V30 29006 H 2667.39 -0.113711 0.732223 0
M  V30 29007 H 2670.04 0.417789 1.86887 0
M  V30 29008 H 2668.35 -1.52237 3.61014 0
M  V30 29009 H 2670.04 -1.19677 3.82725 0
M  V30 29010 H 2666.63 0.162551 4.28292 0
M  V30 29011 H 2670.82 0.946737 4.87186 0
M  V30 29012 H 2666.07 2.04433 5.76209 0
M  V30 29013 H 2670.25 2.82651 6.3646 0
M  V30 29014 H 2667.87 3.38126 6.80863 0
M  V30 29015 N 2669.45 -1.57577 0.0267774 0
M  V30 29016 C 2670.7 -1.90881 -0.651702 0
M  V30 29017 C 2671.01 -0.904607 -1.73425 0
M  V30 29018 O 2672.22 -1.12881 -2.46921 0
M  V30 29019 C 2670.67 -3.38935 -1.21042 0
M  V30 29020 C 2670.28 -4.4771 -0.161283 0
M  V30 29021 C 2672.02 -3.8131 -1.86555 0
M  V30 29022 C 2669.93 -5.86859 -0.731508 0
M  V30 29023 H 2668.86 -0.712331 -0.247186 0
M  V30 29024 H 2671.51 -1.83271 0.0916963 0
M  V30 29025 H 2669.89 -3.4147 -2.00536 0
M  V30 29026 H 2671.07 -4.56731 0.61102 0
M  V30 29027 H 2669.38 -4.14523 0.39495 0
M  V30 29028 H 2671.98 -4.82624 -2.3017 0
M  V30 29029 H 2672.32 -3.16246 -2.70729 0
M  V30 29030 H 2672.86 -3.81188 -1.13755 0
M  V30 29031 H 2669.6 -6.5546 0.0720482 0
M  V30 29032 H 2669.12 -5.81448 -1.47235 0
M  V30 29033 H 2670.79 -6.35356 -1.22197 0
M  V30 29034 N 2670.93 0.246342 -1.55663 0
M  V30 29035 C 2671.86 1.3314 -1.85335 0
M  V30 29036 C 2672.84 1.46353 -0.70849 0
M  V30 29037 O 2674.02 1.62559 -0.954303 0
M  V30 29038 C 2671.15 2.70483 -2.03854 0
M  V30 29039 C 2670.19 2.74417 -3.26493 0
M  V30 29040 S 2671.03 2.3097 -4.83128 0
M  V30 29041 C 2672.18 3.70237 -5.04654 0
M  V30 29042 H 2672.42 1.07772 -2.77078 0
M  V30 29043 H 2669.95 0.447354 -1.47777 0
M  V30 29044 H 2671.91 3.49565 -2.15208 0
M  V30 29045 H 2670.57 2.93088 -1.12952 0
M  V30 29046 H 2669.76 3.75284 -3.36419 0
M  V30 29047 H 2669.36 2.03379 -3.13868 0
M  V30 29048 H 2671.66 4.65738 -4.92031 0
M  V30 29049 H 2672.6 3.65245 -6.06632 0
M  V30 29050 H 2673.01 3.62776 -4.32497 0
M  V30 29051 N 2672.4 1.4905 0.512027 0
M  V30 29052 C 2673.37 1.64402 1.59702 0
M  V30 29053 C 2674.37 0.516344 1.52284 0
M  V30 29054 O 2675.56 0.782554 1.55633 0
M  V30 29055 C 2672.69 1.63107 2.99347 0
M  V30 29056 H 2673.88 2.61164 1.47423 0
M  V30 29057 H 2671.44 1.37916 0.735445 0
M  V30 29058 H 2672.17 0.678891 3.17114 0
M  V30 29059 H 2671.96 2.44992 3.0614 0
M  V30 29060 H 2673.45 1.77079 3.78197 0
M  V30 29061 N 2673.88 -0.762259 1.3794 0
M  V30 29062 C 2675.11 -1.55145 1.36886 0
M  V30 29063 C 2675.53 -1.8875 -0.0435016 0
M  V30 29064 O 2674.88 -1.52148 -1.00783 0
M  V30 29065 C 2674.93 -2.85592 2.21629 0
M  V30 29066 O 2674.65 -2.53423 3.57363 0
M  V30 29067 C 2676.16 -3.79776 2.2866 0
M  V30 29068 H 2673.38 -0.480335 0.468529 0
M  V30 29069 H 2675.92 -0.944047 1.81406 0
M  V30 29070 H 2674.07 -3.42731 1.80594 0
M  V30 29071 H 2674.49 -3.37025 4.01889 0
M  V30 29072 H 2675.96 -4.68283 2.92259 0
M  V30 29073 H 2676.44 -4.19589 1.29774 0
M  V30 29074 H 2677.05 -3.28563 2.70049 0
M  V30 29075 N 2675.36 -1.22666 -0.989486 0
M  V30 29076 C 2676.61 -1.0512 -1.7261 0
M  V30 29077 C 2676.93 0.414097 -1.90552 0
M  V30 29078 O 2676.2 1.2976 -1.46763 0
M  V30 29079 H 2674.78 -0.385988 -0.639548 0
M  V30 29080 H 2677.44 -1.54234 -1.19155 0
M  V30 29081 H 2676.54 -1.5318 -2.71923 0
M  V30 29082 N 2676.84 1.18685 -1.0369 0
M  V30 29083 C 2677.77 2.21668 -0.582735 0
M  V30 29084 C 2678.78 1.59089 0.345628 0
M  V30 29085 O 2679.97 1.77944 0.140745 0
M  V30 29086 C 2677.07 3.38478 0.169144 0
M  V30 29087 C 2676.25 4.30638 -0.766155 0
M  V30 29088 C 2675.31 5.26168 -0.0582466 0
M  V30 29089 O 2674.33 5.65033 -0.687445 0
M  V30 29090 N 2675.53 5.67755 1.20972 0
M  V30 29091 H 2678.3 2.61258 -1.46848 0
M  V30 29092 H 2675.86 1.33432 -0.91692 0
M  V30 29093 H 2677.85 3.99406 0.652472 0
M  V30 29094 H 2676.42 2.97611 0.956383 0
M  V30 29095 H 2675.64 3.67371 -1.42942 0
M  V30 29096 H 2676.93 4.89116 -1.40155 0
M  V30 29097 H 2676.33 5.38227 1.7415 0
M  V30 29098 H 2674.88 6.30898 1.63739 0
M  V30 29099 N 2678.32 0.815849 1.34839 0
M  V30 29100 C 2679.28 0.238225 2.27959 0
M  V30 29101 C 2680.28 -0.579789 1.49984 0
M  V30 29102 O 2681.47 -0.396923 1.69618 0
M  V30 29103 C 2678.6 -0.666817 3.34315 0
M  V30 29104 H 2679.8 1.05963 2.80556 0
M  V30 29105 H 2677.35 0.587181 1.44851 0
M  V30 29106 H 2678.08 -1.51155 2.86919 0
M  V30 29107 H 2677.87 -0.0818416 3.92015 0
M  V30 29108 H 2679.36 -1.06499 4.03792 0
M  V30 29109 N 2679.8 -1.46924 0.570174 0
M  V30 29110 C 2680.73 -2.32963 -0.158233 0
M  V30 29111 C 2681.71 -1.44584 -0.896067 0
M  V30 29112 O 2682.89 -1.73422 -0.873991 0
M  V30 29113 C 2680.02 -3.26621 -1.1805 0
M  V30 29114 C 2678.98 -4.24343 -0.558305 0
M  V30 29115 C 2678.3 -5.07418 -1.68614 0
M  V30 29116 C 2679.6 -5.19936 0.496386 0
M  V30 29117 H 2681.3 -2.94114 0.560098 0
M  V30 29118 H 2678.84 -1.41431 0.2708 0
M  V30 29119 H 2680.79 -3.85661 -1.69834 0
M  V30 29120 H 2679.52 -2.63552 -1.92894 0
M  V30 29121 H 2678.18 -3.66548 -0.0616513 0
M  V30 29122 H 2677.83 -4.40743 -2.42394 0
M  V30 29123 H 2677.53 -5.73589 -1.27554 0
M  V30 29124 H 2679.05 -5.69319 -2.20699 0
M  V30 29125 H 2680.46 -5.73264 0.064106 0
M  V30 29126 H 2678.86 -5.9438 0.826595 0
M  V30 29127 H 2679.93 -4.64627 1.38743 0
M  V30 29128 N 2681.27 -0.307291 -1.54575 0
M  V30 29129 C 2682.24 0.553185 -2.22424 0
M  V30 29130 C 2683.24 1.05637 -1.21233 0
M  V30 29131 O 2684.43 0.951394 -1.45925 0
M  V30 29132 C 2681.56 1.76659 -2.91555 0
M  V30 29133 H 2682.75 -0.0397011 -2.99874 0
M  V30 29134 H 2680.3 -0.0581903 -1.56192 0
M  V30 29135 H 2681.04 2.39915 -2.18201 0
M  V30 29136 H 2680.82 1.41337 -3.65741 0
M  V30 29137 H 2682.31 2.37777 -3.43296 0
M  V30 29138 N 2682.75 1.57561 -0.0351337 0
M  V30 29139 C 2684.03 1.83356 0.68118 0
M  V30 29140 C 2684.41 0.920286 1.89984 0
M  V30 29141 O 2683.76 -0.0226414 2.28489 0
M  V30 29142 C 2683.97 3.32713 1.0537 0
M  V30 29143 C 2685.31 3.99335 1.44279 0
M  V30 29144 O 2686.34 3.37244 1.14651 0
M  V30 29145 O 2685.2 5.08781 1.99509 0
M  V30 29146 H 2682.29 0.756232 0.334728 0
M  V30 29147 H 2684.84 1.69582 -0.0632746 0
M  V30 29148 H 2683.61 3.90855 0.1866 0
M  V30 29149 H 2683.23 3.51616 1.85612 0
M  V30 29150 N 2684.23 -0.238084 1.55791 0
M  V30 29151 C 2685.19 -1.27832 1.90241 0
M  V30 29152 C 2686.19 -1.40639 0.779577 0
M  V30 29153 O 2687.38 -1.39188 1.04749 0
M  V30 29154 C 2684.51 -2.65471 2.13864 0
M  V30 29155 H 2685.71 -0.984984 2.83263 0
M  V30 29156 H 2683.26 -0.477772 1.48819 0
M  V30 29157 H 2684 -2.9993 1.23339 0
M  V30 29158 H 2683.78 -2.57555 2.95648 0
M  V30 29159 H 2685.27 -3.40566 2.4167 0
M  V30 29160 N 2685.71 -1.4932 -0.504115 0
M  V30 29161 C 2686.95 -1.60265 -1.26864 0
M  V30 29162 C 2687.31 -0.281612 -1.89924 0
M  V30 29163 O 2688.51 -0.266223 -2.67478 0
M  V30 29164 C 2686.78 -2.72757 -2.30951 0
M  V30 29165 S 2688.34 -3.03633 -3.16784 0
M  V30 29166 H 2685.16 -0.56533 -0.431188 0
M  V30 29167 H 2687.76 -1.86964 -0.571375 0
M  V30 29168 H 2686.47 -3.67266 -1.83149 0
M  V30 29169 H 2686 -2.48041 -3.05351 0
M  V30 29170 H 2688.01 -2.44915 -4.31545 0
M  V30 29171 N 2687.19 0.754933 -1.38342 0
M  V30 29172 C 2688.12 1.87829 -1.3135 0
M  V30 29173 C 2689.13 1.61224 -0.225983 0
M  V30 29174 O 2690.32 1.71829 -0.48344 0
M  V30 29175 C 2687.42 3.23435 -1.01207 0
M  V30 29176 C 2686.59 3.77555 -2.20841 0
M  V30 29177 C 2685.65 4.91675 -1.87463 0
M  V30 29178 O 2684.68 5.06378 -2.59942 0
M  V30 29179 N 2685.88 5.74553 -0.828783 0
M  V30 29180 H 2688.64 1.94338 -2.28151 0
M  V30 29181 H 2686.21 0.934805 -1.32186 0
M  V30 29182 H 2688.2 3.9732 -0.769319 0
M  V30 29183 H 2686.77 3.12321 -0.132066 0
M  V30 29184 H 2685.99 2.95252 -2.6119 0
M  V30 29185 H 2687.28 4.10446 -3.00685 0
M  V30 29186 H 2686.67 5.65242 -0.22769 0
M  V30 29187 H 2685.23 6.48592 -0.645916 0
M  V30 29188 N 2688.66 1.23189 0.982967 0
M  V30 29189 C 2689.6 0.954029 2.07301 0
M  V30 29190 C 2690.57 -0.106725 1.62249 0
M  V30 29191 O 2691.76 0.0269856 1.88481 0
M  V30 29192 C 2688.89 0.436775 3.35872 0
M  V30 29193 C 2687.93 1.48374 3.99859 0
M  V30 29194 S 2688.76 3.06031 4.39437 0
M  V30 29195 C 2689.92 2.55969 5.71166 0
M  V30 29196 H 2690.15 1.87706 2.30551 0
M  V30 29197 H 2687.69 1.06405 1.11881 0
M  V30 29198 H 2689.64 0.144944 4.10244 0
M  V30 29199 H 2688.31 -0.465296 3.10635 0
M  V30 29200 H 2687.5 1.07191 4.92469 0
M  V30 29201 H 2687.1 1.72479 3.31854 0
M  V30 29202 H 2689.39 1.97829 6.47974 0
M  V30 29203 H 2690.34 3.47109 6.17188 0
M  V30 29204 H 2690.74 1.96911 5.29043 0
M  V30 29205 N 2690.14 -1.18133 1.04318 0
M  V30 29206 C 2691.05 -2.25504 0.646916 0
M  V30 29207 C 2692.07 -1.70881 -0.327977 0
M  V30 29208 O 2693.24 -2.00573 -0.182273 0
M  V30 29209 C 2690.31 -3.46695 0.0186273 0
M  V30 29210 C 2689.37 -4.16441 1.04285 0
M  V30 29211 C 2688.6 -5.31846 0.444445 0
M  V30 29212 O 2688.83 -5.65466 -0.748636 0
M  V30 29213 O 2687.76 -5.90332 1.17439 0
M  V30 29214 H 2691.59 -2.61669 1.54152 0
M  V30 29215 H 2689.17 -1.25264 0.81421 0
M  V30 29216 H 2691.05 -4.20098 -0.330994 0
M  V30 29217 H 2689.73 -3.12347 -0.84976 0
M  V30 29218 H 2688.63 -3.45095 1.44431 0
M  V30 29219 H 2689.97 -4.54795 1.88208 0
M  V30 29220 N 2691.62 -0.822988 -1.34405 0
M  V30 29221 C 2693.03 -0.469911 -1.8069 0
M  V30 29222 C 2693.38 1.0097 -1.68225 0
M  V30 29223 O 2692.51 1.78575 -1.22229 0
M  V30 29224 C 2693.1 -0.846176 -3.28063 0
M  V30 29225 C 2691.66 -0.545468 -3.72427 0
M  V30 29226 C 2690.81 -1.06305 -2.56114 0
M  V30 29227 H 2693.76 -1.01315 -1.22151 0
M  V30 29228 H 2693.78 -0.149989 -3.80204 0
M  V30 29229 H 2693.29 -1.9231 -3.37103 0
M  V30 29230 H 2691.39 0.522044 -3.68925 0
M  V30 29231 H 2691.51 -1.08958 -4.66546 0
M  V30 29232 H 2689.87 -0.484598 -2.50047 0
M  V30 29233 H 2690.65 -2.14642 -2.67925 0
M  V30 29234 N 2693.1 1.4662 -0.577957 0
M  V30 29235 C 2694.01 2.3405 0.160609 0
M  V30 29236 C 2695.02 1.49463 0.890885 0
M  V30 29237 O 2696.2 1.82344 0.855134 0
M  V30 29238 C 2693.27 3.26561 1.16442 0
M  V30 29239 C 2692.33 4.27046 0.439325 0
M  V30 29240 C 2691.56 5.15138 1.39531 0
M  V30 29241 O 2691.78 5.0607 2.63153 0
M  V30 29242 O 2690.72 5.95004 0.908481 0
M  V30 29243 H 2694.54 2.98546 -0.557109 0
M  V30 29244 H 2692.13 1.45517 -0.338395 0
M  V30 29245 H 2694.01 3.83648 1.74333 0
M  V30 29246 H 2692.68 2.64667 1.86369 0
M  V30 29247 H 2691.59 3.7366 -0.181313 0
M  V30 29248 H 2692.92 4.91713 -0.218885 0
M  V30 29249 N 2694.58 0.315484 1.5441 0
M  V30 29250 C 2695.49 -0.56325 2.27738 0
M  V30 29251 C 2696.5 -1.13611 1.31789 0
M  V30 29252 O 2697.68 -1.15781 1.64793 0
M  V30 29253 C 2694.74 -1.71202 3.01481 0
M  V30 29254 C 2693.8 -1.17177 4.12999 0
M  V30 29255 C 2693.04 -2.26579 4.83216 0
M  V30 29256 O 2693.26 -3.46767 4.5289 0
M  V30 29257 O 2692.19 -1.92453 5.70303 0
M  V30 29258 H 2696.02 0.0320147 3.03683 0
M  V30 29259 H 2693.61 0.081445 1.49178 0
M  V30 29260 H 2695.49 -2.381 3.47687 0
M  V30 29261 H 2694.16 -2.29362 2.28418 0
M  V30 29262 H 2693.07 -0.468109 3.7116 0
M  V30 29263 H 2694.4 -0.635415 4.88081 0
M  V30 29264 N 2696.05 -1.5754 0.0434891 0
M  V30 29265 C 2697.3 -1.9267 -0.632937 0
M  V30 29266 C 2697.63 -0.921476 -1.70946 0
M  V30 29267 O 2696.91 0.053686 -1.94426 0
M  V30 29268 C 2697.19 -3.38218 -1.23613 0
M  V30 29269 C 2697.04 -4.49485 -0.168195 0
M  V30 29270 C 2698.36 -3.84008 -2.15001 0
M  V30 29271 H 2695.48 -0.700645 -0.228616 0
M  V30 29272 H 2698.12 -1.89717 0.103685 0
M  V30 29273 H 2696.27 -3.40866 -1.86394 0
M  V30 29274 H 2697.95 -4.58968 0.463277 0
M  V30 29275 H 2696.19 -4.30855 0.504657 0
M  V30 29276 H 2696.86 -5.48392 -0.630122 0
M  V30 29277 H 2699.34 -3.83188 -1.62191 0
M  V30 29278 H 2698.21 -4.86516 -2.54153 0
M  V30 29279 H 2698.47 -3.20328 -3.04701 0
M  V30 29280 N 2697.53 0.229818 -1.55915 0
M  V30 29281 C 2698.44 1.3059 -1.94894 0
M  V30 29282 C 2699.46 1.51734 -0.851631 0
M  V30 29283 O 2700.63 1.65025 -1.1545 0
M  V30 29284 C 2697.7 2.63725 -2.25056 0
M  V30 29285 C 2696.76 2.50954 -3.48311 0
M  V30 29286 C 2695.99 3.7774 -3.77025 0
M  V30 29287 O 2696.22 4.80389 -3.07542 0
M  V30 29288 O 2695.15 3.75348 -4.70529 0
M  V30 29289 H 2698.98 1.0052 -2.86582 0
M  V30 29290 H 2696.56 0.432 -1.43018 0
M  V30 29291 H 2698.44 3.42367 -2.45688 0
M  V30 29292 H 2697.12 2.93492 -1.36543 0
M  V30 29293 H 2696.03 1.7054 -3.32967 0
M  V30 29294 H 2697.36 2.26128 -4.37181 0
M  V30 29295 N 2699.01 1.49585 0.49619 0
M  V30 29296 C 2700.26 1.58561 1.24665 0
M  V30 29297 C 2700.57 0.279737 1.93589 0
M  V30 29298 O 2701.78 0.248095 2.70364 0
M  V30 29299 C 2700.23 2.79783 2.26384 0
M  V30 29300 C 2699.84 4.17148 1.63377 0
M  V30 29301 C 2701.59 2.98091 3.02228 0
M  V30 29302 C 2699.49 5.29587 2.63234 0
M  V30 29303 H 2698.42 0.590397 0.468985 0
M  V30 29304 H 2701.07 1.75979 0.519954 0
M  V30 29305 H 2699.46 2.55869 3.02237 0
M  V30 29306 H 2700.63 4.51218 0.934831 0
M  V30 29307 H 2698.95 4.04237 0.99905 0
M  V30 29308 H 2701.54 3.79264 3.76913 0
M  V30 29309 H 2701.89 2.08838 3.60129 0
M  V30 29310 H 2702.42 3.22067 2.3349 0
M  V30 29311 H 2699.16 6.20915 2.10108 0
M  V30 29312 H 2698.68 4.99965 3.31354 0
M  V30 29313 H 2700.36 5.59121 3.25566 0
M  V30 29314 N 2700.49 -0.747586 1.3874 0
M  V30 29315 C 2701.42 -1.8697 1.30834 0
M  V30 29316 C 2702.4 -1.61553 0.184257 0
M  V30 29317 O 2703.58 -1.8498 0.362593 0
M  V30 29318 C 2700.71 -3.22703 1.0286 0
M  V30 29319 C 2699.76 -3.66999 2.17287 0
M  V30 29320 S 2700.59 -3.77835 3.79475 0
M  V30 29321 C 2701.75 -5.16378 3.53701 0
M  V30 29322 H 2701.98 -1.93391 2.25803 0
M  V30 29323 H 2699.51 -0.911177 1.24647 0
M  V30 29324 H 2701.47 -4.01087 0.87404 0
M  V30 29325 H 2700.13 -3.13953 0.0959847 0
M  V30 29326 H 2699.32 -4.65468 1.93275 0
M  V30 29327 H 2698.93 -2.95786 2.28881 0
M  V30 29328 H 2701.22 -6.02321 3.10186 0
M  V30 29329 H 2702.16 -5.45414 4.51585 0
M  V30 29330 H 2702.57 -4.85459 2.88079 0
M  V30 29331 N 2701.97 -1.23709 -0.97642 0
M  V30 29332 C 2702.93 -1.02291 -2.05108 0
M  V30 29333 C 2703.93 0.0166912 -1.60791 0
M  V30 29334 O 2705.12 -0.223438 -1.72761 0
M  V30 29335 C 2702.25 -0.548566 -3.36457 0
M  V30 29336 H 2703.44 -1.97664 -2.25542 0
M  V30 29337 H 2701 -1.05808 -1.1504 0
M  V30 29338 H 2701.73 0.408761 -3.21714 0
M  V30 29339 H 2701.52 -1.2988 -3.69964 0
M  V30 29340 H 2703.01 -0.419479 -4.15488 0
M  V30 29341 N 2703.44 1.17579 -1.04943 0
M  V30 29342 C 2704.67 1.91702 -0.778328 0
M  V30 29343 C 2705.09 1.76676 0.665666 0
M  V30 29344 O 2704.44 1.10224 1.45454 0
M  V30 29345 C 2704.5 3.42843 -1.14634 0
M  V30 29346 O 2704.22 3.57404 -2.53365 0
M  V30 29347 C 2705.72 4.34047 -0.901007 0
M  V30 29348 H 2702.94 0.608318 -0.283178 0
M  V30 29349 H 2705.48 1.49117 -1.39944 0
M  V30 29350 H 2703.64 3.83183 -0.57002 0
M  V30 29351 H 2704.05 4.5103 -2.67717 0
M  V30 29352 H 2705.52 5.38614 -1.20827 0
M  V30 29353 H 2706 4.38894 0.163889 0
M  V30 29354 H 2706.61 3.99417 -1.46104 0
M  V30 29355 N 2704.92 0.830104 1.33967 0
M  V30 29356 C 2705.83 0.259248 2.33163 0
M  V30 29357 C 2706.85 -0.610135 1.62952 0
M  V30 29358 O 2708.02 -0.516335 1.94669 0
M  V30 29359 C 2705.09 -0.563537 3.42089 0
M  V30 29360 C 2704.15 0.329089 4.28037 0
M  V30 29361 C 2703.38 -0.454522 5.31761 0
M  V30 29362 O 2703.61 -1.68711 5.44879 0
M  V30 29363 O 2702.54 0.1669 6.01669 0
M  V30 29364 H 2706.37 1.08046 2.83831 0
M  V30 29365 H 2703.95 0.592414 1.37153 0
M  V30 29366 H 2705.83 -1.0314 4.08583 0
M  V30 29367 H 2704.51 -1.36196 2.93654 0
M  V30 29368 H 2703.42 0.844602 3.64441 0
M  V30 29369 H 2704.75 1.09205 4.79932 0
M  V30 29370 N 2706.4 -1.46311 0.585725 0
M  V30 29371 C 2707.33 -2.33118 -0.133516 0
M  V30 29372 C 2708.31 -1.45527 -0.880682 0
M  V30 29373 O 2709.5 -1.74339 -0.855548 0
M  V30 29374 C 2706.63 -3.27855 -1.14579 0
M  V30 29375 C 2705.58 -4.24911 -0.513266 0
M  V30 29376 C 2704.91 -5.09178 -1.63222 0
M  V30 29377 C 2706.21 -5.1938 0.551504 0
M  V30 29378 H 2707.9 -2.93504 0.591261 0
M  V30 29379 H 2705.45 -1.41136 0.285786 0
M  V30 29380 H 2707.4 -3.87441 -1.65734 0
M  V30 29381 H 2706.12 -2.65583 -1.90088 0
M  V30 29382 H 2704.78 -3.66593 -0.0227705 0
M  V30 29383 H 2704.43 -4.43289 -2.37706 0
M  V30 29384 H 2704.13 -5.74909 -1.21463 0
M  V30 29385 H 2705.66 -5.71628 -2.14648 0
M  V30 29386 H 2707.07 -5.73164 0.124905 0
M  V30 29387 H 2705.47 -5.9347 0.88959 0
M  V30 29388 H 2706.54 -4.6313 1.43663 0
M  V30 29389 N 2707.88 -0.323668 -1.54241 0
M  V30 29390 C 2708.81 0.534953 -2.27289 0
M  V30 29391 C 2709.79 1.11925 -1.28089 0
M  V30 29392 O 2710.98 1.14436 -1.56901 0
M  V30 29393 C 2708.11 1.69591 -3.03078 0
M  V30 29394 C 2707.06 1.24091 -4.09616 0
M  V30 29395 C 2706.39 2.48882 -4.73246 0
M  V30 29396 C 2707.69 0.355698 -5.21087 0
M  V30 29397 H 2709.38 -0.0743784 -2.99308 0
M  V30 29398 H 2706.93 -0.0372127 -1.43952 0
M  V30 29399 H 2708.88 2.30287 -3.52911 0
M  V30 29400 H 2707.6 2.33183 -2.28677 0
M  V30 29401 H 2706.26 0.656881 -3.60667 0
M  V30 29402 H 2705.91 3.10838 -3.9546 0
M  V30 29403 H 2705.61 2.19128 -5.45212 0
M  V30 29404 H 2707.13 3.10339 -5.25854 0
M  V30 29405 H 2708.55 0.868943 -5.66677 0
M  V30 29406 H 2706.94 0.150939 -5.9991 0
M  V30 29407 H 2708.01 -0.613423 -4.81004 0
M  V30 29408 N 2709.36 1.57515 -0.0518432 0
M  V30 29409 C 2710.3 2.1157 0.922315 0
M  V30 29410 C 2711.27 1.02323 1.3084 0
M  V30 29411 O 2712.46 1.29875 1.39775 0
M  V30 29412 C 2709.6 2.66574 2.19163 0
M  V30 29413 C 2708.71 3.89909 1.85996 0
M  V30 29414 C 2707.85 4.33226 3.0739 0
M  V30 29415 C 2706.89 5.4926 2.70148 0
M  V30 29416 N 2706.02 5.87627 3.84238 0
M  V30 29417 H 2710.86 2.94514 0.454454 0
M  V30 29418 H 2708.4 1.45554 0.212692 0
M  V30 29419 H 2710.36 2.96564 2.93437 0
M  V30 29420 H 2708.99 1.86426 2.63524 0
M  V30 29421 H 2708.04 3.66507 1.01867 0
M  V30 29422 H 2709.35 4.74242 1.54583 0
M  V30 29423 H 2708.51 4.64772 3.89964 0
M  V30 29424 H 2707.25 3.47706 3.41982 0
M  V30 29425 H 2706.25 5.17385 1.85992 0
M  V30 29426 H 2707.48 6.36496 2.36748 0
M  V30 29427 H 2705.42 5.0506 4.18629 0
M  V30 29428 H 2705.34 6.66652 3.56526 0
M  V30 29429 H 2706.61 6.23788 4.67449 0
M  V30 29430 N 2710.84 -0.221546 1.56035 0
M  V30 29431 C 2712.08 -0.94407 1.78695 0
M  V30 29432 C 2712.4 -1.84869 0.620349 0
M  V30 29433 O 2711.67 -1.92512 -0.36275 0
M  V30 29434 H 2710.25 -0.351585 0.659088 0
M  V30 29435 H 2712.92 -0.233401 1.93497 0
M  V30 29436 H 2712.01 -1.55088 2.7084 0
M  V30 29437 N 2712.31 -1.49846 -0.48825 0
M  V30 29438 C 2713.73 -1.36891 -0.820542 0
M  V30 29439 C 2713.93 -0.411786 -1.97247 0
M  V30 29440 O 2712.99 0.151887 -2.52043 0
M  V30 29441 C 2714.3 -2.77893 -1.14875 0
M  V30 29442 C 2715.85 -2.86685 -1.25621 0
M  V30 29443 C 2716.32 -4.28481 -1.61764 0
M  V30 29444 N 2717.81 -4.31352 -1.68789 0
M  V30 29445 C 2718.55 -5.38047 -1.98225 0
M  V30 29446 N 2718.04 -6.54971 -2.25798 0
M  V30 29447 N 2719.84 -5.25474 -1.99583 0
M  V30 29448 H 2711.99 -2.10662 0.27116 0
M  V30 29449 H 2714.25 -0.946178 0.0587516 0
M  V30 29450 H 2713.96 -3.49689 -0.375552 0
M  V30 29451 H 2713.83 -3.14062 -2.08914 0
M  V30 29452 H 2716.22 -2.15118 -2.02011 0
M  V30 29453 H 2716.3 -2.54081 -0.296027 0
M  V30 29454 H 2715.94 -5.0058 -0.859207 0
M  V30 29455 H 2715.87 -4.58559 -2.58904 0
M  V30 29456 H 2718.36 -3.47032 -1.49589 0
M  V30 29457 H 2718.68 -7.32101 -2.47484 0
M  V30 29458 H 2717.02 -6.58175 -2.23227 0
M  V30 29459 H 2720.21 -4.3313 -1.77527 0
M  V30 29460 H 2720.39 -6.08717 -2.22189 0
M  V30 29461 N 2713.79 0.740218 -1.39135 0
M  V30 29462 C 2714.7 1.8847 -1.397 0
M  V30 29463 C 2715.72 1.71525 -0.292434 0
M  V30 29464 O 2716.89 1.94218 -0.533055 0
M  V30 29465 C 2713.96 3.24001 -1.23387 0
M  V30 29466 C 2713.02 3.53377 -2.43769 0
M  V30 29467 C 2712.25 4.82441 -2.28225 0
M  V30 29468 O 2712.48 5.55784 -1.28298 0
M  V30 29469 O 2711.41 5.11597 -3.17099 0
M  V30 29470 H 2715.24 1.90948 -2.36162 0
M  V30 29471 H 2712.82 0.887325 -1.20195 0
M  V30 29472 H 2714.7 4.05004 -1.16402 0
M  V30 29473 H 2713.38 3.22305 -0.300177 0
M  V30 29474 H 2712.28 2.72481 -2.5633 0
M  V30 29475 H 2713.62 3.59846 -3.35815 0
M  V30 29476 N 2715.27 1.24225 0.969846 0
M  V30 29477 C 2716.23 1.03377 2.04563 0
M  V30 29478 C 2717.23 -0.0081638 1.60798 0
M  V30 29479 O 2718.42 0.232597 1.7264 0
M  V30 29480 C 2715.55 0.566402 3.36162 0
M  V30 29481 H 2716.75 1.98857 2.2449 0
M  V30 29482 H 2714.3 1.06417 1.14478 0
M  V30 29483 H 2715.04 -0.391694 3.21926 0
M  V30 29484 H 2714.82 1.3184 3.6927 0
M  V30 29485 H 2716.31 0.441508 4.1526 0
M  V30 29486 N 2716.75 -1.1702 1.05565 0
M  V30 29487 C 2718.16 -1.68998 0.793504 0
M  V30 29488 C 2718.51 -1.83897 -0.68385 0
M  V30 29489 O 2717.63 -1.52923 -1.53113 0
M  V30 29490 C 2718.23 -3.06964 1.43382 0
M  V30 29491 C 2716.79 -3.56093 1.21962 0
M  V30 29492 C 2715.94 -2.32258 1.51498 0
M  V30 29493 H 2718.89 -1.01485 1.2201 0
M  V30 29494 H 2718.91 -3.70996 0.845133 0
M  V30 29495 H 2718.42 -2.96089 2.50904 0
M  V30 29496 H 2716.52 -3.7224 0.163814 0
M  V30 29497 H 2716.63 -4.38629 1.92721 0
M  V30 29498 H 2715 -2.36909 0.935217 0
M  V30 29499 H 2715.78 -2.23987 2.60163 0
M  V30 29500 N 2718.23 -0.837197 -1.33524 0
M  V30 29501 C 2719.14 -0.271609 -2.33022 0
M  V30 29502 C 2720.15 0.601485 -1.63273 0
M  V30 29503 O 2721.33 0.506004 -1.9494 0
M  V30 29504 C 2718.39 0.545388 -3.42383 0
M  V30 29505 C 2717.45 -0.351784 -4.27856 0
M  V30 29506 C 2716.69 0.426315 -5.31995 0
M  V30 29507 O 2716.91 1.65819 -5.45766 0
M  V30 29508 O 2715.84 -0.198805 -6.01572 0
M  V30 29509 H 2719.67 -1.09549 -2.83254 0
M  V30 29510 H 2717.25 -0.599679 -1.36836 0
M  V30 29511 H 2719.14 1.00972 -4.09124 0
M  V30 29512 H 2717.81 1.34636 -2.94372 0
M  V30 29513 H 2716.72 -0.863917 -3.63988 0
M  V30 29514 H 2718.05 -1.11748 -4.79347 0
M  V30 29515 N 2719.7 1.45999 -0.593476 0
M  V30 29516 C 2720.95 2.01929 -0.0830235 0
M  V30 29517 C 2721.27 1.46614 1.28567 0
M  V30 29518 O 2720.54 0.654942 1.84628 0
M  V30 29519 H 2719.12 0.746486 -0.0277013 0
M  V30 29520 H 2721.78 1.78972 -0.771688 0
M  V30 29521 H 2720.88 3.12092 -0.0221338 0
M  V30 29522 N 2721.18 0.331843 1.54067 0
M  V30 29523 C 2722.12 -0.573088 2.20887 0
M  V30 29524 C 2723.09 -1.10936 1.18878 0
M  V30 29525 O 2724.28 -1.17182 1.47651 0
M  V30 29526 C 2721.4 -1.78721 2.87709 0
M  V30 29527 C 2720.45 -1.38145 4.03508 0
M  V30 29528 S 2721.28 -0.411136 5.33919 0
M  V30 29529 C 2722.44 -1.63235 6.04239 0
M  V30 29530 H 2722.67 -0.00550511 2.97299 0
M  V30 29531 H 2720.21 0.11592 1.53964 0
M  V30 29532 H 2722.16 -2.48381 3.26829 0
M  V30 29533 H 2720.82 -2.32599 2.11084 0
M  V30 29534 H 2720.02 -2.28637 4.49156 0
M  V30 29535 H 2719.62 -0.76446 3.66104 0
M  V30 29536 H 2721.91 -2.56858 6.26921 0
M  V30 29537 H 2722.85 -1.21788 6.97548 0
M  V30 29538 H 2723.26 -1.82309 5.34251 0
M  V30 29539 N 2722.66 -1.57485 0.0601958 0
M  V30 29540 C 2723.62 -2.10947 -0.896336 0
M  V30 29541 C 2724.62 -1.03098 -1.234 0
M  V30 29542 O 2725.81 -1.29134 -1.16919 0
M  V30 29543 C 2722.95 -2.6012 -2.20342 0
M  V30 29544 H 2724.14 -2.96762 -0.432726 0
M  V30 29545 H 2721.69 -1.55161 -0.188344 0
M  V30 29546 H 2722.43 -1.77724 -2.71265 0
M  V30 29547 H 2722.21 -3.3894 -1.97134 0
M  V30 29548 H 2723.7 -3.01597 -2.8884 0
M  V30 29549 N 2724.14 0.213268 -1.5615 0
M  V30 29550 C 2725.36 0.95725 -1.83988 0
M  V30 29551 C 2725.79 1.76821 -0.641557 0
M  V30 29552 O 2725.15 1.7661 0.409691 0
M  V30 29553 C 2725.19 1.84388 -3.09893 0
M  V30 29554 O 2724.3 2.94033 -2.89168 0
M  V30 29555 H 2723.64 0.270595 -0.606362 0
M  V30 29556 H 2726.17 0.224076 -2.03369 0
M  V30 29557 H 2726.18 2.25209 -3.40213 0
M  V30 29558 H 2724.85 1.24788 -3.96738 0
M  V30 29559 H 2723.43 2.57098 -2.70101 0
M  V30 29560 N 2725.62 1.50103 0.480296 0
M  V30 29561 C 2726.84 1.64644 1.26123 0
M  V30 29562 C 2727.27 0.325855 1.85256 0
M  V30 29563 O 2726.62 -0.709164 1.66855 0
M  V30 29564 C 2726.67 2.73305 2.35238 0
M  V30 29565 O 2725.78 2.33917 3.39642 0
M  V30 29566 H 2725.12 0.55038 0.371453 0
M  V30 29567 H 2727.65 1.96422 0.572661 0
M  V30 29568 H 2727.66 2.96103 2.8069 0
M  V30 29569 H 2726.33 3.69154 1.91568 0
M  V30 29570 H 2724.91 2.2153 2.99965 0
M  V30 29571 N 2727.09 -0.732829 1.39526 0
M  V30 29572 C 2728.02 -1.86003 1.41157 0
M  V30 29573 C 2729.01 -1.67868 0.274644 0
M  V30 29574 O 2730.19 -1.88155 0.480778 0
M  V30 29575 C 2727.32 -3.23776 1.25644 0
M  V30 29576 C 2726.27 -3.56552 2.36759 0
M  V30 29577 C 2725.6 -4.93285 2.06334 0
M  V30 29578 C 2726.9 -3.59303 3.79076 0
M  V30 29579 H 2728.59 -1.84895 2.35487 0
M  V30 29580 H 2726.14 -0.888142 1.13349 0
M  V30 29581 H 2728.09 -4.02308 1.25405 0
M  V30 29582 H 2726.82 -3.25416 0.277829 0
M  V30 29583 H 2725.48 -2.80351 2.36218 0
M  V30 29584 H 2725.12 -4.91508 1.06906 0
M  V30 29585 H 2724.82 -5.16182 2.80766 0
M  V30 29586 H 2726.35 -5.74171 2.07749 0
M  V30 29587 H 2727.76 -4.27907 3.81534 0
M  V30 29588 H 2726.16 -3.9372 4.52885 0
M  V30 29589 H 2727.23 -2.5906 4.09897 0
M  V30 29590 N 2728.57 -1.24737 -0.963244 0
M  V30 29591 C 2729.82 -1.08758 -1.70341 0
M  V30 29592 C 2730.14 0.373585 -1.91388 0
M  V30 29593 O 2729.41 1.26617 -1.49482 0
M  V30 29594 H 2727.99 -0.399467 -0.631217 0
M  V30 29595 H 2730.65 -1.56727 -1.15857 0
M  V30 29596 H 2729.75 -1.58914 -2.68613 0
M  V30 29597 N 2730.05 1.16459 -1.06184 0
M  V30 29598 C 2731.29 1.88638 -0.787081 0
M  V30 29599 C 2731.65 1.79779 0.674061 0
M  V30 29600 O 2732.86 2.46872 1.06336 0
M  V30 29601 C 2731.13 3.34201 -1.26666 0
M  V30 29602 S 2732.69 4.24245 -1.12079 0
M  V30 29603 H 2729.5 0.651139 -0.28555 0
M  V30 29604 H 2732.11 1.40585 -1.35853 0
M  V30 29605 H 2730.81 3.38188 -2.32502 0
M  V30 29606 H 2730.34 3.87303 -0.689909 0
M  V30 29607 H 2732.36 4.96174 -0.0510213 0
M  V30 29608 N 2731.53 0.844266 1.33079 0
M  V30 29609 C 2732.46 0.296533 2.31609 0
M  V30 29610 C 2733.44 -0.598679 1.59216 0
M  V30 29611 O 2734.62 -0.521101 1.87078 0
M  V30 29612 C 2731.75 -0.524702 3.43314 0
M  V30 29613 C 2730.71 0.275181 4.27114 0
M  V30 29614 C 2730.03 -0.670143 5.30484 0
M  V30 29615 C 2731.33 1.49522 5.0044 0
M  V30 29616 H 2733.03 1.11981 2.7767 0
M  V30 29617 H 2730.57 0.539923 1.33495 0
M  V30 29618 H 2732.53 -0.918226 4.11274 0
M  V30 29619 H 2731.25 -1.38124 2.95955 0
M  V30 29620 H 2729.91 0.65033 3.60786 0
M  V30 29621 H 2729.56 -1.52324 4.79381 0
M  V30 29622 H 2729.26 -0.13902 5.87436 0
M  V30 29623 H 2730.78 -1.06107 6.0131 0
M  V30 29624 H 2732.2 1.17456 5.61139 0
M  V30 29625 H 2730.59 1.96353 5.67068 0
M  V30 29626 H 2731.66 2.2621 4.28902 0
M  V30 29627 N 2733.01 -1.45682 0.60121 0
M  V30 29628 C 2733.95 -2.32214 -0.133915 0
M  V30 29629 C 2734.95 -1.45591 -0.866008 0
M  V30 29630 O 2736.15 -1.62111 -0.782297 0
M  V30 29631 H 2732.53 -0.749436 -0.0620482 0
M  V30 29632 H 2734.5 -2.92005 0.61444 0
M  V30 29633 C 2733.25 -3.29096 -1.12211 0
M  V30 29634 H 2732.57 -3.95742 -0.568203 0
M  V30 29635 H 2734.01 -3.92386 -1.60653 0
M  V30 29636 C 2732.47 -2.55798 -2.19246 0
M  V30 29637 O 2733 -2.33464 -3.2689 0
M  V30 29638 N 2731.21 -2.16042 -1.94356 0
M  V30 29639 H 2730.75 -2.34406 -1.06825 0
M  V30 29640 H 2730.71 -1.67322 -2.66178 0
M  V30 29641 N 2734.48 -0.340009 -1.53889 0
M  V30 29642 C 2735.41 0.510816 -2.27844 0
M  V30 29643 C 2736.4 1.1056 -1.29269 0
M  V30 29644 O 2737.58 1.12766 -1.58106 0
M  V30 29645 C 2734.71 1.66367 -3.0486 0
M  V30 29646 C 2733.66 1.19739 -4.10909 0
M  V30 29647 C 2732.99 2.43848 -4.75859 0
M  V30 29648 C 2734.29 0.30041 -5.21435 0
M  V30 29649 H 2735.98 -0.10612 -2.99212 0
M  V30 29650 H 2733.53 -0.0524786 -1.43904 0
M  V30 29651 H 2735.48 2.26531 -3.55333 0
M  V30 29652 H 2734.21 2.30745 -2.31137 0
M  V30 29653 H 2732.87 0.618591 -3.61343 0
M  V30 29654 H 2732.51 3.06626 -3.98735 0
M  V30 29655 H 2732.21 2.13333 -5.47506 0
M  V30 29656 H 2733.74 3.04744 -5.29115 0
M  V30 29657 H 2735.15 0.80879 -5.67566 0
M  V30 29658 H 2733.55 0.0873021 -6.00036 0
M  V30 29659 H 2734.62 -0.664406 -4.80327 0
M  V30 29660 N 2735.96 1.57451 -0.0685468 0
M  V30 29661 C 2737.21 1.92984 0.600127 0
M  V30 29662 C 2737.53 0.949058 1.70346 0
M  V30 29663 O 2736.8 -0.00332204 1.959 0
M  V30 29664 H 2735.38 0.712413 0.22467 0
M  V30 29665 H 2738.04 1.94495 -0.125639 0
M  V30 29666 H 2737.14 2.947 1.02754 0
M  V30 29667 N 2737.44 -0.204984 1.56261 0
M  V30 29668 C 2738.67 -0.947479 1.84493 0
M  V30 29669 C 2739.09 -1.76478 0.650925 0
M  V30 29670 O 2738.45 -1.76825 -0.400319 0
M  V30 29671 C 2738.5 -1.82742 3.10866 0
M  V30 29672 O 2737.6 -2.92495 2.90724 0
M  V30 29673 H 2736.94 -0.267375 0.607788 0
M  V30 29674 H 2739.47 -0.213287 2.03485 0
M  V30 29675 H 2739.48 -2.23401 3.41403 0
M  V30 29676 H 2738.16 -1.22683 3.97394 0
M  V30 29677 H 2736.73 -2.55662 2.71461 0
M  V30 29678 N 2738.92 -1.50356 -0.472329 0
M  V30 29679 C 2740.14 -1.65311 -1.25248 0
M  V30 29680 C 2740.57 -0.335675 -1.85081 0
M  V30 29681 O 2739.93 0.700306 -1.67229 0
M  V30 29682 C 2739.98 -2.74548 -2.33785 0
M  V30 29683 O 2739.08 -2.35715 -3.38396 0
M  V30 29684 H 2738.42 -0.552343 -0.368529 0
M  V30 29685 H 2740.95 -1.96723 -0.562236 0
M  V30 29686 H 2740.96 -2.97587 -2.79116 0
M  V30 29687 H 2739.64 -3.70165 -1.89607 0
M  V30 29688 H 2738.21 -2.23118 -2.98786 0
M  V30 29689 N 2740.4 0.725419 -1.39912 0
M  V30 29690 C 2741.33 1.85252 -1.42141 0
M  V30 29691 C 2742.31 1.6772 -0.283542 0
M  V30 29692 O 2743.49 1.87897 -0.49075 0
M  V30 29693 C 2740.62 3.23105 -1.27359 0
M  V30 29694 C 2739.58 3.55291 -2.38646 0
M  V30 29695 C 2738.9 4.92184 -2.08947 0
M  V30 29696 C 2740.2 3.57288 -3.80976 0
M  V30 29697 H 2741.9 1.83644 -2.36464 0
M  V30 29698 H 2739.44 0.882118 -1.13819 0
M  V30 29699 H 2741.4 4.01637 -1.27537 0
M  V30 29700 H 2740.12 3.25264 -0.295083 0
M  V30 29701 H 2738.78 2.79094 -2.37701 0
M  V30 29702 H 2738.43 4.90934 -1.09511 0
M  V30 29703 H 2738.13 5.14686 -2.835 0
M  V30 29704 H 2739.65 5.73061 -2.10791 0
M  V30 29705 H 2741.07 4.25878 -3.83798 0
M  V30 29706 H 2739.46 3.91312 -4.54967 0
M  V30 29707 H 2740.53 2.56883 -4.11265 0
M  V30 29708 N 2741.88 1.25246 0.956615 0
M  V30 29709 C 2743.12 1.09659 1.69762 0
M  V30 29710 C 2743.44 -0.36343 1.91583 0
M  V30 29711 O 2742.71 -1.25823 1.50151 0
M  V30 29712 H 2741.29 0.402809 0.62909 0
M  V30 29713 H 2743.96 1.57339 1.15024 0
M  V30 29714 H 2743.05 1.60336 2.67766 0
M  V30 29715 N 2743.35 -1.15894 1.068 0
M  V30 29716 C 2744.58 -1.90981 0.808773 0
M  V30 29717 C 2745 -1.7718 -0.631568 0
M  V30 29718 O 2744.36 -1.10064 -1.44068 0
M  V30 29719 C 2744.41 -3.39524 1.21474 0
M  V30 29720 O 2743.51 -4.10855 0.356634 0
M  V30 29721 H 2742.85 -0.594806 0.29513 0
M  V30 29722 H 2745.38 -1.46801 1.42515 0
M  V30 29723 H 2745.39 -3.90306 1.18851 0
M  V30 29724 H 2744.07 -3.48888 2.26385 0
M  V30 29725 H 2742.65 -3.70237 0.444874 0
M  V30 29726 N 2744.83 -0.851312 -1.32629 0
M  V30 29727 C 2745.76 -0.308812 -2.31449 0
M  V30 29728 C 2746.74 0.590227 -1.59532 0
M  V30 29729 O 2747.93 0.511172 -1.87352 0
M  V30 29730 C 2745.06 0.506488 -3.43587 0
M  V30 29731 C 2744.01 -0.297828 -4.26963 0
M  V30 29732 C 2743.34 0.642001 -5.30832 0
M  V30 29733 C 2744.64 -1.52174 -4.9964 0
M  V30 29734 H 2746.33 -1.13452 -2.77072 0
M  V30 29735 H 2743.88 -0.546995 -1.33206 0
M  V30 29736 H 2745.83 0.896402 -4.11756 0
M  V30 29737 H 2744.55 1.36553 -2.96683 0
M  V30 29738 H 2743.21 -0.669455 -3.60436 0
M  V30 29739 H 2742.86 1.49779 -4.80182 0
M  V30 29740 H 2742.56 0.107865 -5.87501 0
M  V30 29741 H 2744.09 1.02916 -6.01864 0
M  V30 29742 H 2745.5 -1.20431 -5.60508 0
M  V30 29743 H 2743.9 -1.99357 -5.66018 0
M  V30 29744 H 2744.97 -2.28481 -4.27697 0
M  V30 29745 N 2746.31 1.45361 -0.608928 0
M  V30 29746 C 2747.59 1.95566 -0.0365721 0
M  V30 29747 C 2747.97 1.55134 1.43167 0
M  V30 29748 O 2747.31 0.814551 2.13488 0
M  V30 29749 C 2747.52 3.48201 -0.236087 0
M  V30 29750 C 2748.87 4.24437 -0.117593 0
M  V30 29751 O 2749.9 3.55812 -0.16628 0
M  V30 29752 O 2748.76 5.465 -0.00381733 0
M  V30 29753 H 2745.85 0.82626 0.0349729 0
M  V30 29754 H 2748.4 1.5552 -0.679083 0
M  V30 29755 H 2747.17 3.70603 -1.25575 0
M  V30 29756 H 2746.79 3.9514 0.441622 0
M  V30 29757 N 2747.79 0.348166 1.53706 0
M  V30 29758 C 2748.72 -0.540907 2.22726 0
M  V30 29759 C 2749.73 -1.06025 1.23541 0
M  V30 29760 O 2750.92 -0.969614 1.49869 0
M  V30 29761 C 2748.02 -1.75763 2.8976 0
M  V30 29762 C 2747.19 -1.37278 4.15299 0
M  V30 29763 C 2746.25 -2.44967 4.65701 0
M  V30 29764 O 2745.28 -2.08082 5.29802 0
M  V30 29765 N 2746.48 -3.76292 4.42023 0
M  V30 29766 H 2749.25 0.0502119 2.99658 0
M  V30 29767 H 2746.81 0.172508 1.60978 0
M  V30 29768 H 2748.8 -2.47247 3.20392 0
M  V30 29769 H 2747.37 -2.25601 2.16386 0
M  V30 29770 H 2746.59 -0.488515 3.91161 0
M  V30 29771 H 2747.88 -1.0917 4.9695 0
M  V30 29772 H 2747.28 -4.09044 3.90768 0
M  V30 29773 H 2745.83 -4.43932 4.7725 0
M  V30 29774 N 2749.27 -1.57412 0.0768958 0
M  V30 29775 C 2750.22 -2.09538 -0.898758 0
M  V30 29776 C 2751.2 -1.00622 -1.25555 0
M  V30 29777 O 2752.39 -1.26924 -1.23367 0
M  V30 29778 C 2749.52 -2.66468 -2.16448 0
M  V30 29779 C 2748.61 -3.82397 -1.83395 0
M  V30 29780 N 2749 -4.91159 -1.20814 0
M  V30 29781 C 2747.3 -3.91788 -2.13115 0
M  V30 29782 C 2748 -5.71967 -1.05966 0
M  V30 29783 N 2746.97 -5.20403 -1.57104 0
M  V30 29784 H 2750.77 -2.91017 -0.410667 0
M  V30 29785 H 2748.29 -1.61904 -0.126849 0
M  V30 29786 H 2750.29 -3.0213 -2.87268 0
M  V30 29787 H 2748.95 -1.86438 -2.6584 0
M  V30 29788 H 2749.96 -5.10418 -0.877159 0
M  V30 29789 H 2746.63 -3.22741 -2.64848 0
M  V30 29790 H 2748.02 -6.69463 -0.571692 0
M  V30 29791 N 2750.74 0.196695 -1.56368 0
M  V30 29792 C 2751.68 1.2678 -1.90943 0
M  V30 29793 C 2752.69 1.41791 -0.799953 0
M  V30 29794 O 2753.88 1.42245 -1.07836 0
M  V30 29795 C 2750.98 2.64017 -2.12482 0
M  V30 29796 C 2750.15 2.70635 -3.43621 0
M  V30 29797 C 2749.21 3.89056 -3.54291 0
M  V30 29798 O 2748.24 3.76233 -4.27126 0
M  V30 29799 N 2749.44 5.04442 -2.87261 0
M  V30 29800 H 2752.2 0.974367 -2.83419 0
M  V30 29801 H 2749.76 0.386621 -1.57216 0
M  V30 29802 H 2751.76 3.41661 -2.1691 0
M  V30 29803 H 2750.33 2.85855 -1.26513 0
M  V30 29804 H 2749.55 1.79277 -3.51075 0
M  V30 29805 H 2750.83 2.72047 -4.29963 0
M  V30 29806 H 2750.23 5.17758 -2.2791 0
M  V30 29807 H 2748.79 5.80039 -2.97318 0
M  V30 29808 N 2752.22 1.50604 0.464349 0
M  V30 29809 C 2753.47 1.6161 1.21353 0
M  V30 29810 C 2753.79 0.321677 1.92328 0
M  V30 29811 O 2753.06 -0.661199 1.84404 0
M  V30 29812 H 2751.64 0.595543 0.450929 0
M  V30 29813 H 2754.3 1.87413 0.535013 0
M  V30 29814 H 2753.4 2.43058 1.95779 0
M  V30 29815 N 2753.7 -0.717989 1.40295 0
M  V30 29816 C 2754.93 -1.51217 1.41944 0
M  V30 29817 C 2755.35 -1.88089 0.0202701 0
M  V30 29818 O 2754.71 -1.53102 -0.971051 0
M  V30 29819 C 2754.76 -2.7655 2.31415 0
M  V30 29820 O 2753.86 -3.73159 1.75574 0
M  V30 29821 H 2753.2 -0.456007 0.482652 0
M  V30 29822 H 2755.73 -0.884445 1.84496 0
M  V30 29823 H 2755.74 -3.25104 2.46518 0
M  V30 29824 H 2754.42 -2.49047 3.33089 0
M  V30 29825 H 2752.99 -3.31996 1.69804 0
M  V30 29826 N 2755.18 -1.25752 -0.94996 0
M  V30 29827 C 2756.11 -1.02334 -2.05086 0
M  V30 29828 C 2757.12 0.0132961 -1.62795 0
M  V30 29829 O 2758.31 -0.22579 -1.77066 0
M  V30 29830 C 2755.41 -0.525982 -3.34793 0
M  V30 29831 C 2754.59 -1.62985 -4.059 0
M  V30 29832 C 2753.64 -1.13205 -5.13878 0
M  V30 29833 O 2752.67 -1.82739 -5.39069 0
M  V30 29834 N 2753.87 0.0241906 -5.80495 0
M  V30 29835 H 2756.64 -1.97129 -2.25744 0
M  V30 29836 H 2754.2 -1.1702 -1.11884 0
M  V30 29837 H 2756.19 -0.177335 -4.04311 0
M  V30 29838 H 2754.76 0.328147 -3.10873 0
M  V30 29839 H 2753.98 -2.14986 -3.30416 0
M  V30 29840 H 2755.27 -2.37132 -4.50162 0
M  V30 29841 H 2754.67 0.605085 -5.62455 0
M  V30 29842 H 2753.22 0.313832 -6.51044 0
M  V30 29843 N 2756.66 1.15326 -1.07413 0
M  V30 29844 C 2757.57 2.2371 -0.706477 0
M  V30 29845 C 2758.58 1.7169 0.282556 0
M  V30 29846 O 2759.76 2.00986 0.129031 0
M  V30 29847 C 2756.82 3.46524 -0.110541 0
M  V30 29848 C 2755.88 4.1353 -1.15289 0
M  V30 29849 C 2755.12 5.30481 -0.585299 0
M  V30 29850 O 2755.34 5.67252 0.598449 0
M  V30 29851 O 2754.27 5.87011 -1.33049 0
M  V30 29852 H 2758.1 2.5749 -1.61035 0
M  V30 29853 H 2755.69 1.23061 -0.847135 0
M  V30 29854 H 2757.57 4.20828 0.219496 0
M  V30 29855 H 2756.24 3.1449 0.766648 0
M  V30 29856 H 2755.15 3.41144 -1.53529 0
M  V30 29857 H 2756.48 4.49645 -2.002 0
M  V30 29858 N 2758.13 0.858334 1.32176 0
M  V30 29859 C 2759.36 0.477617 2.01312 0
M  V30 29860 C 2759.78 -0.926707 1.64492 0
M  V30 29861 O 2759.13 -1.6053 0.868124 0
M  V30 29862 C 2759.19 0.6114 3.56292 0
M  V30 29863 O 2758.91 1.96041 3.9179 0
M  V30 29864 C 2760.41 0.230171 4.42702 0
M  V30 29865 H 2757.63 0.187333 0.644319 0
M  V30 29866 H 2760.17 1.15629 1.68672 0
M  V30 29867 H 2758.33 -0.0195813 3.87395 0
M  V30 29868 H 2758.74 1.95982 4.86509 0
M  V30 29869 H 2760.21 0.37477 5.50726 0
M  V30 29870 H 2760.69 -0.829704 4.31292 0
M  V30 29871 H 2761.3 0.836375 4.16995 0
M  V30 29872 N 2759.61 -1.45036 0.616628 0
M  V30 29873 C 2760.54 -2.33349 -0.0840377 0
M  V30 29874 C 2761.52 -1.47362 -0.849615 0
M  V30 29875 O 2762.71 -1.76114 -0.818376 0
M  V30 29876 C 2759.84 -3.30212 -1.07599 0
M  V30 29877 C 2758.79 -4.25904 -0.423021 0
M  V30 29878 C 2758.12 -5.12526 -1.52385 0
M  V30 29879 C 2759.42 -5.18093 0.661549 0
M  V30 29880 H 2761.11 -2.92184 0.653385 0
M  V30 29881 H 2758.66 -1.40498 0.315658 0
M  V30 29882 H 2760.61 -3.90869 -1.57479 0
M  V30 29883 H 2759.34 -2.69555 -1.84412 0
M  V30 29884 H 2757.99 -3.66559 0.0549944 0
M  V30 29885 H 2757.64 -4.48231 -2.28249 0
M  V30 29886 H 2757.34 -5.77356 -1.09241 0
M  V30 29887 H 2758.87 -5.76052 -2.02474 0
M  V30 29888 H 2760.28 -5.7277 0.246453 0
M  V30 29889 H 2758.68 -5.91449 1.01527 0
M  V30 29890 H 2759.75 -4.59978 1.53454 0
M  V30 29891 N 2761.09 -0.356312 -1.53519 0
M  V30 29892 C 2762.34 0.237338 -2.00299 0
M  V30 29893 C 2762.65 1.50625 -1.24786 0
M  V30 29894 O 2763.86 2.17793 -1.62107 0
M  V30 29895 C 2762.31 0.473482 -3.56772 0
M  V30 29896 C 2761.92 -0.780261 -4.41153 0
M  V30 29897 C 2763.67 1.02529 -4.11932 0
M  V30 29898 C 2761.57 -0.514211 -5.8916 0
M  V30 29899 H 2760.5 0.0924649 -0.748309 0
M  V30 29900 H 2763.15 -0.473619 -1.77283 0
M  V30 29901 H 2761.54 1.24547 -3.75904 0
M  V30 29902 H 2762.71 -1.55433 -4.33794 0
M  V30 29903 H 2761.03 -1.25462 -3.97049 0
M  V30 29904 H 2763.62 1.23951 -5.20135 0
M  V30 29905 H 2763.97 1.98467 -3.65946 0
M  V30 29906 H 2764.5 0.313705 -3.96561 0
M  V30 29907 H 2761.24 -1.44366 -6.39405 0
M  V30 29908 H 2760.76 0.221527 -5.99391 0
M  V30 29909 H 2762.44 -0.136236 -6.46857 0
M  V30 29910 N 2762.57 1.57369 -0.0852427 0
M  V30 29911 C 2763.98 1.81309 0.445397 0
M  V30 29912 C 2764.33 1.00016 1.68794 0
M  V30 29913 O 2763.46 0.226611 2.1521 0
M  V30 29914 C 2764.05 3.28856 0.814829 0
M  V30 29915 C 2762.61 3.53595 1.29026 0
M  V30 29916 C 2761.76 2.75862 0.28204 0
M  V30 29917 H 2764.71 1.55627 -0.310799 0
M  V30 29918 H 2764.73 3.4164 1.67518 0
M  V30 29919 H 2764.24 3.87996 -0.0896991 0
M  V30 29920 H 2762.34 2.99774 2.21284 0
M  V30 29921 H 2762.45 4.62265 1.2589 0
M  V30 29922 H 2760.82 2.4303 0.762139 0
M  V30 29923 H 2761.6 3.37747 -0.614995 0
M  V30 29924 N 2764.05 -0.188399 1.5647 0
M  V30 29925 C 2765.46 -0.752464 1.70865 0
M  V30 29926 C 2765.81 -1.83556 0.692938 0
M  V30 29927 O 2764.93 -2.15885 -0.149269 0
M  V30 29928 C 2765.53 -1.37168 3.09791 0
M  V30 29929 C 2764.09 -1.88275 3.25929 0
M  V30 29930 C 2763.23 -0.755212 2.66818 0
M  V30 29931 H 2766.19 0.0367687 1.58657 0
M  V30 29932 H 2766.21 -2.24117 3.07493 0
M  V30 29933 H 2765.72 -0.583151 3.83694 0
M  V30 29934 H 2763.82 -2.69826 2.56953 0
M  V30 29935 H 2763.93 -2.03994 4.33501 0
M  V30 29936 H 2762.3 -1.17124 2.26172 0
M  V30 29937 H 2763.08 0.0211841 3.43293 0
M  V30 29938 N 2765.53 -1.50848 -0.456355 0
M  V30 29939 C 2766.94 -1.38601 -0.791321 0
M  V30 29940 C 2767.14 -0.453533 -1.9633 0
M  V30 29941 O 2766.2 0.098391 -2.52308 0
M  V30 29942 C 2767.51 -2.80267 -1.08954 0
M  V30 29943 C 2769.06 -2.89285 -1.19512 0
M  V30 29944 C 2769.53 -4.31816 -1.52639 0
M  V30 29945 N 2771.02 -4.34835 -1.59601 0
M  V30 29946 C 2771.76 -5.4213 -1.86768 0
M  V30 29947 N 2771.26 -6.59613 -2.11855 0
M  V30 29948 N 2773.05 -5.29589 -1.88392 0
M  V30 29949 H 2765.2 -2.10039 0.315783 0
M  V30 29950 H 2767.46 -0.944719 0.0788082 0
M  V30 29951 H 2767.17 -3.50407 -0.301294 0
M  V30 29952 H 2767.04 -3.18423 -2.02205 0
M  V30 29953 H 2769.43 -2.19354 -1.97402 0
M  V30 29954 H 2769.51 -2.54652 -0.242066 0
M  V30 29955 H 2769.15 -5.0229 -0.752833 0
M  V30 29956 H 2769.08 -4.63947 -2.49119 0
M  V30 29957 H 2771.58 -3.50127 -1.42194 0
M  V30 29958 H 2771.89 -7.37186 -2.31899 0
M  V30 29959 H 2770.23 -6.62762 -2.09216 0
M  V30 29960 H 2773.42 -4.36798 -1.683 0
M  V30 29961 H 2773.6 -6.13293 -2.09227 0
M  V30 29962 N 2767 0.710538 -1.40674 0
M  V30 29963 C 2767.93 1.83734 -1.44098 0
M  V30 29964 C 2768.91 1.6741 -0.301315 0
M  V30 29965 O 2770.1 1.87366 -0.510651 0
M  V30 29966 C 2767.23 3.21736 -1.30779 0
M  V30 29967 C 2766.18 3.5274 -2.42401 0
M  V30 29968 C 2765.51 4.8994 -2.14156 0
M  V30 29969 C 2766.81 3.53227 -3.84744 0
M  V30 29970 H 2768.5 1.81125 -2.38399 0
M  V30 29971 H 2766.05 0.869996 -1.14748 0
M  V30 29972 H 2768 4.00262 -1.3179 0
M  V30 29973 H 2766.73 3.24933 -0.329565 0
M  V30 29974 H 2765.39 2.76558 -2.40648 0
M  V30 29975 H 2765.03 4.89745 -1.14712 0
M  V30 29976 H 2764.73 5.1165 -2.88943 0
M  V30 29977 H 2766.26 5.70793 -2.16858 0
M  V30 29978 H 2767.67 4.21783 -3.88293 0
M  V30 29979 H 2766.07 3.86465 -4.59091 0
M  V30 29980 H 2767.14 2.52506 -4.13967 0
M  V30 29981 O 2768.52 1.37181 0.852276 0
M  V30 29982 H 2769.21 1.23428 1.49282 0
M  V30 END ATOM
M  V30 BEGIN BOND
M  V30 END BOND
M  V30 END CTAB
M  END
$$$$
