drugbank_target|Q9X6W0 Penicillin-binding protein 1B (DB00430; DB00438; DB01329; DB09050; DB14879)
 OpenBabel12092120363D

  0  0  0     0  0            999 V3000
M  V30 BEGIN CTAB
M  V30 COUNTS 12042 12173 0 0 0
M  V30 BEGIN ATOM
M  V30 1 H -0.908 1.98254 -0.117106 0
M  V30 2 N 0 1.576 0 0
M  V30 3 C 0.933 2.03868 1.02534 0
M  V30 4 C 1.911 0.928543 1.3348 0
M  V30 5 O 3.095 1.19667 1.45644 0
M  V30 6 C 0.222 2.43627 2.35294 0
M  V30 7 C -0.732 3.65373 2.2001 0
M  V30 8 S 0.101 5.13292 1.52614 0
M  V30 9 C 1.257 5.56322 2.86805 0
M  V30 10 H 1.49 2.90518 0.631377 0
M  V30 11 H -0.977 1.52953 0.210867 0
M  V30 12 H 0.981 2.67203 3.11629 0
M  V30 13 H -0.358 1.57376 2.7183 0
M  V30 14 H -1.165 3.90944 3.18086 0
M  V30 15 H -1.563 3.418 1.51819 0
M  V30 16 H 0.729 5.58782 3.83104 0
M  V30 17 H 1.672 6.56266 2.65933 0
M  V30 18 H 2.08 4.83886 2.90714 0
M  V30 19 N 1.4781 -0.272755 1.55222 0
M  V30 20 C 2.7061 -1.02255 1.79865 0
M  V30 21 C 3.1211 -1.79924 0.572088 0
M  V30 22 O 2.4781 -1.76638 -0.458842 0
M  V30 23 C 2.5291 -1.98094 3.02392 0
M  V30 24 O 2.2501 -1.23572 4.20311 0
M  V30 25 C 3.7511 -2.84884 3.39641 0
M  V30 26 H 0.9711 -0.302057 0.599168 0
M  V30 27 H 3.5151 -0.303465 2.02236 0
M  V30 28 H 1.6701 -2.65465 2.82147 0
M  V30 29 H 2.0841 -1.88172 4.89583 0
M  V30 30 H 3.5581 -3.47927 4.28545 0
M  V30 31 H 4.0351 -3.54665 2.59055 0
M  V30 32 H 4.6411 -2.23003 3.62146 0
M  V30 33 N 2.9562 -1.48159 -0.537278 0
M  V30 34 C 4.3722 -1.34118 -0.865129 0
M  V30 35 C 4.5722 -0.346678 -1.98495 0
M  V30 36 O 3.6282 0.234715 -2.51407 0
M  V30 37 C 4.9412 -2.73963 -1.23954 0
M  V30 38 C 6.4892 -2.82397 -1.34984 0
M  V30 39 C 6.9642 -4.22928 -1.75772 0
M  V30 40 N 8.4552 -4.25566 -1.82887 0
M  V30 41 C 9.1902 -5.31235 -2.15817 0
M  V30 42 N 8.6862 -6.47189 -2.47222 0
M  V30 43 N 10.4792 -5.18624 -2.16761 0
M  V30 44 H 2.6302 -2.1144 0.201715 0
M  V30 45 H 4.8932 -0.947598 0.0275949 0
M  V30 46 H 4.5992 -3.48264 -0.490381 0
M  V30 47 H 4.4732 -3.0702 -2.19132 0
M  V30 48 H 6.8602 -2.08356 -2.08978 0
M  V30 49 H 6.9412 -2.5297 -0.379448 0
M  V30 50 H 6.5852 -4.97482 -1.02341 0
M  V30 51 H 6.5152 -4.49794 -2.73848 0
M  V30 52 H 9.0062 -3.41924 -1.60924 0
M  V30 53 H 9.3192 -7.23564 -2.71433 0
M  V30 54 H 7.6642 -6.50476 -2.44757 0
M  V30 55 H 10.8552 -4.27056 -1.91679 0
M  V30 56 H 11.0282 -6.01078 -2.42093 0
M  V30 57 N 4.4343 0.785586 -1.36625 0
M  V30 58 C 5.8453 1.36101 -1.27803 0
M  V30 59 C 6.1963 1.96035 0.0804875 0
M  V30 60 O 5.3213 1.92834 0.982042 0
M  V30 61 C 5.9163 2.47442 -2.31426 0
M  V30 62 C 4.4753 3.00789 -2.26281 0
M  V30 63 C 3.6223 1.73896 -2.15999 0
M  V30 64 H 6.5733 0.586928 -1.47448 0
M  V30 65 H 6.5943 3.2656 -1.95291 0
M  V30 66 H 6.1063 2.03791 -3.30289 0
M  V30 67 H 4.2073 3.48851 -1.30896 0
M  V30 68 H 4.3203 3.57343 -3.19128 0
M  V30 69 H 2.6843 1.9628 -1.62316 0
M  V30 70 H 3.4673 1.32368 -3.16755 0
M  V30 71 N 5.9124 1.20967 1.01018 0
M  V30 72 C 7.3284 0.965905 1.27053 0
M  V30 73 C 7.5284 -0.350785 1.98423 0
M  V30 74 O 6.5844 -1.07773 2.28344 0
M  V30 75 C 7.8974 2.15294 2.09926 0
M  V30 76 C 9.4454 2.19463 2.23171 0
M  V30 77 C 9.9204 3.3767 3.09424 0
M  V30 78 N 11.4114 3.37724 3.17012 0
M  V30 79 C 12.1464 4.25837 3.83993 0
M  V30 80 N 11.6424 5.24138 4.53047 0
M  V30 81 N 13.4354 4.1366 3.80581 0
M  V30 82 H 5.5864 2.0565 0.531194 0
M  V30 83 H 7.8494 0.90024 0.297106 0
M  V30 84 H 7.5554 3.10684 1.64828 0
M  V30 85 H 7.4294 2.13923 3.10672 0
M  V30 86 H 9.8164 1.24632 2.6749 0
M  V30 87 H 9.8974 2.2488 1.21912 0
M  V30 88 H 9.5414 4.32791 2.65808 0
M  V30 89 H 9.4714 3.29491 4.10784 0
M  V30 90 H 11.9624 2.6658 2.6785 0
M  V30 91 H 12.2754 5.87684 5.01844 0
M  V30 92 H 10.6204 5.28068 4.5185 0
M  V30 93 H 13.8114 3.36127 3.25785 0
M  V30 94 H 13.9844 4.82538 4.32505 0
M  V30 95 N 7.3905 -1.2043 1.01659 0
M  V30 96 C 8.6155 -1.94318 0.724942 0
M  V30 97 C 9.0405 -1.74266 -0.708034 0
M  V30 98 O 8.3985 -1.03694 -1.48719 0
M  V30 99 C 8.4465 -3.44486 1.06591 0
M  V30 100 O 7.5505 -4.12017 0.177599 0
M  V30 101 H 6.8915 -0.60708 0.26898 0
M  V30 102 H 9.4215 -1.52861 1.35995 0
M  V30 103 H 9.4315 -3.95106 1.01762 0
M  V30 104 H 8.1065 -3.58404 2.10997 0
M  V30 105 H 6.6835 -3.71821 0.283421 0
M  V30 106 N 8.8686 -0.792821 -1.36206 0
M  V30 107 C 10.2796 -0.429513 -1.81692 0
M  V30 108 C 10.6306 1.04695 -1.65932 0
M  V30 109 O 9.7556 1.81256 -1.18218 0
M  V30 110 C 10.3506 -0.772831 -3.29868 0
M  V30 111 C 8.9096 -0.462307 -3.7355 0
M  V30 112 C 8.0566 -1.00569 -2.5842 0
M  V30 113 H 11.0076 -0.985672 -1.24379 0
M  V30 114 H 11.0286 -0.0651928 -3.80444 0
M  V30 115 H 10.5406 -1.84747 -3.41307 0
M  V30 116 H 8.6416 0.604158 -3.67669 0
M  V30 117 H 8.7546 -0.985299 -4.68859 0
M  V30 118 H 7.1186 -0.428734 -2.51066 0
M  V30 119 H 7.9016 -2.08616 -2.72643 0
M  V30 120 N 10.3467 1.47872 -0.545128 0
M  V30 121 C 11.7627 1.5829 -0.204032 0
M  V30 122 C 11.9627 1.54529 1.29317 0
M  V30 123 O 11.0187 1.44232 2.07252 0
M  V30 124 C 12.3317 2.89304 -0.819987 0
M  V30 125 C 13.8797 3.02864 -0.790105 0
M  V30 126 C 14.3547 4.3656 -1.38491 0
M  V30 127 N 15.8457 4.43165 -1.34755 0
M  V30 128 C 16.5807 5.45153 -1.77753 0
M  V30 129 N 16.0767 6.54016 -2.2855 0
M  V30 130 N 17.8697 5.36125 -1.68897 0
M  V30 131 H 10.0207 1.4856 -1.51802 0
M  V30 132 H 12.2837 0.706305 -0.632327 0
M  V30 133 H 11.9897 2.97757 -1.87173 0
M  V30 134 H 11.8637 3.75957 -0.305915 0
M  V30 135 H 14.2507 2.94014 0.252913 0
M  V30 136 H 14.3317 2.17782 -1.34181 0
M  V30 137 H 13.9757 4.46164 -2.42693 0
M  V30 138 H 13.9057 5.20353 -0.808754 0
M  V30 139 H 16.3967 3.65083 -0.975855 0
M  V30 140 H 16.7097 7.27994 -2.59314 0
M  V30 141 H 15.0547 6.54938 -2.32553 0
M  V30 142 H 18.2457 4.49975 -1.28998 0
M  V30 143 H 18.4187 6.15472 -2.02726 0
M  V30 144 N 11.8248 0.280983 1.55075 0
M  V30 145 C 13.0498 -0.340154 2.04592 0
M  V30 146 C 13.4748 -1.48246 1.15779 0
M  V30 147 O 12.8328 -1.80614 0.15761 0
M  V30 148 C 12.8808 -0.793104 3.5177 0
M  V30 149 O 11.9848 -1.89981 3.66034 0
M  V30 150 H 11.3258 -0.0694289 0.66036 0
M  V30 151 H 13.8558 0.416993 2.00306 0
M  V30 152 H 13.8658 -1.08729 3.93245 0
M  V30 153 H 12.5408 0.0426163 4.15878 0
M  V30 154 H 11.1178 -1.60771 3.36463 0
M  V30 155 N 13.3029 -1.57598 0.00835791 0
M  V30 156 C 14.7189 -1.55764 -0.347822 0
M  V30 157 C 14.9189 -1.01186 -1.74252 0
M  V30 158 O 13.9749 -0.649371 -2.44007 0
M  V30 159 C 15.2879 -2.99927 -0.215407 0
M  V30 160 C 16.8359 -3.11656 -0.289725 0
M  V30 161 C 17.3109 -4.57621 -0.18634 0
M  V30 162 N 18.8019 -4.62557 -0.243978 0
M  V30 163 C 19.5369 -5.73094 -0.18745 0
M  V30 164 N 19.0329 -6.92753 -0.0810331 0
M  V30 165 N 20.8259 -5.61588 -0.239925 0
M  V30 166 H 12.9769 -1.91411 0.92062 0
M  V30 167 H 15.2399 -0.879562 0.353659 0
M  V30 168 H 14.9459 -3.43729 0.744512 0
M  V30 169 H 14.8199 -3.63865 -0.994097 0
M  V30 170 H 17.2069 -2.67779 -1.24009 0
M  V30 171 H 17.2879 -2.5048 0.51898 0
M  V30 172 H 16.9319 -5.02174 0.760519 0
M  V30 173 H 16.8619 -5.16752 -1.01364 0
M  V30 174 H 19.3529 -3.76481 -0.327217 0
M  V30 175 H 19.6659 -7.72787 -0.0440241 0
M  V30 176 H 18.0109 -6.94984 -0.0465419 0
M  V30 177 H 21.2019 -4.66996 -0.321317 0
M  V30 178 H 21.3749 -6.47714 -0.192407 0
M  V30 179 N 14.781 0.264519 -1.55364 0
M  V30 180 C 15.729 1.34702 -1.89626 0
M  V30 181 C 16.723 1.50712 -0.773459 0
M  V30 182 O 17.929 1.52395 -0.957897 0
M  V30 183 H 14.304 0.450682 -0.601988 0
M  V30 184 H 16.275 1.0306 -2.80038 0
M  V30 185 C 15.024 2.6989 -2.19214 0
M  V30 186 H 14.347 2.58365 -3.05103 0
M  V30 187 H 15.787 3.44553 -2.47102 0
M  V30 188 C 14.246 3.21637 -1.00254 0
M  V30 189 O 14.776 4.00973 -0.241501 0
M  V30 190 N 12.982 2.7943 -0.797938 0
M  V30 191 H 12.529 2.15026 -1.4185 0
M  V30 192 H 12.487 3.144 -0.00363422 0
M  V30 193 N 16.2591 1.48442 0.529413 0
M  V30 194 C 17.4841 1.60406 1.31471 0
M  V30 195 C 17.9091 0.264738 1.86228 0
M  V30 196 O 17.2671 -0.763668 1.64432 0
M  V30 197 C 17.3151 2.65419 2.44101 0
M  V30 198 O 16.4191 2.22618 3.47153 0
M  V30 199 H 15.7601 0.537863 0.389357 0
M  V30 200 H 18.2901 1.94432 0.636965 0
M  V30 201 H 18.3001 2.86709 2.90279 0
M  V30 202 H 16.9751 3.62652 2.03608 0
M  V30 203 H 15.5521 2.11543 3.0709 0
M  V30 204 N 17.7372 -0.778329 1.37039 0
M  V30 205 C 18.6842 -1.89139 1.32269 0
M  V30 206 C 19.6542 -1.65017 0.189387 0
M  V30 207 O 20.8392 -1.87024 0.377693 0
M  V30 208 C 17.9792 -3.26112 1.12894 0
M  V30 209 C 17.0922 -3.62233 2.35396 0
M  V30 210 C 16.2272 -4.8838 2.08946 0
M  V30 211 C 15.2662 -5.17212 3.2735 0
M  V30 212 N 14.4032 -6.34546 3.00492 0
M  V30 213 H 19.2432 -1.92552 2.27437 0
M  V30 214 H 16.7802 -0.941473 1.13025 0
M  V30 215 H 18.7382 -4.05116 0.996835 0
M  V30 216 H 17.3682 -3.22091 0.213758 0
M  V30 217 H 16.4202 -2.78265 2.5937 0
M  V30 218 H 17.7322 -3.79481 3.23721 0
M  V30 219 H 16.8862 -5.75274 1.92729 0
M  V30 220 H 15.6252 -4.73222 1.17949 0
M  V30 221 H 14.6302 -4.28796 3.44113 0
M  V30 222 H 15.8552 -5.34283 4.19188 0
M  V30 223 H 13.8012 -6.20759 2.12118 0
M  V30 224 H 13.7182 -6.52179 3.82358 0
M  V30 225 H 14.9862 -7.24394 2.87879 0
M  V30 226 N 19.2153 -1.21501 -1.00376 0
M  V30 227 C 20.1783 -0.976927 -2.07337 0
M  V30 228 C 21.1783 0.0525322 -1.60714 0
M  V30 229 O 22.3683 -0.184869 -1.73216 0
M  V30 230 C 19.5003 -0.473423 -3.37597 0
M  V30 231 H 20.6933 -1.92587 -2.29892 0
M  V30 232 H 18.2463 -1.03217 -1.17371 0
M  V30 233 H 18.9813 0.480379 -3.20722 0
M  V30 234 H 18.7663 -1.216 -3.72768 0
M  V30 235 H 20.2563 -0.32675 -4.1632 0
M  V30 236 N 20.6934 1.19889 -1.02296 0
M  V30 237 C 22.1094 1.41462 -0.738954 0
M  V30 238 C 22.3094 1.89721 0.678846 0
M  V30 239 O 21.3654 2.07016 1.4457 0
M  V30 240 C 22.6784 2.43083 -1.77005 0
M  V30 241 C 24.2264 2.5684 -1.78892 0
M  V30 242 C 24.7014 3.61709 -2.80945 0
M  V30 243 N 26.1924 3.69199 -2.79725 0
M  V30 244 C 26.9274 4.50019 -3.55345 0
M  V30 245 N 26.4234 5.34592 -4.40662 0
M  V30 246 N 28.2164 4.44612 -3.43914 0
M  V30 247 H 20.3674 0.868827 -1.93817 0
M  V30 248 H 22.6304 0.44399 -0.837602 0
M  V30 249 H 22.3364 2.14636 -2.78612 0
M  V30 250 H 22.2104 3.4217 -1.58744 0
M  V30 251 H 24.5974 2.84614 -0.779674 0
M  V30 252 H 24.6784 1.57927 -2.01228 0
M  V30 253 H 24.3224 3.34678 -3.82038 0
M  V30 254 H 24.2524 4.60259 -2.5587 0
M  V30 255 H 26.7434 3.08794 -2.17842 0
M  V30 256 H 27.0564 5.93363 -4.95116 0
M  V30 257 H 25.4014 5.34073 -4.44737 0
M  V30 258 H 28.5924 3.7758 -2.76679 0
M  V30 259 H 28.7654 5.0736 -4.031 0
M  V30 260 N 22.1715 0.800033 1.35784 0
M  V30 261 C 23.5825 0.439142 1.81462 0
M  V30 262 C 23.9335 -1.03813 1.66485 0
M  V30 263 O 23.0585 -1.80626 1.19177 0
M  V30 264 C 23.6535 0.790314 3.29453 0
M  V30 265 C 22.2125 0.482111 3.733 0
M  V30 266 C 21.3595 1.01938 2.57883 0
M  V30 267 H 24.3105 0.992254 1.23855 0
M  V30 268 H 24.3315 0.0853677 3.80404 0
M  V30 269 H 23.8435 1.86554 3.40322 0
M  V30 270 H 21.9445 -0.584652 3.67984 0
M  V30 271 H 22.0575 1.01015 4.6833 0
M  V30 272 H 20.4215 0.442043 2.50835 0
M  V30 273 H 21.2045 2.10059 2.71533 0
M  V30 274 N 23.6496 -1.47581 0.552962 0
M  V30 275 C 24.6126 -2.28439 -0.186605 0
M  V30 276 C 25.6126 -1.36706 -0.84665 0
M  V30 277 O 26.8026 -1.59378 -0.703164 0
M  V30 278 C 23.9346 -3.16264 -1.2724 0
M  V30 279 H 25.1276 -2.95294 0.523609 0
M  V30 280 H 22.6806 -1.532 0.309745 0
M  V30 281 H 23.4156 -2.54091 -2.01514 0
M  V30 282 H 23.2006 -3.83769 -0.803968 0
M  V30 283 H 24.6906 -3.77198 -1.79196 0
M  V30 284 N 25.1277 -0.289203 -1.54924 0
M  V30 285 C 26.5387 0.205791 -1.85562 0
M  V30 286 C 26.8897 1.54351 -1.2112 0
M  V30 287 O 26.0147 2.10435 -0.504601 0
M  V30 288 C 26.6097 0.380177 -3.3666 0
M  V30 289 C 25.1687 0.819395 -3.67373 0
M  V30 290 C 24.3157 -0.079159 -2.77187 0
M  V30 291 H 27.2667 -0.510577 -1.50262 0
M  V30 292 H 27.2877 1.21659 -3.60526 0
M  V30 293 H 26.7997 -0.593589 -3.83534 0
M  V30 294 H 24.9007 1.80413 -3.26009 0
M  V30 295 H 25.0137 0.646957 -4.74712 0
M  V30 296 H 23.3777 0.439565 -2.50878 0
M  V30 297 H 24.1607 -1.04906 -3.26878 0
M  V30 298 N 26.6058 1.57591 -0.0167156 0
M  V30 299 C 27.8538 1.90906 0.663285 0
M  V30 300 C 28.1748 0.892509 1.73376 0
M  V30 301 O 27.4448 -0.0677623 1.95783 0
M  V30 302 H 26.0248 0.704637 0.247983 0
M  V30 303 H 28.6868 1.94803 -0.0615909 0
M  V30 304 H 27.7828 2.9116 1.12393 0
M  V30 305 N 28.0839 -0.256276 1.55502 0
M  V30 306 C 29.0139 -1.32102 1.92539 0
M  V30 307 C 29.9949 -1.50684 0.789194 0
M  V30 308 O 31.1799 -1.63449 1.04872 0
M  V30 309 C 28.3099 -2.67752 2.21192 0
M  V30 310 C 27.2639 -2.63878 3.36975 0
M  V30 311 C 26.5899 -4.03236 3.51147 0
M  V30 312 C 27.8899 -2.21682 4.72921 0
M  V30 313 H 29.5839 -1.01351 2.81724 0
M  V30 314 H 27.1299 -0.486105 1.35547 0
M  V30 315 H 29.0829 -3.42365 2.45691 0
M  V30 316 H 27.8069 -3.0012 1.28824 0
M  V30 317 H 26.4659 -1.91722 3.12471 0
M  V30 318 H 26.1139 -4.32854 2.56216 0
M  V30 319 H 25.8139 -4.01535 4.29003 0
M  V30 320 H 27.3379 -4.79563 3.77957 0
M  V30 321 H 28.7519 -2.86023 4.96854 0
M  V30 322 H 27.1489 -2.3111 5.53812 0
M  V30 323 H 28.2189 -1.16833 4.70615 0
M  V30 324 N 29.562 -1.4872 -0.521534 0
M  V30 325 C 30.51 -1.64328 -1.64618 0
M  V30 326 C 31.504 -0.50953 -1.61555 0
M  V30 327 O 32.71 -0.688525 -1.66311 0
M  V30 328 H 29.085 -0.517805 -0.545328 0
M  V30 329 H 31.056 -2.58767 -1.48601 0
M  V30 330 C 29.805 -1.70805 -3.02855 0
M  V30 331 H 29.128 -2.5741 -3.05909 0
M  V30 332 H 30.568 -1.85766 -3.81139 0
M  V30 333 C 29.027 -0.448479 -3.33902 0
M  V30 334 O 29.557 0.434928 -3.99339 0
M  V30 335 N 27.763 -0.317616 -2.88859 0
M  V30 336 H 27.31 -1.03748 -2.35784 0
M  V30 337 H 27.268 0.524113 -3.10001 0
M  V30 338 N 31.0401 0.771051 -1.3745 0
M  V30 339 C 31.9871 1.88435 -1.3327 0
M  V30 340 C 32.9571 1.64914 -0.198136 0
M  V30 341 O 34.1421 1.86821 -0.387606 0
M  V30 342 C 31.2821 3.25509 -1.14622 0
M  V30 343 C 30.3951 3.60979 -2.37314 0
M  V30 344 C 29.5301 4.87265 -2.11533 0
M  V30 345 C 28.5691 5.15469 -3.30088 0
M  V30 346 N 27.7061 6.32944 -3.03853 0
M  V30 347 H 32.5461 1.91344 -2.28455 0
M  V30 348 H 30.0831 0.935466 -1.13523 0
M  V30 349 H 32.0411 4.04582 -1.01831 0
M  V30 350 H 30.6711 3.21974 -0.230837 0
M  V30 351 H 29.7231 2.76885 -2.60842 0
M  V30 352 H 31.0351 3.77759 -3.25729 0
M  V30 353 H 30.1891 5.74244 -1.95777 0
M  V30 354 H 28.9281 4.7259 -1.20457 0
M  V30 355 H 27.9331 4.26966 -3.46382 0
M  V30 356 H 29.1581 5.32052 -4.22016 0
M  V30 357 H 27.1041 6.19625 -2.15407 0
M  V30 358 H 27.0211 6.50143 -3.85812 0
M  V30 359 H 28.2891 7.22857 -2.91716 0
M  V30 360 N 32.5182 1.22032 0.997298 0
M  V30 361 C 33.7642 1.05382 1.73972 0
M  V30 362 C 34.1192 -0.407419 1.88037 0
M  V30 363 O 33.4122 -1.29811 1.40924 0
M  V30 364 C 33.6062 1.69345 3.14733 0
M  V30 365 C 33.4352 3.21537 3.14395 0
M  V30 366 C 32.2052 3.9062 3.20537 0
M  V30 367 C 34.4032 4.18527 2.98897 0
M  V30 368 N 32.3852 5.29935 3.09906 0
M  V30 369 C 33.7562 5.44645 2.96247 0
M  V30 370 C 35.8112 4.09476 2.83255 0
M  V30 371 C 34.5142 6.62752 2.79557 0
M  V30 372 C 36.5402 5.27228 2.67926 0
M  V30 373 C 35.9022 6.52262 2.65959 0
M  V30 374 H 32.0012 0.440018 0.646458 0
M  V30 375 H 34.5852 1.54505 1.18475 0
M  V30 376 H 32.7562 1.22778 3.68484 0
M  V30 377 H 34.4882 1.45828 3.77513 0
M  V30 378 H 31.2432 3.41592 3.28043 0
M  V30 379 H 31.6672 6.02926 3.07912 0
M  V30 380 H 36.3092 3.13598 2.83577 0
M  V30 381 H 34.0272 7.58783 2.77982 0
M  V30 382 H 37.6132 5.22053 2.56812 0
M  V30 383 H 36.4932 7.41844 2.54239 0
M  V30 384 N 33.9963 -1.19345 1.0293 0
M  V30 385 C 34.9263 -2.2481 0.631105 0
M  V30 386 C 35.9073 -1.66245 -0.360104 0
M  V30 387 O 37.0923 -1.92677 -0.242726 0
M  V30 388 C 34.2223 -3.47295 -0.0184607 0
M  V30 389 C 33.1763 -4.18536 0.895073 0
M  V30 390 C 32.5023 -5.34586 0.110592 0
M  V30 391 C 33.8023 -4.73287 2.209 0
M  V30 392 H 35.4963 -2.58372 1.51275 0
M  V30 393 H 33.0423 -1.24194 0.728818 0
M  V30 394 H 34.9953 -4.20268 -0.308675 0
M  V30 395 H 33.7193 -3.12933 -0.934907 0
M  V30 396 H 32.3783 -3.47446 1.16949 0
M  V30 397 H 32.0263 -4.96469 -0.807902 0
M  V30 398 H 31.7263 -5.83183 0.719087 0
M  V30 399 H 33.2503 -6.10355 -0.172871 0
M  V30 400 H 34.6643 -5.38013 1.98028 0
M  V30 401 H 33.0613 -5.32373 2.76946 0
M  V30 402 H 34.1313 -3.91331 2.86336 0
M  V30 403 N 35.4744 -0.807222 -1.35358 0
M  V30 404 C 36.6994 -0.399309 -2.0352 0
M  V30 405 C 37.1244 0.981986 -1.60433 0
M  V30 406 O 36.4824 1.63601 -0.781299 0
M  V30 407 C 36.5304 -0.491552 -3.57234 0
M  V30 408 O 35.6344 0.494754 -4.09421 0
M  V30 409 H 34.9754 -0.166682 -0.642739 0
M  V30 410 H 37.5054 -1.09328 -1.72941 0
M  V30 411 H 37.5154 -0.361588 -4.06395 0
M  V30 412 H 36.1904 -1.49907 -3.87944 0
M  V30 413 H 34.7674 0.324977 -3.71481 0
M  V30 414 N 36.9525 1.47285 -0.560781 0
M  V30 415 C 38.1985 2.03347 -0.0463654 0
M  V30 416 C 38.5535 1.42702 1.2905 0
M  V30 417 O 37.8465 0.574619 1.8278 0
M  V30 418 C 38.0405 3.57258 0.100784 0
M  V30 419 C 37.8695 4.32827 -1.22027 0
M  V30 420 C 36.6395 4.72588 -1.78854 0
M  V30 421 C 38.8375 4.67739 -2.13834 0
M  V30 422 N 36.8195 5.32816 -3.04927 0
M  V30 423 C 38.1905 5.28307 -3.24487 0
M  V30 424 C 40.2455 4.49667 -2.13784 0
M  V30 425 C 38.9485 5.72711 -4.35194 0
M  V30 426 C 40.9745 4.95073 -3.23506 0
M  V30 427 C 40.3365 5.55693 -4.32879 0
M  V30 428 H 36.4355 0.779755 -0.0592166 0
M  V30 429 H 39.0195 1.79723 -0.748857 0
M  V30 430 H 37.1905 3.80642 0.772404 0
M  V30 431 H 38.9225 3.9996 0.617589 0
M  V30 432 H 35.6775 4.54656 -1.32609 0
M  V30 433 H 36.1015 5.67471 -3.69197 0
M  V30 434 H 40.7435 4.02154 -1.30507 0
M  V30 435 H 38.4615 6.19214 -5.1923 0
M  V30 436 H 42.0475 4.82859 -3.24559 0
M  V30 437 H 40.9275 5.90188 -5.1638 0
M  V30 438 N 38.4306 0.297415 1.54768 0
M  V30 439 C 39.3936 -0.567375 2.22066 0
M  V30 440 C 40.3936 -1.06409 1.20556 0
M  V30 441 O 41.5836 -0.960691 1.45315 0
M  V30 442 C 38.7156 -1.78517 2.90421 0
M  V30 443 H 39.9086 0.0205534 2.99893 0
M  V30 444 H 37.4616 0.0482163 1.56226 0
M  V30 445 H 38.1966 -2.41303 2.16664 0
M  V30 446 H 37.9816 -1.43669 3.64831 0
M  V30 447 H 39.4716 -2.39964 3.41771 0
M  V30 448 N 39.9087 -1.5758 0.0250728 0
M  V30 449 C 40.8387 -2.13007 -0.956575 0
M  V30 450 C 41.8197 -1.0452 -1.342 0
M  V30 451 O 43.0047 -1.32332 -1.42133 0
M  V30 452 C 40.1347 -2.65386 -2.24026 0
M  V30 453 C 39.0887 -3.78623 -1.99571 0
M  V30 454 C 38.4147 -4.17414 -3.3417 0
M  V30 455 C 39.7147 -5.04867 -1.33814 0
M  V30 456 H 41.4087 -2.9528 -0.494991 0
M  V30 457 H 38.9547 -1.42042 -0.236651 0
M  V30 458 H 40.9077 -3.02794 -2.93076 0
M  V30 459 H 39.6317 -1.80268 -2.72343 0
M  V30 460 H 38.2907 -3.41646 -1.32941 0
M  V30 461 H 37.9387 -3.29284 -3.80238 0
M  V30 462 H 37.6387 -4.93719 -3.18615 0
M  V30 463 H 39.1627 -4.57402 -4.04495 0
M  V30 464 H 40.5767 -5.39888 -1.92857 0
M  V30 465 H 38.9737 -5.86144 -1.28669 0
M  V30 466 H 40.0437 -4.83904 -0.310561 0
M  V30 467 N 41.3868 0.248026 -1.55636 0
M  V30 468 C 42.3338 1.30707 -1.90222 0
M  V30 469 C 43.3038 1.47881 -0.756332 0
M  V30 470 O 44.4888 1.61883 -1.00988 0
M  V30 471 C 41.6288 2.65769 -2.20138 0
M  V30 472 C 40.7418 2.56612 -3.47526 0
M  V30 473 C 39.8768 3.8402 -3.67017 0
M  V30 474 C 38.9158 3.69476 -4.8801 0
M  V30 475 N 38.0528 4.88774 -5.04029 0
M  V30 476 H 42.8928 1.00512 -2.80538 0
M  V30 477 H 40.4298 0.485055 -1.38873 0
M  V30 478 H 42.3878 3.44386 -2.35487 0
M  V30 479 H 41.0178 2.94115 -1.33027 0
M  V30 480 H 40.0698 1.69571 -3.40514 0
M  V30 481 H 41.3818 2.41774 -4.36287 0
M  V30 482 H 40.5358 4.7108 -3.8232 0
M  V30 483 H 39.2748 4.01754 -2.76487 0
M  V30 484 H 38.2798 2.80799 -4.72686 0
M  V30 485 H 39.5048 3.53238 -5.8 0
M  V30 486 H 37.4508 5.0687 -4.16435 0
M  V30 487 H 37.3678 4.76562 -5.86877 0
M  V30 488 H 38.6358 5.77335 -5.23741 0
M  V30 489 N 42.8649 1.48995 0.513639 0
M  V30 490 C 43.7949 1.67636 1.62544 0
M  V30 491 C 44.7759 0.525087 1.61793 0
M  V30 492 O 45.9609 0.759502 1.78732 0
M  V30 493 C 43.0909 1.73114 3.01079 0
M  V30 494 C 42.0449 2.87905 3.16693 0
M  V30 495 C 41.3709 2.78486 4.56453 0
M  V30 496 C 42.6709 4.29005 2.97913 0
M  V30 497 H 44.3649 2.60716 1.47198 0
M  V30 498 H 41.9109 1.25465 0.706714 0
M  V30 499 H 43.8639 1.84742 3.78746 0
M  V30 500 H 42.5879 0.766241 3.17484 0
M  V30 501 H 41.2469 2.75859 2.41448 0
M  V30 502 H 40.8949 1.7993 4.69717 0
M  V30 503 H 40.5949 3.55523 4.67843 0
M  V30 504 H 42.1189 2.92104 5.36197 0
M  V30 505 H 43.5329 4.41798 3.65359 0
M  V30 506 H 41.9299 5.07166 3.20785 0
M  V30 507 H 42.9999 4.44329 1.94165 0
M  V30 508 N 44.343 -0.763751 1.37857 0
M  V30 509 C 45.591 -1.51957 1.33243 0
M  V30 510 C 45.912 -1.94835 -0.0801709 0
M  V30 511 O 45.182 -1.66894 -1.02582 0
M  V30 512 H 43.762 -0.563626 0.49024 0
M  V30 513 H 46.424 -0.908504 1.7243 0
M  V30 514 H 45.52 -2.41523 1.97669 0
M  V30 515 N 45.8211 -1.22559 -0.990812 0
M  V30 516 C 46.7511 -1.0218 -2.09956 0
M  V30 517 C 47.7321 0.0579394 -1.70001 0
M  V30 518 O 48.9171 -0.104684 -1.93918 0
M  V30 519 C 46.0471 -0.601023 -3.4206 0
M  V30 520 C 45.0011 -1.62694 -3.95872 0
M  V30 521 C 44.3271 -1.06193 -5.24049 0
M  V30 522 C 45.6271 -3.01743 -4.2632 0
M  V30 523 H 47.3211 -1.94916 -2.27262 0
M  V30 524 H 44.8671 -0.938566 -1.09211 0
M  V30 525 H 46.8201 -0.445561 -4.19038 0
M  V30 526 H 45.5441 0.362005 -3.24588 0
M  V30 527 H 44.2031 -1.77021 -3.21028 0
M  V30 528 H 43.8511 -0.0901903 -5.02919 0
M  V30 529 H 43.5511 -1.74732 -5.61019 0
M  V30 530 H 45.0751 -0.918092 -6.03658 0
M  V30 531 H 46.4891 -2.90777 -4.94087 0
M  V30 532 H 44.8861 -3.67425 -4.74467 0
M  V30 533 H 45.9561 -3.51518 -3.34011 0
M  V30 534 N 47.2992 1.18797 -1.03562 0
M  V30 535 C 48.5452 1.8893 -0.737113 0
M  V30 536 C 48.8782 1.79837 0.732956 0
M  V30 537 O 48.1532 1.19525 1.5344 0
M  V30 538 C 48.4362 3.39607 -1.19745 0
M  V30 539 C 48.2892 3.57537 -2.72924 0
M  V30 540 C 49.6082 4.33069 -0.783526 0
M  V30 541 H 46.7272 0.686057 -0.269249 0
M  V30 542 H 49.3692 1.39797 -1.28673 0
M  V30 543 H 47.5192 3.81583 -0.729855 0
M  V30 544 H 49.1912 3.24688 -3.27682 0
M  V30 545 H 47.4342 3.00363 -3.12993 0
M  V30 546 H 48.1052 4.63238 -3.00191 0
M  V30 547 H 50.5812 3.98846 -1.18581 0
M  V30 548 H 49.4572 5.3707 -1.13343 0
M  V30 549 H 49.7182 4.40986 0.313681 0
M  V30 550 N 48.7773 0.814389 1.34928 0
M  V30 551 C 50.0253 0.397636 1.9815 0
M  V30 552 C 50.3463 -1.04069 1.64908 0
M  V30 553 O 49.6163 -1.72121 0.93548 0
M  V30 554 H 48.1963 0.144043 0.732981 0
M  V30 555 H 50.8583 1.04195 1.6471 0
M  V30 556 H 49.9543 0.509688 3.0791 0
M  V30 557 N 50.2554 -1.46986 0.568584 0
M  V30 558 C 51.1854 -2.32946 -0.160753 0
M  V30 559 C 52.1664 -1.44487 -0.897631 0
M  V30 560 O 53.3514 -1.73327 -0.875867 0
M  V30 561 C 50.4814 -3.26494 -1.18403 0
M  V30 562 C 49.4354 -4.24282 -0.562895 0
M  V30 563 C 48.7614 -5.07236 -1.69163 0
M  V30 564 C 50.0614 -5.19989 0.490761 0
M  V30 565 H 51.7554 -2.94175 0.556916 0
M  V30 566 H 49.3014 -1.4146 0.26927 0
M  V30 567 H 51.2544 -3.85477 -1.70251 0
M  V30 568 H 49.9784 -2.63343 -1.93179 0
M  V30 569 H 48.6374 -3.66541 -0.0656164 0
M  V30 570 H 48.2854 -4.4048 -2.42871 0
M  V30 571 H 47.9854 -5.7345 -1.28174 0
M  V30 572 H 49.5094 -5.6908 -2.21314 0
M  V30 573 H 50.9234 -5.73271 0.0579047 0
M  V30 574 H 49.3204 -5.94469 0.820165 0
M  V30 575 H 50.3904 -4.64777 1.3824 0
M  V30 576 N 51.7335 -0.305618 -1.54608 0
M  V30 577 C 52.9795 0.302746 -2.00528 0
M  V30 578 C 53.3125 1.53184 -1.19367 0
M  V30 579 O 52.5875 1.92598 -0.271321 0
M  V30 580 C 52.8705 0.654756 -3.54097 0
M  V30 581 C 52.7235 -0.583793 -4.45995 0
M  V30 582 C 54.0425 1.47947 -4.14487 0
M  V30 583 H 51.1615 0.108564 -0.72896 0
M  V30 584 H 53.8035 -0.418634 -1.85331 0
M  V30 585 H 51.9535 1.26935 -3.67178 0
M  V30 586 H 53.6255 -1.22224 -4.44814 0
M  V30 587 H 51.8685 -1.21615 -4.16404 0
M  V30 588 H 52.5395 -0.293287 -5.5122 0
M  V30 589 H 55.0155 0.96013 -4.04871 0
M  V30 590 H 53.8915 1.69454 -5.22088 0
M  V30 591 H 54.1525 2.47011 -3.66658 0
M  V30 592 N 53.2116 1.57565 -0.0334293 0
M  V30 593 C 54.1416 2.13511 0.945265 0
M  V30 594 C 55.1226 1.05231 1.33643 0
M  V30 595 O 56.3076 1.33084 1.41429 0
M  V30 596 C 53.4376 2.6657 2.22616 0
M  V30 597 C 52.3916 3.79676 1.97561 0
M  V30 598 C 51.7176 4.1918 3.31952 0
M  V30 599 C 53.0176 5.0557 1.31135 0
M  V30 600 H 54.7116 2.95538 0.479325 0
M  V30 601 H 52.2576 1.42166 0.229115 0
M  V30 602 H 54.2106 3.04344 2.91466 0
M  V30 603 H 52.9346 1.8171 2.71384 0
M  V30 604 H 51.5936 3.42347 1.31127 0
M  V30 605 H 51.2416 3.31296 3.78487 0
M  V30 606 H 50.9416 4.95402 3.15992 0
M  V30 607 H 52.4656 4.59541 4.02063 0
M  V30 608 H 53.8796 5.40903 1.89992 0
M  V30 609 H 52.2766 5.86818 1.25559 0
M  V30 610 H 53.3466 4.84062 0.284894 0
M  V30 611 N 54.6897 -0.239769 1.55765 0
M  V30 612 C 55.6197 -1.30052 1.9393 0
M  V30 613 C 56.6007 -1.49839 0.805132 0
M  V30 614 O 57.7857 -1.62328 1.06599 0
M  V30 615 C 54.9157 -2.65391 2.2402 0
M  V30 616 C 53.8697 -2.60289 3.39755 0
M  V30 617 C 53.1957 -3.99489 3.55405 0
M  V30 618 C 54.4957 -2.16654 4.75246 0
M  V30 619 H 56.1897 -0.983573 2.82783 0
M  V30 620 H 53.7357 -0.471701 1.36055 0
M  V30 621 H 55.6887 -3.3974 2.49308 0
M  V30 622 H 54.4127 -2.98736 1.32 0
M  V30 623 H 53.0717 -1.88398 3.14487 0
M  V30 624 H 52.7197 -4.30112 2.60793 0
M  V30 625 H 52.4197 -3.96962 4.33238 0
M  V30 626 H 53.9437 -4.75528 3.83022 0
M  V30 627 H 55.3577 -2.80737 4.99859 0
M  V30 628 H 53.7547 -2.25223 5.56232 0
M  V30 629 H 54.8247 -1.11835 4.71827 0
M  V30 630 N 56.1678 -1.49265 -0.50573 0
M  V30 631 C 57.1308 -1.65075 -1.59006 0
M  V30 632 C 58.1308 -0.522768 -1.52065 0
M  V30 633 O 59.3208 -0.789117 -1.55302 0
M  V30 634 C 56.4528 -1.64369 -2.98656 0
M  V30 635 H 57.6458 -2.61784 -1.46319 0
M  V30 636 H 55.1988 -1.38226 -0.729616 0
M  V30 637 H 55.9338 -0.692272 -3.16825 0
M  V30 638 H 55.7188 -2.46282 -3.05103 0
M  V30 639 H 57.2088 -1.78674 -3.77446 0
M  V30 640 N 57.6459 0.756429 -1.3826 0
M  V30 641 C 58.8939 1.51248 -1.34047 0
M  V30 642 C 59.2149 1.94875 0.0698372 0
M  V30 643 O 58.4849 1.67436 1.01696 0
M  V30 644 H 57.0649 0.561018 -0.493222 0
M  V30 645 H 59.7269 0.899347 -1.7291 0
M  V30 646 H 58.8229 2.40472 -1.98947 0
M  V30 647 N 59.124 1.23083 0.984299 0
M  V30 648 C 60.371 1.06057 1.72505 0
M  V30 649 C 60.699 -0.403105 1.90277 0
M  V30 650 O 59.954 -1.3149 1.44944 0
M  V30 651 C 60.253 1.72673 3.1292 0
M  V30 652 C 59.919 3.22586 3.15038 0
M  V30 653 C 58.581 3.63489 3.15324 0
M  V30 654 C 60.933 4.185 3.10657 0
M  V30 655 C 58.261 4.98772 3.08939 0
M  V30 656 C 60.613 5.53769 3.05814 0
M  V30 657 C 59.277 5.94041 3.04419 0
M  V30 658 H 58.547 0.388091 0.631242 0
M  V30 659 H 61.194 1.52963 1.15215 0
M  V30 660 H 59.499 1.18116 3.73572 0
M  V30 661 H 61.196 1.56982 3.68996 0
M  V30 662 H 57.786 2.90022 3.15571 0
M  V30 663 H 61.97 3.87911 3.09579 0
M  V30 664 H 57.226 5.29193 3.0621 0
M  V30 665 H 61.4 6.27808 3.0138 0
M  V30 666 H 59.027 6.98833 2.99227 0
M  V30 667 N 60.6021 -1.18246 1.0419 0
M  V30 668 C 61.5651 -2.20128 0.638452 0
M  V30 669 C 62.5651 -1.57885 -0.304805 0
M  V30 670 O 63.7551 -1.73967 -0.0900369 0
M  V30 671 C 60.8871 -3.4084 -0.0637751 0
M  V30 672 H 62.0801 -2.57336 1.54007 0
M  V30 673 H 59.6331 -1.32152 0.834598 0
M  V30 674 H 60.3681 -3.09166 -0.979136 0
M  V30 675 H 60.1531 -3.8726 0.614198 0
M  V30 676 H 61.6431 -4.16274 -0.332512 0
M  V30 677 N 62.0802 -0.821533 -1.34494 0
M  V30 678 C 63.3292 -0.405355 -1.97585 0
M  V30 679 C 63.6422 1.03677 -1.65863 0
M  V30 680 O 64.8482 1.55679 -2.22433 0
M  V30 681 C 63.3042 -0.673861 -3.53535 0
M  V30 682 C 62.9122 -2.12951 -3.94152 0
M  V30 683 C 64.6562 -0.32378 -4.23263 0
M  V30 684 C 62.5632 -2.34298 -5.43009 0
M  V30 685 H 61.4932 -0.147836 -0.739365 0
M  V30 686 H 64.1442 -1.00769 -1.53355 0
M  V30 687 H 62.5262 -0.00137554 -3.96 0
M  V30 688 H 63.7002 -2.84104 -3.62797 0
M  V30 689 H 62.0152 -2.44089 -3.37356 0
M  V30 690 H 64.6122 -0.461126 -5.32708 0
M  V30 691 H 64.9552 0.731586 -4.09821 0
M  V30 692 H 65.4882 -0.950786 -3.8627 0
M  V30 693 H 62.2272 -3.38335 -5.61435 0
M  V30 694 H 61.7472 -1.67687 -5.75883 0
M  V30 695 H 63.4262 -2.16588 -6.09671 0
M  V30 696 N 63.5583 1.46682 -0.576371 0
M  V30 697 C 64.7883 2.06498 -0.0648694 0
M  V30 698 C 65.1963 1.42665 1.24271 0
M  V30 699 O 64.5393 0.523886 1.76071 0
M  V30 700 C 64.6013 3.5904 0.181816 0
M  V30 701 C 64.2653 4.45028 -1.0392 0
M  V30 702 C 65.2623 4.81959 -1.94966 0
M  V30 703 C 62.9473 4.86259 -1.25927 0
M  V30 704 C 64.9413 5.58942 -3.06371 0
M  V30 705 C 62.6283 5.63002 -2.37638 0
M  V30 706 C 63.6263 5.99257 -3.2769 0
M  V30 707 O 63.3143 6.7445 -4.37461 0
M  V30 708 H 63.0463 0.674028 -0.0515987 0
M  V30 709 H 65.6003 1.89393 -0.794951 0
M  V30 710 H 63.8303 3.74429 0.966436 0
M  V30 711 H 65.5193 4.00806 0.641047 0
M  V30 712 H 66.2853 4.50689 -1.79177 0
M  V30 713 H 62.1643 4.57494 -0.567448 0
M  V30 714 H 65.7083 5.87158 -3.76684 0
M  V30 715 H 61.6053 5.93686 -2.53392 0
M  V30 716 H 62.3733 6.92867 -4.35749 0
M  V30 717 N 65.0364 0.313813 1.54444 0
M  V30 718 C 65.9664 -0.549454 2.26943 0
M  V30 719 C 66.9474 -1.12741 1.27372 0
M  V30 720 O 68.1324 -1.15436 1.56167 0
M  V30 721 C 65.2624 -1.71523 3.01989 0
M  V30 722 C 64.2164 -1.26703 4.08816 0
M  V30 723 C 63.5424 -2.51898 4.71647 0
M  V30 724 C 64.8424 -0.388962 5.2085 0
M  V30 725 H 66.5364 0.0552661 2.99349 0
M  V30 726 H 64.0824 0.0280207 1.43973 0
M  V30 727 H 66.0354 -2.32535 3.51433 0
M  V30 728 H 64.7594 -2.34639 2.27183 0
M  V30 729 H 63.4184 -0.679896 3.6024 0
M  V30 730 H 63.0664 -3.13356 3.93468 0
M  V30 731 H 62.7664 -2.22605 5.43802 0
M  V30 732 H 64.2904 -3.1369 5.23861 0
M  V30 733 H 65.7044 -0.905107 5.6611 0
M  V30 734 H 64.1014 -0.18924 5.99802 0
M  V30 735 H 65.1714 0.582699 4.81386 0
M  V30 736 N 66.5145 -1.57545 0.0417849 0
M  V30 737 C 67.7915 -1.83642 -0.673433 0
M  V30 738 C 68.1715 -0.928298 -1.89594 0
M  V30 739 O 67.5195 0.0129955 -2.28496 0
M  V30 740 C 67.7295 -3.33155 -1.03964 0
M  V30 741 C 69.0775 -3.99941 -1.42592 0
M  V30 742 O 70.1015 -3.37725 -1.13226 0
M  V30 743 O 68.9605 -5.09619 -1.9736 0
M  V30 744 H 66.0545 -0.757638 -0.331533 0
M  V30 745 H 68.6005 -1.69554 0.070433 0
M  V30 746 H 67.3725 -3.9093 -0.170098 0
M  V30 747 H 66.9955 -3.52396 -1.84126 0
M  V30 748 N 67.9926 0.231505 -1.5589 0
M  V30 749 C 68.9556 1.27028 -1.90779 0
M  V30 750 C 69.9556 1.40308 -0.785507 0
M  V30 751 O 71.1456 1.38744 -1.05336 0
M  V30 752 C 68.2776 2.64566 -2.14983 0
M  V30 753 H 69.4706 0.973017 -2.83677 0
M  V30 754 H 67.0236 0.471486 -1.49019 0
M  V30 755 H 67.7586 2.99406 -1.24604 0
M  V30 756 H 67.5436 2.56305 -2.96732 0
M  V30 757 H 69.0336 3.39543 -2.43105 0
M  V30 758 N 69.4707 1.49531 0.497807 0
M  V30 759 C 70.7167 1.59415 1.25358 0
M  V30 760 C 71.0497 0.281422 1.9215 0
M  V30 761 O 70.3247 -0.715249 1.80871 0
M  V30 762 C 70.6077 2.75566 2.3181 0
M  V30 763 C 70.4607 4.16642 1.69498 0
M  V30 764 C 71.7797 2.87347 3.33346 0
M  V30 765 H 68.8987 0.580244 0.454408 0
M  V30 766 H 71.5407 1.81827 0.551262 0
M  V30 767 H 69.6907 2.56587 2.91711 0
M  V30 768 H 71.3627 4.47145 1.13399 0
M  V30 769 H 69.6057 4.22141 0.998978 0
M  V30 770 H 70.2767 4.93792 2.46725 0
M  V30 771 H 72.7527 3.04634 2.83438 0
M  V30 772 H 71.6287 3.70289 4.05188 0
M  V30 773 H 71.8897 1.96834 3.95865 0
M  V30 774 N 70.9488 -0.749086 1.3866 0
M  V30 775 C 72.1948 -1.51056 1.35314 0
M  V30 776 C 72.5278 -1.94121 -0.0553751 0
M  V30 777 O 71.8028 -1.65763 -1.01749 0
M  V30 778 C 72.0858 -2.76003 2.31288 0
M  V30 779 C 71.9388 -2.39047 3.8102 0
M  V30 780 C 73.2578 -3.78046 2.2532 0
M  V30 781 H 70.3768 -0.547972 0.492844 0
M  V30 782 H 73.0188 -0.857628 1.69543 0
M  V30 783 H 71.1688 -3.31716 2.02229 0
M  V30 784 H 72.8408 -1.89074 4.20771 0
M  V30 785 H 71.0838 -1.71449 3.98482 0
M  V30 786 H 71.7548 -3.28462 4.4364 0
M  V30 787 H 74.2308 -3.31884 2.50983 0
M  V30 788 H 73.1068 -4.63159 2.94576 0
M  V30 789 H 73.3678 -4.23957 1.25352 0
M  V30 790 N 72.4269 -1.23603 -0.977757 0
M  V30 791 C 73.3589 -0.977369 -2.07317 0
M  V30 792 C 74.3719 0.0495845 -1.62724 0
M  V30 793 O 75.5609 -0.186261 -1.77526 0
M  V30 794 C 72.6609 -0.451216 -3.35883 0
M  V30 795 C 71.8339 -1.53896 -4.09432 0
M  V30 796 C 70.8929 -1.01721 -5.16274 0
M  V30 797 O 69.9189 -1.70676 -5.43009 0
M  V30 798 N 71.1209 0.153594 -5.80297 0
M  V30 799 H 73.8859 -1.92047 -2.30082 0
M  V30 800 H 71.4469 -1.14497 -1.14465 0
M  V30 801 H 73.4389 -0.0871574 -4.04606 0
M  V30 802 H 72.0089 0.397368 -3.10064 0
M  V30 803 H 71.2289 -2.07566 -3.35127 0
M  V30 804 H 72.5169 -2.27037 -4.55337 0
M  V30 805 H 71.9149 0.730323 -5.60966 0
M  V30 806 H 70.4719 0.458892 -6.50183 0
M  V30 807 N 73.905 1.17692 -1.04816 0
M  V30 808 C 74.815 2.25229 -0.65643 0
M  V30 809 C 75.831 1.71018 0.320761 0
M  V30 810 O 77.007 2.00649 0.173805 0
M  V30 811 C 74.072 3.46684 -0.0332629 0
M  V30 812 C 73.133 4.15997 -1.06042 0
M  V30 813 C 72.366 5.31654 -0.466893 0
M  V30 814 O 72.589 5.65777 0.724758 0
M  V30 815 O 71.523 5.89831 -1.1993 0
M  V30 816 H 75.349 2.61016 -1.55255 0
M  V30 817 H 72.934 1.24919 -0.81949 0
M  V30 818 H 74.816 4.20234 0.313256 0
M  V30 819 H 73.491 3.12703 0.836566 0
M  V30 820 H 72.398 3.44482 -1.45886 0
M  V30 821 H 73.731 4.53996 -1.90127 0
M  V30 822 N 75.3831 0.828654 1.34056 0
M  V30 823 C 76.3301 0.252567 2.29414 0
M  V30 824 C 77.3001 -0.62588 1.53857 0
M  V30 825 O 78.4851 -0.566312 1.82202 0
M  V30 826 C 75.6251 -0.574831 3.40279 0
M  V30 827 C 74.7381 0.326499 4.30764 0
M  V30 828 C 73.8731 -0.511016 5.28736 0
M  V30 829 C 72.9121 0.389342 6.1086 0
M  V30 830 N 72.0491 -0.409439 7.00905 0
M  V30 831 H 76.8891 1.07108 2.78086 0
M  V30 832 H 74.4261 0.539677 1.36843 0
M  V30 833 H 76.3841 -1.06992 4.03248 0
M  V30 834 H 75.0141 -1.35841 2.92826 0
M  V30 835 H 74.0661 0.939837 3.68607 0
M  V30 836 H 75.3781 1.01857 4.88289 0
M  V30 837 H 74.5321 -1.07035 5.97184 0
M  V30 838 H 73.2711 -1.23657 4.71763 0
M  V30 839 H 72.2761 0.960769 5.4134 0
M  V30 840 H 73.5011 1.1131 6.69916 0
M  V30 841 H 71.4471 -1.11856 6.46393 0
M  V30 842 H 71.3641 0.224126 7.55668 0
M  V30 843 H 72.6321 -0.951336 7.73673 0
M  V30 844 N 76.8612 -1.46375 0.584142 0
M  V30 845 C 78.1082 -2.02378 0.0702675 0
M  V30 846 C 78.4362 -1.45545 -1.29023 0
M  V30 847 O 77.6912 -0.610967 -1.85918 0
M  V30 848 C 77.9902 -3.57373 -0.0439342 0
M  V30 849 C 77.6562 -4.33252 1.24915 0
M  V30 850 C 76.3182 -4.53701 1.60341 0
M  V30 851 C 78.6702 -4.7681 2.1048 0
M  V30 852 C 75.9982 -5.1496 2.81128 0
M  V30 853 C 78.3502 -5.39404 3.30494 0
M  V30 854 C 77.0142 -5.5808 3.66201 0
M  V30 855 H 76.2842 -0.740554 0.0257127 0
M  V30 856 H 78.9312 -1.75727 0.761065 0
M  V30 857 H 77.2362 -3.83169 -0.817869 0
M  V30 858 H 78.9332 -3.98384 -0.457318 0
M  V30 859 H 75.5232 -4.17633 0.963364 0
M  V30 860 H 79.7072 -4.60766 1.84414 0
M  V30 861 H 74.9632 -5.27611 3.08928 0
M  V30 862 H 79.1372 -5.72114 3.97063 0
M  V30 863 H 76.7642 -6.05318 4.59885 0
M  V30 864 N 78.3393 -0.321999 -1.54275 0
M  V30 865 C 79.5643 0.285791 -2.05422 0
M  V30 866 C 79.9893 1.45124 -1.19669 0
M  V30 867 O 79.3473 1.80132 -0.205441 0
M  V30 868 C 79.3953 0.69956 -3.53749 0
M  V30 869 O 78.4993 1.8021 -3.70942 0
M  V30 870 H 77.8403 0.0518962 -0.661969 0
M  V30 871 H 80.3703 -0.469954 -1.9913 0
M  V30 872 H 80.3803 0.982649 -3.9599 0
M  V30 873 H 79.0553 -0.152864 -4.15619 0
M  V30 874 H 77.6323 1.51794 -3.40607 0
M  V30 875 N 79.8174 1.5752 -0.0501392 0
M  V30 876 C 81.0654 1.9227 0.622642 0
M  V30 877 C 81.3864 0.929083 1.71444 0
M  V30 878 O 80.6564 -0.0262186 1.95882 0
M  V30 879 H 79.2364 0.709739 0.232981 0
M  V30 880 H 81.8984 1.94628 -0.102898 0
M  V30 881 H 80.9944 2.93479 1.06191 0
M  V30 882 N 81.2955 -0.223234 1.56011 0
M  V30 883 C 82.7115 -0.572856 1.48965 0
M  V30 884 C 82.9115 -1.87225 0.74492 0
M  V30 885 O 81.9675 -2.50899 0.283896 0
M  V30 886 C 83.2805 -0.653646 2.9351 0
M  V30 887 C 84.8285 -0.744386 3.0402 0
M  V30 888 C 85.3035 -0.856535 4.49919 0
M  V30 889 N 86.7945 -0.9208 4.53955 0
M  V30 890 C 87.5295 -1.02726 5.64123 0
M  V30 891 N 87.0255 -1.09777 6.84047 0
M  V30 892 N 88.8185 -1.06226 5.51971 0
M  V30 893 H 80.9695 0.629462 2.02858 0
M  V30 894 H 83.2325 0.220621 0.921971 0
M  V30 895 H 82.9385 0.231518 3.50937 0
M  V30 896 H 82.8125 -1.51781 3.45315 0
M  V30 897 H 85.1995 -1.61999 2.46658 0
M  V30 898 H 85.2805 0.14541 2.55386 0
M  V30 899 H 84.9245 0.0146069 5.07898 0
M  V30 900 H 84.8545 -1.76172 4.96257 0
M  V30 901 H 87.3455 -0.876694 3.6759 0
M  V30 902 H 87.6585 -1.17872 7.63758 0
M  V30 903 H 86.0035 -1.06693 6.86762 0
M  V30 904 H 89.1945 -1.00382 4.5721 0
M  V30 905 H 89.3675 -1.14177 6.37862 0
M  V30 906 N 82.7736 -1.49793 -0.48987 0
M  V30 907 C 84.1896 -1.36803 -0.822022 0
M  V30 908 C 84.3896 -0.409652 -1.97292 0
M  V30 909 O 83.4456 0.154614 -2.52026 0
M  V30 910 C 84.7586 -2.77768 -1.15175 0
M  V30 911 C 86.3066 -2.86549 -1.25931 0
M  V30 912 C 86.7816 -4.28306 -1.62228 0
M  V30 913 N 88.2726 -4.31169 -1.69256 0
M  V30 914 C 89.0076 -5.37832 -1.98807 0
M  V30 915 N 88.5036 -6.54726 -2.26507 0
M  V30 916 N 90.2966 -5.25258 -2.00152 0
M  V30 917 H 82.4476 -2.10691 0.268881 0
M  V30 918 H 84.7106 -0.946241 0.057728 0
M  V30 919 H 84.4166 -3.49648 -0.379335 0
M  V30 920 H 84.2906 -3.13836 -2.09253 0
M  V30 921 H 86.6776 -2.14899 -2.02243 0
M  V30 922 H 86.7586 -2.54049 -0.298776 0
M  V30 923 H 86.4026 -5.00486 -0.864622 0
M  V30 924 H 86.3326 -4.58279 -2.594 0
M  V30 925 H 88.8236 -3.4687 -1.49965 0
M  V30 926 H 89.1366 -7.31833 -2.48276 0
M  V30 927 H 87.4816 -6.57933 -2.23939 0
M  V30 928 H 90.6726 -4.32938 -1.77996 0
M  V30 929 H 90.8456 -6.08476 -2.22848 0
M  V30 930 N 84.2517 0.741722 -1.39055 0
M  V30 931 C 85.4977 1.50234 -1.37118 0
M  V30 932 C 85.8527 1.92368 0.0350439 0
M  V30 933 O 85.1457 1.63422 1.00019 0
M  V30 934 C 85.3397 2.7592 -2.27163 0
M  V30 935 C 85.1687 2.46074 -3.76401 0
M  V30 936 C 83.9387 2.38704 -4.45364 0
M  V30 937 C 86.1367 2.12062 -4.68545 0
M  V30 938 N 84.1187 2.01258 -5.79973 0
M  V30 939 C 85.4897 1.85005 -5.91754 0
M  V30 940 C 87.5447 1.98473 -4.56632 0
M  V30 941 C 86.2477 1.4573 -7.04383 0
M  V30 942 C 88.2737 1.60599 -5.69176 0
M  V30 943 C 87.6357 1.34423 -6.91455 0
M  V30 944 H 83.7347 0.548858 -0.557027 0
M  V30 945 H 86.3187 0.862642 -1.74547 0
M  V30 946 H 84.4897 3.3768 -1.91904 0
M  V30 947 H 86.2217 3.42068 -2.16267 0
M  V30 948 H 82.9767 2.55574 -3.98721 0
M  V30 949 H 83.4007 1.85147 -6.51191 0
M  V30 950 H 88.0427 2.17381 -3.62637 0
M  V30 951 H 85.7607 1.25562 -7.98286 0
M  V30 952 H 89.3467 1.507 -5.61944 0
M  V30 953 H 88.2267 1.05555 -7.77064 0
M  V30 954 N 85.7298 1.2412 0.971189 0
M  V30 955 C 86.9578 1.10575 1.74874 0
M  V30 956 C 87.3728 -0.342017 1.85676 0
M  V30 957 O 86.7298 -1.23617 1.34258 0
M  V30 958 C 86.7808 1.73579 3.171 0
M  V30 959 O 86.5018 3.12695 3.06844 0
M  V30 960 C 88.0028 1.65598 4.11208 0
M  V30 961 H 85.2228 0.386504 0.548503 0
M  V30 962 H 87.7668 1.64156 1.21955 0
M  V30 963 H 85.9218 1.24009 3.67016 0
M  V30 964 H 86.3358 3.43412 3.96445 0
M  V30 965 H 87.8098 2.1437 5.08674 0
M  V30 966 H 88.2868 0.616532 4.34851 0
M  V30 967 H 88.8928 2.14578 3.67201 0
M  V30 968 N 87.2079 -1.17134 1.05439 0
M  V30 969 C 88.4569 -1.86791 0.761049 0
M  V30 970 C 88.7699 -1.82072 -0.714795 0
M  V30 971 O 89.9759 -2.47223 -1.12218 0
M  V30 972 C 88.4319 -3.35166 1.31117 0
M  V30 973 C 88.0399 -3.48381 2.81664 0
M  V30 974 C 89.7839 -4.10134 1.09499 0
M  V30 975 C 87.6909 -4.90793 3.29964 0
M  V30 976 H 86.6209 -0.699681 0.281002 0
M  V30 977 H 89.2719 -1.3226 1.27199 0
M  V30 978 H 87.6539 -3.8925 0.72803 0
M  V30 979 H 88.8279 -3.04502 3.45855 0
M  V30 980 H 87.1429 -2.86836 3.01851 0
M  V30 981 H 89.7399 -5.152 1.43084 0
M  V30 982 H 90.0829 -4.16287 0.0328772 0
M  V30 983 H 90.6159 -3.62264 1.64346 0
M  V30 984 H 87.3549 -4.89816 4.35616 0
M  V30 985 H 86.8749 -5.35333 2.70516 0
M  V30 986 H 88.5539 -5.59573 3.24787 0
M  V30 987 N 88.686 -0.835752 -1.33615 0
M  V30 988 C 90.097 -0.487099 -1.80234 0
M  V30 989 C 90.448 0.993627 -1.69179 0
M  V30 990 O 89.573 1.77403 -1.23924 0
M  V30 991 C 90.168 -0.877385 -3.27242 0
M  V30 992 C 88.727 -0.580915 -3.7189 0
M  V30 993 C 87.874 -1.0874 -2.5509 0
M  V30 994 H 90.825 -1.02474 -1.2118 0
M  V30 995 H 90.846 -0.186195 -3.80044 0
M  V30 996 H 90.358 -1.95512 -3.35256 0
M  V30 997 H 88.459 0.486881 -3.69405 0
M  V30 998 H 88.572 -1.13396 -4.65487 0
M  V30 999 H 86.936 -0.508392 -2.49575 0
M  V30 1000 H 87.719 -2.17184 -2.65868 0
M  V30 1001 N 90.1641 1.46063 -0.591896 0
M  V30 1002 C 91.1271 2.28854 0.125973 0
M  V30 1003 C 92.1271 1.38903 0.810107 0
M  V30 1004 O 93.3171 1.61186 0.66066 0
M  V30 1005 C 90.4491 3.19526 1.1881 0
M  V30 1006 H 91.6421 2.93802 -0.601717 0
M  V30 1007 H 89.1951 1.52325 -0.350254 0
M  V30 1008 H 89.9301 2.59345 1.94707 0
M  V30 1009 H 89.7151 3.85766 0.701936 0
M  V30 1010 H 91.2051 3.81817 1.69132 0
M  V30 1011 N 91.6422 0.330177 1.54103 0
M  V30 1012 C 92.5892 -0.532762 2.24567 0
M  V30 1013 C 93.5592 -1.10635 1.23892 0
M  V30 1014 O 94.7442 -1.14546 1.5259 0
M  V30 1015 C 91.8842 -1.6845 3.01195 0
M  V30 1016 C 90.9972 -1.13951 4.167 0
M  V30 1017 C 90.1322 -2.25746 4.80845 0
M  V30 1018 C 89.1712 -1.6853 5.88442 0
M  V30 1019 N 88.3082 -2.74014 6.46421 0
M  V30 1020 H 93.1482 0.0746905 2.97906 0
M  V30 1021 H 90.6852 0.048632 1.4702 0
M  V30 1022 H 92.6432 -2.36234 3.43874 0
M  V30 1023 H 91.2732 -2.26314 2.30178 0
M  V30 1024 H 90.3252 -0.35301 3.78758 0
M  V30 1025 H 91.6372 -0.680892 4.94131 0
M  V30 1026 H 90.7912 -3.01422 5.26526 0
M  V30 1027 H 89.5302 -2.74947 4.0281 0
M  V30 1028 H 88.5352 -0.913543 5.42157 0
M  V30 1029 H 89.7602 -1.20198 6.68378 0
M  V30 1030 H 87.7062 -3.22494 5.71256 0
M  V30 1031 H 87.6232 -2.32735 7.19285 0
M  V30 1032 H 88.8912 -3.49499 6.96757 0
M  V30 1033 N 93.1203 -1.57491 0.0584922 0
M  V30 1034 C 94.3663 -1.93264 -0.614558 0
M  V30 1035 C 94.6993 -0.937717 -1.7006 0
M  V30 1036 O 93.9743 0.0351652 -1.94468 0
M  V30 1037 C 94.2573 -3.3938 -1.20386 0
M  V30 1038 C 94.1103 -4.49625 -0.125375 0
M  V30 1039 C 95.4293 -3.86039 -2.11334 0
M  V30 1040 H 92.5483 -0.702791 -0.221933 0
M  V30 1041 H 95.1903 -1.8961 0.12175 0
M  V30 1042 H 93.3403 -3.42626 -1.83139 0
M  V30 1043 H 95.0123 -4.58506 0.506971 0
M  V30 1044 H 93.2553 -4.30354 0.545672 0
M  V30 1045 H 93.9263 -5.48967 -0.577861 0
M  V30 1046 H 96.4023 -3.84716 -1.58534 0
M  V30 1047 H 95.2783 -4.88914 -2.49507 0
M  V30 1048 H 95.5393 -3.23215 -3.01636 0
M  V30 1049 N 94.5984 0.214957 -1.56127 0
M  V30 1050 C 95.8284 0.953707 -1.8327 0
M  V30 1051 C 96.2364 1.78181 -0.636262 0
M  V30 1052 O 95.5794 1.79191 0.404516 0
M  V30 1053 C 95.6414 1.91516 -3.0424 0
M  V30 1054 C 95.3054 1.27094 -4.38972 0
M  V30 1055 C 96.3024 0.657575 -5.15725 0
M  V30 1056 C 93.9874 1.28073 -4.85698 0
M  V30 1057 C 95.9814 0.0625968 -6.37369 0
M  V30 1058 C 93.6684 0.681914 -6.07283 0
M  V30 1059 C 94.6664 0.0739046 -6.8296 0
M  V30 1060 O 94.3544 -0.515582 -8.02245 0
M  V30 1061 H 94.0864 0.284764 -0.613095 0
M  V30 1062 H 96.6404 0.233283 -2.04071 0
M  V30 1063 H 94.8704 2.67475 -2.79274 0
M  V30 1064 H 96.5594 2.52001 -3.18198 0
M  V30 1065 H 97.3254 0.642288 -4.80728 0
M  V30 1066 H 93.2044 1.74337 -4.26764 0
M  V30 1067 H 96.7484 -0.412593 -6.96379 0
M  V30 1068 H 92.6454 0.694636 -6.41752 0
M  V30 1069 H 93.4134 -0.410544 -8.1747 0
M  V30 1070 N 96.0765 1.50051 0.48192 0
M  V30 1071 C 97.0395 1.67584 1.5636 0
M  V30 1072 C 98.0395 0.546894 1.51214 0
M  V30 1073 O 99.2295 0.813725 1.54026 0
M  V30 1074 C 96.3615 1.691 2.96003 0
M  V30 1075 H 97.5545 2.64078 1.42136 0
M  V30 1076 H 95.1075 1.39369 0.707533 0
M  V30 1077 H 95.8425 0.742589 3.15684 0
M  V30 1078 H 95.6275 2.51105 3.01146 0
M  V30 1079 H 97.1175 1.84656 3.74556 0
M  V30 1080 N 97.5546 -0.734337 1.39446 0
M  V30 1081 C 98.9706 -1.03997 1.21065 0
M  V30 1082 C 99.1706 -2.01369 0.0727019 0
M  V30 1083 O 98.2266 -2.45856 -0.575426 0
M  V30 1084 C 99.5396 -1.60163 2.54496 0
M  V30 1085 C 101.088 -1.7224 2.61347 0
M  V30 1086 C 101.563 -2.31814 3.95002 0
M  V30 1087 N 103.054 -2.39223 3.96644 0
M  V30 1088 C 103.789 -2.86258 4.96834 0
M  V30 1089 N 103.285 -3.33184 6.07421 0
M  V30 1090 N 105.078 -2.85473 4.84213 0
M  V30 1091 H 97.2286 -0.0885624 2.12215 0
M  V30 1092 H 99.4916 -0.10191 0.942506 0
M  V30 1093 H 99.1976 -0.960811 3.38321 0
M  V30 1094 H 99.0716 -2.5896 2.74262 0
M  V30 1095 H 101.459 -2.35443 1.77906 0
M  V30 1096 H 101.54 -0.720939 2.4543 0
M  V30 1097 H 101.184 -1.69238 4.78875 0
M  V30 1098 H 101.114 -3.32638 4.08239 0
M  V30 1099 H 103.605 -2.06057 3.16779 0
M  V30 1100 H 103.918 -3.67586 6.7978 0
M  V30 1101 H 102.263 -3.31191 6.11013 0
M  V30 1102 H 105.454 -2.48136 3.96921 0
M  V30 1103 H 105.627 -3.21814 5.62441 0
M  V30 1104 N 99.0327 -1.24633 -0.964593 0
M  V30 1105 C 100.444 -1.08045 -1.5226 0
M  V30 1106 C 100.795 0.347116 -1.93105 0
M  V30 1107 O 99.9197 1.23588 -1.77637 0
M  V30 1108 C 100.515 -1.95514 -2.76695 0
M  V30 1109 C 99.0737 -1.8314 -3.28841 0
M  V30 1110 C 98.2207 -1.90262 -2.01732 0
M  V30 1111 H 101.172 -1.38064 -0.782553 0
M  V30 1112 H 101.193 -1.48925 -3.50145 0
M  V30 1113 H 100.705 -2.99407 -2.46936 0
M  V30 1114 H 98.8057 -0.82092 -3.63444 0
M  V30 1115 H 98.9187 -2.67406 -3.97531 0
M  V30 1116 H 97.2827 -1.34027 -2.16584 0
M  V30 1117 H 98.0657 -2.9574 -1.74334 0
M  V30 1118 N 100.511 1.16574 -1.06058 0
M  V30 1119 C 101.441 2.23057 -0.690488 0
M  V30 1120 C 102.422 1.67141 0.315901 0
M  V30 1121 O 103.607 1.93253 0.191556 0
M  V30 1122 C 100.737 3.47222 -0.073625 0
M  V30 1123 C 99.6908 4.16016 -1.00573 0
M  V30 1124 C 99.0168 5.34104 -0.252289 0
M  V30 1125 C 100.317 4.67264 -2.33371 0
M  V30 1126 H 102.011 2.54271 -1.58072 0
M  V30 1127 H 99.5568 1.22218 -0.76149 0
M  V30 1128 H 101.51 4.20939 0.19714 0
M  V30 1129 H 100.234 3.15302 0.85161 0
M  V30 1130 H 98.8928 3.44223 -1.2612 0
M  V30 1131 H 98.5408 4.98437 0.675988 0
M  V30 1132 H 98.2408 5.81072 -0.873455 0
M  V30 1133 H 99.7648 6.10599 0.0109857 0
M  V30 1134 H 101.179 5.32573 -2.12223 0
M  V30 1135 H 99.5758 5.24843 -2.90963 0
M  V30 1136 H 100.646 3.83602 -2.96611 0
M  V30 1137 N 101.989 0.842826 1.3317 0
M  V30 1138 C 102.899 0.281444 2.32906 0
M  V30 1139 C 103.915 -0.594587 1.63526 0
M  V30 1140 O 105.091 -0.49777 1.95152 0
M  V30 1141 C 102.156 -0.530929 3.42611 0
M  V30 1142 C 101.217 0.369843 4.27704 0
M  V30 1143 C 100.45 -0.403853 5.3217 0
M  V30 1144 O 100.673 -1.63513 5.46461 0
M  V30 1145 O 99.6069 0.224199 6.01482 0
M  V30 1146 H 103.433 1.10744 2.82789 0
M  V30 1147 H 101.018 0.60545 1.36582 0
M  V30 1148 H 102.9 -0.992437 4.09547 0
M  V30 1149 H 101.575 -1.33392 2.94938 0
M  V30 1150 H 100.482 0.879275 3.6362 0
M  V30 1151 H 101.815 1.13771 4.78871 0
M  V30 1152 N 103.467 -1.45747 0.599634 0
M  V30 1153 C 104.397 -2.33235 -0.111306 0
M  V30 1154 C 105.378 -1.46359 -0.866781 0
M  V30 1155 O 106.563 -1.75146 -0.838904 0
M  V30 1156 C 103.693 -3.28932 -1.11451 0
M  V30 1157 C 102.647 -4.25381 -0.472772 0
M  V30 1158 C 101.973 -5.1071 -1.58365 0
M  V30 1159 C 103.273 -5.18831 0.600948 0
M  V30 1160 H 104.967 -2.92927 0.61919 0
M  V30 1161 H 102.513 -1.40857 0.299215 0
M  V30 1162 H 104.466 -3.89002 -1.62036 0
M  V30 1163 H 103.19 -2.67381 -1.8755 0
M  V30 1164 H 101.849 -3.66598 0.0121472 0
M  V30 1165 H 101.497 -4.45533 -2.33473 0
M  V30 1166 H 101.197 -5.7604 -1.15982 0
M  V30 1167 H 102.721 -5.73647 -2.09194 0
M  V30 1168 H 104.135 -5.73019 0.179491 0
M  V30 1169 H 102.532 -5.92595 0.946076 0
M  V30 1170 H 103.602 -4.6174 1.48068 0
M  V30 1171 N 104.945 -0.338344 -1.53925 0
M  V30 1172 C 106.192 0.259758 -2.00827 0
M  V30 1173 C 106.52 1.50973 -1.22628 0
M  V30 1174 O 105.775 1.93379 -0.300509 0
M  V30 1175 C 106.074 0.62448 -3.51902 0
M  V30 1176 C 105.74 -0.528006 -4.47798 0
M  V30 1177 C 104.402 -0.844298 -4.73735 0
M  V30 1178 C 106.754 -1.30143 -5.0469 0
M  V30 1179 C 104.082 -1.93648 -5.53821 0
M  V30 1180 C 106.434 -2.38382 -5.85967 0
M  V30 1181 C 105.098 -2.70576 -6.10201 0
M  V30 1182 H 104.368 0.0950523 -0.734878 0
M  V30 1183 H 107.015 -0.465182 -1.85764 0
M  V30 1184 H 105.32 1.43006 -3.64769 0
M  V30 1185 H 107.017 1.09905 -3.85645 0
M  V30 1186 H 103.607 -0.271421 -4.2774 0
M  V30 1187 H 107.791 -1.07033 -4.84621 0
M  V30 1188 H 103.047 -2.19021 -5.70824 0
M  V30 1189 H 107.221 -2.98746 -6.29066 0
M  V30 1190 H 104.848 -3.55333 -6.72044 0
M  V30 1191 N 106.423 1.57458 -0.0668435 0
M  V30 1192 C 107.371 2.13639 0.919851 0
M  V30 1193 C 108.365 1.07204 1.31163 0
M  V30 1194 O 109.571 1.25591 1.28945 0
M  V30 1195 H 105.946 0.683048 0.314562 0
M  V30 1196 H 107.917 2.95415 0.421047 0
M  V30 1197 C 106.666 2.70892 2.17975 0
M  V30 1198 H 105.989 3.5246 1.88711 0
M  V30 1199 H 107.429 3.13803 2.85138 0
M  V30 1200 C 105.888 1.65414 2.93496 0
M  V30 1201 O 106.418 1.07619 3.87015 0
M  V30 1202 N 104.624 1.36564 2.56512 0
M  V30 1203 H 104.171 1.83751 1.80536 0
M  V30 1204 H 104.129 0.66223 3.07347 0
M  V30 1205 N 107.901 -0.206675 1.56239 0
M  V30 1206 C 109.149 -0.927007 1.79586 0
M  V30 1207 C 109.47 -1.8427 0.637929 0
M  V30 1208 O 108.74 -1.92849 -0.344398 0
M  V30 1209 H 107.32 -0.345292 0.662407 0
M  V30 1210 H 109.982 -0.21496 1.93711 0
M  V30 1211 H 109.078 -1.52501 2.72305 0
M  V30 1212 N 109.379 -1.50304 -0.473955 0
M  V30 1213 C 110.309 -1.71886 -1.58042 0
M  V30 1214 C 111.29 -0.567799 -1.60344 0
M  V30 1215 O 112.475 -0.806623 -1.76656 0
M  V30 1216 C 109.605 -1.81036 -2.96384 0
M  V30 1217 C 108.559 -2.962 -3.08949 0
M  V30 1218 C 107.885 -2.9049 -4.48909 0
M  V30 1219 C 109.185 -4.36752 -2.86434 0
M  V30 1220 H 110.879 -2.64527 -1.40234 0
M  V30 1221 H 108.425 -1.27295 -0.673201 0
M  V30 1222 H 110.378 -1.94719 -3.73714 0
M  V30 1223 H 109.102 -0.850147 -3.15341 0
M  V30 1224 H 107.761 -2.82164 -2.3405 0
M  V30 1225 H 107.409 -1.92321 -4.64781 0
M  V30 1226 H 107.109 -3.67802 -4.58253 0
M  V30 1227 H 108.633 -3.06218 -5.28264 0
M  V30 1228 H 110.047 -4.5133 -3.53517 0
M  V30 1229 H 108.444 -5.15493 -3.07225 0
M  V30 1230 H 109.514 -4.49321 -1.82316 0
M  V30 1231 N 110.857 0.726932 -1.39834 0
M  V30 1232 C 111.804 1.841 -1.39197 0
M  V30 1233 C 112.774 1.642 -0.250502 0
M  V30 1234 O 113.959 1.85494 -0.446846 0
M  V30 1235 C 111.099 3.21697 -1.24919 0
M  V30 1236 C 110.212 3.53247 -2.48678 0
M  V30 1237 C 109.347 4.80289 -2.26928 0
M  V30 1238 C 108.386 5.04707 -3.4632 0
M  V30 1239 N 107.523 6.22956 -3.23836 0
M  V30 1240 H 112.363 1.83979 -2.34427 0
M  V30 1241 H 109.9 0.898876 -1.16442 0
M  V30 1242 H 111.858 4.01137 -1.1465 0
M  V30 1243 H 110.488 3.21076 -0.333153 0
M  V30 1244 H 109.54 2.68447 -2.69519 0
M  V30 1245 H 110.852 3.67205 -3.37582 0
M  V30 1246 H 110.006 5.67725 -2.13947 0
M  V30 1247 H 108.745 4.68519 -1.35431 0
M  V30 1248 H 107.75 4.1573 -3.5979 0
M  V30 1249 H 108.975 5.18357 -4.38729 0
M  V30 1250 H 106.921 6.12459 -2.35011 0
M  V30 1251 H 106.838 6.37539 -4.063 0
M  V30 1252 H 108.106 7.1321 -3.14566 0
M  V30 1253 N 112.336 1.25143 0.95797 0
M  V30 1254 C 113.266 1.07711 2.07173 0
M  V30 1255 C 114.247 -0.0128462 1.70095 0
M  V30 1256 O 115.432 0.156061 1.93572 0
M  V30 1257 C 112.562 0.691503 3.40346 0
M  V30 1258 C 111.516 1.73132 3.9142 0
M  V30 1259 C 110.842 1.20049 5.21049 0
M  V30 1260 C 112.142 3.1294 4.1817 0
M  V30 1261 H 113.836 2.00873 2.22014 0
M  V30 1262 H 111.382 0.967191 1.06684 0
M  V30 1263 H 113.335 0.556505 4.17709 0
M  V30 1264 H 112.059 -0.275819 3.25433 0
M  V30 1265 H 110.718 1.8547 3.16222 0
M  V30 1266 H 110.366 0.223499 5.02503 0
M  V30 1267 H 110.066 1.89545 5.56189 0
M  V30 1268 H 111.59 1.07782 6.01012 0
M  V30 1269 H 113.004 3.03775 4.86203 0
M  V30 1270 H 111.401 3.79875 4.64559 0
M  V30 1271 H 112.471 3.6025 3.24573 0
M  V30 1272 N 113.814 -1.1601 1.06675 0
M  V30 1273 C 115.039 -1.91068 0.806706 0
M  V30 1274 C 115.464 -1.77112 -0.633485 0
M  V30 1275 O 114.822 -1.09908 -1.44187 0
M  V30 1276 C 114.87 -3.39655 1.21106 0
M  V30 1277 O 113.974 -4.10893 0.352189 0
M  V30 1278 H 113.315 -0.595125 0.294486 0
M  V30 1279 H 115.845 -1.46955 1.42356 0
M  V30 1280 H 115.855 -3.90434 1.18428 0
M  V30 1281 H 114.53 -3.49132 2.26008 0
M  V30 1282 H 113.107 -3.70285 0.440868 0
M  V30 1283 N 115.292 -0.849877 -1.32721 0
M  V30 1284 C 116.708 -0.539102 -1.50219 0
M  V30 1285 C 116.908 0.931271 -1.78689 0
M  V30 1286 O 115.964 1.71455 -1.85363 0
M  V30 1287 C 117.277 -1.42196 -2.64954 0
M  V30 1288 C 118.825 -1.42189 -2.78839 0
M  V30 1289 C 119.3 -2.28985 -3.96648 0
M  V30 1290 N 120.791 -2.26754 -4.03902 0
M  V30 1291 C 121.526 -2.90644 -4.94281 0
M  V30 1292 N 121.022 -3.63629 -5.897 0
M  V30 1293 N 122.815 -2.80057 -4.87365 0
M  V30 1294 H 114.966 -1.80156 -1.12506 0
M  V30 1295 H 117.229 -0.769217 -0.554085 0
M  V30 1296 H 116.935 -2.46733 -2.50631 0
M  V30 1297 H 116.809 -1.10591 -3.60624 0
M  V30 1298 H 119.196 -0.38419 -2.92588 0
M  V30 1299 H 119.277 -1.77807 -1.83898 0
M  V30 1300 H 118.921 -3.32819 -3.83658 0
M  V30 1301 H 118.851 -1.90702 -4.90857 0
M  V30 1302 H 121.342 -1.73688 -3.3562 0
M  V30 1303 H 121.655 -4.09558 -6.55349 0
M  V30 1304 H 120 -3.67737 -5.89741 0
M  V30 1305 H 123.191 -2.22593 -4.11789 0
M  V30 1306 H 123.364 -3.30132 -5.57599 0
M  V30 1307 N 116.77 1.45427 -0.607355 0
M  V30 1308 C 117.68 2.34325 0.113463 0
M  V30 1309 C 118.696 1.51226 0.860617 0
M  V30 1310 O 119.872 1.84029 0.818255 0
M  V30 1311 C 116.937 3.28839 1.09844 0
M  V30 1312 C 115.998 4.27844 0.353271 0
M  V30 1313 C 115.231 5.17842 1.29133 0
M  V30 1314 O 115.454 5.11264 2.52913 0
M  V30 1315 O 114.388 5.96713 0.788523 0
M  V30 1316 H 118.214 2.97364 -0.617094 0
M  V30 1317 H 115.799 1.44807 -0.367619 0
M  V30 1318 H 117.681 3.8708 1.66575 0
M  V30 1319 H 116.356 2.68365 1.81003 0
M  V30 1320 H 115.263 3.7322 -0.256494 0
M  V30 1321 H 116.596 4.91173 -0.317822 0
M  V30 1322 N 118.248 0.346503 1.53744 0
M  V30 1323 C 119.525 -0.304532 1.93215 0
M  V30 1324 C 119.905 -1.67993 1.27834 0
M  V30 1325 O 119.253 -2.24411 0.430352 0
M  V30 1326 C 119.463 -0.373852 3.46992 0
M  V30 1327 C 120.811 -0.62329 4.2 0
M  V30 1328 O 121.835 -0.455847 3.53271 0
M  V30 1329 O 120.694 -0.947879 5.38217 0
M  V30 1330 H 117.788 -0.178318 0.807547 0
M  V30 1331 H 120.334 0.397895 1.64969 0
M  V30 1332 H 119.106 0.591224 3.86808 0
M  V30 1333 H 118.729 -1.12294 3.81413 0
M  V30 1334 N 119.726 -1.57421 0.075193 0
M  V30 1335 C 120.973 -1.93618 -0.593146 0
M  V30 1336 C 121.301 -0.955484 -1.69413 0
M  V30 1337 O 120.556 0.0283251 -1.9568 0
M  V30 1338 C 120.855 -3.36428 -1.20626 0
M  V30 1339 C 120.521 -4.50307 -0.231078 0
M  V30 1340 C 119.183 -4.81186 0.0371936 0
M  V30 1341 C 121.535 -5.19374 0.435888 0
M  V30 1342 C 118.863 -5.78466 0.979461 0
M  V30 1343 C 121.215 -6.17665 1.3665 0
M  V30 1344 C 119.879 -6.46958 1.6432 0
M  V30 1345 H 119.149 -0.708499 -0.217047 0
M  V30 1346 H 121.796 -1.90937 0.146793 0
M  V30 1347 H 120.101 -3.35592 -2.02201 0
M  V30 1348 H 121.798 -3.61727 -1.73073 0
M  V30 1349 H 118.388 -4.26227 -0.450357 0
M  V30 1350 H 122.572 -4.95711 0.241748 0
M  V30 1351 H 117.828 -5.99487 1.20106 0
M  V30 1352 H 122.002 -6.70284 1.88924 0
M  V30 1353 H 119.629 -7.2215 2.37494 0
M  V30 1354 N 121.204 0.198386 -1.56346 0
M  V30 1355 C 122.134 1.24865 -1.9731 0
M  V30 1356 C 123.115 1.47651 -0.844576 0
M  V30 1357 O 124.3 1.59444 -1.10866 0
M  V30 1358 C 121.43 2.59358 -2.30977 0
M  V30 1359 C 120.384 2.5119 -3.46537 0
M  V30 1360 C 119.71 3.89926 -3.65871 0
M  V30 1361 C 121.01 2.03977 -4.80823 0
M  V30 1362 H 122.704 0.908252 -2.85291 0
M  V30 1363 H 120.25 0.435462 -1.37258 0
M  V30 1364 H 122.203 3.33011 -2.58228 0
M  V30 1365 H 120.927 2.95132 -1.39874 0
M  V30 1366 H 119.586 1.79993 -3.19371 0
M  V30 1367 H 119.234 4.23046 -2.72105 0
M  V30 1368 H 118.934 3.85336 -4.4361 0
M  V30 1369 H 120.458 4.65205 -3.95495 0
M  V30 1370 H 121.872 2.67386 -5.07127 0
M  V30 1371 H 120.269 2.10397 -5.62008 0
M  V30 1372 H 121.339 0.992861 -4.74626 0
M  V30 1373 N 122.682 1.50554 0.465978 0
M  V30 1374 C 124.098 1.38093 0.800154 0
M  V30 1375 C 124.298 0.440988 1.96615 0
M  V30 1376 O 123.354 -0.114499 2.5224 0
M  V30 1377 C 124.667 2.79565 1.10742 0
M  V30 1378 C 126.215 2.88516 1.21357 0
M  V30 1379 C 126.69 4.30833 1.55393 0
M  V30 1380 N 128.181 4.33807 1.62375 0
M  V30 1381 C 128.916 5.40927 1.90225 0
M  V30 1382 N 128.412 6.58247 2.16062 0
M  V30 1383 N 130.205 5.28376 1.9177 0
M  V30 1384 H 122.356 2.10237 -0.302366 0
M  V30 1385 H 124.619 0.945203 -0.0727746 0
M  V30 1386 H 124.325 3.50208 0.323661 0
M  V30 1387 H 124.199 3.17125 2.04234 0
M  V30 1388 H 126.586 2.1809 1.98799 0
M  V30 1389 H 126.667 2.54492 0.258321 0
M  V30 1390 H 126.311 5.01799 0.784889 0
M  V30 1391 H 126.241 4.62347 2.52076 0
M  V30 1392 H 128.732 3.49212 1.44427 0
M  V30 1393 H 129.045 7.3569 2.36601 0
M  V30 1394 H 127.39 6.61413 2.13444 0
M  V30 1395 H 130.581 4.35715 1.71085 0
M  V30 1396 H 130.754 6.11944 2.13139 0
M  V30 1397 N 124.16 -0.719506 1.40217 0
M  V30 1398 C 125.07 -1.86378 1.42479 0
M  V30 1399 C 126.086 -1.71073 0.317834 0
M  V30 1400 O 127.262 -1.93406 0.561794 0
M  V30 1401 C 124.327 -3.22136 1.28178 0
M  V30 1402 C 123.388 -3.49723 2.48982 0
M  V30 1403 C 122.621 -4.79004 2.35353 0
M  V30 1404 O 122.844 -5.53821 1.36524 0
M  V30 1405 O 121.778 -5.06839 3.2465 0
M  V30 1406 H 125.604 -1.87425 2.38968 0
M  V30 1407 H 123.189 -0.869405 1.21498 0
M  V30 1408 H 125.071 -4.03234 1.22395 0
M  V30 1409 H 123.746 -3.21825 0.347934 0
M  V30 1410 H 122.653 -2.6865 2.60342 0
M  V30 1411 H 123.986 -3.54828 3.41113 0
M  V30 1412 N 125.638 -1.25649 -0.95132 0
M  V30 1413 C 126.568 -1.08808 -2.06599 0
M  V30 1414 C 127.549 0.00382547 -1.701 0
M  V30 1415 O 128.734 -0.166325 -1.93486 0
M  V30 1416 C 125.864 -0.709542 -3.39975 0
M  V30 1417 C 124.818 -1.75206 -3.90496 0
M  V30 1418 C 124.144 -1.22811 -5.20405 0
M  V30 1419 C 125.444 -3.15153 -4.16504 0
M  V30 1420 H 127.138 -2.02048 -2.20946 0
M  V30 1421 H 124.684 -0.972835 -1.06169 0
M  V30 1422 H 126.637 -0.578649 -4.17408 0
M  V30 1423 H 125.361 0.258556 -3.25575 0
M  V30 1424 H 124.02 -1.87145 -3.15234 0
M  V30 1425 H 123.668 -0.250145 -5.02378 0
M  V30 1426 H 123.368 -1.92492 -5.55176 0
M  V30 1427 H 124.892 -1.10968 -6.00432 0
M  V30 1428 H 126.306 -3.06349 -4.84586 0
M  V30 1429 H 124.703 -3.82333 -4.62538 0
M  V30 1430 H 125.773 -3.61966 -3.22658 0
M  V30 1431 N 127.117 1.15442 -1.07289 0
M  V30 1432 C 128.394 1.82306 -0.708792 0
M  V30 1433 C 128.774 1.94991 0.808807 0
M  V30 1434 O 128.122 1.50085 1.72298 0
M  V30 1435 C 128.332 3.18695 -1.42247 0
M  V30 1436 C 129.68 3.94341 -1.57417 0
M  V30 1437 O 130.704 3.28247 -1.38319 0
M  V30 1438 O 129.563 5.12839 -1.88834 0
M  V30 1439 H 126.657 0.787628 -0.252132 0
M  V30 1440 H 129.203 1.22559 -1.17377 0
M  V30 1441 H 127.975 3.04557 -2.45684 0
M  V30 1442 H 127.598 3.86128 -0.948223 0
M  V30 1443 N 128.595 0.856903 1.32268 0
M  V30 1444 C 129.558 0.308171 2.27119 0
M  V30 1445 C 130.558 -0.533421 1.51695 0
M  V30 1446 O 131.748 -0.344607 1.70757 0
M  V30 1447 C 128.88 -0.563757 3.36206 0
M  V30 1448 H 130.073 1.14535 2.77167 0
M  V30 1449 H 127.626 0.631421 1.42978 0
M  V30 1450 H 128.361 -1.42266 2.91429 0
M  V30 1451 H 128.146 0.0386749 3.92081 0
M  V30 1452 H 129.636 -0.940386 4.06874 0
M  V30 1453 N 130.073 -1.45103 0.615059 0
M  V30 1454 C 131.003 -2.33339 -0.0865619 0
M  V30 1455 C 131.984 -1.4727 -0.851209 0
M  V30 1456 O 133.169 -1.76026 -0.820281 0
M  V30 1457 C 130.299 -3.30095 -1.07956 0
M  V30 1458 C 129.253 -4.25858 -0.427628 0
M  V30 1459 C 128.579 -5.12361 -1.5294 0
M  V30 1460 C 129.879 -5.18165 0.655944 0
M  V30 1461 H 131.573 -2.92254 0.650224 0
M  V30 1462 H 129.119 -1.40532 0.314138 0
M  V30 1463 H 131.072 -3.90698 -1.57901 0
M  V30 1464 H 129.796 -2.69355 -1.84703 0
M  V30 1465 H 128.455 -3.66564 0.0510292 0
M  V30 1466 H 128.103 -4.47984 -2.28734 0
M  V30 1467 H 127.803 -5.77238 -1.09865 0
M  V30 1468 H 129.327 -5.75833 -2.03098 0
M  V30 1469 H 130.741 -5.72796 0.240257 0
M  V30 1470 H 129.138 -5.91559 1.00888 0
M  V30 1471 H 130.208 -4.60144 1.52957 0
M  V30 1472 N 131.551 -0.354651 -1.53558 0
M  V30 1473 C 132.799 0.237972 -2.00694 0
M  V30 1474 C 133.12 1.50173 -1.24391 0
M  V30 1475 O 132.39 1.92673 -0.354135 0
M  V30 1476 H 130.97 0.0909256 -0.741446 0
M  V30 1477 H 133.632 -0.478368 -1.88938 0
M  V30 1478 H 132.728 0.47264 -3.085 0
M  V30 1479 N 133.029 1.57378 -0.0835403 0
M  V30 1480 C 134.259 1.97975 0.590713 0
M  V30 1481 C 134.667 0.961083 1.62972 0
M  V30 1482 O 134.01 -0.0590879 1.83605 0
M  V30 1483 C 134.072 3.34915 1.3066 0
M  V30 1484 C 133.736 4.55069 0.419698 0
M  V30 1485 C 134.733 5.18868 -0.32749 0
M  V30 1486 C 132.418 5.0114 0.341137 0
M  V30 1487 C 134.412 6.27098 -1.14134 0
M  V30 1488 C 132.099 6.0924 -0.476374 0
M  V30 1489 C 133.097 6.72083 -1.21627 0
M  V30 1490 O 132.785 7.781 -2.02028 0
M  V30 1491 H 132.517 0.655818 0.163947 0
M  V30 1492 H 135.071 2.04807 -0.156021 0
M  V30 1493 H 133.301 3.24733 2.09966 0
M  V30 1494 H 134.99 3.60037 1.87424 0
M  V30 1495 H 135.756 4.84211 -0.276459 0
M  V30 1496 H 131.635 4.51996 0.90668 0
M  V30 1497 H 135.179 6.7608 -1.71935 0
M  V30 1498 H 131.076 6.43329 -0.528927 0
M  V30 1499 H 131.844 7.95034 -1.94586 0
M  V30 1500 N 134.507 -0.190092 1.56449 0
M  V30 1501 C 135.923 -0.54113 1.50146 0
M  V30 1502 C 136.123 -1.85603 0.784465 0
M  V30 1503 O 135.179 -2.5024 0.337051 0
M  V30 1504 C 136.492 -0.591241 2.9483 0
M  V30 1505 C 138.04 -0.679732 3.0553 0
M  V30 1506 C 138.515 -0.760908 4.51635 0
M  V30 1507 N 140.006 -0.824302 4.55806 0
M  V30 1508 C 140.741 -0.907365 5.66175 0
M  V30 1509 N 140.237 -0.952422 6.86222 0
M  V30 1510 N 142.03 -0.94494 5.541 0
M  V30 1511 H 134.181 0.67235 2.01478 0
M  V30 1512 H 136.444 0.240127 0.917084 0
M  V30 1513 H 136.15 0.305905 3.50367 0
M  V30 1514 H 136.024 -1.44422 3.48457 0
M  V30 1515 H 138.411 -1.56731 2.50039 0
M  V30 1516 H 138.492 0.199549 2.5502 0
M  V30 1517 H 138.136 0.122336 5.07753 0
M  V30 1518 H 138.066 -1.65606 4.99882 0
M  V30 1519 H 140.557 -0.798526 3.69367 0
M  V30 1520 H 140.87 -1.01645 7.66086 0
M  V30 1521 H 139.215 -0.921014 6.8887 0
M  V30 1522 H 142.406 -0.906612 4.59236 0
M  V30 1523 H 142.579 -1.00622 6.4014 0
M  V30 1524 N 135.985 -1.50799 -0.457987 0
M  V30 1525 C 137.401 -1.38515 -0.792819 0
M  V30 1526 C 137.601 -0.451409 -1.96379 0
M  V30 1527 O 136.657 0.10112 -2.52297 0
M  V30 1528 C 137.97 -2.80149 -1.09258 0
M  V30 1529 C 139.518 -2.89156 -1.19825 0
M  V30 1530 C 139.993 -4.31651 -1.53106 0
M  V30 1531 N 141.484 -4.34662 -1.60072 0
M  V30 1532 C 142.219 -5.41928 -1.87354 0
M  V30 1533 N 141.715 -6.59384 -2.12568 0
M  V30 1534 N 143.508 -5.29385 -1.88965 0
M  V30 1535 H 135.659 -2.10073 0.313511 0
M  V30 1536 H 137.922 -0.944803 0.0777862 0
M  V30 1537 H 137.628 -3.50374 -0.305084 0
M  V30 1538 H 137.502 -3.18204 -2.02549 0
M  V30 1539 H 139.889 -2.19141 -1.97639 0
M  V30 1540 H 139.97 -2.54626 -0.244821 0
M  V30 1541 H 139.614 -5.02208 -0.758266 0
M  V30 1542 H 139.544 -4.63678 -2.49621 0
M  V30 1543 H 142.035 -3.49973 -1.42573 0
M  V30 1544 H 142.348 -7.36934 -2.32696 0
M  V30 1545 H 140.693 -6.62535 -2.09933 0
M  V30 1546 H 143.884 -4.36616 -1.68772 0
M  V30 1547 H 144.057 -6.13066 -2.09891 0
M  V30 1548 N 137.463 0.71206 -1.40597 0
M  V30 1549 C 138.373 1.8562 -1.43466 0
M  V30 1550 C 139.389 1.70902 -0.326902 0
M  V30 1551 O 140.565 1.93105 -0.572043 0
M  V30 1552 C 137.63 3.21451 -1.29884 0
M  V30 1553 C 136.691 3.48398 -2.50833 0
M  V30 1554 C 135.924 4.77749 -2.3789 0
M  V30 1555 O 136.147 5.53089 -1.39459 0
M  V30 1556 O 135.081 5.05111 -3.27333 0
M  V30 1557 H 138.907 1.86155 -2.39958 0
M  V30 1558 H 136.492 0.86295 -1.21957 0
M  V30 1559 H 138.374 4.02579 -1.24531 0
M  V30 1560 H 137.049 3.21636 -0.364997 0
M  V30 1561 H 135.956 2.67265 -2.61763 0
M  V30 1562 H 137.289 3.53014 -3.4299 0
M  V30 1563 N 138.941 1.26152 0.944643 0
M  V30 1564 C 140.352 1.10454 1.50522 0
M  V30 1565 C 140.703 -0.31635 1.93633 0
M  V30 1566 O 139.828 -1.20746 1.79581 0
M  V30 1567 C 140.423 1.99891 2.73549 0
M  V30 1568 C 138.982 1.88348 3.25886 0
M  V30 1569 C 138.129 1.93447 1.9868 0
M  V30 1570 H 141.08 1.39292 0.760489 0
M  V30 1571 H 141.101 1.54477 3.47732 0
M  V30 1572 H 140.613 3.03297 2.42141 0
M  V30 1573 H 138.714 0.878636 3.62092 0
M  V30 1574 H 138.827 2.73696 3.93227 0
M  V30 1575 H 137.191 1.37456 2.14425 0
M  V30 1576 H 137.974 2.98476 1.69607 0
M  V30 1577 N 140.419 -1.14872 1.07899 0
M  V30 1578 C 141.644 -1.90202 0.826926 0
M  V30 1579 C 142.069 -1.77774 -0.614664 0
M  V30 1580 O 141.427 -1.11431 -1.43013 0
M  V30 1581 C 141.475 -3.38352 1.24702 0
M  V30 1582 O 140.579 -4.10497 0.39575 0
M  V30 1583 H 139.92 -0.591968 0.300782 0
M  V30 1584 H 142.45 -1.45437 1.43907 0
M  V30 1585 H 142.46 -3.89156 1.22563 0
M  V30 1586 H 141.135 -3.46715 2.29698 0
M  V30 1587 H 139.712 -3.69796 0.480117 0
M  V30 1588 N 141.898 -0.863906 -1.31812 0
M  V30 1589 C 143.144 -0.472535 -1.97218 0
M  V30 1590 C 143.477 0.971394 -1.68159 0
M  V30 1591 O 142.752 1.68309 -0.974798 0
M  V30 1592 C 143.035 -0.723054 -3.52766 0
M  V30 1593 C 142.888 -2.21608 -3.91421 0
M  V30 1594 C 144.207 -0.185522 -4.39709 0
M  V30 1595 H 141.326 -0.173158 -0.71637 0
M  V30 1596 H 143.968 -1.08403 -1.56041 0
M  V30 1597 H 142.118 -0.202577 -3.87971 0
M  V30 1598 H 143.79 -2.80334 -3.66347 0
M  V30 1599 H 142.033 -2.691 -3.40246 0
M  V30 1600 H 142.704 -2.34203 -4.99853 0
M  V30 1601 H 145.18 -0.630726 -4.11292 0
M  V30 1602 H 144.056 -0.390306 -5.47511 0
M  V30 1603 H 144.317 0.912229 -4.32586 0
M  V30 1604 N 143.376 1.44774 -0.622745 0
M  V30 1605 C 144.601 2.06999 -0.128968 0
M  V30 1606 C 145.026 1.4617 1.1839 0
M  V30 1607 O 144.384 0.560007 1.72434 0
M  V30 1608 C 144.432 3.60595 -0.0188351 0
M  V30 1609 O 143.536 3.99398 1.02739 0
M  V30 1610 H 142.877 0.659047 -0.0809544 0
M  V30 1611 H 145.407 1.85784 -0.85705 0
M  V30 1612 H 145.417 4.07627 0.174476 0
M  V30 1613 H 144.092 4.04252 -0.977384 0
M  V30 1614 H 142.669 3.64011 0.809326 0
M  V30 1615 N 144.854 0.36279 1.53368 0
M  V30 1616 C 146.102 -0.227326 2.00817 0
M  V30 1617 C 146.423 -1.49511 1.25186 0
M  V30 1618 O 145.693 -1.92482 0.364348 0
M  V30 1619 H 144.273 -0.0869923 0.741917 0
M  V30 1620 H 146.935 0.488381 1.88682 0
M  V30 1621 H 146.031 -0.456273 3.08747 0
M  V30 1622 N 146.332 -1.57332 0.0918853 0
M  V30 1623 C 147.743 -1.81496 -0.437739 0
M  V30 1624 C 148.094 -1.00727 -1.6837 0
M  V30 1625 O 147.219 -0.235694 -2.15113 0
M  V30 1626 C 147.814 -3.29197 -0.800939 0
M  V30 1627 C 146.373 -3.54136 -1.27532 0
M  V30 1628 C 145.52 -2.75979 -0.270392 0
M  V30 1629 H 148.471 -1.55494 0.317366 0
M  V30 1630 H 148.492 -3.42344 -1.66074 0
M  V30 1631 H 148.004 -3.87955 0.106078 0
M  V30 1632 H 146.105 -3.00705 -2.20016 0
M  V30 1633 H 146.218 -4.62792 -1.23938 0
M  V30 1634 H 144.582 -2.43349 -0.751872 0
M  V30 1635 H 145.365 -3.37484 0.629248 0
M  V30 1636 N 147.81 0.181792 -1.56548 0
M  V30 1637 C 149.058 0.89832 -1.81038 0
M  V30 1638 C 149.379 1.83232 -0.667164 0
M  V30 1639 O 148.649 1.93372 0.313673 0
M  V30 1640 H 147.229 0.33471 -0.667816 0
M  V30 1641 H 149.891 0.184116 -1.94028 0
M  V30 1642 H 148.987 1.4815 -2.74696 0
M  V30 1643 N 149.288 1.51039 0.449983 0
M  V30 1644 C 150.516 1.66869 1.2232 0
M  V30 1645 C 150.931 0.360727 1.85322 0
M  V30 1646 O 150.288 -0.659531 1.70166 0
M  V30 1647 C 150.339 2.77524 2.31652 0
M  V30 1648 O 150.06 4.03252 1.7123 0
M  V30 1649 C 151.561 3.04512 3.2216 0
M  V30 1650 H 148.781 0.560326 0.369155 0
M  V30 1651 H 151.325 1.97385 0.534719 0
M  V30 1652 H 149.48 2.49642 2.96239 0
M  V30 1653 H 149.894 4.64609 2.43389 0
M  V30 1654 H 151.368 3.85551 3.95038 0
M  V30 1655 H 151.845 2.16415 3.8218 0
M  V30 1656 H 152.451 3.34005 2.63288 0
M  V30 1657 N 150.766 -0.704594 1.40972 0
M  V30 1658 C 152.012 -1.46675 1.40051 0
M  V30 1659 C 152.345 -1.94199 0.00641102 0
M  V30 1660 O 151.62 -1.68916 -0.964235 0
M  V30 1661 C 151.903 -2.68505 2.39952 0
M  V30 1662 C 151.756 -2.26805 3.88432 0
M  V30 1663 C 153.075 -3.70686 2.37233 0
M  V30 1664 H 150.194 -0.532015 0.510028 0
M  V30 1665 H 152.836 -0.803255 1.72185 0
M  V30 1666 H 150.986 -3.25114 2.1268 0
M  V30 1667 H 152.658 -1.75592 4.26574 0
M  V30 1668 H 150.901 -1.58685 4.03734 0
M  V30 1669 H 151.572 -3.14181 4.53866 0
M  V30 1670 H 154.048 -3.23731 2.61415 0
M  V30 1671 H 152.924 -4.53553 3.09162 0
M  V30 1672 H 153.185 -4.19754 1.38777 0
M  V30 1673 N 152.244 -1.26651 -0.937939 0
M  V30 1674 C 153.469 -1.15279 -1.72411 0
M  V30 1675 C 153.894 0.287866 -1.85884 0
M  V30 1676 O 153.252 1.20855 -1.35143 0
M  V30 1677 C 153.3 -1.83028 -3.10698 0
M  V30 1678 O 152.404 -1.12128 -3.96864 0
M  V30 1679 H 151.745 -0.401504 -0.528858 0
M  V30 1680 H 154.275 -1.67531 -1.1745 0
M  V30 1681 H 154.285 -1.89981 -3.6107 0
M  V30 1682 H 152.96 -2.87833 -3.00208 0
M  V30 1683 H 151.537 -1.13173 -3.55312 0
M  V30 1684 N 153.722 1.14298 -1.08507 0
M  V30 1685 C 154.968 1.85633 -0.816581 0
M  V30 1686 C 155.301 1.82784 0.656021 0
M  V30 1687 O 154.576 1.25926 1.48233 0
M  V30 1688 C 154.859 3.34223 -1.34041 0
M  V30 1689 C 154.712 3.45639 -2.87843 0
M  V30 1690 C 156.031 4.29356 -0.9665 0
M  V30 1691 H 153.15 0.67402 -0.298104 0
M  V30 1692 H 155.792 1.34214 -1.34487 0
M  V30 1693 H 153.942 3.78144 -0.89104 0
M  V30 1694 H 155.614 3.10498 -3.41158 0
M  V30 1695 H 153.857 2.86817 -3.25451 0
M  V30 1696 H 154.528 4.50089 -3.19569 0
M  V30 1697 H 157.004 3.93457 -1.35391 0
M  V30 1698 H 155.88 5.3178 -1.3602 0
M  V30 1699 H 156.141 4.41919 0.126362 0
M  V30 1700 N 155.201 0.870884 1.31352 0
M  V30 1701 C 156.164 0.332243 2.26779 0
M  V30 1702 C 157.164 -0.517302 1.52252 0
M  V30 1703 O 158.354 -0.326477 1.71113 0
M  V30 1704 C 155.486 -0.528066 3.36785 0
M  V30 1705 H 156.679 1.17469 2.75937 0
M  V30 1706 H 154.232 0.64655 1.423 0
M  V30 1707 H 154.967 -1.39167 2.92922 0
M  V30 1708 H 154.752 0.0802582 3.92018 0
M  V30 1709 H 156.242 -0.897179 4.07849 0
M  V30 1710 N 156.679 -1.44442 0.630414 0
M  V30 1711 C 157.642 -2.29107 -0.0652523 0
M  V30 1712 C 158.642 -1.41002 -0.772995 0
M  V30 1713 O 159.832 -1.62881 -0.617692 0
M  V30 1714 C 156.964 -3.22564 -1.10296 0
M  V30 1715 H 158.157 -2.92103 0.679401 0
M  V30 1716 H 155.71 -1.51343 0.390517 0
M  V30 1717 H 156.445 -2.64416 -1.87762 0
M  V30 1718 H 156.23 -3.87491 -0.59941 0
M  V30 1719 H 157.72 -3.86167 -1.5895 0
M  V30 1720 N 158.157 -0.370918 -1.53173 0
M  V30 1721 C 159.382 0.220293 -2.06227 0
M  V30 1722 C 159.807 1.41243 -1.24225 0
M  V30 1723 O 159.165 1.79387 -0.262645 0
M  V30 1724 C 159.213 0.586663 -3.55796 0
M  V30 1725 O 158.317 1.68317 -3.76488 0
M  V30 1726 H 157.658 0.0308099 -0.663285 0
M  V30 1727 H 160.188 -0.533068 -1.97534 0
M  V30 1728 H 160.198 0.85617 -3.98916 0
M  V30 1729 H 158.873 -0.285013 -4.14922 0
M  V30 1730 H 157.45 1.40881 -3.45264 0
M  V30 1731 N 159.635 1.57281 -0.100228 0
M  V30 1732 C 160.598 2.13158 0.842398 0
M  V30 1733 C 161.598 1.06202 1.20738 0
M  V30 1734 O 162.788 1.32066 1.13597 0
M  V30 1735 C 159.92 2.65639 2.13655 0
M  V30 1736 H 161.113 2.97766 0.357114 0
M  V30 1737 H 158.666 1.5559 0.148823 0
M  V30 1738 H 159.401 1.84566 2.66657 0
M  V30 1739 H 159.186 3.43844 1.88451 0
M  V30 1740 H 160.676 3.08846 2.81077 0
M  V30 1741 N 161.113 -0.173488 1.56642 0
M  V30 1742 C 162.359 -0.891784 1.8214 0
M  V30 1743 C 162.692 -1.8199 0.677736 0
M  V30 1744 O 161.967 -1.91842 -0.320446 0
M  V30 1745 C 162.25 -1.68933 3.18015 0
M  V30 1746 C 162.103 -0.784487 4.42906 0
M  V30 1747 C 163.422 -2.65748 3.50808 0
M  V30 1748 H 160.541 -0.322761 0.662567 0
M  V30 1749 H 163.183 -0.158095 1.89341 0
M  V30 1750 H 161.333 -2.31482 3.12007 0
M  V30 1751 H 163.005 -0.172046 4.60979 0
M  V30 1752 H 161.248 -0.0924117 4.33702 0
M  V30 1753 H 161.919 -1.37799 5.34524 0
M  V30 1754 H 164.395 -2.13327 3.57255 0
M  V30 1755 H 163.271 -3.18619 4.4696 0
M  V30 1756 H 163.532 -3.45842 2.75401 0
M  V30 1757 N 162.591 -1.51276 -0.441967 0
M  V30 1758 C 163.501 -1.75092 -1.56141 0
M  V30 1759 C 164.517 -0.634963 -1.62001 0
M  V30 1760 O 165.693 -0.916686 -1.79329 0
M  V30 1761 C 162.758 -1.86666 -2.92158 0
M  V30 1762 C 161.819 -3.10506 -2.96453 0
M  V30 1763 C 161.052 -3.21519 -4.25982 0
M  V30 1764 O 161.275 -2.38586 -5.18105 0
M  V30 1765 O 160.209 -4.14465 -4.36466 0
M  V30 1766 H 164.035 -2.70044 -1.38961 0
M  V30 1767 H 161.62 -1.35722 -0.624499 0
M  V30 1768 H 163.502 -1.96292 -3.72891 0
M  V30 1769 H 162.177 -0.949014 -3.09476 0
M  V30 1770 H 161.084 -3.06363 -2.14692 0
M  V30 1771 H 162.417 -4.01945 -2.84079 0
M  V30 1772 N 164.069 0.697108 -1.41344 0
M  V30 1773 C 164.999 1.82353 -1.45841 0
M  V30 1774 C 165.98 1.67115 -0.317247 0
M  V30 1775 O 167.165 1.86871 -0.528474 0
M  V30 1776 C 164.295 3.20476 -1.33838 0
M  V30 1777 C 163.249 3.50415 -2.4575 0
M  V30 1778 C 162.575 4.87878 -2.18813 0
M  V30 1779 C 163.875 3.49546 -3.88091 0
M  V30 1780 H 165.569 1.78846 -2.40113 0
M  V30 1781 H 163.115 0.859028 -1.15571 0
M  V30 1782 H 165.068 3.98988 -1.35596 0
M  V30 1783 H 163.792 3.24604 -0.360498 0
M  V30 1784 H 162.451 2.74253 -2.43271 0
M  V30 1785 H 162.099 4.8863 -1.19371 0
M  V30 1786 H 161.799 5.08875 -2.93803 0
M  V30 1787 H 163.323 5.68702 -2.22284 0
M  V30 1788 H 164.737 4.18066 -3.92293 0
M  V30 1789 H 163.134 3.82075 -4.62751 0
M  V30 1790 H 164.204 2.48552 -4.16353 0
M  V30 1791 N 165.547 1.27147 0.931209 0
M  V30 1792 C 166.495 1.09398 2.05268 0
M  V30 1793 C 167.489 0.0180591 1.6939 0
M  V30 1794 O 168.695 0.17551 1.79142 0
M  V30 1795 H 165.07 0.336986 0.672268 0
M  V30 1796 H 167.041 2.04416 2.17386 0
M  V30 1797 C 165.79 0.75424 3.39421 0
M  V30 1798 H 165.113 1.57404 3.67511 0
M  V30 1799 H 166.553 0.669903 4.18674 0
M  V30 1800 C 165.012 -0.541197 3.32525 0
M  V30 1801 O 165.542 -1.57664 3.69466 0
M  V30 1802 N 163.748 -0.535517 2.85623 0
M  V30 1803 H 163.295 0.307511 2.55758 0
M  V30 1804 H 163.253 -1.40236 2.81392 0
M  V30 1805 N 167.025 -1.13721 1.09112 0
M  V30 1806 C 168.253 -1.88773 0.846899 0
M  V30 1807 C 168.668 -1.7896 -0.601572 0
M  V30 1808 O 168.025 -1.15394 -1.41388 0
M  V30 1809 C 168.076 -3.3849 1.26913 0
M  V30 1810 O 167.797 -3.48043 2.66079 0
M  V30 1811 C 169.298 -4.30518 1.05682 0
M  V30 1812 H 166.518 -0.59772 0.304914 0
M  V30 1813 H 169.062 -1.43977 1.45227 0
M  V30 1814 H 167.217 -3.80881 0.707723 0
M  V30 1815 H 167.631 -4.4109 2.83795 0
M  V30 1816 H 169.105 -5.3391 1.40156 0
M  V30 1817 H 169.582 -4.392 -0.00563416 0
M  V30 1818 H 170.188 -3.93893 1.60402 0
M  V30 1819 N 168.503 -0.877838 -1.30888 0
M  V30 1820 C 169.919 -0.570844 -1.49042 0
M  V30 1821 C 170.119 0.893159 -1.80624 0
M  V30 1822 O 169.175 1.67485 -1.88958 0
M  V30 1823 C 170.488 -1.47784 -2.61878 0
M  V30 1824 C 172.036 -1.48071 -2.75761 0
M  V30 1825 C 172.511 -2.37347 -3.91702 0
M  V30 1826 N 174.002 -2.35271 -3.99001 0
M  V30 1827 C 174.737 -3.01063 -4.88004 0
M  V30 1828 N 174.233 -3.76055 -5.81854 0
M  V30 1829 N 176.026 -2.90332 -4.81315 0
M  V30 1830 H 168.177 -1.82502 -1.0866 0
M  V30 1831 H 170.44 -0.780797 -0.537644 0
M  V30 1832 H 170.146 -2.51993 -2.45341 0
M  V30 1833 H 170.02 -1.18215 -3.58197 0
M  V30 1834 H 172.407 -0.446166 -2.91708 0
M  V30 1835 H 172.488 -1.81668 -1.80085 0
M  V30 1836 H 172.132 -3.40883 -3.76512 0
M  V30 1837 H 172.062 -2.01071 -4.86701 0
M  V30 1838 H 174.553 -1.80768 -3.3186 0
M  V30 1839 H 174.866 -4.23366 -6.46514 0
M  V30 1840 H 173.211 -3.80163 -5.81808 0
M  V30 1841 H 176.402 -2.31278 -4.06974 0
M  V30 1842 H 176.575 -3.41885 -5.50471 0
M  V30 1843 N 169.982 1.44106 -0.638065 0
M  V30 1844 C 171.23 2.01579 -0.145043 0
M  V30 1845 C 171.551 1.50496 1.24 0
M  V30 1846 O 170.821 0.711374 1.82527 0
M  V30 1847 H 169.401 0.745282 -0.05063 0
M  V30 1848 H 172.063 1.76516 -0.826327 0
M  V30 1849 H 171.159 3.11877 -0.118039 0
M  V30 1850 N 171.46 0.379036 1.52974 0
M  V30 1851 C 172.707 -0.206421 2.01445 0
M  V30 1852 C 173.035 -1.47668 1.26587 0
M  V30 1853 O 172.29 -1.92514 0.351675 0
M  V30 1854 C 172.589 -0.53096 3.53434 0
M  V30 1855 C 172.255 0.646546 4.46241 0
M  V30 1856 C 170.917 0.969604 4.7133 0
M  V30 1857 C 173.269 1.43479 5.01062 0
M  V30 1858 C 170.597 2.08263 5.48492 0
M  V30 1859 C 172.949 2.53834 5.7944 0
M  V30 1860 C 171.613 2.86659 6.02812 0
M  V30 1861 H 170.883 -0.0755349 0.73714 0
M  V30 1862 H 173.53 0.514271 1.84465 0
M  V30 1863 H 171.835 -1.33285 3.68432 0
M  V30 1864 H 173.532 -0.996417 3.88423 0
M  V30 1865 H 170.122 0.384734 4.2687 0
M  V30 1866 H 174.306 1.19844 4.81613 0
M  V30 1867 H 169.562 2.34078 5.64816 0
M  V30 1868 H 173.736 3.15319 6.20924 0
M  V30 1869 H 171.363 3.73026 6.62387 0
M  V30 1870 N 172.938 -1.57226 0.108567 0
M  V30 1871 C 173.87 -2.11809 -0.875752 0
M  V30 1872 C 174.883 -1.05839 -1.23701 0
M  V30 1873 O 176.072 -1.33245 -1.18778 0
M  V30 1874 C 173.172 -2.59411 -2.18081 0
M  V30 1875 C 172.345 -3.89364 -1.99284 0
M  V30 1876 C 171.404 -4.22672 -3.13424 0
M  V30 1877 O 170.43 -4.91668 -2.86795 0
M  V30 1878 N 171.632 -3.79154 -4.3957 0
M  V30 1879 H 174.397 -2.9689 -0.409477 0
M  V30 1880 H 171.958 -1.61721 -0.076158 0
M  V30 1881 H 173.95 -2.7873 -2.93414 0
M  V30 1882 H 172.52 -1.79268 -2.5609 0
M  V30 1883 H 171.74 -3.79059 -1.08203 0
M  V30 1884 H 173.028 -4.74358 -1.84017 0
M  V30 1885 H 172.426 -3.23486 -4.64083 0
M  V30 1886 H 170.983 -4.03602 -5.11809 0
M  V30 1887 N 174.416 0.165178 -1.56732 0
M  V30 1888 C 175.663 0.880807 -1.8234 0
M  V30 1889 C 175.991 1.81977 -0.686621 0
M  V30 1890 O 175.246 1.92971 0.325697 0
M  V30 1891 C 175.545 1.70405 -3.1416 0
M  V30 1892 C 175.211 0.913475 -4.4155 0
M  V30 1893 C 173.873 0.695303 -4.7615 0
M  V30 1894 C 176.225 0.359349 -5.1996 0
M  V30 1895 C 173.553 -0.0879947 -5.86634 0
M  V30 1896 C 175.905 -0.410893 -6.31264 0
M  V30 1897 C 174.569 -0.639808 -6.64427 0
M  V30 1898 H 173.839 0.32231 -0.667231 0
M  V30 1899 H 176.486 0.145402 -1.90947 0
M  V30 1900 H 174.791 2.50903 -3.00923 0
M  V30 1901 H 176.488 2.26091 -3.31186 0
M  V30 1902 H 173.078 1.09357 -4.14414 0
M  V30 1903 H 177.262 0.515228 -4.93618 0
M  V30 1904 H 172.518 -0.27503 -6.10781 0
M  V30 1905 H 176.692 -0.847494 -6.91224 0
M  V30 1906 H 174.319 -1.24864 -7.49875 0
M  V30 1907 N 175.894 1.51508 0.433938 0
M  V30 1908 C 177.124 1.67914 1.20369 0
M  V30 1909 C 177.532 0.377461 1.85397 0
M  V30 1910 O 176.875 -0.654255 1.71654 0
M  V30 1911 C 176.937 2.74045 2.32679 0
M  V30 1912 C 176.601 4.16543 1.87991 0
M  V30 1913 C 177.598 5.01211 1.38145 0
M  V30 1914 C 175.283 4.6266 1.95579 0
M  V30 1915 C 177.277 6.30056 0.964774 0
M  V30 1916 C 174.964 5.91501 1.53523 0
M  V30 1917 C 175.962 6.75027 1.04055 0
M  V30 1918 O 175.65 8.01459 0.625964 0
M  V30 1919 H 175.382 0.566578 0.368735 0
M  V30 1920 H 177.936 1.98709 0.51999 0
M  V30 1921 H 176.166 2.38572 3.04336 0
M  V30 1922 H 177.855 2.79295 2.94532 0
M  V30 1923 H 178.621 4.66783 1.31675 0
M  V30 1924 H 174.5 3.97767 2.33029 0
M  V30 1925 H 178.044 6.95202 0.57796 0
M  V30 1926 H 173.941 6.25442 1.59665 0
M  V30 1927 H 174.709 8.15043 0.751509 0
M  V30 1928 N 177.372 -0.689602 1.41712 0
M  V30 1929 C 178.282 -1.83314 1.46401 0
M  V30 1930 C 179.298 -1.7036 0.35405 0
M  V30 1931 O 180.474 -1.92171 0.602692 0
M  V30 1932 C 177.539 -3.19344 1.34982 0
M  V30 1933 C 176.6 -3.44363 2.56344 0
M  V30 1934 C 175.833 -4.73904 2.45461 0
M  V30 1935 O 176.056 -5.508 1.48241 0
M  V30 1936 O 174.99 -4.99839 3.35328 0
M  V30 1937 H 178.816 -1.82314 2.42889 0
M  V30 1938 H 176.401 -0.843438 1.23315 0
M  V30 1939 H 178.283 -4.00547 1.3092 0
M  V30 1940 H 176.958 -3.21014 0.41612 0
M  V30 1941 H 175.865 -2.63067 2.65982 0
M  V30 1942 H 177.198 -3.47512 3.48563 0
M  V30 1943 N 178.85 -1.27639 -0.924453 0
M  V30 1944 C 180.098 -1.13941 -1.66918 0
M  V30 1945 C 180.419 0.314589 -1.92446 0
M  V30 1946 O 179.689 1.21964 -1.53303 0
M  V30 1947 H 178.269 -0.418678 -0.618642 0
M  V30 1948 H 180.931 -1.60213 -1.10985 0
M  V30 1949 H 180.027 -1.67094 -2.63602 0
M  V30 1950 N 180.328 1.1314 -1.09713 0
M  V30 1951 C 181.291 2.16831 -0.742751 0
M  V30 1952 C 182.291 1.59159 0.229129 0
M  V30 1953 O 183.481 1.74199 0.00693237 0
M  V30 1954 C 180.613 3.40756 -0.0989168 0
M  V30 1955 H 181.806 2.49695 -1.66109 0
M  V30 1956 H 179.359 1.2802 -0.896699 0
M  V30 1957 H 180.094 3.13485 0.830514 0
M  V30 1958 H 179.879 3.83888 -0.798265 0
M  V30 1959 H 181.369 4.17386 0.133524 0
M  V30 1960 N 181.806 0.884767 1.30421 0
M  V30 1961 C 182.716 0.355398 2.31892 0
M  V30 1962 C 183.732 -0.542261 1.65335 0
M  V30 1963 O 184.908 -0.435432 1.96637 0
M  V30 1964 C 181.973 -0.421661 3.44126 0
M  V30 1965 C 181.034 0.505727 4.26311 0
M  V30 1966 C 180.267 -0.234343 5.33185 0
M  V30 1967 O 180.49 -1.46045 5.51386 0
M  V30 1968 O 179.424 0.415443 6.00465 0
M  V30 1969 H 183.25 1.19685 2.79122 0
M  V30 1970 H 180.835 0.648596 1.34587 0
M  V30 1971 H 182.717 -0.861641 4.12497 0
M  V30 1972 H 181.392 -1.23942 2.99032 0
M  V30 1973 H 180.299 0.994513 3.60639 0
M  V30 1974 H 181.632 1.28948 4.75009 0
M  V30 1975 N 183.284 -1.43765 0.645699 0
M  V30 1976 C 184.695 -1.85193 0.236719 0
M  V30 1977 C 185.046 -1.54045 -1.21509 0
M  V30 1978 O 184.171 -0.985694 -1.92647 0
M  V30 1979 C 184.766 -3.36151 0.422845 0
M  V30 1980 C 183.325 -3.76338 0.0682492 0
M  V30 1981 C 182.472 -2.67538 0.729306 0
M  V30 1982 H 185.423 -1.34025 0.849883 0
M  V30 1983 H 185.444 -3.79032 -0.333904 0
M  V30 1984 H 184.956 -3.5879 1.47958 0
M  V30 1985 H 183.057 -3.59312 -0.986179 0
M  V30 1986 H 183.17 -4.76603 0.488469 0
M  V30 1987 H 181.534 -2.54176 0.163235 0
M  V30 1988 H 182.317 -2.93006 1.78892 0
M  V30 1989 N 184.763 -0.387143 -1.52771 0
M  V30 1990 C 185.726 0.436939 -2.24997 0
M  V30 1991 C 186.726 0.991991 -1.26555 0
M  V30 1992 O 187.916 0.874335 -1.50669 0
M  V30 1993 C 185.048 1.61281 -3.00335 0
M  V30 1994 H 186.241 -0.195365 -2.99263 0
M  V30 1995 H 183.794 -0.139218 -1.55679 0
M  V30 1996 H 184.529 2.2826 -2.30364 0
M  V30 1997 H 184.314 1.22154 -3.72587 0
M  V30 1998 H 185.804 2.19629 -3.5518 0
M  V30 1999 N 186.241 1.57166 -0.116904 0
M  V30 2000 C 187.173 2.12271 0.864507 0
M  V30 2001 C 188.186 1.06494 1.23138 0
M  V30 2002 O 189.375 1.33873 1.18069 0
M  V30 2003 C 186.475 2.60564 2.16702 0
M  V30 2004 C 185.648 3.90416 1.97216 0
M  V30 2005 C 184.707 4.24329 3.11178 0
M  V30 2006 O 183.733 4.93182 2.84184 0
M  V30 2007 N 184.935 3.8148 4.37554 0
M  V30 2008 H 187.7 2.97102 0.393726 0
M  V30 2009 H 185.261 1.61759 0.0675805 0
M  V30 2010 H 187.253 2.80282 2.91932 0
M  V30 2011 H 185.823 1.80623 2.55135 0
M  V30 2012 H 185.043 3.79627 1.06192 0
M  V30 2013 H 186.331 4.75327 1.81499 0
M  V30 2014 H 185.729 3.25943 4.62361 0
M  V30 2015 H 184.286 4.06311 5.09661 0
M  V30 2016 N 187.719 -0.156864 1.56817 0
M  V30 2017 C 189.135 -0.50916 1.5126 0
M  V30 2018 C 189.335 -1.83897 0.823658 0
M  V30 2019 O 188.391 -2.49469 0.390055 0
M  V30 2020 C 189.704 -0.52857 2.96018 0
M  V30 2021 C 191.252 -0.614771 3.06903 0
M  V30 2022 C 191.727 -0.664938 4.53147 0
M  V30 2023 N 193.218 -0.727433 4.57452 0
M  V30 2024 C 193.953 -0.787067 5.67973 0
M  V30 2025 N 193.449 -0.806649 6.88088 0
M  V30 2026 N 195.242 -0.827195 5.5598 0
M  V30 2027 H 187.393 0.714935 2.00006 0
M  V30 2028 H 189.656 0.259526 0.911784 0
M  V30 2029 H 189.362 0.380154 3.49639 0
M  V30 2030 H 189.236 -1.36998 3.51442 0
M  V30 2031 H 191.623 -1.51392 2.53307 0
M  V30 2032 H 191.704 0.253597 2.5454 0
M  V30 2033 H 191.348 0.230011 5.07379 0
M  V30 2034 H 191.278 -1.54966 5.03282 0
M  V30 2035 H 193.769 -0.719998 3.70978 0
M  V30 2036 H 194.082 -0.853727 7.6807 0
M  V30 2037 H 192.427 -0.774687 6.90669 0
M  V30 2038 H 195.618 -0.808998 4.61056 0
M  V30 2039 H 195.791 -0.870206 6.4213 0
M  V30 2040 N 189.197 -1.51736 -0.425897 0
M  V30 2041 C 190.443 -1.65214 -1.1761 0
M  V30 2042 C 190.776 -0.372778 -1.90589 0
M  V30 2043 O 190.051 0.628139 -1.84078 0
M  V30 2044 C 190.334 -2.86312 -2.18398 0
M  V30 2045 C 190.187 -4.24254 -1.49426 0
M  V30 2046 C 191.506 -3.02925 -3.19256 0
M  V30 2047 H 188.625 -0.601263 -0.426206 0
M  V30 2048 H 191.267 -1.8425 -0.463882 0
M  V30 2049 H 189.417 -2.70213 -2.79137 0
M  V30 2050 H 191.089 -4.52046 -0.919362 0
M  V30 2051 H 189.332 -4.26426 -0.796432 0
M  V30 2052 H 190.003 -5.05001 -2.22885 0
M  V30 2053 H 192.479 -3.1781 -2.68581 0
M  V30 2054 H 191.355 -3.89199 -3.8706 0
M  V30 2055 H 191.616 -2.15497 -3.86023 0
M  V30 2056 N 190.675 0.682077 -1.42076 0
M  V30 2057 C 192.091 0.994324 -1.24841 0
M  V30 2058 C 192.291 2.0096 -0.147389 0
M  V30 2059 O 191.347 2.47822 0.483782 0
M  V30 2060 C 192.66 1.50607 -2.60265 0
M  V30 2061 C 194.208 1.62421 -2.6756 0
M  V30 2062 C 194.683 2.16994 -4.03333 0
M  V30 2063 N 196.174 2.24337 -4.0525 0
M  V30 2064 C 196.909 2.67621 -5.07116 0
M  V30 2065 N 196.405 3.1041 -6.19368 0
M  V30 2066 N 198.198 2.67305 -4.94474 0
M  V30 2067 H 190.349 0.00973908 -2.12398 0
M  V30 2068 H 192.612 0.0668593 -0.945639 0
M  V30 2069 H 192.318 0.834583 -3.41654 0
M  V30 2070 H 192.192 2.48602 -2.83684 0
M  V30 2071 H 194.579 2.28678 -1.86521 0
M  V30 2072 H 194.66 0.629352 -2.47937 0
M  V30 2073 H 194.304 1.51349 -4.84826 0
M  V30 2074 H 194.234 3.17258 -4.20304 0
M  V30 2075 H 196.725 1.94158 -3.24209 0
M  V30 2076 H 197.038 3.42103 -6.92954 0
M  V30 2077 H 195.383 3.08286 -6.22884 0
M  V30 2078 H 198.574 2.33233 -4.05857 0
M  V30 2079 H 198.747 3.00718 -5.73997 0
M  V30 2080 N 192.153 1.28127 0.917671 0
M  V30 2081 C 193.399 1.15223 1.66888 0
M  V30 2082 C 193.732 -0.299293 1.9188 0
M  V30 2083 O 193.007 -1.21805 1.51637 0
M  V30 2084 C 193.29 1.94706 3.02922 0
M  V30 2085 C 193.143 3.47898 2.85109 0
M  V30 2086 C 194.462 1.75939 4.03402 0
M  V30 2087 H 191.581 0.419946 0.605652 0
M  V30 2088 H 194.223 1.57398 1.06423 0
M  V30 2089 H 192.373 1.58864 3.54534 0
M  V30 2090 H 194.045 3.93624 2.40537 0
M  V30 2091 H 192.288 3.7373 2.20246 0
M  V30 2092 H 192.959 3.98765 3.81694 0
M  V30 2093 H 195.435 2.07209 3.60837 0
M  V30 2094 H 194.311 2.33931 4.96556 0
M  V30 2095 H 194.572 0.709877 4.36364 0
M  V30 2096 N 193.631 -1.12557 1.10312 0
M  V30 2097 C 195.047 -1.36036 0.834649 0
M  V30 2098 C 195.247 -1.93946 -0.546539 0
M  V30 2099 O 194.303 -2.16484 -1.29966 0
M  V30 2100 C 195.616 -2.30312 1.9333 0
M  V30 2101 C 197.164 -2.43906 1.9616 0
M  V30 2102 C 197.639 -3.41496 3.05195 0
M  V30 2103 N 199.13 -3.49053 3.04494 0
M  V30 2104 C 199.865 -4.24471 3.85502 0
M  V30 2105 N 199.361 -5.02966 4.76442 0
M  V30 2106 N 201.154 -4.19864 3.73725 0
M  V30 2107 H 193.305 -0.733246 1.99342 0
M  V30 2108 H 195.568 -0.385234 0.866198 0
M  V30 2109 H 195.274 -1.94933 2.92735 0
M  V30 2110 H 195.148 -3.30421 1.81939 0
M  V30 2111 H 197.535 -2.78567 0.973886 0
M  V30 2112 H 197.616 -1.4369 2.11629 0
M  V30 2113 H 197.26 -3.07565 4.04186 0
M  V30 2114 H 197.19 -4.41539 2.86968 0
M  V30 2115 H 199.681 -2.93053 2.38596 0
M  V30 2116 H 199.994 -5.57846 5.34815 0
M  V30 2117 H 198.339 -5.02167 4.80472 0
M  V30 2118 H 201.53 -3.57623 3.02032 0
M  V30 2119 H 201.703 -4.78386 4.37093 0
M  V30 2120 N 195.109 -0.891671 -1.2995 0
M  V30 2121 C 196.356 -0.513501 -1.95881 0
M  V30 2122 C 196.684 0.938655 -1.70351 0
M  V30 2123 O 195.939 1.67936 -1.00478 0
M  V30 2124 C 196.238 -0.742868 -3.49594 0
M  V30 2125 C 195.904 -2.17114 -3.95186 0
M  V30 2126 C 194.566 -2.56169 -4.07346 0
M  V30 2127 C 196.918 -3.10162 -4.18866 0
M  V30 2128 C 194.246 -3.87469 -4.4055 0
M  V30 2129 C 196.598 -4.41001 -4.53542 0
M  V30 2130 C 195.262 -4.79941 -4.63911 0
M  V30 2131 H 194.532 -0.187903 -0.71678 0
M  V30 2132 H 197.179 -1.1288 -1.54694 0
M  V30 2133 H 195.484 -0.044586 -3.91775 0
M  V30 2134 H 197.181 -0.429767 -3.9869 0
M  V30 2135 H 193.771 -1.85801 -3.86233 0
M  V30 2136 H 197.955 -2.81206 -4.08946 0
M  V30 2137 H 193.211 -4.17371 -4.46779 0
M  V30 2138 H 197.385 -5.13133 -4.70815 0
M  V30 2139 H 195.012 -5.81719 -4.89395 0
M  V30 2140 N 196.587 1.43421 -0.653314 0
M  V30 2141 C 197.535 2.32546 0.0501531 0
M  V30 2142 C 198.529 1.48617 0.812985 0
M  V30 2143 O 199.735 1.64825 0.723375 0
M  V30 2144 H 196.11 0.751185 0.0350032 0
M  V30 2145 H 198.081 2.89602 -0.719261 0
M  V30 2146 C 196.83 3.32925 1.00279 0
M  V30 2147 H 196.153 3.97532 0.425236 0
M  V30 2148 H 197.593 3.9792 1.46409 0
M  V30 2149 C 196.052 2.63532 2.09886 0
M  V30 2150 O 196.582 2.45092 3.18265 0
M  V30 2151 N 194.788 2.22905 1.86445 0
M  V30 2152 H 194.335 2.38103 0.98309 0
M  V30 2153 H 194.293 1.76805 2.59976 0
M  V30 2154 N 198.065 0.39524 1.52563 0
M  V30 2155 C 199.313 -0.184678 2.01254 0
M  V30 2156 C 199.634 -1.46822 1.28329 0
M  V30 2157 O 198.904 -1.91666 0.405094 0
M  V30 2158 H 197.484 -0.0712355 0.743596 0
M  V30 2159 H 200.146 0.528293 1.87603 0
M  V30 2160 H 199.242 -0.390681 3.09645 0
M  V30 2161 N 199.544 -1.57102 0.125237 0
M  V30 2162 C 200.492 -2.16905 -0.839927 0
M  V30 2163 C 201.486 -1.11998 -1.27094 0
M  V30 2164 O 202.692 -1.3029 -1.24195 0
M  V30 2165 H 199.067 -0.694252 -0.288995 0
M  V30 2166 H 201.038 -2.96774 -0.311115 0
M  V30 2167 C 199.787 -2.78795 -2.07771 0
M  V30 2168 H 199.11 -3.59221 -1.755 0
M  V30 2169 H 200.55 -3.2417 -2.73295 0
M  V30 2170 C 199.009 -1.76193 -2.87155 0
M  V30 2171 O 199.539 -1.21909 -3.82755 0
M  V30 2172 N 197.745 -1.45991 -2.51267 0
M  V30 2173 H 197.292 -1.90325 -1.73592 0
M  V30 2174 H 197.25 -0.775844 -3.04677 0
M  V30 2175 N 201.022 0.148545 -1.56898 0
M  V30 2176 C 202.252 0.875118 -1.8715 0
M  V30 2177 C 202.66 1.75322 -0.711262 0
M  V30 2178 O 202.003 1.80745 0.328151 0
M  V30 2179 C 202.065 1.7844 -3.12089 0
M  V30 2180 C 201.729 1.08361 -4.43967 0
M  V30 2181 C 202.726 0.438247 -5.1805 0
M  V30 2182 C 200.411 1.07358 -4.90693 0
M  V30 2183 C 202.405 -0.20779 -6.37061 0
M  V30 2184 C 200.092 0.42373 -6.09629 0
M  V30 2185 C 201.09 -0.215829 -6.82659 0
M  V30 2186 O 200.778 -0.855378 -7.99336 0
M  V30 2187 H 200.51 0.258504 -0.624621 0
M  V30 2188 H 203.064 0.14652 -2.04877 0
M  V30 2189 H 201.294 2.55389 -2.90367 0
M  V30 2190 H 202.983 2.38279 -3.286 0
M  V30 2191 H 203.749 0.437817 -4.8302 0
M  V30 2192 H 199.628 1.5608 -4.33774 0
M  V30 2193 H 203.172 -0.70758 -6.94002 0
M  V30 2194 H 199.069 0.421822 -6.4412 0
M  V30 2195 H 199.837 -0.756892 -8.14993 0
M  V30 2196 N 202.5 1.5196 0.417844 0
M  V30 2197 C 203.746 1.65836 1.16732 0
M  V30 2198 C 204.079 0.382881 1.90388 0
M  V30 2199 O 203.354 -0.618368 1.84408 0
M  V30 2200 C 203.637 2.87466 2.16876 0
M  V30 2201 C 203.49 4.25041 1.47174 0
M  V30 2202 C 204.809 3.04613 3.17646 0
M  V30 2203 H 201.928 0.603515 0.423011 0
M  V30 2204 H 204.57 1.84494 0.454105 0
M  V30 2205 H 202.72 2.71689 2.777 0
M  V30 2206 H 204.392 4.52527 0.895376 0
M  V30 2207 H 202.635 4.26843 0.773806 0
M  V30 2208 H 203.306 5.06176 2.20204 0
M  V30 2209 H 205.782 3.1923 2.66892 0
M  V30 2210 H 204.658 3.91247 3.8499 0
M  V30 2211 H 204.919 2.17541 3.84874 0
M  V30 2212 N 203.978 -0.674533 1.42435 0
M  V30 2213 C 205.203 -1.46784 1.46524 0
M  V30 2214 C 205.628 -1.87938 0.078066 0
M  V30 2215 O 204.986 -1.56014 -0.92354 0
M  V30 2216 C 205.034 -2.69307 2.39805 0
M  V30 2217 O 204.138 -3.67587 1.86959 0
M  V30 2218 H 203.479 -0.440959 0.496439 0
M  V30 2219 H 206.009 -0.827326 1.87127 0
M  V30 2220 H 206.019 -3.17374 2.56393 0
M  V30 2221 H 204.694 -2.38692 3.40586 0
M  V30 2222 H 203.271 -3.2662 1.79927 0
M  V30 2223 N 205.456 -1.28612 -0.910864 0
M  V30 2224 C 206.704 -1.15705 -1.65701 0
M  V30 2225 C 207.025 0.29416 -1.92769 0
M  V30 2226 O 206.295 1.20331 -1.54588 0
M  V30 2227 H 204.875 -0.425216 -0.614167 0
M  V30 2228 H 207.537 -1.61381 -1.0928 0
M  V30 2229 H 206.633 -1.6988 -2.61815 0
M  V30 2230 N 206.934 1.1197 -1.10907 0
M  V30 2231 C 207.864 2.19928 -0.784473 0
M  V30 2232 C 208.845 1.6833 0.244726 0
M  V30 2233 O 210.03 1.93892 0.109418 0
M  V30 2234 C 207.16 3.46597 -0.220827 0
M  V30 2235 C 206.114 4.11376 -1.18127 0
M  V30 2236 C 205.44 5.32554 -0.478594 0
M  V30 2237 C 206.74 4.56945 -2.52979 0
M  V30 2238 H 208.434 2.47337 -1.68715 0
M  V30 2239 H 205.98 1.18879 -0.812642 0
M  V30 2240 H 207.933 4.21396 0.0184278 0
M  V30 2241 H 206.657 3.1863 0.717113 0
M  V30 2242 H 205.316 3.38564 -1.40606 0
M  V30 2243 H 204.964 5.00856 0.463976 0
M  V30 2244 H 204.664 5.76844 -1.11912 0
M  V30 2245 H 206.188 6.10096 -0.248 0
M  V30 2246 H 207.602 5.23093 -2.3462 0
M  V30 2247 H 205.999 5.1203 -3.12962 0
M  V30 2248 H 207.069 3.70676 -3.12614 0
M  V30 2249 N 208.412 0.89855 1.29475 0
M  V30 2250 C 209.637 0.538561 2.00285 0
M  V30 2251 C 210.062 -0.869135 1.66816 0
M  V30 2252 O 209.42 -1.57831 0.892145 0
M  V30 2253 C 209.468 0.736475 3.52999 0
M  V30 2254 O 208.572 -0.211537 4.11857 0
M  V30 2255 H 207.913 0.210563 0.62973 0
M  V30 2256 H 210.443 1.20982 1.64998 0
M  V30 2257 H 210.453 0.640685 4.02938 0
M  V30 2258 H 209.128 1.76276 3.76696 0
M  V30 2259 H 207.705 -0.0682991 3.72837 0
M  V30 2260 N 209.89 -1.43072 0.660911 0
M  V30 2261 C 210.822 -2.29108 -0.0647641 0
M  V30 2262 C 211.835 -1.42928 -0.779448 0
M  V30 2263 O 213.024 -1.66788 -0.635921 0
M  V30 2264 C 210.124 -3.20032 -1.11503 0
M  V30 2265 C 209.297 -4.34792 -0.476955 0
M  V30 2266 C 208.356 -5.06534 -1.42513 0
M  V30 2267 O 207.382 -5.61538 -0.930771 0
M  V30 2268 N 208.584 -5.1075 -2.75889 0
M  V30 2269 H 211.349 -2.92029 0.673731 0
M  V30 2270 H 208.91 -1.53846 0.50427 0
M  V30 2271 H 210.902 -3.64892 -1.75032 0
M  V30 2272 H 209.472 -2.58658 -1.75541 0
M  V30 2273 H 208.692 -3.92752 0.337572 0
M  V30 2274 H 209.98 -5.0879 -0.0318525 0
M  V30 2275 H 209.378 -4.67447 -3.18606 0
M  V30 2276 H 207.935 -5.59302 -3.347 0
M  V30 2277 N 211.368 -0.403325 -1.52352 0
M  V30 2278 C 212.331 0.413051 -2.25447 0
M  V30 2279 C 213.331 0.978513 -1.276 0
M  V30 2280 O 214.521 0.858305 -1.51587 0
M  V30 2281 C 211.653 1.58087 -3.02029 0
M  V30 2282 H 212.846 -0.227094 -2.99039 0
M  V30 2283 H 210.399 -0.155722 -1.55522 0
M  V30 2284 H 211.134 2.25804 -2.32772 0
M  V30 2285 H 210.919 1.18195 -3.73861 0
M  V30 2286 H 212.409 2.1585 -3.57489 0
M  V30 2287 N 212.846 1.57033 -0.133567 0
M  V30 2288 C 213.794 2.17348 0.828412 0
M  V30 2289 C 214.788 1.12671 1.26498 0
M  V30 2290 O 215.994 1.30947 1.23502 0
M  V30 2291 H 212.369 0.695775 0.285309 0
M  V30 2292 H 214.34 2.96935 0.295372 0
M  V30 2293 C 213.089 2.79893 2.06289 0
M  V30 2294 H 212.412 3.60147 1.73592 0
M  V30 2295 H 213.852 3.25615 2.71572 0
M  V30 2296 C 212.311 1.77713 2.86216 0
M  V30 2297 O 212.841 1.23937 3.82103 0
M  V30 2298 N 211.047 1.47321 2.50489 0
M  V30 2299 H 210.594 1.91243 1.7258 0
M  V30 2300 H 210.552 0.79199 3.04261 0
M  V30 2301 N 214.325 -0.140222 1.56975 0
M  V30 2302 C 215.573 -0.850005 1.83356 0
M  V30 2303 C 215.894 -1.81399 0.71551 0
M  V30 2304 O 215.164 -1.94136 -0.262294 0
M  V30 2305 H 213.744 -0.316886 0.676456 0
M  V30 2306 H 216.406 -0.132608 1.94448 0
M  V30 2307 H 215.502 -1.40814 2.78528 0
M  V30 2308 N 215.803 -1.52179 -0.40978 0
M  V30 2309 C 216.75 -1.75475 -1.49924 0
M  V30 2310 C 217.72 -0.597175 -1.54994 0
M  V30 2311 O 218.905 -0.834655 -1.71575 0
M  V30 2312 C 216.045 -1.9107 -2.87378 0
M  V30 2313 C 215.158 -3.18717 -2.91622 0
M  V30 2314 C 214.293 -3.24747 -4.20372 0
M  V30 2315 C 213.332 -4.46598 -4.18588 0
M  V30 2316 N 212.469 -4.50025 -5.38908 0
M  V30 2317 H 217.309 -2.68458 -1.29361 0
M  V30 2318 H 214.846 -1.33024 -0.627934 0
M  V30 2319 H 216.804 -1.98096 -3.6717 0
M  V30 2320 H 215.434 -1.01469 -3.06437 0
M  V30 2321 H 214.486 -3.20866 -2.04326 0
M  V30 2322 H 215.798 -4.08544 -2.86169 0
M  V30 2323 H 214.952 -3.30841 -5.08556 0
M  V30 2324 H 213.691 -2.32857 -4.28519 0
M  V30 2325 H 212.696 -4.40652 -3.28794 0
M  V30 2326 H 213.921 -5.39783 -4.12081 0
M  V30 2327 H 211.867 -3.61017 -5.47725 0
M  V30 2328 H 211.784 -5.33697 -5.35447 0
M  V30 2329 H 213.052 -4.60347 -6.29048 0
M  V30 2330 N 217.281 0.66697 -1.42791 0
M  V30 2331 C 218.191 1.80962 -1.49299 0
M  V30 2332 C 219.207 1.69775 -0.381108 0
M  V30 2333 O 220.383 1.91188 -0.633188 0
M  V30 2334 C 217.448 3.17156 -1.40045 0
M  V30 2335 C 216.509 3.40242 -2.6179 0
M  V30 2336 C 215.742 4.69939 -2.52969 0
M  V30 2337 O 215.965 5.48372 -1.56985 0
M  V30 2338 O 214.899 4.94441 -3.43237 0
M  V30 2339 H 218.725 1.78427 -2.45759 0
M  V30 2340 H 216.31 0.823713 -1.24641 0
M  V30 2341 H 218.192 3.98413 -1.37276 0
M  V30 2342 H 216.867 3.20312 -0.467138 0
M  V30 2343 H 215.774 2.58802 -2.70134 0
M  V30 2344 H 217.107 3.41923 -3.54047 0
M  V30 2345 N 218.759 1.29093 0.90403 0
M  V30 2346 C 219.689 1.16401 2.02418 0
M  V30 2347 C 220.67 0.0593085 1.69997 0
M  V30 2348 O 221.855 0.238021 1.92736 0
M  V30 2349 C 218.985 0.835233 3.37107 0
M  V30 2350 C 217.939 1.89578 3.83724 0
M  V30 2351 C 217.265 1.42041 5.15489 0
M  V30 2352 C 218.565 3.30394 4.04521 0
M  V30 2353 H 220.259 2.10109 2.13295 0
M  V30 2354 H 217.805 1.01157 1.02486 0
M  V30 2355 H 219.758 0.733169 4.14973 0
M  V30 2356 H 218.482 -0.137543 3.2631 0
M  V30 2357 H 217.141 1.98715 3.08071 0
M  V30 2358 H 216.789 0.436426 5.01103 0
M  V30 2359 H 216.489 2.12964 5.4765 0
M  V30 2360 H 218.013 1.33176 5.959 0
M  V30 2361 H 219.427 3.24123 4.72882 0
M  V30 2362 H 217.824 3.99237 4.48029 0
M  V30 2363 H 218.894 3.73692 3.09002 0
M  V30 2364 N 220.237 -1.11381 1.11499 0
M  V30 2365 C 221.2 -2.15622 0.777153 0
M  V30 2366 C 222.2 -1.59504 -0.203779 0
M  V30 2367 O 223.39 -1.74188 0.020782 0
M  V30 2368 C 220.522 -3.40556 0.153116 0
M  V30 2369 H 221.715 -2.47021 1.70061 0
M  V30 2370 H 219.268 -1.26577 0.916952 0
M  V30 2371 H 220.003 -3.14767 -0.780536 0
M  V30 2372 H 219.788 -3.8257 0.859238 0
M  V30 2373 H 221.278 -4.17546 -0.0671044 0
M  V30 2374 N 221.715 -0.905404 -1.28997 0
M  V30 2375 C 222.961 -0.535039 -1.95615 0
M  V30 2376 C 223.294 0.917404 -1.71165 0
M  V30 2377 O 222.569 1.65123 -1.02785 0
M  V30 2378 C 222.852 -0.834918 -3.50287 0
M  V30 2379 C 222.705 -2.33948 -3.84172 0
M  V30 2380 C 224.024 -0.325318 -4.38896 0
M  V30 2381 H 221.143 -0.195861 -0.710498 0
M  V30 2382 H 223.785 -1.13313 -1.52513 0
M  V30 2383 H 221.935 -0.325904 -3.87131 0
M  V30 2384 H 223.607 -2.91847 -3.57243 0
M  V30 2385 H 221.85 -2.79789 -3.31513 0
M  V30 2386 H 222.521 -2.49987 -4.92149 0
M  V30 2387 H 224.997 -0.761256 -4.09077 0
M  V30 2388 H 223.873 -0.564295 -5.45992 0
M  V30 2389 H 224.134 0.774144 -4.35269 0
M  V30 2390 N 223.193 1.4272 -0.668489 0
M  V30 2391 C 224.156 2.292 0.00448567 0
M  V30 2392 C 225.156 1.43001 0.735339 0
M  V30 2393 O 226.346 1.64461 0.57429 0
M  V30 2394 C 223.478 3.25375 1.01705 0
M  V30 2395 H 224.671 2.90199 -0.756608 0
M  V30 2396 H 222.224 1.50254 -0.430506 0
M  V30 2397 H 222.959 2.69301 1.80686 0
M  V30 2398 H 222.744 3.88944 0.496463 0
M  V30 2399 H 224.234 3.90245 1.48655 0
M  V30 2400 N 224.671 0.411399 1.52136 0
M  V30 2401 C 226.087 0.0623865 1.59478 0
M  V30 2402 C 226.287 -1.42554 1.4241 0
M  V30 2403 O 225.343 -2.19263 1.2522 0
M  V30 2404 C 226.656 0.559331 2.95452 0
M  V30 2405 C 228.204 0.517503 3.08692 0
M  V30 2406 C 228.679 0.990994 4.4715 0
M  V30 2407 N 230.17 0.947908 4.53397 0
M  V30 2408 C 230.905 1.28544 5.58806 0
M  V30 2409 N 230.401 1.69454 6.71757 0
M  V30 2410 N 232.194 1.20526 5.49026 0
M  V30 2411 H 224.345 1.37982 1.61477 0
M  V30 2412 H 226.608 0.566977 0.759764 0
M  V30 2413 H 226.314 1.59938 3.1323 0
M  V30 2414 H 226.188 -0.0298014 3.77188 0
M  V30 2415 H 228.575 -0.513505 2.90598 0
M  V30 2416 H 228.656 1.14272 2.28857 0
M  V30 2417 H 228.3 2.02034 4.65988 0
M  V30 2418 H 228.23 0.34257 5.25485 0
M  V30 2419 H 230.721 0.647157 3.72317 0
M  V30 2420 H 231.034 1.93513 7.48179 0
M  V30 2421 H 229.379 1.73359 6.73032 0
M  V30 2422 H 232.57 0.884505 4.59667 0
M  V30 2423 H 232.743 1.47161 6.31069 0
M  V30 2424 N 226.149 -1.5696 0.141893 0
M  V30 2425 C 227.079 -2.19516 -0.795936 0
M  V30 2426 C 228.06 -1.14187 -1.26077 0
M  V30 2427 O 229.245 -1.42511 -1.31925 0
M  V30 2428 C 226.375 -2.81272 -2.03723 0
M  V30 2429 C 225.329 -3.92384 -1.70936 0
M  V30 2430 C 224.655 -4.41052 -3.02287 0
M  V30 2431 C 225.955 -5.13403 -0.959954 0
M  V30 2432 H 227.649 -2.98138 -0.274596 0
M  V30 2433 H 225.195 -1.43406 -0.130636 0
M  V30 2434 H 227.148 -3.237 -2.69808 0
M  V30 2435 H 225.872 -1.99973 -2.58221 0
M  V30 2436 H 224.531 -3.50566 -1.07232 0
M  V30 2437 H 224.179 -3.56582 -3.54765 0
M  V30 2438 H 223.879 -5.15993 -2.81114 0
M  V30 2439 H 225.403 -4.86146 -3.69451 0
M  V30 2440 H 226.817 -5.52706 -1.52279 0
M  V30 2441 H 225.214 -5.94073 -0.848357 0
M  V30 2442 H 226.284 -4.84875 0.0492434 0
M  V30 2443 N 227.627 0.131896 -1.57047 0
M  V30 2444 C 228.537 1.1815 -2.02676 0
M  V30 2445 C 229.553 1.46113 -0.944824 0
M  V30 2446 O 230.729 1.57485 -1.25541 0
M  V30 2447 C 227.794 2.49139 -2.41103 0
M  V30 2448 C 226.855 2.28688 -3.63318 0
M  V30 2449 C 226.088 3.53431 -3.99903 0
M  V30 2450 O 226.311 4.60223 -3.36973 0
M  V30 2451 O 225.245 3.45198 -4.93074 0
M  V30 2452 H 229.071 0.824069 -2.92306 0
M  V30 2453 H 226.656 0.341745 -1.45439 0
M  V30 2454 H 228.538 3.26338 -2.66611 0
M  V30 2455 H 227.213 2.84382 -1.54624 0
M  V30 2456 H 226.12 1.4939 -3.42977 0
M  V30 2457 H 227.453 1.98355 -4.50462 0
M  V30 2458 N 229.106 1.52395 0.401703 0
M  V30 2459 C 230.517 1.58899 0.980202 0
M  V30 2460 C 230.868 0.434032 1.91339 0
M  V30 2461 O 229.993 -0.444619 2.11783 0
M  V30 2462 C 230.588 2.87994 1.78451 0
M  V30 2463 C 229.147 2.96953 2.31292 0
M  V30 2464 C 228.294 2.53903 1.11483 0
M  V30 2465 H 231.245 1.57657 0.18168 0
M  V30 2466 H 231.266 2.73765 2.64259 0
M  V30 2467 H 230.778 3.72035 1.10506 0
M  V30 2468 H 228.879 2.17422 3.02586 0
M  V30 2469 H 228.992 4.01344 2.61649 0
M  V30 2470 H 227.356 2.07925 1.47104 0
M  V30 2471 H 228.139 3.40326 0.450928 0
M  V30 2472 N 230.584 -0.659388 1.43143 0
M  V30 2473 C 231.514 -1.78422 1.50625 0
M  V30 2474 C 232.495 -1.66216 0.361443 0
M  V30 2475 O 233.68 -1.85404 0.577834 0
M  V30 2476 C 230.81 -3.16815 1.42287 0
M  V30 2477 C 229.764 -3.43777 2.54954 0
M  V30 2478 C 229.09 -4.81905 2.31671 0
M  V30 2479 C 230.39 -3.39134 3.97222 0
M  V30 2480 H 232.084 -1.72417 2.44771 0
M  V30 2481 H 229.63 -0.828084 1.17808 0
M  V30 2482 H 231.583 -3.95253 1.46127 0
M  V30 2483 H 230.307 -3.23534 0.446435 0
M  V30 2484 H 228.966 -2.67707 2.50457 0
M  V30 2485 H 228.614 -4.85294 1.32284 0
M  V30 2486 H 228.314 -5.00906 3.07192 0
M  V30 2487 H 229.838 -5.62609 2.37284 0
M  V30 2488 H 231.252 -4.07518 4.03239 0
M  V30 2489 H 229.649 -3.69671 4.72719 0
M  V30 2490 H 230.719 -2.37426 4.22797 0
M  V30 2491 N 232.062 -1.29571 -0.897171 0
M  V30 2492 C 232.992 -1.17473 -2.01798 0
M  V30 2493 C 233.973 -0.068323 -1.69963 0
M  V30 2494 O 235.158 -0.248239 -1.92607 0
M  V30 2495 C 232.288 -0.853099 -3.36659 0
M  V30 2496 C 231.242 -1.9161 -3.82713 0
M  V30 2497 C 230.568 -1.44773 -5.14728 0
M  V30 2498 C 231.868 -3.32535 -4.02763 0
M  V30 2499 H 233.562 -2.11237 -2.12177 0
M  V30 2500 H 231.108 -1.01699 -1.01948 0
M  V30 2501 H 233.061 -0.755165 -4.14578 0
M  V30 2502 H 231.785 0.120236 -3.26379 0
M  V30 2503 H 230.444 -2.00346 -3.07013 0
M  V30 2504 H 230.092 -0.462995 -5.00865 0
M  V30 2505 H 229.792 -2.15865 -5.46513 0
M  V30 2506 H 231.316 -1.36334 -5.95185 0
M  V30 2507 H 232.73 -3.26626 -4.71156 0
M  V30 2508 H 231.127 -4.01607 -4.45905 0
M  V30 2509 H 232.197 -3.75326 -3.07016 0
M  V30 2510 N 233.54 1.10788 -1.12088 0
M  V30 2511 C 234.789 1.82036 -0.868659 0
M  V30 2512 C 235.102 1.85929 0.607426 0
M  V30 2513 O 236.308 2.53346 0.97613 0
M  V30 2514 C 234.764 3.26951 -1.50435 0
M  V30 2515 C 234.372 3.31367 -3.01496 0
M  V30 2516 C 236.116 4.03053 -1.33225 0
M  V30 2517 C 234.023 4.7072 -3.58017 0
M  V30 2518 H 232.953 0.682108 -0.321318 0
M  V30 2519 H 235.604 1.24618 -1.34694 0
M  V30 2520 H 233.986 3.84343 -0.953735 0
M  V30 2521 H 235.16 2.83819 -3.6302 0
M  V30 2522 H 233.475 2.6875 -3.18061 0
M  V30 2523 H 236.072 5.05981 -1.72878 0
M  V30 2524 H 236.415 4.15387 -0.275529 0
M  V30 2525 H 236.948 3.52066 -1.85188 0
M  V30 2526 H 233.687 4.63585 -4.63432 0
M  V30 2527 H 233.207 5.1865 -3.01268 0
M  V30 2528 H 234.886 5.39685 -3.56859 0
M  V30 2529 N 235.018 0.912232 1.28515 0
M  V30 2530 C 236.266 0.543523 1.94654 0
M  V30 2531 C 236.587 -0.9155 1.72173 0
M  V30 2532 O 235.857 -1.64708 1.06058 0
M  V30 2533 H 234.437 0.198017 0.720277 0
M  V30 2534 H 237.099 1.16126 1.56527 0
M  V30 2535 H 236.195 0.736684 3.03281 0
M  V30 2536 N 236.496 -1.42363 0.676048 0
M  V30 2537 C 237.744 -2.01123 0.198437 0
M  V30 2538 C 238.065 -1.53731 -1.19966 0
M  V30 2539 O 237.335 -0.759518 -1.80577 0
M  V30 2540 H 235.915 -0.743678 0.0703721 0
M  V30 2541 H 238.577 -1.74263 0.872837 0
M  V30 2542 H 237.673 -3.11454 0.200686 0
M  V30 2543 N 237.974 -0.419461 -1.51915 0
M  V30 2544 C 238.904 0.391813 -2.30189 0
M  V30 2545 C 239.885 1.03699 -1.34836 0
M  V30 2546 O 241.07 1.04403 -1.63748 0
M  V30 2547 C 238.2 1.50312 -3.13087 0
M  V30 2548 C 237.154 0.9824 -4.16573 0
M  V30 2549 C 236.48 2.18809 -4.8788 0
M  V30 2550 C 237.78 0.0292356 -5.22292 0
M  V30 2551 H 239.474 -0.26135 -2.98257 0
M  V30 2552 H 237.02 -0.127134 -1.43438 0
M  V30 2553 H 238.973 2.07773 -3.66617 0
M  V30 2554 H 237.697 2.18431 -2.42807 0
M  V30 2555 H 236.356 0.430119 -3.64068 0
M  V30 2556 H 236.004 2.85507 -4.14119 0
M  V30 2557 H 235.704 1.84615 -5.57845 0
M  V30 2558 H 237.228 2.76858 -5.44226 0
M  V30 2559 H 238.642 0.512976 -5.71 0
M  V30 2560 H 237.039 -0.2244 -5.9968 0
M  V30 2561 H 238.109 -0.912931 -4.76228 0
M  V30 2562 N 239.452 1.56882 -0.150215 0
M  V30 2563 C 240.682 2.00302 0.506213 0
M  V30 2564 C 241.09 1.02934 1.58749 0
M  V30 2565 O 240.433 0.0188384 1.8369 0
M  V30 2566 C 240.495 3.40156 1.16337 0
M  V30 2567 C 240.159 4.56439 0.226311 0
M  V30 2568 C 241.156 5.17012 -0.547265 0
M  V30 2569 C 238.841 5.02136 0.128279 0
M  V30 2570 C 240.835 6.21693 -1.40629 0
M  V30 2571 C 238.522 6.06672 -0.734345 0
M  V30 2572 C 239.52 6.6632 -1.50023 0
M  V30 2573 O 239.208 7.68831 -2.34848 0
M  V30 2574 H 238.94 0.662182 0.135984 0
M  V30 2575 H 241.494 2.03961 -0.242746 0
M  V30 2576 H 239.724 3.33346 1.96004 0
M  V30 2577 H 241.413 3.67663 1.71985 0
M  V30 2578 H 242.179 4.82603 -0.48158 0
M  V30 2579 H 238.058 4.55435 0.714157 0
M  V30 2580 H 241.602 6.68179 -2.00455 0
M  V30 2581 H 237.499 6.40507 -0.801309 0
M  V30 2582 H 238.267 7.86065 -2.28131 0
M  V30 2583 N 240.93 -0.123565 1.57115 0
M  V30 2584 C 242.341 -0.681198 1.73829 0
M  V30 2585 C 242.692 -1.80535 0.768214 0
M  V30 2586 O 241.817 -2.16317 -0.0599103 0
M  V30 2587 C 242.412 -1.24246 3.15196 0
M  V30 2588 C 240.971 -1.74643 3.33432 0
M  V30 2589 C 240.118 -0.644284 2.69711 0
M  V30 2590 H 243.069 0.102315 1.5837 0
M  V30 2591 H 243.09 -2.11216 3.16493 0
M  V30 2592 H 242.602 -0.424062 3.85776 0
M  V30 2593 H 240.703 -2.58974 2.67886 0
M  V30 2594 H 240.816 -1.85902 4.41562 0
M  V30 2595 H 239.18 -1.07676 2.3082 0
M  V30 2596 H 239.963 0.163058 3.42913 0
M  V30 2597 N 242.408 -1.52605 -0.393616 0
M  V30 2598 C 243.371 -1.76415 -1.46323 0
M  V30 2599 C 244.371 -0.634126 -1.47768 0
M  V30 2600 O 245.561 -0.902142 -1.4902 0
M  V30 2601 C 242.693 -1.8607 -2.85641 0
M  V30 2602 H 243.886 -2.71916 -1.26498 0
M  V30 2603 H 241.439 -1.43257 -0.625073 0
M  V30 2604 H 242.174 -0.925378 -3.10817 0
M  V30 2605 H 241.959 -2.68235 -2.85993 0
M  V30 2606 H 243.449 -2.06179 -3.63153 0
M  V30 2607 N 243.887 0.651787 -1.4349 0
M  V30 2608 C 244.837 1.75783 -1.45205 0
M  V30 2609 C 245.821 1.57679 -0.320328 0
M  V30 2610 O 247.013 1.67767 -0.564211 0
M  V30 2611 C 244.142 3.14377 -1.3792 0
M  V30 2612 C 243.228 3.38023 -2.56127 0
M  V30 2613 N 243.619 3.32135 -3.81471 0
M  V30 2614 C 241.917 3.68747 -2.50882 0
M  V30 2615 C 242.618 3.55902 -4.60118 0
M  V30 2616 N 241.594 3.77783 -3.90872 0
M  V30 2617 H 245.396 1.69657 -2.39987 0
M  V30 2618 H 242.91 0.853508 -1.38163 0
M  V30 2619 H 244.907 3.93666 -1.37231 0
M  V30 2620 H 243.567 3.21683 -0.441596 0
M  V30 2621 H 244.578 3.11515 -4.13738 0
M  V30 2622 H 241.255 3.8316 -1.65816 0
M  V30 2623 H 242.645 3.57116 -5.69138 0
M  V30 2624 N 245.365 1.30045 0.890287 0
M  V30 2625 C 246.315 1.12592 1.9826 0
M  V30 2626 C 247.299 0.0426021 1.60844 0
M  V30 2627 O 248.491 0.265346 1.75 0
M  V30 2628 C 245.62 0.814301 3.33503 0
M  V30 2629 C 244.706 1.93761 3.7725 0
M  V30 2630 N 245.097 3.18232 3.93143 0
M  V30 2631 C 243.395 1.83277 4.06602 0
M  V30 2632 C 244.096 3.9158 4.30163 0
M  V30 2633 N 243.072 3.19591 4.3973 0
M  V30 2634 H 246.874 2.07003 2.08631 0
M  V30 2635 H 244.388 1.21307 1.07974 0
M  V30 2636 H 246.385 0.67029 4.11476 0
M  V30 2637 H 245.045 -0.121797 3.24471 0
M  V30 2638 H 246.056 3.53581 3.78419 0
M  V30 2639 H 242.733 0.97001 4.06075 0
M  V30 2640 H 244.123 4.98744 4.50226 0
M  V30 2641 N 246.843 -1.10192 1.12674 0
M  V30 2642 C 247.753 -2.20172 0.810026 0
M  V30 2643 C 248.769 -1.72821 -0.202188 0
M  V30 2644 O 249.945 -2.01369 -0.0351691 0
M  V30 2645 C 247.01 -3.45631 0.272007 0
M  V30 2646 C 246.071 -4.07704 1.34447 0
M  V30 2647 C 245.304 -5.27175 0.832029 0
M  V30 2648 O 245.527 -5.69425 -0.333284 0
M  V30 2649 O 244.461 -5.80168 1.60277 0
M  V30 2650 H 248.287 -2.49701 1.72867 0
M  V30 2651 H 245.872 -1.18977 0.903597 0
M  V30 2652 H 247.754 -4.21394 -0.0230219 0
M  V30 2653 H 246.429 -3.17723 -0.619164 0
M  V30 2654 H 245.336 -3.33614 1.6927 0
M  V30 2655 H 246.669 -4.3982 2.2095 0
M  V30 2656 N 248.321 -0.919034 -1.28029 0
M  V30 2657 C 249.598 -0.473668 -1.89778 0
M  V30 2658 C 249.978 1.04783 -1.83259 0
M  V30 2659 O 249.326 1.8982 -1.27202 0
M  V30 2660 C 249.536 -1.00998 -3.34066 0
M  V30 2661 C 250.884 -1.06525 -4.1102 0
M  V30 2662 O 251.908 -0.958996 -3.43048 0
M  V30 2663 O 250.767 -1.22776 -5.3253 0
M  V30 2664 H 247.861 -0.15098 -0.813101 0
M  V30 2665 H 250.407 -1.01016 -1.36359 0
M  V30 2666 H 249.179 -2.05392 -3.33061 0
M  V30 2667 H 248.802 -0.454626 -3.94992 0
M  V30 2668 N 249.799 1.42003 -0.683588 0
M  V30 2669 C 251.215 1.55625 -0.353976 0
M  V30 2670 C 251.415 1.66151 1.14 0
M  V30 2671 O 250.471 1.63329 1.92561 0
M  V30 2672 C 251.784 2.80171 -1.092 0
M  V30 2673 C 253.332 2.93954 -1.07518 0
M  V30 2674 C 253.807 4.21372 -1.79471 0
M  V30 2675 N 255.298 4.28303 -1.76381 0
M  V30 2676 C 256.033 5.25729 -2.28904 0
M  V30 2677 N 255.529 6.29254 -2.89846 0
M  V30 2678 N 257.322 5.17586 -2.19228 0
M  V30 2679 H 249.473 1.33415 -1.6527 0
M  V30 2680 H 251.736 0.64282 -0.696769 0
M  V30 2681 H 251.442 2.78561 -2.14701 0
M  V30 2682 H 251.316 3.7133 -0.662862 0
M  V30 2683 H 253.703 2.95086 -0.028475 0
M  V30 2684 H 253.784 2.04002 -1.54328 0
M  V30 2685 H 253.428 4.21001 -2.84114 0
M  V30 2686 H 253.358 5.10275 -1.30104 0
M  V30 2687 H 255.849 3.54119 -1.31939 0
M  V30 2688 H 256.162 6.99964 -3.27522 0
M  V30 2689 H 254.507 6.29791 -2.93919 0
M  V30 2690 H 257.698 4.35631 -1.71299 0
M  V30 2691 H 257.871 5.93348 -2.60466 0
M  V30 2692 N 251.277 0.427512 1.51691 0
M  V30 2693 C 252.526 -0.143679 2.01188 0
M  V30 2694 C 252.839 -1.44642 1.31674 0
M  V30 2695 O 254.045 -2.09997 1.72086 0
M  V30 2696 C 252.501 -0.306602 3.58592 0
M  V30 2697 C 252.109 0.985125 4.37035 0
M  V30 2698 C 253.853 -0.832091 4.16265 0
M  V30 2699 C 251.76 0.788382 5.86122 0
M  V30 2700 H 250.69 -0.0574701 0.751807 0
M  V30 2701 H 253.341 0.555772 1.74881 0
M  V30 2702 H 251.723 -1.06882 3.81303 0
M  V30 2703 H 252.897 1.75492 4.26074 0
M  V30 2704 H 251.212 1.4384 3.90767 0
M  V30 2705 H 253.809 -0.995617 5.25349 0
M  V30 2706 H 254.152 -1.81186 3.74803 0
M  V30 2707 H 254.685 -0.128444 3.97593 0
M  V30 2708 H 251.424 1.74025 6.31978 0
M  V30 2709 H 250.944 0.0582143 5.99772 0
M  V30 2710 H 252.623 0.437722 6.45518 0
M  V30 2711 N 252.755 -1.56801 0.158532 0
M  V30 2712 C 253.685 -2.20347 -0.772609 0
M  V30 2713 C 254.666 -1.15518 -1.24859 0
M  V30 2714 O 255.851 -1.43902 -1.30406 0
M  V30 2715 C 252.981 -2.83417 -2.00729 0
M  V30 2716 C 251.935 -3.94174 -1.66765 0
M  V30 2717 C 251.261 -4.44233 -2.97592 0
M  V30 2718 C 252.561 -5.14392 -0.905447 0
M  V30 2719 H 254.255 -2.98413 -0.242959 0
M  V30 2720 H 251.801 -1.43537 -0.115419 0
M  V30 2721 H 253.754 -3.26543 -2.6636 0
M  V30 2722 H 252.478 -2.02701 -2.56086 0
M  V30 2723 H 251.137 -3.51684 -1.03508 0
M  V30 2724 H 250.785 -3.60325 -3.50963 0
M  V30 2725 H 250.485 -5.18945 -2.75626 0
M  V30 2726 H 252.009 -4.90037 -3.64274 0
M  V30 2727 H 253.423 -5.5429 -1.46408 0
M  V30 2728 H 251.82 -5.9494 -0.7853 0
M  V30 2729 H 252.89 -4.84795 0.100668 0
M  V30 2730 N 254.233 0.115231 -1.57178 0
M  V30 2731 C 255.479 0.82357 -1.85325 0
M  V30 2732 C 255.812 1.79349 -0.744814 0
M  V30 2733 O 255.087 1.92899 0.249024 0
M  V30 2734 C 255.37 1.57014 -3.24066 0
M  V30 2735 C 255.223 0.619565 -4.45513 0
M  V30 2736 C 256.542 2.52545 -3.60429 0
M  V30 2737 H 253.661 0.297948 -0.674089 0
M  V30 2738 H 256.303 0.0877138 -1.89797 0
M  V30 2739 H 254.453 2.19742 -3.20383 0
M  V30 2740 H 256.125 0.000837639 -4.613 0
M  V30 2741 H 254.368 -0.0686174 -4.33746 0
M  V30 2742 H 255.039 1.17866 -5.3927 0
M  V30 2743 H 257.515 1.9992 -3.64926 0
M  V30 2744 H 256.391 3.01811 -4.58477 0
M  V30 2745 H 256.652 3.35383 -2.88047 0
M  V30 2746 N 255.711 1.52812 0.385517 0
M  V30 2747 C 256.658 1.77838 1.47113 0
M  V30 2748 C 257.628 0.621757 1.54024 0
M  V30 2749 O 258.813 0.861846 1.70226 0
M  V30 2750 C 255.953 1.95618 2.84302 0
M  V30 2751 C 255.066 3.23316 2.86515 0
M  V30 2752 C 254.201 3.31394 4.15152 0
M  V30 2753 C 253.24 4.53201 4.1143 0
M  V30 2754 N 252.377 4.58542 5.3168 0
M  V30 2755 H 257.217 2.70482 1.25073 0
M  V30 2756 H 254.754 1.34006 0.606692 0
M  V30 2757 H 256.712 2.03912 3.63972 0
M  V30 2758 H 255.342 1.06331 3.04784 0
M  V30 2759 H 254.394 3.24076 1.99195 0
M  V30 2760 H 255.706 4.13045 2.79634 0
M  V30 2761 H 254.86 3.3889 5.03228 0
M  V30 2762 H 253.599 2.39645 4.24761 0
M  V30 2763 H 252.604 4.45827 3.21742 0
M  V30 2764 H 253.829 5.46271 4.03442 0
M  V30 2765 H 251.775 3.69686 5.41912 0
M  V30 2766 H 251.692 5.42148 5.26889 0
M  V30 2767 H 252.96 4.70296 6.21644 0
M  V30 2768 N 257.189 -0.644168 1.43834 0
M  V30 2769 C 258.119 -1.76814 1.52509 0
M  V30 2770 C 259.1 -1.65823 0.379052 0
M  V30 2771 O 260.285 -1.84781 0.597466 0
M  V30 2772 C 257.415 -3.15288 1.4564 0
M  V30 2773 C 256.369 -3.41053 2.58586 0
M  V30 2774 C 255.695 -4.79421 2.36769 0
M  V30 2775 C 256.995 -3.34902 4.00797 0
M  V30 2776 H 258.689 -1.69812 2.46586 0
M  V30 2777 H 256.235 -0.815542 1.1868 0
M  V30 2778 H 258.188 -3.93681 1.50311 0
M  V30 2779 H 256.912 -3.23043 0.480725 0
M  V30 2780 H 255.571 -2.65035 2.53282 0
M  V30 2781 H 255.219 -4.83863 1.37424 0
M  V30 2782 H 254.919 -4.9762 3.12487 0
M  V30 2783 H 256.443 -5.6006 2.43238 0
M  V30 2784 H 257.857 -4.03218 4.07539 0
M  V30 2785 H 256.254 -3.64637 4.76613 0
M  V30 2786 H 257.324 -2.32928 4.25291 0
M  V30 2787 N 258.668 -1.30515 -0.883378 0
M  V30 2788 C 259.945 -1.10086 -1.6168 0
M  V30 2789 C 260.325 0.349269 -2.08191 0
M  V30 2790 O 259.673 1.34105 -1.85008 0
M  V30 2791 C 259.883 -2.10315 -2.78511 0
M  V30 2792 C 261.231 -2.42119 -3.48803 0
M  V30 2793 O 262.255 -2.08638 -2.88702 0
M  V30 2794 O 261.114 -2.99396 -4.57192 0
M  V30 2795 H 258.208 -0.422907 -0.710689 0
M  V30 2796 H 260.754 -1.41947 -0.930015 0
M  V30 2797 H 259.526 -3.07917 -2.41459 0
M  V30 2798 H 259.149 -1.79282 -3.54886 0
M  V30 2799 N 260.146 1.09593 -1.13257 0
M  V30 2800 C 261.078 2.16015 -0.766167 0
M  V30 2801 C 262.091 1.61423 0.211303 0
M  V30 2802 O 263.28 1.78498 -0.00863946 0
M  V30 2803 C 260.38 3.38706 -0.114662 0
M  V30 2804 C 259.553 4.22717 -1.12379 0
M  V30 2805 C 258.612 5.23835 -0.498301 0
M  V30 2806 O 257.638 5.573 -1.15781 0
M  V30 2807 N 258.84 5.75886 0.730417 0
M  V30 2808 H 261.605 2.48055 -1.68193 0
M  V30 2809 H 259.166 1.25292 -1.02535 0
M  V30 2810 H 261.158 4.03464 0.315991 0
M  V30 2811 H 259.728 3.04569 0.704011 0
M  V30 2812 H 258.948 3.54122 -1.73179 0
M  V30 2813 H 260.236 4.75673 -1.80589 0
M  V30 2814 H 259.634 5.50911 1.28504 0
M  V30 2815 H 258.191 6.42387 1.10376 0
M  V30 2816 N 261.624 0.925811 1.2754 0
M  V30 2817 C 262.87 0.566092 1.94739 0
M  V30 2818 C 263.203 -0.890057 1.72603 0
M  V30 2819 O 262.478 -1.63467 1.05399 0
M  V30 2820 C 262.761 0.89054 3.48915 0
M  V30 2821 C 262.614 2.4003 3.80402 0
M  V30 2822 C 263.933 0.395101 4.38323 0
M  V30 2823 H 261.052 0.20714 0.707292 0
M  V30 2824 H 263.694 1.15725 1.50691 0
M  V30 2825 H 261.844 0.387452 3.86563 0
M  V30 2826 H 263.516 2.97494 3.52555 0
M  V30 2827 H 261.759 2.85028 3.2702 0
M  V30 2828 H 262.43 2.57785 4.8811 0
M  V30 2829 H 264.906 0.826241 4.07814 0
M  V30 2830 H 263.782 0.651086 5.45025 0
M  V30 2831 H 264.043 -0.704798 4.36446 0
M  V30 2832 N 263.102 -1.41638 0.69111 0
M  V30 2833 C 264.513 -1.84346 0.295517 0
M  V30 2834 C 264.864 -1.57833 -1.16547 0
M  V30 2835 O 263.989 -1.04648 -1.89414 0
M  V30 2836 C 264.584 -3.34636 0.529575 0
M  V30 2837 C 263.143 -3.7593 0.187944 0
M  V30 2838 C 262.29 -2.65082 0.814052 0
M  V30 2839 H 265.241 -1.31253 0.892092 0
M  V30 2840 H 265.262 -3.79903 -0.213148 0
M  V30 2841 H 264.774 -3.53901 1.59297 0
M  V30 2842 H 262.875 -3.62268 -0.871367 0
M  V30 2843 H 262.988 -4.74808 0.63985 0
M  V30 2844 H 261.352 -2.53528 0.244017 0
M  V30 2845 H 262.135 -2.87167 1.88123 0
M  V30 2846 N 264.58 -0.43555 -1.51462 0
M  V30 2847 C 265.808 0.130242 -2.0649 0
M  V30 2848 C 266.223 1.36614 -1.30315 0
M  V30 2849 O 265.58 1.78869 -0.362223 0
M  V30 2850 C 265.631 0.454253 -3.58635 0
M  V30 2851 O 265.352 -0.73259 -4.31931 0
M  V30 2852 C 266.853 1.07091 -4.3017 0
M  V30 2853 H 264.073 0.00871669 -0.670943 0
M  V30 2854 H 266.617 -0.614117 -1.95061 0
M  V30 2855 H 264.772 1.14851 -3.69984 0
M  V30 2856 H 265.186 -0.455787 -5.22516 0
M  V30 2857 H 266.66 1.24764 -5.37716 0
M  V30 2858 H 267.137 2.05144 -3.88346 0
M  V30 2859 H 267.743 0.416089 -4.2326 0
M  V30 2860 N 266.058 1.56714 -0.166846 0
M  V30 2861 C 267.288 2.00828 0.48494 0
M  V30 2862 C 267.696 1.04612 1.57648 0
M  V30 2863 O 267.039 0.0383201 1.8366 0
M  V30 2864 C 267.101 3.4137 1.12723 0
M  V30 2865 C 266.765 4.56654 0.177886 0
M  V30 2866 C 267.762 5.16402 -0.60207 0
M  V30 2867 C 265.447 5.02244 0.0750139 0
M  V30 2868 C 267.441 6.20167 -1.47215 0
M  V30 2869 C 265.128 6.05859 -0.798649 0
M  V30 2870 C 266.126 6.64691 -1.57082 0
M  V30 2871 O 265.814 7.66297 -2.42989 0
M  V30 2872 H 265.546 0.663587 0.128953 0
M  V30 2873 H 268.1 2.03692 -0.264365 0
M  V30 2874 H 266.33 3.35406 1.92457 0
M  V30 2875 H 268.019 3.69466 1.68076 0
M  V30 2876 H 268.785 4.82065 -0.53274 0
M  V30 2877 H 264.664 4.56167 0.665812 0
M  V30 2878 H 268.208 6.66016 -2.07531 0
M  V30 2879 H 264.105 6.39621 -0.869199 0
M  V30 2880 H 264.873 7.83601 -2.36455 0
M  V30 2881 N 267.536 -0.106894 1.57237 0
M  V30 2882 C 268.466 -1.13148 2.04254 0
M  V30 2883 C 269.447 -1.42476 0.929224 0
M  V30 2884 O 270.632 -1.52709 1.19973 0
M  V30 2885 C 267.762 -2.4545 2.45706 0
M  V30 2886 C 266.716 -2.30558 3.60592 0
M  V30 2887 C 266.042 -3.67931 3.87983 0
M  V30 2888 C 267.342 -1.75597 4.91897 0
M  V30 2889 H 269.036 -0.740374 2.90101 0
M  V30 2890 H 266.582 -0.354696 1.39563 0
M  V30 2891 H 268.535 -3.17389 2.77205 0
M  V30 2892 H 267.259 -2.86475 1.56843 0
M  V30 2893 H 265.918 -1.61067 3.29322 0
M  V30 2894 H 265.566 -4.06462 2.96306 0
M  V30 2895 H 265.266 -3.58817 4.65322 0
M  V30 2896 H 266.79 -4.41356 4.21945 0
M  V30 2897 H 268.204 -2.37364 5.21854 0
M  V30 2898 H 266.601 -1.77272 5.73319 0
M  V30 2899 H 267.671 -0.714451 4.79608 0
M  V30 2900 N 269.014 -1.53014 -0.377408 0
M  V30 2901 C 270.263 -1.67845 -1.11853 0
M  V30 2902 C 270.576 -0.430625 -1.90801 0
M  V30 2903 O 271.782 -0.459261 -2.67587 0
M  V30 2904 C 270.238 -2.96668 -2.03756 0
M  V30 2905 C 269.846 -4.28671 -1.30175 0
M  V30 2906 C 271.59 -3.20865 -2.77932 0
M  V30 2907 C 269.497 -5.48591 -2.20911 0
M  V30 2908 H 268.427 -0.625343 -0.421263 0
M  V30 2909 H 271.078 -1.79514 -0.380409 0
M  V30 2910 H 269.46 -2.78773 -2.8125 0
M  V30 2911 H 270.634 -4.57157 -0.578259 0
M  V30 2912 H 268.949 -4.10825 -0.679108 0
M  V30 2913 H 271.546 -4.07642 -3.46024 0
M  V30 2914 H 271.889 -2.36424 -3.4265 0
M  V30 2915 H 272.422 -3.39379 -2.07525 0
M  V30 2916 H 269.161 -6.35474 -1.6079 0
M  V30 2917 H 268.681 -5.244 -2.91144 0
M  V30 2918 H 270.36 -5.8292 -2.80736 0
M  V30 2919 N 270.492 0.636531 -1.44174 0
M  V30 2920 C 271.769 1.39463 -1.37148 0
M  V30 2921 C 272.149 2.11082 -0.027507 0
M  V30 2922 O 271.497 2.05954 0.989716 0
M  V30 2923 C 271.707 2.36552 -2.56601 0
M  V30 2924 C 273.055 3.00048 -3.00427 0
M  V30 2925 O 274.079 2.46878 -2.56767 0
M  V30 2926 O 272.938 3.96488 -3.76111 0
M  V30 2927 H 270.032 0.623903 -0.542839 0
M  V30 2928 H 272.578 0.662039 -1.56253 0
M  V30 2929 H 271.35 1.82692 -3.46034 0
M  V30 2930 H 270.973 3.17236 -2.39681 0
M  V30 2931 N 271.97 1.30982 0.876444 0
M  V30 2932 C 273.198 1.23242 1.6619 0
M  V30 2933 C 273.613 -0.203345 1.87702 0
M  V30 2934 O 272.97 -1.13317 1.43057 0
M  V30 2935 C 273.021 1.96623 3.03351 0
M  V30 2936 O 272.742 3.34594 2.82804 0
M  V30 2937 C 274.243 1.95644 3.97792 0
M  V30 2938 H 271.463 0.426126 0.518322 0
M  V30 2939 H 274.007 1.7275 1.09442 0
M  V30 2940 H 272.162 1.50892 3.56806 0
M  V30 2941 H 272.576 3.71873 3.69879 0
M  V30 2942 H 274.05 2.51511 4.91372 0
M  V30 2943 H 274.527 0.937395 4.2908 0
M  V30 2944 H 275.133 2.41225 3.50272 0
M  V30 2945 N 273.449 -1.08991 1.13837 0
M  V30 2946 C 274.379 -2.17771 0.842507 0
M  V30 2947 C 275.36 -1.6892 -0.20001 0
M  V30 2948 O 276.545 -1.94113 -0.0579731 0
M  V30 2949 C 273.675 -3.4589 0.312644 0
M  V30 2950 C 272.629 -4.08099 1.28992 0
M  V30 2951 C 271.955 -5.31098 0.619623 0
M  V30 2952 C 273.255 -4.50077 2.65005 0
M  V30 2953 H 274.949 -2.42777 1.75213 0
M  V30 2954 H 272.495 -1.16682 0.843875 0
M  V30 2955 H 274.448 -4.21297 0.0933043 0
M  V30 2956 H 273.172 -3.20419 -0.632382 0
M  V30 2957 H 271.831 -3.34717 1.49533 0
M  V30 2958 H 271.479 -5.0191 -0.33102 0
M  V30 2959 H 271.179 -5.73674 1.27167 0
M  V30 2960 H 272.703 -6.09224 0.409669 0
M  V30 2961 H 274.117 -5.16688 2.48407 0
M  V30 2962 H 272.514 -5.03553 3.26427 0
M  V30 2963 H 273.584 -3.62257 3.22332 0
M  V30 2964 N 274.927 -0.932562 -1.27047 0
M  V30 2965 C 276.173 -0.576412 -1.94436 0
M  V30 2966 C 276.506 0.880891 -1.73072 0
M  V30 2967 O 275.781 1.62905 -1.06264 0
M  V30 2968 C 276.064 -0.909031 -3.48437 0
M  V30 2969 C 275.917 -2.42044 -3.79123 0
M  V30 2970 C 277.236 -0.418341 -4.38107 0
M  V30 2971 H 274.355 -0.210888 -0.706184 0
M  V30 2972 H 276.997 -1.16522 -1.50075 0
M  V30 2973 H 275.147 -0.407947 -3.86352 0
M  V30 2974 H 276.819 -2.99359 -3.50973 0
M  V30 2975 H 275.062 -2.86758 -3.25503 0
M  V30 2976 H 275.733 -2.6037 -4.86736 0
M  V30 2977 H 278.209 -0.847856 -4.0737 0
M  V30 2978 H 277.085 -0.679981 -5.44672 0
M  V30 2979 H 277.346 0.681642 -4.36814 0
M  V30 2980 N 276.405 1.4127 -0.698611 0
M  V30 2981 C 277.368 2.29158 -0.044132 0
M  V30 2982 C 278.368 1.44529 0.704841 0
M  V30 2983 O 279.558 1.65643 0.539276 0
M  V30 2984 C 276.69 3.27459 0.947809 0
M  V30 2985 H 277.883 2.88529 -0.817994 0
M  V30 2986 H 275.436 1.49307 -0.46228 0
M  V30 2987 H 276.171 2.73073 1.74933 0
M  V30 2988 H 275.956 3.8991 0.41385 0
M  V30 2989 H 277.446 3.93311 1.40344 0
M  V30 2990 N 277.883 0.443576 1.51229 0
M  V30 2991 C 279.129 -0.120975 2.02439 0
M  V30 2992 C 279.462 -1.41815 1.32674 0
M  V30 2993 O 278.737 -1.89373 0.443622 0
M  V30 2994 C 279.02 -0.333291 3.58554 0
M  V30 2995 C 278.873 0.982968 4.38928 0
M  V30 2996 C 280.192 -1.10028 4.26124 0
M  V30 2997 H 277.311 -0.0424923 0.735774 0
M  V30 2998 H 279.953 0.583794 1.80809 0
M  V30 2999 H 278.103 -0.933614 3.77115 0
M  V30 3000 H 279.775 1.61775 4.32003 0
M  V30 3001 H 278.018 1.58611 4.03763 0
M  V30 3002 H 278.689 0.788379 5.46341 0
M  V30 3003 H 281.165 -0.591711 4.11871 0
M  V30 3004 H 280.041 -1.21761 5.35225 0
M  V30 3005 H 280.302 -2.12996 3.87408 0
M  V30 3006 N 279.361 -1.56624 0.175154 0
M  V30 3007 C 280.271 -2.21741 -0.766042 0
M  V30 3008 C 281.287 -1.21023 -1.25018 0
M  V30 3009 O 282.463 -1.53697 -1.3015 0
M  V30 3010 C 279.528 -2.84839 -1.97655 0
M  V30 3011 C 278.589 -4.00769 -1.53892 0
M  V30 3012 C 277.822 -4.60849 -2.69173 0
M  V30 3013 O 278.045 -4.19823 -3.86141 0
M  V30 3014 O 276.979 -5.50655 -2.43028 0
M  V30 3015 H 280.805 -3.02738 -0.241585 0
M  V30 3016 H 278.39 -1.49305 -0.053222 0
M  V30 3017 H 280.272 -3.24834 -2.68442 0
M  V30 3018 H 278.947 -2.06836 -2.48999 0
M  V30 3019 H 277.854 -3.65436 -0.80044 0
M  V30 3020 H 279.187 -4.80376 -1.07236 0
M  V30 3021 N 280.839 0.0985539 -1.57292 0
M  V30 3022 C 282.116 0.834155 -1.76921 0
M  V30 3023 C 282.496 1.97101 -0.755928 0
M  V30 3024 O 281.844 2.27474 0.216245 0
M  V30 3025 C 282.054 1.33194 -3.22584 0
M  V30 3026 C 283.402 1.77611 -3.85668 0
M  V30 3027 O 284.426 1.42825 -3.26312 0
M  V30 3028 O 283.285 2.4192 -4.90038 0
M  V30 3029 H 280.379 0.397628 -0.725135 0
M  V30 3030 H 282.925 0.0807044 -1.69508 0
M  V30 3031 H 281.697 0.517248 -3.87866 0
M  V30 3032 H 281.32 2.1475 -3.34616 0
M  V30 3033 N 282.317 1.53212 0.369288 0
M  V30 3034 C 283.733 1.42902 0.710712 0
M  V30 3035 C 283.933 0.565135 1.93413 0
M  V30 3036 O 282.989 0.0461484 2.52458 0
M  V30 3037 C 284.302 2.86042 0.927382 0
M  V30 3038 C 285.85 2.9565 1.02762 0
M  V30 3039 C 286.325 4.39843 1.27679 0
M  V30 3040 N 287.816 4.43256 1.34457 0
M  V30 3041 C 288.551 5.51929 1.55439 0
M  V30 3042 N 288.047 6.70655 1.73762 0
M  V30 3043 N 289.84 5.39502 1.57779 0
M  V30 3044 H 281.991 2.07888 -0.435457 0
M  V30 3045 H 284.254 0.938661 -0.132739 0
M  V30 3046 H 283.96 3.51557 0.100287 0
M  V30 3047 H 283.834 3.29472 1.83653 0
M  V30 3048 H 286.221 2.30291 1.84527 0
M  V30 3049 H 286.302 2.5562 0.0959504 0
M  V30 3050 H 285.946 5.05774 0.464175 0
M  V30 3051 H 285.876 4.77443 2.22162 0
M  V30 3052 H 288.367 3.5769 1.21926 0
M  V30 3053 H 288.68 7.49248 1.89335 0
M  V30 3054 H 287.025 6.73648 1.70948 0
M  V30 3055 H 290.216 4.45713 1.43029 0
M  V30 3056 H 290.389 6.2426 1.7379 0
M  V30 3057 N 283.795 -0.628877 1.44509 0
M  V30 3058 C 285.072 -1.38733 1.37886 0
M  V30 3059 C 285.452 -2.11065 0.0387008 0
M  V30 3060 O 284.8 -2.06476 -0.97878 0
M  V30 3061 C 285.01 -2.35188 2.57852 0
M  V30 3062 C 286.358 -2.9845 3.02014 0
M  V30 3063 O 287.382 -2.45513 2.58073 0
M  V30 3064 O 286.241 -3.94487 3.78209 0
M  V30 3065 H 283.335 -0.621015 0.54614 0
M  V30 3066 H 285.881 -0.653744 1.56602 0
M  V30 3067 H 284.653 -1.80855 3.46998 0
M  V30 3068 H 284.276 -3.1596 2.4136 0
M  V30 3069 N 285.273 -1.31445 -0.869486 0
M  V30 3070 C 286.52 -1.21158 -1.62256 0
M  V30 3071 C 286.848 0.230155 -1.93133 0
M  V30 3072 O 286.103 1.17906 -1.56194 0
M  V30 3073 C 286.402 -2.00145 -2.96102 0
M  V30 3074 C 286.068 -3.4964 -2.84715 0
M  V30 3075 C 284.73 -3.90403 -2.81317 0
M  V30 3076 C 287.082 -4.44769 -2.71716 0
M  V30 3077 C 284.41 -5.24561 -2.62778 0
M  V30 3078 C 286.762 -5.79054 -2.54714 0
M  V30 3079 C 285.426 -6.19037 -2.49699 0
M  V30 3080 H 284.696 -0.443348 -0.593737 0
M  V30 3081 H 287.343 -1.62715 -1.00976 0
M  V30 3082 H 285.648 -1.5127 -3.6142 0
M  V30 3083 H 287.345 -1.89566 -3.53363 0
M  V30 3084 H 283.935 -3.17256 -2.88178 0
M  V30 3085 H 288.119 -4.14208 -2.73397 0
M  V30 3086 H 283.375 -5.54613 -2.57321 0
M  V30 3087 H 287.549 -6.52393 -2.43632 0
M  V30 3088 H 285.176 -7.22935 -2.35093 0
M  V30 3089 N 286.751 1.08385 -1.14413 0
M  V30 3090 C 287.997 1.81212 -0.923793 0
M  V30 3091 C 288.352 1.84555 0.543814 0
M  V30 3092 O 287.645 1.31056 1.39767 0
M  V30 3093 C 287.839 3.26273 -1.45879 0
M  V30 3094 C 287.668 3.37063 -2.97689 0
M  V30 3095 C 286.438 3.4824 -3.66138 0
M  V30 3096 C 288.636 3.28698 -3.95553 0
M  V30 3097 N 286.618 3.47824 -5.05858 0
M  V30 3098 C 287.989 3.35276 -5.21527 0
M  V30 3099 C 290.044 3.12437 -3.8767 0
M  V30 3100 C 288.747 3.27267 -6.40538 0
M  V30 3101 C 290.773 3.05757 -5.06228 0
M  V30 3102 C 290.135 3.12938 -6.3107 0
M  V30 3103 H 286.234 0.6769 -0.391574 0
M  V30 3104 H 288.818 1.29455 -1.45429 0
M  V30 3105 H 286.989 3.76474 -0.95507 0
M  V30 3106 H 288.721 3.87165 -1.17835 0
M  V30 3107 H 285.476 3.52141 -3.16692 0
M  V30 3108 H 285.9 3.51171 -5.78798 0
M  V30 3109 H 290.542 3.05747 -2.92025 0
M  V30 3110 H 288.26 3.32718 -7.36427 0
M  V30 3111 H 291.846 2.94295 -5.01878 0
M  V30 3112 H 290.726 3.078 -7.21269 0
M  V30 3113 N 288.23 0.939286 1.26551 0
M  V30 3114 C 289.178 0.43815 2.28436 0
M  V30 3115 C 290.172 -0.483587 1.62351 0
M  V30 3116 O 291.378 -0.362009 1.76322 0
M  V30 3117 H 287.753 0.123149 0.741848 0
M  V30 3118 H 289.724 1.31002 2.68106 0
M  V30 3119 C 288.473 -0.283052 3.46546 0
M  V30 3120 H 287.796 0.417043 3.97619 0
M  V30 3121 H 289.236 -0.597948 4.19763 0
M  V30 3122 C 287.695 -1.50018 3.01656 0
M  V30 3123 O 288.225 -2.59855 3.0633 0
M  V30 3124 N 286.431 -1.35608 2.57019 0
M  V30 3125 H 285.978 -0.46244 2.53415 0
M  V30 3126 H 285.936 -2.17165 2.27347 0
M  V30 3127 N 289.708 -1.40897 0.706093 0
M  V30 3128 C 290.658 -2.27987 0.0240746 0
M  V30 3129 C 291.642 -1.42759 -0.742204 0
M  V30 3130 O 292.834 -1.65936 -0.615966 0
M  V30 3131 C 289.963 -3.31186 -0.903907 0
M  V30 3132 C 289.049 -4.2389 -0.133318 0
M  V30 3133 N 289.44 -4.98113 0.878444 0
M  V30 3134 C 287.738 -4.44485 -0.367269 0
M  V30 3135 C 288.439 -5.6604 1.34064 0
M  V30 3136 N 287.415 -5.39522 0.664565 0
M  V30 3137 H 291.217 -2.82812 0.799658 0
M  V30 3138 H 288.731 -1.53235 0.537845 0
M  V30 3139 H 290.728 -3.92413 -1.40775 0
M  V30 3140 H 289.388 -2.77922 -1.67897 0
M  V30 3141 H 290.399 -5.02364 1.25901 0
M  V30 3142 H 287.076 -4.02213 -1.1194 0
M  V30 3143 H 288.466 -6.35524 2.1808 0
M  V30 3144 N 291.186 -0.45159 -1.50991 0
M  V30 3145 C 292.136 0.370861 -2.24964 0
M  V30 3146 C 293.12 0.978074 -1.2776 0
M  V30 3147 O 294.312 0.893854 -1.52772 0
M  V30 3148 C 291.441 1.46344 -3.10545 0
M  V30 3149 C 290.527 0.864924 -4.15187 0
M  V30 3150 N 290.918 -0.00311354 -5.058 0
M  V30 3151 C 289.216 1.13099 -4.31422 0
M  V30 3152 C 289.917 -0.340772 -5.80701 0
M  V30 3153 N 288.893 0.279203 -5.42883 0
M  V30 3154 H 292.695 -0.298134 -2.92384 0
M  V30 3155 H 290.209 -0.264528 -1.60231 0
M  V30 3156 H 292.206 2.06565 -3.62128 0
M  V30 3157 H 290.866 2.13463 -2.4467 0
M  V30 3158 H 291.877 -0.37058 -5.16572 0
M  V30 3159 H 288.554 1.79861 -3.76771 0
M  V30 3160 H 289.944 -1.048 -6.63677 0
M  V30 3161 N 292.664 1.56529 -0.183458 0
M  V30 3162 C 293.912 1.96855 0.457452 0
M  V30 3163 C 294.233 1.07104 1.62953 0
M  V30 3164 O 293.503 0.139887 1.954 0
M  V30 3165 H 292.083 0.72693 0.171992 0
M  V30 3166 H 294.745 1.93056 -0.267476 0
M  V30 3167 H 293.841 3.01423 0.809368 0
M  V30 3168 N 294.142 -0.090211 1.57342 0
M  V30 3169 C 295.388 -0.793982 1.86611 0
M  V30 3170 C 295.721 -1.78142 0.773252 0
M  V30 3171 O 294.996 -1.93271 -0.218304 0
M  V30 3172 C 295.279 -1.51839 3.26523 0
M  V30 3173 C 295.132 -0.548609 4.46442 0
M  V30 3174 C 296.451 -2.46779 3.64401 0
M  V30 3175 H 293.57 -0.287186 0.678744 0
M  V30 3176 H 296.212 -0.0575076 1.89913 0
M  V30 3177 H 294.362 -2.14617 3.23839 0
M  V30 3178 H 296.034 0.0725513 4.61243 0
M  V30 3179 H 294.277 0.137614 4.33582 0
M  V30 3180 H 294.948 -1.09271 5.41076 0
M  V30 3181 H 297.424 -1.94089 3.68061 0
M  V30 3182 H 296.3 -2.94479 4.63221 0
M  V30 3183 H 296.561 -3.30758 2.93346 0
M  V30 3184 N 295.62 -1.53406 -0.361157 0
M  V30 3185 C 296.845 -1.74024 -1.12829 0
M  V30 3186 C 297.27 -0.470069 -1.82132 0
M  V30 3187 O 296.628 0.57619 -1.719 0
M  V30 3188 C 296.676 -2.90903 -2.13091 0
M  V30 3189 O 295.78 -2.59821 -3.20261 0
M  V30 3190 H 295.121 -0.577804 -0.327168 0
M  V30 3191 H 297.651 -2.00307 -0.41693 0
M  V30 3192 H 297.661 -3.17194 -2.56616 0
M  V30 3193 H 296.336 -3.83034 -1.62042 0
M  V30 3194 H 294.913 -2.44362 -2.81677 0
M  V30 3195 N 297.098 0.621204 -1.44841 0
M  V30 3196 C 298.028 1.74366 -1.55303 0
M  V30 3197 C 299.009 1.65199 -0.405385 0
M  V30 3198 O 300.194 1.83807 -0.626787 0
M  V30 3199 C 297.324 3.12931 -1.50637 0
M  V30 3200 C 296.278 3.36896 -2.63979 0
M  V30 3201 C 295.604 4.75594 -2.44366 0
M  V30 3202 C 296.904 3.28483 -4.06074 0
M  V30 3203 H 298.598 1.65867 -2.49256 0
M  V30 3204 H 296.144 0.796558 -1.19962 0
M  V30 3205 H 298.097 3.9124 -1.56555 0
M  V30 3206 H 296.821 3.22237 -0.532057 0
M  V30 3207 H 295.48 2.60972 -2.57467 0
M  V30 3208 H 295.128 4.81616 -1.45105 0
M  V30 3209 H 294.828 4.92586 -3.20364 0
M  V30 3210 H 296.352 5.5612 -2.52117 0
M  V30 3211 H 297.766 3.96684 -4.13902 0
M  V30 3212 H 296.163 3.57008 -4.82354 0
M  V30 3213 H 297.233 2.26133 -4.28943 0
M  V30 3214 N 298.576 1.31904 0.862503 0
M  V30 3215 C 299.523 1.20182 1.9704 0
M  V30 3216 C 300.493 0.0858247 1.65878 0
M  V30 3217 O 301.678 0.26 1.8902 0
M  V30 3218 C 298.818 0.922797 3.32533 0
M  V30 3219 C 297.931 2.12284 3.76244 0
M  V30 3220 C 297.066 1.77996 5.00491 0
M  V30 3221 C 296.105 2.94366 5.36671 0
M  V30 3222 N 295.242 2.60223 6.52095 0
M  V30 3223 H 300.082 2.14951 2.06398 0
M  V30 3224 H 297.619 1.06917 1.01031 0
M  V30 3225 H 299.577 0.741548 4.10557 0
M  V30 3226 H 298.207 0.0119227 3.22798 0
M  V30 3227 H 297.259 2.41461 2.9394 0
M  V30 3228 H 298.571 2.99357 3.98982 0
M  V30 3229 H 297.725 1.56377 5.862 0
M  V30 3230 H 296.464 0.881252 4.79672 0
M  V30 3231 H 295.469 3.16625 4.49476 0
M  V30 3232 H 296.694 3.84957 5.59451 0
M  V30 3233 H 294.64 1.72884 6.32809 0
M  V30 3234 H 294.557 3.40827 6.74814 0
M  V30 3235 H 295.825 2.42016 7.40978 0
M  V30 3236 N 300.054 -1.07777 1.14986 0
M  V30 3237 C 301.279 -1.84558 0.946213 0
M  V30 3238 C 301.704 -1.81323 -0.500362 0
M  V30 3239 O 301.062 -1.20301 -1.35637 0
M  V30 3240 C 301.11 -3.29736 1.45968 0
M  V30 3241 O 300.214 -4.07149 0.65601 0
M  V30 3242 H 299.555 -0.571641 0.33782 0
M  V30 3243 H 302.085 -1.35991 1.52865 0
M  V30 3244 H 302.095 -3.80574 1.47063 0
M  V30 3245 H 300.77 -3.31406 2.51283 0
M  V30 3246 H 299.347 -3.65994 0.714322 0
M  V30 3247 N 301.532 -0.945985 -1.26051 0
M  V30 3248 C 302.778 -0.597002 -1.93814 0
M  V30 3249 C 303.111 0.862484 -1.73997 0
M  V30 3250 O 302.386 1.61769 -1.07986 0
M  V30 3251 C 302.669 -0.945937 -3.47454 0
M  V30 3252 C 302.522 -2.46052 -3.76535 0
M  V30 3253 C 303.841 -0.464785 -4.37639 0
M  V30 3254 H 300.96 -0.218366 -0.703907 0
M  V30 3255 H 303.602 -1.18107 -1.48831 0
M  V30 3256 H 301.752 -0.448902 -3.85898 0
M  V30 3257 H 303.424 -3.03065 -3.47778 0
M  V30 3258 H 301.667 -2.90194 -3.22444 0
M  V30 3259 H 302.338 -2.65517 -4.83947 0
M  V30 3260 H 304.814 -0.891016 -4.06448 0
M  V30 3261 H 303.69 -0.737712 -5.4392 0
M  V30 3262 H 303.951 0.635274 -4.37512 0
M  V30 3263 N 303.011 1.40521 -0.713556 0
M  V30 3264 C 303.974 2.29098 -0.0684347 0
M  V30 3265 C 304.974 1.45268 0.689472 0
M  V30 3266 O 306.164 1.66205 0.521677 0
M  V30 3267 C 303.296 3.28446 0.913024 0
M  V30 3268 H 304.489 2.87645 -0.84855 0
M  V30 3269 H 302.042 1.48809 -0.47809 0
M  V30 3270 H 302.777 2.74913 1.72027 0
M  V30 3271 H 302.562 3.90327 0.372472 0
M  V30 3272 H 304.052 3.94777 1.36165 0
M  V30 3273 N 304.489 0.459591 1.5075 0
M  V30 3274 C 305.905 0.113092 1.59199 0
M  V30 3275 C 306.105 -1.37951 1.46874 0
M  V30 3276 O 305.161 -2.15168 1.32132 0
M  V30 3277 C 306.474 0.653043 2.93523 0
M  V30 3278 C 308.022 0.615449 3.0689 0
M  V30 3279 C 308.497 1.13275 4.43771 0
M  V30 3280 N 309.988 1.09167 4.50152 0
M  V30 3281 C 310.723 1.46256 5.54434 0
M  V30 3282 N 310.219 1.90739 6.66026 0
M  V30 3283 N 312.012 1.37932 5.44914 0
M  V30 3284 H 304.163 1.43049 1.57005 0
M  V30 3285 H 306.426 0.590861 0.741341 0
M  V30 3286 H 306.132 1.69822 3.07983 0
M  V30 3287 H 306.006 0.0902132 3.77092 0
M  V30 3288 H 308.393 -0.420793 2.92084 0
M  V30 3289 H 308.474 1.21495 2.25106 0
M  V30 3290 H 308.118 2.16757 4.59324 0
M  V30 3291 H 308.048 0.509576 5.24129 0
M  V30 3292 H 310.539 0.76528 3.7007 0
M  V30 3293 H 310.852 2.17218 7.41644 0
M  V30 3294 H 309.197 1.94683 6.67176 0
M  V30 3295 H 312.388 1.0303 4.56621 0
M  V30 3296 H 312.561 1.67164 6.26067 0
M  V30 3297 N 305.967 -1.56429 0.191757 0
M  V30 3298 C 306.93 -2.17707 -0.716688 0
M  V30 3299 C 307.93 -1.13061 -1.14341 0
M  V30 3300 O 309.12 -1.38464 -1.05704 0
M  V30 3301 C 306.252 -2.77644 -1.97804 0
M  V30 3302 H 307.445 -2.99342 -0.1829 0
M  V30 3303 H 304.998 -1.56193 -0.0578566 0
M  V30 3304 H 305.733 -1.99799 -2.55443 0
M  V30 3305 H 305.518 -3.54246 -1.68083 0
M  V30 3306 H 307.008 -3.24708 -2.62592 0
M  V30 3307 N 307.445 0.0818655 -1.57387 0
M  V30 3308 C 308.691 0.784074 -1.8703 0
M  V30 3309 C 309.024 1.77729 -0.782689 0
M  V30 3310 O 308.299 1.93384 0.208051 0
M  V30 3311 C 308.582 1.50105 -3.27323 0
M  V30 3312 C 308.435 0.524925 -4.46727 0
M  V30 3313 C 309.754 2.44843 -3.65705 0
M  V30 3314 H 306.873 0.283582 -0.680257 0
M  V30 3315 H 309.515 0.0474352 -1.89941 0
M  V30 3316 H 307.665 2.12897 -3.24972 0
M  V30 3317 H 309.337 -0.0970111 -4.61198 0
M  V30 3318 H 307.58 -0.160606 -4.33503 0
M  V30 3319 H 308.251 1.064 -5.41648 0
M  V30 3320 H 310.727 1.92135 -3.69085 0
M  V30 3321 H 309.603 2.92018 -4.64776 0
M  V30 3322 H 309.864 3.29197 -2.95096 0
M  V30 3323 N 308.923 1.53595 0.353017 0
M  V30 3324 C 310.169 1.71581 1.09232 0
M  V30 3325 C 310.524 0.468328 1.86613 0
M  V30 3326 O 309.817 -0.538911 1.83865 0
M  V30 3327 C 310.011 2.91313 2.07054 0
M  V30 3328 C 309.84 4.27585 1.39287 0
M  V30 3329 C 308.61 4.92233 1.1417 0
M  V30 3330 C 310.808 5.07656 0.824005 0
M  V30 3331 N 308.79 6.124 0.428841 0
M  V30 3332 C 310.161 6.19531 0.241195 0
M  V30 3333 C 312.216 4.92609 0.723922 0
M  V30 3334 C 310.919 7.18002 -0.431952 0
M  V30 3335 C 312.945 5.91365 0.0645334 0
M  V30 3336 C 312.307 7.02571 -0.507347 0
M  V30 3337 H 308.406 0.680987 0.384422 0
M  V30 3338 H 310.99 1.91013 0.377096 0
M  V30 3339 H 309.161 2.73398 2.75877 0
M  V30 3340 H 310.893 2.98062 2.73753 0
M  V30 3341 H 307.648 4.51612 1.42631 0
M  V30 3342 H 308.072 6.76944 0.0874131 0
M  V30 3343 H 312.714 4.06808 1.15181 0
M  V30 3344 H 310.432 8.03384 -0.871758 0
M  V30 3345 H 314.018 5.81799 -0.0121469 0
M  V30 3346 H 312.898 7.77675 -1.0095 0
M  V30 3347 N 310.401 -0.613514 1.45168 0
M  V30 3348 C 311.647 -1.37471 1.49096 0
M  V30 3349 C 311.98 -1.93765 0.129901 0
M  V30 3350 O 311.255 -1.74707 -0.854858 0
M  V30 3351 C 311.538 -2.52701 2.56542 0
M  V30 3352 C 311.391 -2.01643 4.0207 0
M  V30 3353 C 312.71 -3.54849 2.60327 0
M  V30 3354 H 309.829 -0.498502 0.54283 0
M  V30 3355 H 312.471 -0.692125 1.76945 0
M  V30 3356 H 310.621 -3.10931 2.32926 0
M  V30 3357 H 312.293 -1.48108 4.36877 0
M  V30 3358 H 310.536 -1.32688 4.13009 0
M  V30 3359 H 311.207 -2.84681 4.72928 0
M  V30 3360 H 313.683 -3.0645 2.81474 0
M  V30 3361 H 312.559 -4.32973 3.37381 0
M  V30 3362 H 312.82 -4.10079 1.6519 0
M  V30 3363 N 311.879 -1.3236 -0.855495 0
M  V30 3364 C 312.827 -1.2118 -1.9854 0
M  V30 3365 C 313.821 -0.116788 -1.68997 0
M  V30 3366 O 315.027 -0.279657 -1.77814 0
M  V30 3367 H 311.402 -0.375608 -0.651477 0
M  V30 3368 H 313.373 -2.16743 -2.05098 0
M  V30 3369 C 312.122 -0.950849 -3.34446 0
M  V30 3370 H 311.445 -1.78563 -3.57708 0
M  V30 3371 H 312.885 -0.912863 -4.14057 0
M  V30 3372 C 311.344 0.346404 -3.35114 0
M  V30 3373 O 311.874 1.35855 -3.7803 0
M  V30 3374 N 310.08 0.36808 -2.88259 0
M  V30 3375 H 309.627 -0.456102 -2.5353 0
M  V30 3376 H 309.585 1.23591 -2.89089 0
M  V30 3377 N 313.357 1.07166 -1.15556 0
M  V30 3378 C 314.585 1.83514 -0.955519 0
M  V30 3379 C 315 1.82163 0.49621 0
M  V30 3380 O 314.357 1.23441 1.34419 0
M  V30 3381 C 314.408 3.30515 -1.46432 0
M  V30 3382 O 314.129 3.31937 -2.85918 0
M  V30 3383 C 315.63 4.23625 -1.30603 0
M  V30 3384 H 312.85 0.578926 -0.339244 0
M  V30 3385 H 315.394 1.35265 -1.53374 0
M  V30 3386 H 313.549 3.76106 -0.928584 0
M  V30 3387 H 313.963 4.23794 -3.09029 0
M  V30 3388 H 315.437 5.24831 -1.71047 0
M  V30 3389 H 315.914 4.38485 -0.250441 0
M  V30 3390 H 316.52 3.83871 -1.83094 0
M  V30 3391 N 314.835 0.952656 1.25548 0
M  V30 3392 C 316.063 0.623496 1.97282 0
M  V30 3393 C 316.478 -0.803987 1.70826 0
M  V30 3394 O 315.835 -1.53755 0.983147 0
M  V30 3395 C 315.886 0.870209 3.5087 0
M  V30 3396 O 315.607 2.24156 3.76412 0
M  V30 3397 C 317.108 0.553164 4.39835 0
M  V30 3398 H 314.328 0.233931 0.628902 0
M  V30 3399 H 316.872 1.27649 1.59768 0
M  V30 3400 H 315.027 0.263652 3.86502 0
M  V30 3401 H 315.441 2.31021 4.70882 0
M  V30 3402 H 316.915 0.776342 5.46513 0
M  V30 3403 H 317.392 -0.512215 4.36203 0
M  V30 3404 H 317.998 1.13896 4.09766 0
M  V30 3405 N 316.313 -1.40141 0.720998 0
M  V30 3406 C 317.276 -2.29058 0.0805834 0
M  V30 3407 C 318.276 -1.45632 -0.681758 0
M  V30 3408 O 319.466 -1.6648 -0.512856 0
M  V30 3409 C 316.598 -3.28925 -0.895593 0
M  V30 3410 H 317.791 -2.87191 0.863793 0
M  V30 3411 H 315.344 -1.48553 0.485975 0
M  V30 3412 H 316.079 -2.75822 -1.70566 0
M  V30 3413 H 315.864 -3.90519 -0.351766 0
M  V30 3414 H 317.354 -3.95494 -1.34069 0
M  V30 3415 N 317.792 -0.46758 -1.50504 0
M  V30 3416 C 319.04 0.0884469 -2.01906 0
M  V30 3417 C 319.361 1.40532 -1.35188 0
M  V30 3418 O 318.631 1.89515 -0.496079 0
M  V30 3419 H 317.211 0.0356765 -0.746148 0
M  V30 3420 H 319.873 -0.6172 -1.84869 0
M  V30 3421 H 318.969 0.2425 -3.11156 0
M  V30 3422 N 319.27 1.56325 -0.20005 0
M  V30 3423 C 320.202 2.16555 0.750771 0
M  V30 3424 C 321.215 1.12871 1.1732 0
M  V30 3425 O 322.404 1.39943 1.10807 0
M  V30 3426 C 319.504 2.71684 2.02586 0
M  V30 3427 C 318.677 4.00321 1.76244 0
M  V30 3428 C 317.736 4.40227 2.88248 0
M  V30 3429 O 316.762 5.07552 2.57642 0
M  V30 3430 N 317.964 4.04138 4.16717 0
M  V30 3431 H 320.729 2.98772 0.235685 0
M  V30 3432 H 318.29 1.6189 -0.0182594 0
M  V30 3433 H 320.282 2.95363 2.76664 0
M  V30 3434 H 318.852 1.93893 2.45202 0
M  V30 3435 H 318.072 3.84723 0.85919 0
M  V30 3436 H 319.36 4.84279 1.56048 0
M  V30 3437 H 318.758 3.49993 4.44434 0
M  V30 3438 H 317.315 4.32756 4.87407 0
M  V30 3439 N 320.748 -0.0735177 1.57428 0
M  V30 3440 C 321.678 -1.0879 2.06608 0
M  V30 3441 C 322.659 -1.40473 0.959237 0
M  V30 3442 O 323.844 -1.5013 1.23185 0
M  V30 3443 C 320.974 -2.40183 2.50857 0
M  V30 3444 C 319.928 -2.22858 3.65402 0
M  V30 3445 C 319.254 -3.59619 3.957 0
M  V30 3446 C 320.554 -1.65123 4.95511 0
M  V30 3447 H 322.248 -0.678673 2.91607 0
M  V30 3448 H 319.794 -0.325013 1.40284 0
M  V30 3449 H 321.747 -3.11437 2.83874 0
M  V30 3450 H 320.471 -2.83083 1.62885 0
M  V30 3451 H 319.13 -1.54045 3.32664 0
M  V30 3452 H 318.778 -4.00086 3.04861 0
M  V30 3453 H 318.478 -3.48866 4.72828 0
M  V30 3454 H 320.002 -4.32306 4.31212 0
M  V30 3455 H 321.416 -2.26241 5.26771 0
M  V30 3456 H 319.813 -1.65071 5.7695 0
M  V30 3457 H 320.883 -0.612559 4.81015 0
M  V30 3458 N 322.226 -1.5378 -0.344866 0
M  V30 3459 C 323.642 -1.44015 -0.687888 0
M  V30 3460 C 323.842 -0.595834 -1.92489 0
M  V30 3461 O 322.898 -0.0863064 -2.52352 0
M  V30 3462 C 324.211 -2.87481 -0.881758 0
M  V30 3463 C 325.759 -2.97247 -0.980459 0
M  V30 3464 C 326.234 -4.41819 -1.20665 0
M  V30 3465 N 327.725 -4.45339 -1.27389 0
M  V30 3466 C 328.46 -5.54333 -1.46639 0
M  V30 3467 N 327.956 -6.73335 -1.63071 0
M  V30 3468 N 329.749 -5.41944 -1.49176 0
M  V30 3469 H 321.9 -2.07169 0.468475 0
M  V30 3470 H 324.163 -0.93643 0.147655 0
M  V30 3471 H 323.869 -3.51672 -0.0443444 0
M  V30 3472 H 323.743 -3.32352 -1.78388 0
M  V30 3473 H 326.13 -2.33197 -1.8084 0
M  V30 3474 H 326.211 -2.5574 -0.0552713 0
M  V30 3475 H 325.855 -5.06449 -0.383652 0
M  V30 3476 H 325.785 -4.80917 -2.14539 0
M  V30 3477 H 328.276 -3.59585 -1.1622 0
M  V30 3478 H 328.589 -7.52165 -1.77391 0
M  V30 3479 H 326.934 -6.76282 -1.60209 0
M  V30 3480 H 330.125 -4.47932 -1.3592 0
M  V30 3481 H 330.298 -6.26946 -1.63837 0
M  V30 3482 N 323.704 0.605807 -1.45491 0
M  V30 3483 C 324.636 1.73031 -1.5031 0
M  V30 3484 C 325.649 1.57968 -0.393687 0
M  V30 3485 O 326.838 1.65817 -0.660839 0
M  V30 3486 C 323.938 3.11049 -1.34543 0
M  V30 3487 C 323.111 3.52334 -2.59189 0
M  V30 3488 C 322.17 4.69323 -2.37954 0
M  V30 3489 O 321.196 4.7635 -3.11575 0
M  V30 3490 N 322.398 5.62705 -1.4263 0
M  V30 3491 H 325.163 1.6936 -2.4726 0
M  V30 3492 H 322.724 0.79114 -1.41254 0
M  V30 3493 H 324.716 3.87071 -1.18144 0
M  V30 3494 H 323.286 3.09217 -0.458623 0
M  V30 3495 H 322.506 2.66256 -2.90691 0
M  V30 3496 H 323.794 3.76677 -3.42041 0
M  V30 3497 H 323.192 5.59744 -0.818758 0
M  V30 3498 H 321.749 6.38252 -1.32202 0
M  V30 3499 N 325.182 1.32811 0.848464 0
M  V30 3500 C 326.43 1.23479 1.59991 0
M  V30 3501 C 326.751 -0.201853 1.93952 0
M  V30 3502 O 326.021 -1.12818 1.60153 0
M  V30 3503 H 324.601 0.454034 0.593179 0
M  V30 3504 H 327.263 1.66412 1.01455 0
M  V30 3505 H 326.359 1.82178 2.53412 0
M  V30 3506 N 326.66 -1.06551 1.16123 0
M  V30 3507 C 327.908 -1.78947 0.939267 0
M  V30 3508 C 328.229 -1.87532 -0.534476 0
M  V30 3509 O 327.499 -1.38211 -1.38833 0
M  V30 3510 H 326.079 -0.662807 0.344523 0
M  V30 3511 H 328.741 -1.28725 1.46342 0
M  V30 3512 H 327.837 -2.81117 1.35572 0
M  V30 3513 N 328.138 -0.959301 -1.25041 0
M  V30 3514 C 329.363 -0.633507 -1.97488 0
M  V30 3515 C 329.788 0.788555 -1.70773 0
M  V30 3516 O 329.146 1.53394 -0.966431 0
M  V30 3517 C 329.194 -0.904057 -3.49083 0
M  V30 3518 O 328.298 0.0147939 -4.12397 0
M  V30 3519 H 327.639 -0.240368 -0.618966 0
M  V30 3520 H 330.169 -1.28717 -1.59038 0
M  V30 3521 H 330.179 -0.832203 -3.99423 0
M  V30 3522 H 328.854 -1.94048 -3.67856 0
M  V30 3523 H 327.431 -0.109664 -3.72739 0
M  V30 3524 N 329.616 1.39756 -0.72842 0
M  V30 3525 C 330.844 2.04948 -0.283528 0
M  V30 3526 C 331.259 1.54908 1.0793 0
M  V30 3527 O 330.616 0.711135 1.68075 0
M  V30 3528 C 330.667 3.60498 -0.268957 0
M  V30 3529 O 330.388 4.08695 -1.57798 0
M  V30 3530 C 331.889 4.4288 0.192912 0
M  V30 3531 H 329.109 0.659243 -0.125056 0
M  V30 3532 H 331.653 1.78927 -0.990226 0
M  V30 3533 H 329.808 3.85444 0.388801 0
M  V30 3534 H 330.222 5.02977 -1.48709 0
M  V30 3535 H 331.696 5.51791 0.151952 0
M  V30 3536 H 332.173 4.21418 1.23708 0
M  V30 3537 H 332.779 4.23069 -0.435039 0
M  V30 3538 N 331.094 0.475555 1.50254 0
M  V30 3539 C 332.024 -0.30611 2.31485 0
M  V30 3540 C 333.005 -0.986228 1.38591 0
M  V30 3541 O 334.19 -0.982541 1.67511 0
M  V30 3542 C 331.32 -1.38588 3.1845 0
M  V30 3543 C 330.274 -0.827115 4.19932 0
M  V30 3544 C 329.6 -2.00551 4.95665 0
M  V30 3545 C 330.9 0.16463 5.2204 0
M  V30 3546 H 332.594 0.371866 2.97082 0
M  V30 3547 H 330.14 0.180282 1.42867 0
M  V30 3548 H 332.093 -1.94023 3.74076 0
M  V30 3549 H 330.817 -2.09269 2.50747 0
M  V30 3550 H 329.476 -0.294702 3.65414 0
M  V30 3551 H 329.124 -2.6994 4.2443 0
M  V30 3552 H 328.824 -1.63784 5.64313 0
M  V30 3553 H 330.348 -2.56468 5.54127 0
M  V30 3554 H 331.762 -0.300699 5.72511 0
M  V30 3555 H 330.159 0.446813 5.98434 0
M  V30 3556 H 331.229 1.08905 4.72512 0
M  V30 3557 N 332.573 -1.56217 0.208337 0
M  V30 3558 C 333.801 -2.02337 -0.43215 0
M  V30 3559 C 334.216 -1.08834 -1.54275 0
M  V30 3560 O 333.573 -0.0955462 -1.8225 0
M  V30 3561 C 333.624 -3.48072 -0.976138 0
M  V30 3562 O 333.345 -4.38007 0.0901621 0
M  V30 3563 C 334.846 -4.09773 -1.69119 0
M  V30 3564 H 332.066 -0.662385 -0.10718 0
M  V30 3565 H 334.61 -2.01966 0.320923 0
M  V30 3566 H 332.765 -3.49099 -1.67954 0
M  V30 3567 H 333.179 -5.23543 -0.316701 0
M  V30 3568 H 334.653 -5.13556 -2.02397 0
M  V30 3569 H 335.13 -3.53999 -2.59964 0
M  V30 3570 H 335.736 -4.12556 -1.03332 0
M  V30 3571 N 334.051 0.0651679 -1.57465 0
M  V30 3572 C 334.983 1.10359 -2.00882 0
M  V30 3573 C 335.996 1.346 -0.915788 0
M  V30 3574 O 337.185 1.32723 -1.1936 0
M  V30 3575 C 334.285 2.45312 -2.33828 0
M  V30 3576 C 333.458 2.40934 -3.65061 0
M  V30 3577 C 332.517 3.58047 -3.85602 0
M  V30 3578 O 331.543 3.39175 -4.57109 0
M  V30 3579 N 332.745 4.78637 -3.28462 0
M  V30 3580 H 335.51 0.733807 -2.90578 0
M  V30 3581 H 333.071 0.253719 -1.599 0
M  V30 3582 H 335.063 3.22314 -2.44737 0
M  V30 3583 H 333.633 2.74267 -1.49988 0
M  V30 3584 H 332.853 1.49273 -3.64844 0
M  V30 3585 H 334.141 2.35117 -4.51218 0
M  V30 3586 H 333.539 4.96872 -2.70433 0
M  V30 3587 H 332.096 5.53127 -3.44809 0
M  V30 3588 N 335.529 1.53961 0.336706 0
M  V30 3589 C 336.461 1.78751 1.4346 0
M  V30 3590 C 337.474 0.669019 1.48418 0
M  V30 3591 O 338.663 0.945884 1.51378 0
M  V30 3592 C 335.763 1.87844 2.82078 0
M  V30 3593 C 334.936 3.17854 3.00479 0
M  V30 3594 C 333.995 3.17816 4.19379 0
M  V30 3595 O 333.021 3.91511 4.13168 0
M  V30 3596 N 334.223 2.40669 5.2826 0
M  V30 3597 H 336.988 2.73493 1.22563 0
M  V30 3598 H 334.549 1.53096 0.526625 0
M  V30 3599 H 336.541 1.85261 3.59806 0
M  V30 3600 H 335.111 1.00257 2.96086 0
M  V30 3601 H 334.331 3.33504 2.10163 0
M  V30 3602 H 335.619 4.03718 3.0966 0
M  V30 3603 H 335.017 1.8036 5.36178 0
M  V30 3604 H 333.574 2.43877 6.04456 0
M  V30 3605 N 337.007 -0.598083 1.45811 0
M  V30 3606 C 337.937 -1.71873 1.58057 0
M  V30 3607 C 338.918 -1.64533 0.431615 0
M  V30 3608 O 340.103 -1.82787 0.65595 0
M  V30 3609 C 337.233 -3.10495 1.55597 0
M  V30 3610 C 336.187 -3.32654 2.69305 0
M  V30 3611 C 335.513 -4.71646 2.51902 0
M  V30 3612 C 336.813 -3.21981 4.11248 0
M  V30 3613 H 338.507 -1.61881 2.51863 0
M  V30 3614 H 336.053 -0.777372 1.21214 0
M  V30 3615 H 338.006 -3.88699 1.6276 0
M  V30 3616 H 336.73 -3.2135 0.583255 0
M  V30 3617 H 335.389 -2.56843 2.61586 0
M  V30 3618 H 335.037 -4.79246 1.52748 0
M  V30 3619 H 334.737 -4.87426 3.2816 0
M  V30 3620 H 336.261 -5.52038 2.60933 0
M  V30 3621 H 337.675 -3.90049 4.20161 0
M  V30 3622 H 336.072 -3.49289 4.87972 0
M  V30 3623 H 337.142 -2.1928 4.32486 0
M  V30 3624 N 338.485 -1.33259 -0.841409 0
M  V30 3625 C 339.731 -1.24757 -1.59886 0
M  V30 3626 C 340.064 0.186913 -1.93298 0
M  V30 3627 O 339.339 1.12757 -1.5848 0
M  V30 3628 C 339.622 -2.12036 -2.91055 0
M  V30 3629 C 339.475 -3.63929 -2.6434 0
M  V30 3630 C 340.794 -1.9916 -3.92458 0
M  V30 3631 H 337.913 -0.454542 -0.580138 0
M  V30 3632 H 340.555 -1.63335 -0.970647 0
M  V30 3633 H 338.705 -1.79265 -3.44669 0
M  V30 3634 H 340.377 -4.06978 -2.17178 0
M  V30 3635 H 338.62 -3.85935 -1.98082 0
M  V30 3636 H 339.291 -4.20341 -3.57796 0
M  V30 3637 H 341.767 -2.27895 -3.48143 0
M  V30 3638 H 340.643 -2.62484 -4.82072 0
M  V30 3639 H 340.904 -0.963082 -4.31482 0
M  V30 3640 N 339.963 1.05934 -1.16686 0
M  V30 3641 C 340.91 2.13499 -0.876748 0
M  V30 3642 C 341.88 1.65162 0.176299 0
M  V30 3643 O 343.065 1.90757 0.0407143 0
M  V30 3644 C 340.205 3.42912 -0.387967 0
M  V30 3645 C 339.318 4.04964 -1.50426 0
M  V30 3646 C 338.453 5.22266 -0.970125 0
M  V30 3647 C 337.492 5.76309 -2.06238 0
M  V30 3648 N 336.629 6.84922 -1.54356 0
M  V30 3649 H 341.469 2.37654 -1.7979 0
M  V30 3650 H 339.006 1.16598 -0.896843 0
M  V30 3651 H 340.964 4.17111 -0.086186 0
M  V30 3652 H 339.594 3.18963 0.496235 0
M  V30 3653 H 338.646 3.28277 -1.92193 0
M  V30 3654 H 339.958 4.41122 -2.32836 0
M  V30 3655 H 339.112 6.03506 -0.621743 0
M  V30 3656 H 337.851 4.87564 -0.115377 0
M  V30 3657 H 336.856 4.93704 -2.41942 0
M  V30 3658 H 338.081 6.13062 -2.92115 0
M  V30 3659 H 336.027 6.52131 -0.711406 0
M  V30 3660 H 335.944 7.20043 -2.30379 0
M  V30 3661 H 337.212 7.69832 -1.22387 0
M  V30 3662 N 341.441 0.965919 1.2453 0
M  V30 3663 C 342.389 0.486506 2.27455 0
M  V30 3664 C 343.383 -0.449041 1.6334 0
M  V30 3665 O 344.589 -0.324527 1.7705 0
M  V30 3666 H 340.964 0.138857 0.739069 0
M  V30 3667 H 342.935 1.3666 2.65267 0
M  V30 3668 C 341.684 -0.209481 3.47068 0
M  V30 3669 H 341.007 0.50129 3.96645 0
M  V30 3670 H 342.447 -0.508775 4.20936 0
M  V30 3671 C 340.906 -1.43586 3.0477 0
M  V30 3672 O 341.436 -2.53299 3.11773 0
M  V30 3673 N 339.642 -1.30126 2.59838 0
M  V30 3674 H 339.189 -0.408583 2.54339 0
M  V30 3675 H 339.147 -2.12294 2.31902 0
M  V30 3676 N 342.919 -1.39368 0.735821 0
M  V30 3677 C 344.166 -2.00497 0.284123 0
M  V30 3678 C 344.494 -1.58387 -1.12889 0
M  V30 3679 O 343.749 -0.804359 -1.78406 0
M  V30 3680 C 344.048 -3.5583 0.334651 0
M  V30 3681 C 343.714 -4.17593 1.7008 0
M  V30 3682 C 342.376 -4.34176 2.07472 0
M  V30 3683 C 344.728 -4.51848 2.59775 0
M  V30 3684 C 342.056 -4.82304 3.34065 0
M  V30 3685 C 344.408 -5.01384 3.85741 0
M  V30 3686 C 343.072 -5.16175 4.23225 0
M  V30 3687 H 342.342 -0.73367 0.103968 0
M  V30 3688 H 344.989 -1.66683 0.942825 0
M  V30 3689 H 343.294 -3.89674 -0.407625 0
M  V30 3690 H 344.991 -4.00986 -0.0329927 0
M  V30 3691 H 341.581 -4.05087 1.40008 0
M  V30 3692 H 345.765 -4.38653 2.32157 0
M  V30 3693 H 341.021 -4.91941 3.63049 0
M  V30 3694 H 345.195 -5.26863 4.55399 0
M  V30 3695 H 342.822 -5.5323 5.21384 0
M  V30 3696 N 344.397 -0.483516 -1.5 0
M  V30 3697 C 345.644 0.0671597 -2.02389 0
M  V30 3698 C 345.972 1.38597 -1.36459 0
M  V30 3699 O 345.227 1.89634 -0.483458 0
M  V30 3700 C 345.526 0.286226 -3.56252 0
M  V30 3701 C 345.192 -0.952416 -4.40726 0
M  V30 3702 C 343.854 -1.29199 -4.63531 0
M  V30 3703 C 346.206 -1.77655 -4.89988 0
M  V30 3704 C 343.534 -2.45553 -5.32842 0
M  V30 3705 C 345.886 -2.93147 -5.60578 0
M  V30 3706 C 344.55 -3.27505 -5.81633 0
M  V30 3707 H 343.82 0.0245755 -0.740592 0
M  V30 3708 H 346.467 -0.640124 -1.80485 0
M  V30 3709 H 344.772 1.07587 -3.76739 0
M  V30 3710 H 346.469 0.726473 -3.94365 0
M  V30 3711 H 343.059 -0.677881 -4.23205 0
M  V30 3712 H 347.243 -1.52737 -4.72213 0
M  V30 3713 H 342.499 -2.72431 -5.47349 0
M  V30 3714 H 346.673 -3.57344 -5.97727 0
M  V30 3715 H 344.3 -4.1777 -6.35116 0
M  V30 3716 N 345.875 1.56104 -0.216619 0
M  V30 3717 C 346.805 2.23063 0.690296 0
M  V30 3718 C 347.786 1.20072 1.20485 0
M  V30 3719 O 348.971 1.48643 1.24976 0
M  V30 3720 C 346.101 2.90672 1.90072 0
M  V30 3721 C 345.055 4.00092 1.5202 0
M  V30 3722 C 344.381 4.54972 2.80899 0
M  V30 3723 C 345.681 5.17398 0.71391 0
M  V30 3724 H 347.375 2.99109 0.132038 0
M  V30 3725 H 344.921 1.43866 0.0620664 0
M  V30 3726 H 346.874 3.36204 2.54057 0
M  V30 3727 H 345.598 2.12066 2.48386 0
M  V30 3728 H 344.257 3.55283 0.903839 0
M  V30 3729 H 343.905 3.73102 3.37348 0
M  V30 3730 H 343.605 5.28817 2.56176 0
M  V30 3731 H 345.129 5.0322 3.45836 0
M  V30 3732 H 346.543 5.59342 1.25735 0
M  V30 3733 H 344.94 5.97444 0.563951 0
M  V30 3734 H 346.01 4.84088 -0.280527 0
M  V30 3735 N 347.353 -0.0568162 1.57498 0
M  V30 3736 C 348.578 -0.769402 1.92601 0
M  V30 3737 C 349.003 -1.69559 0.814336 0
M  V30 3738 O 348.361 -1.79811 -0.231903 0
M  V30 3739 C 348.409 -1.52634 3.26704 0
M  V30 3740 O 347.513 -2.63797 3.16994 0
M  V30 3741 H 346.854 -0.208909 0.63028 0
M  V30 3742 H 349.384 -0.0205798 2.0459 0
M  V30 3743 H 349.394 -1.90234 3.60936 0
M  V30 3744 H 348.069 -0.846875 4.07186 0
M  V30 3745 H 346.646 -2.28943 2.94346 0
M  V30 3746 N 348.832 -1.54138 -0.328536 0
M  V30 3747 C 349.78 -1.83894 -1.42428 0
M  V30 3748 C 350.774 -0.710478 -1.53781 0
M  V30 3749 O 351.98 -0.894062 -1.56226 0
M  V30 3750 H 348.355 -0.582837 -0.475189 0
M  V30 3751 H 350.326 -2.75537 -1.14552 0
M  V30 3752 C 349.075 -2.07866 -2.78724 0
M  V30 3753 H 348.398 -2.94158 -2.7076 0
M  V30 3754 H 349.838 -2.32644 -3.54476 0
M  V30 3755 C 348.297 -0.868689 -3.25508 0
M  V30 3756 O 348.827 -0.0754908 -4.01629 0
M  V30 3757 N 347.033 -0.681711 -2.82491 0
M  V30 3758 H 346.58 -1.32838 -2.20708 0
M  V30 3759 H 346.538 0.126374 -3.14146 0
M  V30 3760 N 350.31 0.590341 -1.46126 0
M  V30 3761 C 351.22 1.72793 -1.58681 0
M  V30 3762 C 352.236 1.67516 -0.470566 0
M  V30 3763 O 353.412 1.87562 -0.733642 0
M  V30 3764 C 350.477 3.09287 -1.5666 0
M  V30 3765 C 349.538 3.25886 -2.79458 0
M  V30 3766 C 348.771 4.55869 -2.77524 0
M  V30 3767 O 348.994 5.3928 -1.85832 0
M  V30 3768 O 347.928 4.75552 -3.68964 0
M  V30 3769 H 351.754 1.65149 -2.54872 0
M  V30 3770 H 349.339 0.756486 -1.28832 0
M  V30 3771 H 351.221 3.90577 -1.58202 0
M  V30 3772 H 349.896 3.17385 -0.636271 0
M  V30 3773 H 348.803 2.44119 -2.83472 0
M  V30 3774 H 350.136 3.22675 -3.71674 0
M  V30 3775 N 351.788 1.33704 0.83433 0
M  V30 3776 C 353.204 1.13137 1.12571 0
M  V30 3777 C 353.404 -0.0747261 2.01361 0
M  V30 3778 O 352.46 -0.753647 2.4099 0
M  V30 3779 C 353.773 2.42105 1.78342 0
M  V30 3780 C 355.321 2.48054 1.90888 0
M  V30 3781 C 355.796 3.76995 2.60075 0
M  V30 3782 N 357.287 3.78092 2.67584 0
M  V30 3783 C 358.022 4.74574 3.21818 0
M  V30 3784 N 357.518 5.81434 3.76705 0
M  V30 3785 N 359.311 4.62044 3.20112 0
M  V30 3786 H 351.462 2.11 0.243489 0
M  V30 3787 H 353.725 0.932532 0.17055 0
M  V30 3788 H 353.431 3.30391 1.20561 0
M  V30 3789 H 353.305 2.54594 2.7832 0
M  V30 3790 H 355.692 1.60215 2.47821 0
M  V30 3791 H 355.773 2.39502 0.898459 0
M  V30 3792 H 355.417 4.65219 2.03799 0
M  V30 3793 H 355.347 3.82825 3.61597 0
M  V30 3794 H 357.838 3.00865 2.28667 0
M  V30 3795 H 358.151 6.51084 4.16305 0
M  V30 3796 H 356.496 5.85163 3.7498 0
M  V30 3797 H 359.687 3.77716 2.76493 0
M  V30 3798 H 359.86 5.37406 3.62076 0
M  V30 3799 N 353.266 -1.05314 1.17247 0
M  V30 3800 C 354.491 -1.82509 0.985148 0
M  V30 3801 C 354.916 -1.82343 -0.461788 0
M  V30 3802 O 354.274 -1.23151 -1.33055 0
M  V30 3803 C 354.322 -3.26566 1.52929 0
M  V30 3804 O 353.426 -4.05666 0.742225 0
M  V30 3805 H 352.767 -0.564347 0.349869 0
M  V30 3806 H 355.297 -1.32718 1.55715 0
M  V30 3807 H 355.307 -3.77369 1.55103 0
M  V30 3808 H 353.982 -3.26001 2.58256 0
M  V30 3809 H 352.559 -3.64397 0.791794 0
M  V30 3810 N 354.744 -0.972509 -1.24016 0
M  V30 3811 C 355.674 -0.525548 -2.27509 0
M  V30 3812 C 356.655 0.437262 -1.64384 0
M  V30 3813 O 357.84 0.332343 -1.91335 0
M  V30 3814 C 354.97 0.180448 -3.46831 0
M  V30 3815 C 353.924 -0.698859 -4.22256 0
M  V30 3816 C 353.25 0.138903 -5.3452 0
M  V30 3817 C 354.55 -1.98582 -4.83076 0
M  V30 3818 H 356.244 -1.39058 -2.65148 0
M  V30 3819 H 353.79 -0.67009 -1.27459 0
M  V30 3820 H 355.743 0.504387 -4.18371 0
M  V30 3821 H 354.467 1.07987 -3.08231 0
M  V30 3822 H 353.126 -1.00614 -3.52523 0
M  V30 3823 H 352.774 1.03862 -4.9216 0
M  V30 3824 H 352.474 -0.446259 -5.85903 0
M  V30 3825 H 353.998 0.457404 -6.08884 0
M  V30 3826 H 355.412 -1.72715 -5.46665 0
M  V30 3827 H 353.809 -2.5181 -5.44713 0
M  V30 3828 H 354.879 -2.67769 -4.04262 0
M  V30 3829 N 356.222 1.38976 -0.743202 0
M  V30 3830 C 357.447 2.05161 -0.303936 0
M  V30 3831 C 357.872 1.55677 1.05576 0
M  V30 3832 O 357.23 0.704131 1.67068 0
M  V30 3833 C 357.278 3.59138 -0.324373 0
M  V30 3834 O 356.382 4.06668 0.685204 0
M  V30 3835 H 355.723 0.649815 -0.136518 0
M  V30 3836 H 358.253 1.77852 -1.01142 0
M  V30 3837 H 358.263 4.07639 -0.171618 0
M  V30 3838 H 356.938 3.94515 -1.31647 0
M  V30 3839 H 355.515 3.69561 0.497913 0
M  V30 3840 N 357.7 0.491464 1.49741 0
M  V30 3841 C 359.116 0.146835 1.58923 0
M  V30 3842 C 359.316 -1.34804 1.49767 0
M  V30 3843 O 358.372 -2.12317 1.36667 0
M  V30 3844 C 359.685 0.715157 2.92072 0
M  V30 3845 C 361.233 0.680407 3.05515 0
M  V30 3846 C 361.708 1.22663 4.41269 0
M  V30 3847 N 363.199 1.18691 4.47735 0
M  V30 3848 C 363.934 1.57984 5.51207 0
M  V30 3849 N 363.43 2.04824 6.6183 0
M  V30 3850 N 365.223 1.49459 5.41866 0
M  V30 3851 H 357.374 1.46347 1.53936 0
M  V30 3852 H 359.637 0.606453 0.728642 0
M  V30 3853 H 359.343 1.76317 3.04311 0
M  V30 3854 H 359.217 0.17018 3.76816 0
M  V30 3855 H 361.604 -0.358743 2.92911 0
M  V30 3856 H 361.685 1.26242 2.22478 0
M  V30 3857 H 361.329 2.26451 4.54623 0
M  V30 3858 H 361.259 0.620637 5.2293 0
M  V30 3859 H 363.75 0.843605 3.68364 0
M  V30 3860 H 364.063 2.32901 7.3687 0
M  V30 3861 H 362.408 2.08791 6.62896 0
M  V30 3862 H 365.599 1.12692 4.54333 0
M  V30 3863 H 365.772 1.80406 6.22381 0
M  V30 3864 N 359.178 -1.55987 0.224894 0
M  V30 3865 C 360.125 -2.20436 -0.68385 0
M  V30 3866 C 361.095 -1.16102 -1.18783 0
M  V30 3867 O 362.28 -1.4447 -1.24632 0
M  V30 3868 C 359.42 -2.89076 -1.88491 0
M  V30 3869 C 358.533 -4.08012 -1.41951 0
M  V30 3870 C 357.668 -4.64426 -2.5784 0
M  V30 3871 C 356.707 -5.75656 -2.08053 0
M  V30 3872 N 355.844 -6.26347 -3.17227 0
M  V30 3873 H 360.684 -2.97727 -0.12754 0
M  V30 3874 H 358.221 -1.47011 -0.0511978 0
M  V30 3875 H 360.179 -3.27059 -2.59014 0
M  V30 3876 H 358.809 -2.14298 -2.41405 0
M  V30 3877 H 357.861 -3.75492 -0.609095 0
M  V30 3878 H 359.173 -4.88375 -1.01447 0
M  V30 3879 H 358.327 -5.04869 -3.3644 0
M  V30 3880 H 357.066 -3.83233 -3.01635 0
M  V30 3881 H 356.071 -5.34712 -1.27916 0
M  V30 3882 H 357.296 -6.58686 -1.65255 0
M  V30 3883 H 355.242 -5.48067 -3.60497 0
M  V30 3884 H 355.159 -7.01843 -2.80986 0
M  V30 3885 H 356.427 -6.71447 -3.95953 0
M  V30 3886 N 360.656 0.0484629 -1.57525 0
M  V30 3887 C 361.905 0.742065 -1.87553 0
M  V30 3888 C 362.218 1.77545 -0.820802 0
M  V30 3889 O 363.424 2.52027 -1.00967 0
M  V30 3890 C 361.88 1.37081 -3.32771 0
M  V30 3891 C 361.488 0.374786 -4.4643 0
M  V30 3892 C 363.232 2.04542 -3.71972 0
M  V30 3893 C 361.139 1.01077 -5.82698 0
M  V30 3894 H 360.069 0.280903 -0.699721 0
M  V30 3895 H 362.72 -0.00411877 -1.835 0
M  V30 3896 H 361.102 2.16605 -3.31509 0
M  V30 3897 H 362.276 -0.392331 -4.59127 0
M  V30 3898 H 360.591 -0.196653 -4.15935 0
M  V30 3899 H 363.188 2.52943 -4.71088 0
M  V30 3900 H 363.531 2.85515 -3.02964 0
M  V30 3901 H 364.064 1.31819 -3.75325 0
M  V30 3902 H 360.803 0.240878 -6.55057 0
M  V30 3903 H 360.323 1.74819 -5.73758 0
M  V30 3904 H 362.002 1.52383 -6.28799 0
M  V30 3905 N 362.134 1.5431 0.320358 0
M  V30 3906 C 363.082 1.84647 1.4145 0
M  V30 3907 C 364.076 0.718624 1.53402 0
M  V30 3908 O 365.282 0.902335 1.5575 0
M  V30 3909 H 361.657 0.585349 0.472091 0
M  V30 3910 H 363.628 2.7614 1.13089 0
M  V30 3911 C 362.377 2.09341 2.77617 0
M  V30 3912 H 361.7 2.9559 2.69196 0
M  V30 3913 H 363.14 2.3452 3.53237 0
M  V30 3914 C 361.599 0.885939 3.25043 0
M  V30 3915 O 362.129 0.0967891 4.01583 0
M  V30 3916 N 360.335 0.696682 2.82125 0
M  V30 3917 H 359.882 1.34006 2.2 0
M  V30 3918 H 359.84 -0.109712 3.14209 0
M  V30 3919 N 363.613 -0.582584 1.46437 0
M  V30 3920 C 364.523 -1.71949 1.59595 0
M  V30 3921 C 365.539 -1.67264 0.479443 0
M  V30 3922 O 366.715 -1.87171 0.743579 0
M  V30 3923 C 363.78 -3.08452 1.58298 0
M  V30 3924 C 362.841 -3.244 2.81182 0
M  V30 3925 C 362.074 -4.54391 2.79937 0
M  V30 3926 O 362.297 -5.38287 1.8869 0
M  V30 3927 O 361.231 -4.73588 3.71481 0
M  V30 3928 H 365.057 -1.63795 2.55744 0
M  V30 3929 H 362.642 -0.749643 1.29231 0
M  V30 3930 H 364.524 -3.89732 1.60271 0
M  V30 3931 H 363.199 -3.17043 0.653094 0
M  V30 3932 H 362.106 -2.42613 2.84763 0
M  V30 3933 H 363.439 -3.20699 3.7338 0
M  V30 3934 N 365.091 -1.34144 -0.827227 0
M  V30 3935 C 366.054 -1.25264 -1.91942 0
M  V30 3936 C 367.054 -0.168866 -1.59911 0
M  V30 3937 O 368.244 -0.421198 -1.69031 0
M  V30 3938 C 365.376 -0.932952 -3.27885 0
M  V30 3939 H 366.569 -2.22357 -2.0124 0
M  V30 3940 H 364.122 -1.1837 -1.0207 0
M  V30 3941 H 364.857 0.0349917 -3.24281 0
M  V30 3942 H 364.642 -1.71682 -3.52516 0
M  V30 3943 H 366.132 -0.895874 -4.07877 0
M  V30 3944 N 366.569 1.04691 -1.17803 0
M  V30 3945 C 367.502 2.12068 -0.842765 0
M  V30 3946 C 368.48 1.61455 0.192608 0
M  V30 3947 O 369.664 1.88359 0.072995 0
M  V30 3948 C 366.791 3.37715 -0.258063 0
M  V30 3949 C 365.837 4.07164 -1.26962 0
M  V30 3950 S 366.67 4.55047 -2.82299 0
M  V30 3951 C 367.826 5.83935 -2.25323 0
M  V30 3952 H 368.059 2.4018 -1.75217 0
M  V30 3953 H 365.592 1.17366 -1.00323 0
M  V30 3954 H 367.55 4.10435 0.0727935 0
M  V30 3955 H 366.211 3.0773 0.629357 0
M  V30 3956 H 365.404 4.9746 -0.809263 0
M  V30 3957 H 365.006 3.40533 -1.54639 0
M  V30 3958 H 367.298 6.57552 -1.63192 0
M  V30 3959 H 368.241 6.34725 -3.13894 0
M  V30 3960 H 368.649 5.3874 -1.68582 0
M  V30 3961 N 368.047 0.979072 1.23499 0
M  V30 3962 C 368.98 0.463027 2.23453 0
M  V30 3963 C 369.958 -0.469128 1.55685 0
M  V30 3964 O 371.142 -0.397882 1.84253 0
M  V30 3965 C 368.269 -0.330308 3.37086 0
M  V30 3966 C 367.315 0.545795 4.22993 0
M  V30 3967 S 368.148 1.99285 4.97037 0
M  V30 3968 C 369.304 1.20862 6.1412 0
M  V30 3969 H 369.537 1.31005 2.6688 0
M  V30 3970 H 367.07 0.784965 1.32957 0
M  V30 3971 H 369.028 -0.782027 4.02982 0
M  V30 3972 H 367.689 -1.15244 2.92194 0
M  V30 3973 H 366.882 -0.0638928 5.03959 0
M  V30 3974 H 366.484 0.933705 3.62157 0
M  V30 3975 H 368.776 0.469284 6.75873 0
M  V30 3976 H 369.719 1.99307 6.79472 0
M  V30 3977 H 370.127 0.727992 5.59786 0
M  V30 3978 N 369.525 -1.3858 0.750561 0
M  V30 3979 C 370.488 -2.28836 0.129152 0
M  V30 3980 C 371.488 -1.47045 -0.650714 0
M  V30 3981 O 372.678 -1.6753 -0.477428 0
M  V30 3982 C 369.81 -3.30751 -0.825622 0
M  V30 3983 H 371.003 -2.85294 0.924516 0
M  V30 3984 H 368.556 -1.47489 0.517376 0
M  V30 3985 H 369.291 -2.79378 -1.64677 0
M  V30 3986 H 369.076 -3.91177 -0.268852 0
M  V30 3987 H 370.566 -3.98249 -1.2565 0
M  V30 3988 N 371.003 -0.499398 -1.49478 0
M  V30 3989 C 372.249 0.0457576 -2.02748 0
M  V30 3990 C 372.582 1.36793 -1.37846 0
M  V30 3991 O 371.857 1.87596 -0.513601 0
M  V30 3992 C 372.14 0.199986 -3.59544 0
M  V30 3993 C 371.993 -1.1452 -4.34977 0
M  V30 3994 C 373.312 0.94137 -4.29914 0
M  V30 3995 H 370.431 0.0151552 -0.736844 0
M  V30 3996 H 373.073 -0.650498 -1.78518 0
M  V30 3997 H 371.223 0.793007 -3.8032 0
M  V30 3998 H 372.895 -1.77697 -4.25701 0
M  V30 3999 H 371.138 -1.73488 -3.97598 0
M  V30 4000 H 371.809 -0.990607 -5.43039 0
M  V30 4001 H 374.285 0.43844 -4.13784 0
M  V30 4002 H 373.161 1.01812 -5.39375 0
M  V30 4003 H 373.422 1.98471 -3.95046 0
M  V30 4004 N 372.481 1.55866 -0.233164 0
M  V30 4005 C 373.411 2.23783 0.666599 0
M  V30 4006 C 374.392 1.21343 1.19205 0
M  V30 4007 O 375.577 1.4996 1.23392 0
M  V30 4008 C 372.707 2.92671 1.86978 0
M  V30 4009 C 371.661 4.01682 1.47768 0
M  V30 4010 C 370.987 4.57926 2.76058 0
M  V30 4011 C 372.287 5.18126 0.658993 0
M  V30 4012 H 373.981 2.99232 0.100306 0
M  V30 4013 H 371.527 1.43924 0.046804 0
M  V30 4014 H 373.48 3.3888 2.50476 0
M  V30 4015 H 372.204 2.14688 2.46123 0
M  V30 4016 H 370.863 3.56222 0.866106 0
M  V30 4017 H 370.511 3.76659 3.33372 0
M  V30 4018 H 370.211 5.31505 2.50552 0
M  V30 4019 H 371.735 5.06859 3.40479 0
M  V30 4020 H 373.149 5.60644 1.19795 0
M  V30 4021 H 371.546 5.98009 0.500552 0
M  V30 4022 H 372.616 4.83763 -0.331856 0
M  V30 4023 N 373.959 -0.0401083 1.57549 0
M  V30 4024 C 374.889 -1.04384 2.08869 0
M  V30 4025 C 375.87 -1.38407 0.988817 0
M  V30 4026 O 377.055 -1.47483 1.26342 0
M  V30 4027 C 374.185 -2.34808 2.55895 0
M  V30 4028 C 373.139 -2.15057 3.70047 0
M  V30 4029 C 372.465 -3.51145 4.03239 0
M  V30 4030 C 373.765 -1.54576 4.98902 0
M  V30 4031 H 375.459 -0.616666 2.92981 0
M  V30 4032 H 373.005 -0.295184 1.40942 0
M  V30 4033 H 374.958 -3.05346 2.90417 0
M  V30 4034 H 373.682 -2.79565 1.68853 0
M  V30 4035 H 372.341 -1.46954 3.35857 0
M  V30 4036 H 371.989 -3.93529 3.13279 0
M  V30 4037 H 371.689 -3.38758 4.80122 0
M  V30 4038 H 373.213 -4.23062 4.40285 0
M  V30 4039 H 374.627 -2.15017 5.31451 0
M  V30 4040 H 373.024 -1.52796 5.80322 0
M  V30 4041 H 374.094 -0.51039 4.82206 0
M  V30 4042 N 375.437 -1.54477 -0.31217 0
M  V30 4043 C 376.347 -1.87695 -1.4074 0
M  V30 4044 C 377.363 -0.769975 -1.56036 0
M  V30 4045 O 378.539 -1.06537 -1.70915 0
M  V30 4046 C 375.604 -2.10755 -2.75287 0
M  V30 4047 C 374.665 -3.34514 -2.69071 0
M  V30 4048 C 373.898 -3.56465 -3.97201 0
M  V30 4049 O 374.121 -2.81637 -4.96021 0
M  V30 4050 O 373.055 -4.49964 -3.9977 0
M  V30 4051 H 376.881 -2.80849 -1.15574 0
M  V30 4052 H 374.466 -1.40526 -0.507228 0
M  V30 4053 H 376.348 -2.27188 -3.54913 0
M  V30 4054 H 375.023 -1.20788 -3.0032 0
M  V30 4055 H 373.93 -3.23456 -1.87955 0
M  V30 4056 H 375.263 -4.24575 -2.48992 0
M  V30 4057 N 376.915 0.57481 -1.46744 0
M  V30 4058 C 377.845 1.69337 -1.60771 0
M  V30 4059 C 378.826 1.63825 -0.457736 0
M  V30 4060 O 380.011 1.8172 -0.684947 0
M  V30 4061 C 377.141 3.0798 -1.60517 0
M  V30 4062 C 376.095 3.28327 -2.74564 0
M  V30 4063 C 375.421 4.67578 -2.59373 0
M  V30 4064 C 376.721 3.15398 -4.16319 0
M  V30 4065 H 378.415 1.57853 -2.54407 0
M  V30 4066 H 375.961 0.75799 -1.22436 0
M  V30 4067 H 377.914 3.86061 -1.68923 0
M  V30 4068 H 376.638 3.20381 -0.634305 0
M  V30 4069 H 375.297 2.52649 -2.65639 0
M  V30 4070 H 374.945 4.76755 -1.60353 0
M  V30 4071 H 374.645 4.82144 -3.35873 0
M  V30 4072 H 376.169 5.47817 -2.69682 0
M  V30 4073 H 377.583 3.83315 -4.26313 0
M  V30 4074 H 375.98 3.41482 -4.93468 0
M  V30 4075 H 377.05 2.12372 -4.3592 0
M  V30 4076 N 378.394 1.34581 0.820102 0
M  V30 4077 C 379.344 1.22943 1.92013 0
M  V30 4078 C 380.328 0.127802 1.60392 0
M  V30 4079 O 381.52 0.357737 1.73347 0
M  V30 4080 C 378.649 0.989938 3.28717 0
M  V30 4081 C 377.735 2.13486 3.66449 0
M  V30 4082 N 378.126 3.38625 3.75722 0
M  V30 4083 C 376.424 2.04573 3.96315 0
M  V30 4084 C 377.125 4.13832 4.08801 0
M  V30 4085 N 376.101 3.42451 4.22171 0
M  V30 4086 H 379.903 2.17771 1.97365 0
M  V30 4087 H 377.417 1.2686 1.01392 0
M  V30 4088 H 379.414 0.887462 4.07345 0
M  V30 4089 H 378.074 0.0503691 3.24661 0
M  V30 4090 H 379.085 3.73143 3.59144 0
M  V30 4091 H 375.762 1.1839 4.00362 0
M  V30 4092 H 377.152 5.21909 4.23156 0
M  V30 4093 N 379.872 -1.04064 1.18357 0
M  V30 4094 C 381.102 -1.80654 1.00238 0
M  V30 4095 C 381.51 -1.83713 -0.452362 0
M  V30 4096 O 380.853 -1.27135 -1.32599 0
M  V30 4097 C 380.915 -3.27582 1.48088 0
M  V30 4098 C 380.579 -3.48184 2.96002 0
M  V30 4099 C 381.576 -3.39372 3.93856 0
M  V30 4100 C 379.261 -3.7478 3.34433 0
M  V30 4101 C 381.255 -3.5686 5.28138 0
M  V30 4102 C 378.942 -3.91915 4.68877 0
M  V30 4103 C 379.94 -3.82956 5.65539 0
M  V30 4104 O 379.628 -3.996 6.97549 0
M  V30 4105 H 379.36 -0.575751 0.354241 0
M  V30 4106 H 381.914 -1.32044 1.57333 0
M  V30 4107 H 380.144 -3.77161 0.853588 0
M  V30 4108 H 381.833 -3.8573 1.2636 0
M  V30 4109 H 382.599 -3.18789 3.65511 0
M  V30 4110 H 378.478 -3.80852 2.59756 0
M  V30 4111 H 382.022 -3.49783 6.03571 0
M  V30 4112 H 377.919 -4.11992 4.96923 0
M  V30 4113 H 378.687 -4.1676 7.04452 0
M  V30 4114 N 381.35 -0.985608 -1.22978 0
M  V30 4115 C 382.627 -0.573599 -1.87001 0
M  V30 4116 C 383.007 0.949213 -1.88555 0
M  V30 4117 O 382.355 1.82811 -1.37086 0
M  V30 4118 C 382.565 -1.18564 -3.28243 0
M  V30 4119 C 383.913 -1.28163 -4.04796 0
M  V30 4120 O 384.937 -1.13949 -3.37482 0
M  V30 4121 O 383.796 -1.50832 -5.25273 0
M  V30 4122 H 380.89 -0.193868 -0.803955 0
M  V30 4123 H 383.436 -1.08102 -1.30813 0
M  V30 4124 H 382.208 -2.22758 -3.21706 0
M  V30 4125 H 381.831 -0.663363 -3.92027 0
M  V30 4126 N 382.828 1.3818 -0.7579 0
M  V30 4127 C 383.775 2.30416 -0.133057 0
M  V30 4128 C 384.745 1.50398 0.704957 0
M  V30 4129 O 385.93 1.79014 0.660192 0
M  V30 4130 C 383.07 3.36834 0.750813 0
M  V30 4131 C 382.183 4.31879 -0.102297 0
M  V30 4132 C 381.318 5.25368 0.784979 0
M  V30 4133 C 380.357 6.12058 -0.0715046 0
M  V30 4134 N 379.494 6.97832 0.772972 0
M  V30 4135 H 384.334 2.83274 -0.925186 0
M  V30 4136 H 381.871 1.39461 -0.467866 0
M  V30 4137 H 383.829 3.97145 1.27794 0
M  V30 4138 H 382.459 2.85374 1.50868 0
M  V30 4139 H 381.511 3.72991 -0.747095 0
M  V30 4140 H 382.823 4.92921 -0.763552 0
M  V30 4141 H 381.977 5.90818 1.37911 0
M  V30 4142 H 380.716 4.64703 1.47996 0
M  V30 4143 H 379.721 5.456 -0.678272 0
M  V30 4144 H 380.946 6.74793 -0.763606 0
M  V30 4145 H 378.892 6.3971 1.45282 0
M  V30 4146 H 378.809 7.55812 0.168709 0
M  V30 4147 H 380.077 7.67687 1.35194 0
M  V30 4148 N 384.306 0.507319 1.49211 0
M  V30 4149 C 385.722 0.163682 1.58758 0
M  V30 4150 C 385.922 -1.33208 1.51188 0
M  V30 4151 O 384.978 -2.10855 1.38911 0
M  V30 4152 C 386.291 0.746095 2.91297 0
M  V30 4153 C 387.839 0.712773 3.04776 0
M  V30 4154 C 388.314 1.27336 4.39943 0
M  V30 4155 N 389.805 1.23433 4.46451 0
M  V30 4156 C 390.54 1.63821 5.495 0
M  V30 4157 N 390.036 2.11832 6.5962 0
M  V30 4158 N 391.829 1.55198 5.4025 0
M  V30 4159 H 383.98 1.47972 1.52375 0
M  V30 4160 H 386.243 0.614147 0.722168 0
M  V30 4161 H 385.949 1.79534 3.02424 0
M  V30 4162 H 385.823 0.210137 3.76614 0
M  V30 4163 H 388.21 -0.327656 2.93275 0
M  V30 4164 H 388.291 1.28595 2.21127 0
M  V30 4165 H 387.935 2.3126 4.52196 0
M  V30 4166 H 387.865 0.676066 5.22242 0
M  V30 4167 H 390.356 0.882627 3.67448 0
M  V30 4168 H 390.669 2.40703 7.34358 0
M  V30 4169 H 389.014 2.1581 6.60644 0
M  V30 4170 H 392.205 1.17505 4.53112 0
M  V30 4171 H 392.378 1.86997 6.20432 0
M  V30 4172 N 385.784 -1.5574 0.241426 0
M  V30 4173 C 387.061 -1.90704 -0.434881 0
M  V30 4174 C 387.441 -1.16145 -1.76277 0
M  V30 4175 O 386.789 -0.277152 -2.26813 0
M  V30 4176 C 386.999 -3.43657 -0.608343 0
M  V30 4177 C 388.347 -4.14806 -0.906725 0
M  V30 4178 O 389.371 -3.49366 -0.694408 0
M  V30 4179 O 388.23 -5.30548 -1.31075 0
M  V30 4180 H 385.324 -0.793592 -0.23268 0
M  V30 4181 H 387.87 -1.67288 0.285086 0
M  V30 4182 H 386.642 -3.89927 0.327505 0
M  V30 4183 H 386.265 -3.72918 -1.37906 0
M  V30 4184 N 387.262 0.0317525 -1.57568 0
M  V30 4185 C 388.511 0.722131 -1.8833 0
M  V30 4186 C 388.824 1.76664 -0.839587 0
M  V30 4187 O 390.03 2.50942 -1.03635 0
M  V30 4188 C 388.486 1.33544 -3.34207 0
M  V30 4189 C 388.094 0.327415 -4.46802 0
M  V30 4190 C 389.838 2.00585 -3.7412 0
M  V30 4191 C 387.745 0.948915 -5.83738 0
M  V30 4192 H 386.675 0.273466 -0.702661 0
M  V30 4193 H 389.326 -0.0235811 -1.83485 0
M  V30 4194 H 387.708 2.13077 -3.33788 0
M  V30 4195 H 388.882 -0.441006 -4.58685 0
M  V30 4196 H 387.197 -0.240758 -4.15703 0
M  V30 4197 H 389.794 2.47932 -4.73744 0
M  V30 4198 H 390.137 2.82285 -3.05975 0
M  V30 4199 H 390.67 1.27831 -3.76702 0
M  V30 4200 H 387.409 0.171387 -6.55276 0
M  V30 4201 H 386.929 1.68724 -5.7558 0
M  V30 4202 H 388.608 1.45705 -6.3038 0
M  V30 4203 N 388.74 1.54641 0.303973 0
M  V30 4204 C 389.67 1.88386 1.3796 0
M  V30 4205 C 390.651 0.742485 1.5304 0
M  V30 4206 O 391.836 0.997959 1.66597 0
M  V30 4207 C 388.966 2.12854 2.74427 0
M  V30 4208 C 387.92 3.28702 2.74115 0
M  V30 4209 C 387.246 3.38582 4.13844 0
M  V30 4210 C 388.546 4.65881 2.3612 0
M  V30 4211 H 390.24 2.78474 1.09966 0
M  V30 4212 H 387.786 1.33988 0.527556 0
M  V30 4213 H 389.739 2.35047 3.49758 0
M  V30 4214 H 388.463 1.19535 3.03939 0
M  V30 4215 H 387.122 3.06428 2.0124 0
M  V30 4216 H 386.77 2.42784 4.40528 0
M  V30 4217 H 386.47 4.16453 4.14537 0
M  V30 4218 H 387.994 3.63031 4.90959 0
M  V30 4219 H 389.408 4.87823 3.01167 0
M  V30 4220 H 387.805 5.46444 2.48031 0
M  V30 4221 H 388.875 4.66799 1.3125 0
M  V30 4222 N 390.218 -0.567019 1.47046 0
M  V30 4223 C 391.128 -1.70247 1.6141 0
M  V30 4224 C 392.144 -1.66746 0.497157 0
M  V30 4225 O 393.32 -1.86371 0.763389 0
M  V30 4226 C 390.385 -3.06756 1.61561 0
M  V30 4227 C 389.446 -3.21399 2.84607 0
M  V30 4228 C 388.679 -4.51396 2.84741 0
M  V30 4229 O 388.902 -5.36255 1.94388 0
M  V30 4230 O 387.836 -4.69621 3.76483 0
M  V30 4231 H 391.662 -1.61073 2.57467 0
M  V30 4232 H 389.247 -0.735894 1.30019 0
M  V30 4233 H 391.129 -3.8801 1.64396 0
M  V30 4234 H 389.804 -3.16333 0.686684 0
M  V30 4235 H 388.711 -2.39579 2.8732 0
M  V30 4236 H 390.044 -3.16721 3.76761 0
M  V30 4237 N 391.696 -1.35014 -0.812953 0
M  V30 4238 C 392.921 -1.31187 -1.60639 0
M  V30 4239 C 393.346 0.109382 -1.87782 0
M  V30 4240 O 392.704 1.07424 -1.46047 0
M  V30 4241 C 392.752 -2.11809 -2.91838 0
M  V30 4242 O 391.856 -1.49444 -3.8437 0
M  V30 4243 H 391.197 -0.450084 -0.488181 0
M  V30 4244 H 393.727 -1.77963 -1.00947 0
M  V30 4245 H 393.737 -2.23531 -3.41318 0
M  V30 4246 H 392.412 -3.15137 -2.71407 0
M  V30 4247 H 390.989 -1.46524 -3.42907 0
M  V30 4248 N 393.175 1.03435 -1.18907 0
M  V30 4249 C 394.405 1.8012 -1.01195 0
M  V30 4250 C 394.813 1.8395 0.442613 0
M  V30 4251 O 394.156 1.27836 1.31923 0
M  V30 4252 C 394.218 3.26792 -1.49823 0
M  V30 4253 C 393.882 3.46609 -2.97844 0
M  V30 4254 C 394.879 3.37278 -3.95651 0
M  V30 4255 C 392.564 3.73001 -3.36416 0
M  V30 4256 C 394.558 3.54054 -5.30023 0
M  V30 4257 C 392.245 3.89423 -4.70949 0
M  V30 4258 C 393.243 3.79951 -5.67562 0
M  V30 4259 O 392.931 3.95895 -6.99659 0
M  V30 4260 H 392.663 0.573865 -0.357289 0
M  V30 4261 H 395.217 1.31207 -1.58031 0
M  V30 4262 H 393.447 3.76703 -0.873578 0
M  V30 4263 H 395.136 3.85055 -1.28404 0
M  V30 4264 H 395.902 3.16846 -3.67197 0
M  V30 4265 H 391.781 3.79469 -2.61772 0
M  V30 4266 H 395.325 3.46577 -6.05417 0
M  V30 4267 H 391.222 4.09351 -4.99101 0
M  V30 4268 H 391.99 4.13019 -7.06653 0
M  V30 4269 N 394.653 0.992116 1.22453 0
M  V30 4270 C 395.583 0.561677 2.26644 0
M  V30 4271 C 396.564 -0.411055 1.65059 0
M  V30 4272 O 397.749 -0.301861 1.9184 0
M  V30 4273 C 394.879 -0.125247 3.47074 0
M  V30 4274 C 393.833 0.765948 4.21091 0
M  V30 4275 C 393.159 -0.0538484 5.34673 0
M  V30 4276 C 394.459 2.06242 4.79856 0
M  V30 4277 H 396.153 1.43259 2.62902 0
M  V30 4278 H 393.699 0.690283 1.26377 0
M  V30 4279 H 395.652 -0.437764 4.1912 0
M  V30 4280 H 394.376 -1.03069 3.0991 0
M  V30 4281 H 393.035 1.0621 3.50878 0
M  V30 4282 H 392.683 -0.960188 4.9375 0
M  V30 4283 H 392.383 0.539415 5.85119 0
M  V30 4284 H 393.907 -0.360477 6.09535 0
M  V30 4285 H 395.321 1.8139 5.43848 0
M  V30 4286 H 393.718 2.60444 5.40638 0
M  V30 4287 H 394.788 2.74167 3.99951 0
M  V30 4288 N 396.131 -1.37776 0.765217 0
M  V30 4289 C 397.079 -2.32209 0.134798 0
M  V30 4290 C 398.073 -1.54607 -0.692315 0
M  V30 4291 O 399.279 -1.70052 -0.590109 0
M  V30 4292 H 395.654 -0.751591 0.0248005 0
M  V30 4293 H 397.625 -2.8297 0.947119 0
M  V30 4294 C 396.374 -3.39841 -0.735063 0
M  V30 4295 H 395.697 -3.99654 -0.107991 0
M  V30 4296 H 397.137 -4.08296 -1.14326 0
M  V30 4297 C 395.596 -2.79378 -1.88281 0
M  V30 4298 O 396.126 -2.69608 -2.97783 0
M  V30 4299 N 394.332 -2.37016 -1.68142 0
M  V30 4300 H 393.879 -2.45162 -0.790772 0
M  V30 4301 H 393.837 -1.96905 -2.45104 0
M  V30 4302 N 397.609 -0.515225 -1.4894 0
M  V30 4303 C 398.519 0.259774 -2.33157 0
M  V30 4304 C 399.535 0.953501 -1.45548 0
M  V30 4305 O 400.711 0.931735 -1.78552 0
M  V30 4306 C 397.776 1.30193 -3.21326 0
M  V30 4307 C 396.837 0.620129 -4.24797 0
M  V30 4308 C 396.07 1.61263 -5.08753 0
M  V30 4309 O 396.293 2.84389 -4.94448 0
M  V30 4310 O 395.227 1.16013 -5.90614 0
M  V30 4311 H 399.053 -0.429932 -3.00641 0
M  V30 4312 H 396.638 -0.276346 -1.46822 0
M  V30 4313 H 398.52 1.90455 -3.75905 0
M  V30 4314 H 397.195 1.97431 -2.56521 0
M  V30 4315 H 396.102 -0.0226019 -3.74093 0
M  V30 4316 H 397.435 -0.0100493 -4.92199 0
M  V30 4317 N 399.087 1.5561 -0.249682 0
M  V30 4318 C 400.333 1.99306 0.374841 0
M  V30 4319 C 400.666 1.13767 1.57387 0
M  V30 4320 O 399.941 0.201711 1.93451 0
M  V30 4321 C 400.224 3.51507 0.781986 0
M  V30 4322 C 400.077 4.4781 -0.422629 0
M  V30 4323 C 401.396 4.08884 1.62793 0
M  V30 4324 H 398.515 0.724572 0.134773 0
M  V30 4325 H 401.157 1.86719 -0.351549 0
M  V30 4326 H 399.307 3.62363 1.4009 0
M  V30 4327 H 400.979 4.48931 -1.06108 0
M  V30 4328 H 399.222 4.20518 -1.06524 0
M  V30 4329 H 399.893 5.51919 -0.0943766 0
M  V30 4330 H 402.369 4.01147 1.10547 0
M  V30 4331 H 401.245 5.1564 1.88166 0
M  V30 4332 H 401.506 3.57515 2.60068 0
M  V30 4333 N 400.565 -0.0233959 1.57583 0
M  V30 4334 C 401.812 -0.713063 1.8953 0
M  V30 4335 C 402.14 -1.75056 0.847673 0
M  V30 4336 O 401.395 -1.95119 -0.150636 0
M  V30 4337 C 401.694 -1.41428 3.28227 0
M  V30 4338 C 401.36 -0.512222 4.47981 0
M  V30 4339 C 400.022 -0.263785 4.80476 0
M  V30 4340 C 402.374 0.110248 5.21083 0
M  V30 4341 C 399.702 0.615804 5.83459 0
M  V30 4342 C 402.054 0.977573 6.25001 0
M  V30 4343 C 400.718 1.23542 6.55968 0
M  V30 4344 H 399.988 -0.260928 0.69354 0
M  V30 4345 H 402.635 0.0271047 1.91481 0
M  V30 4346 H 400.94 -2.22791 3.22291 0
M  V30 4347 H 402.637 -1.95355 3.50196 0
M  V30 4348 H 399.227 -0.716013 4.22577 0
M  V30 4349 H 403.411 -0.0687137 4.96252 0
M  V30 4350 H 398.667 0.82382 6.05824 0
M  V30 4351 H 402.841 1.46638 6.80786 0
M  V30 4352 H 400.468 1.91871 7.35588 0
M  V30 4353 N 402.043 -1.548 -0.295768 0
M  V30 4354 C 402.973 -1.89115 -1.36959 0
M  V30 4355 C 403.954 -0.75059 -1.52644 0
M  V30 4356 O 405.139 -1.00678 -1.66065 0
M  V30 4357 C 402.269 -2.14307 -2.73295 0
M  V30 4358 C 401.223 -3.30151 -2.72368 0
M  V30 4359 C 400.549 -3.40772 -4.12042 0
M  V30 4360 C 401.849 -4.67126 -2.33646 0
M  V30 4361 H 403.543 -2.79053 -1.08488 0
M  V30 4362 H 401.089 -1.34266 -0.520443 0
M  V30 4363 H 403.042 -2.36898 -3.48507 0
M  V30 4364 H 401.766 -1.21145 -3.03301 0
M  V30 4365 H 400.425 -3.0749 -1.99613 0
M  V30 4366 H 400.073 -2.45117 -4.39234 0
M  V30 4367 H 399.773 -4.18645 -4.12322 0
M  V30 4368 H 401.297 -3.6563 -4.89027 0
M  V30 4369 H 402.711 -4.89414 -2.98575 0
M  V30 4370 H 401.108 -5.47751 -2.45129 0
M  V30 4371 H 402.178 -4.67489 -1.28772 0
M  V30 4372 N 403.521 0.559213 -1.47345 0
M  V30 4373 C 404.769 1.31388 -1.53563 0
M  V30 4374 C 405.09 1.93985 -0.198678 0
M  V30 4375 O 404.36 1.79825 0.777167 0
M  V30 4376 H 402.94 0.487901 -0.565652 0
M  V30 4377 H 405.602 0.65315 -1.8363 0
M  V30 4378 H 404.698 2.10844 -2.30111 0
M  V30 4379 N 404.999 1.35443 0.805782 0
M  V30 4380 C 405.931 1.24285 1.92577 0
M  V30 4381 C 406.944 0.165962 1.61952 0
M  V30 4382 O 408.133 0.419303 1.73505 0
M  V30 4383 C 405.233 0.891272 3.2697 0
M  V30 4384 C 404.406 2.06669 3.85495 0
M  V30 4385 C 403.465 1.69077 4.98297 0
M  V30 4386 O 402.491 2.4096 5.15681 0
M  V30 4387 N 403.693 0.614869 5.77234 0
M  V30 4388 H 406.458 2.20777 2.02676 0
M  V30 4389 H 404.019 1.28623 0.983243 0
M  V30 4390 H 406.011 0.621256 3.99903 0
M  V30 4391 H 404.581 0.016004 3.12596 0
M  V30 4392 H 403.801 2.50046 3.04747 0
M  V30 4393 H 405.089 2.85237 4.21328 0
M  V30 4394 H 404.487 0.017648 5.65697 0
M  V30 4395 H 403.044 0.404636 6.50543 0
M  V30 4396 N 406.477 -1.02803 1.19454 0
M  V30 4397 C 407.754 -1.73299 0.907013 0
M  V30 4398 C 408.134 -2.02772 -0.587086 0
M  V30 4399 O 407.482 -1.68304 -1.54551 0
M  V30 4400 C 407.692 -3.00912 1.76785 0
M  V30 4401 C 409.04 -3.74403 2.00268 0
M  V30 4402 O 410.064 -3.10841 1.73943 0
M  V30 4403 O 408.923 -4.88675 2.4466 0
M  V30 4404 H 406.017 -0.754727 0.338106 0
M  V30 4405 H 408.563 -1.08754 1.30271 0
M  V30 4406 H 407.335 -2.75366 2.7801 0
M  V30 4407 H 406.958 -3.73197 1.37149 0
M  V30 4408 N 407.956 -0.998596 -1.21925 0
M  V30 4409 C 409.204 -0.676325 -1.90448 0
M  V30 4410 C 409.525 0.794719 -1.78071 0
M  V30 4411 O 408.795 1.5701 -1.17152 0
M  V30 4412 H 407.375 -0.247165 -0.704925 0
M  V30 4413 H 410.037 -1.26633 -1.48156 0
M  V30 4414 H 409.133 -0.943858 -2.97486 0
M  V30 4415 N 409.434 1.37368 -0.772513 0
M  V30 4416 C 410.366 2.28899 -0.117502 0
M  V30 4417 C 411.379 1.4867 0.663405 0
M  V30 4418 O 412.568 1.71314 0.501372 0
M  V30 4419 C 409.668 3.2788 0.857192 0
M  V30 4420 C 408.841 4.37207 0.129938 0
M  V30 4421 C 407.9 5.16257 1.01811 0
M  V30 4422 O 406.926 5.67159 0.481601 0
M  V30 4423 N 408.128 5.31058 2.3443 0
M  V30 4424 H 410.893 2.85752 -0.903662 0
M  V30 4425 H 408.454 1.49353 -0.62493 0
M  V30 4426 H 410.446 3.77647 1.45482 0
M  V30 4427 H 409.016 2.7179 1.54432 0
M  V30 4428 H 408.236 3.88827 -0.648605 0
M  V30 4429 H 409.524 5.07434 -0.372559 0
M  V30 4430 H 408.922 4.91287 2.80452 0
M  V30 4431 H 407.479 5.84131 2.89197 0
M  V30 4432 N 410.912 0.523116 1.48665 0
M  V30 4433 C 412.328 0.180511 1.58576 0
M  V30 4434 C 412.528 -1.31597 1.52592 0
M  V30 4435 O 411.584 -2.0937 1.4114 0
M  V30 4436 C 412.897 0.776949 2.90489 0
M  V30 4437 C 414.445 0.745058 3.04003 0
M  V30 4438 C 414.92 1.31995 4.38567 0
M  V30 4439 N 416.411 1.28162 4.45117 0
M  V30 4440 C 417.146 1.6964 5.47731 0
M  V30 4441 N 416.642 2.18816 6.57337 0
M  V30 4442 N 418.435 1.6092 5.38573 0
M  V30 4443 H 410.586 1.4958 1.50797 0
M  V30 4444 H 412.849 0.621772 0.715614 0
M  V30 4445 H 412.555 1.82732 3.00503 0
M  V30 4446 H 412.429 0.25007 3.7637 0
M  V30 4447 H 414.816 -0.296532 2.93606 0
M  V30 4448 H 414.897 1.30933 2.1975 0
M  V30 4449 H 414.541 2.36043 4.49718 0
M  V30 4450 H 414.471 0.731418 5.21496 0
M  V30 4451 H 416.962 0.92155 3.66491 0
M  V30 4452 H 417.275 2.48478 7.31764 0
M  V30 4453 H 415.62 2.22805 6.58318 0
M  V30 4454 H 418.811 1.22304 4.5184 0
M  V30 4455 H 418.984 1.93567 6.18414 0
M  V30 4456 N 412.39 -1.55475 0.257931 0
M  V30 4457 C 413.353 -2.20551 -0.623706 0
M  V30 4458 C 414.353 -1.17809 -1.09443 0
M  V30 4459 O 415.543 -1.42823 -0.997362 0
M  V30 4460 C 412.675 -2.85784 -1.8585 0
M  V30 4461 H 413.868 -2.99848 -0.0557743 0
M  V30 4462 H 411.421 -1.56298 0.0084422 0
M  V30 4463 H 412.156 -2.10453 -2.46739 0
M  V30 4464 H 411.941 -3.61057 -1.52907 0
M  V30 4465 H 413.431 -3.35553 -2.48584 0
M  V30 4466 N 413.868 0.0150385 -1.57593 0
M  V30 4467 C 415.117 0.702115 -1.89085 0
M  V30 4468 C 415.43 1.75764 -0.858277 0
M  V30 4469 O 416.636 2.49829 -1.0629 0
M  V30 4470 C 415.092 1.29992 -3.35604 0
M  V30 4471 C 414.7 0.280007 -4.47124 0
M  V30 4472 C 416.444 1.96606 -3.76227 0
M  V30 4473 C 414.351 0.886949 -5.84711 0
M  V30 4474 H 413.281 0.265997 -0.705522 0
M  V30 4475 H 415.932 -0.0430408 -1.8345 0
M  V30 4476 H 414.314 2.09525 -3.36029 0
M  V30 4477 H 415.488 -0.489631 -4.58191 0
M  V30 4478 H 413.803 -0.284835 -4.15425 0
M  V30 4479 H 416.4 2.42893 -4.76347 0
M  V30 4480 H 416.743 2.79024 -3.08952 0
M  V30 4481 H 417.276 1.23828 -3.78036 0
M  V30 4482 H 414.015 0.101876 -6.55421 0
M  V30 4483 H 413.535 1.6261 -5.77337 0
M  V30 4484 H 415.214 1.39011 -6.3189 0
M  V30 4485 N 415.346 1.54954 0.287554 0
M  V30 4486 C 416.296 1.8322 1.357 0
M  V30 4487 C 417.28 0.690152 1.45347 0
M  V30 4488 O 418.472 0.951137 1.49273 0
M  V30 4489 C 415.601 2.09481 2.71979 0
M  V30 4490 C 414.687 3.29906 2.66502 0
M  V30 4491 N 415.078 4.50154 2.30641 0
M  V30 4492 C 413.376 3.32203 2.97585 0
M  V30 4493 C 414.077 5.32209 2.34794 0
M  V30 4494 N 413.053 4.70258 2.72688 0
M  V30 4495 H 416.855 2.73746 1.0696 0
M  V30 4496 H 414.369 1.54635 0.496167 0
M  V30 4497 H 416.366 2.27882 3.49107 0
M  V30 4498 H 415.026 1.2023 3.0162 0
M  V30 4499 H 416.037 4.76515 2.02865 0
M  V30 4500 H 412.714 2.53101 3.32034 0
M  V30 4501 H 414.104 6.38321 2.09753 0
M  V30 4502 N 416.824 -0.551391 1.4764 0
M  V30 4503 C 418.072 -1.30572 1.54258 0
M  V30 4504 C 418.393 -1.93877 0.208963 0
M  V30 4505 O 417.663 -1.80234 -0.767619 0
M  V30 4506 H 416.243 -0.484894 0.568231 0
M  V30 4507 H 418.905 -0.643402 1.83974 0
M  V30 4508 H 418.001 -2.09621 2.31226 0
M  V30 4509 N 418.302 -1.35869 -0.798587 0
M  V30 4510 C 419.549 -1.29588 -1.55606 0
M  V30 4511 C 419.877 0.127456 -1.94082 0
M  V30 4512 O 419.132 1.09461 -1.62225 0
M  V30 4513 C 419.431 -2.1556 -2.85077 0
M  V30 4514 C 419.097 -3.6424 -2.65781 0
M  V30 4515 C 417.759 -4.04766 -2.60227 0
M  V30 4516 C 420.111 -4.58547 -2.47758 0
M  V30 4517 C 417.439 -5.37753 -2.34603 0
M  V30 4518 C 419.791 -5.91742 -2.23662 0
M  V30 4519 C 418.455 -6.31402 -2.16534 0
M  V30 4520 H 417.725 -0.474197 -0.569402 0
M  V30 4521 H 420.372 -1.67839 -0.922086 0
M  V30 4522 H 418.677 -1.70216 -3.52893 0
M  V30 4523 H 420.374 -2.08031 -3.42818 0
M  V30 4524 H 416.964 -3.32086 -2.70956 0
M  V30 4525 H 421.148 -4.28117 -2.51056 0
M  V30 4526 H 416.404 -5.67474 -2.2756 0
M  V30 4527 H 420.578 -6.6439 -2.08708 0
M  V30 4528 H 418.205 -7.34381 -1.96441 0
M  V30 4529 N 419.78 1.02168 -1.19998 0
M  V30 4530 C 421.028 1.75338 -1.00504 0
M  V30 4531 C 421.349 1.89387 0.464506 0
M  V30 4532 O 420.619 1.43268 1.33608 0
M  V30 4533 H 419.199 0.649564 -0.368885 0
M  V30 4534 H 421.861 1.23205 -1.51018 0
M  V30 4535 H 420.957 2.75892 -1.45912 0
M  V30 4536 N 421.258 1.00505 1.21394 0
M  V30 4537 C 422.188 0.585684 2.26035 0
M  V30 4538 C 423.169 -0.393525 1.65485 0
M  V30 4539 O 424.354 -0.281497 1.92149 0
M  V30 4540 C 421.484 -0.0884283 3.47187 0
M  V30 4541 C 420.438 0.810567 4.20254 0
M  V30 4542 C 419.764 0.00286382 5.347 0
M  V30 4543 C 421.064 2.1132 4.77641 0
M  V30 4544 H 422.758 1.46039 2.61368 0
M  V30 4545 H 420.304 0.703648 1.25638 0
M  V30 4546 H 422.257 -0.393286 4.19561 0
M  V30 4547 H 420.981 -0.997766 3.10986 0
M  V30 4548 H 419.64 1.09925 3.49731 0
M  V30 4549 H 419.288 -0.907765 4.94741 0
M  V30 4550 H 418.988 0.601444 5.84514 0
M  V30 4551 H 420.512 -0.295808 6.09883 0
M  V30 4552 H 421.926 1.87148 5.41893 0
M  V30 4553 H 420.323 2.66164 5.37845 0
M  V30 4554 H 421.393 2.78393 3.9702 0
M  V30 4555 N 422.737 -1.36956 0.779787 0
M  V30 4556 C 423.7 -2.2851 0.177662 0
M  V30 4557 C 424.7 -1.48393 -0.619377 0
M  V30 4558 O 425.89 -1.68505 -0.441785 0
M  V30 4559 C 423.022 -3.32428 -0.755279 0
M  V30 4560 H 424.215 -2.83269 0.984823 0
M  V30 4561 H 421.768 -1.46358 0.548544 0
M  V30 4562 H 422.503 -2.82808 -1.58714 0
M  V30 4563 H 422.288 -3.91659 -0.185817 0
M  V30 4564 H 423.778 -4.00824 -1.17174 0
M  V30 4565 N 424.215 -0.530993 -1.48385 0
M  V30 4566 C 425.44 0.000729535 -2.074 0
M  V30 4567 C 425.865 1.27298 -1.3848 0
M  V30 4568 O 425.223 1.75599 -0.451081 0
M  V30 4569 C 425.271 0.206697 -3.60007 0
M  V30 4570 O 424.375 1.27514 -3.92191 0
M  V30 4571 H 423.716 -0.039583 -0.662819 0
M  V30 4572 H 426.246 -0.739194 -1.9078 0
M  V30 4573 H 426.256 0.42904 -4.05738 0
M  V30 4574 H 424.931 -0.722675 -4.09573 0
M  V30 4575 H 423.508 1.03537 -3.58238 0
M  V30 4576 N 425.693 1.55336 -0.266172 0
M  V30 4577 C 426.625 2.19544 0.658247 0
M  V30 4578 C 427.638 1.17746 1.12427 0
M  V30 4579 O 428.827 1.44517 1.04772 0
M  V30 4580 C 425.927 2.80032 1.9088 0
M  V30 4581 C 425.1 4.07436 1.59106 0
M  V30 4582 C 424.159 4.52056 2.69317 0
M  V30 4583 O 423.185 5.18023 2.35883 0
M  V30 4584 N 424.387 4.21448 3.99201 0
M  V30 4585 H 427.152 2.99503 0.108754 0
M  V30 4586 H 424.713 1.61667 -0.0869059 0
M  V30 4587 H 426.705 3.06831 2.63888 0
M  V30 4588 H 425.275 2.04119 2.36758 0
M  V30 4589 H 424.495 3.88021 0.695243 0
M  V30 4590 H 425.783 4.90462 1.35367 0
M  V30 4591 H 425.181 3.68528 4.29189 0
M  V30 4592 H 423.738 4.53039 4.68614 0
M  V30 4593 N 427.171 -0.0066808 1.57599 0
M  V30 4594 C 428.401 -0.703066 1.94269 0
M  V30 4595 C 428.809 -1.68206 0.866222 0
M  V30 4596 O 428.152 -1.82966 -0.164087 0
M  V30 4597 C 428.214 -1.49616 3.26887 0
M  V30 4598 C 427.878 -0.679494 4.5192 0
M  V30 4599 C 428.875 0.0299508 5.19891 0
M  V30 4600 C 426.56 -0.627433 4.98366 0
M  V30 4601 C 428.554 0.780514 6.32603 0
M  V30 4602 C 426.241 0.126861 6.10968 0
M  V30 4603 C 427.239 0.829574 6.77943 0
M  V30 4604 O 426.927 1.57157 7.88389 0
M  V30 4605 H 426.659 -0.201217 0.645359 0
M  V30 4606 H 429.213 0.0385326 2.05364 0
M  V30 4607 H 427.443 -2.28209 3.12182 0
M  V30 4608 H 429.132 -2.07726 3.48719 0
M  V30 4609 H 429.898 -0.00115963 4.85 0
M  V30 4610 H 425.777 -1.16392 4.46065 0
M  V30 4611 H 429.321 1.32954 6.84813 0
M  V30 4612 H 425.218 0.159815 6.45302 0
M  V30 4613 H 425.986 1.48758 8.04868 0
M  V30 4614 N 428.649 -1.55105 -0.279332 0
M  V30 4615 C 429.896 -1.75412 -1.01177 0
M  V30 4616 C 430.224 -0.551728 -1.86511 0
M  V30 4617 O 429.479 0.465919 -1.90073 0
M  V30 4618 C 429.778 -3.0086 -1.92919 0
M  V30 4619 C 429.444 -4.33689 -1.23387 0
M  V30 4620 C 428.106 -4.69792 -1.04159 0
M  V30 4621 C 430.458 -5.15941 -0.738562 0
M  V30 4622 C 427.786 -5.85707 -0.341166 0
M  V30 4623 C 430.138 -6.32579 -0.0517636 0
M  V30 4624 C 428.802 -6.67326 0.152292 0
M  V30 4625 H 428.072 -0.641879 -0.370233 0
M  V30 4626 H 430.719 -1.89373 -0.284627 0
M  V30 4627 H 429.024 -2.81773 -2.72234 0
M  V30 4628 H 430.721 -3.13768 -2.49701 0
M  V30 4629 H 427.311 -4.05309 -1.39364 0
M  V30 4630 H 431.495 -4.8853 -0.874764 0
M  V30 4631 H 426.751 -6.11157 -0.172287 0
M  V30 4632 H 430.925 -6.9557 0.339828 0
M  V30 4633 H 428.552 -7.56998 0.697014 0
M  V30 4634 N 430.127 0.543554 -1.4793 0
M  V30 4635 C 431.374 1.30008 -1.55255 0
M  V30 4636 C 431.702 1.93245 -0.220612 0
M  V30 4637 O 430.957 1.79141 0.787843 0
M  V30 4638 C 431.256 2.42078 -2.62932 0
M  V30 4639 C 430.922 1.96583 -4.0579 0
M  V30 4640 C 429.584 1.83893 -4.44676 0
M  V30 4641 C 431.936 1.62034 -4.95373 0
M  V30 4642 C 429.264 1.34969 -5.70964 0
M  V30 4643 C 431.616 1.14577 -6.22137 0
M  V30 4644 C 430.28 1.00493 -6.59892 0
M  V30 4645 H 429.55 0.475735 -0.568117 0
M  V30 4646 H 432.197 0.608075 -1.81589 0
M  V30 4647 H 430.502 3.16892 -2.30406 0
M  V30 4648 H 432.199 3.00236 -2.65818 0
M  V30 4649 H 428.789 2.07407 -3.75074 0
M  V30 4650 H 432.973 1.70705 -4.66019 0
M  V30 4651 H 428.229 1.2274 -5.98953 0
M  V30 4652 H 432.403 0.869109 -6.90955 0
M  V30 4653 H 430.03 0.623624 -7.57638 0
M  V30 4654 N 431.605 1.3629 0.791371 0
M  V30 4655 C 432.83 1.33726 1.58531 0
M  V30 4656 C 433.255 -0.0794933 1.87932 0
M  V30 4657 O 432.613 -1.05087 1.47738 0
M  V30 4658 C 432.661 2.16425 2.88431 0
M  V30 4659 O 431.765 1.5554 3.81944 0
M  V30 4660 H 431.106 0.457793 0.480959 0
M  V30 4661 H 433.636 1.79547 0.981031 0
M  V30 4662 H 433.646 2.28933 3.37718 0
M  V30 4663 H 432.321 3.19415 2.66359 0
M  V30 4664 H 430.898 1.51961 3.40532 0
M  V30 4665 N 433.083 -1.0153 1.20538 0
M  V30 4666 C 434.015 -2.10224 0.913155 0
M  V30 4667 C 435.028 -1.62495 -0.0995998 0
M  V30 4668 O 436.217 -1.78014 0.131582 0
M  V30 4669 C 433.317 -3.37111 0.347717 0
M  V30 4670 C 432.49 -4.13971 1.41233 0
M  V30 4671 C 431.549 -5.19158 0.857976 0
M  V30 4672 O 430.575 -5.48 1.53897 0
M  V30 4673 N 431.777 -5.7955 -0.331966 0
M  V30 4674 H 434.542 -2.35879 1.84881 0
M  V30 4675 H 432.103 -1.17931 1.10923 0
M  V30 4676 H 434.095 -4.04683 -0.0373026 0
M  V30 4677 H 432.665 -3.08696 -0.492527 0
M  V30 4678 H 431.885 -3.41351 1.97163 0
M  V30 4679 H 433.173 -4.62103 2.12928 0
M  V30 4680 H 432.571 -5.58455 -0.902478 0
M  V30 4681 H 431.128 -6.48464 -0.65861 0
M  V30 4682 N 434.561 -1.01147 -1.20859 0
M  V30 4683 C 435.972 -0.730205 -1.71828 0
M  V30 4684 C 436.323 0.751662 -1.8123 0
M  V30 4685 O 435.448 1.58686 -1.47132 0
M  V30 4686 C 436.043 -1.31885 -3.12077 0
M  V30 4687 C 434.602 -1.08656 -3.60376 0
M  V30 4688 C 433.749 -1.42769 -2.37723 0
M  V30 4689 H 436.7 -1.18158 -1.05945 0
M  V30 4690 H 436.721 -0.706793 -3.73878 0
M  V30 4691 H 436.233 -2.39737 -3.05201 0
M  V30 4692 H 434.334 -0.0254814 -3.72591 0
M  V30 4693 H 434.447 -1.76301 -4.45483 0
M  V30 4694 H 432.811 -0.846603 -2.40218 0
M  V30 4695 H 433.594 -2.51666 -2.33493 0
M  V30 4696 N 436.039 1.36541 -0.78704 0
M  V30 4697 C 436.969 2.32659 -0.197992 0
M  V30 4698 C 437.95 1.56533 0.665697 0
M  V30 4699 O 439.135 1.84698 0.60001 0
M  V30 4700 C 436.265 3.40778 0.669901 0
M  V30 4701 C 435.219 4.27897 -0.0937039 0
M  V30 4702 C 434.545 5.27163 0.894629 0
M  V30 4703 C 435.845 5.06334 -1.28154 0
M  V30 4704 H 437.539 2.82171 -1.00099 0
M  V30 4705 H 435.085 1.35665 -0.482793 0
M  V30 4706 H 437.038 4.07008 1.09191 0
M  V30 4707 H 435.762 2.89827 1.50558 0
M  V30 4708 H 434.421 3.6322 -0.49666 0
M  V30 4709 H 434.069 4.72486 1.72527 0
M  V30 4710 H 433.769 5.86317 0.388149 0
M  V30 4711 H 435.293 5.96266 1.31525 0
M  V30 4712 H 436.707 5.65617 -0.93541 0
M  V30 4713 H 435.104 5.74888 -1.72115 0
M  V30 4714 H 436.174 4.38114 -2.07807 0
M  V30 4715 N 437.518 0.538854 1.48102 0
M  V30 4716 C 438.481 -0.208395 2.28251 0
M  V30 4717 C 439.481 -0.859656 1.35892 0
M  V30 4718 O 440.671 -0.71834 1.58699 0
M  V30 4719 C 437.803 -1.30252 3.15035 0
M  V30 4720 H 438.996 0.495407 2.9578 0
M  V30 4721 H 436.549 0.295112 1.53489 0
M  V30 4722 H 437.284 -2.0393 2.52157 0
M  V30 4723 H 437.069 -0.840551 3.82985 0
M  V30 4724 H 438.559 -1.82787 3.75471 0
M  V30 4725 N 438.996 -1.55193 0.274407 0
M  V30 4726 C 439.906 -2.26164 -0.623473 0
M  V30 4727 C 440.922 -1.28729 -1.17068 0
M  V30 4728 O 442.098 -1.61663 -1.20112 0
M  V30 4729 C 439.163 -2.96833 -1.7914 0
M  V30 4730 C 438.224 -4.09745 -1.28093 0
M  V30 4731 C 437.457 -4.77034 -2.3932 0
M  V30 4732 O 437.68 -4.4353 -3.5866 0
M  V30 4733 O 436.614 -5.64996 -2.07516 0
M  V30 4734 H 440.44 -3.03661 -0.0485661 0
M  V30 4735 H 438.025 -1.49341 0.0418382 0
M  V30 4736 H 439.907 -3.41248 -2.4724 0
M  V30 4737 H 438.582 -2.22253 -2.35341 0
M  V30 4738 H 437.489 -3.69787 -0.566416 0
M  V30 4739 H 438.822 -4.86224 -0.764683 0
M  V30 4740 N 440.474 -0.00167713 -1.576 0
M  V30 4741 C 441.404 0.988091 -2.11563 0
M  V30 4742 C 442.385 1.35736 -1.02517 0
M  V30 4743 O 443.57 1.44082 -1.30208 0
M  V30 4744 C 440.7 2.27941 -2.62031 0
M  V30 4745 C 439.654 2.0517 -3.75619 0
M  V30 4746 C 438.98 3.4033 -4.12407 0
M  V30 4747 C 440.28 1.41294 -5.02825 0
M  V30 4748 H 441.974 0.538771 -2.94513 0
M  V30 4749 H 439.52 0.257712 -1.41675 0
M  V30 4750 H 441.473 2.97539 -2.9841 0
M  V30 4751 H 440.197 2.74989 -1.76205 0
M  V30 4752 H 438.856 1.37998 -3.39635 0
M  V30 4753 H 438.504 3.85085 -3.23603 0
M  V30 4754 H 438.204 3.25909 -4.88935 0
M  V30 4755 H 439.728 4.1124 -4.51347 0
M  V30 4756 H 441.142 2.00851 -5.36965 0
M  V30 4757 H 439.539 1.37356 -5.84169 0
M  V30 4758 H 440.609 0.382362 -4.8339 0
M  V30 4759 N 441.952 1.55251 0.271103 0
M  V30 4760 C 442.899 1.88261 1.33516 0
M  V30 4761 C 443.869 0.734296 1.48988 0
M  V30 4762 O 445.054 0.985741 1.63364 0
M  V30 4763 C 442.194 2.16168 2.69008 0
M  V30 4764 C 441.307 3.43678 2.61743 0
M  V30 4765 C 440.442 3.61276 3.89427 0
M  V30 4766 C 439.481 4.82472 3.7668 0
M  V30 4767 N 438.618 4.96717 4.96202 0
M  V30 4768 H 443.458 2.79015 1.04665 0
M  V30 4769 H 440.995 1.38137 0.505618 0
M  V30 4770 H 442.953 2.30349 3.47844 0
M  V30 4771 H 441.583 1.28646 2.96057 0
M  V30 4772 H 440.635 3.37959 1.74607 0
M  V30 4773 H 441.947 4.3265 2.48224 0
M  V30 4774 H 441.101 3.75284 4.76704 0
M  V30 4775 H 439.84 2.70492 4.05814 0
M  V30 4776 H 438.845 4.68465 2.87786 0
M  V30 4777 H 440.07 5.74692 3.61809 0
M  V30 4778 H 438.016 4.08865 5.12997 0
M  V30 4779 H 437.933 5.79738 4.85222 0
M  V30 4780 H 439.201 5.15113 5.85046 0
M  V30 4781 N 443.43 -0.535701 1.48216 0
M  V30 4782 C 444.36 -1.65014 1.65204 0
M  V30 4783 C 445.341 -1.62554 0.501011 0
M  V30 4784 O 446.526 -1.7984 0.732886 0
M  V30 4785 C 443.656 -3.03616 1.68626 0
M  V30 4786 C 442.61 -3.20932 2.83172 0
M  V30 4787 C 441.936 -4.60537 2.71679 0
M  V30 4788 C 443.236 -3.04249 4.24535 0
M  V30 4789 H 444.93 -1.51053 2.58502 0
M  V30 4790 H 442.476 -0.725262 1.24402 0
M  V30 4791 H 444.429 -3.81446 1.79099 0
M  V30 4792 H 443.153 -3.18587 0.719026 0
M  V30 4793 H 441.812 -2.45517 2.72244 0
M  V30 4794 H 441.46 -4.72336 1.72937 0
M  V30 4795 H 441.16 -4.73069 3.48538 0
M  V30 4796 H 442.684 -5.40475 2.84112 0
M  V30 4797 H 444.098 -3.71877 4.36326 0
M  V30 4798 H 442.495 -3.28278 5.02348 0
M  V30 4799 H 443.565 -2.00739 4.41397 0
M  V30 4800 N 444.908 -1.36708 -0.784132 0
M  V30 4801 C 446.185 -1.21776 -1.53069 0
M  V30 4802 C 446.565 0.193876 -2.10208 0
M  V30 4803 O 445.913 1.20012 -1.94446 0
M  V30 4804 C 446.123 -2.30395 -2.62143 0
M  V30 4805 C 447.471 -2.67325 -3.29882 0
M  V30 4806 O 448.495 -2.29478 -2.7243 0
M  V30 4807 O 447.354 -3.32485 -4.33724 0
M  V30 4808 H 444.448 -0.474459 -0.677361 0
M  V30 4809 H 446.994 -1.48454 -0.82216 0
M  V30 4810 H 445.766 -3.2498 -2.17953 0
M  V30 4811 H 445.389 -2.05112 -3.40609 0
M  V30 4812 N 446.386 1.0089 -1.21074 0
M  V30 4813 C 447.318 2.09737 -0.924291 0
M  V30 4814 C 448.331 1.62546 0.0909809 0
M  V30 4815 O 449.52 1.77942 -0.141021 0
M  V30 4816 C 446.62 3.36922 -0.36559 0
M  V30 4817 C 445.793 4.13216 -1.43426 0
M  V30 4818 C 444.852 5.18696 -0.885496 0
M  V30 4819 O 443.878 5.47176 -1.56801 0
M  V30 4820 N 445.08 5.79718 0.301227 0
M  V30 4821 H 447.845 2.34895 -1.8613 0
M  V30 4822 H 445.406 1.17341 -1.11546 0
M  V30 4823 H 447.398 4.04697 0.0158407 0
M  V30 4824 H 445.968 3.08952 0.476149 0
M  V30 4825 H 445.188 3.40301 -1.9897 0
M  V30 4826 H 446.476 4.60967 -2.15376 0
M  V30 4827 H 445.874 5.58926 0.872849 0
M  V30 4828 H 444.431 6.48804 0.624211 0
M  V30 4829 N 447.864 1.01787 1.20321 0
M  V30 4830 C 449.11 0.708985 1.90003 0
M  V30 4831 C 449.443 -0.759572 1.78729 0
M  V30 4832 O 448.718 -1.55198 1.17234 0
M  V30 4833 C 449.001 1.1469 3.41348 0
M  V30 4834 C 448.854 2.67586 3.61549 0
M  V30 4835 C 450.173 0.71915 4.34185 0
M  V30 4836 H 447.292 0.259034 0.689978 0
M  V30 4837 H 449.934 1.26584 1.41692 0
M  V30 4838 H 448.084 0.673128 3.82624 0
M  V30 4839 H 449.756 3.22826 3.29517 0
M  V30 4840 H 447.999 3.085 3.04976 0
M  V30 4841 H 448.67 2.93281 4.67643 0
M  V30 4842 H 451.146 1.12647 4.00562 0
M  V30 4843 H 450.022 1.05358 5.38694 0
M  V30 4844 H 450.283 -0.379111 4.40472 0
M  V30 4845 N 449.342 -1.36122 0.79427 0
M  V30 4846 C 450.305 -2.28309 0.201889 0
M  V30 4847 C 451.305 -1.49041 -0.603603 0
M  V30 4848 O 452.495 -1.68964 -0.423888 0
M  V30 4849 C 449.627 -3.3321 -0.719978 0
M  V30 4850 H 450.82 -2.82208 1.01481 0
M  V30 4851 H 448.373 -1.45768 0.564037 0
M  V30 4852 H 449.108 -2.84475 -1.55706 0
M  V30 4853 H 448.893 -3.91835 -0.144266 0
M  V30 4854 H 450.383 -4.02044 -1.12916 0
M  V30 4855 N 450.82 -0.546701 -1.47814 0
M  V30 4856 C 451.75 0.195317 -2.32682 0
M  V30 4857 C 452.731 0.918981 -1.43139 0
M  V30 4858 O 453.916 0.901501 -1.72008 0
M  V30 4859 C 451.046 1.23237 -3.247 0
M  V30 4860 C 450 0.625818 -4.234 0
M  V30 4861 C 449.326 1.76674 -5.04669 0
M  V30 4862 C 450.626 -0.413515 -5.2066 0
M  V30 4863 H 452.32 -0.513184 -2.94969 0
M  V30 4864 H 449.866 -0.248241 -1.41844 0
M  V30 4865 H 451.819 1.75955 -3.82907 0
M  V30 4866 H 450.543 1.97067 -2.60446 0
M  V30 4867 H 449.202 0.120023 -3.66403 0
M  V30 4868 H 448.85 2.49383 -4.36826 0
M  V30 4869 H 448.55 1.36673 -5.71484 0
M  V30 4870 H 450.074 2.29738 -5.65732 0
M  V30 4871 H 451.488 0.0272042 -5.73294 0
M  V30 4872 H 449.885 -0.731825 -5.95621 0
M  V30 4873 H 450.955 -1.31325 -4.66778 0
M  V30 4874 N 452.299 1.55045 -0.282633 0
M  V30 4875 C 453.229 2.2579 0.595066 0
M  V30 4876 C 454.21 1.25074 1.15284 0
M  V30 4877 O 455.395 1.5381 1.18559 0
M  V30 4878 C 452.525 2.98472 1.77572 0
M  V30 4879 C 451.479 4.0618 1.34914 0
M  V30 4880 C 450.805 4.66477 2.6135 0
M  V30 4881 C 452.105 5.1996 0.493821 0
M  V30 4882 H 453.799 2.994 0.00505653 0
M  V30 4883 H 451.345 1.44 0.000992001 0
M  V30 4884 H 453.298 3.46677 2.39568 0
M  V30 4885 H 452.022 2.2241 2.39168 0
M  V30 4886 H 450.681 3.58797 0.752338 0
M  V30 4887 H 450.329 3.87074 3.2122 0
M  V30 4888 H 450.029 5.39207 2.33516 0
M  V30 4889 H 451.553 5.17435 3.24181 0
M  V30 4890 H 452.967 5.64172 1.01898 0
M  V30 4891 H 451.364 5.99299 0.310047 0
M  V30 4892 H 452.434 4.82462 -0.485593 0
M  V30 4893 N 453.777 0.010035 1.57597 0
M  V30 4894 C 455.023 -0.673697 1.91283 0
M  V30 4895 C 455.356 -1.72863 0.884979 0
M  V30 4896 O 454.631 -1.94268 -0.0949487 0
M  V30 4897 C 454.914 -1.30766 3.35518 0
M  V30 4898 C 454.767 -0.263578 4.49027 0
M  V30 4899 C 456.086 -2.23105 3.79358 0
M  V30 4900 H 453.205 -0.243439 0.695634 0
M  V30 4901 H 455.847 0.0633864 1.89894 0
M  V30 4902 H 453.997 -1.93588 3.36832 0
M  V30 4903 H 455.669 0.365738 4.59848 0
M  V30 4904 H 453.912 0.413077 4.31829 0
M  V30 4905 H 454.583 -0.746398 5.4693 0
M  V30 4906 H 457.059 -1.70289 3.79659 0
M  V30 4907 H 455.935 -2.64424 4.81011 0
M  V30 4908 H 456.196 -3.11433 3.13787 0
M  V30 4909 N 455.255 -1.55392 -0.262866 0
M  V30 4910 C 456.503 -1.76127 -0.991147 0
M  V30 4911 C 456.824 -0.571083 -1.8645 0
M  V30 4912 O 456.094 0.413698 -1.91482 0
M  V30 4913 H 454.674 -0.649528 -0.368948 0
M  V30 4914 H 457.336 -1.9281 -0.284655 0
M  V30 4915 H 456.432 -2.6663 -1.62219 0
M  V30 4916 N 456.733 0.527833 -1.48498 0
M  V30 4917 C 457.666 1.64892 -1.57753 0
M  V30 4918 C 458.644 1.5687 -0.427867 0
M  V30 4919 O 459.828 1.77311 -0.639764 0
M  V30 4920 C 456.955 3.03301 -1.50752 0
M  V30 4921 C 456.001 3.29675 -2.70586 0
M  V30 4922 S 456.834 3.15712 -4.32535 0
M  V30 4923 C 457.99 4.56564 -4.28136 0
M  V30 4924 H 458.223 1.56792 -2.52594 0
M  V30 4925 H 455.756 0.710959 -1.37057 0
M  V30 4926 H 457.714 3.83123 -1.474 0
M  V30 4927 H 456.375 3.08839 -0.572454 0
M  V30 4928 H 455.568 4.3065 -2.61833 0
M  V30 4929 H 455.17 2.57526 -2.71212 0
M  V30 4930 H 457.462 5.48126 -3.98201 0
M  V30 4931 H 458.405 4.70371 -5.29298 0
M  V30 4932 H 458.813 4.35987 -3.58574 0
M  V30 4933 N 458.211 1.37122 0.776871 0
M  V30 4934 C 459.457 1.32243 1.53752 0
M  V30 4935 C 459.79 -0.0944745 1.9397 0
M  V30 4936 O 459.065 -1.05068 1.6368 0
M  V30 4937 C 459.348 2.25681 2.80607 0
M  V30 4938 C 459.201 3.76127 2.46676 0
M  V30 4939 C 460.52 2.17657 3.82509 0
M  V30 4940 H 457.639 0.481704 0.557791 0
M  V30 4941 H 460.281 1.6778 0.891612 0
M  V30 4942 H 458.431 1.95505 3.35723 0
M  V30 4943 H 460.103 4.16877 1.97513 0
M  V30 4944 H 458.346 3.94946 1.79443 0
M  V30 4945 H 459.017 4.36933 3.37333 0
M  V30 4946 H 461.493 2.44245 3.36873 0
M  V30 4947 H 460.369 2.85185 4.69 0
M  V30 4948 H 460.63 1.16785 4.26396 0
M  V30 4949 N 459.689 -1.00246 1.21608 0
M  V30 4950 C 460.636 -2.09073 0.977613 0
M  V30 4951 C 461.606 -1.65815 -0.097297 0
M  V30 4952 O 462.791 -1.90734 0.0503445 0
M  V30 4953 C 459.931 -3.40671 0.551133 0
M  V30 4954 C 459.044 -3.97326 1.69576 0
M  V30 4955 C 458.179 -5.17043 1.2182 0
M  V30 4956 C 457.218 -5.65813 2.335 0
M  V30 4957 N 456.355 -6.76778 1.86859 0
M  V30 4958 H 461.195 -2.28806 1.90924 0
M  V30 4959 H 458.732 -1.12186 0.951452 0
M  V30 4960 H 460.69 -4.16225 0.285097 0
M  V30 4961 H 459.32 -3.20967 -0.343489 0
M  V30 4962 H 458.372 -3.18734 2.07637 0
M  V30 4963 H 459.684 -4.29511 2.53617 0
M  V30 4964 H 458.838 -5.99852 0.908975 0
M  V30 4965 H 457.577 -4.86458 0.347869 0
M  V30 4966 H 456.582 -4.81599 2.65222 0
M  V30 4967 H 457.807 -5.98427 3.21033 0
M  V30 4968 H 455.753 -6.47994 1.02174 0
M  V30 4969 H 455.67 -7.08231 2.64471 0
M  V30 4970 H 456.938 -7.63116 1.58978 0
M  V30 4971 N 461.167 -1.02423 -1.1978 0
M  V30 4972 C 462.415 -0.716569 -1.8897 0
M  V30 4973 C 462.736 0.756769 -1.79716 0
M  V30 4974 O 462.006 1.5449 -1.20456 0
M  V30 4975 H 460.586 -0.262062 -0.699523 0
M  V30 4976 H 463.248 -1.29747 -1.45436 0
M  V30 4977 H 462.344 -1.00675 -2.95417 0
M  V30 4978 N 462.645 1.35699 -0.801477 0
M  V30 4979 C 464.056 1.81415 -0.441073 0
M  V30 4980 C 464.407 1.66595 1.03636 0
M  V30 4981 O 463.532 1.19369 1.80499 0
M  V30 4982 C 464.127 3.29369 -0.793819 0
M  V30 4983 C 462.686 3.73248 -0.486083 0
M  V30 4984 C 461.833 2.57775 -1.02213 0
M  V30 4985 H 464.784 1.23749 -0.993572 0
M  V30 4986 H 464.805 3.80395 -0.0894158 0
M  V30 4987 H 464.317 3.40123 -1.86917 0
M  V30 4988 H 462.418 3.68046 0.580735 0
M  V30 4989 H 462.531 4.68222 -1.01513 0
M  V30 4990 H 460.895 2.50788 -0.444712 0
M  V30 4991 H 461.678 2.71309 -2.10348 0
M  V30 4992 N 464.123 0.554532 1.47522 0
M  V30 4993 C 465.348 0.0322661 2.07375 0
M  V30 4994 C 465.773 -1.25079 1.40488 0
M  V30 4995 O 465.131 -1.74859 0.47896 0
M  V30 4996 C 465.179 -0.149397 3.6029 0
M  V30 4997 O 464.283 -1.21259 3.9417 0
M  V30 4998 H 463.624 0.0501228 0.662106 0
M  V30 4999 H 466.154 0.769452 1.8958 0
M  V30 5000 H 466.164 -0.364437 4.06369 0
M  V30 5001 H 464.839 0.787743 4.08372 0
M  V30 5002 H 463.416 -0.97825 3.5984 0
M  V30 5003 N 465.601 -1.54893 0.290851 0
M  V30 5004 C 466.831 -2.04047 -0.323818 0
M  V30 5005 C 467.239 -1.16809 -1.48837 0
M  V30 5006 O 466.582 -0.184145 -1.82775 0
M  V30 5007 C 466.644 -3.49248 -0.852395 0
M  V30 5008 C 466.308 -4.56623 0.185557 0
M  V30 5009 C 467.305 -5.09985 1.01053 0
M  V30 5010 C 464.99 -5.01252 0.324332 0
M  V30 5011 C 466.984 -6.06507 1.96031 0
M  V30 5012 C 464.671 -5.97596 1.27757 0
M  V30 5013 C 465.669 -6.50107 2.09405 0
M  V30 5014 O 465.357 -7.44565 3.03114 0
M  V30 5015 H 465.089 -0.671735 -0.0758129 0
M  V30 5016 H 467.643 -2.00947 0.425393 0
M  V30 5017 H 465.873 -3.49639 -1.65195 0
M  V30 5018 H 467.562 -3.81654 -1.38185 0
M  V30 5019 H 468.328 -4.76307 0.914129 0
M  V30 5020 H 464.207 -4.60015 -0.301213 0
M  V30 5021 H 467.751 -6.47418 2.598 0
M  V30 5022 H 463.648 -6.30691 1.37473 0
M  V30 5023 H 464.416 -7.62334 2.97976 0
M  V30 5024 N 467.08 -0.0183926 -1.57589 0
M  V30 5025 C 468.327 0.662562 -1.91354 0
M  V30 5026 C 468.655 1.72747 -0.893788 0
M  V30 5027 O 467.91 1.9545 0.0988509 0
M  V30 5028 C 468.209 1.32676 -3.31861 0
M  V30 5029 C 467.875 0.393267 -4.49182 0
M  V30 5030 C 466.537 0.136302 -4.81007 0
M  V30 5031 C 468.889 -0.248366 -5.20608 0
M  V30 5032 C 466.217 -0.770282 -5.81621 0
M  V30 5033 C 468.569 -1.14294 -6.22189 0
M  V30 5034 C 467.233 -1.4089 -6.52462 0
M  V30 5035 H 466.503 0.242448 -0.700214 0
M  V30 5036 H 469.15 -0.0778629 -1.91342 0
M  V30 5037 H 467.455 2.14168 -3.28084 0
M  V30 5038 H 469.152 1.86001 -3.55253 0
M  V30 5039 H 465.742 0.603723 -4.24327 0
M  V30 5040 H 469.926 -0.062883 -4.9626 0
M  V30 5041 H 465.182 -0.984154 -6.03427 0
M  V30 5042 H 469.356 -1.64637 -6.76659 0
M  V30 5043 H 466.983 -2.11306 -7.30242 0
M  V30 5044 N 468.558 1.5553 0.254621 0
M  V30 5045 C 469.506 1.9048 1.33492 0
M  V30 5046 C 470.5 0.78304 1.50216 0
M  V30 5047 O 471.706 0.967582 1.51782 0
M  V30 5048 H 468.081 0.604846 0.44684 0
M  V30 5049 H 470.052 2.80688 1.01275 0
M  V30 5050 C 468.801 2.20928 2.68489 0
M  V30 5051 H 468.124 3.06742 2.56417 0
M  V30 5052 H 469.564 2.49291 3.42972 0
M  V30 5053 C 468.023 1.023 3.20993 0
M  V30 5054 O 468.553 0.267027 4.00811 0
M  V30 5055 N 466.759 0.815714 2.78917 0
M  V30 5056 H 466.306 1.43217 2.14119 0
M  V30 5057 H 466.264 0.0236532 3.14391 0
M  V30 5058 N 470.036 -0.519951 1.48776 0
M  V30 5059 C 471.447 -1.10177 1.50725 0
M  V30 5060 C 471.798 -1.94153 0.282678 0
M  V30 5061 O 470.923 -2.07645 -0.609298 0
M  V30 5062 C 471.518 -2.00482 2.73116 0
M  V30 5063 C 470.077 -2.53862 2.77905 0
M  V30 5064 C 469.224 -1.31047 2.44381 0
M  V30 5065 H 472.175 -0.30473 1.55747 0
M  V30 5066 H 472.196 -2.8491 2.52203 0
M  V30 5067 H 471.708 -1.39335 3.62225 0
M  V30 5068 H 469.809 -3.18702 1.93029 0
M  V30 5069 H 469.922 -2.9231 3.79594 0
M  V30 5070 H 468.286 -1.62953 1.95751 0
M  V30 5071 H 469.069 -0.71637 3.35743 0
M  V30 5072 N 471.514 -1.37532 -0.769588 0
M  V30 5073 C 472.93 -1.18379 -1.07045 0
M  V30 5074 C 473.13 -0.0214312 -2.01489 0
M  V30 5075 O 472.186 0.637809 -2.44312 0
M  V30 5076 C 473.499 -2.50338 -1.66588 0
M  V30 5077 C 475.047 -2.56879 -1.78835 0
M  V30 5078 C 475.522 -3.88974 -2.41792 0
M  V30 5079 N 477.013 -3.90428 -2.4924 0
M  V30 5080 C 477.748 -4.89388 -2.98809 0
M  V30 5081 N 477.244 -5.98745 -3.48535 0
M  V30 5082 N 479.037 -4.76791 -2.97703 0
M  V30 5083 H 471.188 -2.11921 -0.142541 0
M  V30 5084 H 473.451 -0.939608 -0.125863 0
M  V30 5085 H 473.157 -3.35767 -1.0466 0
M  V30 5086 H 473.031 -2.67583 -2.65856 0
M  V30 5087 H 475.418 -1.71856 -2.39895 0
M  V30 5088 H 475.499 -2.43516 -0.783166 0
M  V30 5089 H 475.143 -4.74412 -1.81371 0
M  V30 5090 H 475.073 -3.99641 -3.4292 0
M  V30 5091 H 477.564 -3.11433 -2.14052 0
M  V30 5092 H 477.877 -6.70205 -3.84767 0
M  V30 5093 H 476.222 -6.02387 -3.46634 0
M  V30 5094 H 479.413 -3.90478 -2.58157 0
M  V30 5095 H 479.586 -5.54069 -3.36024 0
M  V30 5096 N 472.992 0.995999 -1.22138 0
M  V30 5097 C 474.408 1.25917 -0.980667 0
M  V30 5098 C 474.608 1.98819 0.327604 0
M  V30 5099 O 473.664 2.29587 1.05101 0
M  V30 5100 C 474.977 2.07399 -2.17729 0
M  V30 5101 C 476.525 2.20594 -2.22052 0
M  V30 5102 C 477 3.05462 -3.41258 0
M  V30 5103 N 478.491 3.13049 -3.41401 0
M  V30 5104 C 479.226 3.78997 -4.30289 0
M  V30 5105 N 478.722 4.46899 -5.2939 0
M  V30 5106 N 480.515 3.75728 -4.18073 0
M  V30 5107 H 472.666 0.507158 -2.06256 0
M  V30 5108 H 474.929 0.28658 -0.903646 0
M  V30 5109 H 474.635 1.61191 -3.12586 0
M  V30 5110 H 474.509 3.08154 -2.17534 0
M  V30 5111 H 476.896 2.66017 -1.27745 0
M  V30 5112 H 476.977 1.1928 -2.26287 0
M  V30 5113 H 476.621 2.60739 -4.35864 0
M  V30 5114 H 476.551 4.06911 -3.34262 0
M  V30 5115 H 479.042 2.64721 -2.69688 0
M  V30 5116 H 479.355 4.94952 -5.935 0
M  V30 5117 H 477.7 4.45657 -5.33306 0
M  V30 5118 H 480.891 3.2184 -3.39907 0
M  V30 5119 H 481.064 4.26845 -4.87553 0
M  V30 5120 N 474.47 1.03057 1.19235 0
M  V30 5121 C 475.7 0.746613 1.92638 0
M  V30 5122 C 476.108 -0.698708 1.75826 0
M  V30 5123 O 475.451 -1.487 1.07861 0
M  V30 5124 C 475.513 1.02024 3.44719 0
M  V30 5125 C 475.177 2.45745 3.85303 0
M  V30 5126 C 476.174 3.43887 3.8992 0
M  V30 5127 C 473.859 2.8019 4.16892 0
M  V30 5128 C 475.853 4.74529 4.2556 0
M  V30 5129 C 473.54 4.1104 4.52205 0
M  V30 5130 C 474.538 5.0802 4.56513 0
M  V30 5131 O 474.226 6.36527 4.91008 0
M  V30 5132 H 473.958 0.272401 0.618687 0
M  V30 5133 H 476.512 1.37853 1.52269 0
M  V30 5134 H 474.742 0.331184 3.85279 0
M  V30 5135 H 476.431 0.725677 3.9936 0
M  V30 5136 H 477.197 3.18614 3.65664 0
M  V30 5137 H 473.076 2.05382 4.12722 0
M  V30 5138 H 476.62 5.50222 4.28838 0
M  V30 5139 H 472.517 4.36086 4.7592 0
M  V30 5140 H 473.285 6.41025 5.08949 0
M  V30 5141 N 475.948 -1.35272 0.808662 0
M  V30 5142 C 477.359 -1.81179 0.450688 0
M  V30 5143 C 477.71 -1.67143 -1.02751 0
M  V30 5144 O 476.835 -1.20325 -1.79864 0
M  V30 5145 C 477.43 -3.28943 0.811275 0
M  V30 5146 C 475.989 -3.72985 0.505871 0
M  V30 5147 C 475.136 -2.57229 1.03578 0
M  V30 5148 H 478.087 -1.2322 1.00012 0
M  V30 5149 H 478.108 -3.80342 0.109588 0
M  V30 5150 H 477.62 -3.39127 1.88718 0
M  V30 5151 H 475.721 -3.68349 -0.561209 0
M  V30 5152 H 475.834 -4.67677 1.03995 0
M  V30 5153 H 474.198 -2.50548 0.458005 0
M  V30 5154 H 474.981 -2.7019 2.11784 0
M  V30 5155 N 477.426 -0.562348 -1.47226 0
M  V30 5156 C 478.703 0.0256985 -1.95583 0
M  V30 5157 C 479.083 1.48032 -1.50498 0
M  V30 5158 O 478.431 2.15973 -0.746181 0
M  V30 5159 C 478.641 -0.125129 -3.48776 0
M  V30 5160 C 479.989 0.0175728 -4.24596 0
M  V30 5161 O 481.013 -0.0529341 -3.56161 0
M  V30 5162 O 479.872 0.170145 -5.46235 0
M  V30 5163 H 476.966 0.0612565 -0.824728 0
M  V30 5164 H 479.512 -0.629233 -1.57603 0
M  V30 5165 H 478.284 -1.13715 -3.74412 0
M  V30 5166 H 477.907 0.567178 -3.93534 0
M  V30 5167 N 478.904 1.54736 -0.299062 0
M  V30 5168 C 480.32 1.59507 0.0543849 0
M  V30 5169 C 480.52 1.31606 1.52585 0
M  V30 5170 O 479.576 1.08853 2.27832 0
M  V30 5171 C 480.889 2.98751 -0.34181 0
M  V30 5172 C 482.437 3.1165 -0.290414 0
M  V30 5173 C 482.912 4.53199 -0.661402 0
M  V30 5174 N 484.403 4.59114 -0.613863 0
M  V30 5175 C 485.138 5.66709 -0.873417 0
M  V30 5176 N 484.634 6.82349 -1.19884 0
M  V30 5177 N 486.427 5.56369 -0.800608 0
M  V30 5178 H 478.578 1.71133 -1.25806 0
M  V30 5179 H 480.841 0.799186 -0.509908 0
M  V30 5180 H 480.547 3.24085 -1.36608 0
M  V30 5181 H 480.421 3.75961 0.305508 0
M  V30 5182 H 482.808 2.86066 0.724605 0
M  V30 5183 H 482.889 2.366 -0.972327 0
M  V30 5184 H 482.533 4.79513 -1.67422 0
M  V30 5185 H 482.463 5.26583 0.0425612 0
M  V30 5186 H 484.954 3.76053 -0.3732 0
M  V30 5187 H 485.267 7.60326 -1.38291 0
M  V30 5188 H 483.612 6.83906 -1.23685 0
M  V30 5189 H 486.803 4.64904 -0.546045 0
M  V30 5190 H 486.976 6.40139 -1.00626 0
M  V30 5191 N 480.382 0.0267497 1.57577 0
M  V30 5192 C 481.345 -0.940916 2.08996 0
M  V30 5193 C 482.345 -1.25561 1.00455 0
M  V30 5194 O 483.535 -1.19634 1.26623 0
M  V30 5195 C 480.667 -2.25814 2.55384 0
M  V30 5196 H 481.86 -0.495628 2.95776 0
M  V30 5197 H 479.413 -0.221241 1.54726 0
M  V30 5198 H 480.148 -2.74976 1.71926 0
M  V30 5199 H 479.933 -2.04285 3.34679 0
M  V30 5200 H 481.423 -2.95178 2.95398 0
M  V30 5201 N 481.861 -1.55662 -0.24637 0
M  V30 5202 C 482.791 -1.93377 -1.30873 0
M  V30 5203 C 483.772 -0.798773 -1.50179 0
M  V30 5204 O 484.957 -1.0591 -1.62778 0
M  V30 5205 C 482.087 -2.22893 -2.66338 0
M  V30 5206 C 481.041 -3.38649 -2.61727 0
M  V30 5207 C 480.367 -3.53708 -4.00992 0
M  V30 5208 C 481.667 -4.74323 -2.18666 0
M  V30 5209 H 483.361 -2.82363 -0.995552 0
M  V30 5210 H 480.907 -1.35854 -0.477464 0
M  V30 5211 H 482.86 -2.47866 -3.40794 0
M  V30 5212 H 481.584 -1.30733 -2.99293 0
M  V30 5213 H 480.243 -3.13685 -1.89729 0
M  V30 5214 H 479.891 -2.58967 -4.31214 0
M  V30 5215 H 479.591 -4.31551 -3.98795 0
M  V30 5216 H 481.115 -3.81003 -4.77147 0
M  V30 5217 H 482.529 -4.98665 -2.82854 0
M  V30 5218 H 480.926 -5.55273 -2.27579 0
M  V30 5219 H 481.996 -4.71349 -1.13834 0
M  V30 5220 N 483.339 0.512053 -1.4905 0
M  V30 5221 C 484.302 1.59704 -1.64399 0
M  V30 5222 C 485.302 1.52285 -0.516317 0
M  V30 5223 O 486.492 1.55635 -0.782527 0
M  V30 5224 C 483.624 2.9935 -1.63102 0
M  V30 5225 H 484.817 1.47428 -2.61161 0
M  V30 5226 H 482.37 0.735469 -1.37915 0
M  V30 5227 H 483.105 3.17116 -0.678836 0
M  V30 5228 H 482.89 3.06144 -2.44986 0
M  V30 5229 H 484.38 3.782 -1.77072 0
M  V30 5230 N 484.817 1.37938 0.762283 0
M  V30 5231 C 486.233 1.18945 1.06415 0
M  V30 5232 C 486.433 0.0321163 2.01474 0
M  V30 5233 O 485.489 -0.624844 2.44647 0
M  V30 5234 C 486.802 2.51218 1.65258 0
M  V30 5235 C 488.35 2.57824 1.7747 0
M  V30 5236 C 488.825 3.90251 2.39725 0
M  V30 5237 N 490.316 3.91744 2.47166 0
M  V30 5238 C 491.051 4.90966 2.96209 0
M  V30 5239 N 490.547 6.00585 3.45354 0
M  V30 5240 N 492.34 4.78363 2.9517 0
M  V30 5241 H 484.491 2.11994 0.131301 0
M  V30 5242 H 486.754 0.940262 0.120879 0
M  V30 5243 H 486.46 3.36317 1.02878 0
M  V30 5244 H 486.334 2.68989 2.64433 0
M  V30 5245 H 488.721 1.73126 2.3898 0
M  V30 5246 H 488.802 2.43928 0.770241 0
M  V30 5247 H 488.446 4.75368 1.78852 0
M  V30 5248 H 488.376 4.01454 3.40796 0
M  V30 5249 H 490.867 3.12563 2.12397 0
M  V30 5250 H 491.18 6.72236 3.81207 0
M  V30 5251 H 489.525 6.04217 3.43434 0
M  V30 5252 H 492.716 3.91841 2.56082 0
M  V30 5253 H 492.889 5.55843 3.33081 0
M  V30 5254 N 486.295 -0.989507 1.22664 0
M  V30 5255 C 487.711 -1.25395 0.987331 0
M  V30 5256 C 487.911 -1.9899 -0.317056 0
M  V30 5257 O 486.967 -2.30141 -1.03882 0
M  V30 5258 C 488.28 -2.06242 2.18826 0
M  V30 5259 C 489.828 -2.19413 2.23219 0
M  V30 5260 C 490.303 -3.03648 3.42873 0
M  V30 5261 N 491.794 -3.11234 3.43056 0
M  V30 5262 C 492.529 -3.7671 4.32293 0
M  V30 5263 N 492.025 -4.44085 5.31752 0
M  V30 5264 N 493.818 -3.73505 4.2006 0
M  V30 5265 H 485.969 -0.496212 2.06522 0
M  V30 5266 H 488.232 -0.281784 0.905153 0
M  V30 5267 H 487.938 -1.59531 3.13437 0
M  V30 5268 H 487.812 -3.06996 2.19165 0
M  V30 5269 H 490.199 -2.65336 1.29154 0
M  V30 5270 H 490.28 -1.18078 2.26917 0
M  V30 5271 H 489.924 -2.58424 4.37241 0
M  V30 5272 H 489.854 -4.05132 3.36416 0
M  V30 5273 H 492.345 -2.63287 2.71088 0
M  V30 5274 H 492.658 -4.91797 5.96117 0
M  V30 5275 H 491.003 -4.42822 5.35662 0
M  V30 5276 H 494.194 -3.20033 3.41609 0
M  V30 5277 H 494.367 -4.24253 4.8981 0
M  V30 5278 N 487.773 -1.03688 -1.18687 0
M  V30 5279 C 488.721 -0.618292 -2.24232 0
M  V30 5280 C 489.715 0.353045 -1.6568 0
M  V30 5281 O 490.921 0.220749 -1.78641 0
M  V30 5282 H 487.296 -0.181711 -0.729716 0
M  V30 5283 H 489.267 -1.51893 -2.56848 0
M  V30 5284 C 488.016 0.00677342 -3.47699 0
M  V30 5285 H 487.339 -0.731692 -3.93047 0
M  V30 5286 H 488.779 0.262492 -4.23187 0
M  V30 5287 C 487.238 1.25572 -3.12623 0
M  V30 5288 O 487.768 2.34691 -3.26011 0
M  V30 5289 N 485.974 1.14755 -2.66982 0
M  V30 5290 H 485.521 0.259601 -2.56289 0
M  V30 5291 H 485.479 1.98412 -2.43885 0
M  V30 5292 N 489.251 1.34841 -0.815825 0
M  V30 5293 C 490.181 2.32187 -0.247298 0
M  V30 5294 C 491.162 1.5791 0.632344 0
M  V30 5295 O 492.347 1.8593 0.560698 0
M  V30 5296 C 489.477 3.42122 0.597466 0
M  V30 5297 C 488.431 4.27602 -0.184446 0
M  V30 5298 C 487.757 5.28942 0.782609 0
M  V30 5299 C 489.057 5.03502 -1.38865 0
M  V30 5300 H 490.751 2.79985 -1.06061 0
M  V30 5301 H 488.297 1.34611 -0.511461 0
M  V30 5302 H 490.25 4.09232 1.00533 0
M  V30 5303 H 488.974 2.92956 1.44376 0
M  V30 5304 H 487.633 3.62085 -0.573592 0
M  V30 5305 H 487.281 4.7604 1.62466 0
M  V30 5306 H 486.981 5.87008 0.263695 0
M  V30 5307 H 488.505 5.98922 1.18848 0
M  V30 5308 H 489.919 5.63506 -1.05518 0
M  V30 5309 H 488.316 5.71108 -1.8427 0
M  V30 5310 H 489.386 4.33608 -2.17054 0
M  V30 5311 N 490.729 0.570148 1.46925 0
M  V30 5312 C 491.975 0.0510284 2.02736 0
M  V30 5313 C 492.308 -1.3006 1.44215 0
M  V30 5314 O 491.583 -1.84932 0.602521 0
M  V30 5315 C 491.866 -0.028215 3.60089 0
M  V30 5316 C 491.719 1.35142 4.29018 0
M  V30 5317 C 493.038 -0.735181 4.33916 0
M  V30 5318 H 490.157 0.0200178 0.736728 0
M  V30 5319 H 492.799 0.73493 1.75211 0
M  V30 5320 H 490.949 -0.610648 3.83671 0
M  V30 5321 H 492.621 1.97806 4.16738 0
M  V30 5322 H 490.864 1.9226 3.88868 0
M  V30 5323 H 491.535 1.24857 5.37694 0
M  V30 5324 H 494.011 -0.240519 4.15404 0
M  V30 5325 H 492.887 -0.759622 5.43618 0
M  V30 5326 H 493.148 -1.79397 4.04066 0
M  V30 5327 N 492.207 -1.54576 0.307264 0
M  V30 5328 C 493.137 -2.26708 -0.55907 0
M  V30 5329 C 494.118 -1.26893 -1.1328 0
M  V30 5330 O 495.303 -1.55677 -1.16097 0
M  V30 5331 C 492.433 -3.01259 -1.72801 0
M  V30 5332 C 491.387 -4.08275 -1.28435 0
M  V30 5333 C 490.713 -4.70575 -2.53895 0
M  V30 5334 C 492.013 -5.2068 -0.411038 0
M  V30 5335 H 493.707 -2.9937 0.042576 0
M  V30 5336 H 491.253 -1.43983 0.0219173 0
M  V30 5337 H 493.206 -3.50444 -2.34023 0
M  V30 5338 H 491.93 -2.26187 -2.356 0
M  V30 5339 H 490.589 -3.59949 -0.695161 0
M  V30 5340 H 490.237 -3.92136 -3.15021 0
M  V30 5341 H 489.937 -5.42854 -2.24908 0
M  V30 5342 H 491.461 -5.22527 -3.15908 0
M  V30 5343 H 492.875 -5.65721 -0.929097 0
M  V30 5344 H 491.272 -5.99716 -0.214664 0
M  V30 5345 H 492.342 -4.81629 0.562287 0
M  V30 5346 N 493.685 -0.035106 -1.57561 0
M  V30 5347 C 494.962 0.681212 -1.83354 0
M  V30 5348 C 495.342 1.89986 -0.920252 0
M  V30 5349 O 494.69 2.28489 0.0226815 0
M  V30 5350 C 494.9 1.05376 -3.32712 0
M  V30 5351 C 496.248 1.44286 -3.99333 0
M  V30 5352 O 497.272 1.14656 -3.37242 0
M  V30 5353 O 496.131 1.99518 -5.08778 0
M  V30 5354 H 493.225 0.334741 -0.756226 0
M  V30 5355 H 495.771 -0.0632448 -1.69582 0
M  V30 5356 H 494.543 0.186668 -3.90854 0
M  V30 5357 H 494.166 1.85619 -3.51613 0
M  V30 5358 N 495.163 1.55791 0.238111 0
M  V30 5359 C 496.409 1.78297 0.966337 0
M  V30 5360 C 496.742 0.601903 1.84637 0
M  V30 5361 O 496.017 -0.399499 1.90353 0
M  V30 5362 C 496.3 3.10758 1.81939 0
M  V30 5363 C 496.153 4.39283 0.966958 0
M  V30 5364 C 497.472 3.39519 2.80027 0
M  V30 5365 H 494.591 0.648654 0.349882 0
M  V30 5366 H 497.233 1.88525 0.236253 0
M  V30 5367 H 495.383 3.02168 2.44185 0
M  V30 5368 H 497.055 4.59873 0.362514 0
M  V30 5369 H 495.298 4.32948 0.271669 0
M  V30 5370 H 495.969 5.28368 1.59784 0
M  V30 5371 H 498.445 3.48128 2.27917 0
M  V30 5372 H 497.321 4.33402 3.36829 0
M  V30 5373 H 497.582 2.60864 3.56934 0
M  V30 5374 N 496.642 -0.504142 1.49319 0
M  V30 5375 C 497.572 -1.61473 1.68667 0
M  V30 5376 C 498.553 -1.61455 0.535378 0
M  V30 5377 O 499.738 -1.78245 0.770868 0
M  V30 5378 C 496.868 -2.99971 1.75028 0
M  V30 5379 C 495.822 -3.14854 2.89916 0
M  V30 5380 C 495.148 -4.54671 2.81387 0
M  V30 5381 C 496.448 -2.95176 4.30893 0
M  V30 5382 H 498.142 -1.45535 2.61648 0
M  V30 5383 H 495.688 -0.698711 1.25913 0
M  V30 5384 H 497.641 -3.77562 1.8715 0
M  V30 5385 H 496.365 -3.1699 0.786441 0
M  V30 5386 H 495.024 -2.39687 2.77391 0
M  V30 5387 H 494.672 -4.68562 1.82917 0
M  V30 5388 H 494.372 -4.6557 3.58494 0
M  V30 5389 H 495.896 -5.34327 2.95512 0
M  V30 5390 H 497.31 -3.62538 4.44116 0
M  V30 5391 H 495.707 -3.17549 5.09198 0
M  V30 5392 H 496.777 -1.91332 4.45556 0
M  V30 5393 N 498.12 -1.38341 -0.754957 0
M  V30 5394 C 499.083 -1.35262 -1.85032 0
M  V30 5395 C 500.083 -0.253393 -1.58791 0
M  V30 5396 O 501.273 -0.510205 -1.66561 0
M  V30 5397 C 498.405 -1.10544 -3.22479 0
M  V30 5398 H 499.598 -2.32712 -1.8917 0
M  V30 5399 H 497.151 -1.23614 -0.956515 0
M  V30 5400 H 497.886 -0.136952 -3.24011 0
M  V30 5401 H 497.671 -1.90127 -3.4292 0
M  V30 5402 H 499.161 -1.11082 -4.02555 0
M  V30 5403 N 499.598 0.982988 -1.23187 0
M  V30 5404 C 500.508 2.10907 -1.02739 0
M  V30 5405 C 501.524 1.73979 0.0273188 0
M  V30 5406 O 502.7 2.00702 -0.16757 0
M  V30 5407 C 499.765 3.41142 -0.618304 0
M  V30 5408 C 498.826 3.92112 -1.74777 0
M  V30 5409 C 498.059 5.16131 -1.3581 0
M  V30 5410 O 498.282 5.6989 -0.241201 0
M  V30 5411 O 497.216 5.61103 -2.17824 0
M  V30 5412 H 501.042 2.31046 -1.97108 0
M  V30 5413 H 498.627 1.09284 -1.01869 0
M  V30 5414 H 500.509 4.19488 -0.400982 0
M  V30 5415 H 499.184 3.2234 0.296421 0
M  V30 5416 H 498.091 3.14895 -2.0197 0
M  V30 5417 H 499.424 4.15364 -2.64071 0
M  V30 5418 N 501.076 1.04316 1.18135 0
M  V30 5419 C 502.008 0.594444 2.21357 0
M  V30 5420 C 503.021 -0.337215 1.59269 0
M  V30 5421 O 504.21 -0.131337 1.78016 0
M  V30 5422 C 501.31 -0.151251 3.38562 0
M  V30 5423 C 500.483 0.788907 4.30227 0
M  V30 5424 C 499.542 0.0860572 5.2613 0
M  V30 5425 O 498.568 0.717302 5.64662 0
M  V30 5426 N 499.77 -1.17969 5.68387 0
M  V30 5427 H 502.535 1.48227 2.60478 0
M  V30 5428 H 500.096 0.92396 1.32946 0
M  V30 5429 H 502.088 -0.631352 3.99745 0
M  V30 5430 H 500.658 -0.940639 2.98112 0
M  V30 5431 H 499.878 1.44882 3.6661 0
M  V30 5432 H 501.166 1.42738 4.88368 0
M  V30 5433 H 500.564 -1.71302 5.3914 0
M  V30 5434 H 499.121 -1.60402 6.31755 0
M  V30 5435 N 502.554 -1.34406 0.822964 0
M  V30 5436 C 503.802 -1.97892 0.410245 0
M  V30 5437 C 504.123 -1.65567 -1.03017 0
M  V30 5438 O 503.393 -0.94642 -1.71522 0
M  V30 5439 H 501.973 -0.732049 0.148707 0
M  V30 5440 H 504.635 -1.64043 1.05242 0
M  V30 5441 H 503.731 -3.07579 0.529284 0
M  V30 5442 N 504.032 -0.577932 -1.46621 0
M  V30 5443 C 505.278 -0.0617793 -2.02706 0
M  V30 5444 C 505.611 1.29294 -1.44903 0
M  V30 5445 O 504.886 1.8461 -0.61232 0
M  V30 5446 C 505.169 0.00911824 -3.60099 0
M  V30 5447 C 505.022 -1.37416 -4.28295 0
M  V30 5448 C 506.341 0.712159 -4.343 0
M  V30 5449 H 503.46 -0.0239246 -0.736612 0
M  V30 5450 H 506.102 -0.744211 -1.74818 0
M  V30 5451 H 504.252 0.590292 -3.83989 0
M  V30 5452 H 505.924 -2.00013 -4.15683 0
M  V30 5453 H 504.167 -1.94319 -3.87843 0
M  V30 5454 H 504.838 -1.27707 -5.37024 0
M  V30 5455 H 507.314 0.218486 -4.15526 0
M  V30 5456 H 506.19 0.730782 -5.44014 0
M  V30 5457 H 506.451 1.77251 -4.05012 0
M  V30 5458 N 505.51 1.54411 -0.315457 0
M  V30 5459 C 506.473 2.22713 0.54142 0
M  V30 5460 C 507.473 1.2179 1.04995 0
M  V30 5461 O 508.663 1.46426 0.943667 0
M  V30 5462 C 505.795 2.92485 1.75116 0
M  V30 5463 H 506.988 2.99849 -0.0555508 0
M  V30 5464 H 504.541 1.56159 -0.0664453 0
M  V30 5465 H 505.276 2.19466 2.38758 0
M  V30 5466 H 505.061 3.66483 1.39401 0
M  V30 5467 H 506.551 3.44548 2.35959 0
M  V30 5468 N 506.988 0.0434614 1.5754 0
M  V30 5469 C 508.216 -0.641835 1.96693 0
M  V30 5470 C 508.631 -1.64832 0.920652 0
M  V30 5471 O 507.988 -1.82247 -0.095993 0
M  V30 5472 C 508.039 -1.33557 3.35924 0
M  V30 5473 O 507.76 -0.369403 4.3654 0
M  V30 5474 C 509.261 -2.11135 3.89791 0
M  V30 5475 H 506.481 -0.176013 0.647503 0
M  V30 5476 H 509.025 0.107478 2.04217 0
M  V30 5477 H 507.18 -2.03617 3.29574 0
M  V30 5478 H 507.594 -0.863674 5.1734 0
M  V30 5479 H 509.068 -2.55107 4.89514 0
M  V30 5480 H 509.545 -2.95634 3.24803 0
M  V30 5481 H 510.151 -1.46002 3.99454 0
M  V30 5482 N 508.466 -1.55915 -0.229846 0
M  V30 5483 C 509.398 -1.88209 -1.30805 0
M  V30 5484 C 510.411 -0.769672 -1.43457 0
M  V30 5485 O 511.6 -1.04792 -1.44502 0
M  V30 5486 C 508.7 -2.06829 -2.68468 0
M  V30 5487 C 507.873 -3.37798 -2.77869 0
M  V30 5488 C 506.932 -3.45952 -3.96489 0
M  V30 5489 O 505.958 -4.19043 -3.85216 0
M  V30 5490 N 507.16 -2.76488 -5.10426 0
M  V30 5491 H 509.925 -2.81286 -1.03431 0
M  V30 5492 H 507.486 -1.5636 -0.41991 0
M  V30 5493 H 509.478 -2.09608 -3.46189 0
M  V30 5494 H 508.048 -1.20416 -2.88477 0
M  V30 5495 H 507.268 -3.4719 -1.86689 0
M  V30 5496 H 508.556 -4.24091 -2.81113 0
M  V30 5497 H 507.954 -2.16868 -5.2248 0
M  V30 5498 H 506.511 -2.84938 -5.8622 0
M  V30 5499 N 509.944 0.496216 -1.49584 0
M  V30 5500 C 510.876 1.61404 -1.62731 0
M  V30 5501 C 511.889 1.54613 -0.50978 0
M  V30 5502 O 513.078 1.60458 -0.782017 0
M  V30 5503 C 510.178 3.00212 -1.57245 0
M  V30 5504 C 509.351 3.32138 -2.84611 0
M  V30 5505 C 508.41 4.5038 -2.72112 0
M  V30 5506 O 507.436 4.51926 -3.46051 0
M  V30 5507 N 508.638 5.50575 -1.83977 0
M  V30 5508 H 511.403 1.50552 -2.59141 0
M  V30 5509 H 508.964 0.684182 -1.46733 0
M  V30 5510 H 510.956 3.77241 -1.4653 0
M  V30 5511 H 509.526 3.04964 -0.686729 0
M  V30 5512 H 508.746 2.4396 -3.09641 0
M  V30 5513 H 510.034 3.50268 -3.69039 0
M  V30 5514 H 509.432 5.52128 -1.23171 0
M  V30 5515 H 507.989 6.26687 -1.79182 0
M  V30 5516 N 511.423 1.38739 0.74761 0
M  V30 5517 C 512.333 1.38696 1.89211 0
M  V30 5518 C 513.349 0.283303 1.71678 0
M  V30 5519 O 514.525 0.522713 1.94498 0
M  V30 5520 C 511.59 1.21662 3.24653 0
M  V30 5521 C 510.651 2.41886 3.54669 0
M  V30 5522 C 509.884 2.25655 4.83648 0
M  V30 5523 O 510.107 1.25339 5.56459 0
M  V30 5524 O 509.041 3.14372 5.13277 0
M  V30 5525 H 512.867 2.35143 1.92202 0
M  V30 5526 H 510.452 1.19721 0.893708 0
M  V30 5527 H 512.334 1.14246 4.05618 0
M  V30 5528 H 511.009 0.283024 3.2246 0
M  V30 5529 H 509.916 2.54877 2.73841 0
M  V30 5530 H 511.249 3.33895 3.61628 0
M  V30 5531 N 512.901 -0.976442 1.23707 0
M  V30 5532 C 514.147 -1.72081 1.07312 0
M  V30 5533 C 514.48 -1.90275 -0.388476 0
M  V30 5534 O 513.755 -1.4579 -1.28746 0
M  V30 5535 C 514.038 -3.11675 1.80363 0
M  V30 5536 C 513.891 -3.01027 3.3422 0
M  V30 5537 C 515.21 -4.1117 1.5693 0
M  V30 5538 H 512.329 -0.624583 0.391236 0
M  V30 5539 H 514.971 -1.13649 1.52263 0
M  V30 5540 H 513.121 -3.61559 1.42153 0
M  V30 5541 H 514.793 -2.58637 3.81975 0
M  V30 5542 H 513.036 -2.3744 3.63049 0
M  V30 5543 H 513.707 -3.9988 3.80525 0
M  V30 5544 H 516.183 -3.7011 1.90151 0
M  V30 5545 H 515.059 -5.06928 2.10513 0
M  V30 5546 H 515.32 -4.392 0.505548 0
M  V30 5547 N 514.379 -1.04941 -1.1758 0
M  V30 5548 C 515.656 -0.671918 -1.83697 0
M  V30 5549 C 516.036 0.847929 -1.93322 0
M  V30 5550 O 515.384 1.75287 -1.46583 0
M  V30 5551 C 515.594 -1.35797 -3.21497 0
M  V30 5552 C 516.942 -1.4944 -3.97433 0
M  V30 5553 O 517.966 -1.31678 -3.30967 0
M  V30 5554 O 516.825 -1.78463 -5.1654 0
M  V30 5555 H 513.919 -0.236212 -0.792548 0
M  V30 5556 H 516.465 -1.14884 -1.24899 0
M  V30 5557 H 515.237 -2.39498 -3.09446 0
M  V30 5558 H 514.86 -0.870236 -3.8796 0
M  V30 5559 N 515.857 1.33968 -0.830081 0
M  V30 5560 C 516.82 2.27694 -0.26235 0
M  V30 5561 C 517.82 1.50589 0.563876 0
M  V30 5562 O 519.01 1.70028 0.378941 0
M  V30 5563 C 516.142 3.35002 0.63138 0
M  V30 5564 H 517.335 2.79419 -1.08928 0
M  V30 5565 H 514.888 1.44221 -0.602486 0
M  V30 5566 H 515.623 2.88504 1.48109 0
M  V30 5567 H 515.408 3.92079 0.0403276 0
M  V30 5568 H 516.898 4.04897 1.02217 0
M  V30 5569 N 517.335 0.585699 1.46312 0
M  V30 5570 C 518.298 -0.135673 2.28798 0
M  V30 5571 C 519.298 -0.815988 1.38558 0
M  V30 5572 O 520.488 -0.667487 1.60904 0
M  V30 5573 C 517.62 -1.20163 3.1902 0
M  V30 5574 H 518.813 0.589257 2.94054 0
M  V30 5575 H 516.366 0.343794 1.52472 0
M  V30 5576 H 517.101 -1.95804 2.58517 0
M  V30 5577 H 516.886 -0.718282 3.85465 0
M  V30 5578 H 518.376 -1.70749 3.81096 0
M  V30 5579 N 518.813 -1.54241 0.323641 0
M  V30 5580 C 519.76 -2.24339 -0.542277 0
M  V30 5581 C 520.73 -1.23421 -1.11159 0
M  V30 5582 O 521.915 -1.52104 -1.15192 0
M  V30 5583 C 519.055 -3.00479 -1.69725 0
M  V30 5584 C 518.168 -4.16214 -1.15716 0
M  V30 5585 C 517.303 -4.79884 -2.27783 0
M  V30 5586 C 516.342 -5.87722 -1.71023 0
M  V30 5587 N 515.479 -6.45254 -2.76752 0
M  V30 5588 H 520.319 -2.97935 0.0620613 0
M  V30 5589 H 517.856 -1.47039 0.0423993 0
M  V30 5590 H 519.814 -3.42869 -2.3769 0
M  V30 5591 H 518.444 -2.29217 -2.27288 0
M  V30 5592 H 517.496 -3.78605 -0.369063 0
M  V30 5593 H 518.808 -4.93838 -0.701832 0
M  V30 5594 H 517.962 -5.25243 -3.03651 0
M  V30 5595 H 516.701 -4.01641 -2.76652 0
M  V30 5596 H 515.706 -5.41765 -0.936518 0
M  V30 5597 H 516.931 -6.67863 -1.2303 0
M  V30 5598 H 514.877 -5.69884 -3.24912 0
M  V30 5599 H 514.794 -7.18292 -2.35782 0
M  V30 5600 H 516.062 -6.95269 -3.5245 0
M  V30 5601 N 520.291 -0.0518155 -1.57515 0
M  V30 5602 C 521.221 0.920283 -2.146 0
M  V30 5603 C 522.202 1.32406 -1.06783 0
M  V30 5604 O 523.387 1.39866 -1.34726 0
M  V30 5605 C 520.517 2.1949 -2.6915 0
M  V30 5606 C 519.471 1.93116 -3.81956 0
M  V30 5607 C 518.797 3.27037 -4.23026 0
M  V30 5608 C 520.097 1.25225 -5.07066 0
M  V30 5609 H 521.791 0.444801 -2.96077 0
M  V30 5610 H 519.337 0.212508 -1.42423 0
M  V30 5611 H 521.29 2.87894 -3.07725 0
M  V30 5612 H 520.014 2.69244 -1.84865 0
M  V30 5613 H 518.673 1.27123 -3.43854 0
M  V30 5614 H 518.321 3.74595 -3.3569 0
M  V30 5615 H 518.021 3.10189 -4.99056 0
M  V30 5616 H 519.545 3.96673 -4.64202 0
M  V30 5617 H 520.959 1.83666 -5.43083 0
M  V30 5618 H 519.356 1.18702 -5.88243 0
M  V30 5619 H 520.426 0.228382 -4.84362 0
M  V30 5620 N 521.769 1.56035 0.221574 0
M  V30 5621 C 523.185 1.49026 0.571271 0
M  V30 5622 C 523.385 0.746912 1.87146 0
M  V30 5623 O 522.441 0.286566 2.50869 0
M  V30 5624 C 523.754 2.93579 0.650522 0
M  V30 5625 C 525.302 3.04099 0.741151 0
M  V30 5626 C 525.777 4.5001 0.851747 0
M  V30 5627 N 527.268 4.54053 0.915968 0
M  V30 5628 C 528.003 5.64232 1.02125 0
M  V30 5629 N 527.499 6.84164 1.09049 0
M  V30 5630 N 529.292 5.52084 1.05639 0
M  V30 5631 H 521.443 2.02791 -0.63162 0
M  V30 5632 H 523.706 0.921736 -0.221602 0
M  V30 5633 H 523.412 3.50912 -0.235253 0
M  V30 5634 H 523.286 3.45476 1.51413 0
M  V30 5635 H 525.673 2.4683 1.61737 0
M  V30 5636 H 525.754 2.55371 -0.148128 0
M  V30 5637 H 525.398 5.07896 -0.0200117 0
M  V30 5638 H 525.328 4.96444 1.75644 0
M  V30 5639 H 527.819 3.67683 0.872782 0
M  V30 5640 H 528.132 7.63883 1.1706 0
M  V30 5641 H 526.477 6.86875 1.05962 0
M  V30 5642 H 529.668 4.57317 0.998953 0
M  V30 5643 H 529.841 6.37983 1.13498 0
M  V30 5644 N 523.247 -0.488276 1.49845 0
M  V30 5645 C 524.658 -1.06955 1.53028 0
M  V30 5646 C 525.009 -1.9351 0.323797 0
M  V30 5647 O 524.134 -2.08891 -0.565116 0
M  V30 5648 C 524.729 -1.94643 2.77307 0
M  V30 5649 C 523.288 -2.4791 2.83227 0
M  V30 5650 C 522.435 -1.25833 2.47106 0
M  V30 5651 H 525.386 -0.271626 1.56358 0
M  V30 5652 H 525.407 -2.79496 2.5819 0
M  V30 5653 H 524.919 -1.31621 3.65099 0
M  V30 5654 H 523.02 -3.14535 1.99745 0
M  V30 5655 H 523.133 -2.84193 3.85709 0
M  V30 5656 H 521.497 -1.58764 1.99163 0
M  V30 5657 H 522.28 -0.644993 3.37186 0
M  V30 5658 N 524.725 -1.39134 -0.740242 0
M  V30 5659 C 525.655 -1.40165 -1.86751 0
M  V30 5660 C 526.636 -0.265708 -1.68012 0
M  V30 5661 O 527.821 -0.47076 -1.88408 0
M  V30 5662 C 524.951 -1.2392 -3.2444 0
M  V30 5663 C 523.905 -2.34858 -3.57807 0
M  V30 5664 C 523.231 -2.03707 -4.94376 0
M  V30 5665 C 524.531 -3.77159 -3.61315 0
M  V30 5666 H 526.225 -2.345 -1.86145 0
M  V30 5667 H 523.771 -1.12875 -0.89416 0
M  V30 5668 H 525.724 -1.23263 -4.02969 0
M  V30 5669 H 524.448 -0.26051 -3.25559 0
M  V30 5670 H 523.107 -2.34723 -2.81604 0
M  V30 5671 H 522.755 -1.04289 -4.9207 0
M  V30 5672 H 522.455 -2.78016 -5.17669 0
M  V30 5673 H 523.979 -2.04691 -5.75268 0
M  V30 5674 H 525.393 -3.79252 -4.29931 0
M  V30 5675 H 523.79 -4.50784 -3.96124 0
M  V30 5676 H 524.86 -4.08513 -2.61238 0
M  V30 5677 N 526.204 0.969867 -1.24223 0
M  V30 5678 C 527.452 1.70918 -1.0785 0
M  V30 5679 C 527.773 1.91186 0.383763 0
M  V30 5680 O 527.043 1.48806 1.27411 0
M  V30 5681 H 525.623 0.633334 -0.396103 0
M  V30 5682 H 528.285 1.16689 -1.56108 0
M  V30 5683 H 527.381 2.69455 -1.57482 0
M  V30 5684 N 527.682 1.05563 1.17022 0
M  V30 5685 C 528.928 0.769074 1.87652 0
M  V30 5686 C 529.261 -0.702326 1.81055 0
M  V30 5687 O 528.536 -1.5139 1.22112 0
M  V30 5688 C 528.819 1.25492 3.37526 0
M  V30 5689 C 528.672 2.78953 3.52853 0
M  V30 5690 C 529.991 0.856919 4.31677 0
M  V30 5691 H 527.11 0.280854 0.681388 0
M  V30 5692 H 529.752 1.31027 1.37593 0
M  V30 5693 H 527.902 0.794516 3.80289 0
M  V30 5694 H 529.574 3.33146 3.19079 0
M  V30 5695 H 527.817 3.18046 2.95007 0
M  V30 5696 H 528.488 3.08011 4.58076 0
M  V30 5697 H 530.964 1.25334 3.96775 0
M  V30 5698 H 529.84 1.22443 5.35069 0
M  V30 5699 H 530.101 -0.238787 4.41455 0
M  V30 5700 N 529.16 -1.33526 0.837174 0
M  V30 5701 C 530.388 -2.02047 0.445494 0
M  V30 5702 C 530.803 -1.62995 -0.952788 0
M  V30 5703 O 530.16 -0.842447 -1.61892 0
M  V30 5704 C 530.211 -3.57221 0.554577 0
M  V30 5705 O 529.932 -3.94863 1.89776 0
M  V30 5706 C 531.433 -4.43012 0.159634 0
M  V30 5707 H 528.653 -0.647221 0.177048 0
M  V30 5708 H 531.197 -1.70492 1.12928 0
M  V30 5709 H 529.352 -3.87315 -0.0812781 0
M  V30 5710 H 529.766 -4.89569 1.88208 0
M  V30 5711 H 531.24 -5.51253 0.28701 0
M  V30 5712 H 531.717 -4.29916 -0.898289 0
M  V30 5713 H 532.323 -4.18274 0.769855 0
M  V30 5714 N 530.638 -0.59345 -1.46 0
M  V30 5715 C 532.054 -0.255965 -1.57534 0
M  V30 5716 C 532.254 1.24167 -1.58697 0
M  V30 5717 O 531.31 2.02398 -1.50968 0
M  V30 5718 C 532.623 -0.91466 -2.86451 0
M  V30 5719 C 534.171 -0.889253 -3.00102 0
M  V30 5720 C 534.646 -1.52769 -4.3177 0
M  V30 5721 N 536.137 -1.49253 -4.38495 0
M  V30 5722 C 536.872 -1.9558 -5.39014 0
M  V30 5723 N 536.368 -2.49929 -6.46148 0
M  V30 5724 N 538.161 -1.86432 -5.30282 0
M  V30 5725 H 530.312 -1.56604 -1.43489 0
M  V30 5726 H 532.575 -0.655207 -0.685133 0
M  V30 5727 H 532.281 -1.96861 -2.91442 0
M  V30 5728 H 532.155 -0.429356 -3.74748 0
M  V30 5729 H 534.542 0.156111 -2.94687 0
M  V30 5730 H 534.623 -1.41268 -2.13253 0
M  V30 5731 H 534.267 -2.57231 -4.37944 0
M  V30 5732 H 534.197 -0.979398 -5.17412 0
M  V30 5733 H 536.688 -1.09536 -3.61677 0
M  V30 5734 H 537.001 -2.83109 -7.19075 0
M  V30 5735 H 535.346 -2.53961 -6.46938 0
M  V30 5736 H 538.537 -1.43722 -4.4549 0
M  V30 5737 H 538.71 -2.22852 -6.08474 0
M  V30 5738 N 532.116 1.54067 -0.331816 0
M  V30 5739 C 533.048 2.22139 0.564538 0
M  V30 5740 C 534.061 1.22408 1.07332 0
M  V30 5741 O 535.25 1.4883 0.985481 0
M  V30 5742 C 532.35 2.87876 1.78831 0
M  V30 5743 C 531.523 4.13817 1.41682 0
M  V30 5744 C 530.582 4.63072 2.49901 0
M  V30 5745 O 529.608 5.27562 2.13699 0
M  V30 5746 N 530.81 4.38001 3.80967 0
M  V30 5747 H 533.575 2.99694 -0.0183736 0
M  V30 5748 H 531.136 1.61153 -0.155396 0
M  V30 5749 H 533.128 3.17747 2.50637 0
M  V30 5750 H 531.698 2.13977 2.27887 0
M  V30 5751 H 530.918 3.9062 0.530044 0
M  V30 5752 H 532.206 4.95762 1.14443 0
M  V30 5753 H 531.604 3.864 4.13173 0
M  V30 5754 H 530.161 4.72507 4.48977 0
M  V30 5755 N 533.594 0.0601682 1.57485 0
M  V30 5756 C 534.842 -0.610386 1.92662 0
M  V30 5757 C 535.163 -1.70849 0.939981 0
M  V30 5758 O 534.433 -1.95895 -0.0137455 0
M  V30 5759 H 533.013 -0.228457 0.711208 0
M  V30 5760 H 535.675 0.115288 1.94559 0
M  V30 5761 H 534.771 -1.0432 2.94149 0
M  V30 5762 N 535.072 -1.5615 -0.213296 0
M  V30 5763 C 536.297 -1.83986 -0.957282 0
M  V30 5764 C 536.722 -0.641526 -1.76822 0
M  V30 5765 O 536.08 0.409722 -1.7661 0
M  V30 5766 C 536.128 -3.09889 -1.84393 0
M  V30 5767 O 535.232 -2.89163 -2.94038 0
M  V30 5768 H 534.573 -0.606357 -0.270605 0
M  V30 5769 H 537.103 -2.03369 -0.224111 0
M  V30 5770 H 537.113 -3.40209 -2.25215 0
M  V30 5771 H 535.788 -3.96735 -1.24795 0
M  V30 5772 H 534.365 -2.70097 -2.57103 0
M  V30 5773 N 536.55 0.480323 -1.50102 0
M  V30 5774 C 537.483 1.59789 -1.62919 0
M  V30 5775 C 538.461 1.55429 -0.477557 0
M  V30 5776 O 539.645 1.75186 -0.695851 0
M  V30 5777 C 536.772 2.98351 -1.60325 0
M  V30 5778 C 535.818 3.20899 -2.80938 0
M  V30 5779 S 536.651 3.01791 -4.4236 0
M  V30 5780 C 537.807 4.42712 -4.42444 0
M  V30 5781 H 538.04 1.48676 -2.57454 0
M  V30 5782 H 535.573 0.666996 -1.3925 0
M  V30 5783 H 537.531 3.7824 -1.59514 0
M  V30 5784 H 536.192 3.06862 -0.670419 0
M  V30 5785 H 535.385 4.22102 -2.75401 0
M  V30 5786 H 534.987 2.48768 -2.79268 0
M  V30 5787 H 537.279 5.3518 -4.15438 0
M  V30 5788 H 538.222 4.53294 -5.43995 0
M  V30 5789 H 538.63 4.24359 -3.72263 0
M  V30 5790 N 538.028 1.39524 0.732853 0
M  V30 5791 C 538.991 1.38189 1.82857 0
M  V30 5792 C 539.991 0.278624 1.58368 0
M  V30 5793 O 541.181 0.536639 1.65728 0
M  V30 5794 C 538.313 1.15661 3.2068 0
M  V30 5795 H 539.506 2.35692 1.85444 0
M  V30 5796 H 537.059 1.2512 0.936728 0
M  V30 5797 H 537.794 0.188482 3.23752 0
M  V30 5798 H 537.579 1.95559 3.39852 0
M  V30 5799 H 539.069 1.17472 4.00737 0
M  V30 5800 N 539.506 -0.963266 1.24736 0
M  V30 5801 C 540.783 -1.68248 0.9976 0
M  V30 5802 C 541.163 -2.05599 -0.478776 0
M  V30 5803 O 540.511 -1.7626 -1.45412 0
M  V30 5804 C 540.721 -2.91118 1.92487 0
M  V30 5805 C 542.069 -3.63261 2.19833 0
M  V30 5806 O 543.093 -3.01184 1.90176 0
M  V30 5807 O 541.952 -4.75019 2.7022 0
M  V30 5808 H 539.046 -0.735744 0.377637 0
M  V30 5809 H 541.592 -1.01696 1.35853 0
M  V30 5810 H 540.364 -2.60242 2.92215 0
M  V30 5811 H 539.987 -3.65402 1.56738 0
M  V30 5812 N 540.985 -1.06182 -1.16461 0
M  V30 5813 C 542.21 -0.798599 -1.91408 0
M  V30 5814 C 542.635 0.640987 -1.76842 0
M  V30 5815 O 541.993 1.44652 -1.09296 0
M  V30 5816 C 542.041 -1.19665 -3.40165 0
M  V30 5817 O 541.145 -0.334768 -4.11039 0
M  V30 5818 H 540.486 -0.291961 -0.596368 0
M  V30 5819 H 543.016 -1.41732 -1.47557 0
M  V30 5820 H 543.026 -1.16772 -3.90933 0
M  V30 5821 H 541.701 -2.24526 -3.50087 0
M  V30 5822 H 540.278 -0.425168 -3.70468 0
M  V30 5823 N 542.463 1.3308 -0.844243 0
M  V30 5824 C 543.688 2.02341 -0.455282 0
M  V30 5825 C 544.113 1.6308 0.93737 0
M  V30 5826 O 543.471 0.826118 1.61385 0
M  V30 5827 C 543.519 3.55743 -0.58988 0
M  V30 5828 O 542.623 4.1063 0.38166 0
M  V30 5829 H 541.964 0.637898 -0.184343 0
M  V30 5830 H 544.494 1.6986 -1.14056 0
M  V30 5831 H 544.504 4.05243 -0.473522 0
M  V30 5832 H 543.179 3.83662 -1.60549 0
M  V30 5833 H 541.756 3.72236 0.22241 0
M  V30 5834 N 543.941 0.601185 1.45683 0
M  V30 5835 C 545.171 0.0999093 2.06358 0
M  V30 5836 C 545.579 -1.21831 1.44754 0
M  V30 5837 O 544.922 -1.75157 0.553695 0
M  V30 5838 C 544.984 -0.12085 3.59297 0
M  V30 5839 C 544.648 1.11459 4.432 0
M  V30 5840 C 545.645 2.03118 4.7858 0
M  V30 5841 C 543.33 1.34162 4.84051 0
M  V30 5842 C 545.324 3.15814 5.53661 0
M  V30 5843 C 543.011 2.4716 5.58888 0
M  V30 5844 C 544.009 3.37814 5.93608 0
M  V30 5845 O 543.697 4.48846 6.66928 0
M  V30 5846 H 543.429 0.0630316 0.673055 0
M  V30 5847 H 545.983 0.826982 1.88016 0
M  V30 5848 H 544.213 -0.902744 3.76015 0
M  V30 5849 H 545.902 -0.572925 4.01836 0
M  V30 5850 H 546.668 1.86801 4.47583 0
M  V30 5851 H 542.547 0.645018 4.56465 0
M  V30 5852 H 546.091 3.86596 5.8068 0
M  V30 5853 H 541.988 2.63432 5.89299 0
M  V30 5854 H 542.756 4.47446 6.85371 0
M  V30 5855 N 545.419 -1.53889 0.339982 0
M  V30 5856 C 546.83 -1.86139 -0.144671 0
M  V30 5857 C 547.181 -1.2613 -1.50285 0
M  V30 5858 O 546.306 -0.573515 -2.08662 0
M  V30 5859 C 546.901 -3.37728 -0.269285 0
M  V30 5860 C 545.46 -3.69868 -0.698168 0
M  V30 5861 C 544.607 -2.76777 0.170249 0
M  V30 5862 H 547.558 -1.48503 0.559704 0
M  V30 5863 H 547.579 -3.64331 -1.0974 0
M  V30 5864 H 547.091 -3.81375 0.719366 0
M  V30 5865 H 545.192 -3.31764 -1.69597 0
M  V30 5866 H 545.305 -4.76582 -0.490533 0
M  V30 5867 H 543.669 -2.52188 -0.356844 0
M  V30 5868 H 544.452 -3.23253 1.15597 0
M  V30 5869 N 546.897 -0.0685191 -1.57451 0
M  V30 5870 C 547.86 0.885173 -2.11417 0
M  V30 5871 C 548.86 1.22853 -1.03748 0
M  V30 5872 O 550.05 1.16235 -1.2975 0
M  V30 5873 C 547.182 2.18964 -2.61281 0
M  V30 5874 H 548.375 0.417034 -2.96986 0
M  V30 5875 H 545.928 0.18014 -1.55258 0
M  V30 5876 H 546.663 2.70321 -1.79156 0
M  V30 5877 H 546.448 1.9534 -3.39977 0
M  V30 5878 H 547.938 2.87242 -3.0312 0
M  V30 5879 N 548.375 1.56261 0.205012 0
M  V30 5880 C 549.622 1.8004 0.926927 0
M  V30 5881 C 549.95 0.640086 1.83666 0
M  V30 5882 O 549.205 -0.374702 1.92079 0
M  V30 5883 C 549.504 3.09722 1.78345 0
M  V30 5884 C 549.17 4.39082 1.02555 0
M  V30 5885 C 547.832 4.74226 0.816256 0
M  V30 5886 C 550.184 5.18877 0.491559 0
M  V30 5887 C 547.512 5.86668 0.0613287 0
M  V30 5888 C 549.864 6.32105 -0.250107 0
M  V30 5889 C 548.528 6.6584 -0.470508 0
M  V30 5890 H 547.798 0.658812 0.339187 0
M  V30 5891 H 550.445 1.90515 0.19395 0
M  V30 5892 H 548.75 2.9444 2.5848 0
M  V30 5893 H 550.447 3.25324 2.34446 0
M  V30 5894 H 547.037 4.11497 1.19868 0
M  V30 5895 H 551.221 4.92147 0.640684 0
M  V30 5896 H 546.477 6.11283 -0.119501 0
M  V30 5897 H 550.651 6.93157 -0.671307 0
M  V30 5898 H 548.278 7.5281 -1.05739 0
M  V30 5899 N 549.853 -0.472356 1.50355 0
M  V30 5900 C 550.783 -1.57859 1.72055 0
M  V30 5901 C 551.764 -1.60283 0.569505 0
M  V30 5902 O 552.949 -1.7657 0.808503 0
M  V30 5903 C 550.079 -2.96191 1.81351 0
M  V30 5904 C 549.033 -3.08633 2.96529 0
M  V30 5905 C 548.359 -4.486 2.90968 0
M  V30 5906 C 549.659 -2.85969 4.37057 0
M  V30 5907 H 551.353 -1.39953 2.64676 0
M  V30 5908 H 548.899 -0.671846 1.27367 0
M  V30 5909 H 550.852 -3.73507 1.95117 0
M  V30 5910 H 549.576 -3.15251 0.853502 0
M  V30 5911 H 548.235 -2.33749 2.82413 0
M  V30 5912 H 547.883 -4.64577 1.92815 0
M  V30 5913 H 547.583 -4.57861 3.68289 0
M  V30 5914 H 549.107 -5.27938 3.0678 0
M  V30 5915 H 550.521 -3.53036 4.51706 0
M  V30 5916 H 548.918 -3.06677 5.15819 0
M  V30 5917 H 549.988 -1.81838 4.49514 0
M  V30 5918 N 551.331 -1.39911 -0.725443 0
M  V30 5919 C 552.608 -1.28158 -1.47766 0
M  V30 5920 C 552.988 0.104545 -2.10841 0
M  V30 5921 O 552.336 1.11657 -1.99361 0
M  V30 5922 C 552.546 -2.41306 -2.52135 0
M  V30 5923 C 553.894 -2.81076 -3.18247 0
M  V30 5924 O 554.918 -2.40827 -2.62452 0
M  V30 5925 O 553.777 -3.50581 -4.19231 0
M  V30 5926 H 550.871 -0.502761 -0.656628 0
M  V30 5927 H 553.417 -1.51808 -0.758456 0
M  V30 5928 H 552.189 -3.33932 -2.03974 0
M  V30 5929 H 551.812 -2.19374 -3.31603 0
M  V30 5930 N 552.809 0.956637 -1.25245 0
M  V30 5931 C 553.739 2.07058 -1.07931 0
M  V30 5932 C 554.72 1.70096 0.0110361 0
M  V30 5933 O 555.905 1.93555 -0.158121 0
M  V30 5934 C 553.035 3.40272 -0.695124 0
M  V30 5935 C 551.989 3.91235 -1.73549 0
M  V30 5936 C 551.315 5.20921 -1.20604 0
M  V30 5937 C 552.615 4.17837 -3.13385 0
M  V30 5938 H 554.309 2.218 -2.01109 0
M  V30 5939 H 551.855 1.06581 -0.968326 0
M  V30 5940 H 553.808 4.1765 -0.560949 0
M  V30 5941 H 552.532 3.25462 0.272355 0
M  V30 5942 H 551.191 3.16025 -1.85807 0
M  V30 5943 H 550.839 5.02479 -0.228846 0
M  V30 5944 H 550.539 5.55987 -1.90136 0
M  V30 5945 H 552.063 6.00897 -1.08421 0
M  V30 5946 H 553.477 4.8588 -3.04292 0
M  V30 5947 H 551.874 4.64154 -3.80369 0
M  V30 5948 H 552.944 3.2419 -3.60595 0
M  V30 5949 N 554.287 1.06798 1.15896 0
M  V30 5950 C 555.533 0.788934 1.86825 0
M  V30 5951 C 555.866 -0.683084 1.8179 0
M  V30 5952 O 555.141 -1.50086 1.23711 0
M  V30 5953 C 555.424 1.29065 3.36176 0
M  V30 5954 C 555.277 2.8268 3.49874 0
M  V30 5955 C 556.596 0.902655 4.30744 0
M  V30 5956 H 553.715 0.288066 0.678371 0
M  V30 5957 H 556.357 1.32479 1.36195 0
M  V30 5958 H 554.507 0.834806 3.79425 0
M  V30 5959 H 556.179 3.36511 3.15528 0
M  V30 5960 H 554.422 3.21157 2.91617 0
M  V30 5961 H 555.093 3.12852 4.54783 0
M  V30 5962 H 557.569 1.29535 3.95424 0
M  V30 5963 H 556.445 1.28111 5.3374 0
M  V30 5964 H 556.706 -0.191951 4.41683 0
M  V30 5965 N 555.766 -1.3263 0.851289 0
M  V30 5966 C 556.713 -2.28952 0.291469 0
M  V30 5967 C 557.683 -1.54897 -0.599676 0
M  V30 5968 O 558.868 -1.83137 -0.535305 0
M  V30 5969 C 556.008 -3.41206 -0.516992 0
M  V30 5970 C 555.121 -4.30148 0.399566 0
M  V30 5971 C 554.256 -5.29527 -0.4212 0
M  V30 5972 C 553.295 -6.10112 0.492969 0
M  V30 5973 N 552.432 -7.01499 -0.290414 0
M  V30 5974 H 557.272 -2.76228 1.11813 0
M  V30 5975 H 554.809 -1.35907 0.562826 0
M  V30 5976 H 556.767 -4.05005 -1.00132 0
M  V30 5977 H 555.397 -2.9509 -1.30851 0
M  V30 5978 H 554.449 -3.66959 1.00227 0
M  V30 5979 H 555.761 -4.8649 1.1013 0
M  V30 5980 H 554.915 -5.98914 -0.968832 0
M  V30 5981 H 553.654 -4.73794 -1.15632 0
M  V30 5982 H 552.659 -5.39632 1.05251 0
M  V30 5983 H 553.884 -6.6793 1.22664 0
M  V30 5984 H 551.83 -6.48199 -1.00868 0
M  V30 5985 H 551.747 -7.55178 0.352354 0
M  V30 5986 H 553.015 -7.75176 -0.819882 0
M  V30 5987 N 557.244 -0.608902 -1.45362 0
M  V30 5988 C 558.66 -0.272659 -1.57254 0
M  V30 5989 C 558.86 1.22477 -1.60005 0
M  V30 5990 O 557.916 2.00785 -1.53106 0
M  V30 5991 C 559.229 -0.944991 -2.85465 0
M  V30 5992 C 560.777 -0.921033 -2.99142 0
M  V30 5993 C 561.252 -1.5734 -4.30126 0
M  V30 5994 N 562.743 -1.53895 -4.36887 0
M  V30 5995 C 563.478 -2.01286 -5.36909 0
M  V30 5996 N 562.974 -2.56768 -6.43461 0
M  V30 5997 N 564.767 -1.92046 -5.28275 0
M  V30 5998 H 556.918 -1.58117 -1.4182 0
M  V30 5999 H 559.181 -0.662437 -0.678146 0
M  V30 6000 H 558.887 -1.99941 -2.89338 0
M  V30 6001 H 558.761 -0.469079 -3.74272 0
M  V30 6002 H 561.148 0.124846 -2.94836 0
M  V30 6003 H 561.229 -1.43522 -2.11743 0
M  V30 6004 H 560.873 -2.61862 -4.35191 0
M  V30 6005 H 560.803 -1.03422 -5.16344 0
M  V30 6006 H 563.294 -1.13366 -3.60495 0
M  V30 6007 H 563.607 -2.9072 -7.16032 0
M  V30 6008 H 561.952 -2.60808 -6.44208 0
M  V30 6009 H 565.143 -1.48439 -4.43941 0
M  V30 6010 H 565.316 -2.29293 -6.06077 0
M  V30 6011 N 558.722 1.53707 -0.348139 0
M  V30 6012 C 559.654 2.22725 0.540946 0
M  V30 6013 C 560.667 1.2354 1.06027 0
M  V30 6014 O 561.856 1.49867 0.96964 0
M  V30 6015 C 558.956 2.89756 1.75768 0
M  V30 6016 C 558.129 4.15297 1.37285 0
M  V30 6017 C 557.188 4.65697 2.44976 0
M  V30 6018 O 556.214 5.29798 2.08092 0
M  V30 6019 N 557.416 4.42017 3.763 0
M  V30 6020 H 560.181 2.99658 -0.0501592 0
M  V30 6021 H 557.742 1.60979 -0.17248 0
M  V30 6022 H 559.734 3.20388 2.47252 0
M  V30 6023 H 558.304 2.16382 2.25605 0
M  V30 6024 H 557.524 3.9116 0.488584 0
M  V30 6025 H 558.812 4.96948 1.09179 0
M  V30 6026 H 558.21 3.9076 4.09051 0
M  V30 6027 H 556.767 4.77242 4.4394 0
M  V30 6028 N 560.2 0.0768682 1.57412 0
M  V30 6029 C 561.13 -0.886026 2.16037 0
M  V30 6030 C 562.111 -1.30691 1.08876 0
M  V30 6031 O 563.296 -1.37705 1.36934 0
M  V30 6032 C 560.426 -2.1518 2.72608 0
M  V30 6033 C 559.38 -1.87015 3.8498 0
M  V30 6034 C 558.706 -3.20266 4.28175 0
M  V30 6035 C 560.006 -1.17143 5.08994 0
M  V30 6036 H 561.7 -0.397642 2.96748 0
M  V30 6037 H 559.246 -0.189823 1.42743 0
M  V30 6038 H 561.199 -2.82962 3.12266 0
M  V30 6039 H 559.923 -2.66269 1.89125 0
M  V30 6040 H 558.582 -1.21636 3.45833 0
M  V30 6041 H 558.23 -3.69207 3.41607 0
M  V30 6042 H 557.93 -3.0221 5.03927 0
M  V30 6043 H 559.454 -3.89237 4.70454 0
M  V30 6044 H 560.868 -1.75003 5.45937 0
M  V30 6045 H 559.265 -1.09328 5.90057 0
M  V30 6046 H 560.335 -0.151295 4.84664 0
M  V30 6047 N 561.678 -1.56367 -0.196722 0
M  V30 6048 C 563.094 -1.49916 -0.54749 0
M  V30 6049 C 563.294 -0.77659 -1.85934 0
M  V30 6050 O 562.35 -0.32644 -2.50381 0
M  V30 6051 C 563.663 -2.94577 -0.603734 0
M  V30 6052 C 565.211 -3.05239 -0.692677 0
M  V30 6053 C 565.686 -4.51308 -0.780046 0
M  V30 6054 N 567.177 -4.55453 -0.843616 0
M  V30 6055 C 567.912 -5.65786 -0.931358 0
M  V30 6056 N 567.408 -6.85812 -0.981503 0
M  V30 6057 N 569.201 -5.53695 -0.968421 0
M  V30 6058 H 561.352 -2.01761 0.663803 0
M  V30 6059 H 563.615 -0.918094 0.236238 0
M  V30 6060 H 563.321 -3.50494 0.29105 0
M  V30 6061 H 563.195 -3.47841 -1.45898 0
M  V30 6062 H 565.582 -2.49372 -1.57789 0
M  V30 6063 H 565.663 -2.55103 0.188736 0
M  V30 6064 H 565.307 -5.078 0.100811 0
M  V30 6065 H 565.237 -4.99176 -1.67724 0
M  V30 6066 H 567.728 -3.69025 -0.814176 0
M  V30 6067 H 568.041 -7.65648 -1.04892 0
M  V30 6068 H 566.386 -6.88474 -0.950208 0
M  V30 6069 H 569.577 -4.58848 -0.926072 0
M  V30 6070 H 569.75 -6.39708 -1.03334 0
M  V30 6071 N 563.156 0.464375 -1.50603 0
M  V30 6072 C 564.088 1.57916 -1.66118 0
M  V30 6073 C 565.101 1.53497 -0.54246 0
M  V30 6074 O 566.29 1.58763 -0.815877 0
M  V30 6075 C 563.39 2.96809 -1.63577 0
M  V30 6076 C 562.563 3.26026 -2.91592 0
M  V30 6077 C 561.622 4.44506 -2.81604 0
M  V30 6078 O 560.648 4.44484 -3.55559 0
M  V30 6079 N 561.85 5.46549 -1.95614 0
M  V30 6080 H 564.615 1.45022 -2.62276 0
M  V30 6081 H 562.176 0.652903 -1.48151 0
M  V30 6082 H 564.168 3.74048 -1.54499 0
M  V30 6083 H 562.738 3.03438 -0.751262 0
M  V30 6084 H 561.958 2.37337 -3.14746 0
M  V30 6085 H 563.246 3.42361 -3.76386 0
M  V30 6086 H 562.644 5.49391 -1.34854 0
M  V30 6087 H 561.201 6.22746 -1.92435 0
M  V30 6088 N 564.634 1.40294 0.718013 0
M  V30 6089 C 565.911 1.2894 1.47084 0
M  V30 6090 C 566.291 -0.0933625 2.10893 0
M  V30 6091 O 565.639 -1.10598 1.99951 0
M  V30 6092 C 565.849 2.4264 2.50852 0
M  V30 6093 C 567.197 2.8276 3.16752 0
M  V30 6094 O 568.221 2.42215 2.61171 0
M  V30 6095 O 567.08 3.528 4.17366 0
M  V30 6096 H 564.174 0.506236 0.653952 0
M  V30 6097 H 566.72 1.52208 0.750394 0
M  V30 6098 H 565.492 3.35009 2.022 0
M  V30 6099 H 565.115 2.21129 3.30435 0
M  V30 6100 N 566.112 -0.949982 1.2575 0
M  V30 6101 C 567.342 -1.72721 1.13363 0
M  V30 6102 C 567.75 -1.86562 -0.314842 0
M  V30 6103 O 567.093 -1.36621 -1.22803 0
M  V30 6104 C 567.155 -3.15695 1.7198 0
M  V30 6105 C 566.819 -3.25268 3.21014 0
M  V30 6106 C 567.816 -3.09222 4.17945 0
M  V30 6107 C 565.501 -3.4894 3.61312 0
M  V30 6108 C 567.495 -3.16701 5.53154 0
M  V30 6109 C 565.182 -3.56055 4.96657 0
M  V30 6110 C 566.18 -3.3995 5.92387 0
M  V30 6111 O 565.868 -3.46757 7.25269 0
M  V30 6112 H 565.6 -0.547888 0.395973 0
M  V30 6113 H 568.154 -1.20009 1.66694 0
M  V30 6114 H 566.384 -3.69791 1.13101 0
M  V30 6115 H 568.073 -3.75295 1.54624 0
M  V30 6116 H 568.839 -2.90798 3.88151 0
M  V30 6117 H 564.718 -3.60534 2.87291 0
M  V30 6118 H 568.262 -3.04048 6.27854 0
M  V30 6119 H 564.159 -3.73997 5.26115 0
M  V30 6120 H 564.927 -3.63358 7.33426 0
M  V30 6121 N 567.59 -1.07411 -1.15328 0
M  V30 6122 C 569.006 -0.799759 -1.38116 0
M  V30 6123 C 569.206 0.59572 -1.92493 0
M  V30 6124 O 568.262 1.35433 -2.13106 0
M  V30 6125 C 569.575 -1.87407 -2.35158 0
M  V30 6126 C 571.123 -1.89889 -2.48819 0
M  V30 6127 C 571.598 -2.96406 -3.49153 0
M  V30 6128 N 573.089 -2.95512 -3.56689 0
M  V30 6129 C 573.824 -3.74575 -4.34144 0
M  V30 6130 N 573.32 -4.63488 -5.14928 0
M  V30 6131 N 575.113 -3.62919 -4.29239 0
M  V30 6132 H 567.264 -1.97411 -0.78374 0
M  V30 6133 H 569.527 -0.856113 -0.407154 0
M  V30 6134 H 569.233 -2.8768 -2.0232 0
M  V30 6135 H 569.107 -1.73471 -3.34944 0
M  V30 6136 H 571.494 -0.902677 -2.80955 0
M  V30 6137 H 571.575 -2.07904 -1.49029 0
M  V30 6138 H 571.219 -3.96227 -3.17752 0
M  V30 6139 H 571.149 -2.75638 -4.48699 0
M  V30 6140 H 573.64 -2.31061 -2.99031 0
M  V30 6141 H 573.953 -5.20445 -5.71276 0
M  V30 6142 H 572.298 -4.67537 -5.14232 0
M  V30 6143 H 575.489 -2.92833 -3.65194 0
M  V30 6144 H 575.662 -4.24777 -4.89355 0
M  V30 6145 N 569.068 1.32177 -0.85831 0
M  V30 6146 C 570.345 1.91781 -0.384624 0
M  V30 6147 C 570.725 1.78171 1.13217 0
M  V30 6148 O 570.073 1.18209 1.95548 0
M  V30 6149 C 570.283 3.38414 -0.853047 0
M  V30 6150 C 571.631 4.15542 -0.872359 0
M  V30 6151 O 572.655 3.47148 -0.797926 0
M  V30 6152 O 571.514 5.37678 -0.978009 0
M  V30 6153 H 568.608 0.819259 -0.112886 0
M  V30 6154 H 571.154 1.40923 -0.945453 0
M  V30 6155 H 569.926 3.4228 -1.89632 0
M  V30 6156 H 569.549 3.96683 -0.269874 0
M  V30 6157 N 570.547 0.616602 1.45037 0
M  V30 6158 C 571.457 -0.0985401 2.34393 0
M  V30 6159 C 572.473 -0.850971 1.51771 0
M  V30 6160 O 573.649 -0.806521 1.84546 0
M  V30 6161 C 570.714 -1.07748 3.29532 0
M  V30 6162 C 569.775 -0.326022 4.2806 0
M  V30 6163 C 569.008 -1.25833 5.18654 0
M  V30 6164 O 569.231 -2.49652 5.12864 0
M  V30 6165 O 568.165 -0.750512 5.97203 0
M  V30 6166 H 571.991 0.636016 2.96966 0
M  V30 6167 H 569.576 0.376832 1.44569 0
M  V30 6168 H 571.458 -1.64107 3.88133 0
M  V30 6169 H 570.133 -1.79291 2.69512 0
M  V30 6170 H 569.04 0.280253 3.73049 0
M  V30 6171 H 570.373 0.349091 4.9096 0
M  V30 6172 N 572.025 -1.5352 0.356285 0
M  V30 6173 C 573.302 -1.93405 -0.292223 0
M  V30 6174 C 573.682 -1.28901 -1.67176 0
M  V30 6175 O 573.03 -0.444632 -2.24132 0
M  V30 6176 C 573.24 -3.47223 -0.35175 0
M  V30 6177 C 574.588 -4.20389 -0.596534 0
M  V30 6178 O 575.612 -3.53554 -0.433344 0
M  V30 6179 O 574.471 -5.3881 -0.913589 0
M  V30 6180 H 571.565 -0.808666 -0.173172 0
M  V30 6181 H 574.111 -1.64713 0.408391 0
M  V30 6182 H 572.883 -3.86423 0.615841 0
M  V30 6183 H 572.506 -3.8212 -1.09864 0
M  V30 6184 N 573.503 -0.0852151 -1.57369 0
M  V30 6185 C 574.433 0.874556 -2.16503 0
M  V30 6186 C 575.414 1.30111 -1.09568 0
M  V30 6187 O 576.599 1.36977 -1.37662 0
M  V30 6188 C 573.729 2.13731 -2.73745 0
M  V30 6189 C 572.683 1.84971 -3.85966 0
M  V30 6190 C 572.009 3.17991 -4.29867 0
M  V30 6191 C 573.309 1.14442 -5.09608 0
M  V30 6192 H 575.003 0.381899 -2.96954 0
M  V30 6193 H 572.549 0.18225 -1.42842 0
M  V30 6194 H 574.502 2.81302 -3.13763 0
M  V30 6195 H 573.226 2.65263 -1.90534 0
M  V30 6196 H 571.885 1.19801 -3.46473 0
M  V30 6197 H 571.533 3.6739 -3.4356 0
M  V30 6198 H 571.233 2.99534 -5.05523 0
M  V30 6199 H 572.757 3.86737 -4.72511 0
M  V30 6200 H 574.171 1.72105 -5.46857 0
M  V30 6201 H 572.568 1.06197 -5.90629 0
M  V30 6202 H 573.638 0.12559 -4.84737 0
M  V30 6203 N 574.981 1.5647 0.188427 0
M  V30 6204 C 576.209 1.85131 0.923803 0
M  V30 6205 C 576.624 0.668537 1.76567 0
M  V30 6206 O 575.981 -0.362662 1.7886 0
M  V30 6207 C 576.032 3.12661 1.81453 0
M  V30 6208 O 575.753 4.26378 1.00665 0
M  V30 6209 C 577.254 3.54548 2.66103 0
M  V30 6210 H 574.474 0.614624 0.269218 0
M  V30 6211 H 577.018 2.03581 0.193671 0
M  V30 6212 H 575.173 2.96088 2.49821 0
M  V30 6213 H 575.587 4.99041 1.61425 0
M  V30 6214 H 577.061 4.4673 3.24247 0
M  V30 6215 H 577.538 2.77853 3.40139 0
M  V30 6216 H 578.144 3.73674 2.03096 0
M  V30 6217 N 576.459 -0.456382 1.50847 0
M  V30 6218 C 577.369 -1.57805 1.73594 0
M  V30 6219 C 578.385 -1.62599 0.619476 0
M  V30 6220 O 579.561 -1.80195 0.899532 0
M  V30 6221 C 576.626 -2.93926 1.8387 0
M  V30 6222 C 575.687 -2.99402 3.07663 0
M  V30 6223 C 574.92 -4.29031 3.1744 0
M  V30 6224 O 575.143 -5.20358 2.33631 0
M  V30 6225 O 574.077 -4.40401 4.10281 0
M  V30 6226 H 577.903 -1.41531 2.68705 0
M  V30 6227 H 575.488 -0.637422 1.3512 0
M  V30 6228 H 577.37 -3.74747 1.92725 0
M  V30 6229 H 576.045 -3.10368 0.91944 0
M  V30 6230 H 574.952 -2.17606 3.043 0
M  V30 6231 H 576.285 -2.87901 3.99216 0
M  V30 6232 N 577.937 -1.40673 -0.710563 0
M  V30 6233 C 578.847 -1.43663 -1.85467 0
M  V30 6234 C 579.863 -0.328721 -1.70867 0
M  V30 6235 O 581.039 -0.574098 -1.93044 0
M  V30 6236 C 578.104 -1.30226 -3.21313 0
M  V30 6237 C 577.165 -2.51204 -3.48131 0
M  V30 6238 C 576.398 -2.38398 -4.77495 0
M  V30 6239 O 576.621 -1.40048 -5.5294 0
M  V30 6240 O 575.555 -3.2787 -5.04762 0
M  V30 6241 H 579.381 -2.40156 -1.859 0
M  V30 6242 H 576.966 -1.22049 -0.861652 0
M  V30 6243 H 578.848 -1.2496 -4.02446 0
M  V30 6244 H 577.523 -0.368419 -3.21597 0
M  V30 6245 H 576.43 -2.62048 -2.66987 0
M  V30 6246 H 577.763 -3.43366 -3.52648 0
M  V30 6247 N 579.415 0.9433 -1.26252 0
M  V30 6248 C 580.663 1.68592 -1.11451 0
M  V30 6249 C 580.984 1.91957 0.343123 0
M  V30 6250 O 580.254 1.51475 1.24226 0
M  V30 6251 H 578.834 0.624789 -0.409448 0
M  V30 6252 H 581.496 1.13351 -1.58548 0
M  V30 6253 H 580.592 2.66054 -1.63162 0
M  V30 6254 N 580.893 1.08022 1.14757 0
M  V30 6255 C 581.823 0.728248 2.21853 0
M  V30 6256 C 582.804 -0.287486 1.67653 0
M  V30 6257 O 583.989 -0.158727 1.9355 0
M  V30 6258 C 581.119 0.132549 3.47047 0
M  V30 6259 C 580.073 1.07619 4.14249 0
M  V30 6260 C 579.399 0.342907 5.33599 0
M  V30 6261 C 580.699 2.41268 4.63235 0
M  V30 6262 H 582.393 1.62365 2.51551 0
M  V30 6263 H 579.939 0.782125 1.20908 0
M  V30 6264 H 581.892 -0.125665 4.21213 0
M  V30 6265 H 580.616 -0.797971 3.16702 0
M  V30 6266 H 579.275 1.31944 3.42033 0
M  V30 6267 H 578.923 -0.59129 4.99513 0
M  V30 6268 H 578.623 0.971955 5.79506 0
M  V30 6269 H 580.147 0.0926538 6.1053 0
M  V30 6270 H 581.561 2.21232 5.28894 0
M  V30 6271 H 579.958 2.9983 5.19829 0
M  V30 6272 H 581.028 3.03079 3.78512 0
M  V30 6273 N 582.371 -1.3172 0.865308 0
M  V30 6274 C 583.787 -1.4958 0.556596 0
M  V30 6275 C 583.987 -1.79763 -0.910353 0
M  V30 6276 O 583.043 -1.87351 -1.6928 0
M  V30 6277 C 584.356 -2.63277 1.45279 0
M  V30 6278 C 585.904 -2.77161 1.45433 0
M  V30 6279 C 586.379 -3.93949 2.33598 0
M  V30 6280 N 587.87 -4.01228 2.31453 0
M  V30 6281 C 588.605 -4.90855 2.96393 0
M  V30 6282 N 588.101 -5.85416 3.70486 0
M  V30 6283 N 589.894 -4.84063 2.85726 0
M  V30 6284 H 582.045 -1.10396 1.81456 0
M  V30 6285 H 584.308 -0.54507 0.775631 0
M  V30 6286 H 584.014 -2.47734 2.49641 0
M  V30 6287 H 583.888 -3.59309 1.14792 0
M  V30 6288 H 586.275 -2.9212 0.41831 0
M  V30 6289 H 586.356 -1.8181 1.79941 0
M  V30 6290 H 586 -3.79748 3.37274 0
M  V30 6291 H 585.93 -4.88598 1.96417 0
M  V30 6292 H 588.421 -3.3357 1.77593 0
M  V30 6293 H 588.734 -6.50525 4.17178 0
M  V30 6294 H 587.079 -5.85409 3.74594 0
M  V30 6295 H 590.27 -4.09163 2.27384 0
M  V30 6296 H 590.443 -5.53708 3.36617 0
M  V30 6297 N 583.85 -0.624285 -1.44708 0
M  V30 6298 C 585.099 -0.123539 -2.01321 0
M  V30 6299 C 585.412 1.25966 -1.49639 0
M  V30 6300 O 586.618 1.85405 -1.98336 0
M  V30 6301 C 585.074 -0.170124 -3.59498 0
M  V30 6302 C 584.682 -1.55421 -4.20176 0
M  V30 6303 C 586.426 0.274513 -4.23611 0
M  V30 6304 C 584.332 -1.55628 -5.70556 0
M  V30 6305 H 583.263 -0.0424183 -0.752806 0
M  V30 6306 H 585.913 -0.782076 -1.65999 0
M  V30 6307 H 584.296 0.555385 -3.92086 0
M  V30 6308 H 585.47 -2.30276 -3.99136 0
M  V30 6309 H 583.784 -1.94235 -3.68323 0
M  V30 6310 H 586.382 0.292402 -5.339 0
M  V30 6311 H 586.725 1.3005 -3.95465 0
M  V30 6312 H 587.258 -0.398275 -3.95801 0
M  V30 6313 H 583.997 -2.56041 -6.03426 0
M  V30 6314 H 583.517 -0.850563 -5.93739 0
M  V30 6315 H 585.196 -1.28721 -6.34066 0
M  V30 6316 N 585.328 1.53329 -0.364422 0
M  V30 6317 C 586.575 2.01239 0.225634 0
M  V30 6318 C 586.903 1.25172 1.48869 0
M  V30 6319 O 586.158 0.333289 1.92841 0
M  V30 6320 C 586.457 3.52911 0.564661 0
M  V30 6321 C 586.123 4.46837 -0.603936 0
M  V30 6322 C 584.785 4.72234 -0.924585 0
M  V30 6323 C 587.137 5.02409 -1.38691 0
M  V30 6324 C 584.465 5.50454 -2.0302 0
M  V30 6325 C 586.817 5.81836 -2.48293 0
M  V30 6326 C 585.481 6.0552 -2.80894 0
M  V30 6327 H 584.751 0.736386 0.0825654 0
M  V30 6328 H 587.398 1.84948 -0.496645 0
M  V30 6329 H 585.703 3.67144 1.36794 0
M  V30 6330 H 587.4 3.87455 1.03344 0
M  V30 6331 H 583.99 4.27217 -0.343983 0
M  V30 6332 H 588.174 4.82735 -1.15243 0
M  V30 6333 H 583.43 5.67024 -2.28678 0
M  V30 6334 H 587.604 6.23905 -3.0938 0
M  V30 6335 H 585.231 6.65916 -3.66688 0
M  V30 6336 N 586.806 0.0935595 1.57322 0
M  V30 6337 C 588.034 -0.578934 1.98635 0
M  V30 6338 C 588.449 -1.61819 0.972626 0
M  V30 6339 O 587.806 -1.82461 -0.0379638 0
M  V30 6340 C 587.857 -1.22802 3.40003 0
M  V30 6341 O 587.578 -0.230334 4.37494 0
M  V30 6342 C 589.079 -1.98627 3.96311 0
M  V30 6343 H 586.299 -0.155324 0.652775 0
M  V30 6344 H 588.843 0.172393 2.03772 0
M  V30 6345 H 586.998 -1.93029 3.35885 0
M  V30 6346 H 587.412 -0.698649 5.19826 0
M  V30 6347 H 588.886 -2.39405 4.97382 0
M  V30 6348 H 589.363 -2.85151 3.34044 0
M  V30 6349 H 589.969 -1.3322 4.03897 0
M  V30 6350 N 588.284 -1.56567 -0.180126 0
M  V30 6351 C 589.509 -1.85975 -0.918041 0
M  V30 6352 C 589.934 -0.678888 -1.75422 0
M  V30 6353 O 589.292 0.372168 -1.77439 0
M  V30 6354 C 589.34 -3.13731 -1.77779 0
M  V30 6355 O 588.444 -2.95335 -2.87838 0
M  V30 6356 H 587.785 -0.61196 -0.257683 0
M  V30 6357 H 590.315 -2.03798 -0.180923 0
M  V30 6358 H 590.325 -3.4491 -2.17948 0
M  V30 6359 H 589 -3.99293 -1.16352 0
M  V30 6360 H 587.577 -2.7549 -2.51316 0
M  V30 6361 N 589.762 0.448376 -1.51087 0
M  V30 6362 C 591.009 1.19872 -1.63209 0
M  V30 6363 C 591.337 1.91451 -0.343062 0
M  V30 6364 O 590.592 1.83789 0.672321 0
M  V30 6365 C 590.891 2.24866 -2.77795 0
M  V30 6366 C 590.557 1.70378 -4.17471 0
M  V30 6367 C 589.219 1.55241 -4.55471 0
M  V30 6368 C 591.571 1.30203 -5.04675 0
M  V30 6369 C 588.899 0.983844 -5.78392 0
M  V30 6370 C 591.251 0.747798 -6.28165 0
M  V30 6371 C 589.915 0.583233 -6.64947 0
M  V30 6372 H 589.185 0.438642 -0.597222 0
M  V30 6373 H 591.832 0.49136 -1.85089 0
M  V30 6374 H 590.137 3.01598 -2.50092 0
M  V30 6375 H 591.834 2.82723 -2.84374 0
M  V30 6376 H 588.424 1.83134 -3.87505 0
M  V30 6377 H 592.608 1.40723 -4.75932 0
M  V30 6378 H 587.864 0.844007 -6.05546 0
M  V30 6379 H 592.038 0.427927 -6.95084 0
M  V30 6380 H 589.665 0.140532 -7.6007 0
M  V30 6381 N 591.24 1.41047 0.703093 0
M  V30 6382 C 592.517 1.30493 1.45708 0
M  V30 6383 C 592.897 -0.0709892 2.10981 0
M  V30 6384 O 592.245 -1.08471 2.01113 0
M  V30 6385 C 592.455 2.45287 2.48265 0
M  V30 6386 C 593.803 2.86104 3.13735 0
M  V30 6387 O 594.827 2.44971 2.58587 0
M  V30 6388 O 593.686 3.57206 4.13601 0
M  V30 6389 H 590.78 0.513144 0.648546 0
M  V30 6390 H 593.326 1.52995 0.734208 0
M  V30 6391 H 592.098 3.37135 1.98635 0
M  V30 6392 H 591.721 2.24622 3.28071 0
M  V30 6393 N 592.718 -0.936591 1.26751 0
M  V30 6394 C 594.129 -1.49816 1.1141 0
M  V30 6395 C 594.48 -1.9383 -0.304015 0
M  V30 6396 O 593.605 -1.80346 -1.196 0
M  V30 6397 C 594.2 -2.72271 2.01629 0
M  V30 6398 C 592.759 -3.2468 1.9042 0
M  V30 6399 C 591.906 -1.97444 1.94708 0
M  V30 6400 H 594.857 -0.751604 1.39773 0
M  V30 6401 H 594.878 -3.46741 1.56688 0
M  V30 6402 H 594.39 -2.40205 3.04833 0
M  V30 6403 H 592.491 -3.61525 0.901674 0
M  V30 6404 H 592.604 -3.91476 2.76195 0
M  V30 6405 H 590.968 -2.13545 1.38818 0
M  V30 6406 H 591.751 -1.67703 2.9955 0
M  V30 6407 N 594.196 -1.08629 -1.14182 0
M  V30 6408 C 595.445 -0.812271 -1.84621 0
M  V30 6409 C 595.758 0.664313 -1.83973 0
M  V30 6410 O 596.964 1.05357 -2.50224 0
M  V30 6411 C 595.42 -1.4031 -3.31423 0
M  V30 6412 C 595.028 -2.91164 -3.40481 0
M  V30 6413 C 596.772 -1.20767 -4.06959 0
M  V30 6414 C 594.679 -3.43373 -4.81507 0
M  V30 6415 H 593.609 -0.30019 -0.691666 0
M  V30 6416 H 596.26 -1.30798 -1.28701 0
M  V30 6417 H 594.642 -0.835096 -3.87094 0
M  V30 6418 H 595.816 -3.5412 -2.94848 0
M  V30 6419 H 594.131 -3.09646 -2.78403 0
M  V30 6420 H 596.728 -1.57237 -5.11058 0
M  V30 6421 H 597.071 -0.147664 -4.16038 0
M  V30 6422 H 597.604 -1.74274 -3.57594 0
M  V30 6423 H 594.343 -4.48958 -4.77616 0
M  V30 6424 H 593.863 -2.85176 -5.27669 0
M  V30 6425 H 595.542 -3.40095 -5.50404 0
M  V30 6426 N 595.674 1.31259 -0.872281 0
M  V30 6427 C 596.604 2.30929 -0.345554 0
M  V30 6428 C 597.585 1.60449 0.5648 0
M  V30 6429 O 598.77 1.8814 0.481335 0
M  V30 6430 C 595.9 3.44348 0.451823 0
M  V30 6431 C 594.854 4.26435 -0.365641 0
M  V30 6432 C 594.18 5.31785 0.557562 0
M  V30 6433 C 595.48 4.97159 -1.60095 0
M  V30 6434 H 597.174 2.75234 -1.17841 0
M  V30 6435 H 594.72 1.3232 -0.568094 0
M  V30 6436 H 596.673 4.13128 0.830854 0
M  V30 6437 H 595.397 2.98816 1.31821 0
M  V30 6438 H 594.056 3.59326 -0.726649 0
M  V30 6439 H 593.704 4.82502 1.4213 0
M  V30 6440 H 593.404 5.87598 0.0144878 0
M  V30 6441 H 594.928 6.03424 0.933387 0
M  V30 6442 H 596.342 5.58523 -1.29323 0
M  V30 6443 H 594.739 5.62779 -2.08327 0
M  V30 6444 H 595.809 4.24012 -2.35249 0
M  V30 6445 N 597.152 0.631951 1.44375 0
M  V30 6446 C 598.084 -0.110911 2.28931 0
M  V30 6447 C 599.097 -0.808086 1.41329 0
M  V30 6448 O 600.286 -0.669396 1.65473 0
M  V30 6449 C 597.386 -1.17928 3.1772 0
M  V30 6450 C 596.559 -0.564458 4.33743 0
M  V30 6451 C 595.618 -1.5269 5.0356 0
M  V30 6452 O 594.644 -1.04372 5.59549 0
M  V30 6453 N 595.846 -2.86123 5.05088 0
M  V30 6454 H 598.611 0.614758 2.93327 0
M  V30 6455 H 596.172 0.473171 1.54831 0
M  V30 6456 H 598.164 -1.82348 3.61291 0
M  V30 6457 H 596.734 -1.80717 2.55069 0
M  V30 6458 H 595.954 0.258373 3.93352 0
M  V30 6459 H 597.242 -0.134355 5.08623 0
M  V30 6460 H 596.64 -3.27959 4.60933 0
M  V30 6461 H 595.197 -3.45901 5.52445 0
M  V30 6462 N 598.631 -1.53133 0.372548 0
M  V30 6463 C 599.541 -2.29671 -0.478379 0
M  V30 6464 C 600.557 -1.35913 -1.08644 0
M  V30 6465 O 601.733 -1.68975 -1.09588 0
M  V30 6466 C 598.798 -3.07625 -1.599 0
M  V30 6467 C 597.859 -4.17061 -1.01776 0
M  V30 6468 C 597.092 -4.91289 -2.08497 0
M  V30 6469 O 597.315 -4.65442 -3.29727 0
M  V30 6470 O 596.249 -5.7705 -1.71164 0
M  V30 6471 H 600.075 -3.03355 0.144649 0
M  V30 6472 H 597.66 -1.48773 0.136729 0
M  V30 6473 H 599.542 -3.56281 -2.25038 0
M  V30 6474 H 598.217 -2.3677 -2.2073 0
M  V30 6475 H 597.124 -3.72641 -0.330098 0
M  V30 6476 H 598.457 -4.90102 -0.453915 0
M  V30 6477 N 600.109 -0.101901 -1.5727 0
M  V30 6478 C 601.056 0.854577 -2.14396 0
M  V30 6479 C 602.026 1.27521 -1.06432 0
M  V30 6480 O 603.211 1.35575 -1.34253 0
M  V30 6481 C 600.351 2.10576 -2.73408 0
M  V30 6482 C 599.464 1.73504 -3.95626 0
M  V30 6483 C 598.599 2.9346 -4.42781 0
M  V30 6484 C 597.638 2.52547 -5.57572 0
M  V30 6485 N 596.775 3.65359 -5.99547 0
M  V30 6486 H 601.615 0.360578 -2.9581 0
M  V30 6487 H 599.152 0.166303 -1.46157 0
M  V30 6488 H 601.11 2.83859 -3.05745 0
M  V30 6489 H 599.74 2.57463 -1.94711 0
M  V30 6490 H 598.792 0.901622 -3.6956 0
M  V30 6491 H 600.104 1.39426 -4.78917 0
M  V30 6492 H 599.258 3.74988 -4.76937 0
M  V30 6493 H 597.997 3.30753 -3.58404 0
M  V30 6494 H 597.002 1.69446 -5.23037 0
M  V30 6495 H 598.227 2.1639 -6.43702 0
M  V30 6496 H 596.173 4.02358 -5.18116 0
M  V30 6497 H 596.09 3.35148 -6.77652 0
M  V30 6498 H 597.358 4.47378 -6.38336 0
M  V30 6499 N 601.587 1.56661 0.17182 0
M  V30 6500 C 602.55 1.9549 1.19651 0
M  V30 6501 C 603.55 0.838501 1.37207 0
M  V30 6502 O 604.74 1.10556 1.34622 0
M  V30 6503 C 601.872 2.24927 2.56166 0
M  V30 6504 H 603.065 2.87184 0.864007 0
M  V30 6505 H 600.618 1.50711 0.41425 0
M  V30 6506 H 601.353 1.35944 2.94431 0
M  V30 6507 H 601.138 3.06301 2.4479 0
M  V30 6508 H 602.628 2.55891 3.30014 0
M  V30 6509 N 603.065 -0.440357 1.51323 0
M  V30 6510 C 603.975 -1.55955 1.75258 0
M  V30 6511 C 604.991 -1.61933 0.636687 0
M  V30 6512 O 606.167 -1.79231 0.918593 0
M  V30 6513 C 603.232 -2.9196 1.86977 0
M  V30 6514 C 602.293 -2.96122 3.10822 0
M  V30 6515 C 601.526 -4.2564 3.21973 0
M  V30 6516 O 601.749 -5.17851 2.39137 0
M  V30 6517 O 600.683 -4.36025 4.14929 0
M  V30 6518 H 604.509 -1.38673 2.70191 0
M  V30 6519 H 602.094 -0.623055 1.35788 0
M  V30 6520 H 603.976 -3.72682 1.96688 0
M  V30 6521 H 602.651 -3.09375 0.952307 0
M  V30 6522 H 601.558 -2.14366 3.06591 0
M  V30 6523 H 602.891 -2.83651 4.02247 0
M  V30 6524 N 604.543 -1.41418 -0.695603 0
M  V30 6525 C 605.771 -1.4413 -1.48439 0
M  V30 6526 C 606.186 -0.0465698 -1.88743 0
M  V30 6527 O 605.543 0.934117 -1.56782 0
M  V30 6528 C 605.594 -2.34998 -2.74696 0
M  V30 6529 O 605.315 -3.69043 -2.36091 0
M  V30 6530 C 606.816 -2.46513 -3.68438 0
M  V30 6531 H 604.036 -0.490905 -0.457442 0
M  V30 6532 H 606.58 -1.85702 -0.856454 0
M  V30 6533 H 604.735 -1.96735 -3.33728 0
M  V30 6534 H 605.149 -4.17505 -3.17474 0
M  V30 6535 H 606.623 -3.1426 -4.53811 0
M  V30 6536 H 607.1 -1.49638 -4.12922 0
M  V30 6537 H 607.706 -2.85412 -3.1531 0
M  V30 6538 N 606.021 0.929856 -1.27246 0
M  V30 6539 C 607.246 1.71674 -1.16374 0
M  V30 6540 C 607.671 1.86064 0.276024 0
M  V30 6541 O 607.029 1.3591 1.19992 0
M  V30 6542 C 607.077 3.09526 -1.85003 0
M  V30 6543 O 606.181 3.96142 -1.14653 0
M  V30 6544 H 605.522 0.52629 -0.404863 0
M  V30 6545 H 608.052 1.16381 -1.68276 0
M  V30 6546 H 608.062 3.59852 -1.92276 0
M  V30 6547 H 606.737 2.98369 -2.89739 0
M  V30 6548 H 605.314 3.54584 -1.15433 0
M  V30 6549 N 607.499 1.09233 1.13605 0
M  V30 6550 C 608.745 0.828385 1.8511 0
M  V30 6551 C 609.078 -0.64437 1.83198 0
M  V30 6552 O 608.353 -1.47428 1.26867 0
M  V30 6553 C 608.636 1.36167 3.33363 0
M  V30 6554 C 608.489 2.90038 3.438 0
M  V30 6555 C 609.808 0.993819 4.28732 0
M  V30 6556 H 606.927 0.30239 0.672108 0
M  V30 6557 H 609.569 1.35339 1.33355 0
M  V30 6558 H 607.719 0.9151 3.77569 0
M  V30 6559 H 609.391 3.43128 3.08319 0
M  V30 6560 H 607.634 3.27271 2.84739 0
M  V30 6561 H 608.305 3.22428 4.48045 0
M  V30 6562 H 610.781 1.37893 3.92587 0
M  V30 6563 H 609.657 1.39403 5.30903 0
M  V30 6564 H 609.918 -0.0982206 4.41991 0
M  V30 6565 N 608.977 -1.30795 0.87923 0
M  V30 6566 C 609.925 -2.30231 0.331112 0
M  V30 6567 C 610.919 -1.59918 -0.558794 0
M  V30 6568 O 612.125 -1.74441 -0.443866 0
M  V30 6569 H 608.5 -0.746785 0.088409 0
M  V30 6570 H 610.471 -2.73925 1.18353 0
M  V30 6571 C 609.22 -3.44848 -0.444401 0
M  V30 6572 H 608.543 -3.99131 0.231106 0
M  V30 6573 H 609.983 -4.16516 -0.793109 0
M  V30 6574 C 608.442 -2.94329 -1.63926 0
M  V30 6575 O 608.972 -2.93875 -2.73862 0
M  V30 6576 N 607.178 -2.50413 -1.4745 0
M  V30 6577 H 606.725 -2.50982 -0.58015 0
M  V30 6578 H 606.683 -2.16969 -2.27534 0
M  V30 6579 N 610.455 -0.639598 -1.44038 0
M  V30 6580 C 611.365 0.0612377 -2.3452 0
M  V30 6581 C 612.381 0.826717 -1.53106 0
M  V30 6582 O 613.557 0.777059 -1.85806 0
M  V30 6583 C 610.622 1.02492 -3.31204 0
M  V30 6584 C 609.683 0.25788 -4.28525 0
M  V30 6585 C 608.916 1.17566 -5.2059 0
M  V30 6586 O 609.139 2.41461 -5.16771 0
M  V30 6587 O 608.073 0.655407 -5.98321 0
M  V30 6588 H 611.899 -0.68318 -2.95916 0
M  V30 6589 H 609.484 -0.399784 -1.43952 0
M  V30 6590 H 611.366 1.57911 -3.90694 0
M  V30 6591 H 610.041 1.7498 -2.7233 0
M  V30 6592 H 608.948 -0.339566 -3.72556 0
M  V30 6593 H 610.281 -0.427154 -4.90343 0
M  V30 6594 N 611.933 1.52934 -0.380664 0
M  V30 6595 C 613.161 2.05886 0.204599 0
M  V30 6596 C 613.576 1.25305 1.41223 0
M  V30 6597 O 612.933 0.297504 1.80059 0
M  V30 6598 C 612.984 3.56764 0.583249 0
M  V30 6599 O 612.705 4.34292 -0.576398 0
M  V30 6600 C 614.206 4.2603 1.2253 0
M  V30 6601 H 611.426 0.670193 0.0328991 0
M  V30 6602 H 613.97 1.97148 -0.543397 0
M  V30 6603 H 612.125 3.65603 1.28115 0
M  V30 6604 H 612.539 5.23819 -0.267119 0
M  V30 6605 H 614.013 5.32868 1.44068 0
M  V30 6606 H 614.49 3.80698 2.19011 0
M  V30 6607 H 615.096 4.21485 0.568407 0
M  V30 6608 N 613.412 0.11024 1.57214 0
M  V30 6609 C 614.342 -0.840002 2.17867 0
M  V30 6610 C 615.323 -1.28352 1.11624 0
M  V30 6611 O 616.508 -1.3477 1.39824 0
M  V30 6612 C 613.638 -2.09349 2.77111 0
M  V30 6613 C 612.592 -1.78807 3.8886 0
M  V30 6614 C 611.918 -3.11112 4.34872 0
M  V30 6615 C 613.218 -1.0632 5.11364 0
M  V30 6616 H 614.912 -0.334608 2.97524 0
M  V30 6617 H 612.458 -0.159502 1.43114 0
M  V30 6618 H 614.411 -2.76275 3.18198 0
M  V30 6619 H 613.135 -2.62198 1.9473 0
M  V30 6620 H 611.794 -1.14273 3.48335 0
M  V30 6621 H 611.442 -3.61877 3.49362 0
M  V30 6622 H 611.142 -2.91453 5.10224 0
M  V30 6623 H 612.666 -3.79171 4.78604 0
M  V30 6624 H 614.08 -1.63383 5.49526 0
M  V30 6625 H 612.477 -0.967876 5.92243 0
M  V30 6626 H 613.547 -0.0484569 4.84876 0
M  V30 6627 N 614.89 -1.56749 -0.16351 0
M  V30 6628 C 615.837 -1.97011 -1.2023 0
M  V30 6629 C 616.807 -0.835186 -1.43575 0
M  V30 6630 O 617.992 -1.09594 -1.56185 0
M  V30 6631 C 615.132 -2.34186 -2.53478 0
M  V30 6632 C 614.245 -3.60893 -2.37446 0
M  V30 6633 C 613.38 -3.87245 -3.63614 0
M  V30 6634 C 612.419 -5.07274 -3.42548 0
M  V30 6635 N 611.556 -5.29719 -4.60806 0
M  V30 6636 H 616.396 -2.85562 -0.851958 0
M  V30 6637 H 613.933 -1.41292 -0.409257 0
M  V30 6638 H 615.891 -2.53764 -3.31149 0
M  V30 6639 H 614.521 -1.48736 -2.86492 0
M  V30 6640 H 613.573 -3.49185 -1.50911 0
M  V30 6641 H 614.885 -4.48722 -2.1783 0
M  V30 6642 H 614.039 -4.07232 -4.49719 0
M  V30 6643 H 612.778 -2.97806 -3.86216 0
M  V30 6644 H 611.783 -4.87177 -2.5483 0
M  V30 6645 H 613.008 -5.98251 -3.2136 0
M  V30 6646 H 610.954 -4.43233 -4.83612 0
M  V30 6647 H 610.871 -6.11786 -4.44132 0
M  V30 6648 H 612.139 -5.54192 -5.48171 0
M  V30 6649 N 616.368 0.432326 -1.51554 0
M  V30 6650 C 617.784 0.769195 -1.39841 0
M  V30 6651 C 617.984 1.95584 -0.484675 0
M  V30 6652 O 617.04 2.52433 0.0582829 0
M  V30 6653 C 618.353 1.04487 -2.81963 0
M  V30 6654 C 619.901 1.149 -2.91148 0
M  V30 6655 C 620.376 1.45758 -4.34187 0
M  V30 6656 N 621.867 1.52671 -4.37317 0
M  V30 6657 C 622.602 1.78129 -5.4503 0
M  V30 6658 N 622.098 2.01345 -6.62897 0
M  V30 6659 N 623.891 1.79953 -5.32516 0
M  V30 6660 H 616.042 -0.349122 -2.09511 0
M  V30 6661 H 618.305 -0.0938113 -0.943347 0
M  V30 6662 H 618.011 0.24557 -3.50842 0
M  V30 6663 H 617.885 1.97119 -3.21596 0
M  V30 6664 H 620.272 1.93891 -2.22464 0
M  V30 6665 H 620.353 0.201568 -2.55005 0
M  V30 6666 H 619.997 0.672917 -5.03423 0
M  V30 6667 H 619.927 2.41715 -4.67848 0
M  V30 6668 H 622.418 1.36612 -3.52343 0
M  V30 6669 H 622.731 2.20155 -7.40778 0
M  V30 6670 H 621.076 1.98657 -6.66003 0
M  V30 6671 H 624.267 1.61337 -4.39418 0
M  V30 6672 H 624.44 1.99455 -6.1654 0
M  V30 6673 N 617.846 1.41785 0.688094 0
M  V30 6674 C 618.776 1.47 1.8142 0
M  V30 6675 C 619.757 0.327881 1.6691 0
M  V30 6676 O 620.942 0.540362 1.86531 0
M  V30 6677 C 618.072 1.35876 3.19617 0
M  V30 6678 C 617.026 2.47976 3.48844 0
M  V30 6679 C 616.352 2.21915 4.86475 0
M  V30 6680 C 617.652 3.90309 3.47068 0
M  V30 6681 H 619.346 2.41247 1.77314 0
M  V30 6682 H 616.892 1.16116 0.851651 0
M  V30 6683 H 618.845 1.38134 3.98117 0
M  V30 6684 H 617.569 0.38116 3.24368 0
M  V30 6685 H 616.228 2.45013 2.72698 0
M  V30 6686 H 615.876 1.2248 4.8786 0
M  V30 6687 H 615.576 2.97037 5.06994 0
M  V30 6688 H 617.1 2.25901 5.67275 0
M  V30 6689 H 618.514 3.94947 4.1556 0
M  V30 6690 H 616.911 4.65175 3.7912 0
M  V30 6691 H 617.981 4.17927 2.45896 0
M  V30 6692 N 619.324 -0.923095 1.27737 0
M  V30 6693 C 620.549 -1.71054 1.17283 0
M  V30 6694 C 620.974 -1.86208 -0.266153 0
M  V30 6695 O 620.332 -1.36545 -1.1927 0
M  V30 6696 C 620.38 -3.0854 1.86642 0
M  V30 6697 O 619.484 -3.95528 1.16752 0
M  V30 6698 H 618.825 -0.524136 0.407649 0
M  V30 6699 H 621.355 -1.15487 1.6889 0
M  V30 6700 H 621.365 -3.58828 1.94182 0
M  V30 6701 H 620.04 -2.96828 2.91317 0
M  V30 6702 H 618.617 -3.53967 1.17312 0
M  V30 6703 N 620.802 -1.09834 -1.13024 0
M  V30 6704 C 622.05 -0.835297 -1.8403 0
M  V30 6705 C 622.371 0.640944 -1.84165 0
M  V30 6706 O 621.641 1.46517 -1.30037 0
M  V30 6707 H 620.221 -0.306018 -0.681441 0
M  V30 6708 H 622.883 -1.38734 -1.36891 0
M  V30 6709 H 621.979 -1.19258 -2.88416 0
M  V30 6710 N 622.28 1.30327 -0.886154 0
M  V30 6711 C 623.696 1.48676 -0.580323 0
M  V30 6712 C 623.896 1.81189 0.881639 0
M  V30 6713 O 622.952 1.90021 1.66278 0
M  V30 6714 C 624.265 2.60932 -1.49449 0
M  V30 6715 C 625.813 2.74812 -1.49824 0
M  V30 6716 C 626.288 3.90183 -2.39836 0
M  V30 6717 N 627.779 3.97495 -2.37806 0
M  V30 6718 C 628.514 4.86078 -3.04165 0
M  V30 6719 N 628.01 5.79448 -3.79753 0
M  V30 6720 N 629.803 4.79456 -2.93391 0
M  V30 6721 H 621.954 1.07495 -1.8319 0
M  V30 6722 H 624.217 0.532661 -0.784204 0
M  V30 6723 H 623.923 2.43731 -2.5355 0
M  V30 6724 H 623.797 3.57437 -1.20494 0
M  V30 6725 H 626.184 2.91418 -0.464731 0
M  V30 6726 H 626.265 1.78924 -1.82811 0
M  V30 6727 H 625.909 3.74334 -3.43273 0
M  V30 6728 H 625.839 4.85411 -2.04166 0
M  V30 6729 H 628.33 3.30703 -1.82877 0
M  V30 6730 H 628.643 6.43805 -4.27475 0
M  V30 6731 H 626.988 5.79376 -3.8386 0
M  V30 6732 H 630.179 4.05494 -2.33864 0
M  V30 6733 H 630.352 5.48283 -3.45383 0
M  V30 6734 N 623.758 0.647228 1.43697 0
M  V30 6735 C 624.705 -0.0480092 2.3075 0
M  V30 6736 C 625.675 -0.820705 1.44408 0
M  V30 6737 O 626.86 -0.798515 1.73287 0
M  V30 6738 C 624 -1.01259 3.2991 0
M  V30 6739 C 623.113 -0.236629 4.31351 0
M  V30 6740 C 622.248 -1.19447 5.17596 0
M  V30 6741 C 621.287 -0.408595 6.10735 0
M  V30 6742 N 620.424 -1.31772 6.89623 0
M  V30 6743 H 625.264 0.700238 2.89656 0
M  V30 6744 H 622.801 0.357082 1.427 0
M  V30 6745 H 624.759 -1.58538 3.85903 0
M  V30 6746 H 623.389 -1.72778 2.72667 0
M  V30 6747 H 622.441 0.452353 3.77701 0
M  V30 6748 H 623.753 0.374731 4.9739 0
M  V30 6749 H 622.907 -1.83809 5.78186 0
M  V30 6750 H 621.646 -1.83975 4.51669 0
M  V30 6751 H 620.651 0.24841 5.49239 0
M  V30 6752 H 621.876 0.232188 6.78703 0
M  V30 6753 H 619.822 -1.94991 6.2635 0
M  V30 6754 H 619.739 -0.760779 7.52162 0
M  V30 6755 H 621.007 -1.94967 7.54724 0
M  V30 6756 N 625.236 -1.5273 0.388769 0
M  V30 6757 C 626.484 -2.01174 -0.193208 0
M  V30 6758 C 626.805 -1.27705 -1.47365 0
M  V30 6759 O 626.075 -0.396966 -1.91836 0
M  V30 6760 H 624.655 -0.743287 -0.0743871 0
M  V30 6761 H 627.317 -1.87826 0.520336 0
M  V30 6762 H 626.413 -3.09477 -0.403803 0
M  V30 6763 N 626.714 -0.118576 -1.57153 0
M  V30 6764 C 627.96 0.540326 -1.95469 0
M  V30 6765 C 628.293 1.66356 -1.00196 0
M  V30 6766 O 627.568 1.94461 -0.039104 0
M  V30 6767 C 627.851 1.07342 -3.43729 0
M  V30 6768 C 627.704 -0.0463732 -4.49776 0
M  V30 6769 C 629.023 1.96442 -3.93826 0
M  V30 6770 H 626.142 0.19494 -0.710751 0
M  V30 6771 H 628.784 -0.19405 -1.89006 0
M  V30 6772 H 626.934 1.69925 -3.49368 0
M  V30 6773 H 628.606 -0.681648 -4.56236 0
M  V30 6774 H 626.849 -0.709574 -4.27957 0
M  V30 6775 H 627.52 0.367856 -5.50773 0
M  V30 6776 H 629.996 1.43731 -3.90488 0
M  V30 6777 H 628.872 2.3066 -4.98084 0
M  V30 6778 H 629.133 2.89077 -3.34495 0
M  V30 6779 N 628.193 1.56834 0.155195 0
M  V30 6780 C 629.47 1.73799 0.897395 0
M  V30 6781 C 629.85 0.684379 1.99698 0
M  V30 6782 O 629.198 -0.298111 2.26547 0
M  V30 6783 C 629.408 3.17572 1.44737 0
M  V30 6784 C 630.756 3.79014 1.91399 0
M  V30 6785 O 631.78 3.20951 1.54496 0
M  V30 6786 O 630.639 4.80998 2.59429 0
M  V30 6787 H 627.733 0.710329 0.423511 0
M  V30 6788 H 630.279 1.69107 0.141761 0
M  V30 6789 H 629.051 3.85749 0.656741 0
M  V30 6790 H 628.674 3.26657 2.26674 0
M  V30 6791 N 629.671 -0.424282 1.51781 0
M  V30 6792 C 630.603 -1.53457 1.70246 0
M  V30 6793 C 631.616 -1.52004 0.582967 0
M  V30 6794 O 632.805 -1.56544 0.857683 0
M  V30 6795 C 629.905 -2.92368 1.71389 0
M  V30 6796 C 629.078 -3.1818 3.00133 0
M  V30 6797 C 628.137 -4.36884 2.9329 0
M  V30 6798 O 627.163 -4.34901 3.67219 0
M  V30 6799 N 628.365 -5.4117 2.10036 0
M  V30 6800 H 631.13 -1.38017 2.66029 0
M  V30 6801 H 628.691 -0.613394 1.4983 0
M  V30 6802 H 630.683 -3.6982 1.64362 0
M  V30 6803 H 629.253 -3.0134 0.831449 0
M  V30 6804 H 628.473 -2.28908 3.20928 0
M  V30 6805 H 629.761 -3.32261 3.85331 0
M  V30 6806 H 629.159 -5.45623 1.49373 0
M  V30 6807 H 627.716 -6.17425 2.08878 0
M  V30 6808 N 631.149 -1.42148 -0.680565 0
M  V30 6809 C 632.395 -1.42521 -1.44277 0
M  V30 6810 C 632.728 -0.0393718 -1.9416 0
M  V30 6811 O 632.003 0.935425 -1.70529 0
M  V30 6812 C 632.286 -2.44475 -2.64394 0
M  V30 6813 C 632.139 -3.92226 -2.20179 0
M  V30 6814 C 633.458 -2.43491 -3.66606 0
M  V30 6815 H 630.577 -0.518985 -0.523282 0
M  V30 6816 H 633.219 -1.73524 -0.773914 0
M  V30 6817 H 631.369 -2.18168 -3.21458 0
M  V30 6818 H 633.041 -4.29493 -1.68327 0
M  V30 6819 H 631.284 -4.0637 -1.5181 0
M  V30 6820 H 631.955 -4.59133 -3.06433 0
M  V30 6821 H 634.431 -2.66872 -3.19247 0
M  V30 6822 H 633.307 -3.16816 -4.4824 0
M  V30 6823 H 633.568 -1.45881 -4.17338 0
M  V30 6824 N 632.627 0.916307 -1.28225 0
M  V30 6825 C 633.537 2.05165 -1.13775 0
M  V30 6826 C 634.553 1.73879 -0.0649418 0
M  V30 6827 O 635.729 1.99531 -0.273722 0
M  V30 6828 C 632.794 3.37385 -0.798267 0
M  V30 6829 C 631.855 3.82296 -1.95316 0
M  V30 6830 C 631.088 5.08206 -1.62978 0
M  V30 6831 O 631.311 5.6781 -0.542948 0
M  V30 6832 O 630.245 5.48768 -2.47261 0
M  V30 6833 H 634.071 2.20273 -2.09078 0
M  V30 6834 H 631.656 1.0373 -1.07519 0
M  V30 6835 H 633.538 4.16773 -0.62278 0
M  V30 6836 H 632.213 3.23458 0.125139 0
M  V30 6837 H 631.12 3.03746 -2.18378 0
M  V30 6838 H 632.453 4.00782 -2.85718 0
M  V30 6839 N 634.105 1.10431 1.1244 0
M  V30 6840 C 635.068 0.756542 2.16354 0
M  V30 6841 C 636.068 -0.21899 1.59302 0
M  V30 6842 O 637.258 0.00415969 1.742 0
M  V30 6843 C 634.39 0.120612 3.40687 0
M  V30 6844 H 635.583 1.67696 2.48632 0
M  V30 6845 H 633.136 0.904832 1.27446 0
M  V30 6846 H 633.871 -0.810536 3.14008 0
M  V30 6847 H 633.656 0.822693 3.83372 0
M  V30 6848 H 635.146 -0.106945 4.17463 0
M  V30 6849 N 635.583 -1.29855 0.893053 0
M  V30 6850 C 636.546 -2.26183 0.370687 0
M  V30 6851 C 637.546 -1.53108 -0.491385 0
M  V30 6852 O 638.736 -1.71643 -0.297386 0
M  V30 6853 C 635.868 -3.37633 -0.470827 0
M  V30 6854 H 637.061 -2.73903 1.22135 0
M  V30 6855 H 634.614 -1.41183 0.67061 0
M  V30 6856 H 635.349 -2.95241 -1.34175 0
M  V30 6857 H 635.134 -3.91825 0.146784 0
M  V30 6858 H 636.624 -4.09313 -0.827825 0
M  V30 6859 N 637.061 -0.65484 -1.43351 0
M  V30 6860 C 637.994 0.0855537 -2.2804 0
M  V30 6861 C 638.972 0.828301 -1.39921 0
M  V30 6862 O 640.156 0.827539 -1.69364 0
M  V30 6863 C 637.283 1.12792 -3.19368 0
M  V30 6864 C 636.329 0.483037 -4.23756 0
M  V30 6865 S 637.162 -0.744605 -5.30298 0
M  V30 6866 C 638.318 0.297187 -6.25194 0
M  V30 6867 H 638.551 -0.632831 -2.90487 0
M  V30 6868 H 636.084 -0.44373 -1.47886 0
M  V30 6869 H 638.042 1.7243 -3.72529 0
M  V30 6870 H 636.703 1.81863 -2.56095 0
M  V30 6871 H 635.896 1.26888 -4.87766 0
M  V30 6872 H 635.498 -0.0392713 -3.73979 0
M  V30 6873 H 637.79 1.1629 -6.67445 0
M  V30 6874 H 638.733 -0.30793 -7.0743 0
M  V30 6875 H 639.141 0.633721 -5.60932 0
M  V30 6876 N 638.539 1.52521 -0.396863 0
M  V30 6877 C 639.785 2.01971 0.183169 0
M  V30 6878 C 640.118 1.2825 1.45827 0
M  V30 6879 O 639.393 0.385179 1.90648 0
M  V30 6880 C 639.676 3.5736 0.443391 0
M  V30 6881 C 639.529 4.41743 -0.84753 0
M  V30 6882 C 640.848 4.22539 1.2308 0
M  V30 6883 H 637.967 0.734119 0.0650976 0
M  V30 6884 H 640.609 1.82519 -0.527918 0
M  V30 6885 H 638.759 3.74066 1.04914 0
M  V30 6886 H 640.431 4.36773 -1.48414 0
M  V30 6887 H 638.674 4.0845 -1.4612 0
M  V30 6888 H 639.345 5.48507 -0.620003 0
M  V30 6889 H 641.821 4.09857 0.718084 0
M  V30 6890 H 640.697 5.31227 1.38162 0
M  V30 6891 H 640.958 3.80675 2.24808 0
M  V30 6892 N 640.017 0.126909 1.57088 0
M  V30 6893 C 641.263 -0.529952 1.95753 0
M  V30 6894 C 641.596 -1.65823 1.01077 0
M  V30 6895 O 640.871 -1.94437 0.0494162 0
M  V30 6896 C 641.154 -1.05517 3.44294 0
M  V30 6897 C 641.007 0.0702253 4.49745 0
M  V30 6898 C 642.326 -1.9435 3.94862 0
M  V30 6899 H 639.445 -0.191168 0.711775 0
M  V30 6900 H 642.087 0.204071 1.88901 0
M  V30 6901 H 640.237 -1.68069 3.50264 0
M  V30 6902 H 641.909 0.705834 4.55868 0
M  V30 6903 H 640.152 0.732259 4.27575 0
M  V30 6904 H 640.823 -0.338642 5.5096 0
M  V30 6905 H 643.299 -1.41658 3.91244 0
M  V30 6906 H 642.175 -2.28015 4.993 0
M  V30 6907 H 642.436 -2.87299 3.36024 0
M  V30 6908 N 641.495 -1.56914 -0.146875 0
M  V30 6909 C 642.723 -1.87515 -0.874394 0
M  V30 6910 C 643.138 -0.715116 -1.74733 0
M  V30 6911 O 642.495 0.315113 -1.79759 0
M  V30 6912 C 642.546 -3.17362 -1.731 0
M  V30 6913 O 642.267 -4.28897 -0.893245 0
M  V30 6914 C 643.768 -3.61479 -2.56609 0
M  V30 6915 H 640.988 -0.621546 -0.252827 0
M  V30 6916 H 643.532 -2.04023 -0.139627 0
M  V30 6917 H 641.687 -3.02608 -2.41883 0
M  V30 6918 H 642.101 -5.03146 -1.48137 0
M  V30 6919 H 643.575 -4.5517 -3.12289 0
M  V30 6920 H 644.052 -2.86773 -3.32653 0
M  V30 6921 H 644.658 -3.78927 -1.93117 0
M  V30 6922 N 642.974 0.416227 -1.52004 0
M  V30 6923 C 643.922 1.5272 -1.7544 0
M  V30 6924 C 644.916 1.57596 -0.621289 0
M  V30 6925 O 646.122 1.61087 -0.803172 0
M  V30 6926 H 642.497 0.507772 -0.554682 0
M  V30 6927 H 644.468 1.30136 -2.68528 0
M  V30 6928 C 643.217 2.90165 -1.91571 0
M  V30 6929 H 642.54 2.87154 -2.78178 0
M  V30 6930 H 643.98 3.67211 -2.11972 0
M  V30 6931 C 642.439 3.29947 -0.680942 0
M  V30 6932 O 642.969 4.01403 0.154527 0
M  V30 6933 N 641.175 2.8593 -0.518894 0
M  V30 6934 H 640.722 2.2795 -1.19986 0
M  V30 6935 H 640.68 3.12907 0.305985 0
M  V30 6936 N 644.452 1.42507 0.673017 0
M  V30 6937 C 645.863 1.38347 1.25367 0
M  V30 6938 C 646.214 0.0776327 1.96046 0
M  V30 6939 O 645.339 -0.823571 2.00116 0
M  V30 6940 C 645.934 2.506 2.28002 0
M  V30 6941 C 644.493 2.49767 2.81591 0
M  V30 6942 C 643.64 2.293 1.55938 0
M  V30 6943 H 646.591 1.51695 0.466288 0
M  V30 6944 H 646.612 2.20953 3.09774 0
M  V30 6945 H 646.124 3.45627 1.76532 0
M  V30 6946 H 644.225 1.58563 3.37177 0
M  V30 6947 H 644.338 3.46867 3.30485 0
M  V30 6948 H 642.702 1.77594 1.82572 0
M  V30 6949 H 643.485 3.26385 1.06431 0
M  V30 6950 N 645.93 -0.909495 1.28709 0
M  V30 6951 C 646.84 -2.04558 1.14861 0
M  V30 6952 C 647.856 -1.73842 0.0741621 0
M  V30 6953 O 649.032 -1.99383 0.2843 0
M  V30 6954 C 646.097 -3.36957 0.816148 0
M  V30 6955 C 645.158 -3.81255 1.97341 0
M  V30 6956 C 644.391 -5.07335 1.65671 0
M  V30 6957 O 644.614 -5.67514 0.573053 0
M  V30 6958 O 643.548 -5.47449 2.50167 0
M  V30 6959 H 647.374 -2.19161 2.10243 0
M  V30 6960 H 644.959 -1.03159 1.08068 0
M  V30 6961 H 646.841 -4.16436 0.644873 0
M  V30 6962 H 645.516 -3.2352 -0.107983 0
M  V30 6963 H 644.423 -3.02584 2.19986 0
M  V30 6964 H 645.756 -3.99261 2.87839 0
M  V30 6965 N 647.408 -1.11026 -1.11852 0
M  V30 6966 C 648.636 -0.878818 -1.87308 0
M  V30 6967 C 649.051 0.57111 -1.79955 0
M  V30 6968 O 648.408 1.39409 -1.17777 0
M  V30 6969 C 648.459 -1.3264 -3.36287 0
M  V30 6970 O 648.18 -2.71948 -3.43476 0
M  V30 6971 C 649.681 -1.12974 -4.28663 0
M  V30 6972 H 646.901 -0.315015 -0.592458 0
M  V30 6973 H 649.445 -1.47649 -1.41492 0
M  V30 6974 H 647.6 -0.772269 -3.79625 0
M  V30 6975 H 648.014 -2.91241 -4.3621 0
M  V30 6976 H 649.488 -1.49198 -5.31454 0
M  V30 6977 H 649.965 -0.0689127 -4.39146 0
M  V30 6978 H 650.571 -1.67064 -3.91113 0
M  V30 6979 N 648.886 1.2938 -0.899927 0
M  V30 6980 C 650.134 1.95164 -0.524924 0
M  V30 6981 C 650.455 1.71292 0.931888 0
M  V30 6982 O 649.725 1.04481 1.65712 0
M  V30 6983 H 648.305 0.722133 -0.191135 0
M  V30 6984 H 650.967 1.57628 -1.14627 0
M  V30 6985 H 650.063 3.0397 -0.707711 0
M  V30 6986 N 650.364 0.662433 1.43002 0
M  V30 6987 C 651.274 -0.0239199 2.34588 0
M  V30 6988 C 652.29 -0.802255 1.54402 0
M  V30 6989 O 653.466 -0.747401 1.87018 0
M  V30 6990 C 650.531 -0.972098 3.32793 0
M  V30 6991 C 649.592 -0.189673 4.28881 0
M  V30 6992 C 648.825 -1.09269 5.22395 0
M  V30 6993 O 649.048 -2.33209 5.20547 0
M  V30 6994 O 647.982 -0.560136 5.99288 0
M  V30 6995 H 651.808 0.730171 2.94792 0
M  V30 6996 H 649.393 0.422635 1.43297 0
M  V30 6997 H 651.275 -1.51676 3.93157 0
M  V30 6998 H 649.95 -1.70626 2.75079 0
M  V30 6999 H 648.857 0.398794 3.71968 0
M  V30 7000 H 650.19 0.50511 4.89601 0
M  V30 7001 N 651.842 -1.52309 0.404946 0
M  V30 7002 C 653.091 -2.00952 -0.173529 0
M  V30 7003 C 653.404 -1.29512 -1.46581 0
M  V30 7004 O 654.61 -1.6895 -2.12528 0
M  V30 7005 C 653.066 -3.58097 -0.359801 0
M  V30 7006 C 652.674 -4.38449 0.920138 0
M  V30 7007 C 654.418 -4.14984 -0.893794 0
M  V30 7008 C 652.325 -5.87227 0.701285 0
M  V30 7009 H 651.255 -0.750871 -0.0686244 0
M  V30 7010 H 653.906 -1.75687 0.529749 0
M  V30 7011 H 652.288 -3.79675 -1.12531 0
M  V30 7012 H 653.462 -4.28633 1.69147 0
M  V30 7013 H 651.777 -3.92859 1.38024 0
M  V30 7014 H 654.374 -5.23813 -1.0735 0
M  V30 7015 H 654.717 -3.72072 -1.8673 0
M  V30 7016 H 655.25 -3.97358 -0.187453 0
M  V30 7017 H 651.989 -6.34491 1.64624 0
M  V30 7018 H 651.509 -5.99792 -0.0308288 0
M  V30 7019 H 653.188 -6.46096 0.341846 0
M  V30 7020 N 653.32 -0.135238 -1.57019 0
M  V30 7021 C 654.252 0.839675 -2.13265 0
M  V30 7022 C 655.265 1.21887 -1.07923 0
M  V30 7023 O 656.454 1.16499 -1.35241 0
M  V30 7024 C 653.554 2.13647 -2.63075 0
M  V30 7025 C 652.727 1.92646 -3.92691 0
M  V30 7026 C 651.786 3.06205 -4.27931 0
M  V30 7027 O 650.812 2.78409 -4.96465 0
M  V30 7028 N 652.014 4.33072 -3.86561 0
M  V30 7029 H 654.779 0.359026 -2.97542 0
M  V30 7030 H 652.34 0.0486979 -1.61827 0
M  V30 7031 H 654.332 2.88641 -2.8367 0
M  V30 7032 H 652.902 2.5301 -1.83588 0
M  V30 7033 H 652.122 1.01754 -3.80841 0
M  V30 7034 H 653.41 1.75939 -4.77413 0
M  V30 7035 H 652.808 4.58526 -3.31316 0
M  V30 7036 H 651.365 5.04885 -4.12231 0
M  V30 7037 N 654.798 1.5699 0.138552 0
M  V30 7038 C 655.761 1.97984 1.15478 0
M  V30 7039 C 656.761 0.867416 1.35398 0
M  V30 7040 O 657.951 1.13387 1.32246 0
M  V30 7041 C 655.083 2.3031 2.51337 0
M  V30 7042 H 656.276 2.88953 0.802896 0
M  V30 7043 H 653.829 1.51555 0.382189 0
M  V30 7044 H 654.564 1.42159 2.91481 0
M  V30 7045 H 654.349 3.11425 2.38237 0
M  V30 7046 H 655.839 2.62834 3.24512 0
M  V30 7047 N 656.276 -0.40816 1.52223 0
M  V30 7048 C 657.206 -1.5042 1.78595 0
M  V30 7049 C 658.187 -1.57723 0.636974 0
M  V30 7050 O 659.372 -1.72982 0.882664 0
M  V30 7051 C 656.502 -2.88232 1.93751 0
M  V30 7052 C 655.456 -2.95779 3.09352 0
M  V30 7053 C 654.782 -4.35855 3.09732 0
M  V30 7054 C 656.082 -2.67175 4.48793 0
M  V30 7055 H 657.776 -1.28601 2.70374 0
M  V30 7056 H 655.322 -0.617221 1.30101 0
M  V30 7057 H 657.275 -3.64895 2.10783 0
M  V30 7058 H 655.999 -3.11347 0.986443 0
M  V30 7059 H 654.658 -2.21561 2.92072 0
M  V30 7060 H 654.306 -4.55981 2.12346 0
M  V30 7061 H 654.006 -4.41829 3.87377 0
M  V30 7062 H 655.53 -5.14451 3.28895 0
M  V30 7063 H 656.944 -3.3356 4.66273 0
M  V30 7064 H 655.341 -2.84523 5.28362 0
M  V30 7065 H 656.411 -1.62609 4.56822 0
M  V30 7066 N 657.755 -1.42862 -0.66545 0
M  V30 7067 C 659.004 -1.43119 -1.42126 0
M  V30 7068 C 659.317 -0.0545297 -1.95524 0
M  V30 7069 O 660.523 0.0654747 -2.71421 0
M  V30 7070 C 658.979 -2.51797 -2.5715 0
M  V30 7071 C 658.587 -3.95514 -2.10411 0
M  V30 7072 C 660.331 -2.61233 -3.346 0
M  V30 7073 C 658.238 -4.95682 -3.22573 0
M  V30 7074 H 657.168 -0.532349 -0.533966 0
M  V30 7075 H 659.819 -1.68806 -0.719506 0
M  V30 7076 H 658.201 -2.19292 -3.29738 0
M  V30 7077 H 659.375 -4.3742 -1.44915 0
M  V30 7078 H 657.69 -3.90012 -1.45874 0
M  V30 7079 H 660.287 -3.33248 -4.18151 0
M  V30 7080 H 660.63 -1.65896 -3.81817 0
M  V30 7081 H 661.163 -2.9298 -2.69087 0
M  V30 7082 H 657.902 -5.92529 -2.80338 0
M  V30 7083 H 657.422 -4.58399 -3.86821 0
M  V30 7084 H 659.101 -5.17828 -3.87896 0
M  V30 7085 N 659.233 0.902656 -1.29189 0
M  V30 7086 C 660.481 1.6496 -1.16758 0
M  V30 7087 C 660.802 1.92952 0.28188 0
M  V30 7088 O 660.072 1.55351 1.19344 0
M  V30 7089 H 658.652 0.611447 -0.429118 0
M  V30 7090 H 661.314 1.0825 -1.62074 0
M  V30 7091 H 660.41 2.60728 -1.71544 0
M  V30 7092 N 660.711 1.11618 1.11262 0
M  V30 7093 C 661.936 0.889013 1.8738 0
M  V30 7094 C 662.361 -0.555884 1.79698 0
M  V30 7095 O 661.719 -1.39272 1.16073 0
M  V30 7096 C 661.767 1.35759 3.34069 0
M  V30 7097 O 660.871 0.530499 4.08974 0
M  V30 7098 H 660.212 0.320082 0.581759 0
M  V30 7099 H 662.742 1.48611 1.40627 0
M  V30 7100 H 662.752 1.35291 3.84916 0
M  V30 7101 H 661.427 2.40973 3.38976 0
M  V30 7102 H 660.004 0.601439 3.68018 0
M  V30 7103 N 662.189 -1.289 0.906776 0
M  V30 7104 C 663.605 -1.47733 0.603902 0
M  V30 7105 C 663.805 -1.82568 -0.852702 0
M  V30 7106 O 662.861 -1.92642 -1.63234 0
M  V30 7107 C 664.174 -2.58522 1.53581 0
M  V30 7108 C 665.722 -2.72394 1.54177 0
M  V30 7109 C 666.197 -3.86318 2.46013 0
M  V30 7110 N 667.688 -3.93661 2.441 0
M  V30 7111 C 668.423 -4.81177 3.11859 0
M  V30 7112 N 667.919 -5.73333 3.88923 0
M  V30 7113 N 669.712 -4.74728 3.00981 0
M  V30 7114 H 661.863 -1.04567 1.84877 0
M  V30 7115 H 664.126 -0.520118 0.792579 0
M  V30 7116 H 663.832 -2.39667 2.57396 0
M  V30 7117 H 663.706 -3.55475 1.26165 0
M  V30 7118 H 666.093 -2.90641 0.511034 0
M  V30 7119 H 666.174 -1.75993 1.85634 0
M  V30 7120 H 665.818 -3.68826 3.49185 0
M  V30 7121 H 665.748 -4.82102 2.11862 0
M  V30 7122 H 668.239 -3.27751 1.88115 0
M  V30 7123 H 668.552 -6.36923 4.37663 0
M  V30 7124 H 666.897 -5.73196 3.93029 0
M  V30 7125 H 670.088 -4.01722 2.40286 0
M  V30 7126 H 670.261 -5.42719 3.54062 0
M  V30 7127 N 663.667 -0.670007 -1.42649 0
M  V30 7128 C 664.944 -0.119451 -1.95235 0
M  V30 7129 C 665.324 1.36461 -1.61064 0
M  V30 7130 O 664.672 2.09843 -0.904329 0
M  V30 7131 C 664.882 -0.383498 -3.46887 0
M  V30 7132 C 666.23 -0.297431 -4.23557 0
M  V30 7133 O 667.254 -0.31698 -3.54787 0
M  V30 7134 O 666.113 -0.235507 -5.45992 0
M  V30 7135 H 663.207 -8.85474e-05 -0.827 0
M  V30 7136 H 665.753 -0.744406 -1.52501 0
M  V30 7137 H 664.525 -1.41174 -3.64946 0
M  V30 7138 H 664.148 0.273702 -3.96657 0
M  V30 7139 N 665.145 1.52092 -0.413018 0
M  V30 7140 C 666.556 1.86617 0.0556967 0
M  V30 7141 C 666.907 1.33156 1.44097 0
M  V30 7142 O 666.032 0.672417 2.05688 0
M  V30 7143 C 666.627 3.38628 0.107844 0
M  V30 7144 C 665.186 3.72778 0.520904 0
M  V30 7145 C 664.333 2.75649 -0.302109 0
M  V30 7146 H 667.284 1.45663 -0.629919 0
M  V30 7147 H 667.305 3.69152 0.922324 0
M  V30 7148 H 666.817 3.77508 -0.900506 0
M  V30 7149 H 664.918 3.39478 1.53575 0
M  V30 7150 H 665.031 4.7838 0.262591 0
M  V30 7151 H 663.395 2.53603 0.236115 0
M  V30 7152 H 664.178 3.17369 -1.30888 0
M  V30 7153 N 666.623 0.143563 1.56945 0
M  V30 7154 C 668.039 -0.212877 1.58174 0
M  V30 7155 C 668.239 -1.64926 1.15766 0
M  V30 7156 O 667.295 -2.37535 0.856361 0
M  V30 7157 C 668.608 0.0427573 3.0067 0
M  V30 7158 C 670.156 -0.0212221 3.12993 0
M  V30 7159 C 670.631 0.207036 4.57532 0
M  V30 7160 N 672.122 0.153845 4.62944 0
M  V30 7161 C 672.857 0.305018 5.72588 0
M  V30 7162 N 672.353 0.513722 6.90893 0
M  V30 7163 N 674.146 0.242862 5.61575 0
M  V30 7164 H 666.297 1.08148 1.82805 0
M  V30 7165 H 668.56 0.427831 0.84597 0
M  V30 7166 H 668.266 1.03672 3.36073 0
M  V30 7167 H 668.14 -0.678195 3.71053 0
M  V30 7168 H 670.527 -1.00574 2.77433 0
M  V30 7169 H 670.608 0.732004 2.45103 0
M  V30 7170 H 670.252 1.18863 4.93795 0
M  V30 7171 H 670.182 -0.566473 5.23544 0
M  V30 7172 H 672.673 -0.00294866 3.779 0
M  V30 7173 H 672.986 0.619273 7.70315 0
M  V30 7174 H 671.331 0.550001 6.9282 0
M  V30 7175 H 674.522 0.0806015 4.68031 0
M  V30 7176 H 674.695 0.364112 6.46976 0
M  V30 7177 N 668.101 -1.57061 -0.130224 0
M  V30 7178 C 669.348 -1.84257 -0.839972 0
M  V30 7179 C 669.676 -0.726986 -1.80403 0
M  V30 7180 O 668.931 0.282632 -1.93648 0
M  V30 7181 C 669.23 -3.17878 -1.63365 0
M  V30 7182 C 668.896 -4.43475 -0.814891 0
M  V30 7183 C 667.558 -4.77581 -0.589066 0
M  V30 7184 C 669.91 -5.20631 -0.243437 0
M  V30 7185 C 667.238 -5.86292 0.218648 0
M  V30 7186 C 669.59 -6.30192 0.551408 0
M  V30 7187 C 668.254 -6.62837 0.787653 0
M  V30 7188 H 667.524 -0.674245 -0.307367 0
M  V30 7189 H 670.171 -1.91224 -0.102832 0
M  V30 7190 H 668.476 -3.06437 -2.44138 0
M  V30 7191 H 670.173 -3.3614 -2.18658 0
M  V30 7192 H 666.763 -4.16747 -1.00098 0
M  V30 7193 H 670.947 -4.94644 -0.405145 0
M  V30 7194 H 666.203 -6.10017 0.411016 0
M  V30 7195 H 670.377 -6.89165 1.00126 0
M  V30 7196 H 668.004 -7.46908 1.41537 0
M  V30 7197 N 669.579 0.400081 -1.52437 0
M  V30 7198 C 670.542 1.4707 -1.75793 0
M  V30 7199 C 671.542 1.48036 -0.627856 0
M  V30 7200 O 672.732 1.49401 -0.895817 0
M  V30 7201 C 669.864 2.86427 -1.84858 0
M  V30 7202 H 671.057 1.27649 -2.71377 0
M  V30 7203 H 668.61 0.631141 -1.42991 0
M  V30 7204 H 669.345 3.11207 -0.912194 0
M  V30 7205 H 669.13 2.87128 -2.6702 0
M  V30 7206 H 670.62 3.64023 -2.04638 0
M  V30 7207 N 671.057 1.43213 0.657864 0
M  V30 7208 C 672.305 1.44298 1.41501 0
M  V30 7209 C 672.626 0.0666478 1.94886 0
M  V30 7210 O 671.896 -0.897345 1.74139 0
M  V30 7211 H 670.476 0.531257 0.525143 0
M  V30 7212 H 673.138 1.78777 0.776195 0
M  V30 7213 H 672.234 2.1528 2.25966 0
M  V30 7214 N 672.536 -0.895792 1.29666 0
M  V30 7215 C 673.783 -1.64664 1.17864 0
M  V30 7216 C 674.111 -1.92631 -0.26902 0
M  V30 7217 O 673.366 -1.53787 -1.21029 0
M  V30 7218 C 673.665 -3.00075 1.94139 0
M  V30 7219 C 673.331 -2.91702 3.43833 0
M  V30 7220 C 671.993 -2.89126 3.84656 0
M  V30 7221 C 674.345 -2.80622 4.39205 0
M  V30 7222 C 671.673 -2.73293 5.1916 0
M  V30 7223 C 674.025 -2.66329 5.73805 0
M  V30 7224 C 672.689 -2.62121 6.1388 0
M  V30 7225 H 671.959 -0.602549 0.431295 0
M  V30 7226 H 674.606 -1.04234 1.60648 0
M  V30 7227 H 672.911 -3.64394 1.43958 0
M  V30 7228 H 674.608 -3.57111 1.82408 0
M  V30 7229 H 671.198 -2.94511 3.11386 0
M  V30 7230 H 675.382 -2.81686 4.08615 0
M  V30 7231 H 670.638 -2.68443 5.49316 0
M  V30 7232 H 674.812 -2.56727 6.47352 0
M  V30 7233 H 672.439 -2.49611 7.18052 0
M  V30 7234 N 674.014 -1.12206 -1.10668 0
M  V30 7235 C 674.962 -0.782918 -2.19028 0
M  V30 7236 C 675.956 0.229175 -1.67843 0
M  V30 7237 O 677.162 0.0876295 -1.79787 0
M  V30 7238 H 673.537 -0.235339 -0.714227 0
M  V30 7239 H 675.508 -1.70527 -2.44874 0
M  V30 7240 C 674.257 -0.25116 -3.46792 0
M  V30 7241 H 673.58 -1.02123 -3.86537 0
M  V30 7242 H 675.02 -0.0521409 -4.23968 0
M  V30 7243 C 673.479 1.02037 -3.21076 0
M  V30 7244 O 674.009 2.09862 -3.42522 0
M  V30 7245 N 672.215 0.946348 -2.74759 0
M  V30 7246 H 671.762 0.068777 -2.57508 0
M  V30 7247 H 671.72 1.79775 -2.57931 0
M  V30 7248 N 675.492 1.28418 -0.913599 0
M  V30 7249 C 676.908 1.47411 -0.611728 0
M  V30 7250 C 677.108 1.83018 0.843008 0
M  V30 7251 O 676.164 1.93505 1.6221 0
M  V30 7252 C 677.477 2.57703 -1.5495 0
M  V30 7253 C 679.025 2.71572 -1.5562 0
M  V30 7254 C 679.5 3.85008 -2.48058 0
M  V30 7255 N 680.991 3.92361 -2.46184 0
M  V30 7256 C 681.726 4.79516 -3.14407 0
M  V30 7257 N 681.222 5.71262 -3.91958 0
M  V30 7258 N 683.015 4.73125 -3.03495 0
M  V30 7259 H 675.166 1.03585 -1.85429 0
M  V30 7260 H 677.429 0.515907 -0.795326 0
M  V30 7261 H 677.135 2.38298 -2.58663 0
M  V30 7262 H 677.009 3.54801 -1.28048 0
M  V30 7263 H 679.396 2.90366 -0.526441 0
M  V30 7264 H 679.477 1.75006 -1.86565 0
M  V30 7265 H 679.121 3.66969 -3.51136 0
M  V30 7266 H 679.051 4.80971 -2.14416 0
M  V30 7267 H 681.542 3.26749 -1.89851 0
M  V30 7268 H 681.855 6.34593 -4.41034 0
M  V30 7269 H 680.2 5.71103 -3.96063 0
M  V30 7270 H 683.391 4.00442 -2.42413 0
M  V30 7271 H 683.564 5.40834 -3.56935 0
M  V30 7272 N 676.97 0.677563 1.42291 0
M  V30 7273 C 677.933 0.0101085 2.29198 0
M  V30 7274 C 678.933 -0.726219 1.43467 0
M  V30 7275 O 680.123 -0.563807 1.64824 0
M  V30 7276 C 677.255 -0.996316 3.26016 0
M  V30 7277 H 678.448 0.775071 2.89711 0
M  V30 7278 H 676.001 0.440065 1.49977 0
M  V30 7279 H 676.736 -1.78967 2.70446 0
M  V30 7280 H 676.521 -0.471687 3.89253 0
M  V30 7281 H 678.011 -1.46167 3.91184 0
M  V30 7282 N 678.448 -1.51871 0.421078 0
M  V30 7283 C 679.378 -2.30231 -0.389363 0
M  V30 7284 C 680.359 -1.34946 -1.03555 0
M  V30 7285 O 681.544 -1.63859 -1.04229 0
M  V30 7286 C 678.674 -3.13247 -1.49979 0
M  V30 7287 C 677.628 -4.16677 -0.977966 0
M  V30 7288 C 676.954 -4.88112 -2.1829 0
M  V30 7289 C 678.254 -5.22295 -0.0236775 0
M  V30 7290 H 679.948 -2.98229 0.264524 0
M  V30 7291 H 677.494 -1.43424 0.12866 0
M  V30 7292 H 679.447 -3.66838 -2.07383 0
M  V30 7293 H 678.171 -2.4304 -2.18173 0
M  V30 7294 H 676.83 -3.64114 -0.426245 0
M  V30 7295 H 676.478 -4.14423 -2.85066 0
M  V30 7296 H 676.178 -5.58041 -1.84021 0
M  V30 7297 H 677.702 -5.44521 -2.76278 0
M  V30 7298 H 679.116 -5.71055 -0.506899 0
M  V30 7299 H 677.513 -5.99656 0.230782 0
M  V30 7300 H 678.583 -4.76131 0.917999 0
M  V30 7301 N 679.926 -0.151884 -1.56866 0
M  V30 7302 C 681.203 0.543328 -1.87902 0
M  V30 7303 C 681.583 1.82636 -1.05864 0
M  V30 7304 O 680.931 2.28028 -0.146868 0
M  V30 7305 C 681.141 0.804056 -3.39611 0
M  V30 7306 C 682.489 1.14267 -4.08935 0
M  V30 7307 O 683.513 0.893248 -3.44818 0
M  V30 7308 O 682.372 1.61229 -5.22176 0
M  V30 7309 H 679.466 0.277724 -0.778973 0
M  V30 7310 H 682.012 -0.188862 -1.68646 0
M  V30 7311 H 680.784 -0.103772 -3.91162 0
M  V30 7312 H 680.407 1.59025 -3.64413 0
M  V30 7313 N 681.404 1.57128 0.121893 0
M  V30 7314 C 682.367 1.99197 1.13372 0
M  V30 7315 C 683.367 0.881728 1.3447 0
M  V30 7316 O 684.557 1.14783 1.31036 0
M  V30 7317 C 681.689 2.32963 2.4888 0
M  V30 7318 H 682.882 2.89788 0.772204 0
M  V30 7319 H 680.435 1.51952 0.366093 0
M  V30 7320 H 681.17 1.45243 2.89957 0
M  V30 7321 H 680.955 3.13934 2.34921 0
M  V30 7322 H 682.445 2.66261 3.21706 0
M  V30 7323 N 682.882 -0.391992 1.52647 0
M  V30 7324 C 684.128 -1.139 1.67793 0
M  V30 7325 C 684.461 -1.89711 0.41514 0
M  V30 7326 O 683.736 -1.85431 -0.586979 0
M  V30 7327 C 684.019 -2.11966 2.91105 0
M  V30 7328 C 683.872 -1.39939 4.27478 0
M  V30 7329 C 685.191 -3.1243 3.09961 0
M  V30 7330 H 682.31 -0.412707 0.610608 0
M  V30 7331 H 684.952 -0.422725 1.85238 0
M  V30 7332 H 683.102 -2.73048 2.76364 0
M  V30 7333 H 684.774 -0.818439 4.53982 0
M  V30 7334 H 683.017 -0.701246 4.28095 0
M  V30 7335 H 683.688 -2.1158 5.09841 0
M  V30 7336 H 686.164 -2.61435 3.23714 0
M  V30 7337 H 685.04 -3.78294 3.97725 0
M  V30 7338 H 685.301 -3.81127 2.24042 0
M  V30 7339 N 684.36 -1.4356 -0.65026 0
M  V30 7340 C 685.776 -1.27025 -0.966269 0
M  V30 7341 C 685.976 -0.192117 -2.00582 0
M  V30 7342 O 685.032 0.428459 -2.48838 0
M  V30 7343 C 686.345 -2.63556 -1.44772 0
M  V30 7344 C 687.893 -2.71111 -1.56421 0
M  V30 7345 C 688.368 -4.08067 -2.07956 0
M  V30 7346 N 689.859 -4.10146 -2.15254 0
M  V30 7347 C 690.594 -5.12952 -2.56258 0
M  V30 7348 N 690.09 -6.26129 -2.96537 0
M  V30 7349 N 691.883 -5.00306 -2.56224 0
M  V30 7350 H 684.034 -2.12367 0.0375758 0
M  V30 7351 H 686.297 -0.946894 -0.0457782 0
M  V30 7352 H 686.003 -3.43429 -0.758271 0
M  V30 7353 H 685.877 -2.89152 -2.42221 0
M  V30 7354 H 688.264 -1.91569 -2.24467 0
M  V30 7355 H 688.345 -2.49277 -0.573967 0
M  V30 7356 H 687.989 -4.88077 -1.40511 0
M  V30 7357 H 687.919 -4.27266 -3.07817 0
M  V30 7358 H 690.41 -3.28453 -1.86887 0
M  V30 7359 H 690.723 -7.00403 -3.26582 0
M  V30 7360 H 689.068 -6.29597 -2.94334 0
M  V30 7361 H 692.259 -4.10952 -2.24135 0
M  V30 7362 H 692.432 -5.80553 -2.87857 0
M  V30 7363 N 685.838 0.888903 -1.30139 0
M  V30 7364 C 687.249 1.45578 -1.16893 0
M  V30 7365 C 687.6 1.94825 0.231866 0
M  V30 7366 O 686.725 1.84661 1.12824 0
M  V30 7367 C 687.32 2.646 -2.11595 0
M  V30 7368 C 685.879 3.17389 -2.02339 0
M  V30 7369 C 685.026 1.90081 -2.01902 0
M  V30 7370 H 687.977 0.69921 -1.42467 0
M  V30 7371 H 687.998 3.40687 -1.69449 0
M  V30 7372 H 687.51 2.28726 -3.13538 0
M  V30 7373 H 685.611 3.5793 -1.03523 0
M  V30 7374 H 685.724 3.80955 -2.90534 0
M  V30 7375 H 684.088 2.08246 -1.46648 0
M  V30 7376 H 684.871 1.5647 -3.05568 0
M  V30 7377 N 687.317 1.12792 1.10072 0
M  V30 7378 C 688.566 0.880232 1.81479 0
M  V30 7379 C 688.879 -0.595575 1.86312 0
M  V30 7380 O 690.085 -0.959979 2.53962 0
M  V30 7381 C 688.541 1.52514 3.25987 0
M  V30 7382 C 688.149 3.036 3.29441 0
M  V30 7383 C 689.893 1.35788 4.02196 0
M  V30 7384 C 687.8 3.61007 4.68431 0
M  V30 7385 H 686.73 0.325654 0.680048 0
M  V30 7386 H 689.381 1.35485 1.23758 0
M  V30 7387 H 687.763 0.978188 3.83728 0
M  V30 7388 H 688.937 3.64819 2.81502 0
M  V30 7389 H 687.252 3.19765 2.66719 0
M  V30 7390 H 689.849 1.76096 5.0487 0
M  V30 7391 H 690.192 0.301972 4.15203 0
M  V30 7392 H 690.725 1.87426 3.50879 0
M  V30 7393 H 687.464 4.66375 4.60625 0
M  V30 7394 H 686.984 3.04564 5.16721 0
M  V30 7395 H 688.663 3.60289 5.37402 0
M  V30 7396 N 688.795 -1.27931 0.920396 0
M  V30 7397 C 690.043 -1.94304 0.555906 0
M  V30 7398 C 690.364 -1.72753 -0.904519 0
M  V30 7399 O 689.634 -1.07104 -1.64029 0
M  V30 7400 H 688.214 -0.719001 0.202599 0
M  V30 7401 H 690.876 -1.55785 1.1712 0
M  V30 7402 H 689.972 -3.02806 0.755981 0
M  V30 7403 N 690.273 -0.685099 -1.4193 0
M  V30 7404 C 691.498 -0.218842 -2.06242 0
M  V30 7405 C 691.923 1.11923 -1.51178 0
M  V30 7406 O 691.281 1.69837 -0.634446 0
M  V30 7407 C 691.329 -0.175592 -3.60172 0
M  V30 7408 O 690.433 0.852776 -4.03487 0
M  V30 7409 H 689.774 -0.109531 -0.654904 0
M  V30 7410 H 692.304 -0.937013 -1.81882 0
M  V30 7411 H 692.314 -0.00291151 -4.08 0
M  V30 7412 H 690.989 -1.15222 -3.99621 0
M  V30 7413 H 689.566 0.650301 -3.67186 0
M  V30 7414 N 691.751 1.51645 -0.429126 0
M  V30 7415 C 692.681 2.30434 0.377148 0
M  V30 7416 C 693.662 1.35493 1.02838 0
M  V30 7417 O 694.847 1.6441 1.03359 0
M  V30 7418 C 691.977 3.14038 1.48315 0
M  V30 7419 C 690.931 4.1719 0.955855 0
M  V30 7420 C 690.257 4.89263 2.15698 0
M  V30 7421 C 691.557 5.223 -0.00402136 0
M  V30 7422 H 693.251 2.98085 -0.280336 0
M  V30 7423 H 690.797 1.43354 -0.136265 0
M  V30 7424 H 692.75 3.67933 2.05435 0
M  V30 7425 H 691.474 2.44193 2.16881 0
M  V30 7426 H 690.133 3.64335 0.406929 0
M  V30 7427 H 689.781 4.15929 2.82864 0
M  V30 7428 H 689.481 5.59009 1.81059 0
M  V30 7429 H 691.005 5.45978 2.73387 0
M  V30 7430 H 692.419 5.71315 0.476607 0
M  V30 7431 H 690.816 5.99525 -0.26258 0
M  V30 7432 H 691.886 4.75638 -0.943236 0
M  V30 7433 N 693.229 0.160201 1.56784 0
M  V30 7434 C 694.478 -0.487619 1.95717 0
M  V30 7435 C 694.791 -1.65136 1.0483 0
M  V30 7436 O 695.997 -2.36468 1.33398 0
M  V30 7437 C 694.453 -0.91888 3.47972 0
M  V30 7438 C 694.061 0.218655 4.47466 0
M  V30 7439 C 695.805 -1.53575 3.95746 0
M  V30 7440 C 693.712 -0.231614 5.90946 0
M  V30 7441 H 692.642 -0.185939 0.730714 0
M  V30 7442 H 695.293 0.246657 1.81835 0
M  V30 7443 H 693.675 -1.70881 3.57234 0
M  V30 7444 H 694.849 0.995825 4.49911 0
M  V30 7445 H 693.164 0.744767 4.09685 0
M  V30 7446 H 695.761 -1.88448 5.00391 0
M  V30 7447 H 696.104 -2.42959 3.38048 0
M  V30 7448 H 696.637 -0.810467 3.89456 0
M  V30 7449 H 693.376 0.62718 6.52493 0
M  V30 7450 H 692.896 -0.974379 5.91833 0
M  V30 7451 H 694.575 -0.67922 6.43425 0
M  V30 7452 N 694.707 -1.5719 -0.113559 0
M  V30 7453 C 695.654 -2.00736 -1.13901 0
M  V30 7454 C 696.624 -0.88044 -1.40846 0
M  V30 7455 O 697.809 -1.14507 -1.5262 0
M  V30 7456 C 694.949 -2.42132 -2.45899 0
M  V30 7457 C 694.062 -3.68264 -2.25844 0
M  V30 7458 C 693.197 -3.98617 -3.5111 0
M  V30 7459 C 692.236 -5.17915 -3.26236 0
M  V30 7460 N 691.373 -5.44111 -4.4372 0
M  V30 7461 H 696.213 -2.88128 -0.760677 0
M  V30 7462 H 693.75 -1.42523 -0.364099 0
M  V30 7463 H 695.708 -2.6417 -3.22908 0
M  V30 7464 H 694.338 -1.57775 -2.81615 0
M  V30 7465 H 693.39 -3.53809 -1.39726 0
M  V30 7466 H 694.702 -4.55425 -2.03444 0
M  V30 7467 H 693.856 -4.21333 -4.36536 0
M  V30 7468 H 692.595 -3.09942 -3.76546 0
M  V30 7469 H 691.6 -4.95038 -2.39202 0
M  V30 7470 H 692.825 -6.08172 -3.02165 0
M  V30 7471 H 690.771 -4.58394 -4.69266 0
M  V30 7472 H 690.688 -6.25606 -4.24444 0
M  V30 7473 H 691.956 -5.71351 -5.30263 0
M  V30 7474 N 696.185 0.383891 -1.52853 0
M  V30 7475 C 697.596 0.961591 -1.60032 0
M  V30 7476 C 697.947 1.90819 -0.456333 0
M  V30 7477 O 697.072 2.12288 0.419873 0
M  V30 7478 C 697.667 1.75078 -2.90057 0
M  V30 7479 C 696.226 2.2781 -2.99632 0
M  V30 7480 C 695.373 1.08512 -2.55187 0
M  V30 7481 H 698.324 0.163269 -1.57858 0
M  V30 7482 H 698.345 2.61046 -2.7683 0
M  V30 7483 H 697.857 1.06157 -3.73299 0
M  V30 7484 H 695.958 3.00028 -2.20939 0
M  V30 7485 H 696.071 2.56947 -4.0437 0
M  V30 7486 H 694.435 1.44667 -2.09627 0
M  V30 7487 H 695.218 0.41118 -3.40829 0
M  V30 7488 N 697.663 1.43903 0.642637 0
M  V30 7489 C 698.626 1.49538 1.73698 0
M  V30 7490 C 699.626 0.378776 1.56275 0
M  V30 7491 O 700.816 0.64095 1.6198 0
M  V30 7492 C 697.948 1.35821 3.12675 0
M  V30 7493 H 699.141 2.47008 1.70079 0
M  V30 7494 H 696.694 1.30824 0.85526 0
M  V30 7495 H 697.429 0.393994 3.21898 0
M  V30 7496 H 697.214 2.16776 3.26727 0
M  V30 7497 H 698.704 1.4272 3.92455 0
M  V30 7498 N 699.141 -0.881989 1.30609 0
M  V30 7499 C 700.387 -1.63647 1.19781 0
M  V30 7500 C 700.72 -1.92632 -0.246265 0
M  V30 7501 O 699.995 -1.54938 -1.17577 0
M  V30 7502 C 700.278 -2.97437 2.02985 0
M  V30 7503 C 700.131 -2.75406 3.55628 0
M  V30 7504 C 701.45 -3.98397 1.86997 0
M  V30 7505 H 698.569 -0.593841 0.436488 0
M  V30 7506 H 701.211 -1.02041 1.60273 0
M  V30 7507 H 699.361 -3.50018 1.68581 0
M  V30 7508 H 701.033 -2.2959 4.00107 0
M  V30 7509 H 699.276 -2.09856 3.79662 0
M  V30 7510 H 699.947 -3.70552 4.09139 0
M  V30 7511 H 702.423 -3.54986 2.17081 0
M  V30 7512 H 701.299 -4.89916 2.47536 0
M  V30 7513 H 701.56 -4.3424 0.829943 0
M  V30 7514 N 700.619 -1.13374 -1.09472 0
M  V30 7515 C 701.849 -0.917019 -1.85133 0
M  V30 7516 C 702.257 0.537568 -1.81402 0
M  V30 7517 O 701.6 1.38385 -1.20811 0
M  V30 7518 C 701.662 -1.32646 -3.34134 0
M  V30 7519 C 701.326 -2.79437 -3.61613 0
M  V30 7520 C 702.323 -3.77596 -3.57375 0
M  V30 7521 C 700.008 -3.16586 -3.89973 0
M  V30 7522 C 702.002 -5.10916 -3.81108 0
M  V30 7523 C 699.689 -4.50085 -4.13361 0
M  V30 7524 C 700.687 -5.47059 -4.0892 0
M  V30 7525 O 700.375 -6.78149 -4.31705 0
M  V30 7526 H 700.107 -0.326997 -0.591649 0
M  V30 7527 H 702.661 -1.51002 -1.39239 0
M  V30 7528 H 700.891 -0.676719 -3.80733 0
M  V30 7529 H 702.58 -1.08229 -3.91205 0
M  V30 7530 H 703.346 -3.50242 -3.35493 0
M  V30 7531 H 699.225 -2.41707 -3.92554 0
M  V30 7532 H 702.769 -5.86597 -3.77558 0
M  V30 7533 H 698.666 -4.77163 -4.34724 0
M  V30 7534 H 699.434 -6.84244 -4.49168 0
M  V30 7535 N 702.098 1.27442 -0.927168 0
M  V30 7536 C 703.028 2.29256 -0.443188 0
M  V30 7537 C 704.009 1.62701 0.49624 0
M  V30 7538 O 705.194 1.90013 0.401105 0
M  V30 7539 C 702.324 3.45955 0.305366 0
M  V30 7540 C 701.278 4.24501 -0.546178 0
M  V30 7541 C 700.604 5.33671 0.331512 0
M  V30 7542 C 701.904 4.89921 -1.81037 0
M  V30 7543 H 703.598 2.69988 -1.29409 0
M  V30 7544 H 701.144 1.29792 -0.623705 0
M  V30 7545 H 703.097 4.1628 0.654885 0
M  V30 7546 H 701.821 3.04138 1.19029 0
M  V30 7547 H 700.48 3.55921 -0.878398 0
M  V30 7548 H 700.128 4.88096 1.21537 0
M  V30 7549 H 699.828 5.87131 -0.234746 0
M  V30 7550 H 701.352 6.0684 0.676614 0
M  V30 7551 H 702.766 5.52536 -1.52895 0
M  V30 7552 H 701.163 5.53436 -2.32009 0
M  V30 7553 H 702.233 4.13652 -2.53021 0
M  V30 7554 N 703.576 0.692616 1.41565 0
M  V30 7555 C 704.804 0.231279 2.05603 0
M  V30 7556 C 705.219 -1.11837 1.52111 0
M  V30 7557 O 704.576 -1.6983 0.66813 0
M  V30 7558 C 704.627 0.177125 3.61066 0
M  V30 7559 O 704.348 1.47346 4.12578 0
M  V30 7560 C 705.849 -0.30556 4.42246 0
M  V30 7561 H 703.069 0.108238 0.662213 0
M  V30 7562 H 705.613 0.944369 1.81389 0
M  V30 7563 H 703.768 -0.486769 3.8433 0
M  V30 7564 H 704.182 1.35861 5.06599 0
M  V30 7565 H 705.656 -0.29233 5.51225 0
M  V30 7566 H 706.133 -1.34393 4.18133 0
M  V30 7567 H 706.739 0.327229 4.24039 0
M  V30 7568 N 705.054 -1.51416 0.437162 0
M  V30 7569 C 706.017 -2.26312 -0.362729 0
M  V30 7570 C 707.017 -1.29748 -0.949847 0
M  V30 7571 O 708.207 -1.53462 -0.824325 0
M  V30 7572 C 705.339 -3.05475 -1.5132 0
M  V30 7573 H 706.532 -2.98459 0.29365 0
M  V30 7574 H 704.085 -1.55137 0.190327 0
M  V30 7575 H 704.82 -2.37744 -2.20563 0
M  V30 7576 H 704.605 -3.76401 -1.09838 0
M  V30 7577 H 706.095 -3.62209 -2.07833 0
M  V30 7578 N 706.532 -0.168513 -1.56696 0
M  V30 7579 C 707.462 0.758563 -2.20835 0
M  V30 7580 C 708.443 1.24121 -1.1631 0
M  V30 7581 O 709.628 1.29487 -1.4473 0
M  V30 7582 C 706.758 1.9892 -2.8469 0
M  V30 7583 C 705.712 1.64252 -3.95228 0
M  V30 7584 C 705.038 2.94757 -4.46119 0
M  V30 7585 C 706.338 0.872675 -5.14958 0
M  V30 7586 H 708.032 0.223953 -2.98561 0
M  V30 7587 H 705.578 0.106277 -1.43607 0
M  V30 7588 H 707.531 2.64275 -3.28233 0
M  V30 7589 H 706.255 2.5479 -2.04327 0
M  V30 7590 H 704.914 1.01266 -3.52336 0
M  V30 7591 H 704.562 3.48662 -3.62552 0
M  V30 7592 H 704.262 2.72316 -5.2069 0
M  V30 7593 H 705.786 3.61147 -4.92347 0
M  V30 7594 H 707.2 1.42875 -5.55211 0
M  V30 7595 H 705.597 0.747402 -5.95428 0
M  V30 7596 H 706.667 -0.131535 -4.84722 0
M  V30 7597 N 708.01 1.57248 0.105221 0
M  V30 7598 C 708.92 2.04653 1.14693 0
M  V30 7599 C 709.936 0.969488 1.44489 0
M  V30 7600 O 711.112 1.28196 1.55331 0
M  V30 7601 C 708.177 2.45297 2.45011 0
M  V30 7602 C 707.238 3.67148 2.22489 0
M  V30 7603 C 706.471 4.05844 3.46592 0
M  V30 7604 O 706.694 3.44736 4.54437 0
M  V30 7605 O 705.628 4.98862 3.36779 0
M  V30 7606 H 709.454 2.93663 0.774336 0
M  V30 7607 H 707.039 1.45998 0.31701 0
M  V30 7608 H 708.921 2.72112 3.21766 0
M  V30 7609 H 707.596 1.59429 2.81717 0
M  V30 7610 H 706.503 3.45463 1.43547 0
M  V30 7611 H 707.836 4.53764 1.9068 0
M  V30 7612 N 709.488 -0.375779 1.53054 0
M  V30 7613 C 710.904 -0.716764 1.426 0
M  V30 7614 C 711.104 -1.93651 0.556931 0
M  V30 7615 O 710.16 -2.52475 0.0354461 0
M  V30 7616 C 711.473 -0.939499 2.85646 0
M  V30 7617 C 713.021 -1.04015 2.95212 0
M  V30 7618 C 713.496 -1.29543 4.39298 0
M  V30 7619 N 714.987 -1.36335 4.42682 0
M  V30 7620 C 715.722 -1.57778 5.51266 0
M  V30 7621 N 715.218 -1.76604 6.69913 0
M  V30 7622 N 717.011 -1.60065 5.38828 0
M  V30 7623 H 709.162 0.42664 2.08071 0
M  V30 7624 H 711.425 0.128758 0.939215 0
M  V30 7625 H 711.131 -0.115189 3.51511 0
M  V30 7626 H 711.005 -1.85048 3.2869 0
M  V30 7627 H 713.392 -1.85501 2.29507 0
M  V30 7628 H 713.473 -0.106785 2.55577 0
M  V30 7629 H 713.117 -0.485611 5.05573 0
M  V30 7630 H 713.047 -2.24184 4.76497 0
M  V30 7631 H 715.538 -1.23441 3.5717 0
M  V30 7632 H 715.851 -1.9251 7.48438 0
M  V30 7633 H 714.196 -1.73802 6.72917 0
M  V30 7634 H 717.387 -1.44917 4.45103 0
M  V30 7635 H 717.56 -1.76435 6.23518 0
M  V30 7636 N 710.966 -1.44241 -0.634997 0
M  V30 7637 C 712.377 -1.41622 -1.21655 0
M  V30 7638 C 712.728 -0.129584 -1.95772 0
M  V30 7639 O 711.853 0.770225 -2.02229 0
M  V30 7640 C 712.448 -2.56557 -2.21278 0
M  V30 7641 C 711.007 -2.57145 -2.7487 0
M  V30 7642 C 710.154 -2.33354 -1.49804 0
M  V30 7643 H 713.105 -1.52878 -0.425905 0
M  V30 7644 H 713.126 -2.29089 -3.03807 0
M  V30 7645 H 712.638 -3.50186 -1.67306 0
M  V30 7646 H 710.739 -1.67447 -3.32855 0
M  V30 7647 H 710.852 -3.55507 -3.21172 0
M  V30 7648 H 709.216 -1.82372 -1.77799 0
M  V30 7649 H 709.999 -3.29092 -0.977402 0
M  V30 7650 N 712.444 0.87505 -1.31075 0
M  V30 7651 C 713.669 1.66583 -1.23551 0
M  V30 7652 C 714.094 1.87067 0.19686 0
M  V30 7653 O 713.452 1.40877 1.1412 0
M  V30 7654 C 713.5 3.01401 -1.97965 0
M  V30 7655 O 712.604 3.90923 -1.31351 0
M  V30 7656 H 711.945 0.508645 -0.426821 0
M  V30 7657 H 714.475 1.09139 -1.7306 0
M  V30 7658 H 714.485 3.51374 -2.07366 0
M  V30 7659 H 713.16 2.85812 -3.02133 0
M  V30 7660 H 711.737 3.49369 -1.30368 0
M  V30 7661 N 713.922 1.13953 1.08869 0
M  V30 7662 C 714.869 0.82213 2.15661 0
M  V30 7663 C 715.839 -0.218274 1.6466 0
M  V30 7664 O 717.024 -0.0892475 1.90591 0
M  V30 7665 C 714.164 0.300572 3.43789 0
M  V30 7666 C 713.277 1.40071 4.08661 0
M  V30 7667 C 712.412 0.836897 5.24566 0
M  V30 7668 C 711.451 1.91504 5.81371 0
M  V30 7669 N 710.588 1.36875 6.88629 0
M  V30 7670 H 715.428 1.73683 2.42153 0
M  V30 7671 H 712.965 0.866879 1.18843 0
M  V30 7672 H 714.923 -0.0199943 4.17195 0
M  V30 7673 H 713.553 -0.577248 3.17597 0
M  V30 7674 H 712.605 1.83776 3.33062 0
M  V30 7675 H 713.917 2.21534 4.46905 0
M  V30 7676 H 713.071 0.467953 6.04893 0
M  V30 7677 H 711.81 -0.00874207 4.87699 0
M  V30 7678 H 710.815 2.29299 4.99702 0
M  V30 7679 H 712.04 2.76419 6.20298 0
M  V30 7680 H 709.986 0.545211 6.5373 0
M  V30 7681 H 709.903 2.1198 7.25672 0
M  V30 7682 H 711.171 1.02756 7.72698 0
M  V30 7683 N 715.4 -1.26948 0.933913 0
M  V30 7684 C 716.63 -1.97898 0.593279 0
M  V30 7685 C 717.038 -1.69806 -0.834412 0
M  V30 7686 O 716.381 -0.958704 -1.56699 0
M  V30 7687 C 716.443 -3.51657 0.746825 0
M  V30 7688 C 716.107 -4.03384 2.14779 0
M  V30 7689 C 717.104 -4.15682 3.12257 0
M  V30 7690 C 714.789 -4.37577 2.46641 0
M  V30 7691 C 716.783 -4.61455 4.39702 0
M  V30 7692 C 714.47 -4.8304 3.7432 0
M  V30 7693 C 715.468 -4.94939 4.70664 0
M  V30 7694 O 715.156 -5.39403 5.96071 0
M  V30 7695 H 714.888 -0.63814 0.223055 0
M  V30 7696 H 717.442 -1.62608 1.2549 0
M  V30 7697 H 715.672 -3.8669 0.0280889 0
M  V30 7698 H 717.361 -4.03821 0.410328 0
M  V30 7699 H 718.127 -3.89519 2.88964 0
M  V30 7700 H 714.006 -4.27554 1.72391 0
M  V30 7701 H 717.55 -4.70658 5.14905 0
M  V30 7702 H 713.447 -5.08646 3.97429 0
M  V30 7703 H 714.215 -5.57641 5.99148 0
M  V30 7704 N 716.879 -0.700114 -1.41195 0
M  V30 7705 C 718.107 -0.242179 -2.05478 0
M  V30 7706 C 718.522 1.11029 -1.52702 0
M  V30 7707 O 717.879 1.69473 -0.677127 0
M  V30 7708 C 717.93 -0.196271 -3.60967 0
M  V30 7709 O 717.651 -1.49532 -4.11791 0
M  V30 7710 C 719.152 0.282102 -4.42401 0
M  V30 7711 H 716.372 -0.111749 -0.661629 0
M  V30 7712 H 718.916 -0.953975 -1.80885 0
M  V30 7713 H 717.071 0.46638 -3.84582 0
M  V30 7714 H 717.485 -1.38545 -5.05871 0
M  V30 7715 H 718.959 0.263093 -5.51373 0
M  V30 7716 H 719.436 1.32174 -4.1884 0
M  V30 7717 H 720.042 -0.349712 -4.2386 0
M  V30 7718 N 718.357 1.51182 -0.445186 0
M  V30 7719 C 719.287 2.30821 0.352686 0
M  V30 7720 C 720.268 1.36576 1.01395 0
M  V30 7721 O 721.453 1.65497 1.01609 0
M  V30 7722 C 718.583 3.15593 1.44976 0
M  V30 7723 C 717.537 4.1818 0.911553 0
M  V30 7724 C 716.863 4.91523 2.10497 0
M  V30 7725 C 718.163 5.22266 -0.059418 0
M  V30 7726 H 719.857 2.97771 -0.311936 0
M  V30 7727 H 717.403 1.43201 -0.151461 0
M  V30 7728 H 719.356 3.70091 2.01521 0
M  V30 7729 H 718.08 2.4648 2.14278 0
M  V30 7730 H 716.739 3.64746 0.368264 0
M  V30 7731 H 716.387 4.18906 2.78437 0
M  V30 7732 H 716.087 5.60898 1.7512 0
M  V30 7733 H 717.611 5.48847 2.6758 0
M  V30 7734 H 719.025 5.71789 0.415985 0
M  V30 7735 H 717.422 5.99213 -0.326152 0
M  V30 7736 H 718.492 4.7461 -0.993631 0
M  V30 7737 N 719.835 0.176821 1.56605 0
M  V30 7738 C 721.063 -0.472828 2.01425 0
M  V30 7739 C 721.478 -1.56436 1.05703 0
M  V30 7740 O 720.835 -1.82405 0.058808 0
M  V30 7741 C 720.886 -1.04607 3.46034 0
M  V30 7742 O 720.607 0.00189608 4.381 0
M  V30 7743 C 722.108 -1.7734 4.06282 0
M  V30 7744 H 719.328 -0.120503 0.660091 0
M  V30 7745 H 721.872 0.280166 2.02572 0
M  V30 7746 H 720.027 -1.74953 3.45645 0
M  V30 7747 H 720.441 -0.422118 5.22799 0
M  V30 7748 H 721.915 -2.12703 5.09374 0
M  V30 7749 H 722.392 -2.67043 3.4869 0
M  V30 7750 H 722.998 -1.11623 4.10391 0
M  V30 7751 N 721.313 -1.57302 -0.09688 0
M  V30 7752 C 722.541 -1.90202 -0.814295 0
M  V30 7753 C 722.956 -0.770344 -1.72369 0
M  V30 7754 O 722.313 0.257764 -1.8067 0
M  V30 7755 C 722.364 -3.22708 -1.62916 0
M  V30 7756 O 722.085 -4.31522 -0.756343 0
M  V30 7757 C 723.586 -3.69459 -2.44979 0
M  V30 7758 H 720.806 -0.629275 -0.232925 0
M  V30 7759 H 723.35 -2.04364 -0.0746482 0
M  V30 7760 H 721.505 -3.1015 -2.32133 0
M  V30 7761 H 721.919 -5.07604 -1.32054 0
M  V30 7762 H 723.393 -4.64875 -2.9765 0
M  V30 7763 H 723.87 -2.97211 -3.23361 0
M  V30 7764 H 724.476 -3.84879 -1.80964 0
M  V30 7765 N 722.791 0.367657 -1.53252 0
M  V30 7766 C 724.037 1.10864 -1.70531 0
M  V30 7767 C 724.392 1.87051 -0.4505 0
M  V30 7768 O 723.685 1.83342 0.556431 0
M  V30 7769 C 723.879 2.09825 -2.89324 0
M  V30 7770 C 723.708 1.43361 -4.26237 0
M  V30 7771 C 722.478 1.18861 -4.91121 0
M  V30 7772 C 724.676 0.872409 -5.06847 0
M  V30 7773 N 722.658 0.487258 -6.11963 0
M  V30 7774 C 724.029 0.300301 -6.19272 0
M  V30 7775 C 726.084 0.770895 -4.91896 0
M  V30 7776 C 724.787 -0.363419 -7.18381 0
M  V30 7777 C 726.813 0.12096 -5.91276 0
M  V30 7778 C 726.175 -0.440283 -7.03023 0
M  V30 7779 H 722.274 0.390902 -0.677288 0
M  V30 7780 H 724.858 0.395305 -1.90645 0
M  V30 7781 H 723.029 2.78473 -2.70753 0
M  V30 7782 H 724.761 2.76585 -2.95436 0
M  V30 7783 H 721.516 1.46934 -4.5023 0
M  V30 7784 H 721.94 0.152005 -6.76829 0
M  V30 7785 H 726.582 1.19058 -4.05691 0
M  V30 7786 H 724.3 -0.795057 -8.04179 0
M  V30 7787 H 727.886 0.0433702 -5.81784 0
M  V30 7788 H 726.766 -0.935244 -7.78603 0
M  V30 7789 N 724.269 1.44576 0.627338 0
M  V30 7790 C 725.515 1.47777 1.38888 0
M  V30 7791 C 725.848 0.111406 1.9388 0
M  V30 7792 O 725.123 -0.87149 1.73883 0
M  V30 7793 C 725.406 2.54119 2.55138 0
M  V30 7794 C 725.259 4.00128 2.0547 0
M  V30 7795 C 726.578 2.56929 3.57317 0
M  V30 7796 H 723.697 0.538048 0.50366 0
M  V30 7797 H 726.339 1.76277 0.708978 0
M  V30 7798 H 724.489 2.29948 3.13139 0
M  V30 7799 H 726.161 4.35444 1.5227 0
M  V30 7800 H 724.404 4.11724 1.36623 0
M  V30 7801 H 725.075 4.7019 2.89181 0
M  V30 7802 H 727.551 2.78536 3.09122 0
M  V30 7803 H 726.427 3.33234 4.36173 0
M  V30 7804 H 726.688 1.6127 4.11636 0
M  V30 7805 N 725.747 -0.868086 1.31537 0
M  V30 7806 C 726.679 -1.98165 1.15166 0
M  V30 7807 C 727.692 -1.6255 0.0902335 0
M  V30 7808 O 728.881 -1.75272 0.33791 0
M  V30 7809 C 725.981 -3.30772 0.737776 0
M  V30 7810 C 725.154 -3.94716 1.88462 0
M  V30 7811 C 724.213 -5.05641 1.45648 0
M  V30 7812 O 723.239 -5.2636 2.16642 0
M  V30 7813 N 724.441 -5.79474 0.34493 0
M  V30 7814 H 727.206 -2.12754 2.11083 0
M  V30 7815 H 724.767 -1.04217 1.23897 0
M  V30 7816 H 726.759 -4.02366 0.434032 0
M  V30 7817 H 725.329 -3.1233 -0.129834 0
M  V30 7818 H 724.549 -3.16079 2.35558 0
M  V30 7819 H 725.837 -4.34175 2.65273 0
M  V30 7820 H 725.235 -5.65164 -0.246259 0
M  V30 7821 H 723.792 -6.51722 0.100728 0
M  V30 7822 N 727.225 -1.14528 -1.08264 0
M  V30 7823 C 728.502 -0.825185 -1.77342 0
M  V30 7824 C 728.882 0.681037 -1.99813 0
M  V30 7825 O 728.23 1.62234 -1.60912 0
M  V30 7826 C 728.44 -1.62556 -3.08831 0
M  V30 7827 C 729.788 -1.82585 -3.83338 0
M  V30 7828 O 730.812 -1.59254 -3.18617 0
M  V30 7829 O 729.671 -2.21598 -4.99556 0
M  V30 7830 H 726.765 -0.302531 -0.769678 0
M  V30 7831 H 729.311 -1.25056 -1.14713 0
M  V30 7832 H 728.083 -2.64862 -2.88035 0
M  V30 7833 H 727.706 -1.1959 -3.79189 0
M  V30 7834 N 728.703 1.26451 -0.940633 0
M  V30 7835 C 729.613 2.30128 -0.455881 0
M  V30 7836 C 730.629 1.67536 0.469867 0
M  V30 7837 O 731.805 1.98344 0.349529 0
M  V30 7838 C 728.87 3.45634 0.271648 0
M  V30 7839 C 727.931 4.23709 -0.690594 0
M  V30 7840 C 727.164 5.337 0.00231047 0
M  V30 7841 O 727.387 5.57215 1.21935 0
M  V30 7842 O 726.321 5.98091 -0.676111 0
M  V30 7843 H 730.147 2.73655 -1.31707 0
M  V30 7844 H 727.732 1.3164 -0.706497 0
M  V30 7845 H 729.614 4.15853 0.681486 0
M  V30 7846 H 728.289 3.04138 1.10824 0
M  V30 7847 H 727.196 3.55974 -1.15037 0
M  V30 7848 H 728.529 4.68953 -1.49478 0
M  V30 7849 N 730.181 0.707592 1.40822 0
M  V30 7850 C 731.592 0.317011 1.83989 0
M  V30 7851 C 731.943 -1.14697 1.59182 0
M  V30 7852 O 731.068 -1.8818 1.06852 0
M  V30 7853 C 731.663 0.568593 3.33995 0
M  V30 7854 C 730.222 0.231804 3.75686 0
M  V30 7855 C 729.369 0.844933 2.64114 0
M  V30 7856 H 732.32 0.907349 1.30203 0
M  V30 7857 H 732.341 -0.168798 3.80125 0
M  V30 7858 H 731.853 1.63417 3.52018 0
M  V30 7859 H 729.954 -0.82903 3.6326 0
M  V30 7860 H 730.067 0.695219 4.74029 0
M  V30 7861 H 728.431 0.273588 2.53226 0
M  V30 7862 H 729.214 1.91462 2.84951 0
M  V30 7863 N 731.66 -1.50943 0.453197 0
M  V30 7864 C 732.907 -2.02212 -0.107922 0
M  V30 7865 C 733.235 -1.33639 -1.41318 0
M  V30 7866 O 732.49 -0.445154 -1.9057 0
M  V30 7867 C 732.789 -3.55603 -0.357944 0
M  V30 7868 C 732.455 -4.42556 0.863427 0
M  V30 7869 C 731.117 -4.6604 1.19834 0
M  V30 7870 C 733.469 -4.93468 1.67747 0
M  V30 7871 C 730.797 -5.37681 2.34768 0
M  V30 7872 C 733.149 -5.6637 2.81793 0
M  V30 7873 C 731.813 -5.88113 3.1572 0
M  V30 7874 H 731.083 -0.739947 -0.0394916 0
M  V30 7875 H 733.73 -1.81738 0.60363 0
M  V30 7876 H 732.035 -3.74495 -1.15156 0
M  V30 7877 H 733.732 -3.92821 -0.805781 0
M  V30 7878 H 730.322 -4.24485 0.592478 0
M  V30 7879 H 734.506 -4.75194 1.43192 0
M  V30 7880 H 729.762 -5.52727 2.61348 0
M  V30 7881 H 733.936 -6.04806 3.45229 0
M  V30 7882 H 731.563 -6.43404 4.04889 0
M  V30 7883 N 733.138 -0.185124 -1.56509 0
M  V30 7884 C 734.101 0.72591 -2.17401 0
M  V30 7885 C 735.101 1.14819 -1.12575 0
M  V30 7886 O 736.291 1.0629 -1.38015 0
M  V30 7887 C 733.423 1.98979 -2.76803 0
M  V30 7888 H 734.616 0.195588 -2.99262 0
M  V30 7889 H 732.169 0.0644772 -1.56167 0
M  V30 7890 H 732.904 2.56287 -1.98714 0
M  V30 7891 H 732.689 1.69583 -3.53531 0
M  V30 7892 H 734.179 2.63966 -3.23592 0
M  V30 7893 N 734.616 1.57351 0.0885366 0
M  V30 7894 C 735.862 1.86696 0.791996 0
M  V30 7895 C 736.195 0.775148 1.78059 0
M  V30 7896 O 735.47 -0.216247 1.93294 0
M  V30 7897 C 735.753 3.26684 1.51491 0
M  V30 7898 C 735.606 4.465 0.543858 0
M  V30 7899 C 736.925 3.64664 2.46391 0
M  V30 7900 H 734.044 0.679049 0.286463 0
M  V30 7901 H 736.686 1.89919 0.0554866 0
M  V30 7902 H 734.836 3.24067 2.14273 0
M  V30 7903 H 736.508 4.61235 -0.0774597 0
M  V30 7904 H 734.751 4.33567 -0.142228 0
M  V30 7905 H 735.422 5.41192 1.08696 0
M  V30 7906 H 737.898 3.68267 1.93698 0
M  V30 7907 H 736.774 4.63534 2.93986 0
M  V30 7908 H 737.035 2.93698 3.30445 0
M  V30 7909 N 736.094 -0.359525 1.53444 0
M  V30 7910 C 737.041 -1.44073 1.8031 0
M  V30 7911 C 738.011 -1.52946 0.647811 0
M  V30 7912 O 739.196 -1.68739 0.890614 0
M  V30 7913 C 736.336 -2.80941 2.00416 0
M  V30 7914 C 735.449 -2.80986 3.28132 0
M  V30 7915 C 734.584 -4.09468 3.38393 0
M  V30 7916 C 733.623 -4.03679 4.60119 0
M  V30 7917 N 732.76 -5.23821 4.675 0
M  V30 7918 H 737.6 -1.20464 2.72566 0
M  V30 7919 H 735.137 -0.583859 1.35017 0
M  V30 7920 H 737.095 -3.60459 2.1006 0
M  V30 7921 H 735.725 -3.02936 1.11489 0
M  V30 7922 H 734.777 -1.93666 3.27411 0
M  V30 7923 H 736.089 -2.72583 4.17732 0
M  V30 7924 H 735.243 -4.97404 3.47382 0
M  V30 7925 H 733.982 -4.20632 2.4682 0
M  V30 7926 H 732.987 -3.14129 4.51224 0
M  V30 7927 H 734.212 -3.94112 5.5304 0
M  V30 7928 H 732.158 -5.35559 3.7883 0
M  V30 7929 H 732.075 -5.17611 5.51013 0
M  V30 7930 H 733.343 -6.13572 4.8078 0
M  V30 7931 N 737.572 -1.44907 -0.619662 0
M  V30 7932 C 738.82 -1.47999 -1.37625 0
M  V30 7933 C 739.141 -0.118295 -1.94641 0
M  V30 7934 O 738.411 0.85086 -1.76457 0
M  V30 7935 H 736.991 -0.544993 -0.510873 0
M  V30 7936 H 739.653 -1.80772 -0.728522 0
M  V30 7937 H 738.749 -2.21196 -2.20179 0
M  V30 7938 N 739.05 0.861098 -1.31996 0
M  V30 7939 C 739.982 1.97551 -1.16216 0
M  V30 7940 C 740.995 1.625 -0.0988527 0
M  V30 7941 O 742.184 1.75091 -0.3472 0
M  V30 7942 C 739.284 3.30376 -0.755307 0
M  V30 7943 C 738.457 3.93711 -1.90552 0
M  V30 7944 C 737.516 5.04862 -1.48328 0
M  V30 7945 O 736.542 5.25204 -2.19431 0
M  V30 7946 N 737.744 5.79283 -0.375656 0
M  V30 7947 H 740.509 2.11632 -2.12208 0
M  V30 7948 H 738.07 1.03559 -1.24448 0
M  V30 7949 H 740.062 4.0213 -0.455364 0
M  V30 7950 H 738.632 3.12395 0.113269 0
M  V30 7951 H 737.852 3.14825 -2.37231 0
M  V30 7952 H 739.14 4.32762 -2.67571 0
M  V30 7953 H 738.538 5.65286 0.216284 0
M  V30 7954 H 737.095 6.5166 -0.135289 0
M  V30 7955 N 740.528 1.15101 1.07655 0
M  V30 7956 C 741.805 0.834578 1.76902 0
M  V30 7957 C 742.185 -0.670431 2.00171 0
M  V30 7958 O 741.533 -1.61378 1.6177 0
M  V30 7959 C 741.743 1.64191 3.07965 0
M  V30 7960 C 743.091 1.84615 3.82364 0
M  V30 7961 O 744.115 1.60941 3.17768 0
M  V30 7962 O 742.974 2.24244 4.98374 0
M  V30 7963 H 740.068 0.306608 0.768063 0
M  V30 7964 H 742.614 1.25663 1.14048 0
M  V30 7965 H 741.386 2.66386 2.86626 0
M  V30 7966 H 741.009 1.216 3.78549 0
M  V30 7967 N 742.006 -1.2595 0.947325 0
M  V30 7968 C 743.254 -1.93081 0.596996 0
M  V30 7969 C 743.575 -1.74632 -0.867672 0
M  V30 7970 O 742.845 -1.1056 -1.6172 0
M  V30 7971 H 741.425 -0.714542 0.217805 0
M  V30 7972 H 744.087 -1.53265 1.20398 0
M  V30 7973 H 743.183 -3.01134 0.82004 0
M  V30 7974 N 743.484 -0.715051 -1.40445 0
M  V30 7975 C 744.416 -0.0227516 -2.29189 0
M  V30 7976 C 745.429 0.724313 -1.458 0
M  V30 7977 O 746.618 0.571781 -1.69094 0
M  V30 7978 C 743.718 0.992038 -3.24055 0
M  V30 7979 C 742.891 0.310613 -4.36296 0
M  V30 7980 C 741.95 1.23071 -5.11605 0
M  V30 7981 O 740.976 0.71571 -5.64682 0
M  V30 7982 N 742.178 2.56188 -5.2091 0
M  V30 7983 H 744.943 -0.78473 -2.89244 0
M  V30 7984 H 742.504 -0.562637 -1.51809 0
M  V30 7985 H 744.496 1.60973 -3.71308 0
M  V30 7986 H 743.066 1.65538 -2.65171 0
M  V30 7987 H 742.286 -0.487269 -3.91177 0
M  V30 7988 H 743.574 -0.162415 -5.08541 0
M  V30 7989 H 742.972 3.00527 -4.7927 0
M  V30 7990 H 741.529 3.13103 -5.71673 0
M  V30 7991 N 744.962 1.50701 -0.461195 0
M  V30 7992 C 746.208 2.02566 0.0973411 0
M  V30 7993 C 746.541 1.3432 1.40257 0
M  V30 7994 O 745.816 0.465692 1.88843 0
M  V30 7995 C 746.099 3.58919 0.291423 0
M  V30 7996 C 745.952 4.37751 -1.03413 0
M  V30 7997 C 747.271 4.27379 1.05048 0
M  V30 7998 H 744.39 0.73622 0.0339026 0
M  V30 7999 H 747.032 1.80115 -0.604855 0
M  V30 8000 H 745.182 3.78179 0.889539 0
M  V30 8001 H 746.854 4.30085 -1.66806 0
M  V30 8002 H 745.097 4.01885 -1.63313 0
M  V30 8003 H 745.768 5.45384 -0.852085 0
M  V30 8004 H 748.244 4.12534 0.543603 0
M  V30 8005 H 747.12 5.36609 1.15506 0
M  V30 8006 H 747.381 3.89868 2.0846 0
M  V30 8007 N 746.441 0.193421 1.56409 0
M  V30 8008 C 747.687 -0.43983 1.98588 0
M  V30 8009 C 748.042 -1.59353 1.07816 0
M  V30 8010 O 747.335 -1.9121 0.122226 0
M  V30 8011 C 747.529 -0.949718 3.44551 0
M  V30 8012 C 747.358 0.153045 4.49439 0
M  V30 8013 C 746.128 0.610119 5.01603 0
M  V30 8014 C 748.326 0.961397 5.05234 0
M  V30 8015 N 746.308 1.69088 5.90155 0
M  V30 8016 C 747.679 1.8916 5.90439 0
M  V30 8017 C 749.734 1.004 4.87672 0
M  V30 8018 C 748.437 2.86086 6.5996 0
M  V30 8019 C 750.463 1.96131 5.57931 0
M  V30 8020 C 749.825 2.87895 6.42881 0
M  V30 8021 H 745.924 -0.128415 0.771384 0
M  V30 8022 H 748.508 0.29873 1.92395 0
M  V30 8023 H 746.679 -1.65772 3.51246 0
M  V30 8024 H 748.411 -1.55344 3.73698 0
M  V30 8025 H 745.166 0.203771 4.73161 0
M  V30 8026 H 745.59 2.23241 6.39134 0
M  V30 8027 H 750.232 0.308536 4.21673 0
M  V30 8028 H 747.95 3.56609 7.25159 0
M  V30 8029 H 751.536 2.00066 5.46319 0
M  V30 8030 H 750.416 3.60763 6.9629 0
M  V30 8031 N 747.919 -1.57396 -0.0801906 0
M  V30 8032 C 749.335 -1.53564 -0.434778 0
M  V30 8033 C 749.535 -0.912372 -1.79661 0
M  V30 8034 O 748.591 -0.511268 -2.4727 0
M  V30 8035 C 749.904 -2.98244 -0.383561 0
M  V30 8036 C 751.452 -3.09536 -0.46435 0
M  V30 8037 C 751.927 -4.55851 -0.443128 0
M  V30 8038 N 753.418 -4.60456 -0.503448 0
M  V30 8039 C 754.153 -5.71135 -0.509106 0
M  V30 8040 N 753.649 -6.91203 -0.47008 0
M  V30 8041 N 755.442 -5.59353 -0.555035 0
M  V30 8042 H 747.593 -1.96281 0.811635 0
M  V30 8043 H 749.856 -0.898041 0.303689 0
M  V30 8044 H 749.562 -3.47369 0.550236 0
M  V30 8045 H 749.436 -3.57705 -1.19694 0
M  V30 8046 H 751.823 -2.6039 -1.38857 0
M  V30 8047 H 751.904 -2.53 0.377445 0
M  V30 8048 H 751.548 -5.05653 0.477207 0
M  V30 8049 H 751.478 -5.10242 -1.30234 0
M  V30 8050 H 753.969 -3.74048 -0.538199 0
M  V30 8051 H 754.282 -7.7132 -0.478091 0
M  V30 8052 H 752.627 -6.93625 -0.436897 0
M  V30 8053 H 755.818 -4.64453 -0.583158 0
M  V30 8054 H 755.991 -6.4561 -0.555976 0
M  V30 8055 N 749.397 0.351382 -1.53633 0
M  V30 8056 C 750.808 0.927429 -1.62036 0
M  V30 8057 C 751.159 1.89809 -0.496706 0
M  V30 8058 O 750.284 2.1313 0.374749 0
M  V30 8059 C 750.879 1.68886 -2.93706 0
M  V30 8060 C 749.438 2.21404 -3.04397 0
M  V30 8061 C 748.585 1.03075 -2.57431 0
M  V30 8062 H 751.536 0.129748 -1.58169 0
M  V30 8063 H 751.557 2.55116 -2.82305 0
M  V30 8064 H 751.069 0.982149 -3.75467 0
M  V30 8065 H 749.17 2.95274 -2.27253 0
M  V30 8066 H 749.283 2.48312 -4.09729 0
M  V30 8067 H 747.647 1.40188 -2.12649 0
M  V30 8068 H 748.43 0.338793 -3.41624 0
M  V30 8069 N 750.875 1.45233 0.611969 0
M  V30 8070 C 751.807 1.49575 1.73666 0
M  V30 8071 C 752.82 0.386987 1.58134 0
M  V30 8072 O 754.009 0.653804 1.66095 0
M  V30 8073 C 751.109 1.33223 3.11617 0
M  V30 8074 C 750.282 2.57694 3.5343 0
M  V30 8075 C 749.341 2.35962 4.70328 0
M  V30 8076 O 748.367 3.09553 4.77667 0
M  V30 8077 N 749.569 1.40243 5.63305 0
M  V30 8078 H 752.334 2.46539 1.70407 0
M  V30 8079 H 749.895 1.40917 0.79712 0
M  V30 8080 H 751.887 1.16502 3.87569 0
M  V30 8081 H 750.457 0.44551 3.09409 0
M  V30 8082 H 749.677 2.8956 2.67486 0
M  V30 8083 H 750.965 3.40441 3.78124 0
M  V30 8084 H 750.363 0.795023 5.60086 0
M  V30 8085 H 748.92 1.29496 6.38807 0
M  V30 8086 N 752.353 -0.854086 1.3245 0
M  V30 8087 C 753.301 -1.98411 1.21391 0
M  V30 8088 C 754.295 -1.68984 0.118586 0
M  V30 8089 O 755.501 -1.77784 0.281549 0
M  V30 8090 H 751.876 -0.651077 0.376301 0
M  V30 8091 H 753.847 -2.04867 2.16961 0
M  V30 8092 C 752.596 -3.34345 0.954407 0
M  V30 8093 H 751.919 -3.57518 1.78944 0
M  V30 8094 H 753.359 -4.13959 0.917269 0
M  V30 8095 C 751.818 -3.35151 -0.342838 0
M  V30 8096 O 752.348 -3.78174 -1.35452 0
M  V30 8097 N 750.554 -2.88298 -0.365012 0
M  V30 8098 H 750.101 -2.53481 0.4588 0
M  V30 8099 H 750.059 -2.8922 -1.23284 0
M  V30 8100 N 753.831 -1.1567 -1.07043 0
M  V30 8101 C 755.061 -0.956083 -1.83146 0
M  V30 8102 C 755.469 0.498969 -1.82502 0
M  V30 8103 O 754.812 1.35791 -1.23719 0
M  V30 8104 C 754.874 -1.39704 -3.31245 0
M  V30 8105 C 754.538 -2.87045 -3.55604 0
M  V30 8106 C 755.535 -3.85092 -3.49285 0
M  V30 8107 C 753.22 -3.24787 -3.8317 0
M  V30 8108 C 755.214 -5.18885 -3.70185 0
M  V30 8109 C 752.901 -4.58751 -4.03721 0
M  V30 8110 C 753.899 -5.55609 -3.97224 0
M  V30 8111 O 753.587 -6.87154 -4.17223 0
M  V30 8112 H 753.319 -0.339473 -0.58458 0
M  V30 8113 H 755.873 -1.53922 -1.36005 0
M  V30 8114 H 754.103 -0.757326 -3.79212 0
M  V30 8115 H 755.792 -1.16503 -3.88821 0
M  V30 8116 H 756.558 -3.5728 -3.27988 0
M  V30 8117 H 752.437 -2.49979 -3.87339 0
M  V30 8118 H 755.981 -5.94473 -3.6503 0
M  V30 8119 H 751.878 -4.86277 -4.24505 0
M  V30 8120 H 752.646 -6.93618 -4.34553 0
M  V30 8121 N 755.309 1.25446 -0.953992 0
M  V30 8122 C 756.586 1.884 -0.525823 0
M  V30 8123 C 756.966 1.86079 0.996891 0
M  V30 8124 O 756.314 1.32389 1.8624 0
M  V30 8125 C 756.524 3.31154 -1.10172 0
M  V30 8126 C 757.872 4.07926 -1.17819 0
M  V30 8127 O 758.896 3.40273 -1.05323 0
M  V30 8128 O 757.755 5.28942 -1.37415 0
M  V30 8129 H 754.849 0.808629 -0.173345 0
M  V30 8130 H 757.395 1.33522 -1.04738 0
M  V30 8131 H 756.167 3.27271 -2.14499 0
M  V30 8132 H 755.79 3.93588 -0.56338 0
M  V30 8133 N 756.787 0.722489 1.40064 0
M  V30 8134 C 758.203 0.396758 1.5459 0
M  V30 8135 C 758.403 -1.09375 1.69232 0
M  V30 8136 O 757.459 -1.87984 1.68578 0
M  V30 8137 C 758.772 1.16885 2.77053 0
M  V30 8138 C 760.32 1.15583 2.90877 0
M  V30 8139 C 760.795 1.91023 4.16262 0
M  V30 8140 N 762.286 1.88126 4.23276 0
M  V30 8141 C 763.021 2.43315 5.19216 0
M  V30 8142 N 762.517 3.07089 6.21022 0
M  V30 8143 N 764.31 2.33418 5.11344 0
M  V30 8144 H 756.461 1.68887 1.28806 0
M  V30 8145 H 758.724 0.714231 0.62336 0
M  V30 8146 H 758.43 2.22301 2.72534 0
M  V30 8147 H 758.304 0.765011 3.69361 0
M  V30 8148 H 760.691 0.10984 2.94896 0
M  V30 8149 H 760.772 1.59895 1.99668 0
M  V30 8150 H 760.416 2.95616 4.13006 0
M  V30 8151 H 760.346 1.44126 5.06493 0
M  V30 8152 H 762.837 1.41654 3.50346 0
M  V30 8153 H 763.15 3.467 6.90666 0
M  V30 8154 H 761.495 3.11175 6.21446 0
M  V30 8155 H 764.686 1.83248 4.30741 0
M  V30 8156 H 764.859 2.7673 5.85939 0
M  V30 8157 N 758.265 -1.50454 0.469181 0
M  V30 8158 C 759.681 -1.59124 0.123226 0
M  V30 8159 C 759.881 -1.47749 -1.37013 0
M  V30 8160 O 758.937 -1.335 -2.14322 0
M  V30 8161 C 760.25 -2.93101 0.67172 0
M  V30 8162 C 761.798 -3.06491 0.634978 0
M  V30 8163 C 762.273 -4.43041 1.16098 0
M  V30 8164 N 763.764 -4.49448 1.12031 0
M  V30 8165 C 764.499 -5.53491 1.49784 0
M  V30 8166 N 763.995 -6.64798 1.94976 0
M  V30 8167 N 765.788 -5.44025 1.41399 0
M  V30 8168 H 757.939 -1.56091 1.44046 0
M  V30 8169 H 760.202 -0.737564 0.59557 0
M  V30 8170 H 759.908 -3.06895 1.7178 0
M  V30 8171 H 759.782 -3.77027 0.114222 0
M  V30 8172 H 762.169 -2.92346 -0.402187 0
M  V30 8173 H 762.25 -2.24328 1.22926 0
M  V30 8174 H 761.894 -4.57935 2.19677 0
M  V30 8175 H 761.824 -5.23794 0.542939 0
M  V30 8176 H 764.315 -3.69575 0.788828 0
M  V30 8177 H 764.628 -7.40246 2.21936 0
M  V30 8178 H 762.973 -6.65923 1.98927 0
M  V30 8179 H 766.164 -4.55955 1.05935 0
M  V30 8180 H 766.337 -6.2499 1.71147 0
M  V30 8181 N 759.743 -0.201713 -1.56304 0
M  V30 8182 C 760.968 0.443815 -2.02596 0
M  V30 8183 C 761.393 1.53945 -1.08086 0
M  V30 8184 O 760.751 1.81182 -0.0655056 0
M  V30 8185 C 760.799 0.971066 -3.47279 0
M  V30 8186 O 759.903 2.0836 -3.55893 0
M  V30 8187 H 759.244 0.10294 -0.655972 0
M  V30 8188 H 761.774 -0.314533 -2.02168 0
M  V30 8189 H 761.784 1.28598 -3.87204 0
M  V30 8190 H 760.459 0.169048 -4.15556 0
M  V30 8191 H 759.036 1.77683 -3.27846 0
M  V30 8192 N 761.222 1.57436 0.0718424 0
M  V30 8193 C 762.172 2.00132 1.09229 0
M  V30 8194 C 763.156 0.883379 1.34481 0
M  V30 8195 O 764.348 1.14728 1.34783 0
M  V30 8196 C 761.477 2.44876 2.40605 0
M  V30 8197 C 760.563 3.63405 2.18627 0
M  V30 8198 N 760.954 4.77583 1.66579 0
M  V30 8199 C 759.252 3.69953 2.491 0
M  V30 8200 C 759.953 5.5943 1.59415 0
M  V30 8201 N 758.929 5.03275 2.05464 0
M  V30 8202 H 762.731 2.85849 0.683185 0
M  V30 8203 H 760.245 1.59987 0.278914 0
M  V30 8204 H 762.242 2.73703 3.14471 0
M  V30 8205 H 760.902 1.60546 2.82232 0
M  V30 8206 H 761.913 4.99875 1.35443 0
M  V30 8207 H 758.59 2.96336 2.94094 0
M  V30 8208 H 759.98 6.61093 1.20026 0
M  V30 8209 N 762.7 -0.34323 1.53817 0
M  V30 8210 C 763.948 -1.0813 1.70741 0
M  V30 8211 C 764.269 -1.89165 0.473461 0
M  V30 8212 O 763.539 -1.89075 -0.512605 0
M  V30 8213 H 762.119 -0.40219 0.629486 0
M  V30 8214 H 764.781 -0.384426 1.91071 0
M  V30 8215 H 763.877 -1.7585 2.57843 0
M  V30 8216 N 764.178 -1.45556 -0.604258 0
M  V30 8217 C 765.406 -1.53278 -1.38973 0
M  V30 8218 C 765.821 -0.166509 -1.88064 0
M  V30 8219 O 765.178 0.832519 -1.62405 0
M  V30 8220 C 765.229 -2.51992 -2.59195 0
M  V30 8221 O 764.95 -3.8331 -2.12143 0
M  V30 8222 C 766.451 -2.69445 -3.52015 0
M  V30 8223 H 763.671 -0.519003 -0.425297 0
M  V30 8224 H 766.215 -1.90773 -0.736621 0
M  V30 8225 H 764.37 -2.17561 -3.2054 0
M  V30 8226 H 764.784 -4.3685 -2.90279 0
M  V30 8227 H 766.258 -3.42485 -4.32907 0
M  V30 8228 H 766.735 -1.75596 -4.0257 0
M  V30 8229 H 767.341 -3.04886 -2.9652 0
M  V30 8230 N 765.656 0.84705 -1.32902 0
M  V30 8231 C 766.905 1.59667 -1.23245 0
M  V30 8232 C 767.218 1.94551 0.202349 0
M  V30 8233 O 768.424 2.68218 0.420847 0
M  V30 8234 C 766.88 2.8795 -2.15901 0
M  V30 8235 C 766.488 2.60461 -3.64505 0
M  V30 8236 C 768.232 3.65968 -2.15098 0
M  V30 8237 C 766.139 3.84791 -4.49099 0
M  V30 8238 H 765.069 0.599167 -0.457728 0
M  V30 8239 H 767.72 0.934662 -1.57912 0
M  V30 8240 H 766.102 3.55648 -1.74157 0
M  V30 8241 H 767.276 2.01026 -4.14639 0
M  V30 8242 H 765.591 1.9576 -3.67515 0
M  V30 8243 H 768.188 4.58241 -2.75534 0
M  V30 8244 H 768.531 4.00275 -1.14392 0
M  V30 8245 H 769.064 3.05184 -2.55162 0
M  V30 8246 H 765.803 3.55621 -5.50649 0
M  V30 8247 H 765.323 4.43594 -4.03713 0
M  V30 8248 H 767.002 4.52454 -4.62487 0
M  V30 8249 N 767.134 1.16236 1.06428 0
M  V30 8250 C 768.381 0.943034 1.79201 0
M  V30 8251 C 768.709 -0.529243 1.87161 0
M  V30 8252 O 767.964 -1.40874 1.35842 0
M  V30 8253 C 768.263 1.51396 3.2375 0
M  V30 8254 C 767.929 3.00833 3.35873 0
M  V30 8255 C 766.591 3.41626 3.38888 0
M  V30 8256 C 768.943 3.96825 3.37904 0
M  V30 8257 C 766.271 4.77033 3.4155 0
M  V30 8258 C 768.623 5.32116 3.42104 0
M  V30 8259 C 767.287 5.72392 3.43401 0
M  V30 8260 H 766.557 0.34508 0.655744 0
M  V30 8261 H 769.204 1.44929 1.25171 0
M  V30 8262 H 767.509 0.929114 3.80624 0
M  V30 8263 H 769.206 1.31996 3.78653 0
M  V30 8264 H 765.796 2.68306 3.3423 0
M  V30 8265 H 769.98 3.66376 3.34787 0
M  V30 8266 H 765.236 5.07569 3.40858 0
M  V30 8267 H 769.41 6.06286 3.42623 0
M  V30 8268 H 767.037 6.77296 3.45216 0
M  V30 8269 N 768.612 -1.24939 0.960631 0
M  V30 8270 C 769.542 -2.28 0.503815 0
M  V30 8271 C 770.523 -1.63959 -0.452928 0
M  V30 8272 O 771.708 -1.91009 -0.350585 0
M  V30 8273 C 768.838 -3.46643 -0.213535 0
M  V30 8274 C 767.792 -4.22903 0.658535 0
M  V30 8275 C 767.118 -5.34363 -0.189902 0
M  V30 8276 C 768.418 -4.84949 1.93963 0
M  V30 8277 H 770.112 -2.66462 1.36521 0
M  V30 8278 H 767.658 -1.28093 0.657897 0
M  V30 8279 H 769.611 -4.1787 -0.544286 0
M  V30 8280 H 768.335 -3.07187 -1.10923 0
M  V30 8281 H 766.994 -3.53467 0.972455 0
M  V30 8282 H 766.642 -4.91147 -1.08553 0
M  V30 8283 H 766.342 -5.86302 0.390331 0
M  V30 8284 H 767.866 -6.0842 -0.515484 0
M  V30 8285 H 769.28 -5.48288 1.67491 0
M  V30 8286 H 767.677 -5.47091 2.46601 0
M  V30 8287 H 768.747 -4.06799 2.639 0
M  V30 8288 N 770.09 -0.729906 -1.39679 0
M  V30 8289 C 771.32 -0.285295 -2.04621 0
M  V30 8290 C 771.728 1.08304 -1.55135 0
M  V30 8291 O 771.071 1.6946 -0.709146 0
M  V30 8292 C 771.133 -0.203129 -3.58926 0
M  V30 8293 C 770.797 -1.50909 -4.31365 0
M  V30 8294 C 771.794 -2.45381 -4.58349 0
M  V30 8295 C 769.479 -1.77198 -4.70007 0
M  V30 8296 C 771.473 -3.64379 -5.22979 0
M  V30 8297 C 769.16 -2.96474 -5.34365 0
M  V30 8298 C 770.158 -3.89886 -5.60783 0
M  V30 8299 O 769.846 -5.07069 -6.23808 0
M  V30 8300 H 769.578 -0.123373 -0.664647 0
M  V30 8301 H 772.132 -0.992901 -1.79807 0
M  V30 8302 H 770.362 0.560538 -3.82616 0
M  V30 8303 H 772.051 0.208811 -4.05363 0
M  V30 8304 H 772.817 -2.2634 -4.28947 0
M  V30 8305 H 768.696 -1.05337 -4.48804 0
M  V30 8306 H 772.24 -4.37307 -5.43515 0
M  V30 8307 H 768.137 -3.15419 -5.63188 0
M  V30 8308 H 768.905 -5.07335 -6.42303 0
M  V30 8309 N 771.568 1.50203 -0.477153 0
M  V30 8310 C 772.5 2.26508 0.350239 0
M  V30 8311 C 773.513 1.32081 0.95176 0
M  V30 8312 O 774.702 1.57546 0.839139 0
M  V30 8313 C 771.802 3.0361 1.50579 0
M  V30 8314 C 770.975 4.25438 1.01595 0
M  V30 8315 C 770.034 4.84783 2.04626 0
M  V30 8316 O 769.06 5.45528 1.62442 0
M  V30 8317 N 770.262 4.72318 3.37485 0
M  V30 8318 H 773.027 2.98155 -0.30394 0
M  V30 8319 H 770.588 1.58938 -0.308289 0
M  V30 8320 H 772.58 3.4019 2.1921 0
M  V30 8321 H 771.15 2.34724 2.06455 0
M  V30 8322 H 770.37 3.93894 0.155316 0
M  V30 8323 H 771.658 5.04413 0.666694 0
M  V30 8324 H 771.056 4.24022 3.74462 0
M  V30 8325 H 769.613 5.13149 4.01897 0
M  V30 8326 N 773.046 0.209999 1.56195 0
M  V30 8327 C 774.294 -0.423974 1.97603 0
M  V30 8328 C 774.615 -1.61112 1.09854 0
M  V30 8329 O 773.885 -1.95134 0.173032 0
M  V30 8330 H 772.465 -0.159629 0.729745 0
M  V30 8331 H 775.127 0.300205 1.92574 0
M  V30 8332 H 774.223 -0.75809 3.02753 0
M  V30 8333 N 774.524 -1.57472 -0.0634922 0
M  V30 8334 C 775.454 -2.07297 -1.07473 0
M  V30 8335 C 776.435 -0.968162 -1.39859 0
M  V30 8336 O 777.62 -1.24139 -1.49343 0
M  V30 8337 C 774.75 -2.52381 -2.38581 0
M  V30 8338 C 773.704 -3.66813 -2.20526 0
M  V30 8339 C 773.03 -3.97982 -3.57092 0
M  V30 8340 C 774.33 -4.96553 -1.61965 0
M  V30 8341 H 776.024 -2.92033 -0.660092 0
M  V30 8342 H 773.57 -1.40488 -0.316074 0
M  V30 8343 H 775.523 -2.85852 -3.09624 0
M  V30 8344 H 774.247 -1.64684 -2.8204 0
M  V30 8345 H 772.906 -3.33639 -1.51924 0
M  V30 8346 H 772.554 -3.07403 -3.98136 0
M  V30 8347 H 772.254 -4.7504 -3.45848 0
M  V30 8348 H 773.778 -4.33956 -4.29552 0
M  V30 8349 H 775.192 -5.28201 -2.22883 0
M  V30 8350 H 773.589 -5.7799 -1.61394 0
M  V30 8351 H 774.659 -4.81396 -0.581918 0
M  V30 8352 N 776.003 0.335068 -1.53997 0
M  V30 8353 C 776.966 1.39481 -1.81872 0
M  V30 8354 C 777.966 1.4524 -0.690078 0
M  V30 8355 O 779.156 1.45467 -0.958377 0
M  V30 8356 C 776.288 2.78329 -1.9684 0
M  V30 8357 H 777.481 1.16024 -2.76547 0
M  V30 8358 H 775.034 0.569926 -1.45539 0
M  V30 8359 H 775.769 3.07058 -1.04337 0
M  V30 8360 H 775.554 2.75544 -2.78958 0
M  V30 8361 H 777.044 3.55016 -2.19894 0
M  V30 8362 N 777.481 1.45874 0.596531 0
M  V30 8363 C 778.429 1.55739 1.72766 0
M  V30 8364 C 779.423 0.426666 1.63939 0
M  V30 8365 O 780.629 0.60301 1.69599 0
M  V30 8366 H 777.004 0.489386 0.570968 0
M  V30 8367 H 778.975 2.50871 1.61575 0
M  V30 8368 C 777.724 1.55174 3.11153 0
M  V30 8369 H 777.047 2.41511 3.1861 0
M  V30 8370 H 778.487 1.66133 3.90097 0
M  V30 8371 C 776.946 0.278001 3.35751 0
M  V30 8372 O 777.476 -0.637557 3.96608 0
M  V30 8373 N 775.682 0.170227 2.90101 0
M  V30 8374 H 775.229 0.916159 2.40758 0
M  V30 8375 H 775.187 -0.68117 3.06932 0
M  V30 8376 N 778.959 -0.83999 1.33349 0
M  V30 8377 C 780.184 -1.63249 1.27924 0
M  V30 8378 C 780.609 -1.87523 -0.147193 0
M  V30 8379 O 779.967 -1.43853 -1.10345 0
M  V30 8380 C 780.015 -2.96046 2.05886 0
M  V30 8381 O 779.119 -3.87303 1.4167 0
M  V30 8382 H 778.46 -0.49715 0.440157 0
M  V30 8383 H 780.99 -1.04512 1.75893 0
M  V30 8384 H 781 -3.45752 2.16609 0
M  V30 8385 H 779.675 -2.77701 3.09605 0
M  V30 8386 H 778.252 -3.45789 1.39585 0
M  V30 8387 N 780.437 -1.16799 -1.0581 0
M  V30 8388 C 781.667 -0.975454 -1.82122 0
M  V30 8389 C 782.075 0.479584 -1.83021 0
M  V30 8390 O 781.418 1.34471 -1.25153 0
M  V30 8391 C 781.48 -1.43209 -3.29744 0
M  V30 8392 C 781.144 -2.908 -3.5254 0
M  V30 8393 C 782.141 -3.88775 -3.45181 0
M  V30 8394 C 779.826 -3.28832 -3.79703 0
M  V30 8395 C 781.82 -5.22782 -3.64661 0
M  V30 8396 C 779.507 -4.63007 -3.98832 0
M  V30 8397 C 780.505 -5.59791 -3.91309 0
M  V30 8398 O 780.193 -6.9154 -4.09911 0
M  V30 8399 H 779.925 -0.345655 -0.580947 0
M  V30 8400 H 782.479 -1.55355 -1.34365 0
M  V30 8401 H 780.709 -0.797504 -3.78387 0
M  V30 8402 H 782.398 -1.2062 -3.87564 0
M  V30 8403 H 783.164 -3.60738 -3.2418 0
M  V30 8404 H 779.043 -2.54073 -3.84666 0
M  V30 8405 H 782.587 -5.98312 -3.58705 0
M  V30 8406 H 778.484 -4.90752 -4.19324 0
M  V30 8407 H 779.252 -6.98188 -4.27172 0
M  V30 8408 N 781.915 1.24427 -0.967243 0
M  V30 8409 C 782.863 2.27403 -0.488927 0
M  V30 8410 C 783.857 1.63388 0.447302 0
M  V30 8411 O 785.063 1.77085 0.322643 0
M  V30 8412 H 781.438 0.738921 -0.139643 0
M  V30 8413 H 783.409 2.65122 -1.36942 0
M  V30 8414 C 782.158 3.4709 0.205787 0
M  V30 8415 H 781.481 3.96591 -0.50551 0
M  V30 8416 H 782.921 4.2099 0.504296 0
M  V30 8417 C 781.38 3.04923 1.43261 0
M  V30 8418 O 781.91 3.12043 2.52967 0
M  V30 8419 N 780.116 2.59976 1.29849 0
M  V30 8420 H 779.663 2.54382 0.405876 0
M  V30 8421 H 779.621 2.32128 2.12047 0
M  V30 8422 N 783.393 0.737304 1.3929 0
M  V30 8423 C 784.323 0.113988 2.33222 0
M  V30 8424 C 785.304 -0.721695 1.54031 0
M  V30 8425 O 786.489 -0.666206 1.82415 0
M  V30 8426 C 783.619 -0.792319 3.38141 0
M  V30 8427 C 782.573 -0.0606178 4.27957 0
M  V30 8428 C 781.899 -1.08409 5.23595 0
M  V30 8429 C 783.199 1.09817 5.10625 0
M  V30 8430 H 784.893 0.898611 2.85596 0
M  V30 8431 H 782.439 0.433571 1.37318 0
M  V30 8432 H 784.392 -1.23793 4.02807 0
M  V30 8433 H 783.116 -1.60908 2.84211 0
M  V30 8434 H 781.775 0.365393 3.64775 0
M  V30 8435 H 781.423 -1.89449 4.6596 0
M  V30 8436 H 781.123 -0.599269 5.84536 0
M  V30 8437 H 782.647 -1.52936 5.91137 0
M  V30 8438 H 784.061 0.730892 5.68622 0
M  V30 8439 H 782.458 1.51278 5.80719 0
M  V30 8440 H 783.528 1.91878 4.45321 0
M  V30 8441 N 784.871 -1.49948 0.485112 0
M  V30 8442 C 786.096 -2.073 -0.0645059 0
M  V30 8443 C 786.521 -1.345 -1.31497 0
M  V30 8444 O 785.879 -0.39687 -1.76903 0
M  V30 8445 C 785.927 -3.59201 -0.317304 0
M  V30 8446 O 785.031 -3.88085 -1.39514 0
M  V30 8447 H 784.372 -0.663723 0.0191822 0
M  V30 8448 H 786.902 -1.92963 0.680179 0
M  V30 8449 H 786.912 -4.04227 -0.553604 0
M  V30 8450 H 785.587 -4.11602 0.596387 0
M  V30 8451 H 784.164 -3.54885 -1.14504 0
M  V30 8452 N 786.349 -0.21828 -1.56081 0
M  V30 8453 C 787.577 0.419258 -2.02608 0
M  V30 8454 C 787.992 1.53578 -1.09814 0
M  V30 8455 O 787.349 1.82185 -0.107149 0
M  V30 8456 C 787.4 0.953955 -3.48686 0
M  V30 8457 O 787.121 -0.11805 -4.37941 0
M  V30 8458 C 788.622 1.66506 -4.10841 0
M  V30 8459 H 785.842 0.10296 -0.663054 0
M  V30 8460 H 788.386 -0.333776 -2.01758 0
M  V30 8461 H 786.541 1.65727 -3.50162 0
M  V30 8462 H 786.955 0.283359 -5.23734 0
M  V30 8463 H 788.429 1.99123 -5.14834 0
M  V30 8464 H 788.906 2.57705 -3.55647 0
M  V30 8465 H 789.512 1.00703 -4.13206 0
M  V30 8466 N 787.827 1.57504 0.0551401 0
M  V30 8467 C 788.79 2.03826 1.04821 0
M  V30 8468 C 789.79 0.937968 1.30609 0
M  V30 8469 O 790.98 1.20237 1.2605 0
M  V30 8470 C 788.112 2.43309 2.38775 0
M  V30 8471 H 789.305 2.92802 0.6486 0
M  V30 8472 H 786.858 1.53368 0.301315 0
M  V30 8473 H 787.593 1.5741 2.83536 0
M  V30 8474 H 787.378 3.23615 2.21395 0
M  V30 8475 H 788.868 2.79666 3.10124 0
M  V30 8476 N 789.305 -0.326896 1.54172 0
M  V30 8477 C 790.252 -1.40216 1.83325 0
M  V30 8478 C 791.222 -1.51538 0.680107 0
M  V30 8479 O 792.407 -1.66811 0.926206 0
M  V30 8480 C 789.547 -2.76626 2.0633 0
M  V30 8481 C 788.66 -2.73963 3.34019 0
M  V30 8482 C 787.795 -4.02198 3.47002 0
M  V30 8483 C 786.834 -3.93828 4.68578 0
M  V30 8484 N 785.971 -5.13787 4.78506 0
M  V30 8485 H 790.811 -1.14656 2.7506 0
M  V30 8486 H 788.348 -0.555089 1.36225 0
M  V30 8487 H 790.306 -3.55922 2.17659 0
M  V30 8488 H 788.936 -3.00503 1.1789 0
M  V30 8489 H 787.988 -1.86677 3.31445 0
M  V30 8490 H 789.3 -2.6366 4.2342 0
M  V30 8491 H 788.454 -4.89923 3.57855 0
M  V30 8492 H 787.193 -4.15302 2.55687 0
M  V30 8493 H 786.198 -3.04487 4.57786 0
M  V30 8494 H 787.423 -3.82292 5.61275 0
M  V30 8495 H 785.369 -5.27403 3.90105 0
M  V30 8496 H 785.286 -5.05807 5.61868 0
M  V30 8497 H 786.554 -6.03236 4.93686 0
M  V30 8498 N 790.784 -1.46188 -0.588786 0
M  V30 8499 C 791.714 -1.59148 -1.70863 0
M  V30 8500 C 792.695 -0.442083 -1.64255 0
M  V30 8501 O 793.88 -0.667575 -1.82365 0
M  V30 8502 C 791.01 -1.5757 -3.09498 0
M  V30 8503 C 789.964 -2.71418 -3.30932 0
M  V30 8504 C 789.29 -2.549 -4.70032 0
M  V30 8505 C 790.59 -4.1329 -3.19356 0
M  V30 8506 H 792.284 -2.52889 -1.60274 0
M  V30 8507 H 789.83 -1.21707 -0.769638 0
M  V30 8508 H 791.783 -1.65231 -3.87655 0
M  V30 8509 H 790.507 -0.603705 -3.20972 0
M  V30 8510 H 789.166 -2.63216 -2.55172 0
M  V30 8511 H 788.814 -1.55797 -4.78264 0
M  V30 8512 H 788.514 -3.31257 -4.85327 0
M  V30 8513 H 790.038 -2.64443 -5.50366 0
M  V30 8514 H 791.452 -4.22636 -3.87365 0
M  V30 8515 H 789.849 -4.90187 -3.46175 0
M  V30 8516 H 790.919 -4.33874 -2.16522 0
M  V30 8517 N 792.262 0.832906 -1.33792 0
M  V30 8518 C 793.51 1.58539 -1.25338 0
M  V30 8519 C 793.831 1.94175 0.179204 0
M  V30 8520 O 793.101 1.61458 1.10941 0
M  V30 8521 H 791.681 0.58784 -0.460926 0
M  V30 8522 H 794.343 0.995064 -1.67584 0
M  V30 8523 H 793.439 2.51268 -1.85123 0
M  V30 8524 N 793.74 1.17359 1.05189 0
M  V30 8525 C 794.67 0.91365 2.14883 0
M  V30 8526 C 795.651 -0.144365 1.69486 0
M  V30 8527 O 796.836 0.00587861 1.94199 0
M  V30 8528 C 793.966 0.426196 3.44675 0
M  V30 8529 C 792.92 1.4234 4.03638 0
M  V30 8530 C 792.246 0.793902 5.28773 0
M  V30 8531 C 793.546 2.7966 4.41121 0
M  V30 8532 H 795.24 1.831 2.36885 0
M  V30 8533 H 792.786 0.881781 1.13845 0
M  V30 8534 H 794.739 0.231767 4.20762 0
M  V30 8535 H 793.463 -0.526693 3.22325 0
M  V30 8536 H 792.122 1.60457 3.2962 0
M  V30 8537 H 791.77 -0.165824 5.02727 0
M  V30 8538 H 791.47 1.45959 5.69183 0
M  V30 8539 H 792.994 0.609747 6.07548 0
M  V30 8540 H 794.408 2.6526 5.08242 0
M  V30 8541 H 792.805 3.42807 4.92548 0
M  V30 8542 H 793.875 3.34068 3.51464 0
M  V30 8543 N 795.218 -1.23913 0.973828 0
M  V30 8544 C 796.495 -1.87539 0.555729 0
M  V30 8545 C 796.875 -1.87641 -0.967162 0
M  V30 8546 O 796.223 -1.35335 -1.84111 0
M  V30 8547 C 796.433 -3.29359 1.15427 0
M  V30 8548 C 797.781 -4.06 1.24294 0
M  V30 8549 O 798.805 -3.38554 1.10723 0
M  V30 8550 O 797.664 -5.26689 1.45813 0
M  V30 8551 H 794.758 -0.805769 0.186188 0
M  V30 8552 H 797.304 -1.31838 1.06849 0
M  V30 8553 H 796.076 -3.23817 2.19678 0
M  V30 8554 H 795.699 -3.92642 0.625925 0
M  V30 8555 N 796.696 -0.74468 -1.38897 0
M  V30 8556 C 797.942 -0.297324 -2.00609 0
M  V30 8557 C 798.275 1.11547 -1.58968 0
M  V30 8558 O 797.55 1.76227 -0.823057 0
M  V30 8559 C 797.833 -0.410125 -3.57757 0
M  V30 8560 C 797.686 -1.86338 -4.09387 0
M  V30 8561 C 799.005 0.20176 -4.39637 0
M  V30 8562 H 796.124 -0.109509 -0.728819 0
M  V30 8563 H 798.766 -0.942653 -1.64967 0
M  V30 8564 H 796.916 0.139287 -3.8825 0
M  V30 8565 H 798.588 -2.47042 -3.89574 0
M  V30 8566 H 796.831 -2.38146 -3.62586 0
M  V30 8567 H 797.502 -1.89352 -5.18507 0
M  V30 8568 H 799.978 -0.266703 -4.15244 0
M  V30 8569 H 798.854 0.0925415 -5.48822 0
M  V30 8570 H 799.115 1.289 -4.22891 0
M  V30 8571 N 798.174 1.49689 -0.493057 0
M  V30 8572 C 799.422 2.02027 0.0541642 0
M  V30 8573 C 799.743 1.37554 1.38217 0
M  V30 8574 O 799.013 0.528174 1.88646 0
M  V30 8575 H 797.593 0.746646 0.0230069 0
M  V30 8576 H 800.255 1.83795 -0.648489 0
M  V30 8577 H 799.351 3.11523 0.189652 0
M  V30 8578 N 799.652 0.226554 1.55963 0
M  V30 8579 C 800.898 -0.404387 1.98727 0
M  V30 8580 C 801.231 -1.59059 1.11418 0
M  V30 8581 O 800.506 -1.93729 0.172971 0
M  V30 8582 C 800.789 -0.834081 3.50307 0
M  V30 8583 C 800.642 0.356104 4.48388 0
M  V30 8584 C 801.961 -1.68845 4.06423 0
M  V30 8585 H 799.08 -0.145515 0.722492 0
M  V30 8586 H 801.722 0.323791 1.87221 0
M  V30 8587 H 799.872 -1.45454 3.60244 0
M  V30 8588 H 801.544 0.99432 4.50456 0
M  V30 8589 H 799.787 1.0027 4.22053 0
M  V30 8590 H 800.458 0.0124333 5.51999 0
M  V30 8591 H 802.934 -1.16489 3.99461 0
M  V30 8592 H 801.81 -1.958 5.1279 0
M  V30 8593 H 802.071 -2.65347 3.53615 0
M  V30 8594 N 801.13 -1.57531 -0.0467866 0
M  V30 8595 C 802.541 -1.76945 -0.595603 0
M  V30 8596 C 802.892 -0.855354 -1.76573 0
M  V30 8597 O 802.017 -0.045668 -2.16352 0
M  V30 8598 C 802.612 -3.20881 -1.08725 0
M  V30 8599 C 801.171 -3.41553 -1.58172 0
M  V30 8600 C 800.318 -2.72533 -0.511968 0
M  V30 8601 H 803.269 -1.57682 0.179436 0
M  V30 8602 H 803.29 -3.26419 -1.95528 0
M  V30 8603 H 802.802 -3.87385 -0.235398 0
M  V30 8604 H 800.903 -2.80199 -2.456 0
M  V30 8605 H 801.016 -4.50104 -1.64143 0
M  V30 8606 H 799.38 -2.35797 -0.962899 0
M  V30 8607 H 800.163 -3.41709 0.330117 0
M  V30 8608 N 802.608 0.318715 -1.54344 0
M  V30 8609 C 803.556 1.41254 -1.84798 0
M  V30 8610 C 804.55 1.53325 -0.720256 0
M  V30 8611 O 805.756 1.55653 -0.903992 0
M  V30 8612 H 802.131 0.471468 -0.585851 0
M  V30 8613 H 804.102 1.12795 -2.7626 0
M  V30 8614 C 802.851 2.77395 -2.09637 0
M  V30 8615 H 802.174 2.68881 -2.95876 0
M  V30 8616 H 803.614 3.52987 -2.34896 0
M  V30 8617 C 802.073 3.24948 -0.889398 0
M  V30 8618 O 802.603 4.01573 -0.101063 0
M  V30 8619 N 800.809 2.82051 -0.699684 0
M  V30 8620 H 800.356 2.19858 -1.3424 0
M  V30 8621 H 800.314 3.1422 0.106368 0
M  V30 8622 N 804.086 1.46499 0.581025 0
M  V30 8623 C 805.332 1.52121 1.34116 0
M  V30 8624 C 805.665 0.173031 1.93428 0
M  V30 8625 O 804.94 -0.815729 1.76568 0
M  V30 8626 C 805.223 2.62108 2.46924 0
M  V30 8627 C 805.076 4.06462 1.92636 0
M  V30 8628 C 806.395 2.68167 3.48962 0
M  V30 8629 H 803.514 0.5538 0.486287 0
M  V30 8630 H 806.156 1.78443 0.652538 0
M  V30 8631 H 804.306 2.39794 3.05665 0
M  V30 8632 H 805.978 4.40068 1.3834 0
M  V30 8633 H 804.221 4.15862 1.23455 0
M  V30 8634 H 804.892 4.79152 2.74076 0
M  V30 8635 H 807.368 2.8823 3.00104 0
M  V30 8636 H 806.244 3.46942 4.2535 0
M  V30 8637 H 806.505 1.74284 4.06297 0
M  V30 8638 N 805.565 -0.825799 1.34232 0
M  V30 8639 C 806.495 -1.95151 1.28212 0
M  V30 8640 C 807.476 -1.69345 0.160123 0
M  V30 8641 O 808.661 -1.90983 0.352019 0
M  V30 8642 C 805.791 -3.31554 1.03388 0
M  V30 8643 C 804.745 -3.71793 2.12023 0
M  V30 8644 C 804.071 -5.06147 1.72392 0
M  V30 8645 C 805.371 -3.84193 3.53826 0
M  V30 8646 H 807.065 -2.00445 2.22401 0
M  V30 8647 H 804.611 -0.962996 1.07063 0
M  V30 8648 H 806.564 -4.09889 0.978225 0
M  V30 8649 H 805.288 -3.26551 0.0564142 0
M  V30 8650 H 803.947 -2.95731 2.16654 0
M  V30 8651 H 803.595 -4.97628 0.733137 0
M  V30 8652 H 803.295 -5.34041 2.451 0
M  V30 8653 H 804.819 -5.86943 1.68317 0
M  V30 8654 H 806.233 -4.52806 3.51624 0
M  V30 8655 H 804.63 -4.23538 4.2513 0
M  V30 8656 H 805.7 -2.86272 3.91377 0
M  V30 8657 N 807.043 -1.17915 -1.04565 0
M  V30 8658 C 807.975 -0.859359 -2.1248 0
M  V30 8659 C 808.988 0.140922 -1.62189 0
M  V30 8660 O 810.177 -0.0862361 -1.78292 0
M  V30 8661 C 807.277 -0.261811 -3.37887 0
M  V30 8662 C 806.45 -1.30651 -4.17431 0
M  V30 8663 C 805.509 -0.725575 -5.21174 0
M  V30 8664 O 804.535 -1.39901 -5.51739 0
M  V30 8665 N 805.737 0.479351 -5.78517 0
M  V30 8666 H 808.502 -1.78818 -2.40508 0
M  V30 8667 H 806.063 -1.07885 -1.20716 0
M  V30 8668 H 808.055 0.14028 -4.04457 0
M  V30 8669 H 806.625 0.570929 -3.07342 0
M  V30 8670 H 805.845 -1.88412 -3.46258 0
M  V30 8671 H 807.133 -2.01099 -4.67372 0
M  V30 8672 H 806.531 1.04431 -5.55977 0
M  V30 8673 H 805.088 0.823427 -6.46578 0
M  V30 8674 N 808.521 1.23394 -0.980386 0
M  V30 8675 C 809.749 1.95844 -0.667286 0
M  V30 8676 C 810.164 1.72574 0.765735 0
M  V30 8677 O 809.521 1.01715 1.51526 0
M  V30 8678 C 809.572 3.48844 -0.948151 0
M  V30 8679 O 809.293 3.71325 -2.32485 0
M  V30 8680 C 810.794 4.38494 -0.651002 0
M  V30 8681 H 808.014 0.623535 -0.247882 0
M  V30 8682 H 810.558 1.56885 -1.31176 0
M  V30 8683 H 808.713 3.85819 -0.349681 0
M  V30 8684 H 809.127 4.65619 -2.41452 0
M  V30 8685 H 810.601 5.44648 -0.897887 0
M  V30 8686 H 811.078 4.37236 0.414922 0
M  V30 8687 H 811.684 4.07127 -1.22995 0
M  V30 8688 N 809.999 0.752036 1.385 0
M  V30 8689 C 811.245 0.307958 2.00448 0
M  V30 8690 C 811.578 -1.10702 1.59558 0
M  V30 8691 O 810.853 -1.75788 0.832391 0
M  V30 8692 C 811.136 0.429092 3.57534 0
M  V30 8693 C 810.989 1.88507 4.08393 0
M  V30 8694 C 812.308 -0.178442 4.39738 0
M  V30 8695 H 809.427 0.113373 0.728228 0
M  V30 8696 H 812.069 0.951389 1.64465 0
M  V30 8697 H 810.219 -0.118695 3.88319 0
M  V30 8698 H 811.891 2.49104 3.88259 0
M  V30 8699 H 810.134 2.40066 3.61318 0
M  V30 8700 H 810.805 1.92099 5.17496 0
M  V30 8701 H 813.281 0.28872 4.15097 0
M  V30 8702 H 812.157 -0.0634349 5.48863 0
M  V30 8703 H 812.418 -1.26655 4.23569 0
M  V30 8704 N 811.477 -1.49425 0.500989 0
M  V30 8705 C 812.44 -2.27646 -0.266416 0
M  V30 8706 C 813.44 -1.3366 -0.893961 0
M  V30 8707 O 814.63 -1.5682 -0.758495 0
M  V30 8708 C 811.762 -3.11618 -1.38227 0
M  V30 8709 H 812.955 -2.96945 0.419973 0
M  V30 8710 H 810.508 -1.5419 0.255954 0
M  V30 8711 H 811.243 -2.46885 -2.10281 0
M  V30 8712 H 811.028 -3.80721 -0.937746 0
M  V30 8713 H 812.518 -3.70698 -1.92283 0
M  V30 8714 N 812.955 -0.234822 -1.55841 0
M  V30 8715 C 814.371 0.120295 -1.59146 0
M  V30 8716 C 814.571 1.57896 -1.25184 0
M  V30 8717 O 813.627 2.32138 -0.993393 0
M  V30 8718 C 814.94 -0.217984 -2.99909 0
M  V30 8719 C 816.488 -0.161298 -3.12584 0
M  V30 8720 C 816.963 -0.473438 -4.55546 0
M  V30 8721 N 818.454 -0.423494 -4.6126 0
M  V30 8722 C 819.189 -0.638334 -5.69836 0
M  V30 8723 N 818.685 -0.915659 -6.86722 0
M  V30 8724 N 820.478 -0.569864 -5.59204 0
M  V30 8725 H 812.629 -1.18622 -1.76189 0
M  V30 8726 H 814.892 -0.476426 -0.819587 0
M  V30 8727 H 814.598 -1.2309 -3.29457 0
M  V30 8728 H 814.472 0.460707 -3.74376 0
M  V30 8729 H 816.859 0.842274 -2.82825 0
M  V30 8730 H 816.94 -0.873661 -2.40418 0
M  V30 8731 H 816.584 -1.47451 -4.86025 0
M  V30 8732 H 816.514 0.260268 -5.25956 0
M  V30 8733 H 819.005 -0.217383 -3.77274 0
M  V30 8734 H 819.318 -1.06734 -7.65394 0
M  V30 8735 H 817.663 -0.953 -6.88435 0
M  V30 8736 H 820.854 -0.35334 -4.66765 0
M  V30 8737 H 821.027 -0.740698 -6.43753 0
M  V30 8738 N 814.433 1.57553 0.0384317 0
M  V30 8739 C 815.363 2.0898 1.04161 0
M  V30 8740 C 816.344 0.99029 1.38301 0
M  V30 8741 O 817.529 1.26499 1.47349 0
M  V30 8742 C 814.659 2.56145 2.34536 0
M  V30 8743 C 813.613 3.70275 2.14663 0
M  V30 8744 C 812.939 4.03612 3.50715 0
M  V30 8745 C 814.239 4.99067 1.54045 0
M  V30 8746 H 815.933 2.93046 0.613548 0
M  V30 8747 H 813.479 1.40973 0.293684 0
M  V30 8748 H 815.432 2.90741 3.05037 0
M  V30 8749 H 814.156 1.6915 2.79385 0
M  V30 8750 H 812.815 3.36013 1.46597 0
M  V30 8751 H 812.463 3.13698 3.93195 0
M  V30 8752 H 812.163 4.80482 3.38247 0
M  V30 8753 H 813.687 4.40735 4.22593 0
M  V30 8754 H 815.101 5.3168 2.14451 0
M  V30 8755 H 813.498 5.80484 1.52178 0
M  V30 8756 H 814.568 4.8226 0.505259 0
M  V30 8757 N 815.911 -0.310526 1.54511 0
M  V30 8758 C 817.159 -1.04484 1.72996 0
M  V30 8759 C 817.48 -1.88118 0.513479 0
M  V30 8760 O 816.75 -1.90119 -0.472384 0
M  V30 8761 H 815.33 -0.388747 0.637875 0
M  V30 8762 H 817.992 -0.343811 1.91844 0
M  V30 8763 H 817.088 -1.70341 2.61515 0
M  V30 8764 N 817.389 -1.46805 -0.573248 0
M  V30 8765 C 818.638 -1.51868 -1.32736 0
M  V30 8766 C 818.951 -0.178765 -1.94781 0
M  V30 8767 O 820.157 -0.107272 -2.71288 0
M  V30 8768 C 818.613 -2.67641 -2.40616 0
M  V30 8769 C 818.221 -4.08094 -1.84832 0
M  V30 8770 C 819.965 -2.81984 -3.17309 0
M  V30 8771 C 817.872 -5.15193 -2.90397 0
M  V30 8772 H 816.802 -0.56523 -0.49903 0
M  V30 8773 H 819.453 -1.7304 -0.610695 0
M  V30 8774 H 817.835 -2.39818 -3.15124 0
M  V30 8775 H 819.009 -4.45751 -1.16803 0
M  V30 8776 H 817.324 -3.985 -1.20775 0
M  V30 8777 H 819.921 -3.59166 -3.96111 0
M  V30 8778 H 820.264 -1.89842 -3.70494 0
M  V30 8779 H 820.797 -3.095 -2.4991 0
M  V30 8780 H 817.536 -6.09158 -2.42088 0
M  V30 8781 H 817.056 -4.82071 -3.56886 0
M  V30 8782 H 818.735 -5.41448 -3.54179 0
M  V30 8783 N 818.867 0.818669 -1.34668 0
M  V30 8784 C 819.815 1.95123 -1.26609 0
M  V30 8785 C 820.809 1.68611 -0.163348 0
M  V30 8786 O 822.015 1.76975 -0.328586 0
M  V30 8787 H 818.39 0.640871 -0.393431 0
M  V30 8788 H 820.361 1.99043 -2.22316 0
M  V30 8789 C 819.11 3.31697 -1.04272 0
M  V30 8790 H 818.433 3.52648 -1.8836 0
M  V30 8791 H 819.873 4.11382 -1.0267 0
M  V30 8792 C 818.332 3.35942 0.253858 0
M  V30 8793 O 818.862 3.81632 1.25378 0
M  V30 8794 N 817.068 2.89165 0.288447 0
M  V30 8795 H 816.615 2.52176 -0.525845 0
M  V30 8796 H 816.573 2.92387 1.15572 0
M  V30 8797 N 820.346 1.18468 1.03938 0
M  V30 8798 C 821.762 0.934635 1.29371 0
M  V30 8799 C 821.962 -0.399067 1.97509 0
M  V30 8800 O 821.018 -1.13309 2.25648 0
M  V30 8801 C 822.331 2.10111 2.15114 0
M  V30 8802 C 823.879 2.13955 2.28456 0
M  V30 8803 C 824.354 3.30024 3.17566 0
M  V30 8804 N 825.845 3.29893 3.25153 0
M  V30 8805 C 826.58 4.16346 3.94263 0
M  V30 8806 N 826.076 5.12934 4.65693 0
M  V30 8807 N 827.869 4.04256 3.90556 0
M  V30 8808 H 820.02 2.04294 0.581185 0
M  V30 8809 H 822.283 0.892727 0.318971 0
M  V30 8810 H 821.989 3.06572 1.72355 0
M  V30 8811 H 821.863 2.06283 3.15796 0
M  V30 8812 H 824.25 1.18072 2.7045 0
M  V30 8813 H 824.331 2.2184 1.2736 0
M  V30 8814 H 823.975 4.26181 2.76283 0
M  V30 8815 H 823.905 3.19376 4.18697 0
M  V30 8816 H 826.396 2.59969 2.74271 0
M  V30 8817 H 826.709 5.75271 5.16026 0
M  V30 8818 H 825.054 5.16893 4.64593 0
M  V30 8819 H 828.245 3.28083 3.33885 0
M  V30 8820 H 828.418 4.71848 4.44144 0
M  V30 8821 N 821.824 -1.22873 0.986916 0
M  V30 8822 C 823.101 -1.86939 0.575589 0
M  V30 8823 C 823.481 -1.88656 -0.947205 0
M  V30 8824 O 822.829 -1.3728 -1.82665 0
M  V30 8825 C 823.039 -3.28117 1.18914 0
M  V30 8826 C 824.387 -4.04659 1.28593 0
M  V30 8827 O 825.411 -3.3736 1.14308 0
M  V30 8828 O 824.27 -5.25112 1.51391 0
M  V30 8829 H 821.364 -0.803748 0.194724 0
M  V30 8830 H 823.91 -1.30698 1.08241 0
M  V30 8831 H 822.682 -3.21468 2.231 0
M  V30 8832 H 822.305 -3.91956 0.667535 0
M  V30 8833 N 823.302 -0.75937 -1.38099 0
M  V30 8834 C 824.548 -0.327559 -2.00745 0
M  V30 8835 C 824.903 1.08042 -1.592 0
M  V30 8836 O 824.196 1.7306 -0.822236 0
M  V30 8837 C 824.39 -0.394999 -3.55211 0
M  V30 8838 C 824.219 -1.80798 -4.11755 0
M  V30 8839 C 822.989 -2.42585 -4.43262 0
M  V30 8840 C 825.187 -2.76556 -4.33614 0
M  V30 8841 N 823.169 -3.75784 -4.85448 0
M  V30 8842 C 824.54 -3.94532 -4.78273 0
M  V30 8843 C 826.595 -2.74004 -4.15724 0
M  V30 8844 C 825.298 -5.10322 -5.06916 0
M  V30 8845 C 827.324 -3.88957 -4.45496 0
M  V30 8846 C 826.686 -5.05672 -4.90383 0
M  V30 8847 H 822.785 -0.166644 -0.764038 0
M  V30 8848 H 825.369 -0.99056 -1.67619 0
M  V30 8849 H 823.54 0.237761 -3.87672 0
M  V30 8850 H 825.272 0.0576828 -4.04659 0
M  V30 8851 H 822.027 -1.94302 -4.31907 0
M  V30 8852 H 822.451 -4.44234 -5.10867 0
M  V30 8853 H 827.093 -1.84948 -3.80203 0
M  V30 8854 H 824.811 -5.99988 -5.41332 0
M  V30 8855 H 828.397 -3.88308 -4.33253 0
M  V30 8856 H 827.277 -5.93146 -5.1298 0
M  V30 8857 N 824.78 1.49157 -0.508906 0
M  V30 8858 C 826.191 1.86593 -0.0630975 0
M  V30 8859 C 826.542 1.42051 1.35337 0
M  V30 8860 O 825.667 0.801866 2.00995 0
M  V30 8861 C 826.262 3.38629 -0.107729 0
M  V30 8862 C 824.821 3.75336 0.282776 0
M  V30 8863 C 823.968 2.7317 -0.4768 0
M  V30 8864 H 826.919 1.41362 -0.72128 0
M  V30 8865 H 826.94 3.74271 0.685689 0
M  V30 8866 H 826.452 3.71017 -1.13876 0
M  V30 8867 H 824.553 3.48558 1.31675 0
M  V30 8868 H 824.666 4.79081 -0.0421728 0
M  V30 8869 H 823.03 2.54591 0.0743552 0
M  V30 8870 H 823.813 3.08403 -1.50807 0
M  V30 8871 N 826.258 0.243083 1.55714 0
M  V30 8872 C 827.221 -0.644723 2.19945 0
M  V30 8873 C 828.221 -1.10562 1.16759 0
M  V30 8874 O 829.411 -1.01095 1.41865 0
M  V30 8875 C 826.543 -1.88569 2.83997 0
M  V30 8876 H 827.736 -0.0843839 2.99781 0
M  V30 8877 H 825.289 -0.00647246 1.56299 0
M  V30 8878 H 826.024 -2.48736 2.08089 0
M  V30 8879 H 825.809 -1.56345 3.59581 0
M  V30 8880 H 827.299 -2.51774 3.33166 0
M  V30 8881 N 827.736 -1.57571 -0.0300757 0
M  V30 8882 C 828.966 -1.93204 -0.731828 0
M  V30 8883 C 829.374 -0.841156 -1.69473 0
M  V30 8884 O 828.717 0.191231 -1.82702 0
M  V30 8885 C 828.779 -3.2463 -1.54453 0
M  V30 8886 C 828.443 -4.50862 -0.746507 0
M  V30 8887 C 829.44 -5.19879 -0.0472309 0
M  V30 8888 C 827.125 -4.9738 -0.701347 0
M  V30 8889 C 829.119 -6.33692 0.686518 0
M  V30 8890 C 826.806 -6.11089 0.036148 0
M  V30 8891 C 827.804 -6.791 0.728841 0
M  V30 8892 O 827.492 -7.90635 1.45436 0
M  V30 8893 H 827.224 -0.6423 -0.210775 0
M  V30 8894 H 829.778 -2.05398 0.00804194 0
M  V30 8895 H 828.008 -3.0876 -2.32818 0
M  V30 8896 H 829.697 -3.45597 -2.1288 0
M  V30 8897 H 830.463 -4.84945 -0.0731582 0
M  V30 8898 H 826.342 -4.44288 -1.23001 0
M  V30 8899 H 829.886 -6.86711 1.22773 0
M  V30 8900 H 825.783 -6.45468 0.064002 0
M  V30 8901 H 826.551 -8.06988 1.36794 0
M  V30 8902 N 829.214 0.302327 -1.54673 0
M  V30 8903 C 830.625 0.875409 -1.64904 0
M  V30 8904 C 830.976 1.88132 -0.55684 0
M  V30 8905 O 830.101 2.14215 0.306754 0
M  V30 8906 C 830.696 1.59457 -2.9893 0
M  V30 8907 C 829.255 2.11607 -3.11287 0
M  V30 8908 C 828.402 0.948324 -2.6058 0
M  V30 8909 H 831.353 0.079362 -1.58501 0
M  V30 8910 H 831.374 2.46005 -2.90279 0
M  V30 8911 H 830.886 0.8622 -3.78402 0
M  V30 8912 H 828.987 2.87895 -2.36532 0
M  V30 8913 H 829.1 2.35151 -4.17422 0
M  V30 8914 H 827.464 1.33352 -2.17001 0
M  V30 8915 H 828.247 0.229936 -3.42529 0
M  V30 8916 N 830.692 1.47107 0.565454 0
M  V30 8917 C 831.917 1.57153 1.35343 0
M  V30 8918 C 832.342 0.219247 1.86818 0
M  V30 8919 O 831.7 -0.803539 1.62521 0
M  V30 8920 C 831.748 2.59387 2.50501 0
M  V30 8921 O 830.852 2.14086 3.52478 0
M  V30 8922 H 830.193 0.528209 0.402357 0
M  V30 8923 H 832.723 1.92821 0.684189 0
M  V30 8924 H 832.733 2.79546 2.97184 0
M  V30 8925 H 831.408 3.57579 2.12391 0
M  V30 8926 H 829.985 2.03991 3.12157 0
M  V30 8927 N 832.17 -0.811516 1.35101 0
M  V30 8928 C 833.103 -1.92872 1.21966 0
M  V30 8929 C 834.081 -1.62236 0.108667 0
M  V30 8930 O 835.265 -1.8647 0.275875 0
M  V30 8931 C 832.392 -3.27152 0.876886 0
M  V30 8932 C 831.438 -3.7674 1.99924 0
M  V30 8933 S 832.271 -3.95132 3.61429 0
M  V30 8934 C 833.427 -5.32322 3.29218 0
M  V30 8935 H 833.66 -2.03718 2.16532 0
M  V30 8936 H 831.193 -0.968352 1.20259 0
M  V30 8937 H 833.151 -4.04729 0.685917 0
M  V30 8938 H 831.812 -3.14059 -0.0506289 0
M  V30 8939 H 831.005 -4.73981 1.71343 0
M  V30 8940 H 830.607 -3.06145 2.14829 0
M  V30 8941 H 832.899 -6.1614 2.8174 0
M  V30 8942 H 833.842 -5.65893 4.25641 0
M  V30 8943 H 834.25 -4.98374 2.65111 0
M  V30 8944 N 833.648 -1.19017 -1.03309 0
M  V30 8945 C 834.578 -0.94772 -2.13402 0
M  V30 8946 C 835.559 0.117383 -1.69694 0
M  V30 8947 O 836.744 -0.0367733 -1.94165 0
M  V30 8948 C 833.874 -0.480977 -3.43953 0
M  V30 8949 C 832.828 -1.48743 -4.01322 0
M  V30 8950 C 832.154 -0.877924 -5.27443 0
M  V30 8951 C 833.454 -2.86642 -4.36616 0
M  V30 8952 H 835.148 -1.86846 -2.33942 0
M  V30 8953 H 832.694 -0.899781 -1.12427 0
M  V30 8954 H 834.647 -0.298677 -4.2034 0
M  V30 8955 H 833.371 0.475348 -3.23122 0
M  V30 8956 H 832.03 -1.65681 -3.27025 0
M  V30 8957 H 831.678 0.0858232 -5.02927 0
M  V30 8958 H 831.378 -1.54996 -5.66789 0
M  V30 8959 H 832.902 -0.706326 -6.06501 0
M  V30 8960 H 834.316 -2.73312 -5.03958 0
M  V30 8961 H 832.713 -3.50599 -4.87032 0
M  V30 8962 H 833.783 -3.39617 -3.46105 0
M  V30 8963 N 835.127 1.22348 -0.993418 0
M  V30 8964 C 836.057 2.26584 -0.564088 0
M  V30 8965 C 837.038 1.65102 0.409298 0
M  V30 8966 O 838.223 1.91872 0.299819 0
M  V30 8967 C 835.353 3.47087 0.121554 0
M  V30 8968 C 834.307 4.21009 -0.770429 0
M  V30 8969 C 833.633 5.34678 0.0481586 0
M  V30 8970 C 834.933 4.79636 -2.06752 0
M  V30 8971 H 836.627 2.62749 -1.43538 0
M  V30 8972 H 834.173 1.26303 -0.691628 0
M  V30 8973 H 836.126 4.19166 0.433303 0
M  V30 8974 H 834.85 3.1002 1.0274 0
M  V30 8975 H 833.509 3.50764 -1.06583 0
M  V30 8976 H 833.157 4.93852 0.954933 0
M  V30 8977 H 832.857 5.85061 -0.545641 0
M  V30 8978 H 834.381 6.09573 0.353991 0
M  V30 8979 H 835.795 5.43654 -1.81969 0
M  V30 8980 H 834.192 5.4036 -2.61019 0
M  V30 8981 H 835.262 3.99659 -2.74592 0
M  V30 8982 N 836.605 0.766683 1.37694 0
M  V30 8983 C 837.853 0.328065 1.9942 0
M  V30 8984 C 838.174 -1.09775 1.61166 0
M  V30 8985 O 837.444 -1.75288 0.874686 0
M  V30 8986 H 836.024 0.11831 0.737572 0
M  V30 8987 H 838.686 0.983686 1.68255 0
M  V30 8988 H 837.782 0.401647 3.09505 0
M  V30 8989 N 838.083 -1.48885 0.516809 0
M  V30 8990 C 839.046 -2.27916 -0.242256 0
M  V30 8991 C 840.046 -1.34601 -0.879735 0
M  V30 8992 O 841.236 -1.57616 -0.74182 0
M  V30 8993 C 838.368 -3.13067 -1.34914 0
M  V30 8994 H 839.561 -2.96483 0.451444 0
M  V30 8995 H 837.114 -1.5391 0.272294 0
M  V30 8996 H 837.849 -2.49102 -2.07651 0
M  V30 8997 H 837.634 -3.81695 -0.897313 0
M  V30 8998 H 839.124 -3.72716 -1.88341 0
M  V30 8999 N 839.561 -0.251338 -1.55583 0
M  V30 9000 C 840.809 0.371434 -1.98657 0
M  V30 9001 C 841.13 1.58143 -1.14087 0
M  V30 9002 O 840.4 1.94607 -0.224708 0
M  V30 9003 H 838.98 0.140225 -0.733721 0
M  V30 9004 H 841.642 -0.351157 -1.9171 0
M  V30 9005 H 840.738 0.677554 -3.04657 0
M  V30 9006 N 841.039 1.57585 0.0217189 0
M  V30 9007 C 842.264 1.94267 0.726309 0
M  V30 9008 C 842.689 0.851904 1.67703 0
M  V30 9009 O 842.047 -0.191792 1.80283 0
M  V30 9010 C 842.095 3.30023 1.45318 0
M  V30 9011 O 841.199 3.22791 2.5667 0
M  V30 9012 H 840.54 0.634777 0.194818 0
M  V30 9013 H 843.07 2.04585 -0.0249985 0
M  V30 9014 H 843.08 3.65084 1.82147 0
M  V30 9015 H 841.755 4.08972 0.755962 0
M  V30 9016 H 840.332 2.99373 2.2233 0
M  V30 9017 N 842.517 -0.29412 1.54831 0
M  V30 9018 C 843.447 -1.36757 1.89261 0
M  V30 9019 C 844.428 -1.52564 0.752214 0
M  V30 9020 O 845.613 -1.65958 1.00855 0
M  V30 9021 C 842.743 -2.73066 2.14597 0
M  V30 9022 C 841.697 -2.72017 3.3044 0
M  V30 9023 C 841.023 -4.11679 3.4121 0
M  V30 9024 C 842.323 -2.33149 4.67375 0
M  V30 9025 H 844.017 -1.08191 2.79169 0
M  V30 9026 H 841.563 -0.519014 1.34321 0
M  V30 9027 H 843.516 -3.48255 2.37269 0
M  V30 9028 H 842.24 -3.03172 1.21467 0
M  V30 9029 H 840.899 -1.99285 3.07703 0
M  V30 9030 H 840.547 -4.38973 2.45584 0
M  V30 9031 H 840.247 -4.11877 4.19084 0
M  V30 9032 H 841.771 -4.88637 3.6615 0
M  V30 9033 H 843.185 -2.98054 4.89731 0
M  V30 9034 H 841.582 -2.44546 5.48012 0
M  V30 9035 H 842.652 -1.28275 4.67626 0
M  V30 9036 N 843.995 -1.47404 -0.557645 0
M  V30 9037 C 845.22 -1.57868 -1.34508 0
M  V30 9038 C 845.645 -0.229151 -1.86699 0
M  V30 9039 O 845.003 0.794908 -1.62944 0
M  V30 9040 C 845.051 -2.60712 -2.49122 0
M  V30 9041 O 844.155 -2.15952 -3.51338 0
M  V30 9042 H 843.496 -0.530335 -0.399551 0
M  V30 9043 H 846.026 -1.93181 -0.673954 0
M  V30 9044 H 846.036 -2.81118 -2.95697 0
M  V30 9045 H 844.711 -3.58701 -2.10491 0
M  V30 9046 H 843.288 -2.05644 -3.11071 0
M  V30 9047 N 845.473 0.80434 -1.35529 0
M  V30 9048 C 846.884 1.37849 -1.25915 0
M  V30 9049 C 847.235 1.95905 0.107495 0
M  V30 9050 O 846.36 1.91462 1.00852 0
M  V30 9051 C 846.955 2.50608 -2.27994 0
M  V30 9052 C 845.514 3.03879 -2.22114 0
M  V30 9053 C 844.661 1.76856 -2.13582 0
M  V30 9054 H 847.612 0.607192 -1.46625 0
M  V30 9055 H 847.633 3.29221 -1.90772 0
M  V30 9056 H 847.145 2.08323 -3.27449 0
M  V30 9057 H 845.246 3.50622 -1.26077 0
M  V30 9058 H 845.359 3.61707 -3.14173 0
M  V30 9059 H 843.723 1.98498 -1.59595 0
M  V30 9060 H 844.506 1.36721 -3.14901 0
M  V30 9061 N 846.951 1.19563 1.02676 0
M  V30 9062 C 847.884 0.878638 2.10607 0
M  V30 9063 C 848.862 -0.165176 1.61759 0
M  V30 9064 O 850.046 -0.041014 1.88455 0
M  V30 9065 C 847.173 0.315347 3.37229 0
M  V30 9066 C 846.219 1.33855 4.04951 0
M  V30 9067 S 847.052 2.89982 4.50189 0
M  V30 9068 C 848.208 2.35202 5.80027 0
M  V30 9069 H 848.441 1.79268 2.37171 0
M  V30 9070 H 845.974 1.023 1.15646 0
M  V30 9071 H 847.932 -0.00311911 4.105 0
M  V30 9072 H 846.593 -0.577035 3.08754 0
M  V30 9073 H 845.786 0.893581 4.96015 0
M  V30 9074 H 845.388 1.60397 3.37859 0
M  V30 9075 H 847.68 1.74329 6.54687 0
M  V30 9076 H 848.623 3.24622 6.29306 0
M  V30 9077 H 849.031 1.77702 5.35801 0
M  V30 9078 N 848.429 -1.21819 0.999893 0
M  V30 9079 C 849.339 -2.27691 0.565159 0
M  V30 9080 C 850.355 -1.69587 -0.389398 0
M  V30 9081 O 851.531 -1.99786 -0.254499 0
M  V30 9082 C 848.596 -3.46537 -0.106432 0
M  V30 9083 C 847.657 -4.19932 0.891964 0
M  V30 9084 C 846.89 -5.33103 0.252327 0
M  V30 9085 O 847.113 -5.62398 -0.952103 0
M  V30 9086 O 846.047 -5.94184 0.960698 0
M  V30 9087 H 849.873 -2.67059 1.44613 0
M  V30 9088 H 847.458 -1.28119 0.768499 0
M  V30 9089 H 849.34 -4.18631 -0.482301 0
M  V30 9090 H 848.015 -3.09079 -0.961865 0
M  V30 9091 H 846.922 -3.5008 1.3189 0
M  V30 9092 H 848.255 -4.61287 1.71682 0
M  V30 9093 N 849.908 -0.773975 -1.37286 0
M  V30 9094 C 851.154 -0.339809 -1.99933 0
M  V30 9095 C 851.487 1.0815 -1.61299 0
M  V30 9096 O 850.762 1.74442 -0.860252 0
M  V30 9097 C 851.045 -0.485919 -3.56806 0
M  V30 9098 C 850.898 -1.9498 -4.05343 0
M  V30 9099 C 852.217 0.108461 -4.39966 0
M  V30 9100 H 849.336 -0.124944 -0.726332 0
M  V30 9101 H 851.978 -0.977433 -1.6293 0
M  V30 9102 H 850.128 0.0569023 -3.88458 0
M  V30 9103 H 851.8 -2.5525 -3.84246 0
M  V30 9104 H 850.043 -2.45784 -3.57453 0
M  V30 9105 H 850.714 -2.00308 -5.14374 0
M  V30 9106 H 853.19 -0.354722 -4.14585 0
M  V30 9107 H 852.066 -0.0238926 -5.48895 0
M  V30 9108 H 852.327 1.19901 -4.25531 0
M  V30 9109 N 851.386 1.48609 -0.524698 0
M  V30 9110 C 852.349 2.28041 0.230166 0
M  V30 9111 C 853.349 1.35065 0.872584 0
M  V30 9112 O 854.539 1.58007 0.73345 0
M  V30 9113 C 851.671 3.13778 1.33252 0
M  V30 9114 H 852.864 2.96239 -0.467161 0
M  V30 9115 H 850.417 1.53763 -0.280452 0
M  V30 9116 H 851.152 2.502 2.06327 0
M  V30 9117 H 850.937 3.82165 0.877058 0
M  V30 9118 H 852.427 3.7371 1.86362 0
M  V30 9119 N 852.864 0.259585 1.55447 0
M  V30 9120 C 854.092 -0.365392 2.03648 0
M  V30 9121 C 854.507 -1.50613 1.13847 0
M  V30 9122 O 853.864 -1.81837 0.155414 0
M  V30 9123 C 853.915 -0.861172 3.51093 0
M  V30 9124 O 853.636 0.234121 4.37474 0
M  V30 9125 C 855.137 -1.55555 4.15111 0
M  V30 9126 H 852.357 -0.0853439 0.66555 0
M  V30 9127 H 854.901 0.387151 2.00802 0
M  V30 9128 H 853.056 -1.56385 3.54433 0
M  V30 9129 H 853.47 -0.1444 5.24301 0
M  V30 9130 H 854.944 -1.85403 5.19932 0
M  V30 9131 H 855.421 -2.48185 3.62355 0
M  V30 9132 H 856.027 -0.89712 4.15731 0
M  V30 9133 N 854.342 -1.57594 -0.0133615 0
M  V30 9134 C 855.275 -2.02991 -1.04259 0
M  V30 9135 C 856.253 -0.917193 -1.34262 0
M  V30 9136 O 857.437 -1.18428 -1.46653 0
M  V30 9137 C 854.564 -2.41624 -2.37351 0
M  V30 9138 C 853.61 -3.63495 -2.231 0
M  V30 9139 S 854.443 -5.1198 -1.5696 0
M  V30 9140 C 855.599 -5.5387 -2.91511 0
M  V30 9141 H 855.832 -2.89973 -0.655985 0
M  V30 9142 H 853.365 -1.52769 -0.223827 0
M  V30 9143 H 855.323 -2.64551 -3.13884 0
M  V30 9144 H 853.984 -1.55065 -2.73155 0
M  V30 9145 H 853.177 -3.88233 -3.21389 0
M  V30 9146 H 852.779 -3.405 -1.54711 0
M  V30 9147 H 855.071 -5.55514 -3.87828 0
M  V30 9148 H 856.014 -6.53988 -2.71488 0
M  V30 9149 H 856.422 -4.81404 -2.94806 0
M  V30 9150 N 855.82 0.285905 -1.54985 0
M  V30 9151 C 857.05 1.03626 -1.78732 0
M  V30 9152 C 857.458 1.80896 -0.554377 0
M  V30 9153 O 856.801 1.77161 0.48578 0
M  V30 9154 C 856.863 2.05185 -2.95193 0
M  V30 9155 C 856.527 1.46973 -4.32722 0
M  V30 9156 C 857.524 0.891986 -5.12191 0
M  V30 9157 C 855.209 1.50081 -4.79355 0
M  V30 9158 C 857.203 0.353078 -6.36421 0
M  V30 9159 C 854.89 0.958037 -6.03544 0
M  V30 9160 C 855.888 0.385157 -6.81913 0
M  V30 9161 O 855.576 -0.149341 -8.03761 0
M  V30 9162 H 855.308 0.312416 -0.599477 0
M  V30 9163 H 857.862 0.326067 -2.02795 0
M  V30 9164 H 856.092 2.79928 -2.66791 0
M  V30 9165 H 857.781 2.66244 -3.0638 0
M  V30 9166 H 858.547 0.860762 -4.77301 0
M  V30 9167 H 854.426 1.9361 -4.18373 0
M  V30 9168 H 857.97 -0.0947181 -6.97536 0
M  V30 9169 H 853.867 0.986458 -6.37918 0
M  V30 9170 H 854.635 -0.0374719 -8.18491 0
M  V30 9171 N 857.298 1.47698 0.54982 0
M  V30 9172 C 858.23 1.56806 1.67166 0
M  V30 9173 C 859.243 0.453709 1.5635 0
M  V30 9174 O 860.432 0.723663 1.63173 0
M  V30 9175 C 857.532 1.4632 3.05686 0
M  V30 9176 C 856.705 2.72452 3.42182 0
M  V30 9177 C 855.764 2.55698 4.59897 0
M  V30 9178 O 854.79 3.29534 4.64108 0
M  V30 9179 N 855.992 1.64009 5.56849 0
M  V30 9180 H 858.757 2.53545 1.59797 0
M  V30 9181 H 856.318 1.44171 0.736635 0
M  V30 9182 H 858.31 1.32835 3.82279 0
M  V30 9183 H 856.88 0.57634 3.07241 0
M  V30 9184 H 856.1 3.00644 2.54964 0
M  V30 9185 H 857.388 3.56172 3.63344 0
M  V30 9186 H 856.786 1.03186 5.5621 0
M  V30 9187 H 855.343 1.56473 6.3274 0
M  V30 9188 N 858.776 -0.797141 1.35954 0
M  V30 9189 C 860.004 -1.5858 1.32891 0
M  V30 9190 C 860.419 -1.88578 -0.0915564 0
M  V30 9191 O 859.776 -1.49532 -1.04625 0
M  V30 9192 C 859.827 -2.91143 2.14284 0
M  V30 9193 O 859.548 -2.62442 3.50793 0
M  V30 9194 C 861.049 -3.85476 2.18914 0
M  V30 9195 H 858.269 -0.492111 0.456144 0
M  V30 9196 H 860.813 -0.98994 1.78943 0
M  V30 9197 H 858.968 -3.47219 1.71807 0
M  V30 9198 H 859.382 -3.4715 3.93175 0
M  V30 9199 H 860.856 -4.75574 2.80238 0
M  V30 9200 H 861.333 -4.22758 1.19047 0
M  V30 9201 H 861.939 -3.35334 2.61593 0
M  V30 9202 N 860.254 -1.20106 -1.0204 0
M  V30 9203 C 861.503 -1.00316 -1.74985 0
M  V30 9204 C 861.816 0.465814 -1.89972 0
M  V30 9205 O 863.022 0.782749 -2.59972 0
M  V30 9206 C 861.478 -1.74608 -3.14706 0
M  V30 9207 C 861.086 -3.25573 -3.07744 0
M  V30 9208 C 862.83 -1.63172 -3.91887 0
M  V30 9209 C 860.737 -3.92419 -4.42449 0
M  V30 9210 H 859.667 -0.371728 -0.655999 0
M  V30 9211 H 862.318 -1.43688 -1.14131 0
M  V30 9212 H 860.7 -1.24021 -3.76078 0
M  V30 9213 H 861.874 -3.83345 -2.55702 0
M  V30 9214 H 860.189 -3.3738 -2.44057 0
M  V30 9215 H 862.786 -2.10457 -4.9154 0
M  V30 9216 H 863.129 -0.58728 -4.12137 0
M  V30 9217 H 863.662 -2.11152 -3.37135 0
M  V30 9218 H 860.401 -4.96998 -4.27403 0
M  V30 9219 H 859.921 -3.39436 -4.94513 0
M  V30 9220 H 861.6 -3.96453 -5.11306 0
M  V30 9221 N 861.732 1.21287 -1.00634 0
M  V30 9222 C 862.695 2.21927 -0.572821 0
M  V30 9223 C 863.695 1.5691 0.351541 0
M  V30 9224 O 864.885 1.73623 0.141643 0
M  V30 9225 C 862.017 3.40501 0.164932 0
M  V30 9226 H 863.21 2.61795 -1.463 0
M  V30 9227 H 860.763 1.34571 -0.794998 0
M  V30 9228 H 861.498 3.06123 1.07049 0
M  V30 9229 H 861.283 3.88912 -0.498962 0
M  V30 9230 H 862.773 4.15103 0.455945 0
M  V30 9231 N 863.21 0.781244 1.36873 0
M  V30 9232 C 864.435 0.360398 2.04245 0
M  V30 9233 C 864.86 -1.01242 1.58529 0
M  V30 9234 O 864.218 -1.65063 0.749936 0
M  V30 9235 C 864.266 0.42329 3.58107 0
M  V30 9236 O 863.37 -0.572796 4.08403 0
M  V30 9237 H 862.711 0.154386 0.645803 0
M  V30 9238 H 865.241 1.06008 1.74996 0
M  V30 9239 H 865.251 0.283967 4.07011 0
M  V30 9240 H 863.926 1.42477 3.90734 0
M  V30 9241 H 862.503 -0.395809 3.70793 0
M  V30 9242 N 864.689 -1.48329 0.532571 0
M  V30 9243 C 865.937 -2.021 -0.000581206 0
M  V30 9244 C 866.258 -1.4117 -1.34522 0
M  V30 9245 O 865.528 -0.578005 -1.87179 0
M  V30 9246 H 864.108 -0.746993 -0.00320281 0
M  V30 9247 H 866.77 -1.82011 0.696991 0
M  V30 9248 H 865.866 -3.11917 -0.106991 0
M  V30 9249 N 866.167 -0.267825 -1.55308 0
M  V30 9250 C 867.415 0.350343 -1.9904 0
M  V30 9251 C 867.736 1.56924 -1.15758 0
M  V30 9252 O 867.006 1.94358 -0.245336 0
M  V30 9253 H 865.586 0.132435 -0.735167 0
M  V30 9254 H 868.248 -0.371471 -1.91327 0
M  V30 9255 H 867.344 0.645203 -3.05358 0
M  V30 9256 N 867.645 1.57599 0.00500368 0
M  V30 9257 C 868.892 1.90349 0.690895 0
M  V30 9258 C 869.22 0.868045 1.74055 0
M  V30 9259 O 868.475 -0.127855 1.95282 0
M  V30 9260 C 868.774 3.29855 1.37588 0
M  V30 9261 C 868.44 4.48548 0.459906 0
M  V30 9262 C 867.102 4.80752 0.207693 0
M  V30 9263 C 869.454 5.20919 -0.171054 0
M  V30 9264 C 866.782 5.82701 -0.683855 0
M  V30 9265 C 869.134 6.23818 -1.05045 0
M  V30 9266 C 867.798 6.54481 -1.31189 0
M  V30 9267 H 867.068 0.696538 0.252816 0
M  V30 9268 H 869.715 1.91436 -0.0494495 0
M  V30 9269 H 868.02 3.24869 2.19015 0
M  V30 9270 H 869.717 3.52452 1.91255 0
M  V30 9271 H 866.307 4.23384 0.666648 0
M  V30 9272 H 870.491 4.96299 0.0107942 0
M  V30 9273 H 865.747 6.04822 -0.894467 0
M  V30 9274 H 869.921 6.79029 -1.54574 0
M  V30 9275 H 867.548 7.33299 -2.00442 0
M  V30 9276 N 869.123 -0.277682 1.55134 0
M  V30 9277 C 870.071 -1.36305 1.88478 0
M  V30 9278 C 871.065 -1.51362 0.760654 0
M  V30 9279 O 872.271 -1.53202 0.944943 0
M  V30 9280 H 868.646 -0.45577 0.598146 0
M  V30 9281 H 870.617 -1.05431 2.79154 0
M  V30 9282 C 869.366 -2.71739 2.16918 0
M  V30 9283 H 868.689 -2.60942 3.02901 0
M  V30 9284 H 870.129 -3.46635 2.44172 0
M  V30 9285 C 868.588 -3.22476 0.975239 0
M  V30 9286 O 869.118 -4.01164 0.207497 0
M  V30 9287 N 867.324 -2.80097 0.774219 0
M  V30 9288 H 866.871 -2.16221 1.40022 0
M  V30 9289 H 866.829 -3.14392 -0.023021 0
M  V30 9290 N 870.601 -1.47988 -0.541979 0
M  V30 9291 C 871.829 -1.59034 -1.32347 0
M  V30 9292 C 872.244 -0.246123 -1.87189 0
M  V30 9293 O 871.601 0.762889 -1.6579 0
M  V30 9294 C 871.652 -2.62759 -2.48274 0
M  V30 9295 O 871.373 -3.91963 -1.95695 0
M  V30 9296 C 872.874 -2.84133 -3.4027 0
M  V30 9297 H 870.094 -0.536574 -0.402901 0
M  V30 9298 H 872.638 -1.93725 -0.655045 0
M  V30 9299 H 870.793 -2.3096 -3.11025 0
M  V30 9300 H 871.207 -4.48769 -2.7149 0
M  V30 9301 H 872.681 -3.60538 -4.17991 0
M  V30 9302 H 873.158 -1.92512 -3.9476 0
M  V30 9303 H 873.764 -3.17188 -2.83322 0
M  V30 9304 N 872.079 0.78992 -1.36375 0
M  V30 9305 C 873.49 1.36506 -1.2737 0
M  V30 9306 C 873.841 1.96008 0.086711 0
M  V30 9307 O 872.966 1.92521 0.988159 0
M  V30 9308 C 873.561 2.48175 -2.30639 0
M  V30 9309 C 872.12 3.01506 -2.25325 0
M  V30 9310 C 871.267 1.74581 -2.15445 0
M  V30 9311 H 874.218 0.591606 -1.47261 0
M  V30 9312 H 874.239 3.27179 -1.94253 0
M  V30 9313 H 873.751 2.04838 -3.2964 0
M  V30 9314 H 871.852 3.49265 -1.29788 0
M  V30 9315 H 871.965 3.58355 -3.17992 0
M  V30 9316 H 870.329 1.96794 -1.61692 0
M  V30 9317 H 871.112 1.33373 -3.16333 0
M  V30 9318 N 873.557 1.20646 1.01402 0
M  V30 9319 C 874.487 0.98155 2.11867 0
M  V30 9320 C 875.468 -0.0903712 1.6986 0
M  V30 9321 O 876.653 0.0676586 1.94082 0
M  V30 9322 C 873.783 0.535636 3.43145 0
M  V30 9323 C 872.737 1.55109 3.98905 0
M  V30 9324 C 872.063 0.961725 5.2598 0
M  V30 9325 C 873.363 2.93552 4.32001 0
M  V30 9326 H 875.057 1.90544 2.3094 0
M  V30 9327 H 872.603 0.917554 1.10982 0
M  V30 9328 H 874.556 0.365512 4.19812 0
M  V30 9329 H 873.28 -0.423882 3.23838 0
M  V30 9330 H 871.939 1.70862 3.24348 0
M  V30 9331 H 871.587 -0.00580108 5.03 0
M  V30 9332 H 871.287 1.63993 5.64252 0
M  V30 9333 H 872.811 0.802726 6.053 0
M  V30 9334 H 874.225 2.81295 4.99546 0
M  V30 9335 H 872.622 3.58303 4.81393 0
M  V30 9336 H 873.692 3.4508 3.40658 0
M  V30 9337 N 875.035 -1.20752 1.01276 0
M  V30 9338 C 876.451 -1.42084 0.726934 0
M  V30 9339 C 876.651 -1.89138 -0.694907 0
M  V30 9340 O 875.707 -2.05783 -1.4632 0
M  V30 9341 C 877.02 -2.44575 1.74938 0
M  V30 9342 C 878.568 -2.58347 1.76708 0
M  V30 9343 C 879.043 -3.64078 2.77869 0
M  V30 9344 N 880.534 -3.71558 2.76585 0
M  V30 9345 C 881.269 -4.53016 3.51517 0
M  V30 9346 N 880.765 -5.38309 4.36114 0
M  V30 9347 N 882.558 -4.47512 3.40132 0
M  V30 9348 H 874.709 -0.885228 1.93074 0
M  V30 9349 H 876.972 -0.451075 0.833808 0
M  V30 9350 H 876.678 -2.1699 2.76782 0
M  V30 9351 H 876.552 -3.43503 1.55838 0
M  V30 9352 H 878.939 -2.85265 0.755516 0
M  V30 9353 H 879.02 -1.59628 1.99882 0
M  V30 9354 H 878.664 -3.37905 3.79187 0
M  V30 9355 H 878.594 -4.62412 2.51958 0
M  V30 9356 H 881.085 -3.10629 2.15216 0
M  V30 9357 H 881.398 -5.9754 4.90068 0
M  V30 9358 H 879.743 -5.37824 4.40194 0
M  V30 9359 H 882.934 -3.79912 2.73467 0
M  V30 9360 H 883.107 -5.10759 3.98784 0
M  V30 9361 N 876.513 -0.788492 -1.36457 0
M  V30 9362 C 877.761 -0.359749 -1.98872 0
M  V30 9363 C 878.082 1.07197 -1.62892 0
M  V30 9364 O 877.352 1.73875 -0.902463 0
M  V30 9365 H 875.932 -0.130029 -0.735596 0
M  V30 9366 H 878.594 -1.01033 -1.66668 0
M  V30 9367 H 877.69 -0.450835 -3.08827 0
M  V30 9368 N 877.991 1.48044 -0.54043 0
M  V30 9369 C 879.24 2.01698 -0.00809961 0
M  V30 9370 C 879.553 1.42184 1.34325 0
M  V30 9371 O 880.759 1.87398 1.96454 0
M  V30 9372 C 879.215 3.59882 0.035933 0
M  V30 9373 C 878.823 4.28384 -1.31115 0
M  V30 9374 C 880.567 4.21346 0.51654 0
M  V30 9375 C 878.474 5.78529 -1.22714 0
M  V30 9376 H 877.404 0.754 0.000742174 0
M  V30 9377 H 880.055 1.70204 -0.685775 0
M  V30 9378 H 878.437 3.88264 0.778906 0
M  V30 9379 H 879.611 4.11663 -2.07051 0
M  V30 9380 H 877.926 3.78837 -1.72834 0
M  V30 9381 H 880.523 5.31351 0.597529 0
M  V30 9382 H 880.866 3.87373 1.52473 0
M  V30 9383 H 881.399 3.97432 -0.171064 0
M  V30 9384 H 878.138 6.17093 -2.21081 0
M  V30 9385 H 877.658 5.97634 -0.50931 0
M  V30 9386 H 879.337 6.40395 -0.92216 0
M  V30 9387 N 879.47 0.276058 1.55163 0
M  V30 9388 C 880.886 -0.0780579 1.59409 0
M  V30 9389 C 881.086 -1.54521 1.29327 0
M  V30 9390 O 880.142 -2.29422 1.05459 0
M  V30 9391 C 881.455 0.297422 2.99225 0
M  V30 9392 C 883.003 0.244117 3.12047 0
M  V30 9393 C 883.478 0.594051 4.54131 0
M  V30 9394 N 884.969 0.54564 4.59975 0
M  V30 9395 C 885.704 0.789192 5.67943 0
M  V30 9396 N 885.2 1.09741 6.84053 0
M  V30 9397 N 886.993 0.717926 5.57496 0
M  V30 9398 H 879.144 1.23251 1.72982 0
M  V30 9399 H 881.407 0.497988 0.806667 0
M  V30 9400 H 881.113 1.31782 3.26077 0
M  V30 9401 H 880.987 -0.361286 3.75466 0
M  V30 9402 H 883.374 -0.766992 2.84958 0
M  V30 9403 H 883.455 0.937097 2.38017 0
M  V30 9404 H 883.099 1.60285 4.81945 0
M  V30 9405 H 883.029 -0.120728 5.26462 0
M  V30 9406 H 885.52 0.317334 3.76565 0
M  V30 9407 H 885.833 1.26989 7.62295 0
M  V30 9408 H 884.178 1.13519 6.85666 0
M  V30 9409 H 887.369 0.47697 4.65664 0
M  V30 9410 H 887.542 0.911118 6.41563 0
M  V30 9411 N 880.948 -1.576 0.00335426 0
M  V30 9412 C 882.173 -1.95398 -0.695311 0
M  V30 9413 C 882.598 -0.878476 -1.66326 0
M  V30 9414 O 881.956 0.163086 -1.80565 0
M  V30 9415 C 882.004 -3.32293 -1.40049 0
M  V30 9416 O 881.108 -3.26834 -2.51502 0
M  V30 9417 H 880.449 -0.637796 -0.184694 0
M  V30 9418 H 882.979 -2.04519 0.057543 0
M  V30 9419 H 882.989 -3.67936 -1.76316 0
M  V30 9420 H 881.664 -4.10123 -0.690803 0
M  V30 9421 H 880.241 -3.02872 -2.17539 0
M  V30 9422 N 882.426 0.269451 -1.5528 0
M  V30 9423 C 883.672 1.00206 -1.76314 0
M  V30 9424 C 884.005 1.85812 -0.564581 0
M  V30 9425 O 883.28 1.89509 0.437769 0
M  V30 9426 C 883.563 1.88163 -3.07029 0
M  V30 9427 C 883.416 1.05527 -4.37246 0
M  V30 9428 C 884.735 2.8681 -3.33808 0
M  V30 9429 H 881.854 0.36288 -0.641473 0
M  V30 9430 H 884.496 0.274188 -1.88011 0
M  V30 9431 H 882.646 2.50224 -2.97187 0
M  V30 9432 H 884.318 0.455094 -4.5905 0
M  V30 9433 H 882.561 0.358842 -4.32313 0
M  V30 9434 H 883.232 1.70397 -5.25042 0
M  V30 9435 H 885.708 2.34884 -3.43466 0
M  V30 9436 H 884.584 3.45492 -4.26528 0
M  V30 9437 H 884.845 3.62118 -2.5362 0
M  V30 9438 N 883.904 1.48273 0.534124 0
M  V30 9439 C 884.834 1.6538 1.64839 0
M  V30 9440 C 885.815 0.502741 1.62501 0
M  V30 9441 O 887 0.734799 1.79762 0
M  V30 9442 C 884.13 1.68949 3.03436 0
M  V30 9443 C 883.084 2.83513 3.20631 0
M  V30 9444 C 882.41 2.72169 4.60248 0
M  V30 9445 C 883.71 4.24858 3.03797 0
M  V30 9446 H 885.404 2.58663 1.50777 0
M  V30 9447 H 882.95 1.24479 0.723937 0
M  V30 9448 H 884.903 1.79505 3.81256 0
M  V30 9449 H 883.627 0.722415 3.1851 0
M  V30 9450 H 882.286 2.72505 2.45227 0
M  V30 9451 H 881.934 1.7344 4.72152 0
M  V30 9452 H 881.634 3.49042 4.72698 0
M  V30 9453 H 883.158 2.84687 5.40172 0
M  V30 9454 H 884.572 4.36721 3.71413 0
M  V30 9455 H 882.969 5.02697 3.27743 0
M  V30 9456 H 884.039 4.41611 2.0027 0
M  V30 9457 N 885.382 -0.782676 1.36792 0
M  V30 9458 C 886.61 -1.57162 1.34565 0
M  V30 9459 C 887.025 -1.88664 -0.0715501 0
M  V30 9460 O 886.382 -1.50633 -1.03033 0
M  V30 9461 C 886.433 -2.88854 2.1736 0
M  V30 9462 O 886.154 -2.58707 3.53557 0
M  V30 9463 C 887.655 -3.83132 2.2299 0
M  V30 9464 H 884.875 -0.487245 0.461338 0
M  V30 9465 H 887.419 -0.970905 1.79982 0
M  V30 9466 H 885.574 -3.45377 1.7548 0
M  V30 9467 H 885.988 -3.42961 3.96835 0
M  V30 9468 H 887.462 -4.72575 2.85266 0
M  V30 9469 H 887.939 -4.21472 1.23524 0
M  V30 9470 H 888.545 -3.32541 2.65135 0
M  V30 9471 N 886.86 -1.21182 -1.00761 0
M  V30 9472 C 887.823 -0.970339 -2.07646 0
M  V30 9473 C 888.823 0.0576345 -1.60697 0
M  V30 9474 O 890.013 -0.179369 -1.73274 0
M  V30 9475 C 887.145 -0.462703 -3.37745 0
M  V30 9476 H 888.338 -1.91856 -2.30502 0
M  V30 9477 H 885.891 -1.02844 -1.17698 0
M  V30 9478 H 886.626 0.490559 -3.20568 0
M  V30 9479 H 886.411 -1.20416 -3.73152 0
M  V30 9480 H 887.901 -0.313531 -4.16421 0
M  V30 9481 N 888.338 1.20213 -1.01915 0
M  V30 9482 C 889.615 1.85348 -0.62495 0
M  V30 9483 C 889.995 1.91101 0.896854 0
M  V30 9484 O 889.343 1.42075 1.78961 0
M  V30 9485 C 889.553 3.24849 -1.27571 0
M  V30 9486 C 890.901 4.01107 -1.39277 0
M  V30 9487 O 891.925 3.34211 -1.23212 0
M  V30 9488 O 890.784 5.20914 -1.6526 0
M  V30 9489 H 887.878 0.798303 -0.215965 0
M  V30 9490 H 890.424 1.27782 -1.11669 0
M  V30 9491 H 889.196 3.1544 -2.31545 0
M  V30 9492 H 888.819 3.90049 -0.77122 0
M  V30 9493 N 889.816 0.795718 1.36037 0
M  V30 9494 C 891.064 0.370291 1.98679 0
M  V30 9495 C 891.385 -1.06332 1.63458 0
M  V30 9496 O 890.655 -1.73394 0.911671 0
M  V30 9497 H 889.235 0.133928 0.734896 0
M  V30 9498 H 891.897 1.01915 1.6613 0
M  V30 9499 H 890.993 0.467207 3.08583 0
M  V30 9500 N 891.294 -1.47756 0.548274 0
M  V30 9501 C 892.226 -2.27921 -0.24177 0
M  V30 9502 C 893.239 -1.36471 -0.887658 0
M  V30 9503 O 894.428 -1.6137 -0.763016 0
M  V30 9504 C 891.528 -3.10449 -1.35922 0
M  V30 9505 C 890.701 -4.298 -0.811808 0
M  V30 9506 C 889.76 -4.93994 -1.81264 0
M  V30 9507 O 888.786 -5.52657 -1.3623 0
M  V30 9508 N 889.988 -4.87882 -3.14566 0
M  V30 9509 H 892.753 -2.96365 0.445848 0
M  V30 9510 H 890.314 -1.57286 0.383769 0
M  V30 9511 H 892.306 -3.50261 -2.02729 0
M  V30 9512 H 890.876 -2.44306 -1.95021 0
M  V30 9513 H 890.096 -3.94186 0.0327929 0
M  V30 9514 H 891.384 -5.0702 -0.425272 0
M  V30 9515 H 890.782 -4.41405 -3.53805 0
M  V30 9516 H 889.339 -5.3174 -3.76956 0
M  V30 9517 N 892.772 -0.284283 -1.55015 0
M  V30 9518 C 894.183 0.211681 -1.85496 0
M  V30 9519 C 894.534 1.54735 -1.2063 0
M  V30 9520 O 893.659 2.10594 -0.497918 0
M  V30 9521 C 894.254 0.390864 -3.36538 0
M  V30 9522 C 892.813 0.831055 -3.67111 0
M  V30 9523 C 891.96 -0.0703581 -2.77211 0
M  V30 9524 H 894.911 -0.505803 -1.50424 0
M  V30 9525 H 894.932 1.22803 -3.60138 0
M  V30 9526 H 894.444 -0.581409 -3.8372 0
M  V30 9527 H 892.545 1.81447 -3.25434 0
M  V30 9528 H 892.658 0.662026 -4.74504 0
M  V30 9529 H 891.022 0.447528 -2.50737 0
M  V30 9530 H 891.805 -1.03868 -3.2721 0
M  V30 9531 N 894.251 1.57596 -0.0117121 0
M  V30 9532 C 895.181 2.12188 0.9746 0
M  V30 9533 C 896.162 1.03379 1.35081 0
M  V30 9534 O 897.347 1.31123 1.4325 0
M  V30 9535 C 894.477 2.63477 2.26268 0
M  V30 9536 C 893.431 3.76917 2.02774 0
M  V30 9537 C 892.757 4.14566 3.37697 0
M  V30 9538 C 894.057 5.03715 1.38089 0
M  V30 9539 H 895.751 2.9485 0.520007 0
M  V30 9540 H 893.297 1.41836 0.248685 0
M  V30 9541 H 895.25 3.00299 2.95633 0
M  V30 9542 H 893.974 1.77953 2.73862 0
M  V30 9543 H 892.633 3.40507 1.35832 0
M  V30 9544 H 892.281 3.26048 3.83016 0
M  V30 9545 H 891.981 4.91 3.22789 0
M  V30 9546 H 893.505 4.53956 4.08358 0
M  V30 9547 H 894.919 5.38233 1.97428 0
M  V30 9548 H 893.316 5.85032 1.33634 0
M  V30 9549 H 894.386 4.83624 0.351575 0
M  V30 9550 N 895.729 -0.261212 1.5542 0
M  V30 9551 C 896.676 -1.32315 1.89107 0
M  V30 9552 C 897.646 -1.48517 0.743767 0
M  V30 9553 O 898.831 -1.62733 0.996123 0
M  V30 9554 C 895.971 -2.67626 2.17877 0
M  V30 9555 C 895.084 -2.59549 3.45338 0
M  V30 9556 C 894.219 -3.87118 3.63748 0
M  V30 9557 C 893.258 -3.736 4.8486 0
M  V30 9558 N 892.395 -4.93029 4.99867 0
M  V30 9559 H 897.235 -1.02886 2.79675 0
M  V30 9560 H 894.772 -0.496812 1.38456 0
M  V30 9561 H 896.73 -3.4637 2.32559 0
M  V30 9562 H 895.36 -2.95232 1.30529 0
M  V30 9563 H 894.412 -1.72452 3.39064 0
M  V30 9564 H 895.724 -2.45465 4.34222 0
M  V30 9565 H 894.878 -4.74305 3.78312 0
M  V30 9566 H 893.617 -4.04084 2.73071 0
M  V30 9567 H 892.622 -2.84797 4.70288 0
M  V30 9568 H 893.847 -3.58143 5.76984 0
M  V30 9569 H 891.793 -5.10383 4.12123 0
M  V30 9570 H 891.71 -4.81521 5.82815 0
M  V30 9571 H 892.978 -5.81754 5.18828 0
M  V30 9572 N 897.207 -1.48554 -0.526253 0
M  V30 9573 C 898.623 -1.34757 -0.855138 0
M  V30 9574 C 898.823 -0.36142 -1.98232 0
M  V30 9575 O 897.879 0.216026 -2.51574 0
M  V30 9576 C 899.192 -2.74877 -1.21915 0
M  V30 9577 C 900.74 -2.83393 -1.32882 0
M  V30 9578 C 901.215 -4.24223 -1.72624 0
M  V30 9579 N 902.706 -4.26913 -1.7972 0
M  V30 9580 C 903.441 -5.32824 -2.11863 0
M  V30 9581 N 902.937 -6.49008 -2.42405 0
M  V30 9582 N 904.73 -5.20221 -2.12901 0
M  V30 9583 H 896.881 -2.11284 0.217422 0
M  V30 9584 H 899.144 -0.947367 0.0346362 0
M  V30 9585 H 898.85 -3.48619 -0.464486 0
M  V30 9586 H 898.724 -3.0864 -2.16844 0
M  V30 9587 H 901.111 -2.09904 -2.07424 0
M  V30 9588 H 901.192 -2.53245 -0.360638 0
M  V30 9589 H 900.836 -4.98229 -0.986411 0
M  V30 9590 H 900.766 -4.51817 -2.70498 0
M  V30 9591 H 903.257 -3.4311 -1.58379 0
M  V30 9592 H 903.57 -7.25561 -2.66048 0
M  V30 9593 H 901.915 -6.52277 -2.39917 0
M  V30 9594 H 905.106 -4.28469 -1.885 0
M  V30 9595 H 905.279 -6.02861 -2.37619 0
M  V30 9596 N 898.685 0.775411 -1.37205 0
M  V30 9597 C 899.915 1.56219 -1.352 0
M  V30 9598 C 900.323 1.89087 0.065456 0
M  V30 9599 O 899.666 1.51655 1.03665 0
M  V30 9600 C 899.728 2.9019 -2.12203 0
M  V30 9601 C 899.392 2.79978 -3.61195 0
M  V30 9602 C 900.389 2.51258 -4.55154 0
M  V30 9603 C 898.074 2.98115 -4.04268 0
M  V30 9604 C 900.068 2.40798 -5.90165 0
M  V30 9605 C 897.755 2.87276 -5.39366 0
M  V30 9606 C 898.753 2.58657 -6.32128 0
M  V30 9607 O 898.441 2.47838 -7.64743 0
M  V30 9608 H 898.173 0.490735 -0.464925 0
M  V30 9609 H 900.727 0.969201 -1.81096 0
M  V30 9610 H 898.957 3.51594 -1.60992 0
M  V30 9611 H 900.646 3.51561 -2.02879 0
M  V30 9612 H 901.412 2.36935 -4.23186 0
M  V30 9613 H 897.291 3.19392 -3.3243 0
M  V30 9614 H 900.835 2.18381 -6.62537 0
M  V30 9615 H 896.732 3.01166 -5.70937 0
M  V30 9616 H 897.5 2.63215 -7.75023 0
M  V30 9617 N 900.163 1.21714 1.00117 0
M  V30 9618 C 901.574 1.03477 1.55401 0
M  V30 9619 C 901.925 -0.40429 1.91989 0
M  V30 9620 O 901.05 -1.28807 1.7389 0
M  V30 9621 C 901.645 1.87213 2.82377 0
M  V30 9622 C 900.204 1.73297 3.34133 0
M  V30 9623 C 899.351 1.84189 2.07291 0
M  V30 9624 H 902.302 1.3568 0.823195 0
M  V30 9625 H 902.323 1.38465 3.54412 0
M  V30 9626 H 901.835 2.91944 2.55715 0
M  V30 9627 H 899.936 0.712662 3.65721 0
M  V30 9628 H 900.049 2.55486 4.05294 0
M  V30 9629 H 898.413 1.27538 2.20468 0
M  V30 9630 H 899.196 2.90435 1.83037 0
M  V30 9631 N 901.641 -1.19671 1.02551 0
M  V30 9632 C 902.888 -1.89268 0.720002 0
M  V30 9633 C 903.216 -1.79411 -0.751127 0
M  V30 9634 O 902.471 -1.17859 -1.5623 0
M  V30 9635 C 902.77 -3.39647 1.11241 0
M  V30 9636 C 902.436 -3.69706 2.58125 0
M  V30 9637 C 901.098 -3.7762 2.98256 0
M  V30 9638 C 903.45 -3.83301 3.53171 0
M  V30 9639 C 900.778 -3.96594 4.32354 0
M  V30 9640 C 903.13 -4.03788 4.86968 0
M  V30 9641 C 901.794 -4.09934 5.26793 0
M  V30 9642 H 901.064 -0.692579 0.263467 0
M  V30 9643 H 903.711 -1.41738 1.28774 0
M  V30 9644 H 902.016 -3.89052 0.463234 0
M  V30 9645 H 903.713 -3.91809 0.853602 0
M  V30 9646 H 900.303 -3.64152 2.26033 0
M  V30 9647 H 904.487 -3.76534 3.2332 0
M  V30 9648 H 899.743 -3.9959 4.6275 0
M  V30 9649 H 903.917 -4.1325 5.60533 0
M  V30 9650 H 901.544 -4.24389 6.30712 0
M  V30 9651 N 903.119 -0.802921 -1.35613 0
M  V30 9652 C 904.051 -0.168461 -2.2858 0
M  V30 9653 C 905.064 0.630123 -1.50111 0
M  V30 9654 O 906.253 0.463086 -1.72388 0
M  V30 9655 C 903.353 0.783943 -3.29708 0
M  V30 9656 C 902.526 0.0325165 -4.37388 0
M  V30 9657 C 901.585 0.902859 -5.18396 0
M  V30 9658 O 900.611 0.355144 -5.68091 0
M  V30 9659 N 901.813 2.22542 -5.36149 0
M  V30 9660 H 904.578 -0.96709 -2.83668 0
M  V30 9661 H 902.139 -0.658043 -1.47924 0
M  V30 9662 H 904.131 1.37034 -3.80794 0
M  V30 9663 H 902.701 1.48339 -2.75162 0
M  V30 9664 H 901.921 -0.735057 -3.87286 0
M  V30 9665 H 903.209 -0.485499 -5.06478 0
M  V30 9666 H 902.607 2.69439 -4.97412 0
M  V30 9667 H 901.164 2.76113 -5.90428 0
M  V30 9668 N 904.597 1.47463 -0.556102 0
M  V30 9669 C 905.843 2.02775 -0.0316806 0
M  V30 9670 C 906.176 1.42967 1.3143 0
M  V30 9671 O 905.451 0.584847 1.85499 0
M  V30 9672 C 905.734 3.60046 0.0625742 0
M  V30 9673 C 905.587 4.30288 -1.31043 0
M  V30 9674 C 906.906 4.33195 0.776553 0
M  V30 9675 H 904.025 0.736886 -0.0129869 0
M  V30 9676 H 906.667 1.75904 -0.718177 0
M  V30 9677 H 904.817 3.83071 0.647231 0
M  V30 9678 H 906.489 4.18607 -1.9382 0
M  V30 9679 H 904.732 3.90685 -1.8854 0
M  V30 9680 H 905.403 5.38861 -1.1972 0
M  V30 9681 H 907.879 4.15156 0.280147 0
M  V30 9682 H 906.755 5.42869 0.81146 0
M  V30 9683 H 907.016 4.02336 1.83244 0
M  V30 9684 N 906.075 0.2925 1.54862 0
M  V30 9685 C 906.985 -0.597036 2.26876 0
M  V30 9686 C 908.001 -1.15558 1.30086 0
M  V30 9687 O 909.177 -1.18217 1.63054 0
M  V30 9688 C 906.242 -1.75664 2.98903 0
M  V30 9689 C 905.303 -1.23303 4.11212 0
M  V30 9690 C 904.536 -2.33736 4.79795 0
M  V30 9691 O 904.759 -3.53459 4.47686 0
M  V30 9692 O 903.693 -2.00908 5.67379 0
M  V30 9693 H 907.519 -0.0131242 3.03697 0
M  V30 9694 H 905.104 0.0592642 1.49282 0
M  V30 9695 H 906.986 -2.43241 3.4411 0
M  V30 9696 H 905.661 -2.32731 2.24984 0
M  V30 9697 H 904.568 -0.523222 3.70423 0
M  V30 9698 H 905.901 -0.707887 4.87083 0
M  V30 9699 N 907.553 -1.57587 0.0200696 0
M  V30 9700 C 908.485 -2.06555 -0.993359 0
M  V30 9701 C 909.498 -0.987227 -1.29451 0
M  V30 9702 O 910.687 -1.26361 -1.26075 0
M  V30 9703 C 907.787 -2.4675 -2.3231 0
M  V30 9704 C 906.96 -3.77554 -2.20843 0
M  V30 9705 C 906.019 -4.04397 -3.36674 0
M  V30 9706 O 905.045 -4.7478 -3.13963 0
M  V30 9707 N 906.247 -3.53861 -4.60176 0
M  V30 9708 H 909.012 -2.9412 -0.575617 0
M  V30 9709 H 906.573 -1.61038 -0.166889 0
M  V30 9710 H 908.565 -2.61806 -3.08609 0
M  V30 9711 H 907.135 -1.64598 -2.65756 0
M  V30 9712 H 906.355 -3.72382 -1.29327 0
M  V30 9713 H 907.643 -4.63271 -2.10375 0
M  V30 9714 H 907.041 -2.96904 -4.81523 0
M  V30 9715 H 905.598 -3.74213 -5.33674 0
M  V30 9716 N 909.032 0.252966 -1.55557 0
M  V30 9717 C 910.448 0.60118 -1.47844 0
M  V30 9718 C 910.648 1.88612 -0.709055 0
M  V30 9719 O 909.704 2.51395 -0.235964 0
M  V30 9720 C 911.017 0.709539 -2.92209 0
M  V30 9721 C 912.565 0.802269 -3.02544 0
M  V30 9722 C 913.04 0.94224 -4.48203 0
M  V30 9723 N 914.531 1.00726 -4.52116 0
M  V30 9724 C 915.266 1.13472 -5.6206 0
M  V30 9725 N 914.762 1.22811 -6.81828 0
M  V30 9726 N 916.555 1.1674 -5.49844 0
M  V30 9727 H 908.706 -0.590635 -2.04023 0
M  V30 9728 H 910.969 -0.202986 -0.926013 0
M  V30 9729 H 910.675 -0.164505 -3.51315 0
M  V30 9730 H 910.549 1.58343 -3.42356 0
M  V30 9731 H 912.936 1.66677 -2.43522 0
M  V30 9732 H 913.017 -0.0966469 -2.55617 0
M  V30 9733 H 912.661 0.0823209 -5.07833 0
M  V30 9734 H 912.591 1.85611 -4.92805 0
M  V30 9735 H 915.082 0.946684 -3.6585 0
M  V30 9736 H 915.395 1.32426 -7.61369 0
M  V30 9737 H 913.74 1.19779 -6.84601 0
M  V30 9738 H 916.931 1.09089 -4.55211 0
M  V30 9739 H 917.104 1.26329 -6.35567 0
M  V30 9740 N 910.51 1.48831 0.518367 0
M  V30 9741 C 911.757 1.57439 1.27355 0
M  V30 9742 C 912.085 0.25338 1.92843 0
M  V30 9743 O 911.34 -0.757323 1.80452 0
M  V30 9744 C 911.639 2.67003 2.3758 0
M  V30 9745 C 911.305 4.09069 1.89667 0
M  V30 9746 C 909.967 4.47733 1.76319 0
M  V30 9747 C 912.319 4.98052 1.53603 0
M  V30 9748 C 909.647 5.73173 1.25258 0
M  V30 9749 C 911.999 6.23992 1.04001 0
M  V30 9750 C 910.663 6.61503 0.892784 0
M  V30 9751 H 909.933 0.57611 0.466023 0
M  V30 9752 H 912.58 1.82595 0.577166 0
M  V30 9753 H 910.885 2.35751 3.12936 0
M  V30 9754 H 912.582 2.70876 2.95681 0
M  V30 9755 H 909.172 3.7854 2.01011 0
M  V30 9756 H 913.356 4.68849 1.62771 0
M  V30 9757 H 908.612 6.0095 1.12557 0
M  V30 9758 H 912.786 6.92331 0.751706 0
M  V30 9759 H 910.413 7.58587 0.494939 0
M  V30 9760 N 911.988 -0.768124 1.37614 0
M  V30 9761 C 913.265 -1.51637 1.23554 0
M  V30 9762 C 913.645 -2.1042 -0.169331 0
M  V30 9763 O 912.993 -1.95834 -1.17735 0
M  V30 9764 C 913.203 -2.59436 2.33439 0
M  V30 9765 C 914.551 -3.2674 2.71157 0
M  V30 9766 O 915.575 -2.69733 2.32642 0
M  V30 9767 O 914.434 -4.29814 3.37524 0
M  V30 9768 H 911.528 -0.671778 0.482332 0
M  V30 9769 H 914.074 -0.804779 1.49403 0
M  V30 9770 H 912.846 -2.14146 3.27502 0
M  V30 9771 H 912.469 -3.38192 2.09073 0
M  V30 9772 N 913.466 -1.22244 -0.994698 0
M  V30 9773 C 914.691 -1.07299 -1.77487 0
M  V30 9774 C 915.116 0.372302 -1.84379 0
M  V30 9775 O 914.474 1.2689 -1.29494 0
M  V30 9776 C 914.522 -1.68675 -3.18718 0
M  V30 9777 O 913.626 -0.939202 -4.01563 0
M  V30 9778 H 912.967 -0.376979 -0.546611 0
M  V30 9779 H 915.497 -1.62003 -1.24965 0
M  V30 9780 H 915.507 -1.73324 -3.69354 0
M  V30 9781 H 914.182 -2.73849 -3.13017 0
M  V30 9782 H 912.759 -0.968583 -3.60101 0
M  V30 9783 N 914.944 1.19125 -1.03184 0
M  V30 9784 C 916.192 1.8851 -0.728587 0
M  V30 9785 C 916.513 1.80195 0.74531 0
M  V30 9786 O 915.783 1.21437 1.5372 0
M  V30 9787 H 914.363 0.69784 -0.266511 0
M  V30 9788 H 917.025 1.44607 -1.3067 0
M  V30 9789 H 916.121 2.9477 -1.02554 0
M  V30 9790 N 916.422 0.810101 1.35185 0
M  V30 9791 C 917.385 0.22852 2.28058 0
M  V30 9792 C 918.385 -0.586168 1.49735 0
M  V30 9793 O 919.575 -0.40414 1.69447 0
M  V30 9794 C 916.707 -0.681041 3.34028 0
M  V30 9795 H 917.9 1.04768 2.81005 0
M  V30 9796 H 915.453 0.58101 1.451 0
M  V30 9797 H 916.188 -1.52375 2.86273 0
M  V30 9798 H 915.973 -0.0985276 3.91976 0
M  V30 9799 H 917.463 -1.08217 4.03335 0
M  V30 9800 N 917.9 -1.47166 0.563914 0
M  V30 9801 C 919.146 -2.02756 0.0424338 0
M  V30 9802 C 919.479 -1.43662 -1.3067 0
M  V30 9803 O 918.754 -0.594676 -1.85186 0
M  V30 9804 C 919.037 -3.60074 -0.0434793 0
M  V30 9805 C 918.89 -4.29587 1.33323 0
M  V30 9806 C 920.209 -4.336 -0.753568 0
M  V30 9807 H 917.328 -0.736806 0.0168946 0
M  V30 9808 H 919.97 -1.75521 0.727496 0
M  V30 9809 H 918.12 -3.83409 -0.626906 0
M  V30 9810 H 919.792 -4.17573 1.96037 0
M  V30 9811 H 918.035 -3.8968 1.9061 0
M  V30 9812 H 918.706 -5.38218 1.22576 0
M  V30 9813 H 921.182 -4.15299 -0.258126 0
M  V30 9814 H 920.058 -5.43291 -0.782659 0
M  V30 9815 H 920.319 -4.03302 -1.81108 0
M  V30 9816 N 919.378 -0.300708 -1.54705 0
M  V30 9817 C 920.608 0.310819 -2.04249 0
M  V30 9818 C 921.016 1.4809 -1.17754 0
M  V30 9819 O 920.359 1.82654 -0.195779 0
M  V30 9820 C 920.421 0.83014 -3.49784 0
M  V30 9821 C 920.085 -0.214628 -4.56496 0
M  V30 9822 C 921.082 -1.04298 -5.09331 0
M  V30 9823 C 918.767 -0.356242 -5.01035 0
M  V30 9824 C 920.761 -1.99889 -6.05246 0
M  V30 9825 C 918.448 -1.3156 -5.96771 0
M  V30 9826 C 919.446 -2.1354 -6.4876 0
M  V30 9827 O 919.134 -3.07849 -7.4262 0
M  V30 9828 H 918.866 0.0715341 -0.672204 0
M  V30 9829 H 921.42 -0.438179 -2.00672 0
M  V30 9830 H 919.65 1.62966 -3.50684 0
M  V30 9831 H 921.339 1.35752 -3.82526 0
M  V30 9832 H 922.105 -0.944439 -4.75716 0
M  V30 9833 H 917.984 0.271916 -4.60197 0
M  V30 9834 H 921.528 -2.63917 -6.45751 0
M  V30 9835 H 917.425 -1.41486 -6.29803 0
M  V30 9836 H 918.193 -3.02824 -7.60421 0
M  V30 9837 N 920.856 1.57574 -0.0284266 0
M  V30 9838 C 921.786 2.1321 0.952039 0
M  V30 9839 C 922.767 1.04806 1.33977 0
M  V30 9840 O 923.952 1.32635 1.41851 0
M  V30 9841 C 921.082 2.65862 2.23461 0
M  V30 9842 C 920.036 3.79047 1.98765 0
M  V30 9843 C 919.362 4.18124 3.33281 0
M  V30 9844 C 920.662 5.05151 1.32739 0
M  V30 9845 H 922.356 2.95385 0.488705 0
M  V30 9846 H 919.902 1.42092 0.233628 0
M  V30 9847 H 921.855 3.03417 2.92431 0
M  V30 9848 H 920.579 1.80848 2.71959 0
M  V30 9849 H 919.238 3.41929 1.32213 0
M  V30 9850 H 918.886 3.30092 3.79537 0
M  V30 9851 H 918.586 4.94396 3.17563 0
M  V30 9852 H 920.11 4.58262 4.0352 0
M  V30 9853 H 921.524 5.40297 1.91708 0
M  V30 9854 H 919.921 5.86416 1.27421 0
M  V30 9855 H 920.991 4.83969 0.300261 0
M  V30 9856 N 922.334 -0.244713 1.55689 0
M  V30 9857 C 923.58 -0.973886 1.77886 0
M  V30 9858 C 923.913 -1.8489 0.594071 0
M  V30 9859 O 923.188 -1.90182 -0.407564 0
M  V30 9860 C 923.471 -1.83255 3.09983 0
M  V30 9861 C 923.324 -0.985571 4.3887 0
M  V30 9862 C 924.643 -2.81464 3.38329 0
M  V30 9863 H 921.762 -0.352629 0.647165 0
M  V30 9864 H 924.404 -0.244243 1.88424 0
M  V30 9865 H 922.554 -2.45464 3.01131 0
M  V30 9866 H 924.226 -0.382005 4.59716 0
M  V30 9867 H 922.469 -0.29002 4.32829 0
M  V30 9868 H 923.14 -1.62022 5.27686 0
M  V30 9869 H 925.616 -2.2939 3.47159 0
M  V30 9870 H 924.492 -3.38663 4.31971 0
M  V30 9871 H 924.753 -3.58037 2.59349 0
M  V30 9872 N 923.813 -1.49104 -0.510467 0
M  V30 9873 C 924.745 -1.61183 -1.6295 0
M  V30 9874 C 925.758 -0.495003 -1.55092 0
M  V30 9875 O 926.947 -0.766671 -1.61197 0
M  V30 9876 C 924.047 -1.54373 -3.01699 0
M  V30 9877 C 923.22 -2.81428 -3.34838 0
M  V30 9878 C 922.279 -2.67802 -4.52956 0
M  V30 9879 O 921.305 -3.41723 -4.55208 0
M  V30 9880 N 922.507 -1.78715 -5.52305 0
M  V30 9881 H 925.272 -2.57693 -1.53018 0
M  V30 9882 H 922.833 -1.46073 -0.698152 0
M  V30 9883 H 924.825 -1.42924 -3.78622 0
M  V30 9884 H 923.395 -0.657597 -3.05605 0
M  V30 9885 H 922.615 -3.07299 -2.46903 0
M  V30 9886 H 923.903 -3.6568 -3.53773 0
M  V30 9887 H 923.301 -1.17897 -5.53278 0
M  V30 9888 H 921.858 -1.73194 -6.28369 0
M  V30 9889 N 925.291 0.760815 -1.38019 0
M  V30 9890 C 926.239 1.89578 -1.34771 0
M  V30 9891 C 927.233 1.67766 -0.234714 0
M  V30 9892 O 928.439 1.75423 -0.403352 0
M  V30 9893 H 924.814 0.623608 -0.420258 0
M  V30 9894 H 926.785 1.89434 -2.30558 0
M  V30 9895 C 925.534 3.26976 -1.18246 0
M  V30 9896 H 924.857 3.44342 -2.03147 0
M  V30 9897 H 926.297 4.06657 -1.20026 0
M  V30 9898 C 924.756 3.36717 0.111145 0
M  V30 9899 O 925.286 3.86607 1.09079 0
M  V30 9900 N 923.492 2.90128 0.165542 0
M  V30 9901 H 923.039 2.49719 -0.632328 0
M  V30 9902 H 922.997 2.97026 1.03067 0
M  V30 9903 N 926.769 1.22769 0.988202 0
M  V30 9904 C 927.732 1.00325 2.06076 0
M  V30 9905 C 928.732 -0.0320618 1.60768 0
M  V30 9906 O 929.922 0.206912 1.72967 0
M  V30 9907 C 927.054 0.516376 3.36966 0
M  V30 9908 H 928.247 1.95499 2.27421 0
M  V30 9909 H 925.8 1.04704 1.16047 0
M  V30 9910 H 926.535 -0.439498 3.21308 0
M  V30 9911 H 926.32 1.26337 3.71189 0
M  V30 9912 H 927.81 0.37974 4.1587 0
M  V30 9913 N 928.247 -1.18576 1.03814 0
M  V30 9914 C 929.18 -2.20929 0.571463 0
M  V30 9915 C 930.158 -1.57788 -0.392636 0
M  V30 9916 O 931.342 -1.85974 -0.30754 0
M  V30 9917 C 928.469 -3.38295 -0.165504 0
M  V30 9918 C 927.515 -4.19828 0.751457 0
M  V30 9919 S 928.348 -4.86725 2.23291 0
M  V30 9920 C 929.504 -6.07494 1.50672 0
M  V30 9921 H 929.737 -2.60173 1.43866 0
M  V30 9922 H 927.27 -1.2897 0.84888 0
M  V30 9923 H 929.228 -4.06317 -0.584545 0
M  V30 9924 H 927.889 -2.97468 -1.00855 0
M  V30 9925 H 927.082 -5.03671 0.181986 0
M  V30 9926 H 926.684 -3.57172 1.10923 0
M  V30 9927 H 928.976 -6.72779 0.798377 0
M  V30 9928 H 929.919 -6.68942 2.3221 0
M  V30 9929 H 930.327 -5.55569 1.00016 0
M  V30 9930 N 929.725 -0.817259 -1.34754 0
M  V30 9931 C 930.657 -0.192695 -2.28389 0
M  V30 9932 C 931.67 0.614167 -1.50771 0
M  V30 9933 O 932.859 0.444776 -1.7287 0
M  V30 9934 C 929.959 0.748929 -3.30521 0
M  V30 9935 C 929.132 -0.0138762 -4.37398 0
M  V30 9936 C 928.191 0.847825 -5.19325 0
M  V30 9937 O 927.217 0.29487 -5.68436 0
M  V30 9938 N 928.419 2.16843 -5.38479 0
M  V30 9939 H 931.184 -0.997122 -2.82626 0
M  V30 9940 H 928.745 -0.673696 -1.47217 0
M  V30 9941 H 930.737 1.32987 -3.82226 0
M  V30 9942 H 929.307 1.45412 -2.7672 0
M  V30 9943 H 928.527 -0.776093 -3.86485 0
M  V30 9944 H 929.815 -0.539191 -5.05935 0
M  V30 9945 H 929.213 2.64148 -5.00242 0
M  V30 9946 H 927.77 2.69835 -5.93323 0
M  V30 9947 N 931.203 1.46865 -0.571711 0
M  V30 9948 C 932.619 1.57897 -0.23255 0
M  V30 9949 C 932.819 1.56836 1.26509 0
M  V30 9950 O 931.875 1.47947 2.04617 0
M  V30 9951 C 933.188 2.87778 -0.872036 0
M  V30 9952 C 934.736 3.01389 -0.844605 0
M  V30 9953 C 935.211 4.33991 -1.46343 0
M  V30 9954 N 936.702 4.40662 -1.42727 0
M  V30 9955 C 937.437 5.41858 -1.87557 0
M  V30 9956 N 936.933 6.49787 -2.4031 0
M  V30 9957 N 938.726 5.32992 -1.7854 0
M  V30 9958 H 930.877 1.45798 -1.54457 0
M  V30 9959 H 933.14 0.694785 -0.644964 0
M  V30 9960 H 932.846 2.94332 -1.92513 0
M  V30 9961 H 932.72 3.75345 -0.373677 0
M  V30 9962 H 935.107 2.94423 0.19984 0
M  V30 9963 H 935.188 2.15327 -1.38087 0
M  V30 9964 H 934.832 4.41714 -2.50701 0
M  V30 9965 H 934.762 5.18809 -0.902479 0
M  V30 9966 H 937.253 3.63263 -1.04155 0
M  V30 9967 H 937.566 7.23199 -2.72403 0
M  V30 9968 H 935.911 6.50637 -2.44329 0
M  V30 9969 H 939.102 4.47575 -1.37093 0
M  V30 9970 H 939.275 6.11716 -2.13794 0
M  V30 9971 N 932.681 0.308908 1.54543 0
M  V30 9972 C 933.927 -0.298478 2.00592 0
M  V30 9973 C 934.26 -1.52929 1.19692 0
M  V30 9974 O 933.535 -1.9254 0.27542 0
M  V30 9975 C 933.818 -0.647218 3.54236 0
M  V30 9976 C 933.671 0.593284 4.4587 0
M  V30 9977 C 934.99 -1.47064 4.14801 0
M  V30 9978 H 932.109 -0.107012 0.72919 0
M  V30 9979 H 934.751 0.422578 1.85241 0
M  V30 9980 H 932.901 -1.26153 3.67447 0
M  V30 9981 H 934.573 1.2317 4.44552 0
M  V30 9982 H 932.816 1.22501 4.16144 0
M  V30 9983 H 933.487 0.305018 5.51157 0
M  V30 9984 H 935.963 -0.951511 4.05075 0
M  V30 9985 H 934.839 -1.68343 5.22448 0
M  V30 9986 H 935.1 -2.4623 3.67183 0
M  V30 9987 N 934.159 -1.57557 0.0367827 0
M  V30 9988 C 935.092 -2.06205 -0.977479 0
M  V30 9989 C 936.07 -0.959444 -1.31276 0
M  V30 9990 O 937.254 -1.23033 -1.42811 0
M  V30 9991 C 934.381 -2.49053 -2.29544 0
M  V30 9992 C 933.427 -3.70409 -2.11423 0
M  V30 9993 S 934.26 -5.16715 -1.40593 0
M  V30 9994 C 935.416 -5.62864 -2.73742 0
M  V30 9995 H 935.649 -2.91913 -0.5634 0
M  V30 9996 H 933.182 -1.53404 -0.175111 0
M  V30 9997 H 935.14 -2.74403 -3.05308 0
M  V30 9998 H 933.801 -1.63677 -2.68083 0
M  V30 9999 H 932.994 -3.98262 -3.08875 0
M  V30 10000 H 932.596 -3.4525 -1.438 0
M  V30 10001 H 934.888 -5.67571 -3.69958 0
M  V30 10002 H 935.831 -6.62294 -2.50544 0
M  V30 10003 H 936.239 -4.90539 -2.79341 0
M  V30 10004 N 935.637 0.236453 -1.55816 0
M  V30 10005 C 937.053 0.585465 -1.48474 0
M  V30 10006 C 937.253 1.8785 -0.72902 0
M  V30 10007 O 936.309 2.51131 -0.262614 0
M  V30 10008 C 937.622 0.678506 -2.92945 0
M  V30 10009 C 939.17 0.770135 -3.03378 0
M  V30 10010 C 939.645 0.894649 -4.49177 0
M  V30 10011 N 941.136 0.959253 -4.53158 0
M  V30 10012 C 941.871 1.07505 -5.63232 0
M  V30 10013 N 941.367 1.15572 -6.83092 0
M  V30 10014 N 943.16 1.10902 -5.51051 0
M  V30 10015 H 935.311 -0.612241 -2.03385 0
M  V30 10016 H 937.574 -0.212796 -0.923808 0
M  V30 10017 H 937.28 -0.201757 -3.51121 0
M  V30 10018 H 937.154 1.54703 -3.44016 0
M  V30 10019 H 939.541 1.64085 -2.45276 0
M  V30 10020 H 939.622 -0.123753 -2.555 0
M  V30 10021 H 939.266 0.0284537 -5.07892 0
M  V30 10022 H 939.196 1.80373 -4.94745 0
M  V30 10023 H 941.687 0.907827 -3.66834 0
M  V30 10024 H 942 1.24343 -7.62731 0
M  V30 10025 H 940.345 1.12511 -6.85833 0
M  V30 10026 H 943.536 1.04255 -4.56343 0
M  V30 10027 H 943.709 1.19581 -6.36871 0
M  V30 10028 N 937.115 1.49373 0.502552 0
M  V30 10029 C 938.025 1.68659 1.63068 0
M  V30 10030 C 939.041 0.569182 1.64427 0
M  V30 10031 O 940.217 0.843695 1.82876 0
M  V30 10032 C 937.282 1.74745 2.99441 0
M  V30 10033 C 936.343 2.98311 3.08721 0
M  V30 10034 C 935.576 3.04097 4.38589 0
M  V30 10035 O 935.799 2.17519 5.27297 0
M  V30 10036 O 934.733 3.96544 4.52809 0
M  V30 10037 H 938.559 2.64226 1.49727 0
M  V30 10038 H 936.144 1.33096 0.67867 0
M  V30 10039 H 938.026 1.8111 3.80496 0
M  V30 10040 H 936.701 0.823565 3.13048 0
M  V30 10041 H 935.608 2.97465 2.2686 0
M  V30 10042 H 936.941 3.90174 3.00041 0
M  V30 10043 N 938.594 -0.753485 1.38421 0
M  V30 10044 C 939.842 -1.50962 1.34368 0
M  V30 10045 C 940.163 -1.94889 -0.0656895 0
M  V30 10046 O 939.433 -1.67652 -1.01339 0
M  V30 10047 H 938.013 -0.559967 0.494415 0
M  V30 10048 H 940.675 -0.895665 1.73101 0
M  V30 10049 H 939.771 -2.40048 1.99458 0
M  V30 10050 N 940.072 -1.23292 -0.981677 0
M  V30 10051 C 941.3 -1.09088 -1.75805 0
M  V30 10052 C 941.715 0.357746 -1.8538 0
M  V30 10053 O 941.072 1.24751 -1.33205 0
M  V30 10054 C 941.123 -1.70885 -3.1856 0
M  V30 10055 O 940.844 -3.10082 -3.09484 0
M  V30 10056 C 942.345 -1.62106 -4.12597 0
M  V30 10057 H 939.565 -0.38184 -0.55176 0
M  V30 10058 H 942.109 -1.63116 -1.23342 0
M  V30 10059 H 940.264 -1.20893 -3.68054 0
M  V30 10060 H 940.678 -3.40039 -3.99342 0
M  V30 10061 H 942.152 -2.10049 -5.10474 0
M  V30 10062 H 942.629 -0.579642 -4.35358 0
M  V30 10063 H 943.235 -2.11457 -3.69007 0
M  V30 10064 N 941.55 1.18024 -1.04442 0
M  V30 10065 C 942.798 1.87727 -0.74854 0
M  V30 10066 C 943.119 1.80975 0.726156 0
M  V30 10067 O 942.389 1.23061 1.52423 0
M  V30 10068 H 940.969 0.694974 -0.273897 0
M  V30 10069 H 943.631 1.43213 -1.32197 0
M  V30 10070 H 942.727 2.93665 -1.05674 0
M  V30 10071 N 943.028 0.824394 1.34319 0
M  V30 10072 C 944.444 0.510336 1.51221 0
M  V30 10073 C 944.644 -0.965201 1.76879 0
M  V30 10074 O 943.7 -1.74961 1.82057 0
M  V30 10075 C 945.013 1.37114 2.6762 0
M  V30 10076 C 946.561 1.36842 2.81502 0
M  V30 10077 C 947.036 2.21374 4.00946 0
M  V30 10078 N 948.527 2.19005 4.08156 0
M  V30 10079 C 949.262 2.81159 4.99737 0
M  V30 10080 N 948.758 3.52309 5.96532 0
M  V30 10081 N 950.551 2.70706 4.9262 0
M  V30 10082 H 942.702 1.77976 1.15924 0
M  V30 10083 H 944.965 0.758503 0.568663 0
M  V30 10084 H 944.671 2.41905 2.55294 0
M  V30 10085 H 944.545 1.03689 3.62669 0
M  V30 10086 H 946.932 0.328284 2.93268 0
M  V30 10087 H 947.013 1.74265 1.87257 0
M  V30 10088 H 946.657 3.25437 3.8994 0
M  V30 10089 H 946.587 1.813 4.94407 0
M  V30 10090 H 949.078 1.67252 3.38874 0
M  V30 10091 H 949.391 3.96977 6.63045 0
M  V30 10092 H 947.736 3.56415 5.96652 0
M  V30 10093 H 950.927 2.14694 4.15962 0
M  V30 10094 H 951.1 3.19431 5.63798 0
M  V30 10095 N 944.506 -1.46559 0.579492 0
M  V30 10096 C 945.731 -2.0729 0.0674595 0
M  V30 10097 C 946.156 -1.4259 -1.22677 0
M  V30 10098 O 945.514 -0.50857 -1.74021 0
M  V30 10099 C 945.562 -3.60492 -0.0882227 0
M  V30 10100 O 944.666 -3.96172 -1.14551 0
M  V30 10101 H 944.007 -0.661159 0.0613536 0
M  V30 10102 H 946.537 -1.88247 0.801519 0
M  V30 10103 H 946.547 -4.06929 -0.295411 0
M  V30 10104 H 945.222 -4.06976 0.856943 0
M  V30 10105 H 943.799 -3.61448 -0.917033 0
M  V30 10106 N 945.984 -0.3171 -1.54377 0
M  V30 10107 C 947.23 0.287836 -2.00747 0
M  V30 10108 C 947.563 1.52292 -1.20502 0
M  V30 10109 O 946.838 1.92391 -0.285626 0
M  V30 10110 C 947.121 0.628423 -3.54574 0
M  V30 10111 C 946.974 -0.616922 -4.45549 0
M  V30 10112 C 948.293 1.44862 -4.15575 0
M  V30 10113 H 945.412 0.103144 -0.729747 0
M  V30 10114 H 948.054 -0.432396 -1.85014 0
M  V30 10115 H 946.204 1.24203 -3.68111 0
M  V30 10116 H 947.876 -1.25526 -4.43893 0
M  V30 10117 H 946.119 -1.24706 -4.15489 0
M  V30 10118 H 946.79 -0.334243 -5.50987 0
M  V30 10119 H 949.266 0.930015 -4.05574 0
M  V30 10120 H 948.142 1.6557 -5.23333 0
M  V30 10121 H 948.403 2.44279 -3.68484 0
M  V30 10122 N 947.462 1.57535 -0.0451378 0
M  V30 10123 C 948.692 1.96476 0.638814 0
M  V30 10124 C 949.1 0.921056 1.65267 0
M  V30 10125 O 948.443 -0.103843 1.83406 0
M  V30 10126 C 948.505 3.31629 1.38788 0
M  V30 10127 C 948.169 4.5391 0.530545 0
M  V30 10128 C 949.166 5.19512 -0.200864 0
M  V30 10129 C 946.851 5.00159 0.463242 0
M  V30 10130 C 948.845 6.29695 -0.988078 0
M  V30 10131 C 946.532 6.10221 -0.327665 0
M  V30 10132 C 947.53 6.74849 -1.05202 0
M  V30 10133 O 947.218 7.82795 -1.82993 0
M  V30 10134 H 946.95 0.651625 0.17989 0
M  V30 10135 H 949.504 2.05126 -0.106031 0
M  V30 10136 H 947.734 3.19516 2.17822 0
M  V30 10137 H 949.423 3.5536 1.96148 0
M  V30 10138 H 950.189 4.84742 -0.158299 0
M  V30 10139 H 946.068 4.49651 1.01663 0
M  V30 10140 H 949.612 6.80072 -1.55397 0
M  V30 10141 H 945.509 6.44428 -0.37189 0
M  V30 10142 H 946.277 7.99542 -1.7514 0
M  V30 10143 N 948.94 -0.228186 1.55939 0
M  V30 10144 C 950.165 -0.974795 1.83064 0
M  V30 10145 C 950.59 -1.77426 0.624624 0
M  V30 10146 O 949.948 -1.76211 -0.426556 0
M  V30 10147 C 949.996 -1.87342 3.08116 0
M  V30 10148 O 949.1 -2.96784 2.86344 0
M  V30 10149 H 948.441 -0.276379 0.603747 0
M  V30 10150 H 950.971 -0.243507 2.03146 0
M  V30 10151 H 950.981 -2.28451 3.38045 0
M  V30 10152 H 949.656 -1.28575 3.95526 0
M  V30 10153 H 948.233 -2.59669 2.67631 0
M  V30 10154 N 950.418 -1.49637 -0.494624 0
M  V30 10155 C 951.35 -1.62902 -1.61231 0
M  V30 10156 C 952.363 -0.511425 -1.54558 0
M  V30 10157 O 953.552 -0.783724 -1.60375 0
M  V30 10158 C 950.652 -1.57564 -3.00045 0
M  V30 10159 C 949.825 -2.84964 -3.31835 0
M  V30 10160 C 948.884 -2.72591 -4.5009 0
M  V30 10161 O 947.91 -3.46532 -4.51558 0
M  V30 10162 N 949.112 -1.84563 -5.50379 0
M  V30 10163 H 951.877 -2.59301 -1.50276 0
M  V30 10164 H 949.438 -1.46806 -0.68262 0
M  V30 10165 H 951.43 -1.46932 -3.77085 0
M  V30 10166 H 950 -0.689974 -3.0489 0
M  V30 10167 H 949.22 -3.099 -2.4363 0
M  V30 10168 H 950.508 -3.69412 -3.49875 0
M  V30 10169 H 949.906 -1.23758 -5.51997 0
M  V30 10170 H 948.463 -1.79849 -6.26496 0
M  V30 10171 N 951.896 0.746133 -1.38819 0
M  V30 10172 C 952.826 1.87344 -1.39372 0
M  V30 10173 C 953.807 1.68123 -0.258583 0
M  V30 10174 O 954.992 1.88606 -0.462769 0
M  V30 10175 C 952.122 3.24962 -1.22543 0
M  V30 10176 C 951.076 3.58799 -2.33339 0
M  V30 10177 C 950.402 4.95235 -2.01609 0
M  V30 10178 C 951.702 3.62911 -3.75624 0
M  V30 10179 H 953.396 1.87138 -2.33709 0
M  V30 10180 H 950.942 0.898937 -1.12495 0
M  V30 10181 H 952.895 4.03488 -1.21554 0
M  V30 10182 H 951.619 3.25667 -0.246707 0
M  V30 10183 H 950.278 2.82596 -2.33527 0
M  V30 10184 H 949.926 4.92508 -1.02202 0
M  V30 10185 H 949.626 5.18843 -2.75819 0
M  V30 10186 H 951.15 5.76131 -2.02251 0
M  V30 10187 H 952.564 4.31535 -3.77426 0
M  V30 10188 H 950.961 3.98031 -4.491 0
M  V30 10189 H 952.031 2.62967 -4.07402 0
M  V30 10190 N 953.375 1.23811 0.975125 0
M  V30 10191 C 954.786 1.0675 1.53171 0
M  V30 10192 C 955.137 -0.363475 1.92804 0
M  V30 10193 O 954.262 -1.25089 1.76583 0
M  V30 10194 C 954.857 1.93161 2.78342 0
M  V30 10195 C 953.416 1.80346 3.30382 0
M  V30 10196 C 952.563 1.88544 2.03338 0
M  V30 10197 H 955.514 1.37396 0.79423 0
M  V30 10198 H 955.535 1.45951 3.51395 0
M  V30 10199 H 955.047 2.97302 2.49465 0
M  V30 10200 H 953.148 0.790077 3.64127 0
M  V30 10201 H 953.261 2.64026 3.99784 0
M  V30 10202 H 951.625 1.32186 2.17713 0
M  V30 10203 H 952.408 2.94252 1.76836 0
M  V30 10204 N 954.853 -1.17469 1.05066 0
M  V30 10205 C 956.078 -1.92162 0.780298 0
M  V30 10206 C 956.503 -1.76222 -0.657832 0
M  V30 10207 O 955.861 -1.0791 -1.45688 0
M  V30 10208 C 955.909 -3.41292 1.16414 0
M  V30 10209 O 955.013 -4.1134 0.295531 0
M  V30 10210 H 954.354 -0.599127 0.286257 0
M  V30 10211 H 956.884 -1.48903 1.40318 0
M  V30 10212 H 956.894 -3.92029 1.13036 0
M  V30 10213 H 955.569 -3.52214 2.21175 0
M  V30 10214 H 954.146 -3.70857 0.389797 0
M  V30 10215 N 956.331 -0.831506 -1.3388 0
M  V30 10216 C 957.556 -0.435954 -2.02766 0
M  V30 10217 C 957.981 0.952889 -1.62178 0
M  V30 10218 O 957.339 1.62166 -0.810681 0
M  V30 10219 C 957.387 -0.555907 -3.56289 0
M  V30 10220 O 956.491 0.420826 -4.10247 0
M  V30 10221 H 955.832 -0.178248 -0.639628 0
M  V30 10222 H 958.362 -1.1243 -1.70941 0
M  V30 10223 H 958.372 -0.434831 -4.05676 0
M  V30 10224 H 957.047 -1.56881 -3.85177 0
M  V30 10225 H 955.624 0.257919 -3.72007 0
M  V30 10226 N 957.809 1.4625 -0.587256 0
M  V30 10227 C 958.739 2.33132 0.131076 0
M  V30 10228 C 959.72 1.45619 0.879158 0
M  V30 10229 O 960.905 1.74428 0.853723 0
M  V30 10230 C 958.035 3.27975 1.14236 0
M  V30 10231 C 956.989 4.24965 0.508819 0
M  V30 10232 C 956.315 5.09349 1.62689 0
M  V30 10233 C 957.615 5.19322 -0.55694 0
M  V30 10234 H 959.309 2.93442 -0.594333 0
M  V30 10235 H 956.855 1.41106 -0.287263 0
M  V30 10236 H 958.808 3.87614 1.65328 0
M  V30 10237 H 957.532 2.65781 1.8981 0
M  V30 10238 H 956.191 3.66595 0.0189337 0
M  V30 10239 H 955.839 4.43537 2.37242 0
M  V30 10240 H 955.539 5.75036 1.20861 0
M  V30 10241 H 957.063 5.71852 2.14049 0
M  V30 10242 H 958.477 5.73151 -0.130903 0
M  V30 10243 H 956.874 5.93376 -0.895801 0
M  V30 10244 H 957.944 4.62979 -1.44148 0
M  V30 10245 N 959.287 0.325282 1.54207 0
M  V30 10246 C 960.515 -0.27869 2.05014 0
M  V30 10247 C 960.93 -1.45649 1.20133 0
M  V30 10248 O 960.287 -1.81014 0.232398 0
M  V30 10249 C 960.338 -0.711486 3.54429 0
M  V30 10250 O 960.059 0.419458 4.36087 0
M  V30 10251 C 961.56 -1.37809 4.21336 0
M  V30 10252 H 958.78 -0.0570388 0.668571 0
M  V30 10253 H 961.324 0.47197 1.98979 0
M  V30 10254 H 959.479 -1.41212 3.60746 0
M  V30 10255 H 959.893 0.0781037 5.24442 0
M  V30 10256 H 961.367 -1.63184 5.27328 0
M  V30 10257 H 961.844 -2.32593 3.72555 0
M  V30 10258 H 962.45 -0.719987 4.19161 0
M  V30 10259 N 960.765 -1.57509 0.0534917 0
M  V30 10260 C 961.695 -2.14698 -0.917999 0
M  V30 10261 C 962.676 -1.06924 -1.32292 0
M  V30 10262 O 963.861 -1.34875 -1.39723 0
M  V30 10263 C 960.991 -2.69383 -2.19203 0
M  V30 10264 C 959.945 -3.82161 -1.9271 0
M  V30 10265 C 959.271 -4.23373 -3.26587 0
M  V30 10266 C 960.571 -5.07199 -1.24686 0
M  V30 10267 H 962.265 -2.96125 -0.44165 0
M  V30 10268 H 959.811 -1.42446 -0.210993 0
M  V30 10269 H 961.764 -3.08031 -2.87567 0
M  V30 10270 H 960.488 -1.85151 -2.69048 0
M  V30 10271 H 959.147 -3.43989 -1.26757 0
M  V30 10272 H 958.795 -3.36089 -3.74237 0
M  V30 10273 H 958.495 -4.99385 -3.09658 0
M  V30 10274 H 960.019 -4.64623 -3.96178 0
M  V30 10275 H 961.433 -5.43279 -1.83088 0
M  V30 10276 H 959.83 -5.88369 -1.18076 0
M  V30 10277 H 960.9 -4.84386 -0.223227 0
M  V30 10278 N 962.243 0.219913 -1.56058 0
M  V30 10279 C 963.206 1.25606 -1.91718 0
M  V30 10280 C 964.206 1.39721 -0.795912 0
M  V30 10281 O 965.396 1.37958 -1.06364 0
M  V30 10282 C 962.528 2.62961 -2.16943 0
M  V30 10283 H 963.721 0.951909 -2.84392 0
M  V30 10284 H 961.274 0.460398 -1.49365 0
M  V30 10285 H 962.009 2.98472 -1.26826 0
M  V30 10286 H 961.794 2.54093 -2.98629 0
M  V30 10287 H 963.284 3.37727 -2.45622 0
M  V30 10288 N 963.721 1.49897 0.486681 0
M  V30 10289 C 964.969 1.59789 1.23742 0
M  V30 10290 C 965.29 0.293056 1.92785 0
M  V30 10291 O 964.56 -0.688534 1.83401 0
M  V30 10292 H 963.14 0.588775 0.459731 0
M  V30 10293 H 965.802 1.86597 0.562808 0
M  V30 10294 H 964.898 2.40121 1.9937 0
M  V30 10295 N 965.199 -0.738761 1.39212 0
M  V30 10296 C 966.146 -1.85273 1.37631 0
M  V30 10297 C 967.116 -1.64407 0.236572 0
M  V30 10298 O 968.301 -1.85866 0.431104 0
M  V30 10299 C 965.441 -3.22745 1.22188 0
M  V30 10300 C 964.554 -3.55342 2.45674 0
M  V30 10301 C 963.689 -4.82195 2.22847 0
M  V30 10302 C 962.728 -5.07625 3.42029 0
M  V30 10303 N 961.865 -6.25679 3.18543 0
M  V30 10304 H 966.705 -1.85959 2.32859 0
M  V30 10305 H 964.242 -0.908716 1.15675 0
M  V30 10306 H 966.2 -4.02095 1.11245 0
M  V30 10307 H 964.83 -3.21347 0.30592 0
M  V30 10308 H 963.882 -2.70722 2.67233 0
M  V30 10309 H 965.194 -3.70054 3.34457 0
M  V30 10310 H 964.348 -5.69518 2.09126 0
M  V30 10311 H 963.087 -4.6965 1.31454 0
M  V30 10312 H 962.092 -4.18765 3.56253 0
M  V30 10313 H 963.317 -5.22058 4.34319 0
M  V30 10314 H 961.263 -6.14429 2.2981 0
M  V30 10315 H 961.18 -6.40961 4.0088 0
M  V30 10316 H 962.448 -7.15851 3.08508 0
M  V30 10317 N 966.677 -1.24326 -0.968545 0
M  V30 10318 C 967.905 -1.10947 -1.74638 0
M  V30 10319 C 968.32 0.338064 -1.85749 0
M  V30 10320 O 967.677 1.23331 -1.3452 0
M  V30 10321 C 967.728 -1.74254 -3.1673 0
M  V30 10322 O 967.449 -3.13347 -3.06178 0
M  V30 10323 C 968.95 -1.66473 -4.10855 0
M  V30 10324 H 966.17 -0.38767 -0.547679 0
M  V30 10325 H 968.714 -1.64415 -1.21605 0
M  V30 10326 H 966.869 -1.2479 -3.66751 0
M  V30 10327 H 967.283 -3.44255 -3.95713 0
M  V30 10328 H 968.757 -2.15452 -5.08217 0
M  V30 10329 H 969.234 -0.625785 -4.34719 0
M  V30 10330 H 969.84 -2.15359 -3.66743 0
M  V30 10331 N 968.156 1.1691 -1.05688 0
M  V30 10332 C 969.404 1.86922 -0.768409 0
M  V30 10333 C 969.725 1.81735 0.706921 0
M  V30 10334 O 968.995 1.24671 1.51109 0
M  V30 10335 H 967.575 0.69203 -0.281253 0
M  V30 10336 H 970.237 1.41803 -1.33708 0
M  V30 10337 H 969.333 2.92528 -1.08783 0
M  V30 10338 N 969.634 0.838594 1.33437 0
M  V30 10339 C 970.862 0.447644 2.01999 0
M  V30 10340 C 971.277 -0.951053 1.63096 0
M  V30 10341 O 970.634 -1.61802 0.844169 0
M  V30 10342 C 970.685 0.558378 3.57162 0
M  V30 10343 O 970.406 1.90196 3.94661 0
M  V30 10344 C 971.907 0.164348 4.42995 0
M  V30 10345 H 969.127 0.177736 0.647032 0
M  V30 10346 H 971.671 1.13109 1.70372 0
M  V30 10347 H 969.826 -0.0771563 3.87323 0
M  V30 10348 H 970.24 1.88729 4.89369 0
M  V30 10349 H 971.714 0.292876 5.51222 0
M  V30 10350 H 972.191 -0.893713 4.30011 0
M  V30 10351 H 972.797 0.774306 4.18192 0
M  V30 10352 N 971.112 -1.45937 0.595003 0
M  V30 10353 C 972.337 -2.07207 0.0894416 0
M  V30 10354 C 972.762 -1.43884 -1.21157 0
M  V30 10355 O 972.12 -0.526998 -1.73472 0
M  V30 10356 C 972.168 -3.60565 -0.0499828 0
M  V30 10357 O 971.272 -3.97364 -1.10342 0
M  V30 10358 H 970.613 -0.660471 0.0683627 0
M  V30 10359 H 973.143 -1.87386 0.82144 0
M  V30 10360 H 973.153 -4.0722 -0.252234 0
M  V30 10361 H 971.828 -4.06044 0.90006 0
M  V30 10362 H 970.405 -3.62401 -0.878645 0
M  V30 10363 N 972.59 -0.333456 -1.54032 0
M  V30 10364 C 973.538 0.543414 -2.26163 0
M  V30 10365 C 974.532 1.11037 -1.27934 0
M  V30 10366 O 975.738 1.05727 -1.45677 0
M  V30 10367 H 972.113 0.19391 -0.726569 0
M  V30 10368 H 974.084 -0.0871052 -2.98273 0
M  V30 10369 C 972.833 1.68769 -3.03994 0
M  V30 10370 H 972.156 1.26069 -3.79403 0
M  V30 10371 H 973.596 2.27662 -3.57695 0
M  V30 10372 C 972.055 2.61117 -2.12884 0
M  V30 10373 O 972.585 3.63097 -1.71823 0
M  V30 10374 N 970.791 2.29573 -1.7817 0
M  V30 10375 H 970.338 1.46684 -2.11759 0
M  V30 10376 H 970.296 2.91622 -1.1749 0
M  V30 10377 N 974.068 1.57479 -0.061844 0
M  V30 10378 C 975.345 1.84484 0.649993 0
M  V30 10379 C 975.725 0.952366 1.88396 0
M  V30 10380 O 975.073 0.0161035 2.28494 0
M  V30 10381 C 975.283 3.34452 0.997133 0
M  V30 10382 C 976.631 4.01724 1.37488 0
M  V30 10383 O 977.655 3.3914 1.08916 0
M  V30 10384 O 976.514 5.12091 1.90854 0
M  V30 10385 H 973.608 0.761798 0.321858 0
M  V30 10386 H 976.154 1.6945 -0.0920192 0
M  V30 10387 H 974.926 3.91115 0.120301 0
M  V30 10388 H 974.549 3.54713 1.79624 0
M  V30 10389 N 975.546 -0.211634 1.56173 0
M  V30 10390 C 976.771 -0.955324 1.84088 0
M  V30 10391 C 977.196 -1.76754 0.643407 0
M  V30 10392 O 976.554 -1.76653 -0.407842 0
M  V30 10393 C 976.602 -1.84063 3.10085 0
M  V30 10394 O 975.706 -2.9373 2.89476 0
M  V30 10395 H 975.047 -0.26996 0.606645 0
M  V30 10396 H 977.577 -0.221947 2.03393 0
M  V30 10397 H 977.587 -2.24852 3.40449 0
M  V30 10398 H 976.262 -1.24373 3.96868 0
M  V30 10399 H 974.839 -2.56816 2.7037 0
M  V30 10400 N 977.024 -1.50153 -0.478725 0
M  V30 10401 C 978.44 -1.3741 -0.811833 0
M  V30 10402 C 978.64 -0.424303 -1.96982 0
M  V30 10403 O 977.696 0.13588 -2.52134 0
M  V30 10404 C 979.009 -2.78616 -1.13108 0
M  V30 10405 C 980.557 -2.87477 -1.23798 0
M  V30 10406 C 981.032 -4.295 -1.5904 0
M  V30 10407 N 982.523 -4.32415 -1.66047 0
M  V30 10408 C 983.258 -5.39295 -1.94805 0
M  V30 10409 N 982.754 -6.56392 -2.21635 0
M  V30 10410 N 984.547 -5.26731 -1.96243 0
M  V30 10411 H 976.698 -2.10486 0.284531 0
M  V30 10412 H 978.961 -0.945786 0.0647585 0
M  V30 10413 H 978.667 -3.49921 -0.35334 0
M  V30 10414 H 978.541 -3.15382 -2.06915 0
M  V30 10415 H 980.928 -2.16396 -2.00641 0
M  V30 10416 H 981.009 -2.54264 -0.279888 0
M  V30 10417 H 980.653 -5.01115 -0.827404 0
M  V30 10418 H 980.583 -4.60194 -2.55987 0
M  V30 10419 H 983.074 -3.47975 -1.47383 0
M  V30 10420 H 983.387 -7.33658 -2.4283 0
M  V30 10421 H 981.732 -6.59579 -2.19043 0
M  V30 10422 H 984.923 -4.34249 -1.74773 0
M  V30 10423 H 985.096 -6.10115 -2.1832 0
M  V30 10424 N 978.502 0.731368 -1.39602 0
M  V30 10425 C 979.779 1.48308 -1.27531 0
M  V30 10426 C 980.159 2.10795 0.113482 0
M  V30 10427 O 979.507 1.98886 1.12501 0
M  V30 10428 C 979.717 2.53156 -2.40235 0
M  V30 10429 C 981.065 3.19436 -2.79725 0
M  V30 10430 O 982.089 2.6347 -2.39712 0
M  V30 10431 O 980.948 4.20714 -3.48801 0
M  V30 10432 H 978.042 0.658753 -0.499973 0
M  V30 10433 H 980.588 0.764884 -1.51485 0
M  V30 10434 H 979.36 2.05387 -3.33064 0
M  V30 10435 H 978.983 3.3253 -2.17966 0
M  V30 10436 N 979.98 1.24838 0.961938 0
M  V30 10437 C 981.205 1.11967 1.7458 0
M  V30 10438 C 981.63 -0.323287 1.85301 0
M  V30 10439 O 980.988 -1.23412 1.32812 0
M  V30 10440 C 981.036 1.77066 3.14134 0
M  V30 10441 O 980.14 1.04534 3.98932 0
M  V30 10442 H 979.481 0.391338 0.536424 0
M  V30 10443 H 982.011 1.65259 1.20626 0
M  V30 10444 H 982.021 1.83056 3.64629 0
M  V30 10445 H 980.696 2.82052 3.05646 0
M  V30 10446 H 979.273 1.06372 3.57407 0
M  V30 10447 N 981.458 -1.16348 1.06306 0
M  V30 10448 C 982.704 -1.87397 0.79082 0
M  V30 10449 C 983.059 -1.80156 -0.675382 0
M  V30 10450 O 982.352 -1.20644 -1.48847 0
M  V30 10451 C 982.546 -3.35936 1.21991 0
M  V30 10452 C 982.375 -3.57637 2.72628 0
M  V30 10453 C 981.145 -3.73717 3.40094 0
M  V30 10454 C 983.343 -3.56345 3.70841 0
M  V30 10455 N 981.325 -3.83369 4.7948 0
M  V30 10456 C 982.696 -3.71983 4.96013 0
M  V30 10457 C 984.751 -3.39558 3.64149 0
M  V30 10458 C 983.454 -3.7257 6.15292 0
M  V30 10459 C 985.48 -3.41439 4.8288 0
M  V30 10460 C 984.842 -3.57596 6.06881 0
M  V30 10461 H 980.941 -0.703355 0.341782 0
M  V30 10462 H 983.525 -1.39597 1.35723 0
M  V30 10463 H 981.696 -3.82378 0.681319 0
M  V30 10464 H 983.428 -3.94649 0.896319 0
M  V30 10465 H 980.183 -3.74045 2.90495 0
M  V30 10466 H 980.607 -3.91964 5.5199 0
M  V30 10467 H 985.249 -3.25994 2.69235 0
M  V30 10468 H 982.967 -3.84916 7.10539 0
M  V30 10469 H 986.553 -3.29693 4.79368 0
M  V30 10470 H 985.433 -3.58971 6.97216 0
M  V30 10471 N 982.937 -0.845659 -1.3299 0
M  V30 10472 C 984.184 -0.444653 -1.97558 0
M  V30 10473 C 984.512 0.997682 -1.66963 0
M  V30 10474 O 983.767 1.71349 -0.94541 0
M  V30 10475 C 984.066 -0.6201 -3.51979 0
M  V30 10476 C 983.732 -2.03155 -4.02541 0
M  V30 10477 C 982.394 -2.4176 -4.16059 0
M  V30 10478 C 984.746 -2.95317 -4.29462 0
M  V30 10479 C 982.074 -3.71818 -4.53837 0
M  V30 10480 C 984.426 -4.24863 -4.68694 0
M  V30 10481 C 983.09 -4.63416 -4.80419 0
M  V30 10482 H 982.36 -0.16271 -0.722915 0
M  V30 10483 H 985.007 -1.07399 -1.58549 0
M  V30 10484 H 983.312 0.092513 -3.91691 0
M  V30 10485 H 985.009 -0.290012 -3.9995 0
M  V30 10486 H 981.599 -1.72174 -3.92497 0
M  V30 10487 H 985.783 -2.66726 -4.18534 0
M  V30 10488 H 981.039 -4.01484 -4.61108 0
M  V30 10489 H 985.213 -4.96347 -4.8848 0
M  V30 10490 H 982.84 -5.6424 -5.09448 0
M  V30 10491 N 984.415 1.45619 -0.602734 0
M  V30 10492 C 985.64 2.07157 -0.100429 0
M  V30 10493 C 986.065 1.44524 1.20393 0
M  V30 10494 O 985.423 0.536191 1.7319 0
M  V30 10495 C 985.471 3.60587 0.0308604 0
M  V30 10496 O 984.575 3.97944 1.08234 0
M  V30 10497 H 983.916 0.6601 -0.0718643 0
M  V30 10498 H 986.446 1.86948 -0.831366 0
M  V30 10499 H 986.456 4.07348 0.230634 0
M  V30 10500 H 985.131 4.05561 -0.921581 0
M  V30 10501 H 983.708 3.62862 0.859414 0
M  V30 10502 N 985.893 0.34162 1.53853 0
M  V30 10503 C 987.141 -0.254979 2.00485 0
M  V30 10504 C 987.462 -1.51222 1.23114 0
M  V30 10505 O 986.732 -1.92966 0.337787 0
M  V30 10506 H 985.312 -0.0972084 0.740648 0
M  V30 10507 H 987.974 0.462332 1.89337 0
M  V30 10508 H 987.07 -0.498778 3.08089 0
M  V30 10509 N 987.371 -1.57444 0.0701946 0
M  V30 10510 C 988.618 -1.93429 -0.59929 0
M  V30 10511 C 988.946 -0.9501 -1.69715 0
M  V30 10512 O 988.201 0.0345377 -1.9567 0
M  V30 10513 C 988.5 -3.36044 -1.21694 0
M  V30 10514 C 988.166 -4.50232 -0.245374 0
M  V30 10515 C 986.828 -4.81195 0.0219161 0
M  V30 10516 C 989.18 -5.1951 0.419396 0
M  V30 10517 C 986.508 -5.78775 0.96109 0
M  V30 10518 C 988.86 -6.18095 1.34688 0
M  V30 10519 C 987.524 -6.47477 1.62265 0
M  V30 10520 H 986.794 -0.707807 -0.219296 0
M  V30 10521 H 989.441 -1.90982 0.14073 0
M  V30 10522 H 987.746 -3.34948 -2.03265 0
M  V30 10523 H 989.443 -3.61176 -1.74221 0
M  V30 10524 H 986.033 -4.26082 -0.463887 0
M  V30 10525 H 990.217 -4.95785 0.226009 0
M  V30 10526 H 985.473 -5.99865 1.18202 0
M  V30 10527 H 989.647 -6.7088 1.86795 0
M  V30 10528 H 987.274 -7.229 2.352 0
M  V30 10529 N 988.849 0.203349 -1.56283 0
M  V30 10530 C 990.097 0.923183 -1.79782 0
M  V30 10531 C 990.418 1.84134 -0.64185 0
M  V30 10532 O 989.688 1.92922 0.340292 0
M  V30 10533 H 988.268 0.343881 -0.66314 0
M  V30 10534 H 990.93 0.210837 -1.93756 0
M  V30 10535 H 990.026 1.51921 -2.72629 0
M  V30 10536 N 990.327 1.50405 0.470755 0
M  V30 10537 C 991.575 1.61092 1.2204 0
M  V30 10538 C 991.896 0.313487 1.92464 0
M  V30 10539 O 991.166 -0.669043 1.84121 0
M  V30 10540 H 989.746 0.593618 0.45346 0
M  V30 10541 H 992.408 1.87184 0.542985 0
M  V30 10542 H 991.504 2.42222 1.96812 0
M  V30 10543 N 991.805 -0.723954 1.39988 0
M  V30 10544 C 993.082 -1.4763 1.28316 0
M  V30 10545 C 993.462 -2.10852 -0.102302 0
M  V30 10546 O 992.81 -1.9948 -1.11445 0
M  V30 10547 C 993.02 -2.51878 2.41574 0
M  V30 10548 C 994.368 -3.17948 2.81415 0
M  V30 10549 O 995.392 -2.62195 2.41106 0
M  V30 10550 O 994.251 -4.18858 3.51027 0
M  V30 10551 H 991.345 -0.656092 0.50346 0
M  V30 10552 H 993.891 -0.75684 1.51888 0
M  V30 10553 H 992.663 -2.03618 3.34149 0
M  V30 10554 H 992.286 -3.3137 2.19727 0
M  V30 10555 N 993.283 -1.25346 -0.955304 0
M  V30 10556 C 994.213 -1.08152 -2.06943 0
M  V30 10557 C 995.194 0.00922598 -1.70097 0
M  V30 10558 O 996.379 -0.160181 -1.93538 0
M  V30 10559 C 993.509 -0.698745 -3.40198 0
M  V30 10560 C 992.463 -1.73965 -3.9105 0
M  V30 10561 C 991.789 -1.21158 -5.20792 0
M  V30 10562 C 993.089 -3.13829 -4.17503 0
M  V30 10563 H 994.783 -2.01345 -2.21586 0
M  V30 10564 H 992.329 -0.969459 -1.06478 0
M  V30 10565 H 994.282 -0.565394 -4.1759 0
M  V30 10566 H 993.006 0.268892 -3.25491 0
M  V30 10567 H 991.665 -1.86143 -3.15827 0
M  V30 10568 H 991.313 -0.234193 -5.02455 0
M  V30 10569 H 991.013 -1.90728 -5.55785 0
M  V30 10570 H 992.537 -1.09061 -6.00781 0
M  V30 10571 H 993.951 -3.04809 -4.85556 0
M  V30 10572 H 992.348 -3.80863 -4.63749 0
M  V30 10573 H 993.418 -3.6094 -3.23806 0
M  V30 10574 N 994.761 1.15782 -1.06922 0
M  V30 10575 C 995.693 2.19978 -0.643604 0
M  V30 10576 C 996.706 1.59981 0.301653 0
M  V30 10577 O 997.895 1.78265 0.0916508 0
M  V30 10578 C 994.995 3.38815 0.0757973 0
M  V30 10579 C 994.168 4.28363 -0.884545 0
M  V30 10580 C 993.227 5.25807 -0.203233 0
M  V30 10581 O 992.253 5.62924 -0.842904 0
M  V30 10582 N 993.455 5.70874 1.05279 0
M  V30 10583 H 996.22 2.57112 -1.53992 0
M  V30 10584 H 993.781 1.30855 -0.953344 0
M  V30 10585 H 995.773 4.01052 0.542151 0
M  V30 10586 H 994.343 3.00133 0.874 0
M  V30 10587 H 993.563 3.63292 -1.53012 0
M  V30 10588 H 994.851 4.85067 -1.53581 0
M  V30 10589 H 994.249 5.42822 1.5925 0
M  V30 10590 H 992.806 6.35171 1.46289 0
M  V30 10591 N 996.239 0.8527 1.3254 0
M  V30 10592 C 997.202 0.300959 2.27215 0
M  V30 10593 C 998.202 -0.538235 1.51525 0
M  V30 10594 O 999.392 -0.350027 1.70647 0
M  V30 10595 C 996.524 -0.574428 3.36025 0
M  V30 10596 H 997.717 1.13655 2.77529 0
M  V30 10597 H 995.27 0.626878 1.43178 0
M  V30 10598 H 996.005 -1.43191 2.90976 0
M  V30 10599 H 995.79 0.0262265 3.92091 0
M  V30 10600 H 997.28 -0.9533 4.06573 0
M  V30 10601 N 997.718 -1.45297 0.610449 0
M  V30 10602 C 998.964 -2.02518 0.106917 0
M  V30 10603 C 999.297 -1.47747 -1.26034 0
M  V30 10604 O 998.572 -0.65329 -1.832 0
M  V30 10605 C 998.855 -3.6003 0.0710975 0
M  V30 10606 C 998.708 -4.25128 1.46922 0
M  V30 10607 C 1000.03 -4.35778 -0.61524 0
M  V30 10608 H 997.146 -0.735896 0.040327 0
M  V30 10609 H 999.788 -1.73117 0.782968 0
M  V30 10610 H 997.938 -3.85209 -0.504611 0
M  V30 10611 H 999.61 -4.11125 2.09223 0
M  V30 10612 H 997.853 -3.83418 2.02911 0
M  V30 10613 H 998.524 -5.34046 1.39637 0
M  V30 10614 H 1001 -4.1591 -0.125871 0
M  V30 10615 H 999.876 -5.45506 -0.609419 0
M  V30 10616 H 1000.14 -4.08859 -1.68186 0
M  V30 10617 N 999.196 -0.349774 -1.5367 0
M  V30 10618 C 1000.44 0.245189 -2.01312 0
M  V30 10619 C 1000.77 1.49702 -1.23705 0
M  V30 10620 O 1000.05 1.91742 -0.326371 0
M  V30 10621 C 1000.33 0.553071 -3.55827 0
M  V30 10622 C 1000.19 -0.71129 -4.4414 0
M  V30 10623 C 1001.5 1.36015 -4.18555 0
M  V30 10624 H 998.624 0.0876415 -0.73177 0
M  V30 10625 H 1001.27 -0.471543 -1.84056 0
M  V30 10626 H 999.416 1.16367 -3.70663 0
M  V30 10627 H 1001.09 -1.34913 -4.41131 0
M  V30 10628 H 999.331 -1.33491 -4.1275 0
M  V30 10629 H 1000 -0.45104 -5.50154 0
M  V30 10630 H 1002.48 0.843778 -4.07455 0
M  V30 10631 H 1001.35 1.54432 -5.26728 0
M  V30 10632 H 1001.61 2.36408 -3.73582 0
M  V30 10633 N 1000.67 1.57404 -0.0785433 0
M  V30 10634 C 1001.92 1.9484 0.583853 0
M  V30 10635 C 1002.27 0.958758 1.6681 0
M  V30 10636 O 1001.57 -0.0179065 1.91592 0
M  V30 10637 C 1001.76 3.36684 1.1991 0
M  V30 10638 C 1001.59 4.49356 0.175978 0
M  V30 10639 C 1000.36 5.04721 -0.241733 0
M  V30 10640 C 1002.56 5.10911 -0.589415 0
M  V30 10641 N 1000.54 6.00938 -1.25485 0
M  V30 10642 C 1001.91 6.0269 -1.45483 0
M  V30 10643 C 1003.97 4.93708 -0.644746 0
M  V30 10644 C 1002.67 6.79111 -2.37066 0
M  V30 10645 C 1004.7 5.70778 -1.54812 0
M  V30 10646 C 1004.06 6.6221 -2.40119 0
M  V30 10647 H 1000.16 0.75993 0.184472 0
M  V30 10648 H 1002.74 1.94064 -0.157259 0
M  V30 10649 H 1000.91 3.38186 1.91011 0
M  V30 10650 H 1002.64 3.6134 1.82251 0
M  V30 10651 H 999.399 4.73385 0.142732 0
M  V30 10652 H 999.823 6.53746 -1.75912 0
M  V30 10653 H 1004.46 4.228 0.000601434 0
M  V30 10654 H 1002.18 7.49292 -3.02634 0
M  V30 10655 H 1005.77 5.59485 -1.59586 0
M  V30 10656 H 1004.65 7.20804 -3.08887 0
M  V30 10657 N 1002.15 -0.195058 1.56388 0
M  V30 10658 C 1003.08 -1.24444 1.97575 0
M  V30 10659 C 1004.06 -1.47471 0.847717 0
M  V30 10660 O 1005.25 -1.59208 1.11205 0
M  V30 10661 C 1002.38 -2.58866 2.31529 0
M  V30 10662 C 1001.33 -2.50451 3.47071 0
M  V30 10663 C 1000.66 -3.89146 3.667 0
M  V30 10664 C 1001.96 -2.02953 4.81256 0
M  V30 10665 H 1003.65 -0.902178 2.85484 0
M  V30 10666 H 1001.2 -0.43254 1.3735 0
M  V30 10667 H 1003.15 -3.3246 2.58936 0
M  V30 10668 H 1001.87 -2.94833 1.40502 0
M  V30 10669 H 1000.53 -1.79313 3.19754 0
M  V30 10670 H 1000.18 -4.22466 2.73004 0
M  V30 10671 H 999.882 -3.84391 4.44429 0
M  V30 10672 H 1001.41 -4.64363 3.96484 0
M  V30 10673 H 1002.82 -2.66306 5.07695 0
M  V30 10674 H 1001.22 -2.092 5.62455 0
M  V30 10675 H 1002.29 -0.982757 4.74837 0
M  V30 10676 N 1003.63 -1.50653 -0.462772 0
M  V30 10677 C 1004.88 -1.61737 -1.21184 0
M  V30 10678 C 1005.2 -0.32369 -1.92295 0
M  V30 10679 O 1004.47 0.659269 -1.84473 0
M  V30 10680 H 1003.05 -0.596015 -0.450306 0
M  V30 10681 H 1005.71 -1.87469 -0.533051 0
M  V30 10682 H 1004.81 -2.43262 -1.95525 0
M  V30 10683 N 1005.11 0.71652 -1.4037 0
M  V30 10684 C 1006.52 1.02447 -1.22379 0
M  V30 10685 C 1006.72 2.0126 -0.0983394 0
M  V30 10686 O 1005.78 2.46569 0.544071 0
M  V30 10687 C 1007.09 1.56909 -2.56515 0
M  V30 10688 C 1008.64 1.68898 -2.6352 0
M  V30 10689 C 1009.12 2.26765 -3.97922 0
M  V30 10690 N 1010.61 2.34152 -3.99658 0
M  V30 10691 C 1011.34 2.79907 -5.00439 0
M  V30 10692 N 1010.84 3.25422 -6.11615 0
M  V30 10693 N 1012.63 2.79283 -4.87809 0
M  V30 10694 H 1004.78 0.0615306 -2.12311 0
M  V30 10695 H 1007.05 0.0898994 -0.943728 0
M  V30 10696 H 1006.75 0.917649 -3.39517 0
M  V30 10697 H 1006.63 2.55446 -2.77538 0
M  V30 10698 H 1009.01 2.33159 -1.8089 0
M  V30 10699 H 1009.09 0.689626 -2.46329 0
M  V30 10700 H 1008.74 1.63126 -4.80991 0
M  V30 10701 H 1008.67 3.27413 -4.12442 0
M  V30 10702 H 1011.16 2.02006 -3.19378 0
M  V30 10703 H 1011.47 3.58899 -6.84406 0
M  V30 10704 H 1009.82 3.23383 -6.15181 0
M  V30 10705 H 1013.01 2.43061 -4.00049 0
M  V30 10706 H 1013.18 3.14626 -5.66493 0
M  V30 10707 N 1006.59 1.25851 0.948643 0
M  V30 10708 C 1007.86 1.01717 1.67072 0
M  V30 10709 C 1008.24 -0.454749 2.06144 0
M  V30 10710 O 1007.59 -1.43345 1.77945 0
M  V30 10711 C 1007.8 1.95872 2.88852 0
M  V30 10712 C 1009.15 2.24057 3.60671 0
M  V30 10713 O 1010.17 1.93678 2.98944 0
M  V30 10714 O 1009.03 2.75745 4.71833 0
M  V30 10715 H 1006.13 0.386198 0.731287 0
M  V30 10716 H 1008.67 1.37031 1.00104 0
M  V30 10717 H 1007.44 2.95233 2.56814 0
M  V30 10718 H 1007.07 1.60992 3.63548 0
M  V30 10719 N 1008.06 -1.15214 1.07534 0
M  V30 10720 C 1009.34 -1.82155 0.71267 0
M  V30 10721 C 1009.72 -1.95163 -0.804655 0
M  V30 10722 O 1009.07 -1.50451 -1.71979 0
M  V30 10723 C 1009.28 -3.18392 1.42925 0
M  V30 10724 C 1010.63 -3.94005 1.58256 0
M  V30 10725 O 1011.65 -3.27952 1.39018 0
M  V30 10726 O 1010.51 -5.12436 1.89925 0
M  V30 10727 H 1007.6 -0.78709 0.253808 0
M  V30 10728 H 1010.15 -1.22309 1.17638 0
M  V30 10729 H 1008.92 -3.04034 2.46331 0
M  V30 10730 H 1008.55 -3.85925 0.956439 0
M  V30 10731 N 1009.54 -0.859717 -1.32086 0
M  V30 10732 C 1010.49 -0.296897 -2.30697 0
M  V30 10733 C 1011.48 0.582473 -1.59071 0
M  V30 10734 O 1012.69 0.469713 -1.73763 0
M  V30 10735 H 1009.07 -0.0773132 -0.748015 0
M  V30 10736 H 1011.04 -1.14273 -2.75652 0
M  V30 10737 C 1009.79 0.495546 -3.44151 0
M  V30 10738 H 1009.11 -0.171829 -3.99431 0
M  V30 10739 H 1010.55 0.854854 -4.15293 0
M  V30 10740 C 1009.01 1.68278 -2.91863 0
M  V30 10741 O 1009.54 2.78194 -2.89777 0
M  V30 10742 N 1007.74 1.51151 -2.48197 0
M  V30 10743 H 1007.29 0.617345 -2.50093 0
M  V30 10744 H 1007.25 2.3073 -2.13567 0
M  V30 10745 N 1011.02 1.44971 -0.618145 0
M  V30 10746 C 1012.27 2.0176 -0.11725 0
M  V30 10747 C 1012.59 1.48773 1.26062 0
M  V30 10748 O 1011.86 0.686152 1.83491 0
M  V30 10749 H 1010.44 0.745909 -0.0403545 0
M  V30 10750 H 1013.1 1.77638 -0.801923 0
M  V30 10751 H 1012.2 3.1201 -0.0750477 0
M  V30 10752 N 1012.5 0.357919 1.53482 0
M  V30 10753 C 1013.45 -0.49217 2.25491 0
M  V30 10754 C 1014.42 -1.08382 1.25867 0
M  V30 10755 O 1015.6 -1.11775 1.54632 0
M  V30 10756 C 1012.74 -1.6299 3.04185 0
M  V30 10757 C 1011.85 -1.06416 4.18688 0
M  V30 10758 C 1010.99 -2.17037 4.84839 0
M  V30 10759 C 1010.03 -1.57889 5.91386 0
M  V30 10760 N 1009.16 -2.6231 6.51259 0
M  V30 10761 H 1014 0.128412 2.97723 0
M  V30 10762 H 1011.54 0.0751423 1.46908 0
M  V30 10763 H 1013.5 -2.29993 3.48079 0
M  V30 10764 H 1012.13 -2.22125 2.34223 0
M  V30 10765 H 1011.18 -0.284635 3.79334 0
M  V30 10766 H 1012.49 -0.591654 4.95279 0
M  V30 10767 H 1011.65 -2.91876 5.31877 0
M  V30 10768 H 1010.39 -2.67636 4.07703 0
M  V30 10769 H 1009.39 -0.815605 5.43717 0
M  V30 10770 H 1010.62 -1.08123 6.70437 0
M  V30 10771 H 1008.56 -3.12137 5.7698 0
M  V30 10772 H 1008.48 -2.19724 7.23365 0
M  V30 10773 H 1009.75 -3.36875 7.02948 0
M  V30 10774 N 1013.98 -1.5736 0.0868897 0
M  V30 10775 C 1015.2 -1.98388 -0.587349 0
M  V30 10776 C 1015.62 -0.965757 -1.6223 0
M  V30 10777 O 1014.98 0.0456981 -1.82443 0
M  V30 10778 C 1015.03 -3.39479 -1.24242 0
M  V30 10779 O 1014.75 -4.37393 -0.248878 0
M  V30 10780 C 1016.25 -3.95465 -2.00305 0
M  V30 10781 H 1013.47 -0.652111 -0.15809 0
M  V30 10782 H 1016.01 -2.03843 0.163754 0
M  V30 10783 H 1014.17 -3.35063 -1.94451 0
M  V30 10784 H 1014.58 -5.19525 -0.720678 0
M  V30 10785 H 1016.06 -4.96363 -2.41511 0
M  V30 10786 H 1016.53 -3.32832 -2.86565 0
M  V30 10787 H 1017.14 -4.03328 -1.34931 0
M  V30 10788 N 1015.45 0.186762 -1.56489 0
M  V30 10789 C 1016.87 0.750675 -1.70944 0
M  V30 10790 C 1017.22 1.83483 -0.694858 0
M  V30 10791 O 1016.34 2.159 0.147009 0
M  V30 10792 C 1016.94 1.36843 -3.09934 0
M  V30 10793 C 1015.5 1.87934 -3.26125 0
M  V30 10794 C 1014.64 0.75242 -2.66897 0
M  V30 10795 H 1017.59 -0.0384292 -1.58653 0
M  V30 10796 H 1017.61 2.23795 -3.07727 0
M  V30 10797 H 1017.13 0.579135 -3.83755 0
M  V30 10798 H 1015.23 2.69556 -2.57235 0
M  V30 10799 H 1015.34 2.0354 -4.33715 0
M  V30 10800 H 1013.7 1.16888 -2.26295 0
M  V30 10801 H 1014.49 -0.0247769 -3.43291 0
M  V30 10802 N 1016.93 1.50896 0.454776 0
M  V30 10803 C 1017.86 1.73885 1.5584 0
M  V30 10804 C 1018.84 0.588172 1.59607 0
M  V30 10805 O 1020.03 0.829054 1.75614 0
M  V30 10806 C 1017.16 1.84796 2.94054 0
M  V30 10807 C 1016.11 3.00111 3.05152 0
M  V30 10808 C 1015.44 2.96183 4.45174 0
M  V30 10809 C 1016.74 4.40365 2.80849 0
M  V30 10810 H 1018.43 2.66292 1.36854 0
M  V30 10811 H 1015.98 1.28142 0.656936 0
M  V30 10812 H 1017.93 1.99462 3.71204 0
M  V30 10813 H 1016.66 0.890235 3.14233 0
M  V30 10814 H 1015.31 2.85121 2.30438 0
M  V30 10815 H 1014.96 1.98224 4.62295 0
M  V30 10816 H 1014.66 3.73608 4.53532 0
M  V30 10817 H 1016.19 3.1292 5.24322 0
M  V30 10818 H 1017.6 4.55795 3.47741 0
M  V30 10819 H 1016 5.19363 3.00636 0
M  V30 10820 H 1017.07 4.51606 1.76579 0
M  V30 10821 N 1018.41 -0.709066 1.40748 0
M  V30 10822 C 1019.64 -1.49808 1.42707 0
M  V30 10823 C 1020.05 -1.88778 0.0285574 0
M  V30 10824 O 1019.41 -1.55883 -0.949035 0
M  V30 10825 C 1019.46 -2.76926 2.32366 0
M  V30 10826 O 1019.18 -2.39602 3.66773 0
M  V30 10827 C 1020.68 -3.70773 2.42986 0
M  V30 10828 H 1017.9 -0.462106 0.486517 0
M  V30 10829 H 1020.45 -0.874135 1.84876 0
M  V30 10830 H 1018.6 -3.3559 1.93541 0
M  V30 10831 H 1019.02 -3.21443 4.14457 0
M  V30 10832 H 1020.49 -4.56789 3.09916 0
M  V30 10833 H 1020.97 -4.14332 1.45691 0
M  V30 10834 H 1021.57 -3.18019 2.8239 0
M  V30 10835 N 1019.89 -1.26353 -0.941956 0
M  V30 10836 C 1021.14 -1.1163 -1.68473 0
M  V30 10837 C 1021.46 0.34108 -1.91994 0
M  V30 10838 O 1020.73 1.24065 -1.51607 0
M  V30 10839 H 1019.31 -0.410113 -0.624353 0
M  V30 10840 H 1021.97 -1.58669 -1.13182 0
M  V30 10841 H 1021.07 -1.63445 -2.6588 0
M  V30 10842 N 1021.37 1.14642 -1.08144 0
M  V30 10843 C 1022.33 2.17834 -0.712799 0
M  V30 10844 C 1023.33 1.58828 0.251041 0
M  V30 10845 O 1024.52 1.74173 0.0309381 0
M  V30 10846 C 1021.65 3.4086 -0.0519477 0
M  V30 10847 H 1022.85 2.51961 -1.62653 0
M  V30 10848 H 1020.4 1.29243 -0.878971 0
M  V30 10849 H 1021.13 3.12311 0.873636 0
M  V30 10850 H 1020.92 3.84952 -0.745286 0
M  V30 10851 H 1022.41 4.17163 0.191031 0
M  V30 10852 N 1022.85 0.866709 1.31628 0
M  V30 10853 C 1024.07 0.49039 2.01004 0
M  V30 10854 C 1024.49 -0.916244 1.65077 0
M  V30 10855 O 1023.85 -1.59975 0.8783 0
M  V30 10856 C 1023.9 0.634011 3.55897 0
M  V30 10857 O 1023.62 1.98525 3.90537 0
M  V30 10858 C 1025.12 0.258277 4.42547 0
M  V30 10859 H 1022.34 0.191421 0.643117 0
M  V30 10860 H 1024.88 1.16698 1.67934 0
M  V30 10861 H 1023.04 0.00501801 3.874 0
M  V30 10862 H 1023.45 1.99067 4.85255 0
M  V30 10863 H 1024.93 0.409733 5.50477 0
M  V30 10864 H 1025.4 -0.802301 4.3181 0
M  V30 10865 H 1026.01 0.862837 4.16456 0
M  V30 10866 N 1024.32 -1.44642 0.625825 0
M  V30 10867 C 1025.57 -2.01695 0.127948 0
M  V30 10868 C 1025.89 -1.49439 -1.25271 0
M  V30 10869 O 1025.16 -0.695873 -1.83124 0
M  V30 10870 H 1023.74 -0.745685 0.0443096 0
M  V30 10871 H 1026.4 -1.7721 0.811332 0
M  V30 10872 H 1025.5 -3.11966 0.0915933 0
M  V30 10873 N 1025.8 -0.366053 -1.5329 0
M  V30 10874 C 1026.76 0.467904 -2.24373 0
M  V30 10875 C 1027.76 1.00934 -1.25176 0
M  V30 10876 O 1028.95 0.895015 -1.49449 0
M  V30 10877 C 1026.09 1.65405 -2.98084 0
M  V30 10878 H 1027.28 -0.154105 -2.99504 0
M  V30 10879 H 1024.83 -0.117751 -1.55856 0
M  V30 10880 H 1025.57 2.31413 -2.27197 0
M  V30 10881 H 1025.35 1.27277 -3.70868 0
M  V30 10882 H 1026.84 2.24503 -3.52119 0
M  V30 10883 N 1027.28 1.57312 -0.0952337 0
M  V30 10884 C 1028.21 2.17056 0.860753 0
M  V30 10885 C 1029.19 1.10394 1.29411 0
M  V30 10886 O 1030.38 1.38532 1.36098 0
M  V30 10887 C 1027.51 2.751 2.11984 0
M  V30 10888 C 1026.46 3.87136 1.8251 0
M  V30 10889 C 1025.79 4.31883 3.15247 0
M  V30 10890 C 1027.09 5.10326 1.11194 0
M  V30 10891 H 1028.78 2.97192 0.362983 0
M  V30 10892 H 1026.33 1.42955 0.173151 0
M  V30 10893 H 1028.28 3.15547 2.79299 0
M  V30 10894 H 1027 1.92219 2.64044 0
M  V30 10895 H 1025.66 3.47229 1.17592 0
M  V30 10896 H 1025.31 3.45893 3.65195 0
M  V30 10897 H 1025.01 5.0742 2.96309 0
M  V30 10898 H 1026.53 4.74964 3.83721 0
M  V30 10899 H 1027.95 5.47942 1.6862 0
M  V30 10900 H 1026.34 5.91293 1.02435 0
M  V30 10901 H 1027.41 4.84807 0.0947227 0
M  V30 10902 N 1028.76 -0.17846 1.56586 0
M  V30 10903 C 1029.69 -1.24547 1.92408 0
M  V30 10904 C 1030.7 -1.40849 0.816421 0
M  V30 10905 O 1031.89 -1.40979 1.09486 0
M  V30 10906 C 1028.99 -2.61523 2.15544 0
M  V30 10907 C 1028.16 -2.66613 3.46751 0
M  V30 10908 C 1027.22 -3.84901 3.588 0
M  V30 10909 O 1026.25 -3.71231 4.31482 0
M  V30 10910 N 1027.45 -5.0106 2.9312 0
M  V30 10911 H 1030.22 -0.941275 2.84535 0
M  V30 10912 H 1027.78 -0.368275 1.57656 0
M  V30 10913 H 1029.77 -3.3911 2.20876 0
M  V30 10914 H 1028.34 -2.84362 1.29835 0
M  V30 10915 H 1027.56 -1.75174 3.5314 0
M  V30 10916 H 1028.85 -2.67018 4.33104 0
M  V30 10917 H 1028.25 -5.15067 2.33928 0
M  V30 10918 H 1026.8 -5.76535 3.04057 0
M  V30 10919 N 1030.24 -1.51135 -0.446768 0
M  V30 10920 C 1031.48 -1.63578 -1.19875 0
M  V30 10921 C 1031.81 -0.346478 -1.91084 0
M  V30 10922 O 1031.09 0.653447 -1.83195 0
M  V30 10923 C 1031.37 -2.83275 -2.22323 0
M  V30 10924 C 1031.23 -4.22155 -1.55259 0
M  V30 10925 C 1032.54 -2.98496 -3.23401 0
M  V30 10926 H 1029.66 -0.595333 -0.434452 0
M  V30 10927 H 1032.31 -1.83593 -0.48923 0
M  V30 10928 H 1030.46 -2.6634 -2.82834 0
M  V30 10929 H 1032.13 -4.50736 -0.981571 0
M  V30 10930 H 1030.37 -4.25288 -0.855122 0
M  V30 10931 H 1031.04 -5.01882 -2.29823 0
M  V30 10932 H 1033.52 -3.14079 -2.72935 0
M  V30 10933 H 1032.39 -3.83828 -3.92386 0
M  V30 10934 H 1032.65 -2.10157 -3.88956 0
M  V30 10935 N 1031.71 0.701592 -1.41122 0
M  V30 10936 C 1032.96 1.46245 -1.41364 0
M  V30 10937 C 1033.31 1.9239 -0.0200662 0
M  V30 10938 O 1032.61 1.6622 0.952971 0
M  V30 10939 C 1032.8 2.693 -2.34973 0
M  V30 10940 C 1032.63 2.35193 -3.83294 0
M  V30 10941 C 1031.4 2.2585 -4.52018 0
M  V30 10942 C 1033.6 1.98555 -4.74426 0
M  V30 10943 N 1031.58 1.84565 -5.85499 0
M  V30 10944 C 1032.95 1.67981 -5.9681 0
M  V30 10945 C 1035.01 1.85313 -4.62129 0
M  V30 10946 C 1033.71 1.25496 -7.08268 0
M  V30 10947 C 1035.74 1.44232 -5.73543 0
M  V30 10948 C 1035.1 1.14564 -6.95021 0
M  V30 10949 H 1031.2 0.532679 -0.572518 0
M  V30 10950 H 1033.78 0.812296 -1.76946 0
M  V30 10951 H 1031.95 3.32045 -2.01496 0
M  V30 10952 H 1033.68 3.35734 -2.25976 0
M  V30 10953 H 1030.44 2.4405 -4.05878 0
M  V30 10954 H 1030.86 1.66421 -6.56226 0
M  V30 10955 H 1035.5 2.06905 -3.68714 0
M  V30 10956 H 1033.22 1.02647 -8.01554 0
M  V30 10957 H 1036.81 1.34544 -5.66029 0
M  V30 10958 H 1035.69 0.832556 -7.79768 0
M  V30 10959 N 1033.19 1.2685 0.935242 0
M  V30 10960 C 1034.15 1.08975 2.01636 0
M  V30 10961 C 1035.15 0.0361543 1.60759 0
M  V30 10962 O 1036.34 0.280087 1.71934 0
M  V30 10963 C 1033.48 0.658831 3.34473 0
M  V30 10964 H 1034.67 2.04968 2.18925 0
M  V30 10965 H 1032.22 1.09531 1.11501 0
M  V30 10966 H 1032.96 -0.302824 3.22883 0
M  V30 10967 H 1032.74 1.41967 3.65497 0
M  V30 10968 H 1034.23 0.555783 4.13885 0
M  V30 10969 N 1034.67 -1.14067 1.0875 0
M  V30 10970 C 1035.9 -1.89582 0.841038 0
M  V30 10971 C 1036.32 -1.78226 -0.601436 0
M  V30 10972 O 1035.68 -1.12491 -1.42181 0
M  V30 10973 C 1035.73 -3.37415 1.27213 0
M  V30 10974 O 1034.83 -4.10191 0.426246 0
M  V30 10975 H 1034.17 -0.589716 0.305173 0
M  V30 10976 H 1036.7 -1.44364 1.44984 0
M  V30 10977 H 1036.71 -3.88234 1.25451 0
M  V30 10978 H 1035.39 -3.44999 2.32268 0
M  V30 10979 H 1033.96 -3.69429 0.507585 0
M  V30 10980 N 1036.15 -0.873678 -1.31166 0
M  V30 10981 C 1037.4 -0.486457 -1.9657 0
M  V30 10982 C 1037.72 0.962042 -1.69041 0
M  V30 10983 O 1036.98 1.69305 -0.981543 0
M  V30 10984 C 1037.28 -0.69462 -3.50585 0
M  V30 10985 C 1036.94 -2.11647 -3.98141 0
M  V30 10986 C 1035.61 -2.50531 -4.10838 0
M  V30 10987 C 1037.96 -3.0436 -4.23101 0
M  V30 10988 C 1035.29 -3.81361 -4.45848 0
M  V30 10989 C 1037.64 -4.34709 -4.59577 0
M  V30 10990 C 1036.3 -4.73502 -4.70481 0
M  V30 10991 H 1035.57 -0.178007 -0.719301 0
M  V30 10992 H 1038.22 -1.10737 -1.56235 0
M  V30 10993 H 1036.52 0.00940878 -3.91799 0
M  V30 10994 H 1038.22 -0.374782 -3.99245 0
M  V30 10995 H 1034.81 -1.8046 -3.88757 0
M  V30 10996 H 1038.99 -2.75544 -4.12782 0
M  V30 10997 H 1034.25 -4.11174 -4.52488 0
M  V30 10998 H 1038.42 -5.06596 -4.77842 0
M  V30 10999 H 1036.05 -5.74919 -4.97365 0
M  V30 11000 N 1037.63 1.44308 -0.633487 0
M  V30 11001 C 1038.56 2.27887 0.119397 0
M  V30 11002 C 1039.54 1.38676 0.848981 0
M  V30 11003 O 1040.72 1.68116 0.85259 0
M  V30 11004 C 1037.85 3.17658 1.17521 0
M  V30 11005 C 1036.89 4.22992 0.54589 0
M  V30 11006 S 1037.73 5.31345 -0.6658 0
M  V30 11007 C 1038.88 6.24684 0.389965 0
M  V30 11008 H 1039.12 2.91394 -0.589638 0
M  V30 11009 H 1036.65 1.48529 -0.421727 0
M  V30 11010 H 1038.61 3.69929 1.77941 0
M  V30 11011 H 1037.27 2.53367 1.85645 0
M  V30 11012 H 1036.46 4.85828 1.34115 0
M  V30 11013 H 1036.06 3.73996 0.0162506 0
M  V30 11014 H 1038.36 6.65645 1.26185 0
M  V30 11015 H 1039.3 7.07809 -0.202878 0
M  V30 11016 H 1039.71 5.59929 0.716922 0
M  V30 11017 N 1039.1 0.374177 1.53094 0
M  V30 11018 C 1040.52 0.0234783 1.59583 0
M  V30 11019 C 1040.72 -1.45984 1.38892 0
M  V30 11020 O 1039.78 -2.22251 1.19836 0
M  V30 11021 C 1041.09 0.487117 2.96728 0
M  V30 11022 C 1042.64 0.442073 3.09862 0
M  V30 11023 C 1043.11 0.881659 4.49434 0
M  V30 11024 N 1044.6 0.837062 4.55574 0
M  V30 11025 C 1045.34 1.14878 5.61774 0
M  V30 11026 N 1044.83 1.53022 6.75689 0
M  V30 11027 N 1046.63 1.07102 5.51802 0
M  V30 11028 H 1038.78 1.34003 1.64794 0
M  V30 11029 H 1041.04 0.548281 0.773364 0
M  V30 11030 H 1040.75 1.52252 3.17037 0
M  V30 11031 H 1040.62 -0.121772 3.77003 0
M  V30 11032 H 1043.01 -0.584216 2.89259 0
M  V30 11033 H 1043.09 1.08657 2.31576 0
M  V30 11034 H 1042.73 1.90611 4.70776 0
M  V30 11035 H 1042.66 0.214326 5.26164 0
M  V30 11036 H 1045.15 0.556173 3.73785 0
M  V30 11037 H 1045.47 1.75211 7.52676 0
M  V30 11038 H 1043.81 1.56895 6.77059 0
M  V30 11039 H 1047 0.772149 4.61688 0
M  V30 11040 H 1047.18 1.31728 6.3447 0
M  V30 11041 N 1040.58 -1.57259 0.103575 0
M  V30 11042 C 1041.53 -2.14487 -0.852295 0
M  V30 11043 C 1042.5 -1.06567 -1.27407 0
M  V30 11044 O 1043.68 -1.34398 -1.35432 0
M  V30 11045 C 1040.82 -2.73632 -2.10284 0
M  V30 11046 C 1039.94 -3.95811 -1.73083 0
M  V30 11047 C 1039.07 -4.43093 -2.92988 0
M  V30 11048 C 1038.11 -5.5784 -2.51953 0
M  V30 11049 N 1037.25 -5.99936 -3.64721 0
M  V30 11050 H 1042.09 -2.95849 -0.35743 0
M  V30 11051 H 1039.63 -1.46175 -0.164748 0
M  V30 11052 H 1041.58 -3.06046 -2.83534 0
M  V30 11053 H 1040.21 -1.94985 -2.57256 0
M  V30 11054 H 1039.27 -3.69656 -0.897688 0
M  V30 11055 H 1040.58 -4.79066 -1.38916 0
M  V30 11056 H 1039.73 -4.77335 -3.74481 0
M  V30 11057 H 1038.47 -3.58756 -3.30372 0
M  V30 11058 H 1037.48 -5.23217 -1.6889 0
M  V30 11059 H 1038.7 -6.43932 -2.15705 0
M  V30 11060 H 1036.65 -5.18543 -4.01807 0
M  V30 11061 H 1036.56 -6.78008 -3.34427 0
M  V30 11062 H 1037.83 -6.38812 -4.46699 0
M  V30 11063 N 1042.06 0.170153 -1.56679 0
M  V30 11064 C 1043.02 1.19443 -1.95617 0
M  V30 11065 C 1044.02 1.37118 -0.83996 0
M  V30 11066 O 1045.21 1.34504 -1.10699 0
M  V30 11067 C 1042.35 2.55926 -2.25199 0
M  V30 11068 H 1043.54 0.86095 -2.87276 0
M  V30 11069 H 1041.09 0.412646 -1.50755 0
M  V30 11070 H 1041.83 2.94286 -1.36257 0
M  V30 11071 H 1041.61 2.44464 -3.06562 0
M  V30 11072 H 1043.1 3.29742 -2.56242 0
M  V30 11073 N 1043.54 1.5137 0.438746 0
M  V30 11074 C 1044.49 1.68966 1.53083 0
M  V30 11075 C 1045.47 0.543669 1.51437 0
M  V30 11076 O 1046.66 0.799519 1.57914 0
M  V30 11077 C 1043.79 1.8168 2.91286 0
M  V30 11078 C 1042.88 3.02059 2.97693 0
M  V30 11079 N 1043.27 4.25254 2.73848 0
M  V30 11080 C 1041.57 3.01284 3.28852 0
M  V30 11081 C 1042.27 5.06501 2.86062 0
M  V30 11082 N 1041.25 4.41119 3.17671 0
M  V30 11083 H 1045.05 2.61883 1.33397 0
M  V30 11084 H 1042.56 1.48997 0.64603 0
M  V30 11085 H 1044.56 1.92396 3.6985 0
M  V30 11086 H 1043.22 0.899438 3.11994 0
M  V30 11087 H 1044.23 4.54222 2.48803 0
M  V30 11088 H 1040.91 2.19174 3.55344 0
M  V30 11089 H 1042.3 6.14563 2.71592 0
M  V30 11090 N 1045.02 -0.694098 1.41492 0
M  V30 11091 C 1046.43 -1.27407 1.36471 0
M  V30 11092 C 1046.78 -1.9614 0.0485209 0
M  V30 11093 O 1045.9 -1.98871 -0.853188 0
M  V30 11094 C 1046.5 -2.31698 2.47188 0
M  V30 11095 C 1045.06 -2.85268 2.45559 0
M  V30 11096 C 1044.2 -1.59325 2.2696 0
M  V30 11097 H 1047.16 -0.488756 1.50986 0
M  V30 11098 H 1047.18 -3.1302 2.1633 0
M  V30 11099 H 1046.69 -1.81644 3.42968 0
M  V30 11100 H 1044.79 -3.39494 1.5354 0
M  V30 11101 H 1044.9 -3.35598 3.41922 0
M  V30 11102 H 1043.27 -1.85188 1.74864 0
M  V30 11103 H 1044.05 -1.11265 3.24769 0
M  V30 11104 N 1046.49 -1.27344 -0.928501 0
M  V30 11105 C 1047.43 -1.05797 -2.03322 0
M  V30 11106 C 1048.44 -0.0143086 -1.62794 0
M  V30 11107 O 1049.63 -0.25578 -1.76658 0
M  V30 11108 C 1046.73 -0.582673 -3.33853 0
M  V30 11109 C 1045.9 -1.69844 -4.03078 0
M  V30 11110 C 1044.96 -1.21902 -5.11885 0
M  V30 11111 O 1043.99 -1.91853 -5.35893 0
M  V30 11112 N 1045.19 -0.0742392 -5.80453 0
M  V30 11113 H 1047.95 -2.00928 -2.22369 0
M  V30 11114 H 1045.51 -1.189 -1.09883 0
M  V30 11115 H 1047.51 -0.245862 -4.03952 0
M  V30 11116 H 1046.08 0.27539 -3.11385 0
M  V30 11117 H 1045.3 -2.20557 -3.26723 0
M  V30 11118 H 1046.58 -2.4473 -4.46077 0
M  V30 11119 H 1045.98 0.509631 -5.634 0
M  V30 11120 H 1044.54 0.203399 -6.51483 0
M  V30 11121 N 1047.97 1.13488 -1.09353 0
M  V30 11122 C 1049.2 1.89133 -0.85108 0
M  V30 11123 C 1049.62 1.78542 0.591976 0
M  V30 11124 O 1048.98 1.13243 1.41583 0
M  V30 11125 C 1049.03 3.36736 -1.29001 0
M  V30 11126 O 1048.13 4.09959 -0.447993 0
M  V30 11127 H 1047.47 0.58809 -0.308296 0
M  V30 11128 H 1050 1.43593 -1.45747 0
M  V30 11129 H 1050.01 3.87564 -1.27508 0
M  V30 11130 H 1048.69 3.43762 -2.34095 0
M  V30 11131 H 1047.27 3.69155 -0.52717 0
M  V30 11132 N 1049.45 0.880621 1.30701 0
M  V30 11133 C 1050.38 0.360251 2.30704 0
M  V30 11134 C 1051.36 -0.554572 1.60806 0
M  V30 11135 O 1052.55 -0.469345 1.88443 0
M  V30 11136 C 1049.68 -0.429888 3.44629 0
M  V30 11137 C 1048.63 0.392786 4.26194 0
M  V30 11138 C 1047.96 -0.52369 5.32129 0
M  V30 11139 C 1049.26 1.63258 4.96129 0
M  V30 11140 H 1050.95 1.19591 2.74478 0
M  V30 11141 H 1048.5 0.576508 1.31956 0
M  V30 11142 H 1050.45 -0.804532 4.13649 0
M  V30 11143 H 1049.17 -1.29916 2.99649 0
M  V30 11144 H 1047.83 0.749514 3.58856 0
M  V30 11145 H 1047.48 -1.39054 4.83397 0
M  V30 11146 H 1047.18 0.0229272 5.87596 0
M  V30 11147 H 1048.71 -0.894946 6.04006 0
M  V30 11148 H 1050.12 1.32877 5.57689 0
M  V30 11149 H 1048.52 2.11906 5.61441 0
M  V30 11150 H 1049.59 2.37944 4.22505 0
M  V30 11151 N 1050.93 -1.4397 0.641131 0
M  V30 11152 C 1051.84 -2.34526 -0.058742 0
M  V30 11153 C 1052.86 -1.53194 -0.825088 0
M  V30 11154 O 1054.03 -1.85888 -0.775081 0
M  V30 11155 C 1051.1 -3.31313 -1.02139 0
M  V30 11156 C 1050.16 -4.28552 -0.253319 0
M  V30 11157 C 1049.39 -5.20715 -1.17012 0
M  V30 11158 O 1049.61 -5.17028 -2.40911 0
M  V30 11159 O 1048.55 -5.9839 -0.649039 0
M  V30 11160 H 1052.37 -2.95843 0.686329 0
M  V30 11161 H 1049.96 -1.43909 0.401316 0
M  V30 11162 H 1051.84 -3.90862 -1.57496 0
M  V30 11163 H 1050.52 -2.72516 -1.7469 0
M  V30 11164 H 1049.42 -3.72519 0.343531 0
M  V30 11165 H 1050.76 -4.90297 0.432372 0
M  V30 11166 N 1052.41 -0.382291 -1.52893 0
M  V30 11167 C 1053.34 0.500194 -2.22651 0
M  V30 11168 C 1054.32 1.06969 -1.22459 0
M  V30 11169 O 1055.5 1.12267 -1.51422 0
M  V30 11170 C 1052.63 1.6917 -2.93427 0
M  V30 11171 C 1051.68 1.24811 -4.07829 0
M  V30 11172 S 1052.51 0.235466 -5.34982 0
M  V30 11173 C 1053.66 1.43292 -6.09277 0
M  V30 11174 H 1053.9 -0.0921913 -2.97157 0
M  V30 11175 H 1051.43 -0.16645 -1.535 0
M  V30 11176 H 1053.39 2.37507 -3.34815 0
M  V30 11177 H 1052.05 2.25537 -2.18613 0
M  V30 11178 H 1051.24 2.13754 -4.56426 0
M  V30 11179 H 1050.84 0.643744 -3.68418 0
M  V30 11180 H 1053.14 2.36118 -6.35023 0
M  V30 11181 H 1054.08 0.988003 -7.01173 0
M  V30 11182 H 1054.49 1.64655 -5.39953 0
M  V30 11183 N 1053.89 1.57202 -0.111913 0
M  V30 11184 C 1055.3 1.82039 0.414591 0
M  V30 11185 C 1055.65 1.02863 1.67074 0
M  V30 11186 O 1054.77 0.263068 2.14795 0
M  V30 11187 C 1055.37 3.3019 0.758953 0
M  V30 11188 C 1053.93 3.55732 1.23012 0
M  V30 11189 C 1053.07 2.76301 0.235226 0
M  V30 11190 H 1056.02 1.55078 -0.337142 0
M  V30 11191 H 1056.05 3.44431 1.61701 0
M  V30 11192 H 1055.56 3.87788 -0.155473 0
M  V30 11193 H 1053.66 3.03483 2.16169 0
M  V30 11194 H 1053.77 4.64333 1.18034 0
M  V30 11195 H 1052.14 2.44287 0.720822 0
M  V30 11196 H 1052.92 3.36655 -0.672173 0
M  V30 11197 N 1055.36 -0.161842 1.56767 0
M  V30 11198 C 1056.3 -1.22927 1.9226 0
M  V30 11199 C 1057.27 -1.42309 0.786562 0
M  V30 11200 O 1058.46 -1.57163 1.04078 0
M  V30 11201 C 1055.59 -2.59069 2.18177 0
M  V30 11202 C 1054.63 -2.56368 3.40849 0
M  V30 11203 S 1055.46 -2.04518 4.94907 0
M  V30 11204 C 1056.62 -3.42418 5.23928 0
M  V30 11205 H 1056.85 -0.926377 2.82499 0
M  V30 11206 H 1054.39 -0.366822 1.49979 0
M  V30 11207 H 1056.34 -3.37421 2.33789 0
M  V30 11208 H 1055.01 -2.86554 1.28629 0
M  V30 11209 H 1054.2 -3.56551 3.56213 0
M  V30 11210 H 1053.8 -1.86116 3.24402 0
M  V30 11211 H 1056.09 -4.38461 5.16486 0
M  V30 11212 H 1057.04 -3.3192 6.25487 0
M  V30 11213 H 1057.44 -3.38868 4.51474 0
M  V30 11214 N 1056.84 -1.516 -0.430713 0
M  V30 11215 C 1058.25 -1.57 -1.01035 0
M  V30 11216 C 1058.6 -0.397439 -1.92132 0
M  V30 11217 O 1057.73 0.484954 -2.10896 0
M  V30 11218 C 1058.32 -2.84536 -1.83915 0
M  V30 11219 C 1056.88 -2.92485 -2.36917 0
M  V30 11220 C 1056.03 -2.5173 -1.16308 0
M  V30 11221 H 1058.98 -1.57281 -0.211734 0
M  V30 11222 H 1059 -2.68672 -2.69435 0
M  V30 11223 H 1058.51 -3.69858 -1.17586 0
M  V30 11224 H 1056.61 -2.11608 -3.0668 0
M  V30 11225 H 1056.73 -3.96277 -2.6926 0
M  V30 11226 H 1055.09 -2.05079 -1.51045 0
M  V30 11227 H 1055.87 -3.39403 -0.515793 0
M  V30 11228 N 1058.32 0.686584 -1.41858 0
M  V30 11229 C 1059.23 1.83002 -1.46791 0
M  V30 11230 C 1060.25 1.70284 -0.357675 0
M  V30 11231 O 1061.42 1.92042 -0.606781 0
M  V30 11232 C 1058.49 3.19056 -1.35661 0
M  V30 11233 C 1057.55 3.43817 -2.57077 0
M  V30 11234 C 1056.78 4.7338 -2.46469 0
M  V30 11235 O 1057 5.50483 -1.49413 0
M  V30 11236 O 1055.94 4.99124 -3.36391 0
M  V30 11237 H 1059.76 1.81797 -2.43277 0
M  V30 11238 H 1057.35 0.840812 -1.23494 0
M  V30 11239 H 1059.23 4.00267 -1.31773 0
M  V30 11240 H 1057.91 3.20925 -0.422951 0
M  V30 11241 H 1056.81 2.625 -2.66541 0
M  V30 11242 H 1058.15 3.4677 -3.49302 0
M  V30 11243 N 1059.8 1.27835 0.921735 0
M  V30 11244 C 1060.75 1.1092 2.04449 0
M  V30 11245 C 1061.74 0.0306469 1.69372 0
M  V30 11246 O 1062.95 0.188818 1.79007 0
M  V30 11247 H 1059.32 0.341973 0.669745 0
M  V30 11248 H 1061.29 2.06026 2.1586 0
M  V30 11249 C 1060.04 0.779443 3.38851 0
M  V30 11250 H 1059.36 1.60131 3.66331 0
M  V30 11251 H 1060.8 0.700999 4.18165 0
M  V30 11252 C 1059.26 -0.51647 3.32918 0
M  V30 11253 O 1059.79 -1.54914 3.70627 0
M  V30 11254 N 1058 -0.514276 2.86013 0
M  V30 11255 H 1057.55 0.32651 2.55522 0
M  V30 11256 H 1057.5 -1.38141 2.82426 0
M  V30 11257 N 1061.28 -1.12907 1.09954 0
M  V30 11258 C 1062.52 -1.84579 0.840155 0
M  V30 11259 C 1062.85 -1.83605 -0.632692 0
M  V30 11260 O 1062.13 -1.27803 -1.46617 0
M  V30 11261 C 1062.41 -3.32489 1.38286 0
M  V30 11262 C 1062.27 -3.41946 2.92221 0
M  V30 11263 C 1063.58 -4.28091 1.0211 0
M  V30 11264 H 1060.7 -0.670169 0.306663 0
M  V30 11265 H 1063.35 -1.3249 1.36185 0
M  V30 11266 H 1061.5 -3.76978 0.939123 0
M  V30 11267 H 1063.17 -3.06128 3.45085 0
M  V30 11268 H 1061.41 -2.8265 3.29077 0
M  V30 11269 H 1062.08 -4.45983 3.25274 0
M  V30 11270 H 1064.56 -3.91701 1.4039 0
M  V30 11271 H 1063.43 -5.30005 1.42781 0
M  V30 11272 H 1063.69 -4.42044 -0.0700753 0
M  V30 11273 N 1062.75 -0.88754 -1.30232 0
M  V30 11274 C 1064 -0.508031 -1.96334 0
M  V30 11275 C 1064.33 0.940905 -1.69884 0
M  V30 11276 O 1063.61 1.66523 -1.005 0
M  V30 11277 C 1063.89 -0.786566 -3.51405 0
M  V30 11278 C 1063.74 -2.28632 -3.8736 0
M  V30 11279 C 1065.06 -0.264803 -4.39303 0
M  V30 11280 H 1062.18 -0.186051 -0.71313 0
M  V30 11281 H 1064.82 -1.112 -1.5406 0
M  V30 11282 H 1062.97 -0.272523 -3.87543 0
M  V30 11283 H 1064.65 -2.86896 -3.61231 0
M  V30 11284 H 1062.89 -2.75194 -3.35337 0
M  V30 11285 H 1063.56 -2.43181 -4.95547 0
M  V30 11286 H 1066.04 -0.704809 -4.10087 0
M  V30 11287 H 1064.91 -0.488998 -5.46717 0
M  V30 11288 H 1065.17 0.834055 -4.34161 0
M  V30 11289 N 1064.23 1.43628 -0.648757 0
M  V30 11290 C 1065.17 2.28001 0.0952198 0
M  V30 11291 C 1066.14 1.39569 0.834225 0
M  V30 11292 O 1067.33 1.69011 0.834711 0
M  V30 11293 C 1064.45 3.18886 1.14145 0
M  V30 11294 C 1063.5 4.23547 0.500996 0
M  V30 11295 S 1064.33 5.30609 -0.722118 0
M  V30 11296 C 1065.49 6.25062 0.323687 0
M  V30 11297 H 1065.72 2.90752 -0.620511 0
M  V30 11298 H 1063.26 1.48073 -0.437457 0
M  V30 11299 H 1065.21 3.71795 1.74008 0
M  V30 11300 H 1063.87 2.55322 1.82947 0
M  V30 11301 H 1063.07 4.87224 1.28954 0
M  V30 11302 H 1062.67 3.73993 -0.0234176 0
M  V30 11303 H 1064.96 6.66946 1.19118 0
M  V30 11304 H 1065.9 7.07554 -0.277939 0
M  V30 11305 H 1066.31 5.60658 0.657493 0
M  V30 11306 N 1065.71 0.390394 1.52688 0
M  V30 11307 C 1066.67 -0.432149 2.25089 0
M  V30 11308 C 1067.67 -0.989296 1.26766 0
M  V30 11309 O 1068.86 -0.871126 1.50854 0
M  V30 11310 C 1066 -1.60642 3.00678 0
M  V30 11311 H 1067.19 0.201734 2.99221 0
M  V30 11312 H 1064.74 0.142531 1.55649 0
M  V30 11313 H 1065.48 -2.2777 2.3085 0
M  V30 11314 H 1065.26 -1.21361 3.72846 0
M  V30 11315 H 1066.75 -2.18873 3.55647 0
M  V30 11316 N 1067.19 -1.57141 0.120249 0
M  V30 11317 C 1068.43 -1.9632 -0.531989 0
M  V30 11318 C 1068.79 -1.00265 -1.64209 0
M  V30 11319 O 1068.08 -0.0328969 -1.91572 0
M  V30 11320 C 1068.28 -3.39745 -1.10941 0
M  V30 11321 C 1068.11 -4.49664 -0.0567772 0
M  V30 11322 C 1066.88 -5.03903 0.375466 0
M  V30 11323 C 1069.07 -5.09169 0.724667 0
M  V30 11324 N 1067.06 -5.974 1.41374 0
M  V30 11325 C 1068.43 -5.98621 1.61411 0
M  V30 11326 C 1070.48 -4.91825 0.775417 0
M  V30 11327 C 1069.18 -6.72587 2.54988 0
M  V30 11328 C 1071.21 -5.66473 1.69891 0
M  V30 11329 C 1070.57 -6.55611 2.57592 0
M  V30 11330 H 1066.67 -0.764554 -0.164259 0
M  V30 11331 H 1069.26 -1.93579 0.208656 0
M  V30 11332 H 1067.43 -3.43131 -1.81977 0
M  V30 11333 H 1069.16 -3.66045 -1.72607 0
M  V30 11334 H 1065.91 -4.73597 -0.0171723 0
M  V30 11335 H 1066.34 -6.48852 1.93184 0
M  V30 11336 H 1070.98 -4.22653 0.111497 0
M  V30 11337 H 1068.7 -7.41005 3.22393 0
M  V30 11338 H 1072.28 -5.55057 1.74363 0
M  V30 11339 H 1071.16 -7.12361 3.27889 0
M  V30 11340 N 1068.67 0.153526 -1.5685 0
M  V30 11341 C 1069.91 0.868517 -1.83261 0
M  V30 11342 C 1070.25 1.81112 -0.700857 0
M  V30 11343 O 1069.52 1.92235 0.295989 0
M  V30 11344 C 1069.8 1.6487 -3.2014 0
M  V30 11345 C 1069.66 0.728021 -4.43869 0
M  V30 11346 C 1070.98 2.61259 -3.54163 0
M  V30 11347 H 1068.09 0.314297 -0.666623 0
M  V30 11348 H 1070.74 0.133971 -1.89527 0
M  V30 11349 H 1068.89 2.2749 -3.1493 0
M  V30 11350 H 1070.56 0.113328 -4.61161 0
M  V30 11351 H 1068.8 0.0371744 -4.33784 0
M  V30 11352 H 1069.47 1.30981 -5.36235 0
M  V30 11353 H 1071.95 2.0876 -3.59942 0
M  V30 11354 H 1070.82 3.12902 -4.50981 0
M  V30 11355 H 1071.09 3.42307 -2.79782 0
M  V30 11356 N 1070.14 1.51827 0.422667 0
M  V30 11357 C 1071.42 1.55772 1.18299 0
M  V30 11358 C 1071.8 0.330657 2.08494 0
M  V30 11359 O 1071.15 -0.683373 2.18042 0
M  V30 11360 C 1071.36 2.87941 1.97208 0
M  V30 11361 C 1072.71 3.4044 2.53744 0
M  V30 11362 O 1073.73 2.8959 2.07403 0
M  V30 11363 O 1072.59 4.29201 3.38303 0
M  V30 11364 H 1069.68 0.626889 0.539388 0
M  V30 11365 H 1072.23 1.64147 0.430545 0
M  V30 11366 H 1071 3.68702 1.31052 0
M  V30 11367 H 1070.63 2.82795 2.79486 0
M  V30 11368 N 1071.62 -0.679052 1.4222 0
M  V30 11369 C 1072.59 -1.77448 1.45069 0
M  V30 11370 C 1073.59 -1.57189 0.338882 0
M  V30 11371 O 1074.78 -1.63559 0.599519 0
M  V30 11372 C 1071.91 -3.1603 1.27819 0
M  V30 11373 H 1073.1 -1.7631 2.426 0
M  V30 11374 H 1070.65 -0.888277 1.28605 0
M  V30 11375 H 1071.39 -3.22796 0.311946 0
M  V30 11376 H 1071.17 -3.32138 2.08391 0
M  V30 11377 H 1072.66 -3.9596 1.32686 0
M  V30 11378 N 1073.1 -1.28322 -0.914942 0
M  V30 11379 C 1074.03 -1.07947 -2.02188 0
M  V30 11380 C 1075.05 -0.0315743 -1.62769 0
M  V30 11381 O 1076.23 -0.274503 -1.76377 0
M  V30 11382 C 1073.33 -0.61805 -3.33217 0
M  V30 11383 C 1072.51 -1.74109 -4.01254 0
M  V30 11384 C 1071.57 -1.27325 -5.10563 0
M  V30 11385 O 1070.59 -1.97526 -5.33828 0
M  V30 11386 N 1071.79 -0.1358 -5.80341 0
M  V30 11387 H 1074.56 -2.03275 -2.20225 0
M  V30 11388 H 1072.12 -1.20059 -1.08616 0
M  V30 11389 H 1074.11 -0.288693 -4.03669 0
M  V30 11390 H 1072.68 0.242348 -3.11659 0
M  V30 11391 H 1071.9 -2.2401 -3.24366 0
M  V30 11392 H 1073.19 -2.49448 -4.43456 0
M  V30 11393 H 1072.59 0.449846 -5.63909 0
M  V30 11394 H 1071.15 0.134289 -6.51662 0
M  V30 11395 N 1074.58 1.12322 -1.10551 0
M  V30 11396 C 1075.81 1.87679 -0.87087 0
M  V30 11397 C 1076.22 1.79711 0.578733 0
M  V30 11398 O 1075.58 1.17185 1.39907 0
M  V30 11399 C 1075.63 3.36846 -1.31213 0
M  V30 11400 O 1075.35 3.44626 -2.70489 0
M  V30 11401 C 1076.85 4.29138 -1.11156 0
M  V30 11402 H 1074.07 0.593788 -0.3125 0
M  V30 11403 H 1076.62 1.42116 -1.47048 0
M  V30 11404 H 1074.77 3.79948 -0.756169 0
M  V30 11405 H 1075.18 4.37441 -2.89389 0
M  V30 11406 H 1076.66 5.32082 -1.46944 0
M  V30 11407 H 1077.14 4.39171 -0.0502963 0
M  V30 11408 H 1077.74 3.91818 -1.65405 0
M  V30 11409 N 1076.06 0.894434 1.2976 0
M  V30 11410 C 1077.3 0.516646 1.95385 0
M  V30 11411 C 1077.63 -0.939141 1.70895 0
M  V30 11412 O 1076.9 -1.66153 1.03778 0
M  V30 11413 H 1075.48 0.188072 0.722937 0
M  V30 11414 H 1078.14 1.13958 1.58113 0
M  V30 11415 H 1077.23 0.694819 3.04267 0
M  V30 11416 N 1077.53 -1.43282 0.656365 0
M  V30 11417 C 1078.47 -2.29087 -0.0720378 0
M  V30 11418 C 1079.48 -1.4268 -0.783982 0
M  V30 11419 O 1080.67 -1.66585 -0.641213 0
M  V30 11420 C 1077.77 -3.19676 -1.12519 0
M  V30 11421 C 1076.94 -4.34638 -0.490756 0
M  V30 11422 C 1076 -5.06079 -1.44121 0
M  V30 11423 O 1075.03 -5.6124 -0.948595 0
M  V30 11424 N 1076.23 -5.09872 -2.77509 0
M  V30 11425 H 1078.99 -2.92241 0.664456 0
M  V30 11426 H 1076.55 -1.54006 0.499383 0
M  V30 11427 H 1078.55 -3.64334 -1.76189 0
M  V30 11428 H 1077.12 -2.581 -1.76362 0
M  V30 11429 H 1076.34 -3.92857 0.3251 0
M  V30 11430 H 1077.62 -5.08777 -0.0480061 0
M  V30 11431 H 1077.02 -4.66433 -3.20088 0
M  V30 11432 H 1075.58 -5.58237 -3.36474 0
M  V30 11433 N 1079.01 -0.398486 -1.52479 0
M  V30 11434 C 1080.26 0.180394 -2.01293 0
M  V30 11435 C 1080.58 1.46548 -1.28641 0
M  V30 11436 O 1079.85 1.91579 -0.409173 0
M  V30 11437 H 1078.43 0.0696528 -0.743746 0
M  V30 11438 H 1081.09 -0.532285 -1.87491 0
M  V30 11439 H 1080.19 0.38409 -3.09728 0
M  V30 11440 N 1080.49 1.57075 -0.12858 0
M  V30 11441 C 1081.72 2.00305 0.537839 0
M  V30 11442 C 1082.14 1.00787 1.58819 0
M  V30 11443 O 1081.5 -0.0190839 1.8129 0
M  V30 11444 C 1081.55 3.42371 1.13201 0
M  V30 11445 O 1080.65 3.45786 2.24735 0
M  V30 11446 H 1079.99 0.650456 0.133428 0
M  V30 11447 H 1082.52 2.03415 -0.219882 0
M  V30 11448 H 1082.53 3.80783 1.4652 0
M  V30 11449 H 1081.21 4.14315 0.362713 0
M  V30 11450 H 1079.78 3.19201 1.92783 0
M  V30 11451 N 1081.97 -0.145205 1.5693 0
M  V30 11452 C 1082.93 -1.16316 1.97492 0
M  V30 11453 C 1083.93 -1.35764 0.861668 0
M  V30 11454 O 1085.12 -1.32726 1.12825 0
M  V30 11455 C 1082.25 -2.52311 2.29242 0
M  V30 11456 H 1083.45 -0.815138 2.8861 0
M  V30 11457 H 1081 -0.38861 1.51392 0
M  V30 11458 H 1081.74 -2.92081 1.40922 0
M  V30 11459 H 1081.52 -2.39555 3.10412 0
M  V30 11460 H 1083.01 -3.25624 2.61456 0
M  V30 11461 N 1083.45 -1.52049 -0.414609 0
M  V30 11462 C 1084.41 -1.74382 -1.4874 0
M  V30 11463 C 1085.41 -0.613701 -1.48628 0
M  V30 11464 O 1086.6 -0.88152 -1.50249 0
M  V30 11465 C 1083.73 -1.82116 -2.88178 0
M  V30 11466 H 1084.93 -2.70147 -1.30233 0
M  V30 11467 H 1082.48 -1.42382 -0.644756 0
M  V30 11468 H 1083.21 -0.882457 -3.12063 0
M  V30 11469 H 1083 -2.64268 -2.89663 0
M  V30 11470 H 1084.49 -2.01155 -3.65959 0
M  V30 11471 N 1084.93 0.6715 -1.42579 0
M  V30 11472 C 1086.2 1.42766 -1.33706 0
M  V30 11473 C 1086.58 2.11086 0.0239748 0
M  V30 11474 O 1085.93 2.03479 1.03964 0
M  V30 11475 C 1086.14 2.42739 -2.50756 0
M  V30 11476 C 1087.49 3.07284 -2.93021 0
M  V30 11477 O 1088.51 2.53066 -2.50671 0
M  V30 11478 O 1087.37 4.05541 -3.66331 0
M  V30 11479 H 1084.47 0.636955 -0.527463 0
M  V30 11480 H 1087.01 0.699946 -1.54593 0
M  V30 11481 H 1085.78 1.91076 -3.41476 0
M  V30 11482 H 1085.41 3.22986 -2.31874 0
M  V30 11483 N 1086.4 1.28806 0.908124 0
M  V30 11484 C 1087.64 1.17546 1.67219 0
M  V30 11485 C 1088.01 -0.270396 1.90086 0
M  V30 11486 O 1089.21 -0.505808 2.63998 0
M  V30 11487 C 1087.48 1.95774 2.99011 0
M  V30 11488 S 1089.04 2.00953 3.90081 0
M  V30 11489 H 1085.86 0.419283 0.574215 0
M  V30 11490 H 1088.46 1.6298 1.07971 0
M  V30 11491 H 1087.16 2.99978 2.80074 0
M  V30 11492 H 1086.69 1.50911 3.63303 0
M  V30 11493 H 1088.71 1.1201 4.83392 0
M  V30 11494 N 1087.88 -1.11734 1.11145 0
M  V30 11495 C 1089.29 -1.64928 0.874959 0
M  V30 11496 C 1089.64 -1.87012 -0.593375 0
M  V30 11497 O 1088.77 -1.60206 -1.45475 0
M  V30 11498 C 1089.36 -2.99608 1.58178 0
M  V30 11499 C 1087.92 -3.49723 1.39179 0
M  V30 11500 C 1087.07 -2.24595 1.62642 0
M  V30 11501 H 1090.02 -0.954154 1.26813 0
M  V30 11502 H 1090.04 -3.66434 1.02501 0
M  V30 11503 H 1089.55 -2.83504 2.65042 0
M  V30 11504 H 1087.65 -3.70998 0.345111 0
M  V30 11505 H 1087.77 -4.28711 2.13878 0
M  V30 11506 H 1086.13 -2.32067 1.04961 0
M  V30 11507 H 1086.91 -2.11036 2.70774 0
M  V30 11508 N 1089.36 -0.901303 -1.29284 0
M  V30 11509 C 1090.31 -0.370142 -2.29636 0
M  V30 11510 C 1091.3 0.53157 -1.60844 0
M  V30 11511 O 1092.51 0.414194 -1.7517 0
M  V30 11512 H 1088.88 -0.101072 -0.745177 0
M  V30 11513 H 1090.85 -1.22985 -2.71877 0
M  V30 11514 C 1089.6 0.385806 -3.45553 0
M  V30 11515 H 1088.93 -0.298818 -3.98682 0
M  V30 11516 H 1090.37 0.722299 -4.17802 0
M  V30 11517 C 1088.82 1.58907 -2.97069 0
M  V30 11518 O 1089.35 2.68835 -2.98481 0
M  V30 11519 N 1087.56 1.43178 -2.5288 0
M  V30 11520 H 1087.11 0.537467 -2.51931 0
M  V30 11521 H 1087.07 2.23819 -2.208 0
M  V30 11522 N 1090.84 1.42931 -0.663954 0
M  V30 11523 C 1091.8 2.29197 0.0117626 0
M  V30 11524 C 1092.8 1.42767 0.739875 0
M  V30 11525 O 1093.99 1.64278 0.579509 0
M  V30 11526 C 1091.12 3.2505 1.02738 0
M  V30 11527 H 1092.32 2.90438 -0.747391 0
M  V30 11528 H 1089.87 1.5039 -0.425733 0
M  V30 11529 H 1090.6 2.68726 1.8154 0
M  V30 11530 H 1090.39 3.88785 0.508809 0
M  V30 11531 H 1091.88 3.89771 1.49893 0
M  V30 11532 N 1092.32 0.406567 1.52266 0
M  V30 11533 C 1093.56 -0.170305 2.02084 0
M  V30 11534 C 1093.89 -1.45008 1.29176 0
M  V30 11535 O 1093.17 -1.90399 0.39731 0
M  V30 11536 C 1093.45 -0.420627 3.57635 0
M  V30 11537 C 1093.31 0.87564 4.41194 0
M  V30 11538 C 1094.62 -1.20387 4.23314 0
M  V30 11539 H 1091.74 -0.0604219 0.734519 0
M  V30 11540 H 1094.39 0.539529 1.82179 0
M  V30 11541 H 1092.54 -1.0253 3.74726 0
M  V30 11542 H 1094.21 1.51192 4.35819 0
M  V30 11543 H 1092.45 1.48718 4.07511 0
M  V30 11544 H 1093.12 0.654916 5.48101 0
M  V30 11545 H 1095.6 -0.691972 4.10306 0
M  V30 11546 H 1094.47 -1.34776 5.32096 0
M  V30 11547 H 1094.73 -2.2238 3.82099 0
M  V30 11548 N 1093.79 -1.57004 0.136909 0
M  V30 11549 C 1094.73 -2.13355 -0.837405 0
M  V30 11550 C 1095.74 -1.08053 -1.21772 0
M  V30 11551 O 1096.93 -1.35365 -1.16355 0
M  V30 11552 C 1094.03 -2.63302 -2.13366 0
M  V30 11553 C 1093.2 -3.92896 -1.92228 0
M  V30 11554 C 1092.26 -4.28257 -3.05749 0
M  V30 11555 O 1091.29 -4.96761 -2.7788 0
M  V30 11556 N 1092.49 -3.87021 -4.3266 0
M  V30 11557 H 1095.25 -2.9758 -0.35586 0
M  V30 11558 H 1092.81 -1.61832 -0.0469758 0
M  V30 11559 H 1094.81 -2.83977 -2.88339 0
M  V30 11560 H 1093.38 -1.83858 -2.52814 0
M  V30 11561 H 1092.6 -3.80949 -1.01349 0
M  V30 11562 H 1093.88 -4.776 -1.75431 0
M  V30 11563 H 1093.28 -3.31804 -4.58173 0
M  V30 11564 H 1091.84 -4.12768 -5.04446 0
M  V30 11565 N 1095.27 0.136881 -1.57004 0
M  V30 11566 C 1096.21 1.19853 -1.94192 0
M  V30 11567 C 1097.18 1.4104 -0.809103 0
M  V30 11568 O 1098.37 1.55487 -1.06565 0
M  V30 11569 C 1095.49 2.55565 -2.22271 0
M  V30 11570 C 1094.54 2.50913 -3.44884 0
M  V30 11571 S 1095.37 1.96619 -4.98098 0
M  V30 11572 C 1096.53 3.34039 -5.2931 0
M  V30 11573 H 1096.76 0.881316 -2.83937 0
M  V30 11574 H 1094.3 0.342915 -1.50544 0
M  V30 11575 H 1096.25 3.33659 -2.39127 0
M  V30 11576 H 1094.91 2.84472 -1.33172 0
M  V30 11577 H 1094.11 3.50839 -3.6184 0
M  V30 11578 H 1093.71 1.80932 -3.27322 0
M  V30 11579 H 1096 4.30189 -5.23397 0
M  V30 11580 H 1096.94 3.21927 -6.30689 0
M  V30 11581 H 1097.35 3.31642 -4.56808 0
M  V30 11582 N 1096.75 1.52266 0.40654 0
M  V30 11583 C 1098.16 1.58587 0.985241 0
M  V30 11584 C 1098.51 0.427955 1.91476 0
M  V30 11585 O 1097.64 -0.451341 2.11641 0
M  V30 11586 C 1098.23 2.87426 1.79365 0
M  V30 11587 C 1096.79 2.96217 2.32233 0
M  V30 11588 C 1095.94 2.53548 1.12288 0
M  V30 11589 H 1098.89 1.57598 0.186685 0
M  V30 11590 H 1098.91 2.72925 2.65127 0
M  V30 11591 H 1098.42 3.71682 1.11687 0
M  V30 11592 H 1096.52 2.1646 3.03275 0
M  V30 11593 H 1096.64 4.00511 2.62922 0
M  V30 11594 H 1095 2.07457 1.47763 0
M  V30 11595 H 1095.78 3.40181 0.461731 0
M  V30 11596 N 1098.23 -0.663929 1.42933 0
M  V30 11597 C 1099.46 -1.44981 1.47187 0
M  V30 11598 C 1099.87 -1.89009 0.0850091 0
M  V30 11599 O 1099.21 -1.59413 -0.912855 0
M  V30 11600 C 1099.27 -2.72409 2.34592 0
M  V30 11601 C 1098.94 -2.5039 3.82301 0
M  V30 11602 C 1099.93 -2.14295 4.73681 0
M  V30 11603 C 1097.62 -2.65047 4.2668 0
M  V30 11604 C 1099.61 -1.93139 6.07434 0
M  V30 11605 C 1097.3 -2.43506 5.60489 0
M  V30 11606 C 1098.3 -2.07607 6.50683 0
M  V30 11607 O 1097.98 -1.86284 7.82019 0
M  V30 11608 H 1097.72 -0.452238 0.502451 0
M  V30 11609 H 1100.27 -0.822228 1.88225 0
M  V30 11610 H 1098.5 -3.37689 1.88422 0
M  V30 11611 H 1100.19 -3.34327 2.30174 0
M  V30 11612 H 1100.96 -2.02557 4.40676 0
M  V30 11613 H 1096.83 -2.91966 3.56759 0
M  V30 11614 H 1100.38 -1.65042 6.77796 0
M  V30 11615 H 1096.28 -2.54844 5.93064 0
M  V30 11616 H 1097.04 -2.00795 7.93488 0
M  V30 11617 N 1099.71 -1.29285 -0.901281 0
M  V30 11618 C 1100.96 -1.16538 -1.64626 0
M  V30 11619 C 1101.27 0.282623 -1.93547 0
M  V30 11620 O 1102.47 0.531396 -2.66249 0
M  V30 11621 C 1100.93 -2.03809 -2.96631 0
M  V30 11622 C 1100.54 -3.53423 -2.75311 0
M  V30 11623 C 1102.28 -1.99782 -3.7455 0
M  V30 11624 C 1100.19 -4.32804 -4.03032 0
M  V30 11625 H 1099.12 -0.432561 -0.617581 0
M  V30 11626 H 1101.77 -1.53912 -0.999159 0
M  V30 11627 H 1100.15 -1.59302 -3.62545 0
M  V30 11628 H 1101.33 -4.05971 -2.18 0
M  V30 11629 H 1099.64 -3.59106 -2.10789 0
M  V30 11630 H 1102.24 -2.5635 -4.69243 0
M  V30 11631 H 1102.58 -0.97743 -4.04663 0
M  V30 11632 H 1103.11 -2.42324 -3.15474 0
M  V30 11633 H 1099.85 -5.35473 -3.78086 0
M  V30 11634 H 1099.37 -3.85025 -4.59909 0
M  V30 11635 H 1101.05 -4.43383 -4.71191 0
M  V30 11636 N 1101.18 1.11143 -1.11736 0
M  V30 11637 C 1102.6 1.34962 -0.851905 0
M  V30 11638 C 1102.8 1.94627 0.521797 0
M  V30 11639 O 1101.86 2.18121 1.27198 0
M  V30 11640 C 1103.17 2.27832 -1.96248 0
M  V30 11641 C 1104.72 2.41388 -1.9925 0
M  V30 11642 C 1105.19 3.37582 -3.09519 0
M  V30 11643 N 1106.68 3.45147 -3.08914 0
M  V30 11644 C 1107.42 4.19527 -3.90876 0
M  V30 11645 N 1106.91 4.96858 -4.82809 0
M  V30 11646 N 1108.71 4.15071 -3.79042 0
M  V30 11647 H 1100.86 0.707801 -2.0026 0
M  V30 11648 H 1103.12 0.374172 -0.871033 0
M  V30 11649 H 1102.83 1.91189 -2.95194 0
M  V30 11650 H 1102.7 3.28078 -1.86132 0
M  V30 11651 H 1105.09 2.77304 -1.00928 0
M  V30 11652 H 1105.17 1.40983 -2.13442 0
M  V30 11653 H 1104.81 3.02393 -4.0807 0
M  V30 11654 H 1104.74 4.37849 -2.92568 0
M  V30 11655 H 1107.23 2.89991 -2.42309 0
M  V30 11656 H 1107.55 5.5099 -5.41876 0
M  V30 11657 H 1105.89 4.96008 -4.86828 0
M  V30 11658 H 1109.08 3.53748 -3.06562 0
M  V30 11659 H 1109.26 4.72781 -4.4315 0
M  V30 11660 N 1102.66 0.908147 1.28804 0
M  V30 11661 C 1103.91 0.53734 1.94826 0
M  V30 11662 C 1104.23 -0.920962 1.71882 0
M  V30 11663 O 1103.5 -1.65043 1.05534 0
M  V30 11664 H 1102.08 0.195729 0.720902 0
M  V30 11665 H 1104.74 1.15628 1.56895 0
M  V30 11666 H 1103.84 0.727052 3.03513 0
M  V30 11667 N 1104.14 -1.42577 0.671525 0
M  V30 11668 C 1105.37 -2.06442 0.199152 0
M  V30 11669 C 1105.79 -1.50104 -1.1336 0
M  V30 11670 O 1105.15 -0.618211 -1.70434 0
M  V30 11671 C 1105.2 -3.60323 0.141215 0
M  V30 11672 O 1104.3 -4.02655 -0.891238 0
M  V30 11673 H 1103.64 -0.655919 0.103277 0
M  V30 11674 H 1106.17 -1.82768 0.919614 0
M  V30 11675 H 1106.18 -4.07984 -0.0360209 0
M  V30 11676 H 1104.86 -4.00702 1.11403 0
M  V30 11677 H 1103.43 -3.66549 -0.685309 0
M  V30 11678 N 1105.62 -0.414636 -1.52048 0
M  V30 11679 C 1106.53 0.414861 -2.30903 0
M  V30 11680 C 1107.54 1.04855 -1.38858 0
M  V30 11681 O 1108.72 1.04886 -1.71933 0
M  V30 11682 C 1105.79 1.51356 -3.11917 0
M  V30 11683 C 1104.85 0.902359 -4.19709 0
M  V30 11684 C 1104.08 1.9487 -4.96852 0
M  V30 11685 O 1104.3 3.16766 -4.74358 0
M  V30 11686 O 1103.24 1.55186 -5.8155 0
M  V30 11687 H 1107.06 -0.228251 -3.02841 0
M  V30 11688 H 1104.65 -0.177704 -1.48339 0
M  V30 11689 H 1106.53 2.15127 -3.62351 0
M  V30 11690 H 1105.2 2.14117 -2.42767 0
M  V30 11691 H 1104.11 0.22721 -3.73409 0
M  V30 11692 H 1105.44 0.318587 -4.91168 0
M  V30 11693 N 1107.1 1.56929 -0.145233 0
M  V30 11694 C 1108.51 1.82877 0.375884 0
M  V30 11695 C 1108.86 1.06384 1.64854 0
M  V30 11696 O 1107.98 0.30857 2.14189 0
M  V30 11697 C 1108.58 3.31725 0.688744 0
M  V30 11698 C 1107.14 3.58261 1.15439 0
M  V30 11699 C 1106.28 2.76737 0.176565 0
M  V30 11700 H 1109.24 1.54328 -0.36996 0
M  V30 11701 H 1109.26 3.47784 1.54359 0
M  V30 11702 H 1108.77 3.87371 -0.237694 0
M  V30 11703 H 1106.87 3.08 2.09683 0
M  V30 11704 H 1106.98 4.66732 1.08158 0
M  V30 11705 H 1105.35 2.45761 0.668843 0
M  V30 11706 H 1106.13 3.35154 -0.743432 0
M  V30 11707 N 1108.58 -0.128553 1.57075 0
M  V30 11708 C 1109.54 -1.14215 1.98715 0
M  V30 11709 C 1110.54 -1.34843 0.876019 0
M  V30 11710 O 1111.73 -1.31522 1.14227 0
M  V30 11711 C 1108.86 -2.49865 2.31905 0
M  V30 11712 H 1110.05 -0.784481 2.89458 0
M  V30 11713 H 1107.61 -0.372531 1.51796 0
M  V30 11714 H 1108.34 -2.9057 1.44012 0
M  V30 11715 H 1108.13 -2.3625 3.12935 0
M  V30 11716 H 1109.62 -3.22832 2.64895 0
M  V30 11717 N 1110.05 -1.5248 -0.398459 0
M  V30 11718 C 1110.99 -1.72826 -1.50545 0
M  V30 11719 C 1112 -0.608683 -1.50993 0
M  V30 11720 O 1113.19 -0.88413 -1.55066 0
M  V30 11721 C 1110.29 -1.76327 -2.89417 0
M  V30 11722 C 1109.46 -3.05491 -3.1304 0
M  V30 11723 C 1108.52 -3.00663 -4.31843 0
M  V30 11724 O 1107.55 -3.74548 -4.28605 0
M  V30 11725 N 1108.75 -2.19191 -5.37527 0
M  V30 11726 H 1111.51 -2.68333 -1.33482 0
M  V30 11727 H 1109.07 -1.5085 -0.587875 0
M  V30 11728 H 1111.07 -1.70616 -3.66977 0
M  V30 11729 H 1109.64 -0.882476 -2.99885 0
M  V30 11730 H 1108.86 -3.24767 -2.23428 0
M  V30 11731 H 1110.14 -3.90915 -3.25673 0
M  V30 11732 H 1109.54 -1.58613 -5.43009 0
M  V30 11733 H 1108.1 -2.19328 -6.1379 0
M  V30 11734 N 1111.53 0.65634 -1.43283 0
M  V30 11735 C 1112.78 1.41347 -1.44449 0
M  V30 11736 C 1113.1 1.94879 -0.0687217 0
M  V30 11737 O 1112.37 1.74235 0.895492 0
M  V30 11738 H 1110.95 0.524578 -0.531815 0
M  V30 11739 H 1113.61 0.774292 -1.7886 0
M  V30 11740 H 1112.71 2.25737 -2.15521 0
M  V30 11741 N 1113.01 1.29761 0.894412 0
M  V30 11742 C 1114.42 1.16275 1.46072 0
M  V30 11743 C 1114.77 -0.240123 1.94725 0
M  V30 11744 O 1113.9 -1.13606 1.84181 0
M  V30 11745 C 1114.49 2.10471 2.65494 0
M  V30 11746 C 1113.05 2.00992 3.18244 0
M  V30 11747 C 1112.2 2.01094 1.90936 0
M  V30 11748 H 1115.15 1.42169 0.705243 0
M  V30 11749 H 1115.17 1.68003 3.41402 0
M  V30 11750 H 1114.68 3.12566 2.30053 0
M  V30 11751 H 1112.78 1.02005 3.58365 0
M  V30 11752 H 1112.9 2.88916 3.82184 0
M  V30 11753 H 1111.26 1.45764 2.08866 0
M  V30 11754 H 1112.04 3.04902 1.57764 0
M  V30 11755 N 1114.49 -1.10549 1.12324 0
M  V30 11756 C 1115.74 -1.82124 0.876083 0
M  V30 11757 C 1116.06 -1.85547 -0.599761 0
M  V30 11758 O 1115.33 -1.33269 -1.43584 0
M  V30 11759 H 1113.91 -0.674455 0.321122 0
M  V30 11760 H 1116.57 -1.33766 1.41748 0
M  V30 11761 H 1115.66 -2.85688 1.25653 0
M  V30 11762 N 1115.97 -0.914965 -1.28321 0
M  V30 11763 C 1117.21 -0.555865 -1.96696 0
M  V30 11764 C 1117.57 0.8842 -1.70429 0
M  V30 11765 O 1118.77 1.35094 -2.32386 0
M  V30 11766 C 1117.04 -0.857942 -3.4695 0
M  V30 11767 S 1118.6 -0.605441 -4.34603 0
M  V30 11768 H 1115.42 -0.20564 -0.680612 0
M  V30 11769 H 1118.02 -1.18068 -1.55821 0
M  V30 11770 H 1116.72 -1.90394 -3.63563 0
M  V30 11771 H 1116.26 -0.221831 -3.92774 0
M  V30 11772 H 1118.27 0.542657 -4.93224 0
M  V30 11773 N 1117.44 1.42219 -0.679077 0
M  V30 11774 C 1118.69 2.01081 -0.202718 0
M  V30 11775 C 1119.01 1.53986 1.19639 0
M  V30 11776 O 1118.28 0.763359 1.80415 0
M  V30 11777 H 1116.86 0.743526 -0.0719547 0
M  V30 11778 H 1119.52 1.74077 -0.876544 0
M  V30 11779 H 1118.62 3.11411 -0.207314 0
M  V30 11780 N 1118.92 0.422693 1.51826 0
M  V30 11781 C 1120.15 -0.15017 2.06856 0
M  V30 11782 C 1120.57 -1.36946 1.28948 0
M  V30 11783 O 1119.93 -1.78393 0.32338 0
M  V30 11784 C 1119.98 -0.465563 3.57582 0
M  V30 11785 O 1119.08 -1.55442 3.81984 0
M  V30 11786 H 1118.42 -0.00827931 0.663948 0
M  V30 11787 H 1120.95 0.599806 1.95611 0
M  V30 11788 H 1120.96 -0.720279 4.01592 0
M  V30 11789 H 1119.64 0.425679 4.13716 0
M  V30 11790 H 1118.21 -1.29081 3.49846 0
M  V30 11791 N 1120.4 -1.5685 0.153553 0
M  V30 11792 C 1121.33 -2.14231 -0.814729 0
M  V30 11793 C 1122.34 -1.09339 -1.20619 0
M  V30 11794 O 1123.53 -1.36592 -1.14913 0
M  V30 11795 C 1120.63 -2.6555 -2.10562 0
M  V30 11796 C 1119.81 -3.94912 -1.8805 0
M  V30 11797 C 1118.87 -4.31476 -3.0119 0
M  V30 11798 O 1117.89 -4.9968 -2.72596 0
M  V30 11799 N 1119.09 -3.91588 -4.28531 0
M  V30 11800 H 1121.86 -2.9794 -0.324277 0
M  V30 11801 H 1119.42 -1.61873 -0.0298087 0
M  V30 11802 H 1121.41 -2.87019 -2.85311 0
M  V30 11803 H 1119.98 -1.86529 -2.5085 0
M  V30 11804 H 1119.2 -3.82002 -0.973024 0
M  V30 11805 H 1120.49 -4.79433 -1.70356 0
M  V30 11806 H 1119.89 -3.36645 -4.54628 0
M  V30 11807 H 1118.44 -4.18095 -5.00039 0
M  V30 11808 N 1121.88 0.120221 -1.57141 0
M  V30 11809 C 1122.83 1.16654 -2.01233 0
M  V30 11810 C 1123.82 1.42943 -0.909053 0
M  V30 11811 O 1125.03 1.4292 -1.09426 0
M  V30 11812 H 1121.4 0.393289 -0.640958 0
M  V30 11813 H 1123.37 0.768156 -2.88343 0
M  V30 11814 C 1122.12 2.4854 -2.43152 0
M  V30 11815 H 1121.44 2.29149 -3.27614 0
M  V30 11816 H 1122.88 3.20315 -2.77802 0
M  V30 11817 C 1121.34 3.1103 -1.29468 0
M  V30 11818 O 1121.87 3.97042 -0.609982 0
M  V30 11819 N 1120.08 2.70888 -1.05205 0
M  V30 11820 H 1119.63 2.01039 -1.61062 0
M  V30 11821 H 1119.58 3.13028 -0.293347 0
M  V30 11822 N 1123.36 1.52689 0.390367 0
M  V30 11823 C 1124.77 1.59623 0.968366 0
M  V30 11824 C 1125.12 0.44824 1.91011 0
M  V30 11825 O 1124.24 -0.428868 2.12108 0
M  V30 11826 C 1124.84 2.89312 1.76306 0
M  V30 11827 C 1123.4 2.98664 2.29079 0
M  V30 11828 C 1122.54 2.54725 1.09593 0
M  V30 11829 H 1125.5 1.57787 0.169959 0
M  V30 11830 H 1125.52 2.75721 2.62217 0
M  V30 11831 H 1125.03 3.72846 1.07738 0
M  V30 11832 H 1123.13 2.19665 3.00962 0
M  V30 11833 H 1123.24 4.03277 2.58659 0
M  V30 11834 H 1121.61 2.09012 1.45554 0
M  V30 11835 H 1122.39 3.40651 0.425625 0
M  V30 11836 N 1124.83 -0.648732 1.43629 0
M  V30 11837 C 1125.8 -1.74331 1.488 0
M  V30 11838 C 1126.8 -1.56434 0.372147 0
M  V30 11839 O 1127.99 -1.6225 0.634078 0
M  V30 11840 C 1125.12 -3.13248 1.34494 0
M  V30 11841 H 1126.31 -1.71125 2.46285 0
M  V30 11842 H 1123.87 -0.860798 1.30461 0
M  V30 11843 H 1124.6 -3.22062 0.380345 0
M  V30 11844 H 1124.39 -3.27643 2.15389 0
M  V30 11845 H 1125.88 -3.93056 1.41055 0
M  V30 11846 N 1126.31 -1.30234 -0.887518 0
M  V30 11847 C 1127.56 -1.18675 -1.63587 0
M  V30 11848 C 1127.88 0.259342 -1.93268 0
M  V30 11849 O 1127.15 1.17523 -1.56733 0
M  V30 11850 H 1125.73 -0.436224 -0.606397 0
M  V30 11851 H 1128.39 -1.63326 -1.06351 0
M  V30 11852 H 1127.49 -1.74575 -2.58708 0
M  V30 11853 N 1127.79 1.09952 -1.12909 0
M  V30 11854 C 1128.7 2.19999 -0.81471 0
M  V30 11855 C 1129.72 1.72864 0.19851 0
M  V30 11856 O 1130.89 2.01376 0.0308832 0
M  V30 11857 C 1127.96 3.45573 -0.279363 0
M  V30 11858 C 1127.02 4.07417 -1.35314 0
M  V30 11859 C 1126.25 5.26996 -0.843247 0
M  V30 11860 O 1126.47 5.69495 0.321164 0
M  V30 11861 O 1125.41 5.79826 -1.61511 0
M  V30 11862 H 1129.23 2.49333 -1.73398 0
M  V30 11863 H 1126.82 1.18784 -0.906128 0
M  V30 11864 H 1128.7 4.21398 0.0140531 0
M  V30 11865 H 1127.38 3.17854 0.612401 0
M  V30 11866 H 1126.28 3.33253 -1.6998 0
M  V30 11867 H 1127.62 4.39349 -2.21885 0
M  V30 11868 N 1129.27 0.921757 1.27833 0
M  V30 11869 C 1130.51 0.559906 1.94918 0
M  V30 11870 C 1130.85 -0.895532 1.72319 0
M  V30 11871 O 1130.12 -1.638 1.04879 0
M  V30 11872 C 1130.41 0.879458 3.49196 0
M  V30 11873 C 1130.26 2.38821 3.81162 0
M  V30 11874 C 1131.58 0.381183 4.38446 0
M  V30 11875 H 1128.7 0.204893 0.707946 0
M  V30 11876 H 1131.34 1.15246 1.51058 0
M  V30 11877 H 1129.49 0.375177 3.86684 0
M  V30 11878 H 1131.16 2.96373 3.53498 0
M  V30 11879 H 1129.4 2.83988 3.27923 0
M  V30 11880 H 1130.07 2.56234 4.88926 0
M  V30 11881 H 1132.55 0.813289 4.08075 0
M  V30 11882 H 1131.43 0.633778 5.45229 0
M  V30 11883 H 1131.69 -0.718651 4.3622 0
M  V30 11884 N 1130.75 -1.41857 0.686609 0
M  V30 11885 C 1131.68 -2.28174 -0.0347358 0
M  V30 11886 C 1132.66 -1.41732 -0.796928 0
M  V30 11887 O 1133.84 -1.71165 -0.789607 0
M  V30 11888 C 1130.97 -3.21801 -1.0565 0
M  V30 11889 C 1130.01 -4.24727 -0.388523 0
M  V30 11890 S 1130.85 -5.28508 0.862546 0
M  V30 11891 C 1132 -6.25701 -0.157849 0
M  V30 11892 H 1132.24 -2.89005 0.697381 0
M  V30 11893 H 1129.77 -1.46861 0.476562 0
M  V30 11894 H 1131.73 -3.76278 -1.64089 0
M  V30 11895 H 1130.39 -2.60082 -1.76114 0
M  V30 11896 H 1129.58 -4.90471 -1.15991 0
M  V30 11897 H 1129.18 -3.73799 0.122567 0
M  V30 11898 H 1131.48 -6.6987 -1.01393 0
M  V30 11899 H 1132.42 -7.06569 0.465437 0
M  V30 11900 H 1132.83 -5.62204 -0.508614 0
M  V30 11901 N 1132.22 -0.430739 -1.51599 0
M  V30 11902 C 1133.5 0.197543 -1.946 0
M  V30 11903 C 1133.88 1.6069 -1.36901 0
M  V30 11904 O 1133.23 2.21697 -0.553422 0
M  V30 11905 C 1133.44 0.181976 -3.48525 0
M  V30 11906 C 1134.79 0.390783 -4.22798 0
M  V30 11907 O 1135.81 0.260384 -3.55247 0
M  V30 11908 O 1134.67 0.649701 -5.42624 0
M  V30 11909 H 1131.76 0.133524 -0.81615 0
M  V30 11910 H 1134.31 -0.488243 -1.62525 0
M  V30 11911 H 1133.08 -0.803584 -3.8296 0
M  V30 11912 H 1132.71 0.910952 -3.87024 0
M  V30 11913 N 1133.7 1.56767 -0.161869 0
M  V30 11914 C 1134.95 1.97661 0.479751 0
M  V30 11915 C 1135.3 1.04583 1.61493 0
M  V30 11916 O 1134.6 0.0836772 1.91417 0
M  V30 11917 C 1134.79 3.42567 1.01894 0
M  V30 11918 C 1134.62 4.49657 -0.0624633 0
M  V30 11919 C 1133.39 5.0273 -0.508935 0
M  V30 11920 C 1135.59 5.07069 -0.85941 0
M  V30 11921 N 1133.57 5.93442 -1.57163 0
M  V30 11922 C 1134.94 5.94131 -1.77225 0
M  V30 11923 C 1137 4.89596 -0.905543 0
M  V30 11924 C 1135.7 6.6559 -2.72731 0
M  V30 11925 C 1137.72 5.61769 -1.8485 0
M  V30 11926 C 1137.09 6.48551 -2.74884 0
M  V30 11927 H 1133.19 0.76864 0.14393 0
M  V30 11928 H 1135.77 1.92957 -0.259906 0
M  V30 11929 H 1133.94 3.47835 1.72815 0
M  V30 11930 H 1135.67 3.70493 1.62841 0
M  V30 11931 H 1132.43 4.73476 -0.1084 0
M  V30 11932 H 1132.85 6.43502 -2.10319 0
M  V30 11933 H 1137.49 4.22209 -0.223516 0
M  V30 11934 H 1135.21 7.32197 -3.41927 0
M  V30 11935 H 1138.8 5.50239 -1.89018 0
M  V30 11936 H 1137.68 7.03417 -3.46661 0
M  V30 11937 N 1135.18 -0.111886 1.57202 0
M  V30 11938 C 1136.43 -0.819623 1.85499 0
M  V30 11939 C 1136.76 -1.7919 0.748629 0
M  V30 11940 O 1136.03 -1.92952 -0.244918 0
M  V30 11941 C 1136.32 -1.56324 3.24399 0
M  V30 11942 C 1136.17 -0.610081 4.45643 0
M  V30 11943 C 1137.49 -2.51777 3.60966 0
M  V30 11944 H 1134.61 -0.296512 0.674722 0
M  V30 11945 H 1137.25 -0.0836741 1.89816 0
M  V30 11946 H 1135.4 -2.1906 3.2085 0
M  V30 11947 H 1137.07 0.00898038 4.61299 0
M  V30 11948 H 1135.32 0.0778488 4.3373 0
M  V30 11949 H 1135.99 -1.16718 5.39519 0
M  V30 11950 H 1138.46 -1.99143 3.65351 0
M  V30 11951 H 1137.34 -3.00835 4.59118 0
M  V30 11952 H 1137.6 -3.34769 2.8876 0
M  V30 11953 N 1136.66 -1.52894 -0.382264 0
M  V30 11954 C 1138.07 -1.42295 -0.722802 0
M  V30 11955 C 1138.27 -0.548717 -1.93885 0
M  V30 11956 O 1137.33 -0.0247431 -2.52488 0
M  V30 11957 C 1138.64 -2.85246 -0.9516 0
M  V30 11958 C 1140.19 -2.94768 -1.05265 0
M  V30 11959 C 1140.67 -4.38745 -1.31404 0
M  V30 11960 N 1142.16 -4.421 -1.38211 0
M  V30 11961 C 1142.89 -5.50592 -1.60113 0
M  V30 11962 N 1142.39 -6.69158 -1.79442 0
M  V30 11963 N 1144.18 -5.38145 -1.62347 0
M  V30 11964 H 1136.33 -2.0825 0.417816 0
M  V30 11965 H 1138.6 -0.939753 0.124776 0
M  V30 11966 H 1138.3 -3.51459 -0.130088 0
M  V30 11967 H 1138.18 -3.27903 -1.86439 0
M  V30 11968 H 1140.56 -2.28718 -1.86472 0
M  V30 11969 H 1140.64 -2.55529 -0.117619 0
M  V30 11970 H 1140.29 -5.05363 -0.507038 0
M  V30 11971 H 1140.22 -4.75542 -2.26202 0
M  V30 11972 H 1142.71 -3.56644 -1.24954 0
M  V30 11973 H 1143.02 -7.47615 -1.95681 0
M  V30 11974 H 1141.37 -6.72175 -1.76653 0
M  V30 11975 H 1144.56 -4.44485 -1.46803 0
M  V30 11976 H 1144.73 -6.22764 -1.79077 0
M  V30 11977 N 1138.14 0.641106 -1.43971 0
M  V30 11978 C 1139.39 1.39807 -1.4594 0
M  V30 11979 C 1139.71 1.94795 -0.0893874 0
M  V30 11980 O 1138.98 1.75175 0.876962 0
M  V30 11981 H 1137.56 0.518908 -0.537349 0
M  V30 11982 H 1140.22 0.755278 -1.79671 0
M  V30 11983 H 1139.31 2.23439 -2.17903 0
M  V30 11984 N 1139.62 1.30703 0.880598 0
M  V30 11985 C 1140.86 1.20965 1.63521 0
M  V30 11986 C 1141.22 -0.232404 1.90991 0
M  V30 11987 O 1140.51 -1.16272 1.52287 0
M  V30 11988 C 1140.7 1.97628 2.97789 0
M  V30 11989 C 1140.53 3.49141 2.83427 0
M  V30 11990 C 1139.3 4.18496 2.83177 0
M  V30 11991 C 1141.5 4.44291 2.59056 0
M  V30 11992 N 1139.48 5.56239 2.59752 0
M  V30 11993 C 1140.85 5.69627 2.44795 0
M  V30 11994 C 1142.91 4.33837 2.44316 0
M  V30 11995 C 1141.61 6.85694 2.17293 0
M  V30 11996 C 1143.64 5.49675 2.182 0
M  V30 11997 C 1143 6.73995 2.04719 0
M  V30 11998 H 1139.1 0.497719 0.603158 0
M  V30 11999 H 1141.68 1.64765 1.03733 0
M  V30 12000 H 1139.85 1.56212 3.55601 0
M  V30 12001 H 1141.59 1.79996 3.62468 0
M  V30 12002 H 1138.34 3.70368 2.95168 0
M  V30 12003 H 1138.76 6.28735 2.5104 0
M  V30 12004 H 1143.41 3.38396 2.53471 0
M  V30 12005 H 1141.12 7.81171 2.06875 0
M  V30 12006 H 1144.71 5.43497 2.0761 0
M  V30 12007 H 1143.59 7.62116 1.84794 0
M  V30 12008 N 1141.09 -1.09351 1.1349 0
M  V30 12009 C 1142.02 -2.18037 0.835588 0
M  V30 12010 C 1143 -1.68856 -0.205373 0
M  V30 12011 O 1144.19 -1.94094 -0.0641357 0
M  V30 12012 C 1141.32 -3.45987 0.301661 0
M  V30 12013 C 1140.27 -4.08507 1.27696 0
M  V30 12014 C 1139.6 -5.31292 0.602758 0
M  V30 12015 C 1140.9 -4.50916 2.63575 0
M  V30 12016 H 1142.59 -2.43332 1.74441 0
M  V30 12017 H 1140.14 -1.1695 0.840166 0
M  V30 12018 H 1142.09 -4.21324 0.079928 0
M  V30 12019 H 1140.82 -3.20217 -0.642552 0
M  V30 12020 H 1139.48 -3.3519 1.4847 0
M  V30 12021 H 1139.12 -5.01802 -0.346953 0
M  V30 12022 H 1138.82 -5.74075 1.25345 0
M  V30 12023 H 1140.35 -6.09351 0.390325 0
M  V30 12024 H 1141.76 -5.17474 2.46765 0
M  V30 12025 H 1140.16 -5.04586 3.24827 0
M  V30 12026 H 1141.23 -3.63279 3.2118 0
M  V30 12027 N 1142.57 -0.928524 -1.27343 0
M  V30 12028 C 1143.52 -0.418768 -2.28799 0
M  V30 12029 C 1144.51 0.497334 -1.61935 0
M  V30 12030 O 1145.72 0.376945 -1.76009 0
M  V30 12031 H 1142.09 -0.116855 -0.742865 0
M  V30 12032 H 1144.07 -1.28725 -2.69207 0
M  V30 12033 C 1142.81 0.312422 -3.46294 0
M  V30 12034 H 1142.14 -0.383317 -3.97958 0
M  V30 12035 H 1143.58 0.633514 -4.19241 0
M  V30 12036 C 1142.04 1.5257 -3.00373 0
M  V30 12037 O 1142.57 2.62443 -3.04116 0
M  V30 12038 N 1140.77 1.37782 -2.5586 0
M  V30 12039 H 1140.32 0.483908 -2.53014 0
M  V30 12040 H 1140.28 2.19085 -2.25498 0
M  V30 12041 O 1144.09 1.38369 -0.832851 0
M  V30 12042 H 1144.78 1.89123 -0.418591 0
M  V30 END ATOM
M  V30 BEGIN BOND
M  V30 END BOND
M  V30 END CTAB
M  END
$$$$
