drugbank_target|Q16647 Prostacyclin synthase (DB00812; DB01240; DB08675)
 OpenBabel12092119243D

  0  0  0     0  0            999 V3000
M  V30 BEGIN CTAB
M  V30 COUNTS 8085 8189 0 0 0
M  V30 BEGIN ATOM
M  V30 1 H -0.908 1.98254 -0.117106 0
M  V30 2 N 0 1.576 0 0
M  V30 3 C 0.933 2.03868 1.02534 0
M  V30 4 C 1.911 0.928543 1.3348 0
M  V30 5 O 3.095 1.19667 1.45644 0
M  V30 6 C 0.222 2.43627 2.35294 0
M  V30 7 C -0.732 3.65373 2.2001 0
M  V30 8 S 0.101 5.13292 1.52614 0
M  V30 9 C 1.257 5.56322 2.86805 0
M  V30 10 H 1.49 2.90518 0.631377 0
M  V30 11 H -0.977 1.52953 0.210867 0
M  V30 12 H 0.981 2.67203 3.11629 0
M  V30 13 H -0.358 1.57376 2.7183 0
M  V30 14 H -1.165 3.90944 3.18086 0
M  V30 15 H -1.563 3.418 1.51819 0
M  V30 16 H 0.729 5.58782 3.83104 0
M  V30 17 H 1.672 6.56266 2.65933 0
M  V30 18 H 2.08 4.83886 2.90714 0
M  V30 19 N 1.4781 -0.272755 1.55222 0
M  V30 20 C 2.4411 -1.32041 1.87344 0
M  V30 21 C 3.4411 -1.42342 0.74803 0
M  V30 22 O 4.6311 -1.41488 1.0162 0
M  V30 23 C 1.7631 -2.70173 2.07893 0
M  V30 24 H 2.9561 -1.04789 2.80997 0
M  V30 25 H 0.5091 -0.51083 1.47717 0
M  V30 26 H 1.2441 -3.02605 1.16622 0
M  V30 27 H 1.0291 -2.64082 2.89833 0
M  V30 28 H 2.5191 -3.45869 2.34017 0
M  V30 29 N 2.9562 -1.48159 -0.537278 0
M  V30 30 C 4.2022 -1.57015 -1.29297 0
M  V30 31 C 4.5572 -0.237791 -1.90925 0
M  V30 32 O 3.8502 0.758621 -1.75942 0
M  V30 33 C 4.0442 -2.63956 -2.40961 0
M  V30 34 C 3.8732 -4.07461 -1.90278 0
M  V30 35 C 2.6432 -4.74685 -1.73213 0
M  V30 36 C 4.8412 -4.93858 -1.43556 0
M  V30 37 N 2.8232 -6.02633 -1.17078 0
M  V30 38 C 4.1942 -6.11993 -0.993204 0
M  V30 39 C 6.2492 -4.80141 -1.31792 0
M  V30 40 C 4.9522 -7.17923 -0.444872 0
M  V30 41 C 6.9782 -5.86186 -0.783585 0
M  V30 42 C 6.3402 -7.03524 -0.351261 0
M  V30 43 H 2.4392 -0.629154 -0.464423 0
M  V30 44 H 5.0232 -1.85006 -0.606705 0
M  V30 45 H 3.1942 -2.378 -3.07093 0
M  V30 46 H 4.9262 -2.62539 -3.07986 0
M  V30 47 H 1.6812 -4.30902 -1.9652 0
M  V30 48 H 2.1052 -6.7085 -0.910421 0
M  V30 49 H 6.7472 -3.89772 -1.63823 0
M  V30 50 H 4.4652 -8.08022 -0.11222 0
M  V30 51 H 8.0512 -5.77624 -0.695835 0
M  V30 52 H 6.9312 -7.8418 0.055777 0
M  V30 53 N 4.4343 0.785586 -1.36625 0
M  V30 54 C 5.3973 1.87999 -1.31107 0
M  V30 55 C 6.3973 1.59316 -0.217959 0
M  V30 56 O 7.5873 1.67656 -0.472977 0
M  V30 57 C 4.7193 3.24861 -1.03334 0
M  V30 58 H 5.9123 1.94307 -2.2844 0
M  V30 59 H 3.4653 0.983813 -1.21453 0
M  V30 60 H 4.2003 3.24235 -0.0647432 0
M  V30 61 H 3.9853 3.4707 -1.82441 0
M  V30 62 H 5.4753 4.04929 -1.02088 0
M  V30 63 N 5.9124 1.20967 1.01018 0
M  V30 64 C 6.8754 0.965918 2.07853 0
M  V30 65 C 7.8754 -0.0610545 1.60684 0
M  V30 66 O 9.0654 0.175681 1.73312 0
M  V30 67 C 6.1974 0.455513 3.37843 0
M  V30 68 H 7.3904 1.91365 2.3091 0
M  V30 69 H 4.9434 1.02594 1.17916 0
M  V30 70 H 5.6784 -0.497381 3.20463 0
M  V30 71 H 5.4634 1.19622 3.73407 0
M  V30 72 H 6.9534 0.304667 4.16487 0
M  V30 73 N 7.3905 -1.2043 1.01659 0
M  V30 74 C 8.3205 -2.25466 0.607226 0
M  V30 75 C 9.3015 -1.65853 -0.377716 0
M  V30 76 O 10.4865 -1.92409 -0.263149 0
M  V30 77 C 7.6165 -3.47256 -0.0552949 0
M  V30 78 C 6.5705 -4.19462 0.850632 0
M  V30 79 C 5.8965 -5.34673 0.0538859 0
M  V30 80 C 7.1965 -4.75603 2.15868 0
M  V30 81 H 8.8905 -2.59962 1.48526 0
M  V30 82 H 6.4365 -1.2496 0.715605 0
M  V30 83 H 8.3895 -4.19917 -0.353233 0
M  V30 84 H 7.1135 -3.11924 -0.968045 0
M  V30 85 H 5.7725 -3.48667 1.13257 0
M  V30 86 H 5.4205 -4.95585 -0.860514 0
M  V30 87 H 5.1205 -5.83913 0.657192 0
M  V30 88 H 6.6445 -6.10138 -0.237598 0
M  V30 89 H 8.0585 -5.40083 1.92311 0
M  V30 90 H 6.4555 -5.3528 2.71284 0
M  V30 91 H 7.5255 -3.94346 2.82169 0
M  V30 92 N 8.8686 -0.792821 -1.36206 0
M  V30 93 C 9.7986 -0.207853 -2.32573 0
M  V30 94 C 10.7796 0.659055 -1.56813 0
M  V30 95 O 11.9646 0.592176 -1.84951 0
M  V30 96 C 9.0946 0.655449 -3.41059 0
M  V30 97 C 8.0486 -0.111842 -4.27854 0
M  V30 98 C 7.3746 0.872274 -5.27537 0
M  V30 99 C 8.6746 -1.30299 -5.05786 0
M  V30 100 H 10.3686 -1.01294 -2.81744 0
M  V30 101 H 7.9146 -0.48854 -1.3546 0
M  V30 102 H 9.8676 1.07464 -4.07467 0
M  V30 103 H 8.5916 1.49328 -2.90463 0
M  V30 104 H 7.2506 -0.512053 -3.63006 0
M  V30 105 H 6.8986 1.70523 -4.73214 0
M  V30 106 H 6.5986 0.363291 -5.86476 0
M  V30 107 H 8.1226 1.28996 -5.96818 0
M  V30 108 H 9.5366 -0.959379 -5.65216 0
M  V30 109 H 7.9336 -1.7455 -5.74154 0
M  V30 110 H 9.0036 -2.09663 -4.37229 0
M  V30 111 N 10.3467 1.47872 -0.545128 0
M  V30 112 C 11.5947 2.02093 -0.016553 0
M  V30 113 C 11.9157 1.42305 1.3332 0
M  V30 114 O 11.1857 0.593853 1.86682 0
M  V30 115 H 9.7657 0.746993 -0.00313038 0
M  V30 116 H 12.4277 1.81414 -0.712397 0
M  V30 117 H 11.5237 3.11996 0.0805422 0
M  V30 118 N 11.8248 0.280983 1.55075 0
M  V30 119 C 12.7548 -0.597469 2.25727 0
M  V30 120 C 13.7358 -1.15417 1.24952 0
M  V30 121 O 14.9208 -1.18722 1.53684 0
M  V30 122 C 12.0508 -1.7789 2.98283 0
M  V30 123 C 11.0048 -1.35347 4.06036 0
M  V30 124 C 10.3308 -2.61846 4.66198 0
M  V30 125 C 11.6308 -0.499354 5.19907 0
M  V30 126 H 13.3248 -0.00824265 2.99399 0
M  V30 127 H 10.8708 -0.0025244 1.44 0
M  V30 128 H 12.8238 -2.39937 3.46422 0
M  V30 129 H 11.5478 -2.39405 2.22155 0
M  V30 130 H 10.2068 -0.756156 3.58717 0
M  V30 131 H 9.8548 -3.21632 3.86732 0
M  V30 132 H 9.5548 -2.3409 5.38958 0
M  V30 133 H 11.0788 -3.24732 5.1709 0
M  V30 134 H 12.4928 -1.02498 5.64063 0
M  V30 135 H 10.8898 -0.316424 5.99265 0
M  V30 136 H 11.9598 0.480459 4.82514 0
M  V30 137 N 13.3029 -1.57598 0.00835791 0
M  V30 138 C 14.2329 -2.1198 -0.979113 0
M  V30 139 C 15.2139 -1.03091 -1.35301 0
M  V30 140 O 16.3989 -1.30818 -1.43528 0
M  V30 141 C 13.5289 -2.62995 -2.26828 0
M  V30 142 C 12.4829 -3.76485 -2.03576 0
M  V30 143 C 11.8089 -4.13846 -3.38579 0
M  V30 144 C 13.1089 -5.0342 -1.39161 0
M  V30 145 H 14.8029 -2.94738 -0.526281 0
M  V30 146 H 12.3489 -1.41783 -0.251704 0
M  V30 147 H 14.3019 -2.99669 -2.96271 0
M  V30 148 H 13.0259 -1.7737 -2.7424 0
M  V30 149 H 11.6849 -3.40217 -1.36557 0
M  V30 150 H 11.3329 -3.25232 -3.83709 0
M  V30 151 H 11.0329 -4.90312 -3.23834 0
M  V30 152 H 12.5569 -4.53086 -4.09323 0
M  V30 153 H 13.9709 -5.37812 -1.98573 0
M  V30 154 H 12.3679 -5.84746 -1.34878 0
M  V30 155 H 13.4379 -4.83548 -0.361868 0
M  V30 156 N 14.781 0.264519 -1.55364 0
M  V30 157 C 15.744 1.31046 -1.88042 0
M  V30 158 C 16.744 1.41943 -0.755569 0
M  V30 159 O 17.934 1.40947 -1.02369 0
M  V30 160 C 15.066 2.69067 -2.09323 0
M  V30 161 H 16.259 1.03297 -2.81549 0
M  V30 162 H 13.812 0.502989 -1.47986 0
M  V30 163 H 14.547 3.01982 -1.18226 0
M  V30 164 H 14.332 2.62542 -2.91229 0
M  V30 165 H 15.822 3.44623 -2.35848 0
M  V30 166 N 16.2591 1.48442 0.529413 0
M  V30 167 C 17.2221 1.62524 1.61612 0
M  V30 168 C 18.2221 0.498509 1.52877 0
M  V30 169 O 19.4121 0.76431 1.56537 0
M  V30 170 C 16.5441 1.59597 3.01233 0
M  V30 171 H 17.7371 2.59423 1.50465 0
M  V30 172 H 15.2901 1.37047 0.751514 0
M  V30 173 H 16.0251 0.641781 3.17886 0
M  V30 174 H 15.8101 2.41397 3.08982 0
M  V30 175 H 17.3001 1.72646 3.80241 0
M  V30 176 N 17.7372 -0.778329 1.37039 0
M  V30 177 C 18.6672 -1.90546 1.34962 0
M  V30 178 C 19.6482 -1.68681 0.219274 0
M  V30 179 O 20.8332 -1.89634 0.418624 0
M  V30 180 C 17.9632 -3.27734 1.14925 0
M  V30 181 C 16.9172 -3.64147 2.24902 0
M  V30 182 C 16.2432 -4.99806 1.89996 0
M  V30 183 C 17.5432 -3.71579 3.67051 0
M  V30 184 H 19.2372 -1.92541 2.29277 0
M  V30 185 H 16.7832 -0.924948 1.10366 0
M  V30 186 H 18.7362 -4.06215 1.12104 0
M  V30 187 H 17.4602 -3.26154 0.170631 0
M  V30 188 H 16.1192 -2.8797 2.26868 0
M  V30 189 H 15.7672 -4.94759 0.906796 0
M  V30 190 H 15.4672 -5.25139 2.63634 0
M  V30 191 H 16.9912 -5.80694 1.88749 0
M  V30 192 H 18.4052 -4.40227 3.67251 0
M  V30 193 H 16.8022 -4.08405 4.39688 0
M  V30 194 H 17.8722 -2.72404 4.01154 0
M  V30 195 N 19.2153 -1.21501 -1.00376 0
M  V30 196 C 20.1453 -0.999478 -2.11028 0
M  V30 197 C 21.1263 0.0759671 -1.6993 0
M  V30 198 O 22.3113 -0.0841106 -1.94018 0
M  V30 199 C 19.4413 -0.564709 -3.42678 0
M  V30 200 C 18.3953 -1.58486 -3.97576 0
M  V30 201 C 17.7213 -1.00628 -5.25146 0
M  V30 202 C 19.0213 -2.97204 -4.29496 0
M  V30 203 H 20.7153 -1.92495 -2.29317 0
M  V30 204 H 18.2613 -0.92693 -1.102 0
M  V30 205 H 20.2143 -0.401091 -4.19487 0
M  V30 206 H 18.9383 0.396411 -3.24185 0
M  V30 207 H 17.5973 -1.73606 -3.22888 0
M  V30 208 H 17.2453 -0.0368439 -5.02987 0
M  V30 209 H 16.9453 -1.68771 -5.62841 0
M  V30 210 H 18.4693 -0.854015 -6.04598 0
M  V30 211 H 19.8833 -2.8552 -4.97143 0
M  V30 212 H 18.2803 -3.62372 -4.78338 0
M  V30 213 H 19.3503 -3.47956 -3.3772 0
M  V30 214 N 20.6934 1.19889 -1.02296 0
M  V30 215 C 21.6234 2.25141 -0.619174 0
M  V30 216 C 22.6044 1.66051 0.368915 0
M  V30 217 O 23.7894 1.92546 0.252941 0
M  V30 218 C 20.9194 3.4728 0.0368783 0
M  V30 219 C 19.8734 4.19005 -0.872865 0
M  V30 220 C 19.1994 5.34637 -0.0822402 0
M  V30 221 C 20.4994 4.74452 -2.18387 0
M  V30 222 H 22.1934 2.59171 -1.49903 0
M  V30 223 H 19.7394 1.24579 -0.722222 0
M  V30 224 H 21.6924 4.20098 0.330958 0
M  V30 225 H 20.4164 3.12433 0.95149 0
M  V30 226 H 19.0754 3.48061 -1.15105 0
M  V30 227 H 18.7234 4.96034 0.83422 0
M  V30 228 H 18.4234 5.83557 -0.688149 0
M  V30 229 H 19.9474 6.10255 0.205238 0
M  V30 230 H 21.3614 5.39055 -1.95172 0
M  V30 231 H 19.7584 5.33834 -2.74119 0
M  V30 232 H 20.8284 3.92844 -2.84257 0
M  V30 233 N 22.1715 0.800033 1.35784 0
M  V30 234 C 23.1015 0.220184 2.3246 0
M  V30 235 C 24.0825 -0.65073 1.57161 0
M  V30 236 O 25.2675 -0.582359 1.85263 0
M  V30 237 C 22.3975 -0.637353 3.41402 0
M  V30 238 C 21.3515 0.134531 4.27789 0
M  V30 239 C 20.6775 -0.844285 5.27992 0
M  V30 240 C 21.9775 1.32979 5.05088 0
M  V30 241 H 23.6715 1.02787 2.81203 0
M  V30 242 H 21.2175 0.495717 1.35199 0
M  V30 243 H 23.1705 -1.05302 4.08031 0
M  V30 244 H 21.8945 -1.47785 2.91251 0
M  V30 245 H 20.5535 0.531296 3.6273 0
M  V30 246 H 20.2015 -1.68011 4.74111 0
M  V30 247 H 19.9015 -0.332184 5.8666 0
M  V30 248 H 21.4255 -1.2583 5.97494 0
M  V30 249 H 22.8395 0.98934 5.64699 0
M  V30 250 H 21.2365 1.77593 5.7322 0
M  V30 251 H 22.3065 2.11978 4.36111 0
M  V30 252 N 23.6496 -1.47581 0.552962 0
M  V30 253 C 24.5796 -2.32762 -0.185451 0
M  V30 254 C 25.5606 -1.43527 -0.912905 0
M  V30 255 O 26.7456 -1.72388 -0.894201 0
M  V30 256 C 23.8756 -3.25219 -1.21859 0
M  V30 257 C 22.8296 -4.23661 -0.607864 0
M  V30 258 C 22.1556 -5.05413 -1.74533 0
M  V30 259 C 23.4556 -5.20481 0.435582 0
M  V30 260 H 25.1496 -2.94749 0.525684 0
M  V30 261 H 22.6956 -1.41738 0.254251 0
M  V30 262 H 24.6486 -3.8365 -1.7433 0
M  V30 263 H 23.3726 -2.61279 -1.95961 0
M  V30 264 H 22.0316 -3.66451 -0.104489 0
M  V30 265 H 21.6796 -4.3788 -2.47529 0
M  V30 266 H 21.3796 -5.72059 -1.34249 0
M  V30 267 H 22.9036 -5.66701 -2.27338 0
M  V30 268 H 24.3176 -5.733 -0.00290157 0
M  V30 269 H 22.7146 -5.95305 0.757067 0
M  V30 270 H 23.7846 -4.66217 1.33303 0
M  V30 271 N 25.1277 -0.289203 -1.54924 0
M  V30 272 C 26.0577 0.58549 -2.2604 0
M  V30 273 C 27.0387 1.14753 -1.25562 0
M  V30 274 O 28.2237 1.17906 -1.54311 0
M  V30 275 C 25.3537 1.76305 -2.99222 0
M  V30 276 C 24.3077 1.33191 -4.06748 0
M  V30 277 C 23.6337 2.5937 -4.6758 0
M  V30 278 C 24.9337 0.471775 -5.20165 0
M  V30 279 H 26.6277 -0.00763532 -2.99399 0
M  V30 280 H 24.1737 -0.00511229 -1.43999 0
M  V30 281 H 26.1267 2.38097 -3.47689 0
M  V30 282 H 24.8507 2.38223 -2.23422 0
M  V30 283 H 23.5097 0.737121 -3.59113 0
M  V30 284 H 23.1577 3.19576 -3.88433 0
M  V30 285 H 22.8577 2.31228 -5.40192 0
M  V30 286 H 24.3817 3.21985 -5.18804 0
M  V30 287 H 25.7957 0.995056 -5.64599 0
M  V30 288 H 24.1927 0.284639 -5.99425 0
M  V30 289 H 25.2627 -0.506041 -4.82252 0
M  V30 290 N 26.6058 1.57591 -0.0167156 0
M  V30 291 C 27.5358 2.12496 0.967858 0
M  V30 292 C 28.5168 1.03807 1.34752 0
M  V30 293 O 29.7018 1.31577 1.42833 0
M  V30 294 C 26.8318 2.64194 2.25431 0
M  V30 295 C 25.7858 3.77559 2.01576 0
M  V30 296 C 25.1118 4.15636 3.36379 0
M  V30 297 C 26.4118 5.04151 1.36489 0
M  V30 298 H 28.1058 2.95013 0.510643 0
M  V30 299 H 25.6518 1.41915 0.244181 0
M  V30 300 H 27.6048 3.01236 2.94678 0
M  V30 301 H 26.3288 1.78821 2.73296 0
M  V30 302 H 24.9878 3.40937 1.34751 0
M  V30 303 H 24.6358 3.27263 3.81979 0
M  V30 304 H 24.3358 4.92022 3.21229 0
M  V30 305 H 25.8598 4.5525 4.06915 0
M  V30 306 H 27.2738 5.38857 1.95718 0
M  V30 307 H 25.6708 5.85453 1.31776 0
M  V30 308 H 26.7408 4.83733 0.336219 0
M  V30 309 N 28.0839 -0.256276 1.55502 0
M  V30 310 C 29.3089 -1.00766 1.81276 0
M  V30 311 C 29.7339 -1.78524 0.59252 0
M  V30 312 O 29.0919 -1.75413 -0.45827 0
M  V30 313 C 29.1399 -1.92869 3.04687 0
M  V30 314 O 28.2439 -3.019 2.80945 0
M  V30 315 H 27.5849 -0.287224 0.598664 0
M  V30 316 H 30.1149 -0.280109 2.02674 0
M  V30 317 H 30.1249 -2.34511 3.33869 0
M  V30 318 H 28.7999 -1.35689 3.93143 0
M  V30 319 H 27.3769 -2.64454 2.62904 0
M  V30 320 N 29.562 -1.4872 -0.521534 0
M  V30 321 C 30.978 -1.35028 -0.850855 0
M  V30 322 C 31.178 -0.367712 -1.98116 0
M  V30 323 O 30.234 0.208037 -2.51642 0
M  V30 324 C 31.547 -2.75263 -1.21041 0
M  V30 325 C 33.095 -2.83813 -1.31981 0
M  V30 326 C 33.57 -4.24769 -1.71276 0
M  V30 327 N 35.061 -4.27482 -1.78363 0
M  V30 328 C 35.796 -5.33494 -2.1017 0
M  V30 329 N 35.292 -6.49775 -2.40343 0
M  V30 330 N 37.085 -5.20894 -2.11248 0
M  V30 331 H 29.236 -2.11214 0.22413 0
M  V30 332 H 31.499 -0.947252 0.0376439 0
M  V30 333 H 31.205 -3.48765 -0.453415 0
M  V30 334 H 31.079 -3.09327 -2.15863 0
M  V30 335 H 33.466 -2.10561 -2.06756 0
M  V30 336 H 33.547 -2.53358 -0.352596 0
M  V30 337 H 33.191 -4.9854 -0.970588 0
M  V30 338 H 33.121 -4.52673 -2.69062 0
M  V30 339 H 35.612 -3.43611 -1.57288 0
M  V30 340 H 35.925 -7.26402 -2.63743 0
M  V30 341 H 34.27 -6.53035 -2.37844 0
M  V30 342 H 37.461 -4.29065 -1.87139 0
M  V30 343 H 37.634 -6.03612 -2.35704 0
M  V30 344 N 31.0401 0.771051 -1.3745 0
M  V30 345 C 32.4561 1.07171 -1.18265 0
M  V30 346 C 32.6561 2.01491 -0.019287 0
M  V30 347 O 31.7121 2.44244 0.640408 0
M  V30 348 C 33.0251 1.66854 -2.50161 0
M  V30 349 C 34.5731 1.79109 -2.56689 0
M  V30 350 C 35.0481 2.42205 -3.88717 0
M  V30 351 N 36.5391 2.49655 -3.90162 0
M  V30 352 C 37.2741 2.9933 -4.8907 0
M  V30 353 N 36.7701 3.49172 -5.98374 0
M  V30 354 N 38.5631 2.9821 -4.76474 0
M  V30 355 H 30.7141 0.144796 -2.11906 0
M  V30 356 H 32.9771 0.126863 -0.939473 0
M  V30 357 H 32.6831 1.05017 -3.35655 0
M  V30 358 H 32.5571 2.6614 -2.673 0
M  V30 359 H 34.9441 2.40077 -1.71601 0
M  V30 360 H 35.0251 0.785757 -2.43433 0
M  V30 361 H 34.6691 1.81875 -4.74219 0
M  V30 362 H 34.5991 3.43345 -3.99276 0
M  V30 363 H 37.0901 2.14383 -3.11205 0
M  V30 364 H 37.4031 3.8548 -6.69795 0
M  V30 365 H 35.7481 3.47275 -6.02018 0
M  V30 366 H 38.9391 2.58572 -3.90203 0
M  V30 367 H 39.1121 3.36613 -5.53711 0
M  V30 368 N 32.5182 1.22032 0.997298 0
M  V30 369 C 33.9342 0.979326 1.26021 0
M  V30 370 C 34.1342 -0.32972 1.98784 0
M  V30 371 O 33.1902 -1.05345 2.29475 0
M  V30 372 C 34.5032 2.17509 2.07631 0
M  V30 373 C 36.0512 2.21817 2.2083 0
M  V30 374 C 36.5262 3.40933 3.05825 0
M  V30 375 N 38.0172 3.41067 3.13412 0
M  V30 376 C 38.7522 4.29885 3.79455 0
M  V30 377 N 38.2482 5.28914 4.47462 0
M  V30 378 N 40.0412 4.17673 3.76173 0
M  V30 379 H 32.1922 2.06202 0.509352 0
M  V30 380 H 34.4552 0.90334 0.287541 0
M  V30 381 H 34.1612 3.12415 1.61524 0
M  V30 382 H 34.0352 2.17206 3.08385 0
M  V30 383 H 36.4222 1.27462 2.66153 0
M  V30 384 H 36.5032 2.2616 1.1952 0
M  V30 385 H 36.1472 4.35586 2.61203 0
M  V30 386 H 36.0772 3.33829 4.07266 0
M  V30 387 H 38.5682 2.69406 2.65007 0
M  V30 388 H 38.8812 5.92973 4.95583 0
M  V30 389 H 37.2262 5.32831 4.46224 0
M  V30 390 H 40.4172 3.39564 3.22202 0
M  V30 391 H 40.5902 4.87098 4.27363 0
M  V30 392 N 33.9963 -1.19345 1.0293 0
M  V30 393 C 35.2243 -1.92997 0.745644 0
M  V30 394 C 35.6393 -1.75519 -0.695589 0
M  V30 395 O 34.9963 -1.07737 -1.47306 0
M  V30 396 C 35.0473 -3.44741 1.08792 0
M  V30 397 O 34.7683 -3.61658 2.47256 0
M  V30 398 C 36.2693 -4.35515 0.827129 0
M  V30 399 H 33.4893 -0.613042 0.272801 0
M  V30 400 H 36.0333 -1.51473 1.3739 0
M  V30 401 H 34.1883 -3.84097 0.504832 0
M  V30 402 H 34.6023 -4.55514 2.60015 0
M  V30 403 H 36.0763 -5.40589 1.11658 0
M  V30 404 H 36.5533 -4.38552 -0.238436 0
M  V30 405 H 37.1593 -4.01841 1.39297 0
M  V30 406 N 35.4744 -0.807222 -1.35358 0
M  V30 407 C 36.8904 -0.491038 -1.51858 0
M  V30 408 C 37.0904 0.987648 -1.75635 0
M  V30 409 O 36.1464 1.77265 -1.79815 0
M  V30 410 C 37.4594 -1.33695 -2.69344 0
M  V30 411 C 39.0074 -1.33246 -2.83222 0
M  V30 412 C 39.4824 -2.1625 -4.03733 0
M  V30 413 N 40.9734 -2.1379 -4.10911 0
M  V30 414 C 41.7084 -2.74772 -5.03277 0
M  V30 415 N 41.2044 -3.44684 -6.0097 0
M  V30 416 N 42.9974 -2.6441 -4.96028 0
M  V30 417 H 35.1484 -1.76485 -1.18181 0
M  V30 418 H 37.4114 -0.751199 -0.578276 0
M  V30 419 H 37.1174 -2.38634 -2.58354 0
M  V30 420 H 36.9914 -0.990618 -3.6396 0
M  V30 421 H 39.3784 -0.290911 -2.93663 0
M  V30 422 H 39.4594 -1.71866 -1.89461 0
M  V30 423 H 39.1034 -3.20445 -3.94052 0
M  V30 424 H 39.0334 -1.74989 -4.96675 0
M  V30 425 H 41.5244 -1.62923 -3.40976 0
M  V30 426 H 41.8374 -3.88501 -6.68047 0
M  V30 427 H 40.1824 -3.48788 -6.01142 0
M  V30 428 H 43.3734 -2.0938 -4.18662 0
M  V30 429 H 43.5464 -3.12225 -5.6782 0
M  V30 430 N 36.9525 1.47285 -0.560781 0
M  V30 431 C 38.3685 1.58065 -0.22081 0
M  V30 432 C 38.5685 1.55892 1.27671 0
M  V30 433 O 37.6245 1.46422 2.0571 0
M  V30 434 C 38.9375 2.88418 -0.850625 0
M  V30 435 C 40.4855 3.02009 -0.822184 0
M  V30 436 C 40.9605 4.35066 -1.43113 0
M  V30 437 N 42.4515 4.41711 -1.39448 0
M  V30 438 C 43.1865 5.43237 -1.83525 0
M  V30 439 N 42.6825 6.51555 -2.35474 0
M  V30 440 N 44.4755 5.34304 -1.74574 0
M  V30 441 H 36.6265 1.46941 -1.53369 0
M  V30 442 H 38.8895 0.699558 -0.639783 0
M  V30 443 H 38.5955 2.95755 -1.9032 0
M  V30 444 H 38.4695 3.75612 -0.345773 0
M  V30 445 H 40.8565 2.94266 0.221714 0
M  V30 446 H 40.9375 2.16347 -1.36483 0
M  V30 447 H 40.5815 4.43565 -2.47412 0
M  V30 448 H 40.5115 5.19465 -0.863899 0
M  V30 449 H 43.0025 3.64027 -1.01452 0
M  V30 450 H 43.3155 7.25203 -2.67021 0
M  V30 451 H 41.6605 6.52435 -2.39487 0
M  V30 452 H 44.8515 4.48581 -1.33763 0
M  V30 453 H 45.0245 6.13288 -2.09242 0
M  V30 454 N 38.4306 0.297415 1.54768 0
M  V30 455 C 39.8416 -0.195947 1.85669 0
M  V30 456 C 40.1926 -1.53707 1.21937 0
M  V30 457 O 39.3176 -2.10164 0.515754 0
M  V30 458 C 39.9126 -0.362318 3.36857 0
M  V30 459 C 38.4716 -0.799901 3.67802 0
M  V30 460 C 37.6186 0.0938578 2.77141 0
M  V30 461 H 40.5696 0.518538 1.4999 0
M  V30 462 H 40.5906 -1.19745 3.61167 0
M  V30 463 H 40.1026 0.613921 3.83214 0
M  V30 464 H 38.2036 -1.78682 3.26961 0
M  V30 465 H 38.3166 -0.621773 4.75048 0
M  V30 466 H 36.6806 -0.426254 2.51108 0
M  V30 467 H 37.4636 1.06639 3.26318 0
M  V30 468 N 39.9087 -1.5758 0.0250728 0
M  V30 469 C 41.1567 -1.91255 -0.653151 0
M  V30 470 C 41.4777 -0.901691 -1.729 0
M  V30 471 O 40.7477 0.0573785 -1.95816 0
M  V30 472 H 39.3277 -0.705942 -0.244243 0
M  V30 473 H 41.9897 -1.94767 0.0719209 0
M  V30 474 H 41.0857 -2.91752 -1.10847 0
M  V30 475 N 41.3868 0.248026 -1.55636 0
M  V30 476 C 42.2968 1.32859 -1.93354 0
M  V30 477 C 43.3128 1.52719 -0.833838 0
M  V30 478 O 44.4888 1.66363 -1.13513 0
M  V30 479 C 41.5538 2.66337 -2.21958 0
M  V30 480 C 40.6148 2.55008 -3.45354 0
M  V30 481 C 39.8478 3.82121 -3.72584 0
M  V30 482 O 40.0708 4.83951 -3.01907 0
M  V30 483 O 39.0048 3.80822 -4.6611 0
M  V30 484 H 42.8308 1.03862 -2.85388 0
M  V30 485 H 40.4158 0.448686 -1.42503 0
M  V30 486 H 42.2978 3.45216 -2.4167 0
M  V30 487 H 40.9728 2.95068 -1.33103 0
M  V30 488 H 39.8798 1.7442 -3.30951 0
M  V30 489 H 41.2128 2.31222 -4.34508 0
M  V30 490 N 42.8649 1.48995 0.513639 0
M  V30 491 C 44.2759 1.5119 1.09537 0
M  V30 492 C 44.6269 0.290906 1.94031 0
M  V30 493 O 43.7519 -0.60049 2.07902 0
M  V30 494 C 44.3469 2.73964 1.99322 0
M  V30 495 C 42.9059 2.78978 2.52682 0
M  V30 496 C 42.0529 2.44934 1.30009 0
M  V30 497 H 45.0039 1.55875 0.298125 0
M  V30 498 H 45.0249 2.53409 2.83838 0
M  V30 499 H 44.5369 3.62813 1.37799 0
M  V30 500 H 42.6379 1.94378 3.1788 0
M  V30 501 H 42.7509 3.8083 2.90698 0
M  V30 502 H 41.1149 1.9644 1.62122 0
M  V30 503 H 41.8979 3.36043 0.702131 0
M  V30 504 N 44.343 -0.763751 1.37857 0
M  V30 505 C 45.754 -1.3405 1.29952 0
M  V30 506 C 46.105 -1.96138 -0.0492898 0
M  V30 507 O 45.23 -1.94372 -0.951239 0
M  V30 508 C 45.825 -2.43729 2.35333 0
M  V30 509 C 44.384 -2.97151 2.31037 0
M  V30 510 C 43.531 -1.70438 2.18738 0
M  V30 511 H 46.482 -0.563396 1.48363 0
M  V30 512 H 46.503 -3.23412 2.00462 0
M  V30 513 H 46.015 -1.9851 3.33489 0
M  V30 514 H 44.116 -3.46724 1.3643 0
M  V30 515 H 44.229 -3.52221 3.24772 0
M  V30 516 H 42.593 -1.93673 1.65418 0
M  V30 517 H 43.376 -1.27312 3.18821 0
M  V30 518 N 45.8211 -1.22559 -0.990812 0
M  V30 519 C 46.7511 -1.0218 -2.09956 0
M  V30 520 C 47.7321 0.0579394 -1.70001 0
M  V30 521 O 48.9171 -0.104684 -1.93918 0
M  V30 522 C 46.0471 -0.601023 -3.4206 0
M  V30 523 C 45.0011 -1.62694 -3.95872 0
M  V30 524 C 44.3271 -1.06193 -5.24049 0
M  V30 525 C 45.6271 -3.01743 -4.2632 0
M  V30 526 H 47.3211 -1.94916 -2.27262 0
M  V30 527 H 44.8671 -0.938566 -1.09211 0
M  V30 528 H 46.8201 -0.445561 -4.19038 0
M  V30 529 H 45.5441 0.362005 -3.24588 0
M  V30 530 H 44.2031 -1.77021 -3.21028 0
M  V30 531 H 43.8511 -0.0901903 -5.02919 0
M  V30 532 H 43.5511 -1.74732 -5.61019 0
M  V30 533 H 45.0751 -0.918092 -6.03658 0
M  V30 534 H 46.4891 -2.90777 -4.94087 0
M  V30 535 H 44.8861 -3.67425 -4.74467 0
M  V30 536 H 45.9561 -3.51518 -3.34011 0
M  V30 537 N 47.2992 1.18797 -1.03562 0
M  V30 538 C 48.5762 1.84469 -0.650434 0
M  V30 539 C 48.9562 1.92319 0.870433 0
M  V30 540 O 48.3042 1.44528 1.76986 0
M  V30 541 C 48.5142 3.2306 -1.32036 0
M  V30 542 C 49.8622 3.9915 -1.44792 0
M  V30 543 O 50.8862 3.32481 -1.27806 0
M  V30 544 O 49.7452 5.18587 -1.72423 0
M  V30 545 H 46.8392 0.795251 -0.226946 0
M  V30 546 H 49.3852 1.26231 -1.13419 0
M  V30 547 H 48.1572 3.1222 -2.3587 0
M  V30 548 H 47.7802 3.88949 -0.8249 0
M  V30 549 N 48.7773 0.814389 1.34928 0
M  V30 550 C 49.7073 0.244827 2.32213 0
M  V30 551 C 50.6883 -0.634024 1.57842 0
M  V30 552 O 51.8733 -0.562676 1.8587 0
M  V30 553 C 49.0033 -0.601106 3.42058 0
M  V30 554 C 47.9573 0.179896 4.27622 0
M  V30 555 C 47.2833 -0.788237 5.28858 0
M  V30 556 C 48.5833 1.38329 5.03649 0
M  V30 557 H 50.2773 1.05763 2.80097 0
M  V30 558 H 47.8233 0.510029 1.34665 0
M  V30 559 H 49.7763 -1.00968 4.09125 0
M  V30 560 H 48.5003 -1.44688 2.92802 0
M  V30 561 H 47.1593 0.569739 3.62146 0
M  V30 562 H 46.8073 -1.62973 4.75866 0
M  V30 563 H 46.5073 -0.269942 5.8698 0
M  V30 564 H 48.0313 -1.19485 5.98795 0
M  V30 565 H 49.4453 1.04918 5.63618 0
M  V30 566 H 47.8423 1.83662 5.71304 0
M  V30 567 H 48.9123 2.16592 4.33839 0
M  V30 568 N 50.2554 -1.46986 0.568584 0
M  V30 569 C 51.5034 -2.02041 0.0487022 0
M  V30 570 C 51.8244 -1.44408 -1.31039 0
M  V30 571 O 51.0944 -0.623477 -1.85714 0
M  V30 572 H 49.6744 -0.746849 0.015014 0
M  V30 573 H 52.3364 -1.80257 0.741168 0
M  V30 574 H 51.4324 -3.12085 -0.0308961 0
M  V30 575 N 51.7335 -0.305618 -1.54608 0
M  V30 576 C 52.9585 0.307562 -2.05107 0
M  V30 577 C 53.3835 1.46385 -1.18123 0
M  V30 578 O 52.7415 1.8034 -0.186324 0
M  V30 579 C 52.7895 0.73704 -3.52987 0
M  V30 580 O 51.8935 1.84134 -3.6901 0
M  V30 581 H 51.2345 0.0589143 -0.661381 0
M  V30 582 H 53.7645 -0.448807 -1.99617 0
M  V30 583 H 53.7745 1.02459 -3.94925 0
M  V30 584 H 52.4495 -0.108773 -4.15758 0
M  V30 585 H 51.0265 1.55398 -3.38978 0
M  V30 586 N 53.2116 1.57565 -0.0334293 0
M  V30 587 C 54.4606 1.91155 0.643639 0
M  V30 588 C 54.7736 0.91192 1.73042 0
M  V30 589 O 55.9796 1.13923 2.46442 0
M  V30 590 C 54.4356 3.39443 1.1961 0
M  V30 591 C 54.0436 4.47774 0.142381 0
M  V30 592 C 55.7876 3.82094 1.84944 0
M  V30 593 C 53.6946 5.87162 0.706727 0
M  V30 594 H 52.6246 0.713368 0.244176 0
M  V30 595 H 55.2756 1.8323 -0.0994323 0
M  V30 596 H 53.6576 3.42313 1.99092 0
M  V30 597 H 54.8316 4.56469 -0.630296 0
M  V30 598 H 53.1466 4.14352 -0.412446 0
M  V30 599 H 55.7436 4.83591 2.2813 0
M  V30 600 H 56.0866 3.17386 2.69392 0
M  V30 601 H 56.6196 3.81665 1.12145 0
M  V30 602 H 53.3586 6.55424 -0.0997178 0
M  V30 603 H 52.8786 5.82064 1.44779 0
M  V30 604 H 54.5576 6.35866 1.19514 0
M  V30 605 N 54.6897 -0.239769 1.55765 0
M  V30 606 C 56.1007 -0.808263 1.68297 0
M  V30 607 C 56.4517 -1.85736 0.632181 0
M  V30 608 O 55.5767 -2.15277 -0.220204 0
M  V30 609 C 56.1717 -1.47284 3.05111 0
M  V30 610 C 54.7307 -1.98895 3.19559 0
M  V30 611 C 53.8777 -0.842575 2.64189 0
M  V30 612 H 56.8287 -0.0154422 1.58692 0
M  V30 613 H 56.8497 -2.34111 2.99954 0
M  V30 614 H 56.3617 -0.709053 3.81568 0
M  V30 615 H 54.4627 -2.78132 2.47938 0
M  V30 616 H 54.5757 -2.18143 4.26556 0
M  V30 617 H 52.9397 -1.24501 2.22197 0
M  V30 618 H 53.7227 -0.0917552 3.43177 0
M  V30 619 N 56.1678 -1.49265 -0.50573 0
M  V30 620 C 57.4138 -1.59723 -1.25937 0
M  V30 621 C 57.7688 -0.278236 -1.90378 0
M  V30 622 O 57.0618 0.72113 -1.77511 0
M  V30 623 C 57.2558 -2.69008 -2.35308 0
M  V30 624 C 57.0848 -4.11405 -1.81592 0
M  V30 625 C 55.8548 -4.78252 -1.63105 0
M  V30 626 C 58.0528 -4.96792 -1.33048 0
M  V30 627 N 56.0348 -6.0498 -1.04269 0
M  V30 628 C 57.4058 -6.13962 -0.863168 0
M  V30 629 C 59.4608 -4.82828 -1.21577 0
M  V30 630 C 58.1638 -7.18705 -0.292489 0
M  V30 631 C 60.1898 -5.87716 -0.65907 0
M  V30 632 C 59.5518 -7.0411 -0.201954 0
M  V30 633 H 55.6508 -0.638864 -0.450973 0
M  V30 634 H 58.2348 -1.86251 -0.567326 0
M  V30 635 H 56.4058 -2.4426 -3.01979 0
M  V30 636 H 58.1378 -2.69013 -3.02348 0
M  V30 637 H 54.8928 -4.34974 -1.87336 0
M  V30 638 H 55.3168 -6.72631 -0.767919 0
M  V30 639 H 59.9588 -3.93159 -1.55518 0
M  V30 640 H 57.6768 -8.08078 0.0591987 0
M  V30 641 H 61.2628 -5.7897 -0.573156 0
M  V30 642 H 60.1428 -7.83885 0.222101 0
M  V30 643 N 57.6459 0.756429 -1.3826 0
M  V30 644 C 58.5759 1.88374 -1.37976 0
M  V30 645 C 59.5569 1.68311 -0.246082 0
M  V30 646 O 60.7419 1.88944 -0.44874 0
M  V30 647 C 57.8719 3.25864 -1.20125 0
M  V30 648 C 56.8259 3.60523 -2.30666 0
M  V30 649 C 56.1519 4.9672 -1.97923 0
M  V30 650 C 57.4519 3.65692 -3.72916 0
M  V30 651 H 59.1459 1.88869 -2.32312 0
M  V30 652 H 56.6919 0.907272 -1.11824 0
M  V30 653 H 58.6449 4.0438 -1.18552 0
M  V30 654 H 57.3689 3.25841 -0.222498 0
M  V30 655 H 56.0279 2.84324 -2.3142 0
M  V30 656 H 55.6759 4.93253 -0.985393 0
M  V30 657 H 55.3759 5.20878 -2.71955 0
M  V30 658 H 56.8999 5.77618 -1.97964 0
M  V30 659 H 58.3139 4.34328 -3.74208 0
M  V30 660 H 56.7109 4.01358 -4.4613 0
M  V30 661 H 57.7809 2.65987 -4.05436 0
M  V30 662 N 59.124 1.23083 0.984299 0
M  V30 663 C 60.372 1.05848 1.72165 0
M  V30 664 C 60.693 -0.406049 1.90726 0
M  V30 665 O 59.963 -1.29139 1.47309 0
M  V30 666 H 58.543 0.388685 0.637913 0
M  V30 667 H 61.205 1.54736 1.18503 0
M  V30 668 H 60.301 1.54327 2.71274 0
M  V30 669 N 60.6021 -1.18246 1.0419 0
M  V30 670 C 61.8321 -1.91916 0.764961 0
M  V30 671 C 62.2401 -1.76485 -0.681898 0
M  V30 672 O 61.5831 -1.09275 -1.47664 0
M  V30 673 C 61.6451 -3.4373 1.05309 0
M  V30 674 C 61.3091 -3.8294 2.4941 0
M  V30 675 C 62.3061 -3.86621 3.47592 0
M  V30 676 C 59.9911 -4.142 2.84155 0
M  V30 677 C 61.9851 -4.21013 4.78568 0
M  V30 678 C 59.6721 -4.48262 4.15337 0
M  V30 679 C 60.6701 -4.51645 5.12353 0
M  V30 680 O 60.3581 -4.84911 6.41183 0
M  V30 681 H 60.0901 -0.61606 0.278292 0
M  V30 682 H 62.6441 -1.50947 1.39299 0
M  V30 683 H 60.8741 -3.84946 0.367933 0
M  V30 684 H 62.5631 -3.9865 0.763752 0
M  V30 685 H 63.3291 -3.62607 3.22089 0
M  V30 686 H 59.2081 -4.10743 2.09311 0
M  V30 687 H 62.7521 -4.23568 5.54289 0
M  V30 688 H 58.6491 -4.71737 4.40607 0
M  V30 689 H 59.4171 -5.02809 6.45852 0
M  V30 690 N 62.0802 -0.821533 -1.34494 0
M  V30 691 C 63.0432 -0.247847 -2.27856 0
M  V30 692 C 64.0432 0.573453 -1.50227 0
M  V30 693 O 65.2332 0.389759 -1.69784 0
M  V30 694 C 62.3652 0.652698 -3.34593 0
M  V30 695 H 63.5582 -1.07146 -2.80107 0
M  V30 696 H 61.1112 -0.593291 -1.44602 0
M  V30 697 H 61.8462 1.49943 -2.87555 0
M  V30 698 H 61.6312 0.065292 -3.92046 0
M  V30 699 H 63.1212 1.04793 -4.04238 0
M  V30 700 N 63.5583 1.46682 -0.576371 0
M  V30 701 C 64.4883 2.33028 0.148397 0
M  V30 702 C 65.4693 1.44961 0.889956 0
M  V30 703 O 66.6543 1.73789 0.866662 0
M  V30 704 C 63.7843 3.27117 1.1667 0
M  V30 705 C 62.7383 4.24575 0.540386 0
M  V30 706 C 62.0643 5.08126 1.6647 0
M  V30 707 C 63.3643 5.19722 -0.518331 0
M  V30 708 H 65.0583 2.93875 -0.572509 0
M  V30 709 H 62.6043 1.41315 -0.276768 0
M  V30 710 H 64.5573 3.86374 1.68204 0
M  V30 711 H 63.2813 2.64364 1.9178 0
M  V30 712 H 61.9403 3.66571 0.0461769 0
M  V30 713 H 61.5883 4.41762 2.40531 0
M  V30 714 H 61.2883 5.74122 1.25131 0
M  V30 715 H 62.8123 5.70246 2.18293 0
M  V30 716 H 64.2263 5.73232 -0.0883058 0
M  V30 717 H 62.6233 5.94026 -0.851679 0
M  V30 718 H 63.6933 4.64037 -1.40703 0
M  V30 719 N 65.0364 0.313813 1.54444 0
M  V30 720 C 66.3134 -0.345447 1.92525 0
M  V30 721 C 66.6934 -1.70667 1.24242 0
M  V30 722 O 66.0414 -2.25273 0.382654 0
M  V30 723 C 66.2514 -0.44737 3.46121 0
M  V30 724 C 67.5994 -0.712238 4.18584 0
M  V30 725 O 68.6234 -0.530678 3.52225 0
M  V30 726 O 67.4824 -1.06183 5.36085 0
M  V30 727 H 64.5764 -0.195407 0.803583 0
M  V30 728 H 67.1224 0.362813 1.65776 0
M  V30 729 H 65.8944 0.509043 3.87975 0
M  V30 730 H 65.5174 -1.20359 3.78945 0
M  V30 731 N 66.5145 -1.57545 0.0417849 0
M  V30 732 C 67.7615 -1.92317 -0.634082 0
M  V30 733 C 68.0895 -0.919334 -1.71402 0
M  V30 734 O 67.3445 0.0698253 -1.95575 0
M  V30 735 C 67.6435 -3.33794 -1.27735 0
M  V30 736 C 67.3095 -4.49716 -0.326543 0
M  V30 737 C 65.9715 -4.81156 -0.0648814 0
M  V30 738 C 68.3235 -5.20182 0.325623 0
M  V30 739 C 65.6515 -5.80414 0.856539 0
M  V30 740 C 68.0035 -6.20424 1.23518 0
M  V30 741 C 66.6675 -6.50298 1.5056 0
M  V30 742 H 65.9375 -0.703736 -0.232027 0
M  V30 743 H 68.5845 -1.91205 0.106259 0
M  V30 744 H 66.8895 -3.31228 -2.09274 0
M  V30 745 H 68.5865 -3.57975 -1.80707 0
M  V30 746 H 65.1765 -4.25176 -0.540665 0
M  V30 747 H 69.3605 -4.96112 0.136546 0
M  V30 748 H 64.6165 -6.019 1.07363 0
M  V30 749 H 68.7905 -6.74141 1.74664 0
M  V30 750 H 66.4175 -7.27025 2.22123 0
M  V30 751 N 67.9926 0.231505 -1.5589 0
M  V30 752 C 69.2406 0.955461 -1.78088 0
M  V30 753 C 69.5616 1.85262 -0.608533 0
M  V30 754 O 68.8316 1.92277 0.375035 0
M  V30 755 H 67.4116 0.355787 -0.656829 0
M  V30 756 H 70.0736 0.245751 -1.93344 0
M  V30 757 H 69.1696 1.56814 -2.69844 0
M  V30 758 N 69.4707 1.49531 0.497807 0
M  V30 759 C 70.4177 1.66436 1.59899 0
M  V30 760 C 71.3877 0.505793 1.58212 0
M  V30 761 O 72.5727 0.733202 1.7615 0
M  V30 762 C 69.7127 1.7399 2.98029 0
M  V30 763 C 68.8257 3.01172 3.09708 0
M  V30 764 C 67.9607 2.99686 4.38591 0
M  V30 765 C 66.9997 4.21434 4.43914 0
M  V30 766 N 66.1367 4.1784 5.64229 0
M  V30 767 H 70.9767 2.60459 1.44793 0
M  V30 768 H 68.5137 1.29137 0.704423 0
M  V30 769 H 70.4717 1.76352 3.78095 0
M  V30 770 H 69.1017 0.834301 3.11832 0
M  V30 771 H 68.1537 3.08408 2.22685 0
M  V30 772 H 69.4657 3.91165 3.09502 0
M  V30 773 H 68.6197 3.00628 5.2698 0
M  V30 774 H 67.3587 2.07477 4.41367 0
M  V30 775 H 66.3637 4.20733 3.53926 0
M  V30 776 H 67.5887 5.14839 4.42851 0
M  V30 777 H 65.5347 3.28469 5.67841 0
M  V30 778 H 65.4517 5.01571 5.65652 0
M  V30 779 H 66.7197 4.22889 6.54817 0
M  V30 780 N 70.9488 -0.749086 1.3866 0
M  V30 781 C 72.2258 -1.4992 1.25632 0
M  V30 782 C 72.6058 -2.10633 -0.140317 0
M  V30 783 O 71.9538 -1.97437 -1.15025 0
M  V30 784 C 72.1638 -2.56195 2.36992 0
M  V30 785 C 73.5118 -3.22972 2.75634 0
M  V30 786 O 74.5358 -2.66502 2.36337 0
M  V30 787 O 73.3948 -4.25122 3.43415 0
M  V30 788 H 70.4888 -0.665067 0.491544 0
M  V30 789 H 73.0348 -0.784113 1.50498 0
M  V30 790 H 71.8068 -2.09612 3.30422 0
M  V30 791 H 71.4298 -3.35279 2.13714 0
M  V30 792 N 72.4269 -1.23603 -0.977757 0
M  V30 793 C 73.3899 -1.02069 -2.05218 0
M  V30 794 C 74.3899 0.0184305 -1.60789 0
M  V30 795 O 75.5799 -0.221569 -1.72785 0
M  V30 796 C 72.7119 -0.544926 -3.36517 0
M  V30 797 H 73.9049 -1.9742 -2.25755 0
M  V30 798 H 71.4579 -1.05684 -1.15155 0
M  V30 799 H 72.1929 0.412241 -3.21669 0
M  V30 800 H 71.9779 -1.2948 -3.70105 0
M  V30 801 H 73.4679 -0.414985 -4.15533 0
M  V30 802 N 73.905 1.17692 -1.04816 0
M  V30 803 C 74.868 2.19787 -0.650117 0
M  V30 804 C 75.868 1.58044 0.296427 0
M  V30 805 O 77.058 1.74012 0.0808097 0
M  V30 806 C 74.19 3.40869 0.0456987 0
M  V30 807 H 75.383 2.56516 -1.5537 0
M  V30 808 H 72.936 1.31708 -0.841594 0
M  V30 809 H 73.671 3.09681 0.962726 0
M  V30 810 H 73.456 3.86928 -0.634727 0
M  V30 811 H 74.946 4.16445 0.310432 0
M  V30 812 N 75.3831 0.828654 1.34056 0
M  V30 813 C 76.6081 0.431637 2.02859 0
M  V30 814 C 77.0331 -0.956339 1.61975 0
M  V30 815 O 76.3911 -1.62338 0.807228 0
M  V30 816 C 76.4391 0.548323 3.56407 0
M  V30 817 O 75.5431 -0.429556 4.10157 0
M  V30 818 H 74.8841 0.176886 0.640006 0
M  V30 819 H 77.4141 1.12066 1.71179 0
M  V30 820 H 77.4241 0.426196 4.05768 0
M  V30 821 H 76.0991 1.5606 3.8551 0
M  V30 822 H 74.6761 -0.265836 3.71951 0
M  V30 823 N 76.8612 -1.46375 0.584142 0
M  V30 824 C 78.1082 -2.02378 0.0702675 0
M  V30 825 C 78.4362 -1.45545 -1.29023 0
M  V30 826 O 77.6912 -0.610967 -1.85918 0
M  V30 827 C 77.9902 -3.57373 -0.0439342 0
M  V30 828 C 77.6562 -4.33252 1.24915 0
M  V30 829 C 76.3182 -4.53701 1.60341 0
M  V30 830 C 78.6702 -4.7681 2.1048 0
M  V30 831 C 75.9982 -5.1496 2.81128 0
M  V30 832 C 78.3502 -5.39404 3.30494 0
M  V30 833 C 77.0142 -5.5808 3.66201 0
M  V30 834 H 76.2842 -0.740554 0.0257127 0
M  V30 835 H 78.9312 -1.75727 0.761065 0
M  V30 836 H 77.2362 -3.83169 -0.817869 0
M  V30 837 H 78.9332 -3.98384 -0.457318 0
M  V30 838 H 75.5232 -4.17633 0.963364 0
M  V30 839 H 79.7072 -4.60766 1.84414 0
M  V30 840 H 74.9632 -5.27611 3.08928 0
M  V30 841 H 79.1372 -5.72114 3.97063 0
M  V30 842 H 76.7642 -6.05318 4.59885 0
M  V30 843 N 78.3393 -0.321999 -1.54275 0
M  V30 844 C 79.2693 0.537411 -2.27231 0
M  V30 845 C 80.2503 1.12064 -1.27968 0
M  V30 846 O 81.4353 1.14606 -1.56777 0
M  V30 847 C 78.5653 1.69919 -3.02894 0
M  V30 848 C 77.5193 1.24534 -4.09482 0
M  V30 849 C 76.8453 2.49394 -4.72977 0
M  V30 850 C 78.1453 0.361335 -5.21049 0
M  V30 851 H 79.8393 -0.0711406 -2.99315 0
M  V30 852 H 77.3853 -0.0356555 -1.43956 0
M  V30 853 H 79.3383 2.30668 -3.52662 0
M  V30 854 H 78.0623 2.33431 -2.28424 0
M  V30 855 H 76.7213 0.660782 -3.60596 0
M  V30 856 H 76.3693 3.11265 -3.95124 0
M  V30 857 H 76.0693 2.19718 -5.44975 0
M  V30 858 H 77.5933 3.10908 -5.25517 0
M  V30 859 H 79.0073 0.875072 -5.66582 0
M  V30 860 H 77.4043 0.157428 -5.99893 0
M  V30 861 H 78.4743 -0.60822 -4.8107 0
M  V30 862 N 79.8174 1.5752 -0.0501392 0
M  V30 863 C 81.0454 1.96963 0.633492 0
M  V30 864 C 81.4604 0.927631 1.6444 0
M  V30 865 O 80.8174 -0.0882665 1.82286 0
M  V30 866 C 80.8684 3.36487 1.32132 0
M  V30 867 O 80.5894 4.36693 0.350894 0
M  V30 868 C 82.0904 3.90682 2.09481 0
M  V30 869 H 79.3104 0.648244 0.173266 0
M  V30 870 H 81.8544 2.0417 -0.116134 0
M  V30 871 H 80.0094 3.30434 2.02218 0
M  V30 872 H 80.4234 5.17702 0.841735 0
M  V30 873 H 81.8974 4.90591 2.5303 0
M  V30 874 H 82.3744 3.26053 2.94255 0
M  V30 875 H 82.9804 4.00069 1.44307 0
M  V30 876 N 81.2955 -0.223234 1.56011 0
M  V30 877 C 82.7115 -0.572856 1.48965 0
M  V30 878 C 82.9115 -1.87225 0.74492 0
M  V30 879 O 81.9675 -2.50899 0.283896 0
M  V30 880 C 83.2805 -0.653646 2.9351 0
M  V30 881 C 84.8285 -0.744386 3.0402 0
M  V30 882 C 85.3035 -0.856535 4.49919 0
M  V30 883 N 86.7945 -0.9208 4.53955 0
M  V30 884 C 87.5295 -1.02726 5.64123 0
M  V30 885 N 87.0255 -1.09777 6.84047 0
M  V30 886 N 88.8185 -1.06226 5.51971 0
M  V30 887 H 80.9695 0.629462 2.02858 0
M  V30 888 H 83.2325 0.220621 0.921971 0
M  V30 889 H 82.9385 0.231518 3.50937 0
M  V30 890 H 82.8125 -1.51781 3.45315 0
M  V30 891 H 85.1995 -1.61999 2.46658 0
M  V30 892 H 85.2805 0.14541 2.55386 0
M  V30 893 H 84.9245 0.0146069 5.07898 0
M  V30 894 H 84.8545 -1.76172 4.96257 0
M  V30 895 H 87.3455 -0.876694 3.6759 0
M  V30 896 H 87.6585 -1.17872 7.63758 0
M  V30 897 H 86.0035 -1.06693 6.86762 0
M  V30 898 H 89.1945 -1.00382 4.5721 0
M  V30 899 H 89.3675 -1.14177 6.37862 0
M  V30 900 N 82.7736 -1.49793 -0.48987 0
M  V30 901 C 83.7066 -1.61898 -1.60823 0
M  V30 902 C 84.6846 -0.467651 -1.5573 0
M  V30 903 O 85.8686 -0.684682 -1.75626 0
M  V30 904 C 82.9956 -1.58422 -2.99366 0
M  V30 905 C 82.0416 -2.78889 -3.22682 0
M  V30 906 S 82.8746 -4.40429 -3.04602 0
M  V30 907 C 84.0306 -4.39617 -4.4552 0
M  V30 908 H 84.2636 -2.56502 -1.50312 0
M  V30 909 H 81.7966 -1.38822 -0.675849 0
M  V30 910 H 83.7546 -1.57103 -3.79248 0
M  V30 911 H 82.4156 -0.650866 -3.07283 0
M  V30 912 H 81.6086 -2.72708 -4.23847 0
M  V30 913 H 81.2106 -2.77678 -2.50541 0
M  V30 914 H 83.5026 -4.12022 -5.37814 0
M  V30 915 H 84.4456 -5.41097 -4.56749 0
M  V30 916 H 84.8536 -3.69554 -4.2672 0
M  V30 917 N 84.2517 0.741722 -1.39055 0
M  V30 918 C 85.1987 1.85566 -1.37237 0
M  V30 919 C 86.1687 1.64457 -0.233072 0
M  V30 920 O 87.3537 1.85957 -0.427147 0
M  V30 921 C 84.4937 3.23004 -1.215 0
M  V30 922 C 83.6067 3.55864 -2.44918 0
M  V30 923 C 82.7417 4.82669 -2.21821 0
M  V30 924 C 81.7807 5.08351 -3.40948 0
M  V30 925 N 80.9177 6.26356 -3.17211 0
M  V30 926 H 85.7577 1.86455 -2.32462 0
M  V30 927 H 83.2947 0.911176 -1.15482 0
M  V30 928 H 85.2527 4.02331 -1.10389 0
M  V30 929 H 83.8827 3.21411 -0.29908 0
M  V30 930 H 82.9347 2.7129 -2.66657 0
M  V30 931 H 84.2467 3.70765 -3.33668 0
M  V30 932 H 83.4007 5.69962 -2.07914 0
M  V30 933 H 82.1397 4.69929 -1.30454 0
M  V30 934 H 81.1447 4.19522 -3.55361 0
M  V30 935 H 82.3697 5.22981 -4.33207 0
M  V30 936 H 80.3157 6.14917 -2.28502 0
M  V30 937 H 80.2327 6.41813 -3.99515 0
M  V30 938 H 81.5007 7.16506 -3.06984 0
M  V30 939 N 85.7298 1.2412 0.971189 0
M  V30 940 C 86.6398 1.04747 2.09917 0
M  V30 941 C 87.6558 -0.0107162 1.73997 0
M  V30 942 O 88.8318 0.186714 2.00533 0
M  V30 943 C 85.8968 0.650828 3.40537 0
M  V30 944 C 84.9578 1.7851 3.90426 0
M  V30 945 C 84.1908 1.40729 5.14812 0
M  V30 946 O 84.4138 0.29557 5.69634 0
M  V30 947 O 83.3478 2.23168 5.58999 0
M  V30 948 H 87.1738 1.99304 2.29154 0
M  V30 949 H 84.7588 1.02908 1.08307 0
M  V30 950 H 86.6408 0.440992 4.19086 0
M  V30 951 H 85.3158 -0.265649 3.22608 0
M  V30 952 H 84.2228 2.04966 3.12953 0
M  V30 953 H 85.5558 2.68023 4.12825 0
M  V30 954 N 87.2079 -1.17134 1.05439 0
M  V30 955 C 88.1549 -2.21235 0.657539 0
M  V30 956 C 89.1249 -1.62551 -0.341543 0
M  V30 957 O 90.3099 -1.89379 -0.232393 0
M  V30 958 C 87.4499 -3.45076 0.0410575 0
M  V30 959 C 86.5629 -4.18042 1.08927 0
M  V30 960 C 85.6979 -5.29376 0.439848 0
M  V30 961 C 84.7369 -5.94132 1.4722 0
M  V30 962 N 83.8739 -6.96975 0.846756 0
M  V30 963 H 88.7139 -2.54534 1.54972 0
M  V30 964 H 86.2509 -1.25028 0.775006 0
M  V30 965 H 88.2089 -4.15862 -0.33383 0
M  V30 966 H 86.8389 -3.12353 -0.814568 0
M  V30 967 H 85.8909 -3.45945 1.58196 0
M  V30 968 H 87.2029 -4.62306 1.87282 0
M  V30 969 H 86.3569 -6.06699 0.0115125 0
M  V30 970 H 85.0959 -4.86251 -0.375656 0
M  V30 971 H 84.1009 -5.15538 1.91052 0
M  V30 972 H 85.3259 -6.39337 2.28965 0
M  V30 973 H 83.2719 -6.5598 0.0518075 0
M  V30 974 H 83.1889 -7.39565 1.5678 0
M  V30 975 H 84.4569 -7.78239 0.443277 0
M  V30 976 N 88.686 -0.835752 -1.33615 0
M  V30 977 C 89.636 -0.238856 -2.26745 0
M  V30 978 C 90.62 0.604343 -1.49119 0
M  V30 979 O 91.812 0.456822 -1.71003 0
M  V30 980 C 88.941 0.587725 -3.38232 0
M  V30 981 C 88.027 -0.266811 -4.2326 0
M  V30 982 N 88.418 -1.34403 -4.87616 0
M  V30 983 C 86.716 -0.0533131 -4.45968 0
M  V30 984 C 87.417 -1.86819 -5.50884 0
M  V30 985 N 86.393 -1.17013 -5.30857 0
M  V30 986 H 90.195 -1.06266 -2.74016 0
M  V30 987 H 87.709 -0.679881 -1.47483 0
M  V30 988 H 89.706 1.03161 -4.03935 0
M  V30 989 H 88.366 1.40954 -2.9251 0
M  V30 990 H 89.377 -1.7269 -4.88261 0
M  V30 991 H 86.054 0.735312 -4.10974 0
M  V30 992 H 87.444 -2.7701 -6.1214 0
M  V30 993 N 90.1641 1.46063 -0.591896 0
M  V30 994 C 91.4121 2.01938 -0.0808391 0
M  V30 995 C 91.7331 1.46475 1.28725 0
M  V30 996 O 91.0031 0.652944 1.84698 0
M  V30 997 H 89.5831 0.746516 -0.0268938 0
M  V30 998 H 92.2451 1.79055 -0.769752 0
M  V30 999 H 91.3411 3.12094 -0.0187578 0
M  V30 1000 N 91.6422 0.330177 1.54103 0
M  V30 1001 C 92.9192 -0.325007 1.92881 0
M  V30 1002 C 93.2992 -1.6934 1.26045 0
M  V30 1003 O 92.6472 -2.24855 0.406526 0
M  V30 1004 C 92.8572 -0.410634 3.46576 0
M  V30 1005 C 94.2052 -0.667801 4.19316 0
M  V30 1006 O 95.2292 -0.49329 3.52768 0
M  V30 1007 O 94.0882 -1.00491 5.37181 0
M  V30 1008 H 91.1822 -0.186873 0.80561 0
M  V30 1009 H 93.7282 0.380376 1.65382 0
M  V30 1010 H 92.5002 0.550164 3.87413 0
M  V30 1011 H 92.1232 -1.16333 3.802 0
M  V30 1012 N 93.1203 -1.57491 0.0584922 0
M  V30 1013 C 94.3693 -1.92155 -0.613146 0
M  V30 1014 C 94.6823 -0.939334 -1.71569 0
M  V30 1015 O 95.8883 -1.17829 -2.44599 0
M  V30 1016 C 94.3443 -3.41303 -1.14195 0
M  V30 1017 C 93.9523 -4.47944 -0.0711265 0
M  V30 1018 C 95.6963 -3.84988 -1.78841 0
M  V30 1019 C 93.6033 -5.88212 -0.613225 0
M  V30 1020 H 92.5333 -0.717162 -0.232796 0
M  V30 1021 H 95.1843 -1.83049 0.12857 0
M  V30 1022 H 93.5663 -3.45437 -1.93621 0
M  V30 1023 H 94.7403 -4.55408 0.702836 0
M  V30 1024 H 93.0553 -4.13644 0.478313 0
M  V30 1025 H 95.6523 -4.87159 -2.20408 0
M  V30 1026 H 95.9953 -3.21632 -2.64308 0
M  V30 1027 H 96.5283 -3.83401 -1.06059 0
M  V30 1028 H 93.2673 -6.55183 0.203978 0
M  V30 1029 H 92.7873 -5.84294 -1.35501 0
M  V30 1030 H 94.4663 -6.37687 -1.09383 0
M  V30 1031 N 94.5984 0.214957 -1.56127 0
M  V30 1032 C 95.8454 0.938372 -1.79446 0
M  V30 1033 C 96.1734 1.8407 -0.628378 0
M  V30 1034 O 95.4284 1.91837 0.386925 0
M  V30 1035 C 95.7274 1.80314 -3.0858 0
M  V30 1036 C 95.3934 1.05349 -4.3842 0
M  V30 1037 C 94.0554 0.846435 -4.73697 0
M  V30 1038 C 96.4074 0.524588 -5.18553 0
M  V30 1039 C 93.7354 0.098683 -5.86617 0
M  V30 1040 C 96.0874 -0.209853 -6.32252 0
M  V30 1041 C 94.7514 -0.428102 -6.66126 0
M  V30 1042 H 94.0214 0.343375 -0.656639 0
M  V30 1043 H 96.6684 0.206077 -1.90388 0
M  V30 1044 H 94.9734 2.6035 -2.92789 0
M  V30 1045 H 96.6704 2.36513 -3.23825 0
M  V30 1046 H 93.2604 1.22486 -4.10725 0
M  V30 1047 H 97.4444 0.672008 -4.91729 0
M  V30 1048 H 92.7004 -0.0805753 -6.11347 0
M  V30 1049 H 96.8744 -0.627157 -6.9357 0
M  V30 1050 H 94.5014 -1.00944 -7.53468 0
M  V30 1051 N 96.0765 1.50051 0.48192 0
M  V30 1052 C 97.3045 1.64237 1.25832 0
M  V30 1053 C 97.7195 0.321336 1.86045 0
M  V30 1054 O 97.0765 -0.695478 1.68729 0
M  V30 1055 C 97.1275 2.72548 2.37487 0
M  V30 1056 O 96.8485 3.99529 1.79745 0
M  V30 1057 C 98.3495 2.9761 3.28547 0
M  V30 1058 H 95.5695 0.55237 0.380957 0
M  V30 1059 H 98.1135 1.96207 0.576467 0
M  V30 1060 H 96.2685 2.43303 3.01467 0
M  V30 1061 H 96.6825 4.59342 2.5319 0
M  V30 1062 H 98.1565 3.77084 4.03127 0
M  V30 1063 H 98.6335 2.0826 3.86684 0
M  V30 1064 H 99.2395 3.28345 2.70314 0
M  V30 1065 N 97.5546 -0.734337 1.39446 0
M  V30 1066 C 98.8036 -1.48937 1.36017 0
M  V30 1067 C 99.1166 -1.95557 -0.0409005 0
M  V30 1068 O 100.323 -2.70779 -0.19778 0
M  V30 1069 C 98.7786 -2.69125 2.38955 0
M  V30 1070 C 98.3866 -2.29452 3.8478 0
M  V30 1071 C 100.131 -3.46944 2.44603 0
M  V30 1072 C 98.0376 -3.46366 4.79358 0
M  V30 1073 H 96.9676 -0.559296 0.505672 0
M  V30 1074 H 99.6186 -0.800983 1.65095 0
M  V30 1075 H 98.0006 -3.40041 2.02948 0
M  V30 1076 H 99.1746 -1.66077 4.29831 0
M  V30 1077 H 97.4896 -1.64723 3.82433 0
M  V30 1078 H 100.087 -4.33907 3.12456 0
M  V30 1079 H 100.43 -3.89454 1.47076 0
M  V30 1080 H 100.963 -2.83056 2.79507 0
M  V30 1081 H 97.7016 -3.08905 5.78151 0
M  V30 1082 H 97.2216 -4.08719 4.38986 0
M  V30 1083 H 98.9006 -4.12691 4.98292 0
M  V30 1084 N 99.0327 -1.24633 -0.964593 0
M  V30 1085 C 99.9627 -1.06611 -2.07741 0
M  V30 1086 C 100.944 0.0218666 -1.70086 0
M  V30 1087 O 102.129 -0.145793 -1.93652 0
M  V30 1088 C 99.2587 -0.673444 -3.40708 0
M  V30 1089 C 98.2127 -1.71054 -3.92332 0
M  V30 1090 C 97.5387 -1.17285 -5.21678 0
M  V30 1091 C 98.8387 -3.10718 -4.19824 0
M  V30 1092 H 100.533 -1.99693 -2.23076 0
M  V30 1093 H 98.0787 -0.96152 -1.07195 0
M  V30 1094 H 100.032 -0.534345 -4.17998 0
M  V30 1095 H 98.7557 0.293073 -3.25282 0
M  V30 1096 H 97.4147 -1.83791 -3.17201 0
M  V30 1097 H 97.0627 -0.196847 -5.02615 0
M  V30 1098 H 96.7627 -1.86592 -5.57187 0
M  V30 1099 H 98.2867 -1.04593 -6.01575 0
M  V30 1100 H 99.7007 -3.01192 -4.87808 0
M  V30 1101 H 98.0977 -3.77406 -4.66567 0
M  V30 1102 H 99.1677 -3.58524 -3.26479 0
M  V30 1103 N 100.511 1.16574 -1.06058 0
M  V30 1104 C 101.757 1.87324 -0.777022 0
M  V30 1105 C 102.09 1.81351 0.694645 0
M  V30 1106 O 101.365 1.22753 1.50871 0
M  V30 1107 C 101.648 3.36991 -1.26922 0
M  V30 1108 C 101.501 3.51667 -2.80447 0
M  V30 1109 C 102.82 4.3131 -0.87521 0
M  V30 1110 H 99.9388 0.680191 -0.28374 0
M  V30 1111 H 102.581 1.37036 -1.3161 0
M  V30 1112 H 100.731 3.79949 -0.81063 0
M  V30 1113 H 102.403 3.17664 -3.34495 0
M  V30 1114 H 100.646 2.93656 -3.19294 0
M  V30 1115 H 101.317 4.56766 -3.0995 0
M  V30 1116 H 103.793 3.9624 -1.27014 0
M  V30 1117 H 102.669 5.34545 -1.2471 0
M  V30 1118 H 102.93 4.41552 0.220071 0
M  V30 1119 N 101.989 0.842826 1.3317 0
M  V30 1120 C 103.237 0.439577 1.97262 0
M  V30 1121 C 103.558 -1.00548 1.67078 0
M  V30 1122 O 102.828 -1.70098 0.971779 0
M  V30 1123 H 101.408 0.159558 0.72976 0
M  V30 1124 H 104.07 1.07665 1.62463 0
M  V30 1125 H 103.166 0.574886 3.0676 0
M  V30 1126 N 103.467 -1.45747 0.599634 0
M  V30 1127 C 104.715 -2.01893 0.0915472 0
M  V30 1128 C 105.036 -1.47155 -1.27946 0
M  V30 1129 O 104.306 -0.66273 -1.84349 0
M  V30 1130 H 102.886 -0.746363 0.0308524 0
M  V30 1131 H 105.548 -1.78645 0.779237 0
M  V30 1132 H 104.644 -3.1208 0.0353086 0
M  V30 1133 N 104.945 -0.338344 -1.53925 0
M  V30 1134 C 106.361 0.0137736 -1.59594 0
M  V30 1135 C 106.561 1.49186 -1.35447 0
M  V30 1136 O 105.617 2.24987 -1.14616 0
M  V30 1137 C 106.93 -0.41773 -2.97784 0
M  V30 1138 C 108.478 -0.369633 -3.1081 0
M  V30 1139 C 108.953 -0.776524 -4.51369 0
M  V30 1140 N 110.444 -0.730506 -4.57403 0
M  V30 1141 C 111.179 -1.01736 -5.64303 0
M  V30 1142 N 110.675 -1.3721 -6.79077 0
M  V30 1143 N 112.468 -0.941942 -5.54151 0
M  V30 1144 H 104.619 -1.3012 -1.67876 0
M  V30 1145 H 106.882 -0.530082 -0.78595 0
M  V30 1146 H 106.588 -1.44811 -3.20504 0
M  V30 1147 H 106.462 0.209729 -3.76616 0
M  V30 1148 H 108.849 0.651568 -2.87817 0
M  V30 1149 H 108.93 -1.03223 -2.34049 0
M  V30 1150 H 108.574 -1.79571 -4.75096 0
M  V30 1151 H 108.504 -0.0914649 -5.26521 0
M  V30 1152 H 110.995 -0.468783 -3.74981 0
M  V30 1153 H 111.308 -1.57597 -7.5656 0
M  V30 1154 H 109.653 -1.4105 -6.80536 0
M  V30 1155 H 112.844 -0.664184 -4.63364 0
M  V30 1156 H 113.017 -1.16884 -6.37371 0
M  V30 1157 N 106.423 1.57458 -0.0668435 0
M  V30 1158 C 107.653 1.97337 0.611677 0
M  V30 1159 C 108.061 0.943744 1.63982 0
M  V30 1160 O 107.404 -0.0785584 1.83532 0
M  V30 1161 C 107.466 3.33511 1.34205 0
M  V30 1162 C 107.13 4.54598 0.467941 0
M  V30 1163 C 108.127 5.19186 -0.272439 0
M  V30 1164 C 105.812 5.0075 0.39427 0
M  V30 1165 C 107.806 6.28274 -1.07476 0
M  V30 1166 C 105.493 6.09711 -0.411729 0
M  V30 1167 C 106.491 6.73335 -1.14492 0
M  V30 1168 O 106.179 7.80199 -1.93763 0
M  V30 1169 H 105.911 0.654042 0.170893 0
M  V30 1170 H 108.465 2.04961 -0.134289 0
M  V30 1171 H 106.695 3.22487 2.13398 0
M  V30 1172 H 108.384 3.58029 1.91233 0
M  V30 1173 H 109.15 4.84477 -0.225086 0
M  V30 1174 H 105.029 4.51009 0.954569 0
M  V30 1175 H 108.573 6.77866 -1.64755 0
M  V30 1176 H 104.47 6.43854 -0.460664 0
M  V30 1177 H 105.238 7.97053 -1.86142 0
M  V30 1178 N 107.901 -0.206675 1.56239 0
M  V30 1179 C 109.147 -0.930218 1.80208 0
M  V30 1180 C 109.48 -1.83387 0.638981 0
M  V30 1181 O 108.755 -1.91119 -0.361066 0
M  V30 1182 C 109.038 -1.75641 3.1436 0
M  V30 1183 C 108.891 -0.878257 4.41142 0
M  V30 1184 C 110.21 -2.73129 3.45092 0
M  V30 1185 H 107.329 -0.336742 0.655571 0
M  V30 1186 H 109.971 -0.198222 1.88963 0
M  V30 1187 H 108.121 -2.38048 3.07027 0
M  V30 1188 H 109.793 -0.269787 4.6051 0
M  V30 1189 H 108.036 -0.184385 4.33408 0
M  V30 1190 H 108.707 -1.49106 5.3148 0
M  V30 1191 H 111.183 -2.20856 3.52649 0
M  V30 1192 H 110.059 -3.28028 4.40101 0
M  V30 1193 H 110.32 -3.51606 2.68003 0
M  V30 1194 N 109.379 -1.50304 -0.473955 0
M  V30 1195 C 110.607 -1.64902 -1.24959 0
M  V30 1196 C 111.022 -0.331198 -1.85872 0
M  V30 1197 O 110.379 0.68652 -1.69095 0
M  V30 1198 C 110.43 -2.73803 -2.36038 0
M  V30 1199 O 110.151 -4.00477 -1.77624 0
M  V30 1200 C 111.652 -2.99349 -3.26964 0
M  V30 1201 H 108.872 -0.554383 -0.378022 0
M  V30 1202 H 111.416 -1.9651 -0.566054 0
M  V30 1203 H 109.571 -2.44898 -3.00173 0
M  V30 1204 H 109.985 -4.60678 -2.5075 0
M  V30 1205 H 111.459 -3.79217 -4.01121 0
M  V30 1206 H 111.936 -2.10307 -3.85574 0
M  V30 1207 H 112.542 -3.29774 -2.68569 0
M  V30 1208 N 110.857 0.726932 -1.39834 0
M  V30 1209 C 112.103 1.48884 -1.377 0
M  V30 1210 C 112.436 1.94185 0.0244852 0
M  V30 1211 O 111.711 1.67361 0.990986 0
M  V30 1212 C 111.994 2.72288 -2.3565 0
M  V30 1213 C 111.847 2.32956 -3.84775 0
M  V30 1214 C 113.166 3.74414 -2.31306 0
M  V30 1215 H 110.285 0.540062 -0.5015 0
M  V30 1216 H 112.927 0.830547 -1.70886 0
M  V30 1217 H 111.077 3.28457 -2.07481 0
M  V30 1218 H 112.749 1.82356 -4.23726 0
M  V30 1219 H 110.992 1.65088 -4.01159 0
M  V30 1220 H 111.663 3.21362 -4.4881 0
M  V30 1221 H 114.139 3.27849 -2.56231 0
M  V30 1222 H 113.015 4.58414 -3.01907 0
M  V30 1223 H 113.276 4.21909 -1.32081 0
M  V30 1224 N 112.336 1.25143 0.95797 0
M  V30 1225 C 113.266 1.07711 2.07173 0
M  V30 1226 C 114.247 -0.0128462 1.70095 0
M  V30 1227 O 115.432 0.156061 1.93572 0
M  V30 1228 C 112.562 0.691503 3.40346 0
M  V30 1229 C 111.516 1.73132 3.9142 0
M  V30 1230 C 110.842 1.20049 5.21049 0
M  V30 1231 C 112.142 3.1294 4.1817 0
M  V30 1232 H 113.836 2.00873 2.22014 0
M  V30 1233 H 111.382 0.967191 1.06684 0
M  V30 1234 H 113.335 0.556505 4.17709 0
M  V30 1235 H 112.059 -0.275819 3.25433 0
M  V30 1236 H 110.718 1.8547 3.16222 0
M  V30 1237 H 110.366 0.223499 5.02503 0
M  V30 1238 H 110.066 1.89545 5.56189 0
M  V30 1239 H 111.59 1.07782 6.01012 0
M  V30 1240 H 113.004 3.03775 4.86203 0
M  V30 1241 H 111.401 3.79875 4.64559 0
M  V30 1242 H 112.471 3.6025 3.24573 0
M  V30 1243 N 113.814 -1.1601 1.06675 0
M  V30 1244 C 114.744 -2.22688 0.702307 0
M  V30 1245 C 115.725 -1.67306 -0.307032 0
M  V30 1246 O 116.91 -1.93352 -0.181305 0
M  V30 1247 C 114.04 -3.47178 0.092038 0
M  V30 1248 C 112.994 -4.15477 1.02777 0
M  V30 1249 C 112.32 -5.33963 0.28061 0
M  V30 1250 C 113.62 -4.66019 2.35846 0
M  V30 1251 H 115.314 -2.53429 1.59419 0
M  V30 1252 H 112.86 -1.21813 0.767961 0
M  V30 1253 H 114.813 -4.21037 -0.174814 0
M  V30 1254 H 113.537 -3.15749 -0.834877 0
M  V30 1255 H 112.196 -3.43549 1.27944 0
M  V30 1256 H 111.844 -4.98788 -0.649545 0
M  V30 1257 H 111.544 -5.806 0.904258 0
M  V30 1258 H 113.068 -6.10596 0.021396 0
M  V30 1259 H 114.482 -5.3144 2.15045 0
M  V30 1260 H 112.879 -5.23293 2.93743 0
M  V30 1261 H 113.949 -3.82023 2.98641 0
M  V30 1262 N 115.292 -0.849877 -1.32721 0
M  V30 1263 C 116.569 -0.372405 -1.92022 0
M  V30 1264 C 116.949 1.1435 -1.77447 0
M  V30 1265 O 116.297 1.96296 -1.16962 0
M  V30 1266 C 116.507 -0.831482 -3.3895 0
M  V30 1267 C 117.855 -0.845882 -4.16089 0
M  V30 1268 O 118.879 -0.775806 -3.47649 0
M  V30 1269 O 117.738 -0.943753 -5.38289 0
M  V30 1270 H 114.832 -0.107667 -0.819961 0
M  V30 1271 H 117.378 -0.93646 -1.41522 0
M  V30 1272 H 116.15 -1.87448 -3.4348 0
M  V30 1273 H 115.773 -0.24461 -3.96847 0
M  V30 1274 N 116.77 1.45427 -0.607355 0
M  V30 1275 C 118.181 1.85756 -0.187535 0
M  V30 1276 C 118.532 1.5077 1.25551 0
M  V30 1277 O 117.657 0.93427 1.95193 0
M  V30 1278 C 118.252 3.37154 -0.333572 0
M  V30 1279 C 116.811 3.76387 0.0315542 0
M  V30 1280 C 115.958 2.69377 -0.658117 0
M  V30 1281 H 118.909 1.36231 -0.81405 0
M  V30 1282 H 118.93 3.78014 0.43428 0
M  V30 1283 H 118.442 3.62586 -1.38393 0
M  V30 1284 H 116.543 3.56571 1.0811 0
M  V30 1285 H 116.656 4.77731 -0.361935 0
M  V30 1286 H 115.02 2.5452 -0.0957873 0
M  V30 1287 H 115.803 2.97646 -1.7106 0
M  V30 1288 N 118.248 0.346503 1.53744 0
M  V30 1289 C 119.198 -0.524953 2.21874 0
M  V30 1290 C 120.182 -1.06376 1.20718 0
M  V30 1291 O 121.374 -0.996972 1.46251 0
M  V30 1292 C 118.503 -1.6739 2.99726 0
M  V30 1293 C 117.589 -1.14888 4.08242 0
M  V30 1294 N 117.98 -0.345329 5.0462 0
M  V30 1295 C 116.278 -1.4255 4.22606 0
M  V30 1296 C 116.979 -0.0600706 5.81669 0
M  V30 1297 N 115.955 -0.65252 5.39669 0
M  V30 1298 H 119.757 0.0960091 2.93743 0
M  V30 1299 H 117.271 0.15352 1.61673 0
M  V30 1300 H 119.268 -2.3102 3.47038 0
M  V30 1301 H 117.928 -2.29811 2.29384 0
M  V30 1302 H 118.939 0.0138439 5.17898 0
M  V30 1303 H 115.616 -2.05389 3.63486 0
M  V30 1304 H 117.006 0.588321 6.69319 0
M  V30 1305 N 119.726 -1.57421 0.075193 0
M  V30 1306 C 120.951 -1.98364 -0.605515 0
M  V30 1307 C 121.376 -0.953383 -1.62149 0
M  V30 1308 O 120.734 0.0806053 -1.81121 0
M  V30 1309 C 120.782 -3.38332 -1.24756 0
M  V30 1310 O 119.886 -3.37959 -2.36342 0
M  V30 1311 H 119.227 -0.645553 -0.155428 0
M  V30 1312 H 121.757 -2.04044 0.150714 0
M  V30 1313 H 121.767 -3.75591 -1.5936 0
M  V30 1314 H 120.442 -4.12846 -0.503129 0
M  V30 1315 H 119.019 -3.12474 -2.03506 0
M  V30 1316 N 121.204 0.198386 -1.56346 0
M  V30 1317 C 122.434 0.934215 -1.84271 0
M  V30 1318 C 122.842 1.77496 -0.655125 0
M  V30 1319 O 122.185 1.7961 0.385488 0
M  V30 1320 C 122.247 1.88278 -3.06254 0
M  V30 1321 C 121.911 1.22431 -4.40295 0
M  V30 1322 C 122.908 0.602839 -5.16393 0
M  V30 1323 C 120.593 1.22915 -4.87029 0
M  V30 1324 C 122.587 -0.0050083 -6.374 0
M  V30 1325 C 120.274 0.617465 -6.07973 0
M  V30 1326 C 121.272 0.00146341 -6.83 0
M  V30 1327 O 120.96 -0.600642 -8.01653 0
M  V30 1328 H 120.692 0.278245 -0.616081 0
M  V30 1329 H 123.246 0.211626 -2.04307 0
M  V30 1330 H 121.476 2.64498 -2.82095 0
M  V30 1331 H 123.165 2.48612 -3.20853 0
M  V30 1332 H 123.931 0.591265 -4.81382 0
M  V30 1333 H 119.81 1.69801 -4.28589 0
M  V30 1334 H 123.354 -0.48643 -6.95902 0
M  V30 1335 H 119.251 0.62653 -6.42452 0
M  V30 1336 H 120.019 -0.497225 -8.16988 0
M  V30 1337 N 122.682 1.50554 0.465978 0
M  V30 1338 C 123.959 1.5232 1.22712 0
M  V30 1339 C 124.339 0.270807 2.09356 0
M  V30 1340 O 123.687 -0.745541 2.15995 0
M  V30 1341 C 123.897 2.82175 2.05374 0
M  V30 1342 C 125.245 3.33033 2.6339 0
M  V30 1343 O 126.269 2.83531 2.15612 0
M  V30 1344 O 125.128 4.19336 3.50456 0
M  V30 1345 H 122.222 0.611183 0.557122 0
M  V30 1346 H 124.768 1.62847 0.477381 0
M  V30 1347 H 123.54 3.64797 1.41558 0
M  V30 1348 H 123.163 2.74675 2.87471 0
M  V30 1349 N 124.16 -0.719506 1.40217 0
M  V30 1350 C 125.123 -1.8153 1.39927 0
M  V30 1351 C 126.123 -1.58095 0.293723 0
M  V30 1352 O 127.313 -1.65209 0.552429 0
M  V30 1353 C 124.445 -3.19561 1.18716 0
M  V30 1354 H 125.638 -1.83186 2.37451 0
M  V30 1355 H 123.191 -0.924746 1.26008 0
M  V30 1356 H 123.926 -3.23557 0.219366 0
M  V30 1357 H 123.711 -3.3797 1.98793 0
M  V30 1358 H 125.201 -3.99598 1.21291 0
M  V30 1359 N 125.638 -1.25649 -0.95132 0
M  V30 1360 C 126.884 -1.10757 -1.69884 0
M  V30 1361 C 127.217 0.350061 -1.91019 0
M  V30 1362 O 126.492 1.25783 -1.48354 0
M  V30 1363 C 126.775 -1.86606 -3.07978 0
M  V30 1364 C 126.628 -3.40217 -2.94232 0
M  V30 1365 C 127.947 -1.65182 -4.07925 0
M  V30 1366 H 125.066 -0.40374 -0.616574 0
M  V30 1367 H 127.708 -1.54521 -1.10558 0
M  V30 1368 H 125.858 -1.49409 -3.58621 0
M  V30 1369 H 127.53 -3.87108 -2.50889 0
M  V30 1370 H 125.773 -3.67759 -2.30078 0
M  V30 1371 H 126.444 -3.88505 -3.92133 0
M  V30 1372 H 128.92 -1.9757 -3.66204 0
M  V30 1373 H 127.796 -2.20683 -5.02583 0
M  V30 1374 H 128.057 -0.593933 -4.38092 0
M  V30 1375 N 127.117 1.15442 -1.07289 0
M  V30 1376 C 128.363 1.86489 -0.796846 0
M  V30 1377 C 128.696 1.82078 0.675371 0
M  V30 1378 O 127.971 1.24346 1.4956 0
M  V30 1379 C 128.254 3.35626 -1.30489 0
M  V30 1380 C 128.107 3.48673 -2.84161 0
M  V30 1381 C 129.426 4.30357 -0.920907 0
M  V30 1382 H 126.545 0.677144 -0.290939 0
M  V30 1383 H 129.187 1.35633 -1.33056 0
M  V30 1384 H 127.337 3.79068 -0.850883 0
M  V30 1385 H 129.009 3.14099 -3.37846 0
M  V30 1386 H 127.252 2.90253 -3.22391 0
M  V30 1387 H 127.923 4.53453 -3.14777 0
M  V30 1388 H 130.399 3.94871 -1.3121 0
M  V30 1389 H 129.275 5.33193 -1.30372 0
M  V30 1390 H 129.536 4.4176 0.173226 0
M  V30 1391 N 128.595 0.856903 1.32268 0
M  V30 1392 C 129.841 0.471355 1.97863 0
M  V30 1393 C 130.196 -0.962896 1.66572 0
M  V30 1394 O 129.489 -1.66686 0.944797 0
M  V30 1395 C 129.683 0.649919 3.51441 0
M  V30 1396 C 129.512 2.09997 3.97657 0
M  V30 1397 C 128.282 2.73893 4.2463 0
M  V30 1398 C 130.48 3.07081 4.1256 0
M  V30 1399 N 128.462 4.09786 4.57109 0
M  V30 1400 C 129.833 4.27968 4.48602 0
M  V30 1401 C 131.888 3.03247 3.949 0
M  V30 1402 C 130.591 5.45521 4.68827 0
M  V30 1403 C 132.617 4.20046 4.16311 0
M  V30 1404 C 131.979 5.39692 4.52672 0
M  V30 1405 H 128.078 0.221263 0.750044 0
M  V30 1406 H 130.662 1.10876 1.60045 0
M  V30 1407 H 128.833 0.0421938 3.88377 0
M  V30 1408 H 130.565 0.234044 4.04023 0
M  V30 1409 H 127.32 2.24918 4.16784 0
M  V30 1410 H 127.744 4.7989 4.7753 0
M  V30 1411 H 132.386 2.11863 3.65888 0
M  V30 1412 H 130.104 6.37434 4.96693 0
M  V30 1413 H 133.69 4.18517 4.04147 0
M  V30 1414 H 132.57 6.28566 4.68907 0
M  V30 1415 N 130.073 -1.45103 0.615059 0
M  V30 1416 C 130.983 -2.34382 -0.101034 0
M  V30 1417 C 131.999 -1.51681 -0.852585 0
M  V30 1418 O 133.175 -1.8446 -0.808484 0
M  V30 1419 C 130.24 -3.29417 -1.08099 0
M  V30 1420 C 129.301 -4.28025 -0.330577 0
M  V30 1421 C 128.534 -5.1852 -1.26385 0
M  V30 1422 O 128.757 -5.12598 -2.50198 0
M  V30 1423 O 127.691 -5.97122 -0.756866 0
M  V30 1424 H 131.517 -2.97033 0.632855 0
M  V30 1425 H 129.102 -1.4461 0.375293 0
M  V30 1426 H 130.984 -3.87958 -1.6452 0
M  V30 1427 H 129.659 -2.69321 -1.79577 0
M  V30 1428 H 128.566 -3.73078 0.276283 0
M  V30 1429 H 129.899 -4.90997 0.343866 0
M  V30 1430 N 131.551 -0.354651 -1.53558 0
M  V30 1431 C 132.962 0.126902 -1.86268 0
M  V30 1432 C 133.313 1.49075 -1.27558 0
M  V30 1433 O 132.438 2.08105 -0.5934 0
M  V30 1434 C 133.033 0.237046 -3.3797 0
M  V30 1435 C 131.592 0.662842 -3.70518 0
M  V30 1436 C 130.739 -0.196652 -2.76602 0
M  V30 1437 H 133.69 -0.573849 -1.47962 0
M  V30 1438 H 133.711 1.06259 -3.65362 0
M  V30 1439 H 133.223 -0.755725 -3.80671 0
M  V30 1440 H 131.324 1.66424 -3.33367 0
M  V30 1441 H 131.437 0.445034 -4.77029 0
M  V30 1442 H 129.801 0.332763 -2.52517 0
M  V30 1443 H 130.584 -1.18676 -3.22135 0
M  V30 1444 N 133.029 1.57378 -0.0835403 0
M  V30 1445 C 134.445 1.57246 0.273109 0
M  V30 1446 C 134.645 1.09385 1.69225 0
M  V30 1447 O 133.701 0.765051 2.40631 0
M  V30 1448 C 135.014 3.00614 0.0720628 0
M  V30 1449 C 136.562 3.12684 0.1407 0
M  V30 1450 C 137.037 4.57989 -0.0322094 0
M  V30 1451 N 138.528 4.63194 0.0230085 0
M  V30 1452 C 139.263 5.73335 -0.0861941 0
M  V30 1453 N 138.759 6.9235 -0.24958 0
M  V30 1454 N 140.552 5.62093 -0.0282886 0
M  V30 1455 H 132.703 1.86801 -1.0109 0
M  V30 1456 H 134.966 0.861687 -0.395222 0
M  V30 1457 H 134.672 3.39786 -0.907662 0
M  V30 1458 H 134.546 3.68193 0.81936 0
M  V30 1459 H 136.933 2.73391 1.11092 0
M  V30 1460 H 137.014 2.47719 -0.637896 0
M  V30 1461 H 136.658 4.97973 -0.999247 0
M  V30 1462 H 136.588 5.21 0.765937 0
M  V30 1463 H 139.079 3.77613 0.14722 0
M  V30 1464 H 139.392 7.72117 -0.324733 0
M  V30 1465 H 137.737 6.94415 -0.285097 0
M  V30 1466 H 140.928 4.67997 0.0981408 0
M  V30 1467 H 141.101 6.47895 -0.116845 0
M  V30 1468 N 134.507 -0.190092 1.56449 0
M  V30 1469 C 135.735 -0.925772 1.85033 0
M  V30 1470 C 136.15 -1.76638 0.666658 0
M  V30 1471 O 135.507 -1.78822 -0.364565 0
M  V30 1472 C 135.558 -1.81786 3.12468 0
M  V30 1473 O 135.279 -1.01118 4.26271 0
M  V30 1474 C 136.78 -2.6648 3.54265 0
M  V30 1475 H 134 -0.269872 0.614337 0
M  V30 1476 H 136.544 -0.195837 2.0356 0
M  V30 1477 H 134.699 -2.50136 2.95822 0
M  V30 1478 H 135.113 -1.61956 4.98869 0
M  V30 1479 H 136.587 -3.24722 4.46385 0
M  V30 1480 H 137.064 -3.40434 2.77491 0
M  V30 1481 H 137.67 -2.03493 3.73458 0
M  V30 1482 N 135.985 -1.50799 -0.457987 0
M  V30 1483 C 137.401 -1.38515 -0.792819 0
M  V30 1484 C 137.601 -0.451409 -1.96379 0
M  V30 1485 O 136.657 0.10112 -2.52297 0
M  V30 1486 C 137.97 -2.80149 -1.09258 0
M  V30 1487 C 139.518 -2.89156 -1.19825 0
M  V30 1488 C 139.993 -4.31651 -1.53106 0
M  V30 1489 N 141.484 -4.34662 -1.60072 0
M  V30 1490 C 142.219 -5.41928 -1.87354 0
M  V30 1491 N 141.715 -6.59384 -2.12568 0
M  V30 1492 N 143.508 -5.29385 -1.88965 0
M  V30 1493 H 135.659 -2.10073 0.313511 0
M  V30 1494 H 137.922 -0.944803 0.0777862 0
M  V30 1495 H 137.628 -3.50374 -0.305084 0
M  V30 1496 H 137.502 -3.18204 -2.02549 0
M  V30 1497 H 139.889 -2.19141 -1.97639 0
M  V30 1498 H 139.97 -2.54626 -0.244821 0
M  V30 1499 H 139.614 -5.02208 -0.758266 0
M  V30 1500 H 139.544 -4.63678 -2.49621 0
M  V30 1501 H 142.035 -3.49973 -1.42573 0
M  V30 1502 H 142.348 -7.36934 -2.32696 0
M  V30 1503 H 140.693 -6.62535 -2.09933 0
M  V30 1504 H 143.884 -4.36616 -1.68772 0
M  V30 1505 H 144.057 -6.13066 -2.09891 0
M  V30 1506 N 137.463 0.71206 -1.40597 0
M  V30 1507 C 138.393 1.83889 -1.43899 0
M  V30 1508 C 139.374 1.67442 -0.299504 0
M  V30 1509 O 140.559 1.87421 -0.508624 0
M  V30 1510 C 137.689 3.21877 -1.30431 0
M  V30 1511 C 136.643 3.53002 -2.42019 0
M  V30 1512 C 135.969 4.90172 -2.13626 0
M  V30 1513 C 137.269 3.53643 -3.84362 0
M  V30 1514 H 138.963 1.81383 -2.38203 0
M  V30 1515 H 136.509 0.871237 -1.14654 0
M  V30 1516 H 138.462 4.00404 -1.31357 0
M  V30 1517 H 137.186 3.24968 -0.326049 0
M  V30 1518 H 135.845 2.76818 -2.40349 0
M  V30 1519 H 135.493 4.89869 -1.14182 0
M  V30 1520 H 135.193 5.11962 -2.88389 0
M  V30 1521 H 136.717 5.71028 -2.1624 0
M  V30 1522 H 138.131 4.22203 -3.87837 0
M  V30 1523 H 136.528 3.86961 -4.58673 0
M  V30 1524 H 137.598 2.52954 -4.13693 0
M  V30 1525 N 138.941 1.26152 0.944643 0
M  V30 1526 C 140.218 1.02247 1.66748 0
M  V30 1527 C 140.598 -0.448202 2.06287 0
M  V30 1528 O 139.946 -1.42779 1.78399 0
M  V30 1529 C 140.156 1.96788 2.88228 0
M  V30 1530 C 141.504 2.25201 3.59958 0
M  V30 1531 O 142.528 1.94626 2.98327 0
M  V30 1532 O 141.387 2.77242 4.70956 0
M  V30 1533 H 138.481 0.388517 0.730057 0
M  V30 1534 H 141.027 1.37348 0.99668 0
M  V30 1535 H 139.799 2.96047 2.55875 0
M  V30 1536 H 139.422 1.62145 3.63035 0
M  V30 1537 N 140.419 -1.14872 1.07899 0
M  V30 1538 C 141.666 -1.85789 0.805532 0
M  V30 1539 C 141.994 -1.82649 -0.668561 0
M  V30 1540 O 141.249 -1.24858 -1.50695 0
M  V30 1541 C 141.548 -3.34223 1.26609 0
M  V30 1542 C 141.214 -3.57555 2.74709 0
M  V30 1543 C 139.876 -3.63631 3.1516 0
M  V30 1544 C 142.228 -3.66803 3.70277 0
M  V30 1545 C 139.556 -3.76473 4.49983 0
M  V30 1546 C 141.908 -3.8117 5.04869 0
M  V30 1547 C 140.572 -3.85494 5.44932 0
M  V30 1548 H 139.842 -0.679849 0.294765 0
M  V30 1549 H 142.489 -1.3572 1.35101 0
M  V30 1550 H 140.794 -3.86536 0.640103 0
M  V30 1551 H 142.491 -3.87511 1.03132 0
M  V30 1552 H 139.081 -3.5347 2.42398 0
M  V30 1553 H 143.265 -3.61404 3.40149 0
M  V30 1554 H 138.521 -3.7808 4.80484 0
M  V30 1555 H 142.695 -3.87268 5.78789 0
M  V30 1556 H 140.322 -3.95197 6.49403 0
M  V30 1557 N 141.898 -0.863906 -1.31812 0
M  V30 1558 C 142.848 -0.286898 -2.26188 0
M  V30 1559 C 143.832 0.572577 -1.50367 0
M  V30 1560 O 145.024 0.420447 -1.71934 0
M  V30 1561 C 142.153 0.515849 -3.39402 0
M  V30 1562 C 141.239 -0.356531 -4.22599 0
M  V30 1563 N 141.63 -1.44716 -4.84656 0
M  V30 1564 C 139.928 -0.147898 -4.45755 0
M  V30 1565 C 140.629 -1.98462 -5.46798 0
M  V30 1566 N 139.605 -1.28247 -5.28255 0
M  V30 1567 H 143.407 -1.12055 -2.717 0
M  V30 1568 H 140.921 -0.711012 -1.46008 0
M  V30 1569 H 142.918 0.945701 -4.06032 0
M  V30 1570 H 141.578 1.34718 -2.95434 0
M  V30 1571 H 142.589 -1.83008 -4.84488 0
M  V30 1572 H 139.266 0.647973 -4.12441 0
M  V30 1573 H 140.656 -2.89932 -6.06126 0
M  V30 1574 N 143.376 1.44774 -0.622745 0
M  V30 1575 C 144.339 2.29069 0.0774015 0
M  V30 1576 C 145.339 1.4059 0.780461 0
M  V30 1577 O 146.529 1.62551 0.626322 0
M  V30 1578 C 143.661 3.21974 1.12006 0
M  V30 1579 H 144.854 2.92459 -0.663901 0
M  V30 1580 H 142.407 1.51548 -0.382486 0
M  V30 1581 H 143.142 2.63417 1.89162 0
M  V30 1582 H 142.927 3.87168 0.619951 0
M  V30 1583 H 144.417 3.85318 1.60995 0
M  V30 1584 N 144.854 0.36279 1.53368 0
M  V30 1585 C 146.084 -0.228281 2.05335 0
M  V30 1586 C 146.492 -1.43226 1.23625 0
M  V30 1587 O 145.835 -1.81717 0.269206 0
M  V30 1588 C 145.897 -0.688549 3.52845 0
M  V30 1589 C 145.561 0.398362 4.5526 0
M  V30 1590 C 146.558 1.24732 5.04716 0
M  V30 1591 C 144.243 0.557805 4.99193 0
M  V30 1592 C 146.237 2.2411 5.96702 0
M  V30 1593 C 143.924 1.55495 5.90986 0
M  V30 1594 C 144.922 2.39503 6.39631 0
M  V30 1595 O 144.61 3.37517 7.29615 0
M  V30 1596 H 144.342 -0.044395 0.674541 0
M  V30 1597 H 146.896 0.518668 1.98744 0
M  V30 1598 H 145.126 -1.48706 3.56964 0
M  V30 1599 H 146.815 -1.20231 3.87685 0
M  V30 1600 H 147.581 1.13532 4.71525 0
M  V30 1601 H 143.46 -0.0862959 4.60919 0
M  V30 1602 H 147.004 2.89718 6.34594 0
M  V30 1603 H 142.901 1.66744 6.23592 0
M  V30 1604 H 143.669 3.33213 7.47604 0
M  V30 1605 N 146.332 -1.57332 0.0918853 0
M  V30 1606 C 147.295 -2.12708 -0.85369 0
M  V30 1607 C 148.295 -1.05561 -1.213 0
M  V30 1608 O 149.485 -1.31461 -1.14296 0
M  V30 1609 C 146.617 -2.64503 -2.15061 0
M  V30 1610 H 147.81 -2.97573 -0.3729 0
M  V30 1611 H 145.363 -1.55509 -0.157072 0
M  V30 1612 H 146.098 -1.83149 -2.67632 0
M  V30 1613 H 145.883 -3.4284 -1.90272 0
M  V30 1614 H 147.373 -3.07351 -2.82711 0
M  V30 1615 N 147.81 0.181792 -1.56548 0
M  V30 1616 C 149.059 0.898348 -1.8059 0
M  V30 1617 C 149.372 1.83862 -0.667379 0
M  V30 1618 O 150.578 2.59678 -0.792446 0
M  V30 1619 C 149.034 1.64791 -3.19956 0
M  V30 1620 C 148.642 0.751789 -4.41647 0
M  V30 1621 C 150.386 2.35331 -3.53298 0
M  V30 1622 C 148.293 1.50098 -5.72035 0
M  V30 1623 H 147.223 0.339194 -0.673397 0
M  V30 1624 H 149.874 0.151413 -1.82874 0
M  V30 1625 H 148.256 2.43921 -3.11959 0
M  V30 1626 H 149.43 -0.0018076 -4.608 0
M  V30 1627 H 147.745 0.156562 -4.16106 0
M  V30 1628 H 150.342 2.91958 -4.47956 0
M  V30 1629 H 150.685 3.10164 -2.77676 0
M  V30 1630 H 151.218 1.63154 -3.62803 0
M  V30 1631 H 147.957 0.795175 -6.50659 0
M  V30 1632 H 147.477 2.22817 -5.56878 0
M  V30 1633 H 149.156 2.05125 -6.13622 0
M  V30 1634 N 149.288 1.51039 0.449983 0
M  V30 1635 C 150.535 1.63081 1.20045 0
M  V30 1636 C 150.863 0.341024 1.91487 0
M  V30 1637 O 150.118 -0.674276 1.83717 0
M  V30 1638 C 150.417 2.77556 2.25161 0
M  V30 1639 C 150.083 4.17289 1.70823 0
M  V30 1640 C 148.745 4.55305 1.55725 0
M  V30 1641 C 151.097 5.04536 1.3074 0
M  V30 1642 C 148.425 5.78287 0.989999 0
M  V30 1643 C 150.777 6.28085 0.754482 0
M  V30 1644 C 149.441 6.64885 0.590308 0
M  V30 1645 H 148.711 0.596755 0.439277 0
M  V30 1646 H 151.358 1.85037 0.49333 0
M  V30 1647 H 149.663 2.49771 3.01863 0
M  V30 1648 H 151.36 2.84073 2.83026 0
M  V30 1649 H 147.95 3.8731 1.83546 0
M  V30 1650 H 152.134 4.75782 1.41229 0
M  V30 1651 H 147.39 6.05456 0.850451 0
M  V30 1652 H 151.564 6.95038 0.435324 0
M  V30 1653 H 149.191 7.60055 0.14862 0
M  V30 1654 N 150.766 -0.704594 1.40972 0
M  V30 1655 C 151.696 -1.83124 1.44872 0
M  V30 1656 C 152.677 -1.67281 0.30838 0
M  V30 1657 O 153.862 -1.87149 0.518556 0
M  V30 1658 C 150.992 -3.21181 1.32136 0
M  V30 1659 C 149.946 -3.51714 2.43888 0
M  V30 1660 C 149.272 -4.89032 2.16222 0
M  V30 1661 C 150.572 -3.516 3.86232 0
M  V30 1662 H 152.266 -1.80117 2.39161 0
M  V30 1663 H 149.812 -0.865145 1.15114 0
M  V30 1664 H 151.765 -3.99702 1.33479 0
M  V30 1665 H 150.489 -3.24791 0.343279 0
M  V30 1666 H 149.148 -2.75539 2.41813 0
M  V30 1667 H 148.796 -4.89256 1.16778 0
M  V30 1668 H 148.496 -5.10426 2.911 0
M  V30 1669 H 150.02 -5.69873 2.19265 0
M  V30 1670 H 151.434 -4.2014 3.9007 0
M  V30 1671 H 149.831 -3.84523 4.60719 0
M  V30 1672 H 150.901 -2.50757 4.15029 0
M  V30 1673 N 152.244 -1.26651 -0.937939 0
M  V30 1674 C 153.177 -1.02811 -2.03728 0
M  V30 1675 C 154.155 0.0481915 -1.62529 0
M  V30 1676 O 155.339 -0.0948839 -1.88261 0
M  V30 1677 C 152.466 -0.557517 -3.3408 0
M  V30 1678 C 151.512 -1.62686 -3.94253 0
M  V30 1679 S 152.345 -3.21667 -4.28125 0
M  V30 1680 C 153.501 -2.76384 -5.61572 0
M  V30 1681 H 153.734 -1.95891 -2.23638 0
M  V30 1682 H 151.267 -1.10367 -1.07974 0
M  V30 1683 H 153.225 -0.292674 -4.09455 0
M  V30 1684 H 151.886 0.353062 -3.12109 0
M  V30 1685 H 151.079 -1.24866 -4.88287 0
M  V30 1686 H 150.681 -1.84324 -3.25424 0
M  V30 1687 H 152.973 -2.2105 -6.40424 0
M  V30 1688 H 153.916 -3.69123 -6.0428 0
M  V30 1689 H 154.324 -2.15847 -5.21604 0
M  V30 1690 N 153.722 1.14298 -1.08507 0
M  V30 1691 C 154.632 2.23027 -0.727753 0
M  V30 1692 C 155.648 1.71952 0.26619 0
M  V30 1693 O 156.824 2.011 0.109882 0
M  V30 1694 C 153.889 3.46403 -0.143541 0
M  V30 1695 C 152.95 4.12413 -1.19223 0
M  V30 1696 C 152.183 5.29899 -0.635798 0
M  V30 1697 O 152.406 5.67796 0.544393 0
M  V30 1698 O 151.34 5.85717 -1.38634 0
M  V30 1699 H 155.166 2.55945 -1.63481 0
M  V30 1700 H 152.751 1.22248 -0.858817 0
M  V30 1701 H 154.633 4.21018 0.179404 0
M  V30 1702 H 153.308 3.15206 0.736659 0
M  V30 1703 H 152.215 3.39667 -1.56772 0
M  V30 1704 H 153.548 4.47718 -2.04474 0
M  V30 1705 N 155.201 0.870884 1.31352 0
M  V30 1706 C 156.617 0.562932 1.49343 0
M  V30 1707 C 156.817 -0.902725 1.80148 0
M  V30 1708 O 155.873 -1.68484 1.88067 0
M  V30 1709 C 157.186 1.46393 2.62659 0
M  V30 1710 C 158.734 1.46607 2.76542 0
M  V30 1711 C 159.209 2.35266 3.92955 0
M  V30 1712 N 160.7 2.33151 4.00243 0
M  V30 1713 C 161.435 2.98471 4.89594 0
M  V30 1714 N 160.931 3.72964 5.8384 0
M  V30 1715 N 162.724 2.87775 4.82848 0
M  V30 1716 H 154.875 1.81923 1.09626 0
M  V30 1717 H 157.138 0.777934 0.541777 0
M  V30 1718 H 156.844 2.50689 2.46674 0
M  V30 1719 H 156.718 1.16314 3.58819 0
M  V30 1720 H 159.105 0.43069 2.9194 0
M  V30 1721 H 159.186 1.8071 1.81046 0
M  V30 1722 H 158.83 3.38881 3.78315 0
M  V30 1723 H 158.76 1.98487 4.87761 0
M  V30 1724 H 161.251 1.79006 3.32814 0
M  V30 1725 H 161.564 4.19932 6.4875 0
M  V30 1726 H 159.909 3.77073 5.83816 0
M  V30 1727 H 163.1 2.29116 4.08195 0
M  V30 1728 H 163.273 3.38961 5.52277 0
M  V30 1729 N 156.679 -1.44442 0.630414 0
M  V30 1730 C 157.928 -2.01267 0.132073 0
M  V30 1731 C 158.241 -1.50172 -1.25331 0
M  V30 1732 O 159.447 -1.9912 -1.84562 0
M  V30 1733 C 157.903 -3.59422 0.185362 0
M  V30 1734 C 157.511 -4.19514 1.57201 0
M  V30 1735 C 159.255 -4.23724 -0.256553 0
M  V30 1736 C 157.162 -5.69891 1.58045 0
M  V30 1737 H 156.092 -0.752619 0.0456092 0
M  V30 1738 H 158.743 -1.65666 0.789106 0
M  V30 1739 H 157.125 -3.92318 -0.538759 0
M  V30 1740 H 158.299 -3.98156 2.31966 0
M  V30 1741 H 156.614 -3.67496 1.95795 0
M  V30 1742 H 159.211 -5.34019 -0.269767 0
M  V30 1743 H 159.554 -3.96013 -1.28372 0
M  V30 1744 H 160.087 -3.95629 0.41505 0
M  V30 1745 H 156.826 -6.02336 2.58597 0
M  V30 1746 H 156.346 -5.93373 0.875725 0
M  V30 1747 H 158.025 -6.33515 1.31408 0
M  V30 1748 N 158.157 -0.370918 -1.53173 0
M  V30 1749 C 159.404 0.217102 -2.01333 0
M  V30 1750 C 159.732 1.48338 -1.25802 0
M  V30 1751 O 158.987 1.92698 -0.34146 0
M  V30 1752 C 159.286 0.549696 -3.53147 0
M  V30 1753 C 158.952 -0.622872 -4.46577 0
M  V30 1754 C 157.614 -0.944595 -4.71838 0
M  V30 1755 C 159.966 -1.40819 -5.01816 0
M  V30 1756 C 157.294 -2.05351 -5.49589 0
M  V30 1757 C 159.646 -2.50757 -5.80778 0
M  V30 1758 C 158.31 -2.83458 -6.04324 0
M  V30 1759 H 157.58 0.0794431 -0.736729 0
M  V30 1760 H 160.227 -0.504481 -1.84736 0
M  V30 1761 H 158.532 1.35237 -3.6772 0
M  V30 1762 H 160.229 1.017 -3.87889 0
M  V30 1763 H 156.819 -0.36209 -4.27068 0
M  V30 1764 H 161.003 -1.17289 -4.82242 0
M  V30 1765 H 156.259 -2.3108 -5.6605 0
M  V30 1766 H 160.433 -3.12022 -6.22588 0
M  V30 1767 H 158.06 -3.69508 -6.64355 0
M  V30 1768 N 159.635 1.57281 -0.100228 0
M  V30 1769 C 160.912 1.86014 0.604812 0
M  V30 1770 C 161.292 0.998025 1.86018 0
M  V30 1771 O 160.64 0.0718184 2.28387 0
M  V30 1772 C 160.85 3.36784 0.915278 0
M  V30 1773 C 162.198 4.04957 1.27651 0
M  V30 1774 O 163.222 3.41695 1.00613 0
M  V30 1775 O 162.081 5.16593 1.7831 0
M  V30 1776 H 159.175 0.76942 0.303185 0
M  V30 1777 H 161.721 1.69176 -0.133313 0
M  V30 1778 H 160.493 3.91292 0.0248896 0
M  V30 1779 H 160.116 3.58987 1.70921 0
M  V30 1780 N 161.113 -0.173488 1.56642 0
M  V30 1781 C 162.359 -0.891784 1.8214 0
M  V30 1782 C 162.692 -1.8199 0.677736 0
M  V30 1783 O 161.967 -1.91842 -0.320446 0
M  V30 1784 C 162.25 -1.68933 3.18015 0
M  V30 1785 C 162.103 -0.784487 4.42906 0
M  V30 1786 C 163.422 -2.65748 3.50808 0
M  V30 1787 H 160.541 -0.322761 0.662567 0
M  V30 1788 H 163.183 -0.158095 1.89341 0
M  V30 1789 H 161.333 -2.31482 3.12007 0
M  V30 1790 H 163.005 -0.172046 4.60979 0
M  V30 1791 H 161.248 -0.0924117 4.33702 0
M  V30 1792 H 161.919 -1.37799 5.34524 0
M  V30 1793 H 164.395 -2.13327 3.57255 0
M  V30 1794 H 163.271 -3.18619 4.4696 0
M  V30 1795 H 163.532 -3.45842 2.75401 0
M  V30 1796 N 162.591 -1.51276 -0.441967 0
M  V30 1797 C 163.523 -1.68444 -1.55433 0
M  V30 1798 C 164.536 -0.565187 -1.52674 0
M  V30 1799 O 165.725 -0.839356 -1.57534 0
M  V30 1800 C 162.825 -1.67966 -2.94348 0
M  V30 1801 C 161.998 -2.964 -3.21661 0
M  V30 1802 C 161.057 -2.88171 -4.40277 0
M  V30 1803 O 160.083 -3.62119 -4.39157 0
M  V30 1804 N 161.285 -2.03706 -5.43584 0
M  V30 1805 H 164.05 -2.644 -1.41112 0
M  V30 1806 H 161.611 -1.49104 -0.630838 0
M  V30 1807 H 163.603 -1.60035 -3.71713 0
M  V30 1808 H 162.173 -0.796225 -3.0229 0
M  V30 1809 H 161.393 -3.18234 -2.32638 0
M  V30 1810 H 162.681 -3.81427 -3.36736 0
M  V30 1811 H 162.079 -1.42995 -5.47329 0
M  V30 1812 H 160.636 -2.01658 -6.1982 0
M  V30 1813 N 164.069 0.697108 -1.41344 0
M  V30 1814 C 164.999 1.82353 -1.45841 0
M  V30 1815 C 165.98 1.67115 -0.317247 0
M  V30 1816 O 167.165 1.86871 -0.528474 0
M  V30 1817 C 164.295 3.20476 -1.33838 0
M  V30 1818 C 163.249 3.50415 -2.4575 0
M  V30 1819 C 162.575 4.87878 -2.18813 0
M  V30 1820 C 163.875 3.49546 -3.88091 0
M  V30 1821 H 165.569 1.78846 -2.40113 0
M  V30 1822 H 163.115 0.859028 -1.15571 0
M  V30 1823 H 165.068 3.98988 -1.35596 0
M  V30 1824 H 163.792 3.24604 -0.360498 0
M  V30 1825 H 162.451 2.74253 -2.43271 0
M  V30 1826 H 162.099 4.8863 -1.19371 0
M  V30 1827 H 161.799 5.08875 -2.93803 0
M  V30 1828 H 163.323 5.68702 -2.22284 0
M  V30 1829 H 164.737 4.18066 -3.92293 0
M  V30 1830 H 163.134 3.82075 -4.62751 0
M  V30 1831 H 164.204 2.48552 -4.16353 0
M  V30 1832 N 165.547 1.27147 0.931209 0
M  V30 1833 C 166.958 1.12044 1.49342 0
M  V30 1834 C 167.309 -0.295795 1.93957 0
M  V30 1835 O 166.434 -1.18835 1.80852 0
M  V30 1836 C 167.029 2.02781 2.71414 0
M  V30 1837 C 165.588 1.91794 3.2387 0
M  V30 1838 C 164.735 1.95543 1.96617 0
M  V30 1839 H 167.686 1.40091 0.745672 0
M  V30 1840 H 167.707 1.58156 3.46074 0
M  V30 1841 H 167.219 3.05848 2.38911 0
M  V30 1842 H 165.32 0.916992 3.6114 0
M  V30 1843 H 165.433 2.77852 3.90302 0
M  V30 1844 H 163.797 1.39722 2.12955 0
M  V30 1845 H 164.58 3.00259 1.66432 0
M  V30 1846 N 167.025 -1.13721 1.09112 0
M  V30 1847 C 167.975 -2.17082 0.697091 0
M  V30 1848 C 168.959 -1.58321 -0.286923 0
M  V30 1849 O 170.151 -1.7673 -0.0978008 0
M  V30 1850 C 167.28 -3.43105 0.115729 0
M  V30 1851 C 166.366 -4.0888 1.12596 0
M  V30 1852 N 166.757 -4.4987 2.31195 0
M  V30 1853 C 165.055 -4.35471 0.963366 0
M  V30 1854 C 165.756 -5.01094 2.95431 0
M  V30 1855 N 164.732 -4.95751 2.23006 0
M  V30 1856 H 168.534 -2.46524 1.6001 0
M  V30 1857 H 166.048 -1.30481 0.966869 0
M  V30 1858 H 168.045 -4.16491 -0.184555 0
M  V30 1859 H 166.705 -3.15138 -0.78217 0
M  V30 1860 H 167.716 -4.42678 2.68806 0
M  V30 1861 H 164.393 -4.17328 0.119878 0
M  V30 1862 H 165.783 -5.4263 3.96236 0
M  V30 1863 N 168.503 -0.877838 -1.30888 0
M  V30 1864 C 169.733 -0.506678 -2.00291 0
M  V30 1865 C 170.141 0.907449 -1.66018 0
M  V30 1866 O 169.484 1.60719 -0.88967 0
M  V30 1867 C 169.546 -0.59323 -3.54572 0
M  V30 1868 C 169.21 -1.97038 -4.12341 0
M  V30 1869 C 170.207 -2.93889 -4.28865 0
M  V30 1870 C 167.892 -2.27383 -4.47886 0
M  V30 1871 C 169.886 -4.19224 -4.80136 0
M  V30 1872 C 167.573 -3.52965 -4.98857 0
M  V30 1873 C 168.571 -4.48701 -5.14934 0
M  V30 1874 O 168.259 -5.72056 -5.64808 0
M  V30 1875 H 167.991 -0.1951 -0.647234 0
M  V30 1876 H 170.545 -1.18301 -1.6791 0
M  V30 1877 H 168.775 0.140057 -3.86446 0
M  V30 1878 H 170.464 -0.234372 -4.05223 0
M  V30 1879 H 171.23 -2.71756 -4.01714 0
M  V30 1880 H 167.109 -1.53639 -4.34645 0
M  V30 1881 H 170.653 -4.93956 -4.92599 0
M  V30 1882 H 166.55 -3.74939 -5.25443 0
M  V30 1883 H 167.318 -5.74337 -5.83163 0
M  V30 1884 N 169.982 1.44106 -0.638065 0
M  V30 1885 C 171.207 2.0685 -0.150916 0
M  V30 1886 C 171.632 1.47417 1.16833 0
M  V30 1887 O 170.99 0.578264 1.71831 0
M  V30 1888 C 171.038 3.60555 -0.05708 0
M  V30 1889 O 170.142 4.00465 0.984972 0
M  V30 1890 H 169.483 0.658151 -0.0879399 0
M  V30 1891 H 172.013 1.84865 -0.876707 0
M  V30 1892 H 172.023 4.07789 0.131232 0
M  V30 1893 H 170.698 4.03193 -1.02021 0
M  V30 1894 H 169.275 3.64849 0.770672 0
M  V30 1895 N 171.46 0.379036 1.52974 0
M  V30 1896 C 172.871 -0.0972525 1.86447 0
M  V30 1897 C 173.222 -1.47027 1.29914 0
M  V30 1898 O 172.347 -2.07135 0.626433 0
M  V30 1899 C 172.942 -0.183248 3.38304 0
M  V30 1900 C 171.501 -0.603812 3.71525 0
M  V30 1901 C 170.648 0.240632 2.76254 0
M  V30 1902 H 173.599 0.597316 1.4703 0
M  V30 1903 H 173.62 -1.00432 3.67006 0
M  V30 1904 H 173.132 0.816191 3.79421 0
M  V30 1905 H 171.233 -1.61099 3.35973 0
M  V30 1906 H 171.346 -0.369086 4.77676 0
M  V30 1907 H 169.71 -0.292548 2.53014 0
M  V30 1908 H 170.493 1.23786 3.20206 0
M  V30 1909 N 172.938 -1.57226 0.108567 0
M  V30 1910 C 174.163 -1.99604 -0.563303 0
M  V30 1911 C 174.588 -0.987563 -1.6009 0
M  V30 1912 O 173.946 0.0421687 -1.81251 0
M  V30 1913 C 173.994 -3.40902 -1.17552 0
M  V30 1914 O 173.098 -3.42896 -2.2912 0
M  V30 1915 H 172.439 -0.648704 -0.1417 0
M  V30 1916 H 174.969 -2.03679 0.193961 0
M  V30 1917 H 174.979 -3.78886 -1.51357 0
M  V30 1918 H 173.654 -4.1382 -0.415445 0
M  V30 1919 H 172.231 -3.1672 -1.96832 0
M  V30 1920 N 174.416 0.165178 -1.56732 0
M  V30 1921 C 175.693 0.908443 -1.73224 0
M  V30 1922 C 176.073 2.0013 -0.67165 0
M  V30 1923 O 175.421 2.26353 0.31253 0
M  V30 1924 C 175.631 1.46756 -3.16644 0
M  V30 1925 C 176.979 1.93809 -3.77787 0
M  V30 1926 O 178.003 1.56537 -3.1996 0
M  V30 1927 O 176.862 2.62486 -4.79336 0
M  V30 1928 H 173.956 0.428025 -0.707618 0
M  V30 1929 H 176.502 0.152526 -1.69013 0
M  V30 1930 H 175.274 0.68129 -3.85323 0
M  V30 1931 H 174.897 2.28749 -3.25207 0
M  V30 1932 N 175.894 1.51508 0.433938 0
M  V30 1933 C 176.804 1.75917 1.5521 0
M  V30 1934 C 177.82 0.643545 1.61662 0
M  V30 1935 O 178.996 0.926183 1.7884 0
M  V30 1936 C 176.061 1.88213 2.91164 0
M  V30 1937 C 175.122 3.12074 2.94802 0
M  V30 1938 C 174.355 3.23774 4.24271 0
M  V30 1939 O 174.578 2.4133 5.16833 0
M  V30 1940 O 173.512 4.16774 4.34262 0
M  V30 1941 H 177.338 2.70777 1.37527 0
M  V30 1942 H 174.923 1.36051 0.617293 0
M  V30 1943 H 176.805 1.98267 3.71845 0
M  V30 1944 H 175.48 0.965413 3.08968 0
M  V30 1945 H 174.387 3.07497 2.13065 0
M  V30 1946 H 175.72 4.03446 2.81943 0
M  V30 1947 N 177.372 -0.689602 1.41712 0
M  V30 1948 C 178.319 -1.80345 1.44029 0
M  V30 1949 C 179.289 -1.63478 0.293948 0
M  V30 1950 O 180.474 -1.84244 0.495869 0
M  V30 1951 C 177.614 -3.18272 1.33405 0
M  V30 1952 C 176.727 -3.46529 2.57956 0
M  V30 1953 C 175.862 -4.74103 2.39582 0
M  V30 1954 C 174.901 -4.95347 3.5958 0
M  V30 1955 N 174.038 -6.14151 3.40239 0
M  V30 1956 H 178.878 -1.77698 2.39222 0
M  V30 1957 H 176.415 -0.867688 1.18784 0
M  V30 1958 H 178.373 -3.97956 1.25246 0
M  V30 1959 H 177.003 -3.2008 0.418164 0
M  V30 1960 H 176.055 -2.61207 2.76542 0
M  V30 1961 H 177.367 -3.58126 3.47199 0
M  V30 1962 H 176.521 -5.61853 2.28924 0
M  V30 1963 H 175.26 -4.64763 1.47805 0
M  V30 1964 H 174.265 -4.06044 3.70686 0
M  V30 1965 H 175.49 -5.06542 4.52318 0
M  V30 1966 H 173.436 -6.06013 2.51167 0
M  V30 1967 H 173.353 -6.26543 4.23061 0
M  V30 1968 H 174.621 -7.04619 3.33365 0
M  V30 1969 N 178.85 -1.27639 -0.924453 0
M  V30 1970 C 179.813 -1.10681 -2.00705 0
M  V30 1971 C 180.813 -0.0497823 -1.60723 0
M  V30 1972 O 182.003 -0.294654 -1.7169 0
M  V30 1973 C 179.135 -0.687164 -3.33902 0
M  V30 1974 H 180.328 -2.06817 -2.17179 0
M  V30 1975 H 177.881 -1.10473 -1.10569 0
M  V30 1976 H 178.616 0.275439 -3.23128 0
M  V30 1977 H 178.401 -1.45061 -3.6428 0
M  V30 1978 H 179.891 -0.590853 -4.13399 0
M  V30 1979 N 180.328 1.1314 -1.09713 0
M  V30 1980 C 181.744 1.36477 -0.827423 0
M  V30 1981 C 181.944 1.93654 0.556817 0
M  V30 1982 O 181 2.15791 1.31112 0
M  V30 1983 C 182.313 2.31334 -1.92106 0
M  V30 1984 C 183.861 2.44943 -1.94864 0
M  V30 1985 C 184.336 3.4311 -3.0338 0
M  V30 1986 N 185.827 3.50662 -3.02639 0
M  V30 1987 C 186.562 4.2651 -3.83246 0
M  V30 1988 N 186.058 5.05485 -4.73768 0
M  V30 1989 N 187.851 4.2184 -3.71493 0
M  V30 1990 H 180.002 0.743807 -1.9895 0
M  V30 1991 H 182.265 0.389823 -0.864143 0
M  V30 1992 H 181.971 1.96483 -2.91698 0
M  V30 1993 H 181.845 3.31381 -1.80184 0
M  V30 1994 H 184.232 2.79079 -0.959099 0
M  V30 1995 H 184.313 1.4481 -2.10864 0
M  V30 1996 H 183.957 3.09704 -4.02549 0
M  V30 1997 H 183.887 4.43055 -2.84622 0
M  V30 1998 H 186.378 2.94315 -2.37039 0
M  V30 1999 H 186.691 5.60675 -5.3185 0
M  V30 2000 H 185.036 5.04708 -4.77802 0
M  V30 2001 H 188.227 3.5922 -3.00131 0
M  V30 2002 H 188.4 4.80697 -4.3455 0
M  V30 2003 N 181.806 0.884767 1.30421 0
M  V30 2004 C 182.739 0.295999 2.26272 0
M  V30 2005 C 183.717 -0.58332 1.51777 0
M  V30 2006 O 184.901 -0.53346 1.80794 0
M  V30 2007 C 182.028 -0.57944 3.33707 0
M  V30 2008 C 181.074 0.230525 4.25877 0
M  V30 2009 S 181.907 1.61867 5.1045 0
M  V30 2010 C 183.063 0.749756 6.21393 0
M  V30 2011 H 183.296 1.10848 2.75862 0
M  V30 2012 H 180.829 0.684178 1.38414 0
M  V30 2013 H 182.787 -1.07879 3.96071 0
M  V30 2014 H 181.448 -1.36601 2.82841 0
M  V30 2015 H 180.641 -0.437542 5.02097 0
M  V30 2016 H 180.243 0.662493 3.68086 0
M  V30 2017 H 182.535 -0.0333547 6.77492 0
M  V30 2018 H 183.478 1.48356 6.92384 0
M  V30 2019 H 183.886 0.310751 5.63644 0
M  V30 2020 N 183.284 -1.43765 0.645699 0
M  V30 2021 C 184.231 -2.30745 -0.0504648 0
M  V30 2022 C 185.201 -1.4432 -0.822241 0
M  V30 2023 O 186.386 -1.73202 -0.800358 0
M  V30 2024 C 183.526 -3.29802 -1.0161 0
M  V30 2025 C 182.639 -4.31326 -0.241219 0
M  V30 2026 C 181.774 -5.17469 -1.19998 0
M  V30 2027 C 180.813 -6.10691 -0.415094 0
M  V30 2028 N 179.95 -6.89483 -1.32506 0
M  V30 2029 H 184.79 -2.8973 0.697155 0
M  V30 2030 H 182.327 -1.42738 0.355563 0
M  V30 2031 H 184.285 -3.85734 -1.58949 0
M  V30 2032 H 182.915 -2.72483 -1.73069 0
M  V30 2033 H 181.967 -3.77749 0.448334 0
M  V30 2034 H 183.279 -4.9743 0.369437 0
M  V30 2035 H 182.433 -5.7799 -1.84424 0
M  V30 2036 H 181.172 -4.51473 -1.84455 0
M  V30 2037 H 180.177 -5.49265 0.242565 0
M  V30 2038 H 181.402 -6.78727 0.224966 0
M  V30 2039 H 179.348 -6.26142 -1.95657 0
M  V30 2040 H 179.265 -7.52081 -0.768783 0
M  V30 2041 H 180.533 -7.54516 -1.9577 0
M  V30 2042 N 184.763 -0.387143 -1.52771 0
M  V30 2043 C 185.693 0.440551 -2.29306 0
M  V30 2044 C 186.674 1.06535 -1.32606 0
M  V30 2045 O 187.859 1.07853 -1.61497 0
M  V30 2046 C 184.989 1.56919 -3.09829 0
M  V30 2047 C 183.943 1.07054 -4.14395 0
M  V30 2048 C 183.269 2.29109 -4.83129 0
M  V30 2049 C 184.569 0.140015 -5.22112 0
M  V30 2050 H 186.263 -0.198026 -2.98744 0
M  V30 2051 H 183.809 -0.09668 -1.43675 0
M  V30 2052 H 185.762 2.15503 -3.62128 0
M  V30 2053 H 184.486 2.23532 -2.3812 0
M  V30 2054 H 183.145 0.507247 -3.63074 0
M  V30 2055 H 182.793 2.94227 -4.0797 0
M  V30 2056 H 182.493 1.96406 -5.53804 0
M  V30 2057 H 184.017 2.88339 -5.38231 0
M  V30 2058 H 185.431 0.633978 -5.69784 0
M  V30 2059 H 183.828 -0.0971485 -6.00021 0
M  V30 2060 H 184.898 -0.811711 -4.78058 0
M  V30 2061 N 186.241 1.57166 -0.116904 0
M  V30 2062 C 187.469 1.99473 0.549383 0
M  V30 2063 C 187.884 0.996541 1.60357 0
M  V30 2064 O 187.241 -0.0108731 1.82497 0
M  V30 2065 C 187.292 3.41788 1.17741 0
M  V30 2066 O 187.013 4.37788 0.165362 0
M  V30 2067 C 188.514 3.99216 1.92722 0
M  V30 2068 H 185.734 0.655009 0.145616 0
M  V30 2069 H 188.278 2.03494 -0.202625 0
M  V30 2070 H 186.433 3.38713 1.88021 0
M  V30 2071 H 186.847 5.20806 0.621403 0
M  V30 2072 H 188.321 5.00882 2.31995 0
M  V30 2073 H 188.798 3.3824 2.80161 0
M  V30 2074 H 189.404 4.0583 1.27209 0
M  V30 2075 N 187.719 -0.156864 1.56817 0
M  V30 2076 C 188.649 -1.19589 2.00551 0
M  V30 2077 C 189.63 -1.4536 0.883426 0
M  V30 2078 O 190.815 -1.56449 1.15054 0
M  V30 2079 C 187.945 -2.53143 2.37773 0
M  V30 2080 C 186.899 -2.41913 3.53075 0
M  V30 2081 C 186.225 -3.80088 3.76081 0
M  V30 2082 C 187.525 -1.91157 4.86062 0
M  V30 2083 H 189.219 -0.832293 2.87599 0
M  V30 2084 H 186.765 -0.398918 1.38364 0
M  V30 2085 H 188.718 -3.26047 2.66967 0
M  V30 2086 H 187.442 -2.91319 1.4765 0
M  V30 2087 H 186.101 -1.71462 3.24031 0
M  V30 2088 H 185.749 -4.15683 2.83225 0
M  V30 2089 H 185.449 -3.73439 4.53671 0
M  V30 2090 H 186.973 -4.54556 4.0769 0
M  V30 2091 H 188.387 -2.53846 5.14038 0
M  V30 2092 H 186.784 -1.95422 5.67389 0
M  V30 2093 H 187.854 -0.866673 4.77092 0
M  V30 2094 N 189.197 -1.51736 -0.425897 0
M  V30 2095 C 190.127 -1.76827 -1.52494 0
M  V30 2096 C 191.108 -0.618524 -1.58456 0
M  V30 2097 O 192.293 -0.862416 -1.74 0
M  V30 2098 C 189.423 -1.90374 -2.90474 0
M  V30 2099 C 188.377 -3.0588 -2.99369 0
M  V30 2100 C 187.703 -3.04625 -4.3944 0
M  V30 2101 C 189.003 -4.45644 -2.72394 0
M  V30 2102 H 190.697 -2.68855 -1.31748 0
M  V30 2103 H 188.243 -1.29372 -0.632362 0
M  V30 2104 H 190.196 -2.0651 -3.6733 0
M  V30 2105 H 188.92 -0.95004 -3.12477 0
M  V30 2106 H 187.579 -2.89467 -2.24954 0
M  V30 2107 H 187.227 -2.0701 -4.58428 0
M  V30 2108 H 186.927 -3.82195 -4.46319 0
M  V30 2109 H 188.451 -3.22869 -5.18255 0
M  V30 2110 H 189.865 -4.62348 -3.38979 0
M  V30 2111 H 188.262 -5.25006 -2.9067 0
M  V30 2112 H 189.332 -4.54893 -1.67929 0
M  V30 2113 N 190.675 0.682077 -1.42076 0
M  V30 2114 C 191.625 1.78823 -1.41444 0
M  V30 2115 C 192.609 1.58323 -0.28681 0
M  V30 2116 O 193.801 1.68926 -0.528498 0
M  V30 2117 C 190.93 3.17232 -1.3122 0
M  V30 2118 C 190.016 3.4338 -2.489 0
M  V30 2119 N 190.407 3.40152 -3.7434 0
M  V30 2120 C 188.705 3.73986 -2.43003 0
M  V30 2121 C 189.406 3.65581 -4.52466 0
M  V30 2122 N 188.382 3.85989 -3.8277 0
M  V30 2123 H 192.184 1.7471 -2.36334 0
M  V30 2124 H 189.698 0.882622 -1.36321 0
M  V30 2125 H 191.695 3.96489 -1.2885 0
M  V30 2126 H 190.355 3.22547 -0.373263 0
M  V30 2127 H 191.366 3.20221 -4.07037 0
M  V30 2128 H 188.043 3.86591 -1.57651 0
M  V30 2129 H 189.433 3.69108 -5.61435 0
M  V30 2130 N 192.153 1.28127 0.917671 0
M  V30 2131 C 193.569 1.05749 1.19538 0
M  V30 2132 C 193.769 -0.202633 2.00479 0
M  V30 2133 O 192.825 -0.905382 2.3571 0
M  V30 2134 C 194.138 2.30273 1.93378 0
M  V30 2135 C 195.686 2.35412 2.06277 0
M  V30 2136 C 196.161 3.59692 2.83524 0
M  V30 2137 N 197.652 3.60309 2.91087 0
M  V30 2138 C 198.387 4.53147 3.51348 0
M  V30 2139 N 197.883 5.563 4.12919 0
M  V30 2140 N 199.676 4.40751 3.48849 0
M  V30 2141 H 191.827 2.09024 0.377184 0
M  V30 2142 H 194.09 0.919798 0.22951 0
M  V30 2143 H 193.796 3.22055 1.41328 0
M  V30 2144 H 193.67 2.36378 2.93947 0
M  V30 2145 H 196.057 1.4413 2.57508 0
M  V30 2146 H 196.138 2.33304 1.04895 0
M  V30 2147 H 195.782 4.51316 2.32973 0
M  V30 2148 H 195.712 3.59054 3.85211 0
M  V30 2149 H 198.203 2.85714 2.47338 0
M  V30 2150 H 198.516 6.2329 4.56869 0
M  V30 2151 H 196.861 5.60131 4.11435 0
M  V30 2152 H 200.052 3.59367 2.99955 0
M  V30 2153 H 200.225 5.13291 3.9552 0
M  V30 2154 N 193.631 -1.12557 1.10312 0
M  V30 2155 C 194.541 -2.21841 0.763142 0
M  V30 2156 C 195.557 -1.72354 -0.238801 0
M  V30 2157 O 196.733 -2.01249 -0.0778746 0
M  V30 2158 C 193.798 -3.46131 0.198632 0
M  V30 2159 C 192.859 -4.10464 1.25769 0
M  V30 2160 C 192.092 -5.28821 0.72002 0
M  V30 2161 O 192.315 -5.6859 -0.453993 0
M  V30 2162 O 191.249 -5.83437 1.47935 0
M  V30 2163 H 195.075 -2.53312 1.67532 0
M  V30 2164 H 192.66 -1.20867 0.878157 0
M  V30 2165 H 194.542 -4.2125 -0.112401 0
M  V30 2166 H 193.217 -3.16338 -0.686419 0
M  V30 2167 H 192.124 -3.3713 1.62156 0
M  V30 2168 H 193.457 -4.44408 2.11571 0
M  V30 2169 N 195.109 -0.891671 -1.2995 0
M  V30 2170 C 196.039 -0.379797 -2.30391 0
M  V30 2171 C 197.02 0.540919 -1.6127 0
M  V30 2172 O 198.205 0.453352 -1.88834 0
M  V30 2173 C 195.335 0.400654 -3.44981 0
M  V30 2174 C 194.289 -0.428905 -4.25846 0
M  V30 2175 C 193.615 0.478557 -5.32554 0
M  V30 2176 C 194.915 -1.67458 -4.94727 0
M  V30 2177 H 196.609 -1.21914 -2.73454 0
M  V30 2178 H 194.155 -0.587675 -1.31462 0
M  V30 2179 H 196.108 0.769434 -4.14316 0
M  V30 2180 H 194.832 1.27371 -3.0074 0
M  V30 2181 H 193.491 -0.779911 -3.58208 0
M  V30 2182 H 193.139 1.34951 -4.84559 0
M  V30 2183 H 192.839 -0.0727433 -5.87555 0
M  V30 2184 H 194.363 0.843705 -6.04743 0
M  V30 2185 H 195.777 -1.376 -5.56542 0
M  V30 2186 H 194.174 -2.16659 -5.59624 0
M  V30 2187 H 195.244 -2.41518 -4.20473 0
M  V30 2188 N 196.587 1.43421 -0.653314 0
M  V30 2189 C 197.519 2.29071 0.0769134 0
M  V30 2190 C 198.532 1.42513 0.787017 0
M  V30 2191 O 199.721 1.66449 0.644757 0
M  V30 2192 C 196.821 3.19436 1.13199 0
M  V30 2193 C 195.994 4.34533 0.500006 0
M  V30 2194 C 195.053 5.05771 1.45198 0
M  V30 2195 O 194.079 5.61037 0.960538 0
M  V30 2196 N 195.281 5.0928 2.78594 0
M  V30 2197 H 198.046 2.92382 -0.658235 0
M  V30 2198 H 195.607 1.54112 -0.496104 0
M  V30 2199 H 197.599 3.63958 1.76964 0
M  V30 2200 H 196.169 2.57724 1.7691 0
M  V30 2201 H 195.389 3.92925 -0.316738 0
M  V30 2202 H 196.677 5.08766 0.0588345 0
M  V30 2203 H 196.075 4.65751 3.2108 0
M  V30 2204 H 194.632 5.57519 3.37662 0
M  V30 2205 N 198.065 0.39524 1.52563 0
M  V30 2206 C 199.028 -0.425001 2.25225 0
M  V30 2207 C 200.028 -0.985266 1.27079 0
M  V30 2208 O 201.218 -0.866332 1.5113 0
M  V30 2209 C 198.35 -1.59686 3.01186 0
M  V30 2210 H 199.543 0.211233 2.99155 0
M  V30 2211 H 197.096 0.147472 1.55603 0
M  V30 2212 H 197.831 -2.27035 2.31572 0
M  V30 2213 H 197.616 -1.20176 3.73229 0
M  V30 2214 H 199.106 -2.17743 3.5634 0
M  V30 2215 N 199.544 -1.57102 0.125237 0
M  V30 2216 C 200.474 -2.18659 -0.819174 0
M  V30 2217 C 201.455 -1.12843 -1.27281 0
M  V30 2218 O 202.64 -1.41104 -1.33429 0
M  V30 2219 C 199.77 -2.79096 -2.06695 0
M  V30 2220 C 198.724 -3.90548 -1.75088 0
M  V30 2221 C 198.05 -4.37821 -3.06948 0
M  V30 2222 C 199.35 -5.12356 -1.01435 0
M  V30 2223 H 201.044 -2.9783 -0.306202 0
M  V30 2224 H 198.59 -1.4326 -0.145839 0
M  V30 2225 H 200.543 -3.2082 -2.73226 0
M  V30 2226 H 199.267 -1.97223 -2.60328 0
M  V30 2227 H 197.926 -3.49409 -1.10944 0
M  V30 2228 H 197.574 -3.52799 -3.58527 0
M  V30 2229 H 197.274 -5.12982 -2.86571 0
M  V30 2230 H 198.798 -4.822 -3.74587 0
M  V30 2231 H 200.212 -5.5106 -1.58132 0
M  V30 2232 H 198.609 -5.9314 -0.911319 0
M  V30 2233 H 199.679 -4.849 -0.00218681 0
M  V30 2234 N 201.022 0.148545 -1.56898 0
M  V30 2235 C 202.25 0.876389 -1.87422 0
M  V30 2236 C 202.665 1.74809 -0.713256 0
M  V30 2237 O 202.022 1.79725 0.317025 0
M  V30 2238 C 202.073 1.73438 -3.17178 0
M  V30 2239 O 201.794 0.897809 -4.28802 0
M  V30 2240 C 203.295 2.56993 -3.61205 0
M  V30 2241 H 200.515 0.253489 -0.621277 0
M  V30 2242 H 203.059 0.141798 -2.04008 0
M  V30 2243 H 201.214 2.42205 -3.0235 0
M  V30 2244 H 201.628 1.48672 -5.02988 0
M  V30 2245 H 203.102 3.12773 -4.54838 0
M  V30 2246 H 203.579 3.32958 -2.86419 0
M  V30 2247 H 204.185 1.9352 -3.78722 0
M  V30 2248 N 202.5 1.5196 0.417844 0
M  V30 2249 C 203.41 1.77554 1.53336 0
M  V30 2250 C 204.426 0.660655 1.6097 0
M  V30 2251 O 205.602 0.945099 1.77848 0
M  V30 2252 C 202.667 1.91291 2.89152 0
M  V30 2253 C 201.728 3.15183 2.91475 0
M  V30 2254 C 200.961 3.28256 4.20813 0
M  V30 2255 O 201.184 2.46798 5.14244 0
M  V30 2256 O 200.118 4.21356 4.29817 0
M  V30 2257 H 203.944 2.7222 1.34647 0
M  V30 2258 H 201.529 1.36698 0.602828 0
M  V30 2259 H 203.411 2.02199 3.69721 0
M  V30 2260 H 202.086 0.998129 3.07927 0
M  V30 2261 H 200.993 3.09739 2.09791 0
M  V30 2262 H 202.326 4.06414 2.77648 0
M  V30 2263 N 203.978 -0.674533 1.42435 0
M  V30 2264 C 204.941 -1.76986 1.45632 0
M  V30 2265 C 205.941 -1.5708 0.343871 0
M  V30 2266 O 207.131 -1.63367 0.604709 0
M  V30 2267 C 204.263 -3.15623 1.28822 0
M  V30 2268 H 205.456 -1.75539 2.43158 0
M  V30 2269 H 203.009 -0.884189 1.28887 0
M  V30 2270 H 203.744 -3.22696 0.322193 0
M  V30 2271 H 203.529 -3.31475 2.09444 0
M  V30 2272 H 205.019 -3.95537 1.33942 0
M  V30 2273 N 205.456 -1.28612 -0.910864 0
M  V30 2274 C 206.389 -1.07109 -2.01502 0
M  V30 2275 C 207.367 0.013706 -1.62594 0
M  V30 2276 O 208.551 -0.134796 -1.88017 0
M  V30 2277 C 205.678 -0.628255 -3.32822 0
M  V30 2278 C 204.724 -1.71012 -3.90714 0
M  V30 2279 S 205.557 -3.30676 -4.21205 0
M  V30 2280 C 206.713 -2.88234 -5.55583 0
M  V30 2281 H 206.946 -2.00591 -2.19432 0
M  V30 2282 H 204.479 -1.12633 -1.05609 0
M  V30 2283 H 206.437 -0.37946 -4.08742 0
M  V30 2284 H 205.098 0.28678 -3.12788 0
M  V30 2285 H 204.291 -1.35195 -4.85529 0
M  V30 2286 H 203.893 -1.91186 -3.21441 0
M  V30 2287 H 206.185 -2.34584 -6.35591 0
M  V30 2288 H 207.128 -3.81857 -5.96314 0
M  V30 2289 H 207.536 -2.26862 -5.16908 0
M  V30 2290 N 206.934 1.1197 -1.10907 0
M  V30 2291 C 208.164 1.8713 -0.875553 0
M  V30 2292 C 208.572 1.8016 0.577843 0
M  V30 2293 O 207.915 1.17699 1.41042 0
M  V30 2294 C 207.977 3.37005 -1.2517 0
M  V30 2295 C 207.641 3.67748 -2.71313 0
M  V30 2296 C 208.638 3.65698 -3.69542 0
M  V30 2297 C 206.323 3.96928 -3.07821 0
M  V30 2298 C 208.317 3.92395 -5.023 0
M  V30 2299 C 206.004 4.23284 -4.40765 0
M  V30 2300 C 207.002 4.21005 -5.37814 0
M  V30 2301 O 206.69 4.46704 -6.68364 0
M  V30 2302 H 206.422 0.598786 -0.313737 0
M  V30 2303 H 208.976 1.42568 -1.47863 0
M  V30 2304 H 207.206 3.82146 -0.591741 0
M  V30 2305 H 208.895 3.93519 -0.994877 0
M  V30 2306 H 209.661 3.43211 -3.42682 0
M  V30 2307 H 205.54 3.97841 -2.32902 0
M  V30 2308 H 209.084 3.90531 -5.78041 0
M  V30 2309 H 204.981 4.45246 -4.67361 0
M  V30 2310 H 205.749 4.64299 -6.74069 0
M  V30 2311 N 208.412 0.89855 1.29475 0
M  V30 2312 C 209.64 0.539261 1.99749 0
M  V30 2313 C 210.055 -0.875716 1.67262 0
M  V30 2314 O 209.412 -1.57786 0.917049 0
M  V30 2315 C 209.463 0.72061 3.54245 0
M  V30 2316 O 209.184 2.07989 3.8558 0
M  V30 2317 C 210.685 0.366118 4.41786 0
M  V30 2318 H 207.905 0.207047 0.638258 0
M  V30 2319 H 210.449 1.20758 1.65039 0
M  V30 2320 H 208.604 0.0994862 3.87272 0
M  V30 2321 H 209.018 2.10841 4.80257 0
M  V30 2322 H 210.492 0.543848 5.49314 0
M  V30 2323 H 210.969 -0.696763 4.33638 0
M  V30 2324 H 211.575 0.964135 4.14228 0
M  V30 2325 N 209.89 -1.43072 0.660911 0
M  V30 2326 C 210.838 -2.32569 -0.0378199 0
M  V30 2327 C 211.832 -1.49046 -0.805092 0
M  V30 2328 O 213.038 -1.65206 -0.714624 0
M  V30 2329 H 209.413 -0.75136 -0.031019 0
M  V30 2330 H 211.384 -2.89216 0.734609 0
M  V30 2331 C 210.133 -3.33453 -0.985124 0
M  V30 2332 H 209.456 -3.97752 -0.404147 0
M  V30 2333 H 210.896 -3.98691 -1.44297 0
M  V30 2334 C 209.355 -2.64642 -2.08486 0
M  V30 2335 O 209.885 -2.46776 -3.16961 0
M  V30 2336 N 208.091 -2.23891 -1.8526 0
M  V30 2337 H 207.638 -2.38621 -0.970449 0
M  V30 2338 H 207.596 -1.78181 -2.59034 0
M  V30 2339 N 211.368 -0.403325 -1.52352 0
M  V30 2340 C 212.298 0.416205 -2.29761 0
M  V30 2341 C 213.279 1.05123 -1.33728 0
M  V30 2342 O 214.464 1.06134 -1.62632 0
M  V30 2343 C 211.594 1.53624 -3.11475 0
M  V30 2344 C 210.548 1.02653 -4.15507 0
M  V30 2345 C 209.874 2.23971 -4.85532 0
M  V30 2346 C 211.174 0.08463 -5.22231 0
M  V30 2347 H 212.868 -0.229701 -2.98518 0
M  V30 2348 H 210.414 -0.111913 -1.43564 0
M  V30 2349 H 212.367 2.1165 -3.64393 0
M  V30 2350 H 211.091 2.20994 -2.40477 0
M  V30 2351 H 209.75 0.46871 -3.63591 0
M  V30 2352 H 209.398 2.89883 -4.11068 0
M  V30 2353 H 209.098 1.90521 -5.55856 0
M  V30 2354 H 210.622 2.82614 -5.41259 0
M  V30 2355 H 212.036 0.573509 -5.70424 0
M  V30 2356 H 210.433 -0.160783 -5.99885 0
M  V30 2357 H 211.503 -0.86237 -4.7717 0
M  V30 2358 N 212.846 1.57033 -0.133567 0
M  V30 2359 C 213.796 2.12641 0.822671 0
M  V30 2360 C 214.78 1.05081 1.21847 0
M  V30 2361 O 215.972 1.31287 1.18713 0
M  V30 2362 C 213.101 2.74094 2.06706 0
M  V30 2363 C 212.187 3.88757 1.69497 0
M  V30 2364 N 212.578 4.95194 1.03037 0
M  V30 2365 C 210.876 3.99213 1.98859 0
M  V30 2366 C 211.577 5.75414 0.852873 0
M  V30 2367 N 210.553 5.25726 1.3825 0
M  V30 2368 H 214.355 2.92308 0.305537 0
M  V30 2369 H 211.869 1.62256 0.0684276 0
M  V30 2370 H 213.866 3.12285 2.76195 0
M  V30 2371 H 212.526 1.95896 2.5895 0
M  V30 2372 H 213.537 5.13247 0.692669 0
M  V30 2373 H 210.214 3.32075 2.53047 0
M  V30 2374 H 211.604 6.71089 0.330091 0
M  V30 2375 N 214.325 -0.140222 1.56975 0
M  V30 2376 C 215.288 -1.15689 1.97861 0
M  V30 2377 C 216.288 -1.3549 0.865974 0
M  V30 2378 O 217.478 -1.32367 1.13246 0
M  V30 2379 C 214.61 -2.51582 2.30042 0
M  V30 2380 H 215.803 -0.805971 2.88867 0
M  V30 2381 H 213.356 -0.383801 1.51515 0
M  V30 2382 H 214.091 -2.91632 1.41849 0
M  V30 2383 H 213.876 -2.38569 3.11171 0
M  V30 2384 H 215.366 -3.24792 2.62488 0
M  V30 2385 N 215.803 -1.52179 -0.40978 0
M  V30 2386 C 217.049 -1.66453 -1.15851 0
M  V30 2387 C 217.382 -0.392972 -1.90182 0
M  V30 2388 O 216.657 0.608579 -1.84734 0
M  V30 2389 C 216.94 -2.88612 -2.15349 0
M  V30 2390 C 216.793 -4.25815 -1.44918 0
M  V30 2391 C 218.112 -3.06294 -3.16026 0
M  V30 2392 H 215.231 -0.60575 -0.419805 0
M  V30 2393 H 217.873 -1.84732 -0.444314 0
M  V30 2394 H 216.023 -2.73158 -2.76255 0
M  V30 2395 H 217.695 -4.52995 -0.871365 0
M  V30 2396 H 215.938 -4.27247 -0.751159 0
M  V30 2397 H 216.609 -5.07337 -2.17516 0
M  V30 2398 H 219.085 -3.20641 -2.65195 0
M  V30 2399 H 217.961 -3.93283 -3.8291 0
M  V30 2400 H 218.222 -2.19579 -3.83715 0
M  V30 2401 N 217.281 0.66697 -1.42791 0
M  V30 2402 C 218.211 1.79218 -1.49677 0
M  V30 2403 C 219.192 1.66405 -0.352623 0
M  V30 2404 O 220.377 1.85708 -0.567993 0
M  V30 2405 C 217.507 3.17565 -1.40605 0
M  V30 2406 C 216.461 3.45124 -2.53127 0
M  V30 2407 C 215.787 4.83127 -2.29112 0
M  V30 2408 C 217.087 3.41236 -3.95418 0
M  V30 2409 H 218.781 1.73713 -2.43853 0
M  V30 2410 H 216.327 0.83432 -1.17367 0
M  V30 2411 H 218.28 3.96022 -1.44029 0
M  V30 2412 H 217.004 3.23767 -0.429271 0
M  V30 2413 H 215.663 2.69031 -2.49034 0
M  V30 2414 H 215.311 4.85988 -1.29709 0
M  V30 2415 H 215.011 5.02528 -3.04531 0
M  V30 2416 H 216.535 5.63859 -2.34297 0
M  V30 2417 H 217.949 4.09651 -4.01073 0
M  V30 2418 H 216.346 3.72173 -4.70752 0
M  V30 2419 H 217.416 2.39665 -4.21532 0
M  V30 2420 N 218.759 1.29093 0.90403 0
M  V30 2421 C 219.689 1.16401 2.02418 0
M  V30 2422 C 220.67 0.0593085 1.69997 0
M  V30 2423 O 221.855 0.238021 1.92736 0
M  V30 2424 C 218.985 0.835233 3.37107 0
M  V30 2425 C 217.939 1.89578 3.83724 0
M  V30 2426 C 217.265 1.42041 5.15489 0
M  V30 2427 C 218.565 3.30394 4.04521 0
M  V30 2428 H 220.259 2.10109 2.13295 0
M  V30 2429 H 217.805 1.01157 1.02486 0
M  V30 2430 H 219.758 0.733169 4.14973 0
M  V30 2431 H 218.482 -0.137543 3.2631 0
M  V30 2432 H 217.141 1.98715 3.08071 0
M  V30 2433 H 216.789 0.436426 5.01103 0
M  V30 2434 H 216.489 2.12964 5.4765 0
M  V30 2435 H 218.013 1.33176 5.959 0
M  V30 2436 H 219.427 3.24123 4.72882 0
M  V30 2437 H 217.824 3.99237 4.48029 0
M  V30 2438 H 218.894 3.73692 3.09002 0
M  V30 2439 N 220.237 -1.11381 1.11499 0
M  V30 2440 C 221.485 -1.8277 0.862524 0
M  V30 2441 C 221.806 -1.85097 -0.613534 0
M  V30 2442 O 221.076 -1.32198 -1.4457 0
M  V30 2443 H 219.656 -0.676823 0.316101 0
M  V30 2444 H 222.318 -1.34816 1.4075 0
M  V30 2445 H 221.414 -2.86614 1.23527 0
M  V30 2446 N 221.715 -0.905404 -1.28997 0
M  V30 2447 C 222.992 -0.453513 -1.9027 0
M  V30 2448 C 223.372 1.06721 -1.82137 0
M  V30 2449 O 222.72 1.91159 -1.25182 0
M  V30 2450 C 222.93 -0.974494 -3.35119 0
M  V30 2451 C 224.278 -1.0216 -4.12127 0
M  V30 2452 O 225.302 -0.922557 -3.44046 0
M  V30 2453 O 224.161 -1.17121 -5.33802 0
M  V30 2454 H 221.255 -0.142347 -0.814657 0
M  V30 2455 H 223.801 -0.995642 -1.37423 0
M  V30 2456 H 222.573 -2.01848 -3.35221 0
M  V30 2457 H 222.196 -0.412706 -3.95452 0
M  V30 2458 N 223.193 1.4272 -0.668489 0
M  V30 2459 C 224.156 2.292 0.00448567 0
M  V30 2460 C 225.156 1.43001 0.735339 0
M  V30 2461 O 226.346 1.64461 0.57429 0
M  V30 2462 C 223.478 3.25375 1.01705 0
M  V30 2463 H 224.671 2.90199 -0.756608 0
M  V30 2464 H 222.224 1.50254 -0.430506 0
M  V30 2465 H 222.959 2.69301 1.80686 0
M  V30 2466 H 222.744 3.88944 0.496463 0
M  V30 2467 H 224.234 3.90245 1.48655 0
M  V30 2468 N 224.671 0.411399 1.52136 0
M  V30 2469 C 225.899 -0.163076 2.06256 0
M  V30 2470 C 226.314 -1.3867 1.28125 0
M  V30 2471 O 225.671 -1.79423 0.333721 0
M  V30 2472 C 225.722 -0.511252 3.57867 0
M  V30 2473 O 225.443 0.66378 4.33042 0
M  V30 2474 C 226.944 -1.13921 4.28412 0
M  V30 2475 H 224.164 -0.0193897 0.67072 0
M  V30 2476 H 226.708 0.583007 1.96013 0
M  V30 2477 H 224.863 -1.20723 3.6811 0
M  V30 2478 H 225.277 0.372601 5.23175 0
M  V30 2479 H 226.751 -1.33302 5.35663 0
M  V30 2480 H 227.228 -2.11296 3.85033 0
M  V30 2481 H 227.834 -0.483373 4.22544 0
M  V30 2482 N 226.149 -1.5696 0.141893 0
M  V30 2483 C 227.059 -2.20066 -0.812905 0
M  V30 2484 C 228.075 -1.18344 -1.27557 0
M  V30 2485 O 229.251 -1.50902 -1.33381 0
M  V30 2486 C 226.316 -2.80583 -2.03652 0
M  V30 2487 C 225.377 -3.97414 -1.62359 0
M  V30 2488 C 224.61 -4.55036 -2.78887 0
M  V30 2489 O 224.833 -4.11538 -3.94959 0
M  V30 2490 O 223.767 -5.45376 -2.54653 0
M  V30 2491 H 227.593 -3.02157 -0.305746 0
M  V30 2492 H 225.178 -1.49159 -0.0848799 0
M  V30 2493 H 227.06 -3.19067 -2.75272 0
M  V30 2494 H 225.735 -2.01508 -2.5333 0
M  V30 2495 H 224.642 -3.63656 -0.877775 0
M  V30 2496 H 225.975 -4.77994 -1.17401 0
M  V30 2497 N 227.627 0.131896 -1.57047 0
M  V30 2498 C 228.59 1.14638 -1.98471 0
M  V30 2499 C 229.59 1.35029 -0.873148 0
M  V30 2500 O 230.78 1.31764 -1.13946 0
M  V30 2501 C 227.912 2.50358 -2.31373 0
M  V30 2502 H 229.105 0.79064 -2.8929 0
M  V30 2503 H 226.658 0.375761 -1.51716 0
M  V30 2504 H 227.393 2.90876 -1.43393 0
M  V30 2505 H 227.178 2.36915 -3.12432 0
M  V30 2506 H 228.668 3.23395 -2.64207 0
M  V30 2507 N 229.106 1.52395 0.401703 0
M  V30 2508 C 230.354 1.66488 1.14569 0
M  V30 2509 C 230.675 0.400897 1.90835 0
M  V30 2510 O 229.945 -0.584415 1.8698 0
M  V30 2511 H 228.525 0.613672 0.425929 0
M  V30 2512 H 231.187 1.89464 0.457093 0
M  V30 2513 H 230.283 2.50942 1.85566 0
M  V30 2514 N 230.584 -0.659388 1.43143 0
M  V30 2515 C 231.809 -1.45221 1.48073 0
M  V30 2516 C 232.234 -1.87845 0.097995 0
M  V30 2517 O 231.592 -1.56985 -0.90694 0
M  V30 2518 C 231.64 -2.66748 2.42647 0
M  V30 2519 O 230.744 -3.65583 1.90848 0
M  V30 2520 H 230.085 -0.435669 0.501088 0
M  V30 2521 H 232.615 -0.807432 1.87994 0
M  V30 2522 H 232.625 -3.14637 2.59745 0
M  V30 2523 H 231.3 -2.35067 3.43098 0
M  V30 2524 H 229.877 -3.24693 1.83381 0
M  V30 2525 N 232.062 -1.29571 -0.897171 0
M  V30 2526 C 233.31 -1.17456 -1.64464 0
M  V30 2527 C 233.631 0.273698 -1.9307 0
M  V30 2528 O 232.901 1.18684 -1.55855 0
M  V30 2529 H 231.481 -0.431706 -0.609622 0
M  V30 2530 H 234.143 -1.62531 -1.07562 0
M  V30 2531 H 233.239 -1.72648 -2.59998 0
M  V30 2532 N 233.54 1.10788 -1.12088 0
M  V30 2533 C 234.786 1.8313 -0.885148 0
M  V30 2534 C 235.141 1.8336 0.582839 0
M  V30 2535 O 234.434 1.28062 1.42516 0
M  V30 2536 C 234.628 3.29294 -1.38926 0
M  V30 2537 C 234.457 3.43302 -2.90472 0
M  V30 2538 C 233.227 3.55928 -3.58669 0
M  V30 2539 C 235.425 3.37014 -3.88492 0
M  V30 2540 N 233.407 3.58475 -4.98366 0
M  V30 2541 C 234.778 3.46263 -5.14298 0
M  V30 2542 C 236.833 3.20589 -3.80955 0
M  V30 2543 C 235.536 3.4078 -6.33452 0
M  V30 2544 C 237.562 3.16427 -4.99628 0
M  V30 2545 C 236.924 3.26253 -6.2429 0
M  V30 2546 H 233.023 0.685054 -0.377128 0
M  V30 2547 H 235.607 1.3251 -1.4265 0
M  V30 2548 H 233.778 3.78416 -0.874999 0
M  V30 2549 H 235.51 3.89578 -1.09596 0
M  V30 2550 H 232.265 3.58779 -3.09151 0
M  V30 2551 H 232.689 3.6337 -5.71219 0
M  V30 2552 H 237.331 3.11873 -2.85474 0
M  V30 2553 H 235.049 3.48263 -7.29204 0
M  V30 2554 H 238.635 3.04874 -4.95523 0
M  V30 2555 H 237.515 3.2303 -7.14578 0
M  V30 2556 N 235.018 0.912232 1.28515 0
M  V30 2557 C 235.968 0.370649 2.24967 0
M  V30 2558 C 236.952 -0.516375 1.52389 0
M  V30 2559 O 238.144 -0.356345 1.73376 0
M  V30 2560 C 235.273 -0.389526 3.41083 0
M  V30 2561 C 234.359 0.51313 4.20984 0
M  V30 2562 N 234.75 1.62604 4.78951 0
M  V30 2563 C 233.048 0.313235 4.44899 0
M  V30 2564 C 233.749 2.18619 5.39055 0
M  V30 2565 N 232.725 1.47765 5.23132 0
M  V30 2566 H 236.527 1.22061 2.67354 0
M  V30 2567 H 234.041 0.764712 1.43269 0
M  V30 2568 H 236.038 -0.794353 4.09262 0
M  V30 2569 H 234.698 -1.2366 3.0023 0
M  V30 2570 H 235.709 2.00864 4.77362 0
M  V30 2571 H 232.386 -0.494452 4.14562 0
M  V30 2572 H 233.776 3.12228 5.94948 0
M  V30 2573 N 236.496 -1.42363 0.676048 0
M  V30 2574 C 237.406 -2.346 -0.00153389 0
M  V30 2575 C 238.422 -1.5516 -0.787485 0
M  V30 2576 O 239.598 -1.87723 -0.729521 0
M  V30 2577 C 236.663 -3.33705 -0.940298 0
M  V30 2578 C 235.724 -4.29042 -0.148739 0
M  V30 2579 C 234.957 -5.23413 -1.04279 0
M  V30 2580 O 235.18 -5.22749 -2.28232 0
M  V30 2581 O 234.114 -5.99795 -0.502925 0
M  V30 2582 H 237.94 -2.94082 0.758268 0
M  V30 2583 H 235.525 -1.42888 0.436289 0
M  V30 2584 H 237.407 -3.94586 -1.47917 0
M  V30 2585 H 236.082 -2.76695 -1.67993 0
M  V30 2586 H 234.989 -3.71571 0.43427 0
M  V30 2587 H 236.322 -4.89097 0.551805 0
M  V30 2588 N 237.974 -0.419461 -1.51915 0
M  V30 2589 C 238.907 0.445751 -2.23804 0
M  V30 2590 C 239.885 1.03951 -1.25031 0
M  V30 2591 O 241.069 1.08541 -1.54114 0
M  V30 2592 C 238.196 1.61964 -2.97465 0
M  V30 2593 C 237.242 1.14828 -4.10751 0
M  V30 2594 S 238.075 0.104938 -5.35397 0
M  V30 2595 C 239.231 1.28391 -6.1259 0
M  V30 2596 H 239.464 -0.164627 -2.96844 0
M  V30 2597 H 236.997 -0.203833 -1.53049 0
M  V30 2598 H 238.955 2.29271 -3.40507 0
M  V30 2599 H 237.616 2.20139 -2.24048 0
M  V30 2600 H 236.809 2.02561 -4.61503 0
M  V30 2601 H 236.411 0.553712 -3.69878 0
M  V30 2602 H 238.703 2.20563 -6.40592 0
M  V30 2603 H 239.646 0.816724 -7.03374 0
M  V30 2604 H 240.054 1.51439 -5.43807 0
M  V30 2605 N 239.452 1.56882 -0.150215 0
M  V30 2606 C 240.7 1.9584 0.499105 0
M  V30 2607 C 241.021 1.03623 1.65188 0
M  V30 2608 O 240.291 0.0984084 1.95653 0
M  V30 2609 H 238.871 0.723119 0.187373 0
M  V30 2610 H 241.533 1.9358 -0.226466 0
M  V30 2611 H 240.629 2.99638 0.873122 0
M  V30 2612 N 240.93 -0.123565 1.57115 0
M  V30 2613 C 241.86 -1.15309 2.03042 0
M  V30 2614 C 242.841 -1.43454 0.914061 0
M  V30 2615 O 244.026 -1.53973 1.18347 0
M  V30 2616 C 241.156 -2.48043 2.43089 0
M  V30 2617 C 240.11 -2.3437 3.58127 0
M  V30 2618 C 239.436 -3.72026 3.84059 0
M  V30 2619 C 240.736 -1.80804 4.90007 0
M  V30 2620 H 242.43 -0.771102 2.893 0
M  V30 2621 H 239.976 -0.369479 1.39179 0
M  V30 2622 H 241.929 -3.20311 2.73823 0
M  V30 2623 H 240.653 -2.88122 1.53796 0
M  V30 2624 H 239.312 -1.64551 3.27595 0
M  V30 2625 H 238.96 -4.09582 2.91979 0
M  V30 2626 H 238.66 -3.63732 4.6149 0
M  V30 2627 H 240.184 -4.45806 4.1724 0
M  V30 2628 H 241.598 -2.42886 5.19307 0
M  V30 2629 H 239.995 -1.83343 5.71407 0
M  V30 2630 H 241.065 -0.76528 4.78823 0
M  V30 2631 N 242.408 -1.52605 -0.393616 0
M  V30 2632 C 243.338 -1.80022 -1.48709 0
M  V30 2633 C 244.319 -0.651995 -1.57108 0
M  V30 2634 O 245.504 -0.89913 -1.72132 0
M  V30 2635 C 242.634 -1.96492 -2.86371 0
M  V30 2636 C 241.588 -3.12161 -2.92813 0
M  V30 2637 C 240.914 -3.13877 -4.3288 0
M  V30 2638 C 242.214 -4.51322 -2.6288 0
M  V30 2639 H 243.908 -2.71589 -1.26015 0
M  V30 2640 H 241.454 -1.30684 -0.604778 0
M  V30 2641 H 243.407 -2.14255 -3.62867 0
M  V30 2642 H 242.131 -1.01611 -3.10391 0
M  V30 2643 H 240.79 -2.94173 -2.18764 0
M  V30 2644 H 240.438 -2.16687 -4.53933 0
M  V30 2645 H 240.138 -3.91576 -4.38112 0
M  V30 2646 H 241.662 -3.33789 -5.1129 0
M  V30 2647 H 243.076 -4.69435 -3.29096 0
M  V30 2648 H 241.473 -5.31053 -2.79468 0
M  V30 2649 H 242.543 -4.58353 -1.58242 0
M  V30 2650 N 243.887 0.651787 -1.4349 0
M  V30 2651 C 245.164 1.40909 -1.35661 0
M  V30 2652 C 245.544 2.11099 -0.00511733 0
M  V30 2653 O 244.892 2.04892 1.0115 0
M  V30 2654 C 245.102 2.3926 -2.54078 0
M  V30 2655 C 246.45 3.03217 -2.97228 0
M  V30 2656 O 247.474 2.49588 -2.54135 0
M  V30 2657 O 246.333 4.00455 -3.71885 0
M  V30 2658 H 243.427 0.629625 -0.536191 0
M  V30 2659 H 245.973 0.678575 -1.55542 0
M  V30 2660 H 244.745 1.86352 -3.44076 0
M  V30 2661 H 244.368 3.1976 -2.36303 0
M  V30 2662 N 245.365 1.30045 0.890287 0
M  V30 2663 C 246.612 1.18561 1.64163 0
M  V30 2664 C 246.94 -0.260852 1.92743 0
M  V30 2665 O 246.195 -1.20376 1.54299 0
M  V30 2666 C 246.494 1.95409 2.99249 0
M  V30 2667 C 246.16 3.45066 2.90242 0
M  V30 2668 C 244.822 3.85878 2.87492 0
M  V30 2669 C 247.174 4.4039 2.78758 0
M  V30 2670 C 244.502 5.20314 2.7109 0
M  V30 2671 C 246.854 5.74928 2.63894 0
M  V30 2672 C 245.518 6.14986 2.59516 0
M  V30 2673 H 244.788 0.433846 0.600715 0
M  V30 2674 H 247.435 1.61088 1.03552 0
M  V30 2675 H 245.74 1.45501 3.63781 0
M  V30 2676 H 247.437 1.8392 3.56334 0
M  V30 2677 H 244.027 3.12631 2.93189 0
M  V30 2678 H 248.211 4.09806 2.79952 0
M  V30 2679 H 243.467 5.50449 2.66112 0
M  V30 2680 H 247.641 6.48434 2.53981 0
M  V30 2681 H 245.268 7.19104 2.46565 0
M  V30 2682 N 246.843 -1.10192 1.12674 0
M  V30 2683 C 248.068 -1.86523 0.906853 0
M  V30 2684 C 248.493 -1.80221 -0.538711 0
M  V30 2685 O 247.851 -1.17396 -1.38158 0
M  V30 2686 C 247.899 -3.32758 1.3894 0
M  V30 2687 O 247.003 -4.08449 0.5695 0
M  V30 2688 H 246.344 -0.578678 0.325619 0
M  V30 2689 H 248.874 -1.39203 1.49946 0
M  V30 2690 H 248.884 -3.83608 1.38958 0
M  V30 2691 H 247.559 -3.36661 2.44197 0
M  V30 2692 H 246.136 -3.67427 0.636528 0
M  V30 2693 N 248.321 -0.919034 -1.28029 0
M  V30 2694 C 249.551 -0.570143 -1.98577 0
M  V30 2695 C 249.959 0.854172 -1.68821 0
M  V30 2696 O 249.302 1.57807 -0.940351 0
M  V30 2697 C 249.364 -0.705734 -3.52505 0
M  V30 2698 C 249.028 -2.10057 -4.05863 0
M  V30 2699 C 250.025 -3.07385 -4.19298 0
M  V30 2700 C 247.71 -2.41517 -4.40426 0
M  V30 2701 C 249.704 -4.34287 -4.66555 0
M  V30 2702 C 247.391 -3.68657 -4.87376 0
M  V30 2703 C 248.389 -4.64856 -5.00398 0
M  V30 2704 O 248.077 -5.89735 -5.46322 0
M  V30 2705 H 247.809 -0.215592 -0.6407 0
M  V30 2706 H 250.363 -1.23583 -1.64062 0
M  V30 2707 H 248.593 0.0170414 -3.86696 0
M  V30 2708 H 250.282 -0.363172 -4.04272 0
M  V30 2709 H 251.048 -2.84398 -3.92865 0
M  V30 2710 H 246.927 -1.67389 -4.29537 0
M  V30 2711 H 250.471 -5.09377 -4.76635 0
M  V30 2712 H 246.368 -3.91466 -5.13249 0
M  V30 2713 H 247.136 -5.92599 -5.64596 0
M  V30 2714 N 249.799 1.42003 -0.683588 0
M  V30 2715 C 251.024 2.06265 -0.216647 0
M  V30 2716 C 251.449 1.51059 1.12083 0
M  V30 2717 O 250.807 0.632638 1.69904 0
M  V30 2718 C 250.855 3.60191 -0.171759 0
M  V30 2719 O 249.959 4.03396 0.857069 0
M  V30 2720 H 249.3 0.65502 -0.108834 0
M  V30 2721 H 251.83 1.81982 -0.935077 0
M  V30 2722 H 251.84 4.08 0.0014303 0
M  V30 2723 H 250.515 3.99743 -1.14796 0
M  V30 2724 H 249.092 3.67117 0.654208 0
M  V30 2725 N 251.277 0.427512 1.51691 0
M  V30 2726 C 252.524 -0.142229 2.02 0
M  V30 2727 C 252.852 -1.43566 1.31221 0
M  V30 2728 O 252.107 -1.91298 0.412744 0
M  V30 2729 C 252.406 -0.418249 3.54944 0
M  V30 2730 C 252.072 0.788187 4.43958 0
M  V30 2731 C 250.734 1.11906 4.68007 0
M  V30 2732 C 253.086 1.59347 4.96244 0
M  V30 2733 C 250.414 2.25608 5.41588 0
M  V30 2734 C 252.766 2.7214 5.71072 0
M  V30 2735 C 251.43 3.05692 5.93387 0
M  V30 2736 H 250.7 -0.0520451 0.73917 0
M  V30 2737 H 253.347 0.572697 1.82736 0
M  V30 2738 H 251.652 -1.21496 3.72486 0
M  V30 2739 H 253.349 -0.872339 3.91397 0
M  V30 2740 H 249.939 0.520344 4.2543 0
M  V30 2741 H 254.123 1.35106 4.77556 0
M  V30 2742 H 249.379 2.51929 5.57083 0
M  V30 2743 H 253.553 3.34914 6.10578 0
M  V30 2744 H 251.18 3.9391 6.50184 0
M  V30 2745 N 252.755 -1.56801 0.158532 0
M  V30 2746 C 253.685 -2.20347 -0.772609 0
M  V30 2747 C 254.666 -1.15518 -1.24859 0
M  V30 2748 O 255.851 -1.43902 -1.30406 0
M  V30 2749 C 252.981 -2.83417 -2.00729 0
M  V30 2750 C 251.935 -3.94174 -1.66765 0
M  V30 2751 C 251.261 -4.44233 -2.97592 0
M  V30 2752 C 252.561 -5.14392 -0.905447 0
M  V30 2753 H 254.255 -2.98413 -0.242959 0
M  V30 2754 H 251.801 -1.43537 -0.115419 0
M  V30 2755 H 253.754 -3.26543 -2.6636 0
M  V30 2756 H 252.478 -2.02701 -2.56086 0
M  V30 2757 H 251.137 -3.51684 -1.03508 0
M  V30 2758 H 250.785 -3.60325 -3.50963 0
M  V30 2759 H 250.485 -5.18945 -2.75626 0
M  V30 2760 H 252.009 -4.90037 -3.64274 0
M  V30 2761 H 253.423 -5.5429 -1.46408 0
M  V30 2762 H 251.82 -5.9494 -0.7853 0
M  V30 2763 H 252.89 -4.84795 0.100668 0
M  V30 2764 N 254.233 0.115231 -1.57178 0
M  V30 2765 C 255.163 1.1423 -2.03651 0
M  V30 2766 C 256.144 1.42967 -0.921655 0
M  V30 2767 O 257.329 1.53343 -1.19162 0
M  V30 2768 C 254.459 2.4675 -2.44401 0
M  V30 2769 C 253.413 2.32467 -3.59365 0
M  V30 2770 C 252.739 3.69984 -3.86026 0
M  V30 2771 C 254.039 1.78203 -4.90959 0
M  V30 2772 H 255.733 0.755749 -2.89705 0
M  V30 2773 H 253.279 0.362093 -1.39373 0
M  V30 2774 H 255.232 3.18854 -2.75517 0
M  V30 2775 H 253.956 2.87302 -1.55322 0
M  V30 2776 H 252.615 1.62811 -3.28463 0
M  V30 2777 H 252.263 4.08028 -2.94147 0
M  V30 2778 H 251.963 3.61279 -4.63412 0
M  V30 2779 H 253.487 4.43587 -4.19599 0
M  V30 2780 H 254.901 2.40128 -5.20587 0
M  V30 2781 H 253.298 1.8031 -5.72371 0
M  V30 2782 H 254.368 0.739876 -4.79222 0
M  V30 2783 N 255.711 1.52812 0.385517 0
M  V30 2784 C 257.127 1.4214 0.725829 0
M  V30 2785 C 257.327 0.544589 1.94001 0
M  V30 2786 O 256.383 0.0193693 2.52493 0
M  V30 2787 C 257.696 2.85042 0.957668 0
M  V30 2788 C 259.244 2.94543 1.05892 0
M  V30 2789 C 259.719 4.38464 1.32337 0
M  V30 2790 N 261.21 4.41804 1.39151 0
M  V30 2791 C 261.945 5.5025 1.61285 0
M  V30 2792 N 261.441 6.68775 1.80866 0
M  V30 2793 N 263.234 5.37798 1.63492 0
M  V30 2794 H 255.385 2.08338 -0.413383 0
M  V30 2795 H 257.648 0.940016 -0.122775 0
M  V30 2796 H 257.354 3.51431 0.137568 0
M  V30 2797 H 257.228 3.27505 1.87137 0
M  V30 2798 H 259.615 2.28321 1.86959 0
M  V30 2799 H 259.696 2.55504 0.123057 0
M  V30 2800 H 259.34 5.05254 0.517793 0
M  V30 2801 H 259.27 4.75059 2.27214 0
M  V30 2802 H 261.761 3.56377 1.25713 0
M  V30 2803 H 262.074 7.47197 1.97271 0
M  V30 2804 H 260.419 6.71797 1.78083 0
M  V30 2805 H 263.61 4.44171 1.47749 0
M  V30 2806 H 263.783 6.22382 1.80402 0
M  V30 2807 N 257.189 -0.644168 1.43834 0
M  V30 2808 C 258.152 -1.73857 1.49353 0
M  V30 2809 C 259.152 -1.56315 0.377112 0
M  V30 2810 O 260.342 -1.62048 0.639226 0
M  V30 2811 C 257.474 -3.12819 1.35488 0
M  V30 2812 H 258.667 -1.70342 2.46827 0
M  V30 2813 H 256.22 -0.856652 1.30733 0
M  V30 2814 H 256.955 -3.2194 0.390569 0
M  V30 2815 H 256.74 -3.26958 2.16428 0
M  V30 2816 H 258.23 -3.92606 1.42302 0
M  V30 2817 N 258.668 -1.30515 -0.883378 0
M  V30 2818 C 259.916 -1.19194 -1.63209 0
M  V30 2819 C 260.237 0.253205 -1.93349 0
M  V30 2820 O 259.507 1.17025 -1.57105 0
M  V30 2821 H 258.087 -0.438148 -0.605009 0
M  V30 2822 H 260.749 -1.63663 -1.05832 0
M  V30 2823 H 259.845 -1.75396 -2.58153 0
M  V30 2824 N 260.146 1.09593 -1.13257 0
M  V30 2825 C 261.376 1.85231 -0.915049 0
M  V30 2826 C 261.784 1.81345 0.539498 0
M  V30 2827 O 261.127 1.20664 1.38513 0
M  V30 2828 C 261.189 3.34275 -1.3229 0
M  V30 2829 C 260.853 3.6191 -2.79052 0
M  V30 2830 C 261.85 3.57777 -3.77216 0
M  V30 2831 C 259.535 3.90309 -3.16171 0
M  V30 2832 C 261.529 3.81652 -5.1051 0
M  V30 2833 C 259.216 4.13839 -4.49644 0
M  V30 2834 C 260.214 4.09502 -5.46623 0
M  V30 2835 O 259.902 4.32426 -6.77689 0
M  V30 2836 H 259.634 0.591997 -0.326367 0
M  V30 2837 H 262.188 1.394 -1.50854 0
M  V30 2838 H 260.418 3.80805 -0.672667 0
M  V30 2839 H 262.107 3.9132 -1.07812 0
M  V30 2840 H 262.873 3.35865 -3.49885 0
M  V30 2841 H 258.752 3.92811 -2.41289 0
M  V30 2842 H 262.296 3.78182 -5.86195 0
M  V30 2843 H 258.193 4.35232 -4.767 0
M  V30 2844 H 258.961 4.49896 -6.83766 0
M  V30 2845 N 261.624 0.925811 1.2754 0
M  V30 2846 C 262.554 0.440748 2.29303 0
M  V30 2847 C 263.535 -0.497971 1.62648 0
M  V30 2848 O 264.72 -0.403126 1.8997 0
M  V30 2849 C 261.85 -0.309048 3.45922 0
M  V30 2850 C 260.804 0.54166 4.24559 0
M  V30 2851 C 260.13 -0.337191 5.33636 0
M  V30 2852 C 261.43 1.80516 4.90114 0
M  V30 2853 H 263.124 1.29121 2.70126 0
M  V30 2854 H 260.67 0.622323 1.29858 0
M  V30 2855 H 262.623 -0.659315 4.1621 0
M  V30 2856 H 261.347 -1.19352 3.04011 0
M  V30 2857 H 260.006 0.874609 3.56014 0
M  V30 2858 H 259.654 -1.22056 4.87966 0
M  V30 2859 H 259.354 0.228497 5.87156 0
M  V30 2860 H 260.878 -0.683072 6.06767 0
M  V30 2861 H 262.292 1.52307 5.52698 0
M  V30 2862 H 260.689 2.3142 5.53683 0
M  V30 2863 H 261.759 2.52581 4.13921 0
M  V30 2864 N 263.102 -1.41638 0.69111 0
M  V30 2865 C 264.33 -2.05628 0.22909 0
M  V30 2866 C 264.745 -1.51992 -1.11999 0
M  V30 2867 O 264.102 -0.666322 -1.69901 0
M  V30 2868 C 264.153 -3.61084 0.173283 0
M  V30 2869 O 263.874 -4.12735 1.46907 0
M  V30 2870 C 265.375 -4.42213 -0.310266 0
M  V30 2871 H 262.595 -0.662327 0.107534 0
M  V30 2872 H 265.139 -1.81489 0.942438 0
M  V30 2873 H 263.294 -3.84278 -0.490858 0
M  V30 2874 H 263.708 -5.06743 1.35322 0
M  V30 2875 H 265.182 -5.51194 -0.298196 0
M  V30 2876 H 265.659 -4.1799 -1.34838 0
M  V30 2877 H 266.265 -4.24074 0.322716 0
M  V30 2878 N 264.58 -0.43555 -1.51462 0
M  V30 2879 C 265.51 0.367376 -2.30592 0
M  V30 2880 C 266.491 1.02263 -1.35928 0
M  V30 2881 O 267.676 1.02661 -1.64847 0
M  V30 2882 C 264.806 1.46983 -3.14664 0
M  V30 2883 C 263.76 0.938161 -4.17591 0
M  V30 2884 C 263.086 2.13622 -4.90173 0
M  V30 2885 C 264.386 -0.0261621 -5.22293 0
M  V30 2886 H 266.08 -0.292969 -2.97963 0
M  V30 2887 H 263.626 -0.14234 -1.43295 0
M  V30 2888 H 265.579 2.03873 -3.688 0
M  V30 2889 H 264.303 2.15843 -2.4511 0
M  V30 2890 H 262.962 0.391481 -3.64504 0
M  V30 2891 H 262.61 2.81098 -4.17124 0
M  V30 2892 H 262.31 1.78688 -5.59772 0
M  V30 2893 H 263.834 2.7107 -5.47132 0
M  V30 2894 H 265.248 0.452384 -5.71512 0
M  V30 2895 H 263.645 -0.287992 -5.99409 0
M  V30 2896 H 264.715 -0.963391 -4.75233 0
M  V30 2897 N 266.058 1.56714 -0.166846 0
M  V30 2898 C 267.288 2.00828 0.48494 0
M  V30 2899 C 267.696 1.04612 1.57648 0
M  V30 2900 O 267.039 0.0383201 1.8366 0
M  V30 2901 C 267.101 3.4137 1.12723 0
M  V30 2902 C 266.765 4.56654 0.177886 0
M  V30 2903 C 267.762 5.16402 -0.60207 0
M  V30 2904 C 265.447 5.02244 0.0750139 0
M  V30 2905 C 267.441 6.20167 -1.47215 0
M  V30 2906 C 265.128 6.05859 -0.798649 0
M  V30 2907 C 266.126 6.64691 -1.57082 0
M  V30 2908 O 265.814 7.66297 -2.42989 0
M  V30 2909 H 265.546 0.663587 0.128953 0
M  V30 2910 H 268.1 2.03692 -0.264365 0
M  V30 2911 H 266.33 3.35406 1.92457 0
M  V30 2912 H 268.019 3.69466 1.68076 0
M  V30 2913 H 268.785 4.82065 -0.53274 0
M  V30 2914 H 264.664 4.56167 0.665812 0
M  V30 2915 H 268.208 6.66016 -2.07531 0
M  V30 2916 H 264.105 6.39621 -0.869199 0
M  V30 2917 H 264.873 7.83601 -2.36455 0
M  V30 2918 N 267.536 -0.106894 1.57237 0
M  V30 2919 C 268.784 -0.810921 1.85117 0
M  V30 2920 C 269.105 -1.7984 0.753827 0
M  V30 2921 O 268.375 -1.94649 -0.221056 0
M  V30 2922 H 266.955 -0.302466 0.683025 0
M  V30 2923 H 269.617 -0.0913324 1.94686 0
M  V30 2924 H 268.713 -1.34875 2.81452 0
M  V30 2925 N 269.014 -1.53014 -0.377408 0
M  V30 2926 C 270.263 -1.67845 -1.11853 0
M  V30 2927 C 270.576 -0.430625 -1.90801 0
M  V30 2928 O 271.782 -0.459261 -2.67587 0
M  V30 2929 C 270.238 -2.96668 -2.03756 0
M  V30 2930 C 269.846 -4.28671 -1.30175 0
M  V30 2931 C 271.59 -3.20865 -2.77932 0
M  V30 2932 C 269.497 -5.48591 -2.20911 0
M  V30 2933 H 268.427 -0.625343 -0.421263 0
M  V30 2934 H 271.078 -1.79514 -0.380409 0
M  V30 2935 H 269.46 -2.78773 -2.8125 0
M  V30 2936 H 270.634 -4.57157 -0.578259 0
M  V30 2937 H 268.949 -4.10825 -0.679108 0
M  V30 2938 H 271.546 -4.07642 -3.46024 0
M  V30 2939 H 271.889 -2.36424 -3.4265 0
M  V30 2940 H 272.422 -3.39379 -2.07525 0
M  V30 2941 H 269.161 -6.35474 -1.6079 0
M  V30 2942 H 268.681 -5.244 -2.91144 0
M  V30 2943 H 270.36 -5.8292 -2.80736 0
M  V30 2944 N 270.492 0.636531 -1.44174 0
M  V30 2945 C 271.402 1.77754 -1.53103 0
M  V30 2946 C 272.418 1.68928 -0.417034 0
M  V30 2947 O 273.594 1.89801 -0.6736 0
M  V30 2948 C 270.659 3.14115 -1.46741 0
M  V30 2949 C 269.72 3.34612 -2.68948 0
M  V30 2950 C 268.953 4.64467 -2.6288 0
M  V30 2951 O 269.176 5.44919 -1.68581 0
M  V30 2952 O 268.11 4.87049 -3.53648 0
M  V30 2953 H 271.936 1.73174 -2.49489 0
M  V30 2954 H 269.521 0.79709 -1.2636 0
M  V30 2955 H 271.403 3.95412 -1.45696 0
M  V30 2956 H 270.078 3.19249 -0.534975 0
M  V30 2957 H 268.985 2.53014 -2.75562 0
M  V30 2958 H 270.318 3.34336 -3.61221 0
M  V30 2959 N 271.97 1.30982 0.876444 0
M  V30 2960 C 272.933 1.18054 1.96459 0
M  V30 2961 C 273.933 0.109399 1.60427 0
M  V30 2962 O 275.123 0.358173 1.70478 0
M  V30 2963 C 272.255 0.810616 3.31122 0
M  V30 2964 H 273.448 2.14735 2.09354 0
M  V30 2965 H 271.001 1.145 1.06392 0
M  V30 2966 H 271.736 -0.155322 3.23928 0
M  V30 2967 H 271.521 1.58481 3.58645 0
M  V30 2968 H 273.011 0.743876 4.10921 0
M  V30 2969 N 273.449 -1.08991 1.13837 0
M  V30 2970 C 274.379 -2.17771 0.842507 0
M  V30 2971 C 275.36 -1.6892 -0.20001 0
M  V30 2972 O 276.545 -1.94113 -0.0579731 0
M  V30 2973 C 273.675 -3.4589 0.312644 0
M  V30 2974 C 272.629 -4.08099 1.28992 0
M  V30 2975 C 271.955 -5.31098 0.619623 0
M  V30 2976 C 273.255 -4.50077 2.65005 0
M  V30 2977 H 274.949 -2.42777 1.75213 0
M  V30 2978 H 272.495 -1.16682 0.843875 0
M  V30 2979 H 274.448 -4.21297 0.0933043 0
M  V30 2980 H 273.172 -3.20419 -0.632382 0
M  V30 2981 H 271.831 -3.34717 1.49533 0
M  V30 2982 H 271.479 -5.0191 -0.33102 0
M  V30 2983 H 271.179 -5.73674 1.27167 0
M  V30 2984 H 272.703 -6.09224 0.409669 0
M  V30 2985 H 274.117 -5.16688 2.48407 0
M  V30 2986 H 272.514 -5.03553 3.26427 0
M  V30 2987 H 273.584 -3.62257 3.22332 0
M  V30 2988 N 274.927 -0.932562 -1.27047 0
M  V30 2989 C 276.338 -0.619451 -1.76124 0
M  V30 2990 C 276.689 0.865397 -1.76083 0
M  V30 2991 O 275.814 1.67722 -1.36742 0
M  V30 2992 C 276.409 -1.11771 -3.19832 0
M  V30 2993 C 274.968 -0.855174 -3.66557 0
M  V30 2994 C 274.115 -1.27362 -2.46321 0
M  V30 2995 H 277.066 -1.11181 -1.13245 0
M  V30 2996 H 277.087 -0.46759 -3.77616 0
M  V30 2997 H 276.599 -2.19842 -3.1983 0
M  V30 2998 H 274.7 0.211524 -3.71999 0
M  V30 2999 H 274.813 -1.47613 -4.55793 0
M  V30 3000 H 273.177 -0.692119 -2.45116 0
M  V30 3001 H 273.96 -2.36307 -2.49025 0
M  V30 3002 N 276.405 1.4127 -0.698611 0
M  V30 3003 C 277.821 1.55241 -0.370462 0
M  V30 3004 C 278.021 1.67351 1.12231 0
M  V30 3005 O 277.077 1.65363 1.90818 0
M  V30 3006 C 278.39 2.78997 -1.12165 0
M  V30 3007 C 279.938 2.92797 -1.1063 0
M  V30 3008 C 280.413 4.19445 -1.8393 0
M  V30 3009 N 281.904 4.26409 -1.80914 0
M  V30 3010 C 282.639 5.23271 -2.34467 0
M  V30 3011 N 282.135 6.26145 -2.96504 0
M  V30 3012 N 283.928 5.15232 -2.24706 0
M  V30 3013 H 276.079 1.31654 -1.66676 0
M  V30 3014 H 278.342 0.635393 -0.703548 0
M  V30 3015 H 278.048 2.76268 -2.17644 0
M  V30 3016 H 277.922 3.70606 -0.702209 0
M  V30 3017 H 280.309 2.95039 -0.0597713 0
M  V30 3018 H 280.39 2.02353 -1.56483 0
M  V30 3019 H 280.034 4.17964 -2.88563 0
M  V30 3020 H 279.964 5.08866 -1.35509 0
M  V30 3021 H 282.455 3.527 -1.35687 0
M  V30 3022 H 282.768 6.96451 -3.34927 0
M  V30 3023 H 281.113 6.26638 -3.00583 0
M  V30 3024 H 284.304 4.33789 -1.7591 0
M  V30 3025 H 284.477 5.90552 -2.66745 0
M  V30 3026 N 277.883 0.443576 1.51229 0
M  V30 3027 C 279.111 -0.11929 2.06556 0
M  V30 3028 C 279.526 -1.35921 1.31038 0
M  V30 3029 O 278.883 -1.78675 0.371704 0
M  V30 3030 C 278.934 -0.435228 3.5887 0
M  V30 3031 O 278.655 0.755486 4.31537 0
M  V30 3032 C 280.156 -1.04808 4.30732 0
M  V30 3033 H 277.376 -0.0051584 0.67098 0
M  V30 3034 H 279.92 0.624453 1.94733 0
M  V30 3035 H 278.075 -1.12887 3.70588 0
M  V30 3036 H 278.489 0.483491 5.22267 0
M  V30 3037 H 279.963 -1.2191 5.3837 0
M  V30 3038 H 280.44 -2.03081 3.89429 0
M  V30 3039 H 281.046 -0.393637 4.23474 0
M  V30 3040 N 279.361 -1.56624 0.175154 0
M  V30 3041 C 280.311 -2.14747 -0.766004 0
M  V30 3042 C 281.295 -1.08275 -1.19018 0
M  V30 3043 O 282.487 -1.34388 -1.15191 0
M  V30 3044 C 279.616 -2.79478 -1.99366 0
M  V30 3045 C 278.702 -3.93114 -1.5913 0
M  V30 3046 N 279.093 -4.97752 -0.89872 0
M  V30 3047 C 277.391 -4.04345 -1.88204 0
M  V30 3048 C 278.092 -5.77473 -0.700012 0
M  V30 3049 N 277.068 -5.29207 -1.24263 0
M  V30 3050 H 280.87 -2.93015 -0.22793 0
M  V30 3051 H 278.384 -1.6238 -0.0253843 0
M  V30 3052 H 280.381 -3.19498 -2.67818 0
M  V30 3053 H 279.041 -2.02692 -2.53665 0
M  V30 3054 H 280.052 -5.14903 -0.556347 0
M  V30 3055 H 276.729 -3.38667 -2.44153 0
M  V30 3056 H 278.119 -6.71728 -0.152047 0
M  V30 3057 N 280.839 0.0985539 -1.57292 0
M  V30 3058 C 281.749 1.13824 -2.05137 0
M  V30 3059 C 282.765 1.44076 -0.975604 0
M  V30 3060 O 283.941 1.54786 -1.28853 0
M  V30 3061 C 281.006 2.43969 -2.46333 0
M  V30 3062 C 280.067 2.2093 -3.68087 0
M  V30 3063 C 279.3 3.44869 -4.0731 0
M  V30 3064 O 279.523 4.52972 -3.46659 0
M  V30 3065 O 278.457 3.34661 -5.00285 0
M  V30 3066 H 282.283 0.761881 -2.93988 0
M  V30 3067 H 279.868 0.310818 -1.46131 0
M  V30 3068 H 281.75 3.20609 -2.73473 0
M  V30 3069 H 280.425 2.81038 -1.60621 0
M  V30 3070 H 279.332 1.42081 -3.46069 0
M  V30 3071 H 280.665 1.88755 -4.54568 0
M  V30 3072 N 282.317 1.53212 0.369288 0
M  V30 3073 C 283.542 1.73423 1.1375 0
M  V30 3074 C 283.967 0.460404 1.82378 0
M  V30 3075 O 283.325 -0.585298 1.71592 0
M  V30 3076 C 283.373 2.89769 2.1463 0
M  V30 3077 O 282.477 2.58119 3.21634 0
M  V30 3078 H 281.818 0.576061 0.330227 0
M  V30 3079 H 284.348 2.00083 0.427547 0
M  V30 3080 H 284.358 3.15829 2.58294 0
M  V30 3081 H 283.033 3.8217 1.64071 0
M  V30 3082 H 281.61 2.42864 2.82969 0
M  V30 3083 N 283.795 -0.628877 1.44509 0
M  V30 3084 C 284.727 -1.754 1.47538 0
M  V30 3085 C 285.74 -1.58575 0.368506 0
M  V30 3086 O 286.929 -1.66847 0.634376 0
M  V30 3087 C 284.029 -3.1315 1.29577 0
M  V30 3088 C 283.202 -3.56413 2.53551 0
M  V30 3089 C 282.261 -4.7305 2.30457 0
M  V30 3090 O 281.287 -4.81247 3.03957 0
M  V30 3091 N 282.489 -5.64903 1.3366 0
M  V30 3092 H 285.254 -1.73272 2.44534 0
M  V30 3093 H 282.815 -0.813512 1.39977 0
M  V30 3094 H 284.807 -3.88902 1.11971 0
M  V30 3095 H 283.377 -3.09908 0.409371 0
M  V30 3096 H 282.597 -2.70847 2.86419 0
M  V30 3097 H 283.885 -3.82071 3.36005 0
M  V30 3098 H 283.283 -5.60975 0.729604 0
M  V30 3099 H 281.84 -6.40275 1.22032 0
M  V30 3100 N 285.273 -1.31445 -0.869486 0
M  V30 3101 C 286.236 -1.19094 -1.9583 0
M  V30 3102 C 287.236 -0.117906 -1.60367 0
M  V30 3103 O 288.426 -0.367208 -1.70286 0
M  V30 3104 C 285.558 -0.828165 -3.30688 0
M  V30 3105 H 286.751 -2.15842 -2.08212 0
M  V30 3106 H 284.304 -1.15063 -1.05784 0
M  V30 3107 H 285.039 0.138142 -3.24006 0
M  V30 3108 H 284.824 -1.6038 -3.578 0
M  V30 3109 H 286.314 -0.765658 -4.10521 0
M  V30 3110 N 286.751 1.08385 -1.14413 0
M  V30 3111 C 287.683 2.1519 -0.789036 0
M  V30 3112 C 288.696 1.61638 0.19417 0
M  V30 3113 O 289.885 1.78479 -0.0275711 0
M  V30 3114 C 286.985 3.38565 -0.15058 0
M  V30 3115 C 286.158 4.21501 -1.16857 0
M  V30 3116 C 285.217 5.23277 -0.553832 0
M  V30 3117 O 284.243 5.56041 -1.21686 0
M  V30 3118 N 285.445 5.76629 0.669296 0
M  V30 3119 H 288.21 2.46257 -1.70814 0
M  V30 3120 H 285.771 1.24198 -1.03858 0
M  V30 3121 H 287.763 4.03777 0.273181 0
M  V30 3122 H 286.333 3.05299 0.671667 0
M  V30 3123 H 285.553 3.52265 -1.76926 0
M  V30 3124 H 286.841 4.73731 -1.85624 0
M  V30 3125 H 286.239 5.52243 1.22654 0
M  V30 3126 H 284.796 6.43521 1.03556 0
M  V30 3127 N 288.23 0.939286 1.26551 0
M  V30 3128 C 289.507 0.5038 1.89001 0
M  V30 3129 C 289.887 -1.01854 1.84903 0
M  V30 3130 O 289.235 -1.87773 1.30206 0
M  V30 3131 C 289.445 1.063 3.32417 0
M  V30 3132 C 290.793 1.13051 4.09273 0
M  V30 3133 O 291.817 1.01345 3.41479 0
M  V30 3134 O 290.676 1.31233 5.30509 0
M  V30 3135 H 287.77 0.163897 0.810597 0
M  V30 3136 H 290.316 1.03173 1.34735 0
M  V30 3137 H 289.088 2.10665 3.29752 0
M  V30 3138 H 288.711 0.517408 3.94219 0
M  V30 3139 N 289.708 -1.40897 0.706093 0
M  V30 3140 C 291.124 -1.55042 0.37869 0
M  V30 3141 C 291.324 -1.67944 -1.11342 0
M  V30 3142 O 290.38 -1.66372 -1.89938 0
M  V30 3143 C 291.693 -2.78398 1.13643 0
M  V30 3144 C 293.241 -2.92206 1.12181 0
M  V30 3145 C 293.716 -4.18463 1.86152 0
M  V30 3146 N 295.207 -4.25443 1.83173 0
M  V30 3147 C 295.942 -5.2202 2.37239 0
M  V30 3148 N 295.438 -6.24563 2.99821 0
M  V30 3149 N 297.231 -5.14033 2.27435 0
M  V30 3150 H 289.382 -1.30769 1.67372 0
M  V30 3151 H 291.645 -0.631653 0.706907 0
M  V30 3152 H 291.351 -2.7511 2.19106 0
M  V30 3153 H 291.225 -3.70228 0.721853 0
M  V30 3154 H 293.612 -2.95004 0.0754171 0
M  V30 3155 H 293.693 -2.01521 1.57554 0
M  V30 3156 H 293.337 -4.16427 2.90776 0
M  V30 3157 H 293.267 -5.08141 1.38206 0
M  V30 3158 H 295.758 -3.51976 1.37556 0
M  V30 3159 H 296.071 -6.94665 3.38616 0
M  V30 3160 H 294.416 -6.25035 3.03902 0
M  V30 3161 H 297.607 -4.3285 1.78208 0
M  V30 3162 H 297.78 -5.89129 2.69873 0
M  V30 3163 N 291.186 -0.45159 -1.50991 0
M  V30 3164 C 292.432 0.110237 -2.025 0
M  V30 3165 C 292.765 1.41109 -1.33424 0
M  V30 3166 O 292.04 1.89135 -0.453659 0
M  V30 3167 C 292.323 0.314271 -3.58726 0
M  V30 3168 C 292.176 -1.00623 -4.38401 0
M  V30 3169 C 293.495 1.07767 -4.26702 0
M  V30 3170 H 290.614 0.0385897 -0.735989 0
M  V30 3171 H 293.256 -0.593374 -1.80497 0
M  V30 3172 H 291.406 0.913601 -3.77605 0
M  V30 3173 H 293.078 -1.64064 -4.31139 0
M  V30 3174 H 291.321 -1.6075 -4.02917 0
M  V30 3175 H 291.992 -0.817341 -5.45915 0
M  V30 3176 H 294.468 0.56986 -4.12179 0
M  V30 3177 H 293.344 1.18921 -5.35863 0
M  V30 3178 H 293.605 2.10939 -3.88532 0
M  V30 3179 N 292.664 1.56529 -0.183458 0
M  V30 3180 C 293.614 2.1515 0.754605 0
M  V30 3181 C 294.598 1.08904 1.18443 0
M  V30 3182 O 295.79 1.34997 1.14476 0
M  V30 3183 C 292.919 2.80531 1.97881 0
M  V30 3184 C 292.005 3.93952 1.57043 0
M  V30 3185 N 292.396 4.98221 0.87231 0
M  V30 3186 C 290.694 4.05338 1.86057 0
M  V30 3187 C 291.395 5.77836 0.669377 0
M  V30 3188 N 290.371 5.29858 1.21454 0
M  V30 3189 H 294.173 2.93132 0.212387 0
M  V30 3190 H 291.687 1.62391 0.0167725 0
M  V30 3191 H 293.684 3.20914 2.6612 0
M  V30 3192 H 292.344 2.04035 2.52586 0
M  V30 3193 H 293.355 5.15191 0.529033 0
M  V30 3194 H 290.032 3.39957 2.42354 0
M  V30 3195 H 291.422 6.71799 0.116422 0
M  V30 3196 N 294.142 -0.090211 1.57342 0
M  V30 3197 C 295.367 -0.810082 1.90925 0
M  V30 3198 C 295.792 -1.71248 0.778187 0
M  V30 3199 O 295.15 -1.79278 -0.269991 0
M  V30 3200 C 295.198 -1.59529 3.23393 0
M  V30 3201 O 294.302 -2.70461 3.11327 0
M  V30 3202 H 293.643 -0.222231 0.625707 0
M  V30 3203 H 296.173 -0.0639716 2.045 0
M  V30 3204 H 296.183 -1.97847 3.5682 0
M  V30 3205 H 294.858 -0.933055 4.05299 0
M  V30 3206 H 293.435 -2.35135 2.89423 0
M  V30 3207 N 295.62 -1.53406 -0.361157 0
M  V30 3208 C 296.583 -1.79479 -1.42548 0
M  V30 3209 C 297.583 -0.665327 -1.4639 0
M  V30 3210 O 298.773 -0.933549 -1.47073 0
M  V30 3211 C 295.905 -1.92087 -2.8163 0
M  V30 3212 H 297.098 -2.74538 -1.20701 0
M  V30 3213 H 294.651 -1.4455 -0.594546 0
M  V30 3214 H 295.386 -0.991099 -3.08784 0
M  V30 3215 H 295.171 -2.74241 -2.80239 0
M  V30 3216 H 296.661 -2.13836 -3.58697 0
M  V30 3217 N 297.098 0.621204 -1.44841 0
M  V30 3218 C 298.375 1.38 -1.38619 0
M  V30 3219 C 298.755 2.11041 -0.0498935 0
M  V30 3220 O 298.103 2.06992 0.967816 0
M  V30 3221 C 298.313 2.33817 -2.59096 0
M  V30 3222 C 299.661 2.96844 -3.03593 0
M  V30 3223 O 300.685 2.44141 -2.59371 0
M  V30 3224 O 299.544 3.92476 -3.80296 0
M  V30 3225 H 296.638 0.61811 -0.549426 0
M  V30 3226 H 299.184 0.645429 -1.56947 0
M  V30 3227 H 297.956 1.79012 -3.47952 0
M  V30 3228 H 297.579 3.14676 -2.43032 0
M  V30 3229 N 298.576 1.31904 0.862503 0
M  V30 3230 C 299.822 1.22197 1.61851 0
M  V30 3231 C 300.155 -0.217641 1.92977 0
M  V30 3232 O 299.43 -1.15264 1.56666 0
M  V30 3233 C 299.713 2.07378 2.94391 0
M  V30 3234 C 299.566 3.59678 2.70096 0
M  V30 3235 C 300.885 1.92891 3.95577 0
M  V30 3236 H 298.004 0.445255 0.587296 0
M  V30 3237 H 300.646 1.6177 0.99651 0
M  V30 3238 H 298.796 1.73758 3.47477 0
M  V30 3239 H 300.468 4.03472 2.23625 0
M  V30 3240 H 298.711 3.82735 2.04197 0
M  V30 3241 H 299.382 4.14595 3.64438 0
M  V30 3242 H 301.858 2.22327 3.51724 0
M  V30 3243 H 300.734 2.54781 4.86187 0
M  V30 3244 H 300.995 0.894315 4.3296 0
M  V30 3245 N 300.054 -1.07777 1.14986 0
M  V30 3246 C 301.301 -1.8029 0.922056 0
M  V30 3247 C 301.629 -1.86531 -0.55105 0
M  V30 3248 O 300.884 -1.34189 -1.42449 0
M  V30 3249 C 301.183 -3.25495 1.47608 0
M  V30 3250 C 300.849 -3.39361 2.96893 0
M  V30 3251 C 299.511 -3.42852 3.37647 0
M  V30 3252 C 301.863 -3.42512 3.92854 0
M  V30 3253 C 299.191 -3.47094 4.73015 0
M  V30 3254 C 301.543 -3.4829 5.28088 0
M  V30 3255 C 300.207 -3.50058 5.68345 0
M  V30 3256 H 299.477 -0.659727 0.337404 0
M  V30 3257 H 302.124 -1.26854 1.43459 0
M  V30 3258 H 300.429 -3.81683 0.88463 0
M  V30 3259 H 302.126 -3.80168 1.27568 0
M  V30 3260 H 298.716 -3.37339 2.64387 0
M  V30 3261 H 302.9 -3.3904 3.62444 0
M  V30 3262 H 298.156 -3.46758 5.03556 0
M  V30 3263 H 302.33 -3.49675 6.02246 0
M  V30 3264 H 299.957 -3.53097 6.73221 0
M  V30 3265 N 301.532 -0.945985 -1.26051 0
M  V30 3266 C 302.482 -0.430164 -2.23905 0
M  V30 3267 C 303.466 0.47579 -1.53704 0
M  V30 3268 O 304.658 0.310252 -1.7426 0
M  V30 3269 C 301.787 0.298957 -3.41996 0
M  V30 3270 C 300.873 -0.624566 -4.19476 0
M  V30 3271 N 301.264 -1.75245 -4.74471 0
M  V30 3272 C 299.562 -0.431082 -4.43912 0
M  V30 3273 C 300.263 -2.32834 -5.3307 0
M  V30 3274 N 299.239 -1.61583 -5.1903 0
M  V30 3275 H 303.041 -1.29107 -2.64024 0
M  V30 3276 H 300.555 -0.802428 -1.41191 0
M  V30 3277 H 302.552 0.685565 -4.11225 0
M  V30 3278 H 301.212 1.15657 -3.03403 0
M  V30 3279 H 302.223 -2.13449 -4.71868 0
M  V30 3280 H 298.9 0.384364 -4.15727 0
M  V30 3281 H 300.29 -3.27893 -5.86461 0
M  V30 3282 N 303.011 1.40521 -0.713556 0
M  V30 3283 C 304.239 2.05237 -0.261775 0
M  V30 3284 C 304.654 1.53755 1.09567 0
M  V30 3285 O 304.011 0.693268 1.6882 0
M  V30 3286 C 304.062 3.60763 -0.230706 0
M  V30 3287 O 303.783 4.10345 -1.53455 0
M  V30 3288 C 305.284 4.42651 0.239874 0
M  V30 3289 H 302.504 0.660533 -0.118057 0
M  V30 3290 H 305.048 1.79967 -0.971192 0
M  V30 3291 H 303.203 3.8501 0.429661 0
M  V30 3292 H 303.617 5.04526 -1.43366 0
M  V30 3293 H 305.091 5.51599 0.210468 0
M  V30 3294 H 305.568 4.20082 1.28171 0
M  V30 3295 H 306.174 4.23507 -0.390142 0
M  V30 3296 N 304.489 0.459591 1.5075 0
M  V30 3297 C 305.736 -0.0993495 2.02256 0
M  V30 3298 C 306.064 -1.40751 1.34237 0
M  V30 3299 O 305.319 -1.90379 0.453228 0
M  V30 3300 C 305.618 -0.342866 3.55752 0
M  V30 3301 C 305.284 0.88218 4.42186 0
M  V30 3302 C 303.946 1.21808 4.65528 0
M  V30 3303 C 306.298 1.69837 4.92752 0
M  V30 3304 C 303.626 2.37045 5.36681 0
M  V30 3305 C 305.978 2.84192 5.65171 0
M  V30 3306 C 304.642 3.1821 5.8677 0
M  V30 3307 H 303.912 -0.0363545 0.740108 0
M  V30 3308 H 306.559 0.611329 1.8148 0
M  V30 3309 H 304.864 -1.13567 3.7498 0
M  V30 3310 H 306.561 -0.789121 3.93159 0
M  V30 3311 H 303.151 0.610467 4.2423 0
M  V30 3312 H 307.335 1.45205 4.74583 0
M  V30 3313 H 302.591 2.63689 5.51614 0
M  V30 3314 H 306.765 3.4779 6.03337 0
M  V30 3315 H 304.392 4.07613 6.41682 0
M  V30 3316 N 305.967 -1.56429 0.191757 0
M  V30 3317 C 307.383 -1.58754 -0.164137 0
M  V30 3318 C 307.583 -1.20782 -1.61288 0
M  V30 3319 O 306.639 -0.928999 -2.34789 0
M  V30 3320 C 307.952 -3.00396 0.135195 0
M  V30 3321 C 309.5 -3.1291 0.0750351 0
M  V30 3322 C 309.975 -4.56679 0.347632 0
M  V30 3323 N 311.466 -4.62252 0.296131 0
M  V30 3324 C 312.201 -5.71379 0.480948 0
M  V30 3325 N 311.697 -6.88986 0.725933 0
M  V30 3326 N 313.49 -5.60563 0.415435 0
M  V30 3327 H 305.641 -1.79393 1.13718 0
M  V30 3328 H 307.904 -0.832414 0.453643 0
M  V30 3329 H 307.61 -3.32726 1.13958 0
M  V30 3330 H 307.484 -3.72963 -0.563773 0
M  V30 3331 H 309.871 -2.80394 -0.919948 0
M  V30 3332 H 309.952 -2.42736 0.807029 0
M  V30 3333 H 309.596 -4.89907 1.33992 0
M  V30 3334 H 309.526 -5.25039 -0.405212 0
M  V30 3335 H 312.017 -3.7773 0.113259 0
M  V30 3336 H 312.33 -7.68046 0.855857 0
M  V30 3337 H 310.675 -6.90801 0.762788 0
M  V30 3338 H 313.866 -4.67561 0.224486 0
M  V30 3339 H 314.039 -6.45551 0.562889 0
M  V30 3340 N 307.445 0.0818655 -1.57387 0
M  V30 3341 C 308.377 1.12484 -1.997 0
M  V30 3342 C 309.39 1.35564 -0.90146 0
M  V30 3343 O 310.579 1.33982 -1.17945 0
M  V30 3344 C 307.679 2.47778 -2.31213 0
M  V30 3345 C 306.852 2.44793 -3.62485 0
M  V30 3346 C 305.911 3.62117 -3.81782 0
M  V30 3347 O 304.937 3.44005 -4.53486 0
M  V30 3348 N 306.139 4.82094 -3.23367 0
M  V30 3349 H 308.904 0.764585 -2.89783 0
M  V30 3350 H 306.465 0.270664 -1.59621 0
M  V30 3351 H 308.457 3.24891 -2.41304 0
M  V30 3352 H 307.027 2.75843 -1.4707 0
M  V30 3353 H 306.247 1.53134 -3.6324 0
M  V30 3354 H 307.535 2.39889 -4.48699 0
M  V30 3355 H 306.933 4.99713 -2.65148 0
M  V30 3356 H 305.49 5.56753 -3.38923 0
M  V30 3357 N 308.923 1.53595 0.353017 0
M  V30 3358 C 309.853 1.83902 1.43883 0
M  V30 3359 C 310.834 0.693421 1.55324 0
M  V30 3360 O 312.019 0.944452 1.69687 0
M  V30 3361 C 309.149 2.04016 2.8106 0
M  V30 3362 C 308.103 3.19814 2.84434 0
M  V30 3363 C 307.429 3.25244 4.24406 0
M  V30 3364 C 308.729 4.58133 2.50822 0
M  V30 3365 H 310.423 2.74835 1.1877 0
M  V30 3366 H 307.969 1.32242 0.569917 0
M  V30 3367 H 309.922 2.238 3.57059 0
M  V30 3368 H 308.646 1.09804 3.07588 0
M  V30 3369 H 307.305 2.9987 2.10887 0
M  V30 3370 H 306.953 2.28646 4.48029 0
M  V30 3371 H 306.653 4.03054 4.27576 0
M  V30 3372 H 308.177 3.47228 5.0226 0
M  V30 3373 H 309.591 4.77995 3.16534 0
M  V30 3374 H 307.988 5.38276 2.6529 0
M  V30 3375 H 309.058 4.62387 1.46034 0
M  V30 3376 N 310.401 -0.613514 1.45168 0
M  V30 3377 C 311.678 -1.37263 1.39349 0
M  V30 3378 C 312.058 -2.11012 0.0610848 0
M  V30 3379 O 311.406 -2.07502 -0.956825 0
M  V30 3380 C 311.616 -2.3244 2.60332 0
M  V30 3381 C 312.964 -2.9523 3.05163 0
M  V30 3382 O 313.988 -2.42762 2.60663 0
M  V30 3383 O 312.847 -3.90454 3.82372 0
M  V30 3384 H 309.941 -0.615188 0.552696 0
M  V30 3385 H 312.487 -0.637097 1.57287 0
M  V30 3386 H 311.259 -1.77164 3.48896 0
M  V30 3387 H 310.882 -3.13383 2.44698 0
M  V30 3388 N 311.879 -1.3236 -0.855495 0
M  V30 3389 C 313.295 -1.11332 -1.14356 0
M  V30 3390 C 313.495 0.106751 -2.01217 0
M  V30 3391 O 312.551 0.791891 -2.39761 0
M  V30 3392 C 313.864 -2.39237 -1.82171 0
M  V30 3393 C 315.412 -2.44986 -1.9481 0
M  V30 3394 C 315.887 -3.7281 -2.66039 0
M  V30 3395 N 317.378 -3.73787 -2.73565 0
M  V30 3396 C 318.113 -4.69394 -3.29327 0
M  V30 3397 N 317.609 -5.75367 -3.85907 0
M  V30 3398 N 319.402 -4.56893 -3.27423 0
M  V30 3399 H 311.553 -2.10586 -0.277027 0
M  V30 3400 H 313.816 -0.929701 -0.185364 0
M  V30 3401 H 313.522 -3.28431 -1.25802 0
M  V30 3402 H 313.396 -2.50134 -2.82335 0
M  V30 3403 H 315.783 -1.56252 -2.50338 0
M  V30 3404 H 315.864 -2.38043 -0.936448 0
M  V30 3405 H 315.508 -4.61918 -2.11174 0
M  V30 3406 H 315.438 -3.77024 -3.67642 0
M  V30 3407 H 317.929 -2.97189 -2.33424 0
M  V30 3408 H 318.242 -6.44378 -4.26611 0
M  V30 3409 H 316.587 -5.79123 -3.84242 0
M  V30 3410 H 319.778 -3.73269 -2.82467 0
M  V30 3411 H 319.951 -5.31577 -3.7058 0
M  V30 3412 N 313.357 1.07166 -1.15556 0
M  V30 3413 C 314.287 2.16403 -0.877046 0
M  V30 3414 C 315.268 1.69217 0.173111 0
M  V30 3415 O 316.453 1.94181 0.027084 0
M  V30 3416 C 313.583 3.45349 -0.367632 0
M  V30 3417 C 312.537 4.05995 -1.35468 0
M  V30 3418 C 311.863 5.30045 -0.704038 0
M  V30 3419 C 313.163 4.45804 -2.72132 0
M  V30 3420 H 314.857 2.39959 -1.79053 0
M  V30 3421 H 312.403 1.15325 -0.862331 0
M  V30 3422 H 314.356 4.21095 -0.160317 0
M  V30 3423 H 313.08 3.21385 0.581326 0
M  V30 3424 H 311.739 3.32296 -1.54839 0
M  V30 3425 H 311.387 5.02373 0.251128 0
M  V30 3426 H 311.087 5.71579 -1.36277 0
M  V30 3427 H 312.611 6.08495 -0.50654 0
M  V30 3428 H 314.025 5.12671 -2.56595 0
M  V30 3429 H 312.422 4.98296 -3.34397 0
M  V30 3430 H 313.492 3.57083 -3.28054 0
M  V30 3431 N 314.835 0.952656 1.25548 0
M  V30 3432 C 315.765 0.489287 2.28316 0
M  V30 3433 C 316.746 -0.463359 1.63667 0
M  V30 3434 O 317.931 -0.36274 1.90782 0
M  V30 3435 C 315.061 -0.235603 3.465 0
M  V30 3436 C 314.015 0.631593 4.23314 0
M  V30 3437 C 313.341 -0.223923 5.34231 0
M  V30 3438 C 314.641 1.90871 4.86174 0
M  V30 3439 H 316.335 1.34822 2.67326 0
M  V30 3440 H 313.881 0.649728 1.28509 0
M  V30 3441 H 315.834 -0.570882 4.17515 0
M  V30 3442 H 314.558 -1.12877 3.06474 0
M  V30 3443 H 313.217 0.949929 3.54079 0
M  V30 3444 H 312.865 -1.11678 4.90446 0
M  V30 3445 H 312.565 0.35299 5.86539 0
M  V30 3446 H 314.089 -0.554214 6.0808 0
M  V30 3447 H 315.503 1.63997 5.49343 0
M  V30 3448 H 313.9 2.43112 5.4865 0
M  V30 3449 H 314.97 2.61304 4.08471 0
M  V30 3450 N 316.313 -1.40141 0.720998 0
M  V30 3451 C 317.724 -1.83678 0.334553 0
M  V30 3452 C 318.075 -1.6027 -1.13173 0
M  V30 3453 O 317.2 -1.08643 -1.87152 0
M  V30 3454 C 317.795 -3.33437 0.600437 0
M  V30 3455 C 316.354 -3.75447 0.267642 0
M  V30 3456 C 315.501 -2.63296 0.870097 0
M  V30 3457 H 318.452 -1.29331 0.919732 0
M  V30 3458 H 318.473 -3.80269 -0.132517 0
M  V30 3459 H 317.985 -3.50442 1.66768 0
M  V30 3460 H 316.086 -3.64035 -0.794329 0
M  V30 3461 H 316.199 -4.73344 0.74042 0
M  V30 3462 H 314.563 -2.52954 0.297739 0
M  V30 3463 H 315.346 -2.83112 1.94172 0
M  V30 3464 N 317.792 -0.46758 -1.50504 0
M  V30 3465 C 318.739 0.328413 -2.28452 0
M  V30 3466 C 319.709 0.990313 -1.33349 0
M  V30 3467 O 320.894 1.00343 -1.62284 0
M  V30 3468 C 318.034 1.40648 -3.15138 0
M  V30 3469 C 317.147 0.759709 -4.25267 0
M  V30 3470 C 316.282 1.81537 -4.99217 0
M  V30 3471 C 315.321 1.14866 -6.01226 0
M  V30 3472 N 314.458 2.14702 -6.68467 0
M  V30 3473 H 319.298 -0.342603 -2.96024 0
M  V30 3474 H 316.835 -0.180801 -1.45985 0
M  V30 3475 H 318.793 2.04315 -3.63746 0
M  V30 3476 H 317.423 2.04671 -2.49619 0
M  V30 3477 H 316.475 0.0105671 -3.80399 0
M  V30 3478 H 317.787 0.233243 -4.98254 0
M  V30 3479 H 316.941 2.52793 -5.51526 0
M  V30 3480 H 315.68 2.37564 -4.25928 0
M  V30 3481 H 314.685 0.42171 -5.4818 0
M  V30 3482 H 315.91 0.595334 -6.76485 0
M  V30 3483 H 313.856 2.69752 -5.97972 0
M  V30 3484 H 313.773 1.6703 -7.37317 0
M  V30 3485 H 315.041 2.85348 -7.25394 0
M  V30 3486 N 319.27 1.56325 -0.20005 0
M  V30 3487 C 320.2 2.22318 0.713916 0
M  V30 3488 C 321.181 1.18788 1.21752 0
M  V30 3489 O 322.366 1.47309 1.26545 0
M  V30 3490 C 319.496 2.88639 1.93144 0
M  V30 3491 C 318.45 3.98457 1.56255 0
M  V30 3492 C 317.776 4.51967 2.85709 0
M  V30 3493 C 319.076 5.16612 0.768747 0
M  V30 3494 H 320.77 2.98952 0.163755 0
M  V30 3495 H 318.316 1.43792 0.0773219 0
M  V30 3496 H 320.269 3.33491 2.57608 0
M  V30 3497 H 318.993 2.09419 2.50621 0
M  V30 3498 H 317.652 3.54305 0.941471 0
M  V30 3499 H 317.3 3.69503 3.41287 0
M  V30 3500 H 317 5.26071 2.6177 0
M  V30 3501 H 318.524 4.99523 3.51154 0
M  V30 3502 H 319.938 5.57977 1.3166 0
M  V30 3503 H 318.335 5.96812 0.627286 0
M  V30 3504 H 319.405 4.84358 -0.229168 0
M  V30 3505 N 320.748 -0.0735177 1.57428 0
M  V30 3506 C 321.711 -1.07192 2.02589 0
M  V30 3507 C 322.711 -1.31695 0.922661 0
M  V30 3508 O 323.901 -1.27445 1.18758 0
M  V30 3509 C 321.033 -2.41599 2.40506 0
M  V30 3510 H 322.226 -0.682727 2.92025 0
M  V30 3511 H 319.779 -0.319193 1.53006 0
M  V30 3512 H 320.514 -2.85354 1.5409 0
M  V30 3513 H 320.299 -2.25156 3.21009 0
M  V30 3514 H 321.789 -3.13367 2.76027 0
M  V30 3515 N 322.226 -1.5378 -0.344866 0
M  V30 3516 C 323.642 -1.44015 -0.687888 0
M  V30 3517 C 323.842 -0.595834 -1.92489 0
M  V30 3518 O 322.898 -0.0863064 -2.52352 0
M  V30 3519 C 324.211 -2.87481 -0.881758 0
M  V30 3520 C 325.759 -2.97247 -0.980459 0
M  V30 3521 C 326.234 -4.41819 -1.20665 0
M  V30 3522 N 327.725 -4.45339 -1.27389 0
M  V30 3523 C 328.46 -5.54333 -1.46639 0
M  V30 3524 N 327.956 -6.73335 -1.63071 0
M  V30 3525 N 329.749 -5.41944 -1.49176 0
M  V30 3526 H 321.9 -2.07169 0.468475 0
M  V30 3527 H 324.163 -0.93643 0.147655 0
M  V30 3528 H 323.869 -3.51672 -0.0443444 0
M  V30 3529 H 323.743 -3.32352 -1.78388 0
M  V30 3530 H 326.13 -2.33197 -1.8084 0
M  V30 3531 H 326.211 -2.5574 -0.0552713 0
M  V30 3532 H 325.855 -5.06449 -0.383652 0
M  V30 3533 H 325.785 -4.80917 -2.14539 0
M  V30 3534 H 328.276 -3.59585 -1.1622 0
M  V30 3535 H 328.589 -7.52165 -1.77391 0
M  V30 3536 H 326.934 -6.76282 -1.60209 0
M  V30 3537 H 330.125 -4.47932 -1.3592 0
M  V30 3538 H 330.298 -6.26946 -1.63837 0
M  V30 3539 N 323.704 0.605807 -1.45491 0
M  V30 3540 C 324.952 1.36207 -1.49305 0
M  V30 3541 C 325.273 1.94519 -0.136863 0
M  V30 3542 O 324.543 1.77261 0.833983 0
M  V30 3543 H 323.123 0.50565 -0.549843 0
M  V30 3544 H 325.785 0.711239 -1.81459 0
M  V30 3545 H 324.881 2.18058 -2.23287 0
M  V30 3546 N 325.182 1.32811 0.848464 0
M  V30 3547 C 326.407 1.26882 1.6406 0
M  V30 3548 C 326.832 -0.15913 1.87426 0
M  V30 3549 O 326.19 -1.11258 1.43148 0
M  V30 3550 C 326.238 2.03997 2.97351 0
M  V30 3551 O 325.342 1.39201 3.88197 0
M  V30 3552 H 324.683 0.436982 0.499943 0
M  V30 3553 H 327.213 1.75224 1.0563 0
M  V30 3554 H 327.223 2.14403 3.47124 0
M  V30 3555 H 325.898 3.0783 2.79666 0
M  V30 3556 H 324.475 1.37381 3.46671 0
M  V30 3557 N 326.66 -1.06551 1.16123 0
M  V30 3558 C 327.59 -2.15935 0.88851 0
M  V30 3559 C 328.571 -1.69306 -0.164135 0
M  V30 3560 O 329.756 -1.94193 -0.0167857 0
M  V30 3561 C 326.886 -3.45149 0.385942 0
M  V30 3562 C 325.84 -4.05271 1.3762 0
M  V30 3563 C 325.166 -5.29664 0.732137 0
M  V30 3564 C 326.466 -4.44355 2.74493 0
M  V30 3565 H 328.16 -2.39006 1.80323 0
M  V30 3566 H 325.706 -1.14866 0.868435 0
M  V30 3567 H 327.659 -4.21004 0.182647 0
M  V30 3568 H 326.383 -3.21689 -0.564274 0
M  V30 3569 H 325.042 -3.3147 1.56599 0
M  V30 3570 H 324.69 -5.02499 -0.224483 0
M  V30 3571 H 324.39 -5.70848 1.39307 0
M  V30 3572 H 325.914 -6.08218 0.538802 0
M  V30 3573 H 327.328 -5.11303 2.59311 0
M  V30 3574 H 325.725 -4.96515 3.37035 0
M  V30 3575 H 326.795 -3.55339 3.29943 0
M  V30 3576 N 328.138 -0.959301 -1.25041 0
M  V30 3577 C 329.363 -0.633507 -1.97488 0
M  V30 3578 C 329.788 0.788555 -1.70773 0
M  V30 3579 O 329.146 1.53394 -0.966431 0
M  V30 3580 C 329.194 -0.904057 -3.49083 0
M  V30 3581 O 328.298 0.0147939 -4.12397 0
M  V30 3582 H 327.639 -0.240368 -0.618966 0
M  V30 3583 H 330.169 -1.28717 -1.59038 0
M  V30 3584 H 330.179 -0.832203 -3.99423 0
M  V30 3585 H 328.854 -1.94048 -3.67856 0
M  V30 3586 H 327.431 -0.109664 -3.72739 0
M  V30 3587 N 329.616 1.39756 -0.72842 0
M  V30 3588 C 330.862 2.00942 -0.273892 0
M  V30 3589 C 331.195 1.57656 1.13394 0
M  V30 3590 O 330.47 0.802434 1.77176 0
M  V30 3591 C 330.753 3.58211 -0.368346 0
M  V30 3592 C 330.606 4.11534 -1.81548 0
M  V30 3593 C 331.925 4.39372 0.253054 0
M  V30 3594 H 329.044 0.730047 -0.100996 0
M  V30 3595 H 331.686 1.66056 -0.923337 0
M  V30 3596 H 329.836 3.88061 0.184588 0
M  V30 3597 H 331.508 3.92431 -2.42478 0
M  V30 3598 H 329.751 3.65341 -2.33898 0
M  V30 3599 H 330.422 5.20682 -1.83288 0
M  V30 3600 H 332.898 4.15527 -0.218224 0
M  V30 3601 H 331.774 5.48677 0.156585 0
M  V30 3602 H 332.035 4.21358 1.33826 0
M  V30 3603 N 331.094 0.475555 1.50254 0
M  V30 3604 C 332.342 -0.077738 2.0195 0
M  V30 3605 C 332.663 -1.39813 1.35931 0
M  V30 3606 O 331.933 -1.89249 0.506123 0
M  V30 3607 H 330.513 -0.031719 0.746326 0
M  V30 3608 H 333.175 0.626995 1.84539 0
M  V30 3609 H 332.271 -0.225995 3.11281 0
M  V30 3610 N 332.573 -1.56217 0.208337 0
M  V30 3611 C 333.85 -1.89739 -0.475234 0
M  V30 3612 C 334.23 -1.1238 -1.78701 0
M  V30 3613 O 333.578 -0.228979 -2.2735 0
M  V30 3614 C 333.788 -3.42289 -0.681101 0
M  V30 3615 C 335.136 -4.12789 -0.994507 0
M  V30 3616 O 336.16 -3.47814 -0.768357 0
M  V30 3617 O 335.019 -5.27649 -1.42299 0
M  V30 3618 H 332.113 -0.788478 -0.249461 0
M  V30 3619 H 334.659 -1.67855 0.249538 0
M  V30 3620 H 333.431 -3.90534 0.244722 0
M  V30 3621 H 333.054 -3.69909 -1.45785 0
M  V30 3622 N 334.051 0.0651679 -1.57465 0
M  V30 3623 C 334.998 1.07675 -2.04144 0
M  V30 3624 C 335.968 1.38071 -0.923335 0
M  V30 3625 O 337.153 1.49026 -1.19146 0
M  V30 3626 C 334.293 2.38337 -2.49579 0
M  V30 3627 C 333.406 2.14413 -3.75035 0
M  V30 3628 C 332.541 3.38686 -4.09225 0
M  V30 3629 C 331.58 3.10156 -5.27702 0
M  V30 3630 N 330.717 4.26778 -5.57499 0
M  V30 3631 H 335.557 0.671716 -2.90331 0
M  V30 3632 H 333.094 0.3201 -1.43575 0
M  V30 3633 H 335.052 3.14632 -2.73975 0
M  V30 3634 H 333.682 2.7663 -1.6636 0
M  V30 3635 H 332.734 1.2878 -3.57939 0
M  V30 3636 H 334.046 1.89344 -4.61466 0
M  V30 3637 H 333.2 4.23373 -4.34558 0
M  V30 3638 H 331.939 3.66837 -3.21374 0
M  V30 3639 H 330.944 2.23866 -5.02159 0
M  V30 3640 H 332.169 2.8332 -6.17176 0
M  V30 3641 H 330.115 4.54948 -4.72608 0
M  V30 3642 H 330.032 4.05005 -6.38362 0
M  V30 3643 H 331.3 5.12443 -5.87386 0
M  V30 3644 N 335.529 1.53961 0.336706 0
M  V30 3645 C 336.806 1.62171 1.09361 0
M  V30 3646 C 337.186 0.447263 2.06307 0
M  V30 3647 O 336.534 -0.559802 2.21537 0
M  V30 3648 C 336.744 2.98565 1.80721 0
M  V30 3649 C 338.092 3.54157 2.34218 0
M  V30 3650 O 339.116 3.00784 1.90807 0
M  V30 3651 O 337.975 4.47528 3.13657 0
M  V30 3652 H 335.069 0.6562 0.503319 0
M  V30 3653 H 337.615 1.66307 0.33765 0
M  V30 3654 H 336.387 3.75482 1.10132 0
M  V30 3655 H 336.01 2.9805 2.63158 0
M  V30 3656 N 337.007 -0.598083 1.45811 0
M  V30 3657 C 337.957 -1.70272 1.51629 0
M  V30 3658 C 338.941 -1.56382 0.378629 0
M  V30 3659 O 340.133 -1.65557 0.626087 0
M  V30 3660 C 337.262 -3.09042 1.49493 0
M  V30 3661 C 336.348 -3.28284 2.68496 0
M  V30 3662 N 336.739 -3.17748 3.93535 0
M  V30 3663 C 335.037 -3.59182 2.64394 0
M  V30 3664 C 335.738 -3.38579 4.7301 0
M  V30 3665 N 334.714 -3.63016 4.04624 0
M  V30 3666 H 338.516 -1.60634 2.46118 0
M  V30 3667 H 336.03 -0.801642 1.41235 0
M  V30 3668 H 338.027 -3.88302 1.51747 0
M  V30 3669 H 336.687 -3.19823 0.560683 0
M  V30 3670 H 337.698 -2.95944 4.25014 0
M  V30 3671 H 334.375 -3.76742 1.79922 0
M  V30 3672 H 335.765 -3.35747 5.82 0
M  V30 3673 N 338.485 -1.33259 -0.841409 0
M  V30 3674 C 339.418 -1.1764 -1.95541 0
M  V30 3675 C 340.396 -0.072501 -1.62438 0
M  V30 3676 O 341.58 -0.23427 -1.87039 0
M  V30 3677 C 338.707 -0.803794 -3.29024 0
M  V30 3678 C 337.753 -1.91482 -3.81099 0
M  V30 3679 S 338.586 -3.52538 -4.03085 0
M  V30 3680 C 339.742 -3.17279 -5.39523 0
M  V30 3681 H 339.975 -2.11941 -2.08491 0
M  V30 3682 H 337.508 -1.18072 -0.9949 0
M  V30 3683 H 339.466 -0.595592 -4.06156 0
M  V30 3684 H 338.127 0.120574 -3.13868 0
M  V30 3685 H 337.32 -1.60742 -4.7768 0
M  V30 3686 H 336.922 -2.07956 -3.10854 0
M  V30 3687 H 339.214 -2.67946 -6.22263 0
M  V30 3688 H 340.157 -4.1293 -5.75234 0
M  V30 3689 H 340.565 -2.53943 -5.04156 0
M  V30 3690 N 339.963 1.05934 -1.16686 0
M  V30 3691 C 341.203 1.80382 -0.961345 0
M  V30 3692 C 341.567 1.85331 0.501643 0
M  V30 3693 O 342.768 2.55795 0.825986 0
M  V30 3694 C 341.039 3.20777 -1.57596 0
M  V30 3695 S 342.598 4.11795 -1.51559 0
M  V30 3696 H 339.416 0.621332 -0.345641 0
M  V30 3697 H 342.018 1.27157 -1.48497 0
M  V30 3698 H 340.722 3.14773 -2.63337 0
M  V30 3699 H 340.253 3.79078 -1.05182 0
M  V30 3700 H 342.268 4.93485 -0.518374 0
M  V30 3701 N 341.441 0.965919 1.2453 0
M  V30 3702 C 342.666 0.643971 1.97149 0
M  V30 3703 C 343.091 -0.779487 1.71189 0
M  V30 3704 O 342.449 -1.5288 0.974553 0
M  V30 3705 C 342.497 0.922557 3.48599 0
M  V30 3706 O 341.601 0.00707672 4.12399 0
M  V30 3707 H 340.942 0.243647 0.617683 0
M  V30 3708 H 343.472 1.29558 1.58353 0
M  V30 3709 H 343.482 0.853373 3.98976 0
M  V30 3710 H 342.157 1.95996 3.66822 0
M  V30 3711 H 340.734 0.12943 3.72675 0
M  V30 3712 N 342.919 -1.39368 0.735821 0
M  V30 3713 C 344.165 -2.00794 0.284544 0
M  V30 3714 C 344.498 -1.58255 -1.12557 0
M  V30 3715 O 343.773 -0.811819 -1.76748 0
M  V30 3716 C 344.056 -3.58011 0.387337 0
M  V30 3717 C 343.909 -4.10566 1.83728 0
M  V30 3718 C 345.228 -4.395 -0.22975 0
M  V30 3719 H 342.347 -0.729501 0.104866 0
M  V30 3720 H 344.989 -1.65564 0.93213 0
M  V30 3721 H 343.139 -3.88154 -0.164006 0
M  V30 3722 H 344.811 -3.91139 2.44556 0
M  V30 3723 H 343.054 -3.64095 2.35833 0
M  V30 3724 H 343.725 -5.19702 1.86047 0
M  V30 3725 H 346.201 -4.15406 0.240257 0
M  V30 3726 H 345.077 -5.48752 -0.127485 0
M  V30 3727 H 345.338 -4.22062 -1.3159 0
M  V30 3728 N 344.397 -0.483516 -1.5 0
M  V30 3729 C 345.344 0.304164 -2.28787 0
M  V30 3730 C 346.314 0.976114 -1.34392 0
M  V30 3731 O 347.499 0.986156 -1.63339 0
M  V30 3732 C 344.639 1.37298 -3.16612 0
M  V30 3733 C 343.752 0.714561 -4.26049 0
M  V30 3734 C 342.887 1.76232 -5.01114 0
M  V30 3735 C 341.926 1.08483 -6.0241 0
M  V30 3736 N 341.063 2.076 -6.70706 0
M  V30 3737 H 345.903 -0.373981 -2.95644 0
M  V30 3738 H 343.44 -0.196275 -1.45785 0
M  V30 3739 H 345.398 2.00445 -3.65893 0
M  V30 3740 H 344.028 2.02012 -2.51776 0
M  V30 3741 H 343.08 -0.0297798 -3.80388 0
M  V30 3742 H 344.392 0.180383 -4.98474 0
M  V30 3743 H 343.546 2.46929 -5.54176 0
M  V30 3744 H 342.285 2.33033 -4.28424 0
M  V30 3745 H 341.29 0.363545 -5.48597 0
M  V30 3746 H 342.515 0.523551 -6.77079 0
M  V30 3747 H 340.461 2.63394 -6.00799 0
M  V30 3748 H 340.378 1.59201 -7.39047 0
M  V30 3749 H 341.646 2.77639 -7.2838 0
M  V30 3750 N 345.875 1.56104 -0.216619 0
M  V30 3751 C 347.1 2.0301 0.424462 0
M  V30 3752 C 347.525 1.0955 1.52907 0
M  V30 3753 O 346.883 0.0827914 1.81111 0
M  V30 3754 C 346.931 3.4819 0.937883 0
M  V30 3755 O 346.035 3.57865 2.04955 0
M  V30 3756 H 345.376 0.656925 0.0966755 0
M  V30 3757 H 347.906 2.01859 -0.33381 0
M  V30 3758 H 347.916 3.88413 1.24897 0
M  V30 3759 H 346.591 4.15699 0.129387 0
M  V30 3760 H 345.168 3.29527 1.74546 0
M  V30 3761 N 347.353 -0.0568162 1.57498 0
M  V30 3762 C 348.769 -0.411933 1.54192 0
M  V30 3763 C 348.969 -1.78287 0.938942 0
M  V30 3764 O 348.025 -2.46483 0.547919 0
M  V30 3765 C 349.338 -0.339244 2.9878 0
M  V30 3766 C 350.886 -0.418348 3.10192 0
M  V30 3767 C 351.361 -0.375407 4.56459 0
M  V30 3768 N 352.852 -0.435038 4.61153 0
M  V30 3769 C 353.587 -0.424265 5.71828 0
M  V30 3770 N 353.083 -0.367418 6.91825 0
M  V30 3771 N 354.876 -0.471938 5.60115 0
M  V30 3772 H 347.027 0.840684 1.95055 0
M  V30 3773 H 349.29 0.316987 0.893433 0
M  V30 3774 H 348.996 0.601742 3.46514 0
M  V30 3775 H 348.87 -1.14371 3.59443 0
M  V30 3776 H 351.257 -1.34976 2.62422 0
M  V30 3777 H 351.338 0.414962 2.52412 0
M  V30 3778 H 350.982 0.552219 5.04889 0
M  V30 3779 H 350.912 -1.22645 5.12119 0
M  V30 3780 H 353.403 -0.482612 3.74806 0
M  V30 3781 H 353.716 -0.363535 7.71944 0
M  V30 3782 H 352.061 -0.333879 6.94198 0
M  V30 3783 H 355.252 -0.514145 4.65268 0
M  V30 3784 H 355.425 -0.460073 6.46365 0
M  V30 3785 N 348.832 -1.54138 -0.328536 0
M  V30 3786 C 349.762 -1.86167 -1.40939 0
M  V30 3787 C 350.743 -0.718044 -1.54202 0
M  V30 3788 O 351.928 -0.971328 -1.68163 0
M  V30 3789 C 349.058 -2.08461 -2.77779 0
M  V30 3790 C 348.012 -3.24299 -2.7931 0
M  V30 3791 C 347.338 -3.31955 -4.19178 0
M  V30 3792 C 348.638 -4.62065 -2.43502 0
M  V30 3793 H 350.332 -2.76689 -1.14383 0
M  V30 3794 H 347.878 -1.33132 -0.548806 0
M  V30 3795 H 349.831 -2.29453 -3.53454 0
M  V30 3796 H 348.555 -1.14684 -3.05802 0
M  V30 3797 H 347.214 -3.03187 -2.0609 0
M  V30 3798 H 346.862 -2.35745 -4.44335 0
M  V30 3799 H 346.562 -4.09805 -4.2111 0
M  V30 3800 H 348.086 -3.55175 -4.96672 0
M  V30 3801 H 349.5 -4.8297 -3.08889 0
M  V30 3802 H 347.897 -5.42429 -2.56693 0
M  V30 3803 H 348.967 -4.64652 -1.38659 0
M  V30 3804 N 350.31 0.590341 -1.46126 0
M  V30 3805 C 351.556 1.34874 -1.52252 0
M  V30 3806 C 351.911 1.91658 -0.168807 0
M  V30 3807 O 351.204 1.73093 0.821556 0
M  V30 3808 C 351.398 2.5032 -2.55097 0
M  V30 3809 C 351.227 2.04843 -4.00337 0
M  V30 3810 C 349.997 1.90213 -4.68132 0
M  V30 3811 C 352.195 1.61267 -4.88362 0
M  V30 3812 N 350.177 1.38727 -5.9802 0
M  V30 3813 C 351.548 1.21319 -6.08015 0
M  V30 3814 C 353.603 1.49015 -4.75078 0
M  V30 3815 C 352.306 0.7034 -7.15852 0
M  V30 3816 C 354.332 0.994401 -5.8298 0
M  V30 3817 C 353.694 0.604659 -7.018 0
M  V30 3818 H 349.793 0.486803 -0.612002 0
M  V30 3819 H 352.377 0.673007 -1.82698 0
M  V30 3820 H 350.548 3.15466 -2.26574 0
M  V30 3821 H 352.28 3.1725 -2.51266 0
M  V30 3822 H 349.035 2.11927 -4.23537 0
M  V30 3823 H 349.459 1.15168 -6.67132 0
M  V30 3824 H 354.101 1.77768 -3.83612 0
M  V30 3825 H 351.819 0.403446 -8.07092 0
M  V30 3826 H 355.405 0.903621 -5.7474 0
M  V30 3827 H 354.285 0.226963 -7.83871 0
M  V30 3828 N 351.788 1.33704 0.83433 0
M  V30 3829 C 352.735 1.24335 1.94447 0
M  V30 3830 C 353.705 0.120991 1.65659 0
M  V30 3831 O 354.89 0.300035 1.88426 0
M  V30 3832 C 352.03 0.993124 3.30501 0
M  V30 3833 C 351.143 2.20217 3.71657 0
M  V30 3834 C 350.278 1.88572 4.96602 0
M  V30 3835 C 349.317 3.05683 5.30306 0
M  V30 3836 N 348.454 2.73997 6.46429 0
M  V30 3837 H 353.294 2.1928 2.01792 0
M  V30 3838 H 350.831 1.09035 0.987404 0
M  V30 3839 H 352.789 0.828467 4.08892 0
M  V30 3840 H 351.419 0.0803902 3.227 0
M  V30 3841 H 350.471 2.47642 2.88752 0
M  V30 3842 H 351.783 3.07752 3.92543 0
M  V30 3843 H 350.937 1.68776 5.82752 0
M  V30 3844 H 349.676 0.982799 4.77695 0
M  V30 3845 H 348.681 3.26088 4.42659 0
M  V30 3846 H 349.906 3.96737 5.51159 0
M  V30 3847 H 347.852 1.86268 6.28999 0
M  V30 3848 H 347.769 3.55064 6.67432 0
M  V30 3849 H 349.037 2.57679 7.35678 0
M  V30 3850 N 353.266 -1.05314 1.17247 0
M  V30 3851 C 354.196 -2.1498 0.911362 0
M  V30 3852 C 355.177 -1.69471 -0.146169 0
M  V30 3853 O 356.362 -1.942 0.003812 0
M  V30 3854 C 353.492 -3.4472 0.422528 0
M  V30 3855 C 352.446 -4.03789 1.4191 0
M  V30 3856 C 351.772 -5.28858 0.788274 0
M  V30 3857 C 353.072 -4.41418 2.7919 0
M  V30 3858 H 354.766 -2.3708 1.82848 0
M  V30 3859 H 352.312 -1.13938 0.880569 0
M  V30 3860 H 354.265 -4.20787 0.227289 0
M  V30 3861 H 352.989 -3.22269 -0.530123 0
M  V30 3862 H 351.648 -3.2979 1.60106 0
M  V30 3863 H 351.296 -5.02709 -0.171173 0
M  V30 3864 H 350.996 -5.69338 1.45353 0
M  V30 3865 H 352.52 -6.07612 0.603282 0
M  V30 3866 H 353.934 -5.08524 2.64719 0
M  V30 3867 H 352.331 -4.92913 3.42282 0
M  V30 3868 H 353.401 -3.51819 3.33693 0
M  V30 3869 N 354.744 -0.972509 -1.24016 0
M  V30 3870 C 355.674 -0.525548 -2.27509 0
M  V30 3871 C 356.655 0.437262 -1.64384 0
M  V30 3872 O 357.84 0.332343 -1.91335 0
M  V30 3873 C 354.97 0.180448 -3.46831 0
M  V30 3874 C 353.924 -0.698859 -4.22256 0
M  V30 3875 C 353.25 0.138903 -5.3452 0
M  V30 3876 C 354.55 -1.98582 -4.83076 0
M  V30 3877 H 356.244 -1.39058 -2.65148 0
M  V30 3878 H 353.79 -0.67009 -1.27459 0
M  V30 3879 H 355.743 0.504387 -4.18371 0
M  V30 3880 H 354.467 1.07987 -3.08231 0
M  V30 3881 H 353.126 -1.00614 -3.52523 0
M  V30 3882 H 352.774 1.03862 -4.9216 0
M  V30 3883 H 352.474 -0.446259 -5.85903 0
M  V30 3884 H 353.998 0.457404 -6.08884 0
M  V30 3885 H 355.412 -1.72715 -5.46665 0
M  V30 3886 H 353.809 -2.5181 -5.44713 0
M  V30 3887 H 354.879 -2.67769 -4.04262 0
M  V30 3888 N 356.222 1.38976 -0.743202 0
M  V30 3889 C 357.447 2.05161 -0.303936 0
M  V30 3890 C 357.872 1.55677 1.05576 0
M  V30 3891 O 357.23 0.704131 1.67068 0
M  V30 3892 C 357.278 3.59138 -0.324373 0
M  V30 3893 O 356.382 4.06668 0.685204 0
M  V30 3894 H 355.723 0.649815 -0.136518 0
M  V30 3895 H 358.253 1.77852 -1.01142 0
M  V30 3896 H 358.263 4.07639 -0.171618 0
M  V30 3897 H 356.938 3.94515 -1.31647 0
M  V30 3898 H 355.515 3.69561 0.497913 0
M  V30 3899 N 357.7 0.491464 1.49741 0
M  V30 3900 C 359.111 0.0413169 1.86654 0
M  V30 3901 C 359.462 -1.36985 1.40462 0
M  V30 3902 O 358.587 -2.01917 0.778354 0
M  V30 3903 C 359.182 0.0682023 3.38731 0
M  V30 3904 C 357.741 -0.32656 3.74981 0
M  V30 3905 C 356.888 0.444888 2.73708 0
M  V30 3906 H 359.839 0.704733 1.42194 0
M  V30 3907 H 359.86 -0.729322 3.73445 0
M  V30 3908 H 359.372 1.09539 3.72321 0
M  V30 3909 H 357.473 -1.35734 3.46997 0
M  V30 3910 H 357.586 -0.013741 4.79098 0
M  V30 3911 H 355.95 -0.104062 2.54487 0
M  V30 3912 H 356.733 1.47197 3.10142 0
M  V30 3913 N 359.178 -1.55987 0.224894 0
M  V30 3914 C 360.141 -2.19178 -0.670348 0
M  V30 3915 C 361.141 -1.15461 -1.11917 0
M  V30 3916 O 362.331 -1.40675 -1.02743 0
M  V30 3917 C 359.463 -2.81777 -1.9187 0
M  V30 3918 H 360.656 -2.99662 -0.119364 0
M  V30 3919 H 358.209 -1.5628 -0.0247128 0
M  V30 3920 H 358.944 -2.05172 -2.51147 0
M  V30 3921 H 358.729 -3.57732 -1.60531 0
M  V30 3922 H 360.219 -3.30205 -2.55645 0
M  V30 3923 N 360.656 0.0484629 -1.57525 0
M  V30 3924 C 362.072 0.40375 -1.54409 0
M  V30 3925 C 362.272 1.77786 -0.948384 0
M  V30 3926 O 361.328 2.46189 -0.560983 0
M  V30 3927 C 362.641 0.323394 -2.98956 0
M  V30 3928 C 364.189 0.401892 -3.10409 0
M  V30 3929 C 364.664 0.351195 -4.56652 0
M  V30 3930 N 366.155 0.410576 -4.61377 0
M  V30 3931 C 366.89 0.393933 -5.72045 0
M  V30 3932 N 366.386 0.330724 -6.9201 0
M  V30 3933 N 368.179 0.442227 -5.60358 0
M  V30 3934 H 360.33 -0.851016 -1.94606 0
M  V30 3935 H 362.593 -0.321721 -0.89174 0
M  V30 3936 H 362.299 -0.62011 -3.4619 0
M  V30 3937 H 362.173 1.12463 -3.60044 0
M  V30 3938 H 364.56 1.33582 -2.63134 0
M  V30 3939 H 364.641 -0.428342 -2.52188 0
M  V30 3940 H 364.285 -0.578987 -5.04589 0
M  V30 3941 H 364.215 1.19928 -5.12762 0
M  V30 3942 H 366.706 0.462729 -3.75056 0
M  V30 3943 H 367.019 0.322592 -7.72126 0
M  V30 3944 H 365.364 0.29706 -6.94365 0
M  V30 3945 H 368.555 0.489464 -4.65534 0
M  V30 3946 H 368.728 0.425788 -6.466 0
M  V30 3947 N 362.134 1.5431 0.320358 0
M  V30 3948 C 363.064 1.86912 1.3995 0
M  V30 3949 C 364.045 0.726211 1.53819 0
M  V30 3950 O 365.23 0.980233 1.67646 0
M  V30 3951 C 362.36 2.09932 2.7667 0
M  V30 3952 C 361.314 3.25776 2.77586 0
M  V30 3953 C 360.64 3.34173 4.17412 0
M  V30 3954 C 361.94 4.6335 2.41048 0
M  V30 3955 H 363.634 2.77292 1.12914 0
M  V30 3956 H 361.18 1.33421 0.541738 0
M  V30 3957 H 363.133 2.31324 3.52232 0
M  V30 3958 H 361.857 1.16304 3.0519 0
M  V30 3959 H 360.516 3.04276 2.04479 0
M  V30 3960 H 360.164 2.38098 4.43078 0
M  V30 3961 H 359.864 4.12033 4.18931 0
M  V30 3962 H 361.388 3.57803 4.94782 0
M  V30 3963 H 362.802 4.84602 3.06324 0
M  V30 3964 H 361.199 5.43782 2.53813 0
M  V30 3965 H 362.269 4.65381 1.36193 0
M  V30 3966 N 363.613 -0.582584 1.46437 0
M  V30 3967 C 364.576 -1.67366 1.56592 0
M  V30 3968 C 365.576 -1.54575 0.443072 0
M  V30 3969 O 366.766 -1.59191 0.707381 0
M  V30 3970 C 363.898 -3.06791 1.48634 0
M  V30 3971 H 365.091 -1.5972 2.5383 0
M  V30 3972 H 362.644 -0.800432 1.34249 0
M  V30 3973 H 363.379 -3.19993 0.526763 0
M  V30 3974 H 363.164 -3.17484 2.30101 0
M  V30 3975 H 364.654 -3.86218 1.58826 0
M  V30 3976 N 365.091 -1.34144 -0.827227 0
M  V30 3977 C 366.507 -1.13732 -1.11969 0
M  V30 3978 C 366.707 0.0640463 -2.01398 0
M  V30 3979 O 365.763 0.740856 -2.41387 0
M  V30 3980 C 367.076 -2.43047 -1.77055 0
M  V30 3981 C 368.624 -2.49063 -1.89569 0
M  V30 3982 C 369.099 -3.78369 -2.58072 0
M  V30 3983 N 370.59 -3.79505 -2.65575 0
M  V30 3984 C 371.325 -4.76274 -3.19297 0
M  V30 3985 N 370.821 -5.83424 -3.73616 0
M  V30 3986 N 372.614 -4.63735 -3.17658 0
M  V30 3987 H 364.765 -2.11126 -0.232296 0
M  V30 3988 H 367.028 -0.933424 -0.165602 0
M  V30 3989 H 366.734 -3.31025 -1.18807 0
M  V30 3990 H 366.608 -2.56066 -2.76966 0
M  V30 3991 H 368.995 -1.61527 -2.46968 0
M  V30 3992 H 369.076 -2.39975 -0.885745 0
M  V30 3993 H 368.72 -4.66293 -2.01329 0
M  V30 3994 H 368.65 -3.84737 -3.59562 0
M  V30 3995 H 371.141 -3.02074 -2.27068 0
M  V30 3996 H 371.454 -6.53282 -4.12846 0
M  V30 3997 H 369.799 -5.87143 -3.71871 0
M  V30 3998 H 372.99 -3.79177 -2.74486 0
M  V30 3999 H 373.163 -5.39318 -3.59221 0
M  V30 4000 N 366.569 1.04691 -1.17803 0
M  V30 4001 C 367.985 1.29963 -0.926379 0
M  V30 4002 C 368.185 1.97251 0.411635 0
M  V30 4003 O 367.241 2.24922 1.14744 0
M  V30 4004 C 368.554 2.16447 -2.08737 0
M  V30 4005 C 370.102 2.29814 -2.12496 0
M  V30 4006 C 370.577 3.19661 -3.27995 0
M  V30 4007 N 372.068 3.27247 -3.27816 0
M  V30 4008 C 372.803 3.96906 -4.13827 0
M  V30 4009 N 372.299 4.6895 -5.09959 0
M  V30 4010 N 374.092 3.93122 -4.01761 0
M  V30 4011 H 366.243 0.594182 -2.0392 0
M  V30 4012 H 368.506 0.324649 -0.890678 0
M  V30 4013 H 368.212 1.74304 -3.05469 0
M  V30 4014 H 368.086 3.17103 -2.04268 0
M  V30 4015 H 370.473 2.71196 -1.16347 0
M  V30 4016 H 370.554 1.2877 -2.21025 0
M  V30 4017 H 370.198 2.78991 -4.24413 0
M  V30 4018 H 370.128 4.20722 -3.16703 0
M  V30 4019 H 372.619 2.75921 -2.58217 0
M  V30 4020 H 372.932 5.19679 -5.71974 0
M  V30 4021 H 371.277 4.67875 -5.13924 0
M  V30 4022 H 374.468 3.35967 -3.2595 0
M  V30 4023 H 374.641 4.47139 -4.6901 0
M  V30 4024 N 368.047 0.979072 1.23499 0
M  V30 4025 C 369.01 0.523244 2.23147 0
M  V30 4026 C 370.01 -0.386406 1.56088 0
M  V30 4027 O 371.2 -0.180283 1.73265 0
M  V30 4028 C 368.332 -0.240739 3.40049 0
M  V30 4029 H 369.525 1.40432 2.64989 0
M  V30 4030 H 367.078 0.764824 1.36309 0
M  V30 4031 H 367.813 -1.13841 3.03662 0
M  V30 4032 H 367.598 0.412207 3.89927 0
M  V30 4033 H 369.088 -0.548297 4.13985 0
M  V30 4034 N 369.525 -1.3858 0.750561 0
M  V30 4035 C 370.475 -2.27795 0.0965949 0
M  V30 4036 C 371.459 -1.45048 -0.696411 0
M  V30 4037 O 372.651 -1.67812 -0.562863 0
M  V30 4038 C 369.78 -3.33894 -0.798085 0
M  V30 4039 C 368.866 -4.241 0.0016067 0
M  V30 4040 N 369.257 -4.95067 1.03647 0
M  V30 4041 C 367.555 -4.45429 -0.225674 0
M  V30 4042 C 368.256 -5.61489 1.52004 0
M  V30 4043 N 367.232 -5.37135 0.835874 0
M  V30 4044 H 371.034 -2.80125 0.889228 0
M  V30 4045 H 368.548 -1.51446 0.586323 0
M  V30 4046 H 370.545 -3.96693 -1.28219 0
M  V30 4047 H 369.205 -2.83123 -1.5897 0
M  V30 4048 H 370.216 -4.98104 1.41819 0
M  V30 4049 H 366.893 -4.05571 -0.990872 0
M  V30 4050 H 368.283 -6.28264 2.38188 0
M  V30 4051 N 371.003 -0.499398 -1.49478 0
M  V30 4052 C 372.419 -0.155261 -1.58843 0
M  V30 4053 C 372.619 1.34008 -1.50479 0
M  V30 4054 O 371.675 2.11589 -1.37791 0
M  V30 4055 C 372.988 -0.730636 -2.91689 0
M  V30 4056 C 374.536 -0.696599 -3.0515 0
M  V30 4057 C 375.011 -1.25001 -4.40612 0
M  V30 4058 N 376.502 -1.21064 -4.47099 0
M  V30 4059 C 377.237 -1.60905 -5.50361 0
M  V30 4060 N 376.733 -2.08331 -6.60735 0
M  V30 4061 N 378.526 -1.52331 -5.41065 0
M  V30 4062 H 370.677 -1.47162 -1.53158 0
M  V30 4063 H 372.94 -0.610309 -0.725415 0
M  V30 4064 H 372.646 -1.77928 -3.03372 0
M  V30 4065 H 372.52 -0.190161 -3.7672 0
M  V30 4066 H 374.907 0.343204 -2.93097 0
M  V30 4067 H 374.988 -1.2742 -2.21806 0
M  V30 4068 H 374.632 -2.28859 -4.53416 0
M  V30 4069 H 374.562 -0.64836 -5.22593 0
M  V30 4070 H 377.053 -0.863128 -3.67911 0
M  V30 4071 H 377.366 -2.36805 -7.35624 0
M  V30 4072 H 375.711 -2.12304 -6.6178 0
M  V30 4073 H 378.902 -1.151 -4.53729 0
M  V30 4074 H 379.075 -1.83704 -6.21415 0
M  V30 4075 N 372.481 1.55866 -0.233164 0
M  V30 4076 C 373.706 2.03449 0.402906 0
M  V30 4077 C 374.131 1.11166 1.51736 0
M  V30 4078 O 373.489 0.101996 1.81013 0
M  V30 4079 C 373.537 3.49165 0.9009 0
M  V30 4080 O 372.641 3.60019 2.01147 0
M  V30 4081 H 371.982 0.657913 0.0897025 0
M  V30 4082 H 374.512 2.01493 -0.355201 0
M  V30 4083 H 374.522 3.89716 1.2077 0
M  V30 4084 H 373.197 4.15813 0.0852889 0
M  V30 4085 H 371.774 3.3136 1.71042 0
M  V30 4086 N 373.959 -0.0401083 1.57549 0
M  V30 4087 C 374.906 -1.04413 2.05831 0
M  V30 4088 C 375.876 -1.36585 0.945184 0
M  V30 4089 O 377.061 -1.47112 1.21502 0
M  V30 4090 C 374.201 -2.34336 2.53339 0
M  V30 4091 C 373.314 -2.08419 3.78398 0
M  V30 4092 C 372.449 -3.32133 4.14561 0
M  V30 4093 C 371.488 -3.01721 5.3257 0
M  V30 4094 N 370.625 -4.17855 5.64218 0
M  V30 4095 H 375.465 -0.625442 2.91363 0
M  V30 4096 H 373.002 -0.297218 1.44066 0
M  V30 4097 H 374.96 -3.10234 2.78946 0
M  V30 4098 H 373.59 -2.73948 1.7074 0
M  V30 4099 H 372.642 -1.23069 3.59942 0
M  V30 4100 H 373.954 -1.81978 4.64419 0
M  V30 4101 H 373.108 -4.16406 4.41238 0
M  V30 4102 H 371.847 -3.61678 3.2717 0
M  V30 4103 H 370.852 -2.15849 5.05657 0
M  V30 4104 H 372.077 -2.73466 6.21605 0
M  V30 4105 H 370.023 -4.47372 4.79786 0
M  V30 4106 H 369.94 -3.94798 6.44725 0
M  V30 4107 H 371.208 -5.03033 5.95465 0
M  V30 4108 N 375.437 -1.54477 -0.31217 0
M  V30 4109 C 376.683 -1.74417 -1.04644 0
M  V30 4110 C 377.038 -0.517641 -1.85306 0
M  V30 4111 O 376.331 0.489973 -1.85229 0
M  V30 4112 C 376.525 -2.967 -1.99258 0
M  V30 4113 C 376.354 -4.31128 -1.27901 0
M  V30 4114 C 375.124 -4.95087 -1.01079 0
M  V30 4115 C 377.322 -5.09662 -0.689119 0
M  V30 4116 N 375.304 -6.13322 -0.266323 0
M  V30 4117 C 376.675 -6.19952 -0.0768523 0
M  V30 4118 C 378.73 -4.94355 -0.593061 0
M  V30 4119 C 377.433 -7.16604 0.622165 0
M  V30 4120 C 379.459 -5.91328 0.0922792 0
M  V30 4121 C 378.821 -7.00978 0.693443 0
M  V30 4122 H 374.92 -0.69094 -0.366231 0
M  V30 4123 H 377.504 -1.91946 -0.326319 0
M  V30 4124 H 375.675 -2.80616 -2.68532 0
M  V30 4125 H 377.407 -3.05216 -2.65755 0
M  V30 4126 H 374.162 -4.55235 -1.30607 0
M  V30 4127 H 374.586 -6.76937 0.0920973 0
M  V30 4128 H 379.228 -4.09719 -1.04355 0
M  V30 4129 H 376.946 -8.0079 1.08445 0
M  V30 4130 H 380.532 -5.81562 0.166396 0
M  V30 4131 H 379.412 -7.74725 1.21533 0
M  V30 4132 N 376.915 0.57481 -1.46744 0
M  V30 4133 C 377.845 1.69337 -1.60771 0
M  V30 4134 C 378.826 1.63825 -0.457736 0
M  V30 4135 O 380.011 1.8172 -0.684947 0
M  V30 4136 C 377.141 3.0798 -1.60517 0
M  V30 4137 C 376.095 3.28327 -2.74564 0
M  V30 4138 C 375.421 4.67578 -2.59373 0
M  V30 4139 C 376.721 3.15398 -4.16319 0
M  V30 4140 H 378.415 1.57853 -2.54407 0
M  V30 4141 H 375.961 0.75799 -1.22436 0
M  V30 4142 H 377.914 3.86061 -1.68923 0
M  V30 4143 H 376.638 3.20381 -0.634305 0
M  V30 4144 H 375.297 2.52649 -2.65639 0
M  V30 4145 H 374.945 4.76755 -1.60353 0
M  V30 4146 H 374.645 4.82144 -3.35873 0
M  V30 4147 H 376.169 5.47817 -2.69682 0
M  V30 4148 H 377.583 3.83315 -4.26313 0
M  V30 4149 H 375.98 3.41482 -4.93468 0
M  V30 4150 H 377.05 2.12372 -4.3592 0
M  V30 4151 N 378.394 1.34581 0.820102 0
M  V30 4152 C 379.304 1.28471 1.96297 0
M  V30 4153 C 380.32 0.191902 1.72939 0
M  V30 4154 O 381.496 0.418879 1.96996 0
M  V30 4155 C 378.561 1.04281 3.30645 0
M  V30 4156 C 377.622 2.22745 3.66992 0
M  V30 4157 C 376.855 1.997 4.9493 0
M  V30 4158 O 377.078 0.956656 5.6232 0
M  V30 4159 O 376.012 2.86723 5.2922 0
M  V30 4160 H 379.838 2.24624 2.04396 0
M  V30 4161 H 377.423 1.14816 0.955913 0
M  V30 4162 H 379.305 0.925841 4.11104 0
M  V30 4163 H 377.98 0.111697 3.23507 0
M  V30 4164 H 376.887 2.40003 2.86966 0
M  V30 4165 H 378.22 3.14257 3.78819 0
M  V30 4166 N 379.872 -1.04064 1.18357 0
M  V30 4167 C 381.097 -1.81454 1.00445 0
M  V30 4168 C 381.522 -1.82823 -0.442423 0
M  V30 4169 O 380.88 -1.24555 -1.31741 0
M  V30 4170 C 380.928 -3.24925 1.56384 0
M  V30 4171 O 380.032 -4.04856 0.785209 0
M  V30 4172 H 379.373 -0.560604 0.355835 0
M  V30 4173 H 381.903 -1.31059 1.57114 0
M  V30 4174 H 381.913 -3.75702 1.59097 0
M  V30 4175 H 380.588 -3.23244 2.61699 0
M  V30 4176 H 379.165 -3.63537 0.830399 0
M  V30 4177 N 381.35 -0.985608 -1.22978 0
M  V30 4178 C 382.58 -0.674603 -1.95276 0
M  V30 4179 C 382.988 0.763483 -1.73111 0
M  V30 4180 O 382.331 1.52601 -1.02268 0
M  V30 4181 C 382.393 -0.891597 -3.48268 0
M  V30 4182 C 382.057 -2.31275 -3.94158 0
M  V30 4183 C 383.054 -3.29179 -4.02415 0
M  V30 4184 C 380.739 -2.64524 -4.27004 0
M  V30 4185 C 382.733 -4.58407 -4.42879 0
M  V30 4186 C 380.42 -3.93974 -4.67149 0
M  V30 4187 C 381.418 -4.90727 -4.75053 0
M  V30 4188 O 381.106 -6.17865 -5.14294 0
M  V30 4189 H 380.838 -0.249251 -0.628371 0
M  V30 4190 H 383.392 -1.32106 -1.5728 0
M  V30 4191 H 381.622 -0.187962 -3.86243 0
M  V30 4192 H 383.311 -0.576957 -4.01779 0
M  V30 4193 H 384.077 -3.04823 -3.77237 0
M  V30 4194 H 379.956 -1.89923 -4.2006 0
M  V30 4195 H 383.5 -5.33926 -4.48964 0
M  V30 4196 H 379.397 -4.18122 -4.91777 0
M  V30 4197 H 380.165 -6.21694 -5.32389 0
M  V30 4198 N 382.828 1.3818 -0.7579 0
M  V30 4199 C 383.758 2.33027 -0.148597 0
M  V30 4200 C 384.739 1.55085 0.69875 0
M  V30 4201 O 385.924 1.83384 0.639053 0
M  V30 4202 C 383.054 3.3928 0.742034 0
M  V30 4203 C 382.008 4.28 -0.00291946 0
M  V30 4204 C 381.334 5.25146 1.00625 0
M  V30 4205 C 382.634 5.08938 -1.17385 0
M  V30 4206 H 384.328 2.84231 -0.940909 0
M  V30 4207 H 381.874 1.36659 -0.453908 0
M  V30 4208 H 383.827 4.046 1.17799 0
M  V30 4209 H 382.551 2.86569 1.56671 0
M  V30 4210 H 381.21 3.64192 -0.419504 0
M  V30 4211 H 380.858 4.68721 1.8251 0
M  V30 4212 H 380.558 5.85361 0.512428 0
M  V30 4213 H 382.082 5.93342 1.44143 0
M  V30 4214 H 383.496 5.67474 -0.815224 0
M  V30 4215 H 381.893 5.7841 -1.59882 0
M  V30 4216 H 382.963 4.42424 -1.98468 0
M  V30 4217 N 384.306 0.507319 1.49211 0
M  V30 4218 C 385.236 -0.256939 2.32082 0
M  V30 4219 C 386.217 -0.956609 1.40652 0
M  V30 4220 O 387.402 -0.946788 1.69557 0
M  V30 4221 C 384.532 -1.31802 3.21318 0
M  V30 4222 C 383.486 -0.737855 4.21592 0
M  V30 4223 C 382.812 -1.89992 4.99807 0
M  V30 4224 C 384.112 0.275325 5.21574 0
M  V30 4225 H 385.806 0.434798 2.96226 0
M  V30 4226 H 383.352 0.210546 1.42452 0
M  V30 4227 H 385.305 -1.86045 3.78107 0
M  V30 4228 H 384.029 -2.03903 2.5513 0
M  V30 4229 H 382.688 -0.217126 3.65956 0
M  V30 4230 H 382.336 -2.60877 4.30061 0
M  V30 4231 H 382.036 -1.51777 5.6766 0
M  V30 4232 H 383.56 -2.44657 5.59442 0
M  V30 4233 H 384.974 -0.179193 5.7302 0
M  V30 4234 H 383.371 0.573649 5.97352 0
M  V30 4235 H 384.441 1.18903 4.70096 0
M  V30 4236 N 385.784 -1.5574 0.241426 0
M  V30 4237 C 386.734 -2.17803 -0.674233 0
M  V30 4238 C 387.718 -1.13225 -1.14319 0
M  V30 4239 O 388.91 -1.39153 -1.09387 0
M  V30 4240 C 386.039 -2.87682 -1.87333 0
M  V30 4241 C 385.125 -3.99509 -1.42313 0
M  V30 4242 N 385.516 -5.01115 -0.686798 0
M  V30 4243 C 383.814 -4.11964 -1.70885 0
M  V30 4244 C 384.515 -5.79922 -0.454456 0
M  V30 4245 N 383.491 -5.34001 -1.01705 0
M  V30 4246 H 387.293 -2.93718 -0.103447 0
M  V30 4247 H 384.807 -1.62342 0.0435095 0
M  V30 4248 H 386.804 -3.3057 -2.54026 0
M  V30 4249 H 385.464 -2.13269 -2.4484 0
M  V30 4250 H 386.475 -5.16799 -0.337459 0
M  V30 4251 H 383.152 -3.48718 -2.2957 0
M  V30 4252 H 384.542 -6.71768 0.132992 0
M  V30 4253 N 387.262 0.0317525 -1.57568 0
M  V30 4254 C 388.192 1.03274 -2.0942 0
M  V30 4255 C 389.173 1.3788 -0.996143 0
M  V30 4256 O 390.358 1.46811 -1.27122 0
M  V30 4257 C 387.488 2.33448 -2.57137 0
M  V30 4258 C 386.442 2.13091 -3.71182 0
M  V30 4259 C 385.768 3.49001 -4.05095 0
M  V30 4260 C 387.068 1.51928 -4.99715 0
M  V30 4261 H 388.762 0.60112 -2.93303 0
M  V30 4262 H 386.308 0.287705 -1.41097 0
M  V30 4263 H 388.261 3.03802 -2.92032 0
M  V30 4264 H 386.985 2.78665 -1.70333 0
M  V30 4265 H 385.644 1.45171 -3.36632 0
M  V30 4266 H 385.292 3.91862 -3.15362 0
M  V30 4267 H 384.992 3.36207 -4.81911 0
M  V30 4268 H 386.516 4.20721 -4.42522 0
M  V30 4269 H 387.93 2.12196 -5.32584 0
M  V30 4270 H 386.327 1.49716 -5.81124 0
M  V30 4271 H 387.397 0.484811 -4.8247 0
M  V30 4272 N 388.74 1.54641 0.303973 0
M  V30 4273 C 389.65 1.88439 1.39743 0
M  V30 4274 C 390.666 0.778239 1.55626 0
M  V30 4275 O 391.842 1.07442 1.70347 0
M  V30 4276 C 388.907 2.12212 2.74166 0
M  V30 4277 C 387.968 3.35936 2.67293 0
M  V30 4278 C 387.201 3.58566 3.95305 0
M  V30 4279 O 387.424 2.84263 4.9452 0
M  V30 4280 O 386.358 4.52078 3.97378 0
M  V30 4281 H 390.184 2.81458 1.14083 0
M  V30 4282 H 387.769 1.40793 0.499768 0
M  V30 4283 H 389.651 2.29067 3.53704 0
M  V30 4284 H 388.326 1.22379 2.99675 0
M  V30 4285 H 387.233 3.24448 1.86237 0
M  V30 4286 H 388.566 4.2589 2.46736 0
M  V30 4287 N 390.218 -0.567019 1.47046 0
M  V30 4288 C 391.128 -1.70247 1.6141 0
M  V30 4289 C 392.144 -1.66746 0.497157 0
M  V30 4290 O 393.32 -1.86371 0.763389 0
M  V30 4291 C 390.385 -3.06756 1.61561 0
M  V30 4292 C 389.446 -3.21399 2.84607 0
M  V30 4293 C 388.679 -4.51396 2.84741 0
M  V30 4294 O 388.902 -5.36255 1.94388 0
M  V30 4295 O 387.836 -4.69621 3.76483 0
M  V30 4296 H 391.662 -1.61073 2.57467 0
M  V30 4297 H 389.247 -0.735894 1.30019 0
M  V30 4298 H 391.129 -3.8801 1.64396 0
M  V30 4299 H 389.804 -3.16333 0.686684 0
M  V30 4300 H 388.711 -2.39579 2.8732 0
M  V30 4301 H 390.044 -3.16721 3.76761 0
M  V30 4302 N 391.696 -1.35014 -0.812953 0
M  V30 4303 C 392.629 -1.21761 -1.93001 0
M  V30 4304 C 393.607 -0.10694 -1.62248 0
M  V30 4305 O 394.791 -0.273891 -1.865 0
M  V30 4306 C 391.918 -0.873404 -3.27245 0
M  V30 4307 C 390.964 -1.99523 -3.76952 0
M  V30 4308 S 391.797 -3.61009 -3.95516 0
M  V30 4309 C 392.953 -3.28651 -5.32672 0
M  V30 4310 H 393.186 -2.16315 -2.03948 0
M  V30 4311 H 390.719 -1.20156 -0.969631 0
M  V30 4312 H 392.677 -0.68161 -4.04802 0
M  V30 4313 H 391.338 0.053971 -3.14054 0
M  V30 4314 H 390.531 -1.70838 -4.74163 0
M  V30 4315 H 390.133 -2.14503 -3.06373 0
M  V30 4316 H 392.425 -2.81085 -6.1644 0
M  V30 4317 H 393.368 -4.25039 -5.66346 0
M  V30 4318 H 393.776 -2.6458 -4.98656 0
M  V30 4319 N 393.175 1.03435 -1.18907 0
M  V30 4320 C 394.423 1.76394 -0.986382 0
M  V30 4321 C 394.744 1.88883 0.484567 0
M  V30 4322 O 394.014 1.41843 1.3512 0
M  V30 4323 H 392.594 0.65344 -0.361975 0
M  V30 4324 H 395.256 1.248 -1.49703 0
M  V30 4325 H 394.352 2.77424 -1.42978 0
M  V30 4326 N 394.653 0.992116 1.22453 0
M  V30 4327 C 395.899 0.668523 1.91464 0
M  V30 4328 C 396.232 -0.797313 1.77078 0
M  V30 4329 O 395.507 -1.5765 1.13916 0
M  V30 4330 C 395.79 1.07424 3.43703 0
M  V30 4331 C 395.643 2.59857 3.67143 0
M  V30 4332 C 396.962 0.626891 4.35612 0
M  V30 4333 H 394.081 0.244341 0.695318 0
M  V30 4334 H 396.723 1.2355 1.44345 0
M  V30 4335 H 394.873 0.591816 3.83966 0
M  V30 4336 H 396.545 3.15764 3.3629 0
M  V30 4337 H 394.788 3.01961 3.11451 0
M  V30 4338 H 395.459 2.83296 4.73759 0
M  V30 4339 H 397.935 1.04125 4.02861 0
M  V30 4340 H 396.811 0.939076 5.40807 0
M  V30 4341 H 397.072 -0.472457 4.39568 0
M  V30 4342 N 396.131 -1.37776 0.765217 0
M  V30 4343 C 397.356 -2.04651 0.336537 0
M  V30 4344 C 397.781 -1.57337 -1.03086 0
M  V30 4345 O 397.139 -0.730621 -1.65927 0
M  V30 4346 C 397.187 -3.58577 0.381468 0
M  V30 4347 O 396.291 -4.07706 -0.62042 0
M  V30 4348 H 395.632 -0.64756 0.146838 0
M  V30 4349 H 398.162 -1.76221 1.03959 0
M  V30 4350 H 398.172 -4.07314 0.236448 0
M  V30 4351 H 396.847 -3.9237 1.37907 0
M  V30 4352 H 395.424 -3.70306 -0.439056 0
M  V30 4353 N 397.609 -0.515225 -1.4894 0
M  V30 4354 C 398.519 0.259774 -2.33157 0
M  V30 4355 C 399.535 0.953501 -1.45548 0
M  V30 4356 O 400.711 0.931735 -1.78552 0
M  V30 4357 C 397.776 1.30193 -3.21326 0
M  V30 4358 C 396.837 0.620129 -4.24797 0
M  V30 4359 C 396.07 1.61263 -5.08753 0
M  V30 4360 O 396.293 2.84389 -4.94448 0
M  V30 4361 O 395.227 1.16013 -5.90614 0
M  V30 4362 H 399.053 -0.429932 -3.00641 0
M  V30 4363 H 396.638 -0.276346 -1.46822 0
M  V30 4364 H 398.52 1.90455 -3.75905 0
M  V30 4365 H 397.195 1.97431 -2.56521 0
M  V30 4366 H 396.102 -0.0226019 -3.74093 0
M  V30 4367 H 397.435 -0.0100493 -4.92199 0
M  V30 4368 N 399.087 1.5561 -0.249682 0
M  V30 4369 C 399.997 2.25143 0.659375 0
M  V30 4370 C 401.013 1.2685 1.19101 0
M  V30 4371 O 402.189 1.59732 1.22669 0
M  V30 4372 C 399.254 2.93945 1.8384 0
M  V30 4373 C 398.315 4.07655 1.34596 0
M  V30 4374 C 397.548 4.73167 2.46878 0
M  V30 4375 O 397.771 4.37768 3.65671 0
M  V30 4376 O 396.705 5.61623 2.16478 0
M  V30 4377 H 400.531 3.03545 0.0968698 0
M  V30 4378 H 398.116 1.49389 -0.018074 0
M  V30 4379 H 399.998 3.37271 2.52638 0
M  V30 4380 H 398.673 2.18481 2.38847 0
M  V30 4381 H 397.58 3.68839 0.625174 0
M  V30 4382 H 398.913 4.84946 0.841941 0
M  V30 4383 N 400.565 -0.0233959 1.57583 0
M  V30 4384 C 401.498 -1.05549 2.02323 0
M  V30 4385 C 402.476 -1.34843 0.908626 0
M  V30 4386 O 403.66 -1.47404 1.17491 0
M  V30 4387 C 400.787 -2.38885 2.40108 0
M  V30 4388 C 399.833 -2.2541 3.62067 0
M  V30 4389 S 400.666 -1.60217 5.1097 0
M  V30 4390 C 401.822 -2.95032 5.52003 0
M  V30 4391 H 402.055 -0.674435 2.89549 0
M  V30 4392 H 399.588 -0.23355 1.52623 0
M  V30 4393 H 401.546 -3.15562 2.62547 0
M  V30 4394 H 400.207 -2.74137 1.53323 0
M  V30 4395 H 399.4 -3.23854 3.86179 0
M  V30 4396 H 399.002 -1.56876 3.39508 0
M  V30 4397 H 401.294 -3.91357 5.53033 0
M  V30 4398 H 402.237 -2.75646 6.52246 0
M  V30 4399 H 402.645 -2.97865 4.79517 0
M  V30 4400 N 402.043 -1.548 -0.295768 0
M  V30 4401 C 402.975 -1.82492 -1.3867 0
M  V30 4402 C 403.988 -0.708134 -1.46592 0
M  V30 4403 O 405.177 -0.985686 -1.48817 0
M  V30 4404 C 402.277 -1.95256 -2.76999 0
M  V30 4405 C 401.45 -3.25709 -2.91946 0
M  V30 4406 C 400.509 -3.28824 -4.10806 0
M  V30 4407 O 399.535 -4.02328 -4.02643 0
M  V30 4408 N 400.737 -2.5459 -5.21694 0
M  V30 4409 H 403.502 -2.76646 -1.15269 0
M  V30 4410 H 401.063 -1.54438 -0.485849 0
M  V30 4411 H 403.055 -1.94736 -3.54768 0
M  V30 4412 H 401.625 -1.08072 -2.93324 0
M  V30 4413 H 400.845 -3.38959 -2.01247 0
M  V30 4414 H 402.133 -4.11786 -2.98847 0
M  V30 4415 H 401.531 -1.94512 -5.31208 0
M  V30 4416 H 400.088 -2.59818 -5.97778 0
M  V30 4417 N 403.521 0.559213 -1.47345 0
M  V30 4418 C 404.484 1.64854 -1.59235 0
M  V30 4419 C 405.484 1.53851 -0.467607 0
M  V30 4420 O 406.674 1.58045 -0.732617 0
M  V30 4421 C 403.806 3.04388 -1.53496 0
M  V30 4422 H 404.999 1.55662 -2.56339 0
M  V30 4423 H 402.552 0.778973 -1.35505 0
M  V30 4424 H 403.287 3.19115 -0.577604 0
M  V30 4425 H 403.072 3.13783 -2.35123 0
M  V30 4426 H 404.562 3.83642 -1.6495 0
M  V30 4427 N 404.999 1.35443 0.805782 0
M  V30 4428 C 406.415 1.15499 1.10146 0
M  V30 4429 C 406.615 -0.0319975 2.01475 0
M  V30 4430 O 405.671 -0.70236 2.42535 0
M  V30 4431 C 406.984 2.45833 1.73166 0
M  V30 4432 C 408.532 2.52047 1.85583 0
M  V30 4433 C 409.007 3.82427 2.52019 0
M  V30 4434 N 410.498 3.83682 2.59504 0
M  V30 4435 C 411.233 4.81294 3.11679 0
M  V30 4436 N 410.729 5.89294 3.64287 0
M  V30 4437 N 412.522 4.6873 3.1024 0
M  V30 4438 H 404.673 2.11469 0.198678 0
M  V30 4439 H 406.936 0.93594 0.150731 0
M  V30 4440 H 406.642 3.32874 1.13526 0
M  V30 4441 H 406.516 2.6044 2.72857 0
M  V30 4442 H 408.903 1.65435 2.44367 0
M  V30 4443 H 408.984 2.41354 0.847455 0
M  V30 4444 H 408.628 4.69437 1.93885 0
M  V30 4445 H 408.558 3.90409 3.53395 0
M  V30 4446 H 411.049 3.05648 2.22234 0
M  V30 4447 H 411.362 6.59768 4.02401 0
M  V30 4448 H 409.707 5.92985 3.62483 0
M  V30 4449 H 412.898 3.83496 2.68419 0
M  V30 4450 H 413.071 5.44965 3.50596 0
M  V30 4451 N 406.477 -1.02803 1.19454 0
M  V30 4452 C 407.44 -2.09264 0.934955 0
M  V30 4453 C 408.44 -1.60576 -0.0849015 0
M  V30 4454 O 409.63 -1.73554 0.149933 0
M  V30 4455 C 406.762 -3.38482 0.40531 0
M  V30 4456 H 407.955 -2.33726 1.87916 0
M  V30 4457 H 405.508 -1.19426 1.00832 0
M  V30 4458 H 406.243 -3.19689 -0.544899 0
M  V30 4459 H 406.028 -3.75142 1.14065 0
M  V30 4460 H 407.518 -4.16894 0.242806 0
M  V30 4461 N 407.956 -0.998596 -1.21925 0
M  V30 4462 C 408.886 -0.573688 -2.26343 0
M  V30 4463 C 409.867 0.402296 -1.65274 0
M  V30 4464 O 411.052 0.291683 -1.91997 0
M  V30 4465 C 408.182 0.106839 -3.47136 0
M  V30 4466 C 407.136 -0.788269 -4.20678 0
M  V30 4467 C 406.462 0.0254927 -5.34694 0
M  V30 4468 C 407.762 -2.08784 -4.78755 0
M  V30 4469 H 409.456 -1.44651 -2.62138 0
M  V30 4470 H 407.002 -0.696975 -1.26009 0
M  V30 4471 H 408.955 0.415531 -4.19346 0
M  V30 4472 H 407.679 1.01424 -3.10452 0
M  V30 4473 H 406.338 -1.08069 -3.50309 0
M  V30 4474 H 405.986 0.933989 -4.94253 0
M  V30 4475 H 405.686 -0.570437 -5.84825 0
M  V30 4476 H 407.21 0.328147 -6.09718 0
M  V30 4477 H 408.624 -1.84272 -5.42878 0
M  V30 4478 H 407.021 -2.63307 -5.39249 0
M  V30 4479 H 408.091 -2.76284 -3.98491 0
M  V30 4480 N 409.434 1.37368 -0.772513 0
M  V30 4481 C 410.68 1.99969 -0.337681 0
M  V30 4482 C 411.013 1.61184 1.08321 0
M  V30 4483 O 410.288 0.858395 1.74533 0
M  V30 4484 C 410.571 3.56858 -0.482121 0
M  V30 4485 C 410.424 4.0555 -1.94549 0
M  V30 4486 C 411.743 4.39955 0.113143 0
M  V30 4487 H 408.862 0.726464 -0.124171 0
M  V30 4488 H 411.504 1.63034 -0.975699 0
M  V30 4489 H 409.654 3.88452 0.0610361 0
M  V30 4490 H 411.326 3.84518 -2.54841 0
M  V30 4491 H 409.569 3.57715 -2.45403 0
M  V30 4492 H 410.24 5.14587 -1.9976 0
M  V30 4493 H 412.716 4.14623 -0.35031 0
M  V30 4494 H 411.592 5.48897 -0.0180514 0
M  V30 4495 H 411.853 4.25403 1.20354 0
M  V30 4496 N 410.912 0.523116 1.48665 0
M  V30 4497 C 411.842 -0.23231 2.32342 0
M  V30 4498 C 412.823 -0.941637 1.41659 0
M  V30 4499 O 414.008 -0.928751 1.70552 0
M  V30 4500 C 411.138 -1.28387 3.22698 0
M  V30 4501 C 410.092 -0.693098 4.22351 0
M  V30 4502 C 409.418 -1.8468 5.01794 0
M  V30 4503 C 410.718 0.33063 5.21252 0
M  V30 4504 H 412.412 0.466192 2.95748 0
M  V30 4505 H 409.958 0.225643 1.42221 0
M  V30 4506 H 411.911 -1.82024 3.80059 0
M  V30 4507 H 410.635 -2.01186 2.57278 0
M  V30 4508 H 409.294 -0.178299 3.66166 0
M  V30 4509 H 408.942 -2.56301 4.32804 0
M  V30 4510 H 408.642 -1.45747 5.69238 0
M  V30 4511 H 410.166 -2.38709 5.62006 0
M  V30 4512 H 411.58 -0.118407 5.73178 0
M  V30 4513 H 409.977 0.636974 5.9671 0
M  V30 4514 H 411.047 1.23883 4.68808 0
M  V30 4515 N 412.39 -1.55475 0.257931 0
M  V30 4516 C 413.322 -2.19192 -0.669881 0
M  V30 4517 C 414.335 -1.17148 -1.1305 0
M  V30 4518 O 415.524 -1.43959 -1.05537 0
M  V30 4519 C 412.624 -2.79016 -1.92363 0
M  V30 4520 C 411.797 -4.06586 -1.61265 0
M  V30 4521 C 410.856 -4.50622 -2.7171 0
M  V30 4522 O 409.882 -5.16765 -2.38627 0
M  V30 4523 N 411.084 -4.19325 -4.01431 0
M  V30 4524 H 413.849 -2.99441 -0.124635 0
M  V30 4525 H 411.41 -1.6171 0.0783311 0
M  V30 4526 H 413.402 -3.05427 -2.65511 0
M  V30 4527 H 411.972 -2.0286 -2.37837 0
M  V30 4528 H 411.192 -3.87646 -0.715811 0
M  V30 4529 H 412.48 -4.89737 -1.37967 0
M  V30 4530 H 411.878 -3.66247 -4.31138 0
M  V30 4531 H 410.435 -4.50547 -4.7101 0
M  V30 4532 N 413.868 0.0150385 -1.57593 0
M  V30 4533 C 414.798 1.01047 -2.10503 0
M  V30 4534 C 415.779 1.36816 -1.01071 0
M  V30 4535 O 416.964 1.45455 -1.28672 0
M  V30 4536 C 414.094 2.30708 -2.59598 0
M  V30 4537 C 413.048 2.09142 -3.73421 0
M  V30 4538 C 412.374 3.44685 -4.08774 0
M  V30 4539 C 413.674 1.46619 -5.01298 0
M  V30 4540 H 415.368 0.569978 -2.93925 0
M  V30 4541 H 412.914 0.272724 -1.41394 0
M  V30 4542 H 414.867 3.00687 -2.95238 0
M  V30 4543 H 413.591 2.76843 -1.73279 0
M  V30 4544 H 412.25 1.41592 -3.38153 0
M  V30 4545 H 411.898 3.88495 -3.195 0
M  V30 4546 H 411.598 3.31077 -4.8545 0
M  V30 4547 H 413.122 4.16004 -4.4696 0
M  V30 4548 H 414.536 2.06535 -5.34805 0
M  V30 4549 H 412.933 1.43544 -5.82679 0
M  V30 4550 H 414.003 0.433611 -4.82957 0
M  V30 4551 N 415.346 1.54954 0.287554 0
M  V30 4552 C 416.592 1.76059 1.01856 0
M  V30 4553 C 416.947 0.547056 1.84459 0
M  V30 4554 O 416.24 -0.460442 1.85985 0
M  V30 4555 C 416.434 2.99833 1.94512 0
M  V30 4556 C 416.263 4.33108 1.21026 0
M  V30 4557 C 415.033 4.96632 0.931896 0
M  V30 4558 C 417.231 5.10694 0.607949 0
M  V30 4559 N 415.213 6.13668 0.168716 0
M  V30 4560 C 416.584 6.19996 -0.0217865 0
M  V30 4561 C 418.639 4.95236 0.514338 0
M  V30 4562 C 417.342 7.15524 -0.736092 0
M  V30 4563 C 419.368 5.91106 -0.186343 0
M  V30 4564 C 418.73 6.99786 -0.804875 0
M  V30 4565 H 414.829 0.696679 0.355193 0
M  V30 4566 H 417.413 1.92441 0.295741 0
M  V30 4567 H 415.584 2.84853 2.64033 0
M  V30 4568 H 417.316 3.09405 2.60865 0
M  V30 4569 H 414.071 4.57255 1.23348 0
M  V30 4570 H 414.495 6.76705 -0.199781 0
M  V30 4571 H 419.137 4.11328 0.978234 0
M  V30 4572 H 416.855 7.98964 -1.21172 0
M  V30 4573 H 420.441 5.81224 -0.258897 0
M  V30 4574 H 419.321 7.72694 -1.33843 0
M  V30 4575 N 416.824 -0.551391 1.4764 0
M  V30 4576 C 417.787 -1.64007 1.60107 0
M  V30 4577 C 418.787 -1.53601 0.47576 0
M  V30 4578 O 419.977 -1.57655 0.740988 0
M  V30 4579 C 417.109 -3.03569 1.55108 0
M  V30 4580 H 418.302 -1.543 2.57161 0
M  V30 4581 H 415.855 -0.771776 1.35917 0
M  V30 4582 H 416.59 -3.18804 0.594519 0
M  V30 4583 H 416.375 -3.12532 2.36783 0
M  V30 4584 H 417.865 -3.82762 1.66982 0
M  V30 4585 N 418.302 -1.35869 -0.798587 0
M  V30 4586 C 419.53 -1.32722 -1.58722 0
M  V30 4587 C 419.945 0.0935631 -1.88568 0
M  V30 4588 O 419.302 1.04784 -1.49421 0
M  V30 4589 C 419.353 -2.13974 -2.91371 0
M  V30 4590 O 419.074 -3.50514 -2.62815 0
M  V30 4591 C 420.575 -2.18504 -3.85708 0
M  V30 4592 H 417.795 -0.45562 -0.492596 0
M  V30 4593 H 420.339 -1.78837 -0.991843 0
M  V30 4594 H 418.494 -1.71438 -3.47402 0
M  V30 4595 H 418.908 -3.92806 -3.47568 0
M  V30 4596 H 420.382 -2.79732 -4.75872 0
M  V30 4597 H 420.859 -1.18597 -4.22885 0
M  V30 4598 H 421.465 -2.61236 -3.35612 0
M  V30 4599 N 419.78 1.02168 -1.19998 0
M  V30 4600 C 420.712 2.10705 -0.901994 0
M  V30 4601 C 421.725 1.6244 0.108216 0
M  V30 4602 O 422.914 1.78082 -0.12214 0
M  V30 4603 C 420.014 3.37291 -0.329834 0
M  V30 4604 C 419.187 4.14714 -1.39035 0
M  V30 4605 C 418.246 5.19606 -0.830432 0
M  V30 4606 O 417.272 5.48809 -1.50989 0
M  V30 4607 N 418.474 5.79366 0.362696 0
M  V30 4608 H 421.239 2.36856 -1.83628 0
M  V30 4609 H 418.8 1.18518 -1.10296 0
M  V30 4610 H 420.792 4.04657 0.0587633 0
M  V30 4611 H 419.362 3.0843 0.508891 0
M  V30 4612 H 418.582 3.42392 -1.9535 0
M  V30 4613 H 419.87 4.63226 -2.10474 0
M  V30 4614 H 419.268 5.57968 0.932081 0
M  V30 4615 H 417.825 6.48106 0.69299 0
M  V30 4616 N 421.258 1.00505 1.21394 0
M  V30 4617 C 422.506 0.686415 1.90086 0
M  V30 4618 C 422.827 -0.785264 1.7849 0
M  V30 4619 O 422.097 -1.56387 1.17983 0
M  V30 4620 H 420.677 0.2509 0.703604 0
M  V30 4621 H 423.339 1.27417 1.47482 0
M  V30 4622 H 422.435 0.959621 2.96981 0
M  V30 4623 N 422.737 -1.36956 0.779787 0
M  V30 4624 C 423.685 -2.32053 0.15942 0
M  V30 4625 C 424.679 -1.55333 -0.675878 0
M  V30 4626 O 425.885 -1.70668 -0.57204 0
M  V30 4627 H 422.26 -0.751286 0.0327707 0
M  V30 4628 H 424.231 -2.8195 0.977078 0
M  V30 4629 C 422.98 -3.40602 -0.698977 0
M  V30 4630 H 422.303 -3.99746 -0.0655966 0
M  V30 4631 H 423.743 -4.09486 -1.09989 0
M  V30 4632 C 422.202 -2.81359 -1.85307 0
M  V30 4633 O 422.732 -2.72751 -2.94906 0
M  V30 4634 N 420.938 -2.38786 -1.65619 0
M  V30 4635 H 420.485 -2.45987 -0.764725 0
M  V30 4636 H 420.443 -1.99493 -2.43002 0
M  V30 4637 N 424.215 -0.530993 -1.48385 0
M  V30 4638 C 425.148 0.278511 -2.26494 0
M  V30 4639 C 426.126 0.943905 -1.32398 0
M  V30 4640 O 427.31 0.968098 -1.61741 0
M  V30 4641 C 424.437 1.39453 -3.08659 0
M  V30 4642 C 423.483 0.840434 -4.18137 0
M  V30 4643 S 424.316 -0.292496 -5.34701 0
M  V30 4644 C 425.472 0.825973 -6.20426 0
M  V30 4645 H 425.705 -0.384365 -2.94805 0
M  V30 4646 H 423.238 -0.316799 -1.51115 0
M  V30 4647 H 425.196 2.03382 -3.56575 0
M  V30 4648 H 423.857 2.02913 -2.3976 0
M  V30 4649 H 423.05 1.67769 -4.75257 0
M  V30 4650 H 422.652 0.277819 -3.72967 0
M  V30 4651 H 424.944 1.72438 -6.55188 0
M  V30 4652 H 425.887 0.292728 -7.07495 0
M  V30 4653 H 426.295 1.10683 -5.53543 0
M  V30 4654 N 425.693 1.55336 -0.266172 0
M  V30 4655 C 426.941 1.99003 0.35246 0
M  V30 4656 C 427.262 1.15591 1.57047 0
M  V30 4657 O 426.532 0.243268 1.94384 0
M  V30 4658 H 425.112 0.735025 0.133217 0
M  V30 4659 H 427.774 1.91367 -0.369434 0
M  V30 4660 H 426.87 3.05289 0.648453 0
M  V30 4661 N 427.171 -0.0066808 1.57599 0
M  V30 4662 C 428.582 -0.550379 1.78403 0
M  V30 4663 C 428.933 -1.74339 0.900014 0
M  V30 4664 O 428.058 -2.16166 0.100713 0
M  V30 4665 C 428.653 -1.00523 3.23544 0
M  V30 4666 C 427.212 -1.49428 3.45468 0
M  V30 4667 C 426.359 -0.442444 2.73748 0
M  V30 4668 H 429.31 0.219508 1.57175 0
M  V30 4669 H 429.331 -1.87157 3.31289 0
M  V30 4670 H 428.843 -0.136735 3.87859 0
M  V30 4671 H 426.944 -2.3839 2.86358 0
M  V30 4672 H 427.057 -1.52635 4.54136 0
M  V30 4673 H 425.421 -0.902578 2.38171 0
M  V30 4674 H 426.204 0.416973 3.40758 0
M  V30 4675 N 428.649 -1.55105 -0.279332 0
M  V30 4676 C 429.612 -1.86783 -1.32834 0
M  V30 4677 C 430.612 -0.74199 -1.42657 0
M  V30 4678 O 431.802 -1.0102 -1.41918 0
M  V30 4679 C 428.934 -2.06746 -2.71052 0
M  V30 4680 H 430.127 -2.8055 -1.05979 0
M  V30 4681 H 427.68 -1.47499 -0.517087 0
M  V30 4682 H 428.415 -1.15339 -3.03097 0
M  V30 4683 H 428.2 -2.88711 -2.65309 0
M  V30 4684 H 429.69 -2.32549 -3.46858 0
M  V30 4685 N 430.127 0.543554 -1.4793 0
M  V30 4686 C 431.09 1.63156 -1.60975 0
M  V30 4687 C 432.09 1.53346 -0.483899 0
M  V30 4688 O 433.28 1.5726 -0.749339 0
M  V30 4689 C 430.412 3.02743 -1.56716 0
M  V30 4690 H 431.605 1.52934 -2.57975 0
M  V30 4691 H 429.158 0.764557 -1.36324 0
M  V30 4692 H 429.893 3.18484 -0.611418 0
M  V30 4693 H 429.678 3.11272 -2.38438 0
M  V30 4694 H 431.168 3.81871 -1.6901 0
M  V30 4695 N 431.605 1.3629 0.791371 0
M  V30 4696 C 432.852 1.30412 1.54916 0
M  V30 4697 C 433.18 -0.117162 1.94147 0
M  V30 4698 O 432.435 -1.08599 1.62803 0
M  V30 4699 C 432.734 2.17068 2.8393 0
M  V30 4700 C 432.4 3.65645 2.63846 0
M  V30 4701 C 431.062 4.0614 2.58077 0
M  V30 4702 C 433.414 4.59855 2.45322 0
M  V30 4703 C 430.742 5.3899 2.31748 0
M  V30 4704 C 433.094 5.9292 2.2052 0
M  V30 4705 C 431.758 6.32542 2.13183 0
M  V30 4706 H 431.028 0.47721 0.566879 0
M  V30 4707 H 433.675 1.68325 0.913172 0
M  V30 4708 H 431.98 1.72085 3.51986 0
M  V30 4709 H 433.677 2.09846 3.4171 0
M  V30 4710 H 430.267 3.33518 2.69191 0
M  V30 4711 H 434.451 4.29443 2.48782 0
M  V30 4712 H 429.707 5.68672 2.24548 0
M  V30 4713 H 433.881 6.65487 2.05182 0
M  V30 4714 H 431.508 7.35412 1.92544 0
M  V30 4715 N 433.083 -1.0153 1.20538 0
M  V30 4716 C 434.329 -1.75517 1.02787 0
M  V30 4717 C 434.684 -1.87411 -0.435289 0
M  V30 4718 O 433.977 -1.38982 -1.31889 0
M  V30 4719 C 434.171 -3.17213 1.64654 0
M  V30 4720 C 434 -3.19134 3.16834 0
M  V30 4721 C 432.77 -3.26301 3.85818 0
M  V30 4722 C 434.968 -3.05077 4.14044 0
M  V30 4723 N 432.95 -3.17739 5.25276 0
M  V30 4724 C 434.321 -3.04299 5.40187 0
M  V30 4725 C 436.376 -2.89303 4.05226 0
M  V30 4726 C 435.079 -2.89365 6.58529 0
M  V30 4727 C 437.105 -2.75723 5.23193 0
M  V30 4728 C 436.467 -2.75612 6.48242 0
M  V30 4729 H 432.566 -0.652919 0.430373 0
M  V30 4730 H 435.15 -1.20755 1.52729 0
M  V30 4731 H 433.321 -3.70266 1.17294 0
M  V30 4732 H 435.053 -3.79637 1.40208 0
M  V30 4733 H 431.808 -3.33078 3.36684 0
M  V30 4734 H 432.232 -3.16829 5.98288 0
M  V30 4735 H 436.874 -2.88201 3.09354 0
M  V30 4736 H 434.592 -2.89216 7.54573 0
M  V30 4737 H 438.178 -2.64533 5.18183 0
M  V30 4738 H 437.058 -2.65224 7.37988 0
M  V30 4739 N 434.561 -1.01147 -1.20859 0
M  V30 4740 C 435.491 -0.597663 -2.25722 0
M  V30 4741 C 436.472 0.384744 -1.65692 0
M  V30 4742 O 437.657 0.271303 -1.92296 0
M  V30 4743 C 434.787 0.0700149 -3.47229 0
M  V30 4744 C 433.741 -0.832843 -4.19819 0
M  V30 4745 C 433.067 -0.0312202 -5.34691 0
M  V30 4746 C 434.367 -2.1385 -4.76514 0
M  V30 4747 H 436.061 -1.47423 -2.60589 0
M  V30 4748 H 433.607 -0.710301 -1.25263 0
M  V30 4749 H 435.56 0.37103 -4.19763 0
M  V30 4750 H 434.284 0.981259 -3.11511 0
M  V30 4751 H 432.943 -1.11778 -3.49144 0
M  V30 4752 H 432.591 0.881515 -4.95215 0
M  V30 4753 H 432.291 -0.632434 -5.84187 0
M  V30 4754 H 433.815 0.26346 -6.10031 0
M  V30 4755 H 435.229 -1.9002 -5.40893 0
M  V30 4756 H 433.626 -2.69012 -5.36426 0
M  V30 4757 H 434.696 -2.80495 -3.95538 0
M  V30 4758 N 436.039 1.36541 -0.78704 0
M  V30 4759 C 436.969 2.32659 -0.197992 0
M  V30 4760 C 437.95 1.56533 0.665697 0
M  V30 4761 O 439.135 1.84698 0.60001 0
M  V30 4762 C 436.265 3.40778 0.669901 0
M  V30 4763 C 435.219 4.27897 -0.0937039 0
M  V30 4764 C 434.545 5.27163 0.894629 0
M  V30 4765 C 435.845 5.06334 -1.28154 0
M  V30 4766 H 437.539 2.82171 -1.00099 0
M  V30 4767 H 435.085 1.35665 -0.482793 0
M  V30 4768 H 437.038 4.07008 1.09191 0
M  V30 4769 H 435.762 2.89827 1.50558 0
M  V30 4770 H 434.421 3.6322 -0.49666 0
M  V30 4771 H 434.069 4.72486 1.72527 0
M  V30 4772 H 433.769 5.86317 0.388149 0
M  V30 4773 H 435.293 5.96266 1.31525 0
M  V30 4774 H 436.707 5.65617 -0.93541 0
M  V30 4775 H 435.104 5.74888 -1.72115 0
M  V30 4776 H 436.174 4.38114 -2.07807 0
M  V30 4777 N 437.518 0.538854 1.48102 0
M  V30 4778 C 438.448 -0.207654 2.32575 0
M  V30 4779 C 439.429 -0.926559 1.4265 0
M  V30 4780 O 440.614 -0.91061 1.71527 0
M  V30 4781 C 437.744 -1.24957 3.24042 0
M  V30 4782 C 436.698 -0.648263 4.23062 0
M  V30 4783 C 436.024 -1.79348 5.03725 0
M  V30 4784 C 437.324 0.385897 5.20872 0
M  V30 4785 H 439.018 0.497534 2.95237 0
M  V30 4786 H 436.564 0.240715 1.41974 0
M  V30 4787 H 438.517 -1.77983 3.81969 0
M  V30 4788 H 437.241 -1.98446 2.59397 0
M  V30 4789 H 435.9 -0.139452 3.66335 0
M  V30 4790 H 435.548 -2.51696 4.35498 0
M  V30 4791 H 435.248 -1.39702 5.70751 0
M  V30 4792 H 436.772 -2.32735 5.64506 0
M  V30 4793 H 438.186 -0.057607 5.73271 0
M  V30 4794 H 436.583 0.700227 5.96001 0
M  V30 4795 H 437.653 1.28848 4.67468 0
M  V30 4796 N 438.996 -1.55193 0.274407 0
M  V30 4797 C 440.243 -1.99581 -0.342579 0
M  V30 4798 C 440.571 -1.1628 -1.55914 0
M  V30 4799 O 439.826 -0.22029 -1.94456 0
M  V30 4800 C 440.125 -3.49019 -0.769458 0
M  V30 4801 C 439.791 -4.49598 0.342389 0
M  V30 4802 C 438.453 -4.76821 0.647686 0
M  V30 4803 C 440.805 -5.0964 1.09163 0
M  V30 4804 C 438.133 -5.61354 1.70581 0
M  V30 4805 C 440.485 -5.95323 2.13948 0
M  V30 4806 C 439.149 -6.20867 2.45113 0
M  V30 4807 H 438.419 -0.730319 -0.125358 0
M  V30 4808 H 441.066 -1.87529 0.387971 0
M  V30 4809 H 439.371 -3.58544 -1.57967 0
M  V30 4810 H 441.068 -3.8077 -1.25757 0
M  V30 4811 H 437.658 -4.28496 0.094318 0
M  V30 4812 H 441.842 -4.88632 0.869024 0
M  V30 4813 H 437.098 -5.79392 1.9523 0
M  V30 4814 H 441.272 -6.40881 2.72478 0
M  V30 4815 H 438.899 -6.86162 3.27239 0
M  V30 4816 N 440.474 -0.00167713 -1.576 0
M  V30 4817 C 441.404 0.988091 -2.11563 0
M  V30 4818 C 442.385 1.35736 -1.02517 0
M  V30 4819 O 443.57 1.44082 -1.30208 0
M  V30 4820 C 440.7 2.27941 -2.62031 0
M  V30 4821 C 439.654 2.0517 -3.75619 0
M  V30 4822 C 438.98 3.4033 -4.12407 0
M  V30 4823 C 440.28 1.41294 -5.02825 0
M  V30 4824 H 441.974 0.538771 -2.94513 0
M  V30 4825 H 439.52 0.257712 -1.41675 0
M  V30 4826 H 441.473 2.97539 -2.9841 0
M  V30 4827 H 440.197 2.74989 -1.76205 0
M  V30 4828 H 438.856 1.37998 -3.39635 0
M  V30 4829 H 438.504 3.85085 -3.23603 0
M  V30 4830 H 438.204 3.25909 -4.88935 0
M  V30 4831 H 439.728 4.1124 -4.51347 0
M  V30 4832 H 441.142 2.00851 -5.36965 0
M  V30 4833 H 439.539 1.37356 -5.84169 0
M  V30 4834 H 440.609 0.382362 -4.8339 0
M  V30 4835 N 441.952 1.55251 0.271103 0
M  V30 4836 C 442.882 1.9127 1.33933 0
M  V30 4837 C 443.863 0.77478 1.5143 0
M  V30 4838 O 445.048 1.03307 1.64442 0
M  V30 4839 C 442.178 2.18627 2.69851 0
M  V30 4840 C 441.132 3.34442 2.67081 0
M  V30 4841 C 440.458 3.47284 4.06569 0
M  V30 4842 C 441.758 4.70784 2.26185 0
M  V30 4843 H 443.452 2.80744 1.04035 0
M  V30 4844 H 440.998 1.35077 0.499017 0
M  V30 4845 H 442.951 2.42413 3.44694 0
M  V30 4846 H 441.675 1.25955 3.01335 0
M  V30 4847 H 440.334 3.10627 1.94695 0
M  V30 4848 H 439.982 2.52074 4.35279 0
M  V30 4849 H 439.682 4.25152 4.0561 0
M  V30 4850 H 441.206 3.73363 4.83148 0
M  V30 4851 H 442.62 4.94102 2.90751 0
M  V30 4852 H 441.017 5.51582 2.36384 0
M  V30 4853 H 442.087 4.69478 1.21319 0
M  V30 4854 N 443.43 -0.535701 1.48216 0
M  V30 4855 C 444.377 -1.64083 1.62312 0
M  V30 4856 C 445.347 -1.59448 0.465365 0
M  V30 4857 O 446.532 -1.77959 0.688135 0
M  V30 4858 C 443.672 -3.0236 1.66349 0
M  V30 4859 C 442.785 -3.17273 2.93193 0
M  V30 4860 C 441.92 -4.46075 2.88427 0
M  V30 4861 C 440.959 -4.54496 4.1 0
M  V30 4862 N 440.096 -5.7468 4.03345 0
M  V30 4863 H 444.936 -1.51374 2.5669 0
M  V30 4864 H 442.473 -0.737059 1.27302 0
M  V30 4865 H 444.431 -3.82461 1.66672 0
M  V30 4866 H 443.061 -3.13854 0.754672 0
M  V30 4867 H 442.113 -2.30462 3.02641 0
M  V30 4868 H 443.425 -3.19357 3.83162 0
M  V30 4869 H 442.579 -5.3446 2.87119 0
M  V30 4870 H 441.318 -4.46504 1.96177 0
M  V30 4871 H 440.323 -3.64519 4.11589 0
M  V30 4872 H 441.548 -4.5581 5.03402 0
M  V30 4873 H 439.494 -5.76017 3.13912 0
M  V30 4874 H 439.411 -5.78234 4.87013 0
M  V30 4875 H 440.679 -6.65367 4.06087 0
M  V30 4876 N 444.908 -1.36708 -0.784132 0
M  V30 4877 C 445.856 -1.31533 -1.91838 0
M  V30 4878 C 446.85 -0.206205 -1.6814 0
M  V30 4879 O 448.056 -0.373519 -1.76082 0
M  V30 4880 H 444.431 -0.409613 -0.630651 0
M  V30 4881 H 446.402 -2.2731 -1.9332 0
M  V30 4882 C 445.151 -1.12679 -3.28936 0
M  V30 4883 H 444.474 -1.97274 -3.4774 0
M  V30 4884 H 445.914 -1.13106 -4.08636 0
M  V30 4885 C 444.373 0.168281 -3.36479 0
M  V30 4886 O 444.903 1.15625 -3.84699 0
M  V30 4887 N 443.109 0.214762 -2.89805 0
M  V30 4888 H 442.656 -0.589852 -2.50756 0
M  V30 4889 H 442.614 1.08094 -2.95234 0
M  V30 4890 N 446.386 1.0089 -1.21074 0
M  V30 4891 C 447.797 1.56056 -1.02486 0
M  V30 4892 C 448.148 1.91728 0.416506 0
M  V30 4893 O 447.273 1.73066 1.29912 0
M  V30 4894 C 447.868 2.83563 -1.85411 0
M  V30 4895 C 446.427 3.3523 -1.71166 0
M  V30 4896 C 445.574 2.0846 -1.82865 0
M  V30 4897 H 448.525 0.831818 -1.35154 0
M  V30 4898 H 448.546 3.55286 -1.36205 0
M  V30 4899 H 448.058 2.57569 -2.9031 0
M  V30 4900 H 446.159 3.66167 -0.689361 0
M  V30 4901 H 446.272 4.06913 -2.52901 0
M  V30 4902 H 444.636 2.21275 -1.26132 0
M  V30 4903 H 445.419 1.84883 -2.89263 0
M  V30 4904 N 447.864 1.01787 1.20321 0
M  V30 4905 C 448.774 0.598898 2.26827 0
M  V30 4906 C 449.79 -0.36418 1.70146 0
M  V30 4907 O 450.966 -0.224812 2.00141 0
M  V30 4908 C 448.031 -0.0549769 3.46656 0
M  V30 4909 C 447.092 0.954205 4.18561 0
M  V30 4910 C 446.325 0.331439 5.3267 0
M  V30 4911 O 446.548 -0.86851 5.63749 0
M  V30 4912 O 445.482 1.0488 5.92692 0
M  V30 4913 H 449.308 1.48562 2.64883 0
M  V30 4914 H 446.893 0.787434 1.26964 0
M  V30 4915 H 448.775 -0.420102 4.19301 0
M  V30 4916 H 447.45 -0.915876 3.10473 0
M  V30 4917 H 446.357 1.37072 3.48083 0
M  V30 4918 H 447.69 1.78511 4.58688 0
M  V30 4919 N 449.342 -1.36122 0.79427 0
M  V30 4920 C 450.305 -2.28309 0.201889 0
M  V30 4921 C 451.305 -1.49041 -0.603603 0
M  V30 4922 O 452.495 -1.68964 -0.423888 0
M  V30 4923 C 449.627 -3.3321 -0.719978 0
M  V30 4924 H 450.82 -2.82208 1.01481 0
M  V30 4925 H 448.373 -1.45768 0.564037 0
M  V30 4926 H 449.108 -2.84475 -1.55706 0
M  V30 4927 H 448.893 -3.91835 -0.144266 0
M  V30 4928 H 450.383 -4.02044 -1.12916 0
M  V30 4929 N 450.82 -0.546701 -1.47814 0
M  V30 4930 C 451.75 0.195317 -2.32682 0
M  V30 4931 C 452.731 0.918981 -1.43139 0
M  V30 4932 O 453.916 0.901501 -1.72008 0
M  V30 4933 C 451.046 1.23237 -3.247 0
M  V30 4934 C 450 0.625818 -4.234 0
M  V30 4935 C 449.326 1.76674 -5.04669 0
M  V30 4936 C 450.626 -0.413515 -5.2066 0
M  V30 4937 H 452.32 -0.513184 -2.94969 0
M  V30 4938 H 449.866 -0.248241 -1.41844 0
M  V30 4939 H 451.819 1.75955 -3.82907 0
M  V30 4940 H 450.543 1.97067 -2.60446 0
M  V30 4941 H 449.202 0.120023 -3.66403 0
M  V30 4942 H 448.85 2.49383 -4.36826 0
M  V30 4943 H 448.55 1.36673 -5.71484 0
M  V30 4944 H 450.074 2.29738 -5.65732 0
M  V30 4945 H 451.488 0.0272042 -5.73294 0
M  V30 4946 H 449.885 -0.731825 -5.95621 0
M  V30 4947 H 450.955 -1.31325 -4.66778 0
M  V30 4948 N 452.299 1.55045 -0.282633 0
M  V30 4949 C 453.262 2.21515 0.588539 0
M  V30 4950 C 454.262 1.19535 1.07554 0
M  V30 4951 O 455.452 1.44391 0.974514 0
M  V30 4952 C 452.584 2.88704 1.8128 0
M  V30 4953 H 453.777 2.99899 0.00806397 0
M  V30 4954 H 451.33 1.56265 -0.0333067 0
M  V30 4955 H 452.065 2.14352 2.43359 0
M  V30 4956 H 451.85 3.63443 1.47144 0
M  V30 4957 H 453.34 3.39465 2.43214 0
M  V30 4958 N 453.777 0.010035 1.57597 0
M  V30 4959 C 454.74 -0.963029 2.07986 0
M  V30 4960 C 455.74 -1.26619 0.991173 0
M  V30 4961 O 456.93 -1.2097 1.25347 0
M  V30 4962 C 454.062 -2.2851 2.52974 0
M  V30 4963 H 455.255 -0.526971 2.95234 0
M  V30 4964 H 452.808 -0.237639 1.54483 0
M  V30 4965 H 453.543 -2.76784 1.69 0
M  V30 4966 H 453.328 -2.07824 3.32493 0
M  V30 4967 H 454.818 -2.98294 2.9225 0
M  V30 4968 N 455.255 -1.55392 -0.262866 0
M  V30 4969 C 456.501 -1.76737 -0.99458 0
M  V30 4970 C 456.834 -0.572453 -1.85571 0
M  V30 4971 O 456.109 0.429732 -1.89693 0
M  V30 4972 C 456.392 -3.07824 -1.8686 0
M  V30 4973 C 456.245 -4.3769 -1.03672 0
M  V30 4974 C 457.564 -3.35021 -2.85393 0
M  V30 4975 H 454.683 -0.643005 -0.360157 0
M  V30 4976 H 457.325 -1.88126 -0.266216 0
M  V30 4977 H 455.475 -2.98245 -2.48962 0
M  V30 4978 H 457.147 -4.59238 -0.43563 0
M  V30 4979 H 455.39 -4.32461 -0.340513 0
M  V30 4980 H 456.061 -5.25759 -1.6817 0
M  V30 4981 H 458.537 -3.44458 -2.33426 0
M  V30 4982 H 457.413 -4.27989 -3.43681 0
M  V30 4983 H 457.674 -2.55153 -3.61039 0
M  V30 4984 N 456.733 0.527833 -1.48498 0
M  V30 4985 C 458.149 0.856571 -1.34666 0
M  V30 4986 C 458.349 1.98271 -0.35931 0
M  V30 4987 O 457.405 2.51551 0.218703 0
M  V30 4988 C 458.718 1.22207 -2.74747 0
M  V30 4989 C 460.266 1.33183 -2.83251 0
M  V30 4990 C 460.741 1.73075 -4.24039 0
M  V30 4991 N 462.232 1.80174 -4.26722 0
M  V30 4992 C 462.967 2.1243 -5.32598 0
M  V30 4993 N 462.463 2.43096 -6.4875 0
M  V30 4994 N 464.256 2.13454 -5.19994 0
M  V30 4995 H 456.407 -0.215174 -2.11307 0
M  V30 4996 H 458.67 -0.0336281 -0.947403 0
M  V30 4997 H 458.376 0.468195 -3.4857 0
M  V30 4998 H 458.25 2.17173 -3.08409 0
M  V30 4999 H 460.637 2.07647 -2.09683 0
M  V30 5000 H 460.718 0.363333 -2.53206 0
M  V30 5001 H 460.362 0.991712 -4.98124 0
M  V30 5002 H 460.292 2.70979 -4.51529 0
M  V30 5003 H 462.783 1.58744 -3.42942 0
M  V30 5004 H 463.096 2.6682 -7.25277 0
M  V30 5005 H 461.441 2.40611 -6.52021 0
M  V30 5006 H 464.632 1.88956 -4.28268 0
M  V30 5007 H 464.805 2.38261 -6.02608 0
M  V30 5008 N 458.211 1.37122 0.776871 0
M  V30 5009 C 459.459 1.31787 1.53221 0
M  V30 5010 C 459.78 -0.0987589 1.9475 0
M  V30 5011 O 459.05 -1.0417 1.65908 0
M  V30 5012 H 457.63 0.484839 0.568278 0
M  V30 5013 H 460.292 1.71556 0.924917 0
M  V30 5014 H 459.388 1.95355 2.43398 0
M  V30 5015 N 459.689 -1.00246 1.21608 0
M  V30 5016 C 460.599 -2.12515 0.993709 0
M  V30 5017 C 461.615 -1.73913 -0.0549939 0
M  V30 5018 O 462.791 -2.00943 0.135619 0
M  V30 5019 C 459.856 -3.42083 0.563953 0
M  V30 5020 C 458.917 -3.94843 1.68516 0
M  V30 5021 C 458.15 -5.18226 1.27582 0
M  V30 5022 O 458.373 -5.70201 0.150506 0
M  V30 5023 O 457.307 -5.64497 2.0887 0
M  V30 5024 H 461.133 -2.34152 1.93407 0
M  V30 5025 H 458.718 -1.10891 1.00118 0
M  V30 5026 H 460.6 -4.20073 0.334194 0
M  V30 5027 H 459.275 -3.21828 -0.347665 0
M  V30 5028 H 458.182 -3.18068 1.96935 0
M  V30 5029 H 459.515 -4.19512 2.5743 0
M  V30 5030 N 461.167 -1.02423 -1.1978 0
M  V30 5031 C 462.097 -0.62157 -2.25075 0
M  V30 5032 C 463.078 0.367148 -1.6609 0
M  V30 5033 O 464.263 0.250892 -1.92573 0
M  V30 5034 C 461.393 0.0331826 -3.47284 0
M  V30 5035 C 460.347 -0.877323 -4.18912 0
M  V30 5036 C 459.673 -0.0879296 -5.34628 0
M  V30 5037 C 460.973 -2.18892 -4.74219 0
M  V30 5038 H 462.667 -1.50179 -2.59011 0
M  V30 5039 H 460.213 -0.723547 -1.24502 0
M  V30 5040 H 462.166 0.326488 -4.20133 0
M  V30 5041 H 460.89 0.948164 -3.12534 0
M  V30 5042 H 459.549 -1.15475 -3.47938 0
M  V30 5043 H 459.197 0.828941 -4.96123 0
M  V30 5044 H 458.897 -0.694359 -5.83483 0
M  V30 5045 H 460.421 0.198743 -6.10276 0
M  V30 5046 H 461.835 -1.95746 -5.38847 0
M  V30 5047 H 460.232 -2.74686 -5.33542 0
M  V30 5048 H 461.302 -2.84674 -3.92541 0
M  V30 5049 N 462.645 1.35699 -0.801477 0
M  V30 5050 C 463.555 2.33661 -0.209691 0
M  V30 5051 C 464.571 1.6162 0.644591 0
M  V30 5052 O 465.747 1.93529 0.557545 0
M  V30 5053 C 462.812 3.40816 0.636033 0
M  V30 5054 C 461.873 4.28639 -0.238147 0
M  V30 5055 C 461.106 5.30676 0.567307 0
M  V30 5056 O 461.329 5.41174 1.8024 0
M  V30 5057 O 460.263 6.01887 -0.0391336 0
M  V30 5058 H 464.089 2.8606 -1.01996 0
M  V30 5059 H 461.674 1.38379 -0.563164 0
M  V30 5060 H 463.556 4.06301 1.11791 0
M  V30 5061 H 462.231 2.90696 1.42399 0
M  V30 5062 H 461.138 3.66152 -0.767044 0
M  V30 5063 H 462.471 4.82143 -0.989915 0
M  V30 5064 N 464.123 0.554532 1.47522 0
M  V30 5065 C 465.348 0.0322661 2.07375 0
M  V30 5066 C 465.773 -1.25079 1.40488 0
M  V30 5067 O 465.131 -1.74859 0.47896 0
M  V30 5068 C 465.179 -0.149397 3.6029 0
M  V30 5069 O 464.283 -1.21259 3.9417 0
M  V30 5070 H 463.624 0.0501228 0.662106 0
M  V30 5071 H 466.154 0.769452 1.8958 0
M  V30 5072 H 466.164 -0.364437 4.06369 0
M  V30 5073 H 464.839 0.787743 4.08372 0
M  V30 5074 H 463.416 -0.97825 3.5984 0
M  V30 5075 N 465.601 -1.54893 0.290851 0
M  V30 5076 C 466.85 -1.99111 -0.322113 0
M  V30 5077 C 467.163 -1.18283 -1.55784 0
M  V30 5078 O 468.369 -1.5272 -2.24475 0
M  V30 5079 C 466.825 -3.54442 -0.624438 0
M  V30 5080 C 466.433 -4.44066 0.592373 0
M  V30 5081 C 468.177 -4.07211 -1.19916 0
M  V30 5082 C 466.084 -5.90812 0.263762 0
M  V30 5083 H 465.014 -0.743712 -0.124133 0
M  V30 5084 H 467.665 -1.79132 0.39797 0
M  V30 5085 H 466.047 -3.70281 -1.40384 0
M  V30 5086 H 467.221 -4.39999 1.36886 0
M  V30 5087 H 465.536 -4.02015 1.08502 0
M  V30 5088 H 468.133 -5.14407 -1.45909 0
M  V30 5089 H 468.476 -3.57196 -2.13815 0
M  V30 5090 H 469.009 -3.94873 -0.481687 0
M  V30 5091 H 465.748 -6.44955 1.17105 0
M  V30 5092 H 465.268 -5.97911 -0.475655 0
M  V30 5093 H 466.947 -6.46852 -0.138354 0
M  V30 5094 N 467.08 -0.0183926 -1.57589 0
M  V30 5095 C 468.01 0.965596 -2.12599 0
M  V30 5096 C 468.991 1.34641 -1.0395 0
M  V30 5097 O 470.176 1.42693 -1.31729 0
M  V30 5098 C 467.306 2.25149 -2.64434 0
M  V30 5099 C 466.26 2.01175 -3.77773 0
M  V30 5100 C 465.586 3.35937 -4.15994 0
M  V30 5101 C 466.886 1.35953 -5.04296 0
M  V30 5102 H 468.58 0.507504 -2.95067 0
M  V30 5103 H 466.126 0.242671 -1.41941 0
M  V30 5104 H 468.079 2.94357 -3.01549 0
M  V30 5105 H 466.803 2.73105 -1.79112 0
M  V30 5106 H 465.462 1.34388 -3.4108 0
M  V30 5107 H 465.11 3.81631 -3.27669 0
M  V30 5108 H 464.81 3.20705 -4.92364 0
M  V30 5109 H 466.334 4.0643 -4.55683 0
M  V30 5110 H 467.748 1.95144 -5.39065 0
M  V30 5111 H 466.145 1.31152 -5.85593 0
M  V30 5112 H 467.215 0.331071 -4.83768 0
M  V30 5113 N 468.558 1.5553 0.254621 0
M  V30 5114 C 469.804 1.7818 0.980989 0
M  V30 5115 C 470.159 0.586059 1.83257 0
M  V30 5116 O 469.452 -0.420889 1.8692 0
M  V30 5117 C 469.646 3.03891 1.88109 0
M  V30 5118 C 469.475 4.35578 1.11812 0
M  V30 5119 C 468.245 4.98497 0.826343 0
M  V30 5120 C 470.443 5.11869 0.499486 0
M  V30 5121 N 468.425 6.13888 0.0385095 0
M  V30 5122 C 469.796 6.1981 -0.153292 0
M  V30 5123 C 471.851 4.96216 0.409175 0
M  V30 5124 C 470.554 7.13801 -0.8877 0
M  V30 5125 C 472.58 5.90578 -0.311683 0
M  V30 5126 C 471.942 6.97922 -0.953129 0
M  V30 5127 H 468.041 0.704057 0.340335 0
M  V30 5128 H 470.625 1.93025 0.254855 0
M  V30 5129 H 468.796 2.90389 2.57932 0
M  V30 5130 H 470.528 3.14869 2.54244 0
M  V30 5131 H 467.283 4.59769 1.13621 0
M  V30 5132 H 467.707 6.76129 -0.343275 0
M  V30 5133 H 472.349 4.1331 0.890765 0
M  V30 5134 H 470.067 7.96214 -1.38092 0
M  V30 5135 H 473.653 5.80544 -0.382125 0
M  V30 5136 H 472.533 7.69681 -1.50203 0
M  V30 5137 N 470.036 -0.519951 1.48776 0
M  V30 5138 C 470.968 -1.63973 1.60142 0
M  V30 5139 C 471.981 -1.55404 0.485117 0
M  V30 5140 O 473.17 -1.61682 0.756391 0
M  V30 5141 C 470.27 -3.02676 1.52449 0
M  V30 5142 C 469.443 -3.36624 2.79291 0
M  V30 5143 C 468.502 -4.54652 2.64912 0
M  V30 5144 O 467.528 -4.57374 3.38818 0
M  V30 5145 N 468.73 -5.53432 1.75195 0
M  V30 5146 H 471.495 -1.54656 2.56713 0
M  V30 5147 H 469.056 -0.707439 1.45626 0
M  V30 5148 H 471.048 -3.79525 1.4051 0
M  V30 5149 H 469.618 -3.06018 0.638125 0
M  V30 5150 H 468.838 -2.48855 3.0572 0
M  V30 5151 H 470.126 -3.56094 3.6342 0
M  V30 5152 H 469.524 -5.54018 1.14371 0
M  V30 5153 H 468.081 -6.29459 1.69189 0
M  V30 5154 N 471.514 -1.37532 -0.769588 0
M  V30 5155 C 472.477 -1.33292 -1.86456 0
M  V30 5156 C 473.477 -0.236537 -1.59051 0
M  V30 5157 O 474.667 -0.492511 -1.67093 0
M  V30 5158 C 471.799 -1.07118 -3.23633 0
M  V30 5159 H 472.992 -2.30692 -1.91628 0
M  V30 5160 H 470.545 -1.22593 -0.969572 0
M  V30 5161 H 471.28 -0.102578 -3.24138 0
M  V30 5162 H 471.065 -1.86479 -3.44917 0
M  V30 5163 H 472.555 -1.06806 -4.03711 0
M  V30 5164 N 472.992 0.995999 -1.22138 0
M  V30 5165 C 473.902 2.11985 -1.00496 0
M  V30 5166 C 474.918 1.7394 0.0457701 0
M  V30 5167 O 476.094 2.00868 -0.146273 0
M  V30 5168 C 473.159 3.41779 -0.582086 0
M  V30 5169 C 472.22 3.93943 -1.70608 0
M  V30 5170 C 471.453 5.17542 -1.30328 0
M  V30 5171 O 471.676 5.70114 -0.180743 0
M  V30 5172 O 470.61 5.63382 -2.11861 0
M  V30 5173 H 474.436 2.33123 -1.94647 0
M  V30 5174 H 472.021 1.10358 -1.00705 0
M  V30 5175 H 473.903 4.1989 -0.356467 0
M  V30 5176 H 472.578 3.22007 0.330592 0
M  V30 5177 H 471.485 3.17019 -1.98619 0
M  V30 5178 H 472.818 4.18141 -2.59651 0
M  V30 5179 N 474.47 1.03057 1.19235 0
M  V30 5180 C 475.402 0.570932 2.21975 0
M  V30 5181 C 476.415 -0.354088 1.58903 0
M  V30 5182 O 477.604 -0.150211 1.77867 0
M  V30 5183 C 474.704 -0.187152 3.38383 0
M  V30 5184 C 473.877 0.743231 4.31039 0
M  V30 5185 C 472.936 0.0302493 5.26191 0
M  V30 5186 O 471.962 0.657371 5.65391 0
M  V30 5187 N 473.164 -1.23991 5.67104 0
M  V30 5188 H 475.929 1.45456 2.62036 0
M  V30 5189 H 473.49 0.909807 1.33918 0
M  V30 5190 H 475.482 -0.673715 3.99053 0
M  V30 5191 H 474.052 -0.972205 2.97098 0
M  V30 5192 H 473.272 1.40985 3.68126 0
M  V30 5193 H 474.56 1.3755 4.89854 0
M  V30 5194 H 473.958 -1.77011 5.37293 0
M  V30 5195 H 472.515 -1.67093 6.30018 0
M  V30 5196 N 475.948 -1.35272 0.808662 0
M  V30 5197 C 477.359 -1.81179 0.450688 0
M  V30 5198 C 477.71 -1.67143 -1.02751 0
M  V30 5199 O 476.835 -1.20325 -1.79864 0
M  V30 5200 C 477.43 -3.28943 0.811275 0
M  V30 5201 C 475.989 -3.72985 0.505871 0
M  V30 5202 C 475.136 -2.57229 1.03578 0
M  V30 5203 H 478.087 -1.2322 1.00012 0
M  V30 5204 H 478.108 -3.80342 0.109588 0
M  V30 5205 H 477.62 -3.39127 1.88718 0
M  V30 5206 H 475.721 -3.68349 -0.561209 0
M  V30 5207 H 475.834 -4.67677 1.03995 0
M  V30 5208 H 474.198 -2.50548 0.458005 0
M  V30 5209 H 474.981 -2.7019 2.11784 0
M  V30 5210 N 477.426 -0.562348 -1.47226 0
M  V30 5211 C 478.672 -0.0402761 -2.0276 0
M  V30 5212 C 479.005 1.30823 -1.43523 0
M  V30 5213 O 478.28 1.85249 -0.592705 0
M  V30 5214 C 478.563 0.047311 -3.60069 0
M  V30 5215 C 478.416 -1.32865 -4.29729 0
M  V30 5216 C 479.735 0.758182 -4.3352 0
M  V30 5217 H 476.854 -0.0161105 -0.736824 0
M  V30 5218 H 479.496 -0.725628 -1.75598 0
M  V30 5219 H 477.646 0.630986 -3.83342 0
M  V30 5220 H 479.318 -1.95593 -4.17781 0
M  V30 5221 H 477.561 -1.90195 -3.89882 0
M  V30 5222 H 478.232 -1.22004 -5.38349 0
M  V30 5223 H 480.708 0.262546 -4.15271 0
M  V30 5224 H 479.584 0.78844 -5.43208 0
M  V30 5225 H 479.845 1.81537 -4.03109 0
M  V30 5226 N 478.904 1.54736 -0.299062 0
M  V30 5227 C 480.129 2.04975 0.316254 0
M  V30 5228 C 480.554 1.17501 1.46885 0
M  V30 5229 O 479.912 0.178678 1.80417 0
M  V30 5230 C 479.96 3.52672 0.751997 0
M  V30 5231 O 479.064 3.68226 1.85697 0
M  V30 5232 H 478.405 0.661126 0.0617175 0
M  V30 5233 H 480.935 1.99805 -0.440341 0
M  V30 5234 H 480.945 3.94488 1.04133 0
M  V30 5235 H 479.62 4.158 -0.0911482 0
M  V30 5236 H 478.197 3.38316 1.56834 0
M  V30 5237 N 480.382 0.0267497 1.57577 0
M  V30 5238 C 481.314 -0.984594 2.06974 0
M  V30 5239 C 482.327 -1.29032 0.992705 0
M  V30 5240 O 483.516 -1.25539 1.26895 0
M  V30 5241 C 480.616 -2.31262 2.47732 0
M  V30 5242 C 479.789 -2.1924 3.78487 0
M  V30 5243 C 478.848 -3.34956 4.05821 0
M  V30 5244 O 477.874 -3.11948 4.76106 0
M  V30 5245 N 479.076 -4.58672 3.55809 0
M  V30 5246 H 481.841 -0.563143 2.94362 0
M  V30 5247 H 479.402 -0.160061 1.61107 0
M  V30 5248 H 481.394 -3.07496 2.63112 0
M  V30 5249 H 479.964 -2.65056 1.65723 0
M  V30 5250 H 479.184 -1.27747 3.72927 0
M  V30 5251 H 480.472 -2.08409 4.64158 0
M  V30 5252 H 479.87 -4.8026 2.98942 0
M  V30 5253 H 478.427 -5.32083 3.76472 0
M  V30 5254 N 481.861 -1.55662 -0.24637 0
M  V30 5255 C 483.089 -1.81575 -0.991876 0
M  V30 5256 C 483.504 -0.602545 -1.78927 0
M  V30 5257 O 482.861 0.428795 -1.77391 0
M  V30 5258 C 482.912 -3.05711 -1.92933 0
M  V30 5259 O 482.633 -4.22348 -1.1642 0
M  V30 5260 C 484.134 -3.44428 -2.79078 0
M  V30 5261 H 481.354 -0.604209 -0.291844 0
M  V30 5262 H 483.898 -2.02722 -0.269095 0
M  V30 5263 H 482.053 -2.86612 -2.60638 0
M  V30 5264 H 482.467 -4.92706 -1.79835 0
M  V30 5265 H 483.941 -4.34388 -3.40603 0
M  V30 5266 H 484.418 -2.65037 -3.50217 0
M  V30 5267 H 485.024 -3.65879 -2.16824 0
M  V30 5268 N 483.339 0.512053 -1.4905 0
M  V30 5269 C 484.567 1.29116 -1.61669 0
M  V30 5270 C 484.982 1.86655 -0.283787 0
M  V30 5271 O 484.339 1.67293 0.729331 0
M  V30 5272 C 484.39 2.4293 -2.67707 0
M  V30 5273 O 484.111 1.87758 -3.95826 0
M  V30 5274 C 485.612 3.34476 -2.90931 0
M  V30 5275 H 482.832 0.392009 -0.544583 0
M  V30 5276 H 485.376 0.615881 -1.95006 0
M  V30 5277 H 483.531 3.06308 -2.37179 0
M  V30 5278 H 483.945 2.62393 -4.54148 0
M  V30 5279 H 485.419 4.10642 -3.68886 0
M  V30 5280 H 485.896 3.90801 -2.00427 0
M  V30 5281 H 486.502 2.76874 -3.22832 0
M  V30 5282 N 484.817 1.37938 0.762283 0
M  V30 5283 C 486.045 1.36883 1.55147 0
M  V30 5284 C 486.46 -0.0435348 1.8875 0
M  V30 5285 O 485.817 -1.00786 1.52146 0
M  V30 5286 C 485.868 2.21624 2.85596 0
M  V30 5287 O 485.589 3.57358 2.5343 0
M  V30 5288 C 487.09 2.28653 3.7978 0
M  V30 5289 H 484.31 0.468521 0.480343 0
M  V30 5290 H 486.854 1.81404 0.944079 0
M  V30 5291 H 485.009 1.80588 3.42734 0
M  V30 5292 H 485.423 4.01883 3.37032 0
M  V30 5293 H 486.897 2.9225 4.68288 0
M  V30 5294 H 487.374 1.29767 4.19592 0
M  V30 5295 H 487.98 2.70043 3.28568 0
M  V30 5296 N 486.295 -0.989507 1.22664 0
M  V30 5297 C 487.225 -2.09847 1.02404 0
M  V30 5298 C 488.206 -1.70007 -0.0561303 0
M  V30 5299 O 489.391 -1.93906 0.106748 0
M  V30 5300 C 486.521 -3.41996 0.604663 0
M  V30 5301 C 485.475 -3.95699 1.63115 0
M  V30 5302 C 484.801 -5.23936 1.0675 0
M  V30 5303 C 486.101 -4.25999 3.02196 0
M  V30 5304 H 487.795 -2.27054 1.95158 0
M  V30 5305 H 485.341 -1.09111 0.939727 0
M  V30 5306 H 487.294 -4.1899 0.45002 0
M  V30 5307 H 486.018 -3.24626 -0.35855 0
M  V30 5308 H 484.677 -3.2084 1.77362 0
M  V30 5309 H 484.325 -5.02909 0.0955422 0
M  V30 5310 H 484.025 -5.60833 1.75328 0
M  V30 5311 H 485.549 -6.0356 0.924516 0
M  V30 5312 H 486.963 -4.93777 2.91303 0
M  V30 5313 H 485.36 -4.74076 3.67929 0
M  V30 5314 H 486.43 -3.33636 3.51873 0
M  V30 5315 N 487.773 -1.03688 -1.18687 0
M  V30 5316 C 489.184 -0.766488 -1.70241 0
M  V30 5317 C 489.535 0.713052 -1.82784 0
M  V30 5318 O 488.66 1.55529 -1.50465 0
M  V30 5319 C 489.255 -1.38475 -3.09209 0
M  V30 5320 C 487.814 -1.16276 -3.5799 0
M  V30 5321 C 486.961 -1.4778 -2.34641 0
M  V30 5322 H 489.912 -1.20378 -1.03415 0
M  V30 5323 H 489.933 -0.785939 -3.72295 0
M  V30 5324 H 489.445 -2.46157 -3.00048 0
M  V30 5325 H 487.546 -0.104508 -3.72453 0
M  V30 5326 H 487.659 -1.8571 -4.41643 0
M  V30 5327 H 486.023 -0.897366 -2.38368 0
M  V30 5328 H 486.806 -2.56562 -2.28102 0
M  V30 5329 N 489.251 1.34841 -0.815825 0
M  V30 5330 C 490.183 2.28409 -0.190265 0
M  V30 5331 C 491.196 1.50705 0.615771 0
M  V30 5332 O 492.385 1.72822 0.446616 0
M  V30 5333 C 489.485 3.30441 0.752446 0
M  V30 5334 C 488.658 4.37399 -0.00922152 0
M  V30 5335 C 487.717 5.19234 0.853351 0
M  V30 5336 O 486.743 5.68404 0.300919 0
M  V30 5337 N 487.945 5.38248 2.17416 0
M  V30 5338 H 490.71 2.82732 -0.994114 0
M  V30 5339 H 488.271 1.47289 -0.672129 0
M  V30 5340 H 490.263 3.82084 1.33394 0
M  V30 5341 H 488.833 2.76565 1.45707 0
M  V30 5342 H 488.053 3.86567 -0.771979 0
M  V30 5343 H 489.341 5.05992 -0.533807 0
M  V30 5344 H 488.739 4.99961 2.6468 0
M  V30 5345 H 487.296 5.93035 2.70467 0
M  V30 5346 N 490.729 0.570148 1.46925 0
M  V30 5347 C 491.676 -0.170257 2.30171 0
M  V30 5348 C 492.646 -0.896099 1.39855 0
M  V30 5349 O 493.831 -0.889248 1.68811 0
M  V30 5350 C 490.971 -1.18605 3.24079 0
M  V30 5351 C 490.084 -0.464947 4.29491 0
M  V30 5352 C 489.219 -1.46716 5.10537 0
M  V30 5353 C 488.258 -0.731758 6.0771 0
M  V30 5354 N 487.395 -1.68142 6.81669 0
M  V30 5355 H 492.235 0.545713 2.92961 0
M  V30 5356 H 489.772 0.280938 1.44392 0
M  V30 5357 H 491.73 -1.78771 3.76957 0
M  V30 5358 H 490.36 -1.86989 2.63125 0
M  V30 5359 H 489.412 0.251506 3.79568 0
M  V30 5360 H 490.724 0.110548 4.98677 0
M  V30 5361 H 489.878 -2.14199 5.6763 0
M  V30 5362 H 488.617 -2.07658 4.41282 0
M  V30 5363 H 487.622 -0.0430787 5.49783 0
M  V30 5364 H 488.847 -0.127904 6.7898 0
M  V30 5365 H 486.793 -2.27918 6.15134 0
M  V30 5366 H 486.71 -1.15841 7.47072 0
M  V30 5367 H 487.978 -2.347 7.43328 0
M  V30 5368 N 492.207 -1.54576 0.307264 0
M  V30 5369 C 493.453 -2.0056 -0.300612 0
M  V30 5370 C 493.786 -1.1953 -1.53057 0
M  V30 5371 O 493.061 -0.27337 -1.92569 0
M  V30 5372 C 493.344 -3.54167 -0.650987 0
M  V30 5373 C 493.197 -4.45933 0.588539 0
M  V30 5374 C 494.516 -4.14645 -1.47506 0
M  V30 5375 H 491.635 -0.729075 -0.107788 0
M  V30 5376 H 494.277 -1.85286 0.420606 0
M  V30 5377 H 492.427 -3.67313 -1.26544 0
M  V30 5378 H 494.099 -4.44683 1.22697 0
M  V30 5379 H 492.342 -4.16274 1.22058 0
M  V30 5380 H 493.013 -5.51189 0.299153 0
M  V30 5381 H 495.489 -4.04973 -0.955821 0
M  V30 5382 H 494.365 -5.22269 -1.68899 0
M  V30 5383 H 494.626 -3.66921 -2.4662 0
M  V30 5384 N 493.685 -0.035106 -1.57561 0
M  V30 5385 C 494.615 0.942993 -2.13612 0
M  V30 5386 C 495.596 1.33531 -1.05373 0
M  V30 5387 O 496.781 1.41287 -1.33235 0
M  V30 5388 C 493.911 2.22332 -2.66807 0
M  V30 5389 C 492.865 1.97156 -3.79886 0
M  V30 5390 C 492.191 3.31506 -4.19533 0
M  V30 5391 C 493.491 1.30596 -5.05709 0
M  V30 5392 H 495.185 0.476179 -2.95589 0
M  V30 5393 H 492.731 0.227602 -1.4219 0
M  V30 5394 H 494.684 2.91142 -3.04654 0
M  V30 5395 H 493.408 2.7119 -1.81999 0
M  V30 5396 H 492.067 1.30763 -3.42486 0
M  V30 5397 H 491.715 3.78134 -3.31698 0
M  V30 5398 H 491.415 3.15465 -4.95738 0
M  V30 5399 H 492.939 4.01574 -4.59968 0
M  V30 5400 H 494.353 1.89416 -5.41105 0
M  V30 5401 H 492.75 1.24934 -5.86951 0
M  V30 5402 H 493.82 0.279742 -4.84092 0
M  V30 5403 N 495.163 1.55791 0.238111 0
M  V30 5404 C 496.44 1.68798 0.98826 0
M  V30 5405 C 496.82 0.577562 2.03045 0
M  V30 5406 O 496.168 -0.41778 2.24648 0
M  V30 5407 C 496.378 3.09454 1.61367 0
M  V30 5408 C 497.726 3.68335 2.11221 0
M  V30 5409 O 498.75 3.1231 1.71292 0
M  V30 5410 O 497.609 4.6657 2.84561 0
M  V30 5411 H 494.703 0.686881 0.460568 0
M  V30 5412 H 497.249 1.68118 0.231202 0
M  V30 5413 H 496.021 3.81726 0.860295 0
M  V30 5414 H 495.644 3.14182 2.4367 0
M  V30 5415 N 496.642 -0.504142 1.49319 0
M  V30 5416 C 497.867 -1.28729 1.62615 0
M  V30 5417 C 498.292 -1.85752 0.296309 0
M  V30 5418 O 497.65 -1.65704 -0.735649 0
M  V30 5419 C 497.698 -2.39561 2.69524 0
M  V30 5420 O 496.802 -3.43324 2.28478 0
M  V30 5421 H 496.143 -0.380172 0.544395 0
M  V30 5422 H 498.673 -0.603872 1.95485 0
M  V30 5423 H 498.683 -2.8537 2.91595 0
M  V30 5424 H 497.358 -1.97423 3.66056 0
M  V30 5425 H 495.935 -3.03455 2.16725 0
M  V30 5426 N 498.12 -1.38341 -0.754957 0
M  V30 5427 C 499.348 -1.37704 -1.54419 0
M  V30 5428 C 499.763 0.0335243 -1.8877 0
M  V30 5429 O 499.12 0.999773 -1.52679 0
M  V30 5430 C 499.171 -2.23136 -2.84416 0
M  V30 5431 O 498.892 -3.58697 -2.51531 0
M  V30 5432 C 500.393 -2.30664 -3.78562 0
M  V30 5433 H 497.613 -0.471061 -0.477852 0
M  V30 5434 H 500.157 -1.81902 -0.934446 0
M  V30 5435 H 498.312 -1.82403 -3.41772 0
M  V30 5436 H 498.726 -4.03665 -3.34896 0
M  V30 5437 H 500.2 -2.9473 -4.66732 0
M  V30 5438 H 500.677 -1.3199 -4.18898 0
M  V30 5439 H 501.283 -2.71781 -3.27131 0
M  V30 5440 N 499.598 0.982988 -1.23187 0
M  V30 5441 C 501.009 1.53847 -1.05773 0
M  V30 5442 C 501.36 1.92568 0.375744 0
M  V30 5443 O 500.485 1.75783 1.26211 0
M  V30 5444 C 501.08 2.79567 -1.91384 0
M  V30 5445 C 499.639 3.31524 -1.78238 0
M  V30 5446 C 498.786 2.04534 -1.87246 0
M  V30 5447 H 501.737 0.802962 -1.36888 0
M  V30 5448 H 501.758 3.52317 -1.43711 0
M  V30 5449 H 501.27 2.51353 -2.95708 0
M  V30 5450 H 499.371 3.64623 -0.766875 0
M  V30 5451 H 499.484 4.01457 -2.61475 0
M  V30 5452 H 497.848 2.1855 -1.30797 0
M  V30 5453 H 498.631 1.78706 -2.9312 0
M  V30 5454 N 501.076 1.04316 1.18135 0
M  V30 5455 C 502.322 0.749128 1.88457 0
M  V30 5456 C 502.655 -0.72149 1.803 0
M  V30 5457 O 501.93 -1.52676 1.205 0
M  V30 5458 C 502.213 1.21905 3.38838 0
M  V30 5459 C 502.066 2.75195 3.55792 0
M  V30 5460 C 503.385 0.811085 4.32561 0
M  V30 5461 H 500.504 0.273611 0.684329 0
M  V30 5462 H 503.146 1.29561 1.38975 0
M  V30 5463 H 501.296 0.754137 3.8111 0
M  V30 5464 H 502.968 3.29743 3.22595 0
M  V30 5465 H 501.211 3.14899 2.98364 0
M  V30 5466 H 501.882 3.03135 4.61317 0
M  V30 5467 H 504.358 1.21118 3.98082 0
M  V30 5468 H 503.234 1.16761 5.36338 0
M  V30 5469 H 503.495 -0.285596 4.41177 0
M  V30 5470 N 502.554 -1.34406 0.822964 0
M  V30 5471 C 503.484 -2.32052 0.259608 0
M  V30 5472 C 504.465 -1.58243 -0.623961 0
M  V30 5473 O 505.65 -1.86224 -0.55083 0
M  V30 5474 C 502.78 -3.42434 -0.579314 0
M  V30 5475 C 501.734 -4.27499 0.20712 0
M  V30 5476 C 501.06 -5.29349 -0.754547 0
M  V30 5477 C 502.36 -5.02758 1.41533 0
M  V30 5478 H 504.054 -2.79418 1.07545 0
M  V30 5479 H 501.6 -1.34338 0.518593 0
M  V30 5480 H 503.553 -4.0976 -0.983612 0
M  V30 5481 H 502.277 -2.93717 -1.4282 0
M  V30 5482 H 500.936 -3.61776 0.592787 0
M  V30 5483 H 500.584 -4.76895 -1.59939 0
M  V30 5484 H 500.284 -5.8714 -0.232561 0
M  V30 5485 H 501.808 -5.99544 -1.1567 0
M  V30 5486 H 503.222 -5.62938 1.08504 0
M  V30 5487 H 501.619 -5.70123 1.87296 0
M  V30 5488 H 502.689 -4.32451 2.1935 0
M  V30 5489 N 504.032 -0.577932 -1.46621 0
M  V30 5490 C 505.309 0.00495287 -1.95599 0
M  V30 5491 C 505.689 1.46428 -1.5206 0
M  V30 5492 O 505.037 2.1517 -0.769046 0
M  V30 5493 C 505.247 -0.162114 -3.48623 0
M  V30 5494 C 506.595 -0.0274623 -4.24591 0
M  V30 5495 O 507.619 -0.0907067 -3.56084 0
M  V30 5496 O 506.478 0.1122 -5.46385 0
M  V30 5497 H 503.572 0.0525057 -0.825332 0
M  V30 5498 H 506.118 -0.645914 -1.56927 0
M  V30 5499 H 504.89 -1.17679 -3.73185 0
M  V30 5500 H 504.513 0.525407 -3.94113 0
M  V30 5501 N 505.51 1.54411 -0.315457 0
M  V30 5502 C 506.735 2.05299 0.294496 0
M  V30 5503 C 507.16 1.19052 1.4563 0
M  V30 5504 O 506.518 0.197804 1.80218 0
M  V30 5505 C 506.566 3.5345 0.714549 0
M  V30 5506 O 505.67 3.70175 1.81781 0
M  V30 5507 H 505.011 0.661743 0.0547019 0
M  V30 5508 H 507.541 1.99327 -0.461508 0
M  V30 5509 H 507.551 3.9557 0.999426 0
M  V30 5510 H 506.226 4.1568 -0.135244 0
M  V30 5511 H 504.803 3.3996 1.53236 0
M  V30 5512 N 506.988 0.0434614 1.5754 0
M  V30 5513 C 508.234 -0.632971 1.92669 0
M  V30 5514 C 508.567 -1.70947 0.921446 0
M  V30 5515 O 507.842 -1.94426 -0.0537202 0
M  V30 5516 C 508.125 -1.23619 3.38216 0
M  V30 5517 C 507.978 -0.168274 4.49485 0
M  V30 5518 C 509.297 -2.15008 3.84005 0
M  V30 5519 H 506.416 -0.228629 0.700641 0
M  V30 5520 H 509.058 0.103651 1.89717 0
M  V30 5521 H 507.208 -1.864 3.40863 0
M  V30 5522 H 508.88 0.463196 4.58969 0
M  V30 5523 H 507.123 0.504581 4.30855 0
M  V30 5524 H 507.794 -0.630218 5.48391 0
M  V30 5525 H 510.27 -1.62198 3.83185 0
M  V30 5526 H 509.146 -2.54161 4.86511 0
M  V30 5527 H 509.407 -3.04707 3.20322 0
M  V30 5528 N 508.466 -1.55915 -0.229846 0
M  V30 5529 C 509.396 -1.94754 -1.28815 0
M  V30 5530 C 510.377 -0.814657 -1.49323 0
M  V30 5531 O 511.562 -1.07631 -1.61645 0
M  V30 5532 C 508.692 -2.25705 -2.63959 0
M  V30 5533 C 507.646 -3.41406 -2.5812 0
M  V30 5534 C 506.972 -3.57941 -3.97218 0
M  V30 5535 C 508.272 -4.76616 -2.13623 0
M  V30 5536 H 509.966 -2.83404 -0.965547 0
M  V30 5537 H 507.512 -1.36353 -0.463028 0
M  V30 5538 H 509.465 -2.51467 -3.38146 0
M  V30 5539 H 508.189 -1.339 -2.9789 0
M  V30 5540 H 506.848 -3.1568 -1.86391 0
M  V30 5541 H 506.496 -2.63526 -4.28443 0
M  V30 5542 H 506.196 -4.35757 -3.94195 0
M  V30 5543 H 507.72 -3.86042 -4.73079 0
M  V30 5544 H 509.134 -5.01637 -2.77549 0
M  V30 5545 H 507.531 -5.57655 -2.21677 0
M  V30 5546 H 508.601 -4.7253 -1.08829 0
M  V30 5547 N 509.944 0.496216 -1.49584 0
M  V30 5548 C 511.169 1.27865 -1.63295 0
M  V30 5549 C 511.594 1.85592 -0.306156 0
M  V30 5550 O 510.952 1.66092 0.726851 0
M  V30 5551 C 511 2.38128 -2.7079 0
M  V30 5552 O 510.104 3.42108 -2.30296 0
M  V30 5553 H 509.445 0.377279 -0.546403 0
M  V30 5554 H 511.975 0.593497 -1.95803 0
M  V30 5555 H 511.985 2.8382 -2.93104 0
M  V30 5556 H 510.66 1.95479 -3.67098 0
M  V30 5557 H 509.237 3.02301 -2.18331 0
M  V30 5558 N 511.423 1.38739 0.74761 0
M  V30 5559 C 512.333 1.38696 1.89211 0
M  V30 5560 C 513.349 0.283303 1.71678 0
M  V30 5561 O 514.525 0.522713 1.94498 0
M  V30 5562 C 511.59 1.21662 3.24653 0
M  V30 5563 C 510.651 2.41886 3.54669 0
M  V30 5564 C 509.884 2.25655 4.83648 0
M  V30 5565 O 510.107 1.25339 5.56459 0
M  V30 5566 O 509.041 3.14372 5.13277 0
M  V30 5567 H 512.867 2.35143 1.92202 0
M  V30 5568 H 510.452 1.19721 0.893708 0
M  V30 5569 H 512.334 1.14246 4.05618 0
M  V30 5570 H 511.009 0.283024 3.2246 0
M  V30 5571 H 509.916 2.54877 2.73841 0
M  V30 5572 H 511.249 3.33895 3.61628 0
M  V30 5573 N 512.901 -0.976442 1.23707 0
M  V30 5574 C 514.126 -1.75875 1.09922 0
M  V30 5575 C 514.551 -1.84911 -0.34489 0
M  V30 5576 O 513.909 -1.31363 -1.24954 0
M  V30 5577 C 513.957 -3.16179 1.73388 0
M  V30 5578 O 513.061 -4.00124 0.99871 0
M  V30 5579 H 512.402 -0.540954 0.385052 0
M  V30 5580 H 514.932 -1.22546 1.6384 0
M  V30 5581 H 514.942 -3.66741 1.78788 0
M  V30 5582 H 513.617 -3.08917 2.78466 0
M  V30 5583 H 512.194 -3.58624 1.02193 0
M  V30 5584 N 514.379 -1.04941 -1.1758 0
M  V30 5585 C 515.309 -0.669172 -2.23706 0
M  V30 5586 C 516.29 0.331835 -1.66832 0
M  V30 5587 O 517.475 0.209988 -1.93061 0
M  V30 5588 C 514.605 -0.0404889 -3.47276 0
M  V30 5589 C 513.559 -0.965983 -4.16957 0
M  V30 5590 C 512.885 -0.201312 -5.34321 0
M  V30 5591 C 514.185 -2.28902 -4.69469 0
M  V30 5592 H 515.879 -1.55639 -2.55767 0
M  V30 5593 H 513.425 -0.749793 -1.22939 0
M  V30 5594 H 515.378 0.237298 -4.20731 0
M  V30 5595 H 514.102 0.881658 -3.14475 0
M  V30 5596 H 512.761 -1.22829 -3.45411 0
M  V30 5597 H 512.409 0.723519 -4.97769 0
M  V30 5598 H 512.109 -0.817968 -5.81879 0
M  V30 5599 H 513.633 0.0692499 -6.10561 0
M  V30 5600 H 515.047 -2.07132 -5.34574 0
M  V30 5601 H 513.444 -2.85942 -5.27596 0
M  V30 5602 H 514.514 -2.92937 -3.86414 0
M  V30 5603 N 515.857 1.33968 -0.830081 0
M  V30 5604 C 517.273 1.51003 -0.516742 0
M  V30 5605 C 517.473 1.77286 0.957694 0
M  V30 5606 O 516.529 1.82797 1.74188 0
M  V30 5607 C 517.842 2.67036 -1.38247 0
M  V30 5608 C 519.39 2.80919 -1.38034 0
M  V30 5609 C 519.865 4.00004 -2.23071 0
M  V30 5610 N 521.356 4.07224 -2.20733 0
M  V30 5611 C 522.091 4.98541 -2.83275 0
M  V30 5612 N 521.587 5.95033 -3.54835 0
M  V30 5613 N 523.38 4.91469 -2.72791 0
M  V30 5614 H 515.531 1.15168 -1.78466 0
M  V30 5615 H 517.794 0.565443 -0.760906 0
M  V30 5616 H 517.5 2.54266 -2.42985 0
M  V30 5617 H 517.374 3.62226 -1.05225 0
M  V30 5618 H 519.761 2.93127 -0.340713 0
M  V30 5619 H 519.842 1.86517 -1.75057 0
M  V30 5620 H 519.486 3.88557 -3.27087 0
M  V30 5621 H 519.416 4.93634 -1.83394 0
M  V30 5622 H 521.907 3.38162 -1.68687 0
M  V30 5623 H 522.22 6.61357 -3.99784 0
M  V30 5624 H 520.565 5.95135 -3.58942 0
M  V30 5625 H 523.756 4.15048 -2.16456 0
M  V30 5626 H 523.929 5.62439 -3.21818 0
M  V30 5627 N 517.335 0.585699 1.46312 0
M  V30 5628 C 518.265 -0.133556 2.33118 0
M  V30 5629 C 519.246 -0.880707 1.45525 0
M  V30 5630 O 520.431 -0.855579 1.74337 0
M  V30 5631 C 517.561 -1.14585 3.27853 0
M  V30 5632 C 516.515 -0.513341 4.2491 0
M  V30 5633 C 515.841 -1.63231 5.09175 0
M  V30 5634 C 517.141 0.551413 5.19381 0
M  V30 5635 H 518.835 0.59121 2.93505 0
M  V30 5636 H 516.381 0.285761 1.41136 0
M  V30 5637 H 518.334 -1.65741 3.87438 0
M  V30 5638 H 517.058 -1.90093 2.65579 0
M  V30 5639 H 515.717 -0.0228349 3.66593 0
M  V30 5640 H 515.365 -2.37713 4.43285 0
M  V30 5641 H 515.065 -1.21473 5.74907 0
M  V30 5642 H 516.589 -2.14658 5.71624 0
M  V30 5643 H 518.003 0.124804 5.73164 0
M  V30 5644 H 516.4 0.889486 5.93471 0
M  V30 5645 H 517.47 1.43655 4.63132 0
M  V30 5646 N 518.813 -1.54241 0.323641 0
M  V30 5647 C 520.041 -2.04985 -0.280871 0
M  V30 5648 C 520.456 -1.19978 -1.45777 0
M  V30 5649 O 519.813 -0.230471 -1.81039 0
M  V30 5650 C 519.864 -3.54353 -0.715258 0
M  V30 5651 O 519.585 -4.36132 0.414817 0
M  V30 5652 C 521.086 -4.21189 -1.38257 0
M  V30 5653 H 518.306 -0.66851 -0.0577502 0
M  V30 5654 H 520.85 -1.99029 0.469852 0
M  V30 5655 H 519.005 -3.60596 -1.41596 0
M  V30 5656 H 519.419 -5.2445 0.0725227 0
M  V30 5657 H 520.893 -5.27154 -1.63745 0
M  V30 5658 H 521.37 -3.72307 -2.32989 0
M  V30 5659 H 521.976 -4.19085 -0.724447 0
M  V30 5660 N 520.291 -0.0518155 -1.57515 0
M  V30 5661 C 521.254 0.907547 -2.10467 0
M  V30 5662 C 522.254 1.23947 -1.02439 0
M  V30 5663 O 523.444 1.17604 -1.2851 0
M  V30 5664 C 520.576 2.21723 -2.58944 0
M  V30 5665 H 521.769 0.44851 -2.96527 0
M  V30 5666 H 519.322 0.196598 -1.55059 0
M  V30 5667 H 520.057 2.72206 -1.76279 0
M  V30 5668 H 519.842 1.98935 -3.37886 0
M  V30 5669 H 521.332 2.90441 -3.00056 0
M  V30 5670 N 521.769 1.56035 0.221574 0
M  V30 5671 C 522.732 1.91584 1.2581 0
M  V30 5672 C 523.732 0.794425 1.39805 0
M  V30 5673 O 524.922 1.06217 1.38071 0
M  V30 5674 C 522.054 2.16663 2.63192 0
M  V30 5675 H 523.247 2.8429 0.954935 0
M  V30 5676 H 520.8 1.49316 0.461988 0
M  V30 5677 H 521.535 1.26508 2.98607 0
M  V30 5678 H 521.32 2.98358 2.5441 0
M  V30 5679 H 522.81 2.45262 3.37988 0
M  V30 5680 N 523.247 -0.488276 1.49845 0
M  V30 5681 C 524.658 -1.06955 1.53028 0
M  V30 5682 C 525.009 -1.9351 0.323797 0
M  V30 5683 O 524.134 -2.08891 -0.565116 0
M  V30 5684 C 524.729 -1.94643 2.77307 0
M  V30 5685 C 523.288 -2.4791 2.83227 0
M  V30 5686 C 522.435 -1.25833 2.47106 0
M  V30 5687 H 525.386 -0.271626 1.56358 0
M  V30 5688 H 525.407 -2.79496 2.5819 0
M  V30 5689 H 524.919 -1.31621 3.65099 0
M  V30 5690 H 523.02 -3.14535 1.99745 0
M  V30 5691 H 523.133 -2.84193 3.85709 0
M  V30 5692 H 521.497 -1.58764 1.99163 0
M  V30 5693 H 522.28 -0.644993 3.37186 0
M  V30 5694 N 524.725 -1.39134 -0.740242 0
M  V30 5695 C 525.972 -1.36071 -1.49969 0
M  V30 5696 C 526.3 0.0450245 -1.94448 0
M  V30 5697 O 525.555 1.02482 -1.66721 0
M  V30 5698 C 525.854 -2.27457 -2.75678 0
M  V30 5699 C 525.52 -3.75185 -2.50094 0
M  V30 5700 C 524.182 -4.15439 -2.42825 0
M  V30 5701 C 526.534 -4.68643 -2.28086 0
M  V30 5702 C 523.862 -5.4722 -2.11584 0
M  V30 5703 C 526.214 -6.00695 -1.98363 0
M  V30 5704 C 524.878 -6.40018 -1.8956 0
M  V30 5705 H 524.148 -0.497921 -0.548777 0
M  V30 5706 H 526.795 -1.71599 -0.85007 0
M  V30 5707 H 525.1 -1.8503 -3.45356 0
M  V30 5708 H 526.797 -2.22384 -3.33686 0
M  V30 5709 H 523.387 -3.43279 -2.56627 0
M  V30 5710 H 527.571 -4.3838 -2.32672 0
M  V30 5711 H 522.827 -5.76615 -2.03287 0
M  V30 5712 H 527.001 -6.72644 -1.80341 0
M  V30 5713 H 524.628 -7.42051 -1.65117 0
M  V30 5714 N 526.204 0.969867 -1.24223 0
M  V30 5715 C 527.453 1.70687 -1.07466 0
M  V30 5716 C 527.766 1.91736 0.386861 0
M  V30 5717 O 528.972 2.62986 0.674581 0
M  V30 5718 C 527.428 3.07217 -1.87472 0
M  V30 5719 C 527.036 2.94018 -3.3802 0
M  V30 5720 C 528.78 3.84804 -1.79237 0
M  V30 5721 C 526.687 4.25844 -4.10379 0
M  V30 5722 H 525.617 0.640067 -0.398536 0
M  V30 5723 H 528.268 1.08092 -1.48285 0
M  V30 5724 H 526.65 3.70628 -1.39466 0
M  V30 5725 H 527.824 2.39632 -3.9359 0
M  V30 5726 H 526.139 2.29898 -3.47183 0
M  V30 5727 H 528.736 4.82417 -2.30603 0
M  V30 5728 H 529.079 4.09356 -0.757197 0
M  V30 5729 H 529.612 3.28115 -2.24912 0
M  V30 5730 H 526.351 4.06486 -5.14246 0
M  V30 5731 H 525.871 4.80054 -3.59594 0
M  V30 5732 H 527.55 4.94475 -4.17257 0
M  V30 5733 N 527.682 1.05563 1.17022 0
M  V30 5734 C 528.91 0.78845 1.91288 0
M  V30 5735 C 529.325 -0.656318 1.77025 0
M  V30 5736 O 528.682 -1.44869 1.10992 0
M  V30 5737 C 528.733 1.16444 3.42232 0
M  V30 5738 O 528.454 2.5525 3.5606 0
M  V30 5739 C 529.955 0.923937 4.33565 0
M  V30 5740 H 527.175 0.286389 0.606813 0
M  V30 5741 H 529.719 1.4073 1.48375 0
M  V30 5742 H 527.874 0.590266 3.82877 0
M  V30 5743 H 528.288 2.70097 4.49609 0
M  V30 5744 H 529.762 1.23672 5.37968 0
M  V30 5745 H 530.239 -0.140688 4.38975 0
M  V30 5746 H 530.845 1.48214 3.98639 0
M  V30 5747 N 529.16 -1.33526 0.837174 0
M  V30 5748 C 530.576 -1.50727 0.524743 0
M  V30 5749 C 530.776 -1.77792 -0.948279 0
M  V30 5750 O 529.832 -1.83719 -1.73216 0
M  V30 5751 C 531.145 -2.66299 1.39661 0
M  V30 5752 C 532.693 -2.80183 1.39521 0
M  V30 5753 C 533.168 -3.98815 2.25189 0
M  V30 5754 N 534.659 -4.06047 2.2289 0
M  V30 5755 C 535.394 -4.97032 2.85915 0
M  V30 5756 N 534.89 -5.93143 3.57985 0
M  V30 5757 N 536.683 -4.90015 2.75394 0
M  V30 5758 H 528.834 -1.1422 1.79074 0
M  V30 5759 H 531.097 -0.561399 0.763894 0
M  V30 5760 H 530.803 -2.52974 2.4433 0
M  V30 5761 H 530.677 -3.61663 1.07145 0
M  V30 5762 H 533.064 -2.92942 0.356253 0
M  V30 5763 H 533.145 -1.85586 1.76044 0
M  V30 5764 H 532.789 -3.86817 3.29143 0
M  V30 5765 H 532.719 -4.92654 1.86009 0
M  V30 5766 H 535.21 -3.37262 1.70478 0
M  V30 5767 H 535.523 -6.59227 4.03286 0
M  V30 5768 H 533.868 -5.93223 3.62093 0
M  V30 5769 H 537.059 -4.13894 2.18654 0
M  V30 5770 H 537.232 -5.60724 3.24796 0
M  V30 5771 N 530.638 -0.59345 -1.46 0
M  V30 5772 C 531.548 0.135817 -2.34207 0
M  V30 5773 C 532.564 0.875008 -1.50398 0
M  V30 5774 O 533.74 0.835778 -1.83239 0
M  V30 5775 C 530.805 1.12977 -3.27776 0
M  V30 5776 C 529.866 0.394081 -4.27487 0
M  V30 5777 C 529.099 1.34068 -5.16586 0
M  V30 5778 O 529.322 2.5778 -5.08828 0
M  V30 5779 O 528.256 0.845426 -5.95933 0
M  V30 5780 H 532.082 -0.588691 -2.9794 0
M  V30 5781 H 529.667 -0.353784 -1.45151 0
M  V30 5782 H 531.549 1.70261 -3.85473 0
M  V30 5783 H 530.224 1.83556 -2.66625 0
M  V30 5784 H 529.131 -0.220869 -3.73447 0
M  V30 5785 H 530.464 -0.270939 -4.91454 0
M  V30 5786 N 532.116 1.54067 -0.331816 0
M  V30 5787 C 533.362 2.01012 0.268667 0
M  V30 5788 C 533.695 1.2195 1.51136 0
M  V30 5789 O 532.97 0.303972 1.9211 0
M  V30 5790 C 533.253 3.55158 0.59456 0
M  V30 5791 C 533.106 4.4494 -0.659409 0
M  V30 5792 C 534.425 4.16939 1.4089 0
M  V30 5793 H 531.544 0.730698 0.0961756 0
M  V30 5794 H 534.186 1.84593 -0.450031 0
M  V30 5795 H 532.336 3.6928 1.20685 0
M  V30 5796 H 534.008 4.42675 -1.29756 0
M  V30 5797 H 532.251 4.1428 -1.28665 0
M  V30 5798 H 532.922 5.50643 -0.386804 0
M  V30 5799 H 535.398 4.06443 0.891272 0
M  V30 5800 H 534.274 5.24889 1.60569 0
M  V30 5801 H 534.535 3.70798 2.40752 0
M  V30 5802 N 533.594 0.0601682 1.57485 0
M  V30 5803 C 534.84 -0.612501 1.93329 0
M  V30 5804 C 535.173 -1.6996 0.939526 0
M  V30 5805 O 534.448 -1.94472 -0.0330957 0
M  V30 5806 C 534.731 -1.20025 3.39508 0
M  V30 5807 C 534.584 -0.12059 4.49638 0
M  V30 5808 C 535.903 -2.10923 3.86264 0
M  V30 5809 H 533.022 -0.221185 0.703027 0
M  V30 5810 H 535.664 0.123768 1.89596 0
M  V30 5811 H 533.814 -1.82774 3.42821 0
M  V30 5812 H 535.486 0.51185 4.58452 0
M  V30 5813 H 533.729 0.550251 4.30296 0
M  V30 5814 H 534.4 -0.572019 5.49028 0
M  V30 5815 H 536.876 -1.58124 3.84884 0
M  V30 5816 H 535.752 -2.48987 4.8918 0
M  V30 5817 H 536.013 -3.01292 3.23536 0
M  V30 5818 N 535.072 -1.5615 -0.213296 0
M  V30 5819 C 536.318 -1.79812 -0.937849 0
M  V30 5820 C 536.651 -0.631201 -1.83656 0
M  V30 5821 O 535.926 0.369165 -1.90964 0
M  V30 5822 C 536.209 -3.13613 -1.76972 0
M  V30 5823 C 536.062 -4.40766 -0.89695 0
M  V30 5824 C 537.381 -3.43931 -2.7459 0
M  V30 5825 H 534.5 -0.654138 -0.339518 0
M  V30 5826 H 537.142 -1.88877 -0.20623 0
M  V30 5827 H 535.292 -3.06015 -2.39347 0
M  V30 5828 H 536.964 -4.60392 -0.289306 0
M  V30 5829 H 535.207 -4.33326 -0.202756 0
M  V30 5830 H 535.878 -5.30843 -1.51358 0
M  V30 5831 H 538.354 -3.5171 -2.22349 0
M  V30 5832 H 537.23 -4.38706 -3.29891 0
M  V30 5833 H 537.491 -2.6651 -3.52739 0
M  V30 5834 N 536.55 0.480323 -1.50102 0
M  V30 5835 C 537.827 1.24159 -1.51142 0
M  V30 5836 C 538.207 2.09605 -0.250818 0
M  V30 5837 O 537.555 2.15274 0.766118 0
M  V30 5838 C 537.765 2.08057 -2.80202 0
M  V30 5839 C 539.113 2.66556 -3.30504 0
M  V30 5840 O 540.137 2.18308 -2.81461 0
M  V30 5841 O 538.996 3.54442 -4.15973 0
M  V30 5842 H 536.09 0.562928 -0.605839 0
M  V30 5843 H 538.636 0.492899 -1.62384 0
M  V30 5844 H 537.408 1.45032 -3.6343 0
M  V30 5845 H 537.031 2.90079 -2.71919 0
M  V30 5846 N 538.028 1.39524 0.732853 0
M  V30 5847 C 538.958 1.41153 1.86005 0
M  V30 5848 C 539.939 0.274614 1.67869 0
M  V30 5849 O 541.124 0.480745 1.88155 0
M  V30 5850 C 538.254 1.25638 3.23778 0
M  V30 5851 C 537.208 2.36752 3.56556 0
M  V30 5852 C 536.534 2.06326 4.93289 0
M  V30 5853 C 537.834 3.79069 3.5931 0
M  V30 5854 H 539.528 2.35484 1.84899 0
M  V30 5855 H 537.074 1.13348 0.888162 0
M  V30 5856 H 539.027 1.25398 4.0231 0
M  V30 5857 H 537.751 0.277772 3.25417 0
M  V30 5858 H 536.41 2.36213 2.80355 0
M  V30 5859 H 536.058 1.06897 4.9151 0
M  V30 5860 H 535.758 2.80757 5.16187 0
M  V30 5861 H 537.282 2.07739 5.74175 0
M  V30 5862 H 538.696 3.81526 4.27914 0
M  V30 5863 H 537.093 4.52878 3.93728 0
M  V30 5864 H 538.163 4.09893 2.59068 0
M  V30 5865 N 539.506 -0.963266 1.24736 0
M  V30 5866 C 540.469 -2.04013 1.04457 0
M  V30 5867 C 541.469 -1.608 0.000335555 0
M  V30 5868 O 542.659 -1.72515 0.241719 0
M  V30 5869 C 539.791 -3.35858 0.584162 0
M  V30 5870 H 540.984 -2.23436 2.00041 0
M  V30 5871 H 538.537 -1.13914 1.07021 0
M  V30 5872 H 539.272 -3.22128 -0.374673 0
M  V30 5873 H 539.057 -3.68568 1.3379 0
M  V30 5874 H 540.547 -4.1502 0.463451 0
M  V30 5875 N 540.985 -1.06182 -1.16461 0
M  V30 5876 C 541.918 -0.615859 -2.19733 0
M  V30 5877 C 542.896 0.360766 -1.58547 0
M  V30 5878 O 544.08 0.270009 -1.86556 0
M  V30 5879 C 541.207 0.097312 -3.3856 0
M  V30 5880 C 540.253 -0.835889 -4.18229 0
M  V30 5881 S 541.086 -2.33052 -4.82128 0
M  V30 5882 C 542.242 -1.62881 -6.04335 0
M  V30 5883 H 542.475 -1.49079 -2.57221 0
M  V30 5884 H 540.008 -0.874692 -1.27234 0
M  V30 5885 H 541.966 0.502563 -4.07412 0
M  V30 5886 H 540.627 0.948418 -2.99439 0
M  V30 5887 H 539.82 -0.283426 -5.03202 0
M  V30 5888 H 539.422 -1.18097 -3.54865 0
M  V30 5889 H 541.714 -0.933764 -6.71034 0
M  V30 5890 H 542.657 -2.45641 -6.64128 0
M  V30 5891 H 543.065 -1.11189 -5.53441 0
M  V30 5892 N 542.463 1.3308 -0.844243 0
M  V30 5893 C 543.874 1.7992 -0.498566 0
M  V30 5894 C 544.225 1.69808 0.982834 0
M  V30 5895 O 543.35 1.25051 1.7661 0
M  V30 5896 C 543.945 3.26677 -0.898204 0
M  V30 5897 C 542.504 3.71513 -0.604583 0
M  V30 5898 C 541.651 2.54393 -1.10362 0
M  V30 5899 H 544.602 1.20526 -1.03244 0
M  V30 5900 H 544.623 3.79918 -0.21039 0
M  V30 5901 H 544.135 3.34004 -1.97643 0
M  V30 5902 H 542.236 3.69708 0.46335 0
M  V30 5903 H 542.349 4.64755 -1.16358 0
M  V30 5904 H 540.713 2.49246 -0.524273 0
M  V30 5905 H 541.496 2.6448 -2.18873 0
M  V30 5906 N 543.941 0.601185 1.45683 0
M  V30 5907 C 544.874 -0.17013 2.27565 0
M  V30 5908 C 545.852 -0.879661 1.36751 0
M  V30 5909 O 547.036 -0.889827 1.66176 0
M  V30 5910 C 544.163 -1.24568 3.14961 0
M  V30 5911 C 543.209 -0.639978 4.21671 0
M  V30 5912 S 544.042 0.547275 5.32696 0
M  V30 5913 C 545.198 -0.529019 6.2366 0
M  V30 5914 H 545.431 0.524583 2.92635 0
M  V30 5915 H 542.964 0.388537 1.49431 0
M  V30 5916 H 544.922 -1.86138 3.65873 0
M  V30 5917 H 543.583 -1.91243 2.49169 0
M  V30 5918 H 542.776 -1.44903 4.8272 0
M  V30 5919 H 542.378 -0.0995558 3.73867 0
M  V30 5920 H 544.67 -1.40981 6.62669 0
M  V30 5921 H 545.613 0.0451599 7.08086 0
M  V30 5922 H 546.021 -0.84147 5.58193 0
M  V30 5923 N 545.419 -1.53889 0.339982 0
M  V30 5924 C 546.382 -2.23547 -0.50592 0
M  V30 5925 C 547.382 -1.23445 -1.03044 0
M  V30 5926 O 548.572 -1.47909 -0.920253 0
M  V30 5927 C 545.704 -2.95234 -1.7044 0
M  V30 5928 H 546.897 -2.99722 0.103247 0
M  V30 5929 H 544.45 -1.56033 0.0912804 0
M  V30 5930 H 545.185 -2.23236 -2.35236 0
M  V30 5931 H 544.97 -3.68654 -1.33553 0
M  V30 5932 H 546.46 -3.48258 -2.30447 0
M  V30 5933 N 546.897 -0.0685191 -1.57451 0
M  V30 5934 C 548.174 0.642167 -1.84758 0
M  V30 5935 C 548.554 1.87991 -0.960344 0
M  V30 5936 O 547.902 2.28485 -0.0257894 0
M  V30 5937 C 548.112 0.982946 -3.34872 0
M  V30 5938 C 549.46 1.35784 -4.02303 0
M  V30 5939 O 550.484 1.07477 -3.39598 0
M  V30 5940 O 549.343 1.88681 -5.12895 0
M  V30 5941 H 546.437 0.318625 -0.763156 0
M  V30 5942 H 548.983 -0.0992015 -1.6941 0
M  V30 5943 H 547.755 0.10372 -3.91163 0
M  V30 5944 H 547.378 1.78119 -3.55471 0
M  V30 5945 N 548.375 1.56261 0.205012 0
M  V30 5946 C 549.623 1.79684 0.925096 0
M  V30 5947 C 549.944 0.63989 1.84202 0
M  V30 5948 O 549.214 -0.342345 1.92885 0
M  V30 5949 H 547.794 0.662774 0.344587 0
M  V30 5950 H 550.456 1.93734 0.212899 0
M  V30 5951 H 549.552 2.72467 1.52211 0
M  V30 5952 N 549.853 -0.472356 1.50355 0
M  V30 5953 C 551.269 -0.806001 1.37753 0
M  V30 5954 C 551.469 -1.968 0.432649 0
M  V30 5955 O 550.525 -2.52189 -0.12519 0
M  V30 5956 C 551.838 -1.11926 2.79093 0
M  V30 5957 C 553.386 -1.22579 2.87999 0
M  V30 5958 C 553.861 -1.57218 4.3017 0
M  V30 5959 N 555.352 -1.64212 4.33115 0
M  V30 5960 C 556.087 -1.92517 5.40116 0
M  V30 5961 N 555.583 -2.1885 6.57325 0
M  V30 5962 N 557.376 -1.94008 5.27558 0
M  V30 5963 H 549.527 0.293451 2.10363 0
M  V30 5964 H 551.79 0.0687672 0.945503 0
M  V30 5965 H 551.496 -0.338504 3.50067 0
M  V30 5966 H 551.37 -2.05577 3.16256 0
M  V30 5967 H 553.757 -1.99722 2.17245 0
M  V30 5968 H 553.838 -0.269107 2.54381 0
M  V30 5969 H 553.482 -0.806154 5.01461 0
M  V30 5970 H 553.412 -2.54034 4.61275 0
M  V30 5971 H 555.903 -1.45906 3.48597 0
M  V30 5972 H 556.216 -2.39718 7.3468 0
M  V30 5973 H 554.561 -2.16245 6.60502 0
M  V30 5974 H 557.752 -1.72931 4.34986 0
M  V30 5975 H 557.925 -2.15731 6.11035 0
M  V30 5976 N 551.331 -1.39911 -0.725443 0
M  V30 5977 C 552.241 -1.41688 -1.8698 0
M  V30 5978 C 553.257 -0.310579 -1.71206 0
M  V30 5979 O 554.433 -0.55359 -1.93642 0
M  V30 5980 C 551.498 -1.26811 -3.22676 0
M  V30 5981 C 550.559 -2.47497 -3.50776 0
M  V30 5982 C 549.792 -2.3332 -4.79997 0
M  V30 5983 O 550.015 -1.34175 -5.54394 0
M  V30 5984 O 548.949 -3.22498 -5.08211 0
M  V30 5985 H 552.775 -2.38171 -1.88436 0
M  V30 5986 H 550.36 -1.21128 -0.874548 0
M  V30 5987 H 552.242 -1.20684 -4.03749 0
M  V30 5988 H 550.917 -0.334289 -3.21969 0
M  V30 5989 H 549.824 -2.59201 -2.69751 0
M  V30 5990 H 551.157 -3.39606 -3.5627 0
M  V30 5991 N 552.809 0.956637 -1.25245 0
M  V30 5992 C 554.056 1.701 -1.09874 0
M  V30 5993 C 554.384 1.91128 0.36062 0
M  V30 5994 O 553.639 1.47837 1.28229 0
M  V30 5995 C 553.938 3.08996 -1.79601 0
M  V30 5996 C 553.604 3.07774 -3.29523 0
M  V30 5997 C 552.266 3.07149 -3.70423 0
M  V30 5998 C 554.618 3.01257 -4.25316 0
M  V30 5999 C 551.946 2.97752 -5.0553 0
M  V30 6000 C 554.298 2.93403 -5.60444 0
M  V30 6001 C 552.962 2.91111 -6.00675 0
M  V30 6002 H 552.232 0.62244 -0.402056 0
M  V30 6003 H 554.879 1.1178 -1.55491 0
M  V30 6004 H 553.184 3.70848 -1.26408 0
M  V30 6005 H 554.881 3.65407 -1.65162 0
M  V30 6006 H 551.471 3.09032 -2.9698 0
M  V30 6007 H 555.655 3.00861 -3.9471 0
M  V30 6008 H 550.911 2.94346 -5.35883 0
M  V30 6009 H 555.085 2.87321 -6.34366 0
M  V30 6010 H 552.712 2.83586 -7.05325 0
M  V30 6011 N 554.287 1.06798 1.15896 0
M  V30 6012 C 555.235 0.677525 2.22514 0
M  V30 6013 C 556.229 -0.308994 1.66558 0
M  V30 6014 O 557.435 -0.173308 1.79164 0
M  V30 6015 H 553.81 0.200994 0.724642 0
M  V30 6016 H 555.781 1.5865 2.52731 0
M  V30 6017 C 554.53 0.0854153 3.47595 0
M  V30 6018 H 553.853 0.835645 3.90969 0
M  V30 6019 H 555.293 -0.150199 4.23734 0
M  V30 6020 C 553.752 -1.1724 3.15843 0
M  V30 6021 O 554.282 -2.25965 3.32119 0
M  V30 6022 N 552.488 -1.07636 2.69931 0
M  V30 6023 H 552.035 -0.191559 2.56887 0
M  V30 6024 H 551.993 -1.91876 2.4906 0
M  V30 6025 N 555.766 -1.3263 0.851289 0
M  V30 6026 C 556.696 -2.31449 0.308771 0
M  V30 6027 C 557.677 -1.59531 -0.590255 0
M  V30 6028 O 558.862 -1.87351 -0.511205 0
M  V30 6029 C 555.992 -3.43586 -0.506548 0
M  V30 6030 C 554.946 -4.26963 0.297753 0
M  V30 6031 C 554.272 -5.30831 -0.642094 0
M  V30 6032 C 555.572 -4.99643 1.52166 0
M  V30 6033 H 557.266 -2.77074 1.13447 0
M  V30 6034 H 554.812 -1.33207 0.546971 0
M  V30 6035 H 556.765 -4.11754 -0.896474 0
M  V30 6036 H 555.489 -2.96681 -1.36558 0
M  V30 6037 H 554.148 -3.60437 0.669391 0
M  V30 6038 H 553.796 -4.8018 -1.49788 0
M  V30 6039 H 553.496 -5.87501 -0.107968 0
M  V30 6040 H 555.02 -6.01862 -1.02927 0
M  V30 6041 H 556.434 -5.6051 1.20421 0
M  V30 6042 H 554.831 -5.66022 1.99347 0
M  V30 6043 H 555.901 -4.27701 2.28474 0
M  V30 6044 N 557.244 -0.608902 -1.45362 0
M  V30 6045 C 558.66 -0.272659 -1.57254 0
M  V30 6046 C 558.86 1.22477 -1.60005 0
M  V30 6047 O 557.916 2.00785 -1.53106 0
M  V30 6048 C 559.229 -0.944991 -2.85465 0
M  V30 6049 C 560.777 -0.921033 -2.99142 0
M  V30 6050 C 561.252 -1.5734 -4.30126 0
M  V30 6051 N 562.743 -1.53895 -4.36887 0
M  V30 6052 C 563.478 -2.01286 -5.36909 0
M  V30 6053 N 562.974 -2.56768 -6.43461 0
M  V30 6054 N 564.767 -1.92046 -5.28275 0
M  V30 6055 H 556.918 -1.58117 -1.4182 0
M  V30 6056 H 559.181 -0.662437 -0.678146 0
M  V30 6057 H 558.887 -1.99941 -2.89338 0
M  V30 6058 H 558.761 -0.469079 -3.74272 0
M  V30 6059 H 561.148 0.124846 -2.94836 0
M  V30 6060 H 561.229 -1.43522 -2.11743 0
M  V30 6061 H 560.873 -2.61862 -4.35191 0
M  V30 6062 H 560.803 -1.03422 -5.16344 0
M  V30 6063 H 563.294 -1.13366 -3.60495 0
M  V30 6064 H 563.607 -2.9072 -7.16032 0
M  V30 6065 H 561.952 -2.60808 -6.44208 0
M  V30 6066 H 565.143 -1.48439 -4.43941 0
M  V30 6067 H 565.316 -2.29293 -6.06077 0
M  V30 6068 N 558.722 1.53707 -0.348139 0
M  V30 6069 C 560.138 1.596 0.00361134 0
M  V30 6070 C 560.338 1.36394 1.4832 0
M  V30 6071 O 559.394 1.16046 2.24253 0
M  V30 6072 C 560.707 2.97512 -0.436682 0
M  V30 6073 C 562.255 3.10568 -0.389416 0
M  V30 6074 C 562.73 4.50866 -0.805249 0
M  V30 6075 N 564.221 4.56929 -0.759616 0
M  V30 6076 C 564.956 5.63643 -1.05327 0
M  V30 6077 N 564.452 6.78189 -1.41531 0
M  V30 6078 N 566.245 5.5354 -0.977207 0
M  V30 6079 H 558.396 1.67044 -1.31187 0
M  V30 6080 H 560.659 0.782559 -0.535075 0
M  V30 6081 H 560.365 3.19575 -1.46849 0
M  V30 6082 H 560.239 3.76742 0.185744 0
M  V30 6083 H 562.626 2.88226 0.633228 0
M  V30 6084 H 562.707 2.33387 -1.04711 0
M  V30 6085 H 562.351 4.73943 -1.82593 0
M  V30 6086 H 562.281 5.26452 -0.124989 0
M  V30 6087 H 564.772 3.74675 -0.49265 0
M  V30 6088 H 565.085 7.55541 -1.62411 0
M  V30 6089 H 563.43 6.79624 -1.45381 0
M  V30 6090 H 566.621 4.62932 -0.693675 0
M  V30 6091 H 566.794 6.36614 -1.2094 0
M  V30 6092 N 560.2 0.0768682 1.57412 0
M  V30 6093 C 561.448 -0.589918 1.93299 0
M  V30 6094 C 561.769 -1.69842 0.958049 0
M  V30 6095 O 561.039 -1.95899 0.00703261 0
M  V30 6096 H 559.619 -0.220901 0.713591 0
M  V30 6097 H 562.281 0.135917 1.94425 0
M  V30 6098 H 561.377 -1.01195 2.95239 0
M  V30 6099 N 561.678 -1.56367 -0.196722 0
M  V30 6100 C 562.955 -1.71359 -0.943159 0
M  V30 6101 C 563.335 -0.631192 -2.01443 0
M  V30 6102 O 562.683 0.358071 -2.25677 0
M  V30 6103 C 562.893 -3.13623 -1.53106 0
M  V30 6104 C 564.241 -3.73806 -2.01381 0
M  V30 6105 O 565.265 -3.16742 -1.62951 0
M  V30 6106 O 564.124 -4.73951 -2.7209 0
M  V30 6107 H 561.218 -0.698851 -0.442195 0
M  V30 6108 H 563.764 -1.68672 -0.186547 0
M  V30 6109 H 562.536 -3.83873 -0.758785 0
M  V30 6110 H 562.159 -3.20532 -2.35255 0
M  V30 6111 N 563.156 0.464375 -1.50603 0
M  V30 6112 C 564.572 0.798684 -1.38178 0
M  V30 6113 C 564.772 1.96568 -0.44308 0
M  V30 6114 O 563.828 2.52252 0.111814 0
M  V30 6115 C 565.141 1.10444 -2.79683 0
M  V30 6116 C 566.689 1.2105 -2.88645 0
M  V30 6117 C 567.164 1.54934 -4.30998 0
M  V30 6118 N 568.655 1.61913 -4.3398 0
M  V30 6119 C 569.39 1.8965 -5.41129 0
M  V30 6120 N 568.886 2.15361 -6.58477 0
M  V30 6121 N 570.679 1.91207 -5.28579 0
M  V30 6122 H 562.83 -0.304603 -2.10204 0
M  V30 6123 H 565.093 -0.0737804 -0.945125 0
M  V30 6124 H 564.799 0.319934 -3.50242 0
M  V30 6125 H 564.673 2.03896 -3.17342 0
M  V30 6126 H 567.06 1.98567 -2.18301 0
M  V30 6127 H 567.141 0.255613 -2.5452 0
M  V30 6128 H 566.785 0.779549 -5.01882 0
M  V30 6129 H 566.715 2.51584 -4.62615 0
M  V30 6130 H 569.206 1.44055 -3.49366 0
M  V30 6131 H 569.519 2.35818 -7.35941 0
M  V30 6132 H 567.864 2.1274 -6.6164 0
M  V30 6133 H 571.055 1.70622 -4.35897 0
M  V30 6134 H 571.228 2.12488 -6.12171 0
M  V30 6135 N 564.634 1.40294 0.718013 0
M  V30 6136 C 565.564 1.43118 1.84498 0
M  V30 6137 C 566.545 0.292403 1.67568 0
M  V30 6138 O 567.73 0.500675 1.87635 0
M  V30 6139 C 564.86 1.29065 3.22427 0
M  V30 6140 C 563.814 2.40521 3.54025 0
M  V30 6141 C 563.14 2.11546 4.91073 0
M  V30 6142 C 564.44 3.82859 3.55269 0
M  V30 6143 H 566.134 2.37432 1.82391 0
M  V30 6144 H 563.68 1.14283 0.87609 0
M  V30 6145 H 565.633 1.29658 4.00957 0
M  V30 6146 H 564.357 0.312271 3.25104 0
M  V30 6147 H 563.016 2.39173 2.77834 0
M  V30 6148 H 562.664 1.12104 4.90348 0
M  V30 6149 H 562.364 2.86216 5.1318 0
M  V30 6150 H 563.888 2.13817 5.71939 0
M  V30 6151 H 565.302 3.86044 4.23843 0
M  V30 6152 H 563.699 4.57029 3.88902 0
M  V30 6153 H 564.769 4.12617 2.54706 0
M  V30 6154 N 566.112 -0.949982 1.2575 0
M  V30 6155 C 567.042 -2.06483 1.09028 0
M  V30 6156 C 568.023 -1.701 -0.00201532 0
M  V30 6157 O 569.208 -1.93469 0.168383 0
M  V30 6158 C 566.338 -3.39899 0.71316 0
M  V30 6159 C 565.292 -3.90309 1.75621 0
M  V30 6160 C 564.618 -5.20274 1.23365 0
M  V30 6161 C 565.918 -4.16169 3.15596 0
M  V30 6162 H 567.612 -2.20731 2.02283 0
M  V30 6163 H 565.158 -1.06066 0.973964 0
M  V30 6164 H 567.111 -4.17346 0.58309 0
M  V30 6165 H 565.835 -3.25602 -0.255091 0
M  V30 6166 H 564.494 -3.15035 1.8748 0
M  V30 6167 H 564.142 -5.02351 0.255491 0
M  V30 6168 H 563.842 -5.54971 1.93082 0
M  V30 6169 H 565.366 -6.00314 1.11607 0
M  V30 6170 H 566.78 -4.84259 3.06864 0
M  V30 6171 H 565.177 -4.62131 3.82825 0
M  V30 6172 H 566.247 -3.22273 3.6231 0
M  V30 6173 N 567.59 -1.07411 -1.15328 0
M  V30 6174 C 568.52 -0.716472 -2.22236 0
M  V30 6175 C 569.501 0.296373 -1.67498 0
M  V30 6176 O 570.686 0.168989 -1.93463 0
M  V30 6177 C 567.816 -0.114142 -3.47112 0
M  V30 6178 C 566.77 -1.05421 -4.14814 0
M  V30 6179 C 566.096 -0.314604 -5.33774 0
M  V30 6180 C 567.396 -2.38808 -4.64508 0
M  V30 6181 H 569.09 -1.61029 -2.52408 0
M  V30 6182 H 566.636 -0.775702 -1.21321 0
M  V30 6183 H 568.589 0.148001 -4.2114 0
M  V30 6184 H 567.313 0.814755 -3.16274 0
M  V30 6185 H 565.972 -1.30128 -3.42728 0
M  V30 6186 H 565.62 0.617772 -4.99192 0
M  V30 6187 H 565.32 -0.941209 -5.80013 0
M  V30 6188 H 566.844 -0.0602747 -6.1057 0
M  V30 6189 H 568.258 -2.18424 -5.3006 0
M  V30 6190 H 566.655 -2.97069 -5.21412 0
M  V30 6191 H 567.725 -3.01067 -3.80114 0
M  V30 6192 N 569.068 1.32177 -0.85831 0
M  V30 6193 C 570.315 1.97125 -0.463484 0
M  V30 6194 C 570.643 1.67907 0.981705 0
M  V30 6195 O 569.898 0.961717 1.70439 0
M  V30 6196 C 570.197 3.51372 -0.653658 0
M  V30 6197 C 569.863 4.00584 -2.06987 0
M  V30 6198 C 568.525 4.13733 -2.4572 0
M  V30 6199 C 570.877 4.26624 -2.99402 0
M  V30 6200 C 568.205 4.50268 -3.76132 0
M  V30 6201 C 570.557 4.64618 -4.29316 0
M  V30 6202 C 569.221 4.75975 -4.67979 0
M  V30 6203 H 568.491 0.72133 -0.169601 0
M  V30 6204 H 571.138 1.57517 -1.08907 0
M  V30 6205 H 569.443 3.91761 0.0551328 0
M  V30 6206 H 571.14 3.99655 -0.328163 0
M  V30 6207 H 567.73 3.90837 -1.75911 0
M  V30 6208 H 571.914 4.1597 -2.70708 0
M  V30 6209 H 567.17 4.57256 -4.05865 0
M  V30 6210 H 571.344 4.83722 -5.00985 0
M  V30 6211 H 568.971 5.04041 -5.69076 0
M  V30 6212 N 570.547 0.616602 1.45037 0
M  V30 6213 C 571.958 0.199359 1.85633 0
M  V30 6214 C 572.309 -1.24588 1.51566 0
M  V30 6215 O 571.434 -1.94594 0.94668 0
M  V30 6216 C 572.029 0.355033 3.36935 0
M  V30 6217 C 570.588 -0.00758748 3.76399 0
M  V30 6218 C 569.735 0.675256 2.68953 0
M  V30 6219 H 572.686 0.822708 1.3571 0
M  V30 6220 H 572.707 -0.410201 3.78282 0
M  V30 6221 H 572.219 1.40699 3.61698 0
M  V30 6222 H 570.32 -1.05837 3.57252 0
M  V30 6223 H 570.433 0.392346 4.77491 0
M  V30 6224 H 568.797 0.111992 2.54454 0
M  V30 6225 H 569.58 1.72952 2.96551 0
M  V30 6226 N 572.025 -1.5352 0.356285 0
M  V30 6227 C 573.272 -2.01117 -0.236303 0
M  V30 6228 C 573.6 -1.24381 -1.49531 0
M  V30 6229 O 572.855 -0.323057 -1.93015 0
M  V30 6230 C 573.154 -3.52607 -0.583369 0
M  V30 6231 C 572.82 -4.47151 0.58023 0
M  V30 6232 C 571.482 -4.72718 0.899528 0
M  V30 6233 C 573.834 -5.03137 1.36024 0
M  V30 6234 C 571.162 -5.51523 2.00098 0
M  V30 6235 C 573.514 -5.83145 2.45204 0
M  V30 6236 C 572.178 -6.07001 2.77679 0
M  V30 6237 H 571.448 -0.735938 -0.0864695 0
M  V30 6238 H 574.095 -1.85209 0.48683 0
M  V30 6239 H 572.4 -3.66413 -1.38739 0
M  V30 6240 H 574.097 -3.86901 -1.05397 0
M  V30 6241 H 570.687 -4.27394 0.321322 0
M  V30 6242 H 574.871 -4.83339 1.12682 0
M  V30 6243 H 570.127 -5.68229 2.25668 0
M  V30 6244 H 574.301 -6.25537 3.06067 0
M  V30 6245 H 571.928 -6.67851 3.63151 0
M  V30 6246 N 573.503 -0.0852151 -1.57369 0
M  V30 6247 C 574.433 0.874556 -2.16503 0
M  V30 6248 C 575.414 1.30111 -1.09568 0
M  V30 6249 O 576.599 1.36977 -1.37662 0
M  V30 6250 C 573.729 2.13731 -2.73745 0
M  V30 6251 C 572.683 1.84971 -3.85966 0
M  V30 6252 C 572.009 3.17991 -4.29867 0
M  V30 6253 C 573.309 1.14442 -5.09608 0
M  V30 6254 H 575.003 0.381899 -2.96954 0
M  V30 6255 H 572.549 0.18225 -1.42842 0
M  V30 6256 H 574.502 2.81302 -3.13763 0
M  V30 6257 H 573.226 2.65263 -1.90534 0
M  V30 6258 H 571.885 1.19801 -3.46473 0
M  V30 6259 H 571.533 3.6739 -3.4356 0
M  V30 6260 H 571.233 2.99534 -5.05523 0
M  V30 6261 H 572.757 3.86737 -4.72511 0
M  V30 6262 H 574.171 1.72105 -5.46857 0
M  V30 6263 H 572.568 1.06197 -5.90629 0
M  V30 6264 H 573.638 0.12559 -4.84737 0
M  V30 6265 N 574.981 1.5647 0.188427 0
M  V30 6266 C 576.206 1.85486 0.927891 0
M  V30 6267 C 576.631 0.669575 1.75779 0
M  V30 6268 O 575.989 -0.381573 1.77239 0
M  V30 6269 C 576.037 3.12784 1.7944 0
M  V30 6270 O 575.141 2.93805 2.894 0
M  V30 6271 H 574.482 0.610585 0.260925 0
M  V30 6272 H 577.012 2.037 0.191729 0
M  V30 6273 H 577.022 3.43749 2.19774 0
M  V30 6274 H 575.697 3.98671 1.18468 0
M  V30 6275 H 574.274 2.74153 2.52774 0
M  V30 6276 N 576.459 -0.456382 1.50847 0
M  V30 6277 C 577.87 -1.03685 1.55262 0
M  V30 6278 C 578.221 -1.92779 0.364771 0
M  V30 6279 O 577.346 -2.10043 -0.52068 0
M  V30 6280 C 577.941 -1.88718 2.81374 0
M  V30 6281 C 576.5 -2.41847 2.88422 0
M  V30 6282 C 575.647 -1.20564 2.49719 0
M  V30 6283 H 578.598 -0.238399 1.56899 0
M  V30 6284 H 578.619 -2.73957 2.6406 0
M  V30 6285 H 578.131 -1.23847 3.67809 0
M  V30 6286 H 576.232 -3.10228 2.06372 0
M  V30 6287 H 576.345 -2.75947 3.9165 0
M  V30 6288 H 574.709 -1.54504 2.02486 0
M  V30 6289 H 575.492 -0.573326 3.38479 0
M  V30 6290 N 577.937 -1.40673 -0.710563 0
M  V30 6291 C 578.869 -1.37256 -1.83558 0
M  V30 6292 C 579.882 -0.277133 -1.60424 0
M  V30 6293 O 581.071 -0.537831 -1.70205 0
M  V30 6294 C 578.171 -1.1144 -3.20054 0
M  V30 6295 C 577.344 -2.32734 -3.70342 0
M  V30 6296 C 576.403 -2.03002 -4.85465 0
M  V30 6297 O 575.429 -2.75912 -4.97857 0
M  V30 6298 N 576.631 -1.01105 -5.71627 0
M  V30 6299 H 579.396 -2.34215 -1.86985 0
M  V30 6300 H 576.957 -1.35091 -0.892301 0
M  V30 6301 H 578.949 -0.895265 -3.94673 0
M  V30 6302 H 577.519 -0.231307 -3.11743 0
M  V30 6303 H 576.739 -2.70446 -2.86798 0
M  V30 6304 H 578.027 -3.13584 -4.00678 0
M  V30 6305 H 577.425 -0.407303 -5.64232 0
M  V30 6306 H 575.982 -0.85182 -6.4621 0
M  V30 6307 N 579.415 0.9433 -1.26252 0
M  V30 6308 C 580.831 1.21644 -1.03319 0
M  V30 6309 C 581.031 2.0003 0.242983 0
M  V30 6310 O 580.087 2.33838 0.952688 0
M  V30 6311 C 581.4 1.97978 -2.2633 0
M  V30 6312 C 582.948 2.10978 -2.31209 0
M  V30 6313 C 583.423 2.90713 -3.53907 0
M  V30 6314 N 584.914 2.98287 -3.54371 0
M  V30 6315 C 585.649 3.60406 -4.45976 0
M  V30 6316 N 585.145 4.24043 -5.47868 0
M  V30 6317 N 586.938 3.57658 -4.33633 0
M  V30 6318 H 579.089 0.419221 -2.08222 0
M  V30 6319 H 581.352 0.247995 -0.914988 0
M  V30 6320 H 581.058 1.47788 -3.19142 0
M  V30 6321 H 580.932 2.9865 -2.30408 0
M  V30 6322 H 583.319 2.6036 -1.38913 0
M  V30 6323 H 583.4 1.09575 -2.31143 0
M  V30 6324 H 583.044 2.42018 -4.46531 0
M  V30 6325 H 582.974 3.92367 -3.5122 0
M  V30 6326 H 585.465 2.53044 -2.80673 0
M  V30 6327 H 585.778 4.69334 -6.13959 0
M  V30 6328 H 584.123 4.22637 -5.51728 0
M  V30 6329 H 587.314 3.07134 -3.53251 0
M  V30 6330 H 587.487 4.05782 -5.05218 0
M  V30 6331 N 580.893 1.08022 1.14757 0
M  V30 6332 C 582.17 0.720386 1.81851 0
M  V30 6333 C 582.55 -0.796375 1.95502 0
M  V30 6334 O 581.898 -1.71339 1.51179 0
M  V30 6335 C 582.108 1.44273 3.17783 0
M  V30 6336 C 583.456 1.59925 3.93331 0
M  V30 6337 O 584.48 1.40407 3.2736 0
M  V30 6338 O 583.339 1.92096 5.11626 0
M  V30 6339 H 580.433 0.257142 0.786007 0
M  V30 6340 H 582.979 1.18155 1.21809 0
M  V30 6341 H 581.751 2.47618 3.02987 0
M  V30 6342 H 581.374 0.97279 3.85516 0
M  V30 6343 N 582.371 -1.3172 0.865308 0
M  V30 6344 C 583.782 -1.79104 0.527126 0
M  V30 6345 C 584.133 -1.7135 -0.955695 0
M  V30 6346 O 583.258 -1.27845 -1.74598 0
M  V30 6347 C 583.853 -3.25207 0.950061 0
M  V30 6348 C 582.412 -3.70504 0.663611 0
M  V30 6349 C 581.559 -2.52605 1.14395 0
M  V30 6350 H 584.51 -1.18868 1.05148 0
M  V30 6351 H 584.531 -3.79535 0.270805 0
M  V30 6352 H 584.043 -3.30818 2.02931 0
M  V30 6353 H 582.144 -3.70398 -0.404474 0
M  V30 6354 H 582.257 -4.62845 1.23737 0
M  V30 6355 H 580.621 -2.4838 0.563859 0
M  V30 6356 H 581.404 -2.60964 2.23053 0
M  V30 6357 N 583.85 -0.624285 -1.44708 0
M  V30 6358 C 584.76 0.0861083 -2.34442 0
M  V30 6359 C 585.776 0.84291 -1.5222 0
M  V30 6360 O 586.952 0.796723 -1.84971 0
M  V30 6361 C 584.017 1.05999 -3.30099 0
M  V30 6362 C 583.077 0.303316 -4.28227 0
M  V30 6363 C 582.311 1.23081 -5.19314 0
M  V30 6364 O 582.534 2.46929 -5.14181 0
M  V30 6365 O 581.468 0.71883 -5.97592 0
M  V30 6366 H 585.293 -0.651756 -2.96624 0
M  V30 6367 H 582.879 -0.384493 -1.44368 0
M  V30 6368 H 584.76 1.62046 -3.88997 0
M  V30 6369 H 583.436 1.77859 -2.70459 0
M  V30 6370 H 582.343 -0.300033 -3.72895 0
M  V30 6371 H 583.676 -0.375123 -4.90768 0
M  V30 6372 N 585.328 1.53329 -0.364422 0
M  V30 6373 C 586.577 2.00421 0.226747 0
M  V30 6374 C 586.89 1.25581 1.49963 0
M  V30 6375 O 588.096 1.63256 2.16933 0
M  V30 6376 C 586.552 3.57017 0.454618 0
M  V30 6377 C 586.16 4.40734 -0.803568 0
M  V30 6378 C 587.904 4.12468 1.00351 0
M  V30 6379 C 585.811 5.8888 -0.545345 0
M  V30 6380 H 584.741 0.748787 0.0885082 0
M  V30 6381 H 587.392 1.7703 -0.482983 0
M  V30 6382 H 585.774 3.76558 1.22558 0
M  V30 6383 H 586.948 4.32967 -1.57723 0
M  V30 6384 H 585.263 3.96381 -1.27559 0
M  V30 6385 H 587.86 5.20783 1.212 0
M  V30 6386 H 588.203 3.6699 1.9653 0
M  V30 6387 H 588.736 3.96721 0.29274 0
M  V30 6388 H 585.475 6.38633 -1.47743 0
M  V30 6389 H 584.995 5.99499 0.189842 0
M  V30 6390 H 586.674 6.46776 -0.170425 0
M  V30 6391 N 586.806 0.0935595 1.57322 0
M  V30 6392 C 588.036 -0.578095 1.98347 0
M  V30 6393 C 588.444 -1.62357 0.971441 0
M  V30 6394 O 587.787 -1.83639 -0.0473959 0
M  V30 6395 C 587.849 -1.28525 3.3574 0
M  V30 6396 C 587.513 -0.390714 4.55327 0
M  V30 6397 C 588.51 0.360522 5.18648 0
M  V30 6398 C 586.195 -0.309221 5.01347 0
M  V30 6399 C 588.189 1.18125 6.26359 0
M  V30 6400 C 585.876 0.515157 6.08925 0
M  V30 6401 C 586.874 1.25904 6.71295 0
M  V30 6402 O 586.562 2.06978 7.76798 0
M  V30 6403 H 586.294 -0.159767 0.656849 0
M  V30 6404 H 588.848 0.169058 2.04703 0
M  V30 6405 H 587.078 -2.07894 3.26063 0
M  V30 6406 H 588.767 -1.85128 3.61223 0
M  V30 6407 H 589.533 0.307285 4.84026 0
M  V30 6408 H 585.412 -0.877881 4.52564 0
M  V30 6409 H 588.956 1.76236 6.74971 0
M  V30 6410 H 584.853 0.56988 6.42979 0
M  V30 6411 H 585.621 1.99644 7.93779 0
M  V30 6412 N 588.284 -1.56567 -0.180126 0
M  V30 6413 C 589.512 -1.85618 -0.913972 0
M  V30 6414 C 589.927 -0.677892 -1.7621 0
M  V30 6415 O 589.284 0.353171 -1.7905 0
M  V30 6416 C 589.335 -3.13619 -1.79793 0
M  V30 6417 O 589.056 -4.26906 -0.98402 0
M  V30 6418 C 590.557 -3.55954 -2.64219 0
M  V30 6419 H 587.777 -0.616043 -0.265954 0
M  V30 6420 H 590.321 -2.03681 -0.182872 0
M  V30 6421 H 588.476 -2.97409 -2.48247 0
M  V30 6422 H 588.89 -4.9989 -1.58776 0
M  V30 6423 H 590.364 -4.48444 -3.21873 0
M  V30 6424 H 590.841 -2.79653 -3.38661 0
M  V30 6425 H 591.447 -3.74746 -2.01111 0
M  V30 6426 N 589.762 0.448376 -1.51087 0
M  V30 6427 C 591.039 1.20926 -1.53741 0
M  V30 6428 C 591.419 2.09025 -0.295222 0
M  V30 6429 O 590.767 2.16851 0.720283 0
M  V30 6430 C 590.977 2.02067 -2.84552 0
M  V30 6431 C 592.325 2.59486 -3.36084 0
M  V30 6432 O 593.349 2.12289 -2.86028 0
M  V30 6433 O 592.208 3.45539 -4.23397 0
M  V30 6434 H 589.302 0.549951 -0.617643 0
M  V30 6435 H 591.848 0.458344 -1.63393 0
M  V30 6436 H 590.62 1.37291 -3.66425 0
M  V30 6437 H 590.243 2.84246 -2.78011 0
M  V30 6438 N 591.24 1.41047 0.703093 0
M  V30 6439 C 592.651 1.35657 1.28274 0
M  V30 6440 C 593.002 0.0360309 1.96167 0
M  V30 6441 O 592.127 -0.865833 1.98324 0
M  V30 6442 C 592.722 2.45707 2.33267 0
M  V30 6443 C 591.281 2.43738 2.86825 0
M  V30 6444 C 590.428 2.25941 1.60767 0
M  V30 6445 H 593.379 1.50672 0.49836 0
M  V30 6446 H 593.4 2.14333 3.14391 0
M  V30 6447 H 592.912 3.41805 1.83824 0
M  V30 6448 H 591.013 1.51375 3.40465 0
M  V30 6449 H 591.126 3.39779 3.37768 0
M  V30 6450 H 589.49 1.73681 1.86298 0
M  V30 6451 H 590.273 3.24054 1.1333 0
M  V30 6452 N 592.718 -0.936591 1.26751 0
M  V30 6453 C 593.628 -2.06949 1.10496 0
M  V30 6454 C 594.644 -1.7396 0.037271 0
M  V30 6455 O 595.82 -1.99941 0.241944 0
M  V30 6456 C 592.885 -3.38612 0.744491 0
M  V30 6457 C 591.946 -3.85355 1.89209 0
M  V30 6458 C 591.179 -5.10735 1.54873 0
M  V30 6459 O 591.402 -5.68602 0.452546 0
M  V30 6460 O 590.336 -5.52632 2.38499 0
M  V30 6461 H 594.162 -2.23571 2.05547 0
M  V30 6462 H 591.747 -1.05428 1.05855 0
M  V30 6463 H 593.629 -4.17711 0.556396 0
M  V30 6464 H 592.304 -3.23218 -0.176582 0
M  V30 6465 H 591.211 -3.07182 2.13518 0
M  V30 6466 H 592.544 -4.05277 2.79305 0
M  V30 6467 N 594.196 -1.08629 -1.14182 0
M  V30 6468 C 595.442 -0.818556 -1.85546 0
M  V30 6469 C 595.775 0.654076 -1.82854 0
M  V30 6470 O 595.05 1.48099 -1.26083 0
M  V30 6471 C 595.333 -1.34397 -3.3408 0
M  V30 6472 C 595.186 -2.8821 -3.45333 0
M  V30 6473 C 596.505 -0.971069 -4.29253 0
M  V30 6474 H 593.624 -0.298821 -0.673702 0
M  V30 6475 H 596.266 -1.34629 -1.34071 0
M  V30 6476 H 594.416 -0.895064 -3.78049 0
M  V30 6477 H 596.088 -3.41488 -3.10134 0
M  V30 6478 H 594.331 -3.25756 -2.86471 0
M  V30 6479 H 595.002 -3.20047 -4.49749 0
M  V30 6480 H 597.478 -1.35809 -3.93313 0
M  V30 6481 H 596.354 -1.36586 -5.31635 0
M  V30 6482 H 596.615 0.121659 -4.41933 0
M  V30 6483 N 595.674 1.31259 -0.872281 0
M  V30 6484 C 596.921 1.96622 -0.484365 0
M  V30 6485 C 597.249 1.68939 0.963841 0
M  V30 6486 O 596.504 0.97974 1.6941 0
M  V30 6487 C 596.803 3.50659 -0.690889 0
M  V30 6488 C 596.469 3.98366 -2.11224 0
M  V30 6489 C 595.131 4.11104 -2.50094 0
M  V30 6490 C 597.483 4.23425 -3.0391 0
M  V30 6491 C 594.811 4.46254 -3.80887 0
M  V30 6492 C 597.163 4.60039 -4.3422 0
M  V30 6493 C 595.827 4.70984 -4.73001 0
M  V30 6494 H 595.097 0.71949 -0.177242 0
M  V30 6495 H 597.744 1.56353 -1.10571 0
M  V30 6496 H 596.049 3.91798 0.0135782 0
M  V30 6497 H 597.746 3.99284 -0.370534 0
M  V30 6498 H 594.336 3.88949 -1.80047 0
M  V30 6499 H 598.52 4.13075 -2.75104 0
M  V30 6500 H 593.776 4.52926 -4.10692 0
M  V30 6501 H 597.95 4.78381 -5.06088 0
M  V30 6502 H 595.577 4.97977 -5.7439 0
M  V30 6503 N 597.152 0.631951 1.44375 0
M  V30 6504 C 598.099 -0.0724807 2.30686 0
M  V30 6505 C 599.069 -0.835975 1.43529 0
M  V30 6506 O 600.254 -0.816849 1.7243 0
M  V30 6507 C 597.394 -1.04753 3.28817 0
M  V30 6508 C 596.507 -0.282367 4.31076 0
M  V30 6509 C 595.642 -1.2493 5.163 0
M  V30 6510 C 594.681 -0.473349 6.10267 0
M  V30 6511 N 593.818 -1.39079 6.88187 0
M  V30 6512 H 598.658 0.669477 2.90383 0
M  V30 6513 H 596.195 0.341927 1.43071 0
M  V30 6514 H 598.153 -1.62623 3.842 0
M  V30 6515 H 596.783 -1.75661 2.70819 0
M  V30 6516 H 595.835 0.412268 3.78159 0
M  V30 6517 H 597.147 0.321955 4.9776 0
M  V30 6518 H 596.301 -1.89931 5.76204 0
M  V30 6519 H 595.04 -1.88755 4.49692 0
M  V30 6520 H 594.045 0.190142 5.49471 0
M  V30 6521 H 595.27 0.16019 6.78911 0
M  V30 6522 H 593.216 -2.01623 6.24247 0
M  V30 6523 H 593.133 -0.840513 7.51313 0
M  V30 6524 H 594.401 -2.02961 7.52613 0
M  V30 6525 N 598.631 -1.53133 0.372548 0
M  V30 6526 C 599.861 -2.05476 -0.215202 0
M  V30 6527 C 600.269 -1.24534 -1.42436 0
M  V30 6528 O 599.612 -0.280771 -1.81542 0
M  V30 6529 C 599.674 -3.53276 -0.666068 0
M  V30 6530 C 599.338 -4.54998 0.427342 0
M  V30 6531 C 600.335 -5.03911 1.27944 0
M  V30 6532 C 598.02 -4.98828 0.589579 0
M  V30 6533 C 600.014 -5.95263 2.27905 0
M  V30 6534 C 597.701 -5.89984 1.59255 0
M  V30 6535 C 598.699 -6.38093 2.43571 0
M  V30 6536 O 598.387 -7.27451 3.42156 0
M  V30 6537 H 598.119 -0.67481 -0.040099 0
M  V30 6538 H 600.673 -1.98409 0.531312 0
M  V30 6539 H 598.903 -3.57904 -1.4643 0
M  V30 6540 H 600.592 -3.88442 -1.1776 0
M  V30 6541 H 601.358 -4.70792 1.16532 0
M  V30 6542 H 597.237 -4.60965 -0.0569456 0
M  V30 6543 H 600.781 -6.32736 2.93753 0
M  V30 6544 H 596.678 -6.22518 1.70711 0
M  V30 6545 H 597.446 -7.45467 3.37967 0
M  V30 6546 N 600.109 -0.101901 -1.5727 0
M  V30 6547 C 601.057 0.872034 -2.15635 0
M  V30 6548 C 602.051 1.28742 -1.10099 0
M  V30 6549 O 603.257 1.26116 -1.28432 0
M  V30 6550 H 599.632 0.299269 -0.689886 0
M  V30 6551 H 601.603 0.355137 -2.96279 0
M  V30 6552 C 600.352 2.11886 -2.7568 0
M  V30 6553 H 599.675 1.80813 -3.56576 0
M  V30 6554 H 601.115 2.78077 -3.20077 0
M  V30 6555 C 599.574 2.89739 -1.7191 0
M  V30 6556 O 600.104 3.84522 -1.16213 0
M  V30 6557 N 598.31 2.53407 -1.42245 0
M  V30 6558 H 597.857 1.76398 -1.87727 0
M  V30 6559 H 597.815 3.05795 -0.730529 0
M  V30 6560 N 601.587 1.56661 0.17182 0
M  V30 6561 C 603.003 1.50768 0.52357 0
M  V30 6562 C 603.203 0.806072 1.84675 0
M  V30 6563 O 602.259 0.366233 2.4983 0
M  V30 6564 C 603.572 2.955 0.556793 0
M  V30 6565 C 605.12 3.06303 0.644029 0
M  V30 6566 C 605.595 4.52492 0.708148 0
M  V30 6567 N 607.086 4.56737 0.771051 0
M  V30 6568 C 607.821 5.67196 0.841229 0
M  V30 6569 N 607.317 6.87287 0.872272 0
M  V30 6570 N 609.11 5.55165 0.88021 0
M  V30 6571 H 601.261 2.00679 -0.695817 0
M  V30 6572 H 603.524 0.914219 -0.250814 0
M  V30 6573 H 603.23 3.49986 -0.346774 0
M  V30 6574 H 603.104 3.50119 1.40346 0
M  V30 6575 H 605.491 2.51851 1.53802 0
M  V30 6576 H 605.572 2.5477 -0.229297 0
M  V30 6577 H 605.216 5.07575 -0.181585 0
M  V30 6578 H 605.146 5.01781 1.59761 0
M  V30 6579 H 607.637 3.70274 0.755364 0
M  V30 6580 H 607.95 7.6722 0.92698 0
M  V30 6581 H 606.295 6.89898 0.840557 0
M  V30 6582 H 609.486 4.60263 0.852956 0
M  V30 6583 H 609.659 6.41271 0.931439 0
M  V30 6584 N 603.065 -0.440357 1.51323 0
M  V30 6585 C 604.312 -1.19004 1.63842 0
M  V30 6586 C 604.64 -1.91266 0.35321 0
M  V30 6587 O 603.895 -1.84143 -0.662565 0
M  V30 6588 C 604.194 -2.2339 2.78984 0
M  V30 6589 C 603.86 -1.68162 4.18369 0
M  V30 6590 C 602.522 -1.52823 4.56288 0
M  V30 6591 C 604.874 -1.27524 5.05358 0
M  V30 6592 C 602.202 -0.953157 5.78906 0
M  V30 6593 C 604.554 -0.714474 6.28552 0
M  V30 6594 C 603.218 -0.547961 6.65247 0
M  V30 6595 H 602.488 -0.435468 0.59954 0
M  V30 6596 H 605.135 -0.481538 1.85347 0
M  V30 6597 H 603.44 -3.00267 2.51688 0
M  V30 6598 H 605.137 -2.81211 2.85869 0
M  V30 6599 H 601.727 -1.81077 3.8847 0
M  V30 6600 H 605.911 -1.38197 4.76671 0
M  V30 6601 H 601.167 -0.811882 6.05986 0
M  V30 6602 H 605.341 -0.391059 6.95301 0
M  V30 6603 H 602.968 -0.100222 7.60134 0
M  V30 6604 N 604.543 -1.41418 -0.695603 0
M  V30 6605 C 605.473 -1.46035 -1.82197 0
M  V30 6606 C 606.454 -0.319025 -1.67082 0
M  V30 6607 O 607.639 -0.530462 -1.86815 0
M  V30 6608 C 604.769 -1.34179 -3.20333 0
M  V30 6609 C 603.723 -2.46123 -3.50154 0
M  V30 6610 C 603.049 -2.19332 -4.87645 0
M  V30 6611 C 604.349 -3.88463 -3.49133 0
M  V30 6612 H 606.043 -2.40303 -1.78591 0
M  V30 6613 H 603.589 -1.15663 -0.857797 0
M  V30 6614 H 605.542 -1.36021 -3.98844 0
M  V30 6615 H 604.266 -0.363952 -3.24566 0
M  V30 6616 H 602.925 -2.43563 -2.73994 0
M  V30 6617 H 602.573 -1.19891 -4.88503 0
M  V30 6618 H 602.273 -2.94344 -5.08562 0
M  V30 6619 H 603.797 -2.22889 -5.68465 0
M  V30 6620 H 605.211 -3.92738 -4.17648 0
M  V30 6621 H 603.608 -4.63158 -3.81582 0
M  V30 6622 H 604.678 -4.16617 -2.48109 0
M  V30 6623 N 606.021 0.929856 -1.27246 0
M  V30 6624 C 606.969 2.05151 -1.09616 0
M  V30 6625 C 607.963 1.69388 -0.0198617 0
M  V30 6626 O 609.169 1.79124 -0.177417 0
M  V30 6627 H 605.544 0.671909 -0.337701 0
M  V30 6628 H 607.515 2.17168 -2.04648 0
M  V30 6629 C 606.264 3.3934 -0.757851 0
M  V30 6630 H 605.587 3.67343 -1.57795 0
M  V30 6631 H 607.027 4.18603 -0.674358 0
M  V30 6632 C 605.486 3.32582 0.537658 0
M  V30 6633 O 606.016 3.69633 1.57271 0
M  V30 6634 N 604.222 2.8568 0.532478 0
M  V30 6635 H 603.769 2.55725 -0.310233 0
M  V30 6636 H 603.727 2.81541 1.39936 0
M  V30 6637 N 607.499 1.09233 1.13605 0
M  V30 6638 C 608.91 0.846839 1.6639 0
M  V30 6639 C 609.261 -0.625031 1.85978 0
M  V30 6640 O 608.386 -1.48173 1.57714 0
M  V30 6641 C 608.981 1.5307 3.0225 0
M  V30 6642 C 607.54 1.33223 3.52035 0
M  V30 6643 C 606.687 1.58806 2.27323 0
M  V30 6644 H 609.638 1.25175 0.975541 0
M  V30 6645 H 609.659 0.96267 3.68121 0
M  V30 6646 H 609.171 2.60192 2.87961 0
M  V30 6647 H 607.272 0.282091 3.71531 0
M  V30 6648 H 607.385 2.0657 4.32279 0
M  V30 6649 H 605.749 1.01007 2.33815 0
M  V30 6650 H 606.532 2.67153 2.15602 0
M  V30 6651 N 608.977 -1.30795 0.87923 0
M  V30 6652 C 610.254 -1.91145 0.415086 0
M  V30 6653 C 610.634 -1.7995 -1.10368 0
M  V30 6654 O 609.982 -1.21305 -1.93642 0
M  V30 6655 C 610.192 -3.37014 0.906778 0
M  V30 6656 C 611.54 -4.14101 0.938358 0
M  V30 6657 O 612.564 -3.45834 0.853053 0
M  V30 6658 O 611.423 -5.36054 1.06342 0
M  V30 6659 H 608.517 -0.81736 0.125905 0
M  V30 6660 H 611.063 -1.39401 0.967753 0
M  V30 6661 H 609.835 -3.3922 1.95053 0
M  V30 6662 H 609.458 -3.96204 0.332948 0
M  V30 6663 N 610.455 -0.639598 -1.44038 0
M  V30 6664 C 611.703 -0.147188 -2.01563 0
M  V30 6665 C 612.024 1.2384 -1.50628 0
M  V30 6666 O 611.294 1.82452 -0.713316 0
M  V30 6667 H 609.874 -0.0514231 -0.745228 0
M  V30 6668 H 612.536 -0.828205 -1.76428 0
M  V30 6669 H 611.632 -0.121358 -3.11864 0
M  V30 6670 N 611.933 1.52934 -0.380664 0
M  V30 6671 C 613.158 2.06363 0.207157 0
M  V30 6672 C 613.583 1.25122 1.4045 0
M  V30 6673 O 612.941 0.274062 1.79217 0
M  V30 6674 C 612.989 3.56162 0.563996 0
M  V30 6675 O 612.093 3.77552 1.65917 0
M  V30 6676 H 611.434 0.663468 0.0265859 0
M  V30 6677 H 613.964 1.9719 -0.545635 0
M  V30 6678 H 613.974 3.99453 0.830752 0
M  V30 6679 H 612.649 4.14732 -0.311427 0
M  V30 6680 H 611.226 3.46154 1.3868 0
M  V30 6681 N 613.412 0.11024 1.57214 0
M  V30 6682 C 614.322 -0.857077 2.18383 0
M  V30 6683 C 615.338 -1.29915 1.1575 0
M  V30 6684 O 616.514 -1.36394 1.48184 0
M  V30 6685 C 613.579 -2.09264 2.76423 0
M  V30 6686 C 612.64 -1.70333 3.94063 0
M  V30 6687 C 611.873 -2.87999 4.49324 0
M  V30 6688 O 612.096 -4.0317 4.03497 0
M  V30 6689 O 611.03 -2.6559 5.40135 0
M  V30 6690 H 614.856 -0.366561 3.0148 0
M  V30 6691 H 612.441 -0.114914 1.48957 0
M  V30 6692 H 614.323 -2.81644 3.13456 0
M  V30 6693 H 612.998 -2.57339 1.96363 0
M  V30 6694 H 611.905 -0.950864 3.61814 0
M  V30 6695 H 613.238 -1.27007 4.75531 0
M  V30 6696 N 614.89 -1.56749 -0.16351 0
M  V30 6697 C 615.837 -1.97011 -1.2023 0
M  V30 6698 C 616.807 -0.835186 -1.43575 0
M  V30 6699 O 617.992 -1.09594 -1.56185 0
M  V30 6700 C 615.132 -2.34186 -2.53478 0
M  V30 6701 C 614.245 -3.60893 -2.37446 0
M  V30 6702 C 613.38 -3.87245 -3.63614 0
M  V30 6703 C 612.419 -5.07274 -3.42548 0
M  V30 6704 N 611.556 -5.29719 -4.60806 0
M  V30 6705 H 616.396 -2.85562 -0.851958 0
M  V30 6706 H 613.933 -1.41292 -0.409257 0
M  V30 6707 H 615.891 -2.53764 -3.31149 0
M  V30 6708 H 614.521 -1.48736 -2.86492 0
M  V30 6709 H 613.573 -3.49185 -1.50911 0
M  V30 6710 H 614.885 -4.48722 -2.1783 0
M  V30 6711 H 614.039 -4.07232 -4.49719 0
M  V30 6712 H 612.778 -2.97806 -3.86216 0
M  V30 6713 H 611.783 -4.87177 -2.5483 0
M  V30 6714 H 613.008 -5.98251 -3.2136 0
M  V30 6715 H 610.954 -4.43233 -4.83612 0
M  V30 6716 H 610.871 -6.11786 -4.44132 0
M  V30 6717 H 612.139 -5.54192 -5.48171 0
M  V30 6718 N 616.368 0.432326 -1.51554 0
M  V30 6719 C 617.315 1.52512 -1.7323 0
M  V30 6720 C 618.285 1.55863 -0.5741 0
M  V30 6721 O 619.47 1.72796 -0.809093 0
M  V30 6722 C 616.61 2.90183 -1.86783 0
M  V30 6723 C 615.723 2.96322 -3.14352 0
M  V30 6724 C 614.858 4.25147 -3.18471 0
M  V30 6725 C 613.897 4.25172 -4.40335 0
M  V30 6726 N 613.034 5.45529 -4.41975 0
M  V30 6727 H 617.874 1.33332 -2.66508 0
M  V30 6728 H 615.411 0.647613 -1.32077 0
M  V30 6729 H 617.369 3.70071 -1.92623 0
M  V30 6730 H 615.999 3.0791 -0.969087 0
M  V30 6731 H 615.051 2.09066 -3.17798 0
M  V30 6732 H 616.363 2.92203 -4.04251 0
M  V30 6733 H 615.517 5.13411 -3.23255 0
M  V30 6734 H 614.256 4.31929 -2.2647 0
M  V30 6735 H 613.261 3.353 -4.35723 0
M  V30 6736 H 614.486 4.20049 -5.33606 0
M  V30 6737 H 612.432 5.53024 -3.52847 0
M  V30 6738 H 612.349 5.43311 -5.25689 0
M  V30 6739 H 613.617 6.35812 -4.50958 0
M  V30 6740 N 617.846 1.41785 0.688094 0
M  V30 6741 C 619.123 1.32031 1.44316 0
M  V30 6742 C 619.503 -0.0486079 2.11044 0
M  V30 6743 O 618.851 -1.06332 2.02252 0
M  V30 6744 C 619.061 2.47906 2.45649 0
M  V30 6745 C 620.409 2.89415 3.10683 0
M  V30 6746 O 621.433 2.477 2.55975 0
M  V30 6747 O 620.292 3.61573 4.09789 0
M  V30 6748 H 617.386 0.519994 0.643067 0
M  V30 6749 H 619.932 1.53765 0.71794 0
M  V30 6750 H 618.704 3.39222 1.95048 0
M  V30 6751 H 618.327 2.28089 3.25671 0
M  V30 6752 N 619.324 -0.923095 1.27737 0
M  V30 6753 C 620.571 -1.67127 1.14345 0
M  V30 6754 C 620.899 -1.92017 -0.30982 0
M  V30 6755 O 620.154 -1.51185 -1.24264 0
M  V30 6756 C 620.453 -3.04125 1.8773 0
M  V30 6757 C 620.119 -2.98929 3.37568 0
M  V30 6758 C 618.781 -2.9722 3.78436 0
M  V30 6759 C 621.133 -2.89875 4.33154 0
M  V30 6760 C 618.461 -2.84244 5.13247 0
M  V30 6761 C 620.813 -2.7844 5.68026 0
M  V30 6762 C 619.477 -2.75083 6.08182 0
M  V30 6763 H 618.747 -0.611562 0.418417 0
M  V30 6764 H 621.394 -1.07618 1.584 0
M  V30 6765 H 619.699 -3.67366 1.36196 0
M  V30 6766 H 621.396 -3.609 1.74792 0
M  V30 6767 H 617.986 -3.0105 3.05069 0
M  V30 6768 H 622.17 -2.9029 4.02548 0
M  V30 6769 H 617.426 -2.80034 5.43499 0
M  V30 6770 H 621.6 -2.70401 6.4176 0
M  V30 6771 H 619.227 -2.64786 7.12596 0
M  V30 6772 N 620.802 -1.09834 -1.13024 0
M  V30 6773 C 622.032 -0.857657 -1.87957 0
M  V30 6774 C 622.44 0.595008 -1.796 0
M  V30 6775 O 621.783 1.42158 -1.16347 0
M  V30 6776 C 621.845 -1.21949 -3.38185 0
M  V30 6777 C 621.509 -2.67791 -3.7032 0
M  V30 6778 C 622.506 -3.66036 -3.69207 0
M  V30 6779 C 620.191 -3.04019 -3.99847 0
M  V30 6780 C 622.185 -4.98533 -3.9717 0
M  V30 6781 C 619.872 -4.36706 -4.27471 0
M  V30 6782 C 620.87 -5.33772 -4.26118 0
M  V30 6783 O 620.558 -6.64072 -4.53061 0
M  V30 6784 H 620.29 -0.308009 -0.601753 0
M  V30 6785 H 622.844 -1.46496 -1.43973 0
M  V30 6786 H 621.074 -0.555249 -3.82693 0
M  V30 6787 H 622.763 -0.957281 -3.9445 0
M  V30 6788 H 623.529 -3.39392 -3.46465 0
M  V30 6789 H 619.408 -2.29096 -4.00045 0
M  V30 6790 H 622.952 -5.74288 -3.96029 0
M  V30 6791 H 618.849 -4.63091 -4.49685 0
M  V30 6792 H 619.617 -6.69608 -4.7071 0
M  V30 6793 N 622.28 1.30327 -0.886154 0
M  V30 6794 C 623.227 2.28099 -0.352069 0
M  V30 6795 C 624.197 1.56433 0.558397 0
M  V30 6796 O 625.382 1.84492 0.486561 0
M  V30 6797 C 622.522 3.42456 0.426346 0
M  V30 6798 C 621.635 4.28938 -0.513472 0
M  V30 6799 C 620.77 5.30458 0.280657 0
M  V30 6800 C 619.809 6.0859 -0.654556 0
M  V30 6801 N 618.946 7.02022 0.104322 0
M  V30 6802 H 623.786 2.73166 -1.19097 0
M  V30 6803 H 621.323 1.34367 -0.598662 0
M  V30 6804 H 623.281 4.07518 0.893587 0
M  V30 6805 H 621.911 2.98455 1.22981 0
M  V30 6806 H 620.963 3.64173 -1.09921 0
M  V30 6807 H 622.275 4.83399 -1.2299 0
M  V30 6808 H 621.429 6.01273 0.8097 0
M  V30 6809 H 620.168 4.76693 1.03029 0
M  V30 6810 H 619.173 5.36651 -1.19522 0
M  V30 6811 H 620.398 6.64443 -1.4033 0
M  V30 6812 H 618.344 6.50645 0.836472 0
M  V30 6813 H 618.261 7.53979 -0.552453 0
M  V30 6814 H 619.529 7.77077 0.614069 0
M  V30 6815 N 623.758 0.647228 1.43697 0
M  V30 6816 C 625.035 0.0883758 1.954 0
M  V30 6817 C 625.415 -1.39006 1.58873 0
M  V30 6818 O 624.763 -2.11255 0.87083 0
M  V30 6819 C 624.973 0.328263 3.47453 0
M  V30 6820 C 626.321 0.230009 4.23977 0
M  V30 6821 O 627.345 0.260496 3.55246 0
M  V30 6822 O 626.204 0.148615 5.46298 0
M  V30 6823 H 623.298 -0.0130683 0.826897 0
M  V30 6824 H 625.844 0.72005 1.53666 0
M  V30 6825 H 624.616 1.3535 3.67146 0
M  V30 6826 H 624.239 -0.336772 3.96171 0
M  V30 6827 N 625.236 -1.5273 0.388769 0
M  V30 6828 C 626.484 -2.01174 -0.193208 0
M  V30 6829 C 626.805 -1.27705 -1.47365 0
M  V30 6830 O 626.075 -0.396966 -1.91836 0
M  V30 6831 H 624.655 -0.743287 -0.0743871 0
M  V30 6832 H 627.317 -1.87826 0.520336 0
M  V30 6833 H 626.413 -3.09477 -0.403803 0
M  V30 6834 N 626.714 -0.118576 -1.57153 0
M  V30 6835 C 627.661 0.831789 -2.1529 0
M  V30 6836 C 628.631 1.26385 -1.07778 0
M  V30 6837 O 629.816 1.34144 -1.35684 0
M  V30 6838 C 626.956 2.07664 -2.75626 0
M  V30 6839 C 626.069 1.69298 -3.97444 0
M  V30 6840 C 625.204 2.88747 -4.45868 0
M  V30 6841 C 624.243 2.46619 -5.60219 0
M  V30 6842 N 623.38 3.5898 -6.03389 0
M  V30 6843 H 628.22 0.329183 -2.96176 0
M  V30 6844 H 625.757 0.150792 -1.46325 0
M  V30 6845 H 627.715 2.80601 -3.08738 0
M  V30 6846 H 626.345 2.55384 -1.97431 0
M  V30 6847 H 625.397 0.862374 -3.70496 0
M  V30 6848 H 626.709 1.34338 -4.80369 0
M  V30 6849 H 625.863 3.69909 -4.80887 0
M  V30 6850 H 624.602 3.26933 -3.61892 0
M  V30 6851 H 623.607 1.63889 -5.24805 0
M  V30 6852 H 624.832 2.0955 -6.45961 0
M  V30 6853 H 622.778 3.9684 -5.22354 0
M  V30 6854 H 622.695 3.27942 -6.81168 0
M  V30 6855 H 623.963 4.40583 -6.43045 0
M  V30 6856 N 628.193 1.56834 0.155195 0
M  V30 6857 C 629.609 1.51315 0.50755 0
M  V30 6858 C 629.809 0.825614 1.83809 0
M  V30 6859 O 628.865 0.39271 2.49427 0
M  V30 6860 C 630.178 2.96074 0.52542 0
M  V30 6861 C 631.726 3.06968 0.611505 0
M  V30 6862 C 632.201 4.53218 0.660115 0
M  V30 6863 N 633.692 4.5753 0.722564 0
M  V30 6864 C 634.427 5.68056 0.781023 0
M  V30 6865 N 633.923 6.88173 0.799327 0
M  V30 6866 N 635.716 5.56068 0.821278 0
M  V30 6867 H 627.867 1.9993 -0.717063 0
M  V30 6868 H 630.13 0.911507 -0.260496 0
M  V30 6869 H 629.836 3.49599 -0.383875 0
M  V30 6870 H 629.71 3.51587 1.36624 0
M  V30 6871 H 632.097 2.53468 1.51122 0
M  V30 6872 H 632.178 2.54513 -0.256306 0
M  V30 6873 H 631.822 5.07354 -0.23541 0
M  V30 6874 H 631.752 5.03447 1.5443 0
M  V30 6875 H 634.243 3.71054 0.716049 0
M  V30 6876 H 634.556 7.6816 0.845553 0
M  V30 6877 H 632.901 6.90751 0.767337 0
M  V30 6878 H 636.092 4.61142 0.804091 0
M  V30 6879 H 636.265 6.42223 0.863372 0
M  V30 6880 N 629.671 -0.424282 1.51781 0
M  V30 6881 C 630.601 -1.52305 1.7699 0
M  V30 6882 C 631.582 -1.5839 0.620209 0
M  V30 6883 O 632.767 -1.73908 0.864268 0
M  V30 6884 C 629.897 -2.90271 1.90683 0
M  V30 6885 C 628.851 -2.99043 3.06198 0
M  V30 6886 C 628.177 -4.39116 3.05092 0
M  V30 6887 C 629.477 -2.7192 4.45934 0
M  V30 6888 H 631.171 -1.31461 2.68995 0
M  V30 6889 H 628.717 -0.630985 1.29439 0
M  V30 6890 H 630.67 -3.6711 2.06901 0
M  V30 6891 H 629.394 -3.12376 0.953365 0
M  V30 6892 H 628.053 -2.24646 2.89706 0
M  V30 6893 H 627.701 -4.58207 2.07498 0
M  V30 6894 H 627.401 -4.45912 3.82669 0
M  V30 6895 H 628.925 -5.17911 3.2342 0
M  V30 6896 H 630.339 -3.38487 4.62709 0
M  V30 6897 H 628.736 -2.90111 5.25315 0
M  V30 6898 H 629.806 -1.67445 4.55072 0
M  V30 6899 N 631.149 -1.42148 -0.680565 0
M  V30 6900 C 632.096 -1.45175 -1.79424 0
M  V30 6901 C 633.066 -0.304352 -1.63288 0
M  V30 6902 O 634.251 -0.507591 -1.83924 0
M  V30 6903 C 631.391 -1.35429 -3.17416 0
M  V30 6904 C 630.504 -2.60158 -3.4488 0
M  V30 6905 C 629.639 -2.42596 -4.72568 0
M  V30 6906 C 628.678 -3.62727 -4.93047 0
M  V30 6907 N 627.815 -3.44143 -6.11973 0
M  V30 6908 H 632.655 -2.40349 -1.76172 0
M  V30 6909 H 630.192 -1.19334 -0.860107 0
M  V30 6910 H 632.15 -1.27777 -3.97151 0
M  V30 6911 H 630.78 -0.438536 -3.19807 0
M  V30 6912 H 629.832 -2.78199 -2.5944 0
M  V30 6913 H 631.144 -3.49473 -3.55908 0
M  V30 6914 H 630.298 -2.32497 -5.60384 0
M  V30 6915 H 629.037 -1.50761 -4.63813 0
M  V30 6916 H 628.042 -3.73264 -4.03676 0
M  V30 6917 H 629.267 -4.55534 -5.03652 0
M  V30 6918 H 627.213 -2.5502 -6.04401 0
M  V30 6919 H 627.13 -4.27041 -6.23836 0
M  V30 6920 H 628.398 -3.37845 -7.02482 0
M  V30 6921 N 632.627 0.916307 -1.28225 0
M  V30 6922 C 633.575 2.03977 -1.11786 0
M  V30 6923 C 634.569 1.69358 -0.0378265 0
M  V30 6924 O 635.775 1.78925 -0.196405 0
M  V30 6925 H 632.15 0.66829 -0.344809 0
M  V30 6926 H 634.121 2.14985 -2.06939 0
M  V30 6927 C 632.87 3.38518 -0.7938 0
M  V30 6928 H 632.193 3.65649 -1.61682 0
M  V30 6929 H 633.633 4.17864 -0.718719 0
M  V30 6930 C 632.092 3.33134 0.502353 0
M  V30 6931 O 632.622 3.71281 1.53341 0
M  V30 6932 N 630.828 2.86229 0.502147 0
M  V30 6933 H 630.375 2.55382 -0.337338 0
M  V30 6934 H 630.333 2.83009 1.36942 0
M  V30 6935 N 634.105 1.10431 1.1244 0
M  V30 6936 C 635.335 0.867612 1.87499 0
M  V30 6937 C 635.743 -0.585475 1.79913 0
M  V30 6938 O 635.086 -1.41539 1.171 0
M  V30 6939 C 635.148 1.2374 3.37533 0
M  V30 6940 C 634.812 2.69751 3.68895 0
M  V30 6941 C 635.809 3.67988 3.67261 0
M  V30 6942 C 633.494 3.06135 3.98229 0
M  V30 6943 C 635.488 5.00632 3.9452 0
M  V30 6944 C 633.175 4.38967 4.25149 0
M  V30 6945 C 634.173 5.36025 4.23281 0
M  V30 6946 O 633.861 6.66465 4.49533 0
M  V30 6947 H 633.593 0.311196 0.600111 0
M  V30 6948 H 636.147 1.47257 1.43194 0
M  V30 6949 H 634.377 0.575537 3.82393 0
M  V30 6950 H 636.066 0.978187 3.93937 0
M  V30 6951 H 636.832 3.41224 3.44661 0
M  V30 6952 H 632.711 2.31214 3.98825 0
M  V30 6953 H 636.255 5.7638 3.92978 0
M  V30 6954 H 632.152 4.6547 4.47223 0
M  V30 6955 H 632.92 6.72095 4.67152 0
M  V30 6956 N 635.583 -1.29855 0.893053 0
M  V30 6957 C 636.531 -2.29867 0.355512 0
M  V30 6958 C 637.525 -1.60502 -0.541801 0
M  V30 6959 O 638.731 -1.74902 -0.425339 0
M  V30 6960 H 635.106 -0.745805 0.0963247 0
M  V30 6961 H 637.077 -2.72655 1.21252 0
M  V30 6962 C 635.826 -3.453 -0.407801 0
M  V30 6963 H 635.149 -3.98864 0.273426 0
M  V30 6964 H 636.589 -4.17334 -0.748887 0
M  V30 6965 C 635.048 -2.96051 -1.60795 0
M  V30 6966 O 635.578 -2.96763 -2.7073 0
M  V30 6967 N 633.784 -2.51963 -1.44786 0
M  V30 6968 H 633.331 -2.51583 -0.553498 0
M  V30 6969 H 633.289 -2.1937 -2.2522 0
M  V30 6970 N 637.061 -0.65484 -1.43351 0
M  V30 6971 C 637.994 0.0855537 -2.2804 0
M  V30 6972 C 638.972 0.828301 -1.39921 0
M  V30 6973 O 640.156 0.827539 -1.69364 0
M  V30 6974 C 637.283 1.12792 -3.19368 0
M  V30 6975 C 636.329 0.483037 -4.23756 0
M  V30 6976 S 637.162 -0.744605 -5.30298 0
M  V30 6977 C 638.318 0.297187 -6.25194 0
M  V30 6978 H 638.551 -0.632831 -2.90487 0
M  V30 6979 H 636.084 -0.44373 -1.47886 0
M  V30 6980 H 638.042 1.7243 -3.72529 0
M  V30 6981 H 636.703 1.81863 -2.56095 0
M  V30 6982 H 635.896 1.26888 -4.87766 0
M  V30 6983 H 635.498 -0.0392713 -3.73979 0
M  V30 6984 H 637.79 1.1629 -6.67445 0
M  V30 6985 H 638.733 -0.30793 -7.0743 0
M  V30 6986 H 639.141 0.633721 -5.60932 0
M  V30 6987 N 638.539 1.52521 -0.396863 0
M  V30 6988 C 639.95 1.86547 0.0754868 0
M  V30 6989 C 640.301 1.31621 1.45501 0
M  V30 6990 O 639.426 0.650563 2.0639 0
M  V30 6991 C 640.021 3.38495 0.143754 0
M  V30 6992 C 638.58 3.72205 0.560413 0
M  V30 6993 C 637.727 2.75954 -0.272856 0
M  V30 6994 H 640.678 1.46323 -0.614434 0
M  V30 6995 H 640.699 3.68153 0.961425 0
M  V30 6996 H 640.211 3.78442 -0.860415 0
M  V30 6997 H 638.312 3.3783 1.57167 0
M  V30 6998 H 638.425 4.78074 0.313314 0
M  V30 6999 H 636.789 2.53339 0.263 0
M  V30 7000 H 637.572 3.1874 -1.27515 0
M  V30 7001 N 640.017 0.126909 1.57088 0
M  V30 7002 C 641.263 -0.523662 1.96543 0
M  V30 7003 C 641.618 -1.63783 1.0096 0
M  V30 7004 O 640.911 -1.91556 0.0410175 0
M  V30 7005 C 641.105 -1.095 3.40212 0
M  V30 7006 C 640.934 -0.037715 4.49684 0
M  V30 7007 C 639.704 0.396823 5.03739 0
M  V30 7008 C 641.902 0.746245 5.08857 0
M  V30 7009 N 639.884 1.43905 5.96795 0
M  V30 7010 C 641.255 1.63947 5.97931 0
M  V30 7011 C 643.31 0.796259 4.91492 0
M  V30 7012 C 642.013 2.57837 6.715 0
M  V30 7013 C 644.039 1.7229 5.65747 0
M  V30 7014 C 643.401 2.60369 6.54513 0
M  V30 7015 H 639.5 -0.161016 0.765244 0
M  V30 7016 H 642.084 0.21686 1.93489 0
M  V30 7017 H 640.255 -1.80521 3.43899 0
M  V30 7018 H 641.987 -1.71054 3.66773 0
M  V30 7019 H 638.742 0.00290406 4.736 0
M  V30 7020 H 639.166 1.95932 6.48027 0
M  V30 7021 H 643.808 0.129412 4.22602 0
M  V30 7022 H 641.526 3.25532 7.39631 0
M  V30 7023 H 645.112 1.76715 5.54313 0
M  V30 7024 H 643.992 3.30906 7.10965 0
M  V30 7025 N 641.495 -1.56914 -0.146875 0
M  V30 7026 C 642.743 -1.82994 -0.85777 0
M  V30 7027 C 643.064 -0.707814 -1.817 0
M  V30 7028 O 642.334 0.270521 -1.94023 0
M  V30 7029 H 640.914 -0.675106 -0.319751 0
M  V30 7030 H 643.576 -1.9439 -0.140849 0
M  V30 7031 H 642.672 -2.77928 -1.41994 0
M  V30 7032 N 642.974 0.416227 -1.52004 0
M  V30 7033 C 643.937 1.48926 -1.74223 0
M  V30 7034 C 644.937 1.48693 -0.612119 0
M  V30 7035 O 646.127 1.50343 -0.879921 0
M  V30 7036 C 643.259 2.88372 -1.81809 0
M  V30 7037 H 644.452 1.3052 -2.70008 0
M  V30 7038 H 642.005 0.646271 -1.42313 0
M  V30 7039 H 642.74 3.12157 -0.879135 0
M  V30 7040 H 642.525 2.89944 -2.6396 0
M  V30 7041 H 644.015 3.66173 -2.00766 0
M  V30 7042 N 644.452 1.42507 0.673017 0
M  V30 7043 C 645.7 1.42789 1.43023 0
M  V30 7044 C 646.021 0.0459738 1.94946 0
M  V30 7045 O 645.291 -0.915765 1.73178 0
M  V30 7046 H 643.871 0.525657 0.530748 0
M  V30 7047 H 646.533 1.77944 0.795113 0
M  V30 7048 H 645.629 2.12872 2.28237 0
M  V30 7049 N 645.93 -0.909495 1.28709 0
M  V30 7050 C 646.88 -1.9991 1.09636 0
M  V30 7051 C 647.864 -1.60889 0.01872 0
M  V30 7052 O 649.056 -1.75374 0.239338 0
M  V30 7053 C 646.185 -3.34675 0.764702 0
M  V30 7054 C 645.271 -3.80085 1.8814 0
M  V30 7055 N 645.662 -3.97824 3.12361 0
M  V30 7056 C 643.96 -4.09278 1.77221 0
M  V30 7057 C 644.661 -4.35928 3.85151 0
M  V30 7058 N 643.637 -4.44426 3.13028 0
M  V30 7059 H 647.439 -2.11681 2.03883 0
M  V30 7060 H 644.953 -1.09763 1.1969 0
M  V30 7061 H 646.95 -4.12426 0.609132 0
M  V30 7062 H 645.61 -3.24255 -0.169952 0
M  V30 7063 H 646.621 -3.83626 3.47925 0
M  V30 7064 H 643.298 -4.0747 0.909621 0
M  V30 7065 H 644.688 -4.57581 4.92006 0
M  V30 7066 N 647.408 -1.11026 -1.11852 0
M  V30 7067 C 648.356 -0.759643 -2.19846 0
M  V30 7068 C 649.35 0.246964 -1.6759 0
M  V30 7069 O 650.556 0.106693 -1.79684 0
M  V30 7070 H 646.931 -0.22775 -0.716683 0
M  V30 7071 H 648.902 -1.6792 -2.46669 0
M  V30 7072 C 647.651 -0.214364 -3.47039 0
M  V30 7073 H 646.974 -0.980175 -3.87599 0
M  V30 7074 H 648.414 -0.00717047 -4.23999 0
M  V30 7075 C 646.873 1.05436 -3.19976 0
M  V30 7076 O 647.403 2.13483 -3.40276 0
M  V30 7077 N 645.609 0.975436 -2.7374 0
M  V30 7078 H 645.156 0.0960853 -2.57421 0
M  V30 7079 H 645.114 1.82501 -2.5601 0
M  V30 7080 N 648.886 1.2938 -0.899927 0
M  V30 7081 C 649.836 2.25311 -0.349165 0
M  V30 7082 C 650.82 1.51889 0.530892 0
M  V30 7083 O 652.012 1.73028 0.372872 0
M  V30 7084 C 649.141 3.40696 0.422055 0
M  V30 7085 C 648.227 4.21455 -0.472935 0
M  V30 7086 N 648.618 4.8048 -1.58026 0
M  V30 7087 C 646.916 4.45177 -0.270767 0
M  V30 7088 C 647.617 5.41117 -2.13465 0
M  V30 7089 N 646.593 5.24518 -1.42766 0
M  V30 7090 H 650.395 2.68507 -1.19505 0
M  V30 7091 H 647.909 1.43992 -0.751006 0
M  V30 7092 H 649.906 4.08486 0.833369 0
M  V30 7093 H 648.566 2.99037 1.2652 0
M  V30 7094 H 649.577 4.79257 -1.96299 0
M  V30 7095 H 646.254 4.14071 0.533988 0
M  V30 7096 H 647.644 5.979 -3.06537 0
M  V30 7097 N 650.364 0.662433 1.43002 0
M  V30 7098 C 651.604 0.183312 2.03576 0
M  V30 7099 C 651.968 -1.18354 1.51183 0
M  V30 7100 O 653.169 -1.7566 2.03462 0
M  V30 7101 C 651.44 0.202908 3.56824 0
M  V30 7102 S 652.999 -0.20702 4.38311 0
M  V30 7103 H 649.817 0.0765001 0.706872 0
M  V30 7104 H 652.419 0.872827 1.74934 0
M  V30 7105 H 651.123 1.20028 3.92456 0
M  V30 7106 H 650.654 -0.506845 3.90121 0
M  V30 7107 H 652.669 -1.44358 4.74737 0
M  V30 7108 N 651.842 -1.52309 0.404946 0
M  V30 7109 C 652.772 -2.29805 -0.41376 0
M  V30 7110 C 653.753 -1.3384 -1.0498 0
M  V30 7111 O 654.938 -1.62745 -1.05961 0
M  V30 7112 C 652.068 -3.11639 -1.53292 0
M  V30 7113 C 651.022 -4.15616 -1.02211 0
M  V30 7114 C 650.348 -4.8577 -2.23455 0
M  V30 7115 C 651.648 -5.2224 -0.0790725 0
M  V30 7116 H 653.342 -2.98493 0.232878 0
M  V30 7117 H 650.888 -1.43552 0.113441 0
M  V30 7118 H 652.841 -3.64618 -2.11262 0
M  V30 7119 H 651.565 -2.40712 -2.20738 0
M  V30 7120 H 650.224 -3.63641 -0.46484 0
M  V30 7121 H 649.872 -4.11376 -2.89445 0
M  V30 7122 H 649.572 -5.56058 -1.89929 0
M  V30 7123 H 651.096 -5.4156 -2.82038 0
M  V30 7124 H 652.51 -5.70485 -0.567438 0
M  V30 7125 H 650.907 -5.99867 0.167167 0
M  V30 7126 H 651.977 -4.77078 0.867447 0
M  V30 7127 N 653.32 -0.135238 -1.57019 0
M  V30 7128 C 654.568 0.51777 -1.95355 0
M  V30 7129 C 654.889 1.6617 -1.02042 0
M  V30 7130 O 654.159 1.95738 -0.0797343 0
M  V30 7131 H 652.739 0.194264 -0.721298 0
M  V30 7132 H 655.401 -0.207983 -1.93787 0
M  V30 7133 H 654.497 0.901675 -2.98791 0
M  V30 7134 N 654.798 1.5699 0.138552 0
M  V30 7135 C 656.214 1.51844 0.491472 0
M  V30 7136 C 656.414 0.845063 1.82923 0
M  V30 7137 O 655.47 0.419143 2.48997 0
M  V30 7138 C 656.783 2.96615 0.493987 0
M  V30 7139 C 658.331 3.076 0.578913 0
M  V30 7140 C 658.806 4.53893 0.612009 0
M  V30 7141 N 660.297 4.5827 0.673997 0
M  V30 7142 C 661.032 5.68852 0.720729 0
M  V30 7143 N 660.528 6.88982 0.726292 0
M  V30 7144 N 662.321 5.56908 0.762253 0
M  V30 7145 H 654.472 1.99158 -0.738228 0
M  V30 7146 H 656.735 0.908693 -0.270149 0
M  V30 7147 H 656.441 3.49172 -0.420933 0
M  V30 7148 H 656.315 3.53017 1.32887 0
M  V30 7149 H 658.702 2.55057 1.48425 0
M  V30 7150 H 658.783 2.54227 -0.283286 0
M  V30 7151 H 658.427 5.07076 -0.289208 0
M  V30 7152 H 658.357 5.05057 1.49082 0
M  V30 7153 H 660.848 3.71793 0.676654 0
M  V30 7154 H 661.161 7.69014 0.764032 0
M  V30 7155 H 659.506 6.91526 0.69403 0
M  V30 7156 H 662.697 4.61969 0.755135 0
M  V30 7157 H 662.87 6.43102 0.795207 0
M  V30 7158 N 656.276 -0.40816 1.52223 0
M  V30 7159 C 657.501 -1.18127 1.70472 0
M  V30 7160 C 657.926 -1.83491 0.41384 0
M  V30 7161 O 657.284 -1.70047 -0.628778 0
M  V30 7162 C 657.332 -2.21935 2.84213 0
M  V30 7163 O 656.436 -3.28099 2.4985 0
M  V30 7164 H 655.777 -0.344781 0.56747 0
M  V30 7165 H 658.307 -0.478328 1.9893 0
M  V30 7166 H 658.317 -2.66248 3.09153 0
M  V30 7167 H 656.992 -1.73744 3.7787 0
M  V30 7168 H 655.569 -2.89058 2.35584 0
M  V30 7169 N 657.755 -1.42862 -0.66545 0
M  V30 7170 C 658.985 -1.47032 -1.45138 0
M  V30 7171 C 659.393 -0.0829977 -1.89018 0
M  V30 7172 O 658.736 0.914551 -1.59316 0
M  V30 7173 C 658.798 -2.34302 -2.72659 0
M  V30 7174 C 658.462 -3.82034 -2.50796 0
M  V30 7175 C 659.459 -4.73453 -2.14799 0
M  V30 7176 C 657.144 -4.26397 -2.655 0
M  V30 7177 C 659.138 -6.07228 -1.93785 0
M  V30 7178 C 656.825 -5.6023 -2.44103 0
M  V30 7179 C 657.823 -6.50462 -2.08299 0
M  V30 7180 O 657.511 -7.8182 -1.87116 0
M  V30 7181 H 657.243 -0.501969 -0.452772 0
M  V30 7182 H 659.797 -1.88137 -0.82423 0
M  V30 7183 H 658.027 -1.88063 -3.37889 0
M  V30 7184 H 659.716 -2.29818 -3.34572 0
M  V30 7185 H 660.482 -4.4046 -2.03026 0
M  V30 7186 H 656.361 -3.56448 -2.92345 0
M  V30 7187 H 659.905 -6.7762 -1.65763 0
M  V30 7188 H 655.802 -5.92793 -2.55475 0
M  V30 7189 H 656.57 -7.93274 -2.01639 0
M  V30 7190 N 659.233 0.902656 -1.29189 0
M  V30 7191 C 660.196 1.98797 -1.14071 0
M  V30 7192 C 661.196 1.60615 -0.0770549 0
M  V30 7193 O 662.386 1.71165 -0.323753 0
M  V30 7194 C 659.518 3.32688 -0.743739 0
M  V30 7195 H 660.711 2.13637 -2.10473 0
M  V30 7196 H 658.264 1.08678 -1.12334 0
M  V30 7197 H 658.999 3.23549 0.220554 0
M  V30 7198 H 658.784 3.61765 -1.51223 0
M  V30 7199 H 660.274 4.12337 -0.660935 0
M  V30 7200 N 660.711 1.11618 1.11262 0
M  V30 7201 C 661.957 0.867463 1.83311 0
M  V30 7202 C 662.29 -0.605366 1.84524 0
M  V30 7203 O 661.565 -1.44704 1.29965 0
M  V30 7204 C 661.848 1.43207 3.30399 0
M  V30 7205 C 661.701 2.97265 3.3757 0
M  V30 7206 C 663.02 1.08454 4.26528 0
M  V30 7207 H 660.139 0.316578 0.665543 0
M  V30 7208 H 662.781 1.38137 1.30454 0
M  V30 7209 H 660.931 0.994982 3.75543 0
M  V30 7210 H 662.603 3.49591 3.00971 0
M  V30 7211 H 660.846 3.33237 2.77733 0
M  V30 7212 H 661.517 3.31859 4.41105 0
M  V30 7213 H 663.993 1.4619 3.89574 0
M  V30 7214 H 662.869 1.50633 5.27826 0
M  V30 7215 H 663.13 -0.00444568 4.421 0
M  V30 7216 N 662.189 -1.289 0.906776 0
M  V30 7217 C 663.137 -2.29477 0.379873 0
M  V30 7218 C 664.131 -1.61068 -0.524747 0
M  V30 7219 O 665.337 -1.75344 -0.406765 0
M  V30 7220 H 661.712 -0.744742 0.10423 0
M  V30 7221 H 663.683 -2.71353 1.24137 0
M  V30 7222 C 662.432 -3.45713 -0.371154 0
M  V30 7223 H 661.755 -3.98551 0.315716 0
M  V30 7224 H 663.195 -4.18105 -0.704581 0
M  V30 7225 C 661.654 -2.9774 -1.57646 0
M  V30 7226 O 662.184 -2.99618 -2.67567 0
M  V30 7227 N 660.39 -2.53485 -1.42105 0
M  V30 7228 H 659.937 -2.52156 -0.526783 0
M  V30 7229 H 659.895 -2.21747 -2.22881 0
M  V30 7230 N 663.667 -0.670007 -1.42649 0
M  V30 7231 C 664.892 -0.196955 -2.06463 0
M  V30 7232 C 665.317 1.1352 -1.49983 0
M  V30 7233 O 664.675 1.705 -0.616397 0
M  V30 7234 C 664.723 -0.137381 -3.60338 0
M  V30 7235 O 663.827 0.895523 -4.02559 0
M  V30 7236 H 663.168 -0.102579 -0.656029 0
M  V30 7237 H 665.698 -0.917669 -1.82866 0
M  V30 7238 H 665.708 0.0403625 -4.0798 0
M  V30 7239 H 664.383 -1.10977 -4.0082 0
M  V30 7240 H 662.96 0.689209 -3.66476 0
M  V30 7241 N 665.145 1.52092 -0.413018 0
M  V30 7242 C 666.394 2.01041 0.16287 0
M  V30 7243 C 666.707 1.30288 1.45892 0
M  V30 7244 O 667.913 1.70075 2.11629 0
M  V30 7245 C 666.369 3.58283 0.340806 0
M  V30 7246 C 665.977 4.37955 -0.943377 0
M  V30 7247 C 667.721 4.15452 0.871774 0
M  V30 7248 C 665.628 5.86847 -0.732417 0
M  V30 7249 H 664.558 0.751224 0.0646414 0
M  V30 7250 H 667.209 1.75404 -0.539059 0
M  V30 7251 H 665.591 3.80266 1.10516 0
M  V30 7252 H 666.765 4.2773 -1.71418 0
M  V30 7253 H 665.08 3.92122 -1.40105 0
M  V30 7254 H 667.677 5.24375 1.0457 0
M  V30 7255 H 668.02 3.73057 1.84755 0
M  V30 7256 H 668.553 3.97452 0.166377 0
M  V30 7257 H 665.292 6.33609 -1.67986 0
M  V30 7258 H 664.812 5.998 -0.000980058 0
M  V30 7259 H 666.491 6.45906 -0.376105 0
M  V30 7260 N 666.623 0.143563 1.56945 0
M  V30 7261 C 667.57 -0.797433 2.16586 0
M  V30 7262 C 668.54 -1.24654 1.09775 0
M  V30 7263 O 669.725 -1.31968 1.37801 0
M  V30 7264 C 666.865 -2.03253 2.78895 0
M  V30 7265 C 665.978 -1.62954 4.00087 0
M  V30 7266 C 665.113 -2.81617 4.50406 0
M  V30 7267 C 664.152 -2.37675 5.64072 0
M  V30 7268 N 663.289 -3.49335 6.09023 0
M  V30 7269 H 668.129 -0.282023 2.96662 0
M  V30 7270 H 665.666 -0.127494 1.46546 0
M  V30 7271 H 667.624 -2.75653 3.13163 0
M  V30 7272 H 666.254 -2.52211 2.01469 0
M  V30 7273 H 665.306 -0.803322 3.71821 0
M  V30 7274 H 666.618 -1.26679 4.82446 0
M  V30 7275 H 665.772 -3.62212 4.86711 0
M  V30 7276 H 664.511 -3.21134 3.67048 0
M  V30 7277 H 663.516 -1.55519 5.27346 0
M  V30 7278 H 664.741 -1.99247 6.49213 0
M  V30 7279 H 662.687 -3.8848 5.28601 0
M  V30 7280 H 662.604 -3.17064 6.86299 0
M  V30 7281 H 663.872 -4.30297 6.49973 0
M  V30 7282 N 668.101 -1.57061 -0.130224 0
M  V30 7283 C 669.033 -1.96147 -1.18571 0
M  V30 7284 C 670.046 -0.859347 -1.38272 0
M  V30 7285 O 671.235 -1.13769 -1.37545 0
M  V30 7286 C 668.335 -2.23484 -2.54771 0
M  V30 7287 C 667.508 -3.54786 -2.55824 0
M  V30 7288 C 666.567 -3.70467 -3.73686 0
M  V30 7289 O 665.593 -4.42693 -3.57787 0
M  V30 7290 N 666.795 -3.08389 -4.91809 0
M  V30 7291 H 669.56 -2.87295 -0.853333 0
M  V30 7292 H 667.121 -1.58714 -0.319621 0
M  V30 7293 H 669.113 -2.312 -3.32158 0
M  V30 7294 H 667.683 -1.38518 -2.80235 0
M  V30 7295 H 666.903 -3.5836 -1.64232 0
M  V30 7296 H 668.191 -4.4111 -2.53573 0
M  V30 7297 H 667.589 -2.49656 -5.0763 0
M  V30 7298 H 666.146 -3.21642 -5.66912 0
M  V30 7299 N 669.579 0.400081 -1.52437 0
M  V30 7300 C 670.826 1.14619 -1.6694 0
M  V30 7301 C 671.154 1.90262 -0.403797 0
M  V30 7302 O 670.409 1.85835 0.61351 0
M  V30 7303 C 670.708 2.15914 -2.84808 0
M  V30 7304 C 670.374 1.57011 -4.2268 0
M  V30 7305 C 669.036 1.40672 -4.60179 0
M  V30 7306 C 671.388 1.14081 -5.08562 0
M  V30 7307 C 668.716 0.799335 -5.81229 0
M  V30 7308 C 671.068 0.547573 -6.30226 0
M  V30 7309 C 669.732 0.371389 -6.66466 0
M  V30 7310 H 669.002 0.419419 -0.610875 0
M  V30 7311 H 671.649 0.432227 -1.86558 0
M  V30 7312 H 669.954 2.93488 -2.59561 0
M  V30 7313 H 671.651 2.73533 -2.93225 0
M  V30 7314 H 668.241 1.70713 -3.93135 0
M  V30 7315 H 672.425 1.2551 -4.80168 0
M  V30 7316 H 667.681 0.65093 -6.07925 0
M  V30 7317 H 671.855 0.206575 -6.96094 0
M  V30 7318 H 669.482 -0.10135 -7.60132 0
M  V30 7319 N 671.057 1.43213 0.657864 0
M  V30 7320 C 672.303 1.44798 1.41991 0
M  V30 7321 C 672.636 0.070256 1.94073 0
M  V30 7322 O 671.911 -0.908177 1.71995 0
M  V30 7323 C 672.194 2.4865 2.60471 0
M  V30 7324 C 672.047 3.95679 2.13911 0
M  V30 7325 C 673.366 2.49292 3.62686 0
M  V30 7326 H 670.485 0.527244 0.514959 0
M  V30 7327 H 673.127 1.74733 0.74621 0
M  V30 7328 H 671.277 2.23254 3.17946 0
M  V30 7329 H 672.949 4.32116 1.61472 0
M  V30 7330 H 671.192 4.08733 1.45325 0
M  V30 7331 H 671.863 4.6395 2.99089 0
M  V30 7332 H 674.339 2.71917 3.14961 0
M  V30 7333 H 673.215 3.23907 4.43143 0
M  V30 7334 H 673.476 1.52502 4.14964 0
M  V30 7335 N 672.536 -0.895792 1.29666 0
M  V30 7336 C 673.783 -1.64664 1.17864 0
M  V30 7337 C 674.111 -1.92631 -0.26902 0
M  V30 7338 O 673.366 -1.53787 -1.21029 0
M  V30 7339 C 673.665 -3.00075 1.94139 0
M  V30 7340 C 673.331 -2.91702 3.43833 0
M  V30 7341 C 671.993 -2.89126 3.84656 0
M  V30 7342 C 674.345 -2.80622 4.39205 0
M  V30 7343 C 671.673 -2.73293 5.1916 0
M  V30 7344 C 674.025 -2.66329 5.73805 0
M  V30 7345 C 672.689 -2.62121 6.1388 0
M  V30 7346 H 671.959 -0.602549 0.431295 0
M  V30 7347 H 674.606 -1.04234 1.60648 0
M  V30 7348 H 672.911 -3.64394 1.43958 0
M  V30 7349 H 674.608 -3.57111 1.82408 0
M  V30 7350 H 671.198 -2.94511 3.11386 0
M  V30 7351 H 675.382 -2.81686 4.08615 0
M  V30 7352 H 670.638 -2.68443 5.49316 0
M  V30 7353 H 674.812 -2.56727 6.47352 0
M  V30 7354 H 672.439 -2.49611 7.18052 0
M  V30 7355 N 674.014 -1.12206 -1.10668 0
M  V30 7356 C 674.944 -0.810086 -2.18997 0
M  V30 7357 C 675.925 0.225065 -1.68604 0
M  V30 7358 O 677.11 0.086783 -1.94006 0
M  V30 7359 C 674.24 -0.261262 -3.46316 0
M  V30 7360 C 673.194 -1.2292 -4.09969 0
M  V30 7361 C 672.52 -0.540713 -5.31959 0
M  V30 7362 C 673.82 -2.58295 -4.53962 0
M  V30 7363 H 675.514 -1.7159 -2.45352 0
M  V30 7364 H 673.06 -0.82646 -1.17922 0
M  V30 7365 H 675.013 -0.0307522 -4.21389 0
M  V30 7366 H 673.737 0.679879 -3.19445 0
M  V30 7367 H 672.396 -1.44548 -3.369 0
M  V30 7368 H 672.044 0.405492 -5.01363 0
M  V30 7369 H 671.744 -1.18637 -5.75499 0
M  V30 7370 H 673.268 -0.319184 -6.09765 0
M  V30 7371 H 674.682 -2.40709 -5.20319 0
M  V30 7372 H 673.079 -3.18916 -5.08343 0
M  V30 7373 H 674.149 -3.16918 -3.67002 0
M  V30 7374 N 675.492 1.28418 -0.913599 0
M  V30 7375 C 676.738 1.9527 -0.547484 0
M  V30 7376 C 677.071 1.71745 0.906486 0
M  V30 7377 O 676.346 1.03834 1.64465 0
M  V30 7378 C 676.629 3.49748 -0.857205 0
M  V30 7379 C 676.482 3.82675 -2.3639 0
M  V30 7380 C 677.801 4.3868 -0.353258 0
M  V30 7381 H 674.92 0.709236 -0.200381 0
M  V30 7382 H 677.562 1.51789 -1.14281 0
M  V30 7383 H 675.712 3.86915 -0.350548 0
M  V30 7384 H 677.384 3.55378 -2.94116 0
M  V30 7385 H 675.627 3.29724 -2.81894 0
M  V30 7386 H 676.298 4.90547 -2.53115 0
M  V30 7387 H 678.774 4.08584 -0.787288 0
M  V30 7388 H 677.65 5.45621 -0.599049 0
M  V30 7389 H 677.911 4.35753 0.746413 0
M  V30 7390 N 676.97 0.677563 1.42291 0
M  V30 7391 C 677.9 0.014968 2.33495 0
M  V30 7392 C 678.881 -0.786376 1.50831 0
M  V30 7393 O 680.066 -0.742975 1.79426 0
M  V30 7394 C 677.196 -0.935023 3.34477 0
M  V30 7395 C 676.15 -0.242074 4.27315 0
M  V30 7396 C 675.476 -1.30519 5.18526 0
M  V30 7397 C 676.776 0.880604 5.14823 0
M  V30 7398 H 678.47 0.776671 2.89151 0
M  V30 7399 H 676.016 0.37494 1.39033 0
M  V30 7400 H 677.969 -1.40766 3.97194 0
M  V30 7401 H 676.693 -1.72818 2.77131 0
M  V30 7402 H 675.352 0.210351 3.65996 0
M  V30 7403 H 675 -2.09041 4.57505 0
M  V30 7404 H 674.7 -0.846652 5.81468 0
M  V30 7405 H 676.224 -1.7787 5.84119 0
M  V30 7406 H 677.638 0.489062 5.7121 0
M  V30 7407 H 676.035 1.26511 5.86613 0
M  V30 7408 H 677.105 1.72818 4.53059 0
M  V30 7409 N 678.448 -1.51871 0.421078 0
M  V30 7410 C 679.694 -2.02237 -0.151014 0
M  V30 7411 C 680.027 -1.30554 -1.43768 0
M  V30 7412 O 679.302 -0.41546 -1.90011 0
M  V30 7413 C 679.585 -3.5802 -0.386482 0
M  V30 7414 C 679.438 -4.40339 0.9177 0
M  V30 7415 C 680.757 -4.24444 -1.16342 0
M  V30 7416 H 677.876 -0.735062 -0.0534102 0
M  V30 7417 H 680.518 -1.81656 0.556888 0
M  V30 7418 H 678.668 -3.75688 -0.989494 0
M  V30 7419 H 680.34 -4.34357 1.55344 0
M  V30 7420 H 678.583 -4.06073 1.526 0
M  V30 7421 H 679.254 -5.47451 0.707187 0
M  V30 7422 H 681.73 -4.10948 -0.652788 0
M  V30 7423 H 680.606 -5.33358 -1.29693 0
M  V30 7424 H 680.867 -3.84204 -2.18724 0
M  V30 7425 N 679.926 -0.151884 -1.56866 0
M  V30 7426 C 680.876 0.797799 -2.13586 0
M  V30 7427 C 681.86 1.20613 -1.06496 0
M  V30 7428 O 683.052 1.17173 -1.32663 0
M  V30 7429 C 680.181 2.03493 -2.76488 0
M  V30 7430 C 679.267 1.64948 -3.90708 0
M  V30 7431 N 679.658 0.972513 -4.96363 0
M  V30 7432 C 677.956 1.94186 -4.01507 0
M  V30 7433 C 678.657 0.785661 -5.7637 0
M  V30 7434 N 677.633 1.32105 -5.27304 0
M  V30 7435 H 681.435 0.271403 -2.92644 0
M  V30 7436 H 678.949 0.049487 -1.62325 0
M  V30 7437 H 680.946 2.72532 -3.15487 0
M  V30 7438 H 679.606 2.56646 -1.98904 0
M  V30 7439 H 680.617 0.632724 -5.1402 0
M  V30 7440 H 677.294 2.49154 -3.35005 0
M  V30 7441 H 678.684 0.251749 -6.71428 0
M  V30 7442 N 681.404 1.57128 0.121893 0
M  V30 7443 C 682.334 2.03165 1.15092 0
M  V30 7444 C 683.315 0.915587 1.43356 0
M  V30 7445 O 684.5 1.1851 1.53847 0
M  V30 7446 C 681.63 2.43352 2.47784 0
M  V30 7447 C 680.584 3.58376 2.33989 0
M  V30 7448 C 679.91 3.84454 3.71617 0
M  V30 7449 C 681.21 4.90199 1.80283 0
M  V30 7450 H 682.904 2.89382 0.768023 0
M  V30 7451 H 680.45 1.39218 0.367998 0
M  V30 7452 H 682.403 2.74163 3.20019 0
M  V30 7453 H 681.127 1.54103 2.87958 0
M  V30 7454 H 679.786 3.2777 1.64202 0
M  V30 7455 H 679.434 2.92414 4.09271 0
M  V30 7456 H 679.134 4.61877 3.6324 0
M  V30 7457 H 680.658 4.17714 4.45362 0
M  V30 7458 H 682.072 5.19565 2.42333 0
M  V30 7459 H 680.469 5.71601 1.82735 0
M  V30 7460 H 681.539 4.78904 0.760184 0
M  V30 7461 N 682.882 -0.391992 1.52647 0
M  V30 7462 C 684.159 -1.15136 1.58123 0
M  V30 7463 C 684.539 -2.07786 0.372597 0
M  V30 7464 O 683.887 -2.19374 -0.639304 0
M  V30 7465 C 684.097 -1.91367 2.91856 0
M  V30 7466 C 685.445 -2.46833 3.45483 0
M  V30 7467 O 686.469 -2.01527 2.9371 0
M  V30 7468 O 685.328 -3.29587 4.3593 0
M  V30 7469 H 682.422 -0.526649 0.637629 0
M  V30 7470 H 684.968 -0.397386 1.64982 0
M  V30 7471 H 683.74 -1.23597 3.71268 0
M  V30 7472 H 683.363 -2.73732 2.88369 0
M  V30 7473 N 684.36 -1.4356 -0.65026 0
M  V30 7474 C 685.29 -1.51758 -1.77459 0
M  V30 7475 C 686.271 -0.372019 -1.65982 0
M  V30 7476 O 687.456 -0.589627 -1.85033 0
M  V30 7477 C 684.586 -1.44302 -3.15902 0
M  V30 7478 C 683.54 -2.57138 -3.42146 0
M  V30 7479 C 682.866 -2.34735 -4.8042 0
M  V30 7480 C 684.166 -3.99373 -3.36598 0
M  V30 7481 H 685.86 -2.45863 -1.70855 0
M  V30 7482 H 683.406 -1.18333 -0.820566 0
M  V30 7483 H 685.359 -1.48641 -3.94314 0
M  V30 7484 H 684.083 -0.467026 -3.23244 0
M  V30 7485 H 682.742 -2.52157 -2.66106 0
M  V30 7486 H 682.39 -1.35372 -4.84441 0
M  V30 7487 H 682.09 -3.10375 -4.9894 0
M  V30 7488 H 683.614 -2.40862 -5.61086 0
M  V30 7489 H 685.028 -4.05826 -4.04942 0
M  V30 7490 H 683.425 -4.75063 -3.66654 0
M  V30 7491 H 684.495 -4.243 -2.34729 0
M  V30 7492 N 685.838 0.888903 -1.30139 0
M  V30 7493 C 686.748 2.02705 -1.18101 0
M  V30 7494 C 687.764 1.73702 -0.101809 0
M  V30 7495 O 688.94 1.98906 -0.315984 0
M  V30 7496 C 686.005 3.35616 -0.869651 0
M  V30 7497 C 685.066 3.78067 -2.03381 0
M  V30 7498 C 684.299 5.04635 -1.73721 0
M  V30 7499 O 684.522 5.66531 -0.663267 0
M  V30 7500 O 683.456 5.43399 -2.58845 0
M  V30 7501 H 687.282 2.15788 -2.13704 0
M  V30 7502 H 684.867 1.01426 -1.09695 0
M  V30 7503 H 686.749 4.15358 -0.711043 0
M  V30 7504 H 685.424 3.23651 0.0565002 0
M  V30 7505 H 684.331 2.99046 -2.24772 0
M  V30 7506 H 685.664 3.94631 -2.94155 0
M  V30 7507 N 687.317 1.12792 1.10072 0
M  V30 7508 C 688.247 0.821688 2.18565 0
M  V30 7509 C 689.228 -0.21612 1.68721 0
M  V30 7510 O 690.413 -0.0764932 1.94049 0
M  V30 7511 C 687.543 0.279624 3.46172 0
M  V30 7512 C 686.497 1.25092 4.09312 0
M  V30 7513 C 685.823 0.568916 5.31665 0
M  V30 7514 C 687.123 2.60699 4.52585 0
M  V30 7515 H 688.817 1.72888 2.44438 0
M  V30 7516 H 686.363 0.832702 1.17482 0
M  V30 7517 H 688.316 0.053099 4.21367 0
M  V30 7518 H 687.04 -0.662929 3.19801 0
M  V30 7519 H 685.699 1.46332 3.36129 0
M  V30 7520 H 685.347 -0.378898 5.01571 0
M  V30 7521 H 685.047 1.21687 5.74862 0
M  V30 7522 H 686.571 0.351517 6.09587 0
M  V30 7523 H 687.985 2.43465 5.19035 0
M  V30 7524 H 686.382 3.21608 5.06644 0
M  V30 7525 H 687.452 3.1886 3.65317 0
M  V30 7526 N 688.795 -1.27931 0.920396 0
M  V30 7527 C 690.044 -1.93975 0.552867 0
M  V30 7528 C 690.357 -1.73193 -0.909035 0
M  V30 7529 O 691.563 -2.33515 -1.38502 0
M  V30 7530 C 690.019 -3.47463 0.937947 0
M  V30 7531 C 689.627 -3.77013 2.42003 0
M  V30 7532 C 691.371 -4.19628 0.64132 0
M  V30 7533 C 689.278 -5.23841 2.74489 0
M  V30 7534 H 688.208 -0.726146 0.203046 0
M  V30 7535 H 690.859 -1.45339 1.12022 0
M  V30 7536 H 689.241 -3.94867 0.299317 0
M  V30 7537 H 690.415 -3.40393 3.10595 0
M  V30 7538 H 688.73 -3.18035 2.6878 0
M  V30 7539 H 691.327 -5.27729 0.860622 0
M  V30 7540 H 691.67 -4.14164 -0.421168 0
M  V30 7541 H 692.203 -3.78022 1.23872 0
M  V30 7542 H 688.942 -5.34388 3.79618 0
M  V30 7543 H 688.462 -5.61634 2.1054 0
M  V30 7544 H 690.141 -5.91647 2.61845 0
M  V30 7545 N 690.273 -0.685099 -1.4193 0
M  V30 7546 C 691.221 -0.00165985 -2.326 0
M  V30 7547 C 692.215 0.779678 -1.50391 0
M  V30 7548 O 693.421 0.68648 -1.66395 0
M  V30 7549 H 689.796 0.0182616 -0.751778 0
M  V30 7550 H 691.767 -0.783592 -2.87928 0
M  V30 7551 C 690.516 0.928385 -3.35077 0
M  V30 7552 H 689.839 0.336578 -3.98381 0
M  V30 7553 H 691.279 1.37509 -4.01083 0
M  V30 7554 C 689.738 2.03964 -2.68142 0
M  V30 7555 O 690.268 3.12727 -2.5212 0
M  V30 7556 N 688.474 1.81433 -2.27003 0
M  V30 7557 H 688.021 0.929807 -2.40234 0
M  V30 7558 H 687.979 2.55973 -1.82552 0
M  V30 7559 N 691.751 1.51645 -0.429126 0
M  V30 7560 C 692.714 2.26116 0.374726 0
M  V30 7561 C 693.714 1.29242 0.956714 0
M  V30 7562 O 694.904 1.53022 0.832452 0
M  V30 7563 C 692.036 3.04669 1.52937 0
M  V30 7564 H 693.229 2.9861 -0.277818 0
M  V30 7565 H 690.782 1.55236 -0.182097 0
M  V30 7566 H 691.517 2.36571 2.21821 0
M  V30 7567 H 691.302 3.75814 1.11833 0
M  V30 7568 H 692.792 3.61102 2.09751 0
M  V30 7569 N 693.229 0.160201 1.56784 0
M  V30 7570 C 694.506 -0.533355 1.88188 0
M  V30 7571 C 694.886 -1.82072 1.06831 0
M  V30 7572 O 694.234 -2.27946 0.158959 0
M  V30 7573 C 694.444 -0.786034 3.40033 0
M  V30 7574 C 695.792 -1.12097 4.09536 0
M  V30 7575 O 696.816 -0.874949 3.45287 0
M  V30 7576 O 695.675 -1.58457 5.23023 0
M  V30 7577 H 692.769 -0.273589 0.780434 0
M  V30 7578 H 695.315 0.197803 1.68543 0
M  V30 7579 H 694.087 0.124515 3.91102 0
M  V30 7580 H 693.71 -1.57091 3.65251 0
M  V30 7581 N 694.707 -1.5719 -0.113559 0
M  V30 7582 C 695.953 -1.85412 -0.821597 0
M  V30 7583 C 696.286 -0.746722 -1.7927 0
M  V30 7584 O 695.561 0.246971 -1.92926 0
M  V30 7585 C 695.844 -3.24233 -1.56669 0
M  V30 7586 C 695.697 -4.45578 -0.614823 0
M  V30 7587 C 697.016 -3.60697 -2.52161 0
M  V30 7588 H 694.135 -0.674406 -0.29723 0
M  V30 7589 H 696.777 -1.89807 -0.085694 0
M  V30 7590 H 694.927 -3.20617 -2.19401 0
M  V30 7591 H 696.599 -4.613 0.00407137 0
M  V30 7592 H 694.842 -4.33738 0.0732332 0
M  V30 7593 H 695.513 -5.39395 -1.17292 0
M  V30 7594 H 697.989 -3.65139 -1.99532 0
M  V30 7595 H 696.865 -4.58798 -3.01323 0
M  V30 7596 H 697.126 -2.88403 -3.35076 0
M  V30 7597 N 696.185 0.383891 -1.52853 0
M  V30 7598 C 697.095 1.49343 -1.80925 0
M  V30 7599 C 698.111 1.59458 -0.696348 0
M  V30 7600 O 699.287 1.75698 -0.984481 0
M  V30 7601 C 696.352 2.84819 -1.97684 0
M  V30 7602 C 695.413 2.84382 -3.21598 0
M  V30 7603 C 694.646 4.13397 -3.37548 0
M  V30 7604 O 694.869 5.08619 -2.58192 0
M  V30 7605 O 693.803 4.20325 -4.30826 0
M  V30 7606 H 697.629 1.2855 -2.75152 0
M  V30 7607 H 695.214 0.572229 -1.38007 0
M  V30 7608 H 697.096 3.65125 -2.10385 0
M  V30 7609 H 695.771 3.05627 -1.06647 0
M  V30 7610 H 694.678 2.0284 -3.14336 0
M  V30 7611 H 696.011 2.68526 -4.12498 0
M  V30 7612 N 697.663 1.43903 0.642637 0
M  V30 7613 C 698.912 1.45362 1.39831 0
M  V30 7614 C 699.225 0.0856289 1.95412 0
M  V30 7615 O 700.431 -0.0222856 2.71491 0
M  V30 7616 C 698.887 2.55857 2.53111 0
M  V30 7617 C 698.495 3.98811 2.04092 0
M  V30 7618 C 700.239 2.66524 3.30402 0
M  V30 7619 C 698.146 5.00751 3.14647 0
M  V30 7620 H 697.076 0.540777 0.52543 0
M  V30 7621 H 699.727 1.69929 0.692559 0
M  V30 7622 H 698.109 2.2451 3.26207 0
M  V30 7623 H 699.283 4.3967 1.37938 0
M  V30 7624 H 697.598 3.92284 1.39651 0
M  V30 7625 H 700.195 3.39858 4.12796 0
M  V30 7626 H 700.538 1.71949 3.79129 0
M  V30 7627 H 701.071 2.97224 2.64392 0
M  V30 7628 H 697.81 5.96914 2.70876 0
M  V30 7629 H 697.33 4.64495 3.79479 0
M  V30 7630 H 699.009 5.23933 3.79609 0
M  V30 7631 N 699.141 -0.881989 1.30609 0
M  V30 7632 C 700.552 -1.44956 1.17664 0
M  V30 7633 C 700.903 -1.94945 -0.221531 0
M  V30 7634 O 700.028 -1.85257 -1.11844 0
M  V30 7635 C 700.623 -2.63474 2.12995 0
M  V30 7636 C 699.182 -3.16312 2.04019 0
M  V30 7637 C 698.329 -1.89008 2.02907 0
M  V30 7638 H 701.28 -0.691645 1.42835 0
M  V30 7639 H 701.301 -3.39783 1.71253 0
M  V30 7640 H 700.813 -2.2706 3.14746 0
M  V30 7641 H 698.914 -3.57376 1.0542 0
M  V30 7642 H 699.027 -3.79409 2.9255 0
M  V30 7643 H 697.391 -2.07465 1.47751 0
M  V30 7644 H 698.174 -1.54848 3.06394 0
M  V30 7645 N 700.619 -1.13374 -1.09472 0
M  V30 7646 C 701.529 -0.824029 -2.19652 0
M  V30 7647 C 702.545 0.19118 -1.72947 0
M  V30 7648 O 703.721 0.0223464 -2.01388 0
M  V30 7649 C 700.786 -0.294009 -3.45451 0
M  V30 7650 C 699.847 -1.3704 -4.0684 0
M  V30 7651 C 699.08 -0.86558 -5.26634 0
M  V30 7652 O 699.303 0.29702 -5.69626 0
M  V30 7653 O 698.237 -1.63968 -5.79136 0
M  V30 7654 H 702.063 -1.74454 -2.48595 0
M  V30 7655 H 699.648 -0.911155 -1.18399 0
M  V30 7656 H 701.53 -0.00381039 -4.214 0
M  V30 7657 H 700.205 0.598921 -3.18111 0
M  V30 7658 H 699.112 -1.71391 -3.3253 0
M  V30 7659 H 700.445 -2.23746 -4.38405 0
M  V30 7660 N 702.098 1.27442 -0.927168 0
M  V30 7661 C 703.345 1.94391 -0.567324 0
M  V30 7662 C 703.673 1.72875 0.891321 0
M  V30 7663 O 702.928 1.05071 1.65102 0
M  V30 7664 C 703.227 3.47413 -0.838994 0
M  V30 7665 C 702.893 3.89049 -2.2793 0
M  V30 7666 C 701.555 4.00127 -2.67305 0
M  V30 7667 C 703.907 4.10154 -3.21595 0
M  V30 7668 C 701.235 4.29697 -3.99471 0
M  V30 7669 C 703.587 4.41208 -4.53341 0
M  V30 7670 C 702.251 4.50499 -4.92551 0
M  V30 7671 H 701.521 0.711325 -0.207598 0
M  V30 7672 H 704.168 1.51523 -1.17103 0
M  V30 7673 H 702.473 3.91503 -0.152609 0
M  V30 7674 H 704.17 3.97354 -0.53955 0
M  V30 7675 H 700.76 3.80962 -1.96381 0
M  V30 7676 H 704.944 4.01036 -2.92377 0
M  V30 7677 H 700.2 4.35099 -4.29533 0
M  V30 7678 H 704.374 4.56486 -5.25922 0
M  V30 7679 H 702.001 4.73167 -5.94994 0
M  V30 7680 N 703.576 0.692616 1.41565 0
M  V30 7681 C 704.853 0.150496 1.9502 0
M  V30 7682 C 705.233 -1.33881 1.63215 0
M  V30 7683 O 704.581 -2.08378 0.937598 0
M  V30 7684 C 704.791 0.438636 3.46233 0
M  V30 7685 C 706.139 0.364777 4.2303 0
M  V30 7686 O 707.163 0.373383 3.54238 0
M  V30 7687 O 706.022 0.32234 5.45549 0
M  V30 7688 H 703.116 0.0132454 0.826894 0
M  V30 7689 H 705.662 0.768574 1.51298 0
M  V30 7690 H 704.434 1.46962 3.62654 0
M  V30 7691 H 704.057 -0.210562 3.97042 0
M  V30 7692 N 705.054 -1.51416 0.437162 0
M  V30 7693 C 705.984 -2.30631 -0.364922 0
M  V30 7694 C 706.965 -1.36037 -1.02118 0
M  V30 7695 O 708.15 -1.64956 -1.02485 0
M  V30 7696 C 705.28 -3.1482 -1.46648 0
M  V30 7697 C 704.234 -4.17691 -0.933717 0
M  V30 7698 C 703.56 -4.904 -2.13101 0
M  V30 7699 C 704.86 -5.2229 0.0317201 0
M  V30 7700 H 706.554 -2.97932 0.29614 0
M  V30 7701 H 704.1 -1.4328 0.143865 0
M  V30 7702 H 706.053 -3.69017 -2.03481 0
M  V30 7703 H 704.777 -2.4534 -2.15583 0
M  V30 7704 H 703.436 -3.64545 -0.387602 0
M  V30 7705 H 703.084 -4.17423 -2.80654 0
M  V30 7706 H 702.784 -5.59962 -1.78092 0
M  V30 7707 H 704.308 -5.4742 -2.70487 0
M  V30 7708 H 705.722 -5.7156 -0.446302 0
M  V30 7709 H 704.119 -5.99378 0.29437 0
M  V30 7710 H 705.189 -4.75131 0.968447 0
M  V30 7711 N 706.532 -0.168513 -1.56696 0
M  V30 7712 C 707.757 0.486688 -2.01609 0
M  V30 7713 C 708.182 1.56203 -1.04796 0
M  V30 7714 O 707.54 1.8128 -0.0270596 0
M  V30 7715 C 707.588 1.04451 -3.45141 0
M  V30 7716 O 706.692 2.15862 -3.51393 0
M  V30 7717 H 706.033 0.116831 -0.653641 0
M  V30 7718 H 708.563 -0.271579 -2.0279 0
M  V30 7719 H 708.573 1.36782 -3.84389 0
M  V30 7720 H 707.248 0.257155 -4.15104 0
M  V30 7721 H 705.825 1.84597 -3.24004 0
M  V30 7722 N 708.01 1.57248 0.105221 0
M  V30 7723 C 709.426 1.52853 0.459153 0
M  V30 7724 C 709.626 0.883674 1.8109 0
M  V30 7725 O 708.682 0.471864 2.48052 0
M  V30 7726 C 709.995 2.97596 0.43096 0
M  V30 7727 C 711.543 3.08758 0.513536 0
M  V30 7728 C 712.018 4.55089 0.515593 0
M  V30 7729 N 713.509 4.59597 0.576639 0
M  V30 7730 C 714.244 5.70253 0.599904 0
M  V30 7731 N 713.74 6.90368 0.579985 0
M  V30 7732 N 715.533 5.58399 0.643953 0
M  V30 7733 H 707.684 1.97547 -0.780306 0
M  V30 7734 H 709.947 0.902758 -0.289363 0
M  V30 7735 H 709.653 3.48201 -0.494903 0
M  V30 7736 H 709.527 3.55756 1.2537 0
M  V30 7737 H 711.914 2.58148 1.42982 0
M  V30 7738 H 711.995 2.53568 -0.337148 0
M  V30 7739 H 711.639 5.06348 -0.396701 0
M  V30 7740 H 711.569 5.08105 1.38335 0
M  V30 7741 H 714.06 3.73144 0.597639 0
M  V30 7742 H 714.373 7.70462 0.600741 0
M  V30 7743 H 712.718 6.92843 0.547191 0
M  V30 7744 H 715.909 4.63467 0.656975 0
M  V30 7745 H 716.082 6.44644 0.658616 0
M  V30 7746 N 709.488 -0.375779 1.53054 0
M  V30 7747 C 710.718 -1.1387 1.72386 0
M  V30 7748 C 711.126 -1.8382 0.447966 0
M  V30 7749 O 710.469 -1.74027 -0.588244 0
M  V30 7750 C 710.531 -2.22047 2.82728 0
M  V30 7751 C 710.195 -1.71951 4.23417 0
M  V30 7752 C 711.192 -1.18909 5.06119 0
M  V30 7753 C 708.877 -1.77773 4.69789 0
M  V30 7754 C 710.871 -0.723529 6.3328 0
M  V30 7755 C 708.558 -1.30829 5.96931 0
M  V30 7756 C 709.556 -0.782077 6.78508 0
M  V30 7757 O 709.244 -0.319529 8.03265 0
M  V30 7758 H 708.976 -0.346835 0.580242 0
M  V30 7759 H 711.53 -0.443748 2.00549 0
M  V30 7760 H 709.76 -2.95006 2.50017 0
M  V30 7761 H 711.449 -2.83654 2.90336 0
M  V30 7762 H 712.215 -1.13758 4.7147 0
M  V30 7763 H 708.094 -2.17673 4.06373 0
M  V30 7764 H 711.638 -0.312126 6.96901 0
M  V30 7765 H 707.535 -1.3567 6.31081 0
M  V30 7766 H 708.303 -0.439796 8.17318 0
M  V30 7767 N 710.966 -1.44241 -0.634997 0
M  V30 7768 C 712.214 -1.46531 -1.39187 0
M  V30 7769 C 712.535 -0.0976441 -1.94755 0
M  V30 7770 O 711.805 0.869528 -1.75545 0
M  V30 7771 H 710.385 -0.539544 -0.516625 0
M  V30 7772 H 713.047 -1.79989 -0.747655 0
M  V30 7773 H 712.143 -2.18848 -2.22513 0
M  V30 7774 N 712.444 0.87505 -1.31075 0
M  V30 7775 C 713.691 1.62768 -1.20469 0
M  V30 7776 C 714.019 1.93034 0.23834 0
M  V30 7777 O 713.274 1.55693 1.18567 0
M  V30 7778 C 713.573 2.96948 -1.98888 0
M  V30 7779 C 713.239 2.86195 -3.4843 0
M  V30 7780 C 711.901 2.82969 -3.89207 0
M  V30 7781 C 714.253 2.73599 -4.43614 0
M  V30 7782 C 711.581 2.64999 -5.23443 0
M  V30 7783 C 713.933 2.57166 -5.77969 0
M  V30 7784 C 712.597 2.52321 -6.17973 0
M  V30 7785 H 711.867 0.595611 -0.440827 0
M  V30 7786 H 714.514 1.01665 -1.62285 0
M  V30 7787 H 712.819 3.62058 -1.49737 0
M  V30 7788 H 714.516 3.54164 -1.88067 0
M  V30 7789 H 711.106 2.8952 -3.16032 0
M  V30 7790 H 715.29 2.7515 -4.13045 0
M  V30 7791 H 710.546 2.5967 -5.53517 0
M  V30 7792 H 714.72 2.46396 -6.51354 0
M  V30 7793 H 712.347 2.38156 -7.21932 0
M  V30 7794 N 713.922 1.13953 1.08869 0
M  V30 7795 C 715.17 0.903023 1.80803 0
M  V30 7796 C 715.491 -0.572151 1.86417 0
M  V30 7797 O 714.761 -1.41589 1.35386 0
M  V30 7798 H 713.341 0.331099 0.669614 0
M  V30 7799 H 716.003 1.43719 1.31647 0
M  V30 7800 H 715.099 1.29881 2.83791 0
M  V30 7801 N 715.4 -1.26948 0.933913 0
M  V30 7802 C 716.33 -2.29017 0.45534 0
M  V30 7803 C 717.311 -1.62961 -0.487605 0
M  V30 7804 O 718.496 -1.90223 -0.391022 0
M  V30 7805 C 715.626 -3.46112 -0.287015 0
M  V30 7806 C 714.58 -4.24205 0.568682 0
M  V30 7807 C 713.906 -5.3384 -0.303206 0
M  V30 7808 C 715.206 -4.88954 1.83633 0
M  V30 7809 H 716.9 -2.69298 1.30839 0
M  V30 7810 H 714.446 -1.29459 0.630579 0
M  V30 7811 H 716.399 -4.16622 -0.6328 0
M  V30 7812 H 715.123 -3.04765 -1.17414 0
M  V30 7813 H 713.782 -3.5545 0.897261 0
M  V30 7814 H 713.43 -4.88734 -1.18947 0
M  V30 7815 H 713.13 -5.86998 0.265879 0
M  V30 7816 H 714.654 -6.0719 -0.644423 0
M  V30 7817 H 716.068 -5.51717 1.55823 0
M  V30 7818 H 714.465 -5.52198 2.34941 0
M  V30 7819 H 715.535 -4.12305 2.55211 0
M  V30 7820 N 716.879 -0.700114 -1.41195 0
M  V30 7821 C 717.812 0.0129614 -2.28196 0
M  V30 7822 C 718.79 0.783367 -1.42486 0
M  V30 7823 O 719.974 0.773238 -1.71911 0
M  V30 7824 C 717.101 1.02575 -3.22794 0
M  V30 7825 C 716.147 0.347977 -4.25078 0
M  V30 7826 S 716.98 -0.912938 -5.27661 0
M  V30 7827 C 718.136 0.0981362 -6.25823 0
M  V30 7828 H 718.369 -0.724927 -2.88326 0
M  V30 7829 H 715.902 -0.490554 -1.464 0
M  V30 7830 H 717.86 1.60491 -3.77826 0
M  V30 7831 H 716.521 1.73624 -2.61751 0
M  V30 7832 H 715.714 1.11305 -4.91556 0
M  V30 7833 H 715.316 -0.15823 -3.73665 0
M  V30 7834 H 717.608 0.949965 -6.70807 0
M  V30 7835 H 718.551 -0.532838 -7.06092 0
M  V30 7836 H 718.959 0.454944 -5.62664 0
M  V30 7837 N 718.357 1.51182 -0.445186 0
M  V30 7838 C 719.289 2.25714 0.398206 0
M  V30 7839 C 720.302 1.30032 0.979562 0
M  V30 7840 O 721.491 1.55731 0.872368 0
M  V30 7841 C 718.591 3.00348 1.56985 0
M  V30 7842 C 717.764 4.23187 1.10596 0
M  V30 7843 C 716.823 4.80334 2.14863 0
M  V30 7844 O 715.849 5.4196 1.73977 0
M  V30 7845 N 717.051 4.65053 3.47427 0
M  V30 7846 H 719.816 2.98732 -0.240629 0
M  V30 7847 H 717.377 1.59556 -0.274507 0
M  V30 7848 H 719.369 3.35464 2.26376 0
M  V30 7849 H 717.939 2.30291 2.11387 0
M  V30 7850 H 717.159 3.93476 0.238832 0
M  V30 7851 H 718.447 5.02886 0.773537 0
M  V30 7852 H 717.845 4.15984 3.83372 0
M  V30 7853 H 716.402 5.04509 4.12691 0
M  V30 7854 N 719.835 0.176821 1.56605 0
M  V30 7855 C 721.246 -0.338963 1.83597 0
M  V30 7856 C 721.597 -1.62677 1.09684 0
M  V30 7857 O 720.722 -2.13524 0.351661 0
M  V30 7858 C 721.317 -0.62177 3.33046 0
M  V30 7859 C 719.876 -1.08198 3.60514 0
M  V30 7860 C 719.023 -0.120774 2.77037 0
M  V30 7861 H 721.974 0.400978 1.53551 0
M  V30 7862 H 721.995 -1.47321 3.50823 0
M  V30 7863 H 721.507 0.315692 3.86814 0
M  V30 7864 H 719.608 -2.03435 3.12162 0
M  V30 7865 H 719.721 -0.987329 4.68816 0
M  V30 7866 H 718.085 -0.619192 2.47059 0
M  V30 7867 H 718.868 0.810806 3.33588 0
M  V30 7868 N 721.313 -1.57302 -0.09688 0
M  V30 7869 C 722.223 -2.05258 -1.13606 0
M  V30 7870 C 723.239 -0.977137 -1.43972 0
M  V30 7871 O 724.415 -1.29018 -1.54649 0
M  V30 7872 C 721.48 -2.46593 -2.43706 0
M  V30 7873 C 720.541 -3.68322 -2.20538 0
M  V30 7874 C 719.774 -4.07676 -3.44435 0
M  V30 7875 O 719.997 -3.47141 -4.52603 0
M  V30 7876 O 718.931 -5.00641 -3.34129 0
M  V30 7877 H 722.757 -2.94069 -0.758752 0
M  V30 7878 H 720.342 -1.46164 -0.309263 0
M  V30 7879 H 722.224 -2.73814 -3.20318 0
M  V30 7880 H 720.899 -1.6092 -2.80867 0
M  V30 7881 H 719.806 -3.4622 -1.41713 0
M  V30 7882 H 721.139 -4.54769 -1.88271 0
M  V30 7883 N 722.791 0.367657 -1.53252 0
M  V30 7884 C 723.741 1.45035 -1.75923 0
M  V30 7885 C 724.725 1.48736 -0.613719 0
M  V30 7886 O 725.917 1.54012 -0.872313 0
M  V30 7887 C 723.046 2.82493 -1.9507 0
M  V30 7888 C 722.132 2.83279 -3.15617 0
M  V30 7889 N 722.523 2.53712 -4.37566 0
M  V30 7890 C 720.821 3.1444 -3.16297 0
M  V30 7891 C 721.522 2.62123 -5.19294 0
M  V30 7892 N 720.498 2.96747 -4.55458 0
M  V30 7893 H 724.3 1.21035 -2.6782 0
M  V30 7894 H 721.814 0.575822 -1.51849 0
M  V30 7895 H 723.811 3.60473 -2.0944 0
M  V30 7896 H 722.471 3.07459 -1.044 0
M  V30 7897 H 723.482 2.27344 -4.65333 0
M  V30 7898 H 720.159 3.44733 -2.35511 0
M  V30 7899 H 721.549 2.42628 -6.26563 0
M  V30 7900 N 724.269 1.44576 0.627338 0
M  V30 7901 C 725.546 1.38033 1.38586 0
M  V30 7902 C 725.926 0.0409468 2.1106 0
M  V30 7903 O 725.274 -0.976582 2.0658 0
M  V30 7904 C 725.484 2.58102 2.34913 0
M  V30 7905 C 726.832 3.02332 2.98129 0
M  V30 7906 O 727.856 2.58334 2.45238 0
M  V30 7907 O 726.715 3.78628 3.94085 0
M  V30 7908 H 723.809 0.546801 0.620434 0
M  V30 7909 H 726.355 1.56672 0.652077 0
M  V30 7910 H 725.127 3.4719 1.80485 0
M  V30 7911 H 724.75 2.41696 3.15703 0
M  V30 7912 N 725.747 -0.868086 1.31537 0
M  V30 7913 C 726.993 -1.62367 1.2151 0
M  V30 7914 C 727.326 -1.92883 -0.225819 0
M  V30 7915 O 726.601 -1.56176 -1.15927 0
M  V30 7916 C 726.884 -2.95268 2.06129 0
M  V30 7917 C 726.737 -2.71619 3.58529 0
M  V30 7918 C 728.056 -3.96391 1.91212 0
M  V30 7919 H 725.175 -0.589178 0.442762 0
M  V30 7920 H 727.817 -1.00336 1.61347 0
M  V30 7921 H 725.967 -3.4821 1.72284 0
M  V30 7922 H 727.639 -2.25334 4.0252 0
M  V30 7923 H 725.882 -2.05817 3.81866 0
M  V30 7924 H 726.553 -3.66192 4.13047 0
M  V30 7925 H 729.029 -3.52663 2.20834 0
M  V30 7926 H 727.905 -4.87263 2.52718 0
M  V30 7927 H 728.166 -4.33335 0.875953 0
M  V30 7928 N 727.225 -1.14528 -1.08264 0
M  V30 7929 C 728.636 -0.925261 -1.6216 0
M  V30 7930 C 728.987 0.535587 -1.88748 0
M  V30 7931 O 728.112 1.4048 -1.64604 0
M  V30 7932 C 728.707 -1.67316 -2.94603 0
M  V30 7933 C 727.266 -1.49868 -3.45278 0
M  V30 7934 C 726.413 -1.69471 -2.19487 0
M  V30 7935 H 729.364 -1.29687 -0.914707 0
M  V30 7936 H 729.385 -1.13721 -3.63109 0
M  V30 7937 H 728.897 -2.73635 -2.75219 0
M  V30 7938 H 726.998 -0.459032 -3.69762 0
M  V30 7939 H 727.111 -2.2696 -4.21931 0
M  V30 7940 H 725.475 -1.12048 -2.2873 0
M  V30 7941 H 726.258 -2.77136 -2.0261 0
M  V30 7942 N 728.703 1.26451 -0.940633 0
M  V30 7943 C 729.949 1.94065 -0.58878 0
M  V30 7944 C 730.282 1.7363 0.869853 0
M  V30 7945 O 729.557 1.073 1.62225 0
M  V30 7946 C 729.84 3.47852 -0.931199 0
M  V30 7947 C 729.693 3.77575 -2.44453 0
M  V30 7948 C 731.012 4.37832 -0.446229 0
M  V30 7949 H 728.131 0.704827 -0.21538 0
M  V30 7950 H 730.773 1.4933 -1.17475 0
M  V30 7951 H 728.923 3.86085 -0.432539 0
M  V30 7952 H 730.595 3.49059 -3.01588 0
M  V30 7953 H 728.838 3.23671 -2.88825 0
M  V30 7954 H 729.509 4.85068 -2.63464 0
M  V30 7955 H 731.985 4.06822 -0.873778 0
M  V30 7956 H 730.861 5.44228 -0.714648 0
M  V30 7957 H 731.122 4.37239 0.653815 0
M  V30 7958 N 730.181 0.707592 1.40822 0
M  V30 7959 C 731.597 0.38034 1.55002 0
M  V30 7960 C 731.797 -1.11163 1.68062 0
M  V30 7961 O 730.853 -1.89761 1.66574 0
M  V30 7962 C 732.166 1.1394 2.78277 0
M  V30 7963 C 733.714 1.12492 2.92087 0
M  V30 7964 C 734.189 1.86597 4.18265 0
M  V30 7965 N 735.68 1.83626 4.25248 0
M  V30 7966 C 736.415 2.37794 5.21768 0
M  V30 7967 N 735.911 3.00485 6.24244 0
M  V30 7968 N 737.704 2.27982 5.13791 0
M  V30 7969 H 729.855 1.67511 1.3059 0
M  V30 7970 H 732.118 0.707579 0.630901 0
M  V30 7971 H 731.824 2.19398 2.74877 0
M  V30 7972 H 731.698 0.725793 3.70151 0
M  V30 7973 H 734.085 0.0785564 2.94995 0
M  V30 7974 H 734.166 1.57768 2.01353 0
M  V30 7975 H 733.81 2.91219 4.16118 0
M  V30 7976 H 733.74 1.38746 5.07993 0
M  V30 7977 H 736.231 1.3793 3.51829 0
M  V30 7978 H 736.544 3.39355 6.94304 0
M  V30 7979 H 734.889 3.04567 6.24711 0
M  V30 7980 H 738.08 1.78669 4.3266 0
M  V30 7981 H 738.253 2.70499 5.88841 0
M  V30 7982 N 731.66 -1.50943 0.453197 0
M  V30 7983 C 732.89 -2.06328 -0.105981 0
M  V30 7984 C 733.298 -1.31909 -1.35634 0
M  V30 7985 O 732.641 -0.376607 -1.79798 0
M  V30 7986 C 732.703 -3.5631 -0.477868 0
M  V30 7987 C 732.367 -4.52093 0.667925 0
M  V30 7988 C 733.364 -4.96421 1.54475 0
M  V30 7989 C 731.049 -4.95001 0.853168 0
M  V30 7990 C 733.043 -5.82346 2.59138 0
M  V30 7991 C 730.73 -5.80713 1.90305 0
M  V30 7992 C 731.728 -6.24284 2.77053 0
M  V30 7993 O 731.416 -7.08291 3.80236 0
M  V30 7994 H 731.148 -0.675986 -0.00427247 0
M  V30 7995 H 733.702 -1.95314 0.635738 0
M  V30 7996 H 731.932 -3.65163 -1.27252 0
M  V30 7997 H 733.621 -3.94138 -0.970039 0
M  V30 7998 H 734.387 -4.63953 1.41324 0
M  V30 7999 H 730.266 -4.60619 0.187482 0
M  V30 8000 H 733.81 -6.16276 3.2688 0
M  V30 8001 H 729.707 -6.12593 2.03469 0
M  V30 8002 H 730.475 -7.26504 3.77007 0
M  V30 8003 N 733.138 -0.185124 -1.56509 0
M  V30 8004 C 734.554 0.170865 -1.58683 0
M  V30 8005 C 734.754 1.61799 -1.20098 0
M  V30 8006 O 733.81 2.35181 -0.919038 0
M  V30 8007 C 735.123 -0.122459 -3.00451 0
M  V30 8008 C 736.671 -0.0617699 -3.12939 0
M  V30 8009 C 737.146 -0.328269 -4.56822 0
M  V30 8010 N 738.637 -0.276533 -4.62374 0
M  V30 8011 C 739.372 -0.456722 -5.71578 0
M  V30 8012 N 738.868 -0.69672 -6.89288 0
M  V30 8013 N 740.661 -0.391669 -5.60734 0
M  V30 8014 H 732.812 -1.12956 -1.79874 0
M  V30 8015 H 735.075 -0.45011 -0.834329 0
M  V30 8016 H 734.781 -1.12546 -3.33206 0
M  V30 8017 H 734.655 0.579578 -3.72721 0
M  V30 8018 H 737.042 0.931826 -2.80002 0
M  V30 8019 H 737.123 -0.796732 -2.43076 0
M  V30 8020 H 736.767 -1.31914 -4.9047 0
M  V30 8021 H 736.697 0.427465 -5.24862 0
M  V30 8022 H 739.188 -0.0972458 -3.77775 0
M  V30 8023 H 739.501 -0.823291 -7.68402 0
M  V30 8024 H 737.846 -0.733497 -6.91119 0
M  V30 8025 H 741.037 -0.204663 -4.67652 0
M  V30 8026 H 741.21 -0.535518 -6.45783 0
M  V30 8027 N 734.616 1.57351 0.0885366 0
M  V30 8028 C 735.865 1.85604 0.789556 0
M  V30 8029 C 736.178 0.775352 1.79576 0
M  V30 8030 O 737.384 0.945206 2.54515 0
M  V30 8031 C 735.84 3.29175 1.45506 0
M  V30 8032 C 735.448 4.45331 0.488278 0
M  V30 8033 C 737.192 3.66646 2.13942 0
M  V30 8034 C 735.099 5.79937 1.15874 0
M  V30 8035 H 734.029 0.692346 0.298619 0
M  V30 8036 H 736.68 1.83451 0.0425821 0
M  V30 8037 H 735.062 3.25889 2.24972 0
M  V30 8038 H 736.236 4.59977 -0.275359 0
M  V30 8039 H 734.551 4.16301 -0.0907363 0
M  V30 8040 H 737.148 4.64498 2.6485 0
M  V30 8041 H 737.491 2.956 2.93132 0
M  V30 8042 H 738.024 3.71848 1.41328 0
M  V30 8043 H 734.763 6.54232 0.407508 0
M  V30 8044 H 734.283 5.69123 1.89364 0
M  V30 8045 H 735.962 6.24718 1.68336 0
M  V30 8046 N 736.094 -0.359525 1.53444 0
M  V30 8047 C 737.51 -0.701599 1.43352 0
M  V30 8048 C 737.71 -1.93049 0.577439 0
M  V30 8049 O 736.766 -2.52423 0.0622224 0
M  V30 8050 C 738.079 -0.90915 2.86627 0
M  V30 8051 C 739.627 -1.00878 2.96298 0
M  V30 8052 C 740.102 -1.24876 4.40647 0
M  V30 8053 N 741.593 -1.31632 4.44103 0
M  V30 8054 C 742.328 -1.51922 5.52908 0
M  V30 8055 N 741.824 -1.69489 6.71748 0
M  V30 8056 N 743.617 -1.54341 5.40496 0
M  V30 8057 H 735.768 0.448685 2.07607 0
M  V30 8058 H 738.031 0.138713 0.937797 0
M  V30 8059 H 737.737 -0.0778997 3.51614 0
M  V30 8060 H 737.611 -1.81551 3.30634 0
M  V30 8061 H 739.998 -1.83057 2.31461 0
M  V30 8062 H 740.079 -0.0796721 2.55676 0
M  V30 8063 H 739.723 -0.431961 5.0606 0
M  V30 8064 H 739.653 -2.19118 4.78848 0
M  V30 8065 H 742.144 -1.19646 3.5846 0
M  V30 8066 H 742.457 -1.84561 7.50438 0
M  V30 8067 H 740.802 -1.66655 6.74723 0
M  V30 8068 H 743.993 -1.40188 4.46615 0
M  V30 8069 H 744.166 -1.69812 6.25354 0
M  V30 8070 N 737.572 -1.44907 -0.619662 0
M  V30 8071 C 738.983 -1.42905 -1.20146 0
M  V30 8072 C 739.334 -0.150341 -1.95623 0
M  V30 8073 O 738.459 0.748732 -2.03034 0
M  V30 8074 C 739.054 -2.58889 -2.18545 0
M  V30 8075 C 737.613 -2.60046 -2.72127 0
M  V30 8076 C 736.76 -2.3493 -1.4732 0
M  V30 8077 H 739.711 -1.53321 -0.409666 0
M  V30 8078 H 739.732 -2.32298 -3.0136 0
M  V30 8079 H 739.244 -3.51941 -1.63583 0
M  V30 8080 H 737.345 -1.70968 -3.3106 0
M  V30 8081 H 737.458 -3.58893 -3.17384 0
M  V30 8082 H 735.822 -1.84248 -1.75855 0
M  V30 8083 H 736.605 -3.3011 -0.942442 0
M  V30 8084 O 739.089 0.763334 -1.42322 0
M  V30 8085 H 739.78 1.41133 -1.3267 0
M  V30 END ATOM
M  V30 BEGIN BOND
M  V30 END BOND
M  V30 END CTAB
M  END
$$$$
