drugbank_target|O95178 NADH dehydrogenase [ubiquinone] 1 beta subcomplex subunit 2, mitochondrial (DB00157)
 OpenBabel12092119313D

  0  0  0     0  0            999 V3000
M  V30 BEGIN CTAB
M  V30 COUNTS 1647 1678 0 0 0
M  V30 BEGIN ATOM
M  V30 1 H -0.908 1.98254 -0.117106 0
M  V30 2 N 0 1.576 0 0
M  V30 3 C 0.933 2.03868 1.02534 0
M  V30 4 C 1.911 0.928543 1.3348 0
M  V30 5 O 3.095 1.19667 1.45644 0
M  V30 6 C 0.222 2.43627 2.35294 0
M  V30 7 C -0.732 3.65373 2.2001 0
M  V30 8 S 0.101 5.13292 1.52614 0
M  V30 9 C 1.257 5.56322 2.86805 0
M  V30 10 H 1.49 2.90518 0.631377 0
M  V30 11 H -0.977 1.52953 0.210867 0
M  V30 12 H 0.981 2.67203 3.11629 0
M  V30 13 H -0.358 1.57376 2.7183 0
M  V30 14 H -1.165 3.90944 3.18086 0
M  V30 15 H -1.563 3.418 1.51819 0
M  V30 16 H 0.729 5.58782 3.83104 0
M  V30 17 H 1.672 6.56266 2.65933 0
M  V30 18 H 2.08 4.83886 2.90714 0
M  V30 19 N 1.4781 -0.272755 1.55222 0
M  V30 20 C 2.7031 -1.02683 1.80197 0
M  V30 21 C 3.1281 -1.79142 0.573551 0
M  V30 22 O 2.4861 -1.74917 -0.476849 0
M  V30 23 C 2.5341 -1.9609 3.02624 0
M  V30 24 O 1.6381 -3.04863 2.77727 0
M  V30 25 H 0.9791 -0.293557 0.595584 0
M  V30 26 H 3.5091 -0.30159 2.02365 0
M  V30 27 H 3.5191 -2.38039 3.31363 0
M  V30 28 H 2.1941 -1.39851 3.91682 0
M  V30 29 H 0.7711 -2.67228 2.60084 0
M  V30 30 N 2.9562 -1.48159 -0.537278 0
M  V30 31 C 3.9192 -1.61665 -1.62472 0
M  V30 32 C 4.9192 -0.490395 -1.5314 0
M  V30 33 O 6.1092 -0.755998 -1.5694 0
M  V30 34 C 3.2412 -1.57997 -3.02076 0
M  V30 35 H 4.4342 -2.58621 -1.51839 0
M  V30 36 H 1.9872 -1.36647 -0.758771 0
M  V30 37 H 2.7222 -0.624913 -3.18222 0
M  V30 38 H 2.5072 -2.39755 -3.10258 0
M  V30 39 H 3.9972 -1.70627 -3.81151 0
M  V30 40 N 4.4343 0.785586 -1.36625 0
M  V30 41 C 5.3643 1.91259 -1.33949 0
M  V30 42 C 6.3453 1.68795 -0.210325 0
M  V30 43 O 7.5303 1.89854 -0.408561 0
M  V30 44 C 4.6603 3.28339 -1.13186 0
M  V30 45 C 3.6143 3.65335 -2.22967 0
M  V30 46 C 2.9403 5.00806 -1.87342 0
M  V30 47 C 4.2403 3.7352 -3.65075 0
M  V30 48 H 5.9343 1.93755 -2.28253 0
M  V30 49 H 3.4803 0.930788 -1.09874 0
M  V30 50 H 5.4333 4.06804 -1.09948 0
M  V30 51 H 4.1573 3.2624 -0.153332 0
M  V30 52 H 2.8163 2.89169 -2.25337 0
M  V30 53 H 2.4643 4.95233 -0.880545 0
M  V30 54 H 2.1643 5.26529 -2.60846 0
M  V30 55 H 3.6883 5.81687 -1.85667 0
M  V30 56 H 5.1023 4.42168 -3.64911 0
M  V30 57 H 3.4993 4.10731 -4.37516 0
M  V30 58 H 4.5693 2.74527 -3.99703 0
M  V30 59 N 5.9124 1.20967 1.01018 0
M  V30 60 C 7.1404 1.04956 1.78303 0
M  V30 61 C 7.5554 -0.400915 1.84494 0
M  V30 62 O 6.9124 -1.27826 1.30257 0
M  V30 63 C 6.9634 1.63403 3.22462 0
M  V30 64 O 6.6844 3.02775 3.16637 0
M  V30 65 C 8.1854 1.52432 4.16268 0
M  V30 66 H 5.4054 0.368858 0.560522 0
M  V30 67 H 7.9494 1.60193 1.27116 0
M  V30 68 H 6.1044 1.1227 3.70775 0
M  V30 69 H 6.5184 3.30626 4.07169 0
M  V30 70 H 7.9924 1.98078 5.15237 0
M  V30 71 H 8.4694 0.477875 4.36592 0
M  V30 72 H 9.0754 2.02787 3.73841 0
M  V30 73 N 7.3905 -1.2043 1.01659 0
M  V30 74 C 8.8065 -1.41852 0.731442 0
M  V30 75 C 9.0065 -1.89358 -0.688898 0
M  V30 76 O 8.0625 -2.06247 -1.45666 0
M  V30 77 C 9.3755 -2.44019 1.75714 0
M  V30 78 C 10.9235 -2.57785 1.77527 0
M  V30 79 C 11.3985 -3.63194 2.79023 0
M  V30 80 N 12.8895 -3.70678 2.77763 0
M  V30 81 C 13.6245 -4.51897 3.52954 0
M  V30 82 N 13.1205 -5.36921 4.37821 0
M  V30 83 N 14.9135 -4.4643 3.41551 0
M  V30 84 H 7.0645 -0.879093 1.93354 0
M  V30 85 H 9.3275 -0.448425 0.835236 0
M  V30 86 H 9.0335 -2.1611 2.77469 0
M  V30 87 H 8.9075 -3.43007 1.56927 0
M  V30 88 H 11.2945 -2.85023 0.764569 0
M  V30 89 H 11.3755 -1.58992 2.00387 0
M  V30 90 H 11.0195 -3.36699 3.80258 0
M  V30 91 H 10.9495 -4.61609 2.53425 0
M  V30 92 H 13.4405 -3.09944 2.16201 0
M  V30 93 H 13.7535 -5.95981 4.91962 0
M  V30 94 H 12.0985 -5.36424 4.41899 0
M  V30 95 H 15.2895 -3.79042 2.74672 0
M  V30 96 H 15.4625 -5.09491 4.00404 0
M  V30 97 N 8.8686 -0.792821 -1.36206 0
M  V30 98 C 9.7986 -0.207853 -2.32573 0
M  V30 99 C 10.7796 0.659055 -1.56813 0
M  V30 100 O 11.9646 0.592176 -1.84951 0
M  V30 101 C 9.0946 0.655449 -3.41059 0
M  V30 102 C 8.0486 -0.111842 -4.27854 0
M  V30 103 C 7.3746 0.872274 -5.27537 0
M  V30 104 C 8.6746 -1.30299 -5.05786 0
M  V30 105 H 10.3686 -1.01294 -2.81744 0
M  V30 106 H 7.9146 -0.48854 -1.3546 0
M  V30 107 H 9.8676 1.07464 -4.07467 0
M  V30 108 H 8.5916 1.49328 -2.90463 0
M  V30 109 H 7.2506 -0.512053 -3.63006 0
M  V30 110 H 6.8986 1.70523 -4.73214 0
M  V30 111 H 6.5986 0.363291 -5.86476 0
M  V30 112 H 8.1226 1.28996 -5.96818 0
M  V30 113 H 9.5366 -0.959379 -5.65216 0
M  V30 114 H 7.9336 -1.7455 -5.74154 0
M  V30 115 H 9.0036 -2.09663 -4.37229 0
M  V30 116 N 10.3467 1.47872 -0.545128 0
M  V30 117 C 11.3097 2.28337 0.198717 0
M  V30 118 C 12.3097 1.36255 0.853888 0
M  V30 119 O 13.4997 1.59003 0.711606 0
M  V30 120 C 10.6317 3.15585 1.28915 0
M  V30 121 H 11.8247 2.95567 -0.507941 0
M  V30 122 H 9.3777 1.53362 -0.301616 0
M  V30 123 H 10.1127 2.53019 2.02859 0
M  V30 124 H 9.8977 3.83337 0.824309 0
M  V30 125 H 11.3877 3.76243 1.81194 0
M  V30 126 N 11.8248 0.280983 1.55075 0
M  V30 127 C 13.0498 -0.340154 2.04592 0
M  V30 128 C 13.4748 -1.48246 1.15779 0
M  V30 129 O 12.8328 -1.80614 0.15761 0
M  V30 130 C 12.8808 -0.793104 3.5177 0
M  V30 131 O 11.9848 -1.89981 3.66034 0
M  V30 132 H 11.3258 -0.0694289 0.66036 0
M  V30 133 H 13.8558 0.416993 2.00306 0
M  V30 134 H 13.8658 -1.08729 3.93245 0
M  V30 135 H 12.5408 0.0426163 4.15878 0
M  V30 136 H 11.1178 -1.60771 3.36463 0
M  V30 137 N 13.3029 -1.57598 0.00835791 0
M  V30 138 C 14.5499 -1.90928 -0.674732 0
M  V30 139 C 14.8779 -0.88277 -1.73313 0
M  V30 140 O 14.1329 0.111294 -1.95383 0
M  V30 141 C 14.4319 -3.3101 -1.34787 0
M  V30 142 C 14.0979 -4.48922 -0.421861 0
M  V30 143 C 12.7599 -4.8091 -0.166927 0
M  V30 144 C 15.1119 -5.20755 0.215211 0
M  V30 145 C 12.4399 -5.821 0.733232 0
M  V30 146 C 14.7919 -6.22905 1.1033 0
M  V30 147 C 13.4559 -6.53346 1.36733 0
M  V30 148 H 12.7259 -0.698656 -0.246902 0
M  V30 149 H 15.3729 -1.91387 0.0656779 0
M  V30 150 H 13.6779 -3.26714 -2.16253 0
M  V30 151 H 15.3749 -3.54061 -1.8826 0
M  V30 152 H 11.9649 -4.23934 -0.630729 0
M  V30 153 H 16.1489 -4.9629 0.0312829 0
M  V30 154 H 11.4049 -6.04042 0.945712 0
M  V30 155 H 15.5789 -6.77694 1.60325 0
M  V30 156 H 13.2059 -7.31573 2.06652 0
M  V30 157 N 14.781 0.264519 -1.55364 0
M  V30 158 C 15.744 1.31046 -1.88042 0
M  V30 159 C 16.744 1.41943 -0.755569 0
M  V30 160 O 17.934 1.40947 -1.02369 0
M  V30 161 C 15.066 2.69067 -2.09323 0
M  V30 162 H 16.259 1.03297 -2.81549 0
M  V30 163 H 13.812 0.502989 -1.47986 0
M  V30 164 H 14.547 3.01982 -1.18226 0
M  V30 165 H 14.332 2.62542 -2.91229 0
M  V30 166 H 15.822 3.44623 -2.35848 0
M  V30 167 N 16.2591 1.48442 0.529413 0
M  V30 168 C 17.6751 1.34575 0.858004 0
M  V30 169 C 17.8751 0.3572 1.98309 0
M  V30 170 O 16.9311 -0.221379 2.51528 0
M  V30 171 C 18.2441 2.74617 1.22499 0
M  V30 172 C 19.7921 2.83109 1.33484 0
M  V30 173 C 20.2671 4.23854 1.73526 0
M  V30 174 N 21.7581 4.2653 1.80628 0
M  V30 175 C 22.4931 5.32372 2.12997 0
M  V30 176 N 21.9891 6.48491 2.43786 0
M  V30 177 N 23.7821 5.19766 2.14008 0
M  V30 178 H 15.9331 2.1133 -0.212925 0
M  V30 179 H 18.1961 0.947439 -0.0326199 0
M  V30 180 H 17.9021 3.4852 0.471905 0
M  V30 181 H 17.7761 3.08177 2.17501 0
M  V30 182 H 20.1631 2.09462 2.0787 0
M  V30 183 H 20.2441 2.53168 0.366027 0
M  V30 184 H 19.8881 4.98018 0.997013 0
M  V30 185 H 19.8181 4.5124 2.71459 0
M  V30 186 H 22.3091 3.42772 1.59108 0
M  V30 187 H 22.6221 7.24993 2.67592 0
M  V30 188 H 20.9671 6.51765 2.41304 0
M  V30 189 H 24.1581 4.28066 1.89412 0
M  V30 190 H 24.3311 6.02354 2.38902 0
M  V30 191 N 17.7372 -0.778329 1.37039 0
M  V30 192 C 18.9832 -1.53892 1.32079 0
M  V30 193 C 19.3162 -1.9396 -0.0965386 0
M  V30 194 O 18.5912 -1.63568 -1.05242 0
M  V30 195 C 18.8742 -2.80847 2.25382 0
M  V30 196 C 18.7272 -2.47076 3.75864 0
M  V30 197 C 20.0462 -3.82741 2.1725 0
M  V30 198 H 17.1652 -0.558303 0.48111 0
M  V30 199 H 19.8072 -0.893397 1.67685 0
M  V30 200 H 17.9572 -3.35931 1.95148 0
M  V30 201 H 19.6292 -1.97957 4.16666 0
M  V30 202 H 17.8722 -1.79863 3.94755 0
M  V30 203 H 18.5432 -3.37798 4.36574 0
M  V30 204 H 21.0192 -3.37133 2.43887 0
M  V30 205 H 19.8952 -4.69303 2.84686 0
M  V30 206 H 20.1562 -4.2652 1.16331 0
M  V30 207 N 19.2153 -1.21501 -1.00376 0
M  V30 208 C 20.4633 -1.03095 -1.73827 0
M  V30 209 C 20.7843 0.436341 -1.90055 0
M  V30 210 O 20.0543 1.31466 -1.45236 0
M  V30 211 H 18.6343 -0.378487 -0.644016 0
M  V30 212 H 21.2963 -1.52831 -1.20949 0
M  V30 213 H 20.3923 -1.49991 -2.73695 0
M  V30 214 N 20.6934 1.19889 -1.02296 0
M  V30 215 C 21.9414 1.89046 -0.714558 0
M  V30 216 C 22.2624 1.79636 0.758681 0
M  V30 217 O 21.5324 1.20292 1.54618 0
M  V30 218 H 20.1124 0.699802 -0.261317 0
M  V30 219 H 22.7744 1.45574 -1.29592 0
M  V30 220 H 21.8704 2.95524 -1.0036 0
M  V30 221 N 22.1715 0.800033 1.35784 0
M  V30 222 C 23.5875 0.482977 1.52117 0
M  V30 223 C 23.7875 -0.996948 1.75109 0
M  V30 224 O 22.8435 -1.78216 1.78872 0
M  V30 225 C 24.1565 1.32264 2.70049 0
M  V30 226 C 25.7045 1.31742 2.83924 0
M  V30 227 C 26.1795 2.14106 4.04874 0
M  V30 228 N 27.6705 2.11607 4.12039 0
M  V30 229 C 28.4055 2.72099 5.04727 0
M  V30 230 N 27.9015 3.41492 6.02789 0
M  V30 231 N 29.6945 2.61776 4.97423 0
M  V30 232 H 21.8455 1.75856 1.19115 0
M  V30 233 H 24.1085 0.748122 0.582252 0
M  V30 234 H 23.8145 2.37261 2.59616 0
M  V30 235 H 23.6885 0.971303 3.6448 0
M  V30 236 H 26.0755 0.275333 2.93813 0
M  V30 237 H 26.1565 1.70859 1.9037 0
M  V30 238 H 25.8005 3.18351 3.95746 0
M  V30 239 H 25.7305 1.72353 4.97596 0
M  V30 240 H 28.2215 1.61112 3.41835 0
M  V30 241 H 28.5345 3.84953 6.70098 0
M  V30 242 H 26.8795 3.45596 6.02983 0
M  V30 243 H 30.0705 2.07157 4.19766 0
M  V30 244 H 30.2435 3.0921 5.69468 0
M  V30 245 N 23.6496 -1.47581 0.552962 0
M  V30 246 C 24.5796 -2.32762 -0.185451 0
M  V30 247 C 25.5606 -1.43527 -0.912905 0
M  V30 248 O 26.7456 -1.72388 -0.894201 0
M  V30 249 C 23.8756 -3.25219 -1.21859 0
M  V30 250 C 22.8296 -4.23661 -0.607864 0
M  V30 251 C 22.1556 -5.05413 -1.74533 0
M  V30 252 C 23.4556 -5.20481 0.435582 0
M  V30 253 H 25.1496 -2.94749 0.525684 0
M  V30 254 H 22.6956 -1.41738 0.254251 0
M  V30 255 H 24.6486 -3.8365 -1.7433 0
M  V30 256 H 23.3726 -2.61279 -1.95961 0
M  V30 257 H 22.0316 -3.66451 -0.104489 0
M  V30 258 H 21.6796 -4.3788 -2.47529 0
M  V30 259 H 21.3796 -5.72059 -1.34249 0
M  V30 260 H 22.9036 -5.66701 -2.27338 0
M  V30 261 H 24.3176 -5.733 -0.00290157 0
M  V30 262 H 22.7146 -5.95305 0.757067 0
M  V30 263 H 23.7846 -4.66217 1.33303 0
M  V30 264 N 25.1277 -0.289203 -1.54924 0
M  V30 265 C 26.3747 0.323519 -1.99899 0
M  V30 266 C 26.7027 1.54797 -1.17762 0
M  V30 267 O 25.9577 1.94237 -0.238835 0
M  V30 268 C 26.2567 0.736119 -3.49737 0
M  V30 269 C 25.9227 -0.385276 -4.49251 0
M  V30 270 C 24.5847 -0.693156 -4.76181 0
M  V30 271 C 26.9367 -1.14021 -5.08575 0
M  V30 272 C 24.2647 -1.7593 -5.59701 0
M  V30 273 C 26.6167 -2.19619 -5.93254 0
M  V30 274 C 25.2807 -2.51026 -6.185 0
M  V30 275 H 24.5507 0.118384 -0.731482 0
M  V30 276 H 27.1977 -0.405847 -1.8715 0
M  V30 277 H 25.5027 1.54539 -3.60035 0
M  V30 278 H 27.1997 1.22118 -3.81953 0
M  V30 279 H 23.7897 -0.135202 -4.28387 0
M  V30 280 H 27.9737 -0.915611 -4.87781 0
M  V30 281 H 23.2297 -2.0075 -5.77503 0
M  V30 282 H 27.4037 -2.78581 -6.38252 0
M  V30 283 H 25.0307 -3.33772 -6.83008 0
M  V30 284 N 26.6058 1.57591 -0.0167156 0
M  V30 285 C 28.0218 1.55946 0.339557 0
M  V30 286 C 28.2218 1.02109 1.73713 0
M  V30 287 O 27.2778 0.662303 2.43659 0
M  V30 288 C 28.5908 3.00037 0.199499 0
M  V30 289 C 30.1388 3.11805 0.273193 0
M  V30 290 C 30.6138 4.57713 0.162068 0
M  V30 291 N 32.1048 4.6268 0.219444 0
M  V30 292 C 32.8398 5.73185 0.157054 0
M  V30 293 N 32.3358 6.92786 0.0442936 0
M  V30 294 N 34.1288 5.61707 0.21014 0
M  V30 295 H 26.2798 1.90921 -0.930758 0
M  V30 296 H 28.5428 0.877674 -0.358319 0
M  V30 297 H 28.2488 3.4333 -0.76273 0
M  V30 298 H 28.1228 3.64387 0.974786 0
M  V30 299 H 30.5098 2.68433 1.22587 0
M  V30 300 H 30.5908 2.50201 -0.532256 0
M  V30 301 H 30.2348 5.01763 -0.78714 0
M  V30 302 H 30.1648 5.17283 0.986222 0
M  V30 303 H 32.6558 3.76649 0.307246 0
M  V30 304 H 32.9688 7.728 0.00304069 0
M  V30 305 H 31.3138 6.94999 0.00968457 0
M  V30 306 H 34.5048 4.6716 0.296546 0
M  V30 307 H 34.6778 6.47807 0.158054 0
M  V30 308 N 28.0839 -0.256276 1.55502 0
M  V30 309 C 29.3089 -1.00766 1.81276 0
M  V30 310 C 29.7339 -1.78524 0.59252 0
M  V30 311 O 29.0919 -1.75413 -0.45827 0
M  V30 312 C 29.1399 -1.92869 3.04687 0
M  V30 313 O 28.2439 -3.019 2.80945 0
M  V30 314 H 27.5849 -0.287224 0.598664 0
M  V30 315 H 30.1149 -0.280109 2.02674 0
M  V30 316 H 30.1249 -2.34511 3.33869 0
M  V30 317 H 28.7999 -1.35689 3.93143 0
M  V30 318 H 27.3769 -2.64454 2.62904 0
M  V30 319 N 29.562 -1.4872 -0.521534 0
M  V30 320 C 30.81 -1.56857 -1.27437 0
M  V30 321 C 31.131 -0.247982 -1.93417 0
M  V30 322 O 30.401 0.731151 -1.81744 0
M  V30 323 H 28.981 -0.577885 -0.473347 0
M  V30 324 H 31.643 -1.85233 -0.606205 0
M  V30 325 H 30.739 -2.35402 -2.0492 0
M  V30 326 N 31.0401 0.771051 -1.3745 0
M  V30 327 C 32.2801 1.54264 -1.34096 0
M  V30 328 C 32.6441 1.91858 0.0737639 0
M  V30 329 O 33.8451 2.67797 0.23203 0
M  V30 330 C 32.1161 2.77326 -2.25445 0
M  V30 331 S 33.6751 3.67383 -2.39948 0
M  V30 332 H 30.4931 0.528122 -0.476034 0
M  V30 333 H 33.0951 0.906633 -1.73206 0
M  V30 334 H 31.7991 2.47788 -3.27153 0
M  V30 335 H 31.3301 3.45886 -1.87421 0
M  V30 336 H 33.3451 4.69334 -1.61059 0
M  V30 337 N 32.5182 1.22032 0.997298 0
M  V30 338 C 33.4812 0.987909 2.06816 0
M  V30 339 C 34.4812 -0.0440084 1.6074 0
M  V30 340 O 35.6712 0.194053 1.73116 0
M  V30 341 C 32.8032 0.49132 3.37341 0
M  V30 342 H 33.9962 1.93803 2.28868 0
M  V30 343 H 31.5492 1.03838 1.16822 0
M  V30 344 H 32.2842 -0.463364 3.20973 0
M  V30 345 H 32.0692 1.23575 3.72118 0
M  V30 346 H 33.5592 0.348824 4.16141 0
M  V30 347 N 33.9963 -1.19345 1.0293 0
M  V30 348 C 35.4123 -1.41069 0.746446 0
M  V30 349 C 35.6123 -1.90078 -0.668776 0
M  V30 350 O 34.6683 -2.0778 -1.4347 0
M  V30 351 C 35.9813 -2.42141 1.78292 0
M  V30 352 C 37.5293 -2.55887 1.80252 0
M  V30 353 C 38.0043 -3.60214 2.8286 0
M  V30 354 N 39.4953 -3.67711 2.81679 0
M  V30 355 C 40.2303 -4.48128 3.57727 0
M  V30 356 N 39.7263 -5.32248 4.43491 0
M  V30 357 N 41.5193 -4.42782 3.46267 0
M  V30 358 H 33.6703 -0.858536 1.94275 0
M  V30 359 H 35.9333 -0.439541 0.839945 0
M  V30 360 H 35.6393 -2.13155 2.79746 0
M  V30 361 H 35.5133 -3.41323 1.60557 0
M  V30 362 H 37.9003 -2.84196 0.794757 0
M  V30 363 H 37.9813 -1.56858 2.02062 0
M  V30 364 H 37.6253 -3.32647 3.83807 0
M  V30 365 H 37.5553 -4.58895 2.58307 0
M  V30 366 H 40.0463 -3.07634 2.19476 0
M  V30 367 H 40.3593 -5.90729 4.98256 0
M  V30 368 H 38.7043 -5.31707 4.47564 0
M  V30 369 H 41.8953 -3.76107 2.78677 0
M  V30 370 H 42.0683 -5.05215 4.05785 0
M  V30 371 N 35.4744 -0.807222 -1.35358 0
M  V30 372 C 36.7024 -0.400377 -2.02989 0
M  V30 373 C 37.1174 0.988859 -1.60832 0
M  V30 374 O 36.4744 1.63729 -0.806175 0
M  V30 375 C 36.5254 -0.474867 -3.58368 0
M  V30 376 O 36.2464 -1.80933 -3.98992 0
M  V30 377 C 37.7474 -0.0609112 -4.43258 0
M  V30 378 H 34.9674 -0.162587 -0.651004 0
M  V30 379 H 37.5114 -1.09102 -1.72965 0
M  V30 380 H 35.6664 0.167534 -3.87038 0
M  V30 381 H 36.0804 -1.77256 -4.9364 0
M  V30 382 H 37.5544 -0.164145 -5.51756 0
M  V30 383 H 38.0314 0.993831 -4.27808 0
M  V30 384 H 38.6374 -0.676492 -4.19885 0
M  V30 385 N 36.9525 1.47285 -0.560781 0
M  V30 386 C 37.9155 2.28535 0.174488 0
M  V30 387 C 38.9155 1.37153 0.839388 0
M  V30 388 O 40.1055 1.59748 0.694702 0
M  V30 389 C 37.2375 3.16934 1.25561 0
M  V30 390 H 38.4305 2.95012 -0.539262 0
M  V30 391 H 35.9835 1.53034 -0.317865 0
M  V30 392 H 36.7185 2.55157 2.00164 0
M  V30 393 H 36.5035 3.8419 0.783604 0
M  V30 394 H 37.9935 3.78143 1.77193 0
M  V30 395 N 38.4306 0.297415 1.54768 0
M  V30 396 C 39.6786 -0.312295 1.99673 0
M  V30 397 C 39.9996 -1.54686 1.18732 0
M  V30 398 O 39.2696 -1.93854 0.282382 0
M  V30 399 H 37.8496 -0.118381 0.73756 0
M  V30 400 H 40.5116 0.407915 1.90583 0
M  V30 401 H 39.6076 -0.586813 3.06534 0
M  V30 402 N 39.9087 -1.5758 0.0250728 0
M  V30 403 C 41.1857 -1.82917 -0.692873 0
M  V30 404 C 41.5657 -0.908137 -1.90568 0
M  V30 405 O 40.9137 0.0372298 -2.2847 0
M  V30 406 C 41.1237 -3.32034 -1.07492 0
M  V30 407 C 42.4717 -3.98406 -1.46826 0
M  V30 408 O 43.4957 -3.36505 -1.16801 0
M  V30 409 O 42.3547 -5.07497 -2.02754 0
M  V30 410 H 39.4487 -0.754079 -0.33955 0
M  V30 411 H 41.9947 -1.69619 0.0524456 0
M  V30 412 H 40.7667 -3.90728 -0.211552 0
M  V30 413 H 40.3897 -3.50424 -1.87854 0
M  V30 414 N 41.3868 0.248026 -1.55636 0
M  V30 415 C 42.6348 0.974295 -1.77065 0
M  V30 416 C 42.9558 1.85897 -0.588849 0
M  V30 417 O 42.2258 1.91868 0.395407 0
M  V30 418 H 40.8058 0.362733 -0.653019 0
M  V30 419 H 43.4678 0.266244 -1.93073 0
M  V30 420 H 42.5638 1.59667 -2.68166 0
M  V30 421 N 42.8649 1.48995 0.513639 0
M  V30 422 C 44.1129 1.57531 1.26604 0
M  V30 423 C 44.4339 0.258236 1.93283 0
M  V30 424 O 43.7039 -0.721502 1.8213 0
M  V30 425 H 42.2839 0.580387 0.470276 0
M  V30 426 H 44.9459 1.85552 0.596373 0
M  V30 427 H 44.0419 2.36486 2.03669 0
M  V30 428 N 44.343 -0.763751 1.37857 0
M  V30 429 C 45.589 -1.52483 1.33704 0
M  V30 430 C 45.922 -1.94051 -0.0759612 0
M  V30 431 O 45.197 -1.64675 -1.03501 0
M  V30 432 C 45.48 -2.78441 2.28348 0
M  V30 433 C 45.333 -2.43075 3.78463 0
M  V30 434 C 46.652 -3.80415 2.21298 0
M  V30 435 H 43.771 -0.553169 0.487005 0
M  V30 436 H 46.413 -0.875562 1.68624 0
M  V30 437 H 44.563 -3.33842 1.987 0
M  V30 438 H 46.235 -1.93527 4.18742 0
M  V30 439 H 44.478 -1.75666 3.96641 0
M  V30 440 H 45.149 -3.33149 4.40132 0
M  V30 441 H 47.625 -3.34527 2.47449 0
M  V30 442 H 46.501 -4.66257 2.89647 0
M  V30 443 H 46.762 -4.25262 1.20849 0
M  V30 444 N 45.8211 -1.22559 -0.990812 0
M  V30 445 C 47.2371 -0.985996 -1.255 0
M  V30 446 C 47.4371 0.319173 -1.98956 0
M  V30 447 O 46.4931 1.04127 -2.3003 0
M  V30 448 C 47.8061 -2.18607 -2.06474 0
M  V30 449 C 49.3541 -2.22985 -2.19651 0
M  V30 450 C 49.8291 -3.4255 -3.04012 0
M  V30 451 N 51.3201 -3.42725 -3.11599 0
M  V30 452 C 52.0551 -4.31892 -3.7717 0
M  V30 453 N 51.5511 -5.31279 -4.44651 0
M  V30 454 N 53.3441 -4.19662 -3.73952 0
M  V30 455 H 45.4951 -2.06469 -0.49841 0
M  V30 456 H 47.7581 -0.904853 -0.282747 0
M  V30 457 H 47.4641 -3.13267 -1.59865 0
M  V30 458 H 47.3381 -2.18838 -3.07229 0
M  V30 459 H 49.7251 -1.28871 -2.65474 0
M  V30 460 H 49.8061 -2.26791 -1.18319 0
M  V30 461 H 49.4501 -4.36965 -2.58889 0
M  V30 462 H 49.3801 -3.35984 -4.0549 0
M  V30 463 H 51.8711 -2.70807 -2.63575 0
M  V30 464 H 52.1841 -5.95593 -4.92431 0
M  V30 465 H 50.5291 -5.3519 -4.43392 0
M  V30 466 H 53.7201 -3.41268 -3.20396 0
M  V30 467 H 53.8931 -4.89358 -4.24774 0
M  V30 468 N 47.2992 1.18797 -1.03562 0
M  V30 469 C 48.2492 2.20161 -0.592724 0
M  V30 470 C 49.2332 1.56772 0.362133 0
M  V30 471 O 50.4252 1.76062 0.182009 0
M  V30 472 C 47.5542 3.43266 0.0481024 0
M  V30 473 C 46.6402 4.13786 -0.9296 0
M  V30 474 N 47.0312 4.60388 -2.09467 0
M  V30 475 C 45.3292 4.39572 -0.754499 0
M  V30 476 C 46.0302 5.14619 -2.71187 0
M  V30 477 N 45.0062 5.05826 -1.991 0
M  V30 478 H 48.8082 2.53877 -1.48066 0
M  V30 479 H 46.3222 1.34946 -0.903514 0
M  V30 480 H 48.3192 4.15136 0.383058 0
M  V30 481 H 46.9792 3.11048 0.931636 0
M  V30 482 H 47.9902 4.54999 -2.47379 0
M  V30 483 H 44.6672 4.17425 0.0793713 0
M  V30 484 H 46.0572 5.60917 -3.69895 0
M  V30 485 N 48.7773 0.814389 1.34928 0
M  V30 486 C 49.7403 0.235759 2.27984 0
M  V30 487 C 50.7403 -0.581412 1.49921 0
M  V30 488 O 51.9303 -0.398758 1.69575 0
M  V30 489 C 49.0623 -0.670433 3.34242 0
M  V30 490 H 50.2553 1.05659 2.80671 0
M  V30 491 H 47.8083 0.585614 1.44915 0
M  V30 492 H 48.5433 -1.51466 2.86755 0
M  V30 493 H 48.3283 -0.0860822 3.92005 0
M  V30 494 H 49.8183 -1.06935 4.03676 0
M  V30 495 N 50.2554 -1.46986 0.568584 0
M  V30 496 C 51.5034 -2.02041 0.0487022 0
M  V30 497 C 51.8244 -1.44408 -1.31039 0
M  V30 498 O 51.0944 -0.623477 -1.85714 0
M  V30 499 H 49.6744 -0.746849 0.015014 0
M  V30 500 H 52.3364 -1.80257 0.741168 0
M  V30 501 H 51.4324 -3.12085 -0.0308961 0
M  V30 502 N 51.7335 -0.305618 -1.54608 0
M  V30 503 C 52.9815 0.301701 -1.99835 0
M  V30 504 C 53.3025 1.54054 -1.19551 0
M  V30 505 O 52.5725 1.93702 -0.292658 0
M  V30 506 H 51.1525 0.114468 -0.738178 0
M  V30 507 H 53.8145 -0.418016 -1.90364 0
M  V30 508 H 52.9105 0.570548 -3.06841 0
M  V30 509 N 53.2116 1.57565 -0.0334293 0
M  V30 510 C 54.4596 1.91598 0.642999 0
M  V30 511 C 54.7806 0.910847 1.7242 0
M  V30 512 O 54.0506 -0.0469931 1.95844 0
M  V30 513 H 52.6306 0.707228 0.240496 0
M  V30 514 H 55.2926 1.94726 -0.0822488 0
M  V30 515 H 54.3886 2.92336 1.09298 0
M  V30 516 N 54.6897 -0.239769 1.55765 0
M  V30 517 C 55.9357 -0.968234 1.78194 0
M  V30 518 C 56.2687 -1.84701 0.599938 0
M  V30 519 O 55.5437 -1.9031 -0.401524 0
M  V30 520 C 55.8267 -1.8227 3.10564 0
M  V30 521 C 55.6797 -0.971633 4.3918 0
M  V30 522 C 56.9987 -2.80388 3.39221 0
M  V30 523 H 54.1177 -0.350572 0.648281 0
M  V30 524 H 56.7597 -0.238259 1.885 0
M  V30 525 H 54.9097 -2.44507 3.01908 0
M  V30 526 H 56.5817 -0.367408 4.59835 0
M  V30 527 H 54.8247 -0.276276 4.32919 0
M  V30 528 H 55.4957 -1.60346 5.28198 0
M  V30 529 H 57.9717 -2.28287 3.47885 0
M  V30 530 H 56.8477 -3.3729 4.33044 0
M  V30 531 H 57.1087 -3.57212 2.60484 0
M  V30 532 N 56.1678 -1.49265 -0.50573 0
M  V30 533 C 57.1178 -1.6198 -1.60457 0
M  V30 534 C 58.1018 -0.47568 -1.53708 0
M  V30 535 O 59.2938 -0.728392 -1.61318 0
M  V30 536 C 56.4228 -1.68526 -2.99089 0
M  V30 537 C 55.5088 -2.885 -3.10852 0
M  V30 538 N 55.8998 -4.12635 -2.92517 0
M  V30 539 C 54.1978 -2.86338 -3.41945 0
M  V30 540 C 54.8988 -4.93258 -3.08337 0
M  V30 541 N 53.8748 -4.26533 -3.37003 0
M  V30 542 H 57.6768 -2.55681 -1.44928 0
M  V30 543 H 55.1908 -1.45972 -0.711752 0
M  V30 544 H 57.1878 -1.75732 -3.78053 0
M  V30 545 H 55.8478 -0.759584 -3.1569 0
M  V30 546 H 56.8588 -4.42689 -2.68787 0
M  V30 547 H 53.5358 -2.03129 -3.64753 0
M  V30 548 H 54.9258 -6.01856 -2.98695 0
M  V30 549 N 57.6459 0.756429 -1.3826 0
M  V30 550 C 58.8949 1.51082 -1.3363 0
M  V30 551 C 59.2079 1.95467 0.0720068 0
M  V30 552 O 60.4139 2.7043 0.240834 0
M  V30 553 C 58.8699 2.72893 -2.34644 0
M  V30 554 C 58.4779 2.35544 -3.81081 0
M  V30 555 C 60.2219 3.50791 -2.39052 0
M  V30 556 C 58.1289 3.53948 -4.73787 0
M  V30 557 H 57.0589 0.56727 -0.49671 0
M  V30 558 H 59.7099 0.827147 -1.638 0
M  V30 559 H 58.0919 3.43227 -1.97513 0
M  V30 560 H 59.2659 1.72894 -4.27135 0
M  V30 561 H 57.5809 1.70786 -3.79764 0
M  V30 562 H 60.1779 4.38823 -3.05513 0
M  V30 563 H 60.5209 3.91745 -1.40861 0
M  V30 564 H 61.0539 2.87467 -2.74968 0
M  V30 565 H 57.7929 3.18064 -5.73163 0
M  V30 566 H 57.3129 4.15651 -4.32428 0
M  V30 567 H 58.9919 4.20566 -4.91663 0
M  V30 568 N 59.124 1.23083 0.984299 0
M  V30 569 C 60.034 1.02515 2.11016 0
M  V30 570 C 61.05 -0.0291702 1.73976 0
M  V30 571 O 62.226 0.165434 2.00719 0
M  V30 572 C 59.291 0.614673 3.41208 0
M  V30 573 C 58.352 1.74359 3.92297 0
M  V30 574 C 57.585 1.35261 5.16275 0
M  V30 575 O 57.808 0.235136 5.69915 0
M  V30 576 O 56.742 2.17227 5.61334 0
M  V30 577 H 60.568 1.96862 2.31255 0
M  V30 578 H 58.153 1.01753 1.09392 0
M  V30 579 H 60.035 0.396518 4.1953 0
M  V30 580 H 58.71 -0.299851 3.22308 0
M  V30 581 H 57.617 2.01635 3.1511 0
M  V30 582 H 58.95 2.63629 4.15645 0
M  V30 583 N 60.6021 -1.18246 1.0419 0
M  V30 584 C 62.0131 -1.69914 0.773698 0
M  V30 585 C 62.3641 -1.83085 -0.705297 0
M  V30 586 O 61.4891 -1.51123 -1.5489 0
M  V30 587 C 62.0841 -3.08619 1.39784 0
M  V30 588 C 60.6431 -3.57494 1.17792 0
M  V30 589 C 59.7901 -2.34013 1.48773 0
M  V30 590 H 62.7411 -1.02904 1.20816 0
M  V30 591 H 62.7621 -3.71958 0.801714 0
M  V30 592 H 62.2741 -2.99001 2.47426 0
M  V30 593 H 60.3751 -3.72406 0.120295 0
M  V30 594 H 60.4881 -4.40852 1.87581 0
M  V30 595 H 58.8521 -2.37986 0.907463 0
M  V30 596 H 59.6351 -2.27013 2.57527 0
M  V30 597 N 62.0802 -0.821533 -1.34494 0
M  V30 598 C 63.4962 -0.507117 -1.51329 0
M  V30 599 C 63.6962 0.968964 -1.76673 0
M  V30 600 O 62.7522 1.75348 -1.81685 0
M  V30 601 C 64.0652 -1.36544 -2.67911 0
M  V30 602 C 65.6132 -1.36242 -2.81793 0
M  V30 603 C 66.0882 -2.2052 -4.01416 0
M  V30 604 N 67.5792 -2.18136 -4.08621 0
M  V30 605 C 68.3142 -2.80095 -5.00334 0
M  V30 606 N 67.8102 -3.51039 -5.9728 0
M  V30 607 N 69.6032 -2.69656 -4.93196 0
M  V30 608 H 61.7542 -1.77729 -1.16302 0
M  V30 609 H 64.0172 -0.757291 -0.570276 0
M  V30 610 H 63.7232 -2.41361 -2.55808 0
M  V30 611 H 63.5972 -1.02917 -3.62888 0
M  V30 612 H 65.9842 -0.322041 -2.93338 0
M  V30 613 H 66.0652 -1.73866 -1.87628 0
M  V30 614 H 65.7092 -3.24607 -3.90631 0
M  V30 615 H 65.6392 -1.80247 -4.94791 0
M  V30 616 H 68.1302 -1.6653 -3.39229 0
M  V30 617 H 68.4432 -3.95565 -6.63889 0
M  V30 618 H 66.7882 -3.55145 -5.97409 0
M  V30 619 H 69.9792 -2.13808 -4.16418 0
M  V30 620 H 70.1522 -3.1823 -5.64476 0
M  V30 621 N 63.5583 1.46682 -0.576371 0
M  V30 622 C 64.7883 2.06498 -0.0648694 0
M  V30 623 C 65.1963 1.42665 1.24271 0
M  V30 624 O 64.5393 0.523886 1.76071 0
M  V30 625 C 64.6013 3.5904 0.181816 0
M  V30 626 C 64.2653 4.45028 -1.0392 0
M  V30 627 C 65.2623 4.81959 -1.94966 0
M  V30 628 C 62.9473 4.86259 -1.25927 0
M  V30 629 C 64.9413 5.58942 -3.06371 0
M  V30 630 C 62.6283 5.63002 -2.37638 0
M  V30 631 C 63.6263 5.99257 -3.2769 0
M  V30 632 O 63.3143 6.7445 -4.37461 0
M  V30 633 H 63.0463 0.674028 -0.0515987 0
M  V30 634 H 65.6003 1.89393 -0.794951 0
M  V30 635 H 63.8303 3.74429 0.966436 0
M  V30 636 H 65.5193 4.00806 0.641047 0
M  V30 637 H 66.2853 4.50689 -1.79177 0
M  V30 638 H 62.1643 4.57494 -0.567448 0
M  V30 639 H 65.7083 5.87158 -3.76684 0
M  V30 640 H 61.6053 5.93686 -2.53392 0
M  V30 641 H 62.3733 6.92867 -4.35749 0
M  V30 642 N 65.0364 0.313813 1.54444 0
M  V30 643 C 66.4524 -0.0391619 1.59552 0
M  V30 644 C 66.6524 -1.51322 1.33056 0
M  V30 645 O 65.7084 -2.26782 1.11022 0
M  V30 646 C 67.0214 0.370302 2.98411 0
M  V30 647 C 68.5694 0.320139 3.11358 0
M  V30 648 C 69.0444 0.704617 4.52547 0
M  V30 649 N 70.5354 0.657645 4.58508 0
M  V30 650 C 71.2704 0.927453 5.6585 0
M  V30 651 N 70.7664 1.26389 6.81174 0
M  V30 652 N 72.5594 0.853662 5.5558 0
M  V30 653 H 64.7104 1.27433 1.69925 0
M  V30 654 H 66.9734 0.517511 0.794284 0
M  V30 655 H 66.6794 1.39694 3.22767 0
M  V30 656 H 66.5534 -0.269619 3.76235 0
M  V30 657 H 68.9404 -0.697275 2.86744 0
M  V30 658 H 69.0214 0.99486 2.35661 0
M  V30 659 H 68.6654 1.7199 4.77893 0
M  V30 660 H 68.5954 0.00768843 5.26599 0
M  V30 661 H 71.0864 0.409067 3.75679 0
M  V30 662 H 71.3994 1.4554 7.58972 0
M  V30 663 H 69.7444 1.30206 6.82694 0
M  V30 664 H 72.9354 0.590383 4.64362 0
M  V30 665 H 73.1084 1.0673 6.3915 0
M  V30 666 N 66.5145 -1.57545 0.0417849 0
M  V30 667 C 67.4465 -2.07904 -0.964799 0
M  V30 668 C 68.4595 -1.00497 -1.28079 0
M  V30 669 O 69.6485 -1.28087 -1.24322 0
M  V30 670 C 66.7485 -2.49928 -2.28887 0
M  V30 671 C 65.9215 -3.80562 -2.15619 0
M  V30 672 C 64.9805 -4.08999 -3.31069 0
M  V30 673 O 64.0065 -4.79061 -3.0739 0
M  V30 674 N 65.2085 -3.6017 -4.55256 0
M  V30 675 H 67.9735 -2.94886 -0.535029 0
M  V30 676 H 65.5345 -1.61252 -0.144681 0
M  V30 677 H 67.5265 -2.66034 -3.04972 0
M  V30 678 H 66.0965 -1.68245 -2.63463 0
M  V30 679 H 65.3165 -3.74129 -1.24183 0
M  V30 680 H 66.6045 -4.66126 -2.03971 0
M  V30 681 H 66.0025 -3.03512 -4.77386 0
M  V30 682 H 64.5595 -3.81532 -5.28466 0
M  V30 683 N 67.9926 0.231505 -1.5589 0
M  V30 684 C 69.2396 0.957352 -1.78441 0
M  V30 685 C 69.5676 1.84726 -0.60882 0
M  V30 686 O 68.8226 1.91416 0.40725 0
M  V30 687 C 69.1216 1.83577 -3.0665 0
M  V30 688 C 68.7876 1.09993 -4.37278 0
M  V30 689 C 67.4496 0.896629 -4.72773 0
M  V30 690 C 69.8016 0.579558 -5.17968 0
M  V30 691 C 67.1296 0.160896 -5.86479 0
M  V30 692 C 69.4816 -0.142783 -6.32439 0
M  V30 693 C 68.1456 -0.357427 -6.66542 0
M  V30 694 H 67.4156 0.35032 -0.65296 0
M  V30 695 H 70.0626 0.226259 -1.90159 0
M  V30 696 H 68.3676 2.63441 -2.90011 0
M  V30 697 H 70.0646 2.39934 -3.21298 0
M  V30 698 H 66.6546 1.26835 -4.09403 0
M  V30 699 H 70.8386 0.724125 -4.90989 0
M  V30 700 H 66.0946 -0.0157293 -6.11398 0
M  V30 701 H 70.2686 -0.553559 -6.94196 0
M  V30 702 H 67.8956 -0.929466 -7.54497 0
M  V30 703 N 69.4707 1.49531 0.497807 0
M  V30 704 C 70.8817 1.52344 1.07927 0
M  V30 705 C 71.2327 0.311469 1.93712 0
M  V30 706 O 70.3577 -0.578405 2.08527 0
M  V30 707 C 70.9527 2.76062 1.96405 0
M  V30 708 C 69.5117 2.81643 2.49709 0
M  V30 709 C 68.6587 2.46299 1.27404 0
M  V30 710 H 71.6097 1.56182 0.281576 0
M  V30 711 H 71.6307 2.56405 2.81135 0
M  V30 712 H 71.1427 3.64254 1.33943 0
M  V30 713 H 69.2437 1.97739 3.15801 0
M  V30 714 H 69.3567 3.83891 2.86643 0
M  V30 715 H 67.7207 1.98148 1.60029 0
M  V30 716 H 68.5037 3.36769 0.66645 0
M  V30 717 N 70.9488 -0.749086 1.3866 0
M  V30 718 C 71.8808 -1.87273 1.32142 0
M  V30 719 C 72.8938 -1.61127 0.232787 0
M  V30 720 O 74.0828 -1.71623 0.49069 0
M  V30 721 C 71.1828 -3.23005 1.02571 0
M  V30 722 C 70.3558 -3.7662 2.22433 0
M  V30 723 C 69.4148 -4.90879 1.89537 0
M  V30 724 O 68.4408 -5.05276 2.62078 0
M  V30 725 N 69.6428 -5.74198 0.853031 0
M  V30 726 H 72.4078 -1.93373 2.28969 0
M  V30 727 H 69.9688 -0.929216 1.32579 0
M  V30 728 H 71.9608 -3.96992 0.786085 0
M  V30 729 H 70.5308 -3.12262 0.145249 0
M  V30 730 H 69.7508 -2.94147 2.62434 0
M  V30 731 H 71.0388 -4.09173 3.02415 0
M  V30 732 H 70.4368 -5.6514 0.25155 0
M  V30 733 H 68.9938 -6.48313 0.67329 0
M  V30 734 N 72.4269 -1.23603 -0.977757 0
M  V30 735 C 73.3569 -1.04401 -2.0886 0
M  V30 736 C 74.3379 0.0399052 -1.70053 0
M  V30 737 O 75.5229 -0.125246 -1.93796 0
M  V30 738 C 72.6529 -0.637269 -3.41403 0
M  V30 739 C 71.6069 -1.66883 -3.94124 0
M  V30 740 C 70.9329 -1.11745 -5.22893 0
M  V30 741 C 72.2329 -3.06247 -4.23096 0
M  V30 742 H 73.9269 -1.97316 -2.25182 0
M  V30 743 H 71.4729 -0.950096 -1.08209 0
M  V30 744 H 73.4259 -0.48998 -4.18542 0
M  V30 745 H 72.1499 0.327557 -3.24953 0
M  V30 746 H 70.8089 -1.80416 -3.19133 0
M  V30 747 H 70.4569 -0.143527 -5.02795 0
M  V30 748 H 70.1569 -1.80672 -5.59134 0
M  V30 749 H 71.6809 -0.982067 -6.02651 0
M  V30 750 H 73.0949 -2.96001 -4.90975 0
M  V30 751 H 71.4919 -3.72436 -4.70544 0
M  V30 752 H 72.5619 -3.55041 -3.30263 0
M  V30 753 N 73.905 1.17692 -1.04816 0
M  V30 754 C 75.133 1.91786 -0.776254 0
M  V30 755 C 75.548 1.76604 0.667577 0
M  V30 756 O 74.905 1.10067 1.45573 0
M  V30 757 C 74.956 3.42967 -1.14263 0
M  V30 758 O 74.677 3.57678 -2.52978 0
M  V30 759 C 76.178 4.34144 -0.896311 0
M  V30 760 H 73.398 0.608624 -0.282519 0
M  V30 761 H 75.942 1.49268 -1.39783 0
M  V30 762 H 74.097 3.83245 -0.565874 0
M  V30 763 H 74.511 4.51319 -2.67229 0
M  V30 764 H 75.985 5.38744 -1.20244 0
M  V30 765 H 76.462 4.38876 0.168636 0
M  V30 766 H 77.068 3.99574 -1.45672 0
M  V30 767 N 75.3831 0.828654 1.34056 0
M  V30 768 C 76.7991 0.515135 1.51058 0
M  V30 769 C 76.9991 -0.959581 1.77184 0
M  V30 770 O 76.0551 -1.74382 1.82612 0
M  V30 771 C 77.3681 1.37963 2.67183 0
M  V30 772 C 78.9161 1.37735 2.81066 0
M  V30 773 C 79.3911 2.22645 4.00241 0
M  V30 774 N 80.8821 2.203 4.07458 0
M  V30 775 C 81.6171 2.82744 4.98842 0
M  V30 776 N 81.1131 3.54201 5.9541 0
M  V30 777 N 82.9061 2.72268 4.91759 0
M  V30 778 H 75.0571 1.78343 1.15358 0
M  V30 779 H 77.3201 0.760304 0.566252 0
M  V30 780 H 77.0261 2.42714 2.54525 0
M  V30 781 H 76.9001 1.0484 3.62338 0
M  V30 782 H 79.2871 0.337593 2.93163 0
M  V30 783 H 79.3681 1.74859 1.86703 0
M  V30 784 H 79.0121 3.26674 3.88905 0
M  V30 785 H 78.9421 1.82869 4.93829 0
M  V30 786 H 81.4331 1.68327 3.38341 0
M  V30 787 H 81.7461 3.9908 6.61782 0
M  V30 788 H 80.0911 3.58308 5.95517 0
M  V30 789 H 83.2821 2.16014 4.15278 0
M  V30 790 H 83.4551 3.21219 5.62781 0
M  V30 791 N 76.8612 -1.46375 0.584142 0
M  V30 792 C 78.0862 -2.07268 0.0740405 0
M  V30 793 C 78.5112 -1.42979 -1.22223 0
M  V30 794 O 77.8692 -0.514092 -1.73859 0
M  V30 795 C 77.9172 -3.60518 -0.0767769 0
M  V30 796 O 77.0212 -3.96533 -1.13292 0
M  V30 797 H 76.3622 -0.660961 0.0634524 0
M  V30 798 H 78.8922 -1.87991 0.807492 0
M  V30 799 H 78.9022 -4.07021 -0.282489 0
M  V30 800 H 77.5772 -4.06702 0.86986 0
M  V30 801 H 76.1542 -3.61738 -0.905553 0
M  V30 802 N 78.3393 -0.321999 -1.54275 0
M  V30 803 C 79.2713 0.578671 -2.21775 0
M  V30 804 C 80.2843 1.08109 -1.21722 0
M  V30 805 O 81.4733 0.994938 -1.482 0
M  V30 806 C 78.5733 1.80661 -2.86731 0
M  V30 807 C 77.7463 1.44314 -4.12907 0
M  V30 808 C 76.8053 2.52845 -4.61472 0
M  V30 809 O 75.8313 2.17054 -5.2619 0
M  V30 810 N 77.0333 3.83748 -4.35566 0
M  V30 811 H 79.7983 0.000709447 -2.997 0
M  V30 812 H 77.3593 -0.145132 -1.61248 0
M  V30 813 H 79.3513 2.52655 -3.16145 0
M  V30 814 H 77.9213 2.29245 -2.12521 0
M  V30 815 H 77.1413 0.554906 -3.90275 0
M  V30 816 H 78.4293 1.17598 -4.95023 0
M  V30 817 H 77.8273 4.15625 -3.83761 0
M  V30 818 H 76.3843 4.51977 -4.69638 0
M  V30 819 N 79.8174 1.5752 -0.0501392 0
M  V30 820 C 81.0634 1.92936 0.624798 0
M  V30 821 C 81.3964 0.928685 1.70555 0
M  V30 822 O 80.6714 -0.0454779 1.94447 0
M  V30 823 C 80.9544 3.38737 1.22185 0
M  V30 824 C 80.8074 4.49552 0.149218 0
M  V30 825 C 82.1264 3.84913 2.13378 0
M  V30 826 H 79.2454 0.701604 0.225657 0
M  V30 827 H 81.8874 1.89671 -0.111693 0
M  V30 828 H 80.0374 3.4165 1.84953 0
M  V30 829 H 81.7094 4.58768 -0.482648 0
M  V30 830 H 79.9524 4.30638 -0.522841 0
M  V30 831 H 80.6234 5.48653 0.606966 0
M  V30 832 H 83.0994 3.8387 1.60572 0
M  V30 833 H 81.9754 4.87584 2.52097 0
M  V30 834 H 82.2364 3.21611 3.03346 0
M  V30 835 N 81.2955 -0.223234 1.56011 0
M  V30 836 C 82.5425 -0.947875 1.78946 0
M  V30 837 C 82.8705 -1.844 0.618608 0
M  V30 838 O 82.1255 -1.91629 -0.397093 0
M  V30 839 C 82.4245 -1.81948 3.0762 0
M  V30 840 C 82.0905 -1.07672 4.37856 0
M  V30 841 C 80.7525 -0.871544 4.73242 0
M  V30 842 C 83.1045 -0.552081 5.18268 0
M  V30 843 C 80.4325 -0.129791 5.86556 0
M  V30 844 C 82.7845 0.17632 6.32354 0
M  V30 845 C 81.4485 0.39277 6.66343 0
M  V30 846 H 80.7185 -0.346852 0.654809 0
M  V30 847 H 83.3655 -0.216171 1.90276 0
M  V30 848 H 81.6705 -2.61899 2.91404 0
M  V30 849 H 83.3675 -2.38227 3.22566 0
M  V30 850 H 79.9575 -1.24662 4.1007 0
M  V30 851 H 84.1415 -0.698076 4.91366 0
M  V30 852 H 79.3975 0.048153 6.11381 0
M  V30 853 H 83.5715 0.590367 6.93893 0
M  V30 854 H 81.1985 0.969466 7.53993 0
M  V30 855 N 82.7736 -1.49793 -0.48987 0
M  V30 856 C 83.7056 -1.63413 -1.60713 0
M  V30 857 C 84.7186 -0.516329 -1.54395 0
M  V30 858 O 85.9076 -0.788812 -1.60125 0
M  V30 859 C 83.0076 -1.58516 -2.99543 0
M  V30 860 C 82.1806 -2.86016 -3.30928 0
M  V30 861 C 81.2396 -2.74018 -4.49222 0
M  V30 862 O 80.2656 -3.47964 -4.50455 0
M  V30 863 N 81.4676 -1.86309 -5.4979 0
M  V30 864 H 84.2326 -2.59777 -1.49452 0
M  V30 865 H 81.7936 -1.47022 -0.677955 0
M  V30 866 H 83.7856 -1.48128 -3.76617 0
M  V30 867 H 82.3556 -0.69965 -3.0467 0
M  V30 868 H 81.5756 -3.10672 -2.42645 0
M  V30 869 H 82.8636 -3.70521 -3.487 0
M  V30 870 H 82.2616 -1.2551 -5.51601 0
M  V30 871 H 80.8186 -1.81837 -6.25922 0
M  V30 872 N 84.2517 0.741722 -1.39055 0
M  V30 873 C 85.4767 1.53607 -1.39354 0
M  V30 874 C 85.9017 1.88096 0.0116905 0
M  V30 875 O 85.2597 1.5143 0.996924 0
M  V30 876 C 85.3077 2.80441 -2.26682 0
M  V30 877 O 84.4117 3.76088 -1.69208 0
M  V30 878 H 83.7527 0.464142 -0.474835 0
M  V30 879 H 86.2827 0.915665 -1.82967 0
M  V30 880 H 86.2927 3.29246 -2.40959 0
M  V30 881 H 84.9677 2.5467 -3.2881 0
M  V30 882 H 83.5447 3.34833 -1.64138 0
M  V30 883 N 85.7298 1.2412 0.971189 0
M  V30 884 C 86.6398 1.04747 2.09917 0
M  V30 885 C 87.6558 -0.0107162 1.73997 0
M  V30 886 O 88.8318 0.186714 2.00533 0
M  V30 887 C 85.8968 0.650828 3.40537 0
M  V30 888 C 84.9578 1.7851 3.90426 0
M  V30 889 C 84.1908 1.40729 5.14812 0
M  V30 890 O 84.4138 0.29557 5.69634 0
M  V30 891 O 83.3478 2.23168 5.58999 0
M  V30 892 H 87.1738 1.99304 2.29154 0
M  V30 893 H 84.7588 1.02908 1.08307 0
M  V30 894 H 86.6408 0.440992 4.19086 0
M  V30 895 H 85.3158 -0.265649 3.22608 0
M  V30 896 H 84.2228 2.04966 3.12953 0
M  V30 897 H 85.5558 2.68023 4.12825 0
M  V30 898 N 87.2079 -1.17134 1.05439 0
M  V30 899 C 88.4549 -1.87456 0.765942 0
M  V30 900 C 88.7829 -1.81189 -0.707153 0
M  V30 901 O 88.0379 -1.21633 -1.5331 0
M  V30 902 C 88.3369 -3.36833 1.19491 0
M  V30 903 C 88.0029 -3.63301 2.67063 0
M  V30 904 C 86.6649 -3.70234 3.07376 0
M  V30 905 C 89.0169 -3.74575 3.62413 0
M  V30 906 C 86.3449 -3.85933 4.41896 0
M  V30 907 C 88.6969 -3.91793 4.9667 0
M  V30 908 C 87.3609 -3.96966 5.36633 0
M  V30 909 H 86.6309 -0.685948 0.280278 0
M  V30 910 H 89.2779 -1.38556 1.32192 0
M  V30 911 H 87.5829 -3.87807 0.557969 0
M  V30 912 H 89.2799 -3.89611 0.948893 0
M  V30 913 H 85.8699 -3.58532 2.34846 0
M  V30 914 H 90.0539 -3.68537 3.32406 0
M  V30 915 H 85.3099 -3.88187 4.72357 0
M  V30 916 H 89.4839 -3.99458 5.70444 0
M  V30 917 H 87.1109 -4.08883 6.40874 0
M  V30 918 N 88.686 -0.835752 -1.33615 0
M  V30 919 C 89.933 -0.429959 -1.97883 0
M  V30 920 C 90.261 1.01006 -1.66217 0
M  V30 921 O 89.516 1.72047 -0.93265 0
M  V30 922 C 89.815 -0.593925 -3.52431 0
M  V30 923 C 89.481 -2.00158 -4.04039 0
M  V30 924 C 88.143 -2.38662 -4.17844 0
M  V30 925 C 90.495 -2.92117 -4.31644 0
M  V30 926 C 87.823 -3.68435 -4.56588 0
M  V30 927 C 90.175 -4.21368 -4.71838 0
M  V30 928 C 88.839 -4.59833 -4.83849 0
M  V30 929 H 88.109 -0.157333 -0.724104 0
M  V30 930 H 90.756 -1.06217 -1.59343 0
M  V30 931 H 89.061 0.121619 -3.91611 0
M  V30 932 H 90.758 -0.260282 -4.00154 0
M  V30 933 H 87.348 -1.69252 -3.93766 0
M  V30 934 H 91.532 -2.63608 -4.20505 0
M  V30 935 H 86.788 -3.98046 -4.64079 0
M  V30 936 H 90.962 -4.92703 -4.92155 0
M  V30 937 H 88.589 -5.60438 -5.13627 0
M  V30 938 N 90.1641 1.46063 -0.591896 0
M  V30 939 C 91.3891 2.07226 -0.0850314 0
M  V30 940 C 91.8141 1.43625 1.21463 0
M  V30 941 O 91.1721 0.523305 1.73583 0
M  V30 942 C 91.2201 3.60554 0.0576567 0
M  V30 943 O 90.3241 3.97128 1.11188 0
M  V30 944 H 89.6651 0.660615 -0.0669568 0
M  V30 945 H 92.1951 1.8756 -0.81745 0
M  V30 946 H 92.2051 4.07165 0.2609 0
M  V30 947 H 90.8801 4.06235 -0.891416 0
M  V30 948 H 89.4571 3.62213 0.886356 0
M  V30 949 N 91.6422 0.330177 1.54103 0
M  V30 950 C 92.8902 -0.269871 2.0029 0
M  V30 951 C 93.2112 -1.52133 1.21986 0
M  V30 952 O 92.4812 -1.93212 0.323438 0
M  V30 953 H 91.0612 -0.10271 0.739905 0
M  V30 954 H 93.7232 0.448249 1.89675 0
M  V30 955 H 92.8192 -0.52166 3.07709 0
M  V30 956 N 93.1203 -1.57491 0.0584922 0
M  V30 957 C 94.0503 -2.14988 -0.911178 0
M  V30 958 C 95.0313 -1.07343 -1.31952 0
M  V30 959 O 96.2163 -1.35318 -1.39294 0
M  V30 960 C 93.3463 -2.70078 -2.18347 0
M  V30 961 C 92.3003 -3.82771 -1.91495 0
M  V30 962 C 91.6263 -4.24408 -3.25241 0
M  V30 963 C 92.9263 -5.07592 -1.23075 0
M  V30 964 H 94.6203 -2.96263 -0.432246 0
M  V30 965 H 92.1663 -1.42512 -0.206469 0
M  V30 966 H 94.1193 -3.08943 -2.86587 0
M  V30 967 H 92.8433 -1.86005 -2.68458 0
M  V30 968 H 91.5023 -3.44389 -1.25664 0
M  V30 969 H 91.1503 -3.37275 -3.73168 0
M  V30 970 H 90.8503 -5.00366 -3.08071 0
M  V30 971 H 92.3743 -4.65879 -3.94701 0
M  V30 972 H 93.7883 -5.43857 -1.81362 0
M  V30 973 H 92.1853 -5.88741 -1.16207 0
M  V30 974 H 93.2553 -4.84454 -0.207847 0
M  V30 975 N 94.5984 0.214957 -1.56127 0
M  V30 976 C 95.5314 1.29382 -1.87977 0
M  V30 977 C 96.5094 1.44897 -0.737807 0
M  V30 978 O 97.6934 1.60605 -0.986833 0
M  V30 979 C 94.8204 2.66325 -2.09258 0
M  V30 980 C 93.8664 2.67789 -3.31951 0
M  V30 981 S 94.6994 2.21198 -4.8768 0
M  V30 982 C 95.8554 3.60003 -5.12004 0
M  V30 983 H 96.0884 1.02173 -2.79192 0
M  V30 984 H 93.6214 0.417516 -1.48648 0
M  V30 985 H 95.5794 3.45162 -2.22201 0
M  V30 986 H 94.2404 2.90755 -1.18829 0
M  V30 987 H 93.4334 3.68436 -3.43906 0
M  V30 988 H 93.0354 1.9702 -3.17898 0
M  V30 989 H 95.3274 4.55739 -5.01307 0
M  V30 990 H 96.2704 3.52959 -6.13861 0
M  V30 991 H 96.6784 3.53996 -4.39712 0
M  V30 992 N 96.0765 1.50051 0.48192 0
M  V30 993 C 97.3225 1.61706 1.2338 0
M  V30 994 C 97.6775 0.308488 1.89911 0
M  V30 995 O 96.9705 -0.692798 1.78636 0
M  V30 996 C 97.1645 2.72717 2.30998 0
M  V30 997 C 96.9935 4.14242 1.75024 0
M  V30 998 C 95.7635 4.80786 1.55476 0
M  V30 999 C 97.9615 4.98846 1.25128 0
M  V30 1000 N 95.9435 6.06563 0.946311 0
M  V30 1001 C 97.3145 6.15258 0.765382 0
M  V30 1002 C 99.3695 4.84702 1.13881 0
M  V30 1003 C 98.0725 7.19079 0.178113 0
M  V30 1004 C 100.098 5.8869 0.565486 0
M  V30 1005 C 99.4605 7.04343 0.0899105 0
M  V30 1006 H 95.5595 0.645958 0.440753 0
M  V30 1007 H 98.1435 1.8713 0.537624 0
M  V30 1008 H 96.3145 2.49033 2.98055 0
M  V30 1009 H 98.0465 2.73789 2.9803 0
M  V30 1010 H 94.8015 4.37899 1.80392 0
M  V30 1011 H 95.2255 6.73767 0.660812 0
M  V30 1012 H 99.8675 3.95583 1.49244 0
M  V30 1013 H 97.5855 8.07882 -0.187749 0
M  V30 1014 H 101.171 5.79808 0.480974 0
M  V30 1015 H 100.051 7.83433 -0.346782 0
M  V30 1016 N 97.5546 -0.734337 1.39446 0
M  V30 1017 C 98.8016 -1.49391 1.36706 0
M  V30 1018 C 99.1296 -1.94465 -0.0367813 0
M  V30 1019 O 98.3846 -1.67154 -1.01774 0
M  V30 1020 C 98.6836 -2.74711 2.28623 0
M  V30 1021 C 98.3496 -2.48501 3.76242 0
M  V30 1022 C 97.0116 -2.41062 4.16464 0
M  V30 1023 C 99.3636 -2.26098 4.69606 0
M  V30 1024 C 96.6916 -2.09262 5.48112 0
M  V30 1025 C 99.0436 -1.95814 6.01531 0
M  V30 1026 C 97.7076 -1.86845 6.40816 0
M  V30 1027 H 96.9776 -0.546661 0.500243 0
M  V30 1028 H 99.6246 -0.842788 1.71957 0
M  V30 1029 H 97.9296 -3.44569 1.86492 0
M  V30 1030 H 99.6266 -3.32741 2.23796 0
M  V30 1031 H 96.2166 -2.55169 3.44364 0
M  V30 1032 H 100.401 -2.30812 4.39363 0
M  V30 1033 H 95.6566 -2.00841 5.77471 0
M  V30 1034 H 99.8306 -1.77488 6.73403 0
M  V30 1035 H 97.4576 -1.6197 7.42745 0
M  V30 1036 N 99.0327 -1.24633 -0.964593 0
M  V30 1037 C 100.279 -1.09957 -1.71117 0
M  V30 1038 C 100.634 0.357422 -1.89051 0
M  V30 1039 O 99.9267 1.26029 -1.44317 0
M  V30 1040 C 100.121 -1.7763 -3.10133 0
M  V30 1041 C 99.9497 -3.29759 -3.05759 0
M  V30 1042 C 98.7197 -3.98981 -3.10068 0
M  V30 1043 C 100.918 -4.26305 -2.87695 0
M  V30 1044 N 98.8997 -5.37966 -2.95747 0
M  V30 1045 C 100.271 -5.52308 -2.81702 0
M  V30 1046 C 102.326 -4.16842 -2.72299 0
M  V30 1047 C 101.029 -6.69931 -2.61887 0
M  V30 1048 C 103.055 -5.34147 -2.53853 0
M  V30 1049 C 102.417 -6.59084 -2.48572 0
M  V30 1050 H 98.5157 -0.457003 -0.634564 0
M  V30 1051 H 101.1 -1.57592 -1.14337 0
M  V30 1052 H 99.2707 -1.32504 -3.65099 0
M  V30 1053 H 101.003 -1.55786 -3.73514 0
M  V30 1054 H 97.7577 -3.50169 -3.18871 0
M  V30 1055 H 98.1817 -6.10877 -2.91818 0
M  V30 1056 H 102.824 -3.21007 -2.75163 0
M  V30 1057 H 100.542 -7.65886 -2.57767 0
M  V30 1058 H 104.128 -5.28678 -2.4288 0
M  V30 1059 H 103.008 -7.48324 -2.34481 0
M  V30 1060 N 100.511 1.16574 -1.06058 0
M  V30 1061 C 101.76 1.86385 -0.770944 0
M  V30 1062 C 102.073 1.82448 0.705129 0
M  V30 1063 O 103.279 2.47815 1.10905 0
M  V30 1064 C 101.735 3.34466 -1.32893 0
M  V30 1065 C 101.343 3.46883 -2.83507 0
M  V30 1066 C 103.087 4.09548 -1.11672 0
M  V30 1067 C 100.994 4.89036 -3.32562 0
M  V30 1068 H 99.9238 0.698181 -0.284709 0
M  V30 1069 H 102.575 1.31583 -1.27899 0
M  V30 1070 H 100.957 3.88859 -0.748662 0
M  V30 1071 H 102.131 3.02663 -3.47465 0
M  V30 1072 H 100.446 2.85232 -3.03368 0
M  V30 1073 H 103.043 5.14434 -1.45814 0
M  V30 1074 H 103.386 4.16264 -0.0549535 0
M  V30 1075 H 103.919 3.61387 -1.66265 0
M  V30 1076 H 100.658 4.87499 -4.38207 0
M  V30 1077 H 100.178 5.3389 -2.73351 0
M  V30 1078 H 101.857 5.57843 -3.2775 0
M  V30 1079 N 101.989 0.842826 1.3317 0
M  V30 1080 C 102.919 0.294028 2.31641 0
M  V30 1081 C 103.9 -0.600401 1.59151 0
M  V30 1082 O 105.085 -0.523124 1.87022 0
M  V30 1083 C 102.215 -0.528416 3.43257 0
M  V30 1084 C 101.169 0.27056 4.27144 0
M  V30 1085 C 100.495 -0.675881 5.30411 0
M  V30 1086 C 101.795 1.48981 5.00602 0
M  V30 1087 H 103.489 1.11681 2.77791 0
M  V30 1088 H 101.035 0.538478 1.33553 0
M  V30 1089 H 102.988 -0.922674 4.11175 0
M  V30 1090 H 101.712 -1.38445 2.95805 0
M  V30 1091 H 100.371 0.646427 3.60856 0
M  V30 1092 H 100.019 -1.52842 4.79216 0
M  V30 1093 H 99.7189 -0.145374 5.8742 0
M  V30 1094 H 101.243 -1.06757 6.01195 0
M  V30 1095 H 102.657 1.16849 5.61266 0
M  V30 1096 H 101.054 1.95739 5.6728 0
M  V30 1097 H 102.124 2.25746 4.29147 0
M  V30 1098 N 103.467 -1.45747 0.599634 0
M  V30 1099 C 104.713 -2.03153 0.100263 0
M  V30 1100 C 105.068 -1.46073 -1.25221 0
M  V30 1101 O 104.361 -0.622878 -1.81193 0
M  V30 1102 C 104.555 -3.57399 -0.00602758 0
M  V30 1103 C 104.384 -4.2944 1.3346 0
M  V30 1104 C 103.154 -4.6768 1.91321 0
M  V30 1105 C 105.352 -4.61905 2.2616 0
M  V30 1106 N 103.334 -5.24544 3.18946 0
M  V30 1107 C 104.705 -5.19518 3.3838 0
M  V30 1108 C 106.76 -4.43841 2.25631 0
M  V30 1109 C 105.463 -5.60972 4.50226 0
M  V30 1110 C 107.489 -4.86322 3.36518 0
M  V30 1111 C 106.851 -5.44021 4.4746 0
M  V30 1112 H 102.95 -0.777911 0.0798696 0
M  V30 1113 H 105.534 -1.77674 0.796244 0
M  V30 1114 H 103.705 -3.82556 -0.671212 0
M  V30 1115 H 105.437 -4.01457 -0.51133 0
M  V30 1116 H 102.192 -4.5098 1.44617 0
M  V30 1117 H 102.616 -5.57483 3.84112 0
M  V30 1118 H 107.258 -3.98552 1.41123 0
M  V30 1119 H 104.976 -6.0523 5.35464 0
M  V30 1120 H 108.562 -4.74084 3.37247 0
M  V30 1121 H 107.442 -5.76289 5.31846 0
M  V30 1122 N 104.945 -0.338344 -1.53925 0
M  V30 1123 C 106.361 0.0137736 -1.59594 0
M  V30 1124 C 106.561 1.49186 -1.35447 0
M  V30 1125 O 105.617 2.24987 -1.14616 0
M  V30 1126 C 106.93 -0.41773 -2.97784 0
M  V30 1127 C 108.478 -0.369633 -3.1081 0
M  V30 1128 C 108.953 -0.776524 -4.51369 0
M  V30 1129 N 110.444 -0.730506 -4.57403 0
M  V30 1130 C 111.179 -1.01736 -5.64303 0
M  V30 1131 N 110.675 -1.3721 -6.79077 0
M  V30 1132 N 112.468 -0.941942 -5.54151 0
M  V30 1133 H 104.619 -1.3012 -1.67876 0
M  V30 1134 H 106.882 -0.530082 -0.78595 0
M  V30 1135 H 106.588 -1.44811 -3.20504 0
M  V30 1136 H 106.462 0.209729 -3.76616 0
M  V30 1137 H 108.849 0.651568 -2.87817 0
M  V30 1138 H 108.93 -1.03223 -2.34049 0
M  V30 1139 H 108.574 -1.79571 -4.75096 0
M  V30 1140 H 108.504 -0.0914649 -5.26521 0
M  V30 1141 H 110.995 -0.468783 -3.74981 0
M  V30 1142 H 111.308 -1.57597 -7.5656 0
M  V30 1143 H 109.653 -1.4105 -6.80536 0
M  V30 1144 H 112.844 -0.664184 -4.63364 0
M  V30 1145 H 113.017 -1.16884 -6.37371 0
M  V30 1146 N 106.423 1.57458 -0.0668435 0
M  V30 1147 C 107.67 1.93301 0.603406 0
M  V30 1148 C 107.998 0.946486 1.69917 0
M  V30 1149 O 107.253 -0.0387021 1.95662 0
M  V30 1150 C 107.552 3.35784 1.22409 0
M  V30 1151 C 107.218 4.50179 0.254955 0
M  V30 1152 C 105.88 4.81199 -0.0116746 0
M  V30 1153 C 108.232 5.19598 -0.408338 0
M  V30 1154 C 105.56 5.78978 -0.94877 0
M  V30 1155 C 107.912 6.18381 -1.33372 0
M  V30 1156 C 106.576 6.47821 -1.60887 0
M  V30 1157 H 105.846 0.707338 0.220802 0
M  V30 1158 H 108.493 1.91012 -0.136665 0
M  V30 1159 H 106.798 3.34515 2.03978 0
M  V30 1160 H 108.495 3.60804 1.74989 0
M  V30 1161 H 105.085 4.25983 0.472954 0
M  V30 1162 H 109.269 4.95832 -0.215456 0
M  V30 1163 H 104.525 6.00115 -1.16925 0
M  V30 1164 H 108.699 6.71277 -1.85367 0
M  V30 1165 H 106.326 7.23399 -2.33661 0
M  V30 1166 N 107.901 -0.206675 1.56239 0
M  V30 1167 C 109.147 -0.925733 1.81113 0
M  V30 1168 C 109.502 -1.81368 0.642135 0
M  V30 1169 O 108.795 -1.88126 -0.363211 0
M  V30 1170 C 108.989 -1.78675 3.09532 0
M  V30 1171 C 108.818 -0.98365 4.3881 0
M  V30 1172 C 107.588 -0.672661 5.00803 0
M  V30 1173 C 109.786 -0.341847 5.13163 0
M  V30 1174 N 107.768 0.150283 6.13716 0
M  V30 1175 C 109.139 0.343815 6.19046 0
M  V30 1176 C 111.194 -0.256392 4.97239 0
M  V30 1177 C 109.897 1.10678 7.10734 0
M  V30 1178 C 111.923 0.493142 5.8934 0
M  V30 1179 C 111.285 1.16729 6.94661 0
M  V30 1180 H 107.384 -0.318524 0.714189 0
M  V30 1181 H 109.968 -0.195378 1.93717 0
M  V30 1182 H 108.139 -2.4888 2.98183 0
M  V30 1183 H 109.871 -2.44441 3.22538 0
M  V30 1184 H 106.626 -0.994294 4.63045 0
M  V30 1185 H 107.05 0.551026 6.74754 0
M  V30 1186 H 111.692 -0.763249 4.15854 0
M  V30 1187 H 109.41 1.6251 7.91591 0
M  V30 1188 H 112.996 0.560465 5.79094 0
M  V30 1189 H 111.876 1.738 7.64698 0
M  V30 1190 N 109.379 -1.50304 -0.473955 0
M  V30 1191 C 110.329 -1.65347 -1.56985 0
M  V30 1192 C 111.313 -0.508176 -1.52664 0
M  V30 1193 O 112.505 -0.762446 -1.59737 0
M  V30 1194 C 109.634 -1.74832 -2.95447 0
M  V30 1195 C 108.72 -2.95028 -3.04662 0
M  V30 1196 N 109.111 -4.18747 -2.83698 0
M  V30 1197 C 107.409 -2.93527 -3.35795 0
M  V30 1198 C 108.11 -4.99687 -2.97805 0
M  V30 1199 N 107.086 -4.33585 -3.2788 0
M  V30 1200 H 110.888 -2.58698 -1.39472 0
M  V30 1201 H 108.402 -1.47449 -0.680629 0
M  V30 1202 H 110.399 -1.83712 -3.7424 0
M  V30 1203 H 109.059 -0.826376 -3.14008 0
M  V30 1204 H 110.07 -4.48291 -2.59337 0
M  V30 1205 H 106.747 -2.10821 -3.60362 0
M  V30 1206 H 108.137 -6.08057 -2.85861 0
M  V30 1207 N 110.857 0.726932 -1.39834 0
M  V30 1208 C 112.134 1.47902 -1.28001 0
M  V30 1209 C 112.514 2.1083 0.106789 0
M  V30 1210 O 111.862 1.99242 1.11869 0
M  V30 1211 C 112.072 2.52392 -2.41038 0
M  V30 1212 C 113.42 3.18546 -2.80737 0
M  V30 1213 O 114.444 2.62708 -2.40547 0
M  V30 1214 O 113.303 4.19604 -3.50135 0
M  V30 1215 H 110.397 0.657163 -0.502062 0
M  V30 1216 H 112.943 0.760071 -1.51727 0
M  V30 1217 H 111.715 2.04329 -3.33715 0
M  V30 1218 H 111.338 3.31837 -2.19021 0
M  V30 1219 N 112.336 1.25143 0.95797 0
M  V30 1220 C 113.561 1.12521 1.74223 0
M  V30 1221 C 113.986 -0.317402 1.85403 0
M  V30 1222 O 113.344 -1.2299 1.33204 0
M  V30 1223 C 113.392 1.78062 3.1357 0
M  V30 1224 O 112.496 1.058 3.98598 0
M  V30 1225 H 111.837 0.39304 0.535178 0
M  V30 1226 H 114.367 1.65641 1.201 0
M  V30 1227 H 114.377 1.84213 3.64046 0
M  V30 1228 H 113.052 2.83021 3.04749 0
M  V30 1229 H 111.629 1.07506 3.57067 0
M  V30 1230 N 113.814 -1.1601 1.06675 0
M  V30 1231 C 114.724 -2.24156 0.692179 0
M  V30 1232 C 115.74 -1.71507 -0.293513 0
M  V30 1233 O 116.916 -2.009 -0.141861 0
M  V30 1234 C 113.981 -3.46587 0.0884131 0
M  V30 1235 C 113.042 -4.14257 1.12646 0
M  V30 1236 C 112.275 -5.30844 0.551416 0
M  V30 1237 O 112.498 -5.66858 -0.634656 0
M  V30 1238 O 111.432 -5.87848 1.29298 0
M  V30 1239 H 115.258 -2.58513 1.59388 0
M  V30 1240 H 112.843 -1.23599 0.83926 0
M  V30 1241 H 114.725 -4.20679 -0.246361 0
M  V30 1242 H 113.4 -3.13994 -0.786712 0
M  V30 1243 H 112.307 -3.42118 1.51348 0
M  V30 1244 H 113.64 -4.50914 1.97325 0
M  V30 1245 N 115.292 -0.849877 -1.32721 0
M  V30 1246 C 116.202 -0.293791 -2.32753 0
M  V30 1247 C 117.218 0.585906 -1.63839 0
M  V30 1248 O 118.394 0.487413 -1.95413 0
M  V30 1249 C 115.459 0.512752 -3.42887 0
M  V30 1250 C 114.52 -0.39252 -4.27502 0
M  V30 1251 C 113.753 0.375625 -5.32377 0
M  V30 1252 O 113.976 1.60613 -5.4732 0
M  V30 1253 O 112.91 -0.256094 -6.01355 0
M  V30 1254 H 116.736 -1.12242 -2.82197 0
M  V30 1255 H 114.321 -0.612685 -1.36259 0
M  V30 1256 H 116.203 0.970704 -4.10067 0
M  V30 1257 H 114.878 1.31826 -2.95641 0
M  V30 1258 H 113.785 -0.898547 -3.63149 0
M  V30 1259 H 115.118 -1.16309 -4.7826 0
M  V30 1260 N 116.77 1.45427 -0.607355 0
M  V30 1261 C 118.016 2.0254 -0.102607 0
M  V30 1262 C 118.349 1.47478 1.26348 0
M  V30 1263 O 117.624 0.64939 1.83339 0
M  V30 1264 C 117.907 3.60044 -0.0634347 0
M  V30 1265 C 117.76 4.2544 -1.46017 0
M  V30 1266 C 119.079 4.35646 0.624514 0
M  V30 1267 H 116.198 0.73598 -0.0387607 0
M  V30 1268 H 118.84 1.73284 -0.779282 0
M  V30 1269 H 116.99 3.85101 0.512808 0
M  V30 1270 H 118.662 4.11569 -2.08347 0
M  V30 1271 H 116.905 3.83849 -2.02094 0
M  V30 1272 H 117.576 5.34342 -1.385 0
M  V30 1273 H 120.052 4.15882 0.134723 0
M  V30 1274 H 118.928 5.45376 0.621028 0
M  V30 1275 H 119.189 4.08501 1.69055 0
M  V30 1276 N 118.248 0.346503 1.53744 0
M  V30 1277 C 119.178 -0.501193 2.28058 0
M  V30 1278 C 120.159 -1.10014 1.29734 0
M  V30 1279 O 121.344 -1.12097 1.58581 0
M  V30 1280 C 118.474 -1.65078 3.05559 0
M  V30 1281 C 117.428 -1.18003 4.11411 0
M  V30 1282 C 116.754 -2.41837 4.76884 0
M  V30 1283 C 118.054 -0.278394 5.21558 0
M  V30 1284 H 119.748 0.11875 2.99164 0
M  V30 1285 H 117.294 0.0585531 1.43881 0
M  V30 1286 H 119.247 -2.25028 3.56287 0
M  V30 1287 H 117.971 -2.29767 2.32109 0
M  V30 1288 H 116.63 -0.603331 3.61601 0
M  V30 1289 H 116.278 -3.0494 4.00026 0
M  V30 1290 H 115.978 -2.1102 5.48402 0
M  V30 1291 H 117.502 -3.02508 5.30397 0
M  V30 1292 H 118.916 -0.784823 5.67903 0
M  V30 1293 H 117.313 -0.0619707 6.00068 0
M  V30 1294 H 118.383 0.684677 4.80042 0
M  V30 1295 N 119.726 -1.57421 0.075193 0
M  V30 1296 C 120.974 -1.93236 -0.591974 0
M  V30 1297 C 121.295 -0.956241 -1.69944 0
M  V30 1298 O 120.565 -0.00494792 -1.95899 0
M  V30 1299 H 119.145 -0.713355 -0.22166 0
M  V30 1300 H 121.807 -1.9444 0.133848 0
M  V30 1301 H 120.903 -2.95131 -1.01509 0
M  V30 1302 N 121.204 0.198386 -1.56346 0
M  V30 1303 C 122.154 1.2499 -1.90687 0
M  V30 1304 C 123.138 1.41158 -0.772217 0
M  V30 1305 O 124.33 1.43584 -1.03502 0
M  V30 1306 C 121.459 2.59542 -2.24706 0
M  V30 1307 C 120.545 2.47181 -3.44619 0
M  V30 1308 N 120.936 2.04495 -4.62618 0
M  V30 1309 C 119.234 2.78082 -3.48692 0
M  V30 1310 C 119.935 2.03945 -5.44776 0
M  V30 1311 N 118.911 2.45323 -4.85095 0
M  V30 1312 H 122.713 0.911149 -2.7942 0
M  V30 1313 H 120.227 0.40684 -1.57221 0
M  V30 1314 H 122.224 3.3549 -2.47491 0
M  V30 1315 H 120.884 2.94244 -1.37298 0
M  V30 1316 H 121.895 1.75256 -4.87345 0
M  V30 1317 H 118.572 3.17002 -2.71691 0
M  V30 1318 H 119.962 1.72872 -6.4928 0
M  V30 1319 N 122.682 1.50554 0.465978 0
M  V30 1320 C 123.929 1.61798 1.21768 0
M  V30 1321 C 124.257 0.320696 1.91838 0
M  V30 1322 O 123.512 -0.693724 1.82992 0
M  V30 1323 C 123.811 2.75152 2.28093 0
M  V30 1324 C 123.477 4.15454 1.75239 0
M  V30 1325 C 122.139 4.53628 1.60546 0
M  V30 1326 C 124.491 5.03121 1.36083 0
M  V30 1327 C 121.819 5.77204 1.05128 0
M  V30 1328 C 124.171 6.27249 0.821056 0
M  V30 1329 C 122.835 6.64221 0.660795 0
M  V30 1330 H 122.105 0.592063 0.445582 0
M  V30 1331 H 124.752 1.84503 0.512927 0
M  V30 1332 H 123.057 2.46556 3.04496 0
M  V30 1333 H 124.754 2.81055 2.86023 0
M  V30 1334 H 121.344 3.85341 1.87644 0
M  V30 1335 H 125.528 4.74257 1.46267 0
M  V30 1336 H 120.784 6.0452 0.91462 0
M  V30 1337 H 124.958 6.94537 0.509018 0
M  V30 1338 H 122.585 7.59854 0.229226 0
M  V30 1339 N 124.16 -0.719506 1.40217 0
M  V30 1340 C 125.571 -1.29848 1.34151 0
M  V30 1341 C 125.922 -1.96196 0.0131349 0
M  V30 1342 O 125.047 -1.973 -0.88892 0
M  V30 1343 C 125.642 -2.36118 2.42968 0
M  V30 1344 C 124.201 -2.8965 2.40374 0
M  V30 1345 C 123.348 -1.63393 2.24049 0
M  V30 1346 H 126.299 -0.51591 1.5008 0
M  V30 1347 H 126.32 -3.16871 2.10649 0
M  V30 1348 H 125.832 -1.878 3.39636 0
M  V30 1349 H 123.933 -3.42208 1.47392 0
M  V30 1350 H 124.046 -3.4171 3.35814 0
M  V30 1351 H 122.41 -1.88312 1.71495 0
M  V30 1352 H 123.193 -1.17104 3.2271 0
M  V30 1353 N 125.638 -1.25649 -0.95132 0
M  V30 1354 C 126.868 -1.13179 -1.72841 0
M  V30 1355 C 127.276 0.316827 -1.86528 0
M  V30 1356 O 126.619 1.22948 -1.3649 0
M  V30 1357 C 126.681 -1.71644 -3.15878 0
M  V30 1358 C 126.345 -3.20667 -3.25609 0
M  V30 1359 C 127.342 -4.17616 -3.09666 0
M  V30 1360 C 125.027 -3.6094 -3.49324 0
M  V30 1361 C 127.021 -5.52817 -3.17289 0
M  V30 1362 C 124.708 -4.96278 -3.56584 0
M  V30 1363 C 125.706 -5.92025 -3.40581 0
M  V30 1364 O 125.394 -7.24899 -3.47528 0
M  V30 1365 H 125.126 -0.395389 -0.54831 0
M  V30 1366 H 127.68 -1.66566 -1.20187 0
M  V30 1367 H 125.91 -1.12707 -3.69911 0
M  V30 1368 H 127.599 -1.54225 -3.75459 0
M  V30 1369 H 128.365 -3.87842 -2.91211 0
M  V30 1370 H 124.244 -2.86907 -3.6084 0
M  V30 1371 H 127.788 -6.2753 -3.04716 0
M  V30 1372 H 123.685 -5.25716 -3.74556 0
M  V30 1373 H 124.453 -7.33039 -3.64138 0
M  V30 1374 N 127.117 1.15442 -1.07289 0
M  V30 1375 C 128.528 1.67803 -0.818475 0
M  V30 1376 C 128.879 1.8489 0.656507 0
M  V30 1377 O 128.004 1.55176 1.50829 0
M  V30 1378 C 128.599 3.04805 -1.47917 0
M  V30 1379 C 127.158 3.54245 -1.27229 0
M  V30 1380 C 126.305 2.29986 -1.54925 0
M  V30 1381 H 129.256 0.996646 -1.23502 0
M  V30 1382 H 129.277 3.69702 -0.90005 0
M  V30 1383 H 128.789 2.92336 -2.55267 0
M  V30 1384 H 126.89 3.71956 -0.21899 0
M  V30 1385 H 127.003 4.35723 -1.99203 0
M  V30 1386 H 125.367 2.35496 -0.970242 0
M  V30 1387 H 126.15 2.20105 -2.63455 0
M  V30 1388 N 128.595 0.856903 1.32268 0
M  V30 1389 C 129.872 0.382583 1.91822 0
M  V30 1390 C 130.252 -1.13407 1.78051 0
M  V30 1391 O 129.6 -1.95673 1.18001 0
M  V30 1392 C 129.81 0.849446 3.38505 0
M  V30 1393 C 131.158 0.867936 4.15634 0
M  V30 1394 O 132.182 0.794232 3.47232 0
M  V30 1395 O 131.041 0.972286 5.37781 0
M  V30 1396 H 128.135 0.112014 0.819379 0
M  V30 1397 H 130.681 0.943952 1.41024 0
M  V30 1398 H 129.453 1.89267 3.42482 0
M  V30 1399 H 129.076 0.265652 3.96712 0
M  V30 1400 N 130.073 -1.45103 0.615059 0
M  V30 1401 C 131.484 -1.85654 0.197383 0
M  V30 1402 C 131.835 -1.51433 -1.24749 0
M  V30 1403 O 130.96 -0.944608 -1.94695 0
M  V30 1404 C 131.555 -3.36972 0.351448 0
M  V30 1405 C 130.114 -3.76398 -0.011593 0
M  V30 1406 C 129.261 -2.69024 0.672394 0
M  V30 1407 H 132.212 -1.35797 0.821263 0
M  V30 1408 H 132.233 -3.78239 -0.414227 0
M  V30 1409 H 131.745 -3.61847 1.40314 0
M  V30 1410 H 129.846 -3.5714 -1.06217 0
M  V30 1411 H 129.959 -4.77532 0.387265 0
M  V30 1412 H 128.323 -2.54465 0.109284 0
M  V30 1413 H 129.106 -2.96735 1.72636 0
M  V30 1414 N 131.551 -0.354651 -1.53558 0
M  V30 1415 C 132.776 0.242153 -2.05981 0
M  V30 1416 C 133.201 1.42553 -1.2272 0
M  V30 1417 O 132.559 1.79656 -0.243604 0
M  V30 1418 C 132.607 0.624367 -3.55154 0
M  V30 1419 O 131.711 1.72301 -3.74681 0
M  V30 1420 H 131.052 0.0378432 -0.662921 0
M  V30 1421 H 133.582 -0.512087 -1.98088 0
M  V30 1422 H 133.592 0.898433 -3.97985 0
M  V30 1423 H 132.267 -0.240989 -4.15201 0
M  V30 1424 H 130.844 1.44535 -3.4375 0
M  V30 1425 N 133.029 1.57378 -0.0835403 0
M  V30 1426 C 133.961 2.10389 0.909338 0
M  V30 1427 C 134.974 1.03858 1.25369 0
M  V30 1428 O 136.163 1.31338 1.20882 0
M  V30 1429 C 133.263 2.55908 2.2218 0
M  V30 1430 C 132.436 3.86145 2.05453 0
M  V30 1431 C 131.495 4.17633 3.20108 0
M  V30 1432 O 130.521 4.87043 2.94581 0
M  V30 1433 N 131.723 3.72113 4.45547 0
M  V30 1434 H 134.488 2.962 0.456657 0
M  V30 1435 H 132.049 1.61579 0.101877 0
M  V30 1436 H 134.041 2.74027 2.97811 0
M  V30 1437 H 132.611 1.75171 2.58909 0
M  V30 1438 H 131.831 3.7729 1.1422 0
M  V30 1439 H 133.119 4.7137 1.91541 0
M  V30 1440 H 132.517 3.16062 4.69171 0
M  V30 1441 H 131.074 3.95409 5.18165 0
M  V30 1442 N 134.507 -0.190092 1.56449 0
M  V30 1443 C 135.753 -0.906472 1.82084 0
M  V30 1444 C 136.108 -1.80677 0.661335 0
M  V30 1445 O 135.401 -1.88501 -0.343237 0
M  V30 1446 C 135.595 -1.75382 3.1141 0
M  V30 1447 C 135.424 -0.937053 4.39829 0
M  V30 1448 C 134.194 -0.619507 5.01488 0
M  V30 1449 C 136.392 -0.2874 5.13496 0
M  V30 1450 N 134.374 0.215367 6.13522 0
M  V30 1451 C 135.745 0.409454 6.18646 0
M  V30 1452 C 137.8 -0.203639 4.97483 0
M  V30 1453 C 136.503 1.1821 7.0952 0
M  V30 1454 C 138.529 0.555622 5.88784 0
M  V30 1455 C 137.891 1.24091 6.93384 0
M  V30 1456 H 133.99 -0.310931 0.717528 0
M  V30 1457 H 136.574 -0.174821 1.93914 0
M  V30 1458 H 134.745 -2.45703 3.00806 0
M  V30 1459 H 136.477 -2.41006 3.25112 0
M  V30 1460 H 133.232 -0.945126 4.64074 0
M  V30 1461 H 133.656 0.622562 6.74131 0
M  V30 1462 H 138.298 -0.719099 4.1664 0
M  V30 1463 H 136.016 1.70897 7.89823 0
M  V30 1464 H 139.602 0.621854 5.78467 0
M  V30 1465 H 138.482 1.81901 7.62812 0
M  V30 1466 N 135.985 -1.50799 -0.457987 0
M  V30 1467 C 137.213 -1.66218 -1.23203 0
M  V30 1468 C 137.628 -0.350894 -1.85511 0
M  V30 1469 O 136.985 0.668546 -1.69814 0
M  V30 1470 C 137.036 -2.76291 -2.33121 0
M  V30 1471 O 136.757 -4.02338 -1.73366 0
M  V30 1472 C 138.258 -3.028 -3.2377 0
M  V30 1473 H 135.478 -0.558361 -0.372121 0
M  V30 1474 H 138.022 -1.97099 -0.545179 0
M  V30 1475 H 136.177 -2.48068 -2.97558 0
M  V30 1476 H 136.591 -4.63312 -2.4585 0
M  V30 1477 H 138.065 -3.8345 -3.97077 0
M  V30 1478 H 138.542 -2.14385 -3.83322 0
M  V30 1479 H 139.148 -3.32604 -2.65056 0
M  V30 1480 N 137.463 0.71206 -1.40597 0
M  V30 1481 C 138.74 1.46536 -1.29563 0
M  V30 1482 C 139.12 2.10931 0.0844217 0
M  V30 1483 O 138.468 2.00418 1.0975 0
M  V30 1484 C 138.678 2.49821 -2.43701 0
M  V30 1485 C 140.026 3.15551 -2.841 0
M  V30 1486 O 141.05 2.60142 -2.4332 0
M  V30 1487 O 139.909 4.15867 -3.54566 0
M  V30 1488 H 137.003 0.651801 -0.509004 0
M  V30 1489 H 139.549 0.743935 -1.52524 0
M  V30 1490 H 138.321 2.00778 -3.35863 0
M  V30 1491 H 137.944 3.29495 -2.22528 0
M  V30 1492 N 138.941 1.26152 0.944643 0
M  V30 1493 C 139.851 1.09176 2.07648 0
M  V30 1494 C 140.867 0.0261935 1.7398 0
M  V30 1495 O 142.043 0.229208 2.00091 0
M  V30 1496 C 139.108 0.722915 3.39079 0
M  V30 1497 C 138.169 1.86752 3.86552 0
M  V30 1498 C 137.402 1.51617 5.11711 0
M  V30 1499 O 137.625 0.416331 5.68879 0
M  V30 1500 O 136.559 2.34975 5.54139 0
M  V30 1501 H 140.385 2.0412 2.24875 0
M  V30 1502 H 137.97 1.05182 1.061 0
M  V30 1503 H 139.852 0.529787 4.18056 0
M  V30 1504 H 138.527 -0.197159 3.23099 0
M  V30 1505 H 137.434 2.11558 3.08535 0
M  V30 1506 H 138.767 2.76719 4.07047 0
M  V30 1507 N 140.419 -1.14872 1.07899 0
M  V30 1508 C 141.329 -2.2341 0.715915 0
M  V30 1509 C 142.345 -1.71808 -0.275306 0
M  V30 1510 O 143.521 -2.01039 -0.120545 0
M  V30 1511 C 140.586 -3.46474 0.125168 0
M  V30 1512 C 139.647 -4.13039 1.17034 0
M  V30 1513 C 138.88 -5.30229 0.607688 0
M  V30 1514 O 139.103 -5.675 -0.574497 0
M  V30 1515 O 138.037 -5.86444 1.35526 0
M  V30 1516 H 141.863 -2.56808 1.62121 0
M  V30 1517 H 139.448 -1.22702 0.852322 0
M  V30 1518 H 141.33 -4.20917 -0.201729 0
M  V30 1519 H 140.005 -3.14811 -0.753364 0
M  V30 1520 H 138.912 -3.40493 1.54968 0
M  V30 1521 H 140.245 -4.48796 2.02097 0
M  V30 1522 N 141.898 -0.863906 -1.31812 0
M  V30 1523 C 142.828 -0.330843 -2.31144 0
M  V30 1524 C 143.809 0.575005 -1.60087 0
M  V30 1525 O 144.994 0.493304 -1.8783 0
M  V30 1526 C 142.124 0.47374 -3.44054 0
M  V30 1527 C 141.078 -0.338481 -4.26659 0
M  V30 1528 C 140.404 0.591412 -5.31419 0
M  V30 1529 C 141.704 -1.56926 -4.98168 0
M  V30 1530 H 143.398 -1.16086 -2.75979 0
M  V30 1531 H 140.944 -0.559657 -1.32679 0
M  V30 1532 H 142.897 0.857143 -4.12591 0
M  V30 1533 H 141.621 1.33721 -2.9797 0
M  V30 1534 H 140.28 -0.703754 -3.59782 0
M  V30 1535 H 139.928 1.45199 -4.81587 0
M  V30 1536 H 139.628 0.0519022 -5.87577 0
M  V30 1537 H 141.152 0.97179 -6.02817 0
M  V30 1538 H 142.566 -1.25764 -5.59336 0
M  V30 1539 H 140.963 -2.04739 -5.64094 0
M  V30 1540 H 142.033 -2.32544 -4.25501 0
M  V30 1541 N 143.376 1.44774 -0.622745 0
M  V30 1542 C 144.624 2.01721 -0.123655 0
M  V30 1543 C 144.945 1.49172 1.25589 0
M  V30 1544 O 144.215 0.691974 1.83272 0
M  V30 1545 H 142.795 0.745777 -0.0427225 0
M  V30 1546 H 145.457 1.77382 -0.807559 0
M  V30 1547 H 144.553 3.11984 -0.0849534 0
M  V30 1548 N 144.854 0.36279 1.53368 0
M  V30 1549 C 146.103 -0.22888 2.00397 0
M  V30 1550 C 146.416 -1.50096 1.25421 0
M  V30 1551 O 147.622 -2.17106 1.63025 0
M  V30 1552 C 146.078 -0.458417 3.56969 0
M  V30 1553 C 145.686 0.798877 4.4082 0
M  V30 1554 C 147.43 -1.00789 4.12361 0
M  V30 1555 C 145.337 0.539078 5.88938 0
M  V30 1556 H 144.267 -0.089305 0.748693 0
M  V30 1557 H 146.918 0.481099 1.77081 0
M  V30 1558 H 145.3 -1.22959 3.76427 0
M  V30 1559 H 146.474 1.57262 4.33134 0
M  V30 1560 H 144.789 1.27137 3.96516 0
M  V30 1561 H 147.386 -1.21754 5.20653 0
M  V30 1562 H 147.729 -1.9692 3.66781 0
M  V30 1563 H 148.262 -0.296961 3.9669 0
M  V30 1564 H 145.001 1.47064 6.3879 0
M  V30 1565 H 144.521 -0.196222 5.99479 0
M  V30 1566 H 146.2 0.163542 6.46793 0
M  V30 1567 N 146.332 -1.57332 0.0918853 0
M  V30 1568 C 147.743 -1.81496 -0.437739 0
M  V30 1569 C 148.094 -1.00727 -1.6837 0
M  V30 1570 O 147.219 -0.235694 -2.15113 0
M  V30 1571 C 147.814 -3.29197 -0.800939 0
M  V30 1572 C 146.373 -3.54136 -1.27532 0
M  V30 1573 C 145.52 -2.75979 -0.270392 0
M  V30 1574 H 148.471 -1.55494 0.317366 0
M  V30 1575 H 148.492 -3.42344 -1.66074 0
M  V30 1576 H 148.004 -3.87955 0.106078 0
M  V30 1577 H 146.105 -3.00705 -2.20016 0
M  V30 1578 H 146.218 -4.62792 -1.23938 0
M  V30 1579 H 144.582 -2.43349 -0.751872 0
M  V30 1580 H 145.365 -3.37484 0.629248 0
M  V30 1581 N 147.81 0.181792 -1.56548 0
M  V30 1582 C 149.221 0.745244 -1.71181 0
M  V30 1583 C 149.572 1.83262 -0.70068 0
M  V30 1584 O 148.697 2.15946 0.140154 0
M  V30 1585 C 149.292 1.35859 -3.10367 0
M  V30 1586 C 147.851 1.86898 -3.2672 0
M  V30 1587 C 146.998 0.743942 -2.67134 0
M  V30 1588 H 149.949 -0.0434661 -1.5864 0
M  V30 1589 H 149.97 2.22817 -3.08436 0
M  V30 1590 H 149.482 0.566948 -3.83937 0
M  V30 1591 H 147.583 2.68738 -2.5809 0
M  V30 1592 H 147.696 2.02162 -4.34359 0
M  V30 1593 H 146.06 1.16169 -2.26665 0
M  V30 1594 H 146.843 -0.035676 -3.43281 0
M  V30 1595 N 149.288 1.51039 0.449983 0
M  V30 1596 C 150.565 1.53612 1.21089 0
M  V30 1597 C 150.945 0.292997 2.09057 0
M  V30 1598 O 150.293 -0.72259 2.16774 0
M  V30 1599 C 150.503 2.84337 2.0237 0
M  V30 1600 C 151.851 3.35807 2.59843 0
M  V30 1601 O 152.875 2.85802 2.12593 0
M  V30 1602 O 151.734 4.23029 3.45989 0
M  V30 1603 H 148.828 0.617057 0.550608 0
M  V30 1604 H 151.374 1.63344 0.460082 0
M  V30 1605 H 150.146 3.66278 1.37681 0
M  V30 1606 H 149.769 2.77708 2.84542 0
M  V30 1607 N 150.766 -0.704594 1.40972 0
M  V30 1608 C 152.043 -1.45847 1.30338 0
M  V30 1609 C 152.423 -2.10973 -0.0732344 0
M  V30 1610 O 151.771 -2.00997 -1.08685 0
M  V30 1611 C 151.981 -2.48525 2.45023 0
M  V30 1612 C 153.329 -3.1404 2.8577 0
M  V30 1613 O 154.353 -2.58848 2.44696 0
M  V30 1614 O 153.212 -4.13981 3.56766 0
M  V30 1615 H 150.306 -0.649092 0.512454 0
M  V30 1616 H 152.852 -0.735836 1.52917 0
M  V30 1617 H 151.624 -1.98994 3.36923 0
M  V30 1618 H 151.247 -3.2831 2.24272 0
M  V30 1619 N 152.244 -1.26651 -0.937939 0
M  V30 1620 C 153.154 -1.10276 -2.07066 0
M  V30 1621 C 154.17 -0.0354197 -1.73964 0
M  V30 1622 O 155.346 -0.239816 -1.99967 0
M  V30 1623 C 152.411 -0.740887 -3.38691 0
M  V30 1624 C 151.472 -1.88799 -3.85556 0
M  V30 1625 C 150.705 -1.54329 -5.10899 0
M  V30 1626 O 150.928 -0.446494 -5.6865 0
M  V30 1627 O 149.862 -2.37911 -5.52885 0
M  V30 1628 H 153.688 -2.05309 -2.23789 0
M  V30 1629 H 151.273 -1.05743 -1.0554 0
M  V30 1630 H 153.155 -0.55195 -4.1777 0
M  V30 1631 H 151.83 0.180022 -3.23199 0
M  V30 1632 H 150.737 -2.13191 -3.07409 0
M  V30 1633 H 152.07 -2.78874 -4.05574 0
M  V30 1634 N 153.722 1.14298 -1.08507 0
M  V30 1635 C 154.999 1.81544 -0.728088 0
M  V30 1636 C 155.379 1.95838 0.78808 0
M  V30 1637 O 154.727 1.51904 1.70697 0
M  V30 1638 C 154.937 3.17169 -1.45619 0
M  V30 1639 C 156.285 3.9265 -1.61591 0
M  V30 1640 O 157.309 3.26762 -1.41793 0
M  V30 1641 O 156.168 5.10807 -1.94263 0
M  V30 1642 H 153.262 0.78491 -0.260471 0
M  V30 1643 H 155.808 1.21307 -1.18671 0
M  V30 1644 H 154.58 3.01934 -2.489 0
M  V30 1645 H 154.203 3.851 -0.989124 0
M  V30 1646 O 155.239 1.00442 1.26466 0
M  V30 1647 H 155.93 0.659114 1.82141 0
M  V30 END ATOM
M  V30 BEGIN BOND
M  V30 END BOND
M  V30 END CTAB
M  END
$$$$
