drugbank_target|P16112 Aggrecan core protein (DB02255)
 OpenBabel12092120473D

  0  0  0     0  0            999 V3000
M  V30 BEGIN CTAB
M  V30 COUNTS 34171 34589 0 0 0
M  V30 BEGIN ATOM
M  V30 1 H -0.908 1.98254 -0.117106 0
M  V30 2 N 0 1.576 0 0
M  V30 3 C 0.933 2.03868 1.02534 0
M  V30 4 C 1.911 0.928543 1.3348 0
M  V30 5 O 3.095 1.19667 1.45644 0
M  V30 6 C 0.222 2.43627 2.35294 0
M  V30 7 C -0.732 3.65373 2.2001 0
M  V30 8 S 0.101 5.13292 1.52614 0
M  V30 9 C 1.257 5.56322 2.86805 0
M  V30 10 H 1.49 2.90518 0.631377 0
M  V30 11 H -0.977 1.52953 0.210867 0
M  V30 12 H 0.981 2.67203 3.11629 0
M  V30 13 H -0.358 1.57376 2.7183 0
M  V30 14 H -1.165 3.90944 3.18086 0
M  V30 15 H -1.563 3.418 1.51819 0
M  V30 16 H 0.729 5.58782 3.83104 0
M  V30 17 H 1.672 6.56266 2.65933 0
M  V30 18 H 2.08 4.83886 2.90714 0
M  V30 19 N 1.4781 -0.272755 1.55222 0
M  V30 20 C 2.7061 -1.02255 1.79865 0
M  V30 21 C 3.1211 -1.79924 0.572088 0
M  V30 22 O 2.4781 -1.76638 -0.458842 0
M  V30 23 C 2.5291 -1.98094 3.02392 0
M  V30 24 O 2.2501 -1.23572 4.20311 0
M  V30 25 C 3.7511 -2.84884 3.39641 0
M  V30 26 H 0.9711 -0.302057 0.599168 0
M  V30 27 H 3.5151 -0.303465 2.02236 0
M  V30 28 H 1.6701 -2.65465 2.82147 0
M  V30 29 H 2.0841 -1.88172 4.89583 0
M  V30 30 H 3.5581 -3.47927 4.28545 0
M  V30 31 H 4.0351 -3.54665 2.59055 0
M  V30 32 H 4.6411 -2.23003 3.62146 0
M  V30 33 N 2.9562 -1.48159 -0.537278 0
M  V30 34 C 4.1842 -1.59454 -1.31841 0
M  V30 35 C 4.5992 -0.252065 -1.8711 0
M  V30 36 O 3.9562 0.757621 -1.66031 0
M  V30 37 C 4.0072 -2.63546 -2.47439 0
M  V30 38 O 3.7282 -3.92583 -1.94449 0
M  V30 39 C 5.2292 -2.85212 -3.39366 0
M  V30 40 H 2.4492 -0.53785 -0.401196 0
M  V30 41 H 4.9932 -1.93932 -0.648891 0
M  V30 42 H 3.1482 -2.31946 -3.1029 0
M  V30 43 H 3.5622 -4.49629 -2.70063 0
M  V30 44 H 5.0362 -3.61863 -4.16844 0
M  V30 45 H 5.5132 -1.93765 -3.94147 0
M  V30 46 H 6.1192 -3.18086 -2.82314 0
M  V30 47 N 4.4343 0.785586 -1.36625 0
M  V30 48 C 5.3643 1.91259 -1.33949 0
M  V30 49 C 6.3453 1.68795 -0.210325 0
M  V30 50 O 7.5303 1.89854 -0.408561 0
M  V30 51 C 4.6603 3.28339 -1.13186 0
M  V30 52 C 3.6143 3.65335 -2.22967 0
M  V30 53 C 2.9403 5.00806 -1.87342 0
M  V30 54 C 4.2403 3.7352 -3.65075 0
M  V30 55 H 5.9343 1.93755 -2.28253 0
M  V30 56 H 3.4803 0.930788 -1.09874 0
M  V30 57 H 5.4333 4.06804 -1.09948 0
M  V30 58 H 4.1573 3.2624 -0.153332 0
M  V30 59 H 2.8163 2.89169 -2.25337 0
M  V30 60 H 2.4643 4.95233 -0.880545 0
M  V30 61 H 2.1643 5.26529 -2.60846 0
M  V30 62 H 3.6883 5.81687 -1.85667 0
M  V30 63 H 5.1023 4.42168 -3.64911 0
M  V30 64 H 3.4993 4.10731 -4.37516 0
M  V30 65 H 4.5693 2.74527 -3.99703 0
M  V30 66 N 5.9124 1.20967 1.01018 0
M  V30 67 C 6.8424 0.988272 2.11555 0
M  V30 68 C 7.8234 -0.0849778 1.69888 0
M  V30 69 O 9.0084 0.0738202 1.9406 0
M  V30 70 C 6.1384 0.546528 3.42973 0
M  V30 71 C 5.0924 1.56375 3.9841 0
M  V30 72 C 4.4184 0.97842 5.25672 0
M  V30 73 C 5.7184 2.94922 4.31066 0
M  V30 74 H 7.4124 1.91276 2.30334 0
M  V30 75 H 4.9584 0.921073 1.1069 0
M  V30 76 H 6.9114 0.378839 4.19694 0
M  V30 77 H 5.6354 -0.413598 3.23971 0
M  V30 78 H 4.2944 1.71891 3.23804 0
M  V30 79 H 3.9424 0.0101688 5.02999 0
M  V30 80 H 3.6424 1.65784 5.63728 0
M  V30 81 H 5.1664 0.821939 6.05043 0
M  V30 82 H 6.5804 2.8288 4.9865 0
M  V30 83 H 4.9774 3.5983 4.80253 0
M  V30 84 H 6.0474 3.4616 3.39561 0
M  V30 85 N 7.3905 -1.2043 1.01659 0
M  V30 86 C 8.6365 -1.90356 0.716674 0
M  V30 87 C 8.9915 -1.77367 -0.745557 0
M  V30 88 O 8.2845 -1.1471 -1.53467 0
M  V30 89 C 8.4785 -3.40464 1.08714 0
M  V30 90 C 8.3075 -3.6806 2.58384 0
M  V30 91 C 7.0775 -3.86775 3.25167 0
M  V30 92 C 9.2755 -3.70623 3.56572 0
M  V30 93 N 7.2575 -4.01889 4.64067 0
M  V30 94 C 8.6285 -3.91161 4.81034 0
M  V30 95 C 10.6835 -3.53586 3.50544 0
M  V30 96 C 9.3865 -3.96428 6.00198 0
M  V30 97 C 11.4125 -3.60125 4.6911 0
M  V30 98 C 10.7745 -3.81135 5.92381 0
M  V30 99 H 6.8735 -0.716226 0.313918 0
M  V30 100 H 9.4575 -1.44815 1.30141 0
M  V30 101 H 7.6285 -3.84757 0.530745 0
M  V30 102 H 9.3605 -3.97863 0.740763 0
M  V30 103 H 6.1155 -3.85156 2.75594 0
M  V30 104 H 6.5395 -4.13323 5.36184 0
M  V30 105 H 11.1815 -3.36308 2.56235 0
M  V30 106 H 8.8995 -4.12502 6.94887 0
M  V30 107 H 12.4855 -3.4825 4.66062 0
M  V30 108 H 11.3655 -3.86054 6.82592 0
M  V30 109 N 8.8686 -0.792821 -1.36206 0
M  V30 110 C 10.1146 -0.36733 -1.99446 0
M  V30 111 C 10.4476 1.05917 -1.62774 0
M  V30 112 O 9.7226 1.7324 -0.88421 0
M  V30 113 C 10.0056 -0.535044 -3.56103 0
M  V30 114 C 9.8586 -2.00548 -4.02617 0
M  V30 115 C 11.1776 0.0478191 -4.40074 0
M  V30 116 H 8.2966 -0.134941 -0.724541 0
M  V30 117 H 10.9386 -0.999794 -1.61568 0
M  V30 118 H 9.0886 0.00336329 -3.885 0
M  V30 119 H 10.7606 -2.60521 -3.80692 0
M  V30 120 H 9.0036 -2.50686 -3.54032 0
M  V30 121 H 9.6746 -2.07377 -5.11565 0
M  V30 122 H 12.1506 -0.411822 -4.14057 0
M  V30 123 H 11.0266 -0.0995336 -5.4881 0
M  V30 124 H 11.2876 1.14025 -4.27142 0
M  V30 125 N 10.3467 1.47872 -0.545128 0
M  V30 126 C 11.5937 2.02493 -0.0165858 0
M  V30 127 C 11.9217 1.42073 1.32836 0
M  V30 128 O 11.1767 0.561459 1.87473 0
M  V30 129 C 11.4757 3.57131 0.13867 0
M  V30 130 C 11.1417 4.36411 -1.13384 0
M  V30 131 C 9.8037 4.57792 -1.48256 0
M  V30 132 C 12.1557 4.82223 -1.97764 0
M  V30 133 C 9.4837 5.22233 -2.67376 0
M  V30 134 C 11.8357 5.47977 -3.16076 0
M  V30 135 C 10.4997 5.67593 -3.51275 0
M  V30 136 H 9.7697 0.740975 -0.00606918 0
M  V30 137 H 12.4167 1.77683 -0.714207 0
M  V30 138 H 10.7217 3.80865 0.919172 0
M  V30 139 H 12.4187 3.97031 0.562782 0
M  V30 140 H 9.0087 4.2004 -0.852297 0
M  V30 141 H 13.1927 4.65493 -1.72132 0
M  V30 142 H 8.4487 5.35616 -2.94831 0
M  V30 143 H 12.6227 5.8244 -3.81755 0
M  V30 144 H 10.2497 6.17298 -4.43675 0
M  V30 145 N 11.8248 0.280983 1.55075 0
M  V30 146 C 13.0708 -0.33461 2.00021 0
M  V30 147 C 13.4038 -1.55063 1.16915 0
M  V30 148 O 12.6788 -1.93006 0.240646 0
M  V30 149 C 12.9618 -0.711007 3.53011 0
M  V30 150 C 12.8148 0.512766 4.46868 0
M  V30 151 C 14.1338 -1.54522 4.12081 0
M  V30 152 H 11.2528 -0.120147 0.727141 0
M  V30 153 H 13.8948 0.389097 1.85973 0
M  V30 154 H 12.0448 -1.32761 3.65112 0
M  V30 155 H 13.7168 1.15131 4.46702 0
M  V30 156 H 11.9598 1.14975 4.18286 0
M  V30 157 H 12.6308 0.205556 5.51617 0
M  V30 158 H 15.1068 -1.02442 4.03293 0
M  V30 159 H 13.9828 -1.77739 5.19327 0
M  V30 160 H 14.2438 -2.52813 3.62682 0
M  V30 161 N 13.3029 -1.57598 0.00835791 0
M  V30 162 C 14.5309 -1.95214 -0.68549 0
M  V30 163 C 14.9459 -0.883706 -1.66841 0
M  V30 164 O 14.3029 0.136565 -1.81988 0
M  V30 165 C 14.3539 -3.32865 -1.41007 0
M  V30 166 O 14.0749 -4.35609 -0.466552 0
M  V30 167 C 15.5759 -3.84991 -2.19765 0
M  V30 168 H 12.7959 -0.643422 -0.190392 0
M  V30 169 H 15.3399 -2.04406 0.0619607 0
M  V30 170 H 13.4949 -3.24956 -2.10908 0
M  V30 171 H 13.9089 -5.15288 -0.978699 0
M  V30 172 H 15.3829 -4.8371 -2.65948 0
M  V30 173 H 15.8599 -3.18137 -3.02796 0
M  V30 174 H 16.4659 -3.96103 -1.54864 0
M  V30 175 N 14.781 0.264519 -1.55364 0
M  V30 176 C 15.711 1.33121 -1.91836 0
M  V30 177 C 16.692 1.51101 -0.781192 0
M  V30 178 O 17.877 1.64003 -1.04003 0
M  V30 179 C 15.007 2.68921 -2.19769 0
M  V30 180 C 13.961 2.65661 -3.35571 0
M  V30 181 C 13.287 4.05093 -3.49004 0
M  V30 182 C 14.587 2.24187 -4.71739 0
M  V30 183 H 16.281 1.02844 -2.81182 0
M  V30 184 H 13.827 0.493286 -1.35287 0
M  V30 185 H 15.78 3.43663 -2.43872 0
M  V30 186 H 14.504 3.00799 -1.27231 0
M  V30 187 H 13.163 1.93377 -3.1145 0
M  V30 188 H 12.811 4.34206 -2.53917 0
M  V30 189 H 12.511 4.03804 -4.26868 0
M  V30 190 H 14.035 4.81561 -3.75408 0
M  V30 191 H 15.449 2.88654 -4.9533 0
M  V30 192 H 13.846 2.34044 -5.52579 0
M  V30 193 H 14.916 1.19327 -4.69988 0
M  V30 194 N 16.2591 1.48442 0.529413 0
M  V30 195 C 17.6751 1.34575 0.858004 0
M  V30 196 C 17.8751 0.3572 1.98309 0
M  V30 197 O 16.9311 -0.221379 2.51528 0
M  V30 198 C 18.2441 2.74617 1.22499 0
M  V30 199 C 19.7921 2.83109 1.33484 0
M  V30 200 C 20.2671 4.23854 1.73526 0
M  V30 201 N 21.7581 4.2653 1.80628 0
M  V30 202 C 22.4931 5.32372 2.12997 0
M  V30 203 N 21.9891 6.48491 2.43786 0
M  V30 204 N 23.7821 5.19766 2.14008 0
M  V30 205 H 15.9331 2.1133 -0.212925 0
M  V30 206 H 18.1961 0.947439 -0.0326199 0
M  V30 207 H 17.9021 3.4852 0.471905 0
M  V30 208 H 17.7761 3.08177 2.17501 0
M  V30 209 H 20.1631 2.09462 2.0787 0
M  V30 210 H 20.2441 2.53168 0.366027 0
M  V30 211 H 19.8881 4.98018 0.997013 0
M  V30 212 H 19.8181 4.5124 2.71459 0
M  V30 213 H 22.3091 3.42772 1.59108 0
M  V30 214 H 22.6221 7.24993 2.67592 0
M  V30 215 H 20.9671 6.51765 2.41304 0
M  V30 216 H 24.1581 4.28066 1.89412 0
M  V30 217 H 24.3311 6.02354 2.38902 0
M  V30 218 N 17.7372 -0.778329 1.37039 0
M  V30 219 C 18.9832 -1.53892 1.32079 0
M  V30 220 C 19.3162 -1.9396 -0.0965386 0
M  V30 221 O 18.5912 -1.63568 -1.05242 0
M  V30 222 C 18.8742 -2.80847 2.25382 0
M  V30 223 C 18.7272 -2.47076 3.75864 0
M  V30 224 C 20.0462 -3.82741 2.1725 0
M  V30 225 H 17.1652 -0.558303 0.48111 0
M  V30 226 H 19.8072 -0.893397 1.67685 0
M  V30 227 H 17.9572 -3.35931 1.95148 0
M  V30 228 H 19.6292 -1.97957 4.16666 0
M  V30 229 H 17.8722 -1.79863 3.94755 0
M  V30 230 H 18.5432 -3.37798 4.36574 0
M  V30 231 H 21.0192 -3.37133 2.43887 0
M  V30 232 H 19.8952 -4.69303 2.84686 0
M  V30 233 H 20.1562 -4.2652 1.16331 0
M  V30 234 N 19.2153 -1.21501 -1.00376 0
M  V30 235 C 20.4643 -1.02718 -1.73586 0
M  V30 236 C 20.7773 0.439589 -1.90596 0
M  V30 237 O 21.9833 0.746848 -2.61026 0
M  V30 238 C 20.4393 -1.78929 -3.1227 0
M  V30 239 C 20.0473 -3.29783 -3.03228 0
M  V30 240 C 21.7913 -1.68557 -3.89601 0
M  V30 241 C 19.6983 -3.98479 -4.36999 0
M  V30 242 H 18.6283 -0.380733 -0.650814 0
M  V30 243 H 21.2793 -1.45248 -1.1214 0
M  V30 244 H 19.6613 -1.29192 -3.74333 0
M  V30 245 H 20.8353 -3.86832 -2.50395 0
M  V30 246 H 19.1503 -3.40711 -2.39385 0
M  V30 247 H 21.7473 -2.17211 -4.88593 0
M  V30 248 H 22.0903 -0.644021 -4.11288 0
M  V30 249 H 22.6233 -2.15778 -3.34193 0
M  V30 250 H 19.3623 -5.02841 -4.20513 0
M  V30 251 H 18.8823 -3.46219 -4.89788 0
M  V30 252 H 20.5613 -4.03462 -5.05794 0
M  V30 253 N 20.6934 1.19889 -1.02296 0
M  V30 254 C 21.9214 1.9339 -0.735399 0
M  V30 255 C 22.3364 1.75148 0.704887 0
M  V30 256 O 21.6934 1.06954 1.47875 0
M  V30 257 C 21.7444 3.45313 -1.06962 0
M  V30 258 O 21.4654 3.62964 -2.45334 0
M  V30 259 C 22.9664 4.35948 -0.804021 0
M  V30 260 H 20.1864 0.61448 -0.269546 0
M  V30 261 H 22.7304 1.522 -1.36585 0
M  V30 262 H 20.8854 3.84359 -0.484455 0
M  V30 263 H 21.2994 4.56886 -2.57595 0
M  V30 264 H 22.7734 5.41174 -1.0879 0
M  V30 265 H 23.2504 4.3842 0.261691 0
M  V30 266 H 23.8564 4.02574 -1.37164 0
M  V30 267 N 22.1715 0.800033 1.35784 0
M  V30 268 C 23.1345 0.211565 2.28221 0
M  V30 269 C 24.1345 -0.59728 1.49296 0
M  V30 270 O 25.3245 -0.416721 1.69142 0
M  V30 271 C 22.4565 -0.705846 3.33513 0
M  V30 272 H 23.6495 1.02677 2.81776 0
M  V30 273 H 21.2025 0.570211 1.45528 0
M  V30 274 H 21.9375 -1.54498 2.85133 0
M  V30 275 H 21.7225 -0.127655 3.91892 0
M  V30 276 H 23.2125 -1.11211 4.02519 0
M  V30 277 N 23.6496 -1.47581 0.552962 0
M  V30 278 C 24.6126 -2.28439 -0.186605 0
M  V30 279 C 25.6126 -1.36706 -0.84665 0
M  V30 280 O 26.8026 -1.59378 -0.703164 0
M  V30 281 C 23.9346 -3.16264 -1.2724 0
M  V30 282 H 25.1276 -2.95294 0.523609 0
M  V30 283 H 22.6806 -1.532 0.309745 0
M  V30 284 H 23.4156 -2.54091 -2.01514 0
M  V30 285 H 23.2006 -3.83769 -0.803968 0
M  V30 286 H 24.6906 -3.77198 -1.79196 0
M  V30 287 N 25.1277 -0.289203 -1.54924 0
M  V30 288 C 26.3737 0.323998 -2.00195 0
M  V30 289 C 26.7067 1.54441 -1.17735 0
M  V30 290 O 25.9817 1.92875 -0.250878 0
M  V30 291 C 26.2647 0.692276 -3.53383 0
M  V30 292 C 26.1177 -0.536457 -4.46589 0
M  V30 293 C 27.4367 1.52335 -4.12895 0
M  V30 294 H 24.5557 0.116289 -0.727768 0
M  V30 295 H 27.1977 -0.398954 -1.85764 0
M  V30 296 H 25.3477 1.30822 -3.65811 0
M  V30 297 H 27.0197 -1.17499 -4.46085 0
M  V30 298 H 25.2627 -1.17192 -4.1767 0
M  V30 299 H 25.9337 -0.234806 -5.515 0
M  V30 300 H 28.4097 1.00302 -4.0383 0
M  V30 301 H 27.2857 1.74982 -5.20262 0
M  V30 302 H 27.5467 2.50886 -3.64018 0
M  V30 303 N 26.6058 1.57591 -0.0167156 0
M  V30 304 C 27.8338 1.95575 0.675128 0
M  V30 305 C 28.2488 0.892542 1.6637 0
M  V30 306 O 27.6058 -0.126912 1.82058 0
M  V30 307 C 27.6568 3.33608 1.39239 0
M  V30 308 O 27.3778 4.3585 0.443444 0
M  V30 309 C 28.8788 3.86151 2.17721 0
M  V30 310 H 26.0988 0.644423 0.186978 0
M  V30 311 H 28.6428 2.0437 -0.0728 0
M  V30 312 H 26.7978 3.2607 2.09182 0
M  V30 313 H 27.2118 5.158 0.951358 0
M  V30 314 H 28.6858 4.85114 2.63379 0
M  V30 315 H 29.1628 3.19738 3.01105 0
M  V30 316 H 29.7688 3.96918 1.52761 0
M  V30 317 N 28.0839 -0.256276 1.55502 0
M  V30 318 C 29.3299 -0.987079 1.77157 0
M  V30 319 C 29.6629 -1.85327 0.580315 0
M  V30 320 O 28.9379 -1.89874 -0.421686 0
M  V30 321 C 29.2209 -1.85553 3.08613 0
M  V30 322 C 29.0739 -1.01816 4.38125 0
M  V30 323 C 30.3929 -2.8397 3.36228 0
M  V30 324 H 27.5119 -0.357428 0.644526 0
M  V30 325 H 30.1539 -0.258239 1.88237 0
M  V30 326 H 28.3039 -2.47695 2.99298 0
M  V30 327 H 29.9759 -0.416159 4.59419 0
M  V30 328 H 28.2189 -0.322178 4.32602 0
M  V30 329 H 28.8899 -1.65939 5.26468 0
M  V30 330 H 31.3659 -2.31964 3.45445 0
M  V30 331 H 30.2419 -3.41864 4.29442 0
M  V30 332 H 30.5029 -3.59955 2.56681 0
M  V30 333 N 29.562 -1.4872 -0.521534 0
M  V30 334 C 30.472 -1.66569 -1.65203 0
M  V30 335 C 31.488 -0.548197 -1.65139 0
M  V30 336 O 32.664 -0.820339 -1.83936 0
M  V30 337 C 29.729 -1.70917 -3.01642 0
M  V30 338 C 28.79 -2.94356 -3.12495 0
M  V30 339 C 28.023 -2.98487 -4.42426 0
M  V30 340 O 28.246 -2.10786 -5.30024 0
M  V30 341 O 27.18 -3.90746 -4.57822 0
M  V30 342 H 31.006 -2.62298 -1.5308 0
M  V30 343 H 28.591 -1.3222 -0.695565 0
M  V30 344 H 30.473 -1.7625 -3.82771 0
M  V30 345 H 29.148 -0.783633 -3.14071 0
M  V30 346 H 28.055 -2.94552 -2.3063 0
M  V30 347 H 29.388 -3.86322 -3.04986 0
M  V30 348 N 31.0401 0.771051 -1.3745 0
M  V30 349 C 32.2681 1.56015 -1.35893 0
M  V30 350 C 32.6831 1.88718 0.0555523 0
M  V30 351 O 32.0401 1.51502 1.01752 0
M  V30 352 C 32.0911 2.87001 -2.19801 0
M  V30 353 O 31.8121 2.557 -3.55738 0
M  V30 354 C 33.3131 3.81228 -2.26231 0
M  V30 355 H 30.5331 0.483317 -0.465453 0
M  V30 356 H 33.0771 0.955611 -1.80799 0
M  V30 357 H 31.2321 3.43877 -1.78402 0
M  V30 358 H 31.6461 3.39584 -3.99729 0
M  V30 359 H 33.1201 4.70139 -2.89263 0
M  V30 360 H 33.5971 4.20409 -1.27093 0
M  V30 361 H 34.2031 3.30281 -2.67945 0
M  V30 362 N 32.5182 1.22032 0.997298 0
M  V30 363 C 33.7432 1.06921 1.77715 0
M  V30 364 C 34.1682 -0.376226 1.84299 0
M  V30 365 O 33.5262 -1.27165 1.29223 0
M  V30 366 C 33.5742 1.67996 3.19076 0
M  V30 367 O 32.6782 0.930653 4.01762 0
M  V30 368 H 32.0192 0.375814 0.547412 0
M  V30 369 H 34.5492 1.61737 1.25309 0
M  V30 370 H 34.5592 1.72538 3.69723 0
M  V30 371 H 33.2342 2.73182 3.13599 0
M  V30 372 H 31.8112 0.960917 3.60307 0
M  V30 373 N 33.9963 -1.19345 1.0293 0
M  V30 374 C 35.2733 -1.84811 0.640642 0
M  V30 375 C 35.6533 -1.91855 -0.88062 0
M  V30 376 O 35.0013 -1.43587 -1.7775 0
M  V30 377 C 35.2113 -3.23755 1.30321 0
M  V30 378 C 36.5593 -3.99912 1.42673 0
M  V30 379 O 37.5833 -3.33155 1.26041 0
M  V30 380 O 36.4423 -5.19494 1.6967 0
M  V30 381 H 33.5363 -0.796443 0.222726 0
M  V30 382 H 36.0823 -1.26831 1.12748 0
M  V30 383 H 34.8543 -3.13466 2.34211 0
M  V30 384 H 34.4773 -3.89381 0.804261 0
M  V30 385 N 35.4744 -0.807222 -1.35358 0
M  V30 386 C 36.4244 -0.190706 -2.27201 0
M  V30 387 C 37.4084 0.635838 -1.47804 0
M  V30 388 O 38.6004 0.492991 -1.69996 0
M  V30 389 C 35.7294 0.659337 -3.36909 0
M  V30 390 C 34.8154 -0.176971 -4.23731 0
M  V30 391 N 35.2064 -1.24029 -4.90357 0
M  V30 392 C 33.5044 0.0412953 -4.45981 0
M  V30 393 C 34.2054 -1.75092 -5.54723 0
M  V30 394 N 33.1814 -1.05727 -5.33219 0
M  V30 395 H 36.9834 -1.0043 -2.76208 0
M  V30 396 H 34.4974 -0.648445 -1.48892 0
M  V30 397 H 36.4944 1.11706 -4.01656 0
M  V30 398 H 35.1544 1.47127 -2.89454 0
M  V30 399 H 36.1654 -1.62295 -4.91814 0
M  V30 400 H 32.8424 0.82232 -4.09322 0
M  V30 401 H 34.2324 -2.63963 -6.17878 0
M  V30 402 N 36.9525 1.47285 -0.560781 0
M  V30 403 C 38.2295 1.9558 0.0277798 0
M  V30 404 C 38.6095 1.5034 1.48192 0
M  V30 405 O 37.9575 0.743882 2.16052 0
M  V30 406 C 38.1675 3.48789 -0.121418 0
M  V30 407 C 39.5155 4.24594 0.0220912 0
M  V30 408 O 40.5395 3.56166 -0.0491439 0
M  V30 409 O 39.3985 5.46217 0.175958 0
M  V30 410 H 36.4925 0.824663 0.0621342 0
M  V30 411 H 39.0385 1.5767 -0.627556 0
M  V30 412 H 37.8105 3.74533 -1.13316 0
M  V30 413 H 37.4335 3.93473 0.571366 0
M  V30 414 N 38.4306 0.297415 1.54768 0
M  V30 415 C 39.3786 -0.596051 2.24833 0
M  V30 416 C 40.3726 -1.13992 1.25308 0
M  V30 417 O 41.5786 -1.09098 1.4317 0
M  V30 418 H 37.9536 -0.210814 0.721846 0
M  V30 419 H 39.9246 0.0174667 2.98395 0
M  V30 420 C 38.6736 -1.75818 2.99972 0
M  V30 421 H 37.9966 -1.3489 3.76357 0
M  V30 422 H 39.4366 -2.35949 3.52284 0
M  V30 423 C 37.8956 -2.66014 2.06732 0
M  V30 424 O 38.4256 -3.67009 1.63302 0
M  V30 425 N 36.6316 -2.33669 1.72763 0
M  V30 426 H 36.1786 -1.51586 2.08277 0
M  V30 427 H 36.1366 -2.94285 1.10652 0
M  V30 428 N 39.9087 -1.5758 0.0250728 0
M  V30 429 C 41.1337 -1.96337 -0.668317 0
M  V30 430 C 41.5587 -0.901314 -1.651 0
M  V30 431 O 40.9167 0.138187 -1.80773 0
M  V30 432 C 40.9647 -3.34191 -1.35457 0
M  V30 433 O 40.0687 -3.30269 -2.46974 0
M  V30 434 H 39.4097 -0.640281 -0.175887 0
M  V30 435 H 41.9397 -2.0442 0.0857224 0
M  V30 436 H 41.9497 -3.70331 -1.71228 0
M  V30 437 H 40.6247 -4.11036 -0.634218 0
M  V30 438 H 39.2017 -3.05841 -2.13344 0
M  V30 439 N 41.3868 0.248026 -1.55636 0
M  V30 440 C 42.3168 1.31079 -1.93237 0
M  V30 441 C 43.2978 1.50264 -0.797174 0
M  V30 442 O 44.4828 1.62891 -1.05737 0
M  V30 443 C 41.6128 2.66575 -2.22609 0
M  V30 444 C 40.5668 2.62087 -3.3837 0
M  V30 445 C 39.8928 4.01369 -3.53281 0
M  V30 446 C 41.1928 2.19171 -4.7409 0
M  V30 447 H 42.8868 0.998556 -2.82257 0
M  V30 448 H 40.4328 0.47891 -1.35803 0
M  V30 449 H 42.3858 3.41057 -2.47503 0
M  V30 450 H 41.1098 2.99432 -1.30414 0
M  V30 451 H 39.7688 1.90063 -3.13483 0
M  V30 452 H 39.4168 4.31489 -2.58508 0
M  V30 453 H 39.1168 3.99254 -4.31127 0
M  V30 454 H 40.6408 4.77552 -3.80495 0
M  V30 455 H 42.0548 2.83384 -4.98363 0
M  V30 456 H 40.4518 2.2817 -5.5503 0
M  V30 457 H 41.5218 1.14336 -4.71227 0
M  V30 458 N 42.8649 1.48995 0.513639 0
M  V30 459 C 44.0899 1.61792 1.29762 0
M  V30 460 C 44.5149 0.284475 1.85936 0
M  V30 461 O 43.8729 -0.746185 1.65232 0
M  V30 462 C 43.9209 2.67993 2.41272 0
M  V30 463 O 43.0249 2.26287 3.44772 0
M  V30 464 H 42.3659 0.541963 0.38363 0
M  V30 465 H 44.8959 1.95097 0.616307 0
M  V30 466 H 44.9059 2.89772 2.87221 0
M  V30 467 H 43.5809 3.64791 1.9975 0
M  V30 468 H 42.1579 2.14788 3.04829 0
M  V30 469 N 44.343 -0.763751 1.37857 0
M  V30 470 C 45.589 -1.52483 1.33704 0
M  V30 471 C 45.922 -1.94051 -0.0759612 0
M  V30 472 O 45.197 -1.64675 -1.03501 0
M  V30 473 C 45.48 -2.78441 2.28348 0
M  V30 474 C 45.333 -2.43075 3.78463 0
M  V30 475 C 46.652 -3.80415 2.21298 0
M  V30 476 H 43.771 -0.553169 0.487005 0
M  V30 477 H 46.413 -0.875562 1.68624 0
M  V30 478 H 44.563 -3.33842 1.987 0
M  V30 479 H 46.235 -1.93527 4.18742 0
M  V30 480 H 44.478 -1.75666 3.96641 0
M  V30 481 H 45.149 -3.33149 4.40132 0
M  V30 482 H 47.625 -3.34527 2.47449 0
M  V30 483 H 46.501 -4.66257 2.89647 0
M  V30 484 H 46.762 -4.25262 1.20849 0
M  V30 485 N 45.8211 -1.22559 -0.990812 0
M  V30 486 C 47.0461 -1.07862 -1.77145 0
M  V30 487 C 47.4711 0.366447 -1.84496 0
M  V30 488 O 46.8291 1.26478 -1.29896 0
M  V30 489 C 46.8771 -1.69686 -3.18181 0
M  V30 490 O 45.9811 -0.951946 -4.01263 0
M  V30 491 H 45.3221 -0.378712 -0.545411 0
M  V30 492 H 47.8521 -1.62399 -1.2445 0
M  V30 493 H 47.8621 -1.74496 -3.68802 0
M  V30 494 H 46.5371 -2.74841 -3.12146 0
M  V30 495 H 45.1141 -0.980011 -3.59792 0
M  V30 496 N 47.2992 1.18797 -1.03562 0
M  V30 497 C 48.5482 1.87978 -0.731235 0
M  V30 498 C 48.8612 1.80911 0.743671 0
M  V30 499 O 50.0672 2.45407 1.16137 0
M  V30 500 C 48.5232 3.3721 -1.25768 0
M  V30 501 C 48.1312 3.52818 -2.76085 0
M  V30 502 C 49.8752 4.11825 -1.0296 0
M  V30 503 C 47.7822 4.9598 -3.22114 0
M  V30 504 H 46.7122 0.704063 -0.269835 0
M  V30 505 H 49.3632 1.34266 -1.25079 0
M  V30 506 H 47.7452 3.90359 -0.666011 0
M  V30 507 H 48.9192 3.09965 -3.40966 0
M  V30 508 H 47.2342 2.91602 -2.97249 0
M  V30 509 H 49.8312 5.17411 -1.34869 0
M  V30 510 H 50.1742 4.16287 0.0333546 0
M  V30 511 H 50.7072 3.64833 -1.58562 0
M  V30 512 H 47.4462 4.96684 -4.27768 0
M  V30 513 H 46.9662 5.39569 -2.61965 0
M  V30 514 H 48.6452 5.6467 -3.15844 0
M  V30 515 N 48.7773 0.814389 1.34928 0
M  V30 516 C 50.1883 0.458364 1.80986 0
M  V30 517 C 50.5393 -1.02042 1.67577 0
M  V30 518 O 49.6643 -1.79352 1.21086 0
M  V30 519 C 50.2593 0.825212 3.28597 0
M  V30 520 C 48.8183 0.521677 3.72767 0
M  V30 521 C 47.9653 1.04668 2.56788 0
M  V30 522 H 50.9163 1.00533 1.22795 0
M  V30 523 H 50.9373 0.12571 3.80292 0
M  V30 524 H 50.4493 1.90154 3.38324 0
M  V30 525 H 48.5503 -0.545589 3.68584 0
M  V30 526 H 48.6633 1.05977 4.67232 0
M  V30 527 H 47.0273 0.468622 2.50352 0
M  V30 528 H 47.8103 2.12927 2.6929 0
M  V30 529 N 50.2554 -1.46986 0.568584 0
M  V30 530 C 51.1874 -2.28233 -0.210337 0
M  V30 531 C 52.2004 -1.37682 -0.868767 0
M  V30 532 O 53.3894 -1.62406 -0.740705 0
M  V30 533 C 50.4894 -3.12293 -1.3163 0
M  V30 534 C 49.6624 -4.30878 -0.7525 0
M  V30 535 C 48.7214 -4.96445 -1.74439 0
M  V30 536 O 47.7474 -5.54482 -1.286 0
M  V30 537 N 48.9494 -4.92171 -3.07812 0
M  V30 538 H 51.7144 -2.95723 0.486648 0
M  V30 539 H 49.2754 -1.56742 0.405409 0
M  V30 540 H 51.2674 -3.53022 -1.97883 0
M  V30 541 H 49.8374 -2.46971 -1.91636 0
M  V30 542 H 49.0574 -3.94104 0.0871128 0
M  V30 543 H 50.3454 -5.07558 -0.35536 0
M  V30 544 H 49.7434 -4.46239 -3.47688 0
M  V30 545 H 48.3004 -5.36884 -3.69592 0
M  V30 546 N 51.7335 -0.305618 -1.54608 0
M  V30 547 C 53.1445 0.186098 -1.8577 0
M  V30 548 C 53.4955 1.53058 -1.22751 0
M  V30 549 O 52.6205 2.09888 -0.526893 0
M  V30 550 C 53.2155 0.344449 -3.37044 0
M  V30 551 C 51.7745 0.780384 -3.68221 0
M  V30 552 C 50.9215 -0.108554 -2.77087 0
M  V30 553 H 53.8725 -0.526485 -1.49712 0
M  V30 554 H 53.8935 1.17828 -3.61796 0
M  V30 555 H 53.4055 -0.634235 -3.82883 0
M  V30 556 H 51.5065 1.76945 -3.27904 0
M  V30 557 H 51.6195 0.596572 -4.75371 0
M  V30 558 H 49.9835 0.412931 -2.5133 0
M  V30 559 H 50.7665 -1.08368 -3.25747 0
M  V30 560 N 53.2116 1.57565 -0.0334293 0
M  V30 561 C 54.4366 1.96689 0.657895 0
M  V30 562 C 54.8616 0.910057 1.64619 0
M  V30 563 O 54.2196 -0.128598 1.80843 0
M  V30 564 C 54.2676 3.34905 1.33683 0
M  V30 565 O 53.3716 3.31574 2.45219 0
M  V30 566 H 52.7126 0.641205 0.172489 0
M  V30 567 H 55.2426 2.04372 -0.0965621 0
M  V30 568 H 55.2526 3.71234 1.69262 0
M  V30 569 H 53.9276 4.11366 0.612411 0
M  V30 570 H 52.5046 3.06968 2.11719 0
M  V30 571 N 54.6897 -0.239769 1.55765 0
M  V30 572 C 56.1007 -0.808263 1.68297 0
M  V30 573 C 56.4517 -1.85736 0.632181 0
M  V30 574 O 55.5767 -2.15277 -0.220204 0
M  V30 575 C 56.1717 -1.47284 3.05111 0
M  V30 576 C 54.7307 -1.98895 3.19559 0
M  V30 577 C 53.8777 -0.842575 2.64189 0
M  V30 578 H 56.8287 -0.0154422 1.58692 0
M  V30 579 H 56.8497 -2.34111 2.99954 0
M  V30 580 H 56.3617 -0.709053 3.81568 0
M  V30 581 H 54.4627 -2.78132 2.47938 0
M  V30 582 H 54.5757 -2.18143 4.26556 0
M  V30 583 H 52.9397 -1.24501 2.22197 0
M  V30 584 H 53.7227 -0.0917552 3.43177 0
M  V30 585 N 56.1678 -1.49265 -0.50573 0
M  V30 586 C 57.0978 -1.68495 -1.61653 0
M  V30 587 C 58.0788 -0.53366 -1.61512 0
M  V30 588 O 59.2638 -0.76897 -1.78327 0
M  V30 589 C 56.3938 -1.74709 -3.00157 0
M  V30 590 C 55.3478 -2.89581 -3.15162 0
M  V30 591 C 54.6738 -2.80903 -4.5497 0
M  V30 592 C 55.9738 -4.30578 -2.95634 0
M  V30 593 H 57.6678 -2.61493 -1.45814 0
M  V30 594 H 55.2138 -1.25838 -0.70005 0
M  V30 595 H 57.1668 -1.86748 -3.77761 0
M  V30 596 H 55.8908 -0.783067 -3.17074 0
M  V30 597 H 54.5498 -2.77136 -2.39982 0
M  V30 598 H 54.1978 -1.82419 -4.68756 0
M  V30 599 H 53.8978 -3.57999 -4.65951 0
M  V30 600 H 55.4218 -2.94944 -5.34641 0
M  V30 601 H 56.8358 -4.4373 -3.63011 0
M  V30 602 H 55.2328 -5.0886 -3.18091 0
M  V30 603 H 56.3028 -4.45352 -1.91806 0
M  V30 604 N 57.6459 0.756429 -1.3826 0
M  V30 605 C 59.0619 1.0591 -1.19395 0
M  V30 606 C 59.2619 2.01459 -0.0406567 0
M  V30 607 O 58.3179 2.44909 0.614467 0
M  V30 608 C 59.6309 1.64191 -2.51916 0
M  V30 609 C 61.1789 1.76376 -2.58574 0
M  V30 610 C 61.6539 2.38069 -3.91264 0
M  V30 611 N 63.1449 2.45503 -3.92788 0
M  V30 612 C 63.8799 2.94126 -4.92217 0
M  V30 613 N 63.3759 3.42805 -6.02043 0
M  V30 614 N 65.1689 2.9314 -4.7961 0
M  V30 615 H 57.3199 0.122313 -2.12048 0
M  V30 616 H 59.5829 0.116892 -0.940766 0
M  V30 617 H 59.2889 1.01451 -3.3675 0
M  V30 618 H 59.1629 2.6329 -2.70108 0
M  V30 619 H 61.5499 2.38244 -1.74137 0
M  V30 620 H 61.6309 0.759894 -2.44252 0
M  V30 621 H 61.2749 1.76835 -4.76121 0
M  V30 622 H 61.2049 3.39091 -4.02895 0
M  V30 623 H 63.6959 2.1107 -3.13461 0
M  V30 624 H 64.0089 3.78354 -6.73846 0
M  V30 625 H 62.3539 3.4087 -6.05667 0
M  V30 626 H 65.5449 2.54419 -3.92923 0
M  V30 627 H 65.7179 3.30721 -5.5725 0
M  V30 628 N 59.124 1.23083 0.984299 0
M  V30 629 C 60.37 1.06214 1.72761 0
M  V30 630 C 60.703 -0.400584 1.90024 0
M  V30 631 O 59.978 -1.29672 1.44967 0
M  V30 632 C 60.261 1.78375 3.12817 0
M  V30 633 C 60.114 3.32296 3.03149 0
M  V30 634 C 61.433 1.54309 4.12161 0
M  V30 635 H 58.552 0.387251 0.627061 0
M  V30 636 H 61.194 1.51536 1.14616 0
M  V30 637 H 59.344 1.39848 3.62457 0
M  V30 638 H 61.016 3.8032 2.61064 0
M  V30 639 H 59.259 3.6153 2.39747 0
M  V30 640 H 59.93 3.77972 4.02295 0
M  V30 641 H 62.406 1.87791 3.71314 0
M  V30 642 H 61.282 2.07281 5.08258 0
M  V30 643 H 61.543 0.477572 4.39513 0
M  V30 644 N 60.6021 -1.18246 1.0419 0
M  V30 645 C 61.5321 -2.24127 0.654914 0
M  V30 646 C 62.5131 -1.66617 -0.342451 0
M  V30 647 O 63.6981 -1.92924 -0.222277 0
M  V30 648 C 60.8281 -3.47295 0.0183757 0
M  V30 649 C 59.7821 -4.17563 0.939414 0
M  V30 650 C 59.1081 -5.34438 0.167286 0
M  V30 651 C 60.4081 -4.70917 2.25908 0
M  V30 652 H 62.1021 -2.56753 1.54007 0
M  V30 653 H 59.6481 -1.23414 0.74195 0
M  V30 654 H 61.6011 -4.20572 -0.264082 0
M  V30 655 H 60.3251 -3.13907 -0.901664 0
M  V30 656 H 58.9841 -3.46186 1.20628 0
M  V30 657 H 58.6321 -4.97298 -0.7552 0
M  V30 658 H 58.3321 -5.82388 0.780901 0
M  V30 659 H 59.8561 -6.10504 -0.108125 0
M  V30 660 H 61.2701 -5.35882 2.03724 0
M  V30 661 H 59.6671 -5.29406 2.82577 0
M  V30 662 H 60.7371 -3.88272 2.9047 0
M  V30 663 N 62.0802 -0.821533 -1.34494 0
M  V30 664 C 63.0102 -0.257138 -2.3208 0
M  V30 665 C 63.9912 0.625645 -1.58176 0
M  V30 666 O 65.1762 0.552811 -1.86166 0
M  V30 667 C 62.3062 0.582958 -3.42372 0
M  V30 668 C 61.2602 -0.202571 -4.2752 0
M  V30 669 C 60.5862 0.760179 -5.29269 0
M  V30 670 C 61.8862 -1.40998 -5.02908 0
M  V30 671 H 63.5802 -1.07247 -2.79532 0
M  V30 672 H 61.1262 -0.517163 -1.34393 0
M  V30 673 H 63.0792 0.987972 -4.09655 0
M  V30 674 H 61.8032 1.43133 -2.93565 0
M  V30 675 H 60.4622 -0.588936 -3.61838 0
M  V30 676 H 60.1102 1.60447 -4.76724 0
M  V30 677 H 59.8102 0.238809 -5.87115 0
M  V30 678 H 61.3342 1.16308 -5.9942 0
M  V30 679 H 62.7482 -1.07905 -5.63054 0
M  V30 680 H 61.1452 -1.86689 -5.70322 0
M  V30 681 H 62.2152 -2.1889 -4.32684 0
M  V30 682 N 63.5583 1.46682 -0.576371 0
M  V30 683 C 64.8063 2.02013 -0.0594163 0
M  V30 684 C 65.1273 1.45101 1.30271 0
M  V30 685 O 64.3973 0.633317 1.8538 0
M  V30 686 H 62.9773 0.746759 -0.0189745 0
M  V30 687 H 65.6393 1.79862 -0.750717 0
M  V30 688 H 64.7353 3.12097 0.014345 0
M  V30 689 N 65.0364 0.313813 1.54444 0
M  V30 690 C 66.2644 -0.293918 2.04802 0
M  V30 691 C 66.6794 -1.46537 1.19047 0
M  V30 692 O 66.0364 -1.81182 0.218939 0
M  V30 693 C 66.0874 -0.737806 3.53891 0
M  V30 694 O 65.8084 0.387038 4.36387 0
M  V30 695 C 67.3094 -1.40936 4.203 0
M  V30 696 H 64.5294 -0.0620057 0.668129 0
M  V30 697 H 67.0734 0.457169 1.99324 0
M  V30 698 H 65.2284 -1.43889 3.59687 0
M  V30 699 H 65.6424 0.0391274 5.24485 0
M  V30 700 H 67.1164 -1.67099 5.26101 0
M  V30 701 H 67.5934 -2.35355 3.70816 0
M  V30 702 H 68.1994 -0.751117 4.18615 0
M  V30 703 N 66.5145 -1.57545 0.0417849 0
M  V30 704 C 67.7395 -1.97035 -0.647455 0
M  V30 705 C 68.1645 -0.918775 -1.64135 0
M  V30 706 O 67.5225 0.119006 -1.80909 0
M  V30 707 C 67.5705 -3.35609 -1.31905 0
M  V30 708 O 66.6745 -3.3287 -2.43457 0
M  V30 709 H 66.0155 -0.64211 -0.169086 0
M  V30 710 H 68.5455 -2.04318 0.107399 0
M  V30 711 H 68.5555 -3.72126 -1.67291 0
M  V30 712 H 67.2305 -4.11685 -0.590586 0
M  V30 713 H 65.8075 -3.08087 -2.10088 0
M  V30 714 N 67.9926 0.231505 -1.5589 0
M  V30 715 C 68.9226 1.29022 -1.94617 0
M  V30 716 C 69.9036 1.4941 -0.813067 0
M  V30 717 O 71.0886 1.6176 -1.07459 0
M  V30 718 C 68.2186 2.64199 -2.25424 0
M  V30 719 C 67.1726 2.58484 -3.41131 0
M  V30 720 C 66.4986 3.97599 -3.57518 0
M  V30 721 C 67.7986 2.1413 -4.76388 0
M  V30 722 H 69.4926 0.968563 -2.83301 0
M  V30 723 H 67.0386 0.464479 -1.36303 0
M  V30 724 H 68.9916 3.38413 -2.51107 0
M  V30 725 H 67.7156 2.98032 -1.33583 0
M  V30 726 H 66.3746 1.86727 -3.15481 0
M  V30 727 H 66.0226 4.28723 -2.6307 0
M  V30 728 H 65.7226 3.94659 -4.35337 0
M  V30 729 H 67.2466 4.7349 -3.85538 0
M  V30 730 H 68.6606 2.78083 -5.01341 0
M  V30 731 H 67.0576 2.2227 -5.57419 0
M  V30 732 H 68.1276 1.09331 -4.72414 0
M  V30 733 N 69.4707 1.49531 0.497807 0
M  V30 734 C 70.6987 1.62893 1.27567 0
M  V30 735 C 71.1137 0.301585 1.86376 0
M  V30 736 O 70.4707 -0.713335 1.67982 0
M  V30 737 C 70.5217 2.70013 2.40364 0
M  V30 738 O 70.2427 3.976 1.83972 0
M  V30 739 C 71.7437 2.94109 3.31685 0
M  V30 740 H 68.9637 0.548298 0.386794 0
M  V30 741 H 71.5077 1.95584 0.597245 0
M  V30 742 H 69.6627 2.40092 3.04031 0
M  V30 743 H 70.0767 4.56631 2.58047 0
M  V30 744 H 71.5507 3.72788 4.07104 0
M  V30 745 H 72.0277 2.04147 3.88871 0
M  V30 746 H 72.6337 3.2546 2.73781 0
M  V30 747 N 70.9488 -0.749086 1.3866 0
M  V30 748 C 72.1978 -1.50371 1.3443 0
M  V30 749 C 72.5108 -1.95503 -0.0616397 0
M  V30 750 O 73.7168 -2.70554 -0.226489 0
M  V30 751 C 72.1728 -2.71644 2.36088 0
M  V30 752 C 71.7808 -2.3352 3.82325 0
M  V30 753 C 73.5248 -3.49518 2.40909 0
M  V30 754 C 71.4318 -3.51431 4.75658 0
M  V30 755 H 70.3618 -0.564628 0.499712 0
M  V30 756 H 73.0128 -0.818449 1.64237 0
M  V30 757 H 71.3948 -3.42175 1.9933 0
M  V30 758 H 72.5688 -1.70627 4.28046 0
M  V30 759 H 70.8838 -1.6877 3.80665 0
M  V30 760 H 73.4808 -4.37197 3.07836 0
M  V30 761 H 73.8238 -3.90992 1.42937 0
M  V30 762 H 74.3568 -2.86005 2.76489 0
M  V30 763 H 71.0958 -3.15019 5.74842 0
M  V30 764 H 70.6158 -4.13352 4.34627 0
M  V30 765 H 72.2948 -4.17953 4.93887 0
M  V30 766 N 72.4269 -1.23603 -0.977757 0
M  V30 767 C 73.8379 -1.06424 -1.53398 0
M  V30 768 C 74.1889 0.367578 -1.92726 0
M  V30 769 O 73.3139 1.25465 -1.76316 0
M  V30 770 C 73.9089 -1.92568 -2.78753 0
M  V30 771 C 72.4679 -1.79642 -3.30765 0
M  V30 772 C 71.6149 -1.88111 -2.03739 0
M  V30 773 H 74.5659 -1.37227 -0.797152 0
M  V30 774 H 74.5869 -1.45203 -3.51705 0
M  V30 775 H 74.0989 -2.96771 -2.50098 0
M  V30 776 H 72.1999 -0.782325 -3.64294 0
M  V30 777 H 72.3129 -2.63174 -4.00345 0
M  V30 778 H 70.6769 -1.31723 -2.17994 0
M  V30 779 H 71.4599 -2.93875 -1.77461 0
M  V30 780 N 73.905 1.17692 -1.04816 0
M  V30 781 C 75.145 1.89545 -0.764979 0
M  V30 782 C 75.509 1.78979 0.695028 0
M  V30 783 O 76.71 2.45613 1.09215 0
M  V30 784 C 74.981 3.35659 -1.22751 0
M  V30 785 S 76.54 4.25526 -1.07112 0
M  V30 786 H 73.358 0.654432 -0.27792 0
M  V30 787 H 75.96 1.42163 -1.34201 0
M  V30 788 H 74.664 3.40882 -2.28533 0
M  V30 789 H 74.195 3.88083 -0.644594 0
M  V30 790 H 76.21 4.962 0.00697508 0
M  V30 791 N 75.3831 0.828654 1.34056 0
M  V30 792 C 76.6131 0.431993 2.02033 0
M  V30 793 C 77.0211 -0.96844 1.62536 0
M  V30 794 O 76.3641 -1.6391 0.829408 0
M  V30 795 C 76.4261 0.461224 3.56529 0
M  V30 796 C 76.0901 1.81599 4.1937 0
M  V30 797 C 77.0871 2.7777 4.39477 0
M  V30 798 C 74.7721 2.10604 4.56017 0
M  V30 799 C 76.7661 4.01115 4.95364 0
M  V30 800 C 74.4531 3.34207 5.11614 0
M  V30 801 C 75.4511 4.2928 5.31232 0
M  V30 802 O 75.1391 5.50699 5.8565 0
M  V30 803 H 74.8711 0.170943 0.654029 0
M  V30 804 H 77.4251 1.11988 1.72185 0
M  V30 805 H 75.6551 -0.283388 3.8566 0
M  V30 806 H 77.3441 0.0838149 4.05813 0
M  V30 807 H 78.1101 2.56659 4.11523 0
M  V30 808 H 73.9891 1.37402 4.40047 0
M  V30 809 H 77.5331 4.75333 5.10592 0
M  V30 810 H 73.4301 3.55179 5.38997 0
M  V30 811 H 74.1981 5.52298 6.04077 0
M  V30 812 N 76.8612 -1.46375 0.584142 0
M  V30 813 C 78.1082 -2.02378 0.0702675 0
M  V30 814 C 78.4362 -1.45545 -1.29023 0
M  V30 815 O 77.6912 -0.610967 -1.85918 0
M  V30 816 C 77.9902 -3.57373 -0.0439342 0
M  V30 817 C 77.6562 -4.33252 1.24915 0
M  V30 818 C 76.3182 -4.53701 1.60341 0
M  V30 819 C 78.6702 -4.7681 2.1048 0
M  V30 820 C 75.9982 -5.1496 2.81128 0
M  V30 821 C 78.3502 -5.39404 3.30494 0
M  V30 822 C 77.0142 -5.5808 3.66201 0
M  V30 823 H 76.2842 -0.740554 0.0257127 0
M  V30 824 H 78.9312 -1.75727 0.761065 0
M  V30 825 H 77.2362 -3.83169 -0.817869 0
M  V30 826 H 78.9332 -3.98384 -0.457318 0
M  V30 827 H 75.5232 -4.17633 0.963364 0
M  V30 828 H 79.7072 -4.60766 1.84414 0
M  V30 829 H 74.9632 -5.27611 3.08928 0
M  V30 830 H 79.1372 -5.72114 3.97063 0
M  V30 831 H 76.7642 -6.05318 4.59885 0
M  V30 832 N 78.3393 -0.321999 -1.54275 0
M  V30 833 C 79.5883 0.281931 -1.9972 0
M  V30 834 C 79.9013 1.53369 -1.21397 0
M  V30 835 O 81.1073 2.21352 -1.57211 0
M  V30 836 C 79.5633 0.5529 -3.55628 0
M  V30 837 C 79.1713 -0.681721 -4.42783 0
M  V30 838 C 80.9153 1.11687 -4.09544 0
M  V30 839 C 78.8223 -0.382742 -5.9016 0
M  V30 840 H 77.7523 0.109124 -0.746062 0
M  V30 841 H 80.4033 -0.43398 -1.78294 0
M  V30 842 H 78.7853 1.32896 -3.73035 0
M  V30 843 H 79.9593 -1.45723 -4.37151 0
M  V30 844 H 78.2743 -1.1658 -3.99748 0
M  V30 845 H 80.8713 1.35515 -5.17242 0
M  V30 846 H 81.2143 2.06575 -3.61431 0
M  V30 847 H 81.7473 0.402032 -3.95763 0
M  V30 848 H 78.4863 -1.30076 -6.42464 0
M  V30 849 H 78.0063 0.355094 -5.98748 0
M  V30 850 H 79.6853 0.00800157 -6.47 0
M  V30 851 N 79.8174 1.5752 -0.0501392 0
M  V30 852 C 81.0944 1.83996 0.663685 0
M  V30 853 C 81.4744 0.938339 1.89099 0
M  V30 854 O 80.8224 -0.00087759 2.285 0
M  V30 855 C 81.0324 3.33702 1.02196 0
M  V30 856 C 82.3804 4.00691 1.40469 0
M  V30 857 O 83.4044 3.38321 1.11433 0
M  V30 858 O 82.2634 5.10658 1.94654 0
M  V30 859 H 79.3574 0.759385 0.32751 0
M  V30 860 H 81.9034 1.69514 -0.0794238 0
M  V30 861 H 80.6754 3.91015 0.149364 0
M  V30 862 H 80.2984 3.53368 1.82255 0
M  V30 863 N 81.2955 -0.223234 1.56011 0
M  V30 864 C 82.7065 -0.790368 1.69145 0
M  V30 865 C 83.0575 -1.85055 0.651845 0
M  V30 866 O 82.1825 -2.15498 -0.197359 0
M  V30 867 C 82.7775 -1.4404 3.06656 0
M  V30 868 C 81.3365 -1.95494 3.2165 0
M  V30 869 C 80.4835 -0.814506 2.65068 0
M  V30 870 H 83.4345 0.00139011 1.587 0
M  V30 871 H 83.4555 -2.30916 3.0242 0
M  V30 872 H 82.9675 -0.668543 3.82298 0
M  V30 873 H 81.0685 -2.75487 2.50874 0
M  V30 874 H 81.1815 -2.13607 4.28846 0
M  V30 875 H 79.5455 -1.22137 2.23505 0
M  V30 876 H 80.3285 -0.0553515 3.43255 0
M  V30 877 N 82.7736 -1.49793 -0.48987 0
M  V30 878 C 83.7066 -1.61898 -1.60823 0
M  V30 879 C 84.6846 -0.467651 -1.5573 0
M  V30 880 O 85.8686 -0.684682 -1.75626 0
M  V30 881 C 82.9956 -1.58422 -2.99366 0
M  V30 882 C 82.0416 -2.78889 -3.22682 0
M  V30 883 S 82.8746 -4.40429 -3.04602 0
M  V30 884 C 84.0306 -4.39617 -4.4552 0
M  V30 885 H 84.2636 -2.56502 -1.50312 0
M  V30 886 H 81.7966 -1.38822 -0.675849 0
M  V30 887 H 83.7546 -1.57103 -3.79248 0
M  V30 888 H 82.4156 -0.650866 -3.07283 0
M  V30 889 H 81.6086 -2.72708 -4.23847 0
M  V30 890 H 81.2106 -2.77678 -2.50541 0
M  V30 891 H 83.5026 -4.12022 -5.37814 0
M  V30 892 H 84.4456 -5.41097 -4.56749 0
M  V30 893 H 84.8536 -3.69554 -4.2672 0
M  V30 894 N 84.2517 0.741722 -1.39055 0
M  V30 895 C 85.2017 1.84661 -1.33732 0
M  V30 896 C 86.1857 1.59397 -0.219401 0
M  V30 897 O 87.3777 1.71015 -0.456375 0
M  V30 898 C 84.5067 3.22512 -1.17647 0
M  V30 899 C 83.5927 3.53628 -2.34112 0
M  V30 900 N 83.9837 3.55723 -3.59576 0
M  V30 901 C 82.2817 3.83956 -2.26923 0
M  V30 902 C 82.9827 3.84443 -4.36553 0
M  V30 903 N 81.9587 4.01877 -3.66055 0
M  V30 904 H 85.7607 1.84576 -2.28711 0
M  V30 905 H 83.2747 0.939647 -1.32455 0
M  V30 906 H 85.2717 4.01597 -1.11917 0
M  V30 907 H 83.9317 3.2384 -0.236124 0
M  V30 908 H 84.9427 3.37196 -3.93089 0
M  V30 909 H 81.6197 3.92929 -1.41113 0
M  V30 910 H 83.0097 3.92588 -5.45274 0
M  V30 911 N 85.7298 1.2412 0.971189 0
M  V30 912 C 87.1408 1.07236 1.52831 0
M  V30 913 C 87.4918 -0.357352 1.92918 0
M  V30 914 O 86.6168 -1.24528 1.76979 0
M  V30 915 C 87.2118 1.94043 2.77728 0
M  V30 916 C 85.7708 1.81394 3.29808 0
M  V30 917 C 84.9178 1.89189 2.02738 0
M  V30 918 H 87.8688 1.37648 0.789864 0
M  V30 919 H 87.8898 1.47066 3.5093 0
M  V30 920 H 87.4018 2.98093 2.4852 0
M  V30 921 H 85.5028 0.801634 3.63874 0
M  V30 922 H 85.6158 2.65294 3.98944 0
M  V30 923 H 83.9798 1.32877 2.17292 0
M  V30 924 H 84.7628 2.94812 1.759 0
M  V30 925 N 87.2079 -1.17134 1.05439 0
M  V30 926 C 88.4539 -1.87733 0.767077 0
M  V30 927 C 88.7869 -1.8098 -0.704253 0
M  V30 928 O 88.0619 -1.21951 -1.5152 0
M  V30 929 C 88.3449 -3.37659 1.25133 0
M  V30 930 C 88.1979 -3.53149 2.78578 0
M  V30 931 C 89.5169 -4.31768 0.852324 0
M  V30 932 H 86.6359 -0.681687 0.280129 0
M  V30 933 H 89.2779 -1.37732 1.30881 0
M  V30 934 H 87.4279 -3.80373 0.790469 0
M  V30 935 H 89.0999 -3.19434 3.32806 0
M  V30 936 H 87.3429 -2.95345 3.17732 0
M  V30 937 H 88.0139 -4.58403 3.07523 0
M  V30 938 H 90.4899 -3.96909 1.24911 0
M  V30 939 H 89.3659 -5.35199 1.21873 0
M  V30 940 H 89.6269 -4.41429 -0.243485 0
M  V30 941 N 88.686 -0.835752 -1.33615 0
M  V30 942 C 89.914 -0.443344 -2.02094 0
M  V30 943 C 90.329 0.954522 -1.62894 0
M  V30 944 O 89.686 1.61982 -0.840723 0
M  V30 945 C 89.737 -0.550775 -3.5728 0
M  V30 946 O 89.458 -1.89356 -3.95065 0
M  V30 947 C 90.959 -0.154919 -4.43029 0
M  V30 948 H 88.179 -0.176359 -0.647409 0
M  V30 949 H 90.723 -1.12746 -1.70612 0
M  V30 950 H 88.878 0.0853997 -3.87306 0
M  V30 951 H 89.292 -1.87687 -4.89769 0
M  V30 952 H 90.766 -0.281144 -5.51284 0
M  V30 953 H 91.243 0.902863 -4.2982 0
M  V30 954 H 91.849 -0.765404 -4.18356 0
M  V30 955 N 90.1641 1.46063 -0.591896 0
M  V30 956 C 91.3921 2.06717 -0.0868936 0
M  V30 957 C 91.8071 1.43916 1.22203 0
M  V30 958 O 91.1641 0.547698 1.74088 0
M  V30 959 C 91.2151 3.6142 0.0758725 0
M  V30 960 O 90.9361 4.21874 -1.18126 0
M  V30 961 C 92.4371 4.39025 0.61416 0
M  V30 962 H 89.6571 0.668162 -0.0616518 0
M  V30 963 H 92.2011 1.8755 -0.815175 0
M  V30 964 H 90.3561 3.79983 0.754413 0
M  V30 965 H 90.7701 5.14861 -1.00092 0
M  V30 966 H 92.2441 5.4783 0.677193 0
M  V30 967 H 92.7211 4.07708 1.63312 0
M  V30 968 H 93.3271 4.2529 -0.0298142 0
M  V30 969 N 91.6422 0.330177 1.54103 0
M  V30 970 C 92.6052 -0.520144 2.2322 0
M  V30 971 C 93.6052 -1.03828 1.22786 0
M  V30 972 O 94.7952 -0.929652 1.4732 0
M  V30 973 C 91.9272 -1.72317 2.94142 0
M  V30 974 H 93.1202 0.0841605 2.99782 0
M  V30 975 H 90.6732 0.0813433 1.56088 0
M  V30 976 H 91.4082 -2.36653 2.21734 0
M  V30 977 H 91.1932 -1.35898 3.67796 0
M  V30 978 H 92.6832 -2.3266 3.46784 0
M  V30 979 N 93.1203 -1.57491 0.0584922 0
M  V30 980 C 94.5313 -1.80526 -0.476138 0
M  V30 981 C 94.8823 -0.971334 -1.70469 0
M  V30 982 O 94.0073 -0.190012 -2.15564 0
M  V30 983 C 94.6023 -3.27424 -0.870587 0
M  V30 984 C 93.1613 -3.51351 -1.35015 0
M  V30 985 C 92.3083 -2.75343 -0.32887 0
M  V30 986 H 95.2593 -1.56133 0.284312 0
M  V30 987 H 95.2803 -3.38745 -1.73299 0
M  V30 988 H 94.7923 -3.88093 0.0237627 0
M  V30 989 H 92.8933 -2.95971 -2.26345 0
M  V30 990 H 93.0063 -4.60059 -1.33726 0
M  V30 991 H 91.3703 -2.417 -0.803321 0
M  V30 992 H 92.1533 -3.38743 0.557521 0
M  V30 993 N 94.5984 0.214957 -1.56127 0
M  V30 994 C 95.8234 0.95924 -1.83884 0
M  V30 995 C 96.2484 1.7689 -0.639644 0
M  V30 996 O 95.6064 1.76566 0.411601 0
M  V30 997 C 95.6544 1.84723 -3.09693 0
M  V30 998 O 94.7584 2.94346 -2.8885 0
M  V30 999 H 94.0994 0.27125 -0.606069 0
M  V30 1000 H 96.6294 0.226276 -2.03345 0
M  V30 1001 H 96.6394 2.25576 -3.39969 0
M  V30 1002 H 95.3144 1.25218 -3.96602 0
M  V30 1003 H 93.8914 2.57391 -2.69823 0
M  V30 1004 N 96.0765 1.50051 0.48192 0
M  V30 1005 C 97.3045 1.64237 1.25832 0
M  V30 1006 C 97.7195 0.321336 1.86045 0
M  V30 1007 O 97.0765 -0.695478 1.68729 0
M  V30 1008 C 97.1275 2.72548 2.37487 0
M  V30 1009 O 96.8485 3.99529 1.79745 0
M  V30 1010 C 98.3495 2.9761 3.28547 0
M  V30 1011 H 95.5695 0.55237 0.380957 0
M  V30 1012 H 98.1135 1.96207 0.576467 0
M  V30 1013 H 96.2685 2.43303 3.01467 0
M  V30 1014 H 96.6825 4.59342 2.5319 0
M  V30 1015 H 98.1565 3.77084 4.03127 0
M  V30 1016 H 98.6335 2.0826 3.86684 0
M  V30 1017 H 99.2395 3.28345 2.70314 0
M  V30 1018 N 97.5546 -0.734337 1.39446 0
M  V30 1019 C 98.5176 -1.83004 1.37994 0
M  V30 1020 C 99.5176 -1.58397 0.276938 0
M  V30 1021 O 100.708 -1.65785 0.534875 0
M  V30 1022 C 97.8396 -3.20802 1.1532 0
M  V30 1023 H 99.0326 -1.85694 2.35494 0
M  V30 1024 H 96.5856 -0.938059 1.25021 0
M  V30 1025 H 97.3206 -3.23772 0.185036 0
M  V30 1026 H 97.1056 -3.4006 1.95197 0
M  V30 1027 H 98.5956 -4.00862 1.17046 0
M  V30 1028 N 99.0327 -1.24633 -0.964593 0
M  V30 1029 C 100.444 -1.08045 -1.5226 0
M  V30 1030 C 100.795 0.347116 -1.93105 0
M  V30 1031 O 99.9197 1.23588 -1.77637 0
M  V30 1032 C 100.515 -1.95514 -2.76695 0
M  V30 1033 C 99.0737 -1.8314 -3.28841 0
M  V30 1034 C 98.2207 -1.90262 -2.01732 0
M  V30 1035 H 101.172 -1.38064 -0.782553 0
M  V30 1036 H 101.193 -1.48925 -3.50145 0
M  V30 1037 H 100.705 -2.99407 -2.46936 0
M  V30 1038 H 98.8057 -0.82092 -3.63444 0
M  V30 1039 H 98.9187 -2.67406 -3.97531 0
M  V30 1040 H 97.2827 -1.34027 -2.16584 0
M  V30 1041 H 98.0657 -2.9574 -1.74334 0
M  V30 1042 N 100.511 1.16574 -1.06058 0
M  V30 1043 C 101.441 2.23057 -0.690488 0
M  V30 1044 C 102.422 1.67141 0.315901 0
M  V30 1045 O 103.607 1.93253 0.191556 0
M  V30 1046 C 100.737 3.47222 -0.073625 0
M  V30 1047 C 99.6908 4.16016 -1.00573 0
M  V30 1048 C 99.0168 5.34104 -0.252289 0
M  V30 1049 C 100.317 4.67264 -2.33371 0
M  V30 1050 H 102.011 2.54271 -1.58072 0
M  V30 1051 H 99.5568 1.22218 -0.76149 0
M  V30 1052 H 101.51 4.20939 0.19714 0
M  V30 1053 H 100.234 3.15302 0.85161 0
M  V30 1054 H 98.8928 3.44223 -1.2612 0
M  V30 1055 H 98.5408 4.98437 0.675988 0
M  V30 1056 H 98.2408 5.81072 -0.873455 0
M  V30 1057 H 99.7648 6.10599 0.0109857 0
M  V30 1058 H 101.179 5.32573 -2.12223 0
M  V30 1059 H 99.5758 5.24843 -2.90963 0
M  V30 1060 H 100.646 3.83602 -2.96611 0
M  V30 1061 N 101.989 0.842826 1.3317 0
M  V30 1062 C 102.952 0.284065 2.27433 0
M  V30 1063 C 103.952 -0.54948 1.5112 0
M  V30 1064 O 105.142 -0.362699 1.70382 0
M  V30 1065 C 102.274 -0.599384 3.35589 0
M  V30 1066 H 103.467 1.11589 2.78366 0
M  V30 1067 H 101.02 0.616221 1.4364 0
M  V30 1068 H 101.755 -1.45349 2.89904 0
M  V30 1069 H 101.54 -0.00291266 3.921 0
M  V30 1070 H 103.03 -0.983488 4.05854 0
M  V30 1071 N 103.467 -1.45747 0.599634 0
M  V30 1072 C 104.878 -1.85853 0.177681 0
M  V30 1073 C 105.229 -1.50102 -1.26348 0
M  V30 1074 O 104.354 -0.923905 -1.95686 0
M  V30 1075 C 104.949 -3.37326 0.315688 0
M  V30 1076 C 103.508 -3.76365 -0.0515144 0
M  V30 1077 C 102.655 -2.69722 0.643822 0
M  V30 1078 H 105.606 -1.36661 0.806814 0
M  V30 1079 H 105.627 -3.77778 -0.454321 0
M  V30 1080 H 105.139 -3.63315 1.36468 0
M  V30 1081 H 103.24 -3.55993 -1.09999 0
M  V30 1082 H 103.353 -4.77916 0.336594 0
M  V30 1083 H 101.717 -2.54567 0.0822881 0
M  V30 1084 H 102.5 -2.98549 1.6948 0
M  V30 1085 N 104.945 -0.338344 -1.53925 0
M  V30 1086 C 106.361 0.0137736 -1.59594 0
M  V30 1087 C 106.561 1.49186 -1.35447 0
M  V30 1088 O 105.617 2.24987 -1.14616 0
M  V30 1089 C 106.93 -0.41773 -2.97784 0
M  V30 1090 C 108.478 -0.369633 -3.1081 0
M  V30 1091 C 108.953 -0.776524 -4.51369 0
M  V30 1092 N 110.444 -0.730506 -4.57403 0
M  V30 1093 C 111.179 -1.01736 -5.64303 0
M  V30 1094 N 110.675 -1.3721 -6.79077 0
M  V30 1095 N 112.468 -0.941942 -5.54151 0
M  V30 1096 H 104.619 -1.3012 -1.67876 0
M  V30 1097 H 106.882 -0.530082 -0.78595 0
M  V30 1098 H 106.588 -1.44811 -3.20504 0
M  V30 1099 H 106.462 0.209729 -3.76616 0
M  V30 1100 H 108.849 0.651568 -2.87817 0
M  V30 1101 H 108.93 -1.03223 -2.34049 0
M  V30 1102 H 108.574 -1.79571 -4.75096 0
M  V30 1103 H 108.504 -0.0914649 -5.26521 0
M  V30 1104 H 110.995 -0.468783 -3.74981 0
M  V30 1105 H 111.308 -1.57597 -7.5656 0
M  V30 1106 H 109.653 -1.4105 -6.80536 0
M  V30 1107 H 112.844 -0.664184 -4.63364 0
M  V30 1108 H 113.017 -1.16884 -6.37371 0
M  V30 1109 N 106.423 1.57458 -0.0668435 0
M  V30 1110 C 107.672 1.92477 0.602947 0
M  V30 1111 C 107.985 0.948419 1.71068 0
M  V30 1112 O 109.191 1.19124 2.43971 0
M  V30 1113 C 107.647 3.41903 1.12383 0
M  V30 1114 C 107.255 4.47975 0.04737 0
M  V30 1115 C 108.999 3.85931 1.76797 0
M  V30 1116 C 106.906 5.88529 0.582022 0
M  V30 1117 H 105.836 0.718387 0.22899 0
M  V30 1118 H 108.487 1.82978 -0.138276 0
M  V30 1119 H 106.869 3.46459 1.91787 0
M  V30 1120 H 108.043 4.55029 -0.726978 0
M  V30 1121 H 106.358 4.13384 -0.500243 0
M  V30 1122 H 108.955 4.88322 2.17821 0
M  V30 1123 H 109.298 3.23029 2.62599 0
M  V30 1124 H 109.831 3.83958 1.04024 0
M  V30 1125 H 106.57 6.55065 -0.238721 0
M  V30 1126 H 106.09 5.85004 1.324 0
M  V30 1127 H 107.769 6.38258 1.05999 0
M  V30 1128 N 107.901 -0.206675 1.56239 0
M  V30 1129 C 108.848 -1.25617 1.93621 0
M  V30 1130 C 109.818 -1.45824 0.795274 0
M  V30 1131 O 111.003 -1.59148 1.05245 0
M  V30 1132 C 108.143 -2.59839 2.27107 0
M  V30 1133 C 107.256 -2.47308 3.54207 0
M  V30 1134 C 106.391 -3.74155 3.7707 0
M  V30 1135 C 105.43 -3.56407 4.97635 0
M  V30 1136 N 104.567 -4.75238 5.1681 0
M  V30 1137 H 109.407 -0.930383 2.83104 0
M  V30 1138 H 106.944 -0.448065 1.4011 0
M  V30 1139 H 108.902 -3.38021 2.44535 0
M  V30 1140 H 107.532 -2.90485 1.40778 0
M  V30 1141 H 106.584 -1.60483 3.4489 0
M  V30 1142 H 107.896 -2.30122 4.42544 0
M  V30 1143 H 107.05 -4.60778 3.94675 0
M  V30 1144 H 105.789 -3.94282 2.87042 0
M  V30 1145 H 104.794 -2.68168 4.79964 0
M  V30 1146 H 106.019 -3.37736 5.89161 0
M  V30 1147 H 103.965 -4.95651 4.29728 0
M  V30 1148 H 103.882 -4.60835 5.99306 0
M  V30 1149 H 105.15 -5.63246 5.38864 0
M  V30 1150 N 109.379 -1.50304 -0.473955 0
M  V30 1151 C 110.625 -1.62358 -1.22521 0
M  V30 1152 C 110.98 -0.318555 -1.89745 0
M  V30 1153 O 110.273 0.683315 -1.79001 0
M  V30 1154 C 110.467 -2.73938 -2.29549 0
M  V30 1155 C 110.296 -4.15165 -1.72825 0
M  V30 1156 C 109.066 -4.81604 -1.52924 0
M  V30 1157 C 111.264 -4.99503 -1.22481 0
M  V30 1158 N 109.246 -6.07056 -0.91413 0
M  V30 1159 C 110.617 -6.15655 -0.732743 0
M  V30 1160 C 112.672 -4.85299 -1.11308 0
M  V30 1161 C 111.375 -7.19164 -0.139976 0
M  V30 1162 C 113.401 -5.88982 -0.534258 0
M  V30 1163 C 112.763 -7.0438 -0.0525562 0
M  V30 1164 H 108.862 -0.648286 -0.437321 0
M  V30 1165 H 111.446 -1.87413 -0.527692 0
M  V30 1166 H 109.617 -2.50611 -2.9673 0
M  V30 1167 H 111.349 -2.75366 -2.96573 0
M  V30 1168 H 108.104 -4.3885 -1.78067 0
M  V30 1169 H 108.528 -6.74108 -0.625071 0
M  V30 1170 H 113.17 -3.96369 -1.47144 0
M  V30 1171 H 110.888 -8.07771 0.230591 0
M  V30 1172 H 114.474 -5.80055 -0.450219 0
M  V30 1173 H 113.354 -7.83238 0.388324 0
M  V30 1174 N 110.857 0.726932 -1.39834 0
M  V30 1175 C 112.082 1.52121 -1.40976 0
M  V30 1176 C 112.507 1.88098 -0.00826029 0
M  V30 1177 O 111.865 1.52479 0.980807 0
M  V30 1178 C 111.913 2.78021 -2.29644 0
M  V30 1179 O 111.017 3.74272 -1.73188 0
M  V30 1180 H 110.358 0.45908 -0.479731 0
M  V30 1181 H 112.888 0.896207 -1.83927 0
M  V30 1182 H 112.898 3.26671 -2.44438 0
M  V30 1183 H 111.573 2.51169 -3.31492 0
M  V30 1184 H 110.15 3.33073 -1.6768 0
M  V30 1185 N 112.336 1.25143 0.95797 0
M  V30 1186 C 113.752 1.01892 1.22842 0
M  V30 1187 C 113.952 -0.266311 1.99732 0
M  V30 1188 O 113.008 -0.979913 2.3271 0
M  V30 1189 C 114.321 2.24004 2.00606 0
M  V30 1190 C 115.869 2.28731 2.13662 0
M  V30 1191 C 116.344 3.5049 2.94823 0
M  V30 1192 N 117.835 3.50866 3.02403 0
M  V30 1193 C 118.57 4.4174 3.65586 0
M  V30 1194 N 118.066 5.42882 4.30408 0
M  V30 1195 N 119.859 4.29429 3.62694 0
M  V30 1196 H 112.01 2.07718 0.443493 0
M  V30 1197 H 114.273 0.912031 0.258657 0
M  V30 1198 H 113.979 3.17395 1.51503 0
M  V30 1199 H 113.853 2.26907 3.01319 0
M  V30 1200 H 116.24 1.35865 2.61963 0
M  V30 1201 H 116.321 2.29848 1.12265 0
M  V30 1202 H 115.965 4.43676 2.47213 0
M  V30 1203 H 115.895 3.46617 3.96439 0
M  V30 1204 H 118.386 2.777 2.56302 0
M  V30 1205 H 118.699 6.0844 4.76467 0
M  V30 1206 H 117.044 5.46758 4.29047 0
M  V30 1207 H 120.235 3.49643 3.11236 0
M  V30 1208 H 120.408 5.00448 4.1165 0
M  V30 1209 N 113.814 -1.1601 1.06675 0
M  V30 1210 C 115.06 -1.86909 0.786945 0
M  V30 1211 C 115.393 -1.81717 -0.685018 0
M  V30 1212 O 114.668 -1.23551 -1.50218 0
M  V30 1213 C 114.951 -3.36313 1.28707 0
M  V30 1214 C 114.804 -3.50175 2.82308 0
M  V30 1215 C 116.123 -4.3084 0.898071 0
M  V30 1216 H 113.242 -0.678677 0.287343 0
M  V30 1217 H 115.884 -1.36336 1.32334 0
M  V30 1218 H 114.034 -3.79513 0.830768 0
M  V30 1219 H 115.706 -3.15886 3.36175 0
M  V30 1220 H 113.949 -2.91959 3.20847 0
M  V30 1221 H 114.62 -4.55116 3.12368 0
M  V30 1222 H 117.096 -3.95561 1.29114 0
M  V30 1223 H 115.972 -5.33876 1.27543 0
M  V30 1224 H 116.233 -4.41662 -0.196651 0
M  V30 1225 N 115.292 -0.849877 -1.32721 0
M  V30 1226 C 116.517 -0.463856 -2.02146 0
M  V30 1227 C 116.942 0.930449 -1.63476 0
M  V30 1228 O 116.3 1.61033 -0.832952 0
M  V30 1229 C 116.348 -0.604955 -3.55489 0
M  V30 1230 O 115.452 0.36425 -4.10788 0
M  V30 1231 H 114.793 -0.187046 -0.637111 0
M  V30 1232 H 117.323 -1.14775 -1.69375 0
M  V30 1233 H 117.333 -0.490696 -4.05038 0
M  V30 1234 H 116.008 -1.62174 -3.82978 0
M  V30 1235 H 114.585 0.206628 -3.72327 0
M  V30 1236 N 116.77 1.45427 -0.607355 0
M  V30 1237 C 117.717 2.3053 0.111625 0
M  V30 1238 C 118.687 1.4209 0.860216 0
M  V30 1239 O 119.872 1.71019 0.845998 0
M  V30 1240 C 117.012 3.26992 1.10319 0
M  V30 1241 C 116.125 4.30535 0.355493 0
M  V30 1242 C 115.26 5.14105 1.33676 0
M  V30 1243 C 114.299 6.09376 0.576862 0
M  V30 1244 N 113.436 6.85727 1.5074 0
M  V30 1245 H 118.276 2.91477 -0.620093 0
M  V30 1246 H 115.813 1.43631 -0.317594 0
M  V30 1247 H 117.771 3.81385 1.6912 0
M  V30 1248 H 116.401 2.67799 1.80232 0
M  V30 1249 H 115.453 3.78805 -0.348023 0
M  V30 1250 H 116.765 4.98235 -0.237423 0
M  V30 1251 H 115.919 5.72897 1.99684 0
M  V30 1252 H 114.658 4.46423 1.9636 0
M  V30 1253 H 113.663 5.49715 -0.0968519 0
M  V30 1254 H 114.888 6.79085 -0.0449341 0
M  V30 1255 H 112.834 6.20735 2.12189 0
M  V30 1256 H 112.751 7.49778 0.967913 0
M  V30 1257 H 114.019 7.4906 2.15706 0
M  V30 1258 N 118.248 0.346503 1.53744 0
M  V30 1259 C 119.158 -0.517293 2.28826 0
M  V30 1260 C 120.174 -1.10935 1.3405 0
M  V30 1261 O 121.35 -1.1244 1.6709 0
M  V30 1262 C 118.415 -1.65098 3.04866 0
M  V30 1263 C 117.476 -1.0884 4.15274 0
M  V30 1264 C 116.709 -2.16806 4.87679 0
M  V30 1265 O 116.932 -3.3758 4.59778 0
M  V30 1266 O 115.866 -1.80934 5.74061 0
M  V30 1267 H 119.692 0.0931396 3.03557 0
M  V30 1268 H 117.277 0.111458 1.48984 0
M  V30 1269 H 119.159 -2.31053 3.5241 0
M  V30 1270 H 117.834 -2.24717 2.32989 0
M  V30 1271 H 116.741 -0.3933 3.72027 0
M  V30 1272 H 118.074 -0.537036 4.89261 0
M  V30 1273 N 119.726 -1.57421 0.075193 0
M  V30 1274 C 120.673 -2.12915 -0.890843 0
M  V30 1275 C 121.643 -1.04252 -1.29309 0
M  V30 1276 O 122.828 -1.31933 -1.37834 0
M  V30 1277 C 119.968 -2.69795 -2.15186 0
M  V30 1278 C 119.081 -3.92624 -1.80194 0
M  V30 1279 C 118.216 -4.37736 -3.00933 0
M  V30 1280 C 117.255 -5.53205 -2.61974 0
M  V30 1281 N 116.392 -5.9326 -3.75483 0
M  V30 1282 H 121.232 -2.95156 -0.410735 0
M  V30 1283 H 118.769 -1.45854 -0.191086 0
M  V30 1284 H 120.727 -3.00883 -2.89008 0
M  V30 1285 H 119.357 -1.90313 -2.60731 0
M  V30 1286 H 118.409 -3.67977 -0.964218 0
M  V30 1287 H 119.721 -4.76482 -1.47534 0
M  V30 1288 H 118.875 -4.70503 -3.8303 0
M  V30 1289 H 117.614 -3.52739 -3.36789 0
M  V30 1290 H 116.619 -5.20086 -1.783 0
M  V30 1291 H 117.844 -6.39936 -2.27284 0
M  V30 1292 H 115.79 -5.11212 -4.11094 0
M  V30 1293 H 115.707 -6.71865 -3.46602 0
M  V30 1294 H 116.975 -6.30651 -4.58148 0
M  V30 1295 N 121.204 0.198386 -1.56346 0
M  V30 1296 C 122.114 1.2664 -1.97483 0
M  V30 1297 C 123.13 1.49989 -0.882002 0
M  V30 1298 O 124.306 1.62668 -1.18748 0
M  V30 1299 C 121.371 2.59141 -2.30319 0
M  V30 1300 C 120.432 2.43892 -3.53292 0
M  V30 1301 C 119.665 3.70074 -3.84553 0
M  V30 1302 O 119.888 4.74101 -3.1715 0
M  V30 1303 O 118.822 3.658 -4.7799 0
M  V30 1304 H 122.648 0.947304 -2.88548 0
M  V30 1305 H 120.233 0.403123 -1.43859 0
M  V30 1306 H 122.115 3.37352 -2.5253 0
M  V30 1307 H 120.79 2.90684 -1.42423 0
M  V30 1308 H 119.697 1.63803 -3.36332 0
M  V30 1309 H 121.03 2.17282 -4.41644 0
M  V30 1310 N 122.682 1.50554 0.465978 0
M  V30 1311 C 123.928 1.62038 1.21949 0
M  V30 1312 C 124.261 0.322116 1.9151 0
M  V30 1313 O 123.536 -0.676723 1.82348 0
M  V30 1314 C 123.819 2.80421 2.25912 0
M  V30 1315 C 123.672 4.20144 1.60622 0
M  V30 1316 C 124.991 2.94354 3.27176 0
M  V30 1317 H 122.11 0.589752 0.441998 0
M  V30 1318 H 124.752 1.82956 0.51257 0
M  V30 1319 H 122.902 2.62717 2.86203 0
M  V30 1320 H 124.574 4.49449 1.03889 0
M  V30 1321 H 122.817 4.24165 0.909211 0
M  V30 1322 H 123.488 4.98914 2.36196 0
M  V30 1323 H 125.964 3.10578 2.76913 0
M  V30 1324 H 124.84 3.788 3.97242 0
M  V30 1325 H 125.101 2.05186 3.916 0
M  V30 1326 N 124.16 -0.719506 1.40217 0
M  V30 1327 C 125.406 -1.48152 1.38488 0
M  V30 1328 C 125.739 -1.94195 -0.0141867 0
M  V30 1329 O 125.014 -1.67884 -0.982096 0
M  V30 1330 C 125.297 -2.71035 2.37091 0
M  V30 1331 C 125.15 -2.30912 3.86005 0
M  V30 1332 C 126.469 -3.73182 2.33288 0
M  V30 1333 H 123.588 -0.537395 0.504357 0
M  V30 1334 H 126.23 -0.821472 1.71324 0
M  V30 1335 H 124.38 -3.27352 2.0922 0
M  V30 1336 H 126.052 -1.80107 4.24687 0
M  V30 1337 H 124.295 -1.62958 4.02029 0
M  V30 1338 H 124.966 -3.18978 4.50508 0
M  V30 1339 H 127.442 -3.26485 2.57966 0
M  V30 1340 H 126.318 -4.56806 3.04334 0
M  V30 1341 H 126.579 -4.21202 1.34317 0
M  V30 1342 N 125.638 -1.25649 -0.95132 0
M  V30 1343 C 126.568 -1.08808 -2.06599 0
M  V30 1344 C 127.549 0.00382547 -1.701 0
M  V30 1345 O 128.734 -0.166325 -1.93486 0
M  V30 1346 C 125.864 -0.709542 -3.39975 0
M  V30 1347 C 124.818 -1.75206 -3.90496 0
M  V30 1348 C 124.144 -1.22811 -5.20405 0
M  V30 1349 C 125.444 -3.15153 -4.16504 0
M  V30 1350 H 127.138 -2.02048 -2.20946 0
M  V30 1351 H 124.684 -0.972835 -1.06169 0
M  V30 1352 H 126.637 -0.578649 -4.17408 0
M  V30 1353 H 125.361 0.258556 -3.25575 0
M  V30 1354 H 124.02 -1.87145 -3.15234 0
M  V30 1355 H 123.668 -0.250145 -5.02378 0
M  V30 1356 H 123.368 -1.92492 -5.55176 0
M  V30 1357 H 124.892 -1.10968 -6.00432 0
M  V30 1358 H 126.306 -3.06349 -4.84586 0
M  V30 1359 H 124.703 -3.82333 -4.62538 0
M  V30 1360 H 125.773 -3.61966 -3.22658 0
M  V30 1361 N 127.117 1.15442 -1.07289 0
M  V30 1362 C 128.047 2.22312 -0.714107 0
M  V30 1363 C 129.028 1.67467 0.298155 0
M  V30 1364 O 130.213 1.93445 0.171048 0
M  V30 1365 C 127.343 3.47124 -0.110448 0
M  V30 1366 C 126.297 4.14926 -1.04979 0
M  V30 1367 C 125.623 5.33807 -0.308924 0
M  V30 1368 C 126.923 4.64762 -2.38314 0
M  V30 1369 H 128.617 2.5258 -1.6076 0
M  V30 1370 H 126.163 1.21404 -0.77441 0
M  V30 1371 H 128.116 4.21124 0.152482 0
M  V30 1372 H 126.84 3.16187 0.81812 0
M  V30 1373 H 125.499 3.42866 -1.29764 0
M  V30 1374 H 125.147 4.99126 0.623084 0
M  V30 1375 H 124.847 5.80113 -0.935036 0
M  V30 1376 H 126.371 6.10576 -0.0537771 0
M  V30 1377 H 127.785 5.30292 -2.1786 0
M  V30 1378 H 126.182 5.21728 -2.96514 0
M  V30 1379 H 127.252 3.80434 -3.00663 0
M  V30 1380 N 128.595 0.856903 1.32268 0
M  V30 1381 C 129.841 0.462069 1.97466 0
M  V30 1382 C 130.174 -0.980298 1.67642 0
M  V30 1383 O 129.449 -1.68824 0.965858 0
M  V30 1384 C 129.732 0.704336 3.53145 0
M  V30 1385 C 129.585 2.19529 3.9259 0
M  V30 1386 C 130.904 0.1622 4.39801 0
M  V30 1387 H 128.023 0.169357 0.717278 0
M  V30 1388 H 130.665 1.07574 1.56614 0
M  V30 1389 H 128.815 0.181999 3.88073 0
M  V30 1390 H 130.487 2.78387 3.67829 0
M  V30 1391 H 128.73 2.67292 3.41668 0
M  V30 1392 H 129.401 2.31549 5.01088 0
M  V30 1393 H 131.877 0.608905 4.11621 0
M  V30 1394 H 130.753 0.361265 5.4771 0
M  V30 1395 H 131.014 -0.935158 4.32096 0
M  V30 1396 N 130.073 -1.45103 0.615059 0
M  V30 1397 C 131.036 -2.29025 -0.0895485 0
M  V30 1398 C 132.036 -1.40174 -0.787906 0
M  V30 1399 O 133.226 -1.62217 -0.634933 0
M  V30 1400 C 130.358 -3.21376 -1.13711 0
M  V30 1401 H 131.551 -2.92807 0.648382 0
M  V30 1402 H 129.104 -1.51749 0.374444 0
M  V30 1403 H 129.839 -2.6241 -1.90556 0
M  V30 1404 H 129.624 -3.86834 -0.640475 0
M  V30 1405 H 131.114 -3.84459 -1.63036 0
M  V30 1406 N 131.551 -0.354651 -1.53558 0
M  V30 1407 C 132.779 0.239515 -2.05509 0
M  V30 1408 C 133.194 1.4333 -1.2289 0
M  V30 1409 O 132.551 1.80538 -0.266899 0
M  V30 1410 C 132.602 0.643719 -3.55723 0
M  V30 1411 O 132.323 -0.502602 -4.35207 0
M  V30 1412 C 133.824 1.29743 -4.23889 0
M  V30 1413 H 131.044 0.0442697 -0.669538 0
M  V30 1414 H 133.588 -0.509856 -1.98042 0
M  V30 1415 H 131.743 1.34302 -3.63376 0
M  V30 1416 H 132.157 -0.178172 -5.24197 0
M  V30 1417 H 133.631 1.53091 -5.30346 0
M  V30 1418 H 134.108 2.25441 -3.76926 0
M  V30 1419 H 134.714 0.639865 -4.20459 0
M  V30 1420 N 133.029 1.57378 -0.0835403 0
M  V30 1421 C 133.939 2.16897 0.894021 0
M  V30 1422 C 134.955 1.13528 1.31861 0
M  V30 1423 O 136.131 1.45848 1.3889 0
M  V30 1424 C 133.196 2.72831 2.13925 0
M  V30 1425 C 132.257 3.91115 1.76997 0
M  V30 1426 C 131.49 4.44371 2.95584 0
M  V30 1427 O 131.713 3.96596 4.09961 0
M  V30 1428 O 130.647 5.35549 2.74719 0
M  V30 1429 H 134.473 3.00814 0.417679 0
M  V30 1430 H 132.058 1.48741 0.140181 0
M  V30 1431 H 133.94 3.0863 2.86924 0
M  V30 1432 H 132.615 1.91967 2.60635 0
M  V30 1433 H 131.522 3.60148 1.01214 0
M  V30 1434 H 132.855 4.73307 1.3506 0
M  V30 1435 N 134.507 -0.190092 1.56449 0
M  V30 1436 C 135.755 -0.907908 1.80559 0
M  V30 1437 C 136.076 -1.83583 0.657438 0
M  V30 1438 O 135.346 -1.93203 -0.323924 0
M  V30 1439 H 133.926 -0.338247 0.666032 0
M  V30 1440 H 136.588 -0.194403 1.93928 0
M  V30 1441 H 135.684 -1.49604 2.73907 0
M  V30 1442 N 135.985 -1.50799 -0.457987 0
M  V30 1443 C 137.401 -1.38515 -0.792819 0
M  V30 1444 C 137.601 -0.451409 -1.96379 0
M  V30 1445 O 136.657 0.10112 -2.52297 0
M  V30 1446 C 137.97 -2.80149 -1.09258 0
M  V30 1447 C 139.518 -2.89156 -1.19825 0
M  V30 1448 C 139.993 -4.31651 -1.53106 0
M  V30 1449 N 141.484 -4.34662 -1.60072 0
M  V30 1450 C 142.219 -5.41928 -1.87354 0
M  V30 1451 N 141.715 -6.59384 -2.12568 0
M  V30 1452 N 143.508 -5.29385 -1.88965 0
M  V30 1453 H 135.659 -2.10073 0.313511 0
M  V30 1454 H 137.922 -0.944803 0.0777862 0
M  V30 1455 H 137.628 -3.50374 -0.305084 0
M  V30 1456 H 137.502 -3.18204 -2.02549 0
M  V30 1457 H 139.889 -2.19141 -1.97639 0
M  V30 1458 H 139.97 -2.54626 -0.244821 0
M  V30 1459 H 139.614 -5.02208 -0.758266 0
M  V30 1460 H 139.544 -4.63678 -2.49621 0
M  V30 1461 H 142.035 -3.49973 -1.42573 0
M  V30 1462 H 142.348 -7.36934 -2.32696 0
M  V30 1463 H 140.693 -6.62535 -2.09933 0
M  V30 1464 H 143.884 -4.36616 -1.68772 0
M  V30 1465 H 144.057 -6.13066 -2.09891 0
M  V30 1466 N 137.463 0.71206 -1.40597 0
M  V30 1467 C 138.709 1.47416 -1.39271 0
M  V30 1468 C 139.042 1.942 0.00388791 0
M  V30 1469 O 138.317 1.68403 0.973179 0
M  V30 1470 C 138.6 2.69774 -2.38525 0
M  V30 1471 C 138.453 2.28861 -3.87224 0
M  V30 1472 C 139.772 3.71939 -2.35264 0
M  V30 1473 H 136.891 0.534713 -0.5072 0
M  V30 1474 H 139.533 0.812375 -1.71757 0
M  V30 1475 H 137.683 3.26238 -2.10953 0
M  V30 1476 H 139.355 1.77852 -4.25636 0
M  V30 1477 H 137.598 1.60824 -4.02887 0
M  V30 1478 H 138.269 3.16584 -4.52193 0
M  V30 1479 H 140.745 3.25113 -2.59694 0
M  V30 1480 H 139.621 4.55186 -3.06753 0
M  V30 1481 H 139.882 4.20484 -1.36549 0
M  V30 1482 N 138.941 1.26152 0.944643 0
M  V30 1483 C 140.357 1.03189 1.21754 0
M  V30 1484 C 140.557 -0.245112 2.00004 0
M  V30 1485 O 139.613 -0.955176 2.33736 0
M  V30 1486 C 140.926 2.26119 1.98219 0
M  V30 1487 C 142.474 2.30984 2.11224 0
M  V30 1488 C 142.949 3.53597 2.91089 0
M  V30 1489 N 144.44 3.54053 2.98664 0
M  V30 1490 C 145.175 4.45593 3.60881 0
M  V30 1491 N 144.671 5.47416 4.24626 0
M  V30 1492 N 146.464 4.33252 3.58119 0
M  V30 1493 H 138.615 2.08177 0.421437 0
M  V30 1494 H 140.878 0.914723 0.248969 0
M  V30 1495 H 140.584 3.18984 1.48128 0
M  V30 1496 H 140.458 2.3009 2.98895 0
M  V30 1497 H 142.845 1.38635 2.60508 0
M  V30 1498 H 142.926 2.31026 1.09821 0
M  V30 1499 H 142.57 4.46273 2.42493 0
M  V30 1500 H 142.5 3.50802 3.92741 0
M  V30 1501 H 144.991 2.80403 2.53343 0
M  V30 1502 H 145.304 6.13459 4.69987 0
M  V30 1503 H 143.649 5.51278 4.23223 0
M  V30 1504 H 146.84 3.52924 3.0751 0
M  V30 1505 H 147.013 5.04786 4.06319 0
M  V30 1506 N 140.419 -1.14872 1.07899 0
M  V30 1507 C 141.665 -1.86064 0.806725 0
M  V30 1508 C 141.998 -1.82434 -0.665706 0
M  V30 1509 O 141.273 -1.25138 -1.48899 0
M  V30 1510 C 141.556 -3.34929 1.32267 0
M  V30 1511 C 141.409 -3.47161 2.86006 0
M  V30 1512 C 142.728 -4.29863 0.943717 0
M  V30 1513 H 139.847 -0.675591 0.294526 0
M  V30 1514 H 142.489 -1.34925 1.33773 0
M  V30 1515 H 140.639 -3.78611 0.870974 0
M  V30 1516 H 142.311 -3.12302 3.39507 0
M  V30 1517 H 140.554 -2.88539 3.23925 0
M  V30 1518 H 141.225 -4.51777 3.17177 0
M  V30 1519 H 143.701 -3.9417 1.33302 0
M  V30 1520 H 142.577 -5.32494 1.33198 0
M  V30 1521 H 142.838 -4.41846 -0.149796 0
M  V30 1522 N 141.898 -0.863906 -1.31812 0
M  V30 1523 C 142.846 -0.30422 -2.30602 0
M  V30 1524 C 143.84 0.577419 -1.59255 0
M  V30 1525 O 145.046 0.464194 -1.73912 0
M  V30 1526 H 141.421 -0.0796877 -0.747766 0
M  V30 1527 H 143.392 -1.15148 -2.75288 0
M  V30 1528 C 142.141 0.484617 -3.44306 0
M  V30 1529 H 141.464 -0.18451 -3.99374 0
M  V30 1530 H 142.904 0.841664 -4.15562 0
M  V30 1531 C 141.363 1.6735 -2.92396 0
M  V30 1532 O 141.893 2.77273 -2.90659 0
M  V30 1533 N 140.099 1.50362 -2.48676 0
M  V30 1534 H 139.646 0.609402 -2.50288 0
M  V30 1535 H 139.604 2.30051 -2.14299 0
M  V30 1536 N 143.376 1.44774 -0.622745 0
M  V30 1537 C 144.601 2.06999 -0.128968 0
M  V30 1538 C 145.026 1.4617 1.1839 0
M  V30 1539 O 144.384 0.560007 1.72434 0
M  V30 1540 C 144.432 3.60595 -0.0188351 0
M  V30 1541 O 143.536 3.99398 1.02739 0
M  V30 1542 H 142.877 0.659047 -0.0809544 0
M  V30 1543 H 145.407 1.85784 -0.85705 0
M  V30 1544 H 145.417 4.07627 0.174476 0
M  V30 1545 H 144.092 4.04252 -0.977384 0
M  V30 1546 H 142.669 3.64011 0.809326 0
M  V30 1547 N 144.854 0.36279 1.53368 0
M  V30 1548 C 145.817 -0.472679 2.24273 0
M  V30 1549 C 146.817 -1.012 1.24961 0
M  V30 1550 O 148.007 -0.898194 1.49259 0
M  V30 1551 C 145.139 -1.66039 2.97731 0
M  V30 1552 H 146.332 0.14773 2.99536 0
M  V30 1553 H 143.885 0.114434 1.55881 0
M  V30 1554 H 144.62 -2.31896 2.26704 0
M  V30 1555 H 144.405 -1.28066 3.70596 0
M  V30 1556 H 145.895 -2.25252 3.51641 0
M  V30 1557 N 146.332 -1.57332 0.0918853 0
M  V30 1558 C 147.562 -1.98286 -0.580205 0
M  V30 1559 C 147.97 -0.969713 -1.6246 0
M  V30 1560 O 147.313 0.0493501 -1.83634 0
M  V30 1561 C 147.375 -3.35603 -1.28882 0
M  V30 1562 C 147.039 -4.55285 -0.395559 0
M  V30 1563 C 148.036 -5.18687 0.355002 0
M  V30 1564 C 145.721 -5.01314 -0.314556 0
M  V30 1565 C 147.715 -6.26484 1.17458 0
M  V30 1566 C 145.402 -6.08979 0.508677 0
M  V30 1567 C 146.4 -6.71429 1.2519 0
M  V30 1568 O 146.088 -7.77018 2.06151 0
M  V30 1569 H 145.82 -0.656678 -0.160466 0
M  V30 1570 H 148.374 -2.04721 0.16688 0
M  V30 1571 H 146.604 -3.25842 -2.08241 0
M  V30 1572 H 148.293 -3.61026 -1.85512 0
M  V30 1573 H 149.059 -4.84058 0.302134 0
M  V30 1574 H 144.938 -4.5247 -0.882697 0
M  V30 1575 H 148.482 -6.75159 1.75518 0
M  V30 1576 H 144.379 -6.4304 0.563037 0
M  V30 1577 H 145.147 -7.93991 1.98799 0
M  V30 1578 N 147.81 0.181792 -1.56548 0
M  V30 1579 C 148.742 1.24956 -1.92142 0
M  V30 1580 C 149.755 1.41022 -0.813422 0
M  V30 1581 O 150.944 1.41212 -1.09186 0
M  V30 1582 C 148.044 2.61981 -2.14987 0
M  V30 1583 C 147.217 2.6735 -3.46183 0
M  V30 1584 C 146.276 3.85664 -3.5798 0
M  V30 1585 O 145.302 3.72148 -4.30691 0
M  V30 1586 N 146.504 5.01683 -2.92053 0
M  V30 1587 H 149.269 0.947329 -2.84334 0
M  V30 1588 H 146.83 0.371629 -1.57577 0
M  V30 1589 H 148.822 3.3958 -2.20154 0
M  V30 1590 H 147.392 2.84637 -1.2923 0
M  V30 1591 H 146.612 1.75925 -3.52766 0
M  V30 1592 H 147.9 2.67939 -4.32534 0
M  V30 1593 H 147.298 5.15564 -2.32832 0
M  V30 1594 H 145.855 5.77181 -3.0283 0
M  V30 1595 N 149.288 1.51039 0.449983 0
M  V30 1596 C 150.565 1.53612 1.21089 0
M  V30 1597 C 150.945 0.292997 2.09057 0
M  V30 1598 O 150.293 -0.72259 2.16774 0
M  V30 1599 C 150.503 2.84337 2.0237 0
M  V30 1600 C 151.851 3.35807 2.59843 0
M  V30 1601 O 152.875 2.85802 2.12593 0
M  V30 1602 O 151.734 4.23029 3.45989 0
M  V30 1603 H 148.828 0.617057 0.550608 0
M  V30 1604 H 151.374 1.63344 0.460082 0
M  V30 1605 H 150.146 3.66278 1.37681 0
M  V30 1606 H 149.769 2.77708 2.84542 0
M  V30 1607 N 150.766 -0.704594 1.40972 0
M  V30 1608 C 151.713 -1.81862 1.42109 0
M  V30 1609 C 152.683 -1.63781 0.276593 0
M  V30 1610 O 153.868 -1.84759 0.4763 0
M  V30 1611 C 151.008 -3.19669 1.30022 0
M  V30 1612 C 150.121 -3.49246 2.54267 0
M  V30 1613 C 149.256 -4.76618 2.3454 0
M  V30 1614 C 148.295 -4.99133 3.54306 0
M  V30 1615 N 147.432 -6.17726 3.33706 0
M  V30 1616 H 152.272 -1.80226 2.37324 0
M  V30 1617 H 149.809 -0.880238 1.17857 0
M  V30 1618 H 151.767 -3.99263 1.21018 0
M  V30 1619 H 150.397 -3.20506 0.384192 0
M  V30 1620 H 149.449 -2.64125 2.73756 0
M  V30 1621 H 150.761 -3.61788 3.43381 0
M  V30 1622 H 149.915 -5.64249 2.22952 0
M  V30 1623 H 148.654 -4.66305 1.42867 0
M  V30 1624 H 147.659 -4.09953 3.66359 0
M  V30 1625 H 148.884 -5.11311 4.4692 0
M  V30 1626 H 146.83 -6.08642 2.44725 0
M  V30 1627 H 146.747 -6.30995 4.16391 0
M  V30 1628 H 148.015 -7.08115 3.25873 0
M  V30 1629 N 152.244 -1.26651 -0.937939 0
M  V30 1630 C 153.49 -1.12553 -1.687 0
M  V30 1631 C 153.823 0.329782 -1.91379 0
M  V30 1632 O 153.098 1.24202 -1.4968 0
M  V30 1633 C 153.381 -1.89862 -3.05981 0
M  V30 1634 C 153.234 -3.43318 -2.90607 0
M  V30 1635 C 154.553 -1.69499 -4.0615 0
M  V30 1636 H 151.672 -0.410257 -0.612257 0
M  V30 1637 H 154.314 -1.55685 -1.08913 0
M  V30 1638 H 152.464 -1.53204 -3.57017 0
M  V30 1639 H 154.136 -3.89747 -2.46769 0
M  V30 1640 H 152.379 -3.70179 -2.26164 0
M  V30 1641 H 153.05 -3.92642 -3.8799 0
M  V30 1642 H 155.526 -2.01442 -3.64088 0
M  V30 1643 H 154.402 -2.26002 -5.00214 0
M  V30 1644 H 154.663 -0.640365 -4.37438 0
M  V30 1645 N 153.722 1.14298 -1.08507 0
M  V30 1646 C 154.947 1.8976 -0.837001 0
M  V30 1647 C 155.372 1.78097 0.605228 0
M  V30 1648 O 154.73 1.12188 1.4242 0
M  V30 1649 C 154.778 3.37685 -1.26495 0
M  V30 1650 O 153.882 4.10281 -0.417514 0
M  V30 1651 H 153.223 0.590365 -0.303917 0
M  V30 1652 H 155.753 1.44672 -1.44676 0
M  V30 1653 H 155.763 3.88501 -1.24625 0
M  V30 1654 H 154.438 3.45492 -2.31534 0
M  V30 1655 H 153.015 3.69536 -0.499722 0
M  V30 1656 N 155.201 0.870884 1.31352 0
M  V30 1657 C 156.131 0.343096 2.30966 0
M  V30 1658 C 157.112 -0.566507 1.60389 0
M  V30 1659 O 158.297 -0.483336 1.88089 0
M  V30 1660 C 155.427 -0.455487 3.443 0
M  V30 1661 C 154.381 0.361103 4.26474 0
M  V30 1662 C 153.707 -0.563221 5.31725 0
M  V30 1663 C 155.007 1.59566 4.97329 0
M  V30 1664 H 156.701 1.17548 2.75359 0
M  V30 1665 H 154.247 0.566686 1.32381 0
M  V30 1666 H 156.2 -0.83525 4.13039 0
M  V30 1667 H 154.924 -1.32139 2.98675 0
M  V30 1668 H 153.583 0.722825 3.59403 0
M  V30 1669 H 153.231 -1.42643 4.82351 0
M  V30 1670 H 152.931 -0.0207409 5.87596 0
M  V30 1671 H 154.455 -0.939808 6.03324 0
M  V30 1672 H 155.869 1.28728 5.58661 0
M  V30 1673 H 154.266 2.07728 5.63 0
M  V30 1674 H 155.336 2.34798 4.24262 0
M  V30 1675 N 156.679 -1.44442 0.630414 0
M  V30 1676 C 158.09 -1.85434 0.217063 0
M  V30 1677 C 158.441 -1.52748 -1.23136 0
M  V30 1678 O 157.566 -0.965205 -1.93682 0
M  V30 1679 C 158.161 -3.36581 0.387168 0
M  V30 1680 C 156.72 -3.76389 0.0283297 0
M  V30 1681 C 155.867 -2.68296 0.700889 0
M  V30 1682 H 158.818 -1.34919 0.83562 0
M  V30 1683 H 158.839 -3.78657 -0.374086 0
M  V30 1684 H 158.351 -3.60339 1.44144 0
M  V30 1685 H 156.452 -3.58246 -1.02423 0
M  V30 1686 H 156.565 -4.77095 0.437892 0
M  V30 1687 H 154.929 -2.54335 0.136267 0
M  V30 1688 H 155.712 -2.94887 1.75774 0
M  V30 1689 N 158.157 -0.370918 -1.53173 0
M  V30 1690 C 159.105 0.488101 -2.27421 0
M  V30 1691 C 160.099 1.07884 -1.30604 0
M  V30 1692 O 161.305 1.02143 -1.48212 0
M  V30 1693 H 157.68 0.176134 -0.731082 0
M  V30 1694 H 159.651 -0.159815 -2.97972 0
M  V30 1695 C 158.4 1.61306 -3.08019 0
M  V30 1696 H 157.723 1.1678 -3.82364 0
M  V30 1697 H 159.163 2.18872 -3.63141 0
M  V30 1698 C 157.622 2.55848 -2.19188 0
M  V30 1699 O 158.152 3.58799 -1.80626 0
M  V30 1700 N 156.358 2.2516 -1.83715 0
M  V30 1701 H 155.905 1.41476 -2.15273 0
M  V30 1702 H 155.863 2.8867 -1.24567 0
M  V30 1703 N 159.635 1.57281 -0.100228 0
M  V30 1704 C 160.865 1.98591 0.569681 0
M  V30 1705 C 161.273 0.978315 1.61943 0
M  V30 1706 O 160.616 -0.0396108 1.83657 0
M  V30 1707 C 160.678 3.36282 1.271 0
M  V30 1708 C 160.342 4.55488 0.371409 0
M  V30 1709 C 161.339 5.18491 -0.382504 0
M  V30 1710 C 159.024 5.01474 0.287965 0
M  V30 1711 C 161.018 6.25852 -1.20779 0
M  V30 1712 C 158.705 6.08701 -0.540965 0
M  V30 1713 C 159.703 6.70755 -1.28749 0
M  V30 1714 O 159.391 7.75914 -2.10269 0
M  V30 1715 H 159.123 0.65752 0.156982 0
M  V30 1716 H 161.677 2.0463 -0.177734 0
M  V30 1717 H 159.907 3.26941 2.0651 0
M  V30 1718 H 161.596 3.62005 1.83595 0
M  V30 1719 H 162.362 4.83891 -0.3278 0
M  V30 1720 H 158.241 4.52932 0.858689 0
M  V30 1721 H 161.785 6.74218 -1.79096 0
M  V30 1722 H 157.682 6.42732 -0.597131 0
M  V30 1723 H 158.45 7.92925 -2.03007 0
M  V30 1724 N 161.113 -0.173488 1.56642 0
M  V30 1725 C 162.524 -0.736155 1.71574 0
M  V30 1726 C 162.875 -1.82888 0.710389 0
M  V30 1727 O 162 -2.16017 -0.1287 0
M  V30 1728 C 162.595 -1.34211 3.11083 0
M  V30 1729 C 161.154 -1.85162 3.27707 0
M  V30 1730 C 160.301 -0.729765 2.67525 0
M  V30 1731 H 163.252 0.0518786 1.58615 0
M  V30 1732 H 163.273 -2.21178 3.09613 0
M  V30 1733 H 162.785 -0.546579 3.84232 0
M  V30 1734 H 160.886 -2.67366 2.59512 0
M  V30 1735 H 160.999 -1.99855 4.35425 0
M  V30 1736 H 159.363 -1.14965 2.27278 0
M  V30 1737 H 160.146 0.0538806 3.43258 0
M  V30 1738 N 162.591 -1.51276 -0.441967 0
M  V30 1739 C 163.554 -1.7167 -1.51862 0
M  V30 1740 C 164.554 -0.586793 -1.49711 0
M  V30 1741 O 165.744 -0.854276 -1.51815 0
M  V30 1742 C 162.876 -1.76889 -2.91416 0
M  V30 1743 H 164.069 -2.67754 -1.35084 0
M  V30 1744 H 161.622 -1.41196 -0.670333 0
M  V30 1745 H 162.357 -0.826026 -3.13604 0
M  V30 1746 H 162.142 -2.59001 -2.94382 0
M  V30 1747 H 163.632 -1.94522 -3.69528 0
M  V30 1748 N 164.069 0.697108 -1.41344 0
M  V30 1749 C 165.318 1.45279 -1.39918 0
M  V30 1750 C 165.631 1.95597 -0.0109624 0
M  V30 1751 O 166.837 2.71208 0.125919 0
M  V30 1752 C 165.293 2.62695 -2.46007 0
M  V30 1753 C 164.901 2.19169 -3.90729 0
M  V30 1754 C 166.645 3.40336 -2.53715 0
M  V30 1755 C 164.552 3.33535 -4.88373 0
M  V30 1756 H 163.482 0.545692 -0.520323 0
M  V30 1757 H 166.133 0.756929 -1.67161 0
M  V30 1758 H 164.515 3.34541 -2.11892 0
M  V30 1759 H 165.689 1.54623 -4.34083 0
M  V30 1760 H 164.004 1.54525 -3.86666 0
M  V30 1761 H 166.601 4.2547 -3.2385 0
M  V30 1762 H 166.944 3.85418 -1.5735 0
M  V30 1763 H 167.477 2.75546 -2.86913 0
M  V30 1764 H 164.216 2.93468 -5.86137 0
M  V30 1765 H 163.736 3.96936 -4.49668 0
M  V30 1766 H 165.415 3.99335 -5.09059 0
M  V30 1767 N 165.547 1.27147 0.931209 0
M  V30 1768 C 166.958 1.12044 1.49342 0
M  V30 1769 C 167.309 -0.295795 1.93957 0
M  V30 1770 O 166.434 -1.18835 1.80852 0
M  V30 1771 C 167.029 2.02781 2.71414 0
M  V30 1772 C 165.588 1.91794 3.2387 0
M  V30 1773 C 164.735 1.95543 1.96617 0
M  V30 1774 H 167.686 1.40091 0.745672 0
M  V30 1775 H 167.707 1.58156 3.46074 0
M  V30 1776 H 167.219 3.05848 2.38911 0
M  V30 1777 H 165.32 0.916992 3.6114 0
M  V30 1778 H 165.433 2.77852 3.90302 0
M  V30 1779 H 163.797 1.39722 2.12955 0
M  V30 1780 H 164.58 3.00259 1.66432 0
M  V30 1781 N 167.025 -1.13721 1.09112 0
M  V30 1782 C 168.25 -1.89314 0.847053 0
M  V30 1783 C 168.675 -1.78416 -0.595774 0
M  V30 1784 O 168.033 -1.12942 -1.41823 0
M  V30 1785 C 168.081 -3.3701 1.28284 0
M  V30 1786 O 167.185 -4.10054 0.439267 0
M  V30 1787 H 166.526 -0.588745 0.307044 0
M  V30 1788 H 169.056 -1.43902 1.45442 0
M  V30 1789 H 169.066 -3.87834 1.26683 0
M  V30 1790 H 167.741 -3.4426 2.33363 0
M  V30 1791 H 166.318 -3.69266 0.519312 0
M  V30 1792 N 168.503 -0.877838 -1.30888 0
M  V30 1793 C 169.78 -0.413052 -1.91189 0
M  V30 1794 C 170.16 1.1056 -1.79832 0
M  V30 1795 O 169.508 1.93771 -1.21099 0
M  V30 1796 C 169.718 -0.903191 -3.3711 0
M  V30 1797 C 171.066 -0.93395 -4.14201 0
M  V30 1798 O 172.09 -0.849373 -3.45925 0
M  V30 1799 O 170.949 -1.05772 -5.36167 0
M  V30 1800 H 168.043 -0.125035 -0.817493 0
M  V30 1801 H 170.589 -0.966269 -1.39504 0
M  V30 1802 H 169.361 -1.94692 -3.39427 0
M  V30 1803 H 168.984 -0.328732 -3.96239 0
M  V30 1804 N 169.982 1.44106 -0.638065 0
M  V30 1805 C 170.945 2.29138 0.0531013 0
M  V30 1806 C 171.945 1.41409 0.765506 0
M  V30 1807 O 173.135 1.63206 0.609046 0
M  V30 1808 C 170.267 3.23144 1.08584 0
M  V30 1809 H 171.46 2.91739 -0.694883 0
M  V30 1810 H 169.013 1.51134 -0.398538 0
M  V30 1811 H 169.748 2.65408 1.86357 0
M  V30 1812 H 169.533 3.87804 0.578852 0
M  V30 1813 H 171.023 3.87004 1.56899 0
M  V30 1814 N 171.46 0.379036 1.52974 0
M  V30 1815 C 172.688 -0.20679 2.05864 0
M  V30 1816 C 173.103 -1.41356 1.25155 0
M  V30 1817 O 172.46 -1.8009 0.295588 0
M  V30 1818 C 172.511 -0.587045 3.56702 0
M  V30 1819 O 172.232 0.571776 4.34353 0
M  V30 1820 C 173.733 -1.22983 4.25899 0
M  V30 1821 H 170.953 -0.0336123 0.670158 0
M  V30 1822 H 173.497 0.541298 1.97206 0
M  V30 1823 H 171.652 -1.28504 3.65466 0
M  V30 1824 H 172.066 0.261544 5.23847 0
M  V30 1825 H 173.54 -1.44635 5.32715 0
M  V30 1826 H 174.017 -2.19416 3.80465 0
M  V30 1827 H 174.623 -0.572892 4.21424 0
M  V30 1828 N 172.938 -1.57226 0.108567 0
M  V30 1829 C 173.868 -2.17778 -0.84232 0
M  V30 1830 C 174.849 -1.11487 -1.2847 0
M  V30 1831 O 176.034 -1.39681 -1.34918 0
M  V30 1832 C 173.164 -2.76888 -2.09644 0
M  V30 1833 C 172.118 -3.88669 -1.79221 0
M  V30 1834 C 171.444 -4.34541 -3.11574 0
M  V30 1835 C 172.744 -5.11251 -1.06864 0
M  V30 1836 H 174.438 -2.97489 -0.337774 0
M  V30 1837 H 171.984 -1.43097 -0.161025 0
M  V30 1838 H 173.937 -3.17904 -2.76614 0
M  V30 1839 H 172.661 -1.94451 -2.62405 0
M  V30 1840 H 171.32 -3.48213 -1.14644 0
M  V30 1841 H 170.968 -3.48977 -3.62249 0
M  V30 1842 H 170.668 -5.09914 -2.91996 0
M  V30 1843 H 172.192 -4.782 -3.7968 0
M  V30 1844 H 173.606 -5.49352 -1.63968 0
M  V30 1845 H 172.003 -5.9214 -0.974178 0
M  V30 1846 H 173.073 -4.8487 -0.0536168 0
M  V30 1847 N 174.416 0.165178 -1.56732 0
M  V30 1848 C 175.326 1.22423 -2.00125 0
M  V30 1849 C 176.342 1.48084 -0.913619 0
M  V30 1850 O 177.518 1.60112 -1.22172 0
M  V30 1851 C 174.583 2.54197 -2.35764 0
M  V30 1852 C 173.644 2.36343 -3.58386 0
M  V30 1853 C 172.877 3.61834 -3.92316 0
M  V30 1854 O 173.1 4.67267 -3.27135 0
M  V30 1855 O 172.034 3.55579 -4.85641 0
M  V30 1856 H 175.86 0.885886 -2.90492 0
M  V30 1857 H 173.445 0.372518 -1.44681 0
M  V30 1858 H 175.327 3.3192 -2.59629 0
M  V30 1859 H 174.002 2.87598 -1.48557 0
M  V30 1860 H 172.909 1.56632 -3.39731 0
M  V30 1861 H 174.242 2.07865 -4.46154 0
M  V30 1862 N 175.894 1.51508 0.433938 0
M  V30 1863 C 177.14 1.64588 1.18484 0
M  V30 1864 C 177.473 0.362666 1.90784 0
M  V30 1865 O 176.748 -0.637892 1.83742 0
M  V30 1866 C 177.031 2.85149 2.19913 0
M  V30 1867 C 176.884 4.23456 1.51674 0
M  V30 1868 C 178.203 3.01227 3.20858 0
M  V30 1869 H 175.322 0.598994 0.429389 0
M  V30 1870 H 177.964 1.84002 0.473647 0
M  V30 1871 H 176.114 2.68729 2.80566 0
M  V30 1872 H 177.786 4.51552 0.943322 0
M  V30 1873 H 176.029 4.25998 0.819035 0
M  V30 1874 H 176.7 5.03812 2.2556 0
M  V30 1875 H 179.176 3.16382 2.70263 0
M  V30 1876 H 178.052 3.87141 3.89118 0
M  V30 1877 H 178.313 2.13447 3.8716 0
M  V30 1878 N 177.372 -0.689602 1.41712 0
M  V30 1879 C 178.304 -1.815 1.39966 0
M  V30 1880 C 179.317 -1.59995 0.300917 0
M  V30 1881 O 180.506 -1.69387 0.563039 0
M  V30 1882 C 177.606 -3.18364 1.16179 0
M  V30 1883 C 176.779 -3.66847 2.38206 0
M  V30 1884 C 175.838 -4.82398 2.10186 0
M  V30 1885 O 174.864 -4.93706 2.83272 0
M  V30 1886 N 176.066 -5.70064 1.0958 0
M  V30 1887 H 178.831 -1.83488 2.36965 0
M  V30 1888 H 176.392 -0.872149 1.36401 0
M  V30 1889 H 178.384 -3.93301 0.953756 0
M  V30 1890 H 176.954 -3.11365 0.27756 0
M  V30 1891 H 176.174 -2.82751 2.74673 0
M  V30 1892 H 177.462 -3.95978 3.19498 0
M  V30 1893 H 176.86 -5.63565 0.491019 0
M  V30 1894 H 175.417 -6.44874 0.947656 0
M  V30 1895 N 178.85 -1.27639 -0.924453 0
M  V30 1896 C 180.075 -1.17101 -1.71179 0
M  V30 1897 C 180.5 0.268134 -1.86179 0
M  V30 1898 O 179.858 1.19415 -1.36418 0
M  V30 1899 C 179.906 -1.86313 -3.08739 0
M  V30 1900 O 179.01 -1.16331 -3.95652 0
M  V30 1901 H 178.351 -0.407091 -0.524569 0
M  V30 1902 H 180.881 -1.68767 -1.15666 0
M  V30 1903 H 180.891 -1.938 -3.59034 0
M  V30 1904 H 179.566 -2.91001 -2.97138 0
M  V30 1905 H 178.143 -1.16935 -3.54091 0
M  V30 1906 N 180.328 1.1314 -1.09713 0
M  V30 1907 C 181.258 2.20748 -0.761102 0
M  V30 1908 C 182.239 1.68061 0.262566 0
M  V30 1909 O 183.424 1.93765 0.129977 0
M  V30 1910 C 180.554 3.46812 -0.184054 0
M  V30 1911 C 179.508 4.12606 -1.13757 0
M  V30 1912 C 178.834 5.33031 -0.422083 0
M  V30 1913 C 180.134 4.59603 -2.48118 0
M  V30 1914 H 181.828 2.49113 -1.66082 0
M  V30 1915 H 179.374 1.19734 -0.799987 0
M  V30 1916 H 181.327 4.21353 0.0631215 0
M  V30 1917 H 180.051 3.17851 0.750868 0
M  V30 1918 H 178.71 3.40036 -1.37007 0
M  V30 1919 H 178.358 5.00335 0.517072 0
M  V30 1920 H 178.058 5.77999 -1.05788 0
M  V30 1921 H 179.582 6.10325 -0.183277 0
M  V30 1922 H 180.996 5.25552 -2.29059 0
M  V30 1923 H 179.393 5.15321 -3.07514 0
M  V30 1924 H 180.463 3.73971 -3.08665 0
M  V30 1925 N 181.806 0.884767 1.30421 0
M  V30 1926 C 183.222 0.57874 1.48737 0
M  V30 1927 C 183.422 -0.883567 1.81095 0
M  V30 1928 O 182.478 -1.6648 1.89844 0
M  V30 1929 C 183.791 1.49171 2.61091 0
M  V30 1930 C 185.339 1.49532 2.74971 0
M  V30 1931 C 185.814 2.39421 3.90438 0
M  V30 1932 N 187.305 2.37383 3.97748 0
M  V30 1933 C 188.04 3.03647 4.86401 0
M  V30 1934 N 187.536 3.79136 5.79852 0
M  V30 1935 N 189.329 2.9288 4.79768 0
M  V30 1936 H 181.48 1.83075 1.0769 0
M  V30 1937 H 183.743 0.783637 0.533495 0
M  V30 1938 H 183.449 2.53291 2.44001 0
M  V30 1939 H 183.323 1.20113 3.57565 0
M  V30 1940 H 185.71 0.46163 2.91467 0
M  V30 1941 H 185.791 1.8262 1.79119 0
M  V30 1942 H 185.435 3.42874 3.74699 0
M  V30 1943 H 185.365 2.03649 4.85628 0
M  V30 1944 H 187.856 1.82525 3.30897 0
M  V30 1945 H 188.169 4.26789 6.4426 0
M  V30 1946 H 186.514 3.83243 5.79784 0
M  V30 1947 H 189.705 2.33433 4.05742 0
M  V30 1948 H 189.878 3.448 5.4865 0
M  V30 1949 N 183.284 -1.43765 0.645699 0
M  V30 1950 C 184.509 -2.06767 0.161883 0
M  V30 1951 C 184.934 -1.48034 -1.16049 0
M  V30 1952 O 184.292 -0.587369 -1.71522 0
M  V30 1953 C 184.34 -3.60519 0.0762003 0
M  V30 1954 O 183.444 -4.00982 -0.963721 0
M  V30 1955 H 182.785 -0.657675 0.091429 0
M  V30 1956 H 185.315 -1.84397 0.886499 0
M  V30 1957 H 185.325 -4.07853 -0.109604 0
M  V30 1958 H 184 -4.02646 1.04157 0
M  V30 1959 H 182.577 -3.65253 -0.751312 0
M  V30 1960 N 184.763 -0.387143 -1.52771 0
M  V30 1961 C 185.711 0.463953 -2.27926 0
M  V30 1962 C 186.705 1.06493 -1.31741 0
M  V30 1963 O 187.911 1.00565 -1.49287 0
M  V30 1964 H 184.286 0.16837 -0.732909 0
M  V30 1965 H 186.257 -0.19141 -2.97785 0
M  V30 1966 C 185.006 1.5803 -3.09713 0
M  V30 1967 H 184.329 1.12718 -3.83581 0
M  V30 1968 H 185.769 2.15008 -3.65442 0
M  V30 1969 C 184.228 2.53509 -2.2189 0
M  V30 1970 O 184.758 3.56863 -1.84422 0
M  V30 1971 N 182.964 2.23199 -1.86093 0
M  V30 1972 H 182.511 1.39185 -2.16761 0
M  V30 1973 H 182.469 2.87333 -1.27621 0
M  V30 1974 N 186.241 1.57166 -0.116904 0
M  V30 1975 C 187.518 1.86645 0.585049 0
M  V30 1976 C 187.898 1.0177 1.84949 0
M  V30 1977 O 187.246 0.0960379 2.28298 0
M  V30 1978 C 187.456 3.37736 0.879507 0
M  V30 1979 C 188.804 4.06289 1.23348 0
M  V30 1980 O 189.828 3.42743 0.969836 0
M  V30 1981 O 188.687 5.18455 1.7282 0
M  V30 1982 H 185.781 0.772593 0.295007 0
M  V30 1983 H 188.327 1.69025 -0.151249 0
M  V30 1984 H 187.099 3.91296 -0.0166136 0
M  V30 1985 H 186.722 3.6078 1.67103 0
M  V30 1986 N 187.719 -0.156864 1.56817 0
M  V30 1987 C 188.944 -0.890331 1.87318 0
M  V30 1988 C 189.369 -1.74394 0.704855 0
M  V30 1989 O 188.727 -1.77972 -0.345786 0
M  V30 1990 C 188.775 -1.73102 3.16336 0
M  V30 1991 O 187.879 -2.83422 2.99576 0
M  V30 1992 H 187.22 -0.24857 0.615718 0
M  V30 1993 H 189.75 -0.150649 2.04045 0
M  V30 1994 H 189.76 -2.12803 3.48107 0
M  V30 1995 H 188.435 -1.10412 4.00976 0
M  V30 1996 H 187.012 -2.47199 2.7919 0
M  V30 1997 N 189.197 -1.51736 -0.425897 0
M  V30 1998 C 190.445 -1.64644 -1.17204 0
M  V30 1999 C 190.766 -0.370486 -1.91448 0
M  V30 2000 O 190.036 0.614088 -1.86026 0
M  V30 2001 H 188.616 -0.606819 -0.435638 0
M  V30 2002 H 191.278 -1.88713 -0.487177 0
M  V30 2003 H 190.374 -2.47958 -1.89534 0
M  V30 2004 N 190.675 0.682077 -1.42076 0
M  V30 2005 C 191.921 1.44428 -1.42367 0
M  V30 2006 C 192.254 1.94164 -0.0373056 0
M  V30 2007 O 191.529 1.70429 0.937239 0
M  V30 2008 C 191.812 2.64654 -2.44194 0
M  V30 2009 C 191.665 2.20596 -3.91991 0
M  V30 2010 C 192.984 3.66865 -2.431 0
M  V30 2011 H 190.103 0.523834 -0.518428 0
M  V30 2012 H 192.745 0.77576 -1.73442 0
M  V30 2013 H 190.895 3.2169 -2.17826 0
M  V30 2014 H 192.567 1.68783 -4.29313 0
M  V30 2015 H 190.81 1.52242 -4.06208 0
M  V30 2016 H 191.481 3.06921 -4.58807 0
M  V30 2017 H 193.957 3.19531 -2.66532 0
M  V30 2018 H 192.833 4.48577 -3.16339 0
M  V30 2019 H 193.094 4.17493 -1.45437 0
M  V30 2020 N 192.153 1.28127 0.917671 0
M  V30 2021 C 193.383 1.17722 1.6978 0
M  V30 2022 C 193.791 -0.267261 1.87303 0
M  V30 2023 O 193.134 -1.19286 1.39702 0
M  V30 2024 C 193.196 1.79958 3.11216 0
M  V30 2025 C 192.86 3.29187 3.16993 0
M  V30 2026 C 193.857 4.25679 2.98485 0
M  V30 2027 C 191.542 3.70075 3.39632 0
M  V30 2028 C 193.536 5.61035 3.02521 0
M  V30 2029 C 191.223 5.05557 3.433 0
M  V30 2030 C 192.221 6.00847 3.24764 0
M  V30 2031 O 191.909 7.33859 3.28187 0
M  V30 2032 H 191.641 0.409788 0.537634 0
M  V30 2033 H 194.195 1.69694 1.15728 0
M  V30 2034 H 192.425 1.22475 3.66793 0
M  V30 2035 H 194.114 1.64125 3.71238 0
M  V30 2036 H 194.88 3.95426 2.80826 0
M  V30 2037 H 190.759 2.96373 3.53106 0
M  V30 2038 H 194.303 6.35388 2.87971 0
M  V30 2039 H 190.2 5.35462 3.60486 0
M  V30 2040 H 190.968 7.42436 3.44575 0
M  V30 2041 N 193.631 -1.12557 1.10312 0
M  V30 2042 C 195.047 -1.36036 0.834649 0
M  V30 2043 C 195.247 -1.93946 -0.546539 0
M  V30 2044 O 194.303 -2.16484 -1.29966 0
M  V30 2045 C 195.616 -2.30312 1.9333 0
M  V30 2046 C 197.164 -2.43906 1.9616 0
M  V30 2047 C 197.639 -3.41496 3.05195 0
M  V30 2048 N 199.13 -3.49053 3.04494 0
M  V30 2049 C 199.865 -4.24471 3.85502 0
M  V30 2050 N 199.361 -5.02966 4.76442 0
M  V30 2051 N 201.154 -4.19864 3.73725 0
M  V30 2052 H 193.305 -0.733246 1.99342 0
M  V30 2053 H 195.568 -0.385234 0.866198 0
M  V30 2054 H 195.274 -1.94933 2.92735 0
M  V30 2055 H 195.148 -3.30421 1.81939 0
M  V30 2056 H 197.535 -2.78567 0.973886 0
M  V30 2057 H 197.616 -1.4369 2.11629 0
M  V30 2058 H 197.26 -3.07565 4.04186 0
M  V30 2059 H 197.19 -4.41539 2.86968 0
M  V30 2060 H 199.681 -2.93053 2.38596 0
M  V30 2061 H 199.994 -5.57846 5.34815 0
M  V30 2062 H 198.339 -5.02167 4.80472 0
M  V30 2063 H 201.53 -3.57623 3.02032 0
M  V30 2064 H 201.703 -4.78386 4.37093 0
M  V30 2065 N 195.109 -0.891671 -1.2995 0
M  V30 2066 C 196.349 -0.520296 -1.97667 0
M  V30 2067 C 196.713 0.914797 -1.68806 0
M  V30 2068 O 197.914 1.39263 -2.29911 0
M  V30 2069 C 196.185 -0.795222 -3.48441 0
M  V30 2070 S 197.744 -0.526953 -4.35624 0
M  V30 2071 H 194.562 -0.19333 -0.684211 0
M  V30 2072 H 197.164 -1.15238 -1.57926 0
M  V30 2073 H 195.868 -1.83805 -3.66938 0
M  V30 2074 H 195.399 -0.15095 -3.9311 0
M  V30 2075 H 197.414 0.631533 -4.92165 0
M  V30 2076 N 196.587 1.43421 -0.653314 0
M  V30 2077 C 197.497 2.34568 0.0388565 0
M  V30 2078 C 198.513 1.53888 0.81207 0
M  V30 2079 O 199.689 1.86539 0.759294 0
M  V30 2080 C 196.754 3.32167 0.993269 0
M  V30 2081 C 195.815 4.28751 0.216977 0
M  V30 2082 C 195.048 5.21688 1.12593 0
M  V30 2083 O 195.271 5.19052 2.36519 0
M  V30 2084 O 194.205 5.98919 0.598284 0
M  V30 2085 H 198.031 2.95251 -0.711386 0
M  V30 2086 H 195.616 1.43564 -0.413502 0
M  V30 2087 H 197.498 3.92183 1.54176 0
M  V30 2088 H 196.173 2.73987 1.72374 0
M  V30 2089 H 195.08 3.72215 -0.375101 0
M  V30 2090 H 196.413 4.89913 -0.473924 0
M  V30 2091 N 198.065 0.39524 1.52563 0
M  V30 2092 C 199.311 -0.185318 2.01952 0
M  V30 2093 C 199.644 -1.45964 1.28095 0
M  V30 2094 O 198.919 -1.90689 0.38315 0
M  V30 2095 C 199.202 -0.447193 3.57312 0
M  V30 2096 C 199.055 0.842828 4.41833 0
M  V30 2097 C 200.374 -1.23529 4.22408 0
M  V30 2098 H 197.493 -0.0658788 0.73405 0
M  V30 2099 H 200.135 0.525975 1.82575 0
M  V30 2100 H 198.285 -1.05312 3.73954 0
M  V30 2101 H 199.957 1.4795 4.36931 0
M  V30 2102 H 198.2 1.45686 4.08605 0
M  V30 2103 H 198.871 0.614165 5.48573 0
M  V30 2104 H 201.347 -0.722445 4.0978 0
M  V30 2105 H 200.223 -1.38727 5.3108 0
M  V30 2106 H 200.484 -2.25213 3.80436 0
M  V30 2107 N 199.544 -1.57102 0.125237 0
M  V30 2108 C 200.477 -2.11371 -0.860094 0
M  V30 2109 C 201.455 -1.03168 -1.25679 0
M  V30 2110 O 202.639 -1.30862 -1.35674 0
M  V30 2111 C 199.766 -2.61555 -2.1519 0
M  V30 2112 C 198.812 -3.81701 -1.9028 0
M  V30 2113 S 199.645 -5.23797 -1.11343 0
M  V30 2114 C 200.801 -5.77353 -2.41689 0
M  V30 2115 H 201.034 -2.94617 -0.39852 0
M  V30 2116 H 198.567 -1.54145 -0.0886555 0
M  V30 2117 H 200.525 -2.91122 -2.89411 0
M  V30 2118 H 199.186 -1.78479 -2.58465 0
M  V30 2119 H 198.379 -4.14985 -2.86014 0
M  V30 2120 H 197.981 -3.52783 -1.24178 0
M  V30 2121 H 200.273 -5.87458 -3.37489 0
M  V30 2122 H 201.216 -6.75323 -2.12942 0
M  V30 2123 H 201.624 -5.05457 -2.51342 0
M  V30 2124 N 201.022 0.148545 -1.56898 0
M  V30 2125 C 201.972 1.1886 -1.94567 0
M  V30 2126 C 202.956 1.3863 -0.816735 0
M  V30 2127 O 204.148 1.40218 -1.08018 0
M  V30 2128 C 201.277 2.52262 -2.32849 0
M  V30 2129 C 200.363 2.36092 -3.52309 0
M  V30 2130 N 200.754 1.89674 -4.6889 0
M  V30 2131 C 199.052 2.66848 -3.57363 0
M  V30 2132 C 199.753 1.86511 -5.50989 0
M  V30 2133 N 198.729 2.29766 -4.92655 0
M  V30 2134 H 202.531 0.821793 -2.82177 0
M  V30 2135 H 200.045 0.356615 -1.58436 0
M  V30 2136 H 202.042 3.27447 -2.58039 0
M  V30 2137 H 200.702 2.89727 -1.46589 0
M  V30 2138 H 201.713 1.59663 -4.92674 0
M  V30 2139 H 198.39 3.08198 -2.81639 0
M  V30 2140 H 199.78 1.52128 -6.54452 0
M  V30 2141 N 202.5 1.5196 0.417844 0
M  V30 2142 C 203.748 1.65263 1.16329 0
M  V30 2143 C 204.069 0.380634 1.91249 0
M  V30 2144 O 203.339 -0.604214 1.86349 0
M  V30 2145 H 201.919 0.60912 0.432414 0
M  V30 2146 H 204.581 1.88969 0.477162 0
M  V30 2147 H 203.677 2.4896 1.88217 0
M  V30 2148 N 203.978 -0.674533 1.42435 0
M  V30 2149 C 205.227 -1.43034 1.42212 0
M  V30 2150 C 205.54 -1.95555 0.0420788 0
M  V30 2151 O 206.746 -2.71374 -0.0827558 0
M  V30 2152 C 205.202 -2.58748 2.50155 0
M  V30 2153 C 204.81 -2.12925 3.94166 0
M  V30 2154 C 206.554 -3.36257 2.59098 0
M  V30 2155 C 204.461 -3.25723 4.93618 0
M  V30 2156 H 203.391 -0.537345 0.528939 0
M  V30 2157 H 206.042 -0.73024 1.68344 0
M  V30 2158 H 204.424 -3.31128 2.17188 0
M  V30 2159 H 205.598 -1.47697 4.36488 0
M  V30 2160 H 203.913 -1.48354 3.89076 0
M  V30 2161 H 206.51 -4.20264 3.30578 0
M  V30 2162 H 206.853 -3.82866 1.63461 0
M  V30 2163 H 207.386 -2.70947 2.9126 0
M  V30 2164 H 204.125 -2.84105 5.90732 0
M  V30 2165 H 203.645 -3.89732 4.55926 0
M  V30 2166 H 205.324 -3.91186 5.15347 0
M  V30 2167 N 205.456 -1.28612 -0.910864 0
M  V30 2168 C 206.366 -1.14643 -2.0468 0
M  V30 2169 C 207.382 -0.0723121 -1.7385 0
M  V30 2170 O 208.558 -0.282178 -1.99413 0
M  V30 2171 C 205.623 -0.812561 -3.37044 0
M  V30 2172 C 204.684 -1.96935 -3.81465 0
M  V30 2173 C 203.917 -1.65131 -5.07511 0
M  V30 2174 O 204.14 -0.567013 -5.67575 0
M  V30 2175 O 203.074 -2.49585 -5.47714 0
M  V30 2176 H 206.9 -2.1001 -2.19384 0
M  V30 2177 H 204.485 -1.07958 -1.03274 0
M  V30 2178 H 206.367 -0.640441 -4.16505 0
M  V30 2179 H 205.042 0.111426 -3.23508 0
M  V30 2180 H 203.949 -2.19664 -3.02818 0
M  V30 2181 H 205.282 -2.87414 -3.99567 0
M  V30 2182 N 206.934 1.1197 -1.10907 0
M  V30 2183 C 208.211 1.79959 -0.766432 0
M  V30 2184 C 208.591 1.97466 0.746363 0
M  V30 2185 O 207.939 1.55491 1.67436 0
M  V30 2186 C 208.149 3.14009 -1.52314 0
M  V30 2187 C 209.497 3.89134 -1.69883 0
M  V30 2188 O 210.521 3.2368 -1.48692 0
M  V30 2189 O 209.38 5.06572 -2.05054 0
M  V30 2190 H 206.474 0.779208 -0.277062 0
M  V30 2191 H 209.02 1.18762 -1.21217 0
M  V30 2192 H 207.792 2.96587 -2.55249 0
M  V30 2193 H 207.415 3.82915 -1.07059 0
M  V30 2194 N 208.412 0.89855 1.29475 0
M  V30 2195 C 209.637 0.538561 2.00285 0
M  V30 2196 C 210.062 -0.869135 1.66816 0
M  V30 2197 O 209.42 -1.57831 0.892145 0
M  V30 2198 C 209.468 0.736475 3.52999 0
M  V30 2199 O 208.572 -0.211537 4.11857 0
M  V30 2200 H 207.913 0.210563 0.62973 0
M  V30 2201 H 210.443 1.20982 1.64998 0
M  V30 2202 H 210.453 0.640685 4.02938 0
M  V30 2203 H 209.128 1.76276 3.76696 0
M  V30 2204 H 207.705 -0.0682991 3.72837 0
M  V30 2205 N 209.89 -1.43072 0.660911 0
M  V30 2206 C 210.8 -2.34585 -0.0264163 0
M  V30 2207 C 211.816 -1.54316 -0.803898 0
M  V30 2208 O 212.992 -1.86939 -0.749391 0
M  V30 2209 C 210.057 -3.32689 -0.975639 0
M  V30 2210 C 209.118 -4.2886 -0.194236 0
M  V30 2211 C 208.351 -5.22278 -1.09825 0
M  V30 2212 O 208.574 -5.20299 -2.33763 0
M  V30 2213 O 207.508 -5.99228 -0.566513 0
M  V30 2214 H 211.334 -2.94869 0.727034 0
M  V30 2215 H 208.919 -1.43342 0.42111 0
M  V30 2216 H 210.801 -3.92995 -1.52094 0
M  V30 2217 H 209.476 -2.74898 -1.70918 0
M  V30 2218 H 208.383 -3.72011 0.394835 0
M  V30 2219 H 209.716 -4.89655 0.499899 0
M  V30 2220 N 211.368 -0.403325 -1.52352 0
M  V30 2221 C 212.331 0.413051 -2.25447 0
M  V30 2222 C 213.331 0.978513 -1.276 0
M  V30 2223 O 214.521 0.858305 -1.51587 0
M  V30 2224 C 211.653 1.58087 -3.02029 0
M  V30 2225 H 212.846 -0.227094 -2.99039 0
M  V30 2226 H 210.399 -0.155722 -1.55522 0
M  V30 2227 H 211.134 2.25804 -2.32772 0
M  V30 2228 H 210.919 1.18195 -3.73861 0
M  V30 2229 H 212.409 2.1585 -3.57489 0
M  V30 2230 N 212.846 1.57033 -0.133567 0
M  V30 2231 C 214.074 2.00044 0.528195 0
M  V30 2232 C 214.489 1.01349 1.59291 0
M  V30 2233 O 213.846 0.00848369 1.82498 0
M  V30 2234 C 213.897 3.43018 1.1411 0
M  V30 2235 O 213.618 4.37939 0.11892 0
M  V30 2236 C 215.119 4.01237 1.88477 0
M  V30 2237 H 212.339 0.656517 0.138661 0
M  V30 2238 H 214.883 2.03267 -0.224196 0
M  V30 2239 H 213.038 3.40688 1.84418 0
M  V30 2240 H 213.452 5.21436 0.56613 0
M  V30 2241 H 214.926 5.03314 2.26669 0
M  V30 2242 H 215.403 3.41193 2.76558 0
M  V30 2243 H 216.009 4.07156 1.22898 0
M  V30 2244 N 214.325 -0.140222 1.56975 0
M  V30 2245 C 215.255 -1.17456 2.01808 0
M  V30 2246 C 216.236 -1.44415 0.898794 0
M  V30 2247 O 217.421 -1.5522 1.16707 0
M  V30 2248 C 214.551 -2.50607 2.40444 0
M  V30 2249 C 213.505 -2.38155 3.55621 0
M  V30 2250 C 212.831 -3.76078 3.80091 0
M  V30 2251 C 214.131 -1.85991 4.88062 0
M  V30 2252 H 215.825 -0.801743 2.88466 0
M  V30 2253 H 213.371 -0.38422 1.38779 0
M  V30 2254 H 215.324 -3.23197 2.7041 0
M  V30 2255 H 214.048 -2.89737 1.50732 0
M  V30 2256 H 212.707 -1.68016 3.25832 0
M  V30 2257 H 212.355 -4.12656 2.87618 0
M  V30 2258 H 212.055 -3.68606 4.57606 0
M  V30 2259 H 213.579 -4.50206 4.12488 0
M  V30 2260 H 214.993 -2.4838 5.16701 0
M  V30 2261 H 213.39 -1.89393 5.6943 0
M  V30 2262 H 214.46 -0.816023 4.77984 0
M  V30 2263 N 215.803 -1.52179 -0.40978 0
M  V30 2264 C 216.713 -1.78364 -1.52392 0
M  V30 2265 C 217.729 -0.669183 -1.60617 0
M  V30 2266 O 218.905 -0.954518 -1.77344 0
M  V30 2267 C 215.97 -1.92822 -2.88133 0
M  V30 2268 C 215.031 -3.16725 -2.898 0
M  V30 2269 C 214.264 -3.30483 -4.19067 0
M  V30 2270 O 214.487 -2.49522 -5.12928 0
M  V30 2271 O 213.421 -4.2363 -4.27576 0
M  V30 2272 H 217.247 -2.72931 -1.33201 0
M  V30 2273 H 214.832 -1.37016 -0.59557 0
M  V30 2274 H 216.714 -2.04157 -3.68643 0
M  V30 2275 H 215.389 -1.01444 -3.07393 0
M  V30 2276 H 214.296 -3.10848 -2.08146 0
M  V30 2277 H 215.629 -4.07881 -2.75489 0
M  V30 2278 N 217.281 0.66697 -1.42791 0
M  V30 2279 C 218.527 1.4291 -1.43891 0
M  V30 2280 C 218.86 1.94114 -0.0578972 0
M  V30 2281 O 218.135 1.71414 0.91911 0
M  V30 2282 C 218.418 2.62049 -2.46987 0
M  V30 2283 C 218.271 2.16426 -3.94309 0
M  V30 2284 C 219.59 3.64266 -2.46978 0
M  V30 2285 H 216.709 0.518306 -0.523954 0
M  V30 2286 H 219.351 0.757321 -1.74255 0
M  V30 2287 H 217.501 3.19361 -2.21225 0
M  V30 2288 H 219.173 1.64221 -4.31079 0
M  V30 2289 H 217.416 1.47925 -4.078 0
M  V30 2290 H 218.087 3.02038 -4.62036 0
M  V30 2291 H 220.563 3.16686 -2.69906 0
M  V30 2292 H 219.439 4.45196 -3.21079 0
M  V30 2293 H 219.7 4.15927 -1.49857 0
M  V30 2294 N 218.759 1.29093 0.90403 0
M  V30 2295 C 220.005 1.16986 1.65656 0
M  V30 2296 C 220.338 -0.278925 1.92186 0
M  V30 2297 O 219.613 -1.2019 1.5292 0
M  V30 2298 C 219.896 1.97908 3.0084 0
M  V30 2299 C 219.749 3.50903 2.81403 0
M  V30 2300 C 221.068 1.80208 4.01513 0
M  V30 2301 H 218.187 0.426346 0.601164 0
M  V30 2302 H 220.829 1.58518 1.04747 0
M  V30 2303 H 218.979 1.62616 3.52829 0
M  V30 2304 H 220.651 3.96153 2.36348 0
M  V30 2305 H 218.894 3.76045 2.1627 0
M  V30 2306 H 219.565 4.02791 3.77443 0
M  V30 2307 H 222.041 2.11025 3.58619 0
M  V30 2308 H 220.917 2.39184 4.94047 0
M  V30 2309 H 221.178 0.756119 4.35586 0
M  V30 2310 N 220.237 -1.11381 1.11499 0
M  V30 2311 C 221.483 -1.83403 0.865512 0
M  V30 2312 C 221.816 -1.84459 -0.607329 0
M  V30 2313 O 221.091 -1.29811 -1.44842 0
M  V30 2314 C 221.374 -3.30552 1.42855 0
M  V30 2315 C 221.227 -3.37886 2.96906 0
M  V30 2316 C 222.546 -4.26643 1.08 0
M  V30 2317 H 219.665 -0.665879 0.31587 0
M  V30 2318 H 222.307 -1.30601 1.37998 0
M  V30 2319 H 220.457 -3.75648 0.990985 0
M  V30 2320 H 222.129 -3.01343 3.49271 0
M  V30 2321 H 220.372 -2.78088 3.32941 0
M  V30 2322 H 221.043 -4.41458 3.31389 0
M  V30 2323 H 223.519 -3.89729 1.45775 0
M  V30 2324 H 222.395 -5.27986 1.50072 0
M  V30 2325 H 222.656 -4.42099 -0.00915037 0
M  V30 2326 N 221.715 -0.905404 -1.28997 0
M  V30 2327 C 222.662 -0.385892 -2.27551 0
M  V30 2328 C 223.632 0.535113 -1.57244 0
M  V30 2329 O 224.817 0.459119 -1.85194 0
M  V30 2330 C 221.957 0.375461 -3.43051 0
M  V30 2331 C 221.07 -0.577092 -4.28128 0
M  V30 2332 C 220.205 0.201879 -5.30816 0
M  V30 2333 C 219.244 -0.744829 -6.07551 0
M  V30 2334 N 218.381 9.42587e-05 -7.021 0
M  V30 2335 H 223.221 -1.23139 -2.71368 0
M  V30 2336 H 220.758 -0.618542 -1.33463 0
M  V30 2337 H 222.716 0.832992 -4.088 0
M  V30 2338 H 221.346 1.18537 -3.00248 0
M  V30 2339 H 220.398 -1.15315 -3.62501 0
M  V30 2340 H 221.71 -1.30152 -4.8152 0
M  V30 2341 H 220.864 0.720351 -6.02408 0
M  V30 2342 H 219.603 0.959413 -4.7817 0
M  V30 2343 H 218.608 -1.27475 -5.34818 0
M  V30 2344 H 219.833 -1.50178 -6.62286 0
M  V30 2345 H 217.779 0.739791 -6.51815 0
M  V30 2346 H 217.696 -0.664321 -7.53076 0
M  V30 2347 H 218.964 0.498644 -7.77903 0
M  V30 2348 N 223.193 1.4272 -0.668489 0
M  V30 2349 C 224.441 2.01226 -0.187769 0
M  V30 2350 C 224.762 1.53092 1.2078 0
M  V30 2351 O 224.032 0.74993 1.80977 0
M  V30 2352 H 222.612 0.744041 -0.0664272 0
M  V30 2353 H 225.274 1.74723 -0.863583 0
M  V30 2354 H 224.37 3.11556 -0.184166 0
M  V30 2355 N 224.671 0.411399 1.52136 0
M  V30 2356 C 225.92 -0.165009 2.01024 0
M  V30 2357 C 226.233 -1.4603 1.30133 0
M  V30 2358 O 227.439 -2.1181 1.69849 0
M  V30 2359 C 225.895 -0.344618 3.58246 0
M  V30 2360 C 225.503 0.938716 4.38055 0
M  V30 2361 C 227.247 -0.876195 4.15359 0
M  V30 2362 C 225.154 0.726172 5.86925 0
M  V30 2363 H 224.084 -0.0654407 0.751155 0
M  V30 2364 H 226.735 0.537192 1.75461 0
M  V30 2365 H 225.117 -1.10921 3.80148 0
M  V30 2366 H 226.291 1.70963 4.27912 0
M  V30 2367 H 224.606 1.39688 3.92271 0
M  V30 2368 H 227.203 -1.05128 5.24263 0
M  V30 2369 H 227.546 -1.85152 3.7286 0
M  V30 2370 H 228.079 -0.170607 3.97434 0
M  V30 2371 H 224.818 1.67312 6.33788 0
M  V30 2372 H 224.338 -0.00540283 5.998 0
M  V30 2373 H 226.017 0.369231 6.45946 0
M  V30 2374 N 226.149 -1.5696 0.141893 0
M  V30 2375 C 227.395 -1.9625 -0.511248 0
M  V30 2376 C 227.728 -1.02654 -1.64851 0
M  V30 2377 O 227.003 -0.0679676 -1.94381 0
M  V30 2378 C 227.286 -3.45285 -1.02227 0
M  V30 2379 C 227.139 -4.49658 0.113138 0
M  V30 2380 C 228.458 -3.96698 -1.90574 0
M  V30 2381 H 225.577 -0.713567 -0.184367 0
M  V30 2382 H 228.219 -1.88698 0.222087 0
M  V30 2383 H 226.369 -3.51852 -1.64719 0
M  V30 2384 H 228.041 -4.55174 0.749302 0
M  V30 2385 H 226.284 -4.26857 0.773026 0
M  V30 2386 H 226.955 -5.51258 -0.286053 0
M  V30 2387 H 229.431 -3.92578 -1.37918 0
M  V30 2388 H 228.307 -5.01453 -2.2324 0
M  V30 2389 H 228.568 -3.3875 -2.84079 0
M  V30 2390 N 227.627 0.131896 -1.57047 0
M  V30 2391 C 228.874 0.841932 -1.84168 0
M  V30 2392 C 229.202 1.8048 -0.725066 0
M  V30 2393 O 228.457 1.93618 0.284692 0
M  V30 2394 C 228.756 1.63703 -3.17704 0
M  V30 2395 C 228.422 0.81961 -4.43388 0
M  V30 2396 C 227.084 0.594148 -4.77518 0
M  V30 2397 C 229.436 0.248977 -5.20605 0
M  V30 2398 C 226.764 -0.212409 -5.86315 0
M  V30 2399 C 229.116 -0.544701 -6.30251 0
M  V30 2400 C 227.78 -0.780599 -6.6292 0
M  V30 2401 H 227.05 0.308085 -0.673917 0
M  V30 2402 H 229.697 0.104867 -1.91213 0
M  V30 2403 H 228.002 2.44464 -3.06177 0
M  V30 2404 H 229.699 2.19015 -3.35907 0
M  V30 2405 H 226.289 1.00542 -4.16641 0
M  V30 2406 H 230.473 0.410408 -4.946 0
M  V30 2407 H 225.729 -0.404524 -6.1006 0
M  V30 2408 H 229.903 -0.993922 -6.89271 0
M  V30 2409 H 227.53 -1.40742 -7.47058 0
M  V30 2410 N 229.106 1.52395 0.401703 0
M  V30 2411 C 230.056 1.72649 1.48917 0
M  V30 2412 C 231.04 0.580436 1.50066 0
M  V30 2413 O 232.232 0.83779 1.55917 0
M  V30 2414 C 229.361 1.88729 2.86769 0
M  V30 2415 C 228.447 3.09228 2.90239 0
M  V30 2416 N 228.838 4.31805 2.63396 0
M  V30 2417 C 227.136 3.09214 3.21408 0
M  V30 2418 C 227.837 5.13326 2.73625 0
M  V30 2419 N 226.813 4.48735 3.06819 0
M  V30 2420 H 230.615 2.65058 1.26971 0
M  V30 2421 H 228.129 1.50528 0.609504 0
M  V30 2422 H 230.126 2.01358 3.65049 0
M  V30 2423 H 228.786 0.975252 3.09708 0
M  V30 2424 H 229.797 4.60154 2.37653 0
M  V30 2425 H 226.474 2.27774 3.49893 0
M  V30 2426 H 227.864 6.21003 2.56524 0
M  V30 2427 N 230.584 -0.659388 1.43143 0
M  V30 2428 C 231.814 -1.44513 1.47646 0
M  V30 2429 C 232.222 -1.88981 0.0910095 0
M  V30 2430 O 231.565 -1.59702 -0.907789 0
M  V30 2431 C 231.627 -2.71663 2.35456 0
M  V30 2432 C 231.291 -2.49175 3.83094 0
M  V30 2433 C 232.288 -2.1279 4.74359 0
M  V30 2434 C 229.973 -2.63691 4.27519 0
M  V30 2435 C 231.967 -1.9121 6.08044 0
M  V30 2436 C 229.654 -2.41726 5.61259 0
M  V30 2437 C 230.652 -2.0554 6.51339 0
M  V30 2438 O 230.34 -1.838 7.82606 0
M  V30 2439 H 230.072 -0.45064 0.503884 0
M  V30 2440 H 232.626 -0.816248 1.88485 0
M  V30 2441 H 230.856 -3.37089 1.89493 0
M  V30 2442 H 232.545 -3.33595 2.31235 0
M  V30 2443 H 233.311 -2.01157 4.41317 0
M  V30 2444 H 229.19 -2.90832 3.57684 0
M  V30 2445 H 232.734 -1.62889 6.78316 0
M  V30 2446 H 228.631 -2.52959 5.9387 0
M  V30 2447 H 229.399 -1.98275 7.94122 0
M  V30 2448 N 232.062 -1.29571 -0.897171 0
M  V30 2449 C 233.478 -1.07637 -1.17841 0
M  V30 2450 C 233.678 0.170713 -2.00776 0
M  V30 2451 O 232.734 0.867768 -2.3712 0
M  V30 2452 C 234.047 -2.3332 -1.8969 0
M  V30 2453 C 235.595 -2.38664 -2.02505 0
M  V30 2454 C 236.07 -3.64157 -2.77765 0
M  V30 2455 N 237.561 -3.64894 -2.85318 0
M  V30 2456 C 238.296 -4.58679 -3.44094 0
M  V30 2457 N 237.792 -5.62799 -4.04017 0
M  V30 2458 N 239.585 -4.46245 -3.41793 0
M  V30 2459 H 231.736 -2.09598 -0.343883 0
M  V30 2460 H 233.999 -0.923333 -0.214848 0
M  V30 2461 H 233.705 -3.24262 -1.36187 0
M  V30 2462 H 233.579 -2.41025 -2.9015 0
M  V30 2463 H 235.966 -1.48208 -2.55183 0
M  V30 2464 H 236.047 -2.34943 -1.01171 0
M  V30 2465 H 235.691 -4.54965 -2.25763 0
M  V30 2466 H 235.621 -3.65137 -3.7945 0
M  V30 2467 H 238.112 -2.89613 -2.42761 0
M  V30 2468 H 238.425 -6.3048 -4.46895 0
M  V30 2469 H 236.77 -5.66605 -4.02472 0
M  V30 2470 H 239.961 -3.64094 -2.94199 0
M  V30 2471 H 240.134 -5.19518 -3.87304 0
M  V30 2472 N 233.54 1.10788 -1.12088 0
M  V30 2473 C 234.503 2.15207 -0.788577 0
M  V30 2474 C 235.503 1.59609 0.195317 0
M  V30 2475 O 236.693 1.74174 -0.0300193 0
M  V30 2476 C 233.825 3.4047 -0.171174 0
M  V30 2477 H 235.018 2.46116 -1.71368 0
M  V30 2478 H 232.571 1.26089 -0.923652 0
M  V30 2479 H 233.306 3.15176 0.763832 0
M  V30 2480 H 233.091 3.82109 -0.879514 0
M  V30 2481 H 234.581 4.17576 0.04496 0
M  V30 2482 N 235.018 0.912232 1.28515 0
M  V30 2483 C 236.267 0.540504 1.94323 0
M  V30 2484 C 236.58 -0.920044 1.72611 0
M  V30 2485 O 237.786 -1.39986 2.32629 0
M  V30 2486 C 236.242 0.915803 3.48053 0
M  V30 2487 C 235.85 2.39598 3.78546 0
M  V30 2488 C 237.594 0.614588 4.20027 0
M  V30 2489 C 235.501 2.71148 5.25578 0
M  V30 2490 H 234.431 0.198418 0.727424 0
M  V30 2491 H 237.082 1.11094 1.46049 0
M  V30 2492 H 235.464 0.274168 3.9505 0
M  V30 2493 H 236.638 3.08422 3.42364 0
M  V30 2494 H 234.953 2.66749 3.1974 0
M  V30 2495 H 237.55 0.827002 5.28266 0
M  V30 2496 H 237.893 -0.447531 4.13887 0
M  V30 2497 H 238.426 1.21462 3.78803 0
M  V30 2498 H 235.165 3.76207 5.36794 0
M  V30 2499 H 234.685 2.0696 5.62963 0
M  V30 2500 H 236.364 2.58072 5.93302 0
M  V30 2501 N 236.496 -1.42363 0.676048 0
M  V30 2502 C 237.721 -2.06377 0.205705 0
M  V30 2503 C 238.146 -1.50463 -1.12883 0
M  V30 2504 O 237.504 -0.623619 -1.70237 0
M  V30 2505 C 237.552 -3.60277 0.152655 0
M  V30 2506 O 236.656 -4.02935 -0.87845 0
M  V30 2507 H 235.997 -0.655588 0.105359 0
M  V30 2508 H 238.527 -1.82475 0.925412 0
M  V30 2509 H 238.537 -4.07993 -0.0230675 0
M  V30 2510 H 237.212 -4.00346 1.12675 0
M  V30 2511 H 235.789 -3.66764 -0.673668 0
M  V30 2512 N 237.974 -0.419461 -1.51915 0
M  V30 2513 C 239.202 0.152136 -2.0634 0
M  V30 2514 C 239.617 1.37988 -1.28859 0
M  V30 2515 O 238.974 1.79243 -0.343232 0
M  V30 2516 C 239.025 0.492266 -3.58133 0
M  V30 2517 O 238.746 -0.686736 -4.32684 0
M  V30 2518 C 240.247 1.11648 -4.2901 0
M  V30 2519 H 237.467 0.0158325 -0.670813 0
M  V30 2520 H 240.011 -0.593394 -1.95702 0
M  V30 2521 H 238.166 1.18769 -3.68745 0
M  V30 2522 H 238.58 -0.400341 -5.2297 0
M  V30 2523 H 240.054 1.3046 -5.36362 0
M  V30 2524 H 240.531 2.09251 -3.86148 0
M  V30 2525 H 241.137 0.460958 -4.22795 0
M  V30 2526 N 239.452 1.56882 -0.150215 0
M  V30 2527 C 240.868 1.58263 0.20617 0
M  V30 2528 C 241.068 1.16464 1.64434 0
M  V30 2529 O 240.124 0.866422 2.3717 0
M  V30 2530 C 241.437 3.00649 -0.0555025 0
M  V30 2531 C 242.985 3.12999 0.00795388 0
M  V30 2532 C 243.46 4.5744 -0.226429 0
M  V30 2533 N 244.951 4.62875 -0.173469 0
M  V30 2534 C 245.686 5.72454 -0.329288 0
M  V30 2535 N 245.182 6.90669 -0.543005 0
M  V30 2536 N 246.975 5.61467 -0.266666 0
M  V30 2537 H 239.126 1.82345 -1.08922 0
M  V30 2538 H 241.389 0.844149 -0.431413 0
M  V30 2539 H 241.095 3.3563 -1.05096 0
M  V30 2540 H 240.969 3.71337 0.66246 0
M  V30 2541 H 243.356 2.77857 0.993966 0
M  V30 2542 H 243.437 2.4479 -0.742388 0
M  V30 2543 H 243.081 4.93287 -1.20956 0
M  V30 2544 H 243.011 5.2378 0.544274 0
M  V30 2545 H 245.502 3.77898 -0.0130709 0
M  V30 2546 H 245.815 7.70045 -0.651922 0
M  V30 2547 H 244.16 6.92581 -0.579366 0
M  V30 2548 H 247.351 4.67992 -0.100441 0
M  V30 2549 H 247.524 6.46816 -0.391535 0
M  V30 2550 N 240.93 -0.123565 1.57115 0
M  V30 2551 C 242.16 -0.845233 1.88519 0
M  V30 2552 C 242.568 -1.74168 0.739064 0
M  V30 2553 O 241.911 -1.81244 -0.299355 0
M  V30 2554 C 241.973 -1.73452 3.14888 0
M  V30 2555 C 241.637 -1.01285 4.45635 0
M  V30 2556 C 242.634 -0.355774 5.18681 0
M  V30 2557 C 240.319 -0.99538 4.92339 0
M  V30 2558 C 242.313 0.309114 6.3665 0
M  V30 2559 C 240 -0.32669 6.10226 0
M  V30 2560 C 240.998 0.324406 6.82229 0
M  V30 2561 O 240.686 0.982437 7.97874 0
M  V30 2562 H 240.418 -0.248534 0.628655 0
M  V30 2563 H 242.972 -0.113907 2.05084 0
M  V30 2564 H 241.202 -2.50737 2.94394 0
M  V30 2565 H 242.891 -2.33021 3.32349 0
M  V30 2566 H 243.657 -0.360918 4.83655 0
M  V30 2567 H 239.536 -1.49159 4.36202 0
M  V30 2568 H 243.08 0.8179 6.92789 0
M  V30 2569 H 238.977 -0.319294 6.4471 0
M  V30 2570 H 239.745 0.886454 8.13686 0
M  V30 2571 N 242.408 -1.52605 -0.393616 0
M  V30 2572 C 243.636 -1.71294 -1.16043 0
M  V30 2573 C 244.051 -0.429259 -1.83855 0
M  V30 2574 O 243.408 0.595921 -1.72496 0
M  V30 2575 C 243.459 -2.8593 -2.21193 0
M  V30 2576 O 243.18 -4.09329 -1.56146 0
M  V30 2577 C 244.681 -3.16259 -3.10636 0
M  V30 2578 H 241.901 -0.573641 -0.348104 0
M  V30 2579 H 244.445 -1.99234 -0.461092 0
M  V30 2580 H 242.6 -2.60465 -2.86769 0
M  V30 2581 H 243.014 -4.73323 -2.25978 0
M  V30 2582 H 244.488 -3.99946 -3.80456 0
M  V30 2583 H 244.965 -2.3045 -3.73884 0
M  V30 2584 H 245.571 -3.43547 -2.50711 0
M  V30 2585 N 243.887 0.651787 -1.4349 0
M  V30 2586 C 244.817 1.77621 -1.51569 0
M  V30 2587 C 245.798 1.66022 -0.370253 0
M  V30 2588 O 246.983 1.85095 -0.587658 0
M  V30 2589 C 244.113 3.16056 -1.43966 0
M  V30 2590 C 243.067 3.4242 -2.56774 0
M  V30 2591 C 242.393 4.8067 -2.34223 0
M  V30 2592 C 243.693 3.37023 -3.99015 0
M  V30 2593 H 245.387 1.71117 -2.45681 0
M  V30 2594 H 242.933 0.821825 -1.18246 0
M  V30 2595 H 244.886 3.94472 -1.48221 0
M  V30 2596 H 243.61 3.23293 -0.463586 0
M  V30 2597 H 242.269 2.66375 -2.51873 0
M  V30 2598 H 241.917 4.84585 -1.34856 0
M  V30 2599 H 241.617 4.9927 -3.09844 0
M  V30 2600 H 243.141 5.61342 -2.40265 0
M  V30 2601 H 244.555 4.05374 -4.05395 0
M  V30 2602 H 242.952 3.67159 -4.74673 0
M  V30 2603 H 244.022 2.3518 -4.2405 0
M  V30 2604 N 245.365 1.30045 0.890287 0
M  V30 2605 C 246.642 1.09227 1.62262 0
M  V30 2606 C 247.022 -0.360305 2.08002 0
M  V30 2607 O 246.37 -1.35084 1.84295 0
M  V30 2608 C 246.58 2.08835 2.79623 0
M  V30 2609 C 247.928 2.40266 3.50082 0
M  V30 2610 O 248.952 2.07104 2.89804 0
M  V30 2611 O 247.811 2.96967 4.58773 0
M  V30 2612 H 244.905 0.419132 0.712922 0
M  V30 2613 H 247.451 1.41451 0.937529 0
M  V30 2614 H 246.223 3.06633 2.43089 0
M  V30 2615 H 245.846 1.77397 3.55832 0
M  V30 2616 N 246.843 -1.10192 1.12674 0
M  V30 2617 C 248.09 -1.82205 0.883606 0
M  V30 2618 C 248.418 -1.8532 -0.590492 0
M  V30 2619 O 247.673 -1.31137 -1.45264 0
M  V30 2620 C 247.972 -3.28552 1.4067 0
M  V30 2621 C 247.638 -3.45582 2.89627 0
M  V30 2622 C 246.3 -3.49937 3.30299 0
M  V30 2623 C 248.652 -3.50768 3.85501 0
M  V30 2624 C 245.98 -3.57049 4.65546 0
M  V30 2625 C 248.332 -3.59414 5.20581 0
M  V30 2626 C 246.996 -3.62034 5.60792 0
M  V30 2627 H 246.266 -0.666735 0.323334 0
M  V30 2628 H 248.913 -1.29868 1.40736 0
M  V30 2629 H 247.218 -3.83473 0.80347 0
M  V30 2630 H 248.915 -3.82788 1.19475 0
M  V30 2631 H 245.505 -3.42871 2.57172 0
M  V30 2632 H 249.689 -3.46651 3.55171 0
M  V30 2633 H 244.945 -3.57361 4.96088 0
M  V30 2634 H 249.119 -3.62371 5.94693 0
M  V30 2635 H 246.746 -3.67298 6.6558 0
M  V30 2636 N 248.321 -0.919034 -1.28029 0
M  V30 2637 C 249.598 -0.473668 -1.89778 0
M  V30 2638 C 249.978 1.04783 -1.83259 0
M  V30 2639 O 249.326 1.8982 -1.27202 0
M  V30 2640 C 249.536 -1.00998 -3.34066 0
M  V30 2641 C 250.884 -1.06525 -4.1102 0
M  V30 2642 O 251.908 -0.958996 -3.43048 0
M  V30 2643 O 250.767 -1.22776 -5.3253 0
M  V30 2644 H 247.861 -0.15098 -0.813101 0
M  V30 2645 H 250.407 -1.01016 -1.36359 0
M  V30 2646 H 249.179 -2.05392 -3.33061 0
M  V30 2647 H 248.802 -0.454626 -3.94992 0
M  V30 2648 N 249.799 1.42003 -0.683588 0
M  V30 2649 C 251.215 1.55625 -0.353976 0
M  V30 2650 C 251.415 1.66151 1.14 0
M  V30 2651 O 250.471 1.63329 1.92561 0
M  V30 2652 C 251.784 2.80171 -1.092 0
M  V30 2653 C 253.332 2.93954 -1.07518 0
M  V30 2654 C 253.807 4.21372 -1.79471 0
M  V30 2655 N 255.298 4.28303 -1.76381 0
M  V30 2656 C 256.033 5.25729 -2.28904 0
M  V30 2657 N 255.529 6.29254 -2.89846 0
M  V30 2658 N 257.322 5.17586 -2.19228 0
M  V30 2659 H 249.473 1.33415 -1.6527 0
M  V30 2660 H 251.736 0.64282 -0.696769 0
M  V30 2661 H 251.442 2.78561 -2.14701 0
M  V30 2662 H 251.316 3.7133 -0.662862 0
M  V30 2663 H 253.703 2.95086 -0.028475 0
M  V30 2664 H 253.784 2.04002 -1.54328 0
M  V30 2665 H 253.428 4.21001 -2.84114 0
M  V30 2666 H 253.358 5.10275 -1.30104 0
M  V30 2667 H 255.849 3.54119 -1.31939 0
M  V30 2668 H 256.162 6.99964 -3.27522 0
M  V30 2669 H 254.507 6.29791 -2.93919 0
M  V30 2670 H 257.698 4.35631 -1.71299 0
M  V30 2671 H 257.871 5.93348 -2.60466 0
M  V30 2672 N 251.277 0.427512 1.51691 0
M  V30 2673 C 252.24 -0.377132 2.26076 0
M  V30 2674 C 253.24 -0.958089 1.29141 0
M  V30 2675 O 254.43 -0.83408 1.52934 0
M  V30 2676 C 251.562 -1.53262 3.04506 0
M  V30 2677 H 252.755 0.27464 2.9864 0
M  V30 2678 H 250.308 0.180445 1.55255 0
M  V30 2679 H 251.043 -2.22072 2.36335 0
M  V30 2680 H 250.828 -1.12232 3.75694 0
M  V30 2681 H 252.318 -2.10135 3.60878 0
M  V30 2682 N 252.755 -1.56801 0.158532 0
M  V30 2683 C 253.687 -2.14488 -0.807923 0
M  V30 2684 C 254.7 -1.09721 -1.20271 0
M  V30 2685 O 255.889 -1.36956 -1.14478 0
M  V30 2686 C 252.989 -2.66217 -2.09718 0
M  V30 2687 C 252.162 -3.95507 -1.86796 0
M  V30 2688 C 251.221 -4.3243 -2.99818 0
M  V30 2689 O 250.247 -5.00543 -2.71008 0
M  V30 2690 N 251.449 -3.92947 -4.27285 0
M  V30 2691 H 254.214 -2.98042 -0.314816 0
M  V30 2692 H 251.775 -1.61881 -0.0246692 0
M  V30 2693 H 253.767 -2.87924 -2.84398 0
M  V30 2694 H 252.337 -1.87324 -2.50257 0
M  V30 2695 H 251.557 -3.82309 -0.96089 0
M  V30 2696 H 252.845 -4.79972 -1.68833 0
M  V30 2697 H 252.243 -3.38087 -4.53557 0
M  V30 2698 H 250.8 -4.19681 -4.9871 0
M  V30 2699 N 254.233 0.115231 -1.57178 0
M  V30 2700 C 255.649 0.468877 -1.52557 0
M  V30 2701 C 255.849 1.81649 -0.872125 0
M  V30 2702 O 254.905 2.48347 -0.45606 0
M  V30 2703 C 256.218 0.4499 -2.97315 0
M  V30 2704 C 257.766 0.533185 -3.08425 0
M  V30 2705 C 258.241 0.54456 -4.54751 0
M  V30 2706 N 259.732 0.605892 -4.5922 0
M  V30 2707 C 260.467 0.636203 -5.6986 0
M  V30 2708 N 259.963 0.623931 -6.89985 0
M  V30 2709 N 261.756 0.679496 -5.57978 0
M  V30 2710 H 253.907 -0.767712 -1.9804 0
M  V30 2711 H 256.17 -0.283609 -0.904583 0
M  V30 2712 H 255.876 -0.472721 -3.48509 0
M  V30 2713 H 255.75 1.27632 -3.5495 0
M  V30 2714 H 258.137 1.44623 -2.57232 0
M  V30 2715 H 258.218 -0.320995 -2.53778 0
M  V30 2716 H 257.862 -0.364452 -5.06591 0
M  V30 2717 H 257.792 1.41568 -5.07214 0
M  V30 2718 H 260.283 0.621386 -3.72756 0
M  V30 2719 H 260.596 0.649787 -7.70063 0
M  V30 2720 H 258.941 0.591296 -6.9248 0
M  V30 2721 H 262.132 0.686472 -4.63039 0
M  V30 2722 H 262.305 0.69965 -6.44212 0
M  V30 2723 N 255.711 1.52812 0.385517 0
M  V30 2724 C 256.674 1.77188 1.45386 0
M  V30 2725 C 257.674 0.641953 1.4743 0
M  V30 2726 O 258.864 0.910033 1.4854 0
M  V30 2727 C 255.996 1.87582 2.8465 0
M  V30 2728 H 257.189 2.72583 1.25054 0
M  V30 2729 H 254.742 1.43586 0.617467 0
M  V30 2730 H 255.477 0.941849 3.10322 0
M  V30 2731 H 255.262 2.69748 2.84567 0
M  V30 2732 H 256.752 2.08102 3.62054 0
M  V30 2733 N 257.189 -0.644168 1.43834 0
M  V30 2734 C 258.429 -1.41565 1.47441 0
M  V30 2735 C 258.793 -1.91743 0.0992723 0
M  V30 2736 O 259.994 -2.68798 0.0100192 0
M  V30 2737 C 258.265 -2.55902 2.49498 0
M  V30 2738 S 259.824 -3.44287 2.72051 0
M  V30 2739 H 256.642 -0.483118 0.521649 0
M  V30 2740 H 259.244 -0.747008 1.80666 0
M  V30 2741 H 257.948 -2.17327 3.48134 0
M  V30 2742 H 257.479 -3.27607 2.17801 0
M  V30 2743 H 259.494 -4.52927 2.0266 0
M  V30 2744 N 258.668 -1.30515 -0.883378 0
M  V30 2745 C 259.598 -1.19607 -2.00541 0
M  V30 2746 C 260.579 -0.086346 -1.69881 0
M  V30 2747 O 261.764 -0.268654 -1.92333 0
M  V30 2748 C 258.894 -0.888758 -3.35736 0
M  V30 2749 C 257.848 -1.95659 -3.8066 0
M  V30 2750 C 257.174 -1.50224 -5.13164 0
M  V30 2751 C 258.474 -3.36788 -3.99213 0
M  V30 2752 H 260.168 -2.13476 -2.09925 0
M  V30 2753 H 257.714 -1.02775 -1.00863 0
M  V30 2754 H 259.667 -0.799094 -4.13754 0
M  V30 2755 H 258.391 0.0856125 -3.26488 0
M  V30 2756 H 257.05 -2.03591 -3.04871 0
M  V30 2757 H 256.698 -0.516092 -5.00345 0
M  V30 2758 H 256.398 -2.2165 -5.44192 0
M  V30 2759 H 257.922 -1.42639 -5.93706 0
M  V30 2760 H 259.336 -3.31605 -4.67665 0
M  V30 2761 H 257.733 -4.06314 -4.41621 0
M  V30 2762 H 258.803 -3.78561 -3.03017 0
M  V30 2763 N 260.146 1.09593 -1.13257 0
M  V30 2764 C 261.078 2.16015 -0.766167 0
M  V30 2765 C 262.091 1.61423 0.211303 0
M  V30 2766 O 263.28 1.78498 -0.00863946 0
M  V30 2767 C 260.38 3.38706 -0.114662 0
M  V30 2768 C 259.553 4.22717 -1.12379 0
M  V30 2769 C 258.612 5.23835 -0.498301 0
M  V30 2770 O 257.638 5.573 -1.15781 0
M  V30 2771 N 258.84 5.75886 0.730417 0
M  V30 2772 H 261.605 2.48055 -1.68193 0
M  V30 2773 H 259.166 1.25292 -1.02535 0
M  V30 2774 H 261.158 4.03464 0.315991 0
M  V30 2775 H 259.728 3.04569 0.704011 0
M  V30 2776 H 258.948 3.54122 -1.73179 0
M  V30 2777 H 260.236 4.75673 -1.80589 0
M  V30 2778 H 259.634 5.50911 1.28504 0
M  V30 2779 H 258.191 6.42387 1.10376 0
M  V30 2780 N 261.624 0.925811 1.2754 0
M  V30 2781 C 262.572 0.413897 2.28888 0
M  V30 2782 C 263.566 -0.500779 1.61829 0
M  V30 2783 O 264.772 -0.38069 1.75928 0
M  V30 2784 H 261.147 0.115274 0.743112 0
M  V30 2785 H 263.118 1.28151 2.69481 0
M  V30 2786 C 261.867 -0.319792 3.46226 0
M  V30 2787 H 261.19 0.374846 3.98039 0
M  V30 2788 H 262.63 -0.642435 4.19105 0
M  V30 2789 C 261.089 -1.53209 3.00048 0
M  V30 2790 O 261.619 -2.6309 3.03557 0
M  V30 2791 N 259.825 -1.38326 2.55566 0
M  V30 2792 H 259.372 -0.489292 2.5291 0
M  V30 2793 H 259.33 -2.19564 2.25031 0
M  V30 2794 N 263.102 -1.41638 0.69111 0
M  V30 2795 C 264.327 -2.06148 0.227583 0
M  V30 2796 C 264.752 -1.51652 -1.11281 0
M  V30 2797 O 264.11 -0.64164 -1.69566 0
M  V30 2798 C 264.158 -3.60095 0.190858 0
M  V30 2799 O 263.262 -4.03845 -0.835664 0
M  V30 2800 H 262.603 -0.654434 0.112306 0
M  V30 2801 H 265.133 -1.81484 0.944714 0
M  V30 2802 H 265.143 -4.07995 0.020207 0
M  V30 2803 H 263.818 -3.99129 1.16915 0
M  V30 2804 H 262.395 -3.67458 -0.63473 0
M  V30 2805 N 264.58 -0.43555 -1.51462 0
M  V30 2806 C 265.543 0.365137 -2.26273 0
M  V30 2807 C 266.543 0.951227 -1.29647 0
M  V30 2808 O 267.733 0.825958 -1.53374 0
M  V30 2809 C 264.865 1.51645 -3.05314 0
M  V30 2810 H 266.058 -0.290474 -2.9849 0
M  V30 2811 H 263.611 -0.188676 -1.55157 0
M  V30 2812 H 264.346 2.20816 -2.3751 0
M  V30 2813 H 264.131 1.10238 -3.76284 0
M  V30 2814 H 265.621 2.08218 -3.61987 0
M  V30 2815 N 266.058 1.56714 -0.166846 0
M  V30 2816 C 267.307 1.95922 0.479318 0
M  V30 2817 C 267.62 1.05529 1.6469 0
M  V30 2818 O 268.826 1.34399 2.35901 0
M  V30 2819 C 267.282 3.48359 0.90412 0
M  V30 2820 C 266.89 4.47369 -0.237621 0
M  V30 2821 C 268.634 3.96394 1.51896 0
M  V30 2822 C 266.541 5.91039 0.206561 0
M  V30 2823 H 265.471 0.731495 0.18284 0
M  V30 2824 H 268.122 1.81728 -0.254363 0
M  V30 2825 H 266.504 3.57955 1.69365 0
M  V30 2826 H 267.678 4.49485 -1.01489 0
M  V30 2827 H 265.993 4.09366 -0.762128 0
M  V30 2828 H 268.59 5.01186 1.86325 0
M  V30 2829 H 268.933 3.39075 2.41524 0
M  V30 2830 H 269.466 3.89796 0.79395 0
M  V30 2831 H 266.205 6.52221 -0.654834 0
M  V30 2832 H 265.725 5.9224 0.949282 0
M  V30 2833 H 267.404 6.43707 0.651939 0
M  V30 2834 N 267.536 -0.106894 1.57237 0
M  V30 2835 C 268.785 -0.811163 1.8467 0
M  V30 2836 C 269.098 -1.80469 0.754342 0
M  V30 2837 O 270.304 -2.55601 0.915439 0
M  V30 2838 C 268.76 -1.49337 3.27454 0
M  V30 2839 C 268.368 -0.540217 4.44731 0
M  V30 2840 C 270.112 -2.18206 3.64124 0
M  V30 2841 C 268.019 -1.22634 5.78545 0
M  V30 2842 H 266.949 -0.306679 0.688813 0
M  V30 2843 H 269.6 -0.0639887 1.83388 0
M  V30 2844 H 267.982 -2.2876 3.23241 0
M  V30 2845 H 269.156 0.221659 4.60267 0
M  V30 2846 H 267.471 0.042146 4.16379 0
M  V30 2847 H 270.068 -2.70253 4.61376 0
M  V30 2848 H 270.411 -2.96562 2.92158 0
M  V30 2849 H 270.944 -1.45658 3.70174 0
M  V30 2850 H 267.683 -0.483832 6.53712 0
M  V30 2851 H 267.203 -1.95993 5.66874 0
M  V30 2852 H 268.882 -1.75615 6.2271 0
M  V30 2853 N 269.014 -1.53014 -0.377408 0
M  V30 2854 C 269.977 -1.77957 -1.44444 0
M  V30 2855 C 270.977 -0.649763 -1.47087 0
M  V30 2856 O 272.167 -0.917897 -1.48055 0
M  V30 2857 C 269.299 -1.89089 -2.83651 0
M  V30 2858 H 270.492 -2.73243 -1.23606 0
M  V30 2859 H 268.045 -1.43912 -0.609844 0
M  V30 2860 H 268.78 -0.958293 -3.09818 0
M  V30 2861 H 268.565 -2.71254 -2.83132 0
M  V30 2862 H 270.055 -2.1002 -3.60945 0
M  V30 2863 N 270.492 0.636531 -1.44174 0
M  V30 2864 C 271.72 1.42353 -1.50144 0
M  V30 2865 C 272.135 1.88389 -0.124575 0
M  V30 2866 O 271.492 1.6051 0.868489 0
M  V30 2867 C 271.543 2.64744 -2.46156 0
M  V30 2868 O 271.264 2.20629 -3.7849 0
M  V30 2869 C 272.765 3.57929 -2.61537 0
M  V30 2870 H 269.985 0.436752 -0.5094 0
M  V30 2871 H 272.529 0.778933 -1.89084 0
M  V30 2872 H 270.684 3.25307 -2.10366 0
M  V30 2873 H 271.098 2.99938 -4.30276 0
M  V30 2874 H 272.572 4.40428 -3.32757 0
M  V30 2875 H 273.049 4.06382 -1.66585 0
M  V30 2876 H 273.655 3.03238 -2.98206 0
M  V30 2877 N 271.97 1.30982 0.876444 0
M  V30 2878 C 273.381 1.18277 1.44456 0
M  V30 2879 C 273.732 -0.213265 1.95037 0
M  V30 2880 O 272.857 -1.11057 1.85729 0
M  V30 2881 C 273.452 2.1411 2.62569 0
M  V30 2882 C 272.011 2.05358 3.15444 0
M  V30 2883 C 271.158 2.03706 1.88146 0
M  V30 2884 H 274.109 1.43127 0.685584 0
M  V30 2885 H 274.13 1.72692 3.39054 0
M  V30 2886 H 273.642 3.15706 2.25724 0
M  V30 2887 H 271.743 1.06934 3.56926 0
M  V30 2888 H 271.856 2.94156 3.78166 0
M  V30 2889 H 270.22 1.48629 2.06837 0
M  V30 2890 H 271.003 3.07047 1.53547 0
M  V30 2891 N 273.449 -1.08991 1.13837 0
M  V30 2892 C 274.359 -2.19301 0.833333 0
M  V30 2893 C 275.375 -1.73026 -0.183847 0
M  V30 2894 O 276.551 -2.01395 -0.0138092 0
M  V30 2895 C 273.616 -3.45323 0.308651 0
M  V30 2896 C 272.677 -4.06255 1.38764 0
M  V30 2897 C 271.91 -5.26262 0.887896 0
M  V30 2898 O 272.133 -5.69747 -0.27287 0
M  V30 2899 O 271.067 -5.78435 1.66421 0
M  V30 2900 H 274.893 -2.47854 1.75506 0
M  V30 2901 H 272.478 -1.18012 0.916166 0
M  V30 2902 H 274.36 -4.21394 0.0216739 0
M  V30 2903 H 273.035 -3.18362 -0.585431 0
M  V30 2904 H 271.942 -3.318 1.72799 0
M  V30 2905 H 273.275 -4.37452 2.25602 0
M  V30 2906 N 274.927 -0.932562 -1.27047 0
M  V30 2907 C 275.859 -0.392734 -2.2581 0
M  V30 2908 C 276.872 0.479241 -1.55586 0
M  V30 2909 O 278.061 0.291078 -1.76111 0
M  V30 2910 C 275.161 0.455456 -3.35826 0
M  V30 2911 C 274.334 -0.398355 -4.35582 0
M  V30 2912 C 273.393 0.387985 -5.24768 0
M  V30 2913 O 272.419 -0.206003 -5.68827 0
M  V30 2914 N 273.621 1.68664 -5.55457 0
M  V30 2915 H 276.386 -1.24173 -2.72766 0
M  V30 2916 H 273.947 -0.800511 -1.40725 0
M  V30 2917 H 275.939 0.988692 -3.92437 0
M  V30 2918 H 274.509 1.20522 -2.88432 0
M  V30 2919 H 273.729 -1.11286 -3.78165 0
M  V30 2920 H 275.017 -0.981889 -4.99236 0
M  V30 2921 H 274.415 2.19147 -5.21528 0
M  V30 2922 H 272.972 2.1663 -6.14748 0
M  V30 2923 N 276.405 1.4127 -0.698611 0
M  V30 2924 C 277.335 2.33447 -0.049629 0
M  V30 2925 C 278.316 1.51982 0.763898 0
M  V30 2926 O 279.501 1.80509 0.716257 0
M  V30 2927 C 276.631 3.35828 0.885267 0
M  V30 2928 C 275.585 4.27627 0.178613 0
M  V30 2929 C 274.911 5.20406 1.22807 0
M  V30 2930 C 276.211 5.13459 -0.956933 0
M  V30 2931 H 277.905 2.87966 -0.81951 0
M  V30 2932 H 275.451 1.38461 -0.395538 0
M  V30 2933 H 277.404 3.9924 1.34854 0
M  V30 2934 H 276.128 2.79666 1.68685 0
M  V30 2935 H 274.787 3.65643 -0.26466 0
M  V30 2936 H 274.435 4.60558 2.02226 0
M  V30 2937 H 274.135 5.82661 0.760239 0
M  V30 2938 H 275.659 5.86695 1.69179 0
M  V30 2939 H 277.073 5.70421 -0.573805 0
M  V30 2940 H 275.47 5.8467 -1.35205 0
M  V30 2941 H 276.54 4.50443 -1.79524 0
M  V30 2942 N 277.883 0.443576 1.51229 0
M  V30 2943 C 278.815 -0.400608 2.25672 0
M  V30 2944 C 279.828 -0.980945 1.29928 0
M  V30 2945 O 281.017 -0.874024 1.55638 0
M  V30 2946 C 278.117 -1.57304 3.00181 0
M  V30 2947 C 277.29 -1.11046 4.23069 0
M  V30 2948 C 276.349 -2.15374 4.80105 0
M  V30 2949 O 275.375 -1.74554 5.41774 0
M  V30 2950 N 276.577 -3.47922 4.64683 0
M  V30 2951 H 279.342 0.23745 2.98758 0
M  V30 2952 H 276.903 0.272809 1.59585 0
M  V30 2953 H 278.895 -2.26733 3.35223 0
M  V30 2954 H 277.465 -2.11632 2.30066 0
M  V30 2955 H 276.685 -0.243019 3.9345 0
M  V30 2956 H 277.973 -0.778888 5.02803 0
M  V30 2957 H 277.371 -3.83815 4.15575 0
M  V30 2958 H 275.928 -4.13228 5.0407 0
M  V30 2959 N 279.361 -1.56624 0.175154 0
M  V30 2960 C 280.324 -2.16934 -0.739738 0
M  V30 2961 C 281.324 -1.11842 -1.15533 0
M  V30 2962 O 282.514 -1.37335 -1.07167 0
M  V30 2963 C 279.646 -2.75531 -2.00738 0
M  V30 2964 H 280.839 -2.99131 -0.214639 0
M  V30 2965 H 278.392 -1.56123 -0.0744197 0
M  V30 2966 H 279.127 -1.97078 -2.57548 0
M  V30 2967 H 278.912 -3.52444 -1.71831 0
M  V30 2968 H 280.402 -3.21904 -2.66021 0
M  V30 2969 N 280.839 0.0985539 -1.57292 0
M  V30 2970 C 281.802 1.10402 -2.00858 0
M  V30 2971 C 282.802 1.33146 -0.901593 0
M  V30 2972 O 283.992 1.29318 -1.16716 0
M  V30 2973 C 281.124 2.45394 -2.36632 0
M  V30 2974 H 282.317 0.729099 -2.90902 0
M  V30 2975 H 279.87 0.343495 -1.52479 0
M  V30 2976 H 280.605 2.87769 -1.49531 0
M  V30 2977 H 280.39 2.30235 -3.17387 0
M  V30 2978 H 281.88 3.17718 -2.71007 0
M  V30 2979 N 282.317 1.53212 0.369288 0
M  V30 2980 C 283.547 1.72868 1.13139 0
M  V30 2981 C 283.955 0.455754 1.83629 0
M  V30 2982 O 283.298 -0.580861 1.74275 0
M  V30 2983 C 283.36 2.83667 2.20847 0
M  V30 2984 C 283.024 4.24142 1.70155 0
M  V30 2985 C 284.021 5.06619 1.16763 0
M  V30 2986 C 281.706 4.70539 1.7578 0
M  V30 2987 C 283.7 6.33581 0.696678 0
M  V30 2988 C 281.387 5.97481 1.28297 0
M  V30 2989 C 282.385 6.78833 0.753307 0
M  V30 2990 O 282.073 8.03393 0.285475 0
M  V30 2991 H 281.805 0.581707 0.344373 0
M  V30 2992 H 284.359 2.00736 0.435243 0
M  V30 2993 H 282.589 2.51265 2.93944 0
M  V30 2994 H 284.278 2.91536 2.82421 0
M  V30 2995 H 285.044 4.71948 1.11758 0
M  V30 2996 H 280.923 4.07293 2.15949 0
M  V30 2997 H 284.467 6.97027 0.282581 0
M  V30 2998 H 280.364 6.31651 1.32994 0
M  V30 2999 H 281.132 8.17497 0.405145 0
M  V30 3000 N 283.795 -0.628877 1.44509 0
M  V30 3001 C 284.705 -1.7694 1.54044 0
M  V30 3002 C 285.721 -1.68705 0.425987 0
M  V30 3003 O 286.897 -1.89442 0.683656 0
M  V30 3004 C 283.962 -3.13332 1.48405 0
M  V30 3005 C 283.023 -3.33181 2.70719 0
M  V30 3006 C 282.256 -4.63067 2.6534 0
M  V30 3007 O 282.479 -5.44017 1.71469 0
M  V30 3008 O 281.413 -4.85167 3.56226 0
M  V30 3009 H 285.239 -1.71848 2.50403 0
M  V30 3010 H 282.824 -0.790378 1.26781 0
M  V30 3011 H 284.706 -3.94634 1.47791 0
M  V30 3012 H 283.381 -3.1896 0.551898 0
M  V30 3013 H 282.288 -2.51549 2.769 0
M  V30 3014 H 283.621 -3.32416 3.62988 0
M  V30 3015 N 285.273 -1.31445 -0.869486 0
M  V30 3016 C 286.55 -1.11795 -1.60503 0
M  V30 3017 C 286.93 0.327168 -2.08549 0
M  V30 3018 O 286.278 1.32135 -1.8642 0
M  V30 3019 C 286.488 -2.13258 -2.76265 0
M  V30 3020 C 287.836 -2.45805 -3.46215 0
M  V30 3021 O 288.86 -2.11688 -2.86473 0
M  V30 3022 O 287.719 -3.04228 -4.5399 0
M  V30 3023 H 284.813 -0.430421 -0.706163 0
M  V30 3024 H 287.359 -1.42925 -0.914907 0
M  V30 3025 H 286.131 -3.10461 -2.3818 0
M  V30 3026 H 285.754 -1.83035 -3.52964 0
M  V30 3027 N 286.751 1.08385 -1.14413 0
M  V30 3028 C 287.999 1.80419 -0.910679 0
M  V30 3029 C 288.32 1.86658 0.564243 0
M  V30 3030 O 287.59 1.35985 1.41014 0
M  V30 3031 H 286.17 0.668204 -0.333934 0
M  V30 3032 H 288.832 1.31037 -1.44275 0
M  V30 3033 H 287.928 2.83238 -1.31082 0
M  V30 3034 N 288.23 0.939286 1.26551 0
M  V30 3035 C 289.477 0.585847 1.9384 0
M  V30 3036 C 289.805 -0.874784 1.73718 0
M  V30 3037 O 289.06 -1.64092 1.06642 0
M  V30 3038 C 289.359 0.872106 3.46596 0
M  V30 3039 C 289.025 2.31632 3.86856 0
M  V30 3040 C 287.687 2.71111 3.97558 0
M  V30 3041 C 290.039 3.25494 4.07066 0
M  V30 3042 C 287.367 4.03553 4.25866 0
M  V30 3043 C 289.719 4.57531 4.36862 0
M  V30 3044 C 288.383 4.96828 4.45778 0
M  V30 3045 H 287.653 0.214377 0.709312 0
M  V30 3046 H 290.3 1.18544 1.50398 0
M  V30 3047 H 288.605 0.18996 3.91339 0
M  V30 3048 H 290.302 0.577442 3.96821 0
M  V30 3049 H 286.892 2.00008 3.79071 0
M  V30 3050 H 291.076 2.9619 3.98227 0
M  V30 3051 H 286.332 4.33665 4.30981 0
M  V30 3052 H 290.506 5.30254 4.51446 0
M  V30 3053 H 288.133 5.99482 4.67468 0
M  V30 3054 N 289.708 -1.40897 0.706093 0
M  V30 3055 C 290.658 -2.27987 0.0240746 0
M  V30 3056 C 291.642 -1.42759 -0.742204 0
M  V30 3057 O 292.834 -1.65936 -0.615966 0
M  V30 3058 C 289.963 -3.31186 -0.903907 0
M  V30 3059 C 289.049 -4.2389 -0.133318 0
M  V30 3060 N 289.44 -4.98113 0.878444 0
M  V30 3061 C 287.738 -4.44485 -0.367269 0
M  V30 3062 C 288.439 -5.6604 1.34064 0
M  V30 3063 N 287.415 -5.39522 0.664565 0
M  V30 3064 H 291.217 -2.82812 0.799658 0
M  V30 3065 H 288.731 -1.53235 0.537845 0
M  V30 3066 H 290.728 -3.92413 -1.40775 0
M  V30 3067 H 289.388 -2.77922 -1.67897 0
M  V30 3068 H 290.399 -5.02364 1.25901 0
M  V30 3069 H 287.076 -4.02213 -1.1194 0
M  V30 3070 H 288.466 -6.35524 2.1808 0
M  V30 3071 N 291.186 -0.45159 -1.50991 0
M  V30 3072 C 292.118 0.388634 -2.25881 0
M  V30 3073 C 293.131 0.974041 -1.30446 0
M  V30 3074 O 294.32 0.865758 -1.56099 0
M  V30 3075 C 291.42 1.5571 -3.01011 0
M  V30 3076 C 290.593 1.08801 -4.23652 0
M  V30 3077 C 289.652 2.12825 -4.8124 0
M  V30 3078 O 288.678 1.71678 -5.42693 0
M  V30 3079 N 289.88 3.45453 -4.66522 0
M  V30 3080 H 292.645 -0.25329 -2.98628 0
M  V30 3081 H 290.206 -0.281268 -1.59438 0
M  V30 3082 H 292.198 2.24952 -3.3642 0
M  V30 3083 H 290.768 2.10409 -2.31186 0
M  V30 3084 H 289.988 0.22215 -3.93574 0
M  V30 3085 H 291.276 0.752213 -5.03209 0
M  V30 3086 H 290.674 3.81605 -4.17605 0
M  V30 3087 H 289.231 4.10549 -5.06254 0
M  V30 3088 N 292.664 1.56529 -0.183458 0
M  V30 3089 C 293.904 1.99141 0.460667 0
M  V30 3090 C 294.268 1.06736 1.59597 0
M  V30 3091 O 295.469 1.38538 2.30349 0
M  V30 3092 C 293.74 3.45358 0.919939 0
M  V30 3093 S 295.299 4.09999 1.56354 0
M  V30 3094 H 292.117 0.695479 0.147748 0
M  V30 3095 H 294.719 1.93429 -0.283782 0
M  V30 3096 H 293.423 4.10315 0.0834208 0
M  V30 3097 H 292.954 3.54862 1.69814 0
M  V30 3098 H 294.969 4.06046 2.85203 0
M  V30 3099 N 294.142 -0.090211 1.57342 0
M  V30 3100 C 295.419 -0.824761 1.77361 0
M  V30 3101 C 295.799 -1.96698 0.76637 0
M  V30 3102 O 295.147 -2.27586 -0.204179 0
M  V30 3103 C 295.357 -1.31481 3.23286 0
M  V30 3104 C 296.705 -1.75563 3.86604 0
M  V30 3105 O 297.729 -1.41093 3.27065 0
M  V30 3106 O 296.588 -2.39317 4.91314 0
M  V30 3107 H 293.682 -0.393776 0.727234 0
M  V30 3108 H 296.228 -0.0717138 1.69548 0
M  V30 3109 H 295 -0.496671 3.88135 0
M  V30 3110 H 294.623 -2.12973 3.35751 0
M  V30 3111 N 295.62 -1.53406 -0.361157 0
M  V30 3112 C 296.583 -1.79479 -1.42548 0
M  V30 3113 C 297.583 -0.665327 -1.4639 0
M  V30 3114 O 298.773 -0.933549 -1.47073 0
M  V30 3115 C 295.905 -1.92087 -2.8163 0
M  V30 3116 H 297.098 -2.74538 -1.20701 0
M  V30 3117 H 294.651 -1.4455 -0.594546 0
M  V30 3118 H 295.386 -0.991099 -3.08784 0
M  V30 3119 H 295.171 -2.74241 -2.80239 0
M  V30 3120 H 296.661 -2.13836 -3.58697 0
M  V30 3121 N 297.098 0.621204 -1.44841 0
M  V30 3122 C 298.346 1.37783 -1.47852 0
M  V30 3123 C 298.667 1.94653 -0.116224 0
M  V30 3124 O 297.937 1.76367 0.852737 0
M  V30 3125 H 296.517 0.511453 -0.544449 0
M  V30 3126 H 299.179 0.730446 -1.80694 0
M  V30 3127 H 298.275 2.20414 -2.20961 0
M  V30 3128 N 298.576 1.31904 0.862503 0
M  V30 3129 C 299.822 1.23207 1.61838 0
M  V30 3130 C 300.177 -0.206062 1.91293 0
M  V30 3131 O 299.47 -1.14162 1.53875 0
M  V30 3132 C 299.664 2.01713 2.95037 0
M  V30 3133 C 299.493 3.53014 2.78588 0
M  V30 3134 C 298.263 4.22359 2.77382 0
M  V30 3135 C 300.461 4.47819 2.52909 0
M  V30 3136 N 298.443 5.59766 2.52062 0
M  V30 3137 C 299.814 5.72947 2.36922 0
M  V30 3138 C 301.869 4.37162 2.38314 0
M  V30 3139 C 300.572 6.88623 2.07823 0
M  V30 3140 C 302.598 5.5263 2.10604 0
M  V30 3141 C 301.96 6.76752 1.95411 0
M  V30 3142 H 298.059 0.505984 0.596242 0
M  V30 3143 H 300.643 1.66179 1.01452 0
M  V30 3144 H 298.814 1.61098 3.53415 0
M  V30 3145 H 300.546 1.84975 3.59953 0
M  V30 3146 H 297.301 3.74401 2.90036 0
M  V30 3147 H 297.725 6.32135 2.42352 0
M  V30 3148 H 302.367 3.41857 2.48784 0
M  V30 3149 H 300.085 7.83948 1.9609 0
M  V30 3150 H 303.671 5.46307 2.00101 0
M  V30 3151 H 302.551 7.6459 1.74274 0
M  V30 3152 N 300.054 -1.07777 1.14986 0
M  V30 3153 C 300.984 -2.16865 0.865557 0
M  V30 3154 C 301.965 -1.69123 -0.182083 0
M  V30 3155 O 303.15 -1.94164 -0.0373815 0
M  V30 3156 C 300.28 -3.45539 0.349313 0
M  V30 3157 C 299.234 -4.06708 1.33313 0
M  V30 3158 C 298.56 -5.30411 0.675918 0
M  V30 3159 C 299.86 -4.47241 2.69764 0
M  V30 3160 H 301.554 -2.40905 1.77778 0
M  V30 3161 H 299.1 -1.15781 0.856203 0
M  V30 3162 H 301.053 -4.21174 0.137983 0
M  V30 3163 H 299.777 -3.21072 -0.598362 0
M  V30 3164 H 298.436 -3.33112 1.53075 0
M  V30 3165 H 298.084 -5.02232 -0.277767 0
M  V30 3166 H 297.784 -5.72293 1.33244 0
M  V30 3167 H 299.308 -6.08755 0.474262 0
M  V30 3168 H 300.722 -5.14025 2.53873 0
M  V30 3169 H 299.119 -5.00062 3.3175 0
M  V30 3170 H 300.189 -3.58818 3.26156 0
M  V30 3171 N 301.532 -0.945985 -1.26051 0
M  V30 3172 C 302.495 -0.463897 -2.24456 0
M  V30 3173 C 303.495 0.427655 -1.55009 0
M  V30 3174 O 304.685 0.226157 -1.72726 0
M  V30 3175 C 301.817 0.330812 -3.39291 0
M  V30 3176 H 303.01 -1.33357 -2.68619 0
M  V30 3177 H 300.563 -0.728416 -1.38289 0
M  V30 3178 H 301.298 1.21852 -3.00537 0
M  V30 3179 H 301.083 -0.308679 -3.90883 0
M  V30 3180 H 302.573 0.657865 -4.12386 0
M  V30 3181 N 303.011 1.40521 -0.713556 0
M  V30 3182 C 304.288 1.94775 -0.17943 0
M  V30 3183 C 304.668 1.65184 1.31444 0
M  V30 3184 O 304.016 0.968429 2.06963 0
M  V30 3185 C 304.226 3.45543 -0.489986 0
M  V30 3186 C 305.574 4.22442 -0.427536 0
M  V30 3187 O 306.598 3.53644 -0.425929 0
M  V30 3188 O 305.457 5.4501 -0.403292 0
M  V30 3189 H 302.551 0.826606 -0.0255192 0
M  V30 3190 H 305.097 1.5014 -0.790949 0
M  V30 3191 H 303.869 3.60432 -1.5233 0
M  V30 3192 H 303.492 3.97311 0.151598 0
M  V30 3193 N 304.489 0.459591 1.5075 0
M  V30 3194 C 305.421 -0.37665 2.26084 0
M  V30 3195 C 306.434 -0.967109 1.30961 0
M  V30 3196 O 307.623 -0.857468 1.56556 0
M  V30 3197 C 304.723 -1.54112 3.01832 0
M  V30 3198 C 303.896 -1.06553 4.24223 0
M  V30 3199 C 302.955 -2.1027 4.82362 0
M  V30 3200 O 301.981 -1.68798 5.43595 0
M  V30 3201 N 303.183 -3.42974 4.68347 0
M  V30 3202 H 305.948 0.269124 2.98489 0
M  V30 3203 H 303.509 0.28972 1.59287 0
M  V30 3204 H 305.501 -2.23165 3.37608 0
M  V30 3205 H 304.071 -2.0918 2.32298 0
M  V30 3206 H 303.291 -0.201274 3.93686 0
M  V30 3207 H 304.579 -0.725516 5.03601 0
M  V30 3208 H 303.977 -3.79385 4.19623 0
M  V30 3209 H 302.534 -4.07858 5.08424 0
M  V30 3210 N 305.967 -1.56429 0.191757 0
M  V30 3211 C 307.195 -2.01867 -0.453586 0
M  V30 3212 C 307.61 -1.07191 -1.5542 0
M  V30 3213 O 306.967 -0.0762108 -1.82341 0
M  V30 3214 C 307.018 -3.47017 -1.013 0
M  V30 3215 O 306.739 -4.38078 0.0437005 0
M  V30 3216 C 308.24 -4.07956 -1.73456 0
M  V30 3217 H 305.46 -0.661211 -0.114199 0
M  V30 3218 H 308.004 -2.02295 0.299483 0
M  V30 3219 H 306.159 -3.47298 -1.71647 0
M  V30 3220 H 306.573 -5.23178 -0.372212 0
M  V30 3221 H 308.047 -5.1138 -2.07833 0
M  V30 3222 H 308.524 -3.51222 -2.63704 0
M  V30 3223 H 309.13 -4.11437 -1.07702 0
M  V30 3224 N 307.445 0.0818655 -1.57387 0
M  V30 3225 C 308.691 0.784074 -1.8703 0
M  V30 3226 C 309.024 1.77729 -0.782689 0
M  V30 3227 O 308.299 1.93384 0.208051 0
M  V30 3228 C 308.582 1.50105 -3.27323 0
M  V30 3229 C 308.435 0.524925 -4.46727 0
M  V30 3230 C 309.754 2.44843 -3.65705 0
M  V30 3231 H 306.873 0.283582 -0.680257 0
M  V30 3232 H 309.515 0.0474352 -1.89941 0
M  V30 3233 H 307.665 2.12897 -3.24972 0
M  V30 3234 H 309.337 -0.0970111 -4.61198 0
M  V30 3235 H 307.58 -0.160606 -4.33503 0
M  V30 3236 H 308.251 1.064 -5.41648 0
M  V30 3237 H 310.727 1.92135 -3.69085 0
M  V30 3238 H 309.603 2.92018 -4.64776 0
M  V30 3239 H 309.864 3.29197 -2.95096 0
M  V30 3240 N 308.923 1.53595 0.353017 0
M  V30 3241 C 310.339 1.43648 0.695516 0
M  V30 3242 C 310.539 0.585617 1.92802 0
M  V30 3243 O 309.595 0.0729223 2.52395 0
M  V30 3244 C 310.908 2.8701 0.896991 0
M  V30 3245 C 312.456 2.96723 0.996209 0
M  V30 3246 C 312.931 4.41173 1.23007 0
M  V30 3247 N 314.422 4.44657 1.29749 0
M  V30 3248 C 315.157 5.53547 1.49577 0
M  V30 3249 N 314.653 6.72461 1.66639 0
M  V30 3250 N 316.446 5.41145 1.52048 0
M  V30 3251 H 308.597 2.07415 -0.457481 0
M  V30 3252 H 310.86 0.9372 -0.142687 0
M  V30 3253 H 310.566 3.51644 0.0629938 0
M  V30 3254 H 310.44 3.31401 1.80148 0
M  V30 3255 H 312.827 2.32235 1.82074 0
M  V30 3256 H 312.908 2.55707 0.0688331 0
M  V30 3257 H 312.552 5.06238 0.410505 0
M  V30 3258 H 312.482 4.79772 2.17086 0
M  V30 3259 H 314.973 3.58963 1.18126 0
M  V30 3260 H 315.286 7.51214 1.81378 0
M  V30 3261 H 313.631 6.75423 1.63794 0
M  V30 3262 H 316.822 4.47205 1.38294 0
M  V30 3263 H 316.995 6.26068 1.67159 0
M  V30 3264 N 310.401 -0.613514 1.45168 0
M  V30 3265 C 311.631 -1.39743 1.52169 0
M  V30 3266 C 312.039 -1.88596 0.151086 0
M  V30 3267 O 311.382 -1.6251 -0.856521 0
M  V30 3268 C 311.444 -2.64035 2.43979 0
M  V30 3269 C 311.108 -2.36861 3.90827 0
M  V30 3270 C 312.105 -1.97591 4.80889 0
M  V30 3271 C 309.79 -2.49956 4.35692 0
M  V30 3272 C 311.784 -1.71768 6.1382 0
M  V30 3273 C 309.471 -2.23747 5.68665 0
M  V30 3274 C 310.469 -1.84714 6.57548 0
M  V30 3275 O 310.157 -1.58809 7.88058 0
M  V30 3276 H 309.889 -0.434382 0.517966 0
M  V30 3277 H 312.443 -0.75587 1.90986 0
M  V30 3278 H 310.673 -3.3089 2.00122 0
M  V30 3279 H 312.362 -3.26069 2.41731 0
M  V30 3280 H 313.128 -1.87015 4.47493 0
M  V30 3281 H 309.007 -2.79305 3.66756 0
M  V30 3282 H 312.551 -1.41227 6.83155 0
M  V30 3283 H 308.448 -2.33938 6.01617 0
M  V30 3284 H 309.216 -1.7291 8.00028 0
M  V30 3285 N 311.879 -1.3236 -0.855495 0
M  V30 3286 C 313.29 -1.2056 -1.42556 0
M  V30 3287 C 313.641 0.182209 -1.95352 0
M  V30 3288 O 312.766 1.08088 -1.87472 0
M  V30 3289 C 313.361 -2.1826 -2.59129 0
M  V30 3290 C 311.92 -2.10351 -3.12137 0
M  V30 3291 C 311.067 -2.06674 -1.84882 0
M  V30 3292 H 314.018 -1.442 -0.662727 0
M  V30 3293 H 314.039 -1.78064 -3.36264 0
M  V30 3294 H 313.551 -3.19257 -2.20673 0
M  V30 3295 H 311.652 -1.12599 -3.55179 0
M  V30 3296 H 311.765 -3.00135 -3.73438 0
M  V30 3297 H 310.129 -1.51901 -2.04446 0
M  V30 3298 H 310.912 -3.09451 -1.48643 0
M  V30 3299 N 313.357 1.07166 -1.15556 0
M  V30 3300 C 314.606 1.79181 -0.926132 0
M  V30 3301 C 314.919 1.87768 0.547967 0
M  V30 3302 O 316.125 2.56323 0.895036 0
M  V30 3303 C 314.581 3.22 -1.60761 0
M  V30 3304 C 314.189 3.21607 -3.11886 0
M  V30 3305 C 315.933 3.9861 -1.4598 0
M  V30 3306 C 313.84 4.59092 -3.72812 0
M  V30 3307 H 312.77 0.67154 -0.342856 0
M  V30 3308 H 315.421 1.2027 -1.3859 0
M  V30 3309 H 313.803 3.81115 -1.07553 0
M  V30 3310 H 314.977 2.72127 -3.71865 0
M  V30 3311 H 313.292 2.58495 -3.2645 0
M  V30 3312 H 315.889 5.00225 -1.88888 0
M  V30 3313 H 316.232 4.143 -0.407541 0
M  V30 3314 H 316.765 3.45996 -1.96295 0
M  V30 3315 H 313.504 4.48606 -4.77946 0
M  V30 3316 H 313.024 5.08803 -3.17616 0
M  V30 3317 H 314.703 5.28059 -3.73848 0
M  V30 3318 N 314.835 0.952656 1.25548 0
M  V30 3319 C 315.785 0.442033 2.23674 0
M  V30 3320 C 316.769 -0.467632 1.53955 0
M  V30 3321 O 317.961 -0.301006 1.74422 0
M  V30 3322 C 315.09 -0.280816 3.4215 0
M  V30 3323 C 314.176 0.646803 4.19139 0
M  V30 3324 N 314.567 1.77759 4.73535 0
M  V30 3325 C 312.865 0.454617 4.43677 0
M  V30 3326 C 313.566 2.35658 5.31827 0
M  V30 3327 N 312.542 1.64333 5.18166 0
M  V30 3328 H 316.344 1.30505 2.63336 0
M  V30 3329 H 313.858 0.809904 1.40763 0
M  V30 3330 H 315.855 -0.663747 4.11582 0
M  V30 3331 H 314.515 -1.14046 3.04012 0
M  V30 3332 H 315.526 2.15949 4.7073 0
M  V30 3333 H 312.203 -0.362312 4.15925 0
M  V30 3334 H 313.593 3.30998 5.84713 0
M  V30 3335 N 316.313 -1.40141 0.720998 0
M  V30 3336 C 317.541 -2.05096 0.272656 0
M  V30 3337 C 317.956 -1.54334 -1.0875 0
M  V30 3338 O 317.313 -0.702211 -1.6845 0
M  V30 3339 C 317.364 -3.60636 0.249835 0
M  V30 3340 O 317.085 -4.09526 1.55629 0
M  V30 3341 C 318.586 -4.42772 -0.216396 0
M  V30 3342 H 315.806 -0.659897 0.121558 0
M  V30 3343 H 318.35 -1.79449 0.980723 0
M  V30 3344 H 316.505 -3.85232 -0.409237 0
M  V30 3345 H 316.919 -5.03758 1.4604 0
M  V30 3346 H 318.393 -5.51702 -0.181212 0
M  V30 3347 H 318.87 -4.20756 -1.25941 0
M  V30 3348 H 319.476 -4.23294 0.412596 0
M  V30 3349 N 317.792 -0.46758 -1.50504 0
M  V30 3350 C 319.203 -0.0116166 -1.86696 0
M  V30 3351 C 319.554 1.39202 -1.38265 0
M  V30 3352 O 318.679 2.0313 -0.746132 0
M  V30 3353 C 319.274 -0.0143044 -3.38797 0
M  V30 3354 C 317.833 0.386175 -3.74414 0
M  V30 3355 C 316.98 -0.401287 -2.74381 0
M  V30 3356 H 319.931 -0.682022 -1.43297 0
M  V30 3357 H 319.952 0.788641 -3.72237 0
M  V30 3358 H 319.464 -1.03602 -3.74016 0
M  V30 3359 H 317.565 1.41237 -3.44794 0
M  V30 3360 H 317.678 0.0899596 -4.79016 0
M  V30 3361 H 316.042 0.144536 -2.5429 0
M  V30 3362 H 316.825 -1.42244 -3.12444 0
M  V30 3363 N 319.27 1.56325 -0.20005 0
M  V30 3364 C 320.686 1.58839 0.155716 0
M  V30 3365 C 320.886 1.21636 1.60645 0
M  V30 3366 O 319.942 0.941437 2.34293 0
M  V30 3367 C 321.255 3.0032 -0.151124 0
M  V30 3368 C 322.803 3.12866 -0.0916284 0
M  V30 3369 C 323.278 4.56488 -0.371845 0
M  V30 3370 N 324.769 4.62089 -0.320641 0
M  V30 3371 C 325.504 5.71116 -0.511243 0
M  V30 3372 N 325 6.88592 -0.762461 0
M  V30 3373 N 326.793 5.60335 -0.445157 0
M  V30 3374 H 318.944 1.78788 -1.14668 0
M  V30 3375 H 321.207 0.829996 -0.458051 0
M  V30 3376 H 320.913 3.32117 -1.15721 0
M  V30 3377 H 320.787 3.73257 0.543986 0
M  V30 3378 H 323.174 2.80878 0.905065 0
M  V30 3379 H 323.255 2.42304 -0.81989 0
M  V30 3380 H 322.899 4.89189 -1.36588 0
M  V30 3381 H 322.829 5.25246 0.377362 0
M  V30 3382 H 325.32 3.77665 -0.13329 0
M  V30 3383 H 325.633 7.67581 -0.896576 0
M  V30 3384 H 323.978 6.90387 -0.799412 0
M  V30 3385 H 327.169 4.67436 -0.249278 0
M  V30 3386 H 327.342 6.45243 -0.597116 0
M  V30 3387 N 320.748 -0.0735177 1.57428 0
M  V30 3388 C 321.658 -1.10547 2.06922 0
M  V30 3389 C 322.674 -1.42506 0.998402 0
M  V30 3390 O 323.85 -1.52717 1.31299 0
M  V30 3391 C 320.915 -2.40019 2.50184 0
M  V30 3392 C 319.976 -2.15046 3.71556 0
M  V30 3393 C 319.209 -3.38345 4.12745 0
M  V30 3394 O 319.432 -4.47399 3.53822 0
M  V30 3395 O 318.366 -3.2666 5.05546 0
M  V30 3396 H 322.192 -0.715013 2.95163 0
M  V30 3397 H 319.777 -0.287531 1.46607 0
M  V30 3398 H 321.659 -3.16218 2.78539 0
M  V30 3399 H 320.334 -2.78447 1.65072 0
M  V30 3400 H 319.241 -1.36558 3.48285 0
M  V30 3401 H 320.574 -1.81499 4.57514 0
M  V30 3402 N 322.226 -1.5378 -0.344866 0
M  V30 3403 C 323.474 -1.70625 -1.08311 0
M  V30 3404 C 323.795 -0.471447 -1.89215 0
M  V30 3405 O 323.065 0.514616 -1.8902 0
M  V30 3406 H 321.645 -0.629058 -0.402859 0
M  V30 3407 H 324.307 -1.9103 -0.386459 0
M  V30 3408 H 323.403 -2.57656 -1.76124 0
M  V30 3409 N 323.704 0.605807 -1.45491 0
M  V30 3410 C 324.944 1.37606 -1.51142 0
M  V30 3411 C 325.308 1.91413 -0.150075 0
M  V30 3412 O 326.509 2.68677 -0.0812828 0
M  V30 3413 C 324.78 2.49197 -2.56195 0
M  V30 3414 S 326.339 3.36953 -2.81083 0
M  V30 3415 H 323.157 0.469118 -0.534275 0
M  V30 3416 H 325.759 0.698845 -1.82583 0
M  V30 3417 H 324.463 2.0802 -3.53773 0
M  V30 3418 H 323.994 3.21717 -2.26411 0
M  V30 3419 H 326.009 4.47395 -2.14598 0
M  V30 3420 N 325.182 1.32811 0.848464 0
M  V30 3421 C 326.412 1.26556 1.63301 0
M  V30 3422 C 326.82 -0.1676 1.88456 0
M  V30 3423 O 326.163 -1.11713 1.45828 0
M  V30 3424 C 326.225 1.96202 3.01239 0
M  V30 3425 C 325.889 3.45528 2.99098 0
M  V30 3426 C 326.886 4.40903 2.75501 0
M  V30 3427 C 324.571 3.87558 3.19537 0
M  V30 3428 C 326.565 5.76282 2.72356 0
M  V30 3429 C 324.252 5.23044 3.16019 0
M  V30 3430 C 325.25 6.17217 2.92458 0
M  V30 3431 O 324.938 7.50223 2.88825 0
M  V30 3432 H 324.67 0.43771 0.515156 0
M  V30 3433 H 327.224 1.7559 1.0657 0
M  V30 3434 H 325.454 1.41746 3.59785 0
M  V30 3435 H 327.143 1.83573 3.62016 0
M  V30 3436 H 327.909 4.09756 2.5947 0
M  V30 3437 H 323.788 3.14674 3.369 0
M  V30 3438 H 327.332 6.4976 2.53886 0
M  V30 3439 H 323.229 5.53818 3.31596 0
M  V30 3440 H 323.997 7.59657 3.04735 0
M  V30 3441 N 326.66 -1.06551 1.16123 0
M  V30 3442 C 327.908 -1.78947 0.939267 0
M  V30 3443 C 328.229 -1.87532 -0.534476 0
M  V30 3444 O 327.499 -1.38211 -1.38833 0
M  V30 3445 H 326.079 -0.662807 0.344523 0
M  V30 3446 H 328.741 -1.28725 1.46342 0
M  V30 3447 H 327.837 -2.81117 1.35572 0
M  V30 3448 N 328.138 -0.959301 -1.25041 0
M  V30 3449 C 329.415 -0.533805 -1.88175 0
M  V30 3450 C 329.795 0.988994 -1.865 0
M  V30 3451 O 329.143 1.85677 -1.33177 0
M  V30 3452 C 329.353 -1.11575 -3.30684 0
M  V30 3453 C 330.701 -1.19548 -4.07423 0
M  V30 3454 O 331.725 -1.06765 -3.39823 0
M  V30 3455 O 330.584 -1.39656 -5.28354 0
M  V30 3456 H 327.678 -0.176772 -0.807887 0
M  V30 3457 H 330.224 -1.05303 -1.33076 0
M  V30 3458 H 328.996 -2.15884 -3.26358 0
M  V30 3459 H 328.619 -0.580059 -3.93346 0
M  V30 3460 N 329.616 1.39756 -0.72842 0
M  V30 3461 C 330.563 2.30647 -0.0841519 0
M  V30 3462 C 331.533 1.48869 0.7367 0
M  V30 3463 O 332.718 1.77574 0.698015 0
M  V30 3464 C 329.858 3.35165 0.822091 0
M  V30 3465 C 328.971 4.31999 -0.0106663 0
M  V30 3466 C 328.106 5.23585 0.896241 0
M  V30 3467 C 327.145 6.12072 0.0583381 0
M  V30 3468 N 326.282 6.96035 0.920818 0
M  V30 3469 H 331.122 2.85173 -0.864891 0
M  V30 3470 H 328.659 1.40422 -0.438179 0
M  V30 3471 H 330.617 3.94345 1.36189 0
M  V30 3472 H 329.247 2.8211 1.56888 0
M  V30 3473 H 328.299 3.74492 -0.66781 0
M  V30 3474 H 329.611 4.9443 -0.658825 0
M  V30 3475 H 328.765 5.87759 1.50412 0
M  V30 3476 H 327.504 4.61459 1.57819 0
M  V30 3477 H 326.509 5.46916 -0.562389 0
M  V30 3478 H 327.734 6.76261 -0.6203 0
M  V30 3479 H 325.68 6.36485 1.58818 0
M  V30 3480 H 325.597 7.55284 0.32899 0
M  V30 3481 H 326.865 7.64646 1.51447 0
M  V30 3482 N 331.094 0.475555 1.50254 0
M  V30 3483 C 332.371 -0.139685 1.95101 0
M  V30 3484 C 332.751 -1.56555 1.41611 0
M  V30 3485 O 332.099 -2.19956 0.618993 0
M  V30 3486 C 332.309 -0.0784298 3.48912 0
M  V30 3487 C 333.657 -0.265095 4.23772 0
M  V30 3488 O 334.681 -0.154808 3.55863 0
M  V30 3489 O 333.54 -0.488327 5.44314 0
M  V30 3490 H 330.634 -0.109236 0.819754 0
M  V30 3491 H 333.18 0.536276 1.61004 0
M  V30 3492 H 331.952 0.916918 3.80405 0
M  V30 3493 H 331.575 -0.795655 3.89558 0
M  V30 3494 N 332.573 -1.56217 0.208337 0
M  V30 3495 C 333.483 -2.23316 -0.718836 0
M  V30 3496 C 334.499 -1.23648 -1.22422 0
M  V30 3497 O 335.675 -1.56423 -1.26861 0
M  V30 3498 C 332.74 -2.88968 -1.91568 0
M  V30 3499 C 331.801 -4.03943 -1.45357 0
M  V30 3500 C 331.034 -4.66455 -2.59337 0
M  V30 3501 O 331.257 -4.27919 -3.77149 0
M  V30 3502 O 330.191 -5.55686 -2.31293 0
M  V30 3503 H 334.017 -3.03182 -0.177315 0
M  V30 3504 H 331.602 -1.49384 -0.0215402 0
M  V30 3505 H 333.484 -3.30455 -2.61491 0
M  V30 3506 H 332.159 -2.12071 -2.44556 0
M  V30 3507 H 331.066 -3.67052 -0.722746 0
M  V30 3508 H 332.399 -4.82543 -0.970219 0
M  V30 3509 N 334.051 0.0651679 -1.57465 0
M  V30 3510 C 335.298 0.763063 -1.87573 0
M  V30 3511 C 335.626 1.77242 -0.800961 0
M  V30 3512 O 334.881 1.94651 0.202316 0
M  V30 3513 C 335.18 1.50081 -3.24362 0
M  V30 3514 C 334.846 0.630816 -4.46466 0
M  V30 3515 C 333.508 0.391082 -4.79608 0
M  V30 3516 C 335.86 0.0279465 -5.21193 0
M  V30 3517 C 333.188 -0.460894 -5.84887 0
M  V30 3518 C 335.54 -0.811522 -6.27373 0
M  V30 3519 C 334.204 -1.06106 -6.59013 0
M  V30 3520 H 333.474 0.279224 -0.686378 0
M  V30 3521 H 336.121 0.0236726 -1.91485 0
M  V30 3522 H 334.426 2.31258 -3.16271 0
M  V30 3523 H 336.123 2.04571 -3.44894 0
M  V30 3524 H 332.713 0.8278 -4.2053 0
M  V30 3525 H 336.897 0.200262 -4.95896 0
M  V30 3526 H 332.153 -0.662907 -6.07796 0
M  V30 3527 H 336.327 -1.28537 -6.84435 0
M  V30 3528 H 333.954 -1.723 -7.40417 0
M  V30 3529 N 335.529 1.53961 0.336706 0
M  V30 3530 C 336.94 1.62914 0.911925 0
M  V30 3531 C 337.291 0.514795 1.89326 0
M  V30 3532 O 336.416 -0.354395 2.13478 0
M  V30 3533 C 337.011 2.95304 1.66076 0
M  V30 3534 C 335.57 3.06496 2.18489 0
M  V30 3535 C 334.717 2.58403 1.00613 0
M  V30 3536 H 337.668 1.58285 0.114649 0
M  V30 3537 H 337.689 2.84727 2.5241 0
M  V30 3538 H 337.201 3.76387 0.946276 0
M  V30 3539 H 335.302 2.3006 2.93092 0
M  V30 3540 H 335.415 4.1208 2.44391 0
M  V30 3541 H 333.779 2.13977 1.38152 0
M  V30 3542 H 334.562 3.41932 0.306179 0
M  V30 3543 N 337.007 -0.598083 1.45811 0
M  V30 3544 C 338.255 -1.35413 1.50026 0
M  V30 3545 C 338.576 -1.94444 0.147177 0
M  V30 3546 O 337.846 -1.77701 -0.824571 0
M  V30 3547 H 336.426 -0.502727 0.552517 0
M  V30 3548 H 339.088 -0.701606 1.81834 0
M  V30 3549 H 338.184 -2.16871 2.2444 0
M  V30 3550 N 338.485 -1.33259 -0.841409 0
M  V30 3551 C 339.731 -1.24757 -1.59886 0
M  V30 3552 C 340.064 0.186913 -1.93298 0
M  V30 3553 O 339.339 1.12757 -1.5848 0
M  V30 3554 C 339.622 -2.12036 -2.91055 0
M  V30 3555 C 339.475 -3.63929 -2.6434 0
M  V30 3556 C 340.794 -1.9916 -3.92458 0
M  V30 3557 H 337.913 -0.454542 -0.580138 0
M  V30 3558 H 340.555 -1.63335 -0.970647 0
M  V30 3559 H 338.705 -1.79265 -3.44669 0
M  V30 3560 H 340.377 -4.06978 -2.17178 0
M  V30 3561 H 338.62 -3.85935 -1.98082 0
M  V30 3562 H 339.291 -4.20341 -3.57796 0
M  V30 3563 H 341.767 -2.27895 -3.48143 0
M  V30 3564 H 340.643 -2.62484 -4.82072 0
M  V30 3565 H 340.904 -0.963082 -4.31482 0
M  V30 3566 N 339.963 1.05934 -1.16686 0
M  V30 3567 C 341.379 1.30938 -0.912542 0
M  V30 3568 C 341.579 1.96803 0.432533 0
M  V30 3569 O 340.635 2.23693 1.17123 0
M  V30 3570 C 341.948 2.18649 -2.06429 0
M  V30 3571 C 343.496 2.32055 -2.10047 0
M  V30 3572 C 343.971 3.23122 -3.24586 0
M  V30 3573 N 345.462 3.30706 -3.24327 0
M  V30 3574 C 346.197 4.01273 -4.09594 0
M  V30 3575 N 345.693 4.74332 -5.04956 0
M  V30 3576 N 347.486 3.97361 -3.97569 0
M  V30 3577 H 339.637 0.615777 -2.03278 0
M  V30 3578 H 341.9 0.334077 -0.887185 0
M  V30 3579 H 341.606 1.77534 -3.03603 0
M  V30 3580 H 341.48 3.19252 -2.00894 0
M  V30 3581 H 343.867 2.72415 -1.13464 0
M  V30 3582 H 343.948 1.31107 -2.19647 0
M  V30 3583 H 343.592 2.83477 -4.2143 0
M  V30 3584 H 343.522 4.24057 -3.12223 0
M  V30 3585 H 346.013 2.78644 -2.55276 0
M  V30 3586 H 346.326 5.25716 -5.6643 0
M  V30 3587 H 344.671 4.733 -5.08933 0
M  V30 3588 H 347.862 3.39405 -3.22369 0
M  V30 3589 H 348.035 4.52089 -4.64241 0
M  V30 3590 N 341.441 0.965919 1.2453 0
M  V30 3591 C 342.669 0.644385 1.96609 0
M  V30 3592 C 343.084 -0.785823 1.71669 0
M  V30 3593 O 342.441 -1.52703 0.999399 0
M  V30 3594 C 342.492 0.907375 3.49927 0
M  V30 3595 O 342.213 2.28136 3.74013 0
M  V30 3596 C 343.714 0.599784 4.39224 0
M  V30 3597 H 340.934 0.240588 0.626385 0
M  V30 3598 H 343.478 1.29337 1.58405 0
M  V30 3599 H 341.633 0.304631 3.862 0
M  V30 3600 H 342.047 2.36002 4.68405 0
M  V30 3601 H 343.521 0.834263 5.45659 0
M  V30 3602 H 343.998 -0.465921 4.36722 0
M  V30 3603 H 344.604 1.18235 4.08535 0
M  V30 3604 N 342.919 -1.39368 0.735821 0
M  V30 3605 C 344.149 -2.04498 0.293967 0
M  V30 3606 C 344.557 -1.55593 -1.07645 0
M  V30 3607 O 343.9 -0.716324 -1.69158 0
M  V30 3608 C 343.962 -3.58836 0.218342 0
M  V30 3609 C 343.626 -4.30721 1.52736 0
M  V30 3610 C 344.623 -4.57305 2.47322 0
M  V30 3611 C 342.308 -4.69251 1.79189 0
M  V30 3612 C 344.302 -5.21429 3.66593 0
M  V30 3613 C 341.989 -5.33104 2.98737 0
M  V30 3614 C 342.987 -5.59125 3.9226 0
M  V30 3615 O 342.675 -6.21653 5.09708 0
M  V30 3616 H 342.407 -0.664118 0.126189 0
M  V30 3617 H 344.961 -1.79385 1.00051 0
M  V30 3618 H 343.191 -3.8285 -0.544314 0
M  V30 3619 H 344.88 -4.05447 -0.191626 0
M  V30 3620 H 345.646 -4.27983 2.28156 0
M  V30 3621 H 341.525 -4.48354 1.07239 0
M  V30 3622 H 345.069 -5.41656 4.39607 0
M  V30 3623 H 340.966 -5.61846 3.17803 0
M  V30 3624 H 341.734 -6.40146 5.10054 0
M  V30 3625 N 344.397 -0.483516 -1.5 0
M  V30 3626 C 345.645 0.067027 -2.01989 0
M  V30 3627 C 345.966 1.3909 -1.36671 0
M  V30 3628 O 345.236 1.88978 -0.516152 0
M  V30 3629 H 343.816 0.0277606 -0.746484 0
M  V30 3630 H 346.478 -0.636773 -1.84204 0
M  V30 3631 H 345.574 0.209484 -3.11396 0
M  V30 3632 N 345.875 1.56104 -0.216619 0
M  V30 3633 C 347.124 1.97348 0.416744 0
M  V30 3634 C 347.437 1.10715 1.6125 0
M  V30 3635 O 348.643 1.41836 2.31506 0
M  V30 3636 C 347.099 3.51059 0.792835 0
M  V30 3637 C 346.707 4.46387 -0.379828 0
M  V30 3638 C 348.451 4.01026 1.39208 0
M  V30 3639 C 346.358 5.91397 0.0184223 0
M  V30 3640 H 345.288 0.736942 0.159475 0
M  V30 3641 H 347.939 1.80827 -0.31205 0
M  V30 3642 H 346.321 3.63162 1.57891 0
M  V30 3643 H 347.495 4.46029 -1.15737 0
M  V30 3644 H 345.81 4.06734 -0.891979 0
M  V30 3645 H 348.407 5.0686 1.70286 0
M  V30 3646 H 348.75 3.46587 2.30614 0
M  V30 3647 H 349.283 3.92125 0.669537 0
M  V30 3648 H 346.022 6.49807 -0.862002 0
M  V30 3649 H 345.542 5.94961 0.760384 0
M  V30 3650 H 347.221 6.45455 0.446818 0
M  V30 3651 N 347.353 -0.0568162 1.57498 0
M  V30 3652 C 348.769 -0.411933 1.54192 0
M  V30 3653 C 348.969 -1.78287 0.938942 0
M  V30 3654 O 348.025 -2.46483 0.547919 0
M  V30 3655 C 349.338 -0.339244 2.9878 0
M  V30 3656 C 350.886 -0.418348 3.10192 0
M  V30 3657 C 351.361 -0.375407 4.56459 0
M  V30 3658 N 352.852 -0.435038 4.61153 0
M  V30 3659 C 353.587 -0.424265 5.71828 0
M  V30 3660 N 353.083 -0.367418 6.91825 0
M  V30 3661 N 354.876 -0.471938 5.60115 0
M  V30 3662 H 347.027 0.840684 1.95055 0
M  V30 3663 H 349.29 0.316987 0.893433 0
M  V30 3664 H 348.996 0.601742 3.46514 0
M  V30 3665 H 348.87 -1.14371 3.59443 0
M  V30 3666 H 351.257 -1.34976 2.62422 0
M  V30 3667 H 351.338 0.414962 2.52412 0
M  V30 3668 H 350.982 0.552219 5.04889 0
M  V30 3669 H 350.912 -1.22645 5.12119 0
M  V30 3670 H 353.403 -0.482612 3.74806 0
M  V30 3671 H 353.716 -0.363535 7.71944 0
M  V30 3672 H 352.061 -0.333879 6.94198 0
M  V30 3673 H 355.252 -0.514145 4.65268 0
M  V30 3674 H 355.425 -0.460073 6.46365 0
M  V30 3675 N 348.832 -1.54138 -0.328536 0
M  V30 3676 C 350.109 -1.62749 -1.08499 0
M  V30 3677 C 350.489 -0.458198 -2.06067 0
M  V30 3678 O 349.837 0.548046 -2.2183 0
M  V30 3679 C 350.047 -2.99519 -1.79135 0
M  V30 3680 C 351.395 -3.55394 -2.32337 0
M  V30 3681 O 352.419 -3.01792 -1.89209 0
M  V30 3682 O 351.278 -4.49186 -3.11279 0
M  V30 3683 H 348.372 -0.65886 -0.499832 0
M  V30 3684 H 350.918 -1.66484 -0.328826 0
M  V30 3685 H 349.69 -3.76061 -1.08139 0
M  V30 3686 H 349.313 -2.99441 -2.61574 0
M  V30 3687 N 350.31 0.590341 -1.46126 0
M  V30 3688 C 351.538 1.37504 -1.54597 0
M  V30 3689 C 351.953 1.87897 -0.184447 0
M  V30 3690 O 351.31 1.63192 0.816984 0
M  V30 3691 C 351.361 2.56779 -2.54454 0
M  V30 3692 O 351.082 2.08476 -3.85317 0
M  V30 3693 C 352.583 3.49427 -2.72792 0
M  V30 3694 H 349.803 0.420325 -0.523037 0
M  V30 3695 H 352.347 0.718383 -1.91467 0
M  V30 3696 H 350.502 3.1845 -2.20609 0
M  V30 3697 H 350.916 2.86097 -4.396 0
M  V30 3698 H 352.39 4.29619 -3.466 0
M  V30 3699 H 352.867 4.00876 -1.79429 0
M  V30 3700 H 353.473 2.93598 -3.07702 0
M  V30 3701 N 351.788 1.33704 0.83433 0
M  V30 3702 C 352.736 1.24323 1.96587 0
M  V30 3703 C 353.73 0.143659 1.6879 0
M  V30 3704 O 354.936 0.30791 1.77347 0
M  V30 3705 H 351.311 0.385925 0.645419 0
M  V30 3706 H 353.282 2.19978 2.01624 0
M  V30 3707 C 352.031 1.00394 3.32891 0
M  V30 3708 H 351.354 1.84231 3.54822 0
M  V30 3709 H 352.794 0.97862 4.12552 0
M  V30 3710 C 351.253 -0.293047 3.35623 0
M  V30 3711 O 351.783 -1.29823 3.80143 0
M  V30 3712 N 349.989 -0.322174 2.88809 0
M  V30 3713 H 349.536 0.496379 2.52772 0
M  V30 3714 H 349.494 -1.18977 2.91019 0
M  V30 3715 N 353.266 -1.05314 1.17247 0
M  V30 3716 C 354.176 -2.16538 0.90268 0
M  V30 3717 C 355.192 -1.73523 -0.128707 0
M  V30 3718 O 356.368 -2.01337 0.0502701 0
M  V30 3719 C 353.433 -3.44167 0.418356 0
M  V30 3720 C 352.494 -4.01635 1.51618 0
M  V30 3721 C 351.727 -5.23171 1.05487 0
M  V30 3722 O 351.95 -5.70327 -0.0914715 0
M  V30 3723 O 350.884 -5.72848 1.8474 0
M  V30 3724 H 354.71 -2.42145 1.83302 0
M  V30 3725 H 352.295 -1.15037 0.953246 0
M  V30 3726 H 354.177 -4.21112 0.155726 0
M  V30 3727 H 352.852 -3.20063 -0.48385 0
M  V30 3728 H 351.759 -3.26135 1.83268 0
M  V30 3729 H 353.092 -4.30053 2.39405 0
M  V30 3730 N 354.744 -0.972509 -1.24016 0
M  V30 3731 C 355.972 -0.654803 -1.96265 0
M  V30 3732 C 356.387 0.776708 -1.72083 0
M  V30 3733 O 355.744 1.52171 -1.00748 0
M  V30 3734 C 355.795 -0.92592 -3.49441 0
M  V30 3735 O 355.516 -2.30116 -3.72798 0
M  V30 3736 C 357.017 -0.623068 -4.38899 0
M  V30 3737 H 354.237 -0.243907 -0.6251 0
M  V30 3738 H 356.781 -1.30175 -1.57717 0
M  V30 3739 H 354.936 -0.325108 -3.86033 0
M  V30 3740 H 355.35 -2.38483 -4.67147 0
M  V30 3741 H 356.824 -0.863189 -5.45209 0
M  V30 3742 H 357.301 0.442754 -4.36963 0
M  V30 3743 H 357.907 -1.204 -4.07902 0
M  V30 3744 N 356.222 1.38976 -0.743202 0
M  V30 3745 C 357.452 2.04339 -0.304807 0
M  V30 3746 C 357.86 1.56162 1.06819 0
M  V30 3747 O 357.203 0.725284 1.68776 0
M  V30 3748 C 357.265 3.58716 -0.237369 0
M  V30 3749 C 356.929 4.29905 -1.55018 0
M  V30 3750 C 357.926 4.55987 -2.49744 0
M  V30 3751 C 355.611 4.68294 -1.81675 0
M  V30 3752 C 357.605 5.19478 -3.69353 0
M  V30 3753 C 355.292 5.31512 -3.0156 0
M  V30 3754 C 356.29 5.57037 -3.9522 0
M  V30 3755 O 355.978 6.18941 -5.12998 0
M  V30 3756 H 355.71 0.663439 -0.12971 0
M  V30 3757 H 358.264 1.78852 -1.01001 0
M  V30 3758 H 356.494 3.83133 0.524003 0
M  V30 3759 H 358.183 4.05543 0.170121 0
M  V30 3760 H 358.949 4.26767 -2.30423 0
M  V30 3761 H 354.828 4.47779 -1.09615 0
M  V30 3762 H 358.372 5.39318 -4.42473 0
M  V30 3763 H 354.269 5.60153 -3.20778 0
M  V30 3764 H 355.037 6.37433 -5.13441 0
M  V30 3765 N 357.7 0.491464 1.49741 0
M  V30 3766 C 358.977 -0.118984 1.95238 0
M  V30 3767 C 359.357 -1.55044 1.43264 0
M  V30 3768 O 358.705 -2.19287 0.642287 0
M  V30 3769 C 358.915 -0.0414187 3.48975 0
M  V30 3770 C 360.263 -0.220133 4.24029 0
M  V30 3771 O 361.287 -0.117055 3.56008 0
M  V30 3772 O 360.146 -0.430567 5.44801 0
M  V30 3773 H 357.24 -0.100536 0.820866 0
M  V30 3774 H 359.786 0.553322 1.60426 0
M  V30 3775 H 358.558 0.957214 3.79412 0
M  V30 3776 H 358.181 -0.754292 3.9038 0
M  V30 3777 N 359.178 -1.55987 0.224894 0
M  V30 3778 C 360.424 -1.98684 -0.406502 0
M  V30 3779 C 360.757 -1.11248 -1.59177 0
M  V30 3780 O 360.032 -0.170909 -1.93748 0
M  V30 3781 C 360.315 -3.50218 -0.837808 0
M  V30 3782 C 360.168 -4.48426 0.351332 0
M  V30 3783 C 361.487 -4.06243 -1.69278 0
M  V30 3784 H 358.606 -0.722337 -0.146283 0
M  V30 3785 H 361.248 -1.87255 0.321799 0
M  V30 3786 H 359.398 -3.60089 -1.45837 0
M  V30 3787 H 361.07 -4.50562 0.989526 0
M  V30 3788 H 359.313 -4.22159 0.998207 0
M  V30 3789 H 359.984 -5.52 0.00655905 0
M  V30 3790 H 362.46 -3.99337 -1.16914 0
M  V30 3791 H 361.336 -5.12581 -1.96346 0
M  V30 3792 H 361.597 -3.53332 -2.65723 0
M  V30 3793 N 360.656 0.0484629 -1.57525 0
M  V30 3794 C 361.886 0.754326 -1.92337 0
M  V30 3795 C 362.294 1.70443 -0.82132 0
M  V30 3796 O 361.637 1.82466 0.21254 0
M  V30 3797 C 361.699 1.58231 -3.22805 0
M  V30 3798 C 361.363 0.799074 -4.4996 0
M  V30 3799 C 362.36 0.1079 -5.19788 0
M  V30 3800 C 360.045 0.759345 -4.96527 0
M  V30 3801 C 362.039 -0.612516 -6.3445 0
M  V30 3802 C 359.726 0.0351713 -6.1109 0
M  V30 3803 C 360.724 -0.649537 -6.79904 0
M  V30 3804 O 360.412 -1.36199 -7.92278 0
M  V30 3805 H 360.144 0.218257 -0.639797 0
M  V30 3806 H 362.698 0.0159295 -2.05394 0
M  V30 3807 H 360.928 2.36406 -3.06021 0
M  V30 3808 H 362.617 2.16898 -3.43089 0
M  V30 3809 H 363.383 0.129748 -4.84826 0
M  V30 3810 H 359.262 1.28177 -4.42822 0
M  V30 3811 H 362.806 -1.14751 -6.88097 0
M  V30 3812 H 358.703 0.0113314 -6.45499 0
M  V30 3813 H 359.471 -1.27366 -8.0853 0
M  V30 3814 N 362.134 1.5431 0.320358 0
M  V30 3815 C 363.374 1.74395 1.0661 0
M  V30 3816 C 363.738 0.508602 1.85141 0
M  V30 3817 O 364.939 0.586856 2.62316 0
M  V30 3818 C 363.21 2.98619 1.96371 0
M  V30 3819 S 364.769 3.39621 2.77854 0
M  V30 3820 H 361.587 0.613204 0.359863 0
M  V30 3821 H 364.189 1.9249 0.341727 0
M  V30 3822 H 362.893 3.86673 1.3752 0
M  V30 3823 H 362.424 2.83055 2.73209 0
M  V30 3824 H 364.439 2.95172 3.98858 0
M  V30 3825 N 363.613 -0.582584 1.46437 0
M  V30 3826 C 364.86 -1.34079 1.51753 0
M  V30 3827 C 365.188 -1.93762 0.169299 0
M  V30 3828 O 364.443 -1.76989 -0.835062 0
M  V30 3829 C 364.742 -2.48964 2.56421 0
M  V30 3830 C 364.408 -2.07273 4.00436 0
M  V30 3831 C 363.07 -1.95618 4.39644 0
M  V30 3832 C 365.422 -1.75111 4.90903 0
M  V30 3833 C 362.75 -1.5006 5.67185 0
M  V30 3834 C 365.102 -1.31032 6.18881 0
M  V30 3835 C 363.766 -1.17954 6.56996 0
M  V30 3836 H 363.036 -0.49063 0.555304 0
M  V30 3837 H 365.683 -0.656007 1.79913 0
M  V30 3838 H 363.988 -3.22889 2.21923 0
M  V30 3839 H 365.685 -3.07178 2.57765 0
M  V30 3840 H 362.275 -2.17279 3.69443 0
M  V30 3841 H 366.459 -1.83001 4.61329 0
M  V30 3842 H 361.715 -1.38577 5.95488 0
M  V30 3843 H 365.889 -1.052 6.88408 0
M  V30 3844 H 363.516 -0.824279 7.55718 0
M  V30 3845 N 365.091 -1.34144 -0.827227 0
M  V30 3846 C 366.054 -1.25264 -1.91942 0
M  V30 3847 C 367.054 -0.168866 -1.59911 0
M  V30 3848 O 368.244 -0.421198 -1.69031 0
M  V30 3849 C 365.376 -0.932952 -3.27885 0
M  V30 3850 H 366.569 -2.22357 -2.0124 0
M  V30 3851 H 364.122 -1.1837 -1.0207 0
M  V30 3852 H 364.857 0.0349917 -3.24281 0
M  V30 3853 H 364.642 -1.71682 -3.52516 0
M  V30 3854 H 366.132 -0.895874 -4.07877 0
M  V30 3855 N 366.569 1.04691 -1.17803 0
M  V30 3856 C 367.479 2.16057 -0.914151 0
M  V30 3857 C 368.495 1.73589 0.119503 0
M  V30 3858 O 369.671 2.01308 -0.0609468 0
M  V30 3859 C 366.736 3.4394 -0.436603 0
M  V30 3860 C 365.797 4.00825 -1.53746 0
M  V30 3861 C 365.03 5.22604 -1.0826 0
M  V30 3862 O 365.253 5.70367 0.0612244 0
M  V30 3863 O 364.187 5.7186 -1.87775 0
M  V30 3864 H 368.013 2.41169 -1.84584 0
M  V30 3865 H 365.598 1.1453 -0.959334 0
M  V30 3866 H 367.48 4.21024 -0.178057 0
M  V30 3867 H 366.155 3.20316 0.466869 0
M  V30 3868 H 365.062 3.25158 -1.84995 0
M  V30 3869 H 366.395 4.28778 -2.41683 0
M  V30 3870 N 368.047 0.979072 1.23499 0
M  V30 3871 C 368.957 0.526431 2.28617 0
M  V30 3872 C 369.973 -0.418126 1.68901 0
M  V30 3873 O 371.149 -0.288372 1.99325 0
M  V30 3874 C 368.214 -0.165235 3.46306 0
M  V30 3875 C 367.275 0.82056 4.21385 0
M  V30 3876 C 366.508 0.161807 5.33455 0
M  V30 3877 O 366.731 -1.04742 5.60701 0
M  V30 3878 O 365.665 0.859708 5.95729 0
M  V30 3879 H 369.491 1.4006 2.69475 0
M  V30 3880 H 367.076 0.746643 1.29405 0
M  V30 3881 H 368.958 -0.553287 4.17752 0
M  V30 3882 H 367.633 -1.01419 3.07402 0
M  V30 3883 H 366.54 1.25929 3.52268 0
M  V30 3884 H 367.873 1.63828 4.64135 0
M  V30 3885 N 369.525 -1.3858 0.750561 0
M  V30 3886 C 370.458 -2.28095 0.0693139 0
M  V30 3887 C 371.436 -1.45217 -0.731491 0
M  V30 3888 O 372.62 -1.74587 -0.71076 0
M  V30 3889 C 369.747 -3.26282 -0.90871 0
M  V30 3890 C 368.793 -4.26056 -0.194507 0
M  V30 3891 S 369.626 -5.24026 1.10257 0
M  V30 3892 C 370.782 -6.2577 0.127542 0
M  V30 3893 H 371.015 -2.85526 0.8284 0
M  V30 3894 H 368.548 -1.44536 0.543014 0
M  V30 3895 H 370.506 -3.83367 -1.46766 0
M  V30 3896 H 369.167 -2.6784 -1.64075 0
M  V30 3897 H 368.36 -4.95249 -0.93512 0
M  V30 3898 H 367.962 -3.72852 0.292837 0
M  V30 3899 H 370.254 -6.73796 -0.707516 0
M  V30 3900 H 371.197 -7.03712 0.787044 0
M  V30 3901 H 371.605 -5.63938 -0.251803 0
M  V30 3902 N 371.003 -0.499398 -1.49478 0
M  V30 3903 C 371.913 0.284489 -2.32869 0
M  V30 3904 C 372.929 0.968885 -1.44529 0
M  V30 3905 O 374.105 0.95062 -1.77553 0
M  V30 3906 C 371.17 1.33594 -3.19928 0
M  V30 3907 C 370.231 0.665149 -4.24116 0
M  V30 3908 C 369.464 1.6665 -5.07014 0
M  V30 3909 O 369.687 2.89618 -4.91404 0
M  V30 3910 O 368.621 1.22271 -5.8935 0
M  V30 3911 H 372.447 -0.39802 -3.01081 0
M  V30 3912 H 370.032 -0.260758 -1.47107 0
M  V30 3913 H 371.914 1.94431 -3.73864 0
M  V30 3914 H 370.589 2.0014 -2.54412 0
M  V30 3915 H 369.496 0.0170769 -3.74096 0
M  V30 3916 H 370.829 0.0421555 -4.92182 0
M  V30 3917 N 372.481 1.55866 -0.233164 0
M  V30 3918 C 373.729 1.9821 0.394593 0
M  V30 3919 C 374.05 1.12234 1.59463 0
M  V30 3920 O 373.32 0.201981 1.94856 0
M  V30 3921 H 371.9 0.732034 0.148778 0
M  V30 3922 H 374.562 1.92107 -0.32876 0
M  V30 3923 H 373.658 3.03845 0.713063 0
M  V30 3924 N 373.959 -0.0401083 1.57549 0
M  V30 3925 C 374.869 -1.06133 2.0922 0
M  V30 3926 C 375.885 -1.40356 1.0284 0
M  V30 3927 O 377.061 -1.49897 1.34509 0
M  V30 3928 C 374.126 -2.34658 2.55218 0
M  V30 3929 C 373.187 -2.07117 3.76033 0
M  V30 3930 C 372.42 -3.29514 4.19829 0
M  V30 3931 O 372.643 -4.39794 3.63232 0
M  V30 3932 O 371.577 -3.15863 5.12362 0
M  V30 3933 H 375.403 -0.652244 2.96613 0
M  V30 3934 H 372.988 -0.256368 1.47184 0
M  V30 3935 H 374.87 -3.10239 2.85184 0
M  V30 3936 H 373.545 -2.74883 1.70941 0
M  V30 3937 H 372.452 -1.29139 3.51104 0
M  V30 3938 H 373.785 -1.71754 4.61261 0
M  V30 3939 N 375.437 -1.54477 -0.31217 0
M  V30 3940 C 376.683 -1.73483 -1.0503 0
M  V30 3941 C 377.016 -0.513125 -1.87298 0
M  V30 3942 O 376.291 0.489864 -1.8823 0
M  V30 3943 C 376.574 -3.01723 -1.96558 0
M  V30 3944 C 376.427 -4.3417 -1.17545 0
M  V30 3945 C 377.746 -3.25772 -2.95907 0
M  V30 3946 H 374.865 -0.631222 -0.380432 0
M  V30 3947 H 377.507 -1.87184 -0.325932 0
M  V30 3948 H 375.657 -2.90174 -2.58324 0
M  V30 3949 H 377.329 -4.5762 -0.581513 0
M  V30 3950 H 375.572 -4.31159 -0.477925 0
M  V30 3951 H 376.243 -5.20143 -1.84811 0
M  V30 3952 H 378.719 -3.36857 -2.44267 0
M  V30 3953 H 377.595 -4.16838 -3.57123 0
M  V30 3954 H 377.856 -2.43537 -3.68974 0
M  V30 3955 N 376.915 0.57481 -1.46744 0
M  V30 3956 C 378.162 1.33272 -1.52462 0
M  V30 3957 C 378.49 1.93669 -0.179572 0
M  V30 3958 O 377.745 1.7743 0.825664 0
M  V30 3959 C 378.044 2.476 -2.57738 0
M  V30 3960 C 377.71 2.05146 -4.01529 0
M  V30 3961 C 376.372 1.93284 -4.40676 0
M  V30 3962 C 378.724 1.72506 -4.91824 0
M  V30 3963 C 376.052 1.47049 -5.67973 0
M  V30 3964 C 378.404 1.27748 -6.19567 0
M  V30 3965 C 377.068 1.14468 -6.57612 0
M  V30 3966 H 376.338 0.487678 -0.557899 0
M  V30 3967 H 378.985 0.646456 -1.80259 0
M  V30 3968 H 377.29 3.21708 -2.23632 0
M  V30 3969 H 378.987 3.05807 -2.5939 0
M  V30 3970 H 375.577 2.15316 -3.7059 0
M  V30 3971 H 379.761 1.80552 -4.62293 0
M  V30 3972 H 375.017 1.35417 -5.96215 0
M  V30 3973 H 379.191 1.01547 -6.88957 0
M  V30 3974 H 376.818 0.78419 -7.56145 0
M  V30 3975 N 378.394 1.34581 0.820102 0
M  V30 3976 C 379.624 1.29991 1.6058 0
M  V30 3977 C 380.032 -0.127588 1.88769 0
M  V30 3978 O 379.375 -1.08595 1.48165 0
M  V30 3979 C 379.437 2.02548 2.9701 0
M  V30 3980 C 379.101 3.51794 2.91701 0
M  V30 3981 C 380.098 4.46647 2.66087 0
M  V30 3982 C 377.783 3.94249 3.11245 0
M  V30 3983 C 379.777 5.81929 2.60071 0
M  V30 3984 C 377.464 5.2963 3.04853 0
M  V30 3985 C 378.462 6.23282 2.793 0
M  V30 3986 O 378.15 7.56181 2.72847 0
M  V30 3987 H 377.882 0.448539 0.505756 0
M  V30 3988 H 380.436 1.77811 1.02822 0
M  V30 3989 H 378.666 1.49345 3.56697 0
M  V30 3990 H 380.355 1.91211 3.58041 0
M  V30 3991 H 381.121 4.15168 2.5072 0
M  V30 3992 H 377 3.21749 3.30149 0
M  V30 3993 H 380.544 6.54999 2.40046 0
M  V30 3994 H 376.441 5.60727 3.19774 0
M  V30 3995 H 377.209 7.6595 2.88553 0
M  V30 3996 N 379.872 -1.04064 1.18357 0
M  V30 3997 C 380.835 -2.10243 0.912707 0
M  V30 3998 C 381.835 -1.60477 -0.101928 0
M  V30 3999 O 383.025 -1.73703 0.131517 0
M  V30 4000 C 380.157 -3.38893 0.369387 0
M  V30 4001 H 381.35 -2.35706 1.85426 0
M  V30 4002 H 378.903 -1.20489 0.995594 0
M  V30 4003 H 379.638 -3.19094 -0.578776 0
M  V30 4004 H 379.423 -3.76331 1.1008 0
M  V30 4005 H 380.913 -4.17128 0.198575 0
M  V30 4006 N 381.35 -0.985608 -1.22978 0
M  V30 4007 C 382.578 -0.675582 -1.95559 0
M  V30 4008 C 382.993 0.758413 -1.72897 0
M  V30 4009 O 382.35 1.51094 -1.02357 0
M  V30 4010 C 382.401 -0.96293 -3.48439 0
M  V30 4011 O 382.122 -2.34057 -3.70336 0
M  V30 4012 C 383.623 -0.669585 -4.38214 0
M  V30 4013 H 380.843 -0.250523 -0.622478 0
M  V30 4014 H 383.387 -1.3184 -1.56328 0
M  V30 4015 H 381.542 -0.366033 -3.85667 0
M  V30 4016 H 381.956 -2.43424 -4.64591 0
M  V30 4017 H 383.43 -0.920967 -5.44263 0
M  V30 4018 H 383.907 0.396383 -4.37408 0
M  V30 4019 H 384.513 -1.2472 -4.06602 0
M  V30 4020 N 382.828 1.3818 -0.7579 0
M  V30 4021 C 384.053 2.04827 -0.325679 0
M  V30 4022 C 384.478 1.56788 1.03919 0
M  V30 4023 O 383.836 0.721811 1.66312 0
M  V30 4024 C 383.884 3.58774 -0.362447 0
M  V30 4025 O 382.988 4.07372 0.642033 0
M  V30 4026 H 382.329 0.64833 -0.143402 0
M  V30 4027 H 384.859 1.7677 -1.03023 0
M  V30 4028 H 384.869 4.07434 -0.214844 0
M  V30 4029 H 383.544 3.93096 -1.35824 0
M  V30 4030 H 382.121 3.70068 0.458688 0
M  V30 4031 N 384.306 0.507319 1.49211 0
M  V30 4032 C 385.717 0.0611118 1.866 0
M  V30 4033 C 386.068 -1.35488 1.41907 0
M  V30 4034 O 385.193 -2.0108 0.799726 0
M  V30 4035 C 385.788 0.104125 3.3864 0
M  V30 4036 C 384.347 -0.28677 3.75306 0
M  V30 4037 C 383.494 0.473893 2.73221 0
M  V30 4038 H 386.445 0.719775 1.41439 0
M  V30 4039 H 386.466 -0.689672 3.74198 0
M  V30 4040 H 385.978 1.13482 3.71138 0
M  V30 4041 H 384.079 -1.32046 3.48417 0
M  V30 4042 H 384.192 0.0370745 4.79086 0
M  V30 4043 H 382.556 -0.0770644 2.54583 0
M  V30 4044 H 383.339 1.50478 3.08563 0
M  V30 4045 N 385.784 -1.5574 0.241426 0
M  V30 4046 C 386.694 -2.2479 -0.671305 0
M  V30 4047 C 387.71 -1.26217 -1.19772 0
M  V30 4048 O 388.886 -1.59079 -1.23514 0
M  V30 4049 C 385.951 -2.92966 -1.85396 0
M  V30 4050 C 385.012 -4.06935 -1.36756 0
M  V30 4051 C 384.245 -4.71851 -2.49384 0
M  V30 4052 O 384.468 -4.35823 -3.67987 0
M  V30 4053 O 383.402 -5.60467 -2.19454 0
M  V30 4054 H 387.228 -3.0349 -0.112966 0
M  V30 4055 H 384.813 -1.49397 0.0101513 0
M  V30 4056 H 386.695 -3.35927 -2.54423 0
M  V30 4057 H 385.37 -2.17211 -2.40002 0
M  V30 4058 H 384.277 -3.68503 -0.644726 0
M  V30 4059 H 385.61 -4.84492 -0.867647 0
M  V30 4060 N 387.262 0.0317525 -1.57568 0
M  V30 4061 C 388.209 1.0332 -2.06382 0
M  V30 4062 C 389.179 1.36082 -0.952414 0
M  V30 4063 O 390.364 1.46466 -1.2228 0
M  V30 4064 C 387.504 2.32989 -2.54578 0
M  V30 4065 C 386.617 2.0641 -3.79498 0
M  V30 4066 C 385.752 3.2993 -4.16317 0
M  V30 4067 C 384.791 2.98893 -5.34162 0
M  V30 4068 N 383.928 4.14857 -5.66426 0
M  V30 4069 H 388.768 0.609982 -2.9169 0
M  V30 4070 H 386.305 0.289573 -1.44222 0
M  V30 4071 H 388.263 3.0875 -2.80587 0
M  V30 4072 H 386.893 2.73039 -1.7219 0
M  V30 4073 H 385.945 1.21158 -3.6059 0
M  V30 4074 H 387.257 1.79513 -4.65378 0
M  V30 4075 H 386.411 4.1406 -4.4344 0
M  V30 4076 H 385.15 3.59938 -3.29083 0
M  V30 4077 H 384.155 2.13164 -5.06795 0
M  V30 4078 H 385.38 2.70165 -6.23047 0
M  V30 4079 H 383.326 4.44821 -4.82151 0
M  V30 4080 H 383.243 3.91374 -6.4681 0
M  V30 4081 H 384.511 4.99868 -5.98124 0
M  V30 4082 N 388.74 1.54641 0.303973 0
M  V30 4083 C 389.987 1.7378 1.03955 0
M  V30 4084 C 390.315 0.521986 1.87365 0
M  V30 4085 O 389.57 -0.496099 1.89308 0
M  V30 4086 C 389.869 2.97753 1.97681 0
M  V30 4087 C 389.535 4.31671 1.30271 0
M  V30 4088 C 388.197 4.68075 1.11619 0
M  V30 4089 C 390.549 5.147 0.82055 0
M  V30 4090 C 387.877 5.8509 0.434304 0
M  V30 4091 C 390.229 6.32416 0.152395 0
M  V30 4092 C 388.893 6.67484 -0.0461067 0
M  V30 4093 H 388.163 0.635908 0.380398 0
M  V30 4094 H 390.81 1.88896 0.314718 0
M  V30 4095 H 389.115 2.77406 2.76682 0
M  V30 4096 H 390.812 3.09756 2.54661 0
M  V30 4097 H 387.402 4.03041 1.45795 0
M  V30 4098 H 391.586 4.87077 0.952374 0
M  V30 4099 H 386.842 6.10806 0.269495 0
M  V30 4100 H 391.016 6.96023 -0.229126 0
M  V30 4101 H 388.643 7.58011 -0.576494 0
M  V30 4102 N 390.218 -0.567019 1.47046 0
M  V30 4103 C 391.446 -1.35027 1.56765 0
M  V30 4104 C 391.861 -1.8758 0.214316 0
M  V30 4105 O 391.218 -1.64471 -0.790919 0
M  V30 4106 C 391.269 -2.52698 2.58507 0
M  V30 4107 O 390.99 -2.0232 3.88585 0
M  V30 4108 C 392.491 -3.45043 2.78316 0
M  V30 4109 H 389.711 -0.41195 0.529658 0
M  V30 4110 H 392.255 -0.687832 1.92585 0
M  V30 4111 H 390.41 -3.149 2.25648 0
M  V30 4112 H 390.824 -2.79068 4.44096 0
M  V30 4113 H 392.298 -4.2405 3.53391 0
M  V30 4114 H 392.775 -3.97971 1.85784 0
M  V30 4115 H 393.381 -2.88665 3.12334 0
M  V30 4116 N 391.696 -1.35014 -0.812953 0
M  V30 4117 C 392.943 -1.27931 -1.56971 0
M  V30 4118 C 393.271 0.148034 -1.93936 0
M  V30 4119 O 392.526 1.11175 -1.61054 0
M  V30 4120 C 392.825 -2.12524 -2.87347 0
M  V30 4121 C 392.491 -3.61401 -2.6963 0
M  V30 4122 C 391.153 -4.01983 -2.64506 0
M  V30 4123 C 393.505 -4.55894 -2.52607 0
M  V30 4124 C 390.833 -5.35235 -2.40293 0
M  V30 4125 C 393.185 -5.89336 -2.29925 0
M  V30 4126 C 391.849 -6.2907 -2.23219 0
M  V30 4127 H 391.119 -0.468131 -0.574399 0
M  V30 4128 H 393.766 -1.66851 -0.939836 0
M  V30 4129 H 392.071 -1.66463 -3.54679 0
M  V30 4130 H 393.768 -2.04383 -3.45005 0
M  V30 4131 H 390.358 -3.29193 -2.74463 0
M  V30 4132 H 394.542 -4.25431 -2.55583 0
M  V30 4133 H 389.798 -5.65028 -2.33566 0
M  V30 4134 H 393.972 -6.62139 -2.15743 0
M  V30 4135 H 391.599 -7.32256 -2.04219 0
M  V30 4136 N 393.175 1.03435 -1.18907 0
M  V30 4137 C 394.107 2.1165 -0.879595 0
M  V30 4138 C 395.12 1.62316 0.125439 0
M  V30 4139 O 396.309 1.78201 -0.103245 0
M  V30 4140 C 393.409 3.37622 -0.294042 0
M  V30 4141 C 392.582 4.16166 -1.34629 0
M  V30 4142 C 391.641 5.20457 -0.775274 0
M  V30 4143 O 390.667 5.50379 -1.4516 0
M  V30 4144 N 391.869 5.78949 0.424126 0
M  V30 4145 H 394.634 2.38791 -1.81105 0
M  V30 4146 H 392.195 1.19681 -1.09032 0
M  V30 4147 H 394.187 4.04572 0.101679 0
M  V30 4148 H 392.757 3.07873 0.541575 0
M  V30 4149 H 391.977 3.44444 -1.91707 0
M  V30 4150 H 393.265 4.65432 -2.05549 0
M  V30 4151 H 392.663 5.56948 0.991209 0
M  V30 4152 H 391.22 6.47334 0.761691 0
M  V30 4153 N 394.653 0.992116 1.22453 0
M  V30 4154 C 395.563 0.55065 2.28046 0
M  V30 4155 C 396.579 -0.400189 1.69335 0
M  V30 4156 O 397.755 -0.267215 1.99619 0
M  V30 4157 C 394.82 -0.128496 3.46462 0
M  V30 4158 C 393.881 0.865208 4.20491 0
M  V30 4159 C 393.114 0.218377 5.33253 0
M  V30 4160 O 393.337 -0.987894 5.6178 0
M  V30 4161 O 392.271 0.922845 5.94783 0
M  V30 4162 H 396.097 1.4291 2.67975 0
M  V30 4163 H 393.682 0.760326 1.28606 0
M  V30 4164 H 395.564 -0.508947 4.18315 0
M  V30 4165 H 394.239 -0.981526 3.0846 0
M  V30 4166 H 393.146 1.29658 3.50913 0
M  V30 4167 H 394.479 1.68741 4.62371 0
M  V30 4168 N 396.131 -1.37776 0.765217 0
M  V30 4169 C 397.094 -2.28686 0.153416 0
M  V30 4170 C 398.094 -1.47727 -0.635081 0
M  V30 4171 O 399.284 -1.68027 -0.459632 0
M  V30 4172 C 396.416 -3.31608 -0.790495 0
M  V30 4173 H 397.609 -2.84297 0.954723 0
M  V30 4174 H 395.162 -1.46932 0.53299 0
M  V30 4175 H 395.897 -2.81109 -1.61705 0
M  V30 4176 H 395.682 -3.9144 -0.227348 0
M  V30 4177 H 397.172 -3.99559 -1.21419 0
M  V30 4178 N 397.609 -0.515225 -1.4894 0
M  V30 4179 C 398.572 0.244681 -2.2789 0
M  V30 4180 C 399.572 0.881166 -1.34507 0
M  V30 4181 O 400.762 0.743497 -1.57537 0
M  V30 4182 C 397.894 1.35247 -3.12923 0
M  V30 4183 H 399.087 -0.448289 -2.96531 0
M  V30 4184 H 396.64 -0.270656 -1.53939 0
M  V30 4185 H 397.375 2.07916 -2.48881 0
M  V30 4186 H 397.16 0.901374 -3.81599 0
M  V30 4187 H 398.65 1.88737 -3.72516 0
M  V30 4188 N 399.087 1.5561 -0.249682 0
M  V30 4189 C 400.035 2.22894 0.664906 0
M  V30 4190 C 401.029 1.21743 1.17792 0
M  V30 4191 O 402.235 1.39748 1.13449 0
M  V30 4192 H 398.61 0.715022 0.232912 0
M  V30 4193 H 400.581 2.98307 0.0742998 0
M  V30 4194 C 399.33 2.94424 1.84959 0
M  V30 4195 H 398.653 3.72031 1.46399 0
M  V30 4196 H 400.093 3.44862 2.4667 0
M  V30 4197 C 398.552 1.98454 2.72245 0
M  V30 4198 O 399.082 1.51939 3.71857 0
M  V30 4199 N 397.288 1.65496 2.38871 0
M  V30 4200 H 396.835 2.03517 1.57919 0
M  V30 4201 H 396.793 1.0155 2.97548 0
M  V30 4202 N 400.565 -0.0233959 1.57583 0
M  V30 4203 C 401.475 -1.03907 2.10334 0
M  V30 4204 C 402.491 -1.39257 1.04323 0
M  V30 4205 O 403.667 -1.48462 1.36091 0
M  V30 4206 C 400.732 -2.31938 2.57693 0
M  V30 4207 C 399.793 -2.03117 3.78209 0
M  V30 4208 C 399.026 -3.25043 4.233 0
M  V30 4209 O 399.249 -4.35916 3.67876 0
M  V30 4210 O 398.183 -3.10411 5.15683 0
M  V30 4211 H 402.009 -0.620748 2.97288 0
M  V30 4212 H 399.594 -0.240743 1.47448 0
M  V30 4213 H 401.476 -3.07196 2.88458 0
M  V30 4214 H 400.151 -2.73055 1.73847 0
M  V30 4215 H 399.058 -1.25408 3.52454 0
M  V30 4216 H 400.391 -1.66852 4.63056 0
M  V30 4217 N 402.043 -1.548 -0.295768 0
M  V30 4218 C 403.283 -1.76069 -1.03823 0
M  V30 4219 C 403.647 -0.537992 -1.84309 0
M  V30 4220 O 404.848 -0.628514 -2.61349 0
M  V30 4221 C 403.119 -3.01705 -1.91596 0
M  V30 4222 S 404.678 -3.43998 -2.72416 0
M  V30 4223 H 401.496 -0.618852 -0.350062 0
M  V30 4224 H 404.098 -1.93009 -0.31106 0
M  V30 4225 H 402.802 -3.88812 -1.31351 0
M  V30 4226 H 402.333 -2.87366 -2.68671 0
M  V30 4227 H 404.348 -3.0148 -3.94112 0
M  V30 4228 N 403.521 0.559213 -1.47345 0
M  V30 4229 C 404.937 0.884943 -1.32819 0
M  V30 4230 C 405.137 1.98988 -0.317173 0
M  V30 4231 O 404.193 2.51031 0.272011 0
M  V30 4232 C 405.506 1.28007 -2.72093 0
M  V30 4233 C 407.054 1.39161 -2.80363 0
M  V30 4234 C 407.529 1.82031 -4.20272 0
M  V30 4235 N 409.02 1.89185 -4.22804 0
M  V30 4236 C 409.755 2.2368 -5.27973 0
M  V30 4237 N 409.251 2.56802 -6.43447 0
M  V30 4238 N 411.044 2.24436 -5.15349 0
M  V30 4239 H 403.195 -0.170304 -2.11716 0
M  V30 4240 H 405.458 -0.0135247 -0.947904 0
M  V30 4241 H 405.164 0.542027 -3.47498 0
M  V30 4242 H 405.038 2.23665 -3.03733 0
M  V30 4243 H 407.425 2.12048 -2.05231 0
M  V30 4244 H 407.506 0.41696 -2.52379 0
M  V30 4245 H 407.15 1.09715 -4.95908 0
M  V30 4246 H 407.08 2.80495 -4.45679 0
M  V30 4247 H 409.571 1.65982 -3.39497 0
M  V30 4248 H 409.884 2.82144 -7.19454 0
M  V30 4249 H 408.229 2.54387 -6.46771 0
M  V30 4250 H 411.42 1.97998 -4.24163 0
M  V30 4251 H 411.593 2.50989 -5.97418 0
M  V30 4252 N 404.999 1.35443 0.805782 0
M  V30 4253 C 406.415 1.15499 1.10146 0
M  V30 4254 C 406.615 -0.0319975 2.01475 0
M  V30 4255 O 405.671 -0.70236 2.42535 0
M  V30 4256 C 406.984 2.45833 1.73166 0
M  V30 4257 C 408.532 2.52047 1.85583 0
M  V30 4258 C 409.007 3.82427 2.52019 0
M  V30 4259 N 410.498 3.83682 2.59504 0
M  V30 4260 C 411.233 4.81294 3.11679 0
M  V30 4261 N 410.729 5.89294 3.64287 0
M  V30 4262 N 412.522 4.6873 3.1024 0
M  V30 4263 H 404.673 2.11469 0.198678 0
M  V30 4264 H 406.936 0.93594 0.150731 0
M  V30 4265 H 406.642 3.32874 1.13526 0
M  V30 4266 H 406.516 2.6044 2.72857 0
M  V30 4267 H 408.903 1.65435 2.44367 0
M  V30 4268 H 408.984 2.41354 0.847455 0
M  V30 4269 H 408.628 4.69437 1.93885 0
M  V30 4270 H 408.558 3.90409 3.53395 0
M  V30 4271 H 411.049 3.05648 2.22234 0
M  V30 4272 H 411.362 6.59768 4.02401 0
M  V30 4273 H 409.707 5.92985 3.62483 0
M  V30 4274 H 412.898 3.83496 2.68419 0
M  V30 4275 H 413.071 5.44965 3.50596 0
M  V30 4276 N 406.477 -1.02803 1.19454 0
M  V30 4277 C 407.407 -2.12999 0.956758 0
M  V30 4278 C 408.388 -1.69743 -0.110188 0
M  V30 4279 O 409.573 -1.94148 0.0450038 0
M  V30 4280 C 406.703 -3.43746 0.495553 0
M  V30 4281 C 405.657 -4.00688 1.50443 0
M  V30 4282 C 404.983 -5.27067 0.900275 0
M  V30 4283 C 406.283 -4.35397 2.8849 0
M  V30 4284 H 407.977 -2.33148 1.87836 0
M  V30 4285 H 405.523 -1.12045 0.904539 0
M  V30 4286 H 407.476 -4.2021 0.316493 0
M  V30 4287 H 406.2 -3.23321 -0.461646 0
M  V30 4288 H 404.859 -3.2632 1.67065 0
M  V30 4289 H 404.507 -5.02959 -0.064503 0
M  V30 4290 H 404.207 -5.66127 1.57397 0
M  V30 4291 H 405.731 -6.06196 0.73203 0
M  V30 4292 H 407.145 -5.02795 2.75446 0
M  V30 4293 H 405.542 -4.85541 3.52661 0
M  V30 4294 H 406.612 -3.44662 3.41081 0
M  V30 4295 N 407.956 -0.998596 -1.21925 0
M  V30 4296 C 409.204 -0.676325 -1.90448 0
M  V30 4297 C 409.525 0.794719 -1.78071 0
M  V30 4298 O 408.795 1.5701 -1.17152 0
M  V30 4299 H 407.375 -0.247165 -0.704925 0
M  V30 4300 H 410.037 -1.26633 -1.48156 0
M  V30 4301 H 409.133 -0.943858 -2.97486 0
M  V30 4302 N 409.434 1.37368 -0.772513 0
M  V30 4303 C 410.397 2.28601 -0.165541 0
M  V30 4304 C 411.397 1.48062 0.627238 0
M  V30 4305 O 412.587 1.68268 0.450715 0
M  V30 4306 C 409.719 3.32023 0.772897 0
M  V30 4307 H 410.912 2.83787 -0.969787 0
M  V30 4308 H 408.465 1.46647 -0.540775 0
M  V30 4309 H 409.2 2.81962 1.60212 0
M  V30 4310 H 408.985 3.91555 0.206585 0
M  V30 4311 H 410.475 4.00197 1.19298 0
M  V30 4312 N 410.912 0.523116 1.48665 0
M  V30 4313 C 412.328 0.180511 1.58576 0
M  V30 4314 C 412.528 -1.31597 1.52592 0
M  V30 4315 O 411.584 -2.0937 1.4114 0
M  V30 4316 C 412.897 0.776949 2.90489 0
M  V30 4317 C 414.445 0.745058 3.04003 0
M  V30 4318 C 414.92 1.31995 4.38567 0
M  V30 4319 N 416.411 1.28162 4.45117 0
M  V30 4320 C 417.146 1.6964 5.47731 0
M  V30 4321 N 416.642 2.18816 6.57337 0
M  V30 4322 N 418.435 1.6092 5.38573 0
M  V30 4323 H 410.586 1.4958 1.50797 0
M  V30 4324 H 412.849 0.621772 0.715614 0
M  V30 4325 H 412.555 1.82732 3.00503 0
M  V30 4326 H 412.429 0.25007 3.7637 0
M  V30 4327 H 414.816 -0.296532 2.93606 0
M  V30 4328 H 414.897 1.30933 2.1975 0
M  V30 4329 H 414.541 2.36043 4.49718 0
M  V30 4330 H 414.471 0.731418 5.21496 0
M  V30 4331 H 416.962 0.92155 3.66491 0
M  V30 4332 H 417.275 2.48478 7.31764 0
M  V30 4333 H 415.62 2.22805 6.58318 0
M  V30 4334 H 418.811 1.22304 4.5184 0
M  V30 4335 H 418.984 1.93567 6.18414 0
M  V30 4336 N 412.39 -1.55475 0.257931 0
M  V30 4337 C 413.32 -2.24815 -0.630912 0
M  V30 4338 C 414.301 -1.23224 -1.17259 0
M  V30 4339 O 415.486 -1.51904 -1.20991 0
M  V30 4340 C 412.616 -2.95609 -1.82298 0
M  V30 4341 C 411.57 -4.03982 -1.41359 0
M  V30 4342 C 410.896 -4.6226 -2.68738 0
M  V30 4343 C 412.196 -5.19109 -0.57648 0
M  V30 4344 H 413.89 -2.99354 -0.0526878 0
M  V30 4345 H 411.436 -1.4398 -0.023901 0
M  V30 4346 H 413.389 -3.42822 -2.45054 0
M  V30 4347 H 412.113 -2.18577 -2.42676 0
M  V30 4348 H 410.772 -3.57555 -0.809324 0
M  V30 4349 H 410.42 -3.81915 -3.27338 0
M  V30 4350 H 410.12 -5.35424 -2.42065 0
M  V30 4351 H 411.644 -5.12212 -3.32372 0
M  V30 4352 H 413.058 -5.62479 -1.10861 0
M  V30 4353 H 411.455 -5.98729 -0.405351 0
M  V30 4354 H 412.525 -4.83174 0.408776 0
M  V30 4355 N 413.868 0.0150385 -1.57593 0
M  V30 4356 C 414.831 0.995996 -2.06428 0
M  V30 4357 C 415.831 1.2818 -0.970903 0
M  V30 4358 O 417.021 1.22949 -1.23406 0
M  V30 4359 C 414.153 2.32506 -2.49307 0
M  V30 4360 H 415.346 0.573873 -2.94358 0
M  V30 4361 H 412.899 0.262186 -1.54085 0
M  V30 4362 H 413.634 2.79438 -1.64575 0
M  V30 4363 H 413.419 2.13087 -3.29145 0
M  V30 4364 H 414.909 3.02906 -2.87468 0
M  V30 4365 N 415.346 1.54954 0.287554 0
M  V30 4366 C 416.574 1.78881 1.03967 0
M  V30 4367 C 416.989 0.554894 1.80462 0
M  V30 4368 O 416.346 -0.475676 1.76192 0
M  V30 4369 C 416.397 3.00488 2.0097 0
M  V30 4370 O 416.118 4.19113 1.27577 0
M  V30 4371 C 417.619 3.36907 2.88112 0
M  V30 4372 H 414.839 0.596259 0.307761 0
M  V30 4373 H 417.383 2.01937 0.322749 0
M  V30 4374 H 415.538 2.79601 2.68145 0
M  V30 4375 H 415.952 4.87765 1.92835 0
M  V30 4376 H 417.426 4.25205 3.52001 0
M  V30 4377 H 417.903 2.55659 3.57121 0
M  V30 4378 H 418.509 3.60001 2.26449 0
M  V30 4379 N 416.824 -0.551391 1.4764 0
M  V30 4380 C 418.052 -1.33357 1.58189 0
M  V30 4381 C 418.467 -1.87342 0.234199 0
M  V30 4382 O 417.824 -1.65301 -0.77343 0
M  V30 4383 C 417.875 -2.49942 2.61173 0
M  V30 4384 O 417.596 -1.98187 3.90709 0
M  V30 4385 C 419.097 -3.42072 2.8196 0
M  V30 4386 H 416.317 -0.40631 0.533998 0
M  V30 4387 H 418.861 -0.667367 1.93304 0
M  V30 4388 H 417.016 -3.12489 2.28975 0
M  V30 4389 H 417.43 -2.74342 4.47031 0
M  V30 4390 H 418.904 -4.20278 3.57869 0
M  V30 4391 H 419.381 -3.95978 1.89995 0
M  V30 4392 H 419.987 -2.85336 3.15378 0
M  V30 4393 N 418.302 -1.35869 -0.798587 0
M  V30 4394 C 419.55 -1.29332 -1.55298 0
M  V30 4395 C 419.871 0.129729 -1.94568 0
M  V30 4396 O 419.141 1.06796 -1.6423 0
M  V30 4397 H 417.721 -0.475737 -0.57592 0
M  V30 4398 H 420.383 -1.70062 -0.952093 0
M  V30 4399 H 419.479 -1.91458 -2.46476 0
M  V30 4400 N 419.78 1.02168 -1.19998 0
M  V30 4401 C 420.73 2.08969 -0.911921 0
M  V30 4402 C 421.714 1.60404 0.12621 0
M  V30 4403 O 422.906 1.76817 -0.0804706 0
M  V30 4404 C 420.035 3.402 -0.460277 0
M  V30 4405 C 419.121 3.9548 -1.53155 0
M  V30 4406 N 419.512 4.24332 -2.75275 0
M  V30 4407 C 417.81 4.23572 -1.39653 0
M  V30 4408 C 418.511 4.68834 -3.44339 0
M  V30 4409 N 417.487 4.70804 -2.71744 0
M  V30 4410 H 421.289 2.29178 -1.83997 0
M  V30 4411 H 418.803 1.20094 -1.09322 0
M  V30 4412 H 420.8 4.16235 -0.235337 0
M  V30 4413 H 419.46 3.21408 0.4612 0
M  V30 4414 H 420.471 4.13393 -3.11973 0
M  V30 4415 H 417.148 4.14005 -0.539067 0
M  V30 4416 H 418.538 5.00019 -4.4881 0
M  V30 4417 N 421.258 1.00505 1.21394 0
M  V30 4418 C 422.504 0.688793 1.90745 0
M  V30 4419 C 422.837 -0.778486 1.77914 0
M  V30 4420 O 422.112 -1.56433 1.15581 0
M  V30 4421 C 422.395 1.11063 3.42545 0
M  V30 4422 C 422.248 2.63737 3.64367 0
M  V30 4423 C 423.567 0.673059 4.34923 0
M  V30 4424 H 420.686 0.251702 0.692687 0
M  V30 4425 H 423.328 1.25074 1.43026 0
M  V30 4426 H 421.478 0.632508 3.83317 0
M  V30 4427 H 423.15 3.19313 3.32922 0
M  V30 4428 H 421.393 3.05248 3.08231 0
M  V30 4429 H 422.064 2.88305 4.70727 0
M  V30 4430 H 424.54 1.08392 4.01734 0
M  V30 4431 H 423.416 0.996383 5.39781 0
M  V30 4432 H 423.677 -0.425808 4.40045 0
M  V30 4433 N 422.737 -1.36956 0.779787 0
M  V30 4434 C 423.967 -2.03459 0.358877 0
M  V30 4435 C 424.375 -1.58939 -1.02641 0
M  V30 4436 O 423.718 -0.769777 -1.66794 0
M  V30 4437 C 423.78 -3.5796 0.332393 0
M  V30 4438 C 423.444 -4.25644 1.66362 0
M  V30 4439 C 424.441 -4.49205 2.61746 0
M  V30 4440 C 422.126 -4.63313 1.94027 0
M  V30 4441 C 424.12 -5.09503 3.82996 0
M  V30 4442 C 421.807 -5.2333 3.15546 0
M  V30 4443 C 422.805 -5.46363 4.0985 0
M  V30 4444 O 422.493 -6.05122 5.29228 0
M  V30 4445 H 422.225 -0.659767 0.147254 0
M  V30 4446 H 424.779 -1.76111 1.05708 0
M  V30 4447 H 423.009 -3.84388 -0.422237 0
M  V30 4448 H 424.698 -4.05852 -0.0625389 0
M  V30 4449 H 425.464 -4.20508 2.41657 0
M  V30 4450 H 421.343 -4.44715 1.21448 0
M  V30 4451 H 424.887 -5.27397 4.56617 0
M  V30 4452 H 420.784 -5.51451 3.35517 0
M  V30 4453 H 421.552 -6.23595 5.30161 0
M  V30 4454 N 424.215 -0.530993 -1.48385 0
M  V30 4455 C 425.145 0.219985 -2.32461 0
M  V30 4456 C 426.126 0.934111 -1.42156 0
M  V30 4457 O 427.311 0.919694 -1.71042 0
M  V30 4458 C 424.441 1.26674 -3.23375 0
M  V30 4459 C 423.395 0.67069 -4.22712 0
M  V30 4460 C 422.721 1.82017 -5.02766 0
M  V30 4461 C 424.021 -0.358268 -5.2107 0
M  V30 4462 H 425.715 -0.48187 -2.95497 0
M  V30 4463 H 423.261 -0.233182 -1.42099 0
M  V30 4464 H 425.214 1.80006 -3.81019 0
M  V30 4465 H 423.938 1.99818 -2.58341 0
M  V30 4466 H 422.597 0.158878 -3.66256 0
M  V30 4467 H 422.245 2.54002 -4.34157 0
M  V30 4468 H 421.945 1.42727 -5.70003 0
M  V30 4469 H 423.469 2.35725 -5.63264 0
M  V30 4470 H 424.883 0.0880081 -5.73232 0
M  V30 4471 H 423.28 -0.66861 -5.96364 0
M  V30 4472 H 424.35 -1.26367 -4.68145 0
M  V30 4473 N 425.693 1.55336 -0.266172 0
M  V30 4474 C 426.656 2.20878 0.612001 0
M  V30 4475 C 427.656 1.18388 1.08816 0
M  V30 4476 O 428.846 1.4335 0.989774 0
M  V30 4477 C 425.978 2.86765 1.84332 0
M  V30 4478 H 427.171 2.99873 0.0398718 0
M  V30 4479 H 424.724 1.56291 -0.0167309 0
M  V30 4480 H 425.459 2.11759 2.45619 0
M  V30 4481 H 425.244 3.61862 1.5099 0
M  V30 4482 H 426.734 3.36867 2.46801 0
M  V30 4483 N 427.171 -0.0066808 1.57599 0
M  V30 4484 C 428.417 -0.68835 1.91398 0
M  V30 4485 C 428.772 -1.7175 0.86716 0
M  V30 4486 O 428.065 -1.91215 -0.121475 0
M  V30 4487 C 428.259 -1.37939 3.29708 0
M  V30 4488 C 428.088 -0.418689 4.47747 0
M  V30 4489 C 426.858 -0.031526 5.0529 0
M  V30 4490 C 429.056 0.312301 5.13351 0
M  V30 4491 N 427.038 0.928088 6.06844 0
M  V30 4492 C 428.409 1.12682 6.09674 0
M  V30 4493 C 430.464 0.376853 4.96472 0
M  V30 4494 C 429.167 2 6.90936 0
M  V30 4495 C 431.193 1.23723 5.78314 0
M  V30 4496 C 430.555 2.03962 6.74225 0
M  V30 4497 H 426.654 -0.225292 0.748844 0
M  V30 4498 H 429.238 0.0520973 1.9463 0
M  V30 4499 H 427.409 -2.09017 3.27363 0
M  V30 4500 H 429.141 -2.01522 3.50957 0
M  V30 4501 H 425.896 -0.398485 4.71921 0
M  V30 4502 H 426.32 1.40307 6.62301 0
M  V30 4503 H 430.962 -0.22921 4.22178 0
M  V30 4504 H 428.68 2.61676 7.64559 0
M  V30 4505 H 432.266 1.291 5.67296 0
M  V30 4506 H 431.146 2.69461 7.36451 0
M  V30 4507 N 428.649 -1.55105 -0.279332 0
M  V30 4508 C 429.581 -1.83952 -1.36727 0
M  V30 4509 C 430.594 -0.723642 -1.45833 0
M  V30 4510 O 431.783 -1.00141 -1.47763 0
M  V30 4511 C 428.883 -1.98183 -2.74912 0
M  V30 4512 C 428.056 -3.28787 -2.88475 0
M  V30 4513 C 427.115 -3.33162 -4.07295 0
M  V30 4514 O 426.141 -4.06576 -3.98353 0
M  V30 4515 N 427.343 -2.60109 -5.18964 0
M  V30 4516 H 430.108 -2.77853 -1.12328 0
M  V30 4517 H 427.669 -1.54945 -0.469442 0
M  V30 4518 H 429.661 -1.98488 -3.52682 0
M  V30 4519 H 428.231 -1.11177 -2.92162 0
M  V30 4520 H 427.451 -3.41075 -1.97641 0
M  V30 4521 H 428.739 -4.14933 -2.94463 0
M  V30 4522 H 428.137 -2.00136 -5.29115 0
M  V30 4523 H 426.694 -2.66143 -5.94988 0
M  V30 4524 N 430.127 0.543554 -1.4793 0
M  V30 4525 C 431.09 1.63156 -1.60975 0
M  V30 4526 C 432.09 1.53346 -0.483899 0
M  V30 4527 O 433.28 1.5726 -0.749339 0
M  V30 4528 C 430.412 3.02743 -1.56716 0
M  V30 4529 H 431.605 1.52934 -2.57975 0
M  V30 4530 H 429.158 0.764557 -1.36324 0
M  V30 4531 H 429.893 3.18484 -0.611418 0
M  V30 4532 H 429.678 3.11272 -2.38438 0
M  V30 4533 H 431.168 3.81871 -1.6901 0
M  V30 4534 N 431.605 1.3629 0.791371 0
M  V30 4535 C 432.853 1.30154 1.5461 0
M  V30 4536 C 433.174 -0.119409 1.94634 0
M  V30 4537 O 432.444 -1.05924 1.64794 0
M  V30 4538 H 431.024 0.478784 0.573389 0
M  V30 4539 H 433.686 1.70565 0.94306 0
M  V30 4540 H 432.782 1.92762 2.45457 0
M  V30 4541 N 433.083 -1.0153 1.20538 0
M  V30 4542 C 434.016 -2.09759 0.898695 0
M  V30 4543 C 434.994 -1.61909 -0.149733 0
M  V30 4544 O 436.178 -1.88486 -0.0230293 0
M  V30 4545 C 433.305 -3.36913 0.347512 0
M  V30 4546 C 432.351 -4.03655 1.37713 0
M  V30 4547 S 433.184 -4.47402 2.94265 0
M  V30 4548 C 434.34 -5.77756 2.40726 0
M  V30 4549 H 434.573 -2.3545 1.81523 0
M  V30 4550 H 432.106 -1.14665 1.03399 0
M  V30 4551 H 434.064 -4.10484 0.0360518 0
M  V30 4552 H 432.725 -3.09291 -0.547546 0
M  V30 4553 H 431.918 -4.9514 0.940872 0
M  V30 4554 H 431.52 -3.36313 1.63614 0
M  V30 4555 H 433.812 -6.52994 1.80569 0
M  V30 4556 H 434.755 -6.2618 3.30612 0
M  V30 4557 H 435.163 -5.34081 1.82806 0
M  V30 4558 N 434.561 -1.01147 -1.20859 0
M  V30 4559 C 435.838 -0.613136 -1.85742 0
M  V30 4560 C 436.218 0.909004 -1.90526 0
M  V30 4561 O 435.566 1.79862 -1.40932 0
M  V30 4562 C 435.776 -1.255 -3.25654 0
M  V30 4563 C 437.124 -1.3672 -4.01986 0
M  V30 4564 O 438.148 -1.21082 -3.34989 0
M  V30 4565 O 437.007 -1.6194 -5.21956 0
M  V30 4566 H 434.101 -0.210878 -0.799662 0
M  V30 4567 H 436.647 -1.10853 -1.2849 0
M  V30 4568 H 435.419 -2.29532 -3.16908 0
M  V30 4569 H 435.042 -0.746369 -3.90532 0
M  V30 4570 N 436.039 1.36541 -0.78704 0
M  V30 4571 C 436.972 2.27831 -0.129765 0
M  V30 4572 C 437.95 1.47105 0.692732 0
M  V30 4573 O 439.134 1.7641 0.664222 0
M  V30 4574 C 436.261 3.28577 0.821883 0
M  V30 4575 C 435.307 4.26422 0.0814771 0
M  V30 4576 S 436.14 5.20919 -1.24112 0
M  V30 4577 C 437.296 6.25212 -0.293409 0
M  V30 4578 H 437.529 2.83229 -0.903811 0
M  V30 4579 H 435.062 1.43046 -0.581144 0
M  V30 4580 H 437.02 3.87123 1.3655 0
M  V30 4581 H 435.681 2.72096 1.56916 0
M  V30 4582 H 434.874 4.97554 0.803485 0
M  V30 4583 H 434.476 3.71944 -0.391589 0
M  V30 4584 H 436.768 6.75435 0.528622 0
M  V30 4585 H 437.711 7.01378 -0.973344 0
M  V30 4586 H 438.119 5.64407 0.102196 0
M  V30 4587 N 437.518 0.538854 1.48102 0
M  V30 4588 C 438.758 0.0101209 2.04397 0
M  V30 4589 C 439.122 -1.30741 1.40609 0
M  V30 4590 O 440.323 -1.92272 1.87843 0
M  V30 4591 C 438.594 -0.100232 3.57259 0
M  V30 4592 S 440.153 -0.577746 4.3498 0
M  V30 4593 H 436.971 0.0163171 0.710813 0
M  V30 4594 H 439.573 0.721429 1.81702 0
M  V30 4595 H 438.277 0.863351 4.01216 0
M  V30 4596 H 437.808 -0.835651 3.84422 0
M  V30 4597 H 439.823 -1.84073 4.60794 0
M  V30 4598 N 438.996 -1.55193 0.274407 0
M  V30 4599 C 440.221 -2.04446 -0.348824 0
M  V30 4600 C 440.646 -1.15149 -1.48735 0
M  V30 4601 O 440.004 -0.149952 -1.80679 0
M  V30 4602 C 440.052 -3.51431 -0.808009 0
M  V30 4603 O 439.156 -3.65225 -1.91531 0
M  V30 4604 H 438.497 -0.66006 -0.0722276 0
M  V30 4605 H 441.027 -2.00481 0.408498 0
M  V30 4606 H 441.037 -3.92781 -1.10395 0
M  V30 4607 H 439.712 -4.15892 0.0249865 0
M  V30 4608 H 438.289 -3.35778 -1.62196 0
M  V30 4609 N 440.474 -0.00167713 -1.576 0
M  V30 4610 C 441.437 0.974046 -2.07473 0
M  V30 4611 C 442.437 1.27143 -0.984444 0
M  V30 4612 O 443.627 1.21633 -1.24703 0
M  V30 4613 C 440.759 2.29849 -2.51759 0
M  V30 4614 H 441.952 0.54262 -2.9495 0
M  V30 4615 H 439.505 0.245829 -1.54355 0
M  V30 4616 H 440.24 2.77677 -1.67529 0
M  V30 4617 H 440.025 2.09584 -3.31386 0
M  V30 4618 H 441.515 2.9984 -2.90664 0
M  V30 4619 N 441.952 1.55251 0.271103 0
M  V30 4620 C 443.2 1.75599 1.00047 0
M  V30 4621 C 443.521 0.561188 1.8675 0
M  V30 4622 O 442.791 -0.423846 1.9126 0
M  V30 4623 H 441.371 0.647562 0.372387 0
M  V30 4624 H 444.033 1.92656 0.294876 0
M  V30 4625 H 443.129 2.65766 1.6363 0
M  V30 4626 N 443.43 -0.535701 1.48216 0
M  V30 4627 C 444.676 -1.2913 1.57153 0
M  V30 4628 C 445.031 -1.90899 0.239823 0
M  V30 4629 O 444.324 -1.76022 -0.756748 0
M  V30 4630 C 444.518 -2.4068 2.64212 0
M  V30 4631 C 444.347 -1.89844 4.07663 0
M  V30 4632 C 443.117 -1.72708 4.74869 0
M  V30 4633 C 445.315 -1.43031 4.94011 0
M  V30 4634 N 443.297 -1.16437 6.02757 0
M  V30 4635 C 444.668 -0.986691 6.12098 0
M  V30 4636 C 446.723 -1.3128 4.80281 0
M  V30 4637 C 445.426 -0.437231 7.1797 0
M  V30 4638 C 447.452 -0.777346 5.86269 0
M  V30 4639 C 446.814 -0.343774 7.03561 0
M  V30 4640 H 442.913 -0.463753 0.629648 0
M  V30 4641 H 445.497 -0.604736 1.8507 0
M  V30 4642 H 443.668 -3.06839 2.38126 0
M  V30 4643 H 445.4 -3.07706 2.62867 0
M  V30 4644 H 442.155 -1.96061 4.31111 0
M  V30 4645 H 442.579 -0.903281 6.70947 0
M  V30 4646 H 447.221 -1.63408 3.89946 0
M  V30 4647 H 444.939 -0.103621 8.08034 0
M  V30 4648 H 448.525 -0.689688 5.77698 0
M  V30 4649 H 447.405 0.0641219 7.84174 0
M  V30 4650 N 444.908 -1.36708 -0.784132 0
M  V30 4651 C 445.838 -1.34153 -1.91116 0
M  V30 4652 C 446.819 -0.212121 -1.68772 0
M  V30 4653 O 448.004 -0.410581 -1.8981 0
M  V30 4654 C 445.134 -1.13535 -3.28218 0
M  V30 4655 C 444.088 -2.23356 -3.65097 0
M  V30 4656 C 443.414 -1.87875 -5.00607 0
M  V30 4657 C 444.714 -3.65473 -3.73131 0
M  V30 4658 H 446.408 -2.28459 -1.93512 0
M  V30 4659 H 443.954 -1.09973 -0.929618 0
M  V30 4660 H 445.907 -1.10381 -4.06687 0
M  V30 4661 H 444.631 -0.156804 -3.26223 0
M  V30 4662 H 443.29 -2.25645 -2.88929 0
M  V30 4663 H 442.938 -0.885814 -4.95139 0
M  V30 4664 H 442.638 -2.61406 -5.26252 0
M  V30 4665 H 444.162 -1.86286 -5.81489 0
M  V30 4666 H 445.576 -3.65382 -4.41779 0
M  V30 4667 H 443.973 -4.37953 -4.10265 0
M  V30 4668 H 445.043 -3.99995 -2.74102 0
M  V30 4669 N 446.386 1.0089 -1.21074 0
M  V30 4670 C 447.349 2.0775 -0.968129 0
M  V30 4671 C 448.349 1.6069 0.0593445 0
M  V30 4672 O 449.539 1.73293 -0.177525 0
M  V30 4673 C 446.671 3.37794 -0.459108 0
M  V30 4674 H 447.864 2.30707 -1.9161 0
M  V30 4675 H 445.417 1.17807 -1.02719 0
M  V30 4676 H 446.152 3.20516 0.49397 0
M  V30 4677 H 445.937 3.7328 -1.20019 0
M  V30 4678 H 447.427 4.16454 -0.309099 0
M  V30 4679 N 447.864 1.01787 1.20321 0
M  V30 4680 C 449.141 0.622978 1.85414 0
M  V30 4681 C 449.521 -0.898887 1.91006 0
M  V30 4682 O 448.869 -1.79112 1.41884 0
M  V30 4683 C 449.079 1.27226 3.24984 0
M  V30 4684 C 450.427 1.3885 4.01255 0
M  V30 4685 O 451.451 1.22857 3.34342 0
M  V30 4686 O 450.31 1.64705 5.2109 0
M  V30 4687 H 447.404 0.215116 0.798533 0
M  V30 4688 H 449.95 1.11533 1.27901 0
M  V30 4689 H 448.722 2.31209 3.15687 0
M  V30 4690 H 448.345 0.767069 3.90131 0
M  V30 4691 N 449.342 -1.36122 0.79427 0
M  V30 4692 C 450.758 -1.5232 0.476525 0
M  V30 4693 C 450.958 -1.74685 -1.00436 0
M  V30 4694 O 450.014 -1.78115 -1.78973 0
M  V30 4695 C 451.327 -2.70607 1.31119 0
M  V30 4696 C 452.875 -2.8448 1.30537 0
M  V30 4697 C 453.35 -4.05778 2.12387 0
M  V30 4698 N 454.841 -4.12933 2.09859 0
M  V30 4699 C 455.576 -5.05876 2.69957 0
M  V30 4700 N 455.072 -6.04232 3.38934 0
M  V30 4701 N 456.865 -4.98528 2.59665 0
M  V30 4702 H 449.016 -1.1986 1.75349 0
M  V30 4703 H 451.279 -0.585418 0.745647 0
M  V30 4704 H 450.985 -2.60619 2.36158 0
M  V30 4705 H 450.859 -3.64888 0.955843 0
M  V30 4706 H 453.246 -2.93927 0.262876 0
M  V30 4707 H 453.327 -1.91093 1.70051 0
M  V30 4708 H 452.971 -3.97092 3.1667 0
M  V30 4709 H 452.901 -4.98323 1.70242 0
M  V30 4710 H 455.392 -3.42515 1.59662 0
M  V30 4711 H 455.705 -6.71724 3.82109 0
M  V30 4712 H 454.05 -6.04443 3.43036 0
M  V30 4713 H 457.241 -4.20641 2.05375 0
M  V30 4714 H 457.414 -5.70773 3.06793 0
M  V30 4715 N 450.82 -0.546701 -1.47814 0
M  V30 4716 C 452.045 -0.021268 -2.07389 0
M  V30 4717 C 452.47 1.25822 -1.39822 0
M  V30 4718 O 451.828 1.75111 -0.46968 0
M  V30 4719 C 451.876 0.168502 -3.60206 0
M  V30 4720 O 450.98 1.23347 -3.93522 0
M  V30 4721 H 450.321 -0.0466108 -0.662362 0
M  V30 4722 H 452.851 -0.759387 -1.89985 0
M  V30 4723 H 452.861 0.385982 -4.0617 0
M  V30 4724 H 451.536 -0.766075 -4.08784 0
M  V30 4725 H 450.113 0.997319 -3.59316 0
M  V30 4726 N 452.299 1.55045 -0.282633 0
M  V30 4727 C 453.545 2.00056 0.332481 0
M  V30 4728 C 453.878 1.1708 1.54939 0
M  V30 4729 O 453.153 0.2427 1.9298 0
M  V30 4730 C 453.436 3.53086 0.70725 0
M  V30 4731 C 453.289 4.46813 -0.517521 0
M  V30 4732 C 454.608 4.12245 1.54084 0
M  V30 4733 H 451.727 0.727268 0.119373 0
M  V30 4734 H 454.369 1.85932 -0.391076 0
M  V30 4735 H 452.519 3.65253 1.32372 0
M  V30 4736 H 454.191 4.46579 -1.15607 0
M  V30 4737 H 452.434 4.18163 -1.1542 0
M  V30 4738 H 453.105 5.51595 -0.211426 0
M  V30 4739 H 455.581 4.03401 1.02013 0
M  V30 4740 H 454.457 5.19515 1.77186 0
M  V30 4741 H 454.718 3.62951 2.52427 0
M  V30 4742 N 453.777 0.010035 1.57597 0
M  V30 4743 C 455.193 -0.346164 1.55801 0
M  V30 4744 C 455.393 -1.74144 1.01371 0
M  V30 4745 O 454.449 -2.43938 0.651968 0
M  V30 4746 C 455.762 -0.212216 2.9995 0
M  V30 4747 C 457.31 -0.286409 3.11687 0
M  V30 4748 C 457.785 -0.18147 4.5764 0
M  V30 4749 N 459.276 -0.239056 4.62583 0
M  V30 4750 C 460.011 -0.181351 5.73113 0
M  V30 4751 N 459.507 -0.073661 6.92761 0
M  V30 4752 N 461.3 -0.233949 5.61613 0
M  V30 4753 H 453.451 0.922657 1.91313 0
M  V30 4754 H 455.714 0.354595 0.879185 0
M  V30 4755 H 455.42 0.748169 3.4365 0
M  V30 4756 H 455.294 -0.990224 3.6397 0
M  V30 4757 H 457.681 -1.23724 2.67911 0
M  V30 4758 H 457.762 0.521645 2.50425 0
M  V30 4759 H 457.406 0.765863 5.02093 0
M  V30 4760 H 457.336 -1.00814 5.1686 0
M  V30 4761 H 459.827 -0.32321 3.76515 0
M  V30 4762 H 460.14 -0.0358003 7.72792 0
M  V30 4763 H 458.485 -0.0391461 6.94989 0
M  V30 4764 H 461.676 -0.316347 4.6703 0
M  V30 4765 H 461.849 -0.185514 6.47734 0
M  V30 4766 N 455.255 -1.55392 -0.262866 0
M  V30 4767 C 456.485 -1.80251 -1.00961 0
M  V30 4768 C 456.893 -0.58117 -1.80053 0
M  V30 4769 O 456.236 0.459427 -1.77862 0
M  V30 4770 C 456.298 -2.98207 -2.00781 0
M  V30 4771 C 455.962 -4.34856 -1.40533 0
M  V30 4772 C 456.959 -5.13459 -0.815853 0
M  V30 4773 C 454.644 -4.8153 -1.42948 0
M  V30 4774 C 456.638 -6.36875 -0.258562 0
M  V30 4775 C 454.325 -6.04899 -0.868334 0
M  V30 4776 C 455.323 -6.8241 -0.283884 0
M  V30 4777 O 455.011 -8.03451 0.268644 0
M  V30 4778 H 454.743 -0.604049 -0.303482 0
M  V30 4779 H 457.297 -2.03257 -0.295926 0
M  V30 4780 H 455.527 -2.70917 -2.75936 0
M  V30 4781 H 457.216 -3.10299 -2.61667 0
M  V30 4782 H 457.982 -4.78526 -0.789812 0
M  V30 4783 H 453.861 -4.21201 -1.87378 0
M  V30 4784 H 457.405 -6.97318 0.198257 0
M  V30 4785 H 453.302 -6.39312 -0.891649 0
M  V30 4786 H 454.07 -8.18346 0.158974 0
M  V30 4787 N 456.733 0.527833 -1.48498 0
M  V30 4788 C 458.144 1.10975 -1.50138 0
M  V30 4789 C 458.495 1.943 -0.272378 0
M  V30 4790 O 457.62 2.07319 0.620301 0
M  V30 4791 C 458.215 2.01927 -2.72049 0
M  V30 4792 C 456.774 2.55332 -2.76554 0
M  V30 4793 C 455.921 1.32341 -2.43683 0
M  V30 4794 H 458.872 0.312986 -1.55583 0
M  V30 4795 H 458.893 2.86244 -2.50689 0
M  V30 4796 H 458.405 1.41254 -3.61481 0
M  V30 4797 H 456.506 3.19721 -1.91336 0
M  V30 4798 H 456.619 2.94319 -3.78038 0
M  V30 4799 H 454.983 1.63989 -1.94884 0
M  V30 4800 H 455.766 0.734165 -3.35358 0
M  V30 4801 N 458.211 1.37122 0.776871 0
M  V30 4802 C 459.46 1.31373 1.53049 0
M  V30 4803 C 459.773 -0.101016 1.95339 0
M  V30 4804 O 460.979 -0.280953 2.70042 0
M  V30 4805 C 459.435 2.30567 2.76346 0
M  V30 4806 C 459.043 3.77543 2.41175 0
M  V30 4807 C 460.787 2.33818 3.54301 0
M  V30 4808 C 458.694 4.68481 3.60943 0
M  V30 4809 H 457.624 0.488234 0.574581 0
M  V30 4810 H 460.275 1.62554 0.851372 0
M  V30 4811 H 458.657 1.92396 3.46121 0
M  V30 4812 H 459.831 4.24521 1.79216 0
M  V30 4813 H 458.146 3.77187 1.76405 0
M  V30 4814 H 460.743 2.98965 4.4331 0
M  V30 4815 H 461.086 1.3503 3.93793 0
M  V30 4816 H 461.619 2.7067 2.91518 0
M  V30 4817 H 458.358 5.68378 3.26537 0
M  V30 4818 H 457.878 4.2621 4.22025 0
M  V30 4819 H 459.557 4.85366 4.27819 0
M  V30 4820 N 459.689 -1.00246 1.21608 0
M  V30 4821 C 460.914 -1.78167 1.06167 0
M  V30 4822 C 461.339 -1.84138 -0.384035 0
M  V30 4823 O 460.697 -1.28683 -1.27712 0
M  V30 4824 C 460.745 -3.19786 1.66642 0
M  V30 4825 O 459.849 -4.02153 0.913613 0
M  V30 4826 H 459.19 -0.549 0.37349 0
M  V30 4827 H 461.72 -1.25994 1.61204 0
M  V30 4828 H 461.73 -3.70451 1.70969 0
M  V30 4829 H 460.405 -3.14754 2.7185 0
M  V30 4830 H 458.982 -3.60711 0.945635 0
M  V30 4831 N 461.167 -1.02423 -1.1978 0
M  V30 4832 C 462.114 -0.601023 -2.22837 0
M  V30 4833 C 463.084 0.382801 -1.61629 0
M  V30 4834 O 464.269 0.280514 -1.88727 0
M  V30 4835 C 461.409 0.0467755 -3.45068 0
M  V30 4836 C 460.522 -0.98253 -4.20678 0
M  V30 4837 C 459.657 -0.304982 -5.30324 0
M  V30 4838 C 458.696 -1.32052 -5.97686 0
M  V30 4839 N 457.833 -0.669105 -6.98904 0
M  V30 4840 H 462.673 -1.48444 -2.58396 0
M  V30 4841 H 460.21 -0.742936 -1.2696 0
M  V30 4842 H 462.168 0.439556 -4.14878 0
M  V30 4843 H 460.798 0.893796 -3.10179 0
M  V30 4844 H 459.85 -1.49341 -3.49859 0
M  V30 4845 H 461.162 -1.75455 -4.66923 0
M  V30 4846 H 460.316 0.142893 -6.06532 0
M  V30 4847 H 459.055 0.499283 -4.85138 0
M  V30 4848 H 458.06 -1.7787 -5.20233 0
M  V30 4849 H 459.285 -2.1262 -6.44957 0
M  V30 4850 H 457.231 0.115152 -6.55899 0
M  V30 4851 H 457.148 -1.37908 -7.43315 0
M  V30 4852 H 458.416 -0.245076 -7.79115 0
M  V30 4853 N 462.645 1.35699 -0.801477 0
M  V30 4854 C 463.608 2.28199 -0.213994 0
M  V30 4855 C 464.608 1.49359 0.595691 0
M  V30 4856 O 465.798 1.69186 0.414921 0
M  V30 4857 C 462.93 3.33587 0.702297 0
M  V30 4858 H 464.123 2.81666 -1.02976 0
M  V30 4859 H 461.676 1.45467 -0.571759 0
M  V30 4860 H 462.411 2.85297 1.54195 0
M  V30 4861 H 462.196 3.91906 0.123484 0
M  V30 4862 H 463.686 4.02638 1.10783 0
M  V30 4863 N 464.123 0.554532 1.47522 0
M  V30 4864 C 465.539 0.214107 1.58157 0
M  V30 4865 C 465.739 -1.28331 1.55349 0
M  V30 4866 O 464.795 -2.06329 1.45549 0
M  V30 4867 C 466.108 0.838391 2.88776 0
M  V30 4868 C 467.656 0.809374 3.02354 0
M  V30 4869 C 468.131 1.41268 4.35669 0
M  V30 4870 N 469.622 1.37574 4.42298 0
M  V30 4871 C 470.357 1.8122 5.4401 0
M  V30 4872 N 469.853 2.3271 6.52547 0
M  V30 4873 N 471.646 1.72307 5.35039 0
M  V30 4874 H 463.797 1.52744 1.4759 0
M  V30 4875 H 466.06 0.636812 0.702264 0
M  V30 4876 H 465.766 1.89065 2.96559 0
M  V30 4877 H 465.64 0.329847 3.75755 0
M  V30 4878 H 468.027 -0.234187 2.94169 0
M  V30 4879 H 468.108 1.35565 2.16924 0
M  V30 4880 H 467.752 2.45529 4.4461 0
M  V30 4881 H 467.682 0.841871 5.19827 0
M  V30 4882 H 470.173 0.999081 3.64454 0
M  V30 4883 H 470.486 2.63944 7.26329 0
M  V30 4884 H 468.831 2.36719 6.53444 0
M  V30 4885 H 472.022 1.3186 4.49144 0
M  V30 4886 H 472.195 2.06641 6.14169 0
M  V30 4887 N 465.601 -1.54893 0.290851 0
M  V30 4888 C 467.012 -1.85584 -0.203816 0
M  V30 4889 C 467.363 -1.21285 -1.54222 0
M  V30 4890 O 466.488 -0.506841 -2.10381 0
M  V30 4891 C 467.083 -3.367 -0.376595 0
M  V30 4892 C 465.642 -3.6746 -0.815485 0
M  V30 4893 C 464.789 -2.77178 0.0821087 0
M  V30 4894 H 467.74 -1.50208 0.512175 0
M  V30 4895 H 467.761 -3.60656 -1.21275 0
M  V30 4896 H 467.273 -3.8347 0.59767 0
M  V30 4897 H 465.374 -3.26201 -1.80066 0
M  V30 4898 H 465.487 -4.7478 -0.641905 0
M  V30 4899 H 463.851 -2.50925 -0.436895 0
M  V30 4900 H 464.634 -3.26767 1.05254 0
M  V30 4901 N 467.08 -0.0183926 -1.57589 0
M  V30 4902 C 468.028 0.985111 -2.10709 0
M  V30 4903 C 469.022 1.34397 -1.0312 0
M  V30 4904 O 470.228 1.32746 -1.21567 0
M  V30 4905 H 466.603 0.335418 -0.673052 0
M  V30 4906 H 468.574 0.511689 -2.9398 0
M  V30 4907 C 467.323 2.26202 -2.64061 0
M  V30 4908 H 466.646 1.9946 -3.4649 0
M  V30 4909 H 468.086 2.94652 -3.04887 0
M  V30 4910 C 466.545 2.98444 -1.5631 0
M  V30 4911 O 467.075 3.90142 -0.956674 0
M  V30 4912 N 465.281 2.6059 -1.28612 0
M  V30 4913 H 464.828 1.86101 -1.78112 0
M  V30 4914 H 464.786 3.09238 -0.567406 0
M  V30 4915 N 468.558 1.5553 0.254621 0
M  V30 4916 C 469.798 1.7876 0.991179 0
M  V30 4917 C 470.162 0.586669 1.82817 0
M  V30 4918 O 471.363 0.697585 2.5959 0
M  V30 4919 C 469.634 3.06679 1.83529 0
M  V30 4920 S 471.193 3.511 2.632 0
M  V30 4921 H 468.011 0.627916 0.333531 0
M  V30 4922 H 470.613 1.93766 0.259778 0
M  V30 4923 H 469.317 3.92158 1.20996 0
M  V30 4924 H 468.848 2.94388 2.60958 0
M  V30 4925 H 470.863 3.11823 3.8598 0
M  V30 4926 N 470.036 -0.519951 1.48776 0
M  V30 4927 C 471.284 -1.2727 1.56993 0
M  V30 4928 C 471.605 -1.9339 0.25004 0
M  V30 4929 O 470.875 -1.81822 -0.729216 0
M  V30 4930 H 469.455 -0.472732 0.578389 0
M  V30 4931 H 472.117 -0.604234 1.85297 0
M  V30 4932 H 471.213 -2.04669 2.3562 0
M  V30 4933 N 471.514 -1.37532 -0.769588 0
M  V30 4934 C 472.762 -1.32597 -1.5252 0
M  V30 4935 C 473.083 0.0884294 -1.94799 0
M  V30 4936 O 472.353 1.03289 -1.66458 0
M  V30 4937 H 470.933 -0.487846 -0.565699 0
M  V30 4938 H 473.595 -1.72044 -0.915806 0
M  V30 4939 H 472.691 -1.96643 -2.42359 0
M  V30 4940 N 472.992 0.995999 -1.22138 0
M  V30 4941 C 473.94 2.10673 -0.985876 0
M  V30 4942 C 474.934 1.69255 0.0699553 0
M  V30 4943 O 476.14 1.79812 -0.0822176 0
M  V30 4944 H 472.515 0.688865 -0.30161 0
M  V30 4945 H 474.486 2.27711 -1.92848 0
M  V30 4946 C 473.235 3.42881 -0.576909 0
M  V30 4947 H 472.558 3.75191 -1.38101 0
M  V30 4948 H 473.998 4.21589 -0.451518 0
M  V30 4949 C 472.457 3.29265 0.713196 0
M  V30 4950 O 472.987 3.60777 1.76643 0
M  V30 4951 N 471.193 2.82456 0.683162 0
M  V30 4952 H 470.74 2.5701 -0.174242 0
M  V30 4953 H 470.698 2.73727 1.54663 0
M  V30 4954 N 474.47 1.03057 1.19235 0
M  V30 4955 C 475.4 0.633497 2.24742 0
M  V30 4956 C 476.381 -0.358335 1.66283 0
M  V30 4957 O 477.566 -0.240676 1.92703 0
M  V30 4958 C 474.696 -0.0147648 3.47297 0
M  V30 4959 C 473.65 0.899527 4.18441 0
M  V30 4960 C 472.976 0.116281 5.34574 0
M  V30 4961 C 474.276 2.21404 4.73051 0
M  V30 4962 H 475.97 1.5155 2.58211 0
M  V30 4963 H 473.516 0.73014 1.24117 0
M  V30 4964 H 475.469 -0.304202 4.20301 0
M  V30 4965 H 474.193 -0.931577 3.13032 0
M  V30 4966 H 472.852 1.17319 3.47321 0
M  V30 4967 H 472.5 -0.802619 4.96555 0
M  V30 4968 H 472.2 0.725293 5.83107 0
M  V30 4969 H 473.724 -0.166376 6.10373 0
M  V30 4970 H 475.138 1.98601 5.37802 0
M  V30 4971 H 473.535 2.77512 5.32078 0
M  V30 4972 H 474.605 2.86752 3.91026 0
M  V30 4973 N 475.948 -1.35272 0.808662 0
M  V30 4974 C 476.878 -2.32315 0.234981 0
M  V30 4975 C 477.859 -1.57572 -0.64071 0
M  V30 4976 O 479.044 -1.8563 -0.570551 0
M  V30 4977 C 476.174 -3.41801 -0.615601 0
M  V30 4978 C 475.128 -4.27694 0.161767 0
M  V30 4979 C 474.454 -5.28519 -0.810649 0
M  V30 4980 C 475.754 -5.04231 1.36193 0
M  V30 4981 H 477.448 -2.80543 1.04575 0
M  V30 4982 H 474.994 -1.3488 0.504315 0
M  V30 4983 H 476.947 -4.08693 -1.02702 0
M  V30 4984 H 475.671 -2.92186 -1.45928 0
M  V30 4985 H 474.33 -3.62384 0.554382 0
M  V30 4986 H 473.978 -4.75171 -1.64988 0
M  V30 4987 H 473.678 -5.8686 -0.294822 0
M  V30 4988 H 475.202 -5.98283 -1.22023 0
M  V30 4989 H 476.616 -5.64058 1.02528 0
M  V30 4990 H 475.013 -5.72077 1.81239 0
M  V30 4991 H 476.083 -4.34753 2.14751 0
M  V30 4992 N 477.426 -0.562348 -1.47226 0
M  V30 4993 C 478.674 -0.0401371 -2.0206 0
M  V30 4994 C 478.995 1.3165 -1.43852 0
M  V30 4995 O 478.265 1.85976 -0.615599 0
M  V30 4996 H 476.845 -0.0118479 -0.746906 0
M  V30 4997 H 479.507 -0.73352 -1.8057 0
M  V30 4998 H 478.603 0.0441254 -3.12069 0
M  V30 4999 N 478.904 1.54736 -0.299062 0
M  V30 5000 C 480.15 2.00397 0.311244 0
M  V30 5001 C 480.483 1.18716 1.53688 0
M  V30 5002 O 479.758 0.263154 1.92712 0
M  V30 5003 C 480.041 3.53817 0.669761 0
M  V30 5004 C 479.894 4.46239 -0.564882 0
M  V30 5005 C 481.213 4.13856 1.49702 0
M  V30 5006 H 478.332 0.728493 0.111653 0
M  V30 5007 H 480.974 1.85506 -0.410774 0
M  V30 5008 H 479.124 3.66637 1.28491 0
M  V30 5009 H 480.796 4.45328 -1.20337 0
M  V30 5010 H 479.039 4.16916 -1.19849 0
M  V30 5011 H 479.71 5.5134 -0.269918 0
M  V30 5012 H 482.186 4.04461 0.977284 0
M  V30 5013 H 481.062 5.21365 1.71666 0
M  V30 5014 H 481.323 3.65608 2.48563 0
M  V30 5015 N 480.382 0.0267497 1.57577 0
M  V30 5016 C 481.798 -0.32962 1.56159 0
M  V30 5017 C 481.998 -1.73059 1.03213 0
M  V30 5018 O 481.054 -2.43233 0.677804 0
M  V30 5019 C 482.367 -0.18039 3.00158 0
M  V30 5020 C 483.915 -0.253334 3.11973 0
M  V30 5021 C 484.39 -0.132921 4.57807 0
M  V30 5022 N 485.881 -0.189979 4.6281 0
M  V30 5023 C 486.616 -0.120554 5.73273 0
M  V30 5024 N 486.112 -0.000180315 6.928 0
M  V30 5025 N 487.905 -0.174369 5.61829 0
M  V30 5026 H 480.056 0.942896 1.90324 0
M  V30 5027 H 482.319 0.3639 0.875375 0
M  V30 5028 H 482.025 0.784576 3.42837 0
M  V30 5029 H 481.899 -0.951565 3.65 0
M  V30 5030 H 484.286 -1.20876 2.69208 0
M  V30 5031 H 484.367 0.548177 2.49857 0
M  V30 5032 H 484.011 0.819073 5.01252 0
M  V30 5033 H 483.941 -0.953264 5.179 0
M  V30 5034 H 486.432 -0.283257 3.76837 0
M  V30 5035 H 486.745 0.0461666 7.72786 0
M  V30 5036 H 485.09 0.034569 6.94991 0
M  V30 5037 H 488.281 -0.266794 4.67339 0
M  V30 5038 H 488.454 -0.116802 6.47895 0
M  V30 5039 N 481.861 -1.55662 -0.24637 0
M  V30 5040 C 483.089 -1.81575 -0.991876 0
M  V30 5041 C 483.504 -0.602545 -1.78927 0
M  V30 5042 O 482.861 0.428795 -1.77391 0
M  V30 5043 C 482.912 -3.05711 -1.92933 0
M  V30 5044 O 482.633 -4.22348 -1.1642 0
M  V30 5045 C 484.134 -3.44428 -2.79078 0
M  V30 5046 H 481.354 -0.604209 -0.291844 0
M  V30 5047 H 483.898 -2.02722 -0.269095 0
M  V30 5048 H 482.053 -2.86612 -2.60638 0
M  V30 5049 H 482.467 -4.92706 -1.79835 0
M  V30 5050 H 483.941 -4.34388 -3.40603 0
M  V30 5051 H 484.418 -2.65037 -3.50217 0
M  V30 5052 H 485.024 -3.65879 -2.16824 0
M  V30 5053 N 483.339 0.512053 -1.4905 0
M  V30 5054 C 484.585 1.26874 -1.58212 0
M  V30 5055 C 484.918 1.9241 -0.263073 0
M  V30 5056 O 484.193 1.80181 0.732476 0
M  V30 5057 C 484.476 2.34428 -2.73341 0
M  V30 5058 C 484.329 1.73466 -4.15006 0
M  V30 5059 C 485.648 3.36073 -2.84154 0
M  V30 5060 H 482.767 0.459924 -0.575881 0
M  V30 5061 H 485.409 0.568587 -1.81293 0
M  V30 5062 H 483.559 2.94146 -2.53792 0
M  V30 5063 H 485.231 1.17661 -4.46042 0
M  V30 5064 H 483.474 1.03921 -4.21168 0
M  V30 5065 H 484.145 2.51426 -4.91415 0
M  V30 5066 H 486.621 2.86332 -3.01916 0
M  V30 5067 H 485.497 4.08703 -3.66406 0
M  V30 5068 H 485.758 3.97725 -1.93048 0
M  V30 5069 N 484.817 1.37938 0.762283 0
M  V30 5070 C 486.047 1.36685 1.54922 0
M  V30 5071 C 486.455 -0.0474099 1.89141 0
M  V30 5072 O 485.798 -1.02213 1.52638 0
M  V30 5073 C 485.86 2.14963 2.88152 0
M  V30 5074 C 485.524 3.6385 2.76518 0
M  V30 5075 C 486.521 4.57531 2.46904 0
M  V30 5076 C 484.206 4.07095 2.94243 0
M  V30 5077 C 486.2 5.92436 2.35156 0
M  V30 5078 C 483.887 5.42083 2.82116 0
M  V30 5079 C 484.885 6.34567 2.52614 0
M  V30 5080 O 484.573 7.67073 2.40529 0
M  V30 5081 H 484.305 0.469586 0.486276 0
M  V30 5082 H 486.859 1.82012 0.951876 0
M  V30 5083 H 485.089 1.6434 3.50042 0
M  V30 5084 H 486.778 2.06224 3.49609 0
M  V30 5085 H 487.544 4.25428 2.32886 0
M  V30 5086 H 483.423 3.35462 3.16206 0
M  V30 5087 H 486.967 6.64591 2.12049 0
M  V30 5088 H 482.864 5.73785 2.95704 0
M  V30 5089 H 483.632 7.77499 2.55807 0
M  V30 5090 N 486.295 -0.989507 1.22664 0
M  V30 5091 C 487.541 -1.7321 1.05481 0
M  V30 5092 C 487.874 -1.89852 -0.408635 0
M  V30 5093 O 487.149 -1.44416 -1.30285 0
M  V30 5094 C 487.432 -3.1357 1.77047 0
M  V30 5095 C 487.285 -3.04555 3.31008 0
M  V30 5096 C 488.604 -4.12812 1.5256 0
M  V30 5097 H 485.723 -0.628697 0.384589 0
M  V30 5098 H 488.365 -1.15258 1.51049 0
M  V30 5099 H 486.515 -3.63046 1.3831 0
M  V30 5100 H 488.187 -2.62674 3.7921 0
M  V30 5101 H 486.43 -2.41278 3.6051 0
M  V30 5102 H 487.101 -4.03894 3.76263 0
M  V30 5103 H 489.577 -3.72106 1.86215 0
M  V30 5104 H 488.453 -5.09132 2.05124 0
M  V30 5105 H 488.714 -4.39711 0.458936 0
M  V30 5106 N 487.773 -1.03688 -1.18687 0
M  V30 5107 C 488.723 -0.595067 -2.20098 0
M  V30 5108 C 489.707 0.360465 -1.5681 0
M  V30 5109 O 490.899 0.180136 -1.76081 0
M  V30 5110 C 488.028 0.0444495 -3.43271 0
M  V30 5111 C 487.114 -0.934002 -4.13687 0
M  V30 5112 N 487.505 -2.09957 -4.60165 0
M  V30 5113 C 485.803 -0.759177 -4.39491 0
M  V30 5114 C 486.504 -2.71735 -5.1433 0
M  V30 5115 N 485.48 -1.99638 -5.05614 0
M  V30 5116 H 489.282 -1.48336 -2.5372 0
M  V30 5117 H 486.796 -0.904949 -1.3485 0
M  V30 5118 H 488.793 0.37864 -4.15177 0
M  V30 5119 H 487.453 0.928325 -3.11147 0
M  V30 5120 H 488.464 -2.47863 -4.54735 0
M  V30 5121 H 485.141 0.0749292 -4.17433 0
M  V30 5122 H 486.531 -3.70492 -5.60523 0
M  V30 5123 N 489.251 1.34841 -0.815825 0
M  V30 5124 C 490.214 2.27959 -0.238185 0
M  V30 5125 C 491.214 1.49983 0.579816 0
M  V30 5126 O 492.404 1.69617 0.396953 0
M  V30 5127 C 489.536 3.34314 0.666876 0
M  V30 5128 H 490.729 2.80558 -1.05958 0
M  V30 5129 H 488.282 1.44852 -0.587156 0
M  V30 5130 H 489.017 2.86916 1.5116 0
M  V30 5131 H 488.802 3.92014 0.0819106 0
M  V30 5132 H 490.292 4.0379 1.06506 0
M  V30 5133 N 490.729 0.570148 1.46925 0
M  V30 5134 C 491.677 -0.183181 2.31878 0
M  V30 5135 C 492.671 -0.896721 1.43719 0
M  V30 5136 O 493.877 -0.816536 1.60414 0
M  V30 5137 H 490.252 -0.077944 0.74795 0
M  V30 5138 H 492.223 0.552312 2.93244 0
M  V30 5139 C 490.972 -1.19172 3.2664 0
M  V30 5140 H 490.295 -0.652088 3.94446 0
M  V30 5141 H 491.735 -1.68946 3.88887 0
M  V30 5142 C 490.194 -2.24627 2.51086 0
M  V30 5143 O 490.724 -3.31773 2.26472 0
M  V30 5144 N 488.93 -1.98898 2.11867 0
M  V30 5145 H 488.477 -1.11777 2.32086 0
M  V30 5146 H 488.435 -2.6967 1.61634 0
M  V30 5147 N 492.207 -1.54576 0.307264 0
M  V30 5148 C 493.139 -2.21212 -0.599807 0
M  V30 5149 C 494.152 -1.20685 -1.09266 0
M  V30 5150 O 495.341 -1.47244 -1.00903 0
M  V30 5151 C 492.441 -2.84994 -1.83389 0
M  V30 5152 C 491.614 -4.11511 -1.48248 0
M  V30 5153 C 490.673 -4.59038 -2.57237 0
M  V30 5154 O 489.699 -5.24095 -2.22065 0
M  V30 5155 N 490.901 -4.31884 -3.87887 0
M  V30 5156 H 493.666 -2.99686 -0.0293075 0
M  V30 5157 H 491.227 -1.61379 0.129738 0
M  V30 5158 H 493.219 -3.1372 -2.5566 0
M  V30 5159 H 491.789 -2.10324 -2.31263 0
M  V30 5160 H 491.009 -3.89728 -0.592122 0
M  V30 5161 H 492.297 -4.93879 -1.22316 0
M  V30 5162 H 491.695 -3.79778 -4.19268 0
M  V30 5163 H 490.252 -4.65304 -4.56438 0
M  V30 5164 N 493.685 -0.035106 -1.57561 0
M  V30 5165 C 494.913 0.652258 -1.9635 0
M  V30 5166 C 495.328 1.65317 -0.911897 0
M  V30 5167 O 494.685 1.82194 0.105657 0
M  V30 5168 C 494.736 1.35337 -3.35211 0
M  V30 5169 O 494.457 0.392548 -4.36338 0
M  V30 5170 C 495.958 2.13199 -3.88666 0
M  V30 5171 H 493.178 0.179444 -0.646561 0
M  V30 5172 H 495.722 -0.0966459 -2.04271 0
M  V30 5173 H 493.877 2.05362 -3.28489 0
M  V30 5174 H 494.291 0.891097 -5.16875 0
M  V30 5175 H 495.765 2.577 -4.88154 0
M  V30 5176 H 496.242 2.97353 -3.23231 0
M  V30 5177 H 496.848 1.48118 -3.98674 0
M  V30 5178 N 495.163 1.55791 0.238111 0
M  V30 5179 C 496.411 1.77681 0.963001 0
M  V30 5180 C 496.732 0.600674 1.85518 0
M  V30 5181 O 496.002 -0.383182 1.92116 0
M  V30 5182 H 494.582 0.655315 0.358568 0
M  V30 5183 H 497.244 1.93239 0.253945 0
M  V30 5184 H 496.34 2.69177 1.57956 0
M  V30 5185 N 496.642 -0.504142 1.49319 0
M  V30 5186 C 497.872 -1.28071 1.62116 0
M  V30 5187 C 498.28 -1.86955 0.290566 0
M  V30 5188 O 497.623 -1.68415 -0.733616 0
M  V30 5189 C 497.685 -2.4521 2.62893 0
M  V30 5190 C 497.349 -2.07218 4.0732 0
M  V30 5191 C 498.346 -1.61375 4.94221 0
M  V30 5192 C 496.031 -2.16949 4.53033 0
M  V30 5193 C 498.025 -1.25763 6.2487 0
M  V30 5194 C 495.712 -1.80949 5.83696 0
M  V30 5195 C 496.71 -1.3543 6.69438 0
M  V30 5196 O 496.398 -0.99915 7.97667 0
M  V30 5197 H 496.13 -0.394763 0.54876 0
M  V30 5198 H 498.684 -0.612118 1.96067 0
M  V30 5199 H 496.914 -3.15134 2.24115 0
M  V30 5200 H 498.603 -3.0724 2.65252 0
M  V30 5201 H 499.369 -1.53306 4.60133 0
M  V30 5202 H 495.248 -2.5133 3.86463 0
M  V30 5203 H 498.792 -0.901631 6.91749 0
M  V30 5204 H 494.689 -1.88667 6.17313 0
M  V30 5205 H 495.457 -1.13089 8.1065 0
M  V30 5206 N 498.12 -1.38341 -0.754957 0
M  V30 5207 C 499.531 -1.30803 -1.3322 0
M  V30 5208 C 499.882 0.0368 -1.96165 0
M  V30 5209 O 499.007 0.938844 -1.94974 0
M  V30 5210 C 499.602 -2.3688 -2.42225 0
M  V30 5211 C 498.161 -2.32925 -2.95674 0
M  V30 5212 C 497.308 -2.19819 -1.69042 0
M  V30 5213 H 500.259 -1.48719 -0.553937 0
M  V30 5214 H 500.28 -2.02517 -3.22129 0
M  V30 5215 H 499.792 -3.34747 -1.96383 0
M  V30 5216 H 497.893 -1.38635 -3.45848 0
M  V30 5217 H 498.006 -3.27008 -3.50146 0
M  V30 5218 H 496.37 -1.66648 -1.92615 0
M  V30 5219 H 497.153 -3.19625 -1.25279 0
M  V30 5220 N 499.598 0.982988 -1.23187 0
M  V30 5221 C 500.875 1.69814 -0.970707 0
M  V30 5222 C 501.255 2.04811 0.511424 0
M  V30 5223 O 500.603 1.73924 1.48198 0
M  V30 5224 C 500.813 2.94143 -1.87831 0
M  V30 5225 C 502.161 3.66712 -2.14026 0
M  V30 5226 O 503.185 3.04171 -1.8536 0
M  V30 5227 O 502.044 4.79258 -2.62629 0
M  V30 5228 H 499.138 0.741659 -0.365884 0
M  V30 5229 H 501.684 1.03844 -1.34218 0
M  V30 5230 H 500.456 2.64858 -2.88038 0
M  V30 5231 H 500.079 3.6785 -1.50905 0
M  V30 5232 N 501.076 1.04316 1.18135 0
M  V30 5233 C 502.487 0.775505 1.69832 0
M  V30 5234 C 502.838 -0.703348 1.8316 0
M  V30 5235 O 501.963 -1.54729 1.51287 0
M  V30 5236 C 502.558 1.40112 3.0847 0
M  V30 5237 C 501.117 1.18172 3.57368 0
M  V30 5238 C 500.264 1.49022 2.33854 0
M  V30 5239 H 503.215 1.20925 1.02775 0
M  V30 5240 H 503.236 0.805672 3.71873 0
M  V30 5241 H 502.748 2.47744 2.98738 0
M  V30 5242 H 500.849 0.124258 3.72393 0
M  V30 5243 H 500.962 1.8805 4.40652 0
M  V30 5244 H 499.326 0.909995 2.37889 0
M  V30 5245 H 500.109 2.57768 2.26738 0
M  V30 5246 N 502.554 -1.34406 0.822964 0
M  V30 5247 C 503.779 -2.0304 0.423034 0
M  V30 5248 C 504.204 -1.61568 -0.963196 0
M  V30 5249 O 503.562 -0.800339 -1.62678 0
M  V30 5250 C 503.61 -3.56636 0.53321 0
M  V30 5251 O 502.714 -4.09971 -0.446939 0
M  V30 5252 H 502.055 -0.64075 0.174171 0
M  V30 5253 H 504.585 -1.71653 1.11339 0
M  V30 5254 H 504.595 -4.05945 0.408991 0
M  V30 5255 H 503.27 -3.86168 1.54425 0
M  V30 5256 H 501.847 -3.71835 -0.281601 0
M  V30 5257 N 504.032 -0.577932 -1.46621 0
M  V30 5258 C 505.257 -0.0652536 -2.07297 0
M  V30 5259 C 505.682 1.22828 -1.4246 0
M  V30 5260 O 505.04 1.74075 -0.506718 0
M  V30 5261 C 505.088 0.0920589 -3.60482 0
M  V30 5262 O 504.192 1.14972 -3.96049 0
M  V30 5263 H 503.533 -0.06065 -0.661224 0
M  V30 5264 H 506.063 -0.799515 -1.88332 0
M  V30 5265 H 506.073 0.299741 -4.06897 0
M  V30 5266 H 504.748 -0.852612 -4.07067 0
M  V30 5267 H 503.325 0.920879 -3.61351 0
M  V30 5268 N 505.51 1.54411 -0.315457 0
M  V30 5269 C 506.926 1.59556 0.037464 0
M  V30 5270 C 507.126 1.33217 1.5118 0
M  V30 5271 O 506.182 1.11264 2.26664 0
M  V30 5272 C 507.495 2.98372 -0.373477 0
M  V30 5273 C 509.043 3.11324 -0.323452 0
M  V30 5274 C 509.518 4.52472 -0.709433 0
M  V30 5275 N 511.009 4.58437 -0.662524 0
M  V30 5276 C 511.744 5.65751 -0.933474 0
M  V30 5277 N 511.24 6.81039 -1.27114 0
M  V30 5278 N 513.033 5.55489 -0.859573 0
M  V30 5279 H 505.184 1.6979 -1.27614 0
M  V30 5280 H 507.447 0.793732 -0.518356 0
M  V30 5281 H 507.153 3.22618 -1.40037 0
M  V30 5282 H 507.027 3.76264 0.265615 0
M  V30 5283 H 509.414 2.86818 0.694223 0
M  V30 5284 H 509.495 2.35555 -0.997367 0
M  V30 5285 H 509.139 4.7771 -1.72498 0
M  V30 5286 H 509.069 5.26598 -0.0132923 0
M  V30 5287 H 511.56 3.75636 -0.413065 0
M  V30 5288 H 511.873 7.58816 -1.46348 0
M  V30 5289 H 510.218 6.82555 -1.30932 0
M  V30 5290 H 513.409 4.64299 -0.595324 0
M  V30 5291 H 513.582 6.39036 -1.0741 0
M  V30 5292 N 506.988 0.0434614 1.5754 0
M  V30 5293 C 508.218 -0.640905 1.96408 0
M  V30 5294 C 508.626 -1.65365 0.919297 0
M  V30 5295 O 507.969 -1.83395 -0.105795 0
M  V30 5296 C 508.031 -1.39141 3.31482 0
M  V30 5297 C 507.695 -0.535375 4.53853 0
M  V30 5298 C 508.692 0.195335 5.19533 0
M  V30 5299 C 506.377 -0.468564 5.0011 0
M  V30 5300 C 508.371 0.981377 6.298 0
M  V30 5301 C 506.058 0.321171 6.10255 0
M  V30 5302 C 507.056 1.04484 6.74961 0
M  V30 5303 O 506.744 1.8216 7.8299 0
M  V30 5304 H 506.476 -0.180584 0.651433 0
M  V30 5305 H 509.03 0.103848 2.05137 0
M  V30 5306 H 507.26 -2.18162 3.19284 0
M  V30 5307 H 508.949 -1.96526 3.55151 0
M  V30 5308 H 509.715 0.15314 4.84758 0
M  V30 5309 H 505.594 -1.02142 4.49542 0
M  V30 5310 H 509.138 1.54674 6.80237 0
M  V30 5311 H 505.035 0.365032 6.44467 0
M  V30 5312 H 505.803 1.74289 7.99728 0
M  V30 5313 N 508.466 -1.55915 -0.229846 0
M  V30 5314 C 509.743 -1.6932 -0.979295 0
M  V30 5315 C 510.123 -0.588321 -2.02736 0
M  V30 5316 O 509.471 0.40586 -2.24867 0
M  V30 5317 C 509.681 -3.10305 -1.59724 0
M  V30 5318 C 511.029 -3.6945 -2.09264 0
M  V30 5319 O 512.053 -3.13214 -1.69633 0
M  V30 5320 O 510.912 -4.68072 -2.82082 0
M  V30 5321 H 508.006 -0.689314 -0.456919 0
M  V30 5322 H 510.552 -1.68238 -0.222283 0
M  V30 5323 H 509.324 -3.82177 -0.840039 0
M  V30 5324 H 508.947 -3.1547 -2.42001 0
M  V30 5325 N 509.944 0.496216 -1.49584 0
M  V30 5326 C 510.907 1.57952 -1.66084 0
M  V30 5327 C 511.907 1.51729 -0.53244 0
M  V30 5328 O 513.097 1.54796 -0.79899 0
M  V30 5329 C 510.229 2.97604 -1.66268 0
M  V30 5330 H 511.422 1.44649 -2.6271 0
M  V30 5331 H 508.975 0.7208 -1.38687 0
M  V30 5332 H 509.71 3.16378 -0.712432 0
M  V30 5333 H 509.495 3.03528 -2.4822 0
M  V30 5334 H 510.985 3.76301 -1.81073 0
M  V30 5335 N 511.423 1.38739 0.74761 0
M  V30 5336 C 512.672 1.3459 1.50228 0
M  V30 5337 C 512.985 -0.0595592 1.95509 0
M  V30 5338 O 514.191 -0.22361 2.70578 0
M  V30 5339 C 512.647 2.36377 2.71393 0
M  V30 5340 C 512.255 3.82573 2.33113 0
M  V30 5341 C 513.999 2.41281 3.49262 0
M  V30 5342 C 511.906 4.76032 3.50924 0
M  V30 5343 H 510.836 0.500312 0.564096 0
M  V30 5344 H 513.487 1.64324 0.8167 0
M  V30 5345 H 511.869 1.99694 3.41962 0
M  V30 5346 H 513.043 4.28227 1.70171 0
M  V30 5347 H 511.358 3.80844 1.68365 0
M  V30 5348 H 513.955 3.08301 4.36869 0
M  V30 5349 H 514.298 1.43353 3.9084 0
M  V30 5350 H 514.831 2.76793 2.85711 0
M  V30 5351 H 511.57 5.75177 3.14408 0
M  V30 5352 H 511.09 4.35066 4.12889 0
M  V30 5353 H 512.769 4.94331 4.17427 0
M  V30 5354 N 512.901 -0.976442 1.23707 0
M  V30 5355 C 514.141 -1.73331 1.08332 0
M  V30 5356 C 514.505 -1.88346 -0.372781 0
M  V30 5357 O 515.706 -2.60877 -0.647813 0
M  V30 5358 C 513.977 -3.09159 1.7932 0
M  V30 5359 S 515.536 -4.00376 1.79567 0
M  V30 5360 H 512.354 -0.596045 0.387622 0
M  V30 5361 H 514.956 -1.16625 1.56904 0
M  V30 5362 H 513.66 -2.95884 2.84395 0
M  V30 5363 H 513.191 -3.70932 1.31046 0
M  V30 5364 H 515.206 -4.88742 0.857094 0
M  V30 5365 N 514.379 -1.04941 -1.1758 0
M  V30 5366 C 515.609 -0.777166 -1.91425 0
M  V30 5367 C 516.017 0.670647 -1.76915 0
M  V30 5368 O 515.36 1.46965 -1.10213 0
M  V30 5369 C 515.422 -1.07495 -3.43052 0
M  V30 5370 C 515.086 -2.51844 -3.81345 0
M  V30 5371 C 516.083 -3.50047 -3.844 0
M  V30 5372 C 513.768 -2.86787 -4.12382 0
M  V30 5373 C 515.762 -4.81239 -4.17957 0
M  V30 5374 C 513.449 -4.18182 -4.45608 0
M  V30 5375 C 514.447 -5.15219 -4.48373 0
M  V30 5376 O 514.135 -6.44258 -4.80819 0
M  V30 5377 H 513.867 -0.282209 -0.614275 0
M  V30 5378 H 516.421 -1.40258 -1.50056 0
M  V30 5379 H 514.651 -0.392437 -3.84704 0
M  V30 5380 H 516.34 -0.78912 -3.98155 0
M  V30 5381 H 517.106 -3.24391 -3.60548 0
M  V30 5382 H 512.985 -2.11922 -4.09402 0
M  V30 5383 H 516.529 -5.56974 -4.2003 0
M  V30 5384 H 512.426 -4.43602 -4.68922 0
M  V30 5385 H 513.194 -6.49041 -4.98686 0
M  V30 5386 N 515.857 1.33968 -0.830081 0
M  V30 5387 C 517.085 2.0228 -0.434773 0
M  V30 5388 C 517.5 1.62487 0.961419 0
M  V30 5389 O 516.857 0.833849 1.62337 0
M  V30 5390 C 516.908 3.5751 -0.535625 0
M  V30 5391 O 516.629 3.95864 -1.87679 0
M  V30 5392 C 518.13 4.43091 -0.136137 0
M  V30 5393 H 515.35 0.648151 -0.173613 0
M  V30 5394 H 517.894 1.71089 -1.12022 0
M  V30 5395 H 516.049 3.87266 0.101817 0
M  V30 5396 H 516.463 4.9056 -1.85609 0
M  V30 5397 H 517.937 5.51398 -0.257772 0
M  V30 5398 H 518.414 4.29433 0.921076 0
M  V30 5399 H 519.02 4.18677 -0.747662 0
M  V30 5400 N 517.335 0.585699 1.46312 0
M  V30 5401 C 518.583 0.072278 2.01971 0
M  V30 5402 C 518.904 -1.29345 1.45928 0
M  V30 5403 O 518.174 -1.84973 0.645109 0
M  V30 5404 H 516.754 0.023729 0.746623 0
M  V30 5405 H 519.416 0.762155 1.7938 0
M  V30 5406 H 518.512 0.00552767 3.121 0
M  V30 5407 N 518.813 -1.54241 0.323641 0
M  V30 5408 C 519.723 -2.28033 -0.551205 0
M  V30 5409 C 520.739 -1.32388 -1.12913 0
M  V30 5410 O 521.915 -1.65403 -1.14908 0
M  V30 5411 C 518.98 -3.02382 -1.69606 0
M  V30 5412 C 518.041 -4.13612 -1.14993 0
M  V30 5413 C 517.274 -4.84407 -2.24022 0
M  V30 5414 O 517.497 -4.54716 -3.44368 0
M  V30 5415 O 516.431 -5.71312 -1.89436 0
M  V30 5416 H 520.257 -3.03662 0.048066 0
M  V30 5417 H 517.842 -1.49133 0.0893289 0
M  V30 5418 H 519.724 -3.48941 -2.36259 0
M  V30 5419 H 518.399 -2.29628 -2.28151 0
M  V30 5420 H 517.306 -3.71402 -0.448484 0
M  V30 5421 H 518.639 -4.8841 -0.609608 0
M  V30 5422 N 520.291 -0.0518155 -1.57515 0
M  V30 5423 C 521.568 0.661727 -1.84067 0
M  V30 5424 C 521.948 1.88999 -0.940351 0
M  V30 5425 O 521.296 2.285 -0.00155404 0
M  V30 5426 C 521.506 1.01841 -3.3381 0
M  V30 5427 C 522.854 1.40043 -4.00841 0
M  V30 5428 O 523.878 1.11073 -3.38439 0
M  V30 5429 O 522.737 1.94111 -5.10865 0
M  V30 5430 H 519.831 0.326702 -0.759733 0
M  V30 5431 H 522.377 -0.0812277 -1.69505 0
M  V30 5432 H 521.149 0.145202 -3.91031 0
M  V30 5433 H 520.772 1.81879 -3.53562 0
M  V30 5434 N 521.769 1.56035 0.221574 0
M  V30 5435 C 523.016 1.79047 0.94597 0
M  V30 5436 C 523.344 0.62057 1.84334 0
M  V30 5437 O 522.599 -0.395053 1.91671 0
M  V30 5438 C 522.898 3.07813 1.8162 0
M  V30 5439 C 522.564 4.3797 1.07206 0
M  V30 5440 C 521.226 4.73334 0.866508 0
M  V30 5441 C 523.578 5.18326 0.546565 0
M  V30 5442 C 520.906 5.8657 0.123549 0
M  V30 5443 C 523.258 6.32335 -0.18305 0
M  V30 5444 C 521.922 6.66301 -0.399861 0
M  V30 5445 H 521.192 0.655178 0.346155 0
M  V30 5446 H 523.839 1.90299 0.214146 0
M  V30 5447 H 522.144 2.91682 2.61589 0
M  V30 5448 H 523.841 3.2282 2.37884 0
M  V30 5449 H 520.431 4.10202 1.24226 0
M  V30 5450 H 524.615 4.9144 0.692847 0
M  V30 5451 H 519.871 6.11376 -0.0546591 0
M  V30 5452 H 524.045 6.9383 -0.59775 0
M  V30 5453 H 521.672 7.53889 -0.977489 0
M  V30 5454 N 523.247 -0.488276 1.49845 0
M  V30 5455 C 524.493 -1.24341 1.6021 0
M  V30 5456 C 524.826 -1.91967 0.293651 0
M  V30 5457 O 524.101 -1.81323 -0.703718 0
M  V30 5458 C 524.384 -2.3005 2.77036 0
M  V30 5459 C 524.237 -1.66842 4.17713 0
M  V30 5460 C 525.556 -3.31509 2.89464 0
M  V30 5461 H 522.675 -0.450704 0.583125 0
M  V30 5462 H 525.317 -0.539673 1.82174 0
M  V30 5463 H 523.467 -2.90071 2.58439 0
M  V30 5464 H 525.139 -1.1055 4.47858 0
M  V30 5465 H 523.382 -0.972079 4.22768 0
M  V30 5466 H 524.053 -2.43576 4.95353 0
M  V30 5467 H 526.529 -2.81493 3.06433 0
M  V30 5468 H 525.405 -4.02822 3.72861 0
M  V30 5469 H 525.666 -3.94603 1.99351 0
M  V30 5470 N 524.725 -1.39134 -0.740242 0
M  V30 5471 C 526.002 -1.26584 -1.49117 0
M  V30 5472 C 526.382 0.126902 -2.10718 0
M  V30 5473 O 525.73 1.13765 -1.98166 0
M  V30 5474 C 525.94 -2.38619 -2.54681 0
M  V30 5475 C 527.288 -2.77685 -3.21211 0
M  V30 5476 O 528.312 -2.38029 -2.64991 0
M  V30 5477 O 527.171 -3.46115 -4.22926 0
M  V30 5478 H 524.265 -0.495769 -0.661923 0
M  V30 5479 H 526.811 -1.50995 -0.774514 0
M  V30 5480 H 525.583 -3.3175 -2.07504 0
M  V30 5481 H 525.206 -2.15845 -3.33911 0
M  V30 5482 N 526.204 0.969867 -1.24223 0
M  V30 5483 C 527.453 1.70687 -1.07466 0
M  V30 5484 C 527.766 1.91736 0.386861 0
M  V30 5485 O 528.972 2.62986 0.674581 0
M  V30 5486 C 527.428 3.07217 -1.87472 0
M  V30 5487 C 527.036 2.94018 -3.3802 0
M  V30 5488 C 528.78 3.84804 -1.79237 0
M  V30 5489 C 526.687 4.25844 -4.10379 0
M  V30 5490 H 525.617 0.640067 -0.398536 0
M  V30 5491 H 528.268 1.08092 -1.48285 0
M  V30 5492 H 526.65 3.70628 -1.39466 0
M  V30 5493 H 527.824 2.39632 -3.9359 0
M  V30 5494 H 526.139 2.29898 -3.47183 0
M  V30 5495 H 528.736 4.82417 -2.30603 0
M  V30 5496 H 529.079 4.09356 -0.757197 0
M  V30 5497 H 529.612 3.28115 -2.24912 0
M  V30 5498 H 526.351 4.06486 -5.14246 0
M  V30 5499 H 525.871 4.80054 -3.59594 0
M  V30 5500 H 527.55 4.94475 -4.17257 0
M  V30 5501 N 527.682 1.05563 1.17022 0
M  V30 5502 C 529.093 0.793475 1.69 0
M  V30 5503 C 529.444 -0.683882 1.83895 0
M  V30 5504 O 528.569 -1.53116 1.5292 0
M  V30 5505 C 529.164 1.43376 3.06967 0
M  V30 5506 C 527.723 1.21956 3.56095 0
M  V30 5507 C 526.87 1.51494 2.3226 0
M  V30 5508 H 529.821 1.22008 1.01487 0
M  V30 5509 H 529.842 0.845068 3.70997 0
M  V30 5510 H 529.354 2.50899 2.96093 0
M  V30 5511 H 527.455 0.163749 3.7224 0
M  V30 5512 H 527.568 1.92713 4.38633 0
M  V30 5513 H 525.932 0.935175 2.3691 0
M  V30 5514 H 526.715 2.60159 2.23992 0
M  V30 5515 N 529.16 -1.33526 0.837174 0
M  V30 5516 C 530.07 -2.33023 0.271568 0
M  V30 5517 C 531.086 -1.63272 -0.601514 0
M  V30 5518 O 532.262 -1.94939 -0.506038 0
M  V30 5519 C 529.327 -3.42382 -0.545448 0
M  V30 5520 C 528.388 -4.27857 0.351709 0
M  V30 5521 C 527.621 -5.31994 -0.426409 0
M  V30 5522 O 527.844 -5.45763 -1.65828 0
M  V30 5523 O 526.778 -6.01572 0.1987 0
M  V30 5524 H 530.604 -2.83256 1.09545 0
M  V30 5525 H 528.189 -1.36837 0.599655 0
M  V30 5526 H 530.071 -4.09122 -1.00979 0
M  V30 5527 H 528.746 -2.94369 -1.34641 0
M  V30 5528 H 527.653 -3.6399 0.863853 0
M  V30 5529 H 528.986 -4.79349 1.1174 0
M  V30 5530 N 530.638 -0.59345 -1.46 0
M  V30 5531 C 531.586 0.146268 -2.3214 0
M  V30 5532 C 532.58 0.873743 -1.45128 0
M  V30 5533 O 533.786 0.790912 -1.61693 0
M  V30 5534 H 530.161 0.0660349 -0.749095 0
M  V30 5535 H 532.132 -0.598895 -2.92328 0
M  V30 5536 C 530.881 1.1396 -3.28494 0
M  V30 5537 H 530.204 0.589252 -3.95434 0
M  V30 5538 H 531.644 1.62738 -3.91526 0
M  V30 5539 C 530.103 2.20604 -2.54628 0
M  V30 5540 O 530.633 3.28128 -2.31722 0
M  V30 5541 N 528.839 1.95502 -2.15005 0
M  V30 5542 H 528.386 1.0807 -2.33834 0
M  V30 5543 H 528.344 2.67064 -1.65904 0
M  V30 5544 N 532.116 1.54067 -0.331816 0
M  V30 5545 C 533.363 2.00715 0.268269 0
M  V30 5546 C 533.691 1.21986 1.51491 0
M  V30 5547 O 532.946 0.292309 1.93505 0
M  V30 5548 C 533.245 3.51634 0.639392 0
M  V30 5549 C 532.911 4.48018 -0.509019 0
M  V30 5550 C 531.573 4.74089 -0.824209 0
M  V30 5551 C 533.925 5.05237 -1.28003 0
M  V30 5552 C 531.253 5.54637 -1.91298 0
M  V30 5553 C 533.605 5.86972 -2.35895 0
M  V30 5554 C 532.269 6.11342 -2.67987 0
M  V30 5555 H 531.539 0.734469 0.0981667 0
M  V30 5556 H 534.186 1.8596 -0.457304 0
M  V30 5557 H 532.491 3.6416 1.44551 0
M  V30 5558 H 534.188 3.85175 1.11539 0
M  V30 5559 H 530.778 4.27851 -0.253287 0
M  V30 5560 H 534.962 4.8507 -1.04978 0
M  V30 5561 H 530.218 5.71747 -2.16599 0
M  V30 5562 H 534.392 6.30327 -2.96076 0
M  V30 5563 H 532.019 6.73544 -3.5248 0
M  V30 5564 N 533.594 0.0601682 1.57485 0
M  V30 5565 C 534.841 -0.611594 1.93043 0
M  V30 5566 C 535.169 -1.70317 0.939274 0
M  V30 5567 O 534.424 -1.95644 -0.046996 0
M  V30 5568 C 534.723 -1.23831 3.35262 0
M  V30 5569 C 534.389 -0.274037 4.50066 0
M  V30 5570 C 533.051 -0.00872394 4.81199 0
M  V30 5571 C 535.403 0.386308 5.19766 0
M  V30 5572 C 532.731 0.924218 5.79375 0
M  V30 5573 C 535.083 1.3075 6.1894 0
M  V30 5574 C 533.747 1.58139 6.48497 0
M  V30 5575 H 533.017 -0.223798 0.706396 0
M  V30 5576 H 535.664 0.128566 1.91068 0
M  V30 5577 H 533.969 -2.05394 3.33647 0
M  V30 5578 H 535.666 -1.76517 3.60059 0
M  V30 5579 H 532.256 -0.491008 4.25778 0
M  V30 5580 H 536.44 0.194436 4.95919 0
M  V30 5581 H 531.696 1.1438 6.00606 0
M  V30 5582 H 535.87 1.82519 6.72056 0
M  V30 5583 H 533.497 2.30593 7.24383 0
M  V30 5584 N 535.072 -1.5615 -0.213296 0
M  V30 5585 C 536.32 -1.79191 -0.934612 0
M  V30 5586 C 536.641 -0.630112 -1.84539 0
M  V30 5587 O 535.911 0.35257 -1.92701 0
M  V30 5588 H 534.491 -0.660937 -0.348097 0
M  V30 5589 H 537.153 -1.93618 -0.22317 0
M  V30 5590 H 536.249 -2.71656 -1.53654 0
M  V30 5591 N 536.55 0.480323 -1.50102 0
M  V30 5592 C 537.796 1.23489 -1.60867 0
M  V30 5593 C 538.129 1.91809 -0.303827 0
M  V30 5594 O 537.404 1.81694 0.694092 0
M  V30 5595 C 537.687 2.28578 -2.78252 0
M  V30 5596 C 537.54 1.64624 -4.18592 0
M  V30 5597 C 538.859 3.2997 -2.91218 0
M  V30 5598 H 535.978 0.447605 -0.585507 0
M  V30 5599 H 538.62 0.530005 -1.82458 0
M  V30 5600 H 536.77 2.88697 -2.59974 0
M  V30 5601 H 538.442 1.08173 -4.48438 0
M  V30 5602 H 536.685 0.949645 -4.23278 0
M  V30 5603 H 537.356 2.40946 -4.96638 0
M  V30 5604 H 539.832 2.79864 -3.07921 0
M  V30 5605 H 538.708 4.00839 -3.74993 0
M  V30 5606 H 538.969 3.93541 -2.0144 0
M  V30 5607 N 538.028 1.39524 0.732853 0
M  V30 5608 C 539.276 1.36594 1.48951 0
M  V30 5609 C 539.597 -0.0367507 1.94965 0
M  V30 5610 O 538.867 -0.988391 1.69138 0
M  V30 5611 H 537.447 0.502673 0.552566 0
M  V30 5612 H 540.109 1.74411 0.869869 0
M  V30 5613 H 539.205 2.03 2.3706 0
M  V30 5614 N 539.506 -0.963266 1.24736 0
M  V30 5615 C 540.754 -1.70343 1.08755 0
M  V30 5616 C 541.075 -1.91387 -0.373619 0
M  V30 5617 O 540.345 -1.4948 -1.2662 0
M  V30 5618 H 538.925 -0.631224 0.399456 0
M  V30 5619 H 541.587 -1.15859 1.56725 0
M  V30 5620 H 540.683 -2.68616 1.58909 0
M  V30 5621 N 540.985 -1.06182 -1.16461 0
M  V30 5622 C 541.895 -0.682671 -2.24448 0
M  V30 5623 C 542.911 0.30078 -1.71381 0
M  V30 5624 O 544.087 0.150376 -2.00838 0
M  V30 5625 C 541.152 -0.0737202 -3.46622 0
M  V30 5626 C 540.213 -1.10889 -4.14731 0
M  V30 5627 C 539.446 -0.528908 -5.31073 0
M  V30 5628 O 539.669 0.65868 -5.66584 0
M  V30 5629 O 538.603 -1.26805 -5.88391 0
M  V30 5630 H 542.429 -1.58291 -2.59187 0
M  V30 5631 H 540.014 -0.834013 -1.23954 0
M  V30 5632 H 541.896 0.264192 -4.20571 0
M  V30 5633 H 540.571 0.800015 -3.13658 0
M  V30 5634 H 539.478 -1.49896 -3.42756 0
M  V30 5635 H 540.811 -1.95412 -4.51747 0
M  V30 5636 N 542.463 1.3308 -0.844243 0
M  V30 5637 C 543.373 2.32876 -0.283922 0
M  V30 5638 C 544.389 1.63589 0.592846 0
M  V30 5639 O 545.565 1.95205 0.495693 0
M  V30 5640 C 542.63 3.42667 0.527283 0
M  V30 5641 C 541.691 4.27664 -0.374394 0
M  V30 5642 C 540.924 5.32212 0.39819 0
M  V30 5643 O 541.147 5.46635 1.62932 0
M  V30 5644 O 540.081 6.01458 -0.2306 0
M  V30 5645 H 543.907 2.82671 -1.11045 0
M  V30 5646 H 541.492 1.36518 -0.606903 0
M  V30 5647 H 543.374 4.09652 0.988078 0
M  V30 5648 H 542.049 2.95079 1.33078 0
M  V30 5649 H 540.956 3.63526 -0.883144 0
M  V30 5650 H 542.289 4.78749 -1.1428 0
M  V30 5651 N 543.941 0.601185 1.45683 0
M  V30 5652 C 545.218 0.0261659 1.95582 0
M  V30 5653 C 545.598 -1.4399 1.5437 0
M  V30 5654 O 544.946 -2.13919 0.80318 0
M  V30 5655 C 545.156 0.217557 3.48321 0
M  V30 5656 C 546.504 0.0950076 4.24494 0
M  V30 5657 O 547.528 0.147345 3.55895 0
M  V30 5658 O 546.387 -0.025261 5.46494 0
M  V30 5659 H 543.481 -0.0393688 0.826062 0
M  V30 5660 H 546.027 0.670798 1.55879 0
M  V30 5661 H 544.799 1.23601 3.71266 0
M  V30 5662 H 544.422 -0.46264 3.94899 0
M  V30 5663 N 545.419 -1.53889 0.339982 0
M  V30 5664 C 546.668 -2.00035 -0.258604 0
M  V30 5665 C 546.981 -1.23179 -1.51942 0
M  V30 5666 O 548.187 -1.59784 -2.19503 0
M  V30 5667 C 546.643 -3.56249 -0.511359 0
M  V30 5668 C 546.251 -4.41957 0.733349 0
M  V30 5669 C 547.995 -4.1082 -1.069 0
M  V30 5670 C 545.902 -5.89673 0.451591 0
M  V30 5671 H 544.832 -0.747284 -0.10041 0
M  V30 5672 H 547.483 -1.77776 0.454758 0
M  V30 5673 H 545.865 -3.7456 -1.28533 0
M  V30 5674 H 547.039 -4.35421 1.50815 0
M  V30 5675 H 545.354 -3.9836 1.21237 0
M  V30 5676 H 547.951 -5.18789 -1.2947 0
M  V30 5677 H 548.294 -3.63817 -2.02343 0
M  V30 5678 H 548.827 -3.96205 -0.355817 0
M  V30 5679 H 545.566 -6.40903 1.37565 0
M  V30 5680 H 545.086 -5.99122 -0.285193 0
M  V30 5681 H 546.765 -6.46965 0.0675067 0
M  V30 5682 N 546.897 -0.0685191 -1.57451 0
M  V30 5683 C 548.125 0.610462 -1.97689 0
M  V30 5684 C 548.54 1.63346 -0.946758 0
M  V30 5685 O 547.897 1.82377 0.0669868 0
M  V30 5686 C 547.948 1.28196 -3.38006 0
M  V30 5687 O 547.669 0.299906 -4.37072 0
M  V30 5688 C 549.17 2.04907 -3.931 0
M  V30 5689 H 546.39 0.165689 -0.650222 0
M  V30 5690 H 548.934 -0.139953 -2.04021 0
M  V30 5691 H 547.089 1.98348 -3.32771 0
M  V30 5692 H 547.503 0.78126 -5.18649 0
M  V30 5693 H 548.977 2.47287 -4.93511 0
M  V30 5694 H 549.454 2.9043 -3.29465 0
M  V30 5695 H 550.06 1.39629 -4.01726 0
M  V30 5696 N 548.375 1.56261 0.205012 0
M  V30 5697 C 549.621 1.80306 0.9283 0
M  V30 5698 C 549.954 0.640932 1.83319 0
M  V30 5699 O 549.229 -0.359032 1.91158 0
M  V30 5700 C 549.512 3.14547 1.75306 0
M  V30 5701 C 549.365 4.41236 0.873562 0
M  V30 5702 C 550.684 3.45382 2.72762 0
M  V30 5703 H 547.803 0.655929 0.336044 0
M  V30 5704 H 550.445 1.88984 0.196211 0
M  V30 5705 H 548.595 3.0728 2.37721 0
M  V30 5706 H 550.267 4.60539 0.264887 0
M  V30 5707 H 548.51 4.33427 0.179773 0
M  V30 5708 H 549.181 5.31639 1.48541 0
M  V30 5709 H 551.657 3.52884 2.20481 0
M  V30 5710 H 550.533 4.40449 3.2756 0
M  V30 5711 H 550.794 2.68377 3.51321 0
M  V30 5712 N 549.853 -0.472356 1.50355 0
M  V30 5713 C 550.785 -1.58795 1.65278 0
M  V30 5714 C 551.798 -1.53782 0.534313 0
M  V30 5715 O 552.987 -1.59193 0.807446 0
M  V30 5716 C 550.087 -2.97672 1.62001 0
M  V30 5717 C 549.26 -3.27568 2.89859 0
M  V30 5718 C 548.319 -4.45993 2.79242 0
M  V30 5719 O 547.345 -4.46364 3.53197 0
M  V30 5720 N 548.547 -5.47578 1.92713 0
M  V30 5721 H 551.312 -1.46411 2.61503 0
M  V30 5722 H 548.873 -0.660751 1.47803 0
M  V30 5723 H 550.865 -3.74862 1.52513 0
M  V30 5724 H 549.435 -3.03832 0.735159 0
M  V30 5725 H 548.655 -2.39003 3.13483 0
M  V30 5726 H 549.943 -3.44352 3.74565 0
M  V30 5727 H 549.341 -5.50099 1.31939 0
M  V30 5728 H 547.898 -6.23757 1.8913 0
M  V30 5729 N 551.331 -1.39911 -0.725443 0
M  V30 5730 C 552.559 -1.40949 -1.51463 0
M  V30 5731 C 552.974 -0.0065242 -1.88799 0
M  V30 5732 O 552.331 0.967163 -1.54765 0
M  V30 5733 C 552.382 -2.29119 -2.79619 0
M  V30 5734 O 552.103 -3.63952 -2.43866 0
M  V30 5735 C 553.604 -2.38642 -3.73584 0
M  V30 5736 H 550.824 -0.481091 -0.467752 0
M  V30 5737 H 553.368 -1.83843 -0.895651 0
M  V30 5738 H 551.523 -1.89612 -3.37826 0
M  V30 5739 H 551.937 -4.10677 -3.26258 0
M  V30 5740 H 553.411 -3.04563 -4.60375 0
M  V30 5741 H 553.888 -1.40846 -4.16004 0
M  V30 5742 H 554.494 -2.78659 -3.21293 0
M  V30 5743 N 552.809 0.956637 -1.25245 0
M  V30 5744 C 554.055 1.70352 -1.10036 0
M  V30 5745 C 554.388 1.90869 0.358156 0
M  V30 5746 O 553.663 1.47819 1.26411 0
M  V30 5747 C 553.946 3.08766 -1.85298 0
M  V30 5748 C 553.799 2.95672 -3.38966 0
M  V30 5749 C 555.118 4.08622 -1.63451 0
M  V30 5750 H 552.237 0.618279 -0.401123 0
M  V30 5751 H 554.879 1.11212 -1.54051 0
M  V30 5752 H 553.029 3.59252 -1.47887 0
M  V30 5753 H 554.701 2.52527 -3.86041 0
M  V30 5754 H 552.944 2.31634 -3.6678 0
M  V30 5755 H 553.615 3.93776 -3.86839 0
M  V30 5756 H 556.091 3.67038 -1.96015 0
M  V30 5757 H 554.967 5.03514 -2.18551 0
M  V30 5758 H 555.228 4.3834 -0.575357 0
M  V30 5759 N 554.287 1.06798 1.15896 0
M  V30 5760 C 555.515 0.808694 1.90441 0
M  V30 5761 C 555.93 -0.637506 1.77711 0
M  V30 5762 O 555.287 -1.43684 1.12522 0
M  V30 5763 C 555.338 1.20068 3.40978 0
M  V30 5764 O 555.059 2.59013 3.53333 0
M  V30 5765 C 556.56 0.96987 4.3256 0
M  V30 5766 H 553.78 0.292809 0.603742 0
M  V30 5767 H 556.324 1.42296 1.46874 0
M  V30 5768 H 554.479 0.630842 3.82229 0
M  V30 5769 H 554.893 2.7485 4.46719 0
M  V30 5770 H 556.367 1.29371 5.36626 0
M  V30 5771 H 556.844 -0.0941209 4.39099 0
M  V30 5772 H 557.45 1.52433 3.97044 0
M  V30 5773 N 555.766 -1.3263 0.851289 0
M  V30 5774 C 557.012 -1.98061 0.462963 0
M  V30 5775 C 557.367 -1.66162 -0.969948 0
M  V30 5776 O 556.66 -0.937723 -1.67085 0
M  V30 5777 C 556.854 -3.51713 0.635015 0
M  V30 5778 C 556.683 -3.98544 2.0831 0
M  V30 5779 C 555.453 -4.25787 2.72091 0
M  V30 5780 C 557.651 -4.13858 3.0533 0
M  V30 5781 N 555.633 -4.58842 4.07845 0
M  V30 5782 C 557.004 -4.50412 4.26063 0
M  V30 5783 C 559.059 -3.96182 3.0157 0
M  V30 5784 C 557.762 -4.71136 5.43529 0
M  V30 5785 C 559.788 -4.18088 4.18278 0
M  V30 5786 C 559.15 -4.54956 5.37768 0
M  V30 5787 H 555.249 -0.750976 0.218082 0
M  V30 5788 H 557.833 -1.60514 1.10197 0
M  V30 5789 H 556.004 -3.88391 0.0257298 0
M  V30 5790 H 557.736 -4.04118 0.216915 0
M  V30 5791 H 554.491 -4.17734 2.23149 0
M  V30 5792 H 554.915 -4.7956 4.77862 0
M  V30 5793 H 559.557 -3.66783 2.1031 0
M  V30 5794 H 557.275 -4.9939 6.35323 0
M  V30 5795 H 560.861 -4.05918 4.168 0
M  V30 5796 H 559.741 -4.71567 6.26573 0
M  V30 5797 N 557.244 -0.608902 -1.45362 0
M  V30 5798 C 558.655 -0.189511 -1.85736 0
M  V30 5799 C 559.006 1.2539 -1.50903 0
M  V30 5800 O 558.131 1.95094 -0.936347 0
M  V30 5801 C 558.726 -0.33716 -3.37118 0
M  V30 5802 C 557.285 0.0275487 -3.7639 0
M  V30 5803 C 556.432 -0.660983 -2.69307 0
M  V30 5804 H 559.383 -0.815499 -1.36144 0
M  V30 5805 H 559.404 0.430257 -3.7806 0
M  V30 5806 H 558.916 -1.38779 -3.62439 0
M  V30 5807 H 557.017 1.0773 -3.56686 0
M  V30 5808 H 557.13 -0.367018 -4.77692 0
M  V30 5809 H 555.494 -0.0984958 -2.54509 0
M  V30 5810 H 556.277 -1.71377 -2.97464 0
M  V30 5811 N 558.722 1.53707 -0.348139 0
M  V30 5812 C 559.999 1.93247 0.302475 0
M  V30 5813 C 560.379 1.28012 1.67857 0
M  V30 5814 O 559.727 0.43274 2.24365 0
M  V30 5815 C 559.937 3.47031 0.370159 0
M  V30 5816 C 561.285 4.20066 0.61882 0
M  V30 5817 O 562.309 3.53319 0.452087 0
M  V30 5818 O 561.168 5.38318 0.94215 0
M  V30 5819 H 558.262 0.807736 0.177458 0
M  V30 5820 H 560.808 1.64927 -0.399651 0
M  V30 5821 H 559.58 3.86745 -0.59534 0
M  V30 5822 H 559.203 3.81532 1.11888 0
M  V30 5823 N 560.2 0.0768682 1.57412 0
M  V30 5824 C 561.133 -0.924685 2.08626 0
M  V30 5825 C 562.111 -1.28792 0.992542 0
M  V30 5826 O 563.295 -1.39634 1.26628 0
M  V30 5827 C 560.422 -2.23131 2.54814 0
M  V30 5828 C 559.468 -2.01928 3.75669 0
M  V30 5829 S 560.301 -1.27397 5.20125 0
M  V30 5830 C 561.457 -2.59329 5.69648 0
M  V30 5831 H 561.69 -0.488928 2.93252 0
M  V30 5832 H 559.223 -0.136014 1.538 0
M  V30 5833 H 561.181 -2.98226 2.82084 0
M  V30 5834 H 559.842 -2.63831 1.70447 0
M  V30 5835 H 559.035 -2.98639 4.05993 0
M  V30 5836 H 558.637 -1.34967 3.48798 0
M  V30 5837 H 560.929 -3.55394 5.76803 0
M  V30 5838 H 561.872 -2.33608 6.68456 0
M  V30 5839 H 562.28 -2.66767 4.9749 0
M  V30 5840 N 561.678 -1.56367 -0.196722 0
M  V30 5841 C 562.588 -1.97617 -1.2643 0
M  V30 5842 C 563.604 -0.883598 -1.49895 0
M  V30 5843 O 564.78 -1.18921 -1.62541 0
M  V30 5844 C 561.845 -2.30595 -2.58895 0
M  V30 5845 C 560.906 -3.53551 -2.43516 0
M  V30 5846 C 560.139 -3.84946 -3.69665 0
M  V30 5847 O 560.362 -3.17655 -4.73763 0
M  V30 5848 O 559.296 -4.78379 -3.65291 0
M  V30 5849 H 563.122 -2.88648 -0.944233 0
M  V30 5850 H 560.707 -1.43901 -0.401592 0
M  V30 5851 H 562.589 -2.52889 -3.37083 0
M  V30 5852 H 561.264 -1.42732 -2.90533 0
M  V30 5853 H 560.171 -3.36507 -1.63445 0
M  V30 5854 H 561.504 -4.41875 -2.16812 0
M  V30 5855 N 563.156 0.464375 -1.50603 0
M  V30 5856 C 564.086 1.56944 -1.72889 0
M  V30 5857 C 565.067 1.59979 -0.577997 0
M  V30 5858 O 566.252 1.76138 -0.817855 0
M  V30 5859 C 563.382 2.95225 -1.8292 0
M  V30 5860 C 562.336 3.07056 -2.98162 0
M  V30 5861 C 561.662 4.47051 -2.93343 0
M  V30 5862 C 562.962 2.83648 -4.38567 0
M  V30 5863 H 564.656 1.38547 -2.65415 0
M  V30 5864 H 562.202 0.665082 -1.27721 0
M  V30 5865 H 564.155 3.72467 -1.97095 0
M  V30 5866 H 562.879 3.14793 -0.870209 0
M  V30 5867 H 561.538 2.32248 -2.83648 0
M  V30 5868 H 561.186 4.63547 -1.95276 0
M  V30 5869 H 560.886 4.55902 -3.70712 0
M  V30 5870 H 562.41 5.26304 -3.09575 0
M  V30 5871 H 563.824 3.50636 -4.53572 0
M  V30 5872 H 562.221 3.03937 -5.17438 0
M  V30 5873 H 563.291 1.79451 -4.50472 0
M  V30 5874 N 564.634 1.40294 0.718013 0
M  V30 5875 C 566.045 1.34289 1.29705 0
M  V30 5876 C 566.396 0.0152228 1.96194 0
M  V30 5877 O 565.521 -0.88682 1.97394 0
M  V30 5878 C 566.116 2.43219 2.3586 0
M  V30 5879 C 564.675 2.40682 2.89394 0
M  V30 5880 C 563.822 2.24223 1.63154 0
M  V30 5881 H 566.773 1.50135 0.514312 0
M  V30 5882 H 566.794 2.10986 3.16647 0
M  V30 5883 H 566.306 3.39836 1.87439 0
M  V30 5884 H 564.407 1.47756 3.42051 0
M  V30 5885 H 564.52 3.36177 3.41353 0
M  V30 5886 H 562.884 1.71696 1.88129 0
M  V30 5887 H 563.667 3.22834 1.16761 0
M  V30 5888 N 566.112 -0.949982 1.2575 0
M  V30 5889 C 567.042 -2.06483 1.09028 0
M  V30 5890 C 568.023 -1.701 -0.00201532 0
M  V30 5891 O 569.208 -1.93469 0.168383 0
M  V30 5892 C 566.338 -3.39899 0.71316 0
M  V30 5893 C 565.292 -3.90309 1.75621 0
M  V30 5894 C 564.618 -5.20274 1.23365 0
M  V30 5895 C 565.918 -4.16169 3.15596 0
M  V30 5896 H 567.612 -2.20731 2.02283 0
M  V30 5897 H 565.158 -1.06066 0.973964 0
M  V30 5898 H 567.111 -4.17346 0.58309 0
M  V30 5899 H 565.835 -3.25602 -0.255091 0
M  V30 5900 H 564.494 -3.15035 1.8748 0
M  V30 5901 H 564.142 -5.02351 0.255491 0
M  V30 5902 H 563.842 -5.54971 1.93082 0
M  V30 5903 H 565.366 -6.00314 1.11607 0
M  V30 5904 H 566.78 -4.84259 3.06864 0
M  V30 5905 H 565.177 -4.62131 3.82825 0
M  V30 5906 H 566.247 -3.22273 3.6231 0
M  V30 5907 N 567.59 -1.07411 -1.15328 0
M  V30 5908 C 569.001 -0.820261 -1.67716 0
M  V30 5909 C 569.352 0.654539 -1.8496 0
M  V30 5910 O 568.477 1.50664 -1.55337 0
M  V30 5911 C 569.072 -1.48242 -3.04647 0
M  V30 5912 C 567.631 -1.27606 -3.5411 0
M  V30 5913 C 566.778 -1.5517 -2.29821 0
M  V30 5914 H 569.729 -1.23608 -0.995332 0
M  V30 5915 H 569.75 -0.903984 -3.69606 0
M  V30 5916 H 569.262 -2.55578 -2.92064 0
M  V30 5917 H 567.363 -0.222948 -3.71932 0
M  V30 5918 H 567.476 -1.99667 -4.35511 0
M  V30 5919 H 565.84 -0.972747 -2.35393 0
M  V30 5920 H 566.623 -2.63689 -2.19824 0
M  V30 5921 N 569.068 1.32177 -0.85831 0
M  V30 5922 C 570.484 1.49873 -0.548656 0
M  V30 5923 C 570.684 1.79278 0.919874 0
M  V30 5924 O 569.74 1.86451 1.70271 0
M  V30 5925 C 571.053 2.64043 -1.4388 0
M  V30 5926 C 572.601 2.77928 -1.43961 0
M  V30 5927 C 573.076 3.95182 -2.31506 0
M  V30 5928 N 574.567 4.0245 -2.29321 0
M  V30 5929 C 575.302 4.9242 -2.93786 0
M  V30 5930 N 574.798 5.87373 -3.67376 0
M  V30 5931 N 576.591 4.85572 -2.83155 0
M  V30 5932 H 568.742 1.11357 -1.80868 0
M  V30 5933 H 571.005 0.549175 -0.772729 0
M  V30 5934 H 570.711 2.49055 -2.48324 0
M  V30 5935 H 570.585 3.59912 -1.12885 0
M  V30 5936 H 572.972 2.92338 -0.402813 0
M  V30 5937 H 573.053 1.82762 -1.78974 0
M  V30 5938 H 572.697 3.81531 -3.35256 0
M  V30 5939 H 572.627 4.89633 -1.93823 0
M  V30 5940 H 575.118 3.34507 -1.75822 0
M  V30 5941 H 575.431 6.52728 -4.13722 0
M  V30 5942 H 573.776 5.87388 -3.71484 0
M  V30 5943 H 576.967 4.10363 -2.25211 0
M  V30 5944 H 577.14 5.55486 -3.33676 0
M  V30 5945 N 570.547 0.616602 1.45037 0
M  V30 5946 C 571.495 -0.109318 2.32343 0
M  V30 5947 C 572.489 -0.850543 1.465 0
M  V30 5948 O 573.695 -0.765088 1.62931 0
M  V30 5949 H 570.07 -0.0541091 0.750051 0
M  V30 5950 H 572.041 0.645326 2.91338 0
M  V30 5951 C 570.79 -1.0872 3.30266 0
M  V30 5952 H 570.113 -0.526267 3.96321 0
M  V30 5953 H 571.553 -1.56489 3.94065 0
M  V30 5954 C 570.012 -2.16525 2.58105 0
M  V30 5955 O 570.542 -3.244 2.36913 0
M  V30 5956 N 568.748 -1.92057 2.18088 0
M  V30 5957 H 568.295 -1.04337 2.35524 0
M  V30 5958 H 568.253 -2.64391 1.70131 0
M  V30 5959 N 572.025 -1.5352 0.356285 0
M  V30 5960 C 573.274 -2.00298 -0.237373 0
M  V30 5961 C 573.587 -1.24784 -1.50627 0
M  V30 5962 O 574.793 -1.62103 -2.17795 0
M  V30 5963 C 573.249 -3.56771 -0.473545 0
M  V30 5964 C 572.857 -4.41154 0.780183 0
M  V30 5965 C 574.601 -4.1193 -1.02537 0
M  V30 5966 C 572.508 -5.89161 0.514108 0
M  V30 5967 H 571.438 -0.748307 -0.092478 0
M  V30 5968 H 574.089 -1.77283 0.473588 0
M  V30 5969 H 572.471 -3.75902 -1.24553 0
M  V30 5970 H 573.645 -4.33797 1.55425 0
M  V30 5971 H 571.96 -3.97052 1.25455 0
M  V30 5972 H 574.557 -5.20133 -1.2396 0
M  V30 5973 H 574.9 -3.65943 -1.98473 0
M  V30 5974 H 575.433 -3.96561 -0.313775 0
M  V30 5975 H 572.172 -6.39408 1.44355 0
M  V30 5976 H 571.692 -5.9939 -0.221632 0
M  V30 5977 H 573.371 -6.46857 0.136122 0
M  V30 5978 N 573.503 -0.0852151 -1.57369 0
M  V30 5979 C 574.731 0.58946 -1.98325 0
M  V30 5980 C 575.146 1.62333 -0.96403 0
M  V30 5981 O 574.503 1.82438 0.0476395 0
M  V30 5982 C 574.554 1.24604 -3.39347 0
M  V30 5983 O 574.275 0.253532 -4.37366 0
M  V30 5984 C 575.776 2.00726 -3.95252 0
M  V30 5985 H 572.996 0.158783 -0.651942 0
M  V30 5986 H 575.54 -0.161584 -2.03861 0
M  V30 5987 H 573.695 1.94808 -3.34856 0
M  V30 5988 H 574.109 0.726207 -5.19448 0
M  V30 5989 H 575.583 2.42039 -4.96106 0
M  V30 5990 H 576.06 2.86919 -3.32527 0
M  V30 5991 H 576.666 1.3536 -4.03185 0
M  V30 5992 N 574.981 1.5647 0.188427 0
M  V30 5993 C 575.891 1.98285 1.2538 0
M  V30 5994 C 576.907 0.891535 1.49424 0
M  V30 5995 O 578.083 1.19782 1.61908 0
M  V30 5996 C 575.148 2.31965 2.57669 0
M  V30 5997 C 574.209 3.54838 2.41638 0
M  V30 5998 C 573.442 3.86901 3.67618 0
M  V30 5999 O 573.665 3.20163 4.72072 0
M  V30 6000 O 572.599 4.80309 3.62749 0
M  V30 6001 H 576.425 2.89145 0.928912 0
M  V30 6002 H 574.01 1.44112 0.393955 0
M  V30 6003 H 575.892 2.54673 3.35737 0
M  V30 6004 H 574.567 1.44271 2.89771 0
M  V30 6005 H 573.474 3.37369 1.61658 0
M  V30 6006 H 574.807 4.43019 2.14465 0
M  V30 6007 N 576.459 -0.456382 1.50847 0
M  V30 6008 C 577.707 -1.20497 1.62249 0
M  V30 6009 C 578.028 -1.92156 0.331839 0
M  V30 6010 O 577.298 -1.84751 -0.651443 0
M  V30 6011 H 575.878 -0.447775 0.597918 0
M  V30 6012 H 578.54 -0.525099 1.87693 0
M  V30 6013 H 577.636 -1.94492 2.44089 0
M  V30 6014 N 577.937 -1.40673 -0.710563 0
M  V30 6015 C 578.847 -1.43663 -1.85467 0
M  V30 6016 C 579.863 -0.328721 -1.70867 0
M  V30 6017 O 581.039 -0.574098 -1.93044 0
M  V30 6018 C 578.104 -1.30226 -3.21313 0
M  V30 6019 C 577.165 -2.51204 -3.48131 0
M  V30 6020 C 576.398 -2.38398 -4.77495 0
M  V30 6021 O 576.621 -1.40048 -5.5294 0
M  V30 6022 O 575.555 -3.2787 -5.04762 0
M  V30 6023 H 579.381 -2.40156 -1.859 0
M  V30 6024 H 576.966 -1.22049 -0.861652 0
M  V30 6025 H 578.848 -1.2496 -4.02446 0
M  V30 6026 H 577.523 -0.368419 -3.21597 0
M  V30 6027 H 576.43 -2.62048 -2.66987 0
M  V30 6028 H 577.763 -3.43366 -3.52648 0
M  V30 6029 N 579.415 0.9433 -1.26252 0
M  V30 6030 C 580.378 2.02326 -1.07689 0
M  V30 6031 C 581.378 1.60779 -0.0259174 0
M  V30 6032 O 582.568 1.72108 -0.269134 0
M  V30 6033 C 579.7 3.34886 -0.63752 0
M  V30 6034 H 580.893 2.20225 -2.0357 0
M  V30 6035 H 578.446 1.12197 -1.08819 0
M  V30 6036 H 579.181 3.22684 0.323377 0
M  V30 6037 H 578.966 3.66393 -1.39637 0
M  V30 6038 H 580.456 4.14231 -0.529418 0
M  V30 6039 N 580.893 1.08022 1.14757 0
M  V30 6040 C 582.309 0.807072 1.3769 0
M  V30 6041 C 582.509 -0.585504 1.92806 0
M  V30 6042 O 581.565 -1.34301 2.13821 0
M  V30 6043 C 582.878 1.88651 2.34161 0
M  V30 6044 C 584.426 1.91206 2.47809 0
M  V30 6045 C 584.901 2.98253 3.47576 0
M  V30 6046 N 586.392 2.974 3.55117 0
M  V30 6047 C 587.127 3.76872 4.32152 0
M  V30 6048 N 586.623 4.66212 5.12463 0
M  V30 6049 N 588.416 3.6519 4.27309 0
M  V30 6050 H 580.567 1.97824 0.77326 0
M  V30 6051 H 582.83 0.85826 0.402608 0
M  V30 6052 H 582.536 2.88749 2.00791 0
M  V30 6053 H 582.41 1.75244 3.3402 0
M  V30 6054 H 584.797 0.917564 2.80472 0
M  V30 6055 H 584.878 2.08691 1.47925 0
M  V30 6056 H 584.522 3.97907 3.15646 0
M  V30 6057 H 584.452 2.78014 4.47231 0
M  V30 6058 H 586.943 2.32643 2.97801 0
M  V30 6059 H 587.256 5.23468 5.68508 0
M  V30 6060 H 585.601 4.70257 5.11745 0
M  V30 6061 H 588.792 2.94765 3.63636 0
M  V30 6062 H 588.965 4.27366 4.87095 0
M  V30 6063 N 582.371 -1.3172 0.865308 0
M  V30 6064 C 583.619 -1.96487 0.472995 0
M  V30 6065 C 583.94 -1.68761 -0.976975 0
M  V30 6066 O 583.21 -1.00051 -1.68424 0
M  V30 6067 H 581.79 -0.726947 0.171922 0
M  V30 6068 H 584.452 -1.60612 1.10407 0
M  V30 6069 H 583.548 -3.0574 0.62687 0
M  V30 6070 N 583.85 -0.624285 -1.44708 0
M  V30 6071 C 585.075 -0.131171 -2.06985 0
M  V30 6072 C 585.5 1.18234 -1.46295 0
M  V30 6073 O 584.858 1.72375 -0.561842 0
M  V30 6074 C 584.906 -0.0226724 -3.60593 0
M  V30 6075 O 584.01 1.02314 -3.99507 0
M  V30 6076 H 583.351 -0.0816556 -0.65896 0
M  V30 6077 H 585.88 -0.859027 -1.85693 0
M  V30 6078 H 585.891 0.170138 -4.07645 0
M  V30 6079 H 584.566 -0.981685 -4.04148 0
M  V30 6080 H 583.143 0.805452 -3.64097 0
M  V30 6081 N 585.328 1.53329 -0.364422 0
M  V30 6082 C 586.574 2.01537 0.225969 0
M  V30 6083 C 586.907 1.25128 1.48515 0
M  V30 6084 O 586.182 0.344653 1.91422 0
M  V30 6085 C 586.465 3.56339 0.519092 0
M  V30 6086 C 586.318 4.43441 -0.753639 0
M  V30 6087 C 587.637 4.19833 1.32015 0
M  V30 6088 H 584.756 0.732573 0.0806548 0
M  V30 6089 H 587.398 1.83597 -0.489084 0
M  V30 6090 H 585.548 3.71756 1.12825 0
M  V30 6091 H 587.22 4.39823 -1.39116 0
M  V30 6092 H 585.463 4.11457 -1.37424 0
M  V30 6093 H 586.134 5.49699 -0.503517 0
M  V30 6094 H 588.61 4.08242 0.804859 0
M  V30 6095 H 587.486 5.28177 1.49399 0
M  V30 6096 H 587.747 3.75821 2.32832 0
M  V30 6097 N 586.806 0.0935595 1.57322 0
M  V30 6098 C 588.055 -0.570191 1.93473 0
M  V30 6099 C 588.368 -1.69434 0.977318 0
M  V30 6100 O 589.574 -2.41914 1.23248 0
M  V30 6101 C 588.03 -1.06564 3.43762 0
M  V30 6102 C 587.638 0.0286723 4.47991 0
M  V30 6103 C 589.382 -1.70221 3.88877 0
M  V30 6104 C 587.289 -0.482046 5.89432 0
M  V30 6105 H 586.219 -0.216764 0.72217 0
M  V30 6106 H 588.87 0.169313 1.82717 0
M  V30 6107 H 587.252 -1.85878 3.49664 0
M  V30 6108 H 588.426 0.804106 4.5373 0
M  V30 6109 H 586.741 0.570336 4.12476 0
M  V30 6110 H 589.338 -2.09502 4.91948 0
M  V30 6111 H 589.681 -2.57078 3.27439 0
M  V30 6112 H 590.214 -0.974919 3.85668 0
M  V30 6113 H 586.953 0.349871 6.54566 0
M  V30 6114 H 586.473 -1.22452 5.87167 0
M  V30 6115 H 588.152 -0.951508 6.39965 0
M  V30 6116 N 588.284 -1.56567 -0.180126 0
M  V30 6117 C 589.214 -1.98753 -1.22553 0
M  V30 6118 C 590.195 -0.86175 -1.46656 0
M  V30 6119 O 591.38 -1.12719 -1.58139 0
M  V30 6120 C 588.51 -2.33988 -2.56645 0
M  V30 6121 C 587.464 -3.49445 -2.47128 0
M  V30 6122 C 586.79 -3.70397 -3.8563 0
M  V30 6123 C 588.09 -4.83171 -1.98352 0
M  V30 6124 H 589.784 -2.86332 -0.874896 0
M  V30 6125 H 587.33 -1.37757 -0.419414 0
M  V30 6126 H 589.283 -2.62097 -3.29974 0
M  V30 6127 H 588.007 -1.43309 -2.93479 0
M  V30 6128 H 586.666 -3.2145 -1.76254 0
M  V30 6129 H 586.314 -2.77023 -4.19842 0
M  V30 6130 H 586.014 -4.48077 -3.80132 0
M  V30 6131 H 587.538 -4.00897 -4.60558 0
M  V30 6132 H 588.952 -5.10213 -2.61449 0
M  V30 6133 H 587.349 -5.64425 -2.03823 0
M  V30 6134 H 588.419 -4.75753 -0.937402 0
M  V30 6135 N 589.762 0.448376 -1.51087 0
M  V30 6136 C 590.99 1.22143 -1.66999 0
M  V30 6137 C 591.405 1.85283 -0.362699 0
M  V30 6138 O 590.762 1.70236 0.65772 0
M  V30 6139 C 590.813 2.31357 -2.7777 0
M  V30 6140 O 590.534 1.70801 -4.03434 0
M  V30 6141 C 592.035 3.21836 -3.04855 0
M  V30 6142 H 589.255 0.368558 -0.560719 0
M  V30 6143 H 591.799 0.532618 -1.97442 0
M  V30 6144 H 589.954 2.95973 -2.49958 0
M  V30 6145 H 590.368 2.42895 -4.64868 0
M  V30 6146 H 591.842 3.94627 -3.85971 0
M  V30 6147 H 592.319 3.81949 -2.16821 0
M  V30 6148 H 592.925 2.62933 -3.34285 0
M  V30 6149 N 591.24 1.41047 0.703093 0
M  V30 6150 C 592.486 1.40207 1.46526 0
M  V30 6151 C 592.819 0.00847763 1.94198 0
M  V30 6152 O 592.094 -0.962437 1.69019 0
M  V30 6153 C 592.377 2.40238 2.6825 0
M  V30 6154 C 592.23 3.88674 2.26391 0
M  V30 6155 C 593.549 2.37627 3.70434 0
M  V30 6156 H 590.668 0.510594 0.531472 0
M  V30 6157 H 593.31 1.72271 0.801422 0
M  V30 6158 H 591.46 2.13026 3.24888 0
M  V30 6159 H 593.132 4.2676 1.75138 0
M  V30 6160 H 591.375 4.03903 1.58255 0
M  V30 6161 H 592.046 4.542 3.13698 0
M  V30 6162 H 594.522 2.61759 3.23452 0
M  V30 6163 H 593.398 3.09645 4.53223 0
M  V30 6164 H 593.659 1.39223 4.19606 0
M  V30 6165 N 592.718 -0.936591 1.26751 0
M  V30 6166 C 593.665 -2.03597 1.08706 0
M  V30 6167 C 594.635 -1.66097 -0.00926542 0
M  V30 6168 O 595.82 -1.90199 0.151377 0
M  V30 6169 C 592.96 -3.3727 0.73094 0
M  V30 6170 C 592.073 -3.87778 1.90399 0
M  V30 6171 C 591.208 -5.09859 1.49056 0
M  V30 6172 C 590.247 -5.5264 2.63164 0
M  V30 6173 N 589.384 -6.65921 2.22471 0
M  V30 6174 H 594.224 -2.18364 2.02784 0
M  V30 6175 H 591.761 -1.06985 1.00958 0
M  V30 6176 H 593.719 -4.14128 0.505328 0
M  V30 6177 H 592.349 -3.22337 -0.172868 0
M  V30 6178 H 591.401 -3.07279 2.2424 0
M  V30 6179 H 592.713 -4.15464 2.76028 0
M  V30 6180 H 591.867 -5.9419 1.22567 0
M  V30 6181 H 590.606 -4.8393 0.60524 0
M  V30 6182 H 589.611 -4.66863 2.90377 0
M  V30 6183 H 590.836 -5.80568 3.52303 0
M  V30 6184 H 588.782 -6.41667 1.36379 0
M  V30 6185 H 588.699 -6.93216 3.01641 0
M  V30 6186 H 589.967 -7.53616 1.99205 0
M  V30 6187 N 594.196 -1.08629 -1.14182 0
M  V30 6188 C 595.607 -0.838003 -1.66836 0
M  V30 6189 C 595.958 0.634885 -1.85644 0
M  V30 6190 O 595.083 1.49008 -1.56926 0
M  V30 6191 C 595.678 -1.51465 -3.03058 0
M  V30 6192 C 594.237 -1.31355 -3.52736 0
M  V30 6193 C 593.384 -1.57599 -2.28162 0
M  V30 6194 H 596.335 -1.24656 -0.982165 0
M  V30 6195 H 596.356 -0.943134 -3.68626 0
M  V30 6196 H 595.868 -2.58661 -2.89337 0
M  V30 6197 H 593.969 -0.262384 -3.71675 0
M  V30 6198 H 594.082 -2.04275 -4.33369 0
M  V30 6199 H 592.446 -0.997659 -2.34348 0
M  V30 6200 H 593.229 -2.66006 -2.17015 0
M  V30 6201 N 595.674 1.31259 -0.872281 0
M  V30 6202 C 596.923 1.95893 -0.480493 0
M  V30 6203 C 597.236 1.697 0.972688 0
M  V30 6204 O 598.442 2.28214 1.47073 0
M  V30 6205 C 596.898 3.50705 -0.808342 0
M  V30 6206 C 596.506 3.85735 -2.27844 0
M  V30 6207 C 598.25 4.21719 -0.485136 0
M  V30 6208 C 596.157 5.33668 -2.54858 0
M  V30 6209 H 595.087 0.733182 -0.175955 0
M  V30 6210 H 597.738 1.49396 -1.0655 0
M  V30 6211 H 596.12 3.95706 -0.152558 0
M  V30 6212 H 597.294 3.51686 -2.97748 0
M  V30 6213 H 595.609 3.27792 -2.56791 0
M  V30 6214 H 598.206 5.30559 -0.664166 0
M  V30 6215 H 598.549 4.12316 0.574592 0
M  V30 6216 H 599.082 3.82359 -1.09756 0
M  V30 6217 H 595.821 5.48109 -3.59523 0
M  V30 6218 H 595.341 5.69061 -1.8955 0
M  V30 6219 H 597.02 6.00958 -2.39706 0
M  V30 6220 N 597.152 0.631951 1.44375 0
M  V30 6221 C 598.399 0.136767 2.02038 0
M  V30 6222 C 598.727 -1.24168 1.49709 0
M  V30 6223 O 597.982 -1.83809 0.671763 0
M  V30 6224 C 598.281 0.0735861 3.57324 0
M  V30 6225 C 597.947 1.39092 4.28911 0
M  V30 6226 C 596.609 1.75171 4.48184 0
M  V30 6227 C 598.961 2.26042 4.69632 0
M  V30 6228 C 596.289 2.97907 5.05439 0
M  V30 6229 C 598.641 3.4805 5.28246 0
M  V30 6230 C 597.305 3.84351 5.45738 0
M  V30 6231 H 596.575 0.0500466 0.739308 0
M  V30 6232 H 599.222 0.818429 1.7313 0
M  V30 6233 H 597.527 -0.691449 3.8565 0
M  V30 6234 H 599.224 -0.326091 3.99672 0
M  V30 6235 H 595.814 1.10015 4.1424 0
M  V30 6236 H 599.998 1.99463 4.54454 0
M  V30 6237 H 595.254 3.26108 5.17169 0
M  V30 6238 H 599.428 4.15658 5.5875 0
M  V30 6239 H 597.055 4.79538 5.8987 0
M  V30 6240 N 598.631 -1.53133 0.372548 0
M  V30 6241 C 599.541 -2.29671 -0.478379 0
M  V30 6242 C 600.557 -1.35913 -1.08644 0
M  V30 6243 O 601.733 -1.68975 -1.09588 0
M  V30 6244 C 598.798 -3.07625 -1.599 0
M  V30 6245 C 597.859 -4.17061 -1.01776 0
M  V30 6246 C 597.092 -4.91289 -2.08497 0
M  V30 6247 O 597.315 -4.65442 -3.29727 0
M  V30 6248 O 596.249 -5.7705 -1.71164 0
M  V30 6249 H 600.075 -3.03355 0.144649 0
M  V30 6250 H 597.66 -1.48773 0.136729 0
M  V30 6251 H 599.542 -3.56281 -2.25038 0
M  V30 6252 H 598.217 -2.3677 -2.2073 0
M  V30 6253 H 597.124 -3.72641 -0.330098 0
M  V30 6254 H 598.457 -4.90102 -0.453915 0
M  V30 6255 N 600.109 -0.101901 -1.5727 0
M  V30 6256 C 601.355 0.561027 -1.94885 0
M  V30 6257 C 601.688 1.6741 -0.984258 0
M  V30 6258 O 600.963 1.94491 -0.0184767 0
M  V30 6259 C 601.246 1.10982 -3.42571 0
M  V30 6260 C 601.099 0.00133418 -4.498 0
M  V30 6261 C 602.418 2.00608 -3.9172 0
M  V30 6262 H 599.537 0.202467 -0.708644 0
M  V30 6263 H 602.179 -0.173992 -1.89202 0
M  V30 6264 H 600.329 1.73621 -3.47546 0
M  V30 6265 H 602.001 -0.63322 -4.56933 0
M  V30 6266 H 600.244 -0.664143 -4.28686 0
M  V30 6267 H 600.915 0.426253 -5.50352 0
M  V30 6268 H 603.391 1.47864 -3.88941 0
M  V30 6269 H 602.267 2.3593 -4.95609 0
M  V30 6270 H 602.528 2.92608 -3.3141 0
M  V30 6271 N 601.587 1.56661 0.17182 0
M  V30 6272 C 602.812 1.86459 0.908165 0
M  V30 6273 C 603.237 0.688181 1.75059 0
M  V30 6274 O 602.595 -0.362753 1.77634 0
M  V30 6275 C 602.643 3.14669 1.76112 0
M  V30 6276 O 601.747 2.96858 2.86268 0
M  V30 6277 H 601.088 0.613318 0.254434 0
M  V30 6278 H 603.618 2.03892 0.170113 0
M  V30 6279 H 603.628 3.46061 2.16115 0
M  V30 6280 H 602.303 3.99905 1.14233 0
M  V30 6281 H 600.88 2.76819 2.49852 0
M  V30 6282 N 603.065 -0.440357 1.51323 0
M  V30 6283 C 604.476 -1.02032 1.56353 0
M  V30 6284 C 604.827 -1.92382 0.385197 0
M  V30 6285 O 603.952 -2.10583 -0.498373 0
M  V30 6286 C 604.547 -1.85723 2.83359 0
M  V30 6287 C 603.106 -2.38774 2.90971 0
M  V30 6288 C 602.253 -1.17908 2.50984 0
M  V30 6289 H 605.204 -0.221744 1.57143 0
M  V30 6290 H 605.225 -2.71141 2.66951 0
M  V30 6291 H 604.737 -1.19939 3.69102 0
M  V30 6292 H 602.838 -3.08021 2.09651 0
M  V30 6293 H 602.951 -2.71778 3.94555 0
M  V30 6294 H 601.315 -1.52347 2.04114 0
M  V30 6295 H 602.098 -0.537393 3.39068 0
M  V30 6296 N 604.543 -1.41418 -0.695603 0
M  V30 6297 C 605.768 -1.44329 -1.48942 0
M  V30 6298 C 606.193 -0.0501579 -1.88033 0
M  V30 6299 O 605.551 0.946598 -1.54626 0
M  V30 6300 C 605.599 -2.3578 -2.72837 0
M  V30 6301 O 604.703 -1.81482 -3.70322 0
M  V30 6302 H 604.044 -0.489838 -0.44828 0
M  V30 6303 H 606.574 -1.85878 -0.855014 0
M  V30 6304 H 606.584 -2.51654 -3.21145 0
M  V30 6305 H 605.259 -3.37005 -2.43722 0
M  V30 6306 H 603.836 -1.75058 -3.29255 0
M  V30 6307 N 606.021 0.929856 -1.27246 0
M  V30 6308 C 607.432 1.49223 -1.12203 0
M  V30 6309 C 607.783 1.93989 0.293731 0
M  V30 6310 O 606.908 1.80978 1.18642 0
M  V30 6311 C 607.503 2.71198 -2.0307 0
M  V30 6312 C 606.062 3.23666 -1.92139 0
M  V30 6313 C 605.209 1.96409 -1.95752 0
M  V30 6314 H 608.16 0.744181 -1.4017 0
M  V30 6315 H 608.181 3.45905 -1.58524 0
M  V30 6316 H 607.693 2.38585 -3.06102 0
M  V30 6317 H 605.794 3.61042 -0.920834 0
M  V30 6318 H 605.907 3.90006 -2.78267 0
M  V30 6319 H 604.271 2.12806 -1.39949 0
M  V30 6320 H 605.054 1.66113 -3.00436 0
M  V30 6321 N 607.499 1.09233 1.13605 0
M  V30 6322 C 608.429 0.751738 2.21068 0
M  V30 6323 C 609.41 -0.269688 1.67948 0
M  V30 6324 O 610.595 -0.13819 1.93708 0
M  V30 6325 C 607.725 0.16935 3.46887 0
M  V30 6326 C 606.679 1.12007 4.13084 0
M  V30 6327 C 606.005 0.399483 5.33206 0
M  V30 6328 C 607.305 2.46168 4.6065 0
M  V30 6329 H 608.999 1.65024 2.49815 0
M  V30 6330 H 606.545 0.794905 1.20072 0
M  V30 6331 H 608.498 -0.0809824 4.21322 0
M  V30 6332 H 607.222 -0.764335 3.1753 0
M  V30 6333 H 605.881 1.35564 3.40614 0
M  V30 6334 H 605.529 -0.538277 5.00112 0
M  V30 6335 H 605.229 1.03337 5.78442 0
M  V30 6336 H 606.753 0.157403 6.10397 0
M  V30 6337 H 608.167 2.26829 5.26518 0
M  V30 6338 H 606.564 3.05326 5.1662 0
M  V30 6339 H 607.634 3.07076 3.75276 0
M  V30 6340 N 608.977 -1.30795 0.87923 0
M  V30 6341 C 609.887 -2.32041 0.345565 0
M  V30 6342 C 610.903 -1.65103 -0.549265 0
M  V30 6343 O 612.079 -1.9645 -0.443763 0
M  V30 6344 C 609.144 -3.43944 -0.436245 0
M  V30 6345 C 608.205 -4.26521 0.48765 0
M  V30 6346 C 607.438 -5.33081 -0.256943 0
M  V30 6347 O 607.661 -5.50762 -1.48381 0
M  V30 6348 O 606.595 -6.00635 0.389985 0
M  V30 6349 H 610.421 -2.79627 1.18501 0
M  V30 6350 H 608.006 -1.3486 0.642885 0
M  V30 6351 H 609.888 -4.12128 -0.879119 0
M  V30 6352 H 608.563 -2.98504 -1.25208 0
M  V30 6353 H 607.47 -3.61057 0.979216 0
M  V30 6354 H 608.803 -4.75551 1.26933 0
M  V30 6355 N 610.455 -0.639598 -1.44038 0
M  V30 6356 C 611.866 -0.228866 -1.85292 0
M  V30 6357 C 612.217 1.22161 -1.53529 0
M  V30 6358 O 611.342 1.93064 -0.977518 0
M  V30 6359 C 611.937 -0.408592 -3.36327 0
M  V30 6360 C 610.496 -0.0522953 -3.76364 0
M  V30 6361 C 609.643 -0.717959 -2.67844 0
M  V30 6362 H 612.594 -0.844194 -1.34384 0
M  V30 6363 H 612.615 0.349968 -3.78887 0
M  V30 6364 H 612.127 -1.46435 -3.59414 0
M  V30 6365 H 610.228 1.0014 -3.58891 0
M  V30 6366 H 610.341 -0.468261 -4.76806 0
M  V30 6367 H 608.705 -0.152459 -2.54243 0
M  V30 6368 H 609.488 -1.77648 -2.93762 0
M  V30 6369 N 611.933 1.52934 -0.380664 0
M  V30 6370 C 612.843 2.29921 0.466192 0
M  V30 6371 C 613.859 1.36488 1.07922 0
M  V30 6372 O 615.035 1.69553 1.0869 0
M  V30 6373 C 612.1 3.08468 1.58266 0
M  V30 6374 C 611.161 4.17595 0.995627 0
M  V30 6375 C 610.394 4.92387 2.05889 0
M  V30 6376 O 610.617 4.67184 3.27254 0
M  V30 6377 O 609.551 5.77949 1.68102 0
M  V30 6378 H 613.377 3.03274 -0.160735 0
M  V30 6379 H 610.962 1.48698 -0.144617 0
M  V30 6380 H 612.844 3.57469 2.23145 0
M  V30 6381 H 611.519 2.37937 2.19471 0
M  V30 6382 H 610.426 3.72811 0.310332 0
M  V30 6383 H 611.759 4.90336 0.427918 0
M  V30 6384 N 613.412 0.11024 1.57214 0
M  V30 6385 C 614.322 -0.857077 2.18383 0
M  V30 6386 C 615.338 -1.29915 1.1575 0
M  V30 6387 O 616.514 -1.36394 1.48184 0
M  V30 6388 C 613.579 -2.09264 2.76423 0
M  V30 6389 C 612.64 -1.70333 3.94063 0
M  V30 6390 C 611.873 -2.87999 4.49324 0
M  V30 6391 O 612.096 -4.0317 4.03497 0
M  V30 6392 O 611.03 -2.6559 5.40135 0
M  V30 6393 H 614.856 -0.366561 3.0148 0
M  V30 6394 H 612.441 -0.114914 1.48957 0
M  V30 6395 H 614.323 -2.81644 3.13456 0
M  V30 6396 H 612.998 -2.57339 1.96363 0
M  V30 6397 H 611.905 -0.950864 3.61814 0
M  V30 6398 H 613.238 -1.27007 4.75531 0
M  V30 6399 N 614.89 -1.56749 -0.16351 0
M  V30 6400 C 616.301 -1.72039 -0.725216 0
M  V30 6401 C 616.652 -0.72202 -1.82432 0
M  V30 6402 O 615.777 0.114942 -2.16095 0
M  V30 6403 C 616.372 -3.11932 -1.32227 0
M  V30 6404 C 614.931 -3.28879 -1.83072 0
M  V30 6405 C 614.078 -2.67984 -0.712716 0
M  V30 6406 H 617.029 -1.58579 0.0619772 0
M  V30 6407 H 617.05 -3.11015 -2.19202 0
M  V30 6408 H 616.562 -3.84572 -0.522103 0
M  V30 6409 H 614.663 -2.61209 -2.65708 0
M  V30 6410 H 614.776 -4.36688 -1.97079 0
M  V30 6411 H 613.14 -2.28005 -1.13515 0
M  V30 6412 H 613.923 -3.43216 0.0757361 0
M  V30 6413 N 616.368 0.432326 -1.51554 0
M  V30 6414 C 617.615 1.18134 -1.64471 0
M  V30 6415 C 617.943 1.91076 -0.363349 0
M  V30 6416 O 617.198 1.84492 0.65279 0
M  V30 6417 C 617.497 2.21907 -2.80164 0
M  V30 6418 C 617.163 1.65941 -4.19255 0
M  V30 6419 C 615.825 1.50401 -4.57092 0
M  V30 6420 C 618.177 1.24843 -5.06027 0
M  V30 6421 C 615.505 0.922443 -5.79403 0
M  V30 6422 C 617.857 0.68113 -6.28922 0
M  V30 6423 C 616.521 0.512673 -6.65528 0
M  V30 6424 H 615.791 0.432283 -0.601841 0
M  V30 6425 H 618.438 0.471701 -1.856 0
M  V30 6426 H 616.743 2.98928 -2.53277 0
M  V30 6427 H 618.44 2.79691 -2.87357 0
M  V30 6428 H 615.03 1.79014 -3.89425 0
M  V30 6429 H 619.214 1.35667 -4.77397 0
M  V30 6430 H 614.47 0.779733 -6.06408 0
M  V30 6431 H 618.644 0.35418 -6.95499 0
M  V30 6432 H 616.271 0.0599084 -7.60176 0
M  V30 6433 N 617.846 1.41785 0.688094 0
M  V30 6434 C 619.074 1.44915 1.47673 0
M  V30 6435 C 619.489 0.0565786 1.88715 0
M  V30 6436 O 618.846 -0.92579 1.57275 0
M  V30 6437 C 618.897 2.36452 2.73446 0
M  V30 6438 O 618.618 3.7029 2.34131 0
M  V30 6439 C 620.119 2.48463 3.67125 0
M  V30 6440 H 617.339 0.493324 0.454832 0
M  V30 6441 H 619.883 1.86153 0.846594 0
M  V30 6442 H 618.038 1.98502 3.3268 0
M  V30 6443 H 618.452 4.19183 3.15255 0
M  V30 6444 H 619.926 3.16662 4.52138 0
M  V30 6445 H 620.403 1.51826 4.12123 0
M  V30 6446 H 621.009 2.8708 3.13792 0
M  V30 6447 N 619.324 -0.923095 1.27737 0
M  V30 6448 C 620.571 -1.67127 1.14345 0
M  V30 6449 C 620.899 -1.92017 -0.30982 0
M  V30 6450 O 620.154 -1.51185 -1.24264 0
M  V30 6451 C 620.453 -3.04125 1.8773 0
M  V30 6452 C 620.119 -2.98929 3.37568 0
M  V30 6453 C 618.781 -2.9722 3.78436 0
M  V30 6454 C 621.133 -2.89875 4.33154 0
M  V30 6455 C 618.461 -2.84244 5.13247 0
M  V30 6456 C 620.813 -2.7844 5.68026 0
M  V30 6457 C 619.477 -2.75083 6.08182 0
M  V30 6458 H 618.747 -0.611562 0.418417 0
M  V30 6459 H 621.394 -1.07618 1.584 0
M  V30 6460 H 619.699 -3.67366 1.36196 0
M  V30 6461 H 621.396 -3.609 1.74792 0
M  V30 6462 H 617.986 -3.0105 3.05069 0
M  V30 6463 H 622.17 -2.9029 4.02548 0
M  V30 6464 H 617.426 -2.80034 5.43499 0
M  V30 6465 H 621.6 -2.70401 6.4176 0
M  V30 6466 H 619.227 -2.64786 7.12596 0
M  V30 6467 N 620.802 -1.09834 -1.13024 0
M  V30 6468 C 621.765 -0.745058 -2.16752 0
M  V30 6469 C 622.765 0.227435 -1.59183 0
M  V30 6470 O 623.955 0.0050786 -1.74199 0
M  V30 6471 C 621.087 -0.102543 -3.40746 0
M  V30 6472 H 622.28 -1.66375 -2.49518 0
M  V30 6473 H 619.833 -0.898061 -1.27924 0
M  V30 6474 H 620.568 0.827177 -3.13573 0
M  V30 6475 H 620.353 -0.80235 -3.83803 0
M  V30 6476 H 621.843 0.129082 -4.174 0
M  V30 6477 N 622.28 1.30327 -0.886154 0
M  V30 6478 C 623.691 1.78243 -0.555554 0
M  V30 6479 C 624.042 1.72849 0.928314 0
M  V30 6480 O 623.167 1.30607 1.72542 0
M  V30 6481 C 623.762 3.23654 -1.00168 0
M  V30 6482 C 622.321 3.69401 -0.722471 0
M  V30 6483 C 621.468 2.50753 -1.18399 0
M  V30 6484 H 624.419 1.1718 -1.07026 0
M  V30 6485 H 624.44 3.79056 -0.331152 0
M  V30 6486 H 623.952 3.27548 -2.08169 0
M  V30 6487 H 622.053 3.70995 0.345496 0
M  V30 6488 H 622.166 4.60818 -1.31085 0
M  V30 6489 H 620.53 2.47452 -0.603303 0
M  V30 6490 H 621.313 2.57383 -2.27176 0
M  V30 6491 N 623.758 0.647228 1.43697 0
M  V30 6492 C 624.668 -0.0487997 2.34549 0
M  V30 6493 C 625.684 -0.818586 1.53542 0
M  V30 6494 O 626.86 -0.767195 1.86215 0
M  V30 6495 C 623.925 -1.00734 3.31743 0
M  V30 6496 C 622.986 -0.23515 4.28655 0
M  V30 6497 C 622.219 -1.14803 5.21206 0
M  V30 6498 O 622.442 -2.38717 5.18045 0
M  V30 6499 O 621.376 -0.623667 5.9866 0
M  V30 6500 H 625.202 0.698863 2.9555 0
M  V30 6501 H 622.787 0.407412 1.43738 0
M  V30 6502 H 624.669 -1.55837 3.91526 0
M  V30 6503 H 623.344 -1.73534 2.73254 0
M  V30 6504 H 622.251 0.359319 3.7237 0
M  V30 6505 H 623.584 0.453152 4.9011 0
M  V30 6506 N 625.236 -1.5273 0.388769 0
M  V30 6507 C 626.485 -2.00757 -0.194833 0
M  V30 6508 C 626.798 -1.27951 -1.47946 0
M  V30 6509 O 628.004 -1.66686 -2.14308 0
M  V30 6510 C 626.46 -3.57695 -0.397762 0
M  V30 6511 C 626.068 -4.394 0.873583 0
M  V30 6512 C 627.812 -4.14012 -0.937759 0
M  V30 6513 C 625.719 -5.87938 0.638962 0
M  V30 6514 H 624.649 -0.750101 -0.0765845 0
M  V30 6515 H 627.3 -1.76239 0.511086 0
M  V30 6516 H 625.682 -3.7846 -1.16552 0
M  V30 6517 H 626.856 -4.30403 1.64591 0
M  V30 6518 H 625.171 -3.94301 1.33849 0
M  V30 6519 H 627.768 -5.22645 -1.12899 0
M  V30 6520 H 628.111 -3.7007 -1.90666 0
M  V30 6521 H 628.644 -3.97137 -0.229588 0
M  V30 6522 H 625.383 -6.36202 1.57885 0
M  V30 6523 H 624.903 -5.99726 -0.094443 0
M  V30 6524 H 626.582 -6.46423 0.273299 0
M  V30 6525 N 626.714 -0.118576 -1.57153 0
M  V30 6526 C 627.962 0.538461 -1.94795 0
M  V30 6527 C 628.283 1.67243 -1.00274 0
M  V30 6528 O 627.553 1.95811 -0.0589692 0
M  V30 6529 H 626.133 0.201904 -0.719197 0
M  V30 6530 H 628.795 -0.187418 -1.93997 0
M  V30 6531 H 627.891 0.933315 -2.97818 0
M  V30 6532 N 628.193 1.56834 0.155195 0
M  V30 6533 C 629.156 1.96748 1.17571 0
M  V30 6534 C 630.156 0.853006 1.3631 0
M  V30 6535 O 631.346 1.11978 1.33441 0
M  V30 6536 C 628.478 2.27631 2.53765 0
M  V30 6537 H 629.671 2.88085 0.833498 0
M  V30 6538 H 627.224 1.51141 0.398242 0
M  V30 6539 H 627.959 1.39059 2.92973 0
M  V30 6540 H 627.744 3.0888 2.41527 0
M  V30 6541 H 629.234 2.59377 3.27282 0
M  V30 6542 N 629.671 -0.424282 1.51781 0
M  V30 6543 C 630.899 -1.1947 1.68921 0
M  V30 6544 C 631.314 -1.84683 0.39213 0
M  V30 6545 O 630.671 -1.71261 -0.630554 0
M  V30 6546 C 630.722 -2.26909 2.81416 0
M  V30 6547 O 630.443 -1.64361 4.061 0
M  V30 6548 C 631.944 -3.16945 3.09937 0
M  V30 6549 H 629.164 -0.359591 0.566511 0
M  V30 6550 H 631.708 -0.501139 1.98265 0
M  V30 6551 H 629.863 -2.91959 2.54635 0
M  V30 6552 H 630.277 -2.35468 4.68674 0
M  V30 6553 H 631.751 -3.88437 3.922 0
M  V30 6554 H 632.228 -3.78451 2.22871 0
M  V30 6555 H 632.834 -2.57581 3.38426 0
M  V30 6556 N 631.149 -1.42148 -0.680565 0
M  V30 6557 C 632.112 -1.4488 -1.77602 0
M  V30 6558 C 633.112 -0.337209 -1.57224 0
M  V30 6559 O 634.302 -0.597778 -1.63622 0
M  V30 6560 C 631.434 -1.27483 -3.16166 0
M  V30 6561 H 632.627 -2.42412 -1.76568 0
M  V30 6562 H 630.18 -1.28511 -0.889645 0
M  V30 6563 H 630.915 -0.30851 -3.22829 0
M  V30 6564 H 630.7 -2.08037 -3.3236 0
M  V30 6565 H 632.19 -1.32265 -3.96101 0
M  V30 6566 N 632.627 0.916307 -1.28225 0
M  V30 6567 C 633.874 1.66518 -1.1523 0
M  V30 6568 C 634.202 1.92178 0.299632 0
M  V30 6569 O 633.457 1.51842 1.2346 0
M  V30 6570 C 633.756 3.03125 -1.8934 0
M  V30 6571 C 633.422 2.97135 -3.39148 0
M  V30 6572 C 632.084 2.95208 -3.80007 0
M  V30 6573 C 634.436 2.87574 -4.34685 0
M  V30 6574 C 631.764 2.81518 -5.14747 0
M  V30 6575 C 634.116 2.75424 -5.69495 0
M  V30 6576 C 632.78 2.71854 -6.09632 0
M  V30 6577 H 632.05 0.609334 -0.421655 0
M  V30 6578 H 634.697 1.06776 -1.58969 0
M  V30 6579 H 633.002 3.66639 -1.38143 0
M  V30 6580 H 634.699 3.59968 -1.76704 0
M  V30 6581 H 631.289 2.99428 -3.06661 0
M  V30 6582 H 635.473 2.88152 -4.04082 0
M  V30 6583 H 630.729 2.77148 -5.44976 0
M  V30 6584 H 634.903 2.66993 -6.43185 0
M  V30 6585 H 632.53 2.61003 -7.1399 0
M  V30 6586 N 634.105 1.10431 1.1244 0
M  V30 6587 C 635.068 0.756542 2.16354 0
M  V30 6588 C 636.068 -0.21899 1.59302 0
M  V30 6589 O 637.258 0.00415969 1.742 0
M  V30 6590 C 634.39 0.120612 3.40687 0
M  V30 6591 H 635.583 1.67696 2.48632 0
M  V30 6592 H 633.136 0.904832 1.27446 0
M  V30 6593 H 633.871 -0.810536 3.14008 0
M  V30 6594 H 633.656 0.822693 3.83372 0
M  V30 6595 H 635.146 -0.106945 4.17463 0
M  V30 6596 N 635.583 -1.29855 0.893053 0
M  V30 6597 C 636.493 -2.31661 0.370157 0
M  V30 6598 C 637.509 -1.65677 -0.531723 0
M  V30 6599 O 638.685 -1.9691 -0.422902 0
M  V30 6600 C 635.75 -3.44388 -0.399741 0
M  V30 6601 C 634.811 -4.2598 0.532861 0
M  V30 6602 C 634.044 -5.33324 -0.200388 0
M  V30 6603 O 634.267 -5.52305 -1.42531 0
M  V30 6604 O 633.201 -6.00188 0.453668 0
M  V30 6605 H 637.027 -2.78354 1.2146 0
M  V30 6606 H 634.612 -1.34171 0.657153 0
M  V30 6607 H 636.494 -4.13037 -0.835358 0
M  V30 6608 H 635.169 -2.99815 -1.22035 0
M  V30 6609 H 634.076 -3.59998 1.01746 0
M  V30 6610 H 635.409 -4.74178 1.3197 0
M  V30 6611 N 637.061 -0.65484 -1.43351 0
M  V30 6612 C 638.307 -0.169142 -2.02093 0
M  V30 6613 C 638.64 1.21431 -1.51553 0
M  V30 6614 O 637.915 1.81105 -0.709317 0
M  V30 6615 C 638.198 -0.181775 -3.59641 0
M  V30 6616 C 638.051 -1.59926 -4.20409 0
M  V30 6617 C 639.37 0.480945 -4.37464 0
M  V30 6618 H 636.489 -0.0629371 -0.734308 0
M  V30 6619 H 639.131 -0.835833 -1.70628 0
M  V30 6620 H 637.281 0.385918 -3.86578 0
M  V30 6621 H 638.953 -2.21766 -4.04497 0
M  V30 6622 H 637.196 -2.14605 -3.76998 0
M  V30 6623 H 637.867 -1.55994 -5.295 0
M  V30 6624 H 640.343 -0.00208273 -4.161 0
M  V30 6625 H 639.219 0.441384 -5.47122 0
M  V30 6626 H 639.48 1.55533 -4.13838 0
M  V30 6627 N 638.539 1.52521 -0.396863 0
M  V30 6628 C 639.449 2.30403 0.44178 0
M  V30 6629 C 640.465 1.37625 1.06468 0
M  V30 6630 O 641.641 1.70697 1.06886 0
M  V30 6631 C 638.706 3.1013 1.54986 0
M  V30 6632 C 637.767 4.18628 0.951279 0
M  V30 6633 C 637 4.94543 2.00655 0
M  V30 6634 O 637.223 4.70629 3.22281 0
M  V30 6635 O 636.157 5.797 1.61962 0
M  V30 6636 H 639.983 3.03087 -0.192892 0
M  V30 6637 H 637.568 1.48537 -0.16038 0
M  V30 6638 H 639.45 3.59816 2.19341 0
M  V30 6639 H 638.125 2.40251 2.16935 0
M  V30 6640 H 637.032 3.73119 0.270773 0
M  V30 6641 H 638.365 4.90763 0.375887 0
M  V30 6642 N 640.017 0.126909 1.57088 0
M  V30 6643 C 640.965 -0.837618 2.16995 0
M  V30 6644 C 641.959 -1.26974 1.12133 0
M  V30 6645 O 643.165 -1.24056 1.30423 0
M  V30 6646 H 639.54 -0.288256 0.694559 0
M  V30 6647 H 641.511 -0.307957 2.96807 0
M  V30 6648 C 640.26 -2.07474 2.79016 0
M  V30 6649 H 639.583 -1.75117 3.59408 0
M  V30 6650 H 641.023 -2.72949 3.24461 0
M  V30 6651 C 639.482 -2.86967 1.76498 0
M  V30 6652 O 640.012 -3.82625 1.22316 0
M  V30 6653 N 638.218 -2.51111 1.46258 0
M  V30 6654 H 637.765 -1.73389 1.90509 0
M  V30 6655 H 637.723 -3.04594 0.779085 0
M  V30 6656 N 641.495 -1.56914 -0.146875 0
M  V30 6657 C 642.405 -2.0154 -1.20079 0
M  V30 6658 C 643.421 -0.930838 -1.47008 0
M  V30 6659 O 644.597 -1.24032 -1.58676 0
M  V30 6660 C 641.662 -2.38715 -2.51428 0
M  V30 6661 C 640.723 -3.6112 -2.32145 0
M  V30 6662 C 639.956 -3.96512 -3.57231 0
M  V30 6663 O 640.179 -3.32566 -4.63418 0
M  V30 6664 O 639.113 -4.89758 -3.49887 0
M  V30 6665 H 642.939 -2.91506 -0.851924 0
M  V30 6666 H 640.524 -1.45106 -0.355607 0
M  V30 6667 H 642.406 -2.63485 -3.28867 0
M  V30 6668 H 641.081 -1.51903 -2.85845 0
M  V30 6669 H 639.988 -3.41536 -1.52656 0
M  V30 6670 H 641.321 -4.48549 -2.02644 0
M  V30 6671 N 642.974 0.416227 -1.52004 0
M  V30 6672 C 644.202 1.18573 -1.69553 0
M  V30 6673 C 644.617 1.84472 -0.401919 0
M  V30 6674 O 643.974 1.71593 0.621463 0
M  V30 6675 C 644.025 2.25413 -2.82615 0
M  V30 6676 O 643.746 1.62205 -4.06966 0
M  V30 6677 C 645.247 3.15297 -3.11613 0
M  V30 6678 H 642.467 0.356582 -0.56841 0
M  V30 6679 H 645.011 0.490618 -1.98528 0
M  V30 6680 H 643.166 2.90604 -2.56179 0
M  V30 6681 H 643.58 2.3298 -4.69916 0
M  V30 6682 H 645.054 3.86351 -3.94255 0
M  V30 6683 H 645.531 3.77264 -2.24874 0
M  V30 6684 H 646.137 2.55783 -3.39787 0
M  V30 6685 N 644.452 1.42507 0.673017 0
M  V30 6686 C 645.7 1.42789 1.43023 0
M  V30 6687 C 646.021 0.0459738 1.94946 0
M  V30 6688 O 645.291 -0.915765 1.73178 0
M  V30 6689 H 643.871 0.525657 0.530748 0
M  V30 6690 H 646.533 1.77944 0.795113 0
M  V30 6691 H 645.629 2.12872 2.28237 0
M  V30 6692 N 645.93 -0.909495 1.28709 0
M  V30 6693 C 646.84 -2.04558 1.14861 0
M  V30 6694 C 647.856 -1.73842 0.0741621 0
M  V30 6695 O 649.032 -1.99383 0.2843 0
M  V30 6696 C 646.097 -3.36957 0.816148 0
M  V30 6697 C 645.158 -3.81255 1.97341 0
M  V30 6698 C 644.391 -5.07335 1.65671 0
M  V30 6699 O 644.614 -5.67514 0.573053 0
M  V30 6700 O 643.548 -5.47449 2.50167 0
M  V30 6701 H 647.374 -2.19161 2.10243 0
M  V30 6702 H 644.959 -1.03159 1.08068 0
M  V30 6703 H 646.841 -4.16436 0.644873 0
M  V30 6704 H 645.516 -3.2352 -0.107983 0
M  V30 6705 H 644.423 -3.02584 2.19986 0
M  V30 6706 H 645.756 -3.99261 2.87839 0
M  V30 6707 N 647.408 -1.11026 -1.11852 0
M  V30 6708 C 648.371 -0.768006 -2.1595 0
M  V30 6709 C 649.371 0.210538 -1.59416 0
M  V30 6710 O 650.561 -0.0133978 -1.74195 0
M  V30 6711 C 647.693 -0.138678 -3.40618 0
M  V30 6712 H 648.886 -1.69012 -2.4774 0
M  V30 6713 H 646.439 -0.911578 -1.26964 0
M  V30 6714 H 647.174 0.793872 -3.14433 0
M  V30 6715 H 646.959 -0.843012 -3.8293 0
M  V30 6716 H 648.449 0.0848039 -4.17514 0
M  V30 6717 N 648.886 1.2938 -0.899927 0
M  V30 6718 C 650.114 1.99691 -0.541386 0
M  V30 6719 C 650.529 1.67355 0.873936 0
M  V30 6720 O 649.886 0.918728 1.57688 0
M  V30 6721 C 649.937 3.54168 -0.72438 0
M  V30 6722 O 649.658 3.85359 -2.08399 0
M  V30 6723 C 651.159 4.41746 -0.370819 0
M  V30 6724 H 648.379 0.638037 -0.207726 0
M  V30 6725 H 650.923 1.6491 -1.20934 0
M  V30 6726 H 649.078 3.87261 -0.103607 0
M  V30 6727 H 649.492 4.80032 -2.11352 0
M  V30 6728 H 650.966 5.49256 -0.549693 0
M  V30 6729 H 651.443 4.33712 0.692148 0
M  V30 6730 H 652.049 4.14125 -0.968543 0
M  V30 6731 N 650.364 0.662433 1.43002 0
M  V30 6732 C 651.78 0.330835 1.56133 0
M  V30 6733 C 651.98 -1.16454 1.64441 0
M  V30 6734 O 651.036 -1.94964 1.60453 0
M  V30 6735 C 652.349 1.05029 2.81761 0
M  V30 6736 C 653.897 1.03142 2.95518 0
M  V30 6737 C 654.372 1.73196 4.2399 0
M  V30 6738 N 655.863 1.70004 4.30875 0
M  V30 6739 C 656.598 2.21074 5.29069 0
M  V30 6740 N 656.094 2.80473 6.33488 0
M  V30 6741 N 657.887 2.1152 5.20784 0
M  V30 6742 H 650.038 1.63272 1.35853 0
M  V30 6743 H 652.301 0.687149 0.653092 0
M  V30 6744 H 652.007 2.10542 2.81718 0
M  V30 6745 H 651.881 0.607664 3.72273 0
M  V30 6746 H 654.268 -0.0153339 2.95096 0
M  V30 6747 H 654.349 1.51282 2.0627 0
M  V30 6748 H 653.993 2.77833 4.25172 0
M  V30 6749 H 653.923 1.22515 5.1215 0
M  V30 6750 H 656.414 1.26667 3.56039 0
M  V30 6751 H 656.727 3.17094 7.04749 0
M  V30 6752 H 655.072 2.84538 6.34085 0
M  V30 6753 H 658.263 1.64814 4.38126 0
M  V30 6754 H 658.436 2.51629 5.97149 0
M  V30 6755 N 651.842 -1.52309 0.404946 0
M  V30 6756 C 653.253 -1.86585 -0.0655926 0
M  V30 6757 C 653.604 -1.3239 -1.44801 0
M  V30 6758 O 652.729 -0.6615 -2.06042 0
M  V30 6759 C 653.324 -3.38566 -0.125801 0
M  V30 6760 C 651.883 -3.72497 -0.540666 0
M  V30 6761 C 651.03 -2.75806 0.287487 0
M  V30 6762 H 653.981 -1.45995 0.622185 0
M  V30 6763 H 654.002 -3.68658 -0.941888 0
M  V30 6764 H 653.514 -3.77981 0.880473 0
M  V30 6765 H 651.615 -3.38659 -1.55373 0
M  V30 6766 H 651.728 -4.78234 -0.287956 0
M  V30 6767 H 650.092 -2.53474 -0.249561 0
M  V30 6768 H 650.875 -3.18059 1.29203 0
M  V30 6769 N 653.32 -0.135238 -1.57019 0
M  V30 6770 C 654.566 0.513232 -1.96818 0
M  V30 6771 C 654.921 1.63245 -1.01827 0
M  V30 6772 O 654.214 1.91532 -0.0511756 0
M  V30 6773 C 654.408 1.07694 -3.40788 0
M  V30 6774 C 654.237 0.0138667 -4.49698 0
M  V30 6775 C 653.007 -0.423532 -5.03522 0
M  V30 6776 C 655.205 -0.77322 -5.08454 0
M  V30 6777 N 653.187 -1.47068 -5.96024 0
M  V30 6778 C 654.558 -1.67115 -5.97053 0
M  V30 6779 C 656.613 -0.822313 -4.91063 0
M  V30 6780 C 655.316 -2.61395 -6.70123 0
M  V30 6781 C 657.342 -1.75288 -5.64826 0
M  V30 6782 C 656.704 -2.63836 -6.53123 0
M  V30 6783 H 652.803 0.156956 -0.766087 0
M  V30 6784 H 655.387 -0.227118 -1.93371 0
M  V30 6785 H 653.558 1.78694 -3.44852 0
M  V30 6786 H 655.29 1.69106 -3.67675 0
M  V30 6787 H 652.045 -0.0280202 -4.73592 0
M  V30 6788 H 652.469 -1.99366 -6.46979 0
M  V30 6789 H 657.111 -0.151822 -4.22527 0
M  V30 6790 H 654.829 -3.2945 -7.37895 0
M  V30 6791 H 658.415 -1.79652 -5.53368 0
M  V30 6792 H 657.295 -3.34672 -7.092 0
M  V30 6793 N 654.798 1.5699 0.138552 0
M  V30 6794 C 656.046 1.83446 0.848053 0
M  V30 6795 C 656.367 0.71744 1.81322 0
M  V30 6796 O 655.637 -0.260228 1.94164 0
M  V30 6797 H 654.217 0.676792 0.316166 0
M  V30 6798 H 656.879 1.94462 0.130538 0
M  V30 6799 H 655.975 2.78677 1.40518 0
M  V30 6800 N 656.276 -0.40816 1.52223 0
M  V30 6801 C 657.523 -1.15502 1.66329 0
M  V30 6802 C 657.851 -1.90474 0.393701 0
M  V30 6803 O 657.106 -1.85507 -0.623356 0
M  V30 6804 C 657.405 -2.17422 2.83659 0
M  V30 6805 C 657.071 -1.5925 4.21841 0
M  V30 6806 C 655.733 -1.4311 4.59427 0
M  V30 6807 C 658.085 -1.16776 5.0795 0
M  V30 6808 C 655.413 -0.830148 5.80797 0
M  V30 6809 C 657.765 -0.580988 6.29926 0
M  V30 6810 C 656.429 -0.406729 6.6626 0
M  V30 6811 H 655.699 -0.422653 0.608642 0
M  V30 6812 H 658.346 -0.442114 1.86327 0
M  V30 6813 H 656.651 -2.94861 2.58001 0
M  V30 6814 H 658.348 -2.75084 2.9177 0
M  V30 6815 H 654.938 -1.72796 3.92224 0
M  V30 6816 H 659.122 -1.28055 4.79495 0
M  V30 6817 H 654.378 -0.68316 6.07571 0
M  V30 6818 H 658.552 -0.243488 6.95974 0
M  V30 6819 H 656.179 0.0610366 7.60175 0
M  V30 6820 N 657.755 -1.42862 -0.66545 0
M  V30 6821 C 659.166 -1.3901 -1.24632 0
M  V30 6822 C 659.517 -0.0880285 -1.96002 0
M  V30 6823 O 658.642 0.812947 -2.0055 0
M  V30 6824 C 659.237 -2.51806 -2.2667 0
M  V30 6825 C 657.796 -2.51257 -2.80262 0
M  V30 6826 C 656.943 -2.30124 -1.5472 0
M  V30 6827 H 659.894 -1.5194 -0.458237 0
M  V30 6828 H 659.915 -2.22593 -3.08598 0
M  V30 6829 H 659.427 -3.46558 -1.74697 0
M  V30 6830 H 657.528 -1.60349 -3.36332 0
M  V30 6831 H 657.641 -3.48614 -3.28641 0
M  V30 6832 H 656.005 -1.7856 -1.81627 0
M  V30 6833 H 656.788 -3.26945 -1.04699 0
M  V30 6834 N 659.233 0.902656 -1.29189 0
M  V30 6835 C 660.461 1.68639 -1.19869 0
M  V30 6836 C 660.876 1.87254 0.241121 0
M  V30 6837 O 660.233 1.40745 1.16177 0
M  V30 6838 C 660.284 3.07251 -1.90471 0
M  V30 6839 O 660.005 2.89488 -3.28829 0
M  V30 6840 C 661.506 4.01653 -1.8759 0
M  V30 6841 H 658.726 0.526802 -0.415596 0
M  V30 6842 H 661.27 1.12901 -1.7051 0
M  V30 6843 H 659.425 3.59774 -1.43672 0
M  V30 6844 H 659.839 3.77296 -3.64346 0
M  V30 6845 H 661.313 4.96339 -2.4156 0
M  V30 6846 H 661.79 4.30881 -0.850756 0
M  V30 6847 H 662.396 3.55061 -2.34119 0
M  V30 6848 N 660.711 1.11618 1.11262 0
M  V30 6849 C 662.122 0.881942 1.64556 0
M  V30 6850 C 662.473 -0.585442 1.87262 0
M  V30 6851 O 661.598 -1.44795 1.60821 0
M  V30 6852 C 662.193 1.59446 2.98935 0
M  V30 6853 C 660.752 1.40661 3.4913 0
M  V30 6854 C 659.899 1.63593 2.23903 0
M  V30 6855 H 662.85 1.27217 0.94877 0
M  V30 6856 H 662.871 1.04054 3.65996 0
M  V30 6857 H 662.383 2.66241 2.82378 0
M  V30 6858 H 660.484 0.360835 3.70849 0
M  V30 6859 H 660.597 2.15693 4.27801 0
M  V30 6860 H 658.961 1.05944 2.3162 0
M  V30 6861 H 659.744 2.71666 2.09886 0
M  V30 6862 N 662.189 -1.289 0.906776 0
M  V30 6863 C 663.437 -1.94883 0.535266 0
M  V30 6864 C 663.758 -1.71784 -0.922791 0
M  V30 6865 O 663.028 -1.05359 -1.65156 0
M  V30 6866 H 661.608 -0.721109 0.194962 0
M  V30 6867 H 664.27 -1.57018 1.15461 0
M  V30 6868 H 663.366 -3.03591 0.723821 0
M  V30 6869 N 663.667 -0.670007 -1.42649 0
M  V30 6870 C 664.597 -0.00258501 -2.335 0
M  V30 6871 C 665.578 0.794364 -1.50412 0
M  V30 6872 O 666.763 0.75248 -1.79029 0
M  V30 6873 C 663.893 0.952748 -3.33976 0
M  V30 6874 C 662.847 0.264733 -4.2718 0
M  V30 6875 C 662.173 1.33267 -5.17826 0
M  V30 6876 C 663.473 -0.853289 -5.15283 0
M  V30 6877 H 665.167 -0.761326 -2.89559 0
M  V30 6878 H 662.713 -0.367561 -1.3923 0
M  V30 6879 H 664.666 1.4287 -3.96442 0
M  V30 6880 H 663.39 1.74285 -2.7621 0
M  V30 6881 H 662.049 -0.190938 -3.66102 0
M  V30 6882 H 661.697 2.11464 -4.5639 0
M  V30 6883 H 661.397 0.877476 -5.81011 0
M  V30 6884 H 662.921 1.80965 -5.83167 0
M  V30 6885 H 664.335 -0.458763 -5.71462 0
M  V30 6886 H 662.732 -1.23398 -5.87276 0
M  V30 6887 H 663.802 -1.70412 -4.53969 0
M  V30 6888 N 665.145 1.52092 -0.413018 0
M  V30 6889 C 666.393 2.01456 0.161178 0
M  V30 6890 C 666.714 1.30034 1.45314 0
M  V30 6891 O 665.984 0.427435 1.9118 0
M  V30 6892 H 664.564 0.744376 0.0625526 0
M  V30 6893 H 667.226 1.86974 -0.550151 0
M  V30 6894 H 666.322 3.1008 0.354517 0
M  V30 6895 N 666.623 0.143563 1.56945 0
M  V30 6896 C 668.034 -0.37783 1.82837 0
M  V30 6897 C 668.385 -1.64967 1.06209 0
M  V30 6898 O 667.51 -2.14221 0.306291 0
M  V30 6899 C 668.105 -0.692274 3.31652 0
M  V30 6900 C 666.664 -1.1582 3.58138 0
M  V30 6901 C 665.811 -0.17951 2.76718 0
M  V30 6902 H 668.762 0.368317 1.54367 0
M  V30 6903 H 668.783 -1.54729 3.47619 0
M  V30 6904 H 668.295 0.233572 3.87397 0
M  V30 6905 H 666.396 -2.10011 3.07776 0
M  V30 6906 H 666.509 -1.08655 4.66616 0
M  V30 6907 H 664.873 -0.671458 2.4569 0
M  V30 6908 H 665.656 0.739865 3.35233 0
M  V30 6909 N 668.101 -1.57061 -0.130224 0
M  V30 6910 C 669.064 -1.98593 -1.14426 0
M  V30 6911 C 670.064 -0.874584 -1.34936 0
M  V30 6912 O 671.254 -1.14086 -1.31643 0
M  V30 6913 C 668.386 -2.31639 -2.50112 0
M  V30 6914 H 669.579 -2.89374 -0.787561 0
M  V30 6915 H 667.132 -1.51756 -0.374146 0
M  V30 6916 H 667.867 -1.43703 -2.90723 0
M  V30 6917 H 667.652 -3.12684 -2.36583 0
M  V30 6918 H 669.142 -2.64551 -3.23114 0
M  V30 6919 N 669.579 0.400081 -1.52437 0
M  V30 6920 C 670.807 1.16768 -1.70801 0
M  V30 6921 C 671.222 1.84036 -0.421462 0
M  V30 6922 O 670.579 1.72242 0.603228 0
M  V30 6923 C 670.63 2.22403 -2.8499 0
M  V30 6924 O 670.351 1.57879 -4.08663 0
M  V30 6925 C 671.852 3.11974 -3.1494 0
M  V30 6926 H 669.072 0.350533 -0.57216 0
M  V30 6927 H 671.616 0.469534 -1.99037 0
M  V30 6928 H 669.771 2.87871 -2.59247 0
M  V30 6929 H 670.185 2.27982 -4.7236 0
M  V30 6930 H 671.659 3.82148 -3.9833 0
M  V30 6931 H 672.136 3.74858 -2.28863 0
M  V30 6932 H 672.742 2.52165 -3.42481 0
M  V30 6933 N 671.057 1.43213 0.657864 0
M  V30 6934 C 672.02 1.47687 1.75275 0
M  V30 6935 C 673.02 0.362179 1.56668 0
M  V30 6936 O 674.21 0.623734 1.62651 0
M  V30 6937 C 671.342 1.32497 3.14098 0
M  V30 6938 H 672.535 2.4519 1.7269 0
M  V30 6939 H 670.088 1.2991 0.869087 0
M  V30 6940 H 670.823 0.359831 3.22298 0
M  V30 6941 H 670.608 2.13299 3.29008 0
M  V30 6942 H 672.098 1.38549 3.93946 0
M  V30 6943 N 672.536 -0.895792 1.29666 0
M  V30 6944 C 673.783 -1.64664 1.17864 0
M  V30 6945 C 674.111 -1.92631 -0.26902 0
M  V30 6946 O 673.366 -1.53787 -1.21029 0
M  V30 6947 C 673.665 -3.00075 1.94139 0
M  V30 6948 C 673.331 -2.91702 3.43833 0
M  V30 6949 C 671.993 -2.89126 3.84656 0
M  V30 6950 C 674.345 -2.80622 4.39205 0
M  V30 6951 C 671.673 -2.73293 5.1916 0
M  V30 6952 C 674.025 -2.66329 5.73805 0
M  V30 6953 C 672.689 -2.62121 6.1388 0
M  V30 6954 H 671.959 -0.602549 0.431295 0
M  V30 6955 H 674.606 -1.04234 1.60648 0
M  V30 6956 H 672.911 -3.64394 1.43958 0
M  V30 6957 H 674.608 -3.57111 1.82408 0
M  V30 6958 H 671.198 -2.94511 3.11386 0
M  V30 6959 H 675.382 -2.81686 4.08615 0
M  V30 6960 H 670.638 -2.68443 5.49316 0
M  V30 6961 H 674.812 -2.56727 6.47352 0
M  V30 6962 H 672.439 -2.49611 7.18052 0
M  V30 6963 N 674.014 -1.12206 -1.10668 0
M  V30 6964 C 675.242 -0.898635 -1.86366 0
M  V30 6965 C 675.657 0.551991 -1.80551 0
M  V30 6966 O 675.014 1.38152 -1.19249 0
M  V30 6967 C 675.065 -1.36199 -3.34861 0
M  V30 6968 O 674.786 -2.75576 -3.40573 0
M  V30 6969 C 676.287 -1.17515 -4.2744 0
M  V30 6970 H 673.507 -0.321281 -0.589084 0
M  V30 6971 H 676.051 -1.49142 -1.39918 0
M  V30 6972 H 674.206 -0.81249 -3.78784 0
M  V30 6973 H 674.62 -2.95851 -4.33096 0
M  V30 6974 H 676.094 -1.54827 -5.29842 0
M  V30 6975 H 676.571 -0.115486 -4.39048 0
M  V30 6976 H 677.177 -1.71203 -3.89319 0
M  V30 6977 N 675.492 1.28418 -0.913599 0
M  V30 6978 C 676.717 1.99643 -0.561899 0
M  V30 6979 C 677.142 1.67819 0.849608 0
M  V30 6980 O 676.5 0.910503 1.56779 0
M  V30 6981 C 676.548 3.52116 -0.777622 0
M  V30 6982 O 675.652 4.12076 0.163457 0
M  V30 6983 H 674.993 0.627229 -0.217898 0
M  V30 6984 H 677.523 1.63575 -1.229 0
M  V30 6985 H 677.533 4.02163 -0.687666 0
M  V30 6986 H 676.208 3.74613 -1.8066 0
M  V30 6987 H 674.785 3.72892 0.0247827 0
M  V30 6988 N 676.97 0.677563 1.42291 0
M  V30 6989 C 677.88 0.000962654 2.346 0
M  V30 6990 C 678.896 -0.785833 1.55244 0
M  V30 6991 O 680.072 -0.727523 1.87801 0
M  V30 6992 C 677.137 -0.936746 3.33805 0
M  V30 6993 C 676.198 -0.144173 4.29058 0
M  V30 6994 C 675.431 -1.03722 5.23524 0
M  V30 6995 O 675.654 -2.27675 5.22992 0
M  V30 6996 O 674.588 -0.496542 5.99848 0
M  V30 6997 H 678.414 0.761397 2.94001 0
M  V30 6998 H 675.999 0.43781 1.42841 0
M  V30 6999 H 677.881 -1.47497 3.94744 0
M  V30 7000 H 676.556 -1.67698 2.76874 0
M  V30 7001 H 675.463 0.438224 3.71524 0
M  V30 7002 H 676.796 0.55701 4.89038 0
M  V30 7003 N 678.448 -1.51871 0.421078 0
M  V30 7004 C 679.725 -1.9447 -0.20993 0
M  V30 7005 C 680.105 -1.35875 -1.61558 0
M  V30 7006 O 679.453 -0.539294 -2.22045 0
M  V30 7007 C 679.663 -3.48402 -0.204165 0
M  V30 7008 C 681.011 -4.2254 -0.417696 0
M  V30 7009 O 682.035 -3.55074 -0.282999 0
M  V30 7010 O 680.894 -5.422 -0.684239 0
M  V30 7011 H 677.988 -0.815283 -0.138718 0
M  V30 7012 H 680.534 -1.62832 0.477884 0
M  V30 7013 H 679.306 -3.83464 0.779183 0
M  V30 7014 H 678.929 -3.86436 -0.935576 0
M  V30 7015 N 679.926 -0.151884 -1.56866 0
M  V30 7016 C 680.856 0.781943 -2.20018 0
M  V30 7017 C 681.837 1.25347 -1.14987 0
M  V30 7018 O 683.022 1.31015 -1.43348 0
M  V30 7019 C 680.152 2.01928 -2.82564 0
M  V30 7020 C 679.106 1.68434 -3.93464 0
M  V30 7021 C 678.432 2.99472 -4.42968 0
M  V30 7022 C 679.732 0.927244 -5.14003 0
M  V30 7023 H 681.426 0.255607 -2.98307 0
M  V30 7024 H 678.972 0.121502 -1.43486 0
M  V30 7025 H 680.925 2.67741 -3.25411 0
M  V30 7026 H 679.649 2.56943 -2.01614 0
M  V30 7027 H 678.308 1.04998 -3.51242 0
M  V30 7028 H 677.956 3.52488 -3.58834 0
M  V30 7029 H 677.656 2.77823 -5.17772 0
M  V30 7030 H 679.18 3.66348 -4.88489 0
M  V30 7031 H 680.594 1.48756 -5.53665 0
M  V30 7032 H 678.991 0.810513 -5.94601 0
M  V30 7033 H 680.061 -0.0801163 -4.84834 0
M  V30 7034 N 681.404 1.57128 0.121893 0
M  V30 7035 C 682.65 1.84974 0.831418 0
M  V30 7036 C 682.983 0.737204 1.79663 0
M  V30 7037 O 682.258 -0.257199 1.92792 0
M  V30 7038 C 682.541 3.23397 1.58386 0
M  V30 7039 C 682.394 4.45246 0.638445 0
M  V30 7040 C 683.713 3.59355 2.54071 0
M  V30 7041 H 680.832 0.67282 0.300803 0
M  V30 7042 H 683.474 1.89759 0.0957587 0
M  V30 7043 H 681.624 3.19449 2.21098 0
M  V30 7044 H 683.296 4.61295 0.0203925 0
M  V30 7045 H 681.539 4.33771 -0.05023 0
M  V30 7046 H 682.21 5.38765 1.20151 0
M  V30 7047 H 684.686 3.64075 2.01465 0
M  V30 7048 H 683.562 4.57193 3.03752 0
M  V30 7049 H 683.823 2.86622 3.36601 0
M  V30 7050 N 682.882 -0.391992 1.52647 0
M  V30 7051 C 684.128 -1.139 1.67793 0
M  V30 7052 C 684.461 -1.89711 0.41514 0
M  V30 7053 O 683.736 -1.85431 -0.586979 0
M  V30 7054 C 684.019 -2.11966 2.91105 0
M  V30 7055 C 683.872 -1.39939 4.27478 0
M  V30 7056 C 685.191 -3.1243 3.09961 0
M  V30 7057 H 682.31 -0.412707 0.610608 0
M  V30 7058 H 684.952 -0.422725 1.85238 0
M  V30 7059 H 683.102 -2.73048 2.76364 0
M  V30 7060 H 684.774 -0.818439 4.53982 0
M  V30 7061 H 683.017 -0.701246 4.28095 0
M  V30 7062 H 683.688 -2.1158 5.09841 0
M  V30 7063 H 686.164 -2.61435 3.23714 0
M  V30 7064 H 685.04 -3.78294 3.97725 0
M  V30 7065 H 685.301 -3.81127 2.24042 0
M  V30 7066 N 684.36 -1.4356 -0.65026 0
M  V30 7067 C 685.292 -1.44918 -1.77571 0
M  V30 7068 C 686.305 -0.344925 -1.59104 0
M  V30 7069 O 687.494 -0.609537 -1.6777 0
M  V30 7070 C 684.594 -1.24914 -3.15039 0
M  V30 7071 C 683.767 -2.48232 -3.60138 0
M  V30 7072 C 682.826 -2.23409 -4.76419 0
M  V30 7073 O 681.852 -2.9678 -4.85706 0
M  V30 7074 N 683.054 -1.25259 -5.66825 0
M  V30 7075 H 685.819 -2.41935 -1.76883 0
M  V30 7076 H 683.38 -1.38754 -0.834202 0
M  V30 7077 H 685.372 -1.06185 -3.90521 0
M  V30 7078 H 683.942 -0.363319 -3.10481 0
M  V30 7079 H 683.162 -2.82366 -2.75069 0
M  V30 7080 H 684.45 -3.30296 -3.87017 0
M  V30 7081 H 683.848 -0.646246 -5.61997 0
M  V30 7082 H 682.405 -1.12513 -6.42016 0
M  V30 7083 N 685.838 0.888903 -1.30139 0
M  V30 7084 C 687.084 1.6428 -1.18912 0
M  V30 7085 C 687.417 1.92499 0.256477 0
M  V30 7086 O 686.692 1.54312 1.18397 0
M  V30 7087 C 686.975 2.9851 -2.01405 0
M  V30 7088 C 686.828 2.77288 -3.54163 0
M  V30 7089 C 688.147 3.99383 -1.84882 0
M  V30 7090 H 685.266 0.596148 -0.433333 0
M  V30 7091 H 687.908 1.0289 -1.5973 0
M  V30 7092 H 686.058 3.50907 -1.66722 0
M  V30 7093 H 687.73 2.31709 -3.98884 0
M  V30 7094 H 685.973 2.11867 -3.78543 0
M  V30 7095 H 686.644 3.72717 -4.07168 0
M  V30 7096 H 689.12 3.56132 -2.15196 0
M  V30 7097 H 687.996 4.91222 -2.44934 0
M  V30 7098 H 688.257 4.34674 -0.806902 0
M  V30 7099 N 687.317 1.12792 1.10072 0
M  V30 7100 C 688.545 0.908506 1.85886 0
M  V30 7101 C 688.96 -0.542408 1.80841 0
M  V30 7102 O 688.317 -1.37517 1.1998 0
M  V30 7103 C 688.368 1.37973 3.34134 0
M  V30 7104 O 688.089 2.77378 3.39106 0
M  V30 7105 C 689.59 1.1978 4.26811 0
M  V30 7106 H 686.81 0.3244 0.587372 0
M  V30 7107 H 689.354 1.49882 1.39125 0
M  V30 7108 H 687.509 0.832566 3.78348 0
M  V30 7109 H 687.923 2.98144 4.31521 0
M  V30 7110 H 689.397 1.57635 5.29014 0
M  V30 7111 H 689.874 0.138768 4.38981 0
M  V30 7112 H 690.48 1.73266 3.88406 0
M  V30 7113 N 688.795 -1.27931 0.920396 0
M  V30 7114 C 689.758 -2.25345 0.41858 0
M  V30 7115 C 690.758 -1.54116 -0.458798 0
M  V30 7116 O 691.948 -1.72235 -0.260912 0
M  V30 7117 C 689.08 -3.38556 -0.399104 0
M  V30 7118 H 690.273 -2.71251 1.27918 0
M  V30 7119 H 687.826 -1.39728 0.700406 0
M  V30 7120 H 688.561 -2.98021 -1.27882 0
M  V30 7121 H 688.346 -3.91426 0.229863 0
M  V30 7122 H 689.836 -4.10976 -0.740817 0
M  V30 7123 N 690.273 -0.685099 -1.4193 0
M  V30 7124 C 691.519 -0.211971 -2.01689 0
M  V30 7125 C 691.852 1.18189 -1.54094 0
M  V30 7126 O 691.127 1.79559 -0.747572 0
M  V30 7127 C 691.41 -0.258019 -3.59174 0
M  V30 7128 C 691.263 -1.68807 -4.16922 0
M  V30 7129 C 692.582 0.388044 -4.38386 0
M  V30 7130 H 689.701 -0.0784987 -0.732808 0
M  V30 7131 H 692.343 -0.871837 -1.68816 0
M  V30 7132 H 690.493 0.303832 -3.8731 0
M  V30 7133 H 692.165 -2.30296 -3.99702 0
M  V30 7134 H 690.408 -2.22553 -3.72361 0
M  V30 7135 H 691.079 -1.6719 -5.26072 0
M  V30 7136 H 693.555 -0.0903432 -4.16002 0
M  V30 7137 H 692.431 0.325232 -5.47936 0
M  V30 7138 H 692.692 1.4672 -4.17044 0
M  V30 7139 N 691.751 1.51645 -0.429126 0
M  V30 7140 C 693.162 1.86665 0.0359003 0
M  V30 7141 C 693.513 1.34677 1.42676 0
M  V30 7142 O 692.638 0.694195 2.04963 0
M  V30 7143 C 693.233 3.38724 0.0719221 0
M  V30 7144 C 691.792 3.7331 0.481336 0
M  V30 7145 C 690.939 2.75313 -0.331329 0
M  V30 7146 H 693.89 1.44987 -0.645333 0
M  V30 7147 H 693.911 3.7011 0.883118 0
M  V30 7148 H 693.423 3.76532 -0.940495 0
M  V30 7149 H 691.524 3.41088 1.49966 0
M  V30 7150 H 691.637 4.78631 0.211837 0
M  V30 7151 H 690.001 2.53839 0.209204 0
M  V30 7152 H 690.784 3.15963 -1.34247 0
M  V30 7153 N 693.229 0.160201 1.56784 0
M  V30 7154 C 694.477 -0.486625 1.96154 0
M  V30 7155 C 694.798 -1.64525 1.04673 0
M  V30 7156 O 694.068 -1.95586 0.110864 0
M  V30 7157 H 692.648 -0.182764 0.724297 0
M  V30 7158 H 695.31 0.238787 1.93432 0
M  V30 7159 H 694.406 -0.854025 3.00188 0
M  V30 7160 N 694.707 -1.5719 -0.113559 0
M  V30 7161 C 695.639 -1.97393 -1.16484 0
M  V30 7162 C 696.652 -0.873964 -1.37352 0
M  V30 7163 O 697.841 -1.15222 -1.36331 0
M  V30 7164 C 694.941 -2.26174 -2.52386 0
M  V30 7165 C 694.114 -3.57479 -2.52046 0
M  V30 7166 C 693.173 -3.74409 -3.69735 0
M  V30 7167 O 692.199 -4.46463 -3.53071 0
M  V30 7168 N 693.401 -3.13588 -4.88511 0
M  V30 7169 H 696.166 -2.88184 -0.822814 0
M  V30 7170 H 693.727 -1.59044 -0.302769 0
M  V30 7171 H 695.719 -2.3471 -3.29687 0
M  V30 7172 H 694.289 -1.41483 -2.7875 0
M  V30 7173 H 693.509 -3.60081 -1.60421 0
M  V30 7174 H 694.797 -4.43775 -2.48881 0
M  V30 7175 H 694.195 -2.55026 -5.04953 0
M  V30 7176 H 692.752 -3.27637 -5.63469 0
M  V30 7177 N 696.185 0.383891 -1.52853 0
M  V30 7178 C 697.596 0.961591 -1.60032 0
M  V30 7179 C 697.947 1.90819 -0.456333 0
M  V30 7180 O 697.072 2.12288 0.419873 0
M  V30 7181 C 697.667 1.75078 -2.90057 0
M  V30 7182 C 696.226 2.2781 -2.99632 0
M  V30 7183 C 695.373 1.08512 -2.55187 0
M  V30 7184 H 698.324 0.163269 -1.57858 0
M  V30 7185 H 698.345 2.61046 -2.7683 0
M  V30 7186 H 697.857 1.06157 -3.73299 0
M  V30 7187 H 695.958 3.00028 -2.20939 0
M  V30 7188 H 696.071 2.56947 -4.0437 0
M  V30 7189 H 694.435 1.44667 -2.09627 0
M  V30 7190 H 695.218 0.41118 -3.40829 0
M  V30 7191 N 697.663 1.43903 0.642637 0
M  V30 7192 C 698.613 1.46321 1.74854 0
M  V30 7193 C 699.597 0.330361 1.57472 0
M  V30 7194 O 700.789 0.574881 1.67404 0
M  V30 7195 C 697.918 1.39919 3.13493 0
M  V30 7196 C 697.004 2.58274 3.36385 0
M  V30 7197 N 697.395 3.83578 3.29699 0
M  V30 7198 C 695.693 2.53224 3.67142 0
M  V30 7199 C 696.394 4.62375 3.52965 0
M  V30 7200 N 695.37 3.93269 3.75287 0
M  V30 7201 H 699.172 2.41062 1.68126 0
M  V30 7202 H 696.686 1.38704 0.844693 0
M  V30 7203 H 698.683 1.39735 3.92785 0
M  V30 7204 H 697.343 0.46207 3.21395 0
M  V30 7205 H 698.354 4.15713 3.08874 0
M  V30 7206 H 695.031 1.68252 3.82096 0
M  V30 7207 H 696.421 5.714 3.53485 0
M  V30 7208 N 699.141 -0.881989 1.30609 0
M  V30 7209 C 700.071 -2.00413 1.1982 0
M  V30 7210 C 701.052 -1.69871 0.0881538 0
M  V30 7211 O 702.237 -1.92304 0.2707 0
M  V30 7212 C 699.367 -3.35641 0.89233 0
M  V30 7213 C 698.321 -3.80451 1.96064 0
M  V30 7214 C 697.647 -5.13003 1.5077 0
M  V30 7215 C 698.947 -3.98855 3.37213 0
M  V30 7216 H 700.641 -2.09698 2.13699 0
M  V30 7217 H 698.187 -1.00754 1.02882 0
M  V30 7218 H 700.14 -4.13669 0.803497 0
M  V30 7219 H 698.864 -3.26497 -0.0821381 0
M  V30 7220 H 697.523 -3.04654 2.03916 0
M  V30 7221 H 697.171 -5.0029 0.521417 0
M  V30 7222 H 696.871 -5.43956 2.22229 0
M  V30 7223 H 698.395 -5.93554 1.43271 0
M  V30 7224 H 699.809 -4.67312 3.32103 0
M  V30 7225 H 698.206 -4.41188 4.06784 0
M  V30 7226 H 699.276 -3.02614 3.78883 0
M  V30 7227 N 700.619 -1.13374 -1.09472 0
M  V30 7228 C 702.03 -0.90801 -1.63132 0
M  V30 7229 C 702.381 0.555576 -1.8817 0
M  V30 7230 O 701.506 1.42218 -1.63104 0
M  V30 7231 C 702.101 -1.64182 -2.96361 0
M  V30 7232 C 700.66 -1.46197 -3.46848 0
M  V30 7233 C 699.807 -1.67134 -2.21273 0
M  V30 7234 H 702.758 -1.2871 -0.928411 0
M  V30 7235 H 702.779 -1.09863 -3.64294 0
M  V30 7236 H 702.291 -2.707 -2.78106 0
M  V30 7237 H 700.392 -0.419788 -3.70228 0
M  V30 7238 H 700.505 -2.22472 -4.24315 0
M  V30 7239 H 698.869 -1.09616 -2.29905 0
M  V30 7240 H 699.652 -2.74971 -2.05538 0
M  V30 7241 N 702.098 1.27442 -0.927168 0
M  V30 7242 C 703.346 1.94007 -0.566203 0
M  V30 7243 C 703.667 1.7323 0.895345 0
M  V30 7244 O 702.937 1.07973 1.63459 0
M  V30 7245 H 701.517 0.717917 -0.206409 0
M  V30 7246 H 704.179 1.55161 -1.17945 0
M  V30 7247 H 703.275 3.02401 -0.772028 0
M  V30 7248 N 703.576 0.692616 1.41565 0
M  V30 7249 C 704.824 0.221896 2.00878 0
M  V30 7250 C 705.145 -1.18164 1.5512 0
M  V30 7251 O 704.415 -1.79679 0.78054 0
M  V30 7252 H 702.995 0.0790463 0.742806 0
M  V30 7253 H 705.657 0.893115 1.73232 0
M  V30 7254 H 704.753 0.23702 3.11199 0
M  V30 7255 N 705.054 -1.51416 0.437162 0
M  V30 7256 C 706.3 -2.02386 -0.129555 0
M  V30 7257 C 706.633 -1.32071 -1.42376 0
M  V30 7258 O 705.908 -0.43559 -1.8956 0
M  V30 7259 C 706.191 -3.5841 -0.348487 0
M  V30 7260 C 706.044 -4.39341 0.964352 0
M  V30 7261 C 707.363 -4.25654 -1.11834 0
M  V30 7262 H 704.482 -0.735587 -0.0456109 0
M  V30 7263 H 707.124 -1.81055 0.576124 0
M  V30 7264 H 705.274 -3.76716 -0.949592 0
M  V30 7265 H 706.946 -4.32685 1.59942 0
M  V30 7266 H 705.189 -4.04432 1.56898 0
M  V30 7267 H 705.86 -5.4667 0.765212 0
M  V30 7268 H 708.336 -4.11617 -0.609165 0
M  V30 7269 H 707.212 -5.34704 -1.24029 0
M  V30 7270 H 707.473 -3.86502 -2.14636 0
M  V30 7271 N 706.532 -0.168513 -1.56696 0
M  V30 7272 C 707.778 0.477865 -1.9709 0
M  V30 7273 C 708.111 1.63084 -1.05438 0
M  V30 7274 O 707.386 1.94238 -0.10095 0
M  V30 7275 C 707.669 0.963521 -3.4697 0
M  V30 7276 C 707.522 -0.189443 -4.49401 0
M  V30 7277 C 708.841 1.83813 -3.99876 0
M  V30 7278 H 705.96 0.172229 -0.716593 0
M  V30 7279 H 708.602 -0.254083 -1.88293 0
M  V30 7280 H 706.752 1.58724 -3.54597 0
M  V30 7281 H 708.424 -0.826451 -4.53836 0
M  V30 7282 H 706.667 -0.845366 -4.25483 0
M  V30 7283 H 707.338 0.192446 -5.51664 0
M  V30 7284 H 709.814 1.31235 -3.94863 0
M  V30 7285 H 708.69 2.14697 -5.0517 0
M  V30 7286 H 708.951 2.78289 -3.43523 0
M  V30 7287 N 708.01 1.57248 0.105221 0
M  V30 7288 C 709.257 1.8557 0.810552 0
M  V30 7289 C 709.585 0.755595 1.79223 0
M  V30 7290 O 708.84 -0.251788 1.94073 0
M  V30 7291 C 709.139 3.20437 1.58287 0
M  V30 7292 C 708.805 4.44716 0.744235 0
M  V30 7293 C 707.467 4.78458 0.513013 0
M  V30 7294 C 709.819 5.20953 0.160578 0
M  V30 7295 C 707.147 5.8587 -0.311894 0
M  V30 7296 C 709.499 6.29235 -0.651596 0
M  V30 7297 C 708.163 6.615 -0.893005 0
M  V30 7298 H 707.433 0.67905 0.296602 0
M  V30 7299 H 710.08 1.91363 0.0723968 0
M  V30 7300 H 708.385 3.10283 2.39232 0
M  V30 7301 H 710.082 3.39576 2.13282 0
M  V30 7302 H 706.672 4.18287 0.934555 0
M  V30 7303 H 710.856 4.95226 0.3264 0
M  V30 7304 H 706.112 6.09286 -0.508012 0
M  V30 7305 H 710.286 6.87484 -1.11077 0
M  V30 7306 H 707.913 7.44562 -1.53401 0
M  V30 7307 N 709.488 -0.375779 1.53054 0
M  V30 7308 C 710.438 -1.45965 1.75152 0
M  V30 7309 C 711.422 -1.49059 0.605823 0
M  V30 7310 O 712.614 -1.54472 0.864133 0
M  V30 7311 C 709.743 -2.83524 1.93569 0
M  V30 7312 C 708.829 -2.84949 3.1411 0
M  V30 7313 N 709.22 -2.56029 4.36214 0
M  V30 7314 C 707.518 -3.16113 3.14625 0
M  V30 7315 C 708.219 -2.64873 5.17897 0
M  V30 7316 N 707.195 -2.99159 4.53878 0
M  V30 7317 H 710.997 -1.22454 2.67175 0
M  V30 7318 H 708.511 -0.583867 1.51541 0
M  V30 7319 H 710.508 -3.61578 2.07525 0
M  V30 7320 H 709.168 -3.08008 1.02768 0
M  V30 7321 H 710.179 -2.29808 4.64121 0
M  V30 7322 H 706.856 -3.45977 2.3368 0
M  V30 7323 H 708.246 -2.45947 6.25268 0
M  V30 7324 N 710.966 -1.44241 -0.634997 0
M  V30 7325 C 712.196 -1.50078 -1.41987 0
M  V30 7326 C 712.604 -0.123072 -1.88799 0
M  V30 7327 O 711.947 0.880552 -1.6122 0
M  V30 7328 C 712.009 -2.40033 -2.67628 0
M  V30 7329 C 711.673 -3.87268 -2.42637 0
M  V30 7330 C 712.67 -4.77902 -2.04708 0
M  V30 7331 C 710.355 -4.31933 -2.56396 0
M  V30 7332 C 712.349 -6.11202 -1.80862 0
M  V30 7333 C 710.036 -5.65281 -2.32164 0
M  V30 7334 C 711.034 -6.54734 -1.94455 0
M  V30 7335 O 710.722 -7.85613 -1.7049 0
M  V30 7336 H 710.454 -0.51146 -0.442023 0
M  V30 7337 H 713.008 -1.89843 -0.784138 0
M  V30 7338 H 711.238 -1.95188 -3.33824 0
M  V30 7339 H 712.927 -2.36863 -3.29622 0
M  V30 7340 H 713.693 -4.44668 -1.93638 0
M  V30 7341 H 709.572 -3.62569 -2.84719 0
M  V30 7342 H 713.116 -6.80983 -1.51353 0
M  V30 7343 H 709.013 -5.98078 -2.42843 0
M  V30 7344 H 709.781 -7.97373 -1.84767 0
M  V30 7345 N 712.444 0.87505 -1.31075 0
M  V30 7346 C 713.86 1.15997 -1.09622 0
M  V30 7347 C 714.06 2.01036 0.136611 0
M  V30 7348 O 713.116 2.38559 0.827397 0
M  V30 7349 C 714.429 1.85702 -2.36506 0
M  V30 7350 C 715.977 1.98425 -2.42067 0
M  V30 7351 C 716.452 2.71544 -3.68819 0
M  V30 7352 N 717.943 2.79084 -3.69684 0
M  V30 7353 C 718.678 3.36259 -4.64454 0
M  V30 7354 N 718.174 3.94406 -5.69575 0
M  V30 7355 N 719.967 3.34169 -4.51982 0
M  V30 7356 H 712.118 0.308258 -2.10151 0
M  V30 7357 H 714.381 0.199145 -0.926847 0
M  V30 7358 H 714.087 1.30663 -3.26527 0
M  V30 7359 H 713.961 2.86017 -2.45915 0
M  V30 7360 H 716.348 2.5263 -1.52518 0
M  V30 7361 H 716.429 0.971682 -2.36626 0
M  V30 7362 H 716.073 2.18008 -4.58732 0
M  V30 7363 H 716.003 3.73198 -3.71525 0
M  V30 7364 H 718.494 2.3781 -2.93691 0
M  V30 7365 H 718.807 4.36129 -6.37974 0
M  V30 7366 H 717.152 3.92797 -5.73355 0
M  V30 7367 H 720.343 2.87977 -3.69035 0
M  V30 7368 H 720.516 3.78431 -5.26017 0
M  V30 7369 N 713.922 1.13953 1.08869 0
M  V30 7370 C 715.333 0.916649 1.62648 0
M  V30 7371 C 715.684 -0.545589 1.88462 0
M  V30 7372 O 714.809 -1.41351 1.63856 0
M  V30 7373 C 715.404 1.65751 2.95486 0
M  V30 7374 C 713.963 1.48034 3.46068 0
M  V30 7375 C 713.11 1.68305 2.20383 0
M  V30 7376 H 716.061 1.292 0.921572 0
M  V30 7377 H 716.082 1.11794 3.63707 0
M  V30 7378 H 715.594 2.72171 2.76667 0
M  V30 7379 H 713.695 0.439416 3.7 0
M  V30 7380 H 713.808 2.24719 4.23129 0
M  V30 7381 H 712.172 1.10833 2.29321 0
M  V30 7382 H 712.955 2.76057 2.04077 0
M  V30 7383 N 715.4 -1.26948 0.933913 0
M  V30 7384 C 716.648 -1.93704 0.576484 0
M  V30 7385 C 716.969 -1.73702 -0.886145 0
M  V30 7386 O 716.239 -1.08838 -1.62884 0
M  V30 7387 H 714.819 -0.716812 0.210214 0
M  V30 7388 H 717.481 -1.54534 1.18766 0
M  V30 7389 H 716.577 -3.01987 0.788055 0
M  V30 7390 N 716.879 -0.700114 -1.41195 0
M  V30 7391 C 718.29 -0.307249 -1.84154 0
M  V30 7392 C 718.641 1.15539 -1.58572 0
M  V30 7393 O 717.766 1.88744 -1.05852 0
M  V30 7394 C 718.361 -0.550872 -3.34292 0
M  V30 7395 C 716.92 -0.211877 -3.75803 0
M  V30 7396 C 716.067 -0.830915 -2.64558 0
M  V30 7397 H 719.018 -0.900431 -1.30683 0
M  V30 7398 H 719.039 0.188954 -3.80031 0
M  V30 7399 H 718.551 -1.61548 -3.5288 0
M  V30 7400 H 716.652 0.848283 -3.62815 0
M  V30 7401 H 716.765 -0.67007 -4.74391 0
M  V30 7402 H 715.129 -0.260155 -2.53368 0
M  V30 7403 H 715.912 -1.89948 -2.85963 0
M  V30 7404 N 718.357 1.51182 -0.445186 0
M  V30 7405 C 719.585 2.06568 0.117091 0
M  V30 7406 C 720 1.31182 1.35781 0
M  V30 7407 O 719.357 0.373605 1.78635 0
M  V30 7408 C 719.408 3.58917 0.431408 0
M  V30 7409 O 719.129 4.31456 -0.760078 0
M  V30 7410 C 720.63 4.30843 1.0435 0
M  V30 7411 H 717.85 0.670985 0.00444436 0
M  V30 7412 H 720.394 1.94666 -0.626525 0
M  V30 7413 H 718.549 3.70708 1.12493 0
M  V30 7414 H 718.963 5.22215 -0.489048 0
M  V30 7415 H 720.437 5.38499 1.21337 0
M  V30 7416 H 720.914 3.89644 2.02667 0
M  V30 7417 H 721.52 4.23516 0.38913 0
M  V30 7418 N 719.835 0.176821 1.56605 0
M  V30 7419 C 721.251 -0.179278 1.5859 0
M  V30 7420 C 721.451 -1.62433 1.19238 0
M  V30 7421 O 720.507 -2.35665 0.906552 0
M  V30 7422 C 721.82 0.106524 3.00511 0
M  V30 7423 C 723.368 0.0451731 3.12967 0
M  V30 7424 C 723.843 0.304038 4.5699 0
M  V30 7425 N 725.334 0.252008 4.62514 0
M  V30 7426 C 726.069 0.426404 5.71812 0
M  V30 7427 N 725.565 0.660155 6.89648 0
M  V30 7428 N 727.358 0.361926 5.60934 0
M  V30 7429 H 719.509 1.12001 1.8047 0
M  V30 7430 H 721.772 0.445679 0.836704 0
M  V30 7431 H 721.478 1.10778 3.33798 0
M  V30 7432 H 721.352 -0.599337 3.72408 0
M  V30 7433 H 723.739 -0.946662 2.79504 0
M  V30 7434 H 723.82 0.78383 2.43495 0
M  V30 7435 H 723.464 1.29311 4.91163 0
M  V30 7436 H 723.394 -0.455294 5.24628 0
M  V30 7437 H 725.885 0.0772102 3.77821 0
M  V30 7438 H 726.198 0.782529 7.68828 0
M  V30 7439 H 724.543 0.696835 6.91498 0
M  V30 7440 H 727.734 0.17986 4.67754 0
M  V30 7441 H 727.907 0.501263 6.46058 0
M  V30 7442 N 721.313 -1.57302 -0.09688 0
M  V30 7443 C 722.543 -1.89926 -0.813114 0
M  V30 7444 C 722.951 -0.76852 -1.72888 0
M  V30 7445 O 722.294 0.268549 -1.81726 0
M  V30 7446 C 722.356 -3.17787 -1.68082 0
M  V30 7447 C 722.02 -4.4729 -0.937061 0
M  V30 7448 C 723.017 -5.1921 -0.267687 0
M  V30 7449 C 720.702 -4.93957 -0.911671 0
M  V30 7450 C 722.696 -6.36034 0.417129 0
M  V30 7451 C 720.383 -6.10693 -0.223068 0
M  V30 7452 C 721.381 -6.8158 0.440155 0
M  V30 7453 O 721.069 -7.96092 1.11772 0
M  V30 7454 H 720.801 -0.632783 -0.237828 0
M  V30 7455 H 723.355 -2.05248 -0.0790818 0
M  V30 7456 H 721.585 -2.98607 -2.45705 0
M  V30 7457 H 723.274 -3.36257 -2.27346 0
M  V30 7458 H 724.04 -4.84198 -0.278774 0
M  V30 7459 H 719.919 -4.38671 -1.41734 0
M  V30 7460 H 723.463 -6.91301 0.93537 0
M  V30 7461 H 719.36 -6.45159 -0.209821 0
M  V30 7462 H 720.128 -8.12064 1.02443 0
M  V30 7463 N 722.791 0.367657 -1.53252 0
M  V30 7464 C 724.016 1.13566 -1.73544 0
M  V30 7465 C 724.441 1.82329 -0.462344 0
M  V30 7466 O 723.799 1.71655 0.583472 0
M  V30 7467 C 723.847 2.14322 -2.89997 0
M  V30 7468 O 722.951 3.21359 -2.58461 0
M  V30 7469 H 722.292 0.329614 -0.576412 0
M  V30 7470 H 724.822 0.425417 -2.00128 0
M  V30 7471 H 724.832 2.57958 -3.16104 0
M  V30 7472 H 723.507 1.63664 -3.82344 0
M  V30 7473 H 722.084 2.8271 -2.43165 0
M  V30 7474 N 724.269 1.44576 0.627338 0
M  V30 7475 C 725.199 1.54562 1.75022 0
M  V30 7476 C 726.18 0.398378 1.65369 0
M  V30 7477 O 727.365 0.61899 1.84071 0
M  V30 7478 C 724.495 1.49309 3.13567 0
M  V30 7479 C 723.449 2.62549 3.38012 0
M  V30 7480 C 722.775 2.42348 4.76625 0
M  V30 7481 C 724.075 4.04678 3.30202 0
M  V30 7482 H 725.769 2.4855 1.66922 0
M  V30 7483 H 723.315 1.19624 0.801636 0
M  V30 7484 H 725.268 1.54895 3.919 0
M  V30 7485 H 723.992 0.518392 3.2246 0
M  V30 7486 H 722.651 2.56358 2.62061 0
M  V30 7487 H 722.299 1.43062 4.82226 0
M  V30 7488 H 721.999 3.18273 4.93939 0
M  V30 7489 H 723.523 2.49758 5.57183 0
M  V30 7490 H 724.937 4.12217 3.98435 0
M  V30 7491 H 723.334 4.80836 3.5905 0
M  V30 7492 H 724.404 4.2798 2.27949 0
M  V30 7493 N 725.747 -0.868086 1.31537 0
M  V30 7494 C 726.975 -1.65402 1.24298 0
M  V30 7495 C 727.39 -1.87827 -0.191389 0
M  V30 7496 O 726.747 -1.43776 -1.12404 0
M  V30 7497 C 726.798 -3.02093 1.9855 0
M  V30 7498 O 726.519 -2.80668 3.36388 0
M  V30 7499 C 728.02 -3.96538 1.98173 0
M  V30 7500 H 725.24 -0.515598 0.429417 0
M  V30 7501 H 727.784 -1.0834 1.73444 0
M  V30 7502 H 725.939 -3.55838 1.53161 0
M  V30 7503 H 726.353 -3.67504 3.74221 0
M  V30 7504 H 727.827 -4.8976 2.54635 0
M  V30 7505 H 728.304 -4.28474 0.964697 0
M  V30 7506 H 728.91 -3.48729 2.4345 0
M  V30 7507 N 727.225 -1.14528 -1.08264 0
M  V30 7508 C 728.472 -0.914405 -1.80679 0
M  V30 7509 C 728.8 0.558952 -1.86295 0
M  V30 7510 O 728.055 1.43017 -1.33584 0
M  V30 7511 C 728.354 -1.46226 -3.26117 0
M  V30 7512 C 728.02 -2.95451 -3.40616 0
M  V30 7513 C 726.682 -3.36191 -3.4428 0
M  V30 7514 C 729.034 -3.91399 -3.44175 0
M  V30 7515 C 726.362 -4.71539 -3.49096 0
M  V30 7516 C 728.714 -5.26606 -3.50526 0
M  V30 7517 C 727.378 -5.66856 -3.52464 0
M  V30 7518 H 726.648 -0.334604 -0.661151 0
M  V30 7519 H 729.295 -1.4292 -1.27461 0
M  V30 7520 H 727.6 -0.868442 -3.82054 0
M  V30 7521 H 729.297 -1.25955 -3.80705 0
M  V30 7522 H 725.887 -2.62955 -3.38456 0
M  V30 7523 H 730.071 -3.61004 -3.40573 0
M  V30 7524 H 725.327 -5.02082 -3.4889 0
M  V30 7525 H 729.501 -6.00758 -3.52225 0
M  V30 7526 H 727.128 -6.71718 -3.55948 0
M  V30 7527 N 728.703 1.26451 -0.940633 0
M  V30 7528 C 729.613 2.30128 -0.455881 0
M  V30 7529 C 730.629 1.67536 0.469867 0
M  V30 7530 O 731.805 1.98344 0.349529 0
M  V30 7531 C 728.87 3.45634 0.271648 0
M  V30 7532 C 727.931 4.23709 -0.690594 0
M  V30 7533 C 727.164 5.337 0.00231047 0
M  V30 7534 O 727.387 5.57215 1.21935 0
M  V30 7535 O 726.321 5.98091 -0.676111 0
M  V30 7536 H 730.147 2.73655 -1.31707 0
M  V30 7537 H 727.732 1.3164 -0.706497 0
M  V30 7538 H 729.614 4.15853 0.681486 0
M  V30 7539 H 728.289 3.04138 1.10824 0
M  V30 7540 H 727.196 3.55974 -1.15037 0
M  V30 7541 H 728.529 4.68953 -1.49478 0
M  V30 7542 N 730.181 0.707592 1.40822 0
M  V30 7543 C 731.091 0.0507246 2.34545 0
M  V30 7544 C 732.107 -0.752727 1.56876 0
M  V30 7545 O 733.283 -0.687524 1.89302 0
M  V30 7546 C 730.348 -0.865731 3.35717 0
M  V30 7547 C 729.409 -0.0531313 4.29267 0
M  V30 7548 C 728.642 -0.925939 5.25606 0
M  V30 7549 O 728.865 -2.16531 5.27703 0
M  V30 7550 O 727.799 -0.369194 6.00767 0
M  V30 7551 H 731.625 0.823587 2.9232 0
M  V30 7552 H 729.21 0.46801 1.4188 0
M  V30 7553 H 731.092 -1.39091 3.97783 0
M  V30 7554 H 729.767 -1.61788 2.80368 0
M  V30 7555 H 728.674 0.516931 3.70511 0
M  V30 7556 H 730.007 0.660617 4.87747 0
M  V30 7557 N 731.66 -1.50943 0.453197 0
M  V30 7558 C 732.623 -2.26684 -0.338705 0
M  V30 7559 C 733.623 -1.30748 -0.936032 0
M  V30 7560 O 734.813 -1.54327 -0.808002 0
M  V30 7561 C 731.945 -3.07063 -1.48071 0
M  V30 7562 H 733.138 -2.98131 0.325289 0
M  V30 7563 H 730.691 -1.54926 0.206771 0
M  V30 7564 H 731.426 -2.4007 -2.18029 0
M  V30 7565 H 731.211 -3.77545 -1.0584 0
M  V30 7566 H 732.701 -3.64393 -2.0398 0
M  V30 7567 N 733.138 -0.185124 -1.56509 0
M  V30 7568 C 734.07 0.771401 -2.15829 0
M  V30 7569 C 735.083 1.18392 -1.11747 0
M  V30 7570 O 736.272 1.12137 -1.38879 0
M  V30 7571 C 733.372 2.05169 -2.69739 0
M  V30 7572 C 732.545 1.80056 -3.98621 0
M  V30 7573 C 731.604 2.92435 -4.37456 0
M  V30 7574 O 730.63 2.62473 -5.05071 0
M  V30 7575 N 731.832 4.20554 -4.00143 0
M  V30 7576 H 734.597 0.264184 -2.98533 0
M  V30 7577 H 732.158 -0.00281069 -1.619 0
M  V30 7578 H 734.15 2.7947 -2.92709 0
M  V30 7579 H 732.72 2.47041 -1.91545 0
M  V30 7580 H 731.94 0.895862 -3.83885 0
M  V30 7581 H 733.228 1.60662 -4.82768 0
M  V30 7582 H 732.626 4.47753 -3.45736 0
M  V30 7583 H 731.183 4.91514 -4.28085 0
M  V30 7584 N 734.616 1.57351 0.0885366 0
M  V30 7585 C 735.548 1.99221 1.13329 0
M  V30 7586 C 736.561 0.895705 1.35945 0
M  V30 7587 O 737.75 1.17376 1.34481 0
M  V30 7588 C 734.85 2.3016 2.48756 0
M  V30 7589 C 734.023 3.61444 2.46327 0
M  V30 7590 C 733.082 3.80244 3.63732 0
M  V30 7591 O 732.108 4.52024 3.45924 0
M  V30 7592 N 733.31 3.2132 4.8346 0
M  V30 7593 H 736.075 2.89456 0.776862 0
M  V30 7594 H 733.636 1.59505 0.277428 0
M  V30 7595 H 735.628 2.39925 3.25911 0
M  V30 7596 H 734.198 1.459 2.76464 0
M  V30 7597 H 733.418 3.62588 1.54673 0
M  V30 7598 H 734.706 4.47678 2.41789 0
M  V30 7599 H 734.104 2.63028 5.00832 0
M  V30 7600 H 732.661 3.3656 5.58185 0
M  V30 7601 N 736.094 -0.359525 1.53444 0
M  V30 7602 C 737.057 -1.42357 1.7963 0
M  V30 7603 C 738.057 -1.46319 0.666884 0
M  V30 7604 O 739.247 -1.46974 0.935113 0
M  V30 7605 C 736.379 -2.81425 1.92387 0
M  V30 7606 H 737.572 -1.20409 2.74666 0
M  V30 7607 H 735.125 -0.593007 1.44614 0
M  V30 7608 H 735.86 -3.08679 0.994384 0
M  V30 7609 H 735.645 -2.79947 2.74539 0
M  V30 7610 H 737.135 -3.5847 2.14218 0
M  V30 7611 N 737.572 -1.44907 -0.619662 0
M  V30 7612 C 738.812 -1.49822 -1.39042 0
M  V30 7613 C 739.176 -0.131803 -1.91547 0
M  V30 7614 O 740.377 -0.0556413 -2.68742 0
M  V30 7615 C 738.648 -2.53805 -2.5163 0
M  V30 7616 S 740.207 -2.77855 -3.3962 0
M  V30 7617 H 737.025 -0.529774 -0.474195 0
M  V30 7618 H 739.627 -1.81907 -0.716236 0
M  V30 7619 H 738.331 -3.51772 -2.11387 0
M  V30 7620 H 737.862 -2.23331 -3.23863 0
M  V30 7621 H 739.877 -2.10319 -4.49422 0
M  V30 7622 N 739.05 0.861098 -1.31996 0
M  V30 7623 C 740.461 1.43065 -1.19955 0
M  V30 7624 C 740.812 1.95273 0.190489 0
M  V30 7625 O 739.937 1.87012 1.08882 0
M  V30 7626 C 740.532 2.60052 -2.1716 0
M  V30 7627 C 739.091 3.13026 -2.09026 0
M  V30 7628 C 738.238 1.85756 -2.05888 0
M  V30 7629 H 741.189 0.668834 -1.43918 0
M  V30 7630 H 741.21 3.37016 -1.76637 0
M  V30 7631 H 740.722 2.22024 -3.18319 0
M  V30 7632 H 738.823 3.55653 -1.11092 0
M  V30 7633 H 738.936 3.74707 -2.98549 0
M  V30 7634 H 737.3 2.05088 -1.51033 0
M  V30 7635 H 738.083 1.49954 -3.08818 0
M  V30 7636 N 740.528 1.15101 1.07655 0
M  V30 7637 C 741.776 0.922149 1.79836 0
M  V30 7638 C 742.097 -0.552346 1.87014 0
M  V30 7639 O 741.367 -1.40145 1.3688 0
M  V30 7640 H 739.947 0.338182 0.666064 0
M  V30 7641 H 742.609 1.45107 1.30115 0
M  V30 7642 H 741.705 1.32883 2.82398 0
M  V30 7643 N 742.006 -1.2595 0.947325 0
M  V30 7644 C 743.234 -1.97544 0.615127 0
M  V30 7645 C 743.649 -1.70484 -0.811221 0
M  V30 7646 O 743.006 -0.97662 -1.5417 0
M  V30 7647 C 743.057 -3.51236 0.855328 0
M  V30 7648 O 742.778 -3.77359 2.22558 0
M  V30 7649 C 744.279 -4.40066 0.534515 0
M  V30 7650 H 741.499 -0.629888 0.231263 0
M  V30 7651 H 744.043 -1.60308 1.26971 0
M  V30 7652 H 742.198 -3.8661 0.247266 0
M  V30 7653 H 742.612 -4.71857 2.29022 0
M  V30 7654 H 744.086 -5.46838 0.753168 0
M  V30 7655 H 744.563 -4.35982 -0.530701 0
M  V30 7656 H 745.169 -4.10245 1.12158 0
M  V30 7657 N 743.484 -0.715051 -1.40445 0
M  V30 7658 C 744.732 -0.253826 -2.005 0
M  V30 7659 C 745.053 1.15681 -1.5698 0
M  V30 7660 O 744.323 1.78414 -0.809027 0
M  V30 7661 H 742.903 -0.0908537 -0.741454 0
M  V30 7662 H 745.565 -0.920561 -1.7179 0
M  V30 7663 H 744.661 -0.286499 -3.10782 0
M  V30 7664 N 744.962 1.50701 -0.461195 0
M  V30 7665 C 745.925 2.2686 0.326679 0
M  V30 7666 C 746.925 1.31243 0.929085 0
M  V30 7667 O 748.115 1.54754 0.799807 0
M  V30 7668 C 745.247 3.07844 1.46441 0
M  V30 7669 H 746.44 2.97954 -0.341095 0
M  V30 7670 H 743.993 1.54814 -0.214984 0
M  V30 7671 H 744.728 2.41223 2.16753 0
M  V30 7672 H 744.513 3.78101 1.03836 0
M  V30 7673 H 746.003 3.65469 2.02044 0
M  V30 7674 N 746.441 0.193421 1.56409 0
M  V30 7675 C 747.687 -0.446449 1.97825 0
M  V30 7676 C 748.02 -1.61386 1.08019 0
M  V30 7677 O 747.295 -1.94053 0.131839 0
M  V30 7678 C 747.578 -0.908199 3.48459 0
M  V30 7679 C 747.431 0.260914 4.49043 0
M  V30 7680 C 748.75 -1.77428 4.0275 0
M  V30 7681 H 745.869 -0.160807 0.719243 0
M  V30 7682 H 748.511 0.284006 1.87865 0
M  V30 7683 H 746.661 -1.53062 3.57077 0
M  V30 7684 H 748.333 0.898548 4.52464 0
M  V30 7685 H 746.576 0.912949 4.24085 0
M  V30 7686 H 747.247 -0.104657 5.51901 0
M  V30 7687 H 749.723 -1.24936 3.96901 0
M  V30 7688 H 748.599 -2.06633 5.08521 0
M  V30 7689 H 748.86 -2.72788 3.47907 0
M  V30 7690 N 747.919 -1.57396 -0.0801906 0
M  V30 7691 C 749.168 -1.8602 -0.779702 0
M  V30 7692 C 749.481 -0.784864 -1.79163 0
M  V30 7693 O 750.687 -0.958691 -2.54011 0
M  V30 7694 C 749.143 -3.29942 -1.43758 0
M  V30 7695 C 748.751 -4.45584 -0.464654 0
M  V30 7696 C 750.495 -3.67775 -2.11995 0
M  V30 7697 C 748.402 -5.80544 -1.12797 0
M  V30 7698 H 747.332 -0.69392 -0.294943 0
M  V30 7699 H 749.983 -1.83471 -0.0328527 0
M  V30 7700 H 748.365 -3.27078 -2.2324 0
M  V30 7701 H 749.539 -4.59824 0.299749 0
M  V30 7702 H 747.854 -4.16247 0.112813 0
M  V30 7703 H 750.451 -4.65896 -2.62383 0
M  V30 7704 H 750.794 -2.9715 -2.91561 0
M  V30 7705 H 751.327 -3.72593 -1.39354 0
M  V30 7706 H 748.066 -6.54439 -0.372807 0
M  V30 7707 H 747.586 -5.70119 -1.86344 0
M  V30 7708 H 749.265 -6.25602 -1.6502 0
M  V30 7709 N 749.397 0.351382 -1.53633 0
M  V30 7710 C 750.36 1.41403 -1.80383 0
M  V30 7711 C 751.36 1.45963 -0.674635 0
M  V30 7712 O 752.55 1.46476 -0.942895 0
M  V30 7713 C 749.682 2.80401 -1.93876 0
M  V30 7714 H 750.875 1.18951 -2.75301 0
M  V30 7715 H 748.428 0.58533 -1.44926 0
M  V30 7716 H 749.163 3.08147 -1.01074 0
M  V30 7717 H 748.948 2.78488 -2.7602 0
M  V30 7718 H 750.438 3.57329 -2.16116 0
M  V30 7719 N 750.875 1.45233 0.611969 0
M  V30 7720 C 752.1 1.52767 1.40274 0
M  V30 7721 C 752.525 0.159701 1.87421 0
M  V30 7722 O 751.883 -0.854837 1.59882 0
M  V30 7723 C 751.931 2.51286 2.58626 0
M  V30 7724 O 751.035 2.02764 3.59111 0
M  V30 7725 H 750.376 0.515141 0.418958 0
M  V30 7726 H 752.906 1.90547 0.745188 0
M  V30 7727 H 752.916 2.69949 3.05927 0
M  V30 7728 H 751.591 3.50641 2.23659 0
M  V30 7729 H 750.168 1.93957 3.18489 0
M  V30 7730 N 752.353 -0.854086 1.3245 0
M  V30 7731 C 753.764 -1.42427 1.20712 0
M  V30 7732 C 754.115 -1.95371 -0.18013 0
M  V30 7733 O 753.24 -1.87587 -1.07889 0
M  V30 7734 C 753.835 -2.58897 2.18536 0
M  V30 7735 C 752.394 -3.11913 2.10683 0
M  V30 7736 C 751.541 -1.84661 2.06871 0
M  V30 7737 H 754.492 -0.661192 1.4427 0
M  V30 7738 H 754.513 -3.36074 1.78422 0
M  V30 7739 H 754.025 -2.20333 3.19492 0
M  V30 7740 H 752.126 -3.55059 1.12977 0
M  V30 7741 H 752.239 -3.73119 3.00532 0
M  V30 7742 H 750.603 -2.04285 1.52118 0
M  V30 7743 H 751.386 -1.48314 3.09609 0
M  V30 7744 N 753.831 -1.1567 -1.07043 0
M  V30 7745 C 754.741 -0.870435 -2.17855 0
M  V30 7746 C 755.757 0.154452 -1.73313 0
M  V30 7747 O 756.933 -0.0203759 -2.0139 0
M  V30 7748 C 753.998 -0.367219 -3.4475 0
M  V30 7749 C 753.059 -1.45639 -4.03841 0
M  V30 7750 C 752.292 -0.977092 -5.2468 0
M  V30 7751 O 752.515 0.176127 -5.70128 0
M  V30 7752 O 751.449 -1.76215 -5.75527 0
M  V30 7753 H 755.275 -1.79687 -2.44839 0
M  V30 7754 H 752.86 -0.936064 -1.1644 0
M  V30 7755 H 754.742 -0.0931947 -4.21297 0
M  V30 7756 H 753.417 0.53131 -3.1931 0
M  V30 7757 H 752.324 -1.78406 -3.28819 0
M  V30 7758 H 753.657 -2.32995 -4.3356 0
M  V30 7759 N 755.309 1.25446 -0.953992 0
M  V30 7760 C 756.241 2.25111 -0.431004 0
M  V30 7761 C 757.254 1.56377 0.452764 0
M  V30 7762 O 758.443 1.76579 0.261144 0
M  V30 7763 C 755.543 3.3655 0.39839 0
M  V30 7764 C 754.716 4.34843 -0.472229 0
M  V30 7765 C 753.775 5.25351 0.29886 0
M  V30 7766 O 752.801 5.68396 -0.302522 0
M  V30 7767 N 754.003 5.5824 1.59211 0
M  V30 7768 H 756.768 2.70619 -1.28785 0
M  V30 7769 H 754.329 1.39346 -0.824281 0
M  V30 7770 H 756.321 3.94059 0.921941 0
M  V30 7771 H 754.891 2.90436 1.15609 0
M  V30 7772 H 754.111 3.76222 -1.17689 0
M  V30 7773 H 755.399 4.97497 -1.06648 0
M  V30 7774 H 754.797 5.25172 2.10264 0
M  V30 7775 H 753.354 6.18336 2.06164 0
M  V30 7776 N 756.787 0.722489 1.40064 0
M  V30 7777 C 757.717 0.0892452 2.33329 0
M  V30 7778 C 758.698 -0.737992 1.53257 0
M  V30 7779 O 759.883 -0.685516 1.81698 0
M  V30 7780 C 757.013 -0.828139 3.37282 0
M  V30 7781 C 755.967 -0.106005 4.27869 0
M  V30 7782 C 755.293 -1.13957 5.22415 0
M  V30 7783 C 756.593 1.04395 5.11761 0
M  V30 7784 H 758.287 0.868269 2.86534 0
M  V30 7785 H 755.833 0.418982 1.3777 0
M  V30 7786 H 757.786 -1.28058 4.01471 0
M  V30 7787 H 756.51 -1.63914 2.82489 0
M  V30 7788 H 755.169 0.326683 3.65142 0
M  V30 7789 H 754.817 -1.9438 4.63924 0
M  V30 7790 H 754.517 -0.661233 5.83868 0
M  V30 7791 H 756.041 -1.59197 5.89482 0
M  V30 7792 H 757.455 0.670541 5.69365 0
M  V30 7793 H 755.852 1.4511 5.82291 0
M  V30 7794 H 756.922 1.87144 4.47331 0
M  V30 7795 N 758.265 -1.50454 0.469181 0
M  V30 7796 C 759.197 -2.26319 -0.362247 0
M  V30 7797 C 760.21 -1.31574 -0.958751 0
M  V30 7798 O 761.399 -1.57099 -0.847482 0
M  V30 7799 C 758.499 -3.02808 -1.52187 0
M  V30 7800 C 757.672 -4.24893 -1.03849 0
M  V30 7801 C 756.731 -4.83691 -2.07194 0
M  V30 7802 O 755.757 -5.44659 -1.65333 0
M  V30 7803 N 756.959 -4.70522 -3.39985 0
M  V30 7804 H 759.724 -2.98312 0.288124 0
M  V30 7805 H 757.285 -1.59099 0.299856 0
M  V30 7806 H 759.277 -3.39023 -2.21011 0
M  V30 7807 H 757.847 -2.33625 -2.07697 0
M  V30 7808 H 757.067 -3.93806 -0.176203 0
M  V30 7809 H 758.355 -5.04053 -0.693435 0
M  V30 7810 H 757.753 -4.2203 -3.76706 0
M  V30 7811 H 756.31 -5.11011 -4.04612 0
M  V30 7812 N 759.743 -0.201713 -1.56304 0
M  V30 7813 C 760.706 0.702811 -2.18159 0
M  V30 7814 C 761.706 1.13619 -1.13787 0
M  V30 7815 O 762.896 1.0482 -1.39134 0
M  V30 7816 C 760.028 1.96032 -2.78898 0
M  V30 7817 H 761.221 0.163836 -2.99452 0
M  V30 7818 H 758.774 0.04791 -1.56227 0
M  V30 7819 H 759.509 2.54165 -2.01421 0
M  V30 7820 H 759.294 1.65824 -3.55309 0
M  V30 7821 H 760.784 2.60519 -3.26373 0
M  V30 7822 N 761.222 1.57436 0.0718424 0
M  V30 7823 C 762.185 2.02703 1.06977 0
M  V30 7824 C 763.185 0.924062 1.31597 0
M  V30 7825 O 764.375 1.18894 1.27318 0
M  V30 7826 C 761.507 2.40763 2.41342 0
M  V30 7827 H 762.7 2.92098 0.679619 0
M  V30 7828 H 760.253 1.5304 0.317565 0
M  V30 7829 H 760.988 1.54394 2.8519 0
M  V30 7830 H 760.773 3.21249 2.24814 0
M  V30 7831 H 762.263 2.76361 3.13073 0
M  V30 7832 N 762.7 -0.34323 1.53817 0
M  V30 7833 C 763.93 -1.10188 1.74763 0
M  V30 7834 C 764.338 -1.82829 0.486856 0
M  V30 7835 O 763.681 -1.75236 -0.551198 0
M  V30 7836 C 763.743 -2.16 2.87375 0
M  V30 7837 C 763.407 -1.62931 4.26969 0
M  V30 7838 C 764.404 -1.08147 5.08528 0
M  V30 7839 C 762.089 -1.67769 4.73454 0
M  V30 7840 C 764.083 -0.589039 6.34672 0
M  V30 7841 C 761.77 -1.18138 5.99572 0
M  V30 7842 C 762.768 -0.637979 6.80014 0
M  V30 7843 O 762.456 -0.149073 8.03762 0
M  V30 7844 H 762.188 -0.33445 0.587469 0
M  V30 7845 H 764.742 -0.401109 2.01445 0
M  V30 7846 H 762.972 -2.89637 2.56218 0
M  V30 7847 H 764.661 -2.77432 2.96287 0
M  V30 7848 H 765.427 -1.03732 4.73777 0
M  V30 7849 H 761.306 -2.09004 4.10899 0
M  V30 7850 H 764.85 -0.164233 6.97407 0
M  V30 7851 H 760.747 -1.22254 6.33817 0
M  V30 7852 H 761.515 -0.266332 8.18067 0
M  V30 7853 N 764.178 -1.45556 -0.604258 0
M  V30 7854 C 765.088 -1.57025 -1.74299 0
M  V30 7855 C 766.104 -0.45456 -1.67958 0
M  V30 7856 O 767.28 -0.715711 -1.88254 0
M  V30 7857 C 764.345 -1.53702 -3.10768 0
M  V30 7858 C 763.406 -2.76335 -3.28538 0
M  V30 7859 C 762.639 -2.73161 -4.58496 0
M  V30 7860 O 762.862 -1.80678 -5.41028 0
M  V30 7861 O 761.796 -3.64409 -4.79051 0
M  V30 7862 H 765.622 -2.53284 -1.67573 0
M  V30 7863 H 763.207 -1.28104 -0.768745 0
M  V30 7864 H 765.089 -1.54468 -3.92068 0
M  V30 7865 H 763.764 -0.605957 -3.17978 0
M  V30 7866 H 762.671 -2.8113 -2.46813 0
M  V30 7867 H 764.004 -3.68578 -3.26207 0
M  V30 7868 N 765.656 0.84705 -1.32902 0
M  V30 7869 C 766.619 1.9378 -1.224 0
M  V30 7870 C 767.619 1.60144 -0.145108 0
M  V30 7871 O 768.809 1.69638 -0.396058 0
M  V30 7872 C 765.941 3.29234 -0.884174 0
M  V30 7873 H 767.134 2.04518 -2.19345 0
M  V30 7874 H 764.687 1.03816 -1.16842 0
M  V30 7875 H 765.422 3.24193 0.0831277 0
M  V30 7876 H 765.207 3.55026 -1.6643 0
M  V30 7877 H 766.697 4.09162 -0.835226 0
M  V30 7878 N 767.134 1.16236 1.06428 0
M  V30 7879 C 768.382 0.941171 1.78847 0
M  V30 7880 C 768.703 -0.53248 1.87589 0
M  V30 7881 O 767.973 -1.38686 1.38358 0
M  V30 7882 H 766.553 0.345228 0.66244 0
M  V30 7883 H 769.215 1.46479 1.28569 0
M  V30 7884 H 768.311 1.35871 2.80972 0
M  V30 7885 N 768.612 -1.24939 0.960631 0
M  V30 7886 C 769.842 -1.96595 0.635123 0
M  V30 7887 C 770.25 -1.71538 -0.798206 0
M  V30 7888 O 769.593 -0.991727 -1.5463 0
M  V30 7889 C 769.655 -3.49994 0.821248 0
M  V30 7890 C 769.319 -3.98738 2.23287 0
M  V30 7891 C 770.316 -4.08965 3.21004 0
M  V30 7892 C 768.001 -4.32247 2.55867 0
M  V30 7893 C 769.995 -4.52025 4.49391 0
M  V30 7894 C 767.682 -4.74991 3.84482 0
M  V30 7895 C 768.68 -4.84844 4.81056 0
M  V30 7896 O 768.368 -5.26638 6.07378 0
M  V30 7897 H 768.1 -0.633265 0.23654 0
M  V30 7898 H 770.654 -1.5991 1.28911 0
M  V30 7899 H 768.884 -3.86543 0.110105 0
M  V30 7900 H 770.573 -4.02859 0.495892 0
M  V30 7901 H 771.339 -3.83302 2.97161 0
M  V30 7902 H 767.218 -4.23801 1.81421 0
M  V30 7903 H 770.762 -4.5963 5.24773 0
M  V30 7904 H 766.659 -5.00101 4.08129 0
M  V30 7905 H 767.427 -5.44807 6.10842 0
M  V30 7906 N 770.09 -0.729906 -1.39679 0
M  V30 7907 C 771 -0.0880322 -2.34435 0
M  V30 7908 C 772.016 0.727674 -1.58053 0
M  V30 7909 O 773.192 0.657321 -1.90371 0
M  V30 7910 C 770.257 0.812211 -3.37052 0
M  V30 7911 C 769.318 -0.0151681 -4.29297 0
M  V30 7912 C 768.551 0.842202 -5.27013 0
M  V30 7913 O 768.774 2.08108 -5.31081 0
M  V30 7914 O 767.708 0.27357 -6.01278 0
M  V30 7915 H 771.534 -0.869989 -2.90972 0
M  V30 7916 H 769.119 -0.490522 -1.41118 0
M  V30 7917 H 771.001 1.32745 -3.99946 0
M  V30 7918 H 769.676 1.57307 -2.82907 0
M  V30 7919 H 768.583 -0.575811 -3.69642 0
M  V30 7920 H 769.916 -0.738129 -4.86634 0
M  V30 7921 N 771.568 1.50203 -0.477153 0
M  V30 7922 C 772.5 2.26508 0.350239 0
M  V30 7923 C 773.513 1.32081 0.95176 0
M  V30 7924 O 774.702 1.57546 0.839139 0
M  V30 7925 C 771.802 3.0361 1.50579 0
M  V30 7926 C 770.975 4.25438 1.01595 0
M  V30 7927 C 770.034 4.84783 2.04626 0
M  V30 7928 O 769.06 5.45528 1.62442 0
M  V30 7929 N 770.262 4.72318 3.37485 0
M  V30 7930 H 773.027 2.98155 -0.30394 0
M  V30 7931 H 770.588 1.58938 -0.308289 0
M  V30 7932 H 772.58 3.4019 2.1921 0
M  V30 7933 H 771.15 2.34724 2.06455 0
M  V30 7934 H 770.37 3.93894 0.155316 0
M  V30 7935 H 771.658 5.04413 0.666694 0
M  V30 7936 H 771.056 4.24022 3.74462 0
M  V30 7937 H 769.613 5.13149 4.01897 0
M  V30 7938 N 773.046 0.209999 1.56195 0
M  V30 7939 C 774.286 -0.4268 1.99894 0
M  V30 7940 C 774.65 -1.57763 1.0943 0
M  V30 7941 O 775.851 -2.27964 1.42428 0
M  V30 7942 C 774.122 -0.861188 3.46869 0
M  V30 7943 S 775.681 -1.49372 4.12593 0
M  V30 7944 H 772.499 -0.135922 0.697887 0
M  V30 7945 H 775.101 0.316573 1.9292 0
M  V30 7946 H 773.805 -0.0137653 4.10398 0
M  V30 7947 H 773.336 -1.63766 3.57693 0
M  V30 7948 H 775.351 -2.7827 4.10829 0
M  V30 7949 N 774.524 -1.57472 -0.0634922 0
M  V30 7950 C 775.801 -1.78736 -0.794538 0
M  V30 7951 C 776.181 -0.799645 -1.95369 0
M  V30 7952 O 775.529 0.165521 -2.279 0
M  V30 7953 C 775.739 -3.25471 -1.25975 0
M  V30 7954 C 777.087 -3.89528 -1.68976 0
M  V30 7955 O 778.111 -3.29412 -1.35521 0
M  V30 7956 O 776.97 -4.95305 -2.30944 0
M  V30 7957 H 774.064 -0.733813 -0.381376 0
M  V30 7958 H 776.61 -1.69646 -0.0429258 0
M  V30 7959 H 775.382 -3.88922 -0.430721 0
M  V30 7960 H 775.005 -3.39317 -2.07243 0
M  V30 7961 N 776.003 0.335068 -1.53997 0
M  V30 7962 C 776.966 1.39481 -1.81872 0
M  V30 7963 C 777.966 1.4524 -0.690078 0
M  V30 7964 O 779.156 1.45467 -0.958377 0
M  V30 7965 C 776.288 2.78329 -1.9684 0
M  V30 7966 H 777.481 1.16024 -2.76547 0
M  V30 7967 H 775.034 0.569926 -1.45539 0
M  V30 7968 H 775.769 3.07058 -1.04337 0
M  V30 7969 H 775.554 2.75544 -2.78958 0
M  V30 7970 H 777.044 3.55016 -2.19894 0
M  V30 7971 N 777.481 1.45874 0.596531 0
M  V30 7972 C 778.729 1.5017 1.35253 0
M  V30 7973 C 779.05 0.149246 1.94428 0
M  V30 7974 O 778.32 -0.82268 1.77789 0
M  V30 7975 H 776.9 0.553052 0.502138 0
M  V30 7976 H 779.562 1.81908 0.699671 0
M  V30 7977 H 778.658 2.24671 2.16632 0
M  V30 7978 N 778.959 -0.83999 1.33349 0
M  V30 7979 C 780.205 -1.59724 1.25936 0
M  V30 7980 C 780.56 -1.91616 -0.173563 0
M  V30 7981 O 779.853 -1.55791 -1.11534 0
M  V30 7982 C 780.047 -2.91571 2.06691 0
M  V30 7983 C 779.876 -2.72556 3.57691 0
M  V30 7984 C 778.646 -2.70174 4.27006 0
M  V30 7985 C 780.844 -2.45272 4.52047 0
M  V30 7986 N 778.826 -2.42525 5.63964 0
M  V30 7987 C 780.197 -2.27163 5.76885 0
M  V30 7988 C 782.252 -2.30859 4.41144 0
M  V30 7989 C 780.955 -1.96105 6.92052 0
M  V30 7990 C 782.981 -2.01194 5.56125 0
M  V30 7991 C 782.343 -1.83897 6.79972 0
M  V30 7992 H 778.442 -0.587568 0.516031 0
M  V30 7993 H 781.026 -0.986169 1.67877 0
M  V30 7994 H 779.197 -3.5063 1.67073 0
M  V30 7995 H 780.929 -3.56762 1.91057 0
M  V30 7996 H 777.684 -2.8364 3.7927 0
M  V30 7997 H 778.108 -2.31588 6.36157 0
M  V30 7998 H 782.75 -2.42946 3.46031 0
M  V30 7999 H 780.468 -1.82756 7.87163 0
M  V30 8000 H 784.054 -1.90799 5.49624 0
M  V30 8001 H 782.934 -1.61271 7.67438 0
M  V30 8002 N 780.437 -1.16799 -1.0581 0
M  V30 8003 C 781.367 -0.902241 -2.15364 0
M  V30 8004 C 782.348 0.153351 -1.69407 0
M  V30 8005 O 783.533 0.00442032 -1.94199 0
M  V30 8006 C 780.663 -0.407911 -3.44896 0
M  V30 8007 C 779.617 -1.40197 -4.04387 0
M  V30 8008 C 778.943 -0.765848 -5.29187 0
M  V30 8009 C 780.243 -2.77316 -4.42598 0
M  V30 8010 H 781.937 -1.81841 -2.37853 0
M  V30 8011 H 779.483 -0.875731 -1.14311 0
M  V30 8012 H 781.436 -0.20945 -4.20879 0
M  V30 8013 H 780.16 0.54378 -3.22041 0
M  V30 8014 H 778.819 -1.58707 -3.30466 0
M  V30 8015 H 778.467 0.192482 -5.02632 0
M  V30 8016 H 778.167 -1.42939 -5.69949 0
M  V30 8017 H 779.691 -0.577519 -6.07863 0
M  V30 8018 H 781.105 -2.62561 -5.09642 0
M  V30 8019 H 779.502 -3.4019 -4.94359 0
M  V30 8020 H 780.572 -3.32199 -3.53231 0
M  V30 8021 N 781.915 1.24427 -0.967243 0
M  V30 8022 C 783.331 1.44684 -0.6737 0
M  V30 8023 C 783.531 1.86429 0.764625 0
M  V30 8024 O 782.587 2.00211 1.53857 0
M  V30 8025 C 783.9 2.509 -1.6574 0
M  V30 8026 C 785.448 2.64728 -1.66998 0
M  V30 8027 C 785.923 3.7414 -2.64165 0
M  V30 8028 N 787.414 3.81567 -2.62604 0
M  V30 8029 C 788.149 4.6575 -3.34462 0
M  V30 8030 N 787.645 5.54124 -4.15835 0
M  V30 8031 N 789.438 4.59827 -3.23288 0
M  V30 8032 H 781.589 0.956276 -1.89655 0
M  V30 8033 H 783.852 0.48171 -0.816492 0
M  V30 8034 H 783.558 2.27113 -2.68538 0
M  V30 8035 H 783.432 3.4905 -1.42981 0
M  V30 8036 H 785.819 2.87872 -0.649121 0
M  V30 8037 H 785.9 1.66936 -1.93819 0
M  V30 8038 H 785.544 3.51745 -3.66384 0
M  V30 8039 H 785.474 4.71444 -2.34623 0
M  V30 8040 H 787.965 3.18403 -2.03539 0
M  V30 8041 H 788.278 6.15316 -4.67553 0
M  V30 8042 H 786.623 5.53791 -4.19929 0
M  V30 8043 H 789.814 3.898 -2.59179 0
M  V30 8044 H 789.987 5.25208 -3.79553 0
M  V30 8045 N 783.393 0.737304 1.3929 0
M  V30 8046 C 784.67 0.212464 1.94443 0
M  V30 8047 C 785.05 -1.28621 1.67391 0
M  V30 8048 O 784.398 -2.0529 1.00342 0
M  V30 8049 C 784.608 0.548565 3.44662 0
M  V30 8050 C 785.956 0.499177 4.21656 0
M  V30 8051 O 786.98 0.485892 3.5287 0
M  V30 8052 O 785.839 0.495739 5.44247 0
M  V30 8053 H 782.933 0.0395457 0.826054 0
M  V30 8054 H 785.479 0.816319 1.48776 0
M  V30 8055 H 784.251 1.58426 3.57795 0
M  V30 8056 H 783.874 -0.0841399 3.97511 0
M  V30 8057 N 784.871 -1.49948 0.485112 0
M  V30 8058 C 785.803 -2.26691 -0.338222 0
M  V30 8059 C 786.816 -1.32584 -0.944742 0
M  V30 8060 O 788.005 -1.57989 -0.830772 0
M  V30 8061 C 785.105 -3.04405 -1.48966 0
M  V30 8062 C 784.278 -4.25971 -0.993371 0
M  V30 8063 C 783.337 -4.85861 -2.02052 0
M  V30 8064 O 782.363 -5.46382 -1.59547 0
M  V30 8065 N 783.565 -4.74101 -3.34975 0
M  V30 8066 H 786.33 -2.97989 0.319748 0
M  V30 8067 H 783.891 -1.58772 0.316714 0
M  V30 8068 H 785.883 -3.41348 -2.17403 0
M  V30 8069 H 784.453 -2.35815 -2.05207 0
M  V30 8070 H 783.673 -3.93971 -0.134424 0
M  V30 8071 H 784.961 -5.0476 -0.639934 0
M  V30 8072 H 784.359 -4.26002 -3.72208 0
M  V30 8073 H 782.916 -5.15274 -3.9917 0
M  V30 8074 N 786.349 -0.21828 -1.56081 0
M  V30 8075 C 787.577 0.419258 -2.02608 0
M  V30 8076 C 787.992 1.53578 -1.09814 0
M  V30 8077 O 787.349 1.82185 -0.107149 0
M  V30 8078 C 787.4 0.953955 -3.48686 0
M  V30 8079 O 787.121 -0.11805 -4.37941 0
M  V30 8080 C 788.622 1.66506 -4.10841 0
M  V30 8081 H 785.842 0.10296 -0.663054 0
M  V30 8082 H 788.386 -0.333776 -2.01758 0
M  V30 8083 H 786.541 1.65727 -3.50162 0
M  V30 8084 H 786.955 0.283359 -5.23734 0
M  V30 8085 H 788.429 1.99123 -5.14834 0
M  V30 8086 H 788.906 2.57705 -3.55647 0
M  V30 8087 H 789.512 1.00703 -4.13206 0
M  V30 8088 N 787.827 1.57504 0.0551401 0
M  V30 8089 C 789.073 1.88334 0.752216 0
M  V30 8090 C 789.406 0.812742 1.76375 0
M  V30 8091 O 788.681 -0.175198 1.93709 0
M  V30 8092 C 788.964 3.29824 1.44528 0
M  V30 8093 C 788.817 4.47553 0.449026 0
M  V30 8094 C 790.136 3.69808 2.38601 0
M  V30 8095 H 787.255 0.684973 0.271995 0
M  V30 8096 H 789.897 1.89994 0.0151895 0
M  V30 8097 H 788.047 3.28539 2.07351 0
M  V30 8098 H 789.719 4.60967 -0.175277 0
M  V30 8099 H 787.962 4.33168 -0.234162 0
M  V30 8100 H 788.633 5.43376 0.971917 0
M  V30 8101 H 791.109 3.72293 1.85842 0
M  V30 8102 H 789.985 4.69665 2.84088 0
M  V30 8103 H 790.246 3.00641 3.24141 0
M  V30 8104 N 789.305 -0.326896 1.54172 0
M  V30 8105 C 790.721 -0.671034 1.44808 0
M  V30 8106 C 790.921 -1.91781 0.618258 0
M  V30 8107 O 789.977 -2.52235 0.115751 0
M  V30 8108 C 791.29 -0.848147 2.88491 0
M  V30 8109 C 792.838 -0.945702 2.98371 0
M  V30 8110 C 793.313 -1.15501 4.43197 0
M  V30 8111 N 794.804 -1.22183 4.46795 0
M  V30 8112 C 795.539 -1.4016 5.56006 0
M  V30 8113 N 795.035 -1.55202 6.75192 0
M  V30 8114 N 796.828 -1.42841 5.43648 0
M  V30 8115 H 788.979 0.49262 2.06608 0
M  V30 8116 H 791.242 0.158574 0.934643 0
M  V30 8117 H 790.948 -0.00329969 3.517 0
M  V30 8118 H 790.822 -1.74497 3.34411 0
M  V30 8119 H 793.209 -1.78106 2.35292 0
M  V30 8120 H 793.29 -0.0254215 2.55787 0
M  V30 8121 H 792.934 -0.324521 5.06862 0
M  V30 8122 H 792.864 -2.08911 4.83388 0
M  V30 8123 H 795.355 -1.12016 3.60917 0
M  V30 8124 H 795.668 -1.68601 7.54184 0
M  V30 8125 H 794.013 -1.52306 6.78106 0
M  V30 8126 H 797.204 -1.30683 4.49488 0
M  V30 8127 H 797.377 -1.56509 6.28816 0
M  V30 8128 N 790.784 -1.46188 -0.588786 0
M  V30 8129 C 792.014 -1.54519 -1.3714 0
M  V30 8130 C 792.422 -0.183075 -1.88312 0
M  V30 8131 O 791.765 0.828815 -1.6394 0
M  V30 8132 C 791.827 -2.48426 -2.59856 0
M  V30 8133 C 791.491 -3.94791 -2.30193 0
M  V30 8134 C 792.488 -4.84173 -1.894 0
M  V30 8135 C 790.173 -4.39872 -2.42525 0
M  V30 8136 C 792.167 -6.16647 -1.61325 0
M  V30 8137 C 789.854 -5.72381 -2.14063 0
M  V30 8138 C 790.852 -6.60589 -1.73527 0
M  V30 8139 O 790.54 -7.9064 -1.4541 0
M  V30 8140 H 790.272 -0.525264 -0.425527 0
M  V30 8141 H 792.826 -1.92242 -0.723344 0
M  V30 8142 H 791.056 -2.05709 -3.27446 0
M  V30 8143 H 792.745 -2.4723 -3.21919 0
M  V30 8144 H 793.511 -4.50603 -1.79393 0
M  V30 8145 H 789.39 -3.71444 -2.7304 0
M  V30 8146 H 792.934 -6.85454 -1.29611 0
M  V30 8147 H 788.831 -6.05501 -2.23693 0
M  V30 8148 H 789.599 -8.02847 -1.59306 0
M  V30 8149 N 792.262 0.832906 -1.33792 0
M  V30 8150 C 793.673 1.40489 -1.22963 0
M  V30 8151 C 794.024 1.95633 0.149026 0
M  V30 8152 O 793.149 1.8928 1.04891 0
M  V30 8153 C 793.744 2.55387 -2.22627 0
M  V30 8154 C 792.303 3.08522 -2.15618 0
M  V30 8155 C 791.45 1.81347 -2.09782 0
M  V30 8156 H 794.401 0.638156 -1.45304 0
M  V30 8157 H 794.422 3.33193 -1.83746 0
M  V30 8158 H 793.934 2.15222 -3.22957 0
M  V30 8159 H 792.035 3.53217 -1.18611 0
M  V30 8160 H 792.148 3.6829 -3.0643 0
M  V30 8161 H 790.512 2.01839 -1.55349 0
M  V30 8162 H 791.295 1.43369 -3.1193 0
M  V30 8163 N 793.74 1.17359 1.05189 0
M  V30 8164 C 794.989 0.956412 1.77583 0
M  V30 8165 C 795.302 -0.516018 1.88671 0
M  V30 8166 O 796.508 -0.851401 2.57805 0
M  V30 8167 C 794.964 1.66203 3.19225 0
M  V30 8168 C 794.572 3.17299 3.16267 0
M  V30 8169 C 796.316 1.52725 3.96075 0
M  V30 8170 C 794.223 3.8055 4.52698 0
M  V30 8171 H 793.153 0.354204 0.665624 0
M  V30 8172 H 795.804 1.40612 1.17901 0
M  V30 8173 H 794.186 1.14006 3.79234 0
M  V30 8174 H 795.36 3.76431 2.65776 0
M  V30 8175 H 793.675 3.3079 2.52917 0
M  V30 8176 H 796.272 1.97351 4.96947 0
M  V30 8177 H 796.615 0.477803 4.13549 0
M  V30 8178 H 797.148 2.02139 3.42614 0
M  V30 8179 H 793.887 4.85492 4.4043 0
M  V30 8180 H 793.407 3.26206 5.03339 0
M  V30 8181 H 795.086 3.82757 5.21638 0
M  V30 8182 N 795.218 -1.23913 0.973828 0
M  V30 8183 C 796.464 -1.92436 0.640026 0
M  V30 8184 C 796.797 -1.75875 -0.823512 0
M  V30 8185 O 796.072 -1.11563 -1.59323 0
M  V30 8186 C 796.355 -3.4526 1.0231 0
M  V30 8187 C 796.208 -3.70961 2.54378 0
M  V30 8188 C 797.527 -4.36495 0.562155 0
M  V30 8189 H 794.646 -0.698868 0.233992 0
M  V30 8190 H 797.288 -1.46163 1.21393 0
M  V30 8191 H 795.438 -3.84802 0.534751 0
M  V30 8192 H 797.11 -3.40941 3.10737 0
M  V30 8193 H 795.353 -3.15899 2.97305 0
M  V30 8194 H 796.024 -4.77912 2.76232 0
M  V30 8195 H 798.5 -4.04363 0.981333 0
M  V30 8196 H 797.376 -5.42142 0.858689 0
M  V30 8197 H 797.637 -4.38818 -0.537659 0
M  V30 8198 N 796.696 -0.74468 -1.38897 0
M  V30 8199 C 797.921 -0.306119 -2.05128 0
M  V30 8200 C 798.346 1.0541 -1.55789 0
M  V30 8201 O 797.704 1.66993 -0.705909 0
M  V30 8202 C 797.752 -0.328195 -3.59103 0
M  V30 8203 O 796.856 0.680876 -4.06741 0
M  V30 8204 H 796.197 -0.137209 -0.649669 0
M  V30 8205 H 798.727 -1.01331 -1.77745 0
M  V30 8206 H 798.737 -0.175956 -4.0762 0
M  V30 8207 H 797.412 -1.32067 -3.94374 0
M  V30 8208 H 795.989 0.49398 -3.69614 0
M  V30 8209 N 798.174 1.49689 -0.493057 0
M  V30 8210 C 799.585 1.8665 -0.0433032 0
M  V30 8211 C 799.936 1.40607 1.36836 0
M  V30 8212 O 799.061 0.780503 2.01834 0
M  V30 8213 C 799.656 3.38724 -0.0718069 0
M  V30 8214 C 798.215 3.75015 0.32257 0
M  V30 8215 C 797.362 2.7366 -0.4478 0
M  V30 8216 H 800.313 1.42119 -0.706246 0
M  V30 8217 H 800.334 3.73522 0.725347 0
M  V30 8218 H 799.846 3.72204 -1.09935 0
M  V30 8219 H 797.947 3.47142 1.35364 0
M  V30 8220 H 798.06 4.79099 0.00864259 0
M  V30 8221 H 796.424 2.54498 0.101354 0
M  V30 8222 H 797.207 3.09985 -1.47527 0
M  V30 8223 N 799.652 0.226554 1.55963 0
M  V30 8224 C 801.068 -0.128733 1.5908 0
M  V30 8225 C 801.268 -1.58558 1.24345 0
M  V30 8226 O 800.324 -2.32661 0.981069 0
M  V30 8227 C 801.637 0.202076 3.0002 0
M  V30 8228 C 803.185 0.144718 3.12665 0
M  V30 8229 C 803.66 0.449272 4.55791 0
M  V30 8230 N 805.151 0.399026 4.61478 0
M  V30 8231 C 805.886 0.608106 5.70166 0
M  V30 8232 N 805.382 0.879227 6.87198 0
M  V30 8233 N 807.175 0.5402 5.59498 0
M  V30 8234 H 799.326 1.17686 1.76816 0
M  V30 8235 H 801.589 0.472072 0.822102 0
M  V30 8236 H 801.295 1.21341 3.30105 0
M  V30 8237 H 801.169 -0.480554 3.74126 0
M  V30 8238 H 803.556 -0.857261 2.82374 0
M  V30 8239 H 803.637 0.860899 2.40878 0
M  V30 8240 H 803.281 1.44871 4.86801 0
M  V30 8241 H 803.211 -0.288157 5.25811 0
M  V30 8242 H 805.702 0.197372 3.77384 0
M  V30 8243 H 806.015 1.02673 7.65949 0
M  V30 8244 H 804.36 0.916477 6.88931 0
M  V30 8245 H 807.551 0.328581 4.66945 0
M  V30 8246 H 807.724 0.706548 6.44137 0
M  V30 8247 N 801.13 -1.57531 -0.0467866 0
M  V30 8248 C 802.358 -1.92696 -0.753371 0
M  V30 8249 C 802.773 -0.824792 -1.69831 0
M  V30 8250 O 802.13 0.200155 -1.81399 0
M  V30 8251 C 802.181 -3.27728 -1.52566 0
M  V30 8252 O 801.902 -4.3371 -0.618674 0
M  V30 8253 C 803.403 -3.77066 -2.33101 0
M  V30 8254 H 800.623 -0.636367 -0.212788 0
M  V30 8255 H 803.167 -2.04498 -0.00959361 0
M  V30 8256 H 801.322 -3.17378 -2.22148 0
M  V30 8257 H 801.736 -5.11548 -1.15839 0
M  V30 8258 H 803.21 -4.74109 -2.82709 0
M  V30 8259 H 803.687 -3.07348 -3.13741 0
M  V30 8260 H 804.293 -3.90442 -1.68628 0
M  V30 8261 N 802.608 0.318715 -1.54344 0
M  V30 8262 C 804.019 0.89285 -1.63967 0
M  V30 8263 C 804.37 1.88712 -0.536855 0
M  V30 8264 O 803.495 2.13877 0.329457 0
M  V30 8265 C 804.09 1.62618 -2.97222 0
M  V30 8266 C 802.649 2.14897 -3.09025 0
M  V30 8267 C 801.796 0.975909 -2.5956 0
M  V30 8268 H 804.747 0.0961687 -1.58408 0
M  V30 8269 H 804.768 2.4907 -2.87653 0
M  V30 8270 H 804.28 0.902286 -3.77466 0
M  V30 8271 H 802.381 2.90387 -2.33465 0
M  V30 8272 H 802.494 2.39565 -4.14904 0
M  V30 8273 H 800.858 1.35646 -2.15574 0
M  V30 8274 H 801.641 0.266253 -3.42266 0
M  V30 8275 N 804.086 1.46499 0.581025 0
M  V30 8276 C 805.326 1.53456 1.35021 0
M  V30 8277 C 805.69 0.182542 1.9113 0
M  V30 8278 O 806.891 0.126874 2.685 0
M  V30 8279 C 805.162 2.60387 2.44812 0
M  V30 8280 S 806.721 2.86762 3.32134 0
M  V30 8281 H 803.539 0.54216 0.459982 0
M  V30 8282 H 806.141 1.83742 0.667754 0
M  V30 8283 H 804.845 3.57253 2.01986 0
M  V30 8284 H 804.376 2.31839 3.17828 0
M  V30 8285 H 806.391 2.2216 4.43688 0
M  V30 8286 N 805.565 -0.825799 1.34232 0
M  V30 8287 C 806.811 -1.58419 1.26614 0
M  V30 8288 C 807.144 -1.93503 -0.164341 0
M  V30 8289 O 806.419 -1.59785 -1.109 0
M  V30 8290 C 806.702 -2.8856 2.15418 0
M  V30 8291 C 806.555 -2.60075 3.66989 0
M  V30 8292 C 807.874 -3.90107 2.03726 0
M  V30 8293 H 804.993 -0.574794 0.461282 0
M  V30 8294 H 807.635 -0.951519 1.64457 0
M  V30 8295 H 805.785 -3.42553 1.83275 0
M  V30 8296 H 807.457 -2.12414 4.09485 0
M  V30 8297 H 805.7 -1.93565 3.88221 0
M  V30 8298 H 806.371 -3.52866 4.24488 0
M  V30 8299 H 808.847 -3.45459 2.31942 0
M  V30 8300 H 807.723 -4.78976 2.68092 0
M  V30 8301 H 807.984 -4.30329 1.01337 0
M  V30 8302 N 807.043 -1.17915 -1.04565 0
M  V30 8303 C 808.291 -0.969505 -1.77327 0
M  V30 8304 C 808.612 0.502569 -1.88412 0
M  V30 8305 O 807.882 1.36467 -1.40547 0
M  V30 8306 H 806.462 -0.355723 -0.656864 0
M  V30 8307 H 809.124 -1.48506 -1.26223 0
M  V30 8308 H 808.22 -1.40324 -2.78775 0
M  V30 8309 N 808.521 1.23394 -0.980386 0
M  V30 8310 C 809.798 1.87242 -0.565667 0
M  V30 8311 C 810.178 1.88151 0.957197 0
M  V30 8312 O 809.526 1.36309 1.8339 0
M  V30 8313 C 809.736 3.28743 -1.17172 0
M  V30 8314 C 811.084 4.05335 -1.26446 0
M  V30 8315 O 812.108 3.37962 -1.12517 0
M  V30 8316 O 810.967 5.25908 -1.48604 0
M  V30 8317 H 808.061 0.80477 -0.190459 0
M  V30 8318 H 810.607 1.3127 -1.07547 0
M  V30 8319 H 809.379 3.22647 -2.21392 0
M  V30 8320 H 809.002 3.92305 -0.646739 0
M  V30 8321 N 809.999 0.752036 1.385 0
M  V30 8322 C 810.946 0.123288 2.3047 0
M  V30 8323 C 811.916 -0.711326 1.50098 0
M  V30 8324 O 813.101 -0.667775 1.78733 0
M  V30 8325 C 810.241 -0.765085 3.36512 0
M  V30 8326 C 809.354 0.0839885 4.31918 0
M  V30 8327 C 808.489 -0.807243 5.25031 0
M  V30 8328 C 807.528 0.0455583 6.12083 0
M  V30 8329 N 806.665 -0.802547 6.97498 0
M  V30 8330 H 811.505 0.913169 2.83664 0
M  V30 8331 H 809.042 0.46195 1.39658 0
M  V30 8332 H 811 -1.29476 3.966 0
M  V30 8333 H 809.63 -1.52077 2.84732 0
M  V30 8334 H 808.682 0.731276 3.73305 0
M  V30 8335 H 809.994 0.74265 4.9324 0
M  V30 8336 H 809.148 -1.40414 5.90228 0
M  V30 8337 H 807.887 -1.49964 4.64071 0
M  V30 8338 H 806.892 0.655137 5.45883 0
M  V30 8339 H 808.117 0.734994 6.75111 0
M  V30 8340 H 806.063 -1.47992 6.39089 0
M  V30 8341 H 805.98 -0.200747 7.55733 0
M  V30 8342 H 807.248 -1.38447 7.67107 0
M  V30 8343 N 811.477 -1.49425 0.500989 0
M  V30 8344 C 812.754 -1.9531 -0.106551 0
M  V30 8345 C 813.134 -1.44248 -1.54129 0
M  V30 8346 O 812.482 -0.656237 -2.18874 0
M  V30 8347 C 812.692 -3.48995 -0.0191972 0
M  V30 8348 C 814.04 -4.24161 -0.193129 0
M  V30 8349 O 815.064 -3.56075 -0.0943843 0
M  V30 8350 O 813.923 -5.45064 -0.395869 0
M  V30 8351 H 811.017 -0.82149 -0.0953068 0
M  V30 8352 H 813.563 -1.6007 0.563526 0
M  V30 8353 H 812.335 -3.78794 0.981353 0
M  V30 8354 H 811.958 -3.90852 -0.72942 0
M  V30 8355 N 812.955 -0.234822 -1.55841 0
M  V30 8356 C 814.18 0.400741 -2.03492 0
M  V30 8357 C 814.605 1.51618 -1.11327 0
M  V30 8358 O 813.963 1.81002 -0.103922 0
M  V30 8359 C 814.011 0.897184 -3.49261 0
M  V30 8360 O 813.115 2.00764 -3.60233 0
M  V30 8361 H 812.456 0.0890023 -0.658008 0
M  V30 8362 H 814.986 -0.357345 -2.01455 0
M  V30 8363 H 814.996 1.20356 -3.89844 0
M  V30 8364 H 813.671 0.0808639 -4.15821 0
M  V30 8365 H 812.248 1.70689 -3.31541 0
M  V30 8366 N 814.433 1.57553 0.0384317 0
M  V30 8367 C 815.658 1.93485 0.746872 0
M  V30 8368 C 816.083 0.834069 1.68597 0
M  V30 8369 O 815.441 -0.210902 1.80069 0
M  V30 8370 C 815.489 3.28463 1.4881 0
M  V30 8371 O 814.593 3.20051 2.60079 0
M  V30 8372 H 813.934 0.632675 0.201539 0
M  V30 8373 H 816.464 2.046 -0.00329815 0
M  V30 8374 H 816.474 3.63132 1.86009 0
M  V30 8375 H 815.149 4.08147 0.799297 0
M  V30 8376 H 813.726 2.96998 2.25492 0
M  V30 8377 N 815.911 -0.310526 1.54511 0
M  V30 8378 C 817.322 -0.884142 1.64438 0
M  V30 8379 C 817.673 -1.88425 0.546855 0
M  V30 8380 O 816.798 -2.14049 -0.31811 0
M  V30 8381 C 817.393 -1.6104 2.9808 0
M  V30 8382 C 815.952 -2.13255 3.1016 0
M  V30 8383 C 815.099 -0.96213 2.60074 0
M  V30 8384 H 818.05 -0.0877666 1.58457 0
M  V30 8385 H 818.071 -2.47541 2.8897 0
M  V30 8386 H 817.583 -0.882255 3.77939 0
M  V30 8387 H 815.684 -2.89145 2.35002 0
M  V30 8388 H 815.797 -2.37361 4.16169 0
M  V30 8389 H 814.161 -1.34501 2.16291 0
M  V30 8390 H 814.944 -0.248098 3.42402 0
M  V30 8391 N 817.389 -1.46805 -0.573248 0
M  V30 8392 C 818.637 -1.52302 -1.32847 0
M  V30 8393 C 818.958 -0.180159 -1.94166 0
M  V30 8394 O 818.228 0.794291 -1.79075 0
M  V30 8395 H 816.808 -0.56097 -0.493276 0
M  V30 8396 H 819.47 -1.82998 -0.670642 0
M  V30 8397 H 818.566 -2.28089 -2.13031 0
M  V30 8398 N 818.867 0.818669 -1.34668 0
M  V30 8399 C 820.113 1.57746 -1.27453 0
M  V30 8400 C 820.446 1.93588 0.154077 0
M  V30 8401 O 819.721 1.60371 1.10051 0
M  V30 8402 C 820.004 2.87414 -2.16945 0
M  V30 8403 C 819.857 2.58125 -3.68363 0
M  V30 8404 C 821.176 3.89021 -2.05792 0
M  V30 8405 H 818.295 0.572339 -0.464324 0
M  V30 8406 H 820.937 0.942784 -1.64959 0
M  V30 8407 H 819.087 3.41576 -1.85089 0
M  V30 8408 H 820.759 2.10239 -4.10606 0
M  V30 8409 H 819.002 1.91503 -3.89242 0
M  V30 8410 H 819.673 3.5061 -4.26353 0
M  V30 8411 H 822.149 3.44224 -2.33771 0
M  V30 8412 H 821.025 4.77548 -2.70628 0
M  V30 8413 H 821.286 4.29786 -1.03618 0
M  V30 8414 N 820.346 1.18468 1.03938 0
M  V30 8415 C 821.762 0.934635 1.29371 0
M  V30 8416 C 821.962 -0.399067 1.97509 0
M  V30 8417 O 821.018 -1.13309 2.25648 0
M  V30 8418 C 822.331 2.10111 2.15114 0
M  V30 8419 C 823.879 2.13955 2.28456 0
M  V30 8420 C 824.354 3.30024 3.17566 0
M  V30 8421 N 825.845 3.29893 3.25153 0
M  V30 8422 C 826.58 4.16346 3.94263 0
M  V30 8423 N 826.076 5.12934 4.65693 0
M  V30 8424 N 827.869 4.04256 3.90556 0
M  V30 8425 H 820.02 2.04294 0.581185 0
M  V30 8426 H 822.283 0.892727 0.318971 0
M  V30 8427 H 821.989 3.06572 1.72355 0
M  V30 8428 H 821.863 2.06283 3.15796 0
M  V30 8429 H 824.25 1.18072 2.7045 0
M  V30 8430 H 824.331 2.2184 1.2736 0
M  V30 8431 H 823.975 4.26181 2.76283 0
M  V30 8432 H 823.905 3.19376 4.18697 0
M  V30 8433 H 826.396 2.59969 2.74271 0
M  V30 8434 H 826.709 5.75271 5.16026 0
M  V30 8435 H 825.054 5.16893 4.64593 0
M  V30 8436 H 828.245 3.28083 3.33885 0
M  V30 8437 H 828.418 4.71848 4.44144 0
M  V30 8438 N 821.824 -1.22873 0.986916 0
M  V30 8439 C 823.052 -1.95487 0.677663 0
M  V30 8440 C 823.467 -1.72978 -0.756572 0
M  V30 8441 O 822.824 -1.02517 -1.50985 0
M  V30 8442 C 822.875 -3.48337 0.966638 0
M  V30 8443 O 822.596 -3.70087 2.34451 0
M  V30 8444 C 824.097 -4.38142 0.674248 0
M  V30 8445 H 821.317 -0.622211 0.251185 0
M  V30 8446 H 823.861 -1.56187 1.32007 0
M  V30 8447 H 822.016 -3.85628 0.370137 0
M  V30 8448 H 822.43 -4.64332 2.43918 0
M  V30 8449 H 823.904 -5.44165 0.926759 0
M  V30 8450 H 824.381 -4.3745 -0.391728 0
M  V30 8451 H 824.987 -4.06469 1.25152 0
M  V30 8452 N 823.302 -0.75937 -1.38099 0
M  V30 8453 C 824.532 -0.328634 -2.0397 0
M  V30 8454 C 824.94 1.04989 -1.57398 0
M  V30 8455 O 824.283 1.67918 -0.744932 0
M  V30 8456 C 824.345 -0.279216 -3.58414 0
M  V30 8457 C 824.009 -1.60025 -4.28067 0
M  V30 8458 C 825.006 -2.55048 -4.53041 0
M  V30 8459 C 822.691 -1.87128 -4.66142 0
M  V30 8460 C 824.685 -3.7539 -5.15132 0
M  V30 8461 C 822.372 -3.07742 -5.27956 0
M  V30 8462 C 823.37 -4.01694 -5.52387 0
M  V30 8463 O 823.058 -5.20186 -6.12912 0
M  V30 8464 H 822.79 -0.137443 -0.66188 0
M  V30 8465 H 825.344 -1.03082 -1.77661 0
M  V30 8466 H 823.574 0.479254 -3.83719 0
M  V30 8467 H 825.263 0.122781 -4.05714 0
M  V30 8468 H 826.029 -2.35387 -4.24049 0
M  V30 8469 H 821.908 -1.14833 -4.46469 0
M  V30 8470 H 825.452 -4.48737 -5.34117 0
M  V30 8471 H 821.349 -3.27294 -5.56371 0
M  V30 8472 H 822.117 -5.20846 -6.31397 0
M  V30 8473 N 824.78 1.49157 -0.508906 0
M  V30 8474 C 826.028 2.02073 0.0327335 0
M  V30 8475 C 826.349 1.39012 1.3675 0
M  V30 8476 O 825.619 0.548153 1.88075 0
M  V30 8477 H 824.199 0.746848 0.0150864 0
M  V30 8478 H 826.861 1.83097 -0.667946 0
M  V30 8479 H 825.957 3.11707 0.1566 0
M  V30 8480 N 826.258 0.243083 1.55714 0
M  V30 8481 C 827.504 -0.383287 1.99145 0
M  V30 8482 C 827.837 -1.57868 1.13098 0
M  V30 8483 O 827.112 -1.93535 0.193509 0
M  V30 8484 C 827.395 -0.796879 3.51172 0
M  V30 8485 C 827.248 0.403642 4.47985 0
M  V30 8486 C 828.567 -1.64525 4.08191 0
M  V30 8487 H 825.686 -0.137843 0.723995 0
M  V30 8488 H 828.328 0.343631 1.86867 0
M  V30 8489 H 826.478 -1.41625 3.61766 0
M  V30 8490 H 828.15 1.04204 4.49376 0
M  V30 8491 H 826.393 1.04741 4.20965 0
M  V30 8492 H 827.064 0.0709794 5.51954 0
M  V30 8493 H 829.54 -1.12246 4.00674 0
M  V30 8494 H 828.416 -1.9035 5.14838 0
M  V30 8495 H 828.677 -2.61582 3.56409 0
M  V30 8496 N 827.736 -1.57571 -0.0300757 0
M  V30 8497 C 829.152 -1.54869 -0.385703 0
M  V30 8498 C 829.352 -0.969068 -1.76667 0
M  V30 8499 O 828.408 -0.589676 -2.45518 0
M  V30 8500 C 829.721 -2.99313 -0.288482 0
M  V30 8501 C 831.269 -3.10857 -0.365638 0
M  V30 8502 C 831.744 -4.5703 -0.297878 0
M  V30 8503 N 833.235 -4.61825 -0.356703 0
M  V30 8504 C 833.97 -5.72466 -0.327146 0
M  V30 8505 N 833.466 -6.92349 -0.249941 0
M  V30 8506 N 835.259 -5.60836 -0.376801 0
M  V30 8507 H 827.41 -1.936 0.87367 0
M  V30 8508 H 829.673 -0.887924 0.332106 0
M  V30 8509 H 829.379 -3.45443 0.66047 0
M  V30 8510 H 829.253 -3.61332 -1.08253 0
M  V30 8511 H 831.64 -2.64676 -1.30502 0
M  V30 8512 H 831.721 -2.51671 0.457744 0
M  V30 8513 H 831.365 -5.03879 0.637835 0
M  V30 8514 H 831.295 -5.14127 -1.13935 0
M  V30 8515 H 833.786 -3.75571 -0.418926 0
M  V30 8516 H 834.099 -7.7245 -0.23246 0
M  V30 8517 H 832.444 -6.94664 -0.216004 0
M  V30 8518 H 835.635 -4.66073 -0.435101 0
M  V30 8519 H 835.808 -6.47052 -0.350298 0
M  V30 8520 N 829.214 0.302327 -1.54673 0
M  V30 8521 C 830.625 0.875409 -1.64904 0
M  V30 8522 C 830.976 1.88132 -0.55684 0
M  V30 8523 O 830.101 2.14215 0.306754 0
M  V30 8524 C 830.696 1.59457 -2.9893 0
M  V30 8525 C 829.255 2.11607 -3.11287 0
M  V30 8526 C 828.402 0.948324 -2.6058 0
M  V30 8527 H 831.353 0.079362 -1.58501 0
M  V30 8528 H 831.374 2.46005 -2.90279 0
M  V30 8529 H 830.886 0.8622 -3.78402 0
M  V30 8530 H 828.987 2.87895 -2.36532 0
M  V30 8531 H 829.1 2.35151 -4.17422 0
M  V30 8532 H 827.464 1.33352 -2.17001 0
M  V30 8533 H 828.247 0.229936 -3.42529 0
M  V30 8534 N 830.692 1.47107 0.565454 0
M  V30 8535 C 831.917 1.57153 1.35343 0
M  V30 8536 C 832.342 0.219247 1.86818 0
M  V30 8537 O 831.7 -0.803539 1.62521 0
M  V30 8538 C 831.748 2.59387 2.50501 0
M  V30 8539 O 830.852 2.14086 3.52478 0
M  V30 8540 H 830.193 0.528209 0.402357 0
M  V30 8541 H 832.723 1.92821 0.684189 0
M  V30 8542 H 832.733 2.79546 2.97184 0
M  V30 8543 H 831.408 3.57579 2.12391 0
M  V30 8544 H 829.985 2.03991 3.12157 0
M  V30 8545 N 832.17 -0.811516 1.35101 0
M  V30 8546 C 833.398 -1.59981 1.31201 0
M  V30 8547 C 833.813 -1.8847 -0.111552 0
M  V30 8548 O 833.17 -1.48414 -1.06205 0
M  V30 8549 C 833.221 -2.934 2.11184 0
M  V30 8550 O 832.942 -2.66148 3.4799 0
M  V30 8551 C 834.443 -3.87776 2.14813 0
M  V30 8552 H 831.663 -0.496921 0.450899 0
M  V30 8553 H 834.207 -1.00886 1.77883 0
M  V30 8554 H 832.362 -3.49022 1.68115 0
M  V30 8555 H 832.776 -3.51301 3.89471 0
M  V30 8556 H 834.25 -4.7852 2.75178 0
M  V30 8557 H 834.727 -4.23997 1.14556 0
M  V30 8558 H 835.333 -3.3809 2.58022 0
M  V30 8559 N 833.648 -1.19017 -1.03309 0
M  V30 8560 C 834.558 -0.939303 -2.14975 0
M  V30 8561 C 835.574 0.0992359 -1.73717 0
M  V30 8562 O 836.75 -0.0844362 -2.01223 0
M  V30 8563 C 833.815 -0.476712 -3.43407 0
M  V30 8564 C 832.876 -1.58413 -3.99003 0
M  V30 8565 C 832.109 -1.14352 -5.21305 0
M  V30 8566 O 832.332 -0.00534408 -5.704 0
M  V30 8567 O 831.266 -1.94436 -5.6963 0
M  V30 8568 H 835.092 -1.87386 -2.38998 0
M  V30 8569 H 832.677 -0.972635 -1.13403 0
M  V30 8570 H 834.559 -0.22718 -4.20787 0
M  V30 8571 H 833.234 0.429455 -3.20839 0
M  V30 8572 H 832.141 -1.88777 -3.22977 0
M  V30 8573 H 833.474 -2.4667 -4.25928 0
M  V30 8574 N 835.127 1.22348 -0.993418 0
M  V30 8575 C 836.355 1.95125 -0.688021 0
M  V30 8576 C 836.77 1.73377 0.747388 0
M  V30 8577 O 836.127 1.03317 1.50439 0
M  V30 8578 C 836.178 3.47819 -0.985097 0
M  V30 8579 O 835.899 3.68838 -2.3641 0
M  V30 8580 C 837.4 4.37779 -0.697474 0
M  V30 8581 H 834.62 0.62087 -0.254481 0
M  V30 8582 H 837.164 1.55485 -1.32833 0
M  V30 8583 H 835.319 3.85426 -0.390583 0
M  V30 8584 H 835.733 4.63032 -2.46377 0
M  V30 8585 H 837.207 5.43666 -0.955604 0
M  V30 8586 H 837.684 4.37651 0.368524 0
M  V30 8587 H 838.29 4.05799 -1.27306 0
M  V30 8588 N 836.605 0.766683 1.37694 0
M  V30 8589 C 837.835 0.339446 2.03792 0
M  V30 8590 C 838.243 -1.04153 1.57952 0
M  V30 8591 O 837.586 -1.67521 0.753826 0
M  V30 8592 C 837.648 0.29822 3.58261 0
M  V30 8593 C 837.312 1.62293 4.27212 0
M  V30 8594 C 838.309 2.57447 4.51682 0
M  V30 8595 C 835.994 1.89597 4.65143 0
M  V30 8596 C 837.988 3.78117 5.13134 0
M  V30 8597 C 835.675 3.10538 5.26317 0
M  V30 8598 C 836.673 4.04617 5.50249 0
M  V30 8599 O 836.361 5.23429 6.10145 0
M  V30 8600 H 836.093 0.140952 0.661142 0
M  V30 8601 H 838.647 1.04022 1.77111 0
M  V30 8602 H 836.877 -0.458897 3.83967 0
M  V30 8603 H 838.566 -0.101263 4.05774 0
M  V30 8604 H 839.332 2.37633 4.22795 0
M  V30 8605 H 835.211 1.17199 4.45854 0
M  V30 8606 H 838.755 4.51563 5.3173 0
M  V30 8607 H 834.652 3.3024 5.54628 0
M  V30 8608 H 835.42 5.24187 6.28626 0
M  V30 8609 N 838.083 -1.48885 0.516809 0
M  V30 8610 C 839.36 -1.95412 -0.0858293 0
M  V30 8611 C 839.74 -1.45875 -1.5259 0
M  V30 8612 O 839.088 -0.679415 -2.18166 0
M  V30 8613 C 839.298 -3.48995 0.0178194 0
M  V30 8614 C 840.646 -4.24342 -0.14813 0
M  V30 8615 O 841.67 -3.56155 -0.0566125 0
M  V30 8616 O 840.529 -5.45454 -0.338035 0
M  V30 8617 H 837.623 -0.822455 -0.0865884 0
M  V30 8618 H 840.169 -1.59464 0.580472 0
M  V30 8619 H 838.941 -3.77732 1.02147 0
M  V30 8620 H 838.564 -3.91604 -0.687924 0
M  V30 8621 N 839.561 -0.251338 -1.55583 0
M  V30 8622 C 840.807 0.37272 -1.99346 0
M  V30 8623 C 841.14 1.57266 -1.13934 0
M  V30 8624 O 840.415 1.9343 -0.20377 0
M  V30 8625 C 840.698 0.778245 -3.5159 0
M  V30 8626 C 840.551 -0.427394 -4.47765 0
M  V30 8627 C 841.87 1.62358 -4.09057 0
M  V30 8628 H 838.989 0.134002 -0.724715 0
M  V30 8629 H 841.631 -0.353536 -1.86682 0
M  V30 8630 H 839.781 1.39704 -3.62512 0
M  V30 8631 H 841.453 -1.06586 -4.48818 0
M  V30 8632 H 839.696 -1.06972 -4.20404 0
M  V30 8633 H 840.367 -0.10025 -5.51909 0
M  V30 8634 H 842.843 1.1012 -4.01264 0
M  V30 8635 H 841.719 1.87617 -5.1584 0
M  V30 8636 H 841.98 2.59688 -3.57791 0
M  V30 8637 N 841.039 1.57585 0.0217189 0
M  V30 8638 C 842.269 1.9359 0.721572 0
M  V30 8639 C 842.677 0.850132 1.69025 0
M  V30 8640 O 842.02 -0.181539 1.82801 0
M  V30 8641 C 842.082 3.25445 1.52729 0
M  V30 8642 C 841.746 4.51251 0.722586 0
M  V30 8643 C 842.743 5.19896 0.0196598 0
M  V30 8644 C 840.428 4.97745 0.674959 0
M  V30 8645 C 842.422 6.33319 -0.720114 0
M  V30 8646 C 840.109 6.11062 -0.068555 0
M  V30 8647 C 841.107 6.78704 -0.764845 0
M  V30 8648 O 840.795 7.89852 -1.49627 0
M  V30 8649 H 840.527 0.643409 0.207366 0
M  V30 8650 H 843.081 2.05391 -0.0189346 0
M  V30 8651 H 841.311 3.0999 2.31178 0
M  V30 8652 H 843 3.46721 2.11044 0
M  V30 8653 H 843.766 4.84977 0.0474394 0
M  V30 8654 H 839.645 4.44934 1.20643 0
M  V30 8655 H 843.189 6.86051 -1.26413 0
M  V30 8656 H 839.086 6.45425 -0.0982318 0
M  V30 8657 H 839.854 8.06251 -1.41071 0
M  V30 8658 N 842.517 -0.29412 1.54831 0
M  V30 8659 C 843.757 -1.03635 1.76179 0
M  V30 8660 C 844.121 -1.84251 0.539953 0
M  V30 8661 O 845.322 -2.61282 0.631295 0
M  V30 8662 C 843.593 -1.91275 3.01909 0
M  V30 8663 S 845.152 -2.7205 3.44288 0
M  V30 8664 H 841.97 -0.349403 0.619224 0
M  V30 8665 H 844.572 -0.309006 1.93042 0
M  V30 8666 H 843.276 -1.30937 3.88952 0
M  V30 8667 H 842.807 -2.68365 2.87652 0
M  V30 8668 H 844.822 -3.93791 3.01899 0
M  V30 8669 N 843.995 -1.47404 -0.557645 0
M  V30 8670 C 845.242 -1.54007 -1.31484 0
M  V30 8671 C 845.57 -0.202162 -1.93447 0
M  V30 8672 O 844.825 0.804901 -1.78381 0
M  V30 8673 C 845.124 -2.6061 -2.44575 0
M  V30 8674 C 844.79 -4.03896 -2.00446 0
M  V30 8675 C 843.452 -4.42901 -1.88127 0
M  V30 8676 C 845.804 -4.93804 -1.66754 0
M  V30 8677 C 843.132 -5.6965 -1.40411 0
M  V30 8678 C 845.484 -6.21016 -1.20509 0
M  V30 8679 C 844.148 -6.58903 -1.06786 0
M  V30 8680 H 843.418 -0.563552 -0.481134 0
M  V30 8681 H 846.065 -1.81001 -0.625375 0
M  V30 8682 H 844.37 -2.27371 -3.19076 0
M  V30 8683 H 846.067 -2.62941 -3.02759 0
M  V30 8684 H 842.657 -3.73077 -2.10977 0
M  V30 8685 H 846.841 -4.64369 -1.75144 0
M  V30 8686 H 842.097 -5.97755 -1.2845 0
M  V30 8687 H 846.271 -6.90095 -0.935001 0
M  V30 8688 H 843.898 -7.57008 -0.695891 0
M  V30 8689 N 845.473 0.80434 -1.35529 0
M  V30 8690 C 846.719 1.56385 -1.29118 0
M  V30 8691 C 847.052 1.9374 0.133536 0
M  V30 8692 O 846.327 1.6153 1.08344 0
M  V30 8693 C 846.61 2.85097 -2.19981 0
M  V30 8694 C 846.463 2.54204 -3.7108 0
M  V30 8695 C 847.782 3.86817 -2.09907 0
M  V30 8696 H 844.901 0.567382 -0.470368 0
M  V30 8697 H 847.543 0.925235 -1.6595 0
M  V30 8698 H 845.693 3.39594 -1.88701 0
M  V30 8699 H 847.365 2.05872 -4.12813 0
M  V30 8700 H 845.608 1.87364 -3.91251 0
M  V30 8701 H 846.279 3.46068 -4.30048 0
M  V30 8702 H 848.755 3.41725 -2.37409 0
M  V30 8703 H 847.631 4.7465 -2.75678 0
M  V30 8704 H 847.892 4.28663 -1.08171 0
M  V30 8705 N 846.951 1.19563 1.02676 0
M  V30 8706 C 848.228 0.908857 1.73203 0
M  V30 8707 C 848.608 -0.584928 2.02834 0
M  V30 8708 O 847.956 -1.54372 1.68469 0
M  V30 8709 C 848.166 1.77105 3.00724 0
M  V30 8710 C 849.514 2.00667 3.7419 0
M  V30 8711 O 850.538 1.74274 3.10656 0
M  V30 8712 O 849.397 2.4518 4.88415 0
M  V30 8713 H 846.491 0.338909 0.754367 0
M  V30 8714 H 849.037 1.30387 1.08616 0
M  V30 8715 H 847.809 2.78303 2.7507 0
M  V30 8716 H 847.432 1.37546 3.73051 0
M  V30 8717 N 848.429 -1.21819 0.999893 0
M  V30 8718 C 849.845 -1.42847 0.711824 0
M  V30 8719 C 850.045 -1.88391 -0.714928 0
M  V30 8720 O 849.101 -2.0422 -1.48494 0
M  V30 8721 C 850.414 -2.46417 1.72334 0
M  V30 8722 C 851.962 -2.60207 1.73958 0
M  V30 8723 C 852.437 -3.67005 2.73992 0
M  V30 8724 N 853.928 -3.7447 2.72628 0
M  V30 8725 C 854.663 -4.56718 3.46693 0
M  V30 8726 N 854.159 -5.42904 4.3038 0
M  V30 8727 N 855.952 -4.51094 3.35366 0
M  V30 8728 H 848.103 -0.905656 1.92124 0
M  V30 8729 H 850.366 -0.459893 0.828977 0
M  V30 8730 H 850.072 -2.19914 2.74465 0
M  V30 8731 H 849.946 -3.45137 1.52186 0
M  V30 8732 H 852.333 -2.8605 0.725217 0
M  V30 8733 H 852.414 -1.61739 1.98177 0
M  V30 8734 H 852.058 -3.41908 3.75582 0
M  V30 8735 H 851.988 -4.65058 2.4704 0
M  V30 8736 H 854.479 -3.12895 2.11909 0
M  V30 8737 H 854.792 -6.02704 4.83702 0
M  V30 8738 H 853.137 -5.42463 4.34464 0
M  V30 8739 H 856.328 -3.82791 2.69423 0
M  V30 8740 H 856.501 -5.1496 3.93344 0
M  V30 8741 N 849.908 -0.773975 -1.37286 0
M  V30 8742 C 850.838 -0.175782 -2.32837 0
M  V30 8743 C 851.819 0.680603 -1.5589 0
M  V30 8744 O 853.004 0.617607 -1.84117 0
M  V30 8745 C 850.134 0.702388 -3.40123 0
M  V30 8746 C 849.088 -0.0528687 -4.27967 0
M  V30 8747 C 848.414 0.944891 -5.26285 0
M  V30 8748 C 849.714 -1.23316 -5.07534 0
M  V30 8749 H 851.408 -0.974016 -2.83114 0
M  V30 8750 H 848.954 -0.469826 -1.3612 0
M  V30 8751 H 850.907 1.13069 -4.05947 0
M  V30 8752 H 849.631 1.53316 -2.88378 0
M  V30 8753 H 848.29 -0.461978 -3.63678 0
M  V30 8754 H 847.938 1.77028 -4.70819 0
M  V30 8755 H 847.638 0.444079 -5.8592 0
M  V30 8756 H 849.162 1.37209 -5.94984 0
M  V30 8757 H 850.576 -0.881395 -5.66484 0
M  V30 8758 H 848.973 -1.66621 -5.76504 0
M  V30 8759 H 850.043 -2.03617 -4.40077 0
M  V30 8760 N 851.386 1.48609 -0.524698 0
M  V30 8761 C 852.296 2.33318 0.244923 0
M  V30 8762 C 853.312 1.46153 0.944214 0
M  V30 8763 O 854.488 1.79141 0.920347 0
M  V30 8764 C 851.553 3.22149 1.28144 0
M  V30 8765 C 850.614 4.25184 0.593068 0
M  V30 8766 C 849.847 5.0977 1.5802 0
M  V30 8767 O 850.07 4.96249 2.81235 0
M  V30 8768 O 849.004 5.9134 1.1225 0
M  V30 8769 H 852.83 3.00362 -0.449066 0
M  V30 8770 H 850.415 1.46643 -0.285689 0
M  V30 8771 H 852.297 3.77111 1.88057 0
M  V30 8772 H 850.972 2.57772 1.95793 0
M  V30 8773 H 849.879 3.74071 -0.0464214 0
M  V30 8774 H 851.212 4.92183 -0.0413893 0
M  V30 8775 N 852.864 0.259585 1.55447 0
M  V30 8776 C 854.112 -0.360893 1.98852 0
M  V30 8777 C 854.433 -1.57535 1.14924 0
M  V30 8778 O 853.703 -1.94485 0.235025 0
M  V30 8779 H 852.283 -0.136332 0.734454 0
M  V30 8780 H 854.945 0.361319 1.91522 0
M  V30 8781 H 854.041 -0.661388 3.05012 0
M  V30 8782 N 854.342 -1.57594 -0.0133615 0
M  V30 8783 C 855.252 -2.10991 -1.02566 0
M  V30 8784 C 856.268 -1.05208 -1.3859 0
M  V30 8785 O 857.444 -1.37034 -1.47593 0
M  V30 8786 C 854.509 -2.59165 -2.30292 0
M  V30 8787 C 853.57 -3.79495 -2.00704 0
M  V30 8788 C 852.803 -4.25361 -3.22341 0
M  V30 8789 O 853.026 -3.70645 -4.33565 0
M  V30 8790 O 851.96 -5.17649 -3.07121 0
M  V30 8791 H 855.786 -2.97678 -0.601806 0
M  V30 8792 H 853.371 -1.47598 -0.23135 0
M  V30 8793 H 855.253 -2.90409 -3.05354 0
M  V30 8794 H 853.928 -1.75582 -2.71942 0
M  V30 8795 H 852.835 -3.53245 -1.23161 0
M  V30 8796 H 854.168 -4.64109 -1.639 0
M  V30 8797 N 855.82 0.285905 -1.54985 0
M  V30 8798 C 857.066 1.02071 -1.75241 0
M  V30 8799 C 857.399 1.864 -0.544842 0
M  V30 8800 O 856.674 1.89034 0.457844 0
M  V30 8801 C 856.957 1.91409 -3.05016 0
M  V30 8802 C 856.81 1.10158 -4.36102 0
M  V30 8803 C 858.129 2.90335 -3.30747 0
M  V30 8804 H 855.248 0.369663 -0.637588 0
M  V30 8805 H 857.89 0.294114 -1.8771 0
M  V30 8806 H 856.04 2.53362 -2.94517 0
M  V30 8807 H 857.712 0.503756 -4.58541 0
M  V30 8808 H 855.955 0.404675 -4.31908 0
M  V30 8809 H 856.626 1.75956 -5.23205 0
M  V30 8810 H 859.102 2.38514 -3.40955 0
M  V30 8811 H 857.978 3.49997 -4.2284 0
M  V30 8812 H 858.239 3.64787 -2.49765 0
M  V30 8813 N 857.298 1.47698 0.54982 0
M  V30 8814 C 858.545 1.54702 1.30665 0
M  V30 8815 C 858.873 0.212418 1.93337 0
M  V30 8816 O 858.128 -0.79543 1.78805 0
M  V30 8817 C 858.427 2.61903 2.4319 0
M  V30 8818 C 858.093 4.04953 1.98302 0
M  V30 8819 C 856.755 4.43893 1.85776 0
M  V30 8820 C 859.107 4.94682 1.64133 0
M  V30 8821 C 856.435 5.70387 1.37388 0
M  V30 8822 C 858.787 6.21646 1.17214 0
M  V30 8823 C 857.451 6.5946 1.0329 0
M  V30 8824 H 856.721 0.566096 0.478139 0
M  V30 8825 H 859.368 1.8133 0.615767 0
M  V30 8826 H 857.673 2.2906 3.17866 0
M  V30 8827 H 859.37 2.64543 3.0136 0
M  V30 8828 H 855.96 3.74191 2.08995 0
M  V30 8829 H 860.144 4.65291 1.72679 0
M  V30 8830 H 855.4 5.98427 1.25278 0
M  V30 8831 H 859.574 6.90581 0.898391 0
M  V30 8832 H 857.201 7.57367 0.655735 0
M  V30 8833 N 858.776 -0.797141 1.35954 0
M  V30 8834 C 860.023 -1.55468 1.29754 0
M  V30 8835 C 860.351 -1.94095 -0.125391 0
M  V30 8836 O 859.606 -1.62341 -1.09288 0
M  V30 8837 C 859.905 -2.84847 2.15863 0
M  V30 8838 C 859.571 -2.65394 3.64523 0
M  V30 8839 C 858.233 -2.59796 4.05042 0
M  V30 8840 C 860.585 -2.4727 4.58811 0
M  V30 8841 C 857.913 -2.3403 5.38002 0
M  V30 8842 C 860.265 -2.23032 5.91979 0
M  V30 8843 C 858.929 -2.15862 6.31633 0
M  V30 8844 H 858.199 -0.568897 0.474803 0
M  V30 8845 H 860.846 -0.920299 1.67937 0
M  V30 8846 H 859.151 -3.52712 1.70591 0
M  V30 8847 H 860.848 -3.42597 2.08395 0
M  V30 8848 H 857.438 -2.70602 3.32374 0
M  V30 8849 H 861.622 -2.506 4.28384 0
M  V30 8850 H 856.878 -2.26956 5.67715 0
M  V30 8851 H 861.052 -2.08001 6.64612 0
M  V30 8852 H 858.679 -1.9566 7.34589 0
M  V30 8853 N 860.254 -1.20106 -1.0204 0
M  V30 8854 C 861.217 -0.948261 -2.08664 0
M  V30 8855 C 862.217 0.0746753 -1.60627 0
M  V30 8856 O 863.407 -0.160981 -1.73455 0
M  V30 8857 C 860.539 -0.426854 -3.38217 0
M  V30 8858 H 861.732 -1.894 -2.32524 0
M  V30 8859 H 859.285 -1.0159 -1.18782 0
M  V30 8860 H 860.02 0.524532 -3.2003 0
M  V30 8861 H 859.805 -1.16451 -3.74408 0
M  V30 8862 H 861.295 -0.269346 -4.1673 0
M  V30 8863 N 861.732 1.21287 -1.00634 0
M  V30 8864 C 862.96 1.94385 -0.708678 0
M  V30 8865 C 863.375 1.7416 0.728957 0
M  V30 8866 O 862.732 1.04906 1.49335 0
M  V30 8867 C 862.783 3.46755 -1.02193 0
M  V30 8868 O 862.504 3.6631 -2.40309 0
M  V30 8869 C 864.005 4.37014 -0.743867 0
M  V30 8870 H 861.225 0.618136 -0.261052 0
M  V30 8871 H 863.769 1.54067 -1.34475 0
M  V30 8872 H 861.924 3.8499 -0.431441 0
M  V30 8873 H 862.338 4.60393 -2.51274 0
M  V30 8874 H 863.812 5.42621 -1.01321 0
M  V30 8875 H 864.289 4.38017 0.322084 0
M  V30 8876 H 864.895 4.04426 -1.31603 0
M  V30 8877 N 863.21 0.781244 1.36873 0
M  V30 8878 C 864.626 0.461968 1.52768 0
M  V30 8879 C 864.826 -1.02099 1.73719 0
M  V30 8880 O 863.882 -1.80665 1.76399 0
M  V30 8881 C 865.195 1.2853 2.71846 0
M  V30 8882 C 866.743 1.27817 2.85713 0
M  V30 8883 C 867.218 2.08506 4.07786 0
M  V30 8884 N 868.709 2.05909 4.14917 0
M  V30 8885 C 869.444 2.65118 5.08429 0
M  V30 8886 N 868.94 3.33152 6.07438 0
M  V30 8887 N 870.733 2.54896 5.00983 0
M  V30 8888 H 862.884 1.74198 1.21527 0
M  V30 8889 H 865.147 0.740027 0.592506 0
M  V30 8890 H 864.853 2.3366 2.62861 0
M  V30 8891 H 864.727 0.920981 3.65784 0
M  V30 8892 H 867.114 0.234817 2.94164 0
M  V30 8893 H 867.195 1.68219 1.92707 0
M  V30 8894 H 866.839 3.12867 4.00096 0
M  V30 8895 H 866.769 1.65479 4.99924 0
M  V30 8896 H 869.26 1.56386 3.44023 0
M  V30 8897 H 869.573 3.75681 6.75339 0
M  V30 8898 H 867.918 3.37253 6.07689 0
M  V30 8899 H 871.109 2.01352 4.22581 0
M  V30 8900 H 871.282 3.01332 5.73675 0
M  V30 8901 N 864.689 -1.48329 0.532571 0
M  V30 8902 C 865.619 -2.32485 -0.217511 0
M  V30 8903 C 866.6 -1.42255 -0.932598 0
M  V30 8904 O 867.785 -1.7114 -0.917873 0
M  V30 8905 C 864.915 -3.23509 -1.26329 0
M  V30 8906 C 863.869 -4.22784 -0.666191 0
M  V30 8907 C 863.195 -5.0296 -1.81482 0
M  V30 8908 C 864.495 -5.21031 0.363813 0
M  V30 8909 H 866.189 -2.95445 0.485014 0
M  V30 8910 H 863.735 -1.42075 0.234694 0
M  V30 8911 H 865.688 -3.81211 -1.79601 0
M  V30 8912 H 864.412 -2.58554 -1.99543 0
M  V30 8913 H 863.071 -3.66272 -0.15498 0
M  V30 8914 H 862.719 -4.34427 -2.5354 0
M  V30 8915 H 862.419 -5.70154 -1.4212 0
M  V30 8916 H 863.943 -5.63514 -2.35126 0
M  V30 8917 H 865.357 -5.73241 -0.0819079 0
M  V30 8918 H 863.754 -5.96292 0.674956 0
M  V30 8919 H 864.824 -4.6801 1.26865 0
M  V30 8920 N 866.167 -0.267825 -1.55308 0
M  V30 8921 C 867.077 0.633055 -2.25897 0
M  V30 8922 C 868.093 1.17613 -1.28231 0
M  V30 8923 O 869.269 1.20797 -1.61153 0
M  V30 8924 C 866.334 1.80397 -2.96071 0
M  V30 8925 C 865.395 1.29829 -4.09198 0
M  V30 8926 C 864.628 2.4134 -4.76016 0
M  V30 8927 O 864.851 3.60537 -4.42006 0
M  V30 8928 O 863.785 2.09909 -5.64111 0
M  V30 8929 H 867.611 0.0614381 -3.03638 0
M  V30 8930 H 865.196 -0.0355072 -1.49358 0
M  V30 8931 H 867.078 2.48685 -3.40197 0
M  V30 8932 H 865.753 2.36281 -2.21253 0
M  V30 8933 H 864.66 0.582086 -3.69544 0
M  V30 8934 H 865.993 0.785288 -4.85895 0
M  V30 8935 N 867.645 1.57599 0.00500368 0
M  V30 8936 C 868.577 2.04949 1.02609 0
M  V30 8937 C 869.59 0.966507 1.31006 0
M  V30 8938 O 870.779 1.2434 1.2807 0
M  V30 8939 C 867.879 2.43023 2.36206 0
M  V30 8940 C 867.052 3.73993 2.26821 0
M  V30 8941 C 866.111 3.9899 3.43065 0
M  V30 8942 O 865.137 4.69725 3.21477 0
M  V30 8943 N 866.339 3.46496 4.65748 0
M  V30 8944 H 869.104 2.93167 0.622336 0
M  V30 8945 H 866.665 1.60752 0.192488 0
M  V30 8946 H 868.657 2.56863 3.12735 0
M  V30 8947 H 867.227 1.60349 2.68341 0
M  V30 8948 H 866.447 3.70277 1.35235 0
M  V30 8949 H 867.735 4.59865 2.17719 0
M  V30 8950 H 867.133 2.89206 4.86186 0
M  V30 8951 H 865.69 3.65675 5.3956 0
M  V30 8952 N 869.123 -0.277682 1.55134 0
M  V30 8953 C 870.37 -1.0099 1.7552 0
M  V30 8954 C 870.698 -1.86452 0.553712 0
M  V30 8955 O 869.953 -1.90122 -0.463896 0
M  V30 8956 C 870.252 -1.92599 3.01065 0
M  V30 8957 C 869.918 -1.22926 4.3382 0
M  V30 8958 C 868.58 -1.03659 4.69902 0
M  V30 8959 C 870.932 -0.733071 5.16019 0
M  V30 8960 C 868.26 -0.334933 5.85743 0
M  V30 8961 C 870.612 -0.0450319 6.32584 0
M  V30 8962 C 869.276 0.159393 6.6731 0
M  V30 8963 H 868.546 -0.36955 0.642273 0
M  V30 8964 H 871.193 -0.282611 1.89403 0
M  V30 8965 H 869.498 -2.71934 2.82062 0
M  V30 8966 H 871.195 -2.49367 3.14034 0
M  V30 8967 H 867.785 -1.38933 4.05457 0
M  V30 8968 H 871.969 -0.869565 4.88623 0
M  V30 8969 H 867.225 -0.165783 6.11175 0
M  V30 8970 H 871.399 0.34723 6.95534 0
M  V30 8971 H 869.026 0.70507 7.56923 0
M  V30 8972 N 870.601 -1.47988 -0.541979 0
M  V30 8973 C 871.829 -1.59034 -1.32347 0
M  V30 8974 C 872.244 -0.246123 -1.87189 0
M  V30 8975 O 871.601 0.762889 -1.6579 0
M  V30 8976 C 871.652 -2.62759 -2.48274 0
M  V30 8977 O 871.373 -3.91963 -1.95695 0
M  V30 8978 C 872.874 -2.84133 -3.4027 0
M  V30 8979 H 870.094 -0.536574 -0.402901 0
M  V30 8980 H 872.638 -1.93725 -0.655045 0
M  V30 8981 H 870.793 -2.3096 -3.11025 0
M  V30 8982 H 871.207 -4.48769 -2.7149 0
M  V30 8983 H 872.681 -3.60538 -4.17991 0
M  V30 8984 H 873.158 -1.92512 -3.9476 0
M  V30 8985 H 873.764 -3.17188 -2.83322 0
M  V30 8986 N 872.079 0.78992 -1.36375 0
M  V30 8987 C 873.326 1.54777 -1.30576 0
M  V30 8988 C 873.654 1.94159 0.115095 0
M  V30 8989 O 872.909 1.62918 1.08426 0
M  V30 8990 C 873.208 2.83698 -2.17371 0
M  V30 8991 C 872.874 2.63457 -3.65925 0
M  V30 8992 C 871.536 2.57645 -4.06415 0
M  V30 8993 C 873.888 2.44833 -4.60115 0
M  V30 8994 C 871.216 2.31174 -5.39236 0
M  V30 8995 C 873.568 2.19889 -5.93154 0
M  V30 8996 C 872.232 2.1251 -6.32768 0
M  V30 8997 H 871.502 0.566371 -0.477813 0
M  V30 8998 H 874.149 0.91138 -1.68422 0
M  V30 8999 H 872.454 3.51802 -1.72459 0
M  V30 9000 H 874.151 3.41487 -2.10209 0
M  V30 9001 H 870.741 2.68836 -3.33804 0
M  V30 9002 H 874.925 2.48325 -4.29707 0
M  V30 9003 H 870.181 2.23942 -5.68911 0
M  V30 9004 H 874.355 2.04473 -6.65705 0
M  V30 9005 H 871.982 1.91761 -7.35616 0
M  V30 9006 N 873.557 1.20646 1.01402 0
M  V30 9007 C 874.489 0.915392 2.10127 0
M  V30 9008 C 875.502 -0.0978705 1.62506 0
M  V30 9009 O 876.691 0.133477 1.78 0
M  V30 9010 C 873.791 0.351304 3.37074 0
M  V30 9011 C 872.964 1.41673 4.13821 0
M  V30 9012 C 872.023 0.8635 5.19067 0
M  V30 9013 O 871.049 1.54481 5.47836 0
M  V30 9014 N 872.251 -0.325799 5.79585 0
M  V30 9015 H 875.016 1.85132 2.35682 0
M  V30 9016 H 872.577 1.11048 1.17813 0
M  V30 9017 H 874.569 -0.032996 4.04687 0
M  V30 9018 H 873.139 -0.489242 3.08748 0
M  V30 9019 H 872.359 1.97526 3.41141 0
M  V30 9020 H 873.647 2.1342 4.61876 0
M  V30 9021 H 873.045 -0.896534 5.58551 0
M  V30 9022 H 871.602 -0.651708 6.48534 0
M  V30 9023 N 875.035 -1.20752 1.01276 0
M  V30 9024 C 875.945 -2.27079 0.589277 0
M  V30 9025 C 876.961 -1.6999 -0.371389 0
M  V30 9026 O 878.137 -2.00044 -0.233294 0
M  V30 9027 C 875.202 -3.4663 -0.0696715 0
M  V30 9028 C 874.263 -4.18962 0.936454 0
M  V30 9029 C 873.496 -5.32806 0.308856 0
M  V30 9030 O 873.719 -5.63376 -0.8924 0
M  V30 9031 O 872.653 -5.93131 1.02367 0
M  V30 9032 H 876.479 -2.6551 1.47438 0
M  V30 9033 H 874.064 -1.27297 0.782045 0
M  V30 9034 H 875.946 -4.19119 -0.437873 0
M  V30 9035 H 874.621 -3.10082 -0.929029 0
M  V30 9036 H 873.528 -3.48661 1.35595 0
M  V30 9037 H 874.861 -4.59441 1.76565 0
M  V30 9038 N 876.513 -0.788492 -1.36457 0
M  V30 9039 C 877.476 -0.192209 -2.28393 0
M  V30 9040 C 878.476 0.609916 -1.48784 0
M  V30 9041 O 879.666 0.431046 -1.68783 0
M  V30 9042 C 876.798 0.734096 -3.32902 0
M  V30 9043 H 877.991 -1.00284 -2.82636 0
M  V30 9044 H 875.544 -0.557852 -1.46006 0
M  V30 9045 H 876.279 1.5691 -2.83813 0
M  V30 9046 H 876.064 0.160875 -3.9177 0
M  V30 9047 H 877.554 1.1462 -4.01562 0
M  V30 9048 N 877.991 1.48044 -0.54043 0
M  V30 9049 C 878.921 2.32597 0.205178 0
M  V30 9050 C 879.902 1.42748 0.925041 0
M  V30 9051 O 881.087 1.71624 0.908784 0
M  V30 9052 C 878.217 3.24175 1.24612 0
M  V30 9053 C 877.171 4.23131 0.64376 0
M  V30 9054 C 876.497 5.03915 1.78812 0
M  V30 9055 C 877.797 5.20831 -0.39144 0
M  V30 9056 H 879.491 2.95184 -0.500676 0
M  V30 9057 H 877.037 1.41948 -0.242225 0
M  V30 9058 H 878.99 3.82158 1.77576 0
M  V30 9059 H 877.714 2.59608 1.98169 0
M  V30 9060 H 876.373 3.66349 0.135554 0
M  V30 9061 H 876.021 4.35765 2.51232 0
M  V30 9062 H 875.721 5.709 1.39094 0
M  V30 9063 H 877.245 5.64753 2.32134 0
M  V30 9064 H 878.659 5.73277 0.0515064 0
M  V30 9065 H 877.056 5.95926 -0.706569 0
M  V30 9066 H 878.126 4.6733 -1.29345 0
M  V30 9067 N 879.47 0.276058 1.55163 0
M  V30 9068 C 880.38 -0.621066 2.2623 0
M  V30 9069 C 881.396 -1.16931 1.28853 0
M  V30 9070 O 882.572 -1.1994 1.61791 0
M  V30 9071 C 879.637 -1.78824 2.97023 0
M  V30 9072 C 878.698 -1.27657 4.09881 0
M  V30 9073 C 877.931 -2.38812 4.77289 0
M  V30 9074 O 878.154 -3.58188 4.43912 0
M  V30 9075 O 877.088 -2.06915 5.65217 0
M  V30 9076 H 880.914 -0.0453346 3.03666 0
M  V30 9077 H 878.499 0.0434275 1.49337 0
M  V30 9078 H 880.381 -2.46877 3.41511 0
M  V30 9079 H 879.056 -2.35104 2.22503 0
M  V30 9080 H 877.963 -0.56248 3.69847 0
M  V30 9081 H 879.296 -0.759509 4.86305 0
M  V30 9082 N 880.948 -1.576 0.00335426 0
M  V30 9083 C 882.195 -1.90713 -0.680791 0
M  V30 9084 C 882.523 -0.877263 -1.73592 0
M  V30 9085 O 881.778 0.117497 -1.95347 0
M  V30 9086 C 882.077 -3.3058 -1.35837 0
M  V30 9087 C 881.743 -4.48786 -0.436111 0
M  V30 9088 C 880.405 -4.80855 -0.182195 0
M  V30 9089 C 882.757 -5.20821 0.198677 0
M  V30 9090 C 880.085 -5.8233 0.714747 0
M  V30 9091 C 882.437 -6.23252 1.08351 0
M  V30 9092 C 881.101 -6.53776 1.34658 0
M  V30 9093 H 880.371 -0.697869 -0.249119 0
M  V30 9094 H 883.018 -1.91407 0.0596011 0
M  V30 9095 H 881.323 -3.26026 -2.17289 0
M  V30 9096 H 883.02 -3.53462 -1.89383 0
M  V30 9097 H 879.61 -4.23731 -0.644186 0
M  V30 9098 H 883.794 -4.96298 0.0155259 0
M  V30 9099 H 879.05 -6.04339 0.926529 0
M  V30 9100 H 883.224 -6.78199 1.58172 0
M  V30 9101 H 880.851 -7.32225 2.04328 0
M  V30 9102 N 882.426 0.269451 -1.5528 0
M  V30 9103 C 883.666 1.00819 -1.77806 0
M  V30 9104 C 884.03 1.83369 -0.569198 0
M  V30 9105 O 885.231 2.60244 -0.672783 0
M  V30 9106 C 883.502 1.86447 -3.04913 0
M  V30 9107 S 885.061 2.66538 -3.48573 0
M  V30 9108 H 881.879 0.339508 -0.624704 0
M  V30 9109 H 884.481 0.278256 -1.9351 0
M  V30 9110 H 883.185 1.24733 -3.90986 0
M  V30 9111 H 882.716 2.63755 -2.91885 0
M  V30 9112 H 884.731 3.88938 -3.08126 0
M  V30 9113 N 883.904 1.48273 0.534124 0
M  V30 9114 C 884.814 1.65162 1.66609 0
M  V30 9115 C 885.83 0.534177 1.65598 0
M  V30 9116 O 887.006 0.804715 1.84625 0
M  V30 9117 C 884.071 1.68354 3.03081 0
M  V30 9118 C 883.132 2.91696 3.1498 0
M  V30 9119 C 882.365 2.94725 4.44941 0
M  V30 9120 O 882.588 2.06285 5.31792 0
M  V30 9121 O 881.522 3.8685 4.61119 0
M  V30 9122 H 885.348 2.60991 1.55298 0
M  V30 9123 H 882.933 1.31626 0.706749 0
M  V30 9124 H 884.815 1.72998 3.84252 0
M  V30 9125 H 883.49 0.756978 3.14725 0
M  V30 9126 H 882.397 2.92586 2.33119 0
M  V30 9127 H 883.73 3.83722 3.0825 0
M  V30 9128 N 885.382 -0.782676 1.36792 0
M  V30 9129 C 886.607 -1.57676 1.34733 0
M  V30 9130 C 887.032 -1.87979 -0.0675253 0
M  V30 9131 O 886.39 -1.48404 -1.04144 0
M  V30 9132 C 886.438 -2.87047 2.18257 0
M  V30 9133 O 885.542 -3.80946 1.57969 0
M  V30 9134 H 884.883 -0.478034 0.460846 0
M  V30 9135 H 887.413 -0.969578 1.80168 0
M  V30 9136 H 887.423 -3.36254 2.31079 0
M  V30 9137 H 886.098 -2.64319 3.21104 0
M  V30 9138 H 884.675 -3.39558 1.54126 0
M  V30 9139 N 886.86 -1.21182 -1.00761 0
M  V30 9140 C 887.81 -0.936247 -2.0789 0
M  V30 9141 C 888.794 0.107482 -1.60541 0
M  V30 9142 O 889.986 -0.1011 -1.76711 0
M  V30 9143 C 887.115 -0.499949 -3.3964 0
M  V30 9144 C 886.201 -1.5776 -3.93666 0
M  V30 9145 N 886.592 -2.80208 -4.2109 0
M  V30 9146 C 884.89 -1.44586 -4.21913 0
M  V30 9147 C 885.591 -3.49787 -4.64784 0
M  V30 9148 N 884.567 -2.7722 -4.676 0
M  V30 9149 H 888.369 -1.86659 -2.27015 0
M  V30 9150 H 885.883 -1.10716 -1.1881 0
M  V30 9151 H 887.88 -0.283897 -4.15932 0
M  V30 9152 H 886.54 0.423659 -3.21924 0
M  V30 9153 H 887.551 -3.16776 -4.09724 0
M  V30 9154 H 884.228 -0.587346 -4.13348 0
M  V30 9155 H 885.618 -4.54615 -4.94747 0
M  V30 9156 N 888.338 1.20213 -1.01915 0
M  V30 9157 C 889.286 2.25125 -0.584936 0
M  V30 9158 C 890.28 1.65138 0.377602 0
M  V30 9159 O 891.486 1.78294 0.247245 0
M  V30 9160 H 887.861 0.732333 -0.170858 0
M  V30 9161 H 889.832 2.59075 -1.48063 0
M  V30 9162 C 888.581 3.47651 0.058389 0
M  V30 9163 H 887.904 3.9409 -0.673263 0
M  V30 9164 H 889.344 4.2275 0.325285 0
M  V30 9165 C 887.803 3.10725 1.30199 0
M  V30 9166 O 888.333 3.22491 2.39505 0
M  V30 9167 N 886.539 2.6525 1.18706 0
M  V30 9168 H 886.086 2.55875 0.297618 0
M  V30 9169 H 886.044 2.40913 2.02011 0
M  V30 9170 N 889.816 0.795718 1.36037 0
M  V30 9171 C 890.779 0.204318 2.28287 0
M  V30 9172 C 891.779 -0.602017 1.49105 0
M  V30 9173 O 892.969 -0.422089 1.69009 0
M  V30 9174 C 890.101 -0.716431 3.33287 0
M  V30 9175 H 891.294 1.01781 2.821 0
M  V30 9176 H 888.847 0.565588 1.45708 0
M  V30 9177 H 889.582 -1.55403 2.84641 0
M  V30 9178 H 889.367 -0.140096 3.9185 0
M  V30 9179 H 890.857 -1.12488 4.02164 0
M  V30 9180 N 891.294 -1.47756 0.548274 0
M  V30 9181 C 892.522 -2.06884 0.0254873 0
M  V30 9182 C 892.937 -1.40225 -1.26422 0
M  V30 9183 O 892.294 -0.495776 -1.75637 0
M  V30 9184 C 892.345 -3.61036 -0.183134 0
M  V30 9185 O 892.066 -4.25195 1.05549 0
M  V30 9186 C 893.567 -4.37008 -0.744222 0
M  V30 9187 H 890.787 -0.669697 0.041789 0
M  V30 9188 H 893.331 -1.89888 0.759138 0
M  V30 9189 H 891.486 -3.77576 -0.866886 0
M  V30 9190 H 891.9 -5.17606 0.847629 0
M  V30 9191 H 893.374 -5.45579 -0.839529 0
M  V30 9192 H 893.851 -4.0268 -1.75344 0
M  V30 9193 H 894.457 -4.25191 -0.0964542 0
M  V30 9194 N 892.772 -0.284283 -1.55015 0
M  V30 9195 C 893.735 0.586182 -2.21577 0
M  V30 9196 C 894.735 1.07427 -1.1965 0
M  V30 9197 O 895.925 0.972977 -1.44495 0
M  V30 9198 C 893.057 1.80973 -2.88897 0
M  V30 9199 H 894.25 0.00487253 -2.999 0
M  V30 9200 H 891.803 -0.0349696 -1.56261 0
M  V30 9201 H 892.538 2.43131 -2.14611 0
M  V30 9202 H 892.323 1.46757 -3.636 0
M  V30 9203 H 893.813 2.42853 -3.39724 0
M  V30 9204 N 894.251 1.57596 -0.0117121 0
M  V30 9205 C 895.479 1.9536 0.681334 0
M  V30 9206 C 895.894 0.887255 1.66653 0
M  V30 9207 O 895.251 -0.132692 1.82017 0
M  V30 9208 C 895.302 3.33165 1.40298 0
M  V30 9209 O 895.023 4.35707 0.45728 0
M  V30 9210 C 896.524 3.85458 2.18946 0
M  V30 9211 H 893.744 0.643826 0.189023 0
M  V30 9212 H 896.288 2.04392 -0.066311 0
M  V30 9213 H 894.443 3.25404 2.10216 0
M  V30 9214 H 894.857 5.15495 0.96773 0
M  V30 9215 H 896.331 4.84275 2.64918 0
M  V30 9216 H 896.808 3.18781 3.02118 0
M  V30 9217 H 897.414 3.96431 1.5402 0
M  V30 9218 N 895.729 -0.261212 1.5542 0
M  V30 9219 C 896.957 -1.00916 1.8062 0
M  V30 9220 C 897.372 -1.79494 0.585444 0
M  V30 9221 O 896.729 -1.76974 -0.445702 0
M  V30 9222 C 896.78 -1.95841 3.03856 0
M  V30 9223 O 896.501 -1.20445 4.21218 0
M  V30 9224 C 898.002 -2.82352 3.41749 0
M  V30 9225 H 895.222 -0.297596 0.601397 0
M  V30 9226 H 897.766 -0.288427 2.02456 0
M  V30 9227 H 895.921 -2.63361 2.84112 0
M  V30 9228 H 896.335 -1.84528 4.90968 0
M  V30 9229 H 897.809 -3.44733 4.31118 0
M  V30 9230 H 898.286 -3.5273 2.61683 0
M  V30 9231 H 898.892 -2.20306 3.63793 0
M  V30 9232 N 897.207 -1.48554 -0.526253 0
M  V30 9233 C 898.455 -1.56452 -1.27935 0
M  V30 9234 C 898.776 -0.24184 -1.93495 0
M  V30 9235 O 898.046 0.736917 -1.81511 0
M  V30 9236 H 896.626 -0.576379 -0.47518 0
M  V30 9237 H 899.288 -1.85039 -0.612083 0
M  V30 9238 H 898.384 -2.34751 -2.05666 0
M  V30 9239 N 898.685 0.775411 -1.37205 0
M  V30 9240 C 899.617 1.89761 -1.28544 0
M  V30 9241 C 900.63 1.61542 -0.201996 0
M  V30 9242 O 901.819 1.72528 -0.457848 0
M  V30 9243 C 898.919 3.24904 -0.963885 0
M  V30 9244 C 898.092 3.80796 -2.15205 0
M  V30 9245 C 897.151 4.94407 -1.80135 0
M  V30 9246 O 896.177 5.10185 -2.52388 0
M  V30 9247 N 897.379 5.75722 -0.743298 0
M  V30 9248 H 900.144 1.97708 -2.25237 0
M  V30 9249 H 897.705 0.954348 -1.30782 0
M  V30 9250 H 899.697 3.9842 -0.710182 0
M  V30 9251 H 898.267 3.12483 -0.085632 0
M  V30 9252 H 897.487 2.99101 -2.56773 0
M  V30 9253 H 898.775 4.1487 -2.94552 0
M  V30 9254 H 898.173 5.65518 -0.143655 0
M  V30 9255 H 896.73 6.4948 -0.549446 0
M  V30 9256 N 900.163 1.21714 1.00117 0
M  V30 9257 C 901.093 1.00397 2.10815 0
M  V30 9258 C 902.074 -0.0723502 1.69946 0
M  V30 9259 O 903.259 0.0882398 1.93999 0
M  V30 9260 C 900.389 0.572001 3.42557 0
M  V30 9261 C 899.343 1.59331 3.97237 0
M  V30 9262 C 898.669 1.01746 5.2493 0
M  V30 9263 C 899.969 2.98117 4.28863 0
M  V30 9264 H 901.663 1.92983 2.28906 0
M  V30 9265 H 899.209 0.929273 1.10002 0
M  V30 9266 H 901.162 0.410018 4.19401 0
M  V30 9267 H 899.886 -0.38951 3.24269 0
M  V30 9268 H 898.545 1.74293 3.22518 0
M  V30 9269 H 898.193 0.0475491 5.02978 0
M  V30 9270 H 897.893 1.69969 5.62481 0
M  V30 9271 H 899.417 0.866881 6.04415 0
M  V30 9272 H 900.831 2.86578 4.96534 0
M  V30 9273 H 899.228 3.63389 4.77565 0
M  V30 9274 H 900.298 3.48674 3.36979 0
M  V30 9275 N 901.641 -1.19671 1.02551 0
M  V30 9276 C 902.871 -1.92952 0.738441 0
M  V30 9277 C 903.279 -1.75528 -0.706155 0
M  V30 9278 O 902.622 -1.0723 -1.49156 0
M  V30 9279 C 902.684 -3.45149 1.00562 0
M  V30 9280 C 902.348 -3.86341 2.44109 0
M  V30 9281 C 903.345 -3.91374 3.42231 0
M  V30 9282 C 901.03 -4.18076 2.7842 0
M  V30 9283 C 903.024 -4.27568 4.7272 0
M  V30 9284 C 900.711 -4.53943 4.0912 0
M  V30 9285 C 901.709 -4.58663 5.06081 0
M  V30 9286 O 901.397 -4.93701 6.3444 0
M  V30 9287 H 901.129 -0.619836 0.269776 0
M  V30 9288 H 903.683 -1.52852 1.37206 0
M  V30 9289 H 901.913 -3.85416 0.314849 0
M  V30 9290 H 903.602 -3.99664 0.708742 0
M  V30 9291 H 904.368 -3.67011 3.17061 0
M  V30 9292 H 900.247 -4.13589 2.03631 0
M  V30 9293 H 903.791 -4.31166 5.48399 0
M  V30 9294 H 899.688 -4.77764 4.34064 0
M  V30 9295 H 900.456 -5.11662 6.38862 0
M  V30 9296 N 903.119 -0.802921 -1.35613 0
M  V30 9297 C 904.082 -0.216422 -2.28176 0
M  V30 9298 C 905.082 0.594101 -1.49422 0
M  V30 9299 O 906.272 0.41312 -1.6923 0
M  V30 9300 C 903.404 0.698746 -3.33662 0
M  V30 9301 H 904.597 -1.03276 -2.81557 0
M  V30 9302 H 902.15 -0.573307 -1.45406 0
M  V30 9303 H 902.885 1.53891 -2.85461 0
M  V30 9304 H 902.67 0.119314 -3.91918 0
M  V30 9305 H 904.16 1.10354 -4.02755 0
M  V30 9306 N 904.597 1.47463 -0.556102 0
M  V30 9307 C 905.56 2.28478 0.181743 0
M  V30 9308 C 906.56 1.36886 0.843738 0
M  V30 9309 O 907.75 1.59527 0.69977 0
M  V30 9310 C 904.882 3.16534 1.26566 0
M  V30 9311 H 906.075 2.95182 -0.529892 0
M  V30 9312 H 903.628 1.53134 -0.313005 0
M  V30 9313 H 904.363 2.5452 2.00973 0
M  V30 9314 H 904.148 3.83939 0.795798 0
M  V30 9315 H 905.638 3.77579 1.78393 0
M  V30 9316 N 906.075 0.2925 1.54862 0
M  V30 9317 C 907.321 -0.312645 2.00983 0
M  V30 9318 C 907.676 -1.52174 1.17732 0
M  V30 9319 O 906.969 -1.90045 0.243581 0
M  V30 9320 C 907.163 -0.728674 3.49893 0
M  V30 9321 C 906.992 0.438562 4.47556 0
M  V30 9322 C 905.762 0.927885 4.96708 0
M  V30 9323 C 907.96 1.28076 4.98097 0
M  V30 9324 N 905.942 2.06277 5.78207 0
M  V30 9325 C 907.313 2.26326 5.77214 0
M  V30 9326 C 909.368 1.31211 4.803 0
M  V30 9327 C 908.071 3.27478 6.4043 0
M  V30 9328 C 910.097 2.31216 5.44328 0
M  V30 9329 C 909.459 3.28197 6.23271 0
M  V30 9330 H 905.558 -0.0790979 0.777989 0
M  V30 9331 H 908.142 0.420481 1.90105 0
M  V30 9332 H 906.313 -1.43099 3.61078 0
M  V30 9333 H 908.045 -1.31263 3.82821 0
M  V30 9334 H 904.8 0.504272 4.70908 0
M  V30 9335 H 905.224 2.63436 6.23643 0
M  V30 9336 H 909.866 0.576079 4.18857 0
M  V30 9337 H 907.584 4.02005 7.01012 0
M  V30 9338 H 911.17 2.34405 5.3249 0
M  V30 9339 H 910.05 4.04314 6.71937 0
M  V30 9340 N 907.553 -1.57587 0.0200696 0
M  V30 9341 C 908.778 -1.96124 -0.674547 0
M  V30 9342 C 909.203 -0.896068 -1.65385 0
M  V30 9343 O 908.561 0.143925 -1.80728 0
M  V30 9344 C 908.609 -3.3376 -1.36517 0
M  V30 9345 O 907.713 -3.29483 -2.48022 0
M  V30 9346 H 907.054 -0.639719 -0.177919 0
M  V30 9347 H 909.584 -2.04447 0.0792317 0
M  V30 9348 H 909.594 -3.69785 -1.72403 0
M  V30 9349 H 908.269 -4.10832 -0.647265 0
M  V30 9350 H 906.846 -3.05162 -2.14314 0
M  V30 9351 N 909.032 0.252966 -1.55557 0
M  V30 9352 C 910.448 0.60118 -1.47844 0
M  V30 9353 C 910.648 1.88612 -0.709055 0
M  V30 9354 O 909.704 2.51395 -0.235964 0
M  V30 9355 C 911.017 0.709539 -2.92209 0
M  V30 9356 C 912.565 0.802269 -3.02544 0
M  V30 9357 C 913.04 0.94224 -4.48203 0
M  V30 9358 N 914.531 1.00726 -4.52116 0
M  V30 9359 C 915.266 1.13472 -5.6206 0
M  V30 9360 N 914.762 1.22811 -6.81828 0
M  V30 9361 N 916.555 1.1674 -5.49844 0
M  V30 9362 H 908.706 -0.590635 -2.04023 0
M  V30 9363 H 910.969 -0.202986 -0.926013 0
M  V30 9364 H 910.675 -0.164505 -3.51315 0
M  V30 9365 H 910.549 1.58343 -3.42356 0
M  V30 9366 H 912.936 1.66677 -2.43522 0
M  V30 9367 H 913.017 -0.0966469 -2.55617 0
M  V30 9368 H 912.661 0.0823209 -5.07833 0
M  V30 9369 H 912.591 1.85611 -4.92805 0
M  V30 9370 H 915.082 0.946684 -3.6585 0
M  V30 9371 H 915.395 1.32426 -7.61369 0
M  V30 9372 H 913.74 1.19779 -6.84601 0
M  V30 9373 H 916.931 1.09089 -4.55211 0
M  V30 9374 H 917.104 1.26329 -6.35567 0
M  V30 9375 N 910.51 1.48831 0.518367 0
M  V30 9376 C 911.758 1.57128 1.27103 0
M  V30 9377 C 912.079 0.252098 1.93364 0
M  V30 9378 O 911.349 -0.727281 1.819 0
M  V30 9379 H 909.929 0.578891 0.472116 0
M  V30 9380 H 912.591 1.85361 0.602262 0
M  V30 9381 H 911.687 2.35838 2.04418 0
M  V30 9382 N 911.988 -0.768124 1.37614 0
M  V30 9383 C 912.918 -1.89537 1.36374 0
M  V30 9384 C 913.899 -1.68513 0.231803 0
M  V30 9385 O 915.084 -1.89318 0.432705 0
M  V30 9386 C 912.214 -3.26871 1.17358 0
M  V30 9387 C 911.168 -3.62466 2.27602 0
M  V30 9388 C 910.494 -4.9838 1.93705 0
M  V30 9389 C 911.794 -3.68841 3.69802 0
M  V30 9390 H 913.488 -1.90832 2.30702 0
M  V30 9391 H 911.034 -0.91672 1.11051 0
M  V30 9392 H 912.987 -4.05371 1.15119 0
M  V30 9393 H 911.711 -3.26018 0.194865 0
M  V30 9394 H 910.37 -2.86276 2.29002 0
M  V30 9395 H 910.018 -4.94071 0.943539 0
M  V30 9396 H 909.718 -5.23165 2.6753 0
M  V30 9397 H 911.242 -5.79276 1.93059 0
M  V30 9398 H 912.656 -4.37485 3.70513 0
M  V30 9399 H 911.053 -4.05126 4.42711 0
M  V30 9400 H 912.123 -2.69415 4.03167 0
M  V30 9401 N 913.466 -1.22244 -0.994698 0
M  V30 9402 C 914.743 -0.954459 -1.70732 0
M  V30 9403 C 915.123 0.530945 -2.04314 0
M  V30 9404 O 914.471 1.49851 -1.72502 0
M  V30 9405 C 914.681 -1.85016 -2.95922 0
M  V30 9406 C 916.029 -2.10517 -3.68738 0
M  V30 9407 O 917.053 -1.82449 -3.05926 0
M  V30 9408 O 915.912 -2.58044 -4.81742 0
M  V30 9409 H 913.006 -0.35879 -0.745116 0
M  V30 9410 H 915.552 -1.33221 -1.0512 0
M  V30 9411 H 914.324 -2.85498 -2.67594 0
M  V30 9412 H 913.947 -1.47388 -3.69273 0
M  V30 9413 N 914.944 1.19125 -1.03184 0
M  V30 9414 C 915.891 2.2245 -0.6152 0
M  V30 9415 C 916.861 1.61869 0.372502 0
M  V30 9416 O 918.046 1.88901 0.268491 0
M  V30 9417 C 915.186 3.45091 0.0248027 0
M  V30 9418 C 914.299 4.20044 -1.0093 0
M  V30 9419 C 913.434 5.30119 -0.338744 0
M  V30 9420 C 912.473 5.96833 -1.35855 0
M  V30 9421 N 911.61 6.98464 -0.713594 0
M  V30 9422 H 916.45 2.57445 -1.50086 0
M  V30 9423 H 913.987 1.26485 -0.751005 0
M  V30 9424 H 915.945 4.15149 0.413131 0
M  V30 9425 H 914.575 3.10742 0.874028 0
M  V30 9426 H 913.627 3.48901 -1.51566 0
M  V30 9427 H 914.939 4.65796 -1.78425 0
M  V30 9428 H 914.093 6.0661 0.104269 0
M  V30 9429 H 912.832 4.85446 0.468382 0
M  V30 9430 H 911.837 5.1909 -1.81179 0
M  V30 9431 H 913.062 6.4359 -2.16722 0
M  V30 9432 H 911.008 6.55959 0.0733863 0
M  V30 9433 H 910.925 7.42422 -1.42638 0
M  V30 9434 H 912.193 7.78943 -0.294681 0
M  V30 9435 N 916.422 0.810101 1.35185 0
M  V30 9436 C 917.662 0.397802 2.00492 0
M  V30 9437 C 918.026 -1.01684 1.62863 0
M  V30 9438 O 919.227 -1.53133 2.20916 0
M  V30 9439 C 917.498 0.579524 3.5267 0
M  V30 9440 S 919.057 0.258169 4.3804 0
M  V30 9441 H 915.875 0.150904 0.694801 0
M  V30 9442 H 918.477 1.05312 1.64711 0
M  V30 9443 H 917.181 1.60901 3.77543 0
M  V30 9444 H 916.712 -0.0909886 3.93295 0
M  V30 9445 H 918.727 -0.932882 4.87352 0
M  V30 9446 N 917.9 -1.47166 0.563914 0
M  V30 9447 C 919.13 -2.06546 0.0473599 0
M  V30 9448 C 919.538 -1.41607 -1.25476 0
M  V30 9449 O 918.881 -0.50894 -1.76509 0
M  V30 9450 C 918.943 -3.58873 -0.212249 0
M  V30 9451 C 918.607 -4.45893 1.00144 0
M  V30 9452 C 919.604 -4.83594 1.90873 0
M  V30 9453 C 917.289 -4.87309 1.218 0
M  V30 9454 C 919.283 -5.61519 3.01621 0
M  V30 9455 C 916.97 -5.64997 2.32856 0
M  V30 9456 C 917.968 -6.02013 3.22597 0
M  V30 9457 O 917.656 -6.78135 4.31727 0
M  V30 9458 H 917.388 -0.674441 0.0458823 0
M  V30 9459 H 919.942 -1.9006 0.778865 0
M  V30 9460 H 918.172 -3.73596 -0.998145 0
M  V30 9461 H 919.861 -4.00248 -0.675005 0
M  V30 9462 H 920.627 -4.52192 1.7535 0
M  V30 9463 H 916.506 -4.57959 0.528641 0
M  V30 9464 H 920.05 -5.90331 3.71693 0
M  V30 9465 H 915.947 -5.95813 2.48349 0
M  V30 9466 H 916.715 -6.96537 4.29859 0
M  V30 9467 N 919.378 -0.300708 -1.54705 0
M  V30 9468 C 920.341 0.562648 -2.22187 0
M  V30 9469 C 921.341 1.06152 -1.20782 0
M  V30 9470 O 922.531 0.957596 -1.45519 0
M  V30 9471 C 919.663 1.77899 -2.908 0
M  V30 9472 H 920.856 -0.0269361 -2.99888 0
M  V30 9473 H 918.409 -0.0515412 -1.56215 0
M  V30 9474 H 919.144 2.40841 -2.17177 0
M  V30 9475 H 918.929 1.42892 -3.65136 0
M  V30 9476 H 920.419 2.39236 -3.42281 0
M  V30 9477 N 920.856 1.57574 -0.0284266 0
M  V30 9478 C 922.104 1.91393 0.649079 0
M  V30 9479 C 922.425 0.905368 1.72708 0
M  V30 9480 O 921.695 -0.0532107 1.95828 0
M  V30 9481 H 920.275 0.70646 0.24274 0
M  V30 9482 H 922.937 1.94752 -0.076066 0
M  V30 9483 H 922.033 2.91988 1.10226 0
M  V30 9484 N 922.334 -0.244713 1.55689 0
M  V30 9485 C 923.58 -0.969623 1.78801 0
M  V30 9486 C 923.935 -1.8288 0.597716 0
M  V30 9487 O 923.228 -1.87184 -0.408978 0
M  V30 9488 C 923.422 -1.8617 3.05083 0
M  V30 9489 C 923.251 -1.09036 4.36281 0
M  V30 9490 C 922.021 -0.794585 4.99013 0
M  V30 9491 C 924.219 -0.466883 5.12176 0
M  V30 9492 N 922.201 0.000579944 6.139 0
M  V30 9493 C 923.572 0.192755 6.197 0
M  V30 9494 C 925.627 -0.377571 4.96466 0
M  V30 9495 C 924.33 0.933132 7.13222 0
M  V30 9496 C 926.356 0.349281 5.90368 0
M  V30 9497 C 925.718 0.997549 6.97301 0
M  V30 9498 H 921.817 -0.335845 0.70621 0
M  V30 9499 H 924.401 -0.242559 1.93183 0
M  V30 9500 H 922.572 -2.56077 2.92026 0
M  V30 9501 H 924.304 -2.52234 3.16481 0
M  V30 9502 H 921.059 -1.10691 4.60483 0
M  V30 9503 H 921.483 0.38632 6.75897 0
M  V30 9504 H 926.125 -0.86443 4.13869 0
M  V30 9505 H 923.843 1.43159 7.95318 0
M  V30 9506 H 927.429 0.419082 5.80289 0
M  V30 9507 H 926.309 1.551 7.68709 0
M  V30 9508 N 923.813 -1.49104 -0.510467 0
M  V30 9509 C 924.743 -1.67981 -1.62187 0
M  V30 9510 C 925.724 -0.528529 -1.6168 0
M  V30 9511 O 926.909 -0.763305 -1.7857 0
M  V30 9512 C 924.039 -1.73755 -3.0071 0
M  V30 9513 C 922.993 -2.88579 -3.1608 0
M  V30 9514 C 922.319 -2.79457 -4.5586 0
M  V30 9515 C 923.619 -4.29638 -2.97 0
M  V30 9516 H 925.313 -2.61029 -1.46643 0
M  V30 9517 H 922.859 -1.25615 -0.704042 0
M  V30 9518 H 924.812 -1.85548 -3.78352 0
M  V30 9519 H 923.536 -0.772996 -3.17321 0
M  V30 9520 H 922.195 -2.76372 -2.40861 0
M  V30 9521 H 921.843 -1.80929 -4.69333 0
M  V30 9522 H 921.543 -3.56518 -4.67086 0
M  V30 9523 H 923.067 -2.93245 -5.35574 0
M  V30 9524 H 924.481 -4.42575 -3.64418 0
M  V30 9525 H 922.878 -5.07847 -3.19704 0
M  V30 9526 H 923.948 -4.44741 -1.93219 0
M  V30 9527 N 925.291 0.760815 -1.38019 0
M  V30 9528 C 926.254 1.85604 -1.34476 0
M  V30 9529 C 927.254 1.58897 -0.24666 0
M  V30 9530 O 928.444 1.66776 -0.50314 0
M  V30 9531 C 925.576 3.22945 -1.09176 0
M  V30 9532 H 926.769 1.90155 -2.31908 0
M  V30 9533 H 924.322 0.961746 -1.23208 0
M  V30 9534 H 925.057 3.24066 -0.123216 0
M  V30 9535 H 924.842 3.43723 -1.88672 0
M  V30 9536 H 926.332 4.03022 -1.09375 0
M  V30 9537 N 926.769 1.22769 0.988202 0
M  V30 9538 C 928.046 0.9635 1.70223 0
M  V30 9539 C 928.426 -0.520102 2.04593 0
M  V30 9540 O 927.774 -1.48934 1.73295 0
M  V30 9541 C 927.984 1.86583 2.94937 0
M  V30 9542 C 929.332 2.12469 3.67616 0
M  V30 9543 O 930.356 1.84069 3.04954 0
M  V30 9544 O 929.215 2.60595 4.80367 0
M  V30 9545 H 926.309 0.362737 0.743203 0
M  V30 9546 H 928.855 1.33776 1.04412 0
M  V30 9547 H 927.627 2.86913 2.66077 0
M  V30 9548 H 927.25 1.49344 3.68486 0
M  V30 9549 N 928.247 -1.18576 1.03814 0
M  V30 9550 C 929.495 -1.88121 0.738574 0
M  V30 9551 C 929.816 -1.80587 -0.735744 0
M  V30 9552 O 929.086 -1.22251 -1.53074 0
M  V30 9553 H 927.666 -0.696417 0.270208 0
M  V30 9554 H 930.328 -1.43912 1.31435 0
M  V30 9555 H 929.424 -2.94222 1.04115 0
M  V30 9556 N 929.725 -0.817259 -1.34754 0
M  V30 9557 C 930.95 -0.414423 -2.03217 0
M  V30 9558 C 931.375 0.970037 -1.61158 0
M  V30 9559 O 930.733 1.63016 -0.793436 0
M  V30 9560 C 930.781 -0.518087 -3.56859 0
M  V30 9561 O 929.885 0.464314 -4.09778 0
M  V30 9562 H 929.226 -0.171454 -0.641482 0
M  V30 9563 H 931.756 -1.10611 -1.72123 0
M  V30 9564 H 931.766 -0.391779 -4.06115 0
M  V30 9565 H 930.441 -1.52786 -3.86819 0
M  V30 9566 H 929.018 0.297361 -3.71712 0
M  V30 9567 N 931.203 1.46865 -0.571711 0
M  V30 9568 C 932.133 2.3298 0.155795 0
M  V30 9569 C 933.114 1.44678 0.894553 0
M  V30 9570 O 934.299 1.73513 0.872176 0
M  V30 9571 C 931.429 3.26745 1.17708 0
M  V30 9572 C 930.383 4.24401 0.553863 0
M  V30 9573 C 929.709 5.07595 1.68083 0
M  V30 9574 C 931.009 5.19884 -0.501827 0
M  V30 9575 H 932.703 2.94056 -0.563176 0
M  V30 9576 H 930.249 1.41402 -0.27228 0
M  V30 9577 H 932.202 3.85838 1.6943 0
M  V30 9578 H 930.926 2.63753 1.92618 0
M  V30 9579 H 929.585 3.66554 0.057815 0
M  V30 9580 H 929.233 4.40996 2.41933 0
M  V30 9581 H 928.933 5.73722 1.26953 0
M  V30 9582 H 930.457 5.6955 2.20103 0
M  V30 9583 H 931.871 5.73257 -0.0701057 0
M  V30 9584 H 930.268 5.94293 -0.832815 0
M  V30 9585 H 931.338 4.64482 -1.39229 0
M  V30 9586 N 932.681 0.308908 1.54543 0
M  V30 9587 C 934.097 -0.0442273 1.59539 0
M  V30 9588 C 934.297 -1.51743 1.32575 0
M  V30 9589 O 933.353 -2.27134 1.10302 0
M  V30 9590 C 934.666 0.360826 2.98527 0
M  V30 9591 C 936.214 0.310252 3.11459 0
M  V30 9592 C 936.689 0.690246 4.52769 0
M  V30 9593 N 938.18 0.643084 4.58714 0
M  V30 9594 C 938.915 0.909483 5.66141 0
M  V30 9595 N 938.411 1.24226 6.81572 0
M  V30 9596 N 940.204 0.836018 5.55848 0
M  V30 9597 H 932.355 1.26893 1.70329 0
M  V30 9598 H 934.618 0.514986 0.795923 0
M  V30 9599 H 934.324 1.38669 3.23209 0
M  V30 9600 H 934.198 -0.281563 3.76148 0
M  V30 9601 H 936.585 -0.706375 2.86521 0
M  V30 9602 H 936.666 0.987373 2.35976 0
M  V30 9603 H 936.31 1.70472 4.78437 0
M  V30 9604 H 936.24 -0.00903075 5.26599 0
M  V30 9605 H 938.731 0.397138 3.75807 0
M  V30 9606 H 939.044 1.4313 7.5943 0
M  V30 9607 H 937.389 1.28038 6.83104 0
M  V30 9608 H 940.58 0.575637 4.64547 0
M  V30 9609 H 940.753 1.047 6.39486 0
M  V30 9610 N 934.159 -1.57557 0.0367827 0
M  V30 9611 C 935.389 -1.96134 -0.649225 0
M  V30 9612 C 935.797 -0.912279 -1.65753 0
M  V30 9613 O 935.14 0.113569 -1.83349 0
M  V30 9614 C 935.202 -3.30889 -1.40545 0
M  V30 9615 C 934.866 -4.53622 -0.554609 0
M  V30 9616 C 935.863 -5.19611 0.17331 0
M  V30 9617 C 933.548 -4.99907 -0.48976 0
M  V30 9618 C 935.542 -6.3021 0.95467 0
M  V30 9619 C 933.229 -6.10386 0.295299 0
M  V30 9620 C 934.227 -6.75398 1.01621 0
M  V30 9621 O 933.915 -7.83755 1.78839 0
M  V30 9622 H 933.647 -0.650662 -0.183344 0
M  V30 9623 H 936.201 -2.05179 0.0951512 0
M  V30 9624 H 934.431 -3.18356 -2.19513 0
M  V30 9625 H 936.12 -3.54315 -1.9803 0
M  V30 9626 H 936.886 -4.84819 0.132589 0
M  V30 9627 H 932.765 -4.49105 -1.04046 0
M  V30 9628 H 936.309 -6.80886 1.51789 0
M  V30 9629 H 932.206 -6.44616 0.33771 0
M  V30 9630 H 932.974 -8.0046 1.70898 0
M  V30 9631 N 935.637 0.236453 -1.55816 0
M  V30 9632 C 937.048 0.80468 -1.68469 0
M  V30 9633 C 937.399 1.85601 -0.636133 0
M  V30 9634 O 936.524 2.15323 0.215622 0
M  V30 9635 C 937.119 1.46634 -3.05424 0
M  V30 9636 C 935.678 1.98214 -3.19981 0
M  V30 9637 C 934.825 0.83695 -2.64368 0
M  V30 9638 H 937.776 0.0120647 -1.58695 0
M  V30 9639 H 937.797 2.33472 -3.00451 0
M  V30 9640 H 937.309 0.700931 -3.81718 0
M  V30 9641 H 935.41 2.77604 -2.4853 0
M  V30 9642 H 935.523 2.17235 -4.2702 0
M  V30 9643 H 933.887 1.24028 -2.22462 0
M  V30 9644 H 934.67 0.084451 -3.43196 0
M  V30 9645 N 937.115 1.49373 0.502552 0
M  V30 9646 C 938.364 1.58028 1.25339 0
M  V30 9647 C 938.677 0.271494 1.93707 0
M  V30 9648 O 939.883 0.236584 2.70467 0
M  V30 9649 C 938.339 2.78817 2.27572 0
M  V30 9650 C 937.947 4.16448 1.65151 0
M  V30 9651 C 939.691 2.96802 3.03494 0
M  V30 9652 C 937.598 5.28461 2.65486 0
M  V30 9653 H 936.528 0.588396 0.471494 0
M  V30 9654 H 939.179 1.75756 0.52744 0
M  V30 9655 H 937.561 2.5458 3.03323 0
M  V30 9656 H 938.735 4.50816 0.954029 0
M  V30 9657 H 937.05 4.03809 1.01625 0
M  V30 9658 H 939.647 3.77656 3.78524 0
M  V30 9659 H 939.99 2.07303 3.61014 0
M  V30 9660 H 940.523 3.21071 2.34858 0
M  V30 9661 H 937.262 6.20015 2.12749 0
M  V30 9662 H 936.782 4.9855 3.33479 0
M  V30 9663 H 938.461 5.5773 3.27943 0
M  V30 9664 N 938.594 -0.753485 1.38421 0
M  V30 9665 C 939.84 -1.51485 1.34834 0
M  V30 9666 C 940.173 -1.94102 -0.0615381 0
M  V30 9667 O 939.448 -1.65439 -1.02274 0
M  V30 9668 C 939.731 -2.76736 2.30411 0
M  V30 9669 C 939.584 -2.40256 3.80259 0
M  V30 9670 C 940.903 -3.7876 2.24119 0
M  V30 9671 H 938.022 -0.549534 0.491102 0
M  V30 9672 H 940.664 -0.863006 1.6927 0
M  V30 9673 H 938.814 -3.32357 2.01175 0
M  V30 9674 H 940.486 -1.90409 4.20169 0
M  V30 9675 H 938.729 -1.72714 3.97935 0
M  V30 9676 H 939.4 -3.29869 4.42595 0
M  V30 9677 H 941.876 -3.32679 2.49928 0
M  V30 9678 H 940.752 -4.64092 2.93104 0
M  V30 9679 H 941.013 -4.24352 1.24006 0
M  V30 9680 N 940.072 -1.23292 -0.981677 0
M  V30 9681 C 941.3 -1.09088 -1.75805 0
M  V30 9682 C 941.715 0.357746 -1.8538 0
M  V30 9683 O 941.072 1.24751 -1.33205 0
M  V30 9684 C 941.123 -1.70885 -3.1856 0
M  V30 9685 O 940.844 -3.10082 -3.09484 0
M  V30 9686 C 942.345 -1.62106 -4.12597 0
M  V30 9687 H 939.565 -0.38184 -0.55176 0
M  V30 9688 H 942.109 -1.63116 -1.23342 0
M  V30 9689 H 940.264 -1.20893 -3.68054 0
M  V30 9690 H 940.678 -3.40039 -3.99342 0
M  V30 9691 H 942.152 -2.10049 -5.10474 0
M  V30 9692 H 942.629 -0.579642 -4.35358 0
M  V30 9693 H 943.235 -2.11457 -3.69007 0
M  V30 9694 N 941.55 1.18024 -1.04442 0
M  V30 9695 C 942.961 1.69749 -0.777312 0
M  V30 9696 C 943.312 1.83234 0.701399 0
M  V30 9697 O 942.437 1.51452 1.54568 0
M  V30 9698 C 943.032 3.08321 -1.40441 0
M  V30 9699 C 941.591 3.57243 -1.18553 0
M  V30 9700 C 940.738 2.33695 -1.49271 0
M  V30 9701 H 943.689 1.02647 -1.21035 0
M  V30 9702 H 943.71 3.71787 -0.809628 0
M  V30 9703 H 943.222 2.98474 -2.48062 0
M  V30 9704 H 941.323 3.72379 -0.128221 0
M  V30 9705 H 941.436 4.40451 -1.88519 0
M  V30 9706 H 939.8 2.37792 -0.912526 0
M  V30 9707 H 940.583 2.26464 -2.5801 0
M  V30 9708 N 943.028 0.824394 1.34319 0
M  V30 9709 C 944.444 0.510336 1.51221 0
M  V30 9710 C 944.644 -0.965201 1.76879 0
M  V30 9711 O 943.7 -1.74961 1.82057 0
M  V30 9712 C 945.013 1.37114 2.6762 0
M  V30 9713 C 946.561 1.36842 2.81502 0
M  V30 9714 C 947.036 2.21374 4.00946 0
M  V30 9715 N 948.527 2.19005 4.08156 0
M  V30 9716 C 949.262 2.81159 4.99737 0
M  V30 9717 N 948.758 3.52309 5.96532 0
M  V30 9718 N 950.551 2.70706 4.9262 0
M  V30 9719 H 942.702 1.77976 1.15924 0
M  V30 9720 H 944.965 0.758503 0.568663 0
M  V30 9721 H 944.671 2.41905 2.55294 0
M  V30 9722 H 944.545 1.03689 3.62669 0
M  V30 9723 H 946.932 0.328284 2.93268 0
M  V30 9724 H 947.013 1.74265 1.87257 0
M  V30 9725 H 946.657 3.25437 3.8994 0
M  V30 9726 H 946.587 1.813 4.94407 0
M  V30 9727 H 949.078 1.67252 3.38874 0
M  V30 9728 H 949.391 3.96977 6.63045 0
M  V30 9729 H 947.736 3.56415 5.96652 0
M  V30 9730 H 950.927 2.14694 4.15962 0
M  V30 9731 H 951.1 3.19431 5.63798 0
M  V30 9732 N 944.506 -1.46559 0.579492 0
M  V30 9733 C 945.917 -1.8608 0.152052 0
M  V30 9734 C 946.268 -1.48346 -1.28405 0
M  V30 9735 O 945.393 -0.89685 -1.9694 0
M  V30 9736 C 945.988 -3.37729 0.269171 0
M  V30 9737 C 944.547 -3.76258 -0.103376 0
M  V30 9738 C 943.694 -2.70584 0.60659 0
M  V30 9739 H 946.645 -1.3776 0.787904 0
M  V30 9740 H 946.666 -3.77116 -0.506339 0
M  V30 9741 H 946.178 -3.65162 1.31448 0
M  V30 9742 H 944.279 -3.54443 -1.14895 0
M  V30 9743 H 944.392 -4.78335 0.270701 0
M  V30 9744 H 942.756 -2.54656 0.0471984 0
M  V30 9745 H 943.539 -3.00856 1.65349 0
M  V30 9746 N 945.984 -0.3171 -1.54377 0
M  V30 9747 C 946.947 0.53905 -2.22771 0
M  V30 9748 C 947.947 1.04865 -1.21901 0
M  V30 9749 O 949.137 0.942108 -1.46526 0
M  V30 9750 C 946.269 1.74804 -2.92671 0
M  V30 9751 H 947.462 -0.0587417 -2.99842 0
M  V30 9752 H 945.015 -0.068107 -1.56152 0
M  V30 9753 H 945.75 2.38524 -2.1972 0
M  V30 9754 H 945.535 1.39011 -3.66631 0
M  V30 9755 H 947.025 2.35592 -3.44799 0
M  V30 9756 N 947.462 1.57535 -0.0451378 0
M  V30 9757 C 948.702 1.9432 0.633955 0
M  V30 9758 C 949.066 0.922924 1.68363 0
M  V30 9759 O 950.267 1.17751 2.41636 0
M  V30 9760 C 948.538 3.35933 1.21999 0
M  V30 9761 S 950.097 3.94666 1.91793 0
M  V30 9762 H 946.915 0.679798 0.208318 0
M  V30 9763 H 949.517 1.95175 -0.112633 0
M  V30 9764 H 948.221 4.07993 0.443821 0
M  V30 9765 H 947.752 3.38559 2.00353 0
M  V30 9766 H 949.767 3.79401 3.19796 0
M  V30 9767 N 948.94 -0.228186 1.55939 0
M  V30 9768 C 950.188 -0.951668 1.78291 0
M  V30 9769 C 950.509 -1.85132 0.612474 0
M  V30 9770 O 949.779 -1.92356 -0.370942 0
M  V30 9771 H 948.359 -0.354388 0.657585 0
M  V30 9772 H 951.021 -0.241635 1.93396 0
M  V30 9773 H 950.117 -1.56239 2.70177 0
M  V30 9774 N 950.418 -1.49637 -0.494624 0
M  V30 9775 C 951.666 -1.5913 -1.24587 0
M  V30 9776 C 951.987 -0.282828 -1.92938 0
M  V30 9777 O 951.257 0.69825 -1.83034 0
M  V30 9778 H 949.837 -0.586329 -0.462847 0
M  V30 9779 H 952.499 -1.86296 -0.572696 0
M  V30 9780 H 951.595 -2.3906 -2.00641 0
M  V30 9781 N 951.896 0.746133 -1.38819 0
M  V30 9782 C 953.173 1.49652 -1.25951 0
M  V30 9783 C 953.553 2.10663 0.135833 0
M  V30 9784 O 952.901 1.97682 1.14604 0
M  V30 9785 C 953.111 2.5569 -2.37537 0
M  V30 9786 C 954.459 3.22385 -2.76321 0
M  V30 9787 O 955.483 2.65998 -2.36904 0
M  V30 9788 O 954.342 4.2439 -3.44319 0
M  V30 9789 H 951.436 0.664019 -0.492958 0
M  V30 9790 H 953.982 0.780908 -1.50665 0
M  V30 9791 H 952.754 2.08908 -3.30867 0
M  V30 9792 H 952.377 3.34823 -2.14427 0
M  V30 9793 N 953.375 1.23811 0.975125 0
M  V30 9794 C 954.322 1.02394 2.06843 0
M  V30 9795 C 955.292 -0.060337 1.6599 0
M  V30 9796 O 956.477 0.0928187 1.90574 0
M  V30 9797 C 953.617 0.626882 3.39359 0
M  V30 9798 C 952.73 1.78385 3.9345 0
M  V30 9799 C 951.865 1.33307 5.14201 0
M  V30 9800 C 950.904 2.46045 5.60471 0
M  V30 9801 N 950.041 2.01888 6.72448 0
M  V30 9802 H 954.881 1.95973 2.24496 0
M  V30 9803 H 952.418 0.976206 1.10039 0
M  V30 9804 H 954.376 0.377742 4.15486 0
M  V30 9805 H 953.006 -0.271907 3.21653 0
M  V30 9806 H 952.058 2.14685 3.14029 0
M  V30 9807 H 953.37 2.63122 4.23755 0
M  V30 9808 H 952.524 1.04237 5.97678 0
M  V30 9809 H 951.263 0.456143 4.85562 0
M  V30 9810 H 950.268 2.75884 4.75571 0
M  V30 9811 H 951.493 3.34283 5.91127 0
M  V30 9812 H 949.439 1.16583 6.45558 0
M  V30 9813 H 949.356 2.80182 7.02164 0
M  V30 9814 H 950.624 1.75937 7.59386 0
M  V30 9815 N 954.853 -1.17469 1.05066 0
M  V30 9816 C 956.264 -1.69334 0.786304 0
M  V30 9817 C 956.615 -1.83604 -0.691671 0
M  V30 9818 O 955.74 -1.52269 -1.53763 0
M  V30 9819 C 956.335 -3.07572 1.42074 0
M  V30 9820 C 954.894 -3.56609 1.20446 0
M  V30 9821 C 954.041 -2.329 1.50508 0
M  V30 9822 H 956.992 -1.02003 1.21577 0
M  V30 9823 H 957.013 -3.71352 0.829334 0
M  V30 9824 H 956.525 -2.97154 2.49642 0
M  V30 9825 H 954.626 -3.72306 0.147968 0
M  V30 9826 H 954.739 -4.39446 1.90852 0
M  V30 9827 H 953.103 -2.37305 0.925124 0
M  V30 9828 H 953.886 -2.25093 2.59207 0
M  V30 9829 N 956.331 -0.831506 -1.3388 0
M  V30 9830 C 957.579 -0.422837 -1.97627 0
M  V30 9831 C 957.9 1.01961 -1.6622 0
M  V30 9832 O 957.17 1.70916 -0.957323 0
M  V30 9833 H 955.75 -0.153365 -0.731087 0
M  V30 9834 H 958.412 -1.06284 -1.6337 0
M  V30 9835 H 957.508 -0.548858 -3.07236 0
M  V30 9836 N 957.809 1.4625 -0.587256 0
M  V30 9837 C 959.055 2.02662 -0.0746851 0
M  V30 9838 C 959.388 1.45723 1.28368 0
M  V30 9839 O 958.663 0.624062 1.84216 0
M  V30 9840 C 958.946 3.60097 -0.0138109 0
M  V30 9841 C 958.799 4.27412 -1.4014 0
M  V30 9842 C 960.118 4.34744 0.684491 0
M  V30 9843 H 957.237 0.736444 -0.0286144 0
M  V30 9844 H 959.879 1.74341 -0.755328 0
M  V30 9845 H 958.029 3.84357 0.56583 0
M  V30 9846 H 959.701 4.14401 -2.02656 0
M  V30 9847 H 957.944 3.86598 -1.96785 0
M  V30 9848 H 958.615 5.362 -1.31124 0
M  V30 9849 H 961.091 4.15657 0.192023 0
M  V30 9850 H 959.967 5.44468 0.696127 0
M  V30 9851 H 960.228 4.06132 1.74669 0
M  V30 9852 N 959.287 0.325282 1.54207 0
M  V30 9853 C 960.703 -0.0273036 1.59577 0
M  V30 9854 C 960.903 -1.50329 1.34177 0
M  V30 9855 O 959.959 -2.25951 1.12705 0
M  V30 9856 C 961.272 0.392468 2.98128 0
M  V30 9857 C 962.82 0.343269 3.11112 0
M  V30 9858 C 963.295 0.738229 4.52011 0
M  V30 9859 N 964.786 0.691701 4.58006 0
M  V30 9860 C 965.521 0.969479 5.65145 0
M  V30 9861 N 965.017 1.31448 6.80216 0
M  V30 9862 N 966.81 0.894926 5.5493 0
M  V30 9863 H 958.961 1.28692 1.68974 0
M  V30 9864 H 961.224 0.523399 0.790416 0
M  V30 9865 H 960.93 1.42089 3.2172 0
M  V30 9866 H 960.804 -0.241651 3.76425 0
M  V30 9867 H 963.191 -0.675946 2.87254 0
M  V30 9868 H 963.272 1.01235 2.34915 0
M  V30 9869 H 962.916 1.75537 4.76602 0
M  V30 9870 H 962.846 0.0468226 5.26579 0
M  V30 9871 H 965.337 0.436975 3.75365 0
M  V30 9872 H 965.65 1.51177 7.57869 0
M  V30 9873 H 963.995 1.35276 6.81708 0
M  V30 9874 H 967.186 0.624876 4.6391 0
M  V30 9875 H 967.359 1.11476 6.38339 0
M  V30 9876 N 960.765 -1.57509 0.0534917 0
M  V30 9877 C 961.993 -1.97098 -0.629298 0
M  V30 9878 C 962.408 -0.931128 -1.64242 0
M  V30 9879 O 961.765 0.0843866 -1.82305 0
M  V30 9880 C 961.816 -3.36767 -1.31415 0
M  V30 9881 O 961.537 -4.36766 -0.341599 0
M  V30 9882 C 963.038 -3.91127 -2.08649 0
M  V30 9883 H 960.258 -0.648611 -0.171886 0
M  V30 9884 H 962.802 -2.04145 0.120479 0
M  V30 9885 H 960.957 -3.30863 -2.01515 0
M  V30 9886 H 961.371 -5.1788 -0.830715 0
M  V30 9887 H 962.845 -4.91129 -2.51985 0
M  V30 9888 H 963.322 -3.26679 -2.9356 0
M  V30 9889 H 963.928 -4.00376 -1.43456 0
M  V30 9890 N 962.243 0.219913 -1.56058 0
M  V30 9891 C 963.489 0.945463 -1.79412 0
M  V30 9892 C 963.822 1.83922 -0.62341 0
M  V30 9893 O 963.097 1.90806 0.377256 0
M  V30 9894 C 963.38 1.783 -3.1286 0
M  V30 9895 C 963.233 0.915626 -4.40382 0
M  V30 9896 C 964.552 2.76045 -3.42764 0
M  V30 9897 H 961.671 0.342288 -0.652693 0
M  V30 9898 H 964.313 0.214235 -1.88788 0
M  V30 9899 H 962.463 2.40642 -3.04998 0
M  V30 9900 H 964.135 0.30882 -4.60265 0
M  V30 9901 H 962.378 0.221124 -4.33236 0
M  V30 9902 H 963.049 1.53607 -5.30197 0
M  V30 9903 H 965.525 2.23838 -3.50764 0
M  V30 9904 H 964.401 3.31748 -4.37304 0
M  V30 9905 H 964.662 3.53866 -2.65012 0
M  V30 9906 N 963.721 1.49897 0.486681 0
M  V30 9907 C 964.951 1.63599 1.2617 0
M  V30 9908 C 965.359 0.312365 1.86604 0
M  V30 9909 O 964.702 -0.713911 1.6926 0
M  V30 9910 C 964.764 2.65736 2.42125 0
M  V30 9911 C 964.428 4.09711 2.0245 0
M  V30 9912 C 965.425 4.9607 1.55596 0
M  V30 9913 C 963.11 4.55534 2.11647 0
M  V30 9914 C 965.104 6.26295 1.18462 0
M  V30 9915 C 962.791 5.85768 1.74124 0
M  V30 9916 C 963.789 6.70973 1.27608 0
M  V30 9917 O 963.477 7.98778 0.905991 0
M  V30 9918 H 963.209 0.55333 0.388332 0
M  V30 9919 H 965.763 1.96768 0.589195 0
M  V30 9920 H 963.993 2.27778 3.12497 0
M  V30 9921 H 965.682 2.68819 3.04123 0
M  V30 9922 H 966.448 4.61891 1.47925 0
M  V30 9923 H 962.327 3.8937 2.46803 0
M  V30 9924 H 965.871 6.92754 0.820839 0
M  V30 9925 H 961.768 6.19473 1.8145 0
M  V30 9926 H 962.536 8.11914 1.03621 0
M  V30 9927 N 965.199 -0.738761 1.39212 0
M  V30 9928 C 966.129 -1.86602 1.40364 0
M  V30 9929 C 967.11 -1.67984 0.267495 0
M  V30 9930 O 968.295 -1.88358 0.472765 0
M  V30 9931 C 965.425 -3.24308 1.24265 0
M  V30 9932 C 964.379 -3.57557 2.35239 0
M  V30 9933 C 963.705 -4.94159 2.04233 0
M  V30 9934 C 965.005 -3.60914 3.77543 0
M  V30 9935 H 966.699 -1.85896 2.34698 0
M  V30 9936 H 964.245 -0.892959 1.1297 0
M  V30 9937 H 966.198 -4.02838 1.23692 0
M  V30 9938 H 964.922 -3.25531 0.263974 0
M  V30 9939 H 963.581 -2.81354 2.35022 0
M  V30 9940 H 963.229 -4.91959 1.04813 0
M  V30 9941 H 962.929 -5.17373 2.78567 0
M  V30 9942 H 964.453 -5.7505 2.05303 0
M  V30 9943 H 965.867 -4.29528 3.79709 0
M  V30 9944 H 964.264 -3.95644 4.51205 0
M  V30 9945 H 965.334 -2.60803 4.08791 0
M  V30 9946 N 966.677 -1.24326 -0.968545 0
M  V30 9947 C 967.907 -1.10786 -1.74385 0
M  V30 9948 C 968.315 0.342503 -1.86074 0
M  V30 9949 O 967.658 1.24817 -1.34782 0
M  V30 9950 C 967.72 -1.67274 -3.18213 0
M  V30 9951 C 967.384 -3.1615 -3.29998 0
M  V30 9952 C 968.381 -4.13309 -3.15392 0
M  V30 9953 C 966.066 -3.56092 -3.54265 0
M  V30 9954 C 968.06 -5.48392 -3.24878 0
M  V30 9955 C 965.747 -4.91316 -3.63389 0
M  V30 9956 C 966.745 -5.87275 -3.48707 0
M  V30 9957 O 966.433 -7.20041 -3.57485 0
M  V30 9958 H 966.165 -0.387795 -0.553706 0
M  V30 9959 H 968.719 -1.64894 -1.22471 0
M  V30 9960 H 966.949 -1.07598 -3.71429 0
M  V30 9961 H 968.638 -1.49036 -3.77549 0
M  V30 9962 H 969.404 -3.83792 -2.96528 0
M  V30 9963 H 965.283 -2.81907 -3.6476 0
M  V30 9964 H 968.827 -6.23271 -3.13335 0
M  V30 9965 H 964.724 -5.20505 -3.81766 0
M  V30 9966 H 965.492 -7.27951 -3.74205 0
M  V30 9967 N 968.156 1.1691 -1.05688 0
M  V30 9968 C 969.567 1.68915 -0.795273 0
M  V30 9969 C 969.918 1.83968 0.681925 0
M  V30 9970 O 969.043 1.53083 1.52953 0
M  V30 9971 C 969.638 3.06814 -1.43703 0
M  V30 9972 C 968.197 3.55965 -1.22335 0
M  V30 9973 C 967.344 2.32099 -1.51741 0
M  V30 9974 H 970.295 1.01357 -1.22116 0
M  V30 9975 H 970.316 3.70907 -0.849016 0
M  V30 9976 H 969.828 2.95826 -2.51214 0
M  V30 9977 H 967.929 3.72222 -0.16771 0
M  V30 9978 H 968.042 4.38427 -1.9318 0
M  V30 9979 H 966.406 2.36811 -0.937696 0
M  V30 9980 H 967.189 2.23715 -2.60397 0
M  V30 9981 N 969.634 0.838594 1.33437 0
M  V30 9982 C 970.582 0.260158 2.31141 0
M  V30 9983 C 971.576 -0.607706 1.58124 0
M  V30 9984 O 972.782 -0.497298 1.72994 0
M  V30 9985 H 969.157 0.0654031 0.74915 0
M  V30 9986 H 971.128 1.09874 2.77435 0
M  V30 9987 C 969.877 -0.550234 3.43319 0
M  V30 9988 H 969.2 0.108262 3.99653 0
M  V30 9989 H 970.64 -0.920815 4.1388 0
M  V30 9990 C 969.099 -1.729 2.89149 0
M  V30 9991 O 969.629 -2.82769 2.85315 0
M  V30 9992 N 967.835 -1.5508 2.45761 0
M  V30 9993 H 967.382 -0.657055 2.49079 0
M  V30 9994 H 967.34 -2.34099 2.0987 0
M  V30 9995 N 971.112 -1.45937 0.595003 0
M  V30 9996 C 972.044 -2.28575 -0.169137 0
M  V30 9997 C 973.057 -1.39226 -0.843792 0
M  V30 9998 O 974.246 -1.63716 -0.711291 0
M  V30 9999 C 971.346 -3.14616 -1.25976 0
M  V30 10000 C 970.519 -4.32166 -0.67466 0
M  V30 10001 C 969.578 -4.99511 -1.65456 0
M  V30 10002 O 968.604 -5.56712 -1.18578 0
M  V30 10003 N 969.806 -4.97643 -2.98885 0
M  V30 10004 H 972.571 -2.94797 0.539908 0
M  V30 10005 H 970.132 -1.55985 0.433614 0
M  V30 10006 H 972.124 -3.56534 -1.91483 0
M  V30 10007 H 970.694 -2.50387 -1.8715 0
M  V30 10008 H 969.914 -3.93882 0.158184 0
M  V30 10009 H 971.202 -5.08116 -0.263753 0
M  V30 10010 H 970.6 -4.52438 -3.39583 0
M  V30 10011 H 969.157 -5.43463 -3.59848 0
M  V30 10012 N 972.59 -0.333456 -1.54032 0
M  V30 10013 C 973.818 0.267813 -2.05159 0
M  V30 10014 C 974.233 1.4501 -1.20903 0
M  V30 10015 O 973.59 1.80888 -0.241994 0
M  V30 10016 C 973.641 0.69268 -3.54802 0
M  V30 10017 O 973.362 -0.442579 -4.35859 0
M  V30 10018 C 974.863 1.35572 -4.2206 0
M  V30 10019 H 972.083 0.0534924 -0.668864 0
M  V30 10020 H 974.627 -0.482515 -1.98726 0
M  V30 10021 H 972.782 1.39297 -3.6149 0
M  V30 10022 H 973.196 -0.105915 -5.24393 0
M  V30 10023 H 974.67 1.60385 -5.28186 0
M  V30 10024 H 975.147 2.30614 -3.73783 0
M  V30 10025 H 975.753 0.697748 -4.19537 0
M  V30 10026 N 974.068 1.57479 -0.061844 0
M  V30 10027 C 975.316 1.92727 0.608336 0
M  V30 10028 C 975.637 0.941799 1.70749 0
M  V30 10029 O 974.907 -0.0116608 1.95897 0
M  V30 10030 H 973.487 0.71145 0.2277 0
M  V30 10031 H 976.149 1.94546 -0.117359 0
M  V30 10032 H 975.245 2.9426 1.04007 0
M  V30 10033 N 975.546 -0.211634 1.56173 0
M  V30 10034 C 976.476 -1.26533 1.96244 0
M  V30 10035 C 977.457 -1.48362 0.832028 0
M  V30 10036 O 978.642 -1.60378 1.0951 0
M  V30 10037 C 975.772 -2.61307 2.2877 0
M  V30 10038 C 974.726 -2.54119 3.44395 0
M  V30 10039 C 974.052 -3.93014 3.62552 0
M  V30 10040 C 975.352 -2.08046 4.79076 0
M  V30 10041 H 977.046 -0.932407 2.84511 0
M  V30 10042 H 974.592 -0.447084 1.36884 0
M  V30 10043 H 976.545 -3.35188 2.55396 0
M  V30 10044 H 975.269 -2.96307 1.37367 0
M  V30 10045 H 973.928 -1.82694 3.17834 0
M  V30 10046 H 973.576 -4.25338 2.68508 0
M  V30 10047 H 973.276 -3.89083 4.40327 0
M  V30 10048 H 974.8 -4.68542 3.91537 0
M  V30 10049 H 976.214 -2.71676 5.04842 0
M  V30 10050 H 974.611 -2.15154 5.60204 0
M  V30 10051 H 975.681 -1.03306 4.73768 0
M  V30 10052 N 977.024 -1.50153 -0.478725 0
M  V30 10053 C 978.435 -1.53706 -1.05978 0
M  V30 10054 C 978.786 -0.336112 -1.933 0
M  V30 10055 O 977.911 0.551803 -2.09246 0
M  V30 10056 C 978.506 -2.78541 -1.92874 0
M  V30 10057 C 977.065 -2.848 -2.46102 0
M  V30 10058 C 976.212 -2.47902 -1.24257 0
M  V30 10059 H 979.163 -1.56528 -0.261664 0
M  V30 10060 H 979.184 -2.59964 -2.77847 0
M  V30 10061 H 978.696 -3.6593 -1.29293 0
M  V30 10062 H 976.797 -2.01744 -3.13257 0
M  V30 10063 H 976.91 -3.87511 -2.81731 0
M  V30 10064 H 975.274 -2.0017 -1.57493 0
M  V30 10065 H 976.057 -3.3759 -0.62351 0
M  V30 10066 N 978.502 0.731368 -1.39602 0
M  V30 10067 C 979.779 1.48308 -1.27531 0
M  V30 10068 C 980.159 2.10795 0.113482 0
M  V30 10069 O 979.507 1.98886 1.12501 0
M  V30 10070 C 979.717 2.53156 -2.40235 0
M  V30 10071 C 981.065 3.19436 -2.79725 0
M  V30 10072 O 982.089 2.6347 -2.39712 0
M  V30 10073 O 980.948 4.20714 -3.48801 0
M  V30 10074 H 978.042 0.658753 -0.499973 0
M  V30 10075 H 980.588 0.764884 -1.51485 0
M  V30 10076 H 979.36 2.05387 -3.33064 0
M  V30 10077 H 978.983 3.3253 -2.17966 0
M  V30 10078 N 979.98 1.24838 0.961938 0
M  V30 10079 C 981.391 1.08369 1.5203 0
M  V30 10080 C 981.742 -0.343005 1.93178 0
M  V30 10081 O 980.867 -1.2321 1.779 0
M  V30 10082 C 981.462 1.96102 2.76278 0
M  V30 10083 C 980.021 1.8384 3.28451 0
M  V30 10084 C 979.168 1.9069 2.01327 0
M  V30 10085 H 982.119 1.38231 0.779613 0
M  V30 10086 H 982.14 1.4967 3.49827 0
M  V30 10087 H 981.652 2.99931 2.46298 0
M  V30 10088 H 979.753 0.828653 3.63269 0
M  V30 10089 H 979.866 2.68251 3.96961 0
M  V30 10090 H 978.23 1.34488 2.16299 0
M  V30 10091 H 979.013 2.96111 1.73705 0
M  V30 10092 N 981.458 -1.16348 1.06306 0
M  V30 10093 C 982.388 -2.2291 0.695234 0
M  V30 10094 C 983.369 -1.67208 -0.312343 0
M  V30 10095 O 984.554 -1.93293 -0.187442 0
M  V30 10096 C 981.684 -3.47205 0.0810149 0
M  V30 10097 C 980.638 -4.15801 1.01458 0
M  V30 10098 C 979.964 -5.3405 0.263656 0
M  V30 10099 C 981.264 -4.66766 2.34365 0
M  V30 10100 H 982.958 -2.53934 1.58613 0
M  V30 10101 H 980.504 -1.22056 0.76409 0
M  V30 10102 H 982.457 -4.2098 -0.18818 0
M  V30 10103 H 981.181 -3.15482 -0.844897 0
M  V30 10104 H 979.84 -3.43954 1.26852 0
M  V30 10105 H 979.488 -4.9858 -0.665378 0
M  V30 10106 H 979.188 -5.80885 0.88582 0
M  V30 10107 H 980.712 -6.106 0.00200994 0
M  V30 10108 H 982.126 -5.3212 2.13356 0
M  V30 10109 H 980.523 -5.24223 2.9208 0
M  V30 10110 H 981.593 -3.82969 2.97426 0
M  V30 10111 N 982.937 -0.845659 -1.3299 0
M  V30 10112 C 984.162 -0.457435 -2.02293 0
M  V30 10113 C 984.587 0.935634 -1.63179 0
M  V30 10114 O 983.945 1.61297 -0.827835 0
M  V30 10115 C 983.993 -0.593665 -3.5568 0
M  V30 10116 O 983.097 0.37729 -4.10671 0
M  V30 10117 H 982.438 -0.185022 -0.637701 0
M  V30 10118 H 984.968 -1.14237 -1.69738 0
M  V30 10119 H 984.978 -0.477834 -4.05192 0
M  V30 10120 H 983.653 -1.60957 -3.83491 0
M  V30 10121 H 982.23 0.218448 -3.7226 0
M  V30 10122 N 984.415 1.45619 -0.602734 0
M  V30 10123 C 985.831 1.57368 -0.26599 0
M  V30 10124 C 986.031 1.59485 1.23154 0
M  V30 10125 O 985.087 1.52254 2.01432 0
M  V30 10126 C 986.4 2.85863 -0.932881 0
M  V30 10127 C 987.948 2.9953 -0.908344 0
M  V30 10128 C 988.423 4.30789 -1.55515 0
M  V30 10129 N 989.914 4.37536 -1.52042 0
M  V30 10130 C 990.649 5.37758 -1.99008 0
M  V30 10131 N 990.145 6.44544 -2.54038 0
M  V30 10132 N 991.938 5.29085 -1.89805 0
M  V30 10133 H 984.089 1.42489 -1.57514 0
M  V30 10134 H 986.352 0.680948 -0.659556 0
M  V30 10135 H 986.058 2.90183 -1.98713 0
M  V30 10136 H 985.932 3.74467 -0.453209 0
M  V30 10137 H 988.319 2.9478 0.137344 0
M  V30 10138 H 988.4 2.12349 -1.42623 0
M  V30 10139 H 988.044 4.36297 -2.60014 0
M  V30 10140 H 987.974 5.16778 -1.01232 0
M  V30 10141 H 990.465 3.60972 -1.11837 0
M  V30 10142 H 990.778 7.17258 -2.87682 0
M  V30 10143 H 989.123 6.45308 -2.58075 0
M  V30 10144 H 992.314 4.44566 -1.46556 0
M  V30 10145 H 992.487 6.07043 -2.26722 0
M  V30 10146 N 985.893 0.34162 1.53853 0
M  V30 10147 C 986.843 -0.531995 2.21707 0
M  V30 10148 C 987.827 -1.06759 1.2038 0
M  V30 10149 O 989.019 -1.00161 1.45934 0
M  V30 10150 C 986.148 -1.6834 2.99193 0
M  V30 10151 C 985.234 -1.16184 4.07875 0
M  V30 10152 N 985.625 -0.361348 5.04508 0
M  V30 10153 C 983.923 -1.43891 4.22151 0
M  V30 10154 C 984.624 -0.0785378 5.81647 0
M  V30 10155 N 983.6 -0.669651 5.3946 0
M  V30 10156 H 987.402 0.0866825 2.93772 0
M  V30 10157 H 984.916 0.148386 1.61721 0
M  V30 10158 H 986.913 -2.32121 3.46303 0
M  V30 10159 H 985.573 -2.30538 2.28653 0
M  V30 10160 H 986.584 -0.00259906 5.179 0
M  V30 10161 H 983.261 -2.06542 3.62832 0
M  V30 10162 H 984.651 0.567068 6.69503 0
M  V30 10163 N 987.371 -1.57444 0.0701946 0
M  V30 10164 C 988.321 -2.09154 -0.90767 0
M  V30 10165 C 989.305 -1.00087 -1.25982 0
M  V30 10166 O 990.497 -1.26397 -1.23906 0
M  V30 10167 C 987.626 -2.65544 -2.17581 0
M  V30 10168 C 986.712 -3.81613 -1.85021 0
M  V30 10169 N 987.103 -4.90641 -1.22904 0
M  V30 10170 C 985.401 -3.90878 -2.1478 0
M  V30 10171 C 986.102 -5.71511 -1.084 0
M  V30 10172 N 985.078 -5.1973 -1.59318 0
M  V30 10173 H 988.88 -2.90839 -0.423051 0
M  V30 10174 H 986.394 -1.61848 -0.13374 0
M  V30 10175 H 988.391 -3.00904 -2.88552 0
M  V30 10176 H 987.051 -1.85304 -2.66632 0
M  V30 10177 H 988.062 -5.1004 -0.898878 0
M  V30 10178 H 984.739 -3.21611 -2.66219 0
M  V30 10179 H 986.129 -6.69214 -0.600183 0
M  V30 10180 N 988.849 0.203349 -1.56283 0
M  V30 10181 C 989.812 1.23566 -1.93039 0
M  V30 10182 C 990.812 1.38869 -0.810687 0
M  V30 10183 O 992.002 1.36822 -1.07821 0
M  V30 10184 C 989.134 2.60645 -2.1972 0
M  V30 10185 H 990.327 0.921692 -2.85385 0
M  V30 10186 H 987.88 0.44453 -1.49845 0
M  V30 10187 H 988.615 2.9711 -1.29985 0
M  V30 10188 H 988.4 2.50911 -3.01307 0
M  V30 10189 H 989.89 3.35103 -2.4919 0
M  V30 10190 N 990.327 1.50405 0.470755 0
M  V30 10191 C 991.574 1.61411 1.22281 0
M  V30 10192 C 991.902 0.314603 1.91939 0
M  V30 10193 O 991.157 -0.699531 1.82771 0
M  V30 10194 C 991.456 2.74426 2.28965 0
M  V30 10195 C 991.122 4.14896 1.76557 0
M  V30 10196 C 989.784 4.53116 1.61985 0
M  V30 10197 C 992.136 5.02686 1.3768 0
M  V30 10198 C 989.464 5.76868 1.0696 0
M  V30 10199 C 991.816 6.26985 0.840967 0
M  V30 10200 C 990.48 6.64008 0.68188 0
M  V30 10201 H 989.75 0.590645 0.447459 0
M  V30 10202 H 992.397 1.84339 0.518783 0
M  V30 10203 H 990.702 2.45588 3.05277 0
M  V30 10204 H 992.399 2.80146 2.86914 0
M  V30 10205 H 988.989 3.84743 1.88867 0
M  V30 10206 H 993.173 4.7379 1.47772 0
M  V30 10207 H 988.429 6.04227 0.933808 0
M  V30 10208 H 992.603 6.94372 0.531066 0
M  V30 10209 H 990.23 7.59778 0.25335 0
M  V30 10210 N 991.805 -0.723954 1.39988 0
M  V30 10211 C 993.045 -1.49624 1.39255 0
M  V30 10212 C 993.409 -1.91998 -0.00860198 0
M  V30 10213 O 994.61 -2.6843 -0.141002 0
M  V30 10214 C 992.881 -2.69514 2.34728 0
M  V30 10215 S 994.44 -3.59027 2.5228 0
M  V30 10216 H 991.258 -0.511661 0.493685 0
M  V30 10217 H 993.86 -0.847322 1.76184 0
M  V30 10218 H 992.564 -2.36541 3.35375 0
M  V30 10219 H 992.095 -3.39325 1.99053 0
M  V30 10220 H 994.11 -4.63597 1.76896 0
M  V30 10221 N 993.283 -1.25346 -0.955304 0
M  V30 10222 C 994.53 -1.10055 -1.69983 0
M  V30 10223 C 994.858 0.358586 -1.91166 0
M  V30 10224 O 994.113 1.28071 -1.47974 0
M  V30 10225 C 994.412 -1.7993 -3.08804 0
M  V30 10226 C 994.078 -3.29851 -3.07424 0
M  V30 10227 C 992.74 -3.7075 -3.06754 0
M  V30 10228 C 995.092 -4.25636 -3.00805 0
M  V30 10229 C 992.42 -5.05847 -2.97214 0
M  V30 10230 C 994.772 -5.60756 -2.92806 0
M  V30 10231 C 993.436 -6.00984 -2.90472 0
M  V30 10232 H 992.706 -0.402718 -0.622012 0
M  V30 10233 H 995.353 -1.5561 -1.11614 0
M  V30 10234 H 993.658 -1.26803 -3.70713 0
M  V30 10235 H 995.355 -1.65551 -3.65231 0
M  V30 10236 H 991.945 -2.97308 -3.08716 0
M  V30 10237 H 996.129 -3.9503 -3.00441 0
M  V30 10238 H 991.385 -5.36196 -2.93775 0
M  V30 10239 H 995.559 -6.34671 -2.86645 0
M  V30 10240 H 993.186 -7.05626 -2.82835 0
M  V30 10241 N 994.761 1.15782 -1.06922 0
M  V30 10242 C 996.177 1.38454 -0.793896 0
M  V30 10243 C 996.377 1.92238 0.603875 0
M  V30 10244 O 995.433 2.1253 1.36335 0
M  V30 10245 C 996.746 2.3595 -1.86408 0
M  V30 10246 C 998.294 2.49622 -1.88833 0
M  V30 10247 C 998.769 3.50406 -2.94923 0
M  V30 10248 N 1000.26 3.57938 -2.93997 0
M  V30 10249 C 1001 4.35728 -3.72731 0
M  V30 10250 N 1000.49 5.16888 -4.61301 0
M  V30 10251 N 1002.28 4.30774 -3.61096 0
M  V30 10252 H 994.435 0.792101 -1.97077 0
M  V30 10253 H 996.698 0.410779 -0.85438 0
M  V30 10254 H 996.404 2.03537 -2.86819 0
M  V30 10255 H 996.278 3.35677 -1.72049 0
M  V30 10256 H 998.665 2.81335 -0.890759 0
M  V30 10257 H 998.746 1.49909 -2.0727 0
M  V30 10258 H 998.39 3.19429 -3.94877 0
M  V30 10259 H 998.32 4.49864 -2.73734 0
M  V30 10260 H 1000.81 3.00007 -2.29791 0
M  V30 10261 H 1001.12 5.73477 -5.18019 0
M  V30 10262 H 999.469 5.16209 -4.65353 0
M  V30 10263 H 1002.66 3.66432 -2.91282 0
M  V30 10264 H 1002.83 4.91151 -4.22699 0
M  V30 10265 N 996.239 0.8527 1.3254 0
M  V30 10266 C 997.487 0.454224 1.96929 0
M  V30 10267 C 997.808 -0.993034 1.67821 0
M  V30 10268 O 997.078 -1.69371 0.984393 0
M  V30 10269 H 995.658 0.164977 0.728554 0
M  V30 10270 H 998.32 1.0887 1.61658 0
M  V30 10271 H 997.416 0.597667 3.06324 0
M  V30 10272 N 997.718 -1.45297 0.610449 0
M  V30 10273 C 998.967 -2.0143 0.104323 0
M  V30 10274 C 999.28 -1.48431 -1.27388 0
M  V30 10275 O 1000.49 -1.96558 -1.87289 0
M  V30 10276 C 998.942 -3.59644 0.135812 0
M  V30 10277 C 998.55 -4.2164 1.51405 0
M  V30 10278 C 1000.29 -4.2333 -0.314922 0
M  V30 10279 C 998.201 -5.72015 1.50176 0
M  V30 10280 H 997.131 -0.753176 0.035233 0
M  V30 10281 H 999.782 -1.66738 0.7662 0
M  V30 10282 H 998.164 -3.91538 -0.592773 0
M  V30 10283 H 999.338 -4.01315 2.26457 0
M  V30 10284 H 997.653 -3.70159 1.90712 0
M  V30 10285 H 1000.25 -5.33597 -0.343335 0
M  V30 10286 H 1000.59 -3.94206 -1.33817 0
M  V30 10287 H 1001.13 -3.96163 0.360489 0
M  V30 10288 H 997.865 -6.05842 2.50271 0
M  V30 10289 H 997.385 -5.94523 0.793869 0
M  V30 10290 H 999.064 -6.35266 1.22665 0
M  V30 10291 N 999.196 -0.349774 -1.5367 0
M  V30 10292 C 1000.42 0.248692 -2.05904 0
M  V30 10293 C 1000.85 1.42942 -1.22267 0
M  V30 10294 O 1000.2 1.79732 -0.237899 0
M  V30 10295 C 1000.25 0.635639 -3.54953 0
M  V30 10296 O 999.356 1.7349 -3.74132 0
M  V30 10297 H 998.697 0.0399477 -0.662797 0
M  V30 10298 H 1001.23 -0.505795 -1.9825 0
M  V30 10299 H 1001.24 0.911064 -3.97698 0
M  V30 10300 H 999.912 -0.227805 -4.15276 0
M  V30 10301 H 998.489 1.45626 -3.43289 0
M  V30 10302 N 1000.67 1.57404 -0.0785433 0
M  V30 10303 C 1001.64 2.11977 0.871693 0
M  V30 10304 C 1002.64 1.04529 1.2219 0
M  V30 10305 O 1003.83 1.30488 1.15406 0
M  V30 10306 C 1000.96 2.6267 2.17296 0
M  V30 10307 H 1002.15 2.97246 0.398115 0
M  V30 10308 H 999.705 1.5537 0.170251 0
M  V30 10309 H 1000.44 1.80873 2.69175 0
M  V30 10310 H 1000.22 3.41214 1.93171 0
M  V30 10311 H 1001.71 3.04943 2.85306 0
M  V30 10312 N 1002.15 -0.195058 1.56388 0
M  V30 10313 C 1003.4 -0.9168 1.80894 0
M  V30 10314 C 1003.73 -1.82907 0.652592 0
M  V30 10315 O 1003.01 -1.91382 -0.346853 0
M  V30 10316 C 1003.29 -1.733 3.15657 0
M  V30 10317 C 1003.14 -0.845449 4.41783 0
M  V30 10318 C 1004.46 -2.70557 3.47112 0
M  V30 10319 H 1001.58 -0.331861 0.658056 0
M  V30 10320 H 1004.22 -0.184174 1.89105 0
M  V30 10321 H 1002.37 -2.3576 3.08787 0
M  V30 10322 H 1004.04 -0.235557 4.60698 0
M  V30 10323 H 1002.29 -0.152172 4.33533 0
M  V30 10324 H 1002.96 -1.45152 5.32574 0
M  V30 10325 H 1005.43 -2.1823 3.54281 0
M  V30 10326 H 1004.31 -3.24749 4.42526 0
M  V30 10327 H 1004.57 -3.49605 2.70608 0
M  V30 10328 N 1003.63 -1.50653 -0.462772 0
M  V30 10329 C 1005.04 -1.54821 -1.04342 0
M  V30 10330 C 1005.39 -0.356595 -1.92932 0
M  V30 10331 O 1004.52 0.529579 -2.0982 0
M  V30 10332 C 1005.11 -2.80571 -1.89909 0
M  V30 10333 C 1003.67 -2.87394 -2.43067 0
M  V30 10334 C 1002.82 -2.49206 -1.21621 0
M  V30 10335 H 1005.77 -1.56797 -0.245048 0
M  V30 10336 H 1005.79 -2.62897 -2.75074 0
M  V30 10337 H 1005.3 -3.67281 -1.25405 0
M  V30 10338 H 1003.4 -2.05055 -3.111 0
M  V30 10339 H 1003.52 -3.90477 -2.77605 0
M  V30 10340 H 1001.88 -2.01829 -1.55361 0
M  V30 10341 H 1002.66 -3.38233 -0.587669 0
M  V30 10342 N 1005.11 0.71652 -1.4037 0
M  V30 10343 C 1006.33 1.51069 -1.42102 0
M  V30 10344 C 1006.76 1.88087 -0.0222387 0
M  V30 10345 O 1006.12 1.53204 0.969448 0
M  V30 10346 C 1006.16 2.76307 -2.31704 0
M  V30 10347 O 1005.27 3.72975 -1.75964 0
M  V30 10348 H 1004.61 0.455502 -0.483129 0
M  V30 10349 H 1007.14 0.882514 -1.84588 0
M  V30 10350 H 1007.15 3.24846 -2.46859 0
M  V30 10351 H 1005.82 2.48698 -3.3335 0
M  V30 10352 H 1004.4 3.31818 -1.70151 0
M  V30 10353 N 1006.59 1.25851 0.948643 0
M  V30 10354 C 1008 1.09975 1.50872 0
M  V30 10355 C 1008.35 -0.322497 1.93531 0
M  V30 10356 O 1007.47 -1.21316 1.79197 0
M  V30 10357 C 1008.07 1.99021 2.74182 0
M  V30 10358 C 1006.63 1.87313 3.26483 0
M  V30 10359 C 1005.77 1.92815 1.99293 0
M  V30 10360 H 1008.73 1.3905 0.764908 0
M  V30 10361 H 1008.75 1.53372 3.4822 0
M  V30 10362 H 1008.26 3.02527 2.43103 0
M  V30 10363 H 1006.36 0.867136 3.62369 0
M  V30 10364 H 1006.47 2.72446 3.94094 0
M  V30 10365 H 1004.84 1.36774 2.1486 0
M  V30 10366 H 1005.62 2.97936 1.70554 0
M  V30 10367 N 1008.06 -1.15214 1.07534 0
M  V30 10368 C 1009.31 -1.85676 0.79805 0
M  V30 10369 C 1009.63 -1.82837 -0.677919 0
M  V30 10370 O 1008.9 -1.27059 -1.49107 0
M  V30 10371 H 1007.48 -0.687468 0.292227 0
M  V30 10372 H 1010.15 -1.39658 1.35947 0
M  V30 10373 H 1009.24 -2.9076 1.13423 0
M  V30 10374 N 1009.54 -0.859717 -1.32086 0
M  V30 10375 C 1010.45 -0.31108 -2.32528 0
M  V30 10376 C 1011.47 0.573714 -1.6427 0
M  V30 10377 O 1012.64 0.472878 -1.9577 0
M  V30 10378 C 1009.71 0.487256 -3.43259 0
M  V30 10379 C 1008.77 -0.424279 -4.27198 0
M  V30 10380 C 1008 0.336051 -5.32641 0
M  V30 10381 O 1008.23 1.56541 -5.48499 0
M  V30 10382 O 1007.16 -0.300777 -6.01148 0
M  V30 10383 H 1010.99 -1.14336 -2.81355 0
M  V30 10384 H 1008.57 -0.622794 -1.358 0
M  V30 10385 H 1010.45 0.940203 -4.10777 0
M  V30 10386 H 1009.13 1.29626 -2.96612 0
M  V30 10387 H 1008.04 -0.925509 -3.62471 0
M  V30 10388 H 1009.37 -1.1986 -4.77383 0
M  V30 10389 N 1011.02 1.44971 -0.618145 0
M  V30 10390 C 1011.93 2.34403 0.0960457 0
M  V30 10391 C 1012.95 1.51862 0.849355 0
M  V30 10392 O 1014.12 1.84632 0.804557 0
M  V30 10393 C 1011.19 3.29646 1.07397 0
M  V30 10394 C 1010.25 4.28095 0.321466 0
M  V30 10395 C 1009.48 5.18787 1.25281 0
M  V30 10396 O 1009.7 5.1313 2.49106 0
M  V30 10397 O 1008.64 5.97282 0.744156 0
M  V30 10398 H 1012.46 2.96898 -0.639176 0
M  V30 10399 H 1010.05 1.44529 -0.37837 0
M  V30 10400 H 1011.93 3.88307 1.63694 0
M  V30 10401 H 1010.61 2.69702 1.79004 0
M  V30 10402 H 1009.51 3.73019 -0.284223 0
M  V30 10403 H 1010.85 4.90923 -0.354315 0
M  V30 10404 N 1012.5 0.357919 1.53482 0
M  V30 10405 C 1013.41 -0.500273 2.29204 0
M  V30 10406 C 1014.42 -1.09936 1.3487 0
M  V30 10407 O 1015.6 -1.11195 1.67921 0
M  V30 10408 C 1012.67 -1.62828 3.06085 0
M  V30 10409 C 1011.73 -1.05751 4.16071 0
M  V30 10410 C 1010.96 -2.13176 4.89277 0
M  V30 10411 O 1011.18 -3.34153 4.62274 0
M  V30 10412 O 1010.12 -1.76663 5.7539 0
M  V30 10413 H 1013.94 0.115696 3.0348 0
M  V30 10414 H 1011.53 0.122527 1.48897 0
M  V30 10415 H 1013.41 -2.28427 3.54117 0
M  V30 10416 H 1012.08 -2.22979 2.34653 0
M  V30 10417 H 1010.99 -0.365642 3.72309 0
M  V30 10418 H 1012.32 -0.500661 4.89647 0
M  V30 10419 N 1013.98 -1.5736 0.0868897 0
M  V30 10420 C 1015.22 -1.9367 -0.577598 0
M  V30 10421 C 1015.55 -0.968844 -1.69229 0
M  V30 10422 O 1014.82 -0.0195061 -1.9589 0
M  V30 10423 H 1013.4 -0.714983 -0.216353 0
M  V30 10424 H 1016.06 -1.94335 0.148294 0
M  V30 10425 H 1015.15 -2.95877 -0.993128 0
M  V30 10426 N 1015.45 0.186762 -1.56489 0
M  V30 10427 C 1016.7 0.904063 -1.80752 0
M  V30 10428 C 1017.02 1.83443 -0.661343 0
M  V30 10429 O 1016.29 1.93272 0.319811 0
M  V30 10430 H 1014.87 0.336828 -0.66675 0
M  V30 10431 H 1017.54 0.190275 -1.93969 0
M  V30 10432 H 1016.63 1.49021 -2.74225 0
M  V30 10433 N 1016.93 1.50896 0.454776 0
M  V30 10434 C 1018.16 1.6648 1.22849 0
M  V30 10435 C 1018.58 0.354841 1.85435 0
M  V30 10436 O 1017.93 -0.664931 1.69956 0
M  V30 10437 C 1017.98 2.76787 2.32532 0
M  V30 10438 O 1017.7 4.02706 1.72509 0
M  V30 10439 C 1019.21 3.03488 3.23125 0
M  V30 10440 H 1016.43 0.559152 0.370932 0
M  V30 10441 H 1018.97 1.97215 0.540983 0
M  V30 10442 H 1017.12 2.48701 2.9703 0
M  V30 10443 H 1017.54 4.63834 2.44863 0
M  V30 10444 H 1019.01 3.84294 3.9626 0
M  V30 10445 H 1019.49 2.152 3.82865 0
M  V30 10446 H 1020.1 3.33167 2.64347 0
M  V30 10447 N 1018.41 -0.709066 1.40748 0
M  V30 10448 C 1019.82 -1.28847 1.35112 0
M  V30 10449 C 1020.17 -1.9618 0.0277149 0
M  V30 10450 O 1019.3 -1.97955 -0.874233 0
M  V30 10451 C 1019.89 -2.34306 2.44716 0
M  V30 10452 C 1018.45 -2.87856 2.4252 0
M  V30 10453 C 1017.6 -1.61723 2.25257 0
M  V30 10454 H 1020.55 -0.504742 1.50459 0
M  V30 10455 H 1020.57 -3.15297 2.12998 0
M  V30 10456 H 1020.08 -1.85271 3.41022 0
M  V30 10457 H 1018.18 -3.41103 1.49931 0
M  V30 10458 H 1018.3 -3.39205 3.38344 0
M  V30 10459 H 1016.66 -1.87032 1.7289 0
M  V30 10460 H 1017.44 -1.14703 3.23571 0
M  V30 10461 N 1019.89 -1.26353 -0.941956 0
M  V30 10462 C 1021.12 -1.14626 -1.72245 0
M  V30 10463 C 1021.53 0.298588 -1.86424 0
M  V30 10464 O 1020.89 1.2045 -1.37106 0
M  V30 10465 C 1020.94 -1.80933 -3.12963 0
M  V30 10466 O 1020.66 -3.19771 -2.99463 0
M  V30 10467 C 1022.16 -1.7515 -4.07231 0
M  V30 10468 H 1019.38 -0.3992 -0.539333 0
M  V30 10469 H 1021.93 -1.66958 -1.1809 0
M  V30 10470 H 1020.08 -1.32541 -3.64021 0
M  V30 10471 H 1020.5 -3.52571 -3.88322 0
M  V30 10472 H 1021.97 -2.26183 -5.03533 0
M  V30 10473 H 1022.45 -0.717855 -4.33294 0
M  V30 10474 H 1023.05 -2.2309 -3.62093 0
M  V30 10475 N 1021.37 1.14642 -1.08144 0
M  V30 10476 C 1022.59 1.90025 -0.830972 0
M  V30 10477 C 1023.02 1.77904 0.610879 0
M  V30 10478 O 1022.38 1.11735 1.42776 0
M  V30 10479 C 1022.42 3.38085 -1.25422 0
M  V30 10480 O 1021.53 4.10412 -0.404486 0
M  V30 10481 H 1020.87 0.591327 -0.302041 0
M  V30 10482 H 1023.4 1.4513 -1.44216 0
M  V30 10483 H 1023.41 3.88894 -1.23391 0
M  V30 10484 H 1022.08 3.46226 -2.30435 0
M  V30 10485 H 1020.66 3.69693 -0.487987 0
M  V30 10486 N 1022.85 0.866709 1.31628 0
M  V30 10487 C 1024.26 0.529032 1.79048 0
M  V30 10488 C 1024.61 -0.953871 1.71452 0
M  V30 10489 O 1023.73 -1.74462 1.28031 0
M  V30 10490 C 1024.33 0.953522 3.25105 0
M  V30 10491 C 1022.89 0.667554 3.70433 0
M  V30 10492 C 1022.03 1.14664 2.52483 0
M  V30 10493 H 1024.98 1.05275 1.18756 0
M  V30 10494 H 1025.01 0.274844 3.79506 0
M  V30 10495 H 1024.52 2.03283 3.30602 0
M  V30 10496 H 1022.62 -0.400532 3.70441 0
M  V30 10497 H 1022.73 1.2423 4.62714 0
M  V30 10498 H 1021.1 0.566502 2.4832 0
M  V30 10499 H 1021.88 2.2333 2.60727 0
M  V30 10500 N 1024.32 -1.44642 0.625825 0
M  V30 10501 C 1025.55 -2.06971 0.133373 0
M  V30 10502 C 1025.97 -1.46421 -1.18078 0
M  V30 10503 O 1025.33 -0.563676 -1.72315 0
M  V30 10504 C 1025.38 -3.6059 0.0265097 0
M  V30 10505 O 1024.48 -3.99615 -1.01889 0
M  V30 10506 H 1023.82 -0.658873 0.0823568 0
M  V30 10507 H 1026.35 -1.85601 0.861002 0
M  V30 10508 H 1026.36 -4.07663 -0.1658 0
M  V30 10509 H 1025.04 -4.04043 0.985986 0
M  V30 10510 H 1023.62 -3.64183 -0.801577 0
M  V30 10511 N 1025.8 -0.366053 -1.5329 0
M  V30 10512 C 1027.05 0.223051 -2.00865 0
M  V30 10513 C 1027.37 1.49244 -1.25504 0
M  V30 10514 O 1026.64 1.92404 -0.368444 0
M  V30 10515 H 1025.22 0.085413 -0.742101 0
M  V30 10516 H 1027.88 -0.492396 -1.88578 0
M  V30 10517 H 1026.98 0.449701 -3.08843 0
M  V30 10518 N 1027.28 1.57312 -0.0952337 0
M  V30 10519 C 1028.53 1.94646 0.569284 0
M  V30 10520 C 1028.86 0.977152 1.67825 0
M  V30 10521 O 1028.13 0.0102318 1.94497 0
M  V30 10522 C 1028.42 3.42098 1.12433 0
M  V30 10523 C 1028.27 4.49795 0.0204016 0
M  V30 10524 C 1029.59 3.90866 2.02266 0
M  V30 10525 H 1026.71 0.707779 0.205469 0
M  V30 10526 H 1029.35 1.89274 -0.16597 0
M  V30 10527 H 1027.5 3.46807 1.75092 0
M  V30 10528 H 1029.17 4.57198 -0.613845 0
M  V30 10529 H 1027.41 4.28964 -0.645965 0
M  V30 10530 H 1028.09 5.50166 0.449579 0
M  V30 10531 H 1030.56 3.88311 1.49512 0
M  V30 10532 H 1029.44 4.94604 2.38029 0
M  V30 10533 H 1029.7 3.30167 2.9401 0
M  V30 10534 N 1028.76 -0.17846 1.56586 0
M  V30 10535 C 1029.67 -1.24115 1.9908 0
M  V30 10536 C 1030.68 -1.48854 0.901031 0
M  V30 10537 O 1031.86 -1.61142 1.2081 0
M  V30 10538 C 1028.92 -2.56187 2.33601 0
M  V30 10539 C 1027.99 -2.39373 3.56369 0
M  V30 10540 C 1027.22 -3.65147 3.89234 0
M  V30 10541 O 1027.44 -4.70024 3.23162 0
M  V30 10542 O 1026.38 -3.59683 4.82609 0
M  V30 10543 H 1030.2 -0.910482 2.89731 0
M  V30 10544 H 1027.79 -0.38477 1.4436 0
M  V30 10545 H 1029.67 -3.34109 2.56806 0
M  V30 10546 H 1028.34 -2.88847 1.46113 0
M  V30 10547 H 1027.25 -1.59506 3.38391 0
M  V30 10548 H 1028.58 -2.1164 4.44375 0
M  V30 10549 N 1030.24 -1.51135 -0.446768 0
M  V30 10550 C 1031.15 -1.74595 -1.56696 0
M  V30 10551 C 1032.16 -0.629816 -1.62201 0
M  V30 10552 O 1033.34 -0.910987 -1.79619 0
M  V30 10553 C 1030.4 -1.85738 -2.9275 0
M  V30 10554 C 1029.46 -3.09564 -2.97437 0
M  V30 10555 C 1028.7 -3.20165 -4.27001 0
M  V30 10556 O 1028.92 -2.36939 -5.1886 0
M  V30 10557 O 1027.85 -4.13077 -4.3778 0
M  V30 10558 H 1031.68 -2.69601 -1.39817 0
M  V30 10559 H 1029.26 -1.35523 -0.628805 0
M  V30 10560 H 1031.15 -1.95107 -3.73512 0
M  V30 10561 H 1029.82 -0.939184 -3.09776 0
M  V30 10562 H 1028.73 -3.05679 -2.15664 0
M  V30 10563 H 1030.06 -4.01041 -2.85353 0
M  V30 10564 N 1031.71 0.701592 -1.41122 0
M  V30 10565 C 1032.96 1.46245 -1.41364 0
M  V30 10566 C 1033.31 1.9239 -0.0200662 0
M  V30 10567 O 1032.61 1.6622 0.952971 0
M  V30 10568 C 1032.8 2.693 -2.34973 0
M  V30 10569 C 1032.63 2.35193 -3.83294 0
M  V30 10570 C 1031.4 2.2585 -4.52018 0
M  V30 10571 C 1033.6 1.98555 -4.74426 0
M  V30 10572 N 1031.58 1.84565 -5.85499 0
M  V30 10573 C 1032.95 1.67981 -5.9681 0
M  V30 10574 C 1035.01 1.85313 -4.62129 0
M  V30 10575 C 1033.71 1.25496 -7.08268 0
M  V30 10576 C 1035.74 1.44232 -5.73543 0
M  V30 10577 C 1035.1 1.14564 -6.95021 0
M  V30 10578 H 1031.2 0.532679 -0.572518 0
M  V30 10579 H 1033.78 0.812296 -1.76946 0
M  V30 10580 H 1031.95 3.32045 -2.01496 0
M  V30 10581 H 1033.68 3.35734 -2.25976 0
M  V30 10582 H 1030.44 2.4405 -4.05878 0
M  V30 10583 H 1030.86 1.66421 -6.56226 0
M  V30 10584 H 1035.5 2.06905 -3.68714 0
M  V30 10585 H 1033.22 1.02647 -8.01554 0
M  V30 10586 H 1036.81 1.34544 -5.66029 0
M  V30 10587 H 1035.69 0.832556 -7.79768 0
M  V30 10588 N 1033.19 1.2685 0.935242 0
M  V30 10589 C 1034.44 1.12132 1.67658 0
M  V30 10590 C 1034.75 -0.333839 1.9273 0
M  V30 10591 O 1035.96 -0.601801 2.64746 0
M  V30 10592 C 1034.42 1.95873 3.0193 0
M  V30 10593 C 1034.02 3.46 2.84584 0
M  V30 10594 C 1035.77 1.89781 3.79715 0
M  V30 10595 C 1033.67 4.21966 4.14365 0
M  V30 10596 H 1032.6 0.416035 0.628833 0
M  V30 10597 H 1035.26 1.51209 1.03962 0
M  V30 10598 H 1033.64 1.49633 3.66641 0
M  V30 10599 H 1034.81 4.00049 2.28687 0
M  V30 10600 H 1033.13 3.53391 2.20236 0
M  V30 10601 H 1035.72 2.43819 4.75875 0
M  V30 10602 H 1036.07 0.869797 4.07112 0
M  V30 10603 H 1036.6 2.33875 3.21788 0
M  V30 10604 H 1033.34 5.2526 3.9215 0
M  V30 10605 H 1032.86 3.72696 4.69955 0
M  V30 10606 H 1034.54 4.30734 4.82781 0
M  V30 10607 N 1034.67 -1.14067 1.0875 0
M  V30 10608 C 1035.92 -1.85459 0.82053 0
M  V30 10609 C 1036.25 -1.82923 -0.65213 0
M  V30 10610 O 1035.52 -1.26241 -1.47965 0
M  V30 10611 C 1035.81 -3.33937 1.34752 0
M  V30 10612 C 1035.66 -3.45026 2.88578 0
M  V30 10613 C 1036.98 -4.2915 0.975636 0
M  V30 10614 H 1034.1 -0.673384 0.299538 0
M  V30 10615 H 1036.74 -1.33927 1.34772 0
M  V30 10616 H 1034.89 -3.77953 0.899086 0
M  V30 10617 H 1036.56 -3.09771 3.41818 0
M  V30 10618 H 1034.81 -2.86124 3.26061 0
M  V30 10619 H 1035.48 -4.49408 3.20526 0
M  V30 10620 H 1037.95 -3.93168 1.36228 0
M  V30 10621 H 1036.83 -5.31489 1.37152 0
M  V30 10622 H 1037.09 -4.41945 -0.116956 0
M  V30 10623 N 1036.15 -0.873678 -1.31166 0
M  V30 10624 C 1037.38 -0.501043 -2.00742 0
M  V30 10625 C 1037.79 0.907477 -1.65561 0
M  V30 10626 O 1037.15 1.59507 -0.886771 0
M  V30 10627 C 1037.2 -0.652877 -3.55556 0
M  V30 10628 O 1036.92 -2.00593 -3.89479 0
M  V30 10629 C 1038.42 -0.281742 -4.42404 0
M  V30 10630 H 1035.64 -0.194829 -0.642092 0
M  V30 10631 H 1038.19 -1.17587 -1.67313 0
M  V30 10632 H 1036.34 -0.0255627 -3.87392 0
M  V30 10633 H 1036.75 -2.01638 -4.84193 0
M  V30 10634 H 1038.23 -0.43892 -5.50252 0
M  V30 10635 H 1038.71 0.779389 -4.32229 0
M  V30 10636 H 1039.31 -0.88491 -4.15992 0
M  V30 10637 N 1037.63 1.44308 -0.633487 0
M  V30 10638 C 1038.56 2.28943 0.108474 0
M  V30 10639 C 1039.57 1.41415 0.806582 0
M  V30 10640 O 1040.76 1.65544 0.667634 0
M  V30 10641 C 1037.86 3.17845 1.1759 0
M  V30 10642 C 1037.03 4.33802 0.559842 0
M  V30 10643 C 1036.09 5.03722 1.52154 0
M  V30 10644 O 1035.12 5.5966 1.03776 0
M  V30 10645 N 1036.32 5.05392 2.85586 0
M  V30 10646 H 1039.09 2.93262 -0.617879 0
M  V30 10647 H 1036.65 1.54781 -0.474819 0
M  V30 10648 H 1038.64 3.61485 1.81963 0
M  V30 10649 H 1037.21 2.55261 1.80445 0
M  V30 10650 H 1036.43 3.93325 -0.262559 0
M  V30 10651 H 1037.72 5.08637 0.128942 0
M  V30 10652 H 1037.11 4.61282 3.27468 0
M  V30 10653 H 1035.67 5.52813 3.45313 0
M  V30 10654 N 1039.1 0.374177 1.53094 0
M  V30 10655 C 1040.35 -0.213131 2.01677 0
M  V30 10656 C 1040.68 -1.47715 1.26071 0
M  V30 10657 O 1039.96 -1.91199 0.356834 0
M  V30 10658 C 1040.24 -0.496392 3.56662 0
M  V30 10659 C 1040.09 0.781859 4.42953 0
M  V30 10660 C 1041.41 -1.29339 4.20666 0
M  V30 10661 H 1038.53 -0.0759885 0.733072 0
M  V30 10662 H 1041.17 0.500765 1.83282 0
M  V30 10663 H 1039.32 -1.10455 3.72467 0
M  V30 10664 H 1041 1.41914 4.38928 0
M  V30 10665 H 1039.24 1.40041 4.10574 0
M  V30 10666 H 1039.91 0.538508 5.49367 0
M  V30 10667 H 1042.39 -0.778848 4.08746 0
M  V30 10668 H 1041.26 -1.46033 5.29118 0
M  V30 10669 H 1041.52 -2.30435 3.77296 0
M  V30 10670 N 1040.58 -1.57259 0.103575 0
M  V30 10671 C 1041.83 -1.94945 -0.558953 0
M  V30 10672 C 1042.16 -0.986038 -1.67305 0
M  V30 10673 O 1041.44 -0.0205464 -1.94489 0
M  V30 10674 C 1041.72 -3.42689 -1.10617 0
M  V30 10675 C 1041.57 -4.498 0.00345246 0
M  V30 10676 C 1042.89 -3.91933 -2.00191 0
M  V30 10677 H 1040.01 -0.708859 -0.201713 0
M  V30 10678 H 1042.65 -1.89183 0.176006 0
M  V30 10679 H 1040.8 -3.4773 -1.73251 0
M  V30 10680 H 1042.47 -4.56866 0.638082 0
M  V30 10681 H 1040.72 -4.28615 0.668705 0
M  V30 10682 H 1041.39 -5.50397 -0.420396 0
M  V30 10683 H 1043.86 -3.89098 -1.4745 0
M  V30 10684 H 1042.74 -4.9586 -2.35402 0
M  V30 10685 H 1043 -3.31722 -2.92255 0
M  V30 10686 N 1042.06 0.170153 -1.56679 0
M  V30 10687 C 1043.47 0.732502 -1.7173 0
M  V30 10688 C 1043.82 1.82736 -0.71428 0
M  V30 10689 O 1042.95 2.16044 0.124102 0
M  V30 10690 C 1043.54 1.33548 -3.11368 0
M  V30 10691 C 1042.1 1.84464 -3.281 0
M  V30 10692 C 1041.25 0.724069 -2.6768 0
M  V30 10693 H 1044.2 -0.0552543 -1.58604 0
M  V30 10694 H 1044.22 2.20519 -3.10083 0
M  V30 10695 H 1043.73 0.5384 -3.84347 0
M  V30 10696 H 1041.83 2.66813 -2.6008 0
M  V30 10697 H 1041.95 1.98928 -4.35849 0
M  V30 10698 H 1040.31 1.14481 -2.27522 0
M  V30 10699 H 1041.09 -0.0611861 -3.43245 0
M  V30 10700 N 1043.54 1.5137 0.438746 0
M  V30 10701 C 1044.79 1.63645 1.18595 0
M  V30 10702 C 1045.11 0.354241 1.91755 0
M  V30 10703 O 1044.38 -0.629838 1.85499 0
M  V30 10704 H 1042.96 0.603103 0.440767 0
M  V30 10705 H 1045.62 1.88293 0.503159 0
M  V30 10706 H 1044.72 2.46342 1.9163 0
M  V30 10707 N 1045.02 -0.694098 1.41492 0
M  V30 10708 C 1046.26 -1.4563 1.41137 0
M  V30 10709 C 1046.6 -1.94189 0.0208428 0
M  V30 10710 O 1045.87 -1.69628 -0.951655 0
M  V30 10711 C 1046.15 -2.66714 2.41941 0
M  V30 10712 C 1046.01 -2.23912 3.90107 0
M  V30 10713 C 1047.33 -3.68913 2.39981 0
M  V30 10714 H 1044.44 -0.52821 0.513968 0
M  V30 10715 H 1047.09 -0.790437 1.72778 0
M  V30 10716 H 1045.24 -3.23525 2.1509 0
M  V30 10717 H 1046.91 -1.72417 4.27867 0
M  V30 10718 H 1045.15 -1.5568 4.04903 0
M  V30 10719 H 1045.82 -3.108 4.56188 0
M  V30 10720 H 1048.3 -3.21779 2.63813 0
M  V30 10721 H 1047.17 -4.51242 3.12524 0
M  V30 10722 H 1047.44 -4.18711 1.41892 0
M  V30 10723 N 1046.49 -1.27344 -0.928501 0
M  V30 10724 C 1047.46 -1.10043 -2.01055 0
M  V30 10725 C 1048.46 -0.0446793 -1.60738 0
M  V30 10726 O 1049.65 -0.289202 -1.71783 0
M  V30 10727 C 1046.78 -0.676559 -3.34119 0
M  V30 10728 H 1047.97 -2.06126 -2.17835 0
M  V30 10729 H 1045.53 -1.10121 -1.10919 0
M  V30 10730 H 1046.26 0.285697 -3.23039 0
M  V30 10731 H 1046.05 -1.43903 -3.64739 0
M  V30 10732 H 1047.54 -0.577725 -4.13584 0
M  V30 10733 N 1047.97 1.13488 -1.09353 0
M  V30 10734 C 1048.94 2.17066 -0.735863 0
M  V30 10735 C 1049.94 1.59086 0.234181 0
M  V30 10736 O 1051.13 1.74196 0.012463 0
M  V30 10737 C 1048.26 3.40786 -0.0880975 0
M  V30 10738 H 1049.45 2.50221 -1.65316 0
M  V30 10739 H 1047 1.28304 -0.89263 0
M  V30 10740 H 1047.74 3.1322 0.840462 0
M  V30 10741 H 1047.52 3.8414 -0.786073 0
M  V30 10742 H 1049.01 4.17342 0.146775 0
M  V30 10743 N 1049.45 0.880621 1.30701 0
M  V30 10744 C 1050.7 0.497611 1.966 0
M  V30 10745 C 1051.03 -0.949901 1.69383 0
M  V30 10746 O 1050.31 -1.67054 0.996152 0
M  V30 10747 C 1050.59 0.767919 3.51817 0
M  V30 10748 C 1050.44 2.26574 3.88567 0
M  V30 10749 C 1051.76 0.241502 4.39437 0
M  V30 10750 H 1048.88 0.182267 0.714106 0
M  V30 10751 H 1051.52 1.10382 1.54648 0
M  V30 10752 H 1049.67 0.251967 3.87682 0
M  V30 10753 H 1051.34 2.84977 3.62748 0
M  V30 10754 H 1049.59 2.73411 3.36792 0
M  V30 10755 H 1050.26 2.40549 4.9683 0
M  V30 10756 H 1052.73 0.683051 4.10455 0
M  V30 10757 H 1051.61 0.459997 5.46969 0
M  V30 10758 H 1051.87 -0.857068 4.33713 0
M  V30 10759 N 1050.93 -1.4397 0.641131 0
M  V30 10760 C 1052.34 -1.85267 0.230838 0
M  V30 10761 C 1052.69 -1.53659 -1.21998 0
M  V30 10762 O 1051.82 -0.979572 -1.92959 0
M  V30 10763 C 1052.41 -3.36284 0.412171 0
M  V30 10764 C 1050.97 -3.76358 0.0563004 0
M  V30 10765 C 1050.12 -2.67768 0.720809 0
M  V30 10766 H 1053.07 -1.34294 0.845624 0
M  V30 10767 H 1053.09 -3.78924 -0.345936 0
M  V30 10768 H 1052.6 -3.59258 1.46818 0
M  V30 10769 H 1050.7 -3.58997 -0.997582 0
M  V30 10770 H 1050.82 -4.76756 0.473335 0
M  V30 10771 H 1049.18 -2.54227 0.155164 0
M  V30 10772 H 1049.96 -2.93573 1.77961 0
M  V30 10773 N 1052.41 -0.382291 -1.52893 0
M  V30 10774 C 1053.65 0.202433 -2.01787 0
M  V30 10775 C 1053.99 1.47044 -1.26853 0
M  V30 10776 O 1053.26 1.91007 -0.366969 0
M  V30 10777 C 1053.54 0.477471 -3.5692 0
M  V30 10778 C 1053.4 -0.805339 -4.42532 0
M  V30 10779 C 1054.72 1.27106 -4.21346 0
M  V30 10780 H 1051.84 0.0720998 -0.733465 0
M  V30 10781 H 1054.48 -0.510478 -1.83014 0
M  V30 10782 H 1052.63 1.08478 -3.73048 0
M  V30 10783 H 1054.3 -1.4424 -4.3817 0
M  V30 10784 H 1052.54 -1.42216 -4.09826 0
M  V30 10785 H 1053.21 -0.567635 -5.49074 0
M  V30 10786 H 1055.69 0.757161 -4.09153 0
M  V30 10787 H 1054.57 1.43225 -5.29885 0
M  V30 10788 H 1054.83 2.28431 -3.78513 0
M  V30 10789 N 1053.89 1.57202 -0.111913 0
M  V30 10790 C 1054.8 2.18475 0.854753 0
M  V30 10791 C 1055.81 1.15888 1.29792 0
M  V30 10792 O 1056.99 1.48329 1.36237 0
M  V30 10793 C 1054.05 2.76645 2.0897 0
M  V30 10794 C 1053.11 3.94244 1.69913 0
M  V30 10795 C 1052.35 4.49631 2.8752 0
M  V30 10796 O 1052.57 4.03926 4.02741 0
M  V30 10797 O 1051.5 5.40417 2.65015 0
M  V30 10798 H 1055.33 3.01519 0.363352 0
M  V30 10799 H 1052.91 1.4897 0.113329 0
M  V30 10800 H 1054.8 3.13755 2.81311 0
M  V30 10801 H 1053.47 1.96637 2.5713 0
M  V30 10802 H 1052.38 3.61915 0.947013 0
M  V30 10803 H 1053.71 4.75666 1.26501 0
M  V30 10804 N 1055.36 -0.161842 1.56767 0
M  V30 10805 C 1056.27 -1.21996 2.00385 0
M  V30 10806 C 1057.29 -1.4789 0.916768 0
M  V30 10807 O 1058.47 -1.59852 1.22513 0
M  V30 10808 C 1055.53 -2.53695 2.36305 0
M  V30 10809 C 1054.59 -2.3558 3.58888 0
M  V30 10810 C 1053.82 -3.60998 3.93085 0
M  V30 10811 O 1054.05 -4.6657 3.28129 0
M  V30 10812 O 1052.98 -3.54544 4.86397 0
M  V30 10813 H 1056.81 -0.879701 2.9068 0
M  V30 10814 H 1054.39 -0.369437 1.4476 0
M  V30 10815 H 1056.27 -3.31366 2.60335 0
M  V30 10816 H 1054.95 -2.87281 1.49169 0
M  V30 10817 H 1053.86 -1.55908 3.40064 0
M  V30 10818 H 1055.19 -2.06915 4.46595 0
M  V30 10819 N 1056.84 -1.516 -0.430713 0
M  V30 10820 C 1057.75 -1.76247 -1.54836 0
M  V30 10821 C 1058.77 -0.646985 -1.61524 0
M  V30 10822 O 1059.94 -0.929987 -1.78643 0
M  V30 10823 C 1057.01 -1.88833 -2.90763 0
M  V30 10824 C 1056.07 -3.12701 -2.94137 0
M  V30 10825 C 1055.3 -3.24676 -4.23581 0
M  V30 10826 O 1055.53 -2.42429 -5.16318 0
M  V30 10827 O 1054.46 -4.17697 -4.33374 0
M  V30 10828 H 1058.29 -2.71069 -1.3695 0
M  V30 10829 H 1055.87 -1.36182 -0.614396 0
M  V30 10830 H 1057.75 -1.99057 -3.71422 0
M  V30 10831 H 1056.43 -0.971987 -3.08762 0
M  V30 10832 H 1055.33 -3.0795 -2.1241 0
M  V30 10833 H 1056.67 -4.04045 -2.81084 0
M  V30 10834 N 1058.32 0.686584 -1.41858 0
M  V30 10835 C 1059.55 1.47519 -1.45072 0
M  V30 10836 C 1059.96 1.88709 -0.0585868 0
M  V30 10837 O 1059.32 1.57373 0.924116 0
M  V30 10838 C 1059.37 2.73195 -2.36742 0
M  V30 10839 O 1059.09 2.33736 -3.70539 0
M  V30 10840 C 1060.59 3.66861 -2.48854 0
M  V30 10841 H 1057.81 0.454307 -0.493808 0
M  V30 10842 H 1060.36 0.844612 -1.86243 0
M  V30 10843 H 1058.51 3.32468 -1.98856 0
M  V30 10844 H 1058.93 3.14809 -4.19518 0
M  V30 10845 H 1060.4 4.51801 -3.17143 0
M  V30 10846 H 1060.88 4.11961 -1.52265 0
M  V30 10847 H 1061.48 3.13486 -2.87414 0
M  V30 10848 N 1059.8 1.27835 0.921735 0
M  V30 10849 C 1061.03 1.17352 1.704 0
M  V30 10850 C 1061.44 -0.268892 1.86875 0
M  V30 10851 O 1060.8 -1.18253 1.39005 0
M  V30 10852 C 1060.85 1.85889 3.10045 0
M  V30 10853 O 1060.57 3.24495 2.94338 0
M  V30 10854 C 1062.07 1.81607 4.04393 0
M  V30 10855 H 1059.29 0.40773 0.532914 0
M  V30 10856 H 1061.83 1.68815 1.15419 0
M  V30 10857 H 1059.99 1.38316 3.61867 0
M  V30 10858 H 1060.4 3.58705 3.82663 0
M  V30 10859 H 1061.88 2.34165 4.99871 0
M  V30 10860 H 1062.35 0.786697 4.32097 0
M  V30 10861 H 1062.96 2.28822 3.58498 0
M  V30 10862 N 1061.28 -1.12907 1.09954 0
M  V30 10863 C 1062.24 -2.16673 0.747364 0
M  V30 10864 C 1063.24 -1.59208 -0.225741 0
M  V30 10865 O 1064.43 -1.742 -0.00322482 0
M  V30 10866 C 1061.56 -3.40735 0.106169 0
M  V30 10867 H 1062.75 -2.49341 1.6664 0
M  V30 10868 H 1060.31 -1.27828 0.899421 0
M  V30 10869 H 1061.04 -3.13661 -0.82384 0
M  V30 10870 H 1060.83 -3.83717 0.806434 0
M  V30 10871 H 1062.32 -4.17414 -0.12464 0
M  V30 10872 N 1062.75 -0.88754 -1.30232 0
M  V30 10873 C 1064 -0.508031 -1.96334 0
M  V30 10874 C 1064.33 0.940905 -1.69884 0
M  V30 10875 O 1063.61 1.66523 -1.005 0
M  V30 10876 C 1063.89 -0.786566 -3.51405 0
M  V30 10877 C 1063.74 -2.28632 -3.8736 0
M  V30 10878 C 1065.06 -0.264803 -4.39303 0
M  V30 10879 H 1062.18 -0.186051 -0.71313 0
M  V30 10880 H 1064.82 -1.112 -1.5406 0
M  V30 10881 H 1062.97 -0.272523 -3.87543 0
M  V30 10882 H 1064.65 -2.86896 -3.61231 0
M  V30 10883 H 1062.89 -2.75194 -3.35337 0
M  V30 10884 H 1063.56 -2.43181 -4.95547 0
M  V30 10885 H 1066.04 -0.704809 -4.10087 0
M  V30 10886 H 1064.91 -0.488998 -5.46717 0
M  V30 10887 H 1065.17 0.834055 -4.34161 0
M  V30 10888 N 1064.23 1.43628 -0.648757 0
M  V30 10889 C 1065.64 1.85142 -0.24066 0
M  V30 10890 C 1065.99 1.54304 1.21181 0
M  V30 10891 O 1065.12 0.989792 1.92437 0
M  V30 10892 C 1065.71 3.3606 -0.429999 0
M  V30 10893 C 1064.27 3.76323 -0.0762588 0
M  V30 10894 C 1063.42 2.67382 -0.734999 0
M  V30 10895 H 1066.37 1.33844 -0.852734 0
M  V30 10896 H 1066.39 3.79102 0.325836 0
M  V30 10897 H 1065.9 3.58474 -1.48721 0
M  V30 10898 H 1064.01 3.59521 0.978529 0
M  V30 10899 H 1064.12 4.76498 -0.498612 0
M  V30 10900 H 1062.48 2.54141 -0.168644 0
M  V30 10901 H 1063.27 2.92625 -1.79515 0
M  V30 10902 N 1065.71 0.390394 1.52688 0
M  V30 10903 C 1066.94 -0.194013 2.06491 0
M  V30 10904 C 1067.36 -1.3965 1.26014 0
M  V30 10905 O 1066.72 -1.79038 0.285468 0
M  V30 10906 C 1066.77 -0.541306 3.56514 0
M  V30 10907 O 1065.87 -1.63509 3.78601 0
M  V30 10908 H 1065.21 -0.0223608 0.663623 0
M  V30 10909 H 1067.74 0.558179 1.96839 0
M  V30 10910 H 1067.75 -0.805301 3.99974 0
M  V30 10911 H 1066.43 0.337828 4.14526 0
M  V30 10912 H 1065 -1.36473 3.4703 0
M  V30 10913 N 1067.19 -1.57141 0.120249 0
M  V30 10914 C 1068.44 -1.94852 -0.536387 0
M  V30 10915 C 1068.76 -1.00452 -1.67136 0
M  V30 10916 O 1068.03 -0.061053 -1.95805 0
M  V30 10917 H 1066.61 -0.719411 -0.201138 0
M  V30 10918 H 1069.27 -1.93977 0.189482 0
M  V30 10919 H 1068.37 -2.97917 -0.930145 0
M  V30 10920 N 1068.67 0.153526 -1.5685 0
M  V30 10921 C 1069.58 1.20932 -2.01029 0
M  V30 10922 C 1070.59 1.47401 -0.924598 0
M  V30 10923 O 1071.77 1.592 -1.23359 0
M  V30 10924 C 1068.83 2.52438 -2.37647 0
M  V30 10925 C 1067.89 2.33673 -3.60132 0
M  V30 10926 C 1067.13 3.58909 -3.94994 0
M  V30 10927 O 1067.35 4.64823 -3.30599 0
M  V30 10928 O 1066.28 3.5196 -4.8827 0
M  V30 10929 H 1070.11 0.864273 -2.91143 0
M  V30 10930 H 1067.7 0.361755 -1.44954 0
M  V30 10931 H 1069.58 3.29981 -2.62088 0
M  V30 10932 H 1068.25 2.86486 -1.5069 0
M  V30 10933 H 1067.16 1.54102 -3.40886 0
M  V30 10934 H 1068.49 2.04544 -4.47686 0
M  V30 10935 N 1070.14 1.51827 0.422667 0
M  V30 10936 C 1071.37 1.69049 1.1929 0
M  V30 10937 C 1071.79 0.394095 1.84641 0
M  V30 10938 O 1071.14 -0.628731 1.71328 0
M  V30 10939 C 1071.2 2.81657 2.26609 0
M  V30 10940 O 1070.92 4.06275 1.63929 0
M  V30 10941 C 1072.42 3.10274 3.16615 0
M  V30 10942 H 1069.64 0.566894 0.358988 0
M  V30 10943 H 1072.18 1.98318 0.499029 0
M  V30 10944 H 1070.34 2.54945 2.91688 0
M  V30 10945 H 1070.75 4.68924 2.3497 0
M  V30 10946 H 1072.22 3.92613 3.88019 0
M  V30 10947 H 1072.7 2.23273 3.78214 0
M  V30 10948 H 1073.31 3.387 2.57221 0
M  V30 10949 N 1071.62 -0.679052 1.4222 0
M  V30 10950 C 1072.85 -1.46747 1.45852 0
M  V30 10951 C 1073.27 -1.88675 0.0685937 0
M  V30 10952 O 1072.62 -1.57861 -0.915757 0
M  V30 10953 C 1072.67 -2.71935 2.38188 0
M  V30 10954 O 1072.39 -2.31768 3.71773 0
M  V30 10955 C 1073.9 -3.65536 2.50796 0
M  V30 10956 H 1071.12 -0.451682 0.49621 0
M  V30 10957 H 1073.66 -0.834723 1.86689 0
M  V30 10958 H 1071.81 -3.31409 2.00616 0
M  V30 10959 H 1072.23 -3.12579 4.21182 0
M  V30 10960 H 1073.7 -4.50113 3.19535 0
M  V30 10961 H 1074.18 -4.11148 1.54447 0
M  V30 10962 H 1074.79 -3.11957 2.89072 0
M  V30 10963 N 1073.1 -1.28322 -0.914942 0
M  V30 10964 C 1074.06 -1.12169 -1.99877 0
M  V30 10965 C 1075.06 -0.0617252 -1.60681 0
M  V30 10966 O 1076.25 -0.307405 -1.71466 0
M  V30 10967 C 1073.39 -0.711959 -3.33383 0
M  V30 10968 H 1074.58 -2.08425 -2.15636 0
M  V30 10969 H 1072.13 -1.11291 -1.09745 0
M  V30 10970 H 1072.87 0.251418 -3.23324 0
M  V30 10971 H 1072.65 -1.47764 -3.63192 0
M  V30 10972 H 1074.14 -0.621558 -4.12948 0
M  V30 10973 N 1074.58 1.12322 -1.10551 0
M  V30 10974 C 1075.83 1.83216 -0.84349 0
M  V30 10975 C 1076.14 1.85075 0.632992 0
M  V30 10976 O 1077.35 2.51976 1.01095 0
M  V30 10977 C 1075.8 3.28994 -1.45915 0
M  V30 10978 C 1075.41 3.3549 -2.96901 0
M  V30 10979 C 1077.15 4.0485 -1.27657 0
M  V30 10980 C 1075.06 4.7561 -3.51496 0
M  V30 10981 H 1073.99 0.686471 -0.311887 0
M  V30 10982 H 1076.64 1.26463 -1.32964 0
M  V30 10983 H 1075.02 3.85621 -0.900678 0
M  V30 10984 H 1076.2 2.88795 -3.59074 0
M  V30 10985 H 1074.51 2.73107 -3.14327 0
M  V30 10986 H 1077.11 5.08316 -1.65889 0
M  V30 10987 H 1077.45 4.15727 -0.218258 0
M  V30 10988 H 1077.99 3.54584 -1.80318 0
M  V30 10989 H 1074.73 4.69927 -4.56999 0
M  V30 10990 H 1074.25 5.22753 -2.94091 0
M  V30 10991 H 1075.92 5.44552 -3.49388 0
M  V30 10992 N 1076.06 0.894434 1.2976 0
M  V30 10993 C 1076.99 0.3847 2.30309 0
M  V30 10994 C 1077.97 -0.537486 1.61385 0
M  V30 10995 O 1079.15 -0.449332 1.8893 0
M  V30 10996 C 1076.28 -0.393311 3.45066 0
M  V30 10997 C 1075.24 0.437968 4.25753 0
M  V30 10998 C 1074.56 -0.467221 5.32655 0
M  V30 10999 C 1075.86 1.6851 4.9437 0
M  V30 11000 H 1077.56 1.22496 2.73194 0
M  V30 11001 H 1075.1 0.590471 1.31337 0
M  V30 11002 H 1077.06 -0.760614 4.14479 0
M  V30 11003 H 1075.78 -1.2673 3.0101 0
M  V30 11004 H 1074.44 0.787533 3.58041 0
M  V30 11005 H 1074.09 -1.33919 4.84845 0
M  V30 11006 H 1073.79 0.0852482 5.87538 0
M  V30 11007 H 1075.31 -0.830833 6.04921 0
M  V30 11008 H 1076.72 1.38784 5.56248 0
M  V30 11009 H 1075.12 2.17849 5.59162 0
M  V30 11010 H 1076.19 2.42412 4.19958 0
M  V30 11011 N 1077.53 -1.43282 0.656365 0
M  V30 11012 C 1078.44 -2.34576 -0.033864 0
M  V30 11013 C 1079.46 -1.5406 -0.808793 0
M  V30 11014 O 1080.64 -1.867 -0.755322 0
M  V30 11015 C 1077.7 -3.32378 -0.986197 0
M  V30 11016 C 1076.76 -4.28797 -0.207851 0
M  V30 11017 C 1076 -5.21927 -1.11482 0
M  V30 11018 O 1076.22 -5.19554 -2.35414 0
M  V30 11019 O 1075.15 -5.99045 -0.585536 0
M  V30 11020 H 1078.98 -2.95099 0.717668 0
M  V30 11021 H 1076.56 -1.43475 0.416556 0
M  V30 11022 H 1078.45 -3.9251 -1.53341 0
M  V30 11023 H 1077.12 -2.74354 -1.7179 0
M  V30 11024 H 1076.03 -3.72134 0.383022 0
M  V30 11025 H 1077.36 -4.89811 0.48435 0
M  V30 11026 N 1079.01 -0.398486 -1.52479 0
M  V30 11027 C 1080.26 0.180752 -2.01692 0
M  V30 11028 C 1080.59 1.46044 -1.28457 0
M  V30 11029 O 1079.84 1.92051 -0.376162 0
M  V30 11030 C 1080.14 0.485909 -3.54081 0
M  V30 11031 C 1079.81 -0.703321 -4.45381 0
M  V30 11032 C 1078.47 -1.02955 -4.70057 0
M  V30 11033 C 1080.82 -1.49848 -4.99194 0
M  V30 11034 C 1078.15 -2.15231 -5.45795 0
M  V30 11035 C 1080.5 -2.61192 -5.76161 0
M  V30 11036 C 1079.17 -2.94313 -5.99113 0
M  V30 11037 H 1078.44 0.0661417 -0.738042 0
M  V30 11038 H 1081.08 -0.53772 -1.83796 0
M  V30 11039 H 1079.39 1.28582 -3.701 0
M  V30 11040 H 1081.09 0.946872 -3.89661 0
M  V30 11041 H 1077.68 -0.439062 -4.26345 0
M  V30 11042 H 1081.86 -1.25968 -4.80048 0
M  V30 11043 H 1077.12 -2.41252 -5.61789 0
M  V30 11044 H 1081.29 -3.23201 -6.16858 0
M  V30 11045 H 1078.92 -3.81431 -6.57583 0
M  V30 11046 N 1080.49 1.57075 -0.12858 0
M  V30 11047 C 1081.72 1.99876 0.534544 0
M  V30 11048 C 1082.13 1.00843 1.59612 0
M  V30 11049 O 1081.49 0.00268947 1.825 0
M  V30 11050 C 1081.54 3.42654 1.15198 0
M  V30 11051 O 1081.26 4.37899 0.132823 0
M  V30 11052 C 1082.76 4.00637 1.8975 0
M  V30 11053 H 1079.98 0.656073 0.140744 0
M  V30 11054 H 1082.53 2.03337 -0.217742 0
M  V30 11055 H 1080.68 3.40101 1.85499 0
M  V30 11056 H 1081.1 5.21253 0.582682 0
M  V30 11057 H 1082.57 5.02592 2.28266 0
M  V30 11058 H 1083.05 3.40313 2.7764 0
M  V30 11059 H 1083.65 4.06764 1.2419 0
M  V30 11060 N 1081.97 -0.145205 1.5693 0
M  V30 11061 C 1083.2 -0.872398 1.87608 0
M  V30 11062 C 1083.61 -1.74657 0.716975 0
M  V30 11063 O 1082.97 -1.79792 -0.3132 0
M  V30 11064 C 1083.02 -1.72762 3.17546 0
M  V30 11065 O 1082.74 -0.888681 4.28992 0
M  V30 11066 C 1084.24 -2.56224 3.61751 0
M  V30 11067 H 1081.46 -0.252166 0.621815 0
M  V30 11068 H 1084.01 -0.137456 2.04038 0
M  V30 11069 H 1082.16 -2.41561 3.02865 0
M  V30 11070 H 1082.58 -1.47601 5.03303 0
M  V30 11071 H 1084.05 -3.11804 4.55502 0
M  V30 11072 H 1084.53 -3.32347 2.87127 0
M  V30 11073 H 1085.13 -1.92714 3.79133 0
M  V30 11074 N 1083.45 -1.52049 -0.414609 0
M  V30 11075 C 1084.36 -1.7788 -1.52958 0
M  V30 11076 C 1085.37 -0.66408 -1.60829 0
M  V30 11077 O 1086.55 -0.948882 -1.77646 0
M  V30 11078 C 1083.61 -1.91906 -2.88744 0
M  V30 11079 C 1082.68 -3.15803 -2.90804 0
M  V30 11080 C 1081.91 -3.29151 -4.20114 0
M  V30 11081 O 1082.13 -2.47892 -5.13718 0
M  V30 11082 O 1081.07 -4.2227 -4.28919 0
M  V30 11083 H 1084.89 -2.72506 -1.34067 0
M  V30 11084 H 1082.48 -1.36826 -0.599918 0
M  V30 11085 H 1084.36 -2.02986 -3.6929 0
M  V30 11086 H 1083.03 -1.00468 -3.07714 0
M  V30 11087 H 1081.94 -3.10185 -2.09131 0
M  V30 11088 H 1083.27 -4.07004 -2.76783 0
M  V30 11089 N 1084.93 0.6715 -1.42579 0
M  V30 11090 C 1086.34 1.2522 -1.38481 0
M  V30 11091 C 1086.69 1.96038 -0.079719 0
M  V30 11092 O 1085.81 2.00203 0.821441 0
M  V30 11093 C 1086.41 2.27736 -2.50842 0
M  V30 11094 C 1084.97 2.81325 -2.50067 0
M  V30 11095 C 1084.11 1.55694 -2.29466 0
M  V30 11096 H 1087.06 0.464673 -1.51745 0
M  V30 11097 H 1087.09 3.09539 -2.21283 0
M  V30 11098 H 1086.6 1.76164 -3.45815 0
M  V30 11099 H 1084.7 3.37008 -1.58922 0
M  V30 11100 H 1084.81 3.30116 -3.47218 0
M  V30 11101 H 1083.18 1.82383 -1.77788 0
M  V30 11102 H 1083.96 1.06084 -3.26498 0
M  V30 11103 N 1086.4 1.28806 0.908124 0
M  V30 11104 C 1087.31 1.15079 2.04436 0
M  V30 11105 C 1088.33 0.076012 1.73834 0
M  V30 11106 O 1089.51 0.286421 1.99353 0
M  V30 11107 C 1086.57 0.819733 3.3687 0
M  V30 11108 C 1085.63 1.97746 3.81045 0
M  V30 11109 C 1084.86 1.66211 5.07158 0
M  V30 11110 O 1085.09 0.579092 5.67453 0
M  V30 11111 O 1084.02 2.5075 5.47182 0
M  V30 11112 H 1087.85 2.10477 2.18937 0
M  V30 11113 H 1085.43 1.08177 1.03044 0
M  V30 11114 H 1087.31 0.649304 4.16368 0
M  V30 11115 H 1085.99 -0.10454 3.23531 0
M  V30 11116 H 1084.9 2.20308 3.02349 0
M  V30 11117 H 1086.23 2.88264 3.98955 0
M  V30 11118 N 1087.88 -1.11734 1.11145 0
M  V30 11119 C 1088.83 -2.19765 0.761982 0
M  V30 11120 C 1089.82 -1.67616 -0.24518 0
M  V30 11121 O 1091.03 -1.79695 -0.104781 0
M  V30 11122 H 1087.4 -0.71644 0.228513 0
M  V30 11123 H 1089.38 -2.4649 1.68183 0
M  V30 11124 C 1088.12 -3.47016 0.218057 0
M  V30 11125 H 1087.45 -3.87494 0.984299 0
M  V30 11126 H 1088.89 -4.23998 0.0116825 0
M  V30 11127 C 1087.35 -3.20088 -1.05096 0
M  V30 11128 O 1087.88 -3.40503 -2.1312 0
M  V30 11129 N 1086.08 -2.73844 -0.972523 0
M  V30 11130 H 1085.63 -2.57431 -0.0933459 0
M  V30 11131 H 1085.59 -2.56204 -1.82228 0
M  V30 11132 N 1089.36 -0.901303 -1.29284 0
M  V30 11133 C 1090.29 -0.337552 -2.26701 0
M  V30 11134 C 1091.3 0.517039 -1.54371 0
M  V30 11135 O 1092.49 0.333937 -1.75349 0
M  V30 11136 C 1089.59 0.537214 -3.34615 0
M  V30 11137 C 1088.77 -0.292017 -4.36424 0
M  V30 11138 C 1087.83 0.515837 -5.23666 0
M  V30 11139 O 1086.85 -0.0672303 -5.6916 0
M  V30 11140 N 1088.05 1.82159 -5.51179 0
M  V30 11141 H 1090.82 -1.17484 -2.75713 0
M  V30 11142 H 1088.38 -0.765957 -1.42635 0
M  V30 11143 H 1090.37 1.0841 -3.8991 0
M  V30 11144 H 1088.94 1.2752 -2.85408 0
M  V30 11145 H 1088.16 -1.02031 -3.80767 0
M  V30 11146 H 1089.45 -0.859855 -5.01482 0
M  V30 11147 H 1088.85 2.318 -5.16028 0
M  V30 11148 H 1087.4 2.31556 -6.09282 0
M  V30 11149 N 1090.84 1.42931 -0.663954 0
M  V30 11150 C 1092.07 2.06028 -0.189808 0
M  V30 11151 C 1092.48 1.49827 1.14879 0
M  V30 11152 O 1091.84 0.633778 1.71142 0
M  V30 11153 C 1091.89 3.61349 -0.104343 0
M  V30 11154 O 1091.61 4.15463 -1.39004 0
M  V30 11155 C 1093.11 4.4154 0.394599 0
M  V30 11156 H 1090.33 0.664259 -0.0948744 0
M  V30 11157 H 1092.87 1.83255 -0.907632 0
M  V30 11158 H 1091.03 3.83271 0.564103 0
M  V30 11159 H 1091.44 5.09233 -1.25626 0
M  V30 11160 H 1092.92 5.50525 0.403329 0
M  V30 11161 H 1093.39 4.1534 1.4279 0
M  V30 11162 H 1094 4.24612 -0.241729 0
M  V30 11163 N 1092.32 0.406567 1.52266 0
M  V30 11164 C 1093.23 -0.4271 2.30679 0
M  V30 11165 C 1094.24 -1.0559 1.383 0
M  V30 11166 O 1095.42 -1.05797 1.71374 0
M  V30 11167 C 1092.48 -1.53008 3.1111 0
M  V30 11168 C 1091.54 -0.924604 4.19225 0
M  V30 11169 C 1090.78 -1.97502 4.95811 0
M  V30 11170 O 1091 -3.19277 4.72671 0
M  V30 11171 O 1089.93 -1.58268 5.80719 0
M  V30 11172 H 1093.76 0.212187 3.02958 0
M  V30 11173 H 1091.34 0.169835 1.48432 0
M  V30 11174 H 1093.23 -2.17046 3.61205 0
M  V30 11175 H 1091.9 -2.15401 2.41628 0
M  V30 11176 H 1090.81 -0.247009 3.73284 0
M  V30 11177 H 1092.14 -0.34463 4.90992 0
M  V30 11178 N 1093.79 -1.57004 0.136909 0
M  V30 11179 C 1095.04 -1.96873 -0.511137 0
M  V30 11180 C 1095.4 -1.02001 -1.63137 0
M  V30 11181 O 1094.69 -0.0532138 -1.91526 0
M  V30 11182 C 1094.88 -3.40903 -1.07331 0
M  V30 11183 C 1094.71 -4.49699 -0.00908112 0
M  V30 11184 C 1093.48 -5.03477 0.42889 0
M  V30 11185 C 1095.68 -5.08372 0.778631 0
M  V30 11186 N 1093.66 -5.95867 1.47702 0
M  V30 11187 C 1095.03 -5.96875 1.67751 0
M  V30 11188 C 1097.09 -4.90975 0.827538 0
M  V30 11189 C 1095.79 -6.69845 2.62108 0
M  V30 11190 C 1097.82 -5.64639 1.75889 0
M  V30 11191 C 1097.18 -6.52842 2.64531 0
M  V30 11192 H 1093.28 -0.766253 -0.156141 0
M  V30 11193 H 1095.86 -1.93347 0.229176 0
M  V30 11194 H 1094.03 -3.45042 -1.78327 0
M  V30 11195 H 1095.76 -3.67855 -1.68715 0
M  V30 11196 H 1092.52 -4.73588 0.03306 0
M  V30 11197 H 1092.94 -6.46767 2.00055 0
M  V30 11198 H 1097.59 -4.22511 0.156318 0
M  V30 11199 H 1095.3 -7.37544 3.30235 0
M  V30 11200 H 1098.89 -5.53177 1.80241 0
M  V30 11201 H 1097.77 -7.08843 3.35426 0
M  V30 11202 N 1095.27 0.136881 -1.57004 0
M  V30 11203 C 1096.18 1.18793 -2.023 0
M  V30 11204 C 1097.2 1.46412 -0.94018 0
M  V30 11205 O 1098.37 1.57883 -1.2504 0
M  V30 11206 C 1095.44 2.49903 -2.40311 0
M  V30 11207 C 1094.5 2.29841 -3.6259 0
M  V30 11208 C 1093.73 3.54699 -3.98779 0
M  V30 11209 O 1093.96 4.61291 -3.3551 0
M  V30 11210 O 1092.89 3.46761 -4.91976 0
M  V30 11211 H 1096.72 0.833345 -2.92043 0
M  V30 11212 H 1094.3 0.346361 -1.4533 0
M  V30 11213 H 1096.18 3.27183 -2.65574 0
M  V30 11214 H 1094.86 2.84872 -1.5372 0
M  V30 11215 H 1093.77 1.50478 -3.42501 0
M  V30 11216 H 1095.1 1.99784 -4.4983 0
M  V30 11217 N 1096.75 1.52266 0.40654 0
M  V30 11218 C 1098.16 1.58587 0.985241 0
M  V30 11219 C 1098.51 0.427955 1.91476 0
M  V30 11220 O 1097.64 -0.451341 2.11641 0
M  V30 11221 C 1098.23 2.87426 1.79365 0
M  V30 11222 C 1096.79 2.96217 2.32233 0
M  V30 11223 C 1095.94 2.53548 1.12288 0
M  V30 11224 H 1098.89 1.57598 0.186685 0
M  V30 11225 H 1098.91 2.72925 2.65127 0
M  V30 11226 H 1098.42 3.71682 1.11687 0
M  V30 11227 H 1096.52 2.1646 3.03275 0
M  V30 11228 H 1096.64 4.00511 2.62922 0
M  V30 11229 H 1095 2.07457 1.47763 0
M  V30 11230 H 1095.78 3.40181 0.461731 0
M  V30 11231 N 1098.23 -0.663929 1.42933 0
M  V30 11232 C 1099.19 -1.75899 1.46943 0
M  V30 11233 C 1100.19 -1.5682 0.355535 0
M  V30 11234 O 1101.38 -1.62914 0.616833 0
M  V30 11235 C 1098.51 -3.14657 1.31164 0
M  V30 11236 H 1099.71 -1.73727 2.44456 0
M  V30 11237 H 1097.26 -0.874587 1.2954 0
M  V30 11238 H 1097.99 -3.22447 0.346165 0
M  V30 11239 H 1097.78 -3.29909 2.11902 0
M  V30 11240 H 1099.27 -3.9453 1.36878 0
M  V30 11241 N 1099.71 -1.29285 -0.901281 0
M  V30 11242 C 1100.94 -1.19874 -1.68267 0
M  V30 11243 C 1101.34 0.243387 -1.87628 0
M  V30 11244 O 1100.69 1.17497 -1.41209 0
M  V30 11245 C 1100.75 -1.83907 -3.08899 0
M  V30 11246 C 1100.41 -3.33198 -3.12775 0
M  V30 11247 C 1101.41 -4.29446 -2.9304 0
M  V30 11248 C 1099.1 -3.7437 -3.34892 0
M  V30 11249 C 1101.09 -5.64842 -2.95352 0
M  V30 11250 C 1098.78 -5.09888 -3.36834 0
M  V30 11251 C 1099.77 -6.04934 -3.17087 0
M  V30 11252 O 1099.46 -7.37979 -3.18815 0
M  V30 11253 H 1099.19 -0.416601 -0.532372 0
M  V30 11254 H 1101.75 -1.71154 -1.13558 0
M  V30 11255 H 1099.98 -1.27136 -3.65203 0
M  V30 11256 H 1101.67 -1.6884 -3.69118 0
M  V30 11257 H 1102.43 -3.9897 -2.75767 0
M  V30 11258 H 1098.31 -3.00846 -3.49303 0
M  V30 11259 H 1101.86 -6.39004 -2.79856 0
M  V30 11260 H 1097.75 -5.40009 -3.53638 0
M  V30 11261 H 1098.52 -7.46763 -3.35092 0
M  V30 11262 N 1101.18 1.11143 -1.11736 0
M  V30 11263 C 1102.41 1.86745 -0.890727 0
M  V30 11264 C 1102.83 1.80315 0.55964 0
M  V30 11265 O 1102.18 1.18663 1.38656 0
M  V30 11266 C 1102.24 3.35436 -1.34779 0
M  V30 11267 O 1101.96 3.41738 -2.74129 0
M  V30 11268 C 1103.46 4.27935 -1.15702 0
M  V30 11269 H 1100.68 0.59044 -0.318781 0
M  V30 11270 H 1103.22 1.40549 -1.48547 0
M  V30 11271 H 1101.38 3.79125 -0.796425 0
M  V30 11272 H 1101.79 4.34347 -2.94012 0
M  V30 11273 H 1103.26 5.30494 -1.52579 0
M  V30 11274 H 1103.74 4.39093 -0.0968735 0
M  V30 11275 H 1104.35 3.90042 -1.69551 0
M  V30 11276 N 1102.66 0.908147 1.28804 0
M  V30 11277 C 1104.07 0.585727 1.77274 0
M  V30 11278 C 1104.42 -0.898842 1.744 0
M  V30 11279 O 1103.55 -1.70301 1.33516 0
M  V30 11280 C 1104.14 1.05647 3.21907 0
M  V30 11281 C 1102.7 0.785066 3.68122 0
M  V30 11282 C 1101.85 1.22638 2.48707 0
M  V30 11283 H 1104.8 1.09 1.15346 0
M  V30 11284 H 1104.82 0.395442 3.7844 0
M  V30 11285 H 1104.33 2.13698 3.23967 0
M  V30 11286 H 1102.44 -0.282477 3.71528 0
M  V30 11287 H 1102.55 1.38888 4.58527 0
M  V30 11288 H 1100.91 0.645217 2.46392 0
M  V30 11289 H 1101.7 2.31512 2.5349 0
M  V30 11290 N 1104.14 -1.42577 0.671525 0
M  V30 11291 C 1105.39 -2.01882 0.192716 0
M  V30 11292 C 1105.72 -1.52959 -1.19654 0
M  V30 11293 O 1104.99 -0.730404 -1.80265 0
M  V30 11294 C 1105.28 -3.59404 0.223734 0
M  V30 11295 C 1105.13 -4.18514 1.64821 0
M  V30 11296 C 1106.45 -4.37996 -0.429858 0
M  V30 11297 H 1103.57 -0.733523 0.0715026 0
M  V30 11298 H 1106.21 -1.69641 0.855689 0
M  V30 11299 H 1104.36 -3.87003 -0.340776 0
M  V30 11300 H 1106.03 -4.01881 2.26472 0
M  V30 11301 H 1104.28 -3.74467 2.1899 0
M  V30 11302 H 1104.95 -5.27643 1.62162 0
M  V30 11303 H 1107.42 -4.16069 0.0506433 0
M  V30 11304 H 1106.3 -5.476 -0.377503 0
M  V30 11305 H 1106.56 -4.15625 -1.50693 0
M  V30 11306 N 1105.62 -0.414636 -1.52048 0
M  V30 11307 C 1106.87 0.159034 -2.01473 0
M  V30 11308 C 1107.19 1.45176 -1.30188 0
M  V30 11309 O 1106.46 1.91134 -0.429469 0
M  V30 11310 H 1105.04 0.0617604 -0.744443 0
M  V30 11311 H 1107.7 -0.552141 -1.86916 0
M  V30 11312 H 1106.8 0.351217 -3.10118 0
M  V30 11313 N 1107.1 1.56929 -0.145233 0
M  V30 11314 C 1108.32 2.00431 0.513314 0
M  V30 11315 C 1108.74 1.0253 1.58534 0
M  V30 11316 O 1108.1 0.0220459 1.82487 0
M  V30 11317 C 1108.15 3.43856 1.11557 0
M  V30 11318 O 1107.87 4.38015 0.0863707 0
M  V30 11319 C 1109.37 4.02627 1.8549 0
M  V30 11320 H 1106.59 0.657529 0.133778 0
M  V30 11321 H 1109.13 2.03095 -0.239296 0
M  V30 11322 H 1107.29 3.4205 1.81881 0
M  V30 11323 H 1107.7 5.21842 0.527363 0
M  V30 11324 H 1109.18 5.04985 2.22923 0
M  V30 11325 H 1109.65 3.43239 2.74014 0
M  V30 11326 H 1110.26 4.08058 1.19869 0
M  V30 11327 N 1108.58 -0.128553 1.57075 0
M  V30 11328 C 1109.8 -0.8564 1.88893 0
M  V30 11329 C 1110.23 -1.73095 0.736196 0
M  V30 11330 O 1109.58 -1.78567 -0.313629 0
M  V30 11331 C 1109.63 -1.67368 3.19406 0
M  V30 11332 O 1108.74 -2.77973 3.04639 0
M  V30 11333 H 1108.08 -0.237424 0.620102 0
M  V30 11334 H 1110.61 -0.113821 2.04283 0
M  V30 11335 H 1110.62 -2.0649 3.51889 0
M  V30 11336 H 1109.29 -1.03161 4.02903 0
M  V30 11337 H 1107.87 -2.42123 2.83603 0
M  V30 11338 N 1110.05 -1.5248 -0.398459 0
M  V30 11339 C 1111.46 -1.59107 -0.976817 0
M  V30 11340 C 1111.82 -0.438104 -1.91246 0
M  V30 11341 O 1110.94 0.440111 -2.11877 0
M  V30 11342 C 1111.54 -2.88373 -1.77838 0
M  V30 11343 C 1110.09 -2.97445 -2.30659 0
M  V30 11344 C 1109.24 -2.5414 -1.10942 0
M  V30 11345 H 1112.19 -1.57695 -0.178324 0
M  V30 11346 H 1112.21 -2.74327 -2.63676 0
M  V30 11347 H 1111.73 -3.72269 -1.09714 0
M  V30 11348 H 1109.83 -2.18066 -3.02123 0
M  V30 11349 H 1109.94 -4.019 -2.60794 0
M  V30 11350 H 1108.3 -2.08237 -1.46661 0
M  V30 11351 H 1109.09 -3.40421 -0.443684 0
M  V30 11352 N 1111.53 0.65634 -1.43283 0
M  V30 11353 C 1112.46 1.78101 -1.51004 0
M  V30 11354 C 1113.44 1.66138 -0.36498 0
M  V30 11355 O 1114.63 1.85281 -0.581778 0
M  V30 11356 C 1111.76 3.16511 -1.42961 0
M  V30 11357 C 1110.71 3.43233 -2.55685 0
M  V30 11358 C 1110.04 4.81411 -2.32696 0
M  V30 11359 C 1111.34 3.38288 -3.97943 0
M  V30 11360 H 1113.03 1.71896 -2.45137 0
M  V30 11361 H 1110.58 0.825575 -1.17984 0
M  V30 11362 H 1112.53 3.94941 -1.46968 0
M  V30 11363 H 1111.25 3.23439 -0.45332 0
M  V30 11364 H 1109.91 2.67173 -2.51026 0
M  V30 11365 H 1109.56 4.85011 -1.33317 0
M  V30 11366 H 1109.26 5.00251 -3.08257 0
M  V30 11367 H 1110.79 5.62102 -2.38481 0
M  V30 11368 H 1112.2 4.06659 -4.04106 0
M  V30 11369 H 1110.6 3.68664 -4.73505 0
M  V30 11370 H 1111.67 2.36525 -4.23301 0
M  V30 11371 N 1113.01 1.29761 0.894412 0
M  V30 11372 C 1114.42 1.16275 1.46072 0
M  V30 11373 C 1114.77 -0.240123 1.94725 0
M  V30 11374 O 1113.9 -1.13606 1.84181 0
M  V30 11375 C 1114.49 2.10471 2.65494 0
M  V30 11376 C 1113.05 2.00992 3.18244 0
M  V30 11377 C 1112.2 2.01094 1.90936 0
M  V30 11378 H 1115.15 1.42169 0.705243 0
M  V30 11379 H 1115.17 1.68003 3.41402 0
M  V30 11380 H 1114.68 3.12566 2.30053 0
M  V30 11381 H 1112.78 1.02005 3.58365 0
M  V30 11382 H 1112.9 2.88916 3.82184 0
M  V30 11383 H 1111.26 1.45764 2.08866 0
M  V30 11384 H 1112.04 3.04902 1.57764 0
M  V30 11385 N 1114.49 -1.10549 1.12324 0
M  V30 11386 C 1115.74 -1.82124 0.876083 0
M  V30 11387 C 1116.06 -1.85547 -0.599761 0
M  V30 11388 O 1115.33 -1.33269 -1.43584 0
M  V30 11389 H 1113.91 -0.674455 0.321122 0
M  V30 11390 H 1116.57 -1.33766 1.41748 0
M  V30 11391 H 1115.66 -2.85688 1.25653 0
M  V30 11392 N 1115.97 -0.914965 -1.28321 0
M  V30 11393 C 1117.21 -0.544639 -1.94208 0
M  V30 11394 C 1117.53 0.916368 -1.72806 0
M  V30 11395 O 1118.73 1.39491 -2.32926 0
M  V30 11396 C 1117.19 -0.923209 -3.47858 0
M  V30 11397 C 1116.8 -2.40403 -3.78035 0
M  V30 11398 C 1118.54 -0.623526 -4.19896 0
M  V30 11399 C 1116.45 -2.72266 -5.25 0
M  V30 11400 H 1115.38 -0.199966 -0.727 0
M  V30 11401 H 1118.03 -1.11405 -1.45812 0
M  V30 11402 H 1116.41 -0.282576 -3.94991 0
M  V30 11403 H 1117.59 -3.09149 -3.41706 0
M  V30 11404 H 1115.9 -2.67429 -3.19172 0
M  V30 11405 H 1118.5 -0.838243 -5.28089 0
M  V30 11406 H 1118.84 0.438721 -4.13982 0
M  V30 11407 H 1119.37 -1.22268 -3.78544 0
M  V30 11408 H 1116.11 -3.77349 -5.35993 0
M  V30 11409 H 1115.63 -2.08157 -5.62522 0
M  V30 11410 H 1117.31 -2.59334 -5.92752 0
M  V30 11411 N 1117.44 1.42219 -0.679077 0
M  V30 11412 C 1118.37 2.33493 -0.0174528 0
M  V30 11413 C 1119.35 1.50915 0.78477 0
M  V30 11414 O 1120.54 1.79504 0.741065 0
M  V30 11415 C 1117.67 3.34576 0.931463 0
M  V30 11416 C 1116.62 4.2734 0.237527 0
M  V30 11417 C 1115.95 5.18664 1.29967 0
M  V30 11418 C 1117.25 5.14729 -0.886082 0
M  V30 11419 H 1118.94 2.89068 -0.779748 0
M  V30 11420 H 1116.49 1.38993 -0.376419 0
M  V30 11421 H 1118.44 3.97343 1.40343 0
M  V30 11422 H 1117.17 2.77315 1.72523 0
M  V30 11423 H 1115.83 3.65973 -0.214245 0
M  V30 11424 H 1115.47 4.57727 2.08554 0
M  V30 11425 H 1115.17 5.81558 0.840463 0
M  V30 11426 H 1116.7 5.84308 1.77249 0
M  V30 11427 H 1118.11 5.71158 -0.495141 0
M  V30 11428 H 1116.51 5.86478 -1.27135 0
M  V30 11429 H 1117.58 4.52874 -1.733 0
M  V30 11430 N 1118.92 0.422693 1.51826 0
M  V30 11431 C 1120.33 -0.0438129 1.86649 0
M  V30 11432 C 1120.68 -1.43246 1.34071 0
M  V30 11433 O 1119.81 -2.05256 0.685501 0
M  V30 11434 C 1120.4 -0.0862802 3.3869 0
M  V30 11435 C 1118.96 -0.497157 3.73102 0
M  V30 11436 C 1118.11 0.319655 2.75451 0
M  V30 11437 H 1121.06 0.639181 1.45259 0
M  V30 11438 H 1121.08 -0.8988 3.69732 0
M  V30 11439 H 1120.59 0.924525 3.76927 0
M  V30 11440 H 1118.69 -1.51411 3.40449 0
M  V30 11441 H 1118.81 -0.232125 4.78537 0
M  V30 11442 H 1117.17 -0.219963 2.53748 0
M  V30 11443 H 1117.95 1.32906 3.16529 0
M  V30 11444 N 1120.4 -1.5685 0.153553 0
M  V30 11445 C 1121.63 -2.00701 -0.502678 0
M  V30 11446 C 1122.04 -1.0337 -1.57988 0
M  V30 11447 O 1121.4 -0.0317233 -1.82472 0
M  V30 11448 C 1121.45 -3.44443 -1.09732 0
M  V30 11449 O 1121.17 -4.38054 -0.0631405 0
M  V30 11450 C 1122.67 -4.03605 -1.83352 0
M  V30 11451 H 1119.89 -0.658229 -0.130289 0
M  V30 11452 H 1122.44 -2.02965 0.250063 0
M  V30 11453 H 1120.59 -3.43009 -1.80065 0
M  V30 11454 H 1121.01 -5.22114 -0.499681 0
M  V30 11455 H 1122.48 -5.0616 -2.20241 0
M  V30 11456 H 1122.96 -3.44687 -2.7219 0
M  V30 11457 H 1123.56 -4.08688 -1.17703 0
M  V30 11458 N 1121.88 0.120221 -1.57141 0
M  V30 11459 C 1123.12 0.824472 -1.85941 0
M  V30 11460 C 1123.48 1.77552 -0.741152 0
M  V30 11461 O 1122.77 1.89842 0.258939 0
M  V30 11462 C 1122.97 1.61338 -3.18912 0
M  V30 11463 C 1122.79 0.740224 -4.43566 0
M  V30 11464 C 1121.56 0.39553 -5.0375 0
M  V30 11465 C 1123.76 0.0584053 -5.14267 0
M  V30 11466 N 1121.74 -0.488415 -6.11954 0
M  V30 11467 C 1123.12 -0.684591 -6.16209 0
M  V30 11468 C 1125.17 -0.0181409 -4.97897 0
M  V30 11469 C 1123.87 -1.49694 -7.03551 0
M  V30 11470 C 1125.9 -0.817313 -5.85725 0
M  V30 11471 C 1125.26 -1.54851 -6.87169 0
M  V30 11472 H 1121.36 0.278664 -0.730664 0
M  V30 11473 H 1123.94 0.0882789 -1.945 0
M  V30 11474 H 1122.12 2.32062 -3.11451 0
M  V30 11475 H 1123.85 2.26287 -3.35524 0
M  V30 11476 H 1120.6 0.737491 -4.67823 0
M  V30 11477 H 1121.03 -0.9222 -6.7069 0
M  V30 11478 H 1125.67 0.532815 -4.19429 0
M  V30 11479 H 1123.39 -2.05906 -7.81427 0
M  V30 11480 H 1126.97 -0.878884 -5.75123 0
M  V30 11481 H 1125.85 -2.15696 -7.53953 0
M  V30 11482 N 1123.36 1.52689 0.390367 0
M  V30 11483 C 1124.77 1.59623 0.968366 0
M  V30 11484 C 1125.12 0.44824 1.91011 0
M  V30 11485 O 1124.24 -0.428868 2.12108 0
M  V30 11486 C 1124.84 2.89312 1.76306 0
M  V30 11487 C 1123.4 2.98664 2.29079 0
M  V30 11488 C 1122.54 2.54725 1.09593 0
M  V30 11489 H 1125.5 1.57787 0.169959 0
M  V30 11490 H 1125.52 2.75721 2.62217 0
M  V30 11491 H 1125.03 3.72846 1.07738 0
M  V30 11492 H 1123.13 2.19665 3.00962 0
M  V30 11493 H 1123.24 4.03277 2.58659 0
M  V30 11494 H 1121.61 2.09012 1.45554 0
M  V30 11495 H 1122.39 3.40651 0.425625 0
M  V30 11496 N 1124.83 -0.648732 1.43629 0
M  V30 11497 C 1126.25 -1.23001 1.40455 0
M  V30 11498 C 1126.6 -1.95886 0.110897 0
M  V30 11499 O 1125.72 -2.01485 -0.789487 0
M  V30 11500 C 1126.32 -2.23716 2.54434 0
M  V30 11501 C 1124.88 -2.77311 2.54511 0
M  V30 11502 C 1124.02 -1.52024 2.31914 0
M  V30 11503 H 1126.97 -0.440473 1.52465 0
M  V30 11504 H 1126.99 -3.05979 2.26179 0
M  V30 11505 H 1126.51 -1.7064 3.48574 0
M  V30 11506 H 1124.61 -3.34437 1.64263 0
M  V30 11507 H 1124.72 -3.2455 3.52426 0
M  V30 11508 H 1123.08 -1.79531 1.80667 0
M  V30 11509 H 1123.87 -1.00876 3.28145 0
M  V30 11510 N 1126.31 -1.30234 -0.887518 0
M  V30 11511 C 1127.54 -1.21829 -1.67229 0
M  V30 11512 C 1127.96 0.219251 -1.87523 0
M  V30 11513 O 1127.31 1.14526 -1.42091 0
M  V30 11514 C 1127.36 -1.94044 -3.05007 0
M  V30 11515 O 1127.08 -3.32185 -2.85631 0
M  V30 11516 C 1128.59 -1.92265 -3.99436 0
M  V30 11517 H 1125.81 -0.421716 -0.521916 0
M  V30 11518 H 1128.35 -1.71816 -1.10903 0
M  V30 11519 H 1126.5 -1.47861 -3.58072 0
M  V30 11520 H 1126.92 -3.68724 -3.73018 0
M  V30 11521 H 1128.39 -2.47336 -4.93486 0
M  V30 11522 H 1128.87 -0.900984 -4.29859 0
M  V30 11523 H 1129.48 -2.38247 -3.52305 0
M  V30 11524 N 1127.79 1.09952 -1.12909 0
M  V30 11525 C 1129.04 1.81657 -0.885729 0
M  V30 11526 C 1129.36 1.85863 0.589913 0
M  V30 11527 O 1128.63 1.34028 1.42875 0
M  V30 11528 H 1127.21 0.672743 -0.324694 0
M  V30 11529 H 1129.87 1.33013 -1.42456 0
M  V30 11530 H 1128.97 2.85018 -1.27167 0
M  V30 11531 N 1129.27 0.921757 1.27833 0
M  V30 11532 C 1130.23 0.420978 2.25301 0
M  V30 11533 C 1131.23 -0.457158 1.54165 0
M  V30 11534 O 1132.42 -0.259079 1.72263 0
M  V30 11535 C 1129.55 -0.395501 3.38598 0
M  V30 11536 H 1130.75 1.28206 2.71115 0
M  V30 11537 H 1128.3 0.701893 1.39654 0
M  V30 11538 H 1129.03 -1.27565 2.98157 0
M  V30 11539 H 1128.82 0.234029 3.91401 0
M  V30 11540 H 1130.31 -0.736444 4.11055 0
M  V30 11541 N 1130.75 -1.41857 0.686609 0
M  V30 11542 C 1131.66 -2.34595 0.0159005 0
M  V30 11543 C 1132.67 -1.55741 -0.775933 0
M  V30 11544 O 1133.85 -1.8826 -0.71555 0
M  V30 11545 C 1130.91 -3.34395 -0.915473 0
M  V30 11546 C 1129.97 -4.29141 -0.116851 0
M  V30 11547 C 1129.21 -5.24174 -1.00386 0
M  V30 11548 O 1129.43 -5.24431 -2.2434 0
M  V30 11549 O 1128.36 -6.00152 -0.458337 0
M  V30 11550 H 1132.19 -2.9351 0.780101 0
M  V30 11551 H 1129.78 -1.42559 0.446896 0
M  V30 11552 H 1131.66 -3.95675 -1.44981 0
M  V30 11553 H 1130.33 -2.77936 -1.65932 0
M  V30 11554 H 1129.24 -3.71238 0.461871 0
M  V30 11555 H 1130.57 -4.88673 0.588138 0
M  V30 11556 N 1132.22 -0.430739 -1.51599 0
M  V30 11557 C 1133.45 0.136797 -2.06447 0
M  V30 11558 C 1133.87 1.37027 -1.29881 0
M  V30 11559 O 1133.22 1.78983 -0.356543 0
M  V30 11560 C 1133.28 0.465637 -3.58489 0
M  V30 11561 O 1133 -0.718873 -4.32162 0
M  V30 11562 C 1134.5 1.08456 -4.29828 0
M  V30 11563 H 1131.72 0.0108468 -0.670912 0
M  V30 11564 H 1134.26 -0.607921 -1.95255 0
M  V30 11565 H 1132.42 1.16025 -3.69617 0
M  V30 11566 H 1132.83 -0.439195 -5.22658 0
M  V30 11567 H 1134.3 1.2647 -5.37317 0
M  V30 11568 H 1134.78 2.06376 -3.87693 0
M  V30 11569 H 1135.39 0.429525 -4.23125 0
M  V30 11570 N 1133.7 1.56767 -0.161869 0
M  V30 11571 C 1134.61 2.21083 0.784814 0
M  V30 11572 C 1135.63 1.19959 1.26039 0
M  V30 11573 O 1136.8 1.52588 1.31449 0
M  V30 11574 C 1133.87 2.83153 2.00063 0
M  V30 11575 C 1132.93 3.9945 1.57285 0
M  V30 11576 C 1132.16 4.5855 2.7307 0
M  V30 11577 O 1132.39 4.16534 3.89686 0
M  V30 11578 O 1131.32 5.48575 2.47688 0
M  V30 11579 H 1135.15 3.02522 0.267243 0
M  V30 11580 H 1132.73 1.49255 0.0658783 0
M  V30 11581 H 1134.61 3.22546 2.71186 0
M  V30 11582 H 1133.29 2.04718 2.50744 0
M  V30 11583 H 1132.2 3.64745 0.831393 0
M  V30 11584 H 1133.53 4.7945 1.11304 0
M  V30 11585 N 1135.18 -0.111886 1.57202 0
M  V30 11586 C 1136.09 -1.1556 2.04165 0
M  V30 11587 C 1137.11 -1.44898 0.963354 0
M  V30 11588 O 1138.28 -1.55873 1.27536 0
M  V30 11589 C 1135.35 -2.46048 2.44256 0
M  V30 11590 C 1134.41 -2.24043 3.66201 0
M  V30 11591 C 1133.64 -3.4831 4.04371 0
M  V30 11592 O 1133.86 -4.55895 3.42806 0
M  V30 11593 O 1132.8 -3.38891 4.9743 0
M  V30 11594 H 1136.62 -0.786778 2.93332 0
M  V30 11595 H 1134.21 -0.323196 1.45862 0
M  V30 11596 H 1136.09 -3.22916 2.70745 0
M  V30 11597 H 1134.77 -2.8239 1.58233 0
M  V30 11598 H 1133.67 -1.4501 3.44852 0
M  V30 11599 H 1135.01 -1.92602 4.52952 0
M  V30 11600 N 1136.66 -1.52894 -0.382264 0
M  V30 11601 C 1137.88 -1.72453 -1.15216 0
M  V30 11602 C 1138.31 -0.444925 -1.82762 0
M  V30 11603 O 1137.67 0.599825 -1.7109 0
M  V30 11604 C 1137.71 -2.87939 -2.17079 0
M  V30 11605 O 1136.82 -2.55383 -3.23811 0
M  V30 11606 H 1136.16 -0.57324 -0.335099 0
M  V30 11607 H 1138.69 -1.99713 -0.444495 0
M  V30 11608 H 1138.7 -3.13628 -2.60963 0
M  V30 11609 H 1137.37 -3.80765 -1.67305 0
M  V30 11610 H 1135.95 -2.40457 -2.85018 0
M  V30 11611 N 1138.14 0.641106 -1.43971 0
M  V30 11612 C 1139.37 1.42829 -1.49692 0
M  V30 11613 C 1139.78 1.88427 -0.118594 0
M  V30 11614 O 1139.14 1.60234 0.873581 0
M  V30 11615 C 1139.19 2.65524 -2.45314 0
M  V30 11616 O 1138.91 2.2183 -3.77787 0
M  V30 11617 C 1140.41 3.58758 -2.60399 0
M  V30 11618 H 1137.63 0.438367 -0.508011 0
M  V30 11619 H 1140.17 0.784933 -1.88836 0
M  V30 11620 H 1138.33 3.25973 -2.09332 0
M  V30 11621 H 1138.74 3.01303 -4.29321 0
M  V30 11622 H 1140.22 4.41483 -3.31357 0
M  V30 11623 H 1140.69 4.06909 -1.65294 0
M  V30 11624 H 1141.3 3.04184 -2.97241 0
M  V30 11625 N 1139.62 1.30703 0.880598 0
M  V30 11626 C 1140.53 1.19389 2.01949 0
M  V30 11627 C 1141.54 0.112868 1.73634 0
M  V30 11628 O 1142.72 0.328643 1.98701 0
M  V30 11629 C 1139.78 0.891004 3.35055 0
M  V30 11630 C 1138.84 2.05784 3.76764 0
M  V30 11631 C 1138.08 1.76931 5.03519 0
M  V30 11632 O 1138.3 0.699326 5.66097 0
M  V30 11633 O 1137.23 2.623 5.4174 0
M  V30 11634 H 1141.06 2.15073 2.14423 0
M  V30 11635 H 1138.64 1.10339 1.00726 0
M  V30 11636 H 1140.53 0.737476 4.14897 0
M  V30 11637 H 1139.2 -0.0358909 3.2368 0
M  V30 11638 H 1138.11 2.26672 2.97608 0
M  V30 11639 H 1139.44 2.96661 3.9275 0
M  V30 11640 N 1141.09 -1.09351 1.1349 0
M  V30 11641 C 1142.34 -1.81185 0.89535 0
M  V30 11642 C 1142.66 -1.86173 -0.580048 0
M  V30 11643 O 1141.93 -1.34784 -1.42162 0
M  V30 11644 H 1140.51 -0.671011 0.328257 0
M  V30 11645 H 1143.17 -1.32255 1.43159 0
M  V30 11646 H 1142.27 -2.84339 1.28676 0
M  V30 11647 N 1142.57 -0.928524 -1.27343 0
M  V30 11648 C 1143.98 -0.613856 -1.7632 0
M  V30 11649 C 1144.33 0.870983 -1.75808 0
M  V30 11650 O 1143.46 1.68155 -1.36209 0
M  V30 11651 C 1144.05 -1.10755 -3.20186 0
M  V30 11652 C 1142.61 -0.843532 -3.66826 0
M  V30 11653 C 1141.76 -1.26579 -2.46724 0
M  V30 11654 H 1144.71 -1.10821 -1.13598 0
M  V30 11655 H 1144.73 -0.455598 -3.77763 0
M  V30 11656 H 1144.24 -2.18825 -3.20526 0
M  V30 11657 H 1142.34 0.223334 -3.7193 0
M  V30 11658 H 1142.46 -1.46165 -4.56259 0
M  V30 11659 H 1140.82 -0.684334 -2.45334 0
M  V30 11660 H 1141.6 -2.35516 -2.49774 0
M  V30 11661 N 1144.05 1.41491 -0.694123 0
M  V30 11662 C 1145.27 2.06099 -0.23197 0
M  V30 11663 C 1145.7 1.51888 1.10958 0
M  V30 11664 O 1145.06 0.645247 1.69429 0
M  V30 11665 C 1145.11 3.60053 -0.198522 0
M  V30 11666 O 1144.21 4.04021 0.827067 0
M  V30 11667 H 1143.55 0.654193 -0.113699 0
M  V30 11668 H 1146.08 1.81282 -0.948575 0
M  V30 11669 H 1146.09 4.0799 -0.0288904 0
M  V30 11670 H 1144.77 3.98879 -1.17764 0
M  V30 11671 H 1143.34 3.67593 0.626908 0
M  V30 11672 N 1145.53 0.438773 1.51369 0
M  V30 11673 C 1146.49 -0.36032 2.2635 0
M  V30 11674 C 1147.49 -0.948465 1.29849 0
M  V30 11675 O 1148.68 -0.822692 1.53549 0
M  V30 11676 C 1145.81 -1.50994 3.05636 0
M  V30 11677 H 1147.01 0.296826 2.98427 0
M  V30 11678 H 1144.56 0.191978 1.55117 0
M  V30 11679 H 1145.29 -2.2031 2.37979 0
M  V30 11680 H 1145.08 -1.09437 3.76518 0
M  V30 11681 H 1146.57 -2.07447 3.6243 0
M  V30 11682 N 1147.01 -1.56678 0.170181 0
M  V30 11683 C 1148.23 -2.01223 -0.481362 0
M  V30 11684 C 1148.65 -1.05039 -1.56883 0
M  V30 11685 O 1148.01 -0.0510751 -1.82429 0
M  V30 11686 C 1148.06 -3.45588 -1.06073 0
M  V30 11687 O 1147.78 -4.38097 -0.0166754 0
M  V30 11688 C 1149.28 -4.05527 -1.79061 0
M  V30 11689 H 1146.5 -0.659574 -0.1233 0
M  V30 11690 H 1149.04 -2.02689 0.271576 0
M  V30 11691 H 1147.2 -3.449 -1.76417 0
M  V30 11692 H 1147.61 -5.22615 -0.444276 0
M  V30 11693 H 1149.09 -5.08467 -2.1486 0
M  V30 11694 H 1149.56 -3.47554 -2.68519 0
M  V30 11695 H 1150.17 -4.09914 -1.13361 0
M  V30 11696 N 1148.48 0.103547 -1.57259 0
M  V30 11697 C 1149.39 1.14475 -2.04774 0
M  V30 11698 C 1150.41 1.44385 -0.971025 0
M  V30 11699 O 1151.59 1.55195 -1.28361 0
M  V30 11700 C 1148.65 2.4475 -2.45558 0
M  V30 11701 C 1147.71 2.22098 -3.67384 0
M  V30 11702 C 1146.94 3.4616 -4.06213 0
M  V30 11703 O 1147.17 4.5407 -3.45219 0
M  V30 11704 O 1146.1 3.36248 -4.9922 0
M  V30 11705 H 1149.93 0.771211 -2.93745 0
M  V30 11706 H 1147.51 0.315456 -1.46032 0
M  V30 11707 H 1149.39 3.21476 -2.72454 0
M  V30 11708 H 1148.07 2.81547 -1.59728 0
M  V30 11709 H 1146.98 1.43179 -3.45616 0
M  V30 11710 H 1148.31 1.90197 -4.53967 0
M  V30 11711 N 1149.96 1.53094 0.37415 0
M  V30 11712 C 1151.21 1.69111 1.11934 0
M  V30 11713 C 1151.54 0.437252 1.89213 0
M  V30 11714 O 1150.82 -0.565298 1.86104 0
M  V30 11715 C 1151.1 2.93559 2.08554 0
M  V30 11716 C 1150.95 4.29082 1.3494 0
M  V30 11717 C 1152.27 3.13586 3.08791 0
M  V30 11718 H 1149.39 0.615383 0.405553 0
M  V30 11719 H 1152.03 1.85719 0.401078 0
M  V30 11720 H 1150.18 2.79531 2.69805 0
M  V30 11721 H 1151.85 4.54906 0.765402 0
M  V30 11722 H 1150.1 4.28884 0.651238 0
M  V30 11723 H 1150.77 5.12275 2.05616 0
M  V30 11724 H 1153.24 3.26743 2.57639 0
M  V30 11725 H 1152.12 4.02112 3.73627 0
M  V30 11726 H 1152.38 2.28475 3.78486 0
M  V30 11727 N 1151.44 -0.633461 1.44309 0
M  V30 11728 C 1152.85 -1.21504 1.41752 0
M  V30 11729 C 1153.2 -1.95758 0.131667 0
M  V30 11730 O 1152.33 -2.02311 -0.768072 0
M  V30 11731 C 1152.92 -2.21005 2.56792 0
M  V30 11732 C 1151.48 -2.74596 2.57438 0
M  V30 11733 C 1150.63 -1.49555 2.33513 0
M  V30 11734 H 1153.58 -0.424277 1.52923 0
M  V30 11735 H 1153.6 -3.03563 2.29412 0
M  V30 11736 H 1153.11 -1.66934 3.50364 0
M  V30 11737 H 1151.21 -3.32676 1.67801 0
M  V30 11738 H 1151.33 -3.20794 3.55849 0
M  V30 11739 H 1149.69 -1.77605 1.82561 0
M  V30 11740 H 1150.47 -0.973899 3.29196 0
M  V30 11741 N 1152.92 -1.31168 -0.873655 0
M  V30 11742 C 1154.14 -1.23728 -1.66452 0
M  V30 11743 C 1154.57 0.194869 -1.87088 0
M  V30 11744 O 1153.93 1.1397 -1.40998 0
M  V30 11745 C 1153.97 -1.98285 -3.0119 0
M  V30 11746 O 1153.08 -1.31767 -3.90783 0
M  V30 11747 H 1152.42 -0.427362 -0.508191 0
M  V30 11748 H 1154.95 -1.73176 -1.08955 0
M  V30 11749 H 1154.96 -2.0774 -3.51153 0
M  V30 11750 H 1153.63 -3.02437 -2.8549 0
M  V30 11751 H 1152.21 -1.3074 -3.4923 0
M  V30 11752 N 1154.4 1.08748 -1.14068 0
M  V30 11753 C 1155.36 2.1375 -0.827266 0
M  V30 11754 C 1156.36 1.59936 0.166496 0
M  V30 11755 O 1157.55 1.74092 -0.0614305 0
M  V30 11756 C 1154.68 3.40106 -0.232557 0
M  V30 11757 H 1155.87 2.42985 -1.7578 0
M  V30 11758 H 1153.43 1.24402 -0.946244 0
M  V30 11759 H 1154.16 3.16503 0.706859 0
M  V30 11760 H 1153.95 3.8046 -0.948293 0
M  V30 11761 H 1155.44 4.17589 -0.0303662 0
M  V30 11762 N 1155.87 0.935264 1.26849 0
M  V30 11763 C 1157.1 0.595704 1.98661 0
M  V30 11764 C 1157.52 -0.821001 1.69237 0
M  V30 11765 O 1156.88 -1.55211 0.936982 0
M  V30 11766 C 1156.93 0.837275 3.50745 0
M  V30 11767 O 1156.03 -0.0934914 4.12294 0
M  V30 11768 H 1155.38 0.228512 0.623441 0
M  V30 11769 H 1157.91 1.25658 1.61466 0
M  V30 11770 H 1157.92 0.755827 4.00938 0
M  V30 11771 H 1156.59 1.86993 3.71492 0
M  V30 11772 H 1155.17 0.0385124 3.7288 0
M  V30 11773 N 1157.35 -1.41121 0.701616 0
M  V30 11774 C 1158.26 -2.34565 0.0407815 0
M  V30 11775 C 1159.28 -1.56555 -0.75937 0
M  V30 11776 O 1160.45 -1.89008 -0.695542 0
M  V30 11777 C 1157.52 -3.35347 -0.879954 0
M  V30 11778 C 1156.58 -4.29241 -0.0713279 0
M  V30 11779 C 1155.81 -5.25209 -0.948211 0
M  V30 11780 O 1156.04 -5.26781 -2.18766 0
M  V30 11781 O 1154.97 -6.00605 -0.394657 0
M  V30 11782 H 1158.8 -2.92666 0.811188 0
M  V30 11783 H 1156.38 -1.42077 0.461991 0
M  V30 11784 H 1158.26 -3.9719 -1.40776 0
M  V30 11785 H 1156.94 -2.7968 -1.62975 0
M  V30 11786 H 1155.85 -3.70727 0.50122 0
M  V30 11787 H 1157.18 -4.88022 0.639935 0
M  V30 11788 N 1158.83 -0.446794 -1.51134 0
M  V30 11789 C 1159.74 0.36579 -2.31731 0
M  V30 11790 C 1160.76 1.01886 -1.41051 0
M  V30 11791 O 1161.93 1.01216 -1.74119 0
M  V30 11792 C 1159 1.44705 -3.15058 0
M  V30 11793 C 1158.06 0.813129 -4.21529 0
M  V30 11794 C 1157.29 1.84287 -5.00873 0
M  V30 11795 O 1157.51 3.06633 -4.8097 0
M  V30 11796 O 1156.45 1.42816 -5.84711 0
M  V30 11797 H 1160.27 -0.292436 -3.02289 0
M  V30 11798 H 1157.86 -0.209129 -1.47929 0
M  V30 11799 H 1159.74 2.07393 -3.66833 0
M  V30 11800 H 1158.42 2.08919 -2.47254 0
M  V30 11801 H 1157.32 0.147953 -3.73807 0
M  V30 11802 H 1158.66 0.214331 -4.91733 0
M  V30 11803 N 1160.31 1.56586 -0.178487 0
M  V30 11804 C 1161.72 1.83633 0.337009 0
M  V30 11805 C 1162.07 1.09857 1.6256 0
M  V30 11806 O 1161.2 0.353933 2.13486 0
M  V30 11807 C 1161.79 3.33112 0.618225 0
M  V30 11808 C 1160.35 3.60629 1.07814 0
M  V30 11809 C 1159.5 2.7705 0.117825 0
M  V30 11810 H 1162.45 1.53508 -0.402612 0
M  V30 11811 H 1162.47 3.5098 1.46947 0
M  V30 11812 H 1161.98 3.8678 -0.319808 0
M  V30 11813 H 1160.08 3.12378 2.03103 0
M  V30 11814 H 1160.19 4.68921 0.982339 0
M  V30 11815 H 1158.56 2.47125 0.616563 0
M  V30 11816 H 1159.34 3.33501 -0.814356 0
M  V30 11817 N 1161.79 -0.095206 1.57312 0
M  V30 11818 C 1163.01 -0.81614 1.90667 0
M  V30 11819 C 1163.44 -1.71494 0.772746 0
M  V30 11820 O 1162.79 -1.79192 -0.275682 0
M  V30 11821 C 1162.84 -1.60555 3.22885 0
M  V30 11822 O 1161.95 -2.71448 3.10467 0
M  V30 11823 H 1161.29 -0.224217 0.624998 0
M  V30 11824 H 1163.82 -0.070464 2.04479 0
M  V30 11825 H 1163.83 -1.98979 3.5619 0
M  V30 11826 H 1162.5 -0.945918 4.05 0
M  V30 11827 H 1161.08 -2.36053 2.88675 0
M  V30 11828 N 1163.26 -1.53291 -0.366026 0
M  V30 11829 C 1164.68 -1.61144 -0.942849 0
M  V30 11830 C 1165.03 -0.478571 -1.90274 0
M  V30 11831 O 1164.15 0.395069 -2.12763 0
M  V30 11832 C 1164.75 -2.92081 -1.71681 0
M  V30 11833 C 1163.31 -3.0227 -2.24298 0
M  V30 11834 C 1162.45 -2.56436 -1.05526 0
M  V30 11835 H 1165.4 -1.58038 -0.144835 0
M  V30 11836 H 1165.42 -2.79858 -2.57798 0
M  V30 11837 H 1164.94 -3.74513 -1.01793 0
M  V30 11838 H 1163.04 -2.24425 -2.97429 0
M  V30 11839 H 1163.15 -4.07341 -2.5221 0
M  V30 11840 H 1161.51 -2.11301 -1.42211 0
M  V30 11841 H 1162.3 -3.41285 -0.371376 0
M  V30 11842 N 1164.74 0.6258 -1.44643 0
M  V30 11843 C 1165.97 1.41726 -1.51422 0
M  V30 11844 C 1166.39 1.87565 -0.14181 0
M  V30 11845 O 1165.75 1.59059 0.870054 0
M  V30 11846 C 1165.8 2.61012 -2.48807 0
M  V30 11847 O 1164.9 3.61029 -1.99328 0
M  V30 11848 H 1164.24 0.423855 -0.511119 0
M  V30 11849 H 1166.77 0.763336 -1.89827 0
M  V30 11850 H 1166.78 3.08489 -2.67018 0
M  V30 11851 H 1165.46 2.26995 -3.48491 0
M  V30 11852 H 1164.04 3.20325 -1.90909 0
M  V30 11853 N 1166.22 1.31629 0.866686 0
M  V30 11854 C 1167.13 1.21524 2.00671 0
M  V30 11855 C 1168.15 0.131277 1.73504 0
M  V30 11856 O 1169.32 0.349699 1.98341 0
M  V30 11857 C 1166.39 0.926491 3.34091 0
M  V30 11858 C 1165.45 2.09769 3.7456 0
M  V30 11859 C 1164.68 1.82262 5.01614 0
M  V30 11860 O 1164.9 0.759329 5.65323 0
M  V30 11861 O 1163.84 2.68031 5.38928 0
M  V30 11862 H 1167.66 2.17335 2.1213 0
M  V30 11863 H 1165.25 1.11401 0.995499 0
M  V30 11864 H 1167.13 0.78144 4.14091 0
M  V30 11865 H 1165.81 -0.00155829 3.237 0
M  V30 11866 H 1164.71 2.29816 2.95187 0
M  V30 11867 H 1166.05 3.0081 3.89582 0
M  V30 11868 N 1167.7 -1.08142 1.14644 0
M  V30 11869 C 1168.95 -1.80849 0.917685 0
M  V30 11870 C 1169.28 -1.86123 -0.554249 0
M  V30 11871 O 1168.55 -1.33907 -1.41065 0
M  V30 11872 C 1168.84 -3.26325 1.52264 0
M  V30 11873 C 1168.69 -3.29244 3.06461 0
M  V30 11874 C 1170.01 -4.23375 1.20175 0
M  V30 11875 H 1167.13 -0.656559 0.334812 0
M  V30 11876 H 1169.77 -1.26595 1.41682 0
M  V30 11877 H 1167.92 -3.72656 1.09817 0
M  V30 11878 H 1169.59 -2.91216 3.57758 0
M  V30 11879 H 1167.83 -2.68438 3.40769 0
M  V30 11880 H 1168.51 -4.31785 3.43897 0
M  V30 11881 H 1170.98 -3.85394 1.56877 0
M  V30 11882 H 1169.86 -5.23472 1.65132 0
M  V30 11883 H 1170.12 -4.41944 0.117474 0
M  V30 11884 N 1169.18 -0.941978 -1.26351 0
M  V30 11885 C 1170.59 -0.632522 -1.75659 0
M  V30 11886 C 1170.94 0.852287 -1.76722 0
M  V30 11887 O 1170.06 1.66701 -1.37985 0
M  V30 11888 C 1170.66 -1.14145 -3.18993 0
M  V30 11889 C 1169.22 -0.882391 -3.65911 0
M  V30 11890 C 1168.37 -1.29189 -2.45368 0
M  V30 11891 H 1171.32 -1.12019 -1.12416 0
M  V30 11892 H 1171.34 -0.495639 -3.77258 0
M  V30 11893 H 1170.85 -2.22213 -3.18187 0
M  V30 11894 H 1168.95 0.183873 -3.72146 0
M  V30 11895 H 1169.06 -1.50996 -4.54683 0
M  V30 11896 H 1167.43 -0.710316 -2.44595 0
M  V30 11897 H 1168.21 -2.38152 -2.47262 0
M  V30 11898 N 1170.66 1.40747 -0.709091 0
M  V30 11899 C 1171.9 2.01003 -0.24581 0
M  V30 11900 C 1172.23 1.56203 1.15891 0
M  V30 11901 O 1171.49 0.770166 1.79908 0
M  V30 11902 C 1171.78 3.56404 -0.266685 0
M  V30 11903 C 1171.45 4.20762 -1.6208 0
M  V30 11904 C 1170.11 4.38056 -1.99148 0
M  V30 11905 C 1172.46 4.56723 -2.51105 0
M  V30 11906 C 1169.79 4.88591 -3.248 0
M  V30 11907 C 1172.14 5.08654 -3.76103 0
M  V30 11908 C 1170.81 5.24158 -4.13297 0
M  V30 11909 H 1170.08 0.73552 -0.0899481 0
M  V30 11910 H 1172.73 1.68451 -0.910844 0
M  V30 11911 H 1171.03 3.88825 0.481915 0
M  V30 11912 H 1172.73 4.0085 0.109509 0
M  V30 11913 H 1169.32 4.07685 -1.32252 0
M  V30 11914 H 1173.5 4.43004 -2.23744 0
M  V30 11915 H 1168.76 4.98779 -3.53595 0
M  V30 11916 H 1172.93 5.35457 -4.45262 0
M  V30 11917 H 1170.56 5.63079 -5.10731 0
M  V30 11918 N 1172.13 0.454803 1.50895 0
M  V30 11919 C 1173.54 -0.00421212 1.867 0
M  V30 11920 C 1173.9 -1.4037 1.3708 0
M  V30 11921 O 1173.02 -2.03755 0.728884 0
M  V30 11922 C 1173.62 -0.0144196 3.38797 0
M  V30 11923 C 1172.17 -0.417905 3.74073 0
M  V30 11924 C 1171.32 0.37801 2.74711 0
M  V30 11925 H 1174.27 0.669849 1.4387 0
M  V30 11926 H 1174.29 -0.820172 3.71555 0
M  V30 11927 H 1173.81 1.00427 3.74881 0
M  V30 11928 H 1171.91 -1.44155 3.43584 0
M  V30 11929 H 1172.02 -0.130568 4.78922 0
M  V30 11930 H 1170.38 -0.166089 2.54158 0
M  V30 11931 H 1171.17 1.3959 3.13639 0
M  V30 11932 N 1173.61 -1.56489 0.186789 0
M  V30 11933 C 1174.84 -2.02163 -0.463126 0
M  V30 11934 C 1175.26 -1.06612 -1.54969 0
M  V30 11935 O 1174.62 -0.0482139 -1.81236 0
M  V30 11936 C 1174.67 -3.46337 -1.00416 0
M  V30 11937 O 1173.77 -3.53889 -2.11747 0
M  V30 11938 H 1173.11 -0.65496 -0.109194 0
M  V30 11939 H 1175.64 -2.02459 0.295227 0
M  V30 11940 H 1175.65 -3.85959 -1.32287 0
M  V30 11941 H 1174.33 -4.15376 -0.208693 0
M  V30 11942 H 1172.9 -3.26136 -1.80803 0
M  V30 11943 N 1175.09 0.086862 -1.5736 0
M  V30 11944 C 1176 1.12297 -2.05977 0
M  V30 11945 C 1177.02 1.43347 -0.986284 0
M  V30 11946 O 1178.19 1.53825 -1.3 0
M  V30 11947 C 1175.26 2.42131 -2.4814 0
M  V30 11948 C 1174.32 2.18189 -3.69719 0
M  V30 11949 C 1173.55 3.41833 -4.09861 0
M  V30 11950 O 1173.77 4.50383 -3.50016 0
M  V30 11951 O 1172.71 3.30934 -5.02759 0
M  V30 11952 H 1176.53 0.740012 -2.94546 0
M  V30 11953 H 1174.12 0.29995 -1.46358 0
M  V30 11954 H 1176 3.18568 -2.75848 0
M  V30 11955 H 1174.68 2.79837 -1.62705 0
M  V30 11956 H 1173.58 1.39506 -3.47115 0
M  V30 11957 H 1174.92 1.85372 -4.55959 0
M  V30 11958 N 1176.57 1.53483 0.357892 0
M  V30 11959 C 1177.48 1.83434 1.4625 0
M  V30 11960 C 1178.49 0.723313 1.58254 0
M  V30 11961 O 1179.67 1.01416 1.74002 0
M  V30 11962 C 1176.73 2.0249 2.81423 0
M  V30 11963 C 1175.8 3.26378 2.78883 0
M  V30 11964 C 1175.03 3.44516 4.07608 0
M  V30 11965 O 1175.25 2.66787 5.04163 0
M  V30 11966 O 1174.19 4.37898 4.12952 0
M  V30 11967 H 1178.01 2.77294 1.23861 0
M  V30 11968 H 1175.6 1.38958 0.548722 0
M  V30 11969 H 1177.48 2.16552 3.61501 0
M  V30 11970 H 1176.15 1.11819 3.03773 0
M  V30 11971 H 1175.06 3.17733 1.97475 0
M  V30 11972 H 1176.39 4.16996 2.61486 0
M  V30 11973 N 1178.05 -0.61812 1.44973 0
M  V30 11974 C 1179.46 -1.19994 1.43033 0
M  V30 11975 C 1179.81 -1.95607 0.152422 0
M  V30 11976 O 1178.93 -2.03114 -0.746571 0
M  V30 11977 C 1179.53 -2.18269 2.59122 0
M  V30 11978 C 1178.09 -2.7185 2.60336 0
M  V30 11979 C 1177.23 -1.4707 2.35086 0
M  V30 11980 H 1180.18 -0.408034 1.53365 0
M  V30 11981 H 1180.21 -3.01113 2.32619 0
M  V30 11982 H 1179.72 -1.63208 3.52115 0
M  V30 11983 H 1177.82 -3.30878 1.7132 0
M  V30 11984 H 1177.93 -3.17001 3.59231 0
M  V30 11985 H 1176.3 -1.75658 1.84435 0
M  V30 11986 H 1177.08 -0.938928 3.30211 0
M  V30 11987 N 1179.52 -1.32087 -0.859693 0
M  V30 11988 C 1180.75 -1.25486 -1.6513 0
M  V30 11989 C 1181.17 0.175015 -1.87284 0
M  V30 11990 O 1180.53 1.12468 -1.42199 0
M  V30 11991 C 1180.58 -2.01469 -2.9907 0
M  V30 11992 O 1179.68 -1.35904 -3.89363 0
M  V30 11993 H 1179.02 -0.432728 -0.503629 0
M  V30 11994 H 1181.55 -1.74322 -1.07112 0
M  V30 11995 H 1181.56 -2.11452 -3.4893 0
M  V30 11996 H 1180.24 -3.05448 -2.82266 0
M  V30 11997 H 1178.82 -1.34437 -3.47823 0
M  V30 11998 N 1181 1.07532 -1.15215 0
M  V30 11999 C 1182.41 1.61567 -0.935568 0
M  V30 12000 C 1182.76 1.89085 0.523557 0
M  V30 12001 O 1181.89 1.65495 1.39429 0
M  V30 12002 C 1182.48 2.93531 -1.69189 0
M  V30 12003 C 1181.04 3.44316 -1.52063 0
M  V30 12004 C 1180.19 2.18404 -1.70866 0
M  V30 12005 H 1183.14 0.906431 -1.30267 0
M  V30 12006 H 1183.16 3.62377 -1.16031 0
M  V30 12007 H 1182.67 2.73471 -2.75381 0
M  V30 12008 H 1180.77 3.69462 -0.482567 0
M  V30 12009 H 1180.89 4.20478 -2.29642 0
M  V30 12010 H 1179.25 2.28012 -1.13502 0
M  V30 12011 H 1180.03 2.00841 -2.7842 0
M  V30 12012 N 1182.48 0.948665 1.2585 0
M  V30 12013 C 1183.71 0.616741 1.98018 0
M  V30 12014 C 1184.13 -0.803005 1.70098 0
M  V30 12015 O 1183.49 -1.54208 0.953392 0
M  V30 12016 C 1183.54 0.874429 3.49837 0
M  V30 12017 O 1182.64 -0.0497568 4.1237 0
M  V30 12018 H 1181.98 0.235112 0.620982 0
M  V30 12019 H 1184.51 1.27364 1.60124 0
M  V30 12020 H 1184.52 0.798309 4.00114 0
M  V30 12021 H 1183.2 1.90922 3.69488 0
M  V30 12022 H 1181.77 0.0780591 3.72818 0
M  V30 12023 N 1183.96 -1.40369 0.716545 0
M  V30 12024 C 1184.87 -2.34508 0.065658 0
M  V30 12025 C 1185.88 -1.57352 -0.742723 0
M  V30 12026 O 1187.06 -1.89735 -0.675456 0
M  V30 12027 C 1184.13 -3.36262 -0.844337 0
M  V30 12028 C 1183.19 -4.29292 -0.0257971 0
M  V30 12029 C 1182.42 -5.26185 -0.892452 0
M  V30 12030 O 1182.64 -5.29071 -2.13166 0
M  V30 12031 O 1181.58 -6.0099 -0.330933 0
M  V30 12032 H 1185.4 -2.91789 0.842184 0
M  V30 12033 H 1182.99 -1.41579 0.477034 0
M  V30 12034 H 1184.87 -3.98661 -1.36555 0
M  V30 12035 H 1183.54 -2.81393 -1.59999 0
M  V30 12036 H 1182.45 -3.70175 0.540512 0
M  V30 12037 H 1183.78 -4.87316 0.69166 0
M  V30 12038 N 1185.44 -0.462799 -1.50652 0
M  V30 12039 C 1186.35 0.341191 -2.32106 0
M  V30 12040 C 1187.36 1.00384 -1.42123 0
M  V30 12041 O 1188.54 0.993635 -1.75182 0
M  V30 12042 C 1185.6 1.41356 -3.16575 0
M  V30 12043 C 1184.66 0.768375 -4.22368 0
M  V30 12044 C 1183.9 1.78964 -5.028 0
M  V30 12045 O 1184.12 3.01515 -4.84195 0
M  V30 12046 O 1183.05 1.36606 -5.86193 0
M  V30 12047 H 1186.88 -0.324482 -3.01962 0
M  V30 12048 H 1184.47 -0.224807 -1.47699 0
M  V30 12049 H 1186.35 2.0349 -3.69012 0
M  V30 12050 H 1185.02 2.06285 -2.49456 0
M  V30 12051 H 1183.93 0.108297 -3.73943 0
M  V30 12052 H 1185.26 0.162164 -4.91933 0
M  V30 12053 N 1186.91 1.56388 -0.195085 0
M  V30 12054 C 1188.33 1.8398 0.317513 0
M  V30 12055 C 1188.68 1.11575 1.61386 0
M  V30 12056 O 1187.8 0.376557 2.13099 0
M  V30 12057 C 1188.4 3.33749 0.582859 0
M  V30 12058 C 1186.96 3.61752 1.03983 0
M  V30 12059 C 1186.1 2.77159 0.088434 0
M  V30 12060 H 1189.05 1.53072 -0.418871 0
M  V30 12061 H 1189.07 3.52519 1.43216 0
M  V30 12062 H 1188.59 3.86419 -0.360813 0
M  V30 12063 H 1186.69 3.14515 1.99778 0
M  V30 12064 H 1186.8 4.69937 0.932549 0
M  V30 12065 H 1185.16 2.47765 0.590317 0
M  V30 12066 H 1185.95 3.32619 -0.849682 0
M  V30 12067 N 1188.39 -0.0785156 1.57404 0
M  V30 12068 C 1189.64 -0.778938 1.86919 0
M  V30 12069 C 1189.97 -1.77915 0.785906 0
M  V30 12070 O 1189.22 -1.94473 -0.218811 0
M  V30 12071 C 1189.52 -1.52826 3.23078 0
M  V30 12072 C 1189.19 -0.668645 4.45915 0
M  V30 12073 C 1187.85 -0.43173 4.79259 0
M  V30 12074 C 1190.2 -0.0721327 5.2115 0
M  V30 12075 C 1187.53 0.41129 5.85257 0
M  V30 12076 C 1189.88 0.758303 6.28039 0
M  V30 12077 C 1188.55 1.00515 6.59889 0
M  V30 12078 H 1187.82 -0.285034 0.683986 0
M  V30 12079 H 1190.46 -0.039906 1.91458 0
M  V30 12080 H 1188.77 -2.33931 3.14299 0
M  V30 12081 H 1190.46 -2.07488 3.43147 0
M  V30 12082 H 1187.05 -0.863424 4.19813 0
M  V30 12083 H 1191.24 -0.242297 4.95708 0
M  V30 12084 H 1186.49 0.611354 6.08336 0
M  V30 12085 H 1190.67 1.2273 6.855 0
M  V30 12086 H 1188.3 1.66017 7.41851 0
M  V30 12087 N 1189.87 -1.5367 -0.349747 0
M  V30 12088 C 1191.28 -1.62135 -0.925704 0
M  V30 12089 C 1191.63 -0.498725 -1.89756 0
M  V30 12090 O 1190.76 0.372481 -2.1317 0
M  V30 12091 C 1191.35 -2.93885 -1.68573 0
M  V30 12092 C 1189.91 -3.04632 -2.2108 0
M  V30 12093 C 1189.06 -2.57541 -1.02801 0
M  V30 12094 H 1192.01 -1.58182 -0.128065 0
M  V30 12095 H 1192.03 -2.82577 -2.54815 0
M  V30 12096 H 1191.54 -3.75571 -0.978153 0
M  V30 12097 H 1189.64 -2.27567 -2.95032 0
M  V30 12098 H 1189.76 -4.09993 -2.47876 0
M  V30 12099 H 1188.12 -2.12798 -1.39962 0
M  V30 12100 H 1188.9 -3.4166 -0.335157 0
M  V30 12101 N 1191.35 0.610423 -1.45298 0
M  V30 12102 C 1192.57 1.40112 -1.52917 0
M  V30 12103 C 1193 1.87404 -0.161696 0
M  V30 12104 O 1192.36 1.59973 0.853135 0
M  V30 12105 C 1192.4 2.58359 -2.51561 0
M  V30 12106 O 1191.51 3.58895 -2.03146 0
M  V30 12107 H 1190.85 0.41841 -0.515586 0
M  V30 12108 H 1193.38 0.743159 -1.90626 0
M  V30 12109 H 1193.39 3.0564 -2.70275 0
M  V30 12110 H 1192.06 2.23286 -3.50879 0
M  V30 12111 H 1190.64 3.18282 -1.94296 0
M  V30 12112 N 1192.83 1.32541 0.852676 0
M  V30 12113 C 1194.07 1.23397 1.60938 0
M  V30 12114 C 1194.41 -0.203294 1.93133 0
M  V30 12115 O 1193.68 -1.14097 1.57519 0
M  V30 12116 C 1193.96 2.0956 2.92842 0
M  V30 12117 C 1193.82 3.61675 2.67416 0
M  V30 12118 C 1195.14 1.95825 3.94133 0
M  V30 12119 H 1192.25 0.449608 0.583971 0
M  V30 12120 H 1194.9 1.62507 0.98446 0
M  V30 12121 H 1193.05 1.76336 3.46176 0
M  V30 12122 H 1194.72 4.05122 2.20621 0
M  V30 12123 H 1192.96 3.84242 2.01347 0
M  V30 12124 H 1193.63 4.17292 3.61347 0
M  V30 12125 H 1196.11 2.24935 3.50062 0
M  V30 12126 H 1194.98 2.58387 4.8428 0
M  V30 12127 H 1195.25 0.926466 4.32284 0
M  V30 12128 N 1194.3 -1.0692 1.15784 0
M  V30 12129 C 1195.72 -1.31707 0.901408 0
M  V30 12130 C 1195.92 -1.96429 -0.449203 0
M  V30 12131 O 1194.98 -2.22692 -1.19015 0
M  V30 12132 C 1196.29 -2.20391 2.04568 0
M  V30 12133 C 1197.84 -2.33827 2.08072 0
M  V30 12134 C 1198.31 -3.25862 3.21835 0
M  V30 12135 N 1199.8 -3.33444 3.21511 0
M  V30 12136 C 1200.54 -4.04731 4.06177 0
M  V30 12137 N 1200.03 -4.78596 5.00917 0
M  V30 12138 N 1201.83 -4.00717 3.94185 0
M  V30 12139 H 1193.98 -0.632989 2.02749 0
M  V30 12140 H 1196.24 -0.341587 0.88432 0
M  V30 12141 H 1195.95 -1.80102 3.02087 0
M  V30 12142 H 1195.82 -3.20943 1.9818 0
M  V30 12143 H 1198.21 -2.73367 1.11151 0
M  V30 12144 H 1198.29 -1.32964 2.18527 0
M  V30 12145 H 1197.93 -2.8704 4.19012 0
M  V30 12146 H 1197.86 -4.26689 3.08617 0
M  V30 12147 H 1200.35 -2.80798 2.52905 0
M  V30 12148 H 1200.67 -5.30499 5.61952 0
M  V30 12149 H 1199.01 -4.77598 5.04902 0
M  V30 12150 H 1202.2 -3.42126 3.1948 0
M  V30 12151 H 1202.38 -4.56008 4.60392 0
M  V30 12152 N 1195.78 -0.955326 -1.25345 0
M  V30 12153 C 1197.19 -0.651118 -1.74978 0
M  V30 12154 C 1197.54 0.833495 -1.77616 0
M  V30 12155 O 1196.67 1.65228 -1.39745 0
M  V30 12156 C 1197.26 -1.17521 -3.17764 0
M  V30 12157 C 1195.82 -0.921151 -3.64954 0
M  V30 12158 C 1194.97 -1.31784 -2.43984 0
M  V30 12159 H 1197.92 -1.13205 -1.11222 0
M  V30 12160 H 1197.94 -0.535625 -3.76711 0
M  V30 12161 H 1197.45 -2.25575 -3.15813 0
M  V30 12162 H 1195.56 0.144392 -3.7232 0
M  V30 12163 H 1195.67 -1.5581 -4.53056 0
M  V30 12164 H 1194.03 -0.736219 -2.43828 0
M  V30 12165 H 1194.82 -2.40761 -2.44723 0
M  V30 12166 N 1197.26 1.39987 -0.723979 0
M  V30 12167 C 1198.51 2.00731 -0.267115 0
M  V30 12168 C 1198.84 1.57424 1.14228 0
M  V30 12169 O 1198.09 0.789205 1.79081 0
M  V30 12170 C 1198.39 3.56101 -0.304472 0
M  V30 12171 C 1198.06 4.1902 -1.66533 0
M  V30 12172 C 1196.72 4.3592 -2.03783 0
M  V30 12173 C 1199.07 4.54034 -2.55935 0
M  V30 12174 C 1196.4 4.85119 -3.29964 0
M  V30 12175 C 1198.75 5.04637 -3.81477 0
M  V30 12176 C 1197.41 5.19745 -4.18833 0
M  V30 12177 H 1196.68 0.734525 -0.0977442 0
M  V30 12178 H 1199.33 1.67476 -0.928659 0
M  V30 12179 H 1197.64 3.89314 0.440647 0
M  V30 12180 H 1199.33 4.00944 0.0669875 0
M  V30 12181 H 1195.92 4.0626 -1.36569 0
M  V30 12182 H 1200.11 4.40606 -2.2843 0
M  V30 12183 H 1195.36 4.95001 -3.58865 0
M  V30 12184 H 1199.54 5.30705 -4.50916 0
M  V30 12185 H 1197.16 5.5763 -5.16675 0
M  V30 12186 N 1198.74 0.470782 1.50404 0
M  V30 12187 C 1200.15 0.0155901 1.86693 0
M  V30 12188 C 1200.5 -1.38908 1.38561 0
M  V30 12189 O 1199.63 -2.02971 0.750454 0
M  V30 12190 C 1200.22 0.0215152 3.38793 0
M  V30 12191 C 1198.78 -0.378206 3.74495 0
M  V30 12192 C 1197.93 0.407126 2.74295 0
M  V30 12193 H 1200.88 0.68507 1.43152 0
M  V30 12194 H 1200.9 -0.780717 3.72404 0
M  V30 12195 H 1200.41 1.04397 3.73795 0
M  V30 12196 H 1198.51 -1.40503 3.45094 0
M  V30 12197 H 1198.63 -0.0797643 4.79034 0
M  V30 12198 H 1196.99 -0.139123 2.5432 0
M  V30 12199 H 1197.77 1.42909 3.12141 0
M  V30 12200 N 1200.22 -1.56282 0.203376 0
M  V30 12201 C 1201.44 -2.02643 -0.441658 0
M  V30 12202 C 1201.87 -1.0825 -1.5383 0
M  V30 12203 O 1201.23 -0.0674337 -1.81175 0
M  V30 12204 C 1201.27 -3.47382 -0.967369 0
M  V30 12205 O 1200.38 -3.56115 -2.07981 0
M  V30 12206 H 1199.72 -0.656081 -0.102242 0
M  V30 12207 H 1202.25 -2.02134 0.316684 0
M  V30 12208 H 1202.26 -3.8734 -1.28186 0
M  V30 12209 H 1200.93 -4.15574 -0.164625 0
M  V30 12210 H 1199.51 -3.28035 -1.77334 0
M  V30 12211 N 1201.7 0.070167 -1.57444 0
M  V30 12212 C 1202.94 0.770153 -1.87607 0
M  V30 12213 C 1203.27 1.77143 -0.795875 0
M  V30 12214 O 1202.55 1.93533 0.193674 0
M  V30 12215 C 1202.83 1.47668 -3.2843 0
M  V30 12216 C 1202.69 0.491712 -4.47104 0
M  V30 12217 C 1204 2.42118 -3.67514 0
M  V30 12218 H 1201.12 0.278519 -0.682346 0
M  V30 12219 H 1203.77 0.0333184 -1.89971 0
M  V30 12220 H 1201.92 2.10476 -3.26546 0
M  V30 12221 H 1203.59 -0.131283 -4.61113 0
M  V30 12222 H 1201.83 -0.192817 -4.33371 0
M  V30 12223 H 1202.5 1.02372 -5.42424 0
M  V30 12224 H 1204.98 1.89387 -3.70502 0
M  V30 12225 H 1203.85 2.88556 -4.66933 0
M  V30 12226 H 1204.11 3.26995 -2.97534 0
M  V30 12227 N 1203.17 1.53854 0.341593 0
M  V30 12228 C 1204.08 1.84975 1.44297 0
M  V30 12229 C 1205.1 0.740057 1.57477 0
M  V30 12230 O 1206.28 1.03256 1.72917 0
M  V30 12231 C 1203.34 2.05464 2.79259 0
M  V30 12232 C 1202.4 3.29318 2.75405 0
M  V30 12233 C 1201.63 3.4882 4.03931 0
M  V30 12234 O 1201.86 2.7212 5.01305 0
M  V30 12235 O 1200.79 4.42253 4.08284 0
M  V30 12236 H 1204.62 2.78592 1.20913 0
M  V30 12237 H 1202.2 1.39532 0.533953 0
M  V30 12238 H 1204.08 2.20374 3.59184 0
M  V30 12239 H 1202.76 1.15035 3.0257 0
M  V30 12240 H 1201.67 3.1981 1.94094 0
M  V30 12241 H 1203 4.19746 2.57049 0
M  V30 12242 N 1204.65 -0.602709 1.4562 0
M  V30 12243 C 1205.58 -1.72374 1.5751 0
M  V30 12244 C 1206.56 -1.64669 0.426389 0
M  V30 12245 O 1207.75 -1.82994 0.650143 0
M  V30 12246 C 1204.88 -3.10987 1.5461 0
M  V30 12247 C 1203.83 -3.33507 2.68248 0
M  V30 12248 C 1203.16 -4.72443 2.50403 0
M  V30 12249 C 1204.46 -3.23285 4.10224 0
M  V30 12250 H 1206.15 -1.62679 2.51348 0
M  V30 12251 H 1203.7 -0.781217 1.20967 0
M  V30 12252 H 1205.65 -3.89214 1.61525 0
M  V30 12253 H 1204.37 -3.21533 0.573049 0
M  V30 12254 H 1203.03 -2.57672 2.60769 0
M  V30 12255 H 1202.68 -4.79729 1.51226 0
M  V30 12256 H 1202.38 -4.88466 3.26611 0
M  V30 12257 H 1203.91 -5.52864 2.59179 0
M  V30 12258 H 1205.32 -3.91381 4.1892 0
M  V30 12259 H 1203.72 -3.50837 4.86861 0
M  V30 12260 H 1204.79 -2.20652 4.31788 0
M  V30 12261 N 1206.13 -1.32992 -0.845635 0
M  V30 12262 C 1207.38 -1.24065 -1.60044 0
M  V30 12263 C 1207.7 0.195282 -1.93517 0
M  V30 12264 O 1206.96 1.1507 -1.58296 0
M  V30 12265 C 1207.26 -2.05454 -2.92444 0
M  V30 12266 C 1206.92 -3.54718 -2.78362 0
M  V30 12267 C 1205.59 -3.95413 -2.74229 0
M  V30 12268 C 1207.94 -4.49598 -2.63649 0
M  V30 12269 C 1205.27 -5.29216 -2.53274 0
M  V30 12270 C 1207.62 -5.83554 -2.44228 0
M  V30 12271 C 1206.28 -6.2344 -2.38493 0
M  V30 12272 H 1205.55 -0.453985 -0.585644 0
M  V30 12273 H 1208.2 -1.6451 -0.980244 0
M  V30 12274 H 1206.5 -1.57765 -3.58633 0
M  V30 12275 H 1208.2 -1.95909 -3.49887 0
M  V30 12276 H 1204.79 -3.22403 -2.82409 0
M  V30 12277 H 1208.98 -4.19072 -2.65881 0
M  V30 12278 H 1204.23 -5.59164 -2.47275 0
M  V30 12279 H 1208.41 -6.56681 -2.31825 0
M  V30 12280 H 1206.03 -7.27058 -2.22015 0
M  V30 12281 N 1207.61 1.06304 -1.1635 0
M  V30 12282 C 1209.02 1.60566 -0.952652 0
M  V30 12283 C 1209.37 1.8963 0.503473 0
M  V30 12284 O 1208.49 1.66964 1.37666 0
M  V30 12285 C 1209.09 2.9172 -1.72292 0
M  V30 12286 C 1207.65 3.42684 -1.55707 0
M  V30 12287 C 1206.8 2.16579 -1.73172 0
M  V30 12288 H 1209.75 0.892563 -1.31221 0
M  V30 12289 H 1209.77 3.61126 -1.19868 0
M  V30 12290 H 1209.28 2.70535 -2.78267 0
M  V30 12291 H 1207.38 3.68929 -0.521726 0
M  V30 12292 H 1207.49 4.18018 -2.34088 0
M  V30 12293 H 1205.86 2.26795 -1.15914 0
M  V30 12294 H 1206.64 1.97877 -2.80535 0
M  V30 12295 N 1209.09 0.96196 1.24836 0
M  V30 12296 C 1210.31 0.637709 1.97353 0
M  V30 12297 C 1210.74 -0.784919 1.7094 0
M  V30 12298 O 1210.09 -1.53188 0.969694 0
M  V30 12299 C 1210.14 0.911485 3.4889 0
M  V30 12300 O 1209.25 -0.00601668 4.124 0
M  V30 12301 H 1208.59 0.241685 0.618453 0
M  V30 12302 H 1211.12 1.29055 1.58764 0
M  V30 12303 H 1211.13 0.840702 3.99245 0
M  V30 12304 H 1209.8 1.9483 3.67442 0
M  V30 12305 H 1208.38 0.117597 3.72715 0
M  V30 12306 N 1210.56 -1.39601 0.731392 0
M  V30 12307 C 1211.47 -2.34425 0.090527 0
M  V30 12308 C 1212.49 -1.58131 -0.725992 0
M  V30 12309 O 1213.67 -1.90441 -0.655294 0
M  V30 12310 C 1210.73 -3.37138 -0.808624 0
M  V30 12311 C 1209.79 -4.29295 0.0197365 0
M  V30 12312 C 1209.02 -5.27102 -0.836593 0
M  V30 12313 O 1209.25 -5.31302 -2.07543 0
M  V30 12314 O 1208.18 -6.01307 -0.267172 0
M  V30 12315 H 1212.01 -2.9088 0.873084 0
M  V30 12316 H 1209.59 -1.41066 0.492024 0
M  V30 12317 H 1211.47 -4.00087 -1.32319 0
M  V30 12318 H 1210.15 -2.83074 -1.57006 0
M  V30 12319 H 1209.06 -3.69581 0.579744 0
M  V30 12320 H 1210.39 -4.86555 0.743308 0
M  V30 12321 N 1212.04 -0.478751 -1.50152 0
M  V30 12322 C 1212.95 0.316554 -2.32455 0
M  V30 12323 C 1213.97 0.98871 -1.4318 0
M  V30 12324 O 1215.14 0.974998 -1.76226 0
M  V30 12325 C 1212.21 1.3799 -3.18056 0
M  V30 12326 C 1211.27 0.723534 -4.23159 0
M  V30 12327 C 1210.5 1.73621 -5.0467 0
M  V30 12328 O 1210.73 2.96362 -4.87366 0
M  V30 12329 O 1209.66 1.30381 -5.87609 0
M  V30 12330 H 1213.49 -0.356491 -3.016 0
M  V30 12331 H 1211.07 -0.24046 -1.47452 0
M  V30 12332 H 1212.95 1.99565 -3.71149 0
M  V30 12333 H 1211.63 2.03627 -2.5163 0
M  V30 12334 H 1210.54 0.0686296 -3.74037 0
M  V30 12335 H 1211.87 0.109979 -4.92077 0
M  V30 12336 N 1213.52 1.56172 -0.211661 0
M  V30 12337 C 1214.93 1.84307 0.297982 0
M  V30 12338 C 1215.28 1.1328 1.60194 0
M  V30 12339 O 1214.41 0.399137 2.12687 0
M  V30 12340 C 1215 3.34348 0.547428 0
M  V30 12341 C 1213.56 3.62835 1.0014 0
M  V30 12342 C 1212.71 2.77237 0.0590326 0
M  V30 12343 H 1215.66 1.5262 -0.435083 0
M  V30 12344 H 1215.68 3.54018 1.39469 0
M  V30 12345 H 1215.19 3.86015 -0.401778 0
M  V30 12346 H 1213.29 3.16616 1.96431 0
M  V30 12347 H 1213.41 4.70899 0.882653 0
M  V30 12348 H 1211.77 2.48377 0.564005 0
M  V30 12349 H 1212.55 3.31699 -0.884913 0
M  V30 12350 N 1215 -0.0618163 1.57479 0
M  V30 12351 C 1216.25 -0.759069 1.87735 0
M  V30 12352 C 1216.57 -1.77071 0.804732 0
M  V30 12353 O 1215.83 -1.94694 -0.198173 0
M  V30 12354 C 1216.13 -1.4939 3.2468 0
M  V30 12355 C 1215.79 -0.621312 4.46599 0
M  V30 12356 C 1214.46 -0.380873 4.7969 0
M  V30 12357 C 1216.81 -0.0168537 5.21197 0
M  V30 12358 C 1214.14 0.473341 5.84787 0
M  V30 12359 C 1216.49 0.824872 6.27199 0
M  V30 12360 C 1215.15 1.07509 6.58785 0
M  V30 12361 H 1214.42 -0.277763 0.686971 0
M  V30 12362 H 1217.07 -0.0195971 1.9149 0
M  V30 12363 H 1215.37 -2.30584 3.16762 0
M  V30 12364 H 1217.07 -2.03837 3.45328 0
M  V30 12365 H 1213.66 -0.818848 4.20705 0
M  V30 12366 H 1217.84 -0.189707 4.95937 0
M  V30 12367 H 1213.1 0.675842 6.07653 0
M  V30 12368 H 1217.27 1.29993 6.8416 0
M  V30 12369 H 1214.9 1.73876 7.40048 0
M  V30 12370 N 1216.48 -1.54033 -0.333429 0
M  V30 12371 C 1217.89 -1.63107 -0.908455 0
M  V30 12372 C 1218.24 -0.518823 -1.89216 0
M  V30 12373 O 1217.36 0.34985 -2.13553 0
M  V30 12374 C 1217.96 -2.95657 -1.65447 0
M  V30 12375 C 1216.52 -3.0696 -2.17836 0
M  V30 12376 C 1215.66 -2.58617 -1.00063 0
M  V30 12377 H 1218.62 -1.58309 -0.11128 0
M  V30 12378 H 1218.64 -2.85263 -2.51804 0
M  V30 12379 H 1218.15 -3.76588 -0.938263 0
M  V30 12380 H 1216.25 -2.30683 -2.92602 0
M  V30 12381 H 1216.36 -4.12599 -2.43513 0
M  V30 12382 H 1214.73 -2.1427 -1.37697 0
M  V30 12383 H 1215.51 -3.41996 -0.298901 0
M  V30 12384 N 1217.95 0.594978 -1.45938 0
M  V30 12385 C 1219.18 1.38482 -1.54394 0
M  V30 12386 C 1219.6 1.87222 -0.181563 0
M  V30 12387 O 1218.96 1.60869 0.836119 0
M  V30 12388 C 1219.01 2.55676 -2.54287 0
M  V30 12389 O 1218.11 3.5672 -2.06941 0
M  V30 12390 H 1217.46 0.412918 -0.519995 0
M  V30 12391 H 1219.99 0.722899 -1.91404 0
M  V30 12392 H 1220 3.02756 -2.73501 0
M  V30 12393 H 1218.67 2.19552 -3.53228 0
M  V30 12394 H 1217.25 3.16204 -1.97661 0
M  V30 12395 N 1219.43 1.33438 0.838571 0
M  V30 12396 C 1220.38 1.23717 1.94841 0
M  V30 12397 C 1221.35 0.11573 1.65696 0
M  V30 12398 O 1222.53 0.294051 1.8852 0
M  V30 12399 C 1219.67 0.982626 3.30815 0
M  V30 12400 C 1218.79 2.19036 3.72354 0
M  V30 12401 C 1217.92 1.86995 4.97199 0
M  V30 12402 C 1216.96 3.03998 5.31274 0
M  V30 12403 N 1216.1 2.71943 6.47295 0
M  V30 12404 H 1220.94 2.18639 2.02487 0
M  V30 12405 H 1218.48 1.08721 0.990861 0
M  V30 12406 H 1220.43 0.81548 4.09152 0
M  V30 12407 H 1219.06 0.0701443 3.22724 0
M  V30 12408 H 1218.12 2.46724 2.89537 0
M  V30 12409 H 1219.43 3.06505 3.93518 0
M  V30 12410 H 1218.58 1.66925 5.83285 0
M  V30 12411 H 1217.32 0.967628 4.78004 0
M  V30 12412 H 1216.33 3.24681 4.43692 0
M  V30 12413 H 1217.55 3.94985 5.52416 0
M  V30 12414 H 1215.5 1.8427 6.29588 0
M  V30 12415 H 1215.41 3.52943 6.68556 0
M  V30 12416 H 1216.68 2.55342 7.36492 0
M  V30 12417 N 1220.91 -1.05686 1.16912 0
M  V30 12418 C 1221.82 -2.16824 0.8958 0
M  V30 12419 C 1222.84 -1.73482 -0.134215 0
M  V30 12420 O 1224.01 -2.01352 0.0438776 0
M  V30 12421 C 1221.08 -3.44298 0.407427 0
M  V30 12422 C 1220.14 -4.02114 1.50342 0
M  V30 12423 C 1219.37 -5.23503 1.03826 0
M  V30 12424 O 1219.59 -5.70295 -0.109579 0
M  V30 12425 O 1218.53 -5.73432 1.8292 0
M  V30 12426 H 1222.35 -2.42725 1.82533 0
M  V30 12427 H 1219.94 -1.15339 0.949589 0
M  V30 12428 H 1221.82 -4.21159 0.142356 0
M  V30 12429 H 1220.5 -3.19908 -0.494009 0
M  V30 12430 H 1219.4 -3.26715 1.82231 0
M  V30 12431 H 1220.74 -4.30811 2.38039 0
M  V30 12432 N 1222.39 -0.968567 -1.24324 0
M  V30 12433 C 1223.8 -0.66964 -1.74278 0
M  V30 12434 C 1224.15 0.81461 -1.7849 0
M  V30 12435 O 1223.28 1.63736 -1.4149 0
M  V30 12436 C 1223.87 -1.20885 -3.165 0
M  V30 12437 C 1222.43 -0.959808 -3.63957 0
M  V30 12438 C 1221.58 -1.34365 -2.42573 0
M  V30 12439 H 1224.53 -1.14379 -1.10015 0
M  V30 12440 H 1224.55 -0.57555 -3.76122 0
M  V30 12441 H 1224.06 -2.28912 -3.13402 0
M  V30 12442 H 1222.16 0.104894 -3.72452 0
M  V30 12443 H 1222.27 -1.60606 -4.51378 0
M  V30 12444 H 1220.64 -0.762039 -2.43033 0
M  V30 12445 H 1221.42 -2.43343 -2.42155 0
M  V30 12446 N 1223.87 1.39211 -0.738786 0
M  V30 12447 C 1225.09 2.05256 -0.297421 0
M  V30 12448 C 1225.52 1.55341 1.06069 0
M  V30 12449 O 1224.87 0.698823 1.67291 0
M  V30 12450 C 1224.92 3.59239 -0.312969 0
M  V30 12451 O 1224.03 4.06448 0.698112 0
M  V30 12452 H 1223.37 0.650245 -0.134454 0
M  V30 12453 H 1225.9 1.78173 -1.00577 0
M  V30 12454 H 1225.91 4.07691 -0.158675 0
M  V30 12455 H 1224.58 3.94931 -1.30394 0
M  V30 12456 H 1223.16 3.69401 0.509643 0
M  V30 12457 N 1225.34 0.486708 1.49896 0
M  V30 12458 C 1226.76 0.0353906 1.86666 0
M  V30 12459 C 1227.11 -1.3743 1.40026 0
M  V30 12460 O 1226.23 -2.02163 0.77194 0
M  V30 12461 C 1226.83 0.0574475 3.38751 0
M  V30 12462 C 1225.39 -0.338464 3.74875 0
M  V30 12463 C 1224.53 0.436196 2.73848 0
M  V30 12464 H 1227.48 0.700215 1.42417 0
M  V30 12465 H 1227.5 -0.741175 3.73212 0
M  V30 12466 H 1227.02 1.08356 3.72667 0
M  V30 12467 H 1225.12 -1.36835 3.46565 0
M  V30 12468 H 1225.23 -0.0289519 4.79091 0
M  V30 12469 H 1223.59 -0.112141 2.54453 0
M  V30 12470 H 1224.38 1.46212 3.10608 0
M  V30 12471 N 1226.82 -1.56058 0.219941 0
M  V30 12472 C 1228.05 -2.031 -0.42014 0
M  V30 12473 C 1228.47 -1.09875 -1.52673 0
M  V30 12474 O 1227.83 -0.0866458 -1.81093 0
M  V30 12475 C 1227.88 -3.48389 -0.93047 0
M  V30 12476 O 1226.98 -3.583 -2.04192 0
M  V30 12477 H 1226.32 -0.657129 -0.0952772 0
M  V30 12478 H 1228.85 -2.01787 0.338105 0
M  V30 12479 H 1228.86 -3.88678 -1.2407 0
M  V30 12480 H 1227.54 -4.15725 -0.120539 0
M  V30 12481 H 1226.12 -3.29898 -1.73845 0
M  V30 12482 N 1228.3 0.053464 -1.57509 0
M  V30 12483 C 1229.21 1.07902 -2.08313 0
M  V30 12484 C 1230.23 1.41223 -1.01647 0
M  V30 12485 O 1231.4 1.51032 -1.33233 0
M  V30 12486 C 1228.47 2.36813 -2.5322 0
M  V30 12487 C 1227.53 2.10297 -3.74264 0
M  V30 12488 C 1226.76 3.33062 -4.1702 0
M  V30 12489 O 1226.99 4.42857 -3.59491 0
M  V30 12490 O 1225.92 3.20195 -5.09665 0
M  V30 12491 H 1229.75 0.677368 -2.9605 0
M  V30 12492 H 1227.33 0.268838 -1.46961 0
M  V30 12493 H 1229.21 3.12645 -2.82544 0
M  V30 12494 H 1227.89 2.76323 -1.68605 0
M  V30 12495 H 1226.79 1.32111 -3.49996 0
M  V30 12496 H 1228.13 1.75658 -4.59788 0
M  V30 12497 N 1229.78 1.54207 0.325255 0
M  V30 12498 C 1230.69 1.86495 1.42326 0
M  V30 12499 C 1231.71 0.756718 1.56684 0
M  V30 12500 O 1232.88 1.05084 1.71812 0
M  V30 12501 C 1229.95 2.08414 2.77064 0
M  V30 12502 C 1229.01 3.32221 2.71897 0
M  V30 12503 C 1228.24 3.53085 4.00209 0
M  V30 12504 O 1228.46 2.77421 4.98391 0
M  V30 12505 O 1227.4 4.46559 4.0357 0
M  V30 12506 H 1231.22 2.79859 1.17951 0
M  V30 12507 H 1228.81 1.40091 0.519124 0
M  V30 12508 H 1230.69 2.24171 3.56827 0
M  V30 12509 H 1229.37 1.18238 3.01333 0
M  V30 12510 H 1228.27 3.21851 1.90691 0
M  V30 12511 H 1229.61 4.22449 2.52582 0
M  V30 12512 N 1231.26 -0.58723 1.46251 0
M  V30 12513 C 1232.67 -1.16933 1.45546 0
M  V30 12514 C 1233.02 -1.9524 0.193879 0
M  V30 12515 O 1232.14 -2.04652 -0.70332 0
M  V30 12516 C 1232.74 -2.12723 2.63693 0
M  V30 12517 C 1231.3 -2.66267 2.66043 0
M  V30 12518 C 1230.45 -1.42051 2.38153 0
M  V30 12519 H 1233.4 -0.375411 1.54196 0
M  V30 12520 H 1233.42 -2.96111 2.38953 0
M  V30 12521 H 1232.93 -1.55703 3.55497 0
M  V30 12522 H 1231.03 -3.2717 1.783 0
M  V30 12523 H 1231.14 -3.0931 3.65874 0
M  V30 12524 H 1229.51 -1.71707 1.88119 0
M  V30 12525 H 1230.29 -0.868675 3.32128 0
M  V30 12526 N 1232.74 -1.33881 -0.831482 0
M  V30 12527 C 1233.96 -1.28961 -1.62431 0
M  V30 12528 C 1234.39 0.135249 -1.87613 0
M  V30 12529 O 1233.74 1.09426 -1.44553 0
M  V30 12530 C 1233.79 -2.07767 -2.94729 0
M  V30 12531 O 1232.9 -1.44133 -3.86393 0
M  V30 12532 H 1232.24 -0.443313 -0.494337 0
M  V30 12533 H 1234.77 -1.76555 -1.0339 0
M  V30 12534 H 1234.78 -2.18806 -3.44366 0
M  V30 12535 H 1233.45 -3.11367 -2.75724 0
M  V30 12536 H 1232.03 -1.41784 -3.44894 0
M  V30 12537 N 1234.21 1.05064 -1.1747 0
M  V30 12538 C 1235.18 2.1101 -0.89485 0
M  V30 12539 C 1236.18 1.60384 0.11553 0
M  V30 12540 O 1237.37 1.73808 -0.116785 0
M  V30 12541 C 1234.5 3.39194 -0.340642 0
M  V30 12542 H 1235.69 2.37269 -1.83421 0
M  V30 12543 H 1233.24 1.21329 -0.985343 0
M  V30 12544 H 1233.98 3.18591 0.605808 0
M  V30 12545 H 1233.76 3.77251 -1.06885 0
M  V30 12546 H 1235.25 4.17281 -0.163204 0
M  V30 12547 N 1235.69 0.975146 1.23809 0
M  V30 12548 C 1236.92 0.658605 1.96665 0
M  V30 12549 C 1237.34 -0.766744 1.71763 0
M  V30 12550 O 1236.7 -1.52151 0.985887 0
M  V30 12551 C 1236.75 0.948438 3.47904 0
M  V30 12552 O 1235.85 0.0377241 4.12383 0
M  V30 12553 H 1235.19 0.248231 0.615855 0
M  V30 12554 H 1237.72 1.30732 1.57386 0
M  V30 12555 H 1237.73 0.883 3.9833 0
M  V30 12556 H 1236.41 1.98717 3.65355 0
M  V30 12557 H 1234.98 0.157122 3.72569 0
M  V30 12558 N 1237.17 -1.38817 0.746158 0
M  V30 12559 C 1238.08 -2.34316 0.115386 0
M  V30 12560 C 1239.1 -1.58892 -0.709179 0
M  V30 12561 O 1240.27 -1.91126 -0.635059 0
M  V30 12562 C 1237.34 -3.37977 -0.772821 0
M  V30 12563 C 1236.4 -4.2925 0.0652679 0
M  V30 12564 C 1235.63 -5.2796 -0.78064 0
M  V30 12565 O 1235.85 -5.33474 -2.01896 0
M  V30 12566 O 1234.79 -6.01556 -0.20338 0
M  V30 12567 H 1238.61 -2.89937 0.903887 0
M  V30 12568 H 1236.2 -1.40536 0.506958 0
M  V30 12569 H 1238.08 -4.01468 -1.28068 0
M  V30 12570 H 1236.76 -2.84723 -1.53994 0
M  V30 12571 H 1235.66 -3.68945 0.61891 0
M  V30 12572 H 1237 -4.85739 0.794871 0
M  V30 12573 N 1238.65 -0.49465 -1.49636 0
M  V30 12574 C 1239.56 0.291881 -2.32777 0
M  V30 12575 C 1240.57 0.973468 -1.44221 0
M  V30 12576 O 1241.75 0.956252 -1.77251 0
M  V30 12577 C 1238.81 1.34609 -3.19502 0
M  V30 12578 C 1237.88 0.678611 -4.23903 0
M  V30 12579 C 1237.11 1.68259 -5.06483 0
M  V30 12580 O 1237.33 2.91176 -4.90482 0
M  V30 12581 O 1236.27 1.24141 -5.88959 0
M  V30 12582 H 1240.09 -0.388459 -3.01205 0
M  V30 12583 H 1237.68 -0.256086 -1.47189 0
M  V30 12584 H 1239.56 1.95617 -3.73245 0
M  V30 12585 H 1238.23 2.00947 -2.53775 0
M  V30 12586 H 1237.14 0.0289541 -3.74089 0
M  V30 12587 H 1238.47 0.0577817 -4.92166 0
M  V30 12588 N 1240.13 1.55939 -0.228214 0
M  V30 12589 C 1241.54 1.84612 0.278417 0
M  V30 12590 C 1241.89 1.14973 1.58983 0
M  V30 12591 O 1241.01 0.421673 2.12252 0
M  V30 12592 C 1241.61 3.3491 0.511935 0
M  V30 12593 C 1240.17 3.63876 0.962861 0
M  V30 12594 C 1239.31 2.77284 0.0296246 0
M  V30 12595 H 1242.26 1.52149 -0.451245 0
M  V30 12596 H 1242.29 3.55477 1.35707 0
M  V30 12597 H 1241.8 3.85567 -0.442697 0
M  V30 12598 H 1239.9 3.18682 1.93062 0
M  V30 12599 H 1240.01 4.71809 0.832659 0
M  V30 12600 H 1238.38 2.48961 0.53763 0
M  V30 12601 H 1239.16 3.30742 -0.920044 0
M  V30 12602 N 1241.6 -0.0451101 1.57535 0
M  V30 12603 C 1242.83 -0.750231 1.92497 0
M  V30 12604 C 1243.24 -1.70268 0.824946 0
M  V30 12605 O 1242.59 -1.82511 -0.208656 0
M  V30 12606 C 1242.65 -1.57543 3.23141 0
M  V30 12607 C 1242.31 -0.789495 4.50129 0
M  V30 12608 C 1243.31 -0.0968367 5.1981 0
M  V30 12609 C 1240.99 -0.748776 4.96688 0
M  V30 12610 C 1242.99 0.626018 6.34318 0
M  V30 12611 C 1240.67 -0.0221652 6.11096 0
M  V30 12612 C 1241.67 0.664006 6.79765 0
M  V30 12613 O 1241.36 1.37885 7.91987 0
M  V30 12614 H 1241.09 -0.216895 0.64026 0
M  V30 12615 H 1243.65 -0.011558 2.05397 0
M  V30 12616 H 1241.88 -2.35754 3.06524 0
M  V30 12617 H 1243.57 -2.16168 3.4355 0
M  V30 12618 H 1244.33 -0.119429 4.84853 0
M  V30 12619 H 1240.21 -1.27235 4.43094 0
M  V30 12620 H 1243.75 1.16215 6.87852 0
M  V30 12621 H 1239.65 0.00240707 6.455 0
M  V30 12622 H 1240.42 1.29087 8.08257 0
M  V30 12623 N 1243.08 -1.54377 -0.317073 0
M  V30 12624 C 1244.31 -1.76865 -1.07362 0
M  V30 12625 C 1244.73 -0.520354 -1.81488 0
M  V30 12626 O 1244.08 0.509213 -1.75252 0
M  V30 12627 C 1244.13 -2.96598 -2.06668 0
M  V30 12628 O 1243.85 -4.16602 -1.35552 0
M  V30 12629 C 1245.36 -3.31348 -2.94489 0
M  V30 12630 H 1242.58 -0.590277 -0.319083 0
M  V30 12631 H 1245.12 -2.01284 -0.361227 0
M  V30 12632 H 1243.27 -2.74433 -2.73432 0
M  V30 12633 H 1243.69 -4.83996 -2.02108 0
M  V30 12634 H 1245.16 -4.1841 -3.60051 0
M  V30 12635 H 1245.64 -2.48797 -3.61935 0
M  V30 12636 H 1246.25 -3.55614 -2.33278 0
M  V30 12637 N 1244.56 0.579466 -1.4656 0
M  V30 12638 C 1245.97 1.1616 -1.46164 0
M  V30 12639 C 1246.32 1.95134 -0.20423 0
M  V30 12640 O 1245.45 2.05022 0.692457 0
M  V30 12641 C 1246.04 2.11322 -2.64818 0
M  V30 12642 C 1244.6 2.64852 -2.67452 0
M  V30 12643 C 1243.75 1.40786 -2.38903 0
M  V30 12644 H 1246.7 0.367229 -1.54393 0
M  V30 12645 H 1246.72 2.94839 -2.4052 0
M  V30 12646 H 1246.23 1.53815 -3.56318 0
M  V30 12647 H 1244.33 3.26219 -1.80032 0
M  V30 12648 H 1244.45 3.07366 -3.67509 0
M  V30 12649 H 1242.81 1.70707 -1.89027 0
M  V30 12650 H 1243.59 0.851049 -3.32584 0
M  V30 12651 N 1246.04 1.3432 0.824371 0
M  V30 12652 C 1247.26 1.2982 1.61745 0
M  V30 12653 C 1247.69 -0.125298 1.87682 0
M  V30 12654 O 1247.05 -1.08658 1.45131 0
M  V30 12655 C 1247.09 2.09327 2.93623 0
M  V30 12656 O 1246.2 1.4618 3.85623 0
M  V30 12657 H 1245.54 0.445929 0.491979 0
M  V30 12658 H 1248.07 1.77101 1.02452 0
M  V30 12659 H 1248.08 2.20629 3.43201 0
M  V30 12660 H 1246.75 3.12825 2.74069 0
M  V30 12661 H 1245.33 1.43611 3.44137 0
M  V30 12662 N 1247.52 -1.0444 1.18026 0
M  V30 12663 C 1248.93 -1.5903 0.978076 0
M  V30 12664 C 1249.28 -1.90407 -0.473241 0
M  V30 12665 O 1248.4 -1.69133 -1.34992 0
M  V30 12666 C 1249 -2.88942 1.76912 0
M  V30 12667 C 1247.56 -3.40164 1.61139 0
M  V30 12668 C 1246.7 -2.13797 1.76596 0
M  V30 12669 H 1249.66 -0.871574 1.32625 0
M  V30 12670 H 1249.68 -3.59173 1.25598 0
M  V30 12671 H 1249.19 -2.66074 2.82535 0
M  V30 12672 H 1247.29 -3.68053 0.580353 0
M  V30 12673 H 1247.4 -4.14241 2.40709 0
M  V30 12674 H 1245.77 -2.24922 1.19507 0
M  V30 12675 H 1246.55 -1.93389 2.83647 0
M  V30 12676 N 1248.99 -0.981699 -1.2329 0
M  V30 12677 C 1250.41 -0.688087 -1.73558 0
M  V30 12678 C 1250.76 0.795633 -1.79344 0
M  V30 12679 O 1249.88 1.62227 -1.43218 0
M  V30 12680 C 1250.48 -1.24235 -3.152 0
M  V30 12681 C 1249.04 -0.998356 -3.62918 0
M  V30 12682 C 1248.18 -1.3693 -2.41134 0
M  V30 12683 H 1251.13 -1.15539 -1.08795 0
M  V30 12684 H 1251.15 -0.61541 -3.7549 0
M  V30 12685 H 1250.67 -2.32223 -3.10957 0
M  V30 12686 H 1248.77 0.0653847 -3.72543 0
M  V30 12687 H 1248.88 -1.65385 -4.49649 0
M  V30 12688 H 1247.24 -0.787773 -2.42211 0
M  V30 12689 H 1248.03 -2.45898 -2.39561 0
M  V30 12690 N 1250.47 1.3842 -0.753509 0
M  V30 12691 C 1251.38 2.34252 -0.127811 0
M  V30 12692 C 1252.4 1.59266 0.700743 0
M  V30 12693 O 1253.57 1.9146 0.624914 0
M  V30 12694 C 1250.64 3.38382 0.754886 0
M  V30 12695 C 1249.7 4.2921 -0.0880312 0
M  V30 12696 C 1248.93 5.28367 0.75263 0
M  V30 12697 O 1249.16 5.34537 1.99064 0
M  V30 12698 O 1248.09 6.01656 0.171475 0
M  V30 12699 H 1251.92 2.89454 -0.91925 0
M  V30 12700 H 1249.5 1.40265 -0.514404 0
M  V30 12701 H 1251.38 4.02141 1.25938 0
M  V30 12702 H 1250.06 2.85536 1.52482 0
M  V30 12703 H 1248.97 3.68611 -0.638468 0
M  V30 12704 H 1250.3 4.85311 -0.82062 0
M  V30 12705 N 1251.95 0.502579 1.49372 0
M  V30 12706 C 1253.36 0.055187 1.86618 0
M  V30 12707 C 1253.71 -1.35938 1.41476 0
M  V30 12708 O 1252.84 -2.01333 0.793338 0
M  V30 12709 C 1253.43 0.0933734 3.38671 0
M  V30 12710 C 1251.99 -0.298685 3.75213 0
M  V30 12711 C 1251.14 0.465216 2.7337 0
M  V30 12712 H 1254.09 0.715281 1.41667 0
M  V30 12713 H 1254.11 -0.701549 3.73977 0
M  V30 12714 H 1253.62 1.12303 3.71497 0
M  V30 12715 H 1251.72 -1.33151 3.47996 0
M  V30 12716 H 1251.84 0.0218637 4.79095 0
M  V30 12717 H 1250.2 -0.0851469 2.54558 0
M  V30 12718 H 1250.98 1.49498 3.09039 0
M  V30 12719 N 1253.43 -1.55816 0.23648 0
M  V30 12720 C 1254.65 -2.03534 -0.398575 0
M  V30 12721 C 1255.08 -1.11488 -1.51499 0
M  V30 12722 O 1254.44 -0.105848 -1.80991 0
M  V30 12723 C 1254.48 -3.49356 -0.893467 0
M  V30 12724 O 1253.59 -3.60446 -2.00381 0
M  V30 12725 H 1252.93 -0.658102 -0.0883021 0
M  V30 12726 H 1255.46 -2.01417 0.359488 0
M  V30 12727 H 1255.47 -3.89972 -1.19941 0
M  V30 12728 H 1254.14 -4.1583 -0.0764388 0
M  V30 12729 H 1252.72 -3.31723 -1.70336 0
M  V30 12730 N 1254.91 0.036755 -1.57557 0
M  V30 12731 C 1256.15 0.72475 -1.9005 0
M  V30 12732 C 1256.51 1.73374 -0.834226 0
M  V30 12733 O 1255.8 1.90948 0.157943 0
M  V30 12734 C 1255.99 1.44206 -3.27016 0
M  V30 12735 C 1255.82 0.504059 -4.46866 0
M  V30 12736 C 1254.59 0.127948 -5.05138 0
M  V30 12737 C 1256.79 -0.214278 -5.13853 0
M  V30 12738 N 1254.77 -0.812111 -6.08505 0
M  V30 12739 C 1256.14 -1.01027 -6.11714 0
M  V30 12740 C 1258.2 -0.28204 -4.97101 0
M  V30 12741 C 1256.9 -1.86778 -6.94627 0
M  V30 12742 C 1258.93 -1.12664 -5.80569 0
M  V30 12743 C 1258.29 -1.91058 -6.77994 0
M  V30 12744 H 1254.39 0.239542 -0.744408 0
M  V30 12745 H 1256.97 -0.0149454 -1.94694 0
M  V30 12746 H 1255.14 2.15226 -3.23314 0
M  V30 12747 H 1256.88 2.08183 -3.47047 0
M  V30 12748 H 1253.63 0.488471 -4.71074 0
M  V30 12749 H 1254.06 -1.27642 -6.64858 0
M  V30 12750 H 1258.7 0.309735 -4.21664 0
M  V30 12751 H 1256.42 -2.47038 -7.69414 0
M  V30 12752 H 1260 -1.18251 -5.69656 0
M  V30 12753 H 1258.88 -2.55358 -7.41459 0
M  V30 12754 N 1256.39 1.54543 0.308881 0
M  V30 12755 C 1257.61 1.77431 1.06422 0
M  V30 12756 C 1258.03 0.529972 1.81209 0
M  V30 12757 O 1257.39 -0.499912 1.7552 0
M  V30 12758 C 1257.44 2.9769 2.05092 0
M  V30 12759 O 1257.16 4.17315 1.33341 0
M  V30 12760 C 1258.66 3.32905 2.92727 0
M  V30 12761 H 1255.88 0.591961 0.315948 0
M  V30 12762 H 1258.42 2.01473 0.350547 0
M  V30 12763 H 1256.58 2.7588 2.71973 0
M  V30 12764 H 1256.99 4.85061 1.99539 0
M  V30 12765 H 1258.47 4.20314 3.57827 0
M  V30 12766 H 1258.94 2.50713 3.6061 0
M  V30 12767 H 1259.55 3.56847 2.31388 0
M  V30 12768 N 1257.86 -0.571685 1.46866 0
M  V30 12769 C 1258.77 -1.70758 1.60869 0
M  V30 12770 C 1259.79 -1.66903 0.49186 0
M  V30 12771 O 1260.97 -1.86613 0.757468 0
M  V30 12772 C 1258.03 -3.07267 1.60586 0
M  V30 12773 C 1257.09 -3.22301 2.83585 0
M  V30 12774 C 1256.32 -4.52298 2.83306 0
M  V30 12775 O 1256.55 -5.36869 1.92685 0
M  V30 12776 O 1255.48 -4.70814 3.7499 0
M  V30 12777 H 1259.31 -1.6189 2.56954 0
M  V30 12778 H 1256.89 -0.740018 1.29785 0
M  V30 12779 H 1258.77 -3.8853 1.63163 0
M  V30 12780 H 1257.45 -3.16549 0.676637 0
M  V30 12781 H 1256.36 -2.4049 2.86558 0
M  V30 12782 H 1257.69 -3.17916 3.75753 0
M  V30 12783 N 1259.34 -1.34755 -0.817236 0
M  V30 12784 C 1260.27 -1.29452 -1.94331 0
M  V30 12785 C 1261.25 -0.170902 -1.69239 0
M  V30 12786 O 1262.44 -0.364173 -1.90755 0
M  V30 12787 C 1259.57 -1.05497 -3.30889 0
M  V30 12788 C 1258.52 -2.14386 -3.70436 0
M  V30 12789 C 1257.85 -1.75612 -5.05039 0
M  V30 12790 C 1259.15 -3.56265 -3.81933 0
M  V30 12791 H 1260.84 -2.23672 -1.99025 0
M  V30 12792 H 1258.39 -1.07674 -0.956159 0
M  V30 12793 H 1260.34 -1.0043 -4.09257 0
M  V30 12794 H 1259.06 -0.0772059 -3.26509 0
M  V30 12795 H 1257.72 -2.18532 -2.94345 0
M  V30 12796 H 1257.37 -0.764809 -4.97152 0
M  V30 12797 H 1257.07 -2.48495 -5.3247 0
M  V30 12798 H 1258.6 -1.72051 -5.85859 0
M  V30 12799 H 1260.01 -3.545 -4.50558 0
M  V30 12800 H 1258.41 -4.27818 -4.20822 0
M  V30 12801 H 1259.48 -3.93192 -2.83775 0
M  V30 12802 N 1260.82 1.03812 -1.18578 0
M  V30 12803 C 1262.23 1.58509 -0.986496 0
M  V30 12804 C 1262.58 1.90655 0.463136 0
M  V30 12805 O 1261.71 1.69847 1.34093 0
M  V30 12806 C 1262.3 2.88 -1.78441 0
M  V30 12807 C 1260.86 3.39304 -1.6294 0
M  V30 12808 C 1260.01 2.12857 -1.77727 0
M  V30 12809 H 1262.96 0.864528 -1.33085 0
M  V30 12810 H 1262.98 3.58502 -1.27501 0
M  V30 12811 H 1262.49 2.64572 -2.83942 0
M  V30 12812 H 1260.59 3.6774 -0.599864 0
M  V30 12813 H 1260.71 4.12959 -2.42902 0
M  V30 12814 H 1259.07 2.24285 -1.20699 0
M  V30 12815 H 1259.85 1.91882 -2.84669 0
M  V30 12816 N 1262.3 0.988223 1.22768 0
M  V30 12817 C 1263.52 0.679426 1.95955 0
M  V30 12818 C 1263.95 -0.748483 1.72567 0
M  V30 12819 O 1263.31 -1.51097 1.00197 0
M  V30 12820 C 1263.35 0.985284 3.46878 0
M  V30 12821 O 1262.46 0.0814607 4.1232 0
M  V30 12822 H 1261.8 0.254749 0.613188 0
M  V30 12823 H 1264.33 1.32393 1.55991 0
M  V30 12824 H 1264.34 0.925198 3.97371 0
M  V30 12825 H 1263.01 2.02581 3.63227 0
M  V30 12826 H 1261.59 0.196629 3.72381 0
M  V30 12827 N 1263.78 -1.38018 0.760839 0
M  V30 12828 C 1265 -2.04757 0.330038 0
M  V30 12829 C 1265.43 -1.57009 -1.03585 0
M  V30 12830 O 1264.78 -0.725349 -1.66158 0
M  V30 12831 C 1264.83 -3.58696 0.370082 0
M  V30 12832 O 1263.94 -4.07507 -0.633361 0
M  V30 12833 H 1263.28 -0.648023 0.144782 0
M  V30 12834 H 1265.81 -1.7655 1.03399 0
M  V30 12835 H 1265.82 -4.07387 0.223515 0
M  V30 12836 H 1264.49 -3.92806 1.36661 0
M  V30 12837 H 1263.07 -3.70165 -0.45081 0
M  V30 12838 N 1265.25 -0.510493 -1.49103 0
M  V30 12839 C 1266.5 0.0305831 -2.02077 0
M  V30 12840 C 1266.82 1.36602 -1.39157 0
M  V30 12841 O 1266.09 1.88016 -0.550154 0
M  V30 12842 H 1264.67 0.0142916 -0.746863 0
M  V30 12843 H 1267.33 -0.669895 -1.83026 0
M  V30 12844 H 1266.43 0.153283 -3.11723 0
M  V30 12845 N 1266.73 1.55688 -0.24474 0
M  V30 12846 C 1267.64 2.24933 0.666519 0
M  V30 12847 C 1268.66 1.26471 1.19503 0
M  V30 12848 O 1269.83 1.59342 1.23176 0
M  V30 12849 C 1266.9 2.9336 1.84772 0
M  V30 12850 C 1265.96 4.07225 1.35889 0
M  V30 12851 C 1265.19 4.72381 2.48379 0
M  V30 12852 O 1265.42 4.36605 3.67059 0
M  V30 12853 O 1264.35 5.60933 2.18261 0
M  V30 12854 H 1268.18 3.03513 0.106507 0
M  V30 12855 H 1265.76 1.49394 -0.0133309 0
M  V30 12856 H 1267.64 3.36468 2.53708 0
M  V30 12857 H 1266.32 2.17721 2.39539 0
M  V30 12858 H 1265.22 3.68639 0.636881 0
M  V30 12859 H 1266.56 4.84676 0.857333 0
M  V30 12860 N 1268.21 -0.0283989 1.57574 0
M  V30 12861 C 1269.12 -1.04575 2.10003 0
M  V30 12862 C 1270.14 -1.39588 1.03881 0
M  V30 12863 O 1271.31 -1.48894 1.35619 0
M  V30 12864 C 1268.38 -2.32755 2.56955 0
M  V30 12865 C 1267.44 -2.04317 3.77562 0
M  V30 12866 C 1266.67 -3.26385 4.22266 0
M  V30 12867 O 1266.89 -4.37082 3.66491 0
M  V30 12868 O 1265.83 -3.12046 5.14695 0
M  V30 12869 H 1269.65 -0.630183 2.9709 0
M  V30 12870 H 1267.24 -0.245423 1.4737 0
M  V30 12871 H 1269.12 -3.08111 2.87482 0
M  V30 12872 H 1267.8 -2.73605 1.72979 0
M  V30 12873 H 1266.7 -1.26527 3.52054 0
M  V30 12874 H 1268.04 -1.68321 4.62524 0
M  V30 12875 N 1269.69 -1.54705 -0.300681 0
M  V30 12876 C 1270.91 -1.78318 -1.05913 0
M  V30 12877 C 1271.34 -0.541177 -1.80147 0
M  V30 12878 O 1270.7 0.508291 -1.74029 0
M  V30 12879 C 1270.74 -2.99041 -2.01511 0
M  V30 12880 O 1269.85 -2.72188 -3.09818 0
M  V30 12881 H 1269.19 -0.590197 -0.304242 0
M  V30 12882 H 1271.72 -2.01789 -0.338006 0
M  V30 12883 H 1271.73 -3.2702 -2.43971 0
M  V30 12884 H 1270.4 -3.89098 -1.46886 0
M  V30 12885 H 1268.98 -2.55227 -2.71871 0
M  V30 12886 N 1271.17 0.563888 -1.47167 0
M  V30 12887 C 1272.41 1.31875 -1.53145 0
M  V30 12888 C 1272.74 1.94047 -0.192518 0
M  V30 12889 O 1272.01 1.79577 0.782872 0
M  V30 12890 H 1270.59 0.489694 -0.5641 0
M  V30 12891 H 1273.25 0.658976 -1.83422 0
M  V30 12892 H 1272.34 2.11574 -2.2944 0
M  V30 12893 N 1272.64 1.35187 0.810078 0
M  V30 12894 C 1273.61 1.27698 1.90331 0
M  V30 12895 C 1274.61 0.189216 1.59683 0
M  V30 12896 O 1275.8 0.442689 1.68481 0
M  V30 12897 C 1272.93 0.974631 3.26671 0
M  V30 12898 H 1274.12 2.24902 1.98392 0
M  V30 12899 H 1271.68 1.1966 1.00554 0
M  V30 12900 H 1272.41 0.0063068 3.24299 0
M  V30 12901 H 1272.2 1.76158 3.50301 0
M  V30 12902 H 1273.69 0.947743 4.06703 0
M  V30 12903 N 1274.12 -1.03182 1.19127 0
M  V30 12904 C 1275.53 -1.57984 0.994888 0
M  V30 12905 C 1275.88 -1.90898 -0.453019 0
M  V30 12906 O 1275.01 -1.70556 -1.33191 0
M  V30 12907 C 1275.6 -2.8705 1.79966 0
M  V30 12908 C 1274.16 -3.38435 1.64737 0
M  V30 12909 C 1273.31 -2.11912 1.78854 0
M  V30 12910 H 1276.26 -0.857458 1.33542 0
M  V30 12911 H 1276.28 -3.57821 1.294 0
M  V30 12912 H 1275.79 -2.63062 2.85341 0
M  V30 12913 H 1273.9 -3.67416 0.619358 0
M  V30 12914 H 1274.01 -4.11665 2.45089 0
M  V30 12915 H 1272.37 -2.23642 1.21886 0
M  V30 12916 H 1273.16 -1.90369 2.85682 0
M  V30 12917 N 1275.6 -0.99472 -1.22242 0
M  V30 12918 C 1276.88 -0.587481 -1.86569 0
M  V30 12919 C 1277.26 0.935174 -1.89256 0
M  V30 12920 O 1276.61 1.81787 -1.3844 0
M  V30 12921 C 1276.82 -1.21001 -3.27353 0
M  V30 12922 C 1278.16 -1.31167 -4.03832 0
M  V30 12923 O 1279.19 -1.16454 -3.36626 0
M  V30 12924 O 1278.05 -1.54731 -5.24138 0
M  V30 12925 H 1275.14 -0.199838 -0.802492 0
M  V30 12926 H 1277.69 -1.09071 -1.30006 0
M  V30 12927 H 1276.46 -2.25143 -3.20041 0
M  V30 12928 H 1276.08 -0.692479 -3.91523 0
M  V30 12929 N 1277.08 1.37613 -0.768148 0
M  V30 12930 C 1278.32 2.00075 -0.331331 0
M  V30 12931 C 1278.66 1.60839 1.08833 0
M  V30 12932 O 1277.93 0.852849 1.74805 0
M  V30 12933 C 1278.22 3.57009 -0.470789 0
M  V30 12934 C 1278.07 4.06166 -1.9326 0
M  V30 12935 C 1279.39 4.39916 0.127111 0
M  V30 12936 H 1276.51 0.726855 -0.121864 0
M  V30 12937 H 1279.15 1.63343 -0.970518 0
M  V30 12938 H 1277.3 3.88431 0.0733688 0
M  V30 12939 H 1278.97 3.85325 -2.53618 0
M  V30 12940 H 1277.21 3.58492 -2.44266 0
M  V30 12941 H 1277.88 5.15219 -1.98125 0
M  V30 12942 H 1280.36 4.14732 -0.337144 0
M  V30 12943 H 1279.24 5.489 -0.000624226 0
M  V30 12944 H 1279.5 4.25018 1.21704 0
M  V30 12945 N 1278.56 0.518393 1.4883 0
M  V30 12946 C 1279.78 -0.0183131 2.07392 0
M  V30 12947 C 1280.21 -1.28468 1.37396 0
M  V30 12948 O 1279.56 -1.75975 0.436177 0
M  V30 12949 C 1279.61 -0.237211 3.59819 0
M  V30 12950 O 1278.72 -1.30835 3.91096 0
M  V30 12951 H 1278.06 0.0339621 0.663131 0
M  V30 12952 H 1280.59 0.722993 1.914 0
M  V30 12953 H 1280.6 -0.463424 4.0536 0
M  V30 12954 H 1279.27 0.687925 4.10171 0
M  V30 12955 H 1277.85 -1.06571 3.57347 0
M  V30 12956 N 1280.03 -1.55556 0.252993 0
M  V30 12957 C 1281.28 -1.98697 -0.369319 0
M  V30 12958 C 1281.6 -1.14256 -1.58021 0
M  V30 12959 O 1280.87 -0.226779 -1.94583 0
M  V30 12960 H 1279.45 -0.733869 -0.139444 0
M  V30 12961 H 1282.12 -1.91673 0.353197 0
M  V30 12962 H 1281.21 -3.04728 -0.674312 0
M  V30 12963 N 1281.51 0.0200419 -1.57587 0
M  V30 12964 C 1282.79 0.744946 -1.80859 0
M  V30 12965 C 1283.17 1.93089 -0.853218 0
M  V30 12966 O 1282.52 2.28269 0.10261 0
M  V30 12967 C 1282.73 1.16952 -3.28821 0
M  V30 12968 C 1284.08 1.5817 -3.9404 0
M  V30 12969 O 1285.1 1.26385 -3.33024 0
M  V30 12970 O 1283.96 2.17197 -5.01486 0
M  V30 12971 H 1281.05 0.360995 -0.744051 0
M  V30 12972 H 1283.6 -0.00387374 -1.697 0
M  V30 12973 H 1282.37 0.323304 -3.89962 0
M  V30 12974 H 1281.99 1.97807 -3.44903 0
M  V30 12975 N 1282.99 1.54862 0.292472 0
M  V30 12976 C 1284.24 1.74548 1.02661 0
M  V30 12977 C 1284.57 0.535895 1.86972 0
M  V30 12978 O 1283.82 -0.482016 1.89671 0
M  V30 12979 C 1284.12 2.99214 1.95463 0
M  V30 12980 C 1283.79 4.32628 1.2706 0
M  V30 12981 C 1282.45 4.68892 1.08138 0
M  V30 12982 C 1284.8 5.15296 0.782278 0
M  V30 12983 C 1282.13 5.85397 0.39081 0
M  V30 12984 C 1284.48 6.32512 0.105392 0
M  V30 12985 C 1283.14 6.67431 -0.0957097 0
M  V30 12986 H 1282.41 0.638717 0.375662 0
M  V30 12987 H 1285.06 1.89125 0.300672 0
M  V30 12988 H 1283.37 2.79454 2.74613 0
M  V30 12989 H 1285.06 3.1164 2.52352 0
M  V30 12990 H 1281.65 4.04113 1.42796 0
M  V30 12991 H 1285.84 4.87771 0.916151 0
M  V30 12992 H 1281.09 6.10989 0.224095 0
M  V30 12993 H 1285.27 6.95833 -0.280845 0
M  V30 12994 H 1282.89 7.57562 -0.63281 0
M  V30 12995 N 1284.47 -0.556076 1.47464 0
M  V30 12996 C 1285.7 -1.33858 1.57764 0
M  V30 12997 C 1286.11 -1.87415 0.22825 0
M  V30 12998 O 1285.47 -1.65054 -0.778674 0
M  V30 12999 C 1285.52 -2.5077 2.60378 0
M  V30 13000 O 1285.24 -1.99426 3.90078 0
M  V30 13001 C 1286.74 -3.42965 2.80873 0
M  V30 13002 H 1283.96 -0.408003 0.532705 0
M  V30 13003 H 1286.51 -0.673501 1.93091 0
M  V30 13004 H 1284.66 -3.13214 2.27982 0
M  V30 13005 H 1285.07 -2.75759 4.46158 0
M  V30 13006 H 1286.55 -4.21412 3.56533 0
M  V30 13007 H 1287.03 -3.96579 1.88737 0
M  V30 13008 H 1287.63 -2.86336 3.14471 0
M  V30 13009 N 1285.95 -1.35615 -0.802897 0
M  V30 13010 C 1287.2 -1.28839 -1.55708 0
M  V30 13011 C 1287.52 0.135906 -1.94526 0
M  V30 13012 O 1286.79 1.07317 -1.6389 0
M  V30 13013 H 1285.37 -0.473906 -0.577427 0
M  V30 13014 H 1288.03 -1.69759 -0.957487 0
M  V30 13015 H 1287.12 -1.90675 -2.47082 0
M  V30 13016 N 1287.43 1.02549 -1.19673 0
M  V30 13017 C 1288.65 1.8016 -1.02748 0
M  V30 13018 C 1289.08 1.83372 0.419105 0
M  V30 13019 O 1288.43 1.26222 1.30144 0
M  V30 13020 C 1288.48 3.22907 -1.60509 0
M  V30 13021 O 1287.59 4.03823 -0.836702 0
M  V30 13022 H 1286.93 0.556027 -0.362946 0
M  V30 13023 H 1289.46 1.29047 -1.5877 0
M  V30 13024 H 1289.47 3.73646 -1.63868 0
M  V30 13025 H 1288.14 3.19885 -2.65794 0
M  V30 13026 H 1286.72 3.6245 -0.876626 0
M  V30 13027 N 1288.9 1.00119 1.21713 0
M  V30 13028 C 1290.15 0.680377 1.90303 0
M  V30 13029 C 1290.47 -0.790927 1.7824 0
M  V30 13030 O 1289.74 -1.5676 1.17486 0
M  V30 13031 H 1288.32 0.248665 0.704397 0
M  V30 13032 H 1290.98 1.26948 1.47886 0
M  V30 13033 H 1290.08 0.950188 2.97284 0
M  V30 13034 N 1290.38 -1.37203 0.775435 0
M  V30 13035 C 1291.66 -1.93783 0.266005 0
M  V30 13036 C 1292.04 -1.70875 -1.23956 0
M  V30 13037 O 1291.39 -1.05965 -2.02444 0
M  V30 13038 C 1291.6 -3.43018 0.643404 0
M  V30 13039 C 1292.94 -4.20119 0.615267 0
M  V30 13040 O 1293.97 -3.51396 0.583018 0
M  V30 13041 O 1292.83 -5.42673 0.645637 0
M  V30 13042 H 1289.92 -0.824649 0.0623107 0
M  V30 13043 H 1292.47 -1.46468 0.857036 0
M  V30 13044 H 1291.24 -3.5329 1.68232 0
M  V30 13045 H 1290.86 -3.97592 0.0255138 0
M  V30 13046 N 1291.86 -0.526279 -1.48553 0
M  V30 13047 C 1293.11 0.00918008 -2.02798 0
M  V30 13048 C 1293.44 1.34284 -1.4029 0
M  V30 13049 O 1292.71 1.86639 -0.547355 0
M  V30 13050 C 1293 0.135102 -3.59846 0
M  V30 13051 C 1292.85 -1.22347 -4.32841 0
M  V30 13052 C 1294.17 0.863673 -4.31542 0
M  V30 13053 H 1291.29 0.00186216 -0.736998 0
M  V30 13054 H 1293.93 -0.682591 -1.77315 0
M  V30 13055 H 1292.08 0.724279 -3.81689 0
M  V30 13056 H 1293.75 -1.85347 -4.22427 0
M  V30 13057 H 1291.99 -1.80631 -3.94405 0
M  V30 13058 H 1292.67 -1.08839 -5.41164 0
M  V30 13059 H 1295.14 0.363734 -4.14507 0
M  V30 13060 H 1294.02 0.92067 -5.41124 0
M  V30 13061 H 1294.28 1.91313 -3.98562 0
M  V30 13062 N 1293.34 1.5542 -0.261239 0
M  V30 13063 C 1294.56 2.04142 0.366144 0
M  V30 13064 C 1294.99 1.13884 1.49706 0
M  V30 13065 O 1294.35 0.134629 1.80799 0
M  V30 13066 C 1294.39 3.50733 0.837774 0
M  V30 13067 O 1293.5 3.63588 1.94621 0
M  V30 13068 H 1292.84 0.659424 0.077821 0
M  V30 13069 H 1295.37 2.0082 -0.391487 0
M  V30 13070 H 1295.38 3.91831 1.13721 0
M  V30 13071 H 1294.05 4.15899 0.0102742 0
M  V30 13072 H 1292.63 3.34391 1.65037 0
M  V30 13073 N 1294.82 -0.0116844 1.57596 0
M  V30 13074 C 1296.06 -0.697577 1.89679 0
M  V30 13075 C 1296.38 -1.74956 0.861122 0
M  V30 13076 O 1295.65 -1.95629 -0.103031 0
M  V30 13077 H 1294.23 -0.26064 0.700054 0
M  V30 13078 H 1296.9 0.0264782 1.94882 0
M  V30 13079 H 1295.99 -1.17621 2.89088 0
M  V30 13080 N 1296.29 -1.55015 -0.284256 0
M  V30 13081 C 1297.24 -1.83508 -1.3531 0
M  V30 13082 C 1298.23 -0.693244 -1.452 0
M  V30 13083 O 1299.42 -0.954312 -1.4907 0
M  V30 13084 C 1296.55 -2.10059 -2.71533 0
M  V30 13085 C 1295.63 -3.30472 -2.65799 0
M  V30 13086 N 1296.03 -4.50644 -2.29682 0
M  V30 13087 C 1294.32 -3.32836 -2.96878 0
M  V30 13088 C 1295.02 -5.32708 -2.33661 0
M  V30 13089 N 1294 -4.70837 -2.71687 0
M  V30 13090 H 1297.8 -2.73973 -1.06377 0
M  V30 13091 H 1295.32 -1.5474 -0.492875 0
M  V30 13092 H 1297.31 -2.28624 -3.48621 0
M  V30 13093 H 1295.97 -1.20872 -3.01364 0
M  V30 13094 H 1296.98 -4.76945 -2.0185 0
M  V30 13095 H 1293.66 -2.53807 -3.31494 0
M  V30 13096 H 1295.05 -6.38766 -2.08394 0
M  V30 13097 N 1297.77 0.548248 -1.47757 0
M  V30 13098 C 1298.7 1.66409 -1.63799 0
M  V30 13099 C 1299.68 1.62973 -0.487211 0
M  V30 13100 O 1300.87 1.80455 -0.717612 0
M  V30 13101 C 1298 3.05035 -1.66046 0
M  V30 13102 C 1296.95 3.23322 -2.80441 0
M  V30 13103 C 1296.28 4.62824 -2.67765 0
M  V30 13104 C 1297.58 3.07837 -4.2194 0
M  V30 13105 H 1299.27 1.53239 -2.57212 0
M  V30 13106 H 1296.82 0.735783 -1.23783 0
M  V30 13107 H 1298.77 3.82951 -1.75859 0
M  V30 13108 H 1297.49 3.19185 -0.69199 0
M  V30 13109 H 1296.15 2.47816 -2.70153 0
M  V30 13110 H 1295.8 4.73786 -1.68927 0
M  V30 13111 H 1295.5 4.76007 -3.44515 0
M  V30 13112 H 1297.03 5.42864 -2.7952 0
M  V30 13113 H 1298.44 3.75563 -4.33157 0
M  V30 13114 H 1296.84 3.32525 -4.99547 0
M  V30 13115 H 1297.91 2.04474 -4.3968 0
M  V30 13116 N 1299.25 1.36039 0.795694 0
M  V30 13117 C 1300.53 1.20474 1.54096 0
M  V30 13118 C 1300.91 -0.211691 2.10036 0
M  V30 13119 O 1300.25 -1.21656 1.93422 0
M  V30 13120 C 1300.46 2.28164 2.64087 0
M  V30 13121 C 1301.81 2.64519 3.32137 0
M  V30 13122 O 1302.84 2.2716 2.74366 0
M  V30 13123 O 1301.7 3.28796 4.36527 0
M  V30 13124 H 1298.79 0.468699 0.681359 0
M  V30 13125 H 1301.34 1.47752 0.834716 0
M  V30 13126 H 1300.11 3.23121 2.20701 0
M  V30 13127 H 1299.73 2.02217 3.42336 0
M  V30 13128 N 1300.73 -1.01913 1.20215 0
M  V30 13129 C 1301.98 -1.7547 1.01076 0
M  V30 13130 C 1302.3 -1.89045 -0.457404 0
M  V30 13131 O 1301.56 -1.41121 -1.35585 0
M  V30 13132 C 1301.86 -3.17734 1.63646 0
M  V30 13133 C 1301.52 -3.24143 3.13436 0
M  V30 13134 C 1300.19 -3.25599 3.54315 0
M  V30 13135 C 1302.54 -3.22508 4.09436 0
M  V30 13136 C 1299.87 -3.23089 4.89725 0
M  V30 13137 C 1302.22 -3.21539 5.44789 0
M  V30 13138 C 1300.88 -3.21298 5.85085 0
M  V30 13139 H 1300.15 -0.642092 0.369864 0
M  V30 13140 H 1302.8 -1.19547 1.49602 0
M  V30 13141 H 1301.1 -3.76799 1.07375 0
M  V30 13142 H 1302.8 -3.73338 1.46356 0
M  V30 13143 H 1299.39 -3.23743 2.80871 0
M  V30 13144 H 1303.57 -3.20555 3.7889 0
M  V30 13145 H 1298.83 -3.21231 5.20212 0
M  V30 13146 H 1303 -3.19226 6.18924 0
M  V30 13147 H 1300.63 -3.19107 6.89982 0
M  V30 13148 N 1302.21 -1.00763 -1.2118 0
M  V30 13149 C 1303.43 -0.710515 -1.9485 0
M  V30 13150 C 1303.86 0.720934 -1.73736 0
M  V30 13151 O 1303.21 1.49484 -1.02588 0
M  V30 13152 C 1303.26 -1.04035 -3.45267 0
M  V30 13153 O 1302.37 -0.147047 -4.12138 0
M  V30 13154 H 1301.71 -0.264472 -0.609057 0
M  V30 13155 H 1304.24 -1.34858 -1.53865 0
M  V30 13156 H 1304.25 -0.9883 -3.95849 0
M  V30 13157 H 1302.92 -2.08334 -3.59958 0
M  V30 13158 H 1301.5 -0.255847 -3.72021 0
M  V30 13159 N 1303.68 1.3679 -0.7827 0
M  V30 13160 C 1304.93 1.99023 -0.351316 0
M  V30 13161 C 1305.25 1.62436 1.07887 0
M  V30 13162 O 1304.52 0.895084 1.74256 0
M  V30 13163 H 1303.1 0.736141 -0.126909 0
M  V30 13164 H 1305.77 1.67095 -1.00325 0
M  V30 13165 H 1304.86 3.09015 -0.43774 0
M  V30 13166 N 1305.16 0.53415 1.48272 0
M  V30 13167 C 1306.09 -0.263508 2.2768 0
M  V30 13168 C 1307.11 -0.90064 1.35618 0
M  V30 13169 O 1308.3 -0.778379 1.60635 0
M  V30 13170 C 1305.4 -1.38878 3.09138 0
M  V30 13171 C 1304.57 -0.852784 4.29006 0
M  V30 13172 C 1303.63 -1.85969 4.92242 0
M  V30 13173 O 1302.65 -1.41497 5.51332 0
M  V30 13174 N 1303.86 -3.19207 4.84858 0
M  V30 13175 H 1306.62 0.417548 2.96777 0
M  V30 13176 H 1304.18 0.368743 1.57645 0
M  V30 13177 H 1306.17 -2.06062 3.48311 0
M  V30 13178 H 1304.74 -1.97343 2.42434 0
M  V30 13179 H 1303.96 -0.0048227 3.942 0
M  V30 13180 H 1305.25 -0.473634 5.06591 0
M  V30 13181 H 1304.65 -3.58001 4.38009 0
M  V30 13182 H 1303.21 -3.82013 5.28119 0
M  V30 13183 N 1306.64 -1.55279 0.269478 0
M  V30 13184 C 1307.57 -2.25278 -0.614188 0
M  V30 13185 C 1308.55 -1.24092 -1.1634 0
M  V30 13186 O 1309.74 -1.52799 -1.19858 0
M  V30 13187 C 1306.87 -2.96956 -1.80096 0
M  V30 13188 C 1305.82 -4.05021 -1.38353 0
M  V30 13189 C 1305.15 -4.64244 -2.65295 0
M  V30 13190 C 1306.45 -5.19523 -0.537886 0
M  V30 13191 H 1308.14 -2.99385 -0.0304397 0
M  V30 13192 H 1305.69 -1.43994 -0.0132004 0
M  V30 13193 H 1307.64 -3.44633 -2.42499 0
M  V30 13194 H 1306.36 -2.20374 -2.41045 0
M  V30 13195 H 1305.02 -3.58146 -0.78273 0
M  V30 13196 H 1304.67 -3.84337 -3.2449 0
M  V30 13197 H 1304.37 -5.37208 -2.38079 0
M  V30 13198 H 1305.89 -5.14668 -3.28557 0
M  V30 13199 H 1307.31 -5.63287 -1.06677 0
M  V30 13200 H 1305.71 -5.99014 -0.360845 0
M  V30 13201 H 1306.78 -4.82857 0.444672 0
M  V30 13202 N 1308.12 0.00332656 -1.576 0
M  V30 13203 C 1309.34 0.703587 -1.95101 0
M  V30 13204 C 1309.77 1.66697 -0.871418 0
M  V30 13205 O 1309.13 1.80494 0.170739 0
M  V30 13206 C 1309.17 1.41457 -3.31696 0
M  V30 13207 O 1308.28 2.52885 -3.25765 0
M  V30 13208 H 1307.62 0.187396 -0.637008 0
M  V30 13209 H 1310.15 -0.0488727 -2.04542 0
M  V30 13210 H 1310.16 1.77874 -3.67185 0
M  V30 13211 H 1308.83 0.708182 -4.09826 0
M  V30 13212 H 1307.41 2.18821 -3.01947 0
M  V30 13213 N 1309.6 1.55164 0.276031 0
M  V30 13214 C 1310.84 1.7528 1.00604 0
M  V30 13215 C 1311.17 0.555256 1.86928 0
M  V30 13216 O 1310.44 -0.429917 1.91124 0
M  V30 13217 H 1309.02 0.646377 0.374441 0
M  V30 13218 H 1311.68 1.92562 0.300992 0
M  V30 13219 H 1310.77 2.65245 1.64473 0
M  V30 13220 N 1311.07 -0.540404 1.48045 0
M  V30 13221 C 1312.35 -1.30148 1.46017 0
M  V30 13222 C 1312.73 -2.10445 0.166171 0
M  V30 13223 O 1312.08 -2.12013 -0.852223 0
M  V30 13224 C 1312.29 -2.19177 2.71593 0
M  V30 13225 C 1313.64 -2.79655 3.19497 0
M  V30 13226 O 1314.66 -2.2947 2.72437 0
M  V30 13227 O 1313.52 -3.70912 4.01356 0
M  V30 13228 H 1310.61 -0.586879 0.582668 0
M  V30 13229 H 1313.16 -0.557918 1.60267 0
M  V30 13230 H 1311.93 -1.59556 3.57292 0
M  V30 13231 H 1311.56 -3.00798 2.60012 0
M  V30 13232 N 1312.55 -1.36459 -0.788468 0
M  V30 13233 C 1313.97 -1.16893 -1.08666 0
M  V30 13234 C 1314.17 0.00633808 -2.01499 0
M  V30 13235 O 1313.22 0.671417 -2.4341 0
M  V30 13236 C 1314.54 -2.48018 -1.70022 0
M  V30 13237 C 1316.09 -2.5439 -1.82358 0
M  V30 13238 C 1316.56 -3.85605 -2.47129 0
M  V30 13239 N 1318.05 -3.86956 -2.54597 0
M  V30 13240 C 1318.79 -4.85224 -3.05525 0
M  V30 13241 N 1318.28 -5.93885 -3.56753 0
M  V30 13242 N 1320.08 -4.72643 -3.04246 0
M  V30 13243 H 1312.23 -2.11705 -0.171733 0
M  V30 13244 H 1314.49 -0.937784 -0.1388 0
M  V30 13245 H 1314.2 -3.34292 -1.09277 0
M  V30 13246 H 1314.07 -2.63894 -2.69518 0
M  V30 13247 H 1316.46 -1.68534 -2.4224 0
M  V30 13248 H 1316.54 -2.42414 -0.816651 0
M  V30 13249 H 1316.18 -4.71868 -1.87891 0
M  V30 13250 H 1316.11 -3.94878 -3.48395 0
M  V30 13251 H 1318.6 -3.08453 -2.18323 0
M  V30 13252 H 1318.92 -6.64839 -3.93966 0
M  V30 13253 H 1317.26 -5.97553 -3.54902 0
M  V30 13254 H 1320.45 -3.86883 -2.63513 0
M  V30 13255 H 1320.62 -5.49385 -3.43627 0
M  V30 13256 N 1314.03 1.01274 -1.20754 0
M  V30 13257 C 1314.99 2.08056 -0.961528 0
M  V30 13258 C 1315.99 1.60671 0.0644461 0
M  V30 13259 O 1317.18 1.73349 -0.172022 0
M  V30 13260 C 1314.32 3.37938 -0.448381 0
M  V30 13261 H 1315.51 2.31314 -1.90877 0
M  V30 13262 H 1313.06 1.18133 -1.02344 0
M  V30 13263 H 1313.8 3.20357 0.504144 0
M  V30 13264 H 1313.58 3.73659 -1.18833 0
M  V30 13265 H 1315.07 4.16551 -0.295876 0
M  V30 13266 N 1315.51 1.01404 1.20644 0
M  V30 13267 C 1316.73 0.720839 1.9447 0
M  V30 13268 C 1317.16 -0.711711 1.74116 0
M  V30 13269 O 1316.52 -1.48938 1.03379 0
M  V30 13270 C 1316.57 1.05864 3.4471 0
M  V30 13271 O 1315.67 0.168901 4.12054 0
M  V30 13272 H 1315.01 0.267698 0.607646 0
M  V30 13273 H 1317.54 1.35672 1.53147 0
M  V30 13274 H 1317.55 1.00928 3.9532 0
M  V30 13275 H 1316.23 2.1024 3.58848 0
M  V30 13276 H 1314.8 0.275572 3.7188 0
M  V30 13277 N 1316.99 -1.36373 0.789944 0
M  V30 13278 C 1318.24 -1.98834 0.361866 0
M  V30 13279 C 1318.56 -1.63006 -1.07024 0
M  V30 13280 O 1317.83 -0.904312 -1.73779 0
M  V30 13281 H 1316.41 -0.735457 0.130812 0
M  V30 13282 H 1319.07 -1.66561 1.0121 0
M  V30 13283 H 1318.16 -3.08778 0.454122 0
M  V30 13284 N 1318.47 -0.542005 -1.47987 0
M  V30 13285 C 1319.4 0.202703 -2.32618 0
M  V30 13286 C 1320.38 0.923521 -1.42846 0
M  V30 13287 O 1321.56 0.906957 -1.7172 0
M  V30 13288 C 1318.69 1.24267 -3.24307 0
M  V30 13289 C 1317.65 0.639257 -4.23199 0
M  V30 13290 C 1316.97 1.78275 -5.04105 0
M  V30 13291 C 1318.27 -0.396982 -5.20789 0
M  V30 13292 H 1319.97 -0.503817 -2.95131 0
M  V30 13293 H 1317.51 -0.243736 -1.41922 0
M  V30 13294 H 1319.46 1.7717 -3.82347 0
M  V30 13295 H 1318.19 1.97893 -2.59819 0
M  V30 13296 H 1316.85 0.131655 -3.66364 0
M  V30 13297 H 1316.5 2.50768 -4.36032 0
M  V30 13298 H 1316.2 1.38487 -5.71047 0
M  V30 13299 H 1317.72 2.31533 -5.65 0
M  V30 13300 H 1319.13 0.0454057 -5.73282 0
M  V30 13301 H 1317.53 -0.712911 -5.9585 0
M  V30 13302 H 1318.6 -1.29843 -4.67193 0
M  V30 13303 N 1319.94 1.55134 -0.277709 0
M  V30 13304 C 1321.35 1.85405 0.219543 0
M  V30 13305 C 1321.71 1.19973 1.55245 0
M  V30 13306 O 1320.83 0.488986 2.10803 0
M  V30 13307 C 1321.43 3.36369 0.405127 0
M  V30 13308 C 1319.98 3.66755 0.846609 0
M  V30 13309 C 1319.13 2.77238 -0.0586063 0
M  V30 13310 H 1322.08 1.50637 -0.499422 0
M  V30 13311 H 1322.1 3.59615 1.24329 0
M  V30 13312 H 1321.62 3.83963 -0.565138 0
M  V30 13313 H 1319.72 3.24662 1.82825 0
M  V30 13314 H 1319.83 4.74219 0.682135 0
M  V30 13315 H 1318.19 2.50546 0.458153 0
M  V30 13316 H 1318.98 3.27647 -1.0248 0
M  V30 13317 N 1321.42 0.00503138 1.57599 0
M  V30 13318 C 1322.65 -0.693231 1.95471 0
M  V30 13319 C 1323.07 -1.66233 0.880246 0
M  V30 13320 O 1322.43 -1.80582 -0.161164 0
M  V30 13321 C 1322.48 -1.39696 3.32442 0
M  V30 13322 O 1321.58 -2.51154 3.27101 0
M  V30 13323 H 1320.92 -0.184015 0.637992 0
M  V30 13324 H 1323.45 0.0597194 2.04513 0
M  V30 13325 H 1323.46 -1.75924 3.68123 0
M  V30 13326 H 1322.14 -0.686438 4.10196 0
M  V30 13327 H 1320.71 -2.17216 3.03103 0
M  V30 13328 N 1322.9 -1.55308 -0.267798 0
M  V30 13329 C 1324.15 -1.75811 -0.996734 0
M  V30 13330 C 1324.47 -0.565161 -1.8663 0
M  V30 13331 O 1323.74 0.419775 -1.9135 0
M  V30 13332 H 1322.32 -0.648353 -0.371008 0
M  V30 13333 H 1324.98 -1.92719 -0.290775 0
M  V30 13334 H 1324.08 -2.66113 -1.63064 0
M  V30 13335 N 1324.38 0.532545 -1.4833 0
M  V30 13336 C 1325.65 1.29371 -1.46705 0
M  V30 13337 C 1326.03 2.10354 -0.177329 0
M  V30 13338 O 1325.38 2.12462 0.840968 0
M  V30 13339 C 1325.59 2.17733 -2.72751 0
M  V30 13340 C 1326.94 2.77956 -3.20976 0
M  V30 13341 O 1327.96 2.28022 -2.7365 0
M  V30 13342 O 1326.82 3.68779 -4.03317 0
M  V30 13343 H 1323.92 0.58378 -0.585773 0
M  V30 13344 H 1326.46 0.549411 -1.6056 0
M  V30 13345 H 1325.24 1.57659 -3.58133 0
M  V30 13346 H 1324.86 2.99415 -2.61603 0
M  V30 13347 N 1325.86 1.36875 0.78122 0
M  V30 13348 C 1326.79 1.34559 1.9083 0
M  V30 13349 C 1327.77 0.215713 1.68727 0
M  V30 13350 O 1328.95 0.41462 1.89722 0
M  V30 13351 C 1326.08 1.14233 3.27976 0
M  V30 13352 C 1325.04 2.24132 3.64621 0
M  V30 13353 C 1324.36 1.8894 5.00206 0
M  V30 13354 C 1325.66 3.66266 3.72353 0
M  V30 13355 H 1327.36 2.28871 1.93025 0
M  V30 13356 H 1324.9 1.10171 0.927275 0
M  V30 13357 H 1326.85 1.11246 4.06451 0
M  V30 13358 H 1325.58 0.163747 3.26189 0
M  V30 13359 H 1324.24 2.26259 2.88448 0
M  V30 13360 H 1323.89 0.896351 4.94949 0
M  V30 13361 H 1323.59 2.62525 5.25694 0
M  V30 13362 H 1325.11 1.87523 5.81092 0
M  V30 13363 H 1326.52 3.66321 4.41001 0
M  V30 13364 H 1324.92 4.38825 4.09332 0
M  V30 13365 H 1325.99 4.00578 2.7325 0
M  V30 13366 N 1327.33 -1.00632 1.21289 0
M  V30 13367 C 1328.61 -1.71635 0.938124 0
M  V30 13368 C 1328.99 -2.03798 -0.550416 0
M  V30 13369 O 1328.34 -1.71065 -1.5149 0
M  V30 13370 C 1328.55 -2.97674 1.82184 0
M  V30 13371 C 1329.9 -3.7073 2.06989 0
M  V30 13372 O 1330.92 -3.07653 1.79522 0
M  V30 13373 O 1329.78 -4.84183 2.53435 0
M  V30 13374 H 1326.87 -0.748506 0.351664 0
M  V30 13375 H 1329.42 -1.06387 1.32212 0
M  V30 13376 H 1328.19 -2.70306 2.82931 0
M  V30 13377 H 1327.81 -3.70663 1.43858 0
M  V30 13378 N 1328.81 -1.02043 -1.20104 0
M  V30 13379 C 1330.04 -0.731142 -1.94085 0
M  V30 13380 C 1330.46 0.702467 -1.74491 0
M  V30 13381 O 1329.82 1.48387 -1.04168 0
M  V30 13382 C 1329.87 -1.07691 -3.44144 0
M  V30 13383 O 1328.97 -0.190751 -4.11959 0
M  V30 13384 H 1328.31 -0.270917 -0.606218 0
M  V30 13385 H 1330.84 -1.36483 -1.52426 0
M  V30 13386 H 1330.85 -1.03023 -3.94779 0
M  V30 13387 H 1329.53 -2.1214 -3.57728 0
M  V30 13388 H 1328.1 -0.29529 -3.71729 0
M  V30 13389 N 1330.29 1.35952 -0.797165 0
M  V30 13390 C 1331.52 2.0381 -0.38421 0
M  V30 13391 C 1331.94 1.597 0.993854 0
M  V30 13392 O 1331.3 0.769148 1.64176 0
M  V30 13393 C 1331.35 3.57589 -0.465054 0
M  V30 13394 O 1330.45 4.09043 0.525095 0
M  V30 13395 H 1329.79 0.643957 -0.161912 0
M  V30 13396 H 1332.32 1.73746 -1.08043 0
M  V30 13397 H 1332.33 4.06651 -0.331448 0
M  V30 13398 H 1331.01 3.89045 -1.47027 0
M  V30 13399 H 1329.58 3.7123 0.352509 0
M  V30 13400 N 1331.77 0.549846 1.47697 0
M  V30 13401 C 1333.02 0.0230048 2.02087 0
M  V30 13402 C 1333.34 -1.32865 1.4273 0
M  V30 13403 O 1332.61 -1.86492 0.59981 0
M  V30 13404 H 1331.19 0.00551514 0.74698 0
M  V30 13405 H 1333.85 0.718185 1.81185 0
M  V30 13406 H 1332.95 -0.0705813 3.1202 0
M  V30 13407 N 1333.25 -1.54984 0.285932 0
M  V30 13408 C 1334.18 -2.25916 -0.590259 0
M  V30 13409 C 1335.16 -1.25319 -1.15018 0
M  V30 13410 O 1336.34 -1.54062 -1.18231 0
M  V30 13411 C 1333.47 -2.98849 -1.76936 0
M  V30 13412 C 1332.43 -4.06466 -1.3405 0
M  V30 13413 C 1331.75 -4.67032 -2.60356 0
M  V30 13414 C 1333.05 -5.20064 -0.482754 0
M  V30 13415 H 1334.75 -2.994 0.00131571 0
M  V30 13416 H 1332.29 -1.44 0.00207281 0
M  V30 13417 H 1334.25 -3.47186 -2.3883 0
M  V30 13418 H 1332.97 -2.22918 -2.38694 0
M  V30 13419 H 1331.63 -3.58957 -0.7447 0
M  V30 13420 H 1331.28 -3.87757 -3.20396 0
M  V30 13421 H 1330.98 -5.39703 -2.32368 0
M  V30 13422 H 1332.5 -5.18124 -3.23079 0
M  V30 13423 H 1333.91 -5.64387 -1.00697 0
M  V30 13424 H 1332.31 -5.99363 -0.297291 0
M  V30 13425 H 1333.38 -4.82358 0.495861 0
M  V30 13426 N 1334.72 -0.0133892 -1.57594 0
M  V30 13427 C 1335.95 0.679255 -1.95432 0
M  V30 13428 C 1336.37 1.66558 -0.889028 0
M  V30 13429 O 1335.72 1.82031 0.130755 0
M  V30 13430 C 1335.78 1.39943 -3.33314 0
M  V30 13431 O 1335.5 0.452643 -4.35755 0
M  V30 13432 C 1337 2.18535 -3.85691 0
M  V30 13433 H 1334.22 0.188337 -0.644026 0
M  V30 13434 H 1336.76 -0.0684861 -2.04385 0
M  V30 13435 H 1334.92 2.0987 -3.25628 0
M  V30 13436 H 1335.33 0.962243 -5.15598 0
M  V30 13437 H 1336.8 2.64403 -4.84557 0
M  V30 13438 H 1337.28 3.01779 -3.19102 0
M  V30 13439 H 1337.89 1.53598 -3.96595 0
M  V30 13440 N 1336.2 1.55448 0.259558 0
M  V30 13441 C 1337.43 1.81063 1.01148 0
M  V30 13442 C 1337.85 0.58875 1.78649 0
M  V30 13443 O 1337.21 -0.461971 1.75315 0
M  V30 13444 C 1337.26 3.04279 1.93512 0
M  V30 13445 O 1336.36 2.80307 3.02493 0
M  V30 13446 H 1335.7 0.598056 0.288487 0
M  V30 13447 H 1338.23 2.02614 0.284387 0
M  V30 13448 H 1338.24 3.33373 2.35215 0
M  V30 13449 H 1336.92 3.92856 1.36518 0
M  V30 13450 H 1335.5 2.62345 2.65008 0
M  V30 13451 N 1337.68 -0.524672 1.4861 0
M  V30 13452 C 1338.91 -1.30482 1.60568 0
M  V30 13453 C 1339.32 -1.86889 0.267952 0
M  V30 13454 O 1338.68 -1.66669 -0.743488 0
M  V30 13455 C 1338.73 -2.45191 2.65638 0
M  V30 13456 O 1338.45 -1.91107 3.9422 0
M  V30 13457 C 1339.95 -3.36931 2.88084 0
M  V30 13458 H 1337.17 -0.396612 0.541239 0
M  V30 13459 H 1339.72 -0.632392 1.94476 0
M  V30 13460 H 1337.87 -3.08308 2.34574 0
M  V30 13461 H 1338.29 -2.66234 4.51907 0
M  V30 13462 H 1339.76 -4.13755 3.65391 0
M  V30 13463 H 1340.24 -3.92487 1.97106 0
M  V30 13464 H 1340.84 -2.79601 3.20473 0
M  V30 13465 N 1339.16 -1.37287 -0.77395 0
M  V30 13466 C 1340.4 -1.3257 -1.5347 0
M  V30 13467 C 1340.74 0.090346 -1.9399 0
M  V30 13468 O 1340.01 1.04719 -1.63903 0
M  V30 13469 C 1340.3 -2.26277 -2.80126 0
M  V30 13470 C 1340.15 -3.76651 -2.45874 0
M  V30 13471 C 1341.47 -2.18471 -3.82045 0
M  V30 13472 H 1338.59 -0.48289 -0.556764 0
M  V30 13473 H 1341.23 -1.6797 -0.888039 0
M  V30 13474 H 1339.38 -1.96219 -3.35306 0
M  V30 13475 H 1341.05 -4.17296 -1.96626 0
M  V30 13476 H 1339.29 -3.95327 -1.78602 0
M  V30 13477 H 1339.96 -4.3765 -3.36403 0
M  V30 13478 H 1342.44 -2.44962 -3.36352 0
M  V30 13479 H 1341.32 -2.86183 -4.68392 0
M  V30 13480 H 1341.58 -1.17692 -4.26147 0
M  V30 13481 N 1340.64 0.999871 -1.21821 0
M  V30 13482 C 1341.88 1.73497 -1.0365 0
M  V30 13483 C 1342.21 1.90194 0.430271 0
M  V30 13484 O 1341.48 1.45655 1.31002 0
M  V30 13485 H 1340.06 0.642804 -0.380541 0
M  V30 13486 H 1342.72 1.20461 -1.53216 0
M  V30 13487 H 1341.81 2.73215 -1.50864 0
M  V30 13488 N 1342.11 1.02678 1.19562 0
M  V30 13489 C 1343.34 0.741424 1.93695 0
M  V30 13490 C 1343.76 -0.693203 1.74861 0
M  V30 13491 O 1343.12 -1.47833 1.04953 0
M  V30 13492 C 1343.17 1.09514 3.43568 0
M  V30 13493 O 1342.27 0.212596 4.11852 0
M  V30 13494 H 1341.62 0.274128 0.604773 0
M  V30 13495 H 1344.15 1.37289 1.517 0
M  V30 13496 H 1344.16 1.05115 3.94227 0
M  V30 13497 H 1342.83 2.14034 3.56598 0
M  V30 13498 H 1341.41 0.315 3.71567 0
M  V30 13499 N 1343.59 -1.35528 0.804364 0
M  V30 13500 C 1344.84 -1.98439 0.382934 0
M  V30 13501 C 1345.16 -1.64132 -1.05289 0
M  V30 13502 O 1344.43 -0.922693 -1.7281 0
M  V30 13503 H 1343.01 -0.734028 0.138605 0
M  V30 13504 H 1345.67 -1.65478 1.02971 0
M  V30 13505 H 1344.77 -3.08279 0.486846 0
M  V30 13506 N 1345.07 -0.557671 -1.47404 0
M  V30 13507 C 1346 0.178019 -2.3282 0
M  V30 13508 C 1346.98 0.908318 -1.43818 0
M  V30 13509 O 1348.17 0.888693 -1.72673 0
M  V30 13510 C 1345.3 1.2082 -3.25607 0
M  V30 13511 C 1344.25 0.594335 -4.23853 0
M  V30 13512 C 1343.58 1.72919 -5.05968 0
M  V30 13513 C 1344.88 -0.452196 -5.20339 0
M  V30 13514 H 1346.57 -0.535091 -2.9458 0
M  V30 13515 H 1344.12 -0.258775 -1.41656 0
M  V30 13516 H 1346.07 1.73104 -3.84204 0
M  V30 13517 H 1344.79 1.95126 -2.61903 0
M  V30 13518 H 1343.45 0.0927898 -3.66483 0
M  V30 13519 H 1343.1 2.4613 -4.38668 0
M  V30 13520 H 1342.8 1.32422 -5.72484 0
M  V30 13521 H 1344.33 2.25527 -5.67424 0
M  V30 13522 H 1345.74 -0.0154011 -5.73298 0
M  V30 13523 H 1344.14 -0.776068 -5.95061 0
M  V30 13524 H 1345.21 -1.34791 -4.65789 0
M  V30 13525 N 1346.55 1.54831 -0.294147 0
M  V30 13526 C 1347.78 2.04411 0.319938 0
M  V30 13527 C 1348.19 1.17174 1.4804 0
M  V30 13528 O 1347.55 0.195881 1.81446 0
M  V30 13529 C 1347.6 3.52924 0.782751 0
M  V30 13530 O 1347.32 4.36844 -0.331512 0
M  V30 13531 C 1348.82 4.18474 1.4627 0
M  V30 13532 H 1346.04 0.667286 0.0704973 0
M  V30 13533 H 1348.59 1.9989 -0.431785 0
M  V30 13534 H 1346.74 3.57828 1.48451 0
M  V30 13535 H 1347.16 5.24493 0.0275743 0
M  V30 13536 H 1348.63 5.23933 1.73776 0
M  V30 13537 H 1349.11 3.67793 2.40052 0
M  V30 13538 H 1349.71 4.17626 0.804291 0
M  V30 13539 N 1348.03 0.0217466 1.57585 0
M  V30 13540 C 1349.27 -0.659463 1.91778 0
M  V30 13541 C 1349.61 -1.72201 0.897801 0
M  V30 13542 O 1348.88 -1.94333 -0.080509 0
M  V30 13543 C 1349.16 -1.28269 3.36481 0
M  V30 13544 C 1349.02 -0.230201 4.49211 0
M  V30 13545 C 1350.34 -2.20279 3.81005 0
M  V30 13546 H 1347.46 -0.238263 0.697424 0
M  V30 13547 H 1350.1 0.0774967 1.89842 0
M  V30 13548 H 1348.25 -1.9108 3.38262 0
M  V30 13549 H 1349.92 0.399901 4.59563 0
M  V30 13550 H 1348.16 0.445157 4.3151 0
M  V30 13551 H 1348.83 -0.705732 5.4747 0
M  V30 13552 H 1351.31 -1.67463 3.80914 0
M  V30 13553 H 1350.19 -2.60842 4.82962 0
M  V30 13554 H 1350.45 -3.09092 3.16093 0
M  V30 13555 N 1349.51 -1.55583 -0.251311 0
M  V30 13556 C 1350.42 -1.93073 -1.33266 0
M  V30 13557 C 1351.43 -0.830612 -1.52895 0
M  V30 13558 O 1352.61 -1.13162 -1.66602 0
M  V30 13559 C 1349.67 -2.21396 -2.66805 0
M  V30 13560 C 1348.73 -3.44815 -2.55737 0
M  V30 13561 C 1347.97 -3.71777 -3.82907 0
M  V30 13562 O 1348.19 -3.00884 -4.84587 0
M  V30 13563 O 1347.12 -4.65305 -3.81805 0
M  V30 13564 H 1350.95 -2.85168 -1.04465 0
M  V30 13565 H 1348.53 -1.42408 -0.451693 0
M  V30 13566 H 1350.42 -2.4094 -3.45725 0
M  V30 13567 H 1349.09 -1.3248 -2.95348 0
M  V30 13568 H 1348 -3.30582 -1.75118 0
M  V30 13569 H 1349.33 -4.34019 -2.32139 0
M  V30 13570 N 1350.98 0.516783 -1.48886 0
M  V30 13571 C 1352.21 1.30103 -1.61518 0
M  V30 13572 C 1352.63 1.85996 -0.28055 0
M  V30 13573 O 1351.99 1.65075 0.749671 0
M  V30 13574 C 1352.04 2.41837 -2.67483 0
M  V30 13575 O 1351.14 3.45249 -2.25559 0
M  V30 13576 H 1350.48 0.384774 -0.541152 0
M  V30 13577 H 1353.01 0.620424 -1.94966 0
M  V30 13578 H 1353.02 2.87832 -2.89165 0
M  V30 13579 H 1351.7 2.00519 -3.64369 0
M  V30 13580 H 1350.28 3.05281 -2.14144 0
M  V30 13581 N 1352.46 1.37696 0.766659 0
M  V30 13582 C 1353.71 1.32922 1.52237 0
M  V30 13583 C 1354.03 -0.0842833 1.94818 0
M  V30 13584 O 1353.3 -1.02934 1.66677 0
M  V30 13585 H 1351.88 0.489049 0.564659 0
M  V30 13586 H 1354.54 1.72238 0.912142 0
M  V30 13587 H 1353.64 1.97158 2.4194 0
M  V30 13588 N 1353.94 -0.993397 1.22349 0
M  V30 13589 C 1354.87 -2.10171 1.01737 0
M  V30 13590 C 1355.85 -1.69989 -0.0615276 0
M  V30 13591 O 1357.04 -1.93939 0.100591 0
M  V30 13592 C 1354.17 -3.42186 0.593801 0
M  V30 13593 C 1353.12 -3.96215 1.61858 0
M  V30 13594 C 1352.45 -5.24272 1.05086 0
M  V30 13595 C 1353.75 -4.26956 3.00842 0
M  V30 13596 H 1355.44 -2.27673 1.94436 0
M  V30 13597 H 1352.99 -1.09408 0.936258 0
M  V30 13598 H 1354.94 -4.19131 0.436715 0
M  V30 13599 H 1353.66 -3.2451 -0.368855 0
M  V30 13600 H 1352.32 -3.21401 1.76343 0
M  V30 13601 H 1351.97 -5.02937 0.0795747 0
M  V30 13602 H 1351.67 -5.61387 1.73547 0
M  V30 13603 H 1353.19 -6.03851 0.905349 0
M  V30 13604 H 1354.61 -4.94699 2.89734 0
M  V30 13605 H 1353 -4.75242 3.66422 0
M  V30 13606 H 1354.07 -3.34752 3.50812 0
M  V30 13607 N 1355.42 -1.03311 -1.19015 0
M  V30 13608 C 1356.83 -0.761079 -1.70483 0
M  V30 13609 C 1357.18 0.718851 -1.82557 0
M  V30 13610 O 1356.3 1.56006 -1.4997 0
M  V30 13611 C 1356.9 -1.37492 -3.09647 0
M  V30 13612 C 1355.46 -1.15138 -3.58358 0
M  V30 13613 C 1354.61 -1.47034 -2.35109 0
M  V30 13614 H 1357.56 -1.2005 -1.03797 0
M  V30 13615 H 1357.58 -0.774115 -3.72542 0
M  V30 13616 H 1357.09 -2.45203 -3.00828 0
M  V30 13617 H 1355.19 -0.0926822 -3.72485 0
M  V30 13618 H 1355.3 -1.84307 -4.4223 0
M  V30 13619 H 1353.67 -0.889794 -2.38652 0
M  V30 13620 H 1354.45 -2.55837 -2.28916 0
M  V30 13621 N 1356.9 1.35099 -0.81154 0
M  V30 13622 C 1358.12 2.03391 -0.405805 0
M  V30 13623 C 1358.55 1.60745 0.97686 0
M  V30 13624 O 1357.9 0.786518 1.63351 0
M  V30 13625 C 1357.95 3.57075 -0.502954 0
M  V30 13626 O 1357.06 4.09577 0.481681 0
M  V30 13627 H 1356.4 0.642203 -0.168733 0
M  V30 13628 H 1358.93 1.72591 -1.0988 0
M  V30 13629 H 1358.94 4.06277 -0.37456 0
M  V30 13630 H 1357.61 3.87463 -1.51145 0
M  V30 13631 H 1356.19 3.71583 0.313115 0
M  V30 13632 N 1358.37 0.56548 1.47106 0
M  V30 13633 C 1359.62 0.0444375 2.02051 0
M  V30 13634 C 1359.94 -1.31344 1.44131 0
M  V30 13635 O 1359.21 -1.85845 0.619556 0
M  V30 13636 H 1357.79 0.0134375 0.746879 0
M  V30 13637 H 1360.45 0.737362 1.80413 0
M  V30 13638 H 1359.55 -0.0374834 3.12077 0
M  V30 13639 N 1359.85 -1.54672 0.302354 0
M  V30 13640 C 1361.13 -1.92264 -0.359711 0
M  V30 13641 C 1361.51 -1.22973 -1.71583 0
M  V30 13642 O 1360.86 -0.365942 -2.25551 0
M  V30 13643 C 1361.07 -3.4578 -0.473019 0
M  V30 13644 C 1362.42 -4.18044 -0.743252 0
M  V30 13645 O 1363.44 -3.51822 -0.556778 0
M  V30 13646 O 1362.3 -5.35283 -1.10155 0
M  V30 13647 H 1359.39 -0.802112 -0.201359 0
M  V30 13648 H 1361.94 -1.66041 0.350513 0
M  V30 13649 H 1360.71 -3.88342 0.480265 0
M  V30 13650 H 1360.33 -3.78042 -1.23166 0
M  V30 13651 N 1361.33 -0.0301034 -1.57571 0
M  V30 13652 C 1362.24 0.967086 -2.1374 0
M  V30 13653 C 1363.26 1.35636 -1.0899 0
M  V30 13654 O 1364.43 1.43758 -1.41052 0
M  V30 13655 C 1361.5 2.23058 -2.65417 0
M  V30 13656 C 1360.56 1.90163 -3.84885 0
M  V30 13657 C 1359.79 3.10488 -4.34088 0
M  V30 13658 O 1360.01 4.23179 -3.8246 0
M  V30 13659 O 1358.95 2.92729 -5.25921 0
M  V30 13660 H 1362.77 0.519486 -2.99224 0
M  V30 13661 H 1360.36 0.190559 -1.4818 0
M  V30 13662 H 1362.24 2.97229 -2.98719 0
M  V30 13663 H 1360.92 2.66997 -1.83015 0
M  V30 13664 H 1359.82 1.13373 -3.56507 0
M  V30 13665 H 1361.16 1.51039 -4.68453 0
M  V30 13666 N 1362.81 1.55714 0.243056 0
M  V30 13667 C 1363.72 1.93777 1.32241 0
M  V30 13668 C 1364.73 0.838709 1.52452 0
M  V30 13669 O 1365.91 1.14044 1.66 0
M  V30 13670 C 1362.98 2.22808 2.65627 0
M  V30 13671 C 1362.04 3.46166 2.53904 0
M  V30 13672 C 1361.27 3.73802 3.8093 0
M  V30 13673 O 1361.49 3.0345 4.82985 0
M  V30 13674 O 1360.43 4.67323 3.79332 0
M  V30 13675 H 1364.25 2.85718 1.02951 0
M  V30 13676 H 1361.84 1.42646 0.444135 0
M  V30 13677 H 1363.72 2.4277 3.44442 0
M  V30 13678 H 1362.39 1.34045 2.94642 0
M  V30 13679 H 1361.3 3.31506 1.73362 0
M  V30 13680 H 1362.63 4.35244 2.29834 0
M  V30 13681 N 1364.29 -0.50888 1.49158 0
M  V30 13682 C 1365.7 -0.839353 1.35746 0
M  V30 13683 C 1365.9 -1.97797 0.38453 0
M  V30 13684 O 1364.96 -2.51809 -0.186651 0
M  V30 13685 C 1366.27 -1.18698 2.76281 0
M  V30 13686 C 1367.82 -1.29565 2.84924 0
M  V30 13687 C 1368.29 -1.67661 4.26209 0
M  V30 13688 N 1369.79 -1.74725 4.28982 0
M  V30 13689 C 1370.52 -2.05631 5.3526 0
M  V30 13690 N 1370.02 -2.34814 6.51793 0
M  V30 13691 N 1371.81 -2.06815 5.2267 0
M  V30 13692 H 1363.96 0.242065 2.11016 0
M  V30 13693 H 1366.22 0.0456901 0.946898 0
M  V30 13694 H 1365.93 -0.423769 3.49138 0
M  V30 13695 H 1365.8 -2.13227 3.11149 0
M  V30 13696 H 1368.19 -2.0496 2.1231 0
M  V30 13697 H 1368.27 -0.331059 2.53649 0
M  V30 13698 H 1367.92 -0.928198 4.99346 0
M  V30 13699 H 1367.85 -2.65207 4.54943 0
M  V30 13700 H 1370.34 -1.54364 3.44935 0
M  V30 13701 H 1370.65 -2.57562 7.28616 0
M  V30 13702 H 1368.99 -2.32288 6.55032 0
M  V30 13703 H 1372.19 -1.83487 4.30639 0
M  V30 13704 H 1372.36 -2.30568 6.05593 0
M  V30 13705 N 1365.76 -1.381 -0.759346 0
M  V30 13706 C 1367.01 -1.33311 -1.51364 0
M  V30 13707 C 1367.33 0.0761325 -1.95452 0
M  V30 13708 O 1368.53 0.246541 -2.70378 0
M  V30 13709 C 1366.99 -2.34067 -2.73387 0
M  V30 13710 C 1366.6 -3.80583 -2.36348 0
M  V30 13711 C 1368.34 -2.38311 -3.51295 0
M  V30 13712 C 1366.25 -4.73039 -3.54948 0
M  V30 13713 H 1365.18 -0.495512 -0.568317 0
M  V30 13714 H 1367.83 -1.63625 -0.830602 0
M  V30 13715 H 1366.21 -1.96788 -3.43643 0
M  V30 13716 H 1367.38 -4.26769 -1.73796 0
M  V30 13717 H 1365.7 -3.79403 -1.71587 0
M  V30 13718 H 1368.3 -3.04586 -4.39467 0
M  V30 13719 H 1368.64 -1.40034 -3.92041 0
M  V30 13720 H 1369.17 -2.74361 -2.88047 0
M  V30 13721 H 1365.91 -5.7249 -3.19273 0
M  V30 13722 H 1365.43 -4.3155 -4.16563 0
M  V30 13723 H 1367.11 -4.90775 -4.21603 0
M  V30 13724 N 1367.24 0.986894 -1.22875 0
M  V30 13725 C 1368.15 2.11232 -1.02069 0
M  V30 13726 C 1369.17 1.73969 0.0328424 0
M  V30 13727 O 1370.34 2.00754 -0.161197 0
M  V30 13728 C 1367.41 3.41337 -0.60747 0
M  V30 13729 C 1366.47 3.92665 -1.73531 0
M  V30 13730 C 1365.7 5.1656 -1.34171 0
M  V30 13731 O 1365.93 5.69964 -0.223106 0
M  V30 13732 O 1364.86 5.61791 -2.16041 0
M  V30 13733 H 1368.69 2.3167 -1.96374 0
M  V30 13734 H 1366.27 1.09607 -1.01522 0
M  V30 13735 H 1368.15 4.19613 -0.387661 0
M  V30 13736 H 1366.83 3.22244 0.306653 0
M  V30 13737 H 1365.74 3.15534 -2.0097 0
M  V30 13738 H 1367.07 4.162 -2.62751 0
M  V30 13739 N 1368.72 1.0394 1.18466 0
M  V30 13740 C 1369.97 0.752904 1.88952 0
M  V30 13741 C 1370.32 -0.711542 1.78759 0
M  V30 13742 O 1369.61 -1.51248 1.17621 0
M  V30 13743 C 1369.81 1.15198 3.38326 0
M  V30 13744 C 1369.64 2.65367 3.63057 0
M  V30 13745 C 1368.41 3.32495 3.80493 0
M  V30 13746 C 1370.61 3.63586 3.63744 0
M  V30 13747 N 1368.59 4.71659 3.92952 0
M  V30 13748 C 1369.96 4.88417 3.81901 0
M  V30 13749 C 1372.01 3.57234 3.46826 0
M  V30 13750 C 1370.72 6.0766 3.84891 0
M  V30 13751 C 1372.74 4.75903 3.51098 0
M  V30 13752 C 1372.1 5.99553 3.69751 0
M  V30 13753 H 1368.2 0.327542 0.710099 0
M  V30 13754 H 1370.79 1.32883 1.42303 0
M  V30 13755 H 1368.96 0.604141 3.83673 0
M  V30 13756 H 1370.69 0.816625 3.96375 0
M  V30 13757 H 1367.45 2.829 3.79822 0
M  V30 13758 H 1367.87 5.43981 4.03006 0
M  V30 13759 H 1372.51 2.62613 3.31352 0
M  V30 13760 H 1370.23 7.02639 3.99153 0
M  V30 13761 H 1373.82 4.72629 3.39284 0
M  V30 13762 H 1372.7 6.89842 3.72945 0
M  V30 13763 N 1370.2 -1.34667 0.818693 0
M  V30 13764 C 1371.61 -1.80839 0.46414 0
M  V30 13765 C 1371.96 -1.67902 -1.01506 0
M  V30 13766 O 1371.09 -1.21658 -1.78964 0
M  V30 13767 C 1371.68 -3.28331 0.835698 0
M  V30 13768 C 1370.24 -3.72599 0.533575 0
M  V30 13769 C 1369.39 -2.56452 1.05487 0
M  V30 13770 H 1372.34 -1.22474 1.00925 0
M  V30 13771 H 1372.36 -3.8025 0.13785 0
M  V30 13772 H 1371.87 -3.37715 1.91233 0
M  V30 13773 H 1369.97 -3.68756 -0.533819 0
M  V30 13774 H 1370.08 -4.66891 1.07468 0
M  V30 13775 H 1368.45 -2.50201 0.476612 0
M  V30 13776 H 1369.23 -2.68608 2.13786 0
M  V30 13777 N 1371.68 -0.573274 -1.46804 0
M  V30 13778 C 1372.9 -0.0586717 -2.07317 0
M  V30 13779 C 1373.33 1.2328 -1.42069 0
M  V30 13780 O 1372.68 1.74235 -0.501188 0
M  V30 13781 C 1372.73 0.103503 -3.60451 0
M  V30 13782 O 1371.84 1.16229 -3.95682 0
M  V30 13783 H 1371.18 -0.0585504 -0.661414 0
M  V30 13784 H 1373.71 -0.793532 -1.88585 0
M  V30 13785 H 1373.72 0.312658 -4.068 0
M  V30 13786 H 1372.39 -0.839684 -4.07335 0
M  V30 13787 H 1370.97 0.932347 -3.61056 0
M  V30 13788 N 1373.15 1.5451 -0.310553 0
M  V30 13789 C 1374.38 2.04739 0.29824 0
M  V30 13790 C 1374.8 1.18737 1.46788 0
M  V30 13791 O 1374.15 0.215114 1.81228 0
M  V30 13792 C 1374.21 3.53734 0.745274 0
M  V30 13793 O 1373.93 4.36468 -0.377826 0
M  V30 13794 C 1375.43 4.20001 1.41823 0
M  V30 13795 H 1372.65 0.667997 0.0634159 0
M  V30 13796 H 1375.19 1.9942 -0.452961 0
M  V30 13797 H 1373.35 3.59383 1.44648 0
M  V30 13798 H 1373.76 5.24492 -0.0280567 0
M  V30 13799 H 1375.23 5.25747 1.68209 0
M  V30 13800 H 1375.71 3.70319 2.36137 0
M  V30 13801 H 1376.32 4.18455 0.759951 0
M  V30 13802 N 1374.63 0.0384594 1.57553 0
M  V30 13803 C 1376.04 -0.499057 1.79906 0
M  V30 13804 C 1376.4 -1.7169 0.949577 0
M  V30 13805 O 1375.52 -2.15788 0.162584 0
M  V30 13806 C 1376.12 -0.912155 3.2629 0
M  V30 13807 C 1374.67 -1.39473 3.49606 0
M  V30 13808 C 1373.82 -0.363859 2.74902 0
M  V30 13809 H 1376.77 0.264433 1.56481 0
M  V30 13810 H 1376.79 -1.77592 3.36513 0
M  V30 13811 H 1376.31 -0.0255928 3.88092 0
M  V30 13812 H 1374.41 -2.3009 2.93068 0
M  V30 13813 H 1374.52 -1.39566 4.58321 0
M  V30 13814 H 1372.88 -0.833993 2.40659 0
M  V30 13815 H 1373.67 0.514398 3.39424 0
M  V30 13816 N 1376.11 -1.55841 -0.234795 0
M  V30 13817 C 1377.34 -1.82307 -0.978355 0
M  V30 13818 C 1377.75 -0.615825 -1.78474 0
M  V30 13819 O 1377.11 0.4156 -1.77705 0
M  V30 13820 C 1377.16 -3.07136 -1.90655 0
M  V30 13821 O 1376.88 -4.23202 -1.13278 0
M  V30 13822 C 1378.38 -3.46492 -2.76511 0
M  V30 13823 H 1375.6 -0.606361 -0.287345 0
M  V30 13824 H 1378.15 -2.02916 -0.254023 0
M  V30 13825 H 1376.3 -2.88542 -2.58501 0
M  V30 13826 H 1376.72 -4.94029 -1.76168 0
M  V30 13827 H 1378.19 -4.36908 -3.37366 0
M  V30 13828 H 1378.67 -2.67633 -3.48238 0
M  V30 13829 H 1379.27 -3.6748 -2.14099 0
M  V30 13830 N 1377.59 0.500963 -1.49426 0
M  V30 13831 C 1378.84 1.25694 -1.5915 0
M  V30 13832 C 1379.17 1.92209 -0.277365 0
M  V30 13833 O 1378.44 1.8072 0.719065 0
M  V30 13834 C 1378.73 2.32391 -2.75076 0
M  V30 13835 C 1378.58 1.70377 -4.16283 0
M  V30 13836 C 1379.9 3.33952 -2.86643 0
M  V30 13837 H 1377.02 0.455631 -0.579283 0
M  V30 13838 H 1379.66 0.555099 -1.8171 0
M  V30 13839 H 1377.81 2.92252 -2.55971 0
M  V30 13840 H 1379.48 1.14343 -4.46904 0
M  V30 13841 H 1377.72 1.00789 -4.21929 0
M  V30 13842 H 1378.4 2.47767 -4.9327 0
M  V30 13843 H 1380.87 2.84081 -3.04035 0
M  V30 13844 H 1379.75 4.05969 -3.69433 0
M  V30 13845 H 1380.01 3.96279 -1.95998 0
M  V30 13846 N 1379.07 1.38501 0.752011 0
M  V30 13847 C 1380.32 1.34529 1.50819 0
M  V30 13848 C 1380.64 -0.0636155 1.94896 0
M  V30 13849 O 1379.91 -1.01161 1.6776 0
M  V30 13850 H 1378.49 0.49501 0.559441 0
M  V30 13851 H 1381.15 1.73196 0.893822 0
M  V30 13852 H 1380.24 1.99713 2.39835 0
M  V30 13853 N 1380.55 -0.980364 1.23396 0
M  V30 13854 C 1381.46 -2.10688 1.03188 0
M  V30 13855 C 1382.47 -1.73984 -0.0236159 0
M  V30 13856 O 1383.65 -2.00666 0.171841 0
M  V30 13857 C 1380.71 -3.4101 0.625563 0
M  V30 13858 C 1379.77 -3.91739 1.75611 0
M  V30 13859 C 1379.01 -5.15841 1.36908 0
M  V30 13860 O 1379.23 -5.69837 0.253329 0
M  V30 13861 O 1378.16 -5.60638 2.19018 0
M  V30 13862 H 1381.99 -2.30626 1.97599 0
M  V30 13863 H 1379.57 -1.09067 1.02102 0
M  V30 13864 H 1381.46 -4.19402 0.409909 0
M  V30 13865 H 1380.13 -3.22402 -0.28956 0
M  V30 13866 H 1379.04 -3.14464 2.0264 0
M  V30 13867 H 1380.37 -4.14801 2.64955 0
M  V30 13868 N 1382.02 -1.04567 -1.17913 0
M  V30 13869 C 1382.95 -0.662066 -2.23917 0
M  V30 13870 C 1383.93 0.33713 -1.66726 0
M  V30 13871 O 1385.12 0.216116 -1.92994 0
M  V30 13872 C 1382.25 -0.029463 -3.47288 0
M  V30 13873 C 1381.2 -0.95274 -4.17261 0
M  V30 13874 C 1380.53 -0.184347 -5.34382 0
M  V30 13875 C 1381.83 -2.2741 -4.70194 0
M  V30 13876 H 1383.52 -1.54826 -2.5626 0
M  V30 13877 H 1381.07 -0.745886 -1.23177 0
M  V30 13878 H 1383.02 0.250654 -4.20654 0
M  V30 13879 H 1381.75 0.891638 -3.14193 0
M  V30 13880 H 1380.41 -1.21732 -3.45799 0
M  V30 13881 H 1380.05 0.73932 -4.97537 0
M  V30 13882 H 1379.75 -0.79949 -5.82136 0
M  V30 13883 H 1381.28 0.0886344 -6.10536 0
M  V30 13884 H 1382.69 -2.05433 -5.35229 0
M  V30 13885 H 1381.09 -2.84265 -5.28501 0
M  V30 13886 H 1382.16 -2.91708 -3.87342 0
M  V30 13887 N 1383.5 1.34231 -0.825823 0
M  V30 13888 C 1384.91 1.8059 -0.473724 0
M  V30 13889 C 1385.26 1.68438 1.00614 0
M  V30 13890 O 1384.39 1.22606 1.78317 0
M  V30 13891 C 1384.98 3.27884 -0.853099 0
M  V30 13892 C 1383.54 3.72311 -0.553327 0
M  V30 13893 C 1382.69 2.55889 -1.06845 0
M  V30 13894 H 1385.64 1.21937 -1.01573 0
M  V30 13895 H 1385.66 3.80172 -0.158014 0
M  V30 13896 H 1385.17 3.36696 -1.93021 0
M  V30 13897 H 1383.27 3.69034 0.514256 0
M  V30 13898 H 1383.39 4.66315 -1.09942 0
M  V30 13899 H 1381.75 2.49945 -0.489874 0
M  V30 13900 H 1382.53 2.67471 -2.15207 0
M  V30 13901 N 1384.98 0.581051 1.46498 0
M  V30 13902 C 1386.2 0.0696654 2.07283 0
M  V30 13903 C 1386.63 -1.22525 1.42721 0
M  V30 13904 O 1385.99 -1.73967 0.510421 0
M  V30 13905 C 1386.04 -0.0843864 3.60501 0
M  V30 13906 O 1385.14 -1.14129 3.96293 0
M  V30 13907 H 1384.48 0.0620572 0.661094 0
M  V30 13908 H 1387.01 0.803522 1.88161 0
M  V30 13909 H 1387.02 -0.29108 4.0696 0
M  V30 13910 H 1385.7 0.861274 4.06884 0
M  V30 13911 H 1384.27 -0.913186 3.61546 0
M  V30 13912 N 1386.46 -1.54343 0.318742 0
M  V30 13913 C 1387.71 -2.00084 -0.284713 0
M  V30 13914 C 1388.03 -1.20855 -1.53033 0
M  V30 13915 O 1387.3 -0.309104 -1.93446 0
M  V30 13916 H 1385.88 -0.739123 -0.108193 0
M  V30 13917 H 1388.54 -1.90002 0.434174 0
M  V30 13918 H 1387.63 -3.07314 -0.544459 0
M  V30 13919 N 1387.94 -0.0468143 -1.5753 0
M  V30 13920 C 1388.9 0.914225 -2.10177 0
M  V30 13921 C 1389.9 1.24271 -1.02045 0
M  V30 13922 O 1391.09 1.18012 -1.28136 0
M  V30 13923 C 1388.22 2.22544 -2.58238 0
M  V30 13924 H 1389.41 0.457922 -2.96383 0
M  V30 13925 H 1386.97 0.20152 -1.54995 0
M  V30 13926 H 1387.7 2.72765 -1.75413 0
M  V30 13927 H 1387.49 2.00007 -3.37253 0
M  V30 13928 H 1388.98 2.91392 -2.99133 0
M  V30 13929 N 1389.41 1.55964 0.226527 0
M  V30 13930 C 1390.32 1.95169 1.30178 0
M  V30 13931 C 1391.34 0.854831 1.51554 0
M  V30 13932 O 1392.52 1.15798 1.64781 0
M  V30 13933 C 1389.58 2.25612 2.63249 0
M  V30 13934 C 1388.64 3.4884 2.50219 0
M  V30 13935 C 1387.88 3.77822 3.76944 0
M  V30 13936 O 1388.1 3.08556 4.79739 0
M  V30 13937 O 1387.03 4.7132 3.74354 0
M  V30 13938 H 1390.86 2.86794 0.999145 0
M  V30 13939 H 1388.44 1.43109 0.42898 0
M  V30 13940 H 1390.33 2.4641 3.41848 0
M  V30 13941 H 1389 1.37162 2.93203 0
M  V30 13942 H 1387.91 3.33326 1.69836 0
M  V30 13943 H 1389.24 4.37657 2.25205 0
M  V30 13944 N 1390.89 -0.493031 1.4969 0
M  V30 13945 C 1392.14 -1.2433 1.58823 0
M  V30 13946 C 1392.45 -1.9353 0.283823 0
M  V30 13947 O 1393.66 -2.70311 0.253801 0
M  V30 13948 C 1392.12 -2.25792 2.8026 0
M  V30 13949 C 1391.72 -1.62496 4.17491 0
M  V30 13950 C 1393.47 -3.01598 2.98729 0
M  V30 13951 C 1391.38 -2.62115 5.30141 0
M  V30 13952 H 1390.31 -0.467738 0.591386 0
M  V30 13953 H 1392.96 -0.516238 1.76089 0
M  V30 13954 H 1391.34 -3.01696 2.56506 0
M  V30 13955 H 1392.51 -0.925305 4.51414 0
M  V30 13956 H 1390.83 -0.990516 4.04447 0
M  V30 13957 H 1393.42 -3.76111 3.80058 0
M  V30 13958 H 1393.77 -3.59687 2.09597 0
M  V30 13959 H 1394.3 -2.32809 3.2256 0
M  V30 13960 H 1391.04 -2.08797 6.21357 0
M  V30 13961 H 1390.56 -3.30298 5.00663 0
M  V30 13962 H 1392.24 -3.24385 5.59807 0
M  V30 13963 N 1392.37 -1.38898 -0.744656 0
M  V30 13964 C 1393.3 -1.39571 -1.87195 0
M  V30 13965 C 1394.28 -0.260372 -1.68095 0
M  V30 13966 O 1395.47 -0.464776 -1.88556 0
M  V30 13967 C 1392.6 -1.22889 -3.24832 0
M  V30 13968 C 1391.55 -2.33721 -3.58551 0
M  V30 13969 C 1390.88 -2.02136 -4.9502 0
M  V30 13970 C 1392.18 -3.7601 -3.62511 0
M  V30 13971 H 1393.87 -2.33908 -1.86889 0
M  V30 13972 H 1391.42 -1.12591 -0.897739 0
M  V30 13973 H 1393.37 -1.21983 -4.03359 0
M  V30 13974 H 1392.09 -0.250172 -3.2564 0
M  V30 13975 H 1390.75 -2.33828 -2.82348 0
M  V30 13976 H 1390.4 -1.02726 -4.92399 0
M  V30 13977 H 1390.1 -2.76371 -5.18549 0
M  V30 13978 H 1391.62 -2.02864 -5.75915 0
M  V30 13979 H 1393.04 -3.77885 -4.31133 0
M  V30 13980 H 1391.44 -4.49524 -3.97553 0
M  V30 13981 H 1392.51 -4.07682 -2.62533 0
M  V30 13982 N 1393.85 0.973806 -1.23914 0
M  V30 13983 C 1394.76 2.10138 -1.04304 0
M  V30 13984 C 1395.77 1.73994 0.0143888 0
M  V30 13985 O 1396.95 2.00572 -0.182481 0
M  V30 13986 C 1394.02 3.40673 -0.643639 0
M  V30 13987 C 1393.08 3.90802 -1.77686 0
M  V30 13988 C 1392.31 5.15108 -1.39642 0
M  V30 13989 O 1392.53 5.69695 -0.283546 0
M  V30 13990 O 1391.47 5.59468 -2.21988 0
M  V30 13991 H 1395.29 2.29574 -1.9882 0
M  V30 13992 H 1392.88 1.08524 -1.02679 0
M  V30 13993 H 1394.76 4.19178 -0.432145 0
M  V30 13994 H 1393.43 3.22551 0.272458 0
M  V30 13995 H 1392.34 3.13385 -2.04305 0
M  V30 13996 H 1393.67 4.1339 -2.67151 0
M  V30 13997 N 1395.33 1.05191 1.17357 0
M  V30 13998 C 1396.57 0.760479 1.87246 0
M  V30 13999 C 1396.9 -0.714618 1.81434 0
M  V30 14000 O 1396.17 -1.51636 1.24029 0
M  V30 14001 H 1394.75 0.278317 0.693216 0
M  V30 14002 H 1397.41 1.33106 1.42369 0
M  V30 14003 H 1396.5 1.07542 2.92987 0
M  V30 14004 N 1396.8 -1.33791 0.83293 0
M  V30 14005 C 1398.03 -2.0272 0.438111 0
M  V30 14006 C 1398.45 -1.62279 -0.951163 0
M  V30 14007 O 1397.81 -0.812406 -1.62079 0
M  V30 14008 C 1397.86 -3.5623 0.559698 0
M  V30 14009 O 1396.96 -4.10292 -0.41646 0
M  V30 14010 H 1396.31 -0.639438 0.178928 0
M  V30 14011 H 1398.84 -1.70821 1.12612 0
M  V30 14012 H 1398.85 -4.0563 0.439148 0
M  V30 14013 H 1397.52 -3.8501 1.5729 0
M  V30 14014 H 1396.1 -3.72034 -0.25396 0
M  V30 14015 N 1398.28 -0.588812 -1.46187 0
M  V30 14016 C 1399.25 0.130803 -2.28826 0
M  V30 14017 C 1400.25 0.813037 -1.38731 0
M  V30 14018 O 1401.44 0.664061 -1.61046 0
M  V30 14019 C 1398.57 1.19484 -3.19275 0
M  V30 14020 H 1399.76 -0.595514 -2.93928 0
M  V30 14021 H 1397.31 -0.347038 -1.52399 0
M  V30 14022 H 1398.05 1.95254 -2.58933 0
M  V30 14023 H 1397.83 0.710077 -3.85617 0
M  V30 14024 H 1399.32 1.69938 -3.81459 0
M  V30 14025 N 1399.76 1.54172 -0.326923 0
M  V30 14026 C 1400.99 2.05512 0.279231 0
M  V30 14027 C 1401.41 1.20131 1.44741 0
M  V30 14028 O 1400.77 0.211191 1.80066 0
M  V30 14029 C 1400.82 3.53971 0.688263 0
M  V30 14030 O 1399.92 3.71516 1.79025 0
M  V30 14031 H 1399.26 0.662131 0.0497826 0
M  V30 14032 H 1401.79 1.98979 -0.476309 0
M  V30 14033 H 1401.8 3.96302 0.970002 0
M  V30 14034 H 1400.48 4.15568 -0.166132 0
M  V30 14035 H 1399.05 3.4109 1.50706 0
M  V30 14036 N 1401.24 0.0551678 1.57503 0
M  V30 14037 C 1402.49 -0.6165 1.92467 0
M  V30 14038 C 1402.81 -1.71147 0.934552 0
M  V30 14039 O 1402.08 -1.9589 -0.0199649 0
M  V30 14040 H 1400.66 -0.230714 0.710479 0
M  V30 14041 H 1403.32 0.109111 1.94594 0
M  V30 14042 H 1402.42 -1.05254 2.93816 0
M  V30 14043 N 1402.72 -1.56081 -0.218252 0
M  V30 14044 C 1403.96 -1.79513 -0.943553 0
M  V30 14045 C 1404.3 -0.625367 -1.83855 0
M  V30 14046 O 1403.57 0.375226 -1.90846 0
M  V30 14047 C 1403.85 -3.13049 -1.77967 0
M  V30 14048 C 1403.71 -4.40479 -0.910939 0
M  V30 14049 C 1405.03 -3.43057 -2.7568 0
M  V30 14050 H 1402.14 -0.653057 -0.341593 0
M  V30 14051 H 1404.79 -1.88811 -0.212226 0
M  V30 14052 H 1402.94 -3.05254 -2.40318 0
M  V30 14053 H 1404.61 -4.60298 -0.303922 0
M  V30 14054 H 1402.85 -4.33259 -0.216513 0
M  V30 14055 H 1403.52 -5.3036 -1.53042 0
M  V30 14056 H 1406 -3.51002 -2.23465 0
M  V30 14057 H 1404.87 -4.37657 -3.31282 0
M  V30 14058 H 1405.14 -2.65389 -3.53584 0
M  V30 14059 N 1404.2 0.485086 -1.49949 0
M  V30 14060 C 1405.44 1.23571 -1.5992 0
M  V30 14061 C 1405.76 1.92754 -0.295108 0
M  V30 14062 O 1405.03 1.83474 0.686582 0
M  V30 14063 H 1403.61 0.459104 -0.589264 0
M  V30 14064 H 1406.28 0.560822 -1.86657 0
M  V30 14065 H 1405.37 1.99114 -2.40333 0
M  V30 14066 N 1405.67 1.39291 0.737279 0
M  V30 14067 C 1406.95 1.26901 1.48847 0
M  V30 14068 C 1407.33 -0.122417 2.10745 0
M  V30 14069 O 1406.68 -1.13343 1.98408 0
M  V30 14070 C 1406.89 2.3916 2.54172 0
M  V30 14071 C 1408.24 2.78368 3.20619 0
M  V30 14072 O 1409.26 2.38593 2.64484 0
M  V30 14073 O 1408.12 3.47014 4.22189 0
M  V30 14074 H 1405.21 0.497176 0.660867 0
M  V30 14075 H 1407.76 1.51159 0.771299 0
M  V30 14076 H 1406.53 3.3219 2.06797 0
M  V30 14077 H 1406.15 2.16555 3.33451 0
M  V30 14078 N 1407.15 -0.967221 1.24429 0
M  V30 14079 C 1408.08 -2.07966 1.06172 0
M  V30 14080 C 1409.06 -1.70081 -0.0254566 0
M  V30 14081 O 1410.25 -1.93682 0.141705 0
M  V30 14082 C 1407.38 -3.4085 0.666251 0
M  V30 14083 C 1406.33 -3.92692 1.70225 0
M  V30 14084 C 1405.66 -5.21925 1.16183 0
M  V30 14085 C 1406.96 -4.20478 3.09831 0
M  V30 14086 H 1408.65 -2.23497 1.99222 0
M  V30 14087 H 1406.2 -1.07398 0.959255 0
M  V30 14088 H 1408.15 -4.1811 0.52552 0
M  V30 14089 H 1406.87 -3.2522 -0.299939 0
M  V30 14090 H 1405.53 -3.17588 1.83121 0
M  V30 14091 H 1405.18 -5.02655 0.186237 0
M  V30 14092 H 1404.88 -5.57579 1.85416 0
M  V30 14093 H 1406.41 -6.01795 1.03323 0
M  V30 14094 H 1407.82 -4.88442 3.00162 0
M  V30 14095 H 1406.22 -4.67362 3.7642 0
M  V30 14096 H 1407.29 -3.27235 3.57834 0
M  V30 14097 N 1408.63 -1.05812 -1.16797 0
M  V30 14098 C 1409.85 -0.792518 -1.91661 0
M  V30 14099 C 1410.28 0.646598 -1.76637 0
M  V30 14100 O 1409.64 1.44998 -1.08836 0
M  V30 14101 C 1409.69 -1.18585 -3.40544 0
M  V30 14102 O 1408.79 -0.321716 -4.11143 0
M  V30 14103 H 1408.13 -0.290066 -0.597292 0
M  V30 14104 H 1410.66 -1.41263 -1.48007 0
M  V30 14105 H 1410.67 -1.1553 -3.91301 0
M  V30 14106 H 1409.35 -2.23413 -3.50798 0
M  V30 14107 H 1407.92 -0.413403 -3.70601 0
M  V30 14108 N 1410.11 1.33347 -0.840014 0
M  V30 14109 C 1411.36 1.97354 -0.435412 0
M  V30 14110 C 1411.68 1.66866 1.009 0
M  V30 14111 O 1410.95 0.968186 1.70303 0
M  V30 14112 H 1409.53 0.730096 -0.158017 0
M  V30 14113 H 1412.19 1.6269 -1.07322 0
M  V30 14114 H 1411.28 3.0688 -0.56841 0
M  V30 14115 N 1411.59 0.596556 1.45873 0
M  V30 14116 C 1412.52 -0.116229 2.33211 0
M  V30 14117 C 1413.5 -0.869868 1.46176 0
M  V30 14118 O 1414.68 -0.842599 1.74968 0
M  V30 14119 C 1411.81 -1.12145 3.28696 0
M  V30 14120 C 1410.77 -0.481749 4.2528 0
M  V30 14121 C 1410.09 -1.59443 5.10374 0
M  V30 14122 C 1411.39 0.589996 5.18957 0
M  V30 14123 H 1413.09 0.613005 2.93057 0
M  V30 14124 H 1410.63 0.296242 1.4092 0
M  V30 14125 H 1412.58 -1.62857 3.88659 0
M  V30 14126 H 1411.31 -1.88114 2.66985 0
M  V30 14127 H 1409.97 0.0044092 3.666 0
M  V30 14128 H 1409.62 -2.34413 4.45039 0
M  V30 14129 H 1409.32 -1.17197 5.75794 0
M  V30 14130 H 1410.84 -2.10404 5.73204 0
M  V30 14131 H 1412.25 0.167395 5.73056 0
M  V30 14132 H 1410.65 0.933565 5.92794 0
M  V30 14133 H 1411.72 1.47093 4.62052 0
M  V30 14134 N 1413.06 -1.53996 0.335095 0
M  V30 14135 C 1414.47 -1.86092 -0.15058 0
M  V30 14136 C 1414.83 -1.25652 -1.50685 0
M  V30 14137 O 1413.95 -0.566887 -2.08843 0
M  V30 14138 C 1414.55 -3.37641 -0.280007 0
M  V30 14139 C 1413.1 -3.69645 -0.709907 0
M  V30 14140 C 1412.25 -2.7683 0.161461 0
M  V30 14141 H 1415.2 -1.4868 0.554986 0
M  V30 14142 H 1415.22 -3.63981 -1.10896 0
M  V30 14143 H 1414.74 -3.81601 0.707254 0
M  V30 14144 H 1412.84 -3.31224 -1.7065 0
M  V30 14145 H 1412.95 -4.76424 -0.505661 0
M  V30 14146 H 1411.31 -2.52073 -0.364849 0
M  V30 14147 H 1412.1 -3.23618 1.1457 0
M  V30 14148 N 1414.54 -0.0635198 -1.57472 0
M  V30 14149 C 1415.77 0.620205 -1.9791 0
M  V30 14150 C 1416.19 1.62851 -0.941335 0
M  V30 14151 O 1415.55 1.81056 0.0940313 0
M  V30 14152 C 1415.6 1.27261 -3.37397 0
M  V30 14153 O 1414.7 2.38841 -3.36197 0
M  V30 14154 H 1414.04 0.16021 -0.644382 0
M  V30 14155 H 1416.57 -0.135582 -2.0415 0
M  V30 14156 H 1416.58 1.6214 -3.74399 0
M  V30 14157 H 1415.26 0.533723 -4.12461 0
M  V30 14158 H 1413.83 2.05817 -3.10956 0
M  V30 14159 N 1416.02 1.56195 0.209972 0
M  V30 14160 C 1417.27 1.7939 0.930796 0
M  V30 14161 C 1417.59 0.634038 1.84404 0
M  V30 14162 O 1416.86 -0.348467 1.92776 0
M  V30 14163 H 1415.44 0.661676 0.346689 0
M  V30 14164 H 1418.1 1.93665 0.219049 0
M  V30 14165 H 1417.2 2.71982 1.53075 0
M  V30 14166 N 1417.5 -0.477127 1.50204 0
M  V30 14167 C 1418.41 -1.60182 1.71403 0
M  V30 14168 C 1419.42 -1.63437 0.597009 0
M  V30 14169 O 1420.6 -1.81418 0.874614 0
M  V30 14170 C 1417.66 -2.96432 1.79802 0
M  V30 14171 C 1416.73 -3.03614 3.03508 0
M  V30 14172 C 1415.96 -4.33365 3.11497 0
M  V30 14173 O 1416.18 -5.23529 2.26438 0
M  V30 14174 O 1415.12 -4.46013 4.04173 0
M  V30 14175 H 1418.94 -1.45221 2.66729 0
M  V30 14176 H 1416.53 -0.655982 1.34228 0
M  V30 14177 H 1418.41 -3.77367 1.87542 0
M  V30 14178 H 1417.08 -3.11605 0.876581 0
M  V30 14179 H 1415.99 -2.21779 3.01272 0
M  V30 14180 H 1417.32 -2.93376 3.95211 0
M  V30 14181 N 1418.98 -1.3968 -0.729882 0
M  V30 14182 C 1420.22 -1.37385 -1.49175 0
M  V30 14183 C 1420.56 0.0285839 -1.94179 0
M  V30 14184 O 1419.83 0.994516 -1.67152 0
M  V30 14185 C 1420.11 -2.35075 -2.72785 0
M  V30 14186 C 1419.97 -3.84282 -2.33767 0
M  V30 14187 C 1421.29 -2.30515 -3.74901 0
M  V30 14188 H 1418.4 -0.500359 -0.541119 0
M  V30 14189 H 1421.05 -1.7071 -0.834152 0
M  V30 14190 H 1419.2 -2.06787 -3.28894 0
M  V30 14191 H 1420.87 -4.2334 -1.8325 0
M  V30 14192 H 1419.11 -4.00809 -1.65935 0
M  V30 14193 H 1419.78 -4.48131 -3.22309 0
M  V30 14194 H 1422.26 -2.55539 -3.28389 0
M  V30 14195 H 1421.13 -3.00939 -4.5905 0
M  V30 14196 H 1421.4 -1.3119 -4.22187 0
M  V30 14197 N 1420.45 0.960609 -1.2494 0
M  V30 14198 C 1421.38 2.074 -1.07274 0
M  V30 14199 C 1422.37 1.70092 0.0164365 0
M  V30 14200 O 1423.55 1.93604 -0.151975 0
M  V30 14201 C 1420.68 3.40491 -0.684317 0
M  V30 14202 C 1419.63 3.91784 -1.72306 0
M  V30 14203 C 1418.96 5.21301 -1.18949 0
M  V30 14204 C 1420.26 4.18829 -3.12056 0
M  V30 14205 H 1421.95 2.22438 -2.00404 0
M  V30 14206 H 1419.5 1.06888 -0.964937 0
M  V30 14207 H 1421.45 4.17826 -0.547686 0
M  V30 14208 H 1420.18 3.25374 0.282687 0
M  V30 14209 H 1418.84 3.16613 -1.84802 0
M  V30 14210 H 1418.48 5.02549 -0.212892 0
M  V30 14211 H 1418.18 5.56588 -1.8837 0
M  V30 14212 H 1419.71 6.01238 -1.06513 0
M  V30 14213 H 1421.12 4.86844 -3.02748 0
M  V30 14214 H 1419.52 4.6536 -3.78894 0
M  V30 14215 H 1420.59 3.25333 -3.59564 0
M  V30 14216 N 1421.93 1.0643 1.16234 0
M  V30 14217 C 1422.84 0.687446 2.24302 0
M  V30 14218 C 1423.86 -0.297132 1.71444 0
M  V30 14219 O 1425.03 -0.146101 2.00869 0
M  V30 14220 C 1422.1 0.0810973 3.46605 0
M  V30 14221 C 1421.16 1.11772 4.14494 0
M  V30 14222 C 1420.39 0.54021 5.30959 0
M  V30 14223 O 1420.62 -0.646619 5.66723 0
M  V30 14224 O 1419.55 1.28057 5.8812 0
M  V30 14225 H 1423.38 1.58842 2.58849 0
M  V30 14226 H 1420.96 0.836649 1.23776 0
M  V30 14227 H 1422.84 -0.25524 4.20626 0
M  V30 14228 H 1421.52 -0.793338 3.13828 0
M  V30 14229 H 1420.43 1.50626 3.42436 0
M  V30 14230 H 1421.76 1.96373 4.5133 0
M  V30 14231 N 1423.41 -1.329 0.847073 0
M  V30 14232 C 1424.64 -2.0171 0.460497 0
M  V30 14233 C 1425.05 -1.63699 -0.940649 0
M  V30 14234 O 1424.41 -0.854454 -1.61262 0
M  V30 14235 C 1424.46 -3.56799 0.581108 0
M  V30 14236 O 1424.18 -3.93442 1.92705 0
M  V30 14237 C 1425.68 -4.42882 0.192552 0
M  V30 14238 H 1422.9 -0.645887 0.181853 0
M  V30 14239 H 1425.45 -1.69648 1.14192 0
M  V30 14240 H 1423.6 -3.87364 -0.0524924 0
M  V30 14241 H 1424.02 -4.88157 1.91841 0
M  V30 14242 H 1425.49 -5.51025 0.327969 0
M  V30 14243 H 1425.97 -4.30571 -0.866315 0
M  V30 14244 H 1426.57 -4.17691 0.800918 0
M  V30 14245 N 1424.89 -0.604284 -1.45555 0
M  V30 14246 C 1426.11 -0.102634 -2.07146 0
M  V30 14247 C 1426.54 1.20239 -1.44652 0
M  V30 14248 O 1425.9 1.73133 -0.538033 0
M  V30 14249 C 1425.94 0.0270231 -3.6059 0
M  V30 14250 O 1425.05 1.0781 -3.98059 0
M  V30 14251 H 1424.39 -0.0725667 -0.660023 0
M  V30 14252 H 1426.92 -0.833355 -1.86859 0
M  V30 14253 H 1426.93 0.226299 -4.07372 0
M  V30 14254 H 1425.6 -0.925896 -4.05463 0
M  V30 14255 H 1424.18 0.855552 -3.62953 0
M  V30 14256 N 1426.37 1.53816 -0.343257 0
M  V30 14257 C 1427.33 2.23654 0.501161 0
M  V30 14258 C 1428.33 1.23664 1.02781 0
M  V30 14259 O 1429.52 1.48104 0.917103 0
M  V30 14260 C 1426.65 2.95596 1.69812 0
M  V30 14261 H 1427.84 2.997 -0.109626 0
M  V30 14262 H 1425.4 1.56013 -0.0946011 0
M  V30 14263 H 1426.13 2.23736 2.34761 0
M  V30 14264 H 1425.92 3.68938 1.32768 0
M  V30 14265 H 1427.41 3.48748 2.29706 0
M  V30 14266 N 1427.84 0.0718701 1.57436 0
M  V30 14267 C 1429.07 -0.609701 1.98236 0
M  V30 14268 C 1429.49 -1.6235 0.949959 0
M  V30 14269 O 1428.85 -1.81103 -0.0844281 0
M  V30 14270 C 1428.9 -1.2547 3.38068 0
M  V30 14271 O 1428 -2.37055 3.37459 0
M  V30 14272 H 1427.35 -0.15679 0.645223 0
M  V30 14273 H 1429.88 0.146407 2.04076 0
M  V30 14274 H 1429.89 -1.60152 3.75254 0
M  V30 14275 H 1428.56 -0.511842 4.12738 0
M  V30 14276 H 1427.14 -2.04165 3.12043 0
M  V30 14277 N 1429.32 -1.56304 -0.201686 0
M  V30 14278 C 1430.57 -1.79881 -0.921269 0
M  V30 14279 C 1430.89 -0.643809 -1.84065 0
M  V30 14280 O 1430.16 0.338239 -1.92958 0
M  V30 14281 H 1428.74 -0.663506 -0.343175 0
M  V30 14282 H 1431.4 -1.93779 -0.208775 0
M  V30 14283 H 1430.5 -2.7279 -1.51631 0
M  V30 14284 N 1430.8 0.469154 -1.50455 0
M  V30 14285 C 1432.05 1.2229 -1.6178 0
M  V30 14286 C 1432.38 1.91577 -0.318073 0
M  V30 14287 O 1431.65 1.82205 0.68057 0
M  V30 14288 C 1431.94 2.26504 -2.79943 0
M  V30 14289 C 1431.79 1.61509 -4.19804 0
M  V30 14290 C 1433.11 3.27796 -2.93662 0
M  V30 14291 H 1430.23 0.443241 -0.588817 0
M  V30 14292 H 1432.87 0.516431 -1.82847 0
M  V30 14293 H 1431.02 2.86757 -2.62112 0
M  V30 14294 H 1432.69 1.04838 -4.49229 0
M  V30 14295 H 1430.94 0.918162 -4.23972 0
M  V30 14296 H 1431.61 2.37248 -4.98415 0
M  V30 14297 H 1434.08 2.77568 -3.09992 0
M  V30 14298 H 1432.96 3.98041 -3.77961 0
M  V30 14299 H 1433.22 3.92033 -2.04359 0
M  V30 14300 N 1432.28 1.40065 0.722464 0
M  V30 14301 C 1433.53 1.37698 1.47932 0
M  V30 14302 C 1433.85 -0.0222608 1.94987 0
M  V30 14303 O 1433.12 -0.975795 1.69868 0
M  V30 14304 H 1431.7 0.506766 0.548815 0
M  V30 14305 H 1434.36 1.75053 0.856884 0
M  V30 14306 H 1433.46 2.04756 2.35545 0
M  V30 14307 N 1433.76 -0.95397 1.25448 0
M  V30 14308 C 1435.03 -1.67502 1.01008 0
M  V30 14309 C 1435.41 -2.05949 -0.463483 0
M  V30 14310 O 1434.76 -1.77336 -1.44098 0
M  V30 14311 C 1434.97 -2.89679 1.94645 0
M  V30 14312 C 1436.32 -3.61617 2.22526 0
M  V30 14313 O 1437.34 -2.99762 1.92409 0
M  V30 14314 O 1436.2 -4.72998 2.73743 0
M  V30 14315 H 1433.3 -0.732917 0.383094 0
M  V30 14316 H 1435.84 -1.00684 1.36605 0
M  V30 14317 H 1434.62 -2.58063 2.94141 0
M  V30 14318 H 1434.24 -3.64228 1.59449 0
M  V30 14319 N 1435.24 -1.07045 -1.15668 0
M  V30 14320 C 1436.17 -0.709413 -2.22463 0
M  V30 14321 C 1437.15 0.30169 -1.67403 0
M  V30 14322 O 1438.33 0.175131 -1.93409 0
M  V30 14323 C 1435.46 -0.103121 -3.47147 0
M  V30 14324 C 1434.42 -1.04103 -4.15146 0
M  V30 14325 C 1433.74 -0.297656 -5.33871 0
M  V30 14326 C 1435.04 -2.37332 -4.65264 0
M  V30 14327 H 1436.74 -1.60227 -2.52918 0
M  V30 14328 H 1434.28 -0.771846 -1.21567 0
M  V30 14329 H 1436.23 0.161371 -4.21091 0
M  V30 14330 H 1434.96 0.824792 -3.16014 0
M  V30 14331 H 1433.62 -1.2904 -3.43139 0
M  V30 14332 H 1433.27 0.633618 -4.98993 0
M  V30 14333 H 1432.97 -0.922789 -5.80309 0
M  V30 14334 H 1434.49 -0.0408892 -6.10586 0
M  V30 14335 H 1435.9 -2.1674 -5.30751 0
M  V30 14336 H 1434.3 -2.95412 -5.22352 0
M  V30 14337 H 1435.37 -2.99859 -3.81068 0
M  V30 14338 N 1436.71 1.32449 -0.85411 0
M  V30 14339 C 1437.94 2.01997 -0.470307 0
M  V30 14340 C 1438.36 1.63772 0.925225 0
M  V30 14341 O 1437.72 0.838089 1.60766 0
M  V30 14342 C 1437.77 3.55294 -0.616301 0
M  V30 14343 O 1436.87 4.10902 0.351133 0
M  V30 14344 H 1436.21 0.63651 -0.189079 0
M  V30 14345 H 1438.74 1.69008 -1.15315 0
M  V30 14346 H 1438.75 4.0488 -0.503624 0
M  V30 14347 H 1437.43 3.82459 -1.63396 0
M  V30 14348 H 1436.01 3.72391 0.194741 0
M  V30 14349 N 1438.19 0.611994 1.45232 0
M  V30 14350 C 1439.44 0.108696 2.01807 0
M  V30 14351 C 1439.76 -1.26692 1.48237 0
M  V30 14352 O 1439.03 -1.8378 0.678368 0
M  V30 14353 H 1437.61 0.0371921 0.746074 0
M  V30 14354 H 1440.27 0.794386 1.77976 0
M  V30 14355 H 1439.37 0.0618207 3.12039 0
M  V30 14356 N 1439.67 -1.53632 0.351409 0
M  V30 14357 C 1440.6 -2.28217 -0.49391 0
M  V30 14358 C 1441.58 -1.30085 -1.09599 0
M  V30 14359 O 1442.77 -1.58938 -1.1159 0
M  V30 14360 C 1439.9 -3.06085 -1.64102 0
M  V30 14361 C 1438.85 -4.11786 -1.16689 0
M  V30 14362 C 1438.18 -4.77654 -2.40314 0
M  V30 14363 C 1439.48 -5.21644 -0.261742 0
M  V30 14364 H 1441.17 -2.99125 0.1283 0
M  V30 14365 H 1438.72 -1.43861 0.0631462 0
M  V30 14366 H 1440.67 -3.57003 -2.2389 0
M  V30 14367 H 1439.39 -2.32842 -2.29025 0
M  V30 14368 H 1438.05 -3.61792 -0.591784 0
M  V30 14369 H 1437.7 -4.00997 -3.03661 0
M  V30 14370 H 1437.4 -5.49072 -2.09268 0
M  V30 14371 H 1438.92 -5.3136 -3.00813 0
M  V30 14372 H 1440.34 -5.6815 -0.766689 0
M  V30 14373 H 1438.73 -6.00085 -0.0428132 0
M  V30 14374 H 1439.8 -4.79821 0.699999 0
M  V30 14375 N 1441.15 -0.0802183 -1.57396 0
M  V30 14376 C 1442.56 0.451183 -1.81166 0
M  V30 14377 C 1442.91 1.69112 -0.994764 0
M  V30 14378 O 1442.03 2.15281 -0.219739 0
M  V30 14379 C 1442.63 0.825324 -3.28594 0
M  V30 14380 C 1441.19 1.30154 -3.53181 0
M  V30 14381 C 1440.34 0.290846 -2.75771 0
M  V30 14382 H 1443.29 -0.305829 -1.55725 0
M  V30 14383 H 1443.31 1.68608 -3.41104 0
M  V30 14384 H 1442.82 -0.0773119 -3.88023 0
M  V30 14385 H 1440.92 2.22239 -2.99066 0
M  V30 14386 H 1441.03 1.27365 -4.6186 0
M  V30 14387 H 1439.4 0.769894 -2.42785 0
M  V30 14388 H 1440.18 -0.604209 -3.37941 0
M  V30 14389 N 1442.63 1.56409 0.193394 0
M  V30 14390 C 1443.85 1.8519 0.933775 0
M  V30 14391 C 1444.28 0.663991 1.75991 0
M  V30 14392 O 1443.63 -0.387198 1.77117 0
M  V30 14393 C 1443.68 3.12212 1.80432 0
M  V30 14394 O 1442.79 2.92884 2.90332 0
M  V30 14395 H 1442.13 0.609754 0.262862 0
M  V30 14396 H 1444.66 2.03638 0.198195 0
M  V30 14397 H 1444.67 3.4305 2.20864 0
M  V30 14398 H 1443.34 3.98292 1.19733 0
M  V30 14399 H 1441.92 2.73349 2.53643 0
M  V30 14400 N 1444.1 -0.461169 1.50702 0
M  V30 14401 C 1445.35 -1.21012 1.61866 0
M  V30 14402 C 1445.67 -1.9226 0.325736 0
M  V30 14403 O 1444.94 -1.84543 -0.657306 0
M  V30 14404 H 1443.52 -0.449671 0.596494 0
M  V30 14405 H 1446.18 -0.531056 1.87525 0
M  V30 14406 H 1445.28 -1.95266 2.4347 0
M  V30 14407 N 1445.58 -1.40446 -0.715026 0
M  V30 14408 C 1446.49 -1.43074 -1.85922 0
M  V30 14409 C 1447.51 -0.323294 -1.7097 0
M  V30 14410 O 1448.68 -0.567966 -1.93226 0
M  V30 14411 C 1445.75 -1.29206 -3.21725 0
M  V30 14412 C 1444.81 -2.50097 -3.48927 0
M  V30 14413 C 1444.04 -2.36881 -4.7825 0
M  V30 14414 O 1444.27 -1.38292 -5.53382 0
M  V30 14415 O 1443.2 -3.26266 -5.058 0
M  V30 14416 H 1447.03 -2.39565 -1.86661 0
M  V30 14417 H 1444.61 -1.21775 -0.865522 0
M  V30 14418 H 1446.49 -1.23681 -4.02841 0
M  V30 14419 H 1445.17 -0.358207 -3.21712 0
M  V30 14420 H 1444.07 -2.61199 -2.67817 0
M  V30 14421 H 1445.41 -3.42244 -3.53737 0
M  V30 14422 N 1447.06 0.947303 -1.25952 0
M  V30 14423 C 1448.31 1.6953 -1.11299 0
M  V30 14424 C 1448.64 1.9113 0.343961 0
M  V30 14425 O 1447.91 1.48755 1.25309 0
M  V30 14426 C 1448.2 3.0738 -1.87588 0
M  V30 14427 C 1448.05 2.93145 -3.41154 0
M  V30 14428 C 1449.37 4.07396 -1.66483 0
M  V30 14429 H 1446.49 0.615281 -0.405707 0
M  V30 14430 H 1449.13 1.10064 -1.54874 0
M  V30 14431 H 1447.28 3.58143 -1.50553 0
M  V30 14432 H 1448.95 2.49651 -3.87907 0
M  V30 14433 H 1447.19 2.28902 -3.68492 0
M  V30 14434 H 1447.87 3.9089 -3.89755 0
M  V30 14435 H 1450.34 3.65572 -1.98738 0
M  V30 14436 H 1449.22 5.01876 -2.22287 0
M  V30 14437 H 1449.48 4.379 -0.607916 0
M  V30 14438 N 1448.54 1.07657 1.15099 0
M  V30 14439 C 1449.47 0.721201 2.22083 0
M  V30 14440 C 1450.45 -0.292808 1.67561 0
M  V30 14441 O 1451.63 -0.164872 1.93499 0
M  V30 14442 C 1448.76 0.12153 3.47087 0
M  V30 14443 C 1447.72 1.06303 4.14588 0
M  V30 14444 C 1447.04 0.325964 5.33706 0
M  V30 14445 C 1448.34 2.39796 4.63999 0
M  V30 14446 H 1450.04 1.61566 2.52065 0
M  V30 14447 H 1447.58 0.778282 1.21156 0
M  V30 14448 H 1449.54 -0.139037 4.21171 0
M  V30 14449 H 1448.26 -0.808022 3.16447 0
M  V30 14450 H 1446.92 1.30858 3.4245 0
M  V30 14451 H 1446.57 -0.607147 4.99322 0
M  V30 14452 H 1446.27 0.953552 5.79811 0
M  V30 14453 H 1447.79 0.0732695 6.10556 0
M  V30 14454 H 1449.21 2.19552 5.29594 0
M  V30 14455 H 1447.6 2.98178 5.20778 0
M  V30 14456 H 1448.67 3.01876 3.79472 0
M  V30 14457 N 1450.02 -1.31994 0.861122 0
M  V30 14458 C 1450.93 -2.32495 0.313555 0
M  V30 14459 C 1451.94 -1.64331 -0.571966 0
M  V30 14460 O 1453.12 -1.9582 -0.470794 0
M  V30 14461 C 1450.18 -3.43311 -0.483603 0
M  V30 14462 C 1449.24 -4.27153 0.428825 0
M  V30 14463 C 1448.48 -5.32676 -0.330383 0
M  V30 14464 O 1448.7 -5.48665 -1.55957 0
M  V30 14465 O 1447.63 -6.01116 0.307174 0
M  V30 14466 H 1451.46 -2.81234 1.14636 0
M  V30 14467 H 1449.05 -1.35734 0.624239 0
M  V30 14468 H 1450.93 -4.10877 -0.935831 0
M  V30 14469 H 1449.6 -2.9675 -1.2931 0
M  V30 14470 H 1448.51 -3.62372 0.929366 0
M  V30 14471 H 1449.84 -4.77255 1.20368 0
M  V30 14472 N 1451.49 -0.619688 -1.44906 0
M  V30 14473 C 1452.72 -0.126363 -2.06514 0
M  V30 14474 C 1453.14 1.19432 -1.46224 0
M  V30 14475 O 1452.49 1.7301 -0.580851 0
M  V30 14476 C 1452.55 0.00682319 -3.61499 0
M  V30 14477 O 1452.27 -1.26162 -4.19541 0
M  V30 14478 C 1453.77 0.530189 -4.40118 0
M  V30 14479 H 1450.99 -0.0744032 -0.666862 0
M  V30 14480 H 1453.53 -0.850851 -1.85959 0
M  V30 14481 H 1451.69 0.681694 -3.81355 0
M  V30 14482 H 1452.1 -1.09908 -5.12855 0
M  V30 14483 H 1453.57 0.572428 -5.49024 0
M  V30 14484 H 1454.05 1.55494 -4.10753 0
M  V30 14485 H 1454.66 -0.111044 -4.25155 0
M  V30 14486 N 1452.97 1.53444 -0.359552 0
M  V30 14487 C 1454.2 2.05584 0.232953 0
M  V30 14488 C 1454.62 1.23347 1.42937 0
M  V30 14489 O 1453.97 0.272662 1.80452 0
M  V30 14490 C 1454.02 3.55926 0.632359 0
M  V30 14491 O 1453.74 4.35045 -0.516494 0
M  V30 14492 C 1455.25 4.24301 1.28389 0
M  V30 14493 H 1452.47 0.669676 0.042132 0
M  V30 14494 H 1455.01 1.97878 -0.516176 0
M  V30 14495 H 1453.16 3.63802 1.33141 0
M  V30 14496 H 1453.58 5.24138 -0.194906 0
M  V30 14497 H 1455.05 5.30832 1.51397 0
M  V30 14498 H 1455.53 3.77644 2.24236 0
M  V30 14499 H 1456.14 4.20661 0.626438 0
M  V30 14500 N 1454.45 0.0885642 1.57351 0
M  V30 14501 C 1455.41 -0.858178 2.12528 0
M  V30 14502 C 1456.41 -1.21522 1.05304 0
M  V30 14503 O 1457.6 -1.14573 1.3122 0
M  V30 14504 C 1454.74 -2.15619 2.64048 0
M  V30 14505 H 1455.93 -0.37918 2.97493 0
M  V30 14506 H 1453.48 -0.160354 1.55475 0
M  V30 14507 H 1454.22 -2.68018 1.82584 0
M  V30 14508 H 1454 -1.90995 3.42437 0
M  V30 14509 H 1455.49 -2.83359 3.06753 0
M  V30 14510 N 1455.93 -1.56509 -0.185096 0
M  V30 14511 C 1457.34 -1.71024 -0.748856 0
M  V30 14512 C 1457.69 -0.69681 -1.83409 0
M  V30 14513 O 1456.82 0.144711 -2.15916 0
M  V30 14514 C 1457.41 -3.1008 -1.36513 0
M  V30 14515 C 1455.97 -3.26325 -1.87587 0
M  V30 14516 C 1455.12 -2.66977 -0.749579 0
M  V30 14517 H 1458.07 -1.58649 0.0401175 0
M  V30 14518 H 1458.09 -3.07965 -2.23468 0
M  V30 14519 H 1457.6 -3.83816 -0.575051 0
M  V30 14520 H 1455.7 -2.57522 -2.69283 0
M  V30 14521 H 1455.81 -4.33931 -2.03078 0
M  V30 14522 H 1454.18 -2.26419 -1.16647 0
M  V30 14523 H 1454.96 -3.43288 0.0284301 0
M  V30 14524 N 1457.41 0.45317 -1.50944 0
M  V30 14525 C 1458.65 1.20151 -1.62506 0
M  V30 14526 C 1458.98 1.92085 -0.335927 0
M  V30 14527 O 1458.25 1.84889 0.64751 0
M  V30 14528 H 1456.83 0.446502 -0.59887 0
M  V30 14529 H 1459.49 0.521103 -1.87804 0
M  V30 14530 H 1458.58 1.93972 -2.44502 0
M  V30 14531 N 1458.88 1.40823 0.707568 0
M  V30 14532 C 1460.13 1.39741 1.4697 0
M  V30 14533 C 1460.46 0.00231194 1.942 0
M  V30 14534 O 1459.74 -0.967798 1.68713 0
M  V30 14535 C 1460.02 2.39385 2.69011 0
M  V30 14536 C 1459.87 3.87953 2.27624 0
M  V30 14537 C 1461.19 2.3645 3.71186 0
M  V30 14538 H 1458.31 0.508904 0.533091 0
M  V30 14539 H 1460.95 1.72015 0.806888 0
M  V30 14540 H 1459.1 2.11993 3.25563 0
M  V30 14541 H 1460.78 4.26202 1.76492 0
M  V30 14542 H 1459.02 4.03399 1.59537 0
M  V30 14543 H 1459.69 4.53201 3.15139 0
M  V30 14544 H 1462.17 2.60731 3.24282 0
M  V30 14545 H 1461.04 3.08204 4.54204 0
M  V30 14546 H 1461.3 1.3789 4.20046 0
M  V30 14547 N 1460.36 -0.94061 1.26453 0
M  V30 14548 C 1461.27 -2.07298 1.09839 0
M  V30 14549 C 1462.29 -1.73971 0.0317477 0
M  V30 14550 O 1463.46 -2.00017 0.235594 0
M  V30 14551 C 1460.53 -3.38847 0.733736 0
M  V30 14552 C 1459.59 -3.85954 1.87985 0
M  V30 14553 C 1458.82 -5.11224 1.5325 0
M  V30 14554 O 1459.05 -5.68743 0.434491 0
M  V30 14555 O 1457.98 -5.53386 2.36743 0
M  V30 14556 H 1461.81 -2.24222 2.04837 0
M  V30 14557 H 1459.39 -1.05763 1.0552 0
M  V30 14558 H 1461.27 -4.17885 0.543131 0
M  V30 14559 H 1459.95 -3.2316 -0.186843 0
M  V30 14560 H 1458.86 -3.07858 2.12542 0
M  V30 14561 H 1460.19 -4.06162 2.78017 0
M  V30 14562 N 1461.84 -1.08266 -1.14527 0
M  V30 14563 C 1463.12 -0.724254 -1.81697 0
M  V30 14564 C 1463.5 0.792212 -1.95671 0
M  V30 14565 O 1462.85 1.71017 -1.51543 0
M  V30 14566 C 1463.06 -1.44949 -3.17475 0
M  V30 14567 C 1464.4 -1.60761 -3.9299 0
M  V30 14568 O 1465.43 -1.41103 -3.2706 0
M  V30 14569 O 1464.29 -1.93184 -5.11216 0
M  V30 14570 H 1461.38 -0.258814 -0.785458 0
M  V30 14571 H 1463.93 -1.18414 -1.21557 0
M  V30 14572 H 1462.7 -2.48262 -3.02459 0
M  V30 14573 H 1462.32 -0.980993 -3.85308 0
M  V30 14574 N 1463.32 1.31536 -0.86811 0
M  V30 14575 C 1464.57 1.96045 -0.474271 0
M  V30 14576 C 1464.88 1.6939 0.978071 0
M  V30 14577 O 1466.09 2.27746 1.47797 0
M  V30 14578 C 1464.54 3.5096 -0.797203 0
M  V30 14579 C 1464.15 3.86456 -2.26618 0
M  V30 14580 C 1465.9 4.21871 -0.471745 0
M  V30 14581 C 1463.8 5.34474 -2.53162 0
M  V30 14582 H 1462.73 0.733737 -0.173627 0
M  V30 14583 H 1465.38 1.49734 -1.06076 0
M  V30 14584 H 1463.77 3.95752 -0.139994 0
M  V30 14585 H 1464.94 3.52629 -2.9663 0
M  V30 14586 H 1463.25 3.28605 -2.55749 0
M  V30 14587 H 1465.85 5.30767 -0.647317 0
M  V30 14588 H 1466.19 4.12131 0.58768 0
M  V30 14589 H 1466.73 3.82706 -1.08542 0
M  V30 14590 H 1463.47 5.49248 -3.57781 0
M  V30 14591 H 1462.99 5.6966 -1.87743 0
M  V30 14592 H 1464.67 6.01716 -2.37797 0
M  V30 14593 N 1464.8 0.627364 1.44575 0
M  V30 14594 C 1466.02 0.135576 2.06956 0
M  V30 14595 C 1466.45 -1.17922 1.46547 0
M  V30 14596 O 1465.81 -1.72255 0.565509 0
M  V30 14597 C 1465.85 0.030347 3.60587 0
M  V30 14598 O 1464.96 -1.01464 3.99724 0
M  V30 14599 H 1464.3 0.083058 0.658785 0
M  V30 14600 H 1466.83 0.862977 1.8551 0
M  V30 14601 H 1466.84 -0.161461 4.0768 0
M  V30 14602 H 1465.51 0.990285 4.03938 0
M  V30 14603 H 1464.09 -0.797701 3.64268 0
M  V30 14604 N 1466.28 -1.53251 0.367684 0
M  V30 14605 C 1467.52 -2.00889 -0.220914 0
M  V30 14606 C 1467.84 -1.25662 -1.4911 0
M  V30 14607 O 1467.11 -0.370491 -1.92365 0
M  V30 14608 H 1465.69 -0.742191 -0.0846233 0
M  V30 14609 H 1468.36 -1.88525 0.494402 0
M  V30 14610 H 1467.45 -3.08891 -0.446414 0
M  V30 14611 N 1467.75 -0.0969077 -1.57302 0
M  V30 14612 C 1468.68 0.858443 -2.17147 0
M  V30 14613 C 1469.66 1.29294 -1.10531 0
M  V30 14614 O 1470.85 1.3595 -1.38676 0
M  V30 14615 C 1467.98 2.11691 -2.75326 0
M  V30 14616 C 1466.93 1.82097 -3.8733 0
M  V30 14617 C 1466.26 3.14787 -4.32219 0
M  V30 14618 C 1467.56 1.10651 -5.10444 0
M  V30 14619 H 1469.25 0.35982 -2.9723 0
M  V30 14620 H 1466.8 0.17163 -1.42974 0
M  V30 14621 H 1468.75 2.78963 -3.15844 0
M  V30 14622 H 1467.48 2.63839 -1.925 0
M  V30 14623 H 1466.14 1.17222 -3.47354 0
M  V30 14624 H 1465.78 3.64826 -3.46281 0
M  V30 14625 H 1465.48 2.95769 -5.07735 0
M  V30 14626 H 1467.01 3.83215 -4.75372 0
M  V30 14627 H 1468.42 1.68036 -5.48121 0
M  V30 14628 H 1466.82 1.01805 -5.91401 0
M  V30 14629 H 1467.89 0.0895634 -4.84817 0
M  V30 14630 N 1469.23 1.56605 0.176793 0
M  V30 14631 C 1470.64 1.71418 0.739775 0
M  V30 14632 C 1470.99 0.706527 1.83037 0
M  V30 14633 O 1470.12 -0.133259 2.15989 0
M  V30 14634 C 1470.71 3.10799 1.34867 0
M  V30 14635 C 1469.27 3.27315 1.85854 0
M  V30 14636 C 1468.42 2.67371 0.73541 0
M  V30 14637 H 1471.37 1.58626 -0.0485305 0
M  V30 14638 H 1471.39 3.09146 2.21831 0
M  V30 14639 H 1470.9 3.84116 0.554688 0
M  V30 14640 H 1469 2.58947 2.67913 0
M  V30 14641 H 1469.12 4.35002 2.00774 0
M  V30 14642 H 1467.48 2.27035 1.15444 0
M  V30 14643 H 1468.26 3.43268 -0.0466351 0
M  V30 14644 N 1470.71 -0.445159 1.51182 0
M  V30 14645 C 1471.93 -1.22249 1.67541 0
M  V30 14646 C 1472.36 -1.84446 0.368972 0
M  V30 14647 O 1471.72 -1.68463 -0.670058 0
M  V30 14648 C 1471.77 -2.288 2.78717 0
M  V30 14649 O 1470.87 -3.34094 2.41775 0
M  V30 14650 H 1470.21 -0.358516 0.558894 0
M  V30 14651 H 1472.74 -0.526696 1.97704 0
M  V30 14652 H 1472.75 -2.73708 3.02569 0
M  V30 14653 H 1471.43 -1.82906 3.73521 0
M  V30 14654 H 1470 -2.94717 2.28466 0
M  V30 14655 N 1472.19 -1.41197 -0.700089 0
M  V30 14656 C 1473.44 -1.40034 -1.45722 0
M  V30 14657 C 1473.76 -0.00876281 -1.94998 0
M  V30 14658 O 1473.03 0.948647 -1.71399 0
M  V30 14659 H 1471.61 -0.515433 -0.540683 0
M  V30 14660 H 1474.27 -1.76394 -0.828926 0
M  V30 14661 H 1473.36 -2.08477 -2.32258 0
M  V30 14662 N 1473.67 0.933891 -1.2695 0
M  V30 14663 C 1474.58 2.06713 -1.10936 0
M  V30 14664 C 1475.59 1.73952 -0.0409734 0
M  V30 14665 O 1476.77 1.9989 -0.246199 0
M  V30 14666 C 1473.83 3.38453 -0.751696 0
M  V30 14667 C 1472.89 3.84951 -1.90029 0
M  V30 14668 C 1472.13 5.10404 -1.55959 0
M  V30 14669 O 1472.35 5.68504 -0.464646 0
M  V30 14670 O 1471.28 5.52123 -2.39675 0
M  V30 14671 H 1475.11 2.23133 -2.06023 0
M  V30 14672 H 1472.69 1.05202 -1.06079 0
M  V30 14673 H 1474.58 4.17591 -0.565285 0
M  V30 14674 H 1473.25 3.23255 0.169703 0
M  V30 14675 H 1472.16 3.06727 -2.14172 0
M  V30 14676 H 1473.49 4.04681 -2.80167 0
M  V30 14677 N 1475.14 1.08871 1.13951 0
M  V30 14678 C 1476.39 0.822504 1.85372 0
M  V30 14679 C 1476.72 -0.650183 1.82993 0
M  V30 14680 O 1476 -1.4783 1.26398 0
M  V30 14681 C 1476.28 1.35107 3.33793 0
M  V30 14682 C 1476.13 2.88945 3.44719 0
M  V30 14683 C 1477.45 0.980203 4.29045 0
M  V30 14684 H 1474.57 0.300255 0.673065 0
M  V30 14685 H 1477.21 1.34914 1.33784 0
M  V30 14686 H 1475.36 0.903108 3.77857 0
M  V30 14687 H 1477.04 3.42148 3.09407 0
M  V30 14688 H 1475.28 3.26365 2.85777 0
M  V30 14689 H 1475.95 3.21004 4.49066 0
M  V30 14690 H 1478.43 1.36646 3.93023 0
M  V30 14691 H 1477.3 1.37717 5.31343 0
M  V30 14692 H 1477.56 -0.112253 4.41957 0
M  V30 14693 N 1476.62 -1.31073 0.875073 0
M  V30 14694 C 1477.55 -2.30855 0.350468 0
M  V30 14695 C 1478.53 -1.60569 -0.561384 0
M  V30 14696 O 1479.72 -1.88242 -0.477329 0
M  V30 14697 C 1476.85 -3.44444 -0.444493 0
M  V30 14698 C 1475.8 -4.26357 0.374716 0
M  V30 14699 C 1475.13 -5.31903 -0.546243 0
M  V30 14700 C 1476.43 -4.96817 1.61153 0
M  V30 14701 H 1478.12 -2.74983 1.18427 0
M  V30 14702 H 1475.67 -1.32199 0.570909 0
M  V30 14703 H 1477.62 -4.13304 -0.82206 0
M  V30 14704 H 1476.34 -2.99096 -1.31185 0
M  V30 14705 H 1475 -3.59171 0.734295 0
M  V30 14706 H 1474.65 -4.82803 -1.41102 0
M  V30 14707 H 1474.35 -5.876 -0.00198173 0
M  V30 14708 H 1475.88 -6.03621 -0.920542 0
M  V30 14709 H 1477.29 -5.58247 1.30511 0
M  V30 14710 H 1475.69 -5.62334 2.09524 0
M  V30 14711 H 1476.76 -4.2351 2.36151 0
M  V30 14712 N 1478.1 -0.635022 -1.4424 0
M  V30 14713 C 1479.01 0.0686832 -2.34499 0
M  V30 14714 C 1480.03 0.831574 -1.52843 0
M  V30 14715 O 1481.2 0.782954 -1.85558 0
M  V30 14716 C 1478.27 1.03543 -3.30877 0
M  V30 14717 C 1477.33 0.271484 -4.28441 0
M  V30 14718 C 1476.56 1.19218 -5.20214 0
M  V30 14719 O 1476.78 2.43101 -5.16002 0
M  V30 14720 O 1475.72 0.6744 -5.9811 0
M  V30 14721 H 1479.54 -0.673781 -2.96132 0
M  V30 14722 H 1477.13 -0.395211 -1.44078 0
M  V30 14723 H 1479.01 1.59151 -3.90191 0
M  V30 14724 H 1477.69 1.75844 -2.71773 0
M  V30 14725 H 1476.59 -0.327736 -3.72662 0
M  V30 14726 H 1477.93 -0.411584 -4.90476 0
M  V30 14727 N 1479.58 1.53054 -0.375806 0
M  V30 14728 C 1480.81 2.0582 0.211135 0
M  V30 14729 C 1481.22 1.24856 1.4162 0
M  V30 14730 O 1480.58 0.291786 1.80152 0
M  V30 14731 C 1480.63 3.56577 0.594573 0
M  V30 14732 O 1480.35 4.34472 -0.562607 0
M  V30 14733 C 1481.85 4.25639 1.23882 0
M  V30 14734 H 1479.07 0.670085 0.0350268 0
M  V30 14735 H 1481.62 1.9732 -0.537135 0
M  V30 14736 H 1479.77 3.65194 1.29275 0
M  V30 14737 H 1480.18 5.23902 -0.250487 0
M  V30 14738 H 1481.66 5.32408 1.45759 0
M  V30 14739 H 1482.14 3.80001 2.20218 0
M  V30 14740 H 1482.74 4.21302 0.581786 0
M  V30 14741 N 1481.06 0.105248 1.57248 0
M  V30 14742 C 1482.28 -0.564157 1.9906 0
M  V30 14743 C 1482.7 -1.61092 0.984624 0
M  V30 14744 O 1482.06 -1.82484 -0.0244031 0
M  V30 14745 C 1482.11 -1.20272 3.40906 0
M  V30 14746 O 1481.83 -0.197815 4.37653 0
M  V30 14747 C 1483.33 -1.95677 3.97776 0
M  V30 14748 H 1480.55 -0.150468 0.653912 0
M  V30 14749 H 1483.09 0.187532 2.03638 0
M  V30 14750 H 1481.25 -1.90528 3.3731 0
M  V30 14751 H 1481.66 -0.659998 5.20331 0
M  V30 14752 H 1483.14 -2.35702 4.99148 0
M  V30 14753 H 1483.61 -2.82661 3.36154 0
M  V30 14754 H 1484.22 -1.30215 4.04876 0
M  V30 14755 N 1482.53 -1.56697 -0.168486 0
M  V30 14756 C 1483.5 -1.95744 -1.19235 0
M  V30 14757 C 1484.5 -0.841419 -1.37028 0
M  V30 14758 O 1485.69 -1.10842 -1.34386 0
M  V30 14759 C 1482.82 -2.25471 -2.55686 0
M  V30 14760 H 1484.01 -2.87368 -0.857892 0
M  V30 14761 H 1481.57 -1.50798 -0.411041 0
M  V30 14762 H 1482.3 -1.36571 -2.94141 0
M  V30 14763 H 1482.09 -3.06822 -2.44137 0
M  V30 14764 H 1483.58 -2.56593 -3.29469 0
M  V30 14765 N 1484.01 0.437135 -1.51416 0
M  V30 14766 C 1485.42 1.01699 -1.5657 0
M  V30 14767 C 1485.77 1.92299 -0.389291 0
M  V30 14768 O 1484.9 2.10689 0.49389 0
M  V30 14769 C 1485.49 1.85119 -2.83754 0
M  V30 14770 C 1484.05 2.38154 -2.91478 0
M  V30 14771 C 1483.2 1.17374 -2.51234 0
M  V30 14772 H 1486.15 0.218399 -1.5719 0
M  V30 14773 H 1486.17 2.70572 -2.67528 0
M  V30 14774 H 1485.68 1.19153 -3.69357 0
M  V30 14775 H 1483.79 3.07575 -2.10306 0
M  V30 14776 H 1483.9 2.70937 -3.95133 0
M  V30 14777 H 1482.26 1.51913 -2.04437 0
M  V30 14778 H 1483.05 0.530176 -3.39181 0
M  V30 14779 N 1485.49 1.41566 0.692592 0
M  V30 14780 C 1486.74 1.40805 1.44978 0
M  V30 14781 C 1487.06 0.0191039 1.94991 0
M  V30 14782 O 1486.33 -0.939544 1.71899 0
M  V30 14783 H 1484.91 0.518293 0.537942 0
M  V30 14784 H 1487.57 1.76831 0.81956 0
M  V30 14785 H 1486.67 2.09706 2.31149 0
M  V30 14786 N 1486.97 -0.927146 1.27443 0
M  V30 14787 C 1488.21 -1.67738 1.13982 0
M  V30 14788 C 1488.55 -1.91653 -0.313511 0
M  V30 14789 O 1487.82 -1.50729 -1.22926 0
M  V30 14790 C 1488.11 -3.04357 1.92454 0
M  V30 14791 C 1487.96 -2.8768 3.45775 0
M  V30 14792 C 1489.28 -4.04696 1.72944 0
M  V30 14793 H 1486.4 -0.608749 0.415444 0
M  V30 14794 H 1489.04 -1.07587 1.56605 0
M  V30 14795 H 1487.19 -3.55702 1.56232 0
M  V30 14796 H 1488.86 -2.43449 3.9183 0
M  V30 14797 H 1487.1 -2.23011 3.72087 0
M  V30 14798 H 1487.77 -3.8464 3.95924 0
M  V30 14799 H 1490.25 -3.62364 2.04528 0
M  V30 14800 H 1489.13 -4.98276 2.30243 0
M  V30 14801 H 1489.39 -4.36878 0.677505 0
M  V30 14802 N 1488.45 -1.09474 -1.13372 0
M  V30 14803 C 1489.36 -0.746674 -2.224 0
M  V30 14804 C 1490.37 0.251572 -1.72172 0
M  V30 14805 O 1491.55 0.092793 -2.01186 0
M  V30 14806 C 1488.61 -0.172965 -3.46268 0
M  V30 14807 C 1487.67 -1.22722 -4.11385 0
M  V30 14808 C 1486.91 -0.680794 -5.2934 0
M  V30 14809 O 1487.13 0.496135 -5.68238 0
M  V30 14810 O 1486.06 -1.43605 -5.84518 0
M  V30 14811 H 1489.89 -1.65649 -2.54547 0
M  V30 14812 H 1487.48 -0.869172 -1.21514 0
M  V30 14813 H 1489.36 0.143629 -4.21155 0
M  V30 14814 H 1488.03 0.709853 -3.15821 0
M  V30 14815 H 1486.94 -1.59652 -3.38323 0
M  V30 14816 H 1488.27 -2.0827 -4.45965 0
M  V30 14817 N 1489.92 1.30607 -0.882012 0
M  V30 14818 C 1491.2 1.91056 -0.419153 0
M  V30 14819 C 1491.58 1.80185 1.09985 0
M  V30 14820 O 1490.93 1.21717 1.93384 0
M  V30 14821 C 1491.14 3.3682 -0.913949 0
M  V30 14822 C 1492.49 4.13901 -0.947169 0
M  V30 14823 O 1493.51 3.45652 -0.860412 0
M  V30 14824 O 1492.37 5.35826 -1.07483 0
M  V30 14825 H 1489.46 0.81709 -0.127645 0
M  V30 14826 H 1492.01 1.39195 -0.970717 0
M  V30 14827 H 1490.78 3.38804 -1.95774 0
M  V30 14828 H 1490.41 3.96132 -0.34138 0
M  V30 14829 N 1491.4 0.642663 1.43901 0
M  V30 14830 C 1492.65 0.149167 2.01148 0
M  V30 14831 C 1492.96 -1.2405 1.51231 0
M  V30 14832 O 1494.17 -1.82864 2.00681 0
M  V30 14833 C 1492.63 0.215891 3.59252 0
M  V30 14834 C 1492.23 1.60759 4.18163 0
M  V30 14835 C 1493.98 -0.220546 4.23927 0
M  V30 14836 C 1491.89 1.62881 5.68528 0
M  V30 14837 H 1490.82 0.0520015 0.752205 0
M  V30 14838 H 1493.47 0.803152 1.6499 0
M  V30 14839 H 1491.85 -0.505409 3.92762 0
M  V30 14840 H 1493.02 2.3534 3.96171 0
M  V30 14841 H 1491.34 1.9891 3.65819 0
M  V30 14842 H 1493.93 -0.224389 5.34229 0
M  V30 14843 H 1494.28 -1.25003 3.97089 0
M  V30 14844 H 1494.81 0.448646 3.95262 0
M  V30 14845 H 1491.55 2.63704 6.00117 0
M  V30 14846 H 1491.07 0.926104 5.92607 0
M  V30 14847 H 1492.75 1.36785 6.32375 0
M  V30 14848 N 1492.88 -1.52852 0.383918 0
M  V30 14849 C 1494.11 -2.06406 -0.202764 0
M  V30 14850 C 1494.53 -1.25421 -1.40183 0
M  V30 14851 O 1493.89 -0.277876 -1.79158 0
M  V30 14852 C 1493.94 -3.56281 -0.556414 0
M  V30 14853 O 1493.04 -3.77904 -1.65113 0
M  V30 14854 H 1492.38 -0.663523 -0.0251737 0
M  V30 14855 H 1494.91 -1.97074 0.54983 0
M  V30 14856 H 1494.92 -3.99629 -0.822249 0
M  V30 14857 H 1493.6 -4.14665 0.320253 0
M  V30 14858 H 1492.17 -3.46448 -1.37943 0
M  V30 14859 N 1494.36 -0.113586 -1.5719 0
M  V30 14860 C 1495.61 0.544642 -1.94623 0
M  V30 14861 C 1495.93 1.6756 -0.997428 0
M  V30 14862 O 1495.2 1.95829 -0.0527521 0
M  V30 14863 H 1493.78 0.204186 -0.718552 0
M  V30 14864 H 1496.44 -0.181258 -1.94055 0
M  V30 14865 H 1495.54 0.942765 -2.9752 0
M  V30 14866 N 1495.84 1.56784 0.160173 0
M  V30 14867 C 1496.77 2.00298 1.20012 0
M  V30 14868 C 1497.75 0.880356 1.45546 0
M  V30 14869 O 1498.93 1.14724 1.56691 0
M  V30 14870 C 1496.06 2.37238 2.53645 0
M  V30 14871 C 1495.02 3.52563 2.42658 0
M  V30 14872 C 1494.34 3.75278 3.80881 0
M  V30 14873 C 1495.64 4.85657 1.92183 0
M  V30 14874 H 1497.34 2.87423 0.838362 0
M  V30 14875 H 1494.88 1.3828 0.401838 0
M  V30 14876 H 1496.84 2.66278 3.2661 0
M  V30 14877 H 1495.56 1.47035 2.9163 0
M  V30 14878 H 1494.22 3.23669 1.72146 0
M  V30 14879 H 1493.87 2.82347 4.1628 0
M  V30 14880 H 1493.57 4.52882 3.74396 0
M  V30 14881 H 1495.09 4.0673 4.55415 0
M  V30 14882 H 1496.51 5.13501 2.54931 0
M  V30 14883 H 1494.9 5.66975 1.96619 0
M  V30 14884 H 1495.97 4.76908 0.876742 0
M  V30 14885 N 1497.32 -0.429099 1.51646 0
M  V30 14886 C 1498.73 -1.00868 1.57107 0
M  V30 14887 C 1499.08 -1.9209 0.399483 0
M  V30 14888 O 1498.2 -2.10948 -0.482709 0
M  V30 14889 C 1498.8 -1.83612 2.84732 0
M  V30 14890 C 1497.36 -2.36605 2.92737 0
M  V30 14891 C 1496.5 -1.1604 2.51853 0
M  V30 14892 H 1499.45 -0.21006 1.57304 0
M  V30 14893 H 1499.48 -2.69149 2.68959 0
M  V30 14894 H 1498.99 -1.17192 3.69983 0
M  V30 14895 H 1497.09 -3.06455 2.11934 0
M  V30 14896 H 1497.2 -2.68838 3.96564 0
M  V30 14897 H 1495.57 -1.50826 2.0524 0
M  V30 14898 H 1496.35 -0.51218 3.39458 0
M  V30 14899 N 1498.79 -1.41931 -0.685074 0
M  V30 14900 C 1500.02 -1.45432 -1.47866 0
M  V30 14901 C 1500.44 -0.0641302 -1.87991 0
M  V30 14902 O 1499.8 0.935081 -1.55325 0
M  V30 14903 C 1499.85 -2.37801 -2.71077 0
M  V30 14904 O 1498.95 -1.84229 -3.68963 0
M  V30 14905 H 1498.29 -0.493156 -0.444627 0
M  V30 14906 H 1500.82 -1.86508 -0.841177 0
M  V30 14907 H 1500.83 -2.54033 -3.19266 0
M  V30 14908 H 1499.51 -3.38807 -2.41211 0
M  V30 14909 H 1498.09 -1.775 -3.27945 0
M  V30 14910 N 1500.27 0.920374 -1.27933 0
M  V30 14911 C 1501.52 1.66554 -1.14474 0
M  V30 14912 C 1501.84 1.92545 0.308444 0
M  V30 14913 O 1501.11 1.53691 1.21473 0
M  V30 14914 H 1499.69 0.617302 -0.420651 0
M  V30 14915 H 1502.35 1.10473 -1.60567 0
M  V30 14916 H 1501.45 2.63067 -1.67935 0
M  V30 14917 N 1501.75 1.10074 1.1279 0
M  V30 14918 C 1502.66 0.758458 2.22001 0
M  V30 14919 C 1503.68 -0.242438 1.72303 0
M  V30 14920 O 1504.85 -0.0821223 2.01233 0
M  V30 14921 C 1501.92 0.191326 3.46172 0
M  V30 14922 C 1500.98 1.24902 4.10729 0
M  V30 14923 C 1500.21 0.708857 5.28972 0
M  V30 14924 O 1500.43 -0.465993 5.68493 0
M  V30 14925 O 1499.37 1.46703 5.83748 0
M  V30 14926 H 1503.19 1.66997 2.53665 0
M  V30 14927 H 1500.78 0.875604 1.21052 0
M  V30 14928 H 1502.66 -0.121292 4.21225 0
M  V30 14929 H 1501.34 -0.693094 3.16193 0
M  V30 14930 H 1500.24 1.61444 3.37471 0
M  V30 14931 H 1501.58 2.10632 4.44854 0
M  V30 14932 N 1503.23 -1.30138 0.888926 0
M  V30 14933 C 1504.47 -1.96279 0.51012 0
M  V30 14934 C 1504.81 -1.69984 -0.939096 0
M  V30 14935 O 1504.08 -1.00677 -1.66416 0
M  V30 14936 C 1504.36 -3.51321 0.790305 0
M  V30 14937 C 1504.22 -3.87116 2.29044 0
M  V30 14938 C 1505.54 -4.39274 0.269477 0
M  V30 14939 H 1502.66 -0.712931 0.18681 0
M  V30 14940 H 1505.3 -1.53942 1.11364 0
M  V30 14941 H 1503.45 -3.87514 0.276647 0
M  V30 14942 H 1505.12 -3.60926 2.87281 0
M  V30 14943 H 1503.36 -3.35044 2.7555 0
M  V30 14944 H 1504.03 -4.95288 2.43708 0
M  V30 14945 H 1506.51 -4.10012 0.709173 0
M  V30 14946 H 1505.39 -5.46665 0.494815 0
M  V30 14947 H 1505.65 -4.3425 -0.829434 0
M  V30 14948 N 1504.71 -0.650285 -1.43559 0
M  V30 14949 C 1505.64 0.0295939 -2.33481 0
M  V30 14950 C 1506.62 0.815017 -1.49303 0
M  V30 14951 O 1507.8 0.77708 -1.77975 0
M  V30 14952 C 1504.93 0.998683 -3.32631 0
M  V30 14953 C 1503.89 0.323577 -4.26775 0
M  V30 14954 C 1503.21 1.40391 -5.1594 0
M  V30 14955 C 1504.51 -0.782197 -5.1641 0
M  V30 14956 H 1506.21 -0.721349 -2.9058 0
M  V30 14957 H 1503.75 -0.348339 -1.39723 0
M  V30 14958 H 1505.7 1.4832 -3.94435 0
M  V30 14959 H 1504.43 1.78075 -2.73782 0
M  V30 14960 H 1503.09 -0.140467 -3.66331 0
M  V30 14961 H 1502.74 2.17734 -4.53432 0
M  V30 14962 H 1502.44 0.957462 -5.79747 0
M  V30 14963 H 1503.96 1.88985 -5.80618 0
M  V30 14964 H 1505.37 -0.379966 -5.72039 0
M  V30 14965 H 1503.77 -1.15293 -5.88921 0
M  V30 14966 H 1504.84 -1.6414 -4.56274 0
M  V30 14967 N 1506.18 1.52647 -0.392018 0
M  V30 14968 C 1507.09 2.30261 0.449093 0
M  V30 14969 C 1508.11 1.37286 1.06905 0
M  V30 14970 O 1509.29 1.70357 1.07427 0
M  V30 14971 C 1506.35 3.09636 1.55969 0
M  V30 14972 C 1505.41 4.18324 0.964566 0
M  V30 14973 C 1504.64 4.93904 2.02224 0
M  V30 14974 O 1504.87 4.69603 3.23773 0
M  V30 14975 O 1503.8 5.79183 1.63802 0
M  V30 14976 H 1507.63 3.03147 -0.183269 0
M  V30 14977 H 1505.21 1.48587 -0.155664 0
M  V30 14978 H 1507.09 3.59118 2.20482 0
M  V30 14979 H 1505.77 2.39561 2.17697 0
M  V30 14980 H 1504.68 3.73031 0.282618 0
M  V30 14981 H 1506.01 4.90641 0.391466 0
M  V30 14982 N 1507.66 0.121921 1.57128 0
M  V30 14983 C 1508.89 -0.543012 1.99647 0
M  V30 14984 C 1509.31 -1.60038 1.00165 0
M  V30 14985 O 1508.66 -1.82499 -0.00504688 0
M  V30 14986 C 1508.71 -1.1665 3.42162 0
M  V30 14987 O 1508.43 -0.151385 4.37838 0
M  V30 14988 C 1509.94 -1.91447 3.99829 0
M  V30 14989 H 1507.16 -0.143524 0.655471 0
M  V30 14990 H 1509.7 0.20912 2.03428 0
M  V30 14991 H 1507.85 -1.86939 3.39312 0
M  V30 14992 H 1508.27 -0.604773 5.21002 0
M  V30 14993 H 1509.74 -2.30394 5.0162 0
M  V30 14994 H 1510.22 -2.7908 3.39133 0
M  V30 14995 H 1510.83 -1.25913 4.06234 0
M  V30 14996 N 1509.14 -1.56867 -0.151857 0
M  V30 14997 C 1510.37 -1.87237 -0.880343 0
M  V30 14998 C 1510.78 -0.709565 -1.74959 0
M  V30 14999 O 1510.14 0.320818 -1.79658 0
M  V30 15000 C 1510.19 -3.16811 -1.74107 0
M  V30 15001 O 1509.91 -4.28611 -0.906858 0
M  V30 15002 C 1511.41 -3.60662 -2.57755 0
M  V30 15003 H 1508.63 -0.62074 -0.254799 0
M  V30 15004 H 1511.18 -2.03977 -0.146104 0
M  V30 15005 H 1509.33 -3.01838 -2.42842 0
M  V30 15006 H 1509.75 -5.02673 -1.49733 0
M  V30 15007 H 1511.22 -4.54176 -3.13732 0
M  V30 15008 H 1511.7 -2.85716 -3.33561 0
M  V30 15009 H 1512.3 -3.78312 -1.94319 0
M  V30 15010 N 1510.62 0.421051 -1.51871 0
M  V30 15011 C 1511.58 1.49478 -1.73749 0
M  V30 15012 C 1512.58 1.48887 -0.607395 0
M  V30 15013 O 1513.77 1.50622 -0.875143 0
M  V30 15014 C 1510.9 2.88947 -1.80893 0
M  V30 15015 H 1512.1 1.31377 -2.69593 0
M  V30 15016 H 1509.65 0.650786 -1.42107 0
M  V30 15017 H 1510.38 3.12434 -0.86922 0
M  V30 15018 H 1510.17 2.90781 -2.63038 0
M  V30 15019 H 1511.66 3.66809 -1.99602 0
M  V30 15020 N 1512.1 1.42293 0.677538 0
M  V30 15021 C 1513.51 1.37948 1.25806 0
M  V30 15022 C 1513.86 0.071408 1.9607 0
M  V30 15023 O 1512.98 -0.829921 1.99853 0
M  V30 15024 C 1513.58 2.49875 2.28797 0
M  V30 15025 C 1512.14 2.48872 2.82382 0
M  V30 15026 C 1511.28 2.28804 1.56665 0
M  V30 15027 H 1514.24 1.51546 0.471102 0
M  V30 15028 H 1514.26 2.19969 3.10474 0
M  V30 15029 H 1513.77 3.45065 1.77629 0
M  V30 15030 H 1511.87 1.57492 3.37679 0
M  V30 15031 H 1511.98 3.45816 3.31585 0
M  V30 15032 H 1510.35 1.77014 1.83135 0
M  V30 15033 H 1511.13 3.26046 1.07467 0
M  V30 15034 N 1513.57 -0.913576 1.28419 0
M  V30 15035 C 1514.82 -1.65944 1.15355 0
M  V30 15036 C 1515.14 -1.92706 -0.298228 0
M  V30 15037 O 1514.41 -1.54333 -1.20657 0
M  V30 15038 H 1512.99 -0.615063 0.423919 0
M  V30 15039 H 1515.66 -1.0962 1.6115 0
M  V30 15040 H 1514.75 -2.62173 1.69327 0
M  V30 15041 N 1515.05 -1.1067 -1.12204 0
M  V30 15042 C 1516.3 -0.85189 -1.8404 0
M  V30 15043 C 1516.63 0.620988 -1.84004 0
M  V30 15044 O 1515.91 1.45801 -1.28734 0
M  V30 15045 C 1516.19 -1.40401 -3.31602 0
M  V30 15046 C 1516.04 -2.94392 -3.40078 0
M  V30 15047 C 1517.36 -1.04834 -4.27432 0
M  V30 15048 H 1514.48 -0.310924 -0.668203 0
M  V30 15049 H 1517.12 -1.37026 -1.3162 0
M  V30 15050 H 1515.27 -0.963107 -3.76373 0
M  V30 15051 H 1516.94 -3.47027 -3.03924 0
M  V30 15052 H 1515.19 -3.3087 -2.80548 0
M  V30 15053 H 1515.86 -3.28107 -4.43903 0
M  V30 15054 H 1518.33 -1.42882 -3.90799 0
M  V30 15055 H 1517.21 -1.46153 -5.29085 0
M  V30 15056 H 1517.47 0.0419272 -4.4208 0
M  V30 15057 N 1516.53 1.29665 -0.895815 0
M  V30 15058 C 1517.44 2.31582 -0.375086 0
M  V30 15059 C 1518.46 1.65789 0.528196 0
M  V30 15060 O 1519.63 1.96999 0.41871 0
M  V30 15061 C 1516.7 3.44472 0.39241 0
M  V30 15062 C 1515.76 4.25866 -0.541926 0
M  V30 15063 C 1514.99 5.33365 0.189037 0
M  V30 15064 O 1515.21 5.52607 1.41355 0
M  V30 15065 O 1514.15 6.0009 -0.466441 0
M  V30 15066 H 1517.97 2.78095 -1.22052 0
M  V30 15067 H 1515.56 1.34031 -0.660007 0
M  V30 15068 H 1517.44 4.13214 0.826565 0
M  V30 15069 H 1516.12 3.00074 1.21397 0
M  V30 15070 H 1515.02 3.59781 -1.02512 0
M  V30 15071 H 1516.36 4.73896 -1.32979 0
M  V30 15072 N 1518.01 0.657889 1.43212 0
M  V30 15073 C 1519.29 0.102895 1.95329 0
M  V30 15074 C 1519.67 -1.37821 1.59901 0
M  V30 15075 O 1519.01 -2.10602 0.886505 0
M  V30 15076 C 1519.22 0.354075 3.47199 0
M  V30 15077 C 1520.57 0.261511 4.23794 0
M  V30 15078 O 1521.6 0.286889 3.55043 0
M  V30 15079 O 1520.45 0.189209 5.46172 0
M  V30 15080 H 1517.55 -0.00692284 0.826971 0
M  V30 15081 H 1520.09 0.73145 1.53127 0
M  V30 15082 H 1518.87 1.38075 3.6613 0
M  V30 15083 H 1518.49 -0.307321 3.96411 0
M  V30 15084 N 1519.49 -1.52437 0.400108 0
M  V30 15085 C 1520.74 -2.00896 -0.179909 0
M  V30 15086 C 1521.05 -1.29046 -1.46991 0
M  V30 15087 O 1522.25 -1.68274 -2.13063 0
M  V30 15088 C 1520.71 -3.57981 -0.371169 0
M  V30 15089 C 1520.32 -4.38739 0.906213 0
M  V30 15090 C 1522.06 -4.14698 -0.906965 0
M  V30 15091 C 1519.97 -5.87447 0.682637 0
M  V30 15092 H 1518.9 -0.750649 -0.071008 0
M  V30 15093 H 1521.55 -1.75854 0.524169 0
M  V30 15094 H 1519.93 -3.79315 -1.13736 0
M  V30 15095 H 1521.11 -4.29167 1.67785 0
M  V30 15096 H 1519.42 -3.93296 1.36776 0
M  V30 15097 H 1522.02 -5.2347 -1.09012 0
M  V30 15098 H 1522.36 -3.71477 -1.87911 0
M  V30 15099 H 1522.89 -3.97297 -0.200068 0
M  V30 15100 H 1519.63 -6.35011 1.62608 0
M  V30 15101 H 1519.15 -5.99779 -0.0498716 0
M  V30 15102 H 1520.83 -6.46202 0.321331 0
M  V30 15103 N 1520.96 -0.130252 -1.57061 0
M  V30 15104 C 1522.19 0.535707 -2.00362 0
M  V30 15105 C 1522.61 1.58712 -1.00956 0
M  V30 15106 O 1521.97 1.81292 0.0171546 0
M  V30 15107 C 1522.02 1.12836 -3.42491 0
M  V30 15108 O 1521.12 2.24367 -3.46025 0
M  V30 15109 H 1520.47 0.132735 -0.650598 0
M  V30 15110 H 1523 -0.222047 -2.03392 0
M  V30 15111 H 1523.01 1.46115 -3.80939 0
M  V30 15112 H 1521.68 0.358304 -4.14354 0
M  V30 15113 H 1520.26 1.92443 -3.19406 0
M  V30 15114 N 1522.44 1.56945 0.143535 0
M  V30 15115 C 1523.69 1.83176 0.853873 0
M  V30 15116 C 1524.01 0.71168 1.81549 0
M  V30 15117 O 1523.28 -0.266391 1.9408 0
M  V30 15118 H 1521.86 0.675785 0.318313 0
M  V30 15119 H 1524.52 1.9442 0.136712 0
M  V30 15120 H 1523.62 2.7823 1.41402 0
M  V30 15121 N 1523.92 -0.412991 1.52093 0
M  V30 15122 C 1524.85 -1.50986 1.78117 0
M  V30 15123 C 1525.83 -1.57925 0.631963 0
M  V30 15124 O 1527.02 -1.73261 0.877168 0
M  V30 15125 C 1524.15 -2.88846 1.92835 0
M  V30 15126 C 1523.1 -2.96759 3.08412 0
M  V30 15127 C 1522.43 -4.36837 3.08347 0
M  V30 15128 C 1523.73 -2.68599 4.47942 0
M  V30 15129 H 1525.42 -1.29459 2.69964 0
M  V30 15130 H 1522.97 -0.621348 1.29905 0
M  V30 15131 H 1524.92 -3.65563 2.09623 0
M  V30 15132 H 1523.64 -3.11658 0.976553 0
M  V30 15133 H 1522.3 -2.22487 2.91368 0
M  V30 15134 H 1521.95 -4.56652 2.10897 0
M  V30 15135 H 1521.65 -4.43056 3.85973 0
M  V30 15136 H 1523.18 -5.15493 3.2726 0
M  V30 15137 H 1524.59 -3.35039 4.65212 0
M  V30 15138 H 1522.99 -2.86199 5.27456 0
M  V30 15139 H 1524.06 -1.64058 4.56304 0
M  V30 15140 N 1525.4 -1.4265 -0.669982 0
M  V30 15141 C 1526.81 -1.38614 -1.25072 0
M  V30 15142 C 1527.16 -0.0818051 -1.96029 0
M  V30 15143 O 1526.29 0.81931 -2.0029 0
M  V30 15144 C 1526.88 -2.51085 -2.27469 0
M  V30 15145 C 1525.44 -2.50366 -2.81059 0
M  V30 15146 C 1524.59 -2.29632 -1.5545 0
M  V30 15147 H 1527.54 -1.51794 -0.463058 0
M  V30 15148 H 1527.56 -2.21612 -3.09303 0
M  V30 15149 H 1527.07 -3.46002 -1.75796 0
M  V30 15150 H 1525.17 -1.5928 -3.36839 0
M  V30 15151 H 1525.29 -3.47569 -3.29746 0
M  V30 15152 H 1523.65 -1.77982 -1.82193 0
M  V30 15153 H 1524.43 -3.26611 -1.05736 0
M  V30 15154 N 1526.88 0.906753 -1.28902 0
M  V30 15155 C 1528.1 1.69547 -1.19452 0
M  V30 15156 C 1528.53 1.86531 0.242418 0
M  V30 15157 O 1527.89 1.38052 1.17521 0
M  V30 15158 C 1527.93 3.06139 -1.90556 0
M  V30 15159 O 1527.04 3.9401 -1.21779 0
M  V30 15160 H 1526.38 0.518902 -0.41429 0
M  V30 15161 H 1528.91 1.13327 -1.70347 0
M  V30 15162 H 1528.92 3.56326 -1.98736 0
M  V30 15163 H 1527.59 2.93094 -2.95074 0
M  V30 15164 H 1526.17 3.52444 -1.2181 0
M  V30 15165 N 1528.36 1.11264 1.11616 0
M  V30 15166 C 1529.6 0.858664 1.82952 0
M  V30 15167 C 1529.92 -0.617439 1.84967 0
M  V30 15168 O 1529.19 -1.44849 1.31893 0
M  V30 15169 H 1527.77 0.314671 0.677489 0
M  V30 15170 H 1530.44 1.40466 1.35113 0
M  V30 15171 H 1529.53 1.22921 2.86874 0
M  V30 15172 N 1529.83 -1.29188 0.902679 0
M  V30 15173 C 1530.74 -2.3138 0.387363 0
M  V30 15174 C 1531.76 -1.66067 -0.519396 0
M  V30 15175 O 1532.94 -1.97219 -0.408257 0
M  V30 15176 C 1530 -3.44675 -0.374137 0
M  V30 15177 C 1529.06 -4.25572 0.564503 0
M  V30 15178 C 1528.29 -5.33458 -0.160748 0
M  V30 15179 O 1528.52 -5.53349 -1.38423 0
M  V30 15180 O 1527.45 -5.99834 0.498259 0
M  V30 15181 H 1531.28 -2.77444 1.23525 0
M  V30 15182 H 1528.86 -1.33679 0.667106 0
M  V30 15183 H 1530.74 -4.13647 -0.80464 0
M  V30 15184 H 1529.42 -3.00714 -1.19804 0
M  V30 15185 H 1528.33 -3.59232 1.04418 0
M  V30 15186 H 1529.66 -4.73184 1.3549 0
M  V30 15187 N 1531.31 -0.665475 -1.42861 0
M  V30 15188 C 1532.56 -0.184156 -2.01962 0
M  V30 15189 C 1532.89 1.20301 -1.52451 0
M  V30 15190 O 1532.17 1.80573 -0.722756 0
M  V30 15191 C 1532.45 -0.208497 -3.59496 0
M  V30 15192 C 1532.3 -1.63045 -4.19209 0
M  V30 15193 C 1533.62 0.448421 -4.3781 0
M  V30 15194 H 1530.74 -0.0683924 -0.73382 0
M  V30 15195 H 1533.38 -0.84849 -1.70002 0
M  V30 15196 H 1531.53 0.357179 -3.86855 0
M  V30 15197 H 1533.2 -2.24766 -4.02837 0
M  V30 15198 H 1531.45 -2.17401 -3.75392 0
M  V30 15199 H 1532.12 -1.59924 -5.28326 0
M  V30 15200 H 1534.59 -0.0330053 -4.16087 0
M  V30 15201 H 1533.47 0.400713 -5.47435 0
M  V30 15202 H 1533.73 1.52454 -4.14982 0
M  V30 15203 N 1532.79 1.52222 -0.408187 0
M  V30 15204 C 1533.72 2.29892 0.408868 0
M  V30 15205 C 1534.7 1.34063 1.04695 0
M  V30 15206 O 1535.89 1.6297 1.05615 0
M  V30 15207 C 1533.02 3.11964 1.52629 0
M  V30 15208 C 1531.97 4.15833 1.01326 0
M  V30 15209 C 1531.3 4.86244 2.2242 0
M  V30 15210 C 1532.6 5.22256 0.0679573 0
M  V30 15211 H 1534.29 2.98443 -0.23923 0
M  V30 15212 H 1531.84 1.43528 -0.116496 0
M  V30 15213 H 1533.79 3.65067 2.10486 0
M  V30 15214 H 1532.51 2.41181 2.20225 0
M  V30 15215 H 1531.17 3.63739 0.4571 0
M  V30 15216 H 1530.82 4.11991 2.88569 0
M  V30 15217 H 1530.52 5.56461 1.88746 0
M  V30 15218 H 1532.04 5.42159 2.80885 0
M  V30 15219 H 1533.46 5.70604 0.555295 0
M  V30 15220 H 1531.85 5.9983 -0.179934 0
M  V30 15221 H 1532.92 4.76892 -0.877599 0
M  V30 15222 N 1534.27 0.138579 1.5699 0
M  V30 15223 C 1535.18 -0.817548 2.19894 0
M  V30 15224 C 1536.19 -1.27806 1.18075 0
M  V30 15225 O 1537.37 -1.33699 1.5062 0
M  V30 15226 C 1534.43 -2.04244 2.80152 0
M  V30 15227 C 1533.5 -1.63197 3.97071 0
M  V30 15228 C 1532.73 -2.79847 4.54446 0
M  V30 15229 O 1532.95 -3.95827 4.10703 0
M  V30 15230 O 1531.89 -2.55804 5.44838 0
M  V30 15231 H 1535.71 -0.312123 3.02092 0
M  V30 15232 H 1533.3 -0.0880281 1.4914 0
M  V30 15233 H 1535.18 -2.75945 3.18485 0
M  V30 15234 H 1533.85 -2.53755 2.00973 0
M  V30 15235 H 1532.76 -0.885448 3.6347 0
M  V30 15236 H 1534.09 -1.1841 4.77745 0
M  V30 15237 N 1535.75 -1.57019 -0.13521 0
M  V30 15238 C 1536.97 -1.8816 -0.860434 0
M  V30 15239 C 1537.39 -0.728081 -1.74196 0
M  V30 15240 O 1536.75 0.301745 -1.79988 0
M  V30 15241 C 1536.8 -3.1864 -1.70737 0
M  V30 15242 O 1536.52 -4.29549 -0.861347 0
M  V30 15243 C 1538.02 -3.63376 -2.53915 0
M  V30 15244 H 1535.24 -0.623408 -0.248201 0
M  V30 15245 H 1537.78 -2.04121 -0.124461 0
M  V30 15246 H 1535.94 -3.04397 -2.39627 0
M  V30 15247 H 1536.35 -5.04233 -1.44393 0
M  V30 15248 H 1537.83 -4.57478 -3.08897 0
M  V30 15249 H 1538.3 -2.89238 -3.30512 0
M  V30 15250 H 1538.91 -3.80352 -1.90296 0
M  V30 15251 N 1537.22 0.404919 -1.52309 0
M  V30 15252 C 1538.45 1.17309 -1.70429 0
M  V30 15253 C 1538.87 1.84169 -0.415617 0
M  V30 15254 O 1538.22 1.7205 0.608693 0
M  V30 15255 C 1538.28 2.23306 -2.84282 0
M  V30 15256 O 1538 1.59176 -4.0816 0
M  V30 15257 C 1539.5 3.12972 -3.13948 0
M  V30 15258 H 1536.72 0.352348 -0.571045 0
M  V30 15259 H 1539.26 0.475851 -1.98887 0
M  V30 15260 H 1537.42 2.88693 -2.58332 0
M  V30 15261 H 1537.83 2.29481 -4.71634 0
M  V30 15262 H 1539.3 3.83411 -3.97115 0
M  V30 15263 H 1539.78 3.75582 -2.27672 0
M  V30 15264 H 1540.39 2.53251 -3.41678 0
M  V30 15265 N 1538.7 1.43003 0.662408 0
M  V30 15266 C 1539.67 1.4713 1.75743 0
M  V30 15267 C 1540.67 0.357203 1.56782 0
M  V30 15268 O 1541.86 0.618566 1.62848 0
M  V30 15269 C 1538.99 1.31499 3.14517 0
M  V30 15270 H 1540.18 2.44641 1.73467 0
M  V30 15271 H 1537.73 1.29633 0.873208 0
M  V30 15272 H 1538.47 0.349596 3.2241 0
M  V30 15273 H 1538.25 2.12253 3.29683 0
M  V30 15274 H 1539.74 1.37298 3.94384 0
M  V30 15275 N 1540.18 -0.899904 1.29381 0
M  V30 15276 C 1541.59 -1.46563 1.15655 0
M  V30 15277 C 1541.94 -1.94622 -0.248375 0
M  V30 15278 O 1541.07 -1.83698 -1.14386 0
M  V30 15279 C 1541.66 -2.66384 2.09344 0
M  V30 15280 C 1540.22 -3.19093 1.99641 0
M  V30 15281 C 1539.37 -1.91786 2.00283 0
M  V30 15282 H 1542.32 -0.711264 1.41869 0
M  V30 15283 H 1542.34 -3.42111 1.66554 0
M  V30 15284 H 1541.85 -2.31376 3.11587 0
M  V30 15285 H 1539.95 -3.58795 1.00485 0
M  V30 15286 H 1540.07 -3.83405 2.87293 0
M  V30 15287 H 1538.43 -2.09482 1.44878 0
M  V30 15288 H 1539.21 -1.59055 3.04231 0
M  V30 15289 N 1541.66 -1.11854 -1.11024 0
M  V30 15290 C 1542.91 -0.868355 -1.82494 0
M  V30 15291 C 1543.23 0.607622 -1.85292 0
M  V30 15292 O 1542.5 1.44147 -1.32659 0
M  V30 15293 H 1541.08 -0.31826 -0.67581 0
M  V30 15294 H 1543.74 -1.4118 -1.34366 0
M  V30 15295 H 1542.84 -1.24441 -2.86218 0
M  V30 15296 N 1543.14 1.28707 -0.909517 0
M  V30 15297 C 1544.38 1.95443 -0.541281 0
M  V30 15298 C 1544.72 1.71457 0.911934 0
M  V30 15299 O 1543.99 1.03312 1.64794 0
M  V30 15300 C 1544.27 3.50019 -0.846097 0
M  V30 15301 C 1544.13 3.83423 -2.35173 0
M  V30 15302 C 1545.45 4.3879 -0.339328 0
M  V30 15303 H 1542.56 0.709869 -0.198128 0
M  V30 15304 H 1545.21 1.52151 -1.13799 0
M  V30 15305 H 1543.36 3.87025 -0.338262 0
M  V30 15306 H 1545.03 3.5631 -2.92986 0
M  V30 15307 H 1543.27 3.30618 -2.80846 0
M  V30 15308 H 1543.94 4.91348 -2.51557 0
M  V30 15309 H 1546.42 4.08832 -0.774312 0
M  V30 15310 H 1545.29 5.45809 -0.581722 0
M  V30 15311 H 1545.56 4.35514 0.760244 0
M  V30 15312 N 1544.61 0.673042 1.42506 0
M  V30 15313 C 1545.52 -0.00648572 2.34599 0
M  V30 15314 C 1546.54 -0.790758 1.54994 0
M  V30 15315 O 1547.72 -0.733482 1.87569 0
M  V30 15316 C 1544.78 -0.94734 3.33506 0
M  V30 15317 C 1543.84 -0.157795 4.2901 0
M  V30 15318 C 1543.08 -1.05384 5.23192 0
M  V30 15319 O 1543.3 -2.29334 5.22266 0
M  V30 15320 O 1542.23 -0.515584 5.99688 0
M  V30 15321 H 1546.06 0.752059 2.94241 0
M  V30 15322 H 1543.64 0.433272 1.42979 0
M  V30 15323 H 1545.53 -1.4875 3.94273 0
M  V30 15324 H 1544.2 -1.68577 2.7634 0
M  V30 15325 H 1543.11 0.426426 3.71662 0
M  V30 15326 H 1544.44 0.54148 4.89212 0
M  V30 15327 N 1546.09 -1.52004 0.416254 0
M  V30 15328 C 1547.37 -1.94403 -0.216103 0
M  V30 15329 C 1547.75 -1.35362 -1.61989 0
M  V30 15330 O 1547.1 -0.532242 -2.22215 0
M  V30 15331 C 1547.31 -3.48336 -0.215225 0
M  V30 15332 C 1548.66 -4.22406 -0.431109 0
M  V30 15333 O 1549.68 -3.54982 -0.294271 0
M  V30 15334 O 1548.54 -5.4198 -0.70145 0
M  V30 15335 H 1545.63 -0.814838 -0.141306 0
M  V30 15336 H 1548.18 -1.62983 0.472712 0
M  V30 15337 H 1546.95 -3.83709 0.767004 0
M  V30 15338 H 1546.57 -3.86137 -0.947841 0
M  V30 15339 N 1547.57 -0.146903 -1.56914 0
M  V30 15340 C 1548.82 0.504195 -1.95297 0
M  V30 15341 C 1549.13 1.66019 -1.03426 0
M  V30 15342 O 1550.34 2.37591 -1.31388 0
M  V30 15343 C 1548.79 0.948348 -3.47181 0
M  V30 15344 C 1548.4 -0.18071 -4.47635 0
M  V30 15345 C 1550.15 1.56924 -3.9443 0
M  V30 15346 C 1548.05 0.281707 -5.90729 0
M  V30 15347 H 1546.98 0.192127 -0.729111 0
M  V30 15348 H 1549.63 -0.231232 -1.82037 0
M  V30 15349 H 1548.02 1.73903 -3.55772 0
M  V30 15350 H 1549.19 -0.957645 -4.50739 0
M  V30 15351 H 1547.51 -0.710007 -4.10302 0
M  V30 15352 H 1550.1 1.92684 -4.98776 0
M  V30 15353 H 1550.45 2.45816 -3.35976 0
M  V30 15354 H 1550.98 0.843456 -3.88755 0
M  V30 15355 H 1547.72 -0.571839 -6.53001 0
M  V30 15356 H 1547.24 1.02452 -5.90985 0
M  V30 15357 H 1548.92 0.733746 -6.42826 0
M  V30 15358 N 1549.05 1.57088 0.126881 0
M  V30 15359 C 1550.27 1.88984 0.854389 0
M  V30 15360 C 1550.7 0.738037 1.73016 0
M  V30 15361 O 1550.06 -0.311728 1.786 0
M  V30 15362 C 1550.1 3.19584 1.67028 0
M  V30 15363 O 1549.21 3.04935 2.77648 0
M  V30 15364 H 1548.55 0.620354 0.236763 0
M  V30 15365 H 1551.08 2.04295 0.111647 0
M  V30 15366 H 1551.09 3.52109 2.06115 0
M  V30 15367 H 1549.76 4.03012 1.02732 0
M  V30 15368 H 1548.34 2.83861 2.41821 0
M  V30 15369 N 1550.53 -0.396836 1.52522 0
M  V30 15370 C 1551.77 -1.14037 1.66853 0
M  V30 15371 C 1552.1 -1.90706 0.406987 0
M  V30 15372 O 1551.37 -1.87165 -0.578443 0
M  V30 15373 H 1549.95 -0.423967 0.615029 0
M  V30 15374 H 1552.61 -0.451042 1.89609 0
M  V30 15375 H 1551.7 -1.84763 2.51533 0
M  V30 15376 N 1552.01 -1.43353 -0.654814 0
M  V30 15377 C 1552.94 -1.51194 -1.7794 0
M  V30 15378 C 1553.92 -0.366747 -1.66099 0
M  V30 15379 O 1555.1 -0.58375 -1.85219 0
M  V30 15380 C 1552.23 -1.43298 -3.16359 0
M  V30 15381 C 1551.19 -2.5605 -3.42961 0
M  V30 15382 C 1550.51 -2.33208 -4.81163 0
M  V30 15383 C 1551.81 -3.98303 -3.37864 0
M  V30 15384 H 1553.51 -2.4532 -1.71635 0
M  V30 15385 H 1551.05 -1.18072 -0.824319 0
M  V30 15386 H 1553 -1.47388 -3.94784 0
M  V30 15387 H 1551.73 -0.456761 -3.2339 0
M  V30 15388 H 1550.39 -2.5131 -2.66906 0
M  V30 15389 H 1550.04 -1.33833 -4.84869 0
M  V30 15390 H 1549.74 -3.08789 -4.99923 0
M  V30 15391 H 1551.26 -2.39079 -5.61848 0
M  V30 15392 H 1552.67 -4.04538 -4.06229 0
M  V30 15393 H 1551.07 -4.73897 -3.6816 0
M  V30 15394 H 1552.14 -4.23552 -2.36075 0
M  V30 15395 N 1553.48 0.89303 -1.29857 0
M  V30 15396 C 1554.89 1.45948 -1.16431 0
M  V30 15397 C 1555.25 1.94751 0.238051 0
M  V30 15398 O 1554.37 1.84302 1.1341 0
M  V30 15399 C 1554.97 2.6527 -2.10754 0
M  V30 15400 C 1553.52 3.1803 -2.0133 0
M  V30 15401 C 1552.67 1.90721 -2.01297 0
M  V30 15402 H 1555.62 0.70373 -1.42244 0
M  V30 15403 H 1555.64 3.41223 -1.68366 0
M  V30 15404 H 1555.16 2.2972 -3.1281 0
M  V30 15405 H 1553.26 3.58257 -1.02386 0
M  V30 15406 H 1553.37 3.81876 -2.89323 0
M  V30 15407 H 1551.73 2.0871 -1.45987 0
M  V30 15408 H 1552.52 1.5744 -3.0507 0
M  V30 15409 N 1554.96 1.12442 1.10429 0
M  V30 15410 C 1556.19 0.902914 1.86714 0
M  V30 15411 C 1556.61 -0.542514 1.80107 0
M  V30 15412 O 1555.97 -1.38406 1.17105 0
M  V30 15413 C 1556.02 1.38238 3.33051 0
M  V30 15414 O 1555.12 0.560877 4.08568 0
M  V30 15415 H 1554.46 0.324397 0.579364 0
M  V30 15416 H 1556.99 1.49652 1.39519 0
M  V30 15417 H 1557 1.38148 3.839 0
M  V30 15418 H 1555.68 2.43486 3.37176 0
M  V30 15419 H 1554.25 0.628771 3.67561 0
M  V30 15420 N 1556.44 -1.28223 0.91633 0
M  V30 15421 C 1557.69 -1.9448 0.549734 0
M  V30 15422 C 1558.01 -1.72465 -0.909999 0
M  V30 15423 O 1557.28 -1.06583 -1.64368 0
M  V30 15424 H 1555.86 -0.719641 0.200315 0
M  V30 15425 H 1558.52 -1.56156 1.16625 0
M  V30 15426 H 1557.62 -3.03044 0.746363 0
M  V30 15427 N 1557.92 -0.68059 -1.42147 0
M  V30 15428 C 1558.83 -0.00595573 -2.34599 0
M  V30 15429 C 1559.84 0.782528 -1.55411 0
M  V30 15430 O 1561.02 0.723524 -1.87955 0
M  V30 15431 C 1558.08 0.92964 -3.34004 0
M  V30 15432 C 1557.15 0.135041 -4.29088 0
M  V30 15433 C 1556.38 1.02607 -5.23744 0
M  V30 15434 O 1556.6 2.26562 -5.23475 0
M  V30 15435 O 1555.54 0.483774 -5.99953 0
M  V30 15436 H 1559.36 -0.767652 -2.93838 0
M  V30 15437 H 1556.95 -0.440849 -1.42748 0
M  V30 15438 H 1558.83 1.46657 -3.95057 0
M  V30 15439 H 1557.5 1.67109 -2.7723 0
M  V30 15440 H 1556.41 -0.44613 -3.7143 0
M  V30 15441 H 1557.74 -0.567417 -4.88918 0
M  V30 15442 N 1559.4 1.51781 -0.424309 0
M  V30 15443 C 1560.64 2.02269 0.146709 0
M  V30 15444 C 1560.97 1.30859 1.4349 0
M  V30 15445 O 1560.25 0.419504 1.89922 0
M  V30 15446 C 1560.53 3.58101 0.378861 0
M  V30 15447 C 1560.39 4.40143 -0.92707 0
M  V30 15448 C 1561.7 4.2469 1.15438 0
M  V30 15449 H 1558.82 0.735174 0.0518456 0
M  V30 15450 H 1561.47 1.81537 -0.560753 0
M  V30 15451 H 1559.62 3.75897 0.981496 0
M  V30 15452 H 1561.29 4.34025 -1.56268 0
M  V30 15453 H 1559.53 4.05748 -1.53464 0
M  V30 15454 H 1560.2 5.47299 -0.718837 0
M  V30 15455 H 1562.68 4.11086 0.644041 0
M  V30 15456 H 1561.55 5.33633 1.28557 0
M  V30 15457 H 1561.81 3.84668 2.17905 0
M  V30 15458 N 1560.87 0.155222 1.56834 0
M  V30 15459 C 1561.8 -0.777258 2.20184 0
M  V30 15460 C 1562.78 -1.25102 1.15254 0
M  V30 15461 O 1563.97 -1.3071 1.43627 0
M  V30 15462 C 1561.1 -2.01326 2.82993 0
M  V30 15463 C 1560.05 -1.67596 3.93822 0
M  V30 15464 C 1559.38 -2.98529 4.43604 0
M  V30 15465 C 1560.68 -0.916302 5.142 0
M  V30 15466 H 1562.37 -0.249257 2.98361 0
M  V30 15467 H 1559.92 -0.118448 1.43512 0
M  V30 15468 H 1561.87 -2.67048 3.2598 0
M  V30 15469 H 1560.6 -2.56513 2.0216 0
M  V30 15470 H 1559.26 -1.0425 3.51465 0
M  V30 15471 H 1558.9 -3.51723 3.59583 0
M  V30 15472 H 1558.6 -2.76721 5.18362 0
M  V30 15473 H 1560.13 -3.65308 4.89267 0
M  V30 15474 H 1561.54 -1.47577 5.5398 0
M  V30 15475 H 1559.94 -0.797856 5.94772 0
M  V30 15476 H 1561.01 0.0904351 4.84816 0
M  V30 15477 N 1562.35 -1.57153 -0.118549 0
M  V30 15478 C 1563.26 -2.03673 -1.16424 0
M  V30 15479 C 1564.28 -0.957203 -1.45305 0
M  V30 15480 O 1565.45 -1.26874 -1.56413 0
M  V30 15481 C 1562.52 -2.43211 -2.47082 0
M  V30 15482 C 1561.58 -3.65248 -2.25593 0
M  V30 15483 C 1560.81 -4.02891 -3.50021 0
M  V30 15484 O 1561.04 -3.40871 -4.57344 0
M  V30 15485 O 1559.97 -4.95989 -3.40996 0
M  V30 15486 H 1563.8 -2.92996 -0.799206 0
M  V30 15487 H 1561.38 -1.45724 -0.329376 0
M  V30 15488 H 1563.26 -2.69374 -3.24061 0
M  V30 15489 H 1561.94 -1.57034 -2.83058 0
M  V30 15490 H 1560.84 -3.44234 -1.46471 0
M  V30 15491 H 1562.18 -4.52131 -1.94521 0
M  V30 15492 N 1563.83 0.388742 -1.5273 0
M  V30 15493 C 1565.06 1.15495 -1.71664 0
M  V30 15494 C 1565.47 1.83717 -0.435127 0
M  V30 15495 O 1564.83 1.72686 0.590411 0
M  V30 15496 C 1564.88 2.20279 -2.86635 0
M  V30 15497 O 1564.6 1.54838 -4.09825 0
M  V30 15498 C 1566.1 3.09625 -3.1725 0
M  V30 15499 H 1563.32 0.346271 -0.57475 0
M  V30 15500 H 1565.87 0.454729 -1.9938 0
M  V30 15501 H 1564.02 2.85936 -2.61379 0
M  V30 15502 H 1564.44 2.24466 -4.74042 0
M  V30 15503 H 1565.91 3.79177 -4.01159 0
M  V30 15504 H 1566.39 3.73147 -2.31643 0
M  V30 15505 H 1566.99 2.49612 -3.44345 0
M  V30 15506 N 1565.31 1.43698 0.647203 0
M  V30 15507 C 1566.54 1.49085 1.43462 0
M  V30 15508 C 1566.95 0.110605 1.88476 0
M  V30 15509 O 1566.31 -0.880365 1.59862 0
M  V30 15510 C 1566.36 2.44186 2.66562 0
M  V30 15511 O 1566.08 3.76844 2.23429 0
M  V30 15512 C 1567.58 2.58876 3.59858 0
M  V30 15513 H 1564.8 0.506148 0.440517 0
M  V30 15514 H 1567.34 1.88502 0.792931 0
M  V30 15515 H 1565.5 2.07949 3.26858 0
M  V30 15516 H 1565.91 4.2804 3.0312 0
M  V30 15517 H 1567.39 3.29482 4.42883 0
M  V30 15518 H 1567.86 1.63567 4.07606 0
M  V30 15519 H 1568.47 2.95949 3.05441 0
M  V30 15520 N 1566.79 -0.886131 1.30328 0
M  V30 15521 C 1567.75 -1.97328 1.16594 0
M  V30 15522 C 1568.75 -1.60504 0.0975023 0
M  V30 15523 O 1569.94 -1.70739 0.345524 0
M  V30 15524 C 1567.07 -3.31714 0.786045 0
M  V30 15525 H 1568.26 -2.1094 2.13177 0
M  V30 15526 H 1565.82 -1.07238 1.13708 0
M  V30 15527 H 1566.55 -3.23804 -0.179334 0
M  V30 15528 H 1566.34 -3.5981 1.55817 0
M  V30 15529 H 1567.83 -4.11461 0.71339 0
M  V30 15530 N 1568.26 -1.13026 -1.09832 0
M  V30 15531 C 1569.68 -0.902826 -1.6342 0
M  V30 15532 C 1570.03 0.561547 -1.87992 0
M  V30 15533 O 1569.15 1.42735 -1.62652 0
M  V30 15534 C 1569.75 -1.6324 -2.96881 0
M  V30 15535 C 1568.31 -1.45095 -3.4731 0
M  V30 15536 C 1567.45 -1.66431 -2.21802 0
M  V30 15537 H 1570.4 -1.28414 -0.932492 0
M  V30 15538 H 1570.42 -1.08706 -3.64641 0
M  V30 15539 H 1569.94 -2.69816 -2.78964 0
M  V30 15540 H 1568.04 -0.408031 -3.70359 0
M  V30 15541 H 1568.15 -2.21123 -4.25019 0
M  V30 15542 H 1566.51 -1.08885 -2.30252 0
M  V30 15543 H 1567.3 -2.74317 -2.0641 0
M  V30 15544 N 1569.74 1.27735 -0.923117 0
M  V30 15545 C 1570.99 1.94185 -0.56004 0
M  V30 15546 C 1571.31 1.72945 0.90084 0
M  V30 15547 O 1570.58 1.07453 1.63801 0
M  V30 15548 H 1569.16 0.718568 -0.204129 0
M  V30 15549 H 1571.82 1.55535 -1.17451 0
M  V30 15550 H 1570.92 3.02644 -0.762424 0
M  V30 15551 N 1571.22 0.688118 1.41784 0
M  V30 15552 C 1572.47 0.216263 2.01644 0
M  V30 15553 C 1572.8 -1.17861 1.54345 0
M  V30 15554 O 1572.07 -1.794 0.751392 0
M  V30 15555 C 1572.36 0.265663 3.59119 0
M  V30 15556 C 1572.21 1.69694 4.16562 0
M  V30 15557 C 1573.53 -0.378713 4.38468 0
M  V30 15558 H 1570.65 0.0800582 0.732639 0
M  V30 15559 H 1573.29 0.875428 1.68631 0
M  V30 15560 H 1571.44 -0.295588 3.87374 0
M  V30 15561 H 1573.11 2.31146 3.9921 0
M  V30 15562 H 1571.36 2.23345 3.71886 0
M  V30 15563 H 1572.03 1.68309 5.25715 0
M  V30 15564 H 1574.5 0.0991969 4.15982 0
M  V30 15565 H 1573.38 -0.31357 5.48004 0
M  V30 15566 H 1573.64 -1.45832 4.17355 0
M  V30 15567 N 1572.7 -1.51554 0.432352 0
M  V30 15568 C 1573.61 -2.31371 -0.387885 0
M  V30 15569 C 1574.62 -1.40072 -1.03227 0
M  V30 15570 O 1575.8 -1.73145 -1.02873 0
M  V30 15571 C 1572.87 -3.13662 -1.47705 0
M  V30 15572 C 1571.93 -4.20734 -0.853315 0
M  V30 15573 C 1571.16 -4.99092 -1.89058 0
M  V30 15574 O 1571.38 -4.78022 -3.11209 0
M  V30 15575 O 1570.32 -5.83322 -1.48389 0
M  V30 15576 H 1574.14 -3.02554 0.263578 0
M  V30 15577 H 1571.73 -1.48122 0.195004 0
M  V30 15578 H 1573.61 -3.64837 -2.10884 0
M  V30 15579 H 1572.28 -2.45249 -2.11269 0
M  V30 15580 H 1571.19 -3.73649 -0.183616 0
M  V30 15581 H 1572.52 -4.91506 -0.261244 0
M  V30 15582 N 1574.18 -0.163538 -1.56749 0
M  V30 15583 C 1575.45 0.529349 -1.88301 0
M  V30 15584 C 1575.83 1.81844 -1.07219 0
M  V30 15585 O 1575.18 2.27912 -0.16381 0
M  V30 15586 C 1575.39 0.778796 -3.402 0
M  V30 15587 C 1576.74 1.11225 -4.09773 0
M  V30 15588 O 1577.76 0.867598 -3.45472 0
M  V30 15589 O 1576.62 1.57344 -5.2336 0
M  V30 15590 H 1573.72 0.271928 -0.781015 0
M  V30 15591 H 1576.26 -0.20139 -1.68501 0
M  V30 15592 H 1575.03 -0.132839 -3.91074 0
M  V30 15593 H 1574.66 1.56313 -3.65584 0
M  V30 15594 N 1575.65 1.57214 0.110213 0
M  V30 15595 C 1576.9 1.84498 0.815059 0
M  V30 15596 C 1577.22 0.750531 1.80628 0
M  V30 15597 O 1578.42 0.910042 2.55794 0
M  V30 15598 C 1576.88 3.27138 1.50028 0
M  V30 15599 C 1576.49 4.44616 0.549603 0
M  V30 15600 C 1578.23 3.63662 2.18975 0
M  V30 15601 C 1576.14 5.78285 1.23855 0
M  V30 15602 H 1575.07 0.688165 0.308132 0
M  V30 15603 H 1577.72 1.83374 0.0678595 0
M  V30 15604 H 1576.1 3.22758 2.29441 0
M  V30 15605 H 1577.27 4.60312 -0.211944 0
M  V30 15606 H 1575.59 4.16387 -0.0333571 0
M  V30 15607 H 1578.19 4.60804 2.71226 0
M  V30 15608 H 1578.53 2.91532 2.97178 0
M  V30 15609 H 1579.06 3.69865 1.46439 0
M  V30 15610 H 1575.8 6.53608 0.497629 0
M  V30 15611 H 1575.32 5.66459 1.9719 0
M  V30 15612 H 1577 6.22338 1.76929 0
M  V30 15613 N 1577.13 -0.380637 1.52934 0
M  V30 15614 C 1578.36 -1.15033 1.72575 0
M  V30 15615 C 1578.78 -1.82715 0.446869 0
M  V30 15616 O 1578.14 -1.71154 -0.598004 0
M  V30 15617 C 1578.19 -2.16773 2.8817 0
M  V30 15618 O 1577.29 -3.23539 2.55727 0
M  V30 15619 H 1576.63 -0.334489 0.573597 0
M  V30 15620 H 1579.16 -0.442369 1.9976 0
M  V30 15621 H 1579.17 -2.60629 3.13905 0
M  V30 15622 H 1577.85 -1.669 3.80943 0
M  V30 15623 H 1576.43 -2.84761 2.4076 0
M  V30 15624 N 1578.61 -1.44039 -0.639573 0
M  V30 15625 C 1579.86 -1.46088 -1.39652 0
M  V30 15626 C 1580.18 -0.0914602 -1.94785 0
M  V30 15627 O 1579.45 0.875097 -1.75268 0
M  V30 15628 H 1578.03 -0.537901 -0.518335 0
M  V30 15629 H 1580.69 -1.79751 -0.753365 0
M  V30 15630 H 1579.79 -2.1814 -2.23207 0
M  V30 15631 N 1580.09 0.879207 -1.30796 0
M  V30 15632 C 1581.02 2.00158 -1.20246 0
M  V30 15633 C 1582 1.69852 -0.091769 0
M  V30 15634 O 1583.18 1.92246 -0.274792 0
M  V30 15635 C 1580.31 3.3545 -0.899472 0
M  V30 15636 C 1579.27 3.80033 -1.96873 0
M  V30 15637 C 1578.59 5.12681 -1.51861 0
M  V30 15638 C 1579.89 3.98136 -3.38061 0
M  V30 15639 H 1581.59 2.09242 -2.14145 0
M  V30 15640 H 1579.13 1.00535 -1.03096 0
M  V30 15641 H 1581.09 4.13497 -0.812299 0
M  V30 15642 H 1579.81 3.26513 0.075189 0
M  V30 15643 H 1578.47 3.04219 -2.04564 0
M  V30 15644 H 1578.12 5.00178 -0.532063 0
M  V30 15645 H 1577.82 5.43482 -2.23386 0
M  V30 15646 H 1579.34 5.93247 -1.44534 0
M  V30 15647 H 1580.76 4.66604 -3.33096 0
M  V30 15648 H 1579.15 4.40321 -4.07722 0
M  V30 15649 H 1580.22 3.01807 -3.79526 0
M  V30 15650 N 1581.57 1.13606 1.09231 0
M  V30 15651 C 1582.98 0.91148 1.62938 0
M  V30 15652 C 1583.33 -0.55157 1.88287 0
M  V30 15653 O 1582.45 -1.4187 1.63407 0
M  V30 15654 C 1583.05 1.64812 2.96011 0
M  V30 15655 C 1581.61 1.46935 3.46536 0
M  V30 15656 C 1580.76 1.67605 2.20916 0
M  V30 15657 H 1583.71 1.28907 0.925669 0
M  V30 15658 H 1583.73 1.10638 3.6406 0
M  V30 15659 H 1583.24 2.71291 2.77529 0
M  V30 15660 H 1581.34 0.427667 3.70138 0
M  V30 15661 H 1581.45 2.23374 4.2384 0
M  V30 15662 H 1579.82 1.10105 2.29672 0
M  V30 15663 H 1580.6 2.75408 2.04952 0
M  V30 15664 N 1583.05 -1.27244 0.929878 0
M  V30 15665 C 1584.27 -1.98912 0.587277 0
M  V30 15666 C 1584.7 -1.68888 -0.828168 0
M  V30 15667 O 1584.05 -0.930394 -1.55606 0
M  V30 15668 C 1584.1 -3.51097 0.822399 0
M  V30 15669 O 1583.21 -4.12251 -0.110968 0
M  V30 15670 H 1582.55 -0.624404 0.225867 0
M  V30 15671 H 1585.08 -1.61997 1.24973 0
M  V30 15672 H 1585.09 -4.01255 0.738824 0
M  V30 15673 H 1583.76 -3.72282 1.85416 0
M  V30 15674 H 1582.34 -3.72893 0.0227053 0
M  V30 15675 N 1584.52 -0.695628 -1.41417 0
M  V30 15676 C 1585.77 -0.226171 -2.0083 0
M  V30 15677 C 1586.09 1.17833 -1.55371 0
M  V30 15678 O 1585.36 1.79512 -0.784362 0
M  V30 15679 H 1583.94 -0.0806271 -0.742636 0
M  V30 15680 H 1586.6 -0.8968 -1.73042 0
M  V30 15681 H 1585.7 -0.243643 -3.11148 0
M  V30 15682 N 1586 1.51322 -0.440383 0
M  V30 15683 C 1586.91 2.31574 0.37561 0
M  V30 15684 C 1587.93 1.40617 1.02483 0
M  V30 15685 O 1589.1 1.73688 1.01953 0
M  V30 15686 C 1586.17 3.14441 1.4604 0
M  V30 15687 C 1585.23 4.21181 0.830991 0
M  V30 15688 C 1584.46 5.00087 1.86409 0
M  V30 15689 O 1584.69 4.79666 3.08669 0
M  V30 15690 O 1583.62 5.84101 1.45293 0
M  V30 15691 H 1587.45 3.0241 -0.27962 0
M  V30 15692 H 1585.03 1.48016 -0.202857 0
M  V30 15693 H 1586.91 3.6595 2.08946 0
M  V30 15694 H 1585.59 2.46366 2.09965 0
M  V30 15695 H 1584.49 3.73741 0.163798 0
M  V30 15696 H 1585.83 4.91638 0.235174 0
M  V30 15697 N 1587.48 0.171848 1.5666 0
M  V30 15698 C 1588.73 -0.473669 1.97191 0
M  V30 15699 C 1589.06 -1.6286 1.05784 0
M  V30 15700 O 1588.33 -1.94216 0.105084 0
M  V30 15701 C 1588.62 -0.956134 3.47174 0
M  V30 15702 C 1588.47 0.199007 4.4936 0
M  V30 15703 C 1589.79 -1.82962 4.00266 0
M  V30 15704 H 1586.91 -0.170704 0.716958 0
M  V30 15705 H 1589.55 0.25809 1.88239 0
M  V30 15706 H 1587.7 -1.57969 3.54934 0
M  V30 15707 H 1589.37 0.836109 4.53659 0
M  V30 15708 H 1587.61 0.85442 4.25302 0
M  V30 15709 H 1588.29 -0.180704 5.51704 0
M  V30 15710 H 1590.76 -1.30394 3.95141 0
M  V30 15711 H 1589.64 -2.13621 5.05625 0
M  V30 15712 H 1589.9 -2.77557 3.44114 0
M  V30 15713 N 1588.96 -1.5727 -0.101874 0
M  V30 15714 C 1589.89 -2.04614 -1.12496 0
M  V30 15715 C 1590.87 -0.933768 -1.42179 0
M  V30 15716 O 1592.05 -1.2046 -1.52325 0
M  V30 15717 C 1589.18 -2.46488 -2.44665 0
M  V30 15718 C 1588.14 -3.61327 -2.29406 0
M  V30 15719 C 1587.46 -3.89155 -3.66691 0
M  V30 15720 C 1588.76 -4.92455 -1.74026 0
M  V30 15721 H 1590.46 -2.90336 -0.731109 0
M  V30 15722 H 1588 -1.39676 -0.350239 0
M  V30 15723 H 1589.96 -2.78216 -3.16502 0
M  V30 15724 H 1588.68 -1.57757 -2.85972 0
M  V30 15725 H 1587.34 -3.29835 -1.60015 0
M  V30 15726 H 1586.99 -2.97603 -4.05514 0
M  V30 15727 H 1586.69 -4.66465 -3.57329 0
M  V30 15728 H 1588.21 -4.23352 -4.40006 0
M  V30 15729 H 1589.63 -5.22609 -2.35697 0
M  V30 15730 H 1588.02 -5.73882 -1.75441 0
M  V30 15731 H 1589.09 -4.79833 -0.699136 0
M  V30 15732 N 1590.44 0.372521 -1.53134 0
M  V30 15733 C 1591.35 1.47994 -1.8203 0
M  V30 15734 C 1592.36 1.58937 -0.708179 0
M  V30 15735 O 1593.54 1.74962 -0.997511 0
M  V30 15736 C 1590.6 2.83342 -1.99796 0
M  V30 15737 C 1589.66 2.81984 -3.23702 0
M  V30 15738 C 1588.9 4.10877 -3.40611 0
M  V30 15739 O 1589.12 5.06686 -2.61964 0
M  V30 15740 O 1588.05 4.17111 -4.33938 0
M  V30 15741 H 1591.88 1.26501 -2.761 0
M  V30 15742 H 1589.46 0.561957 -1.38428 0
M  V30 15743 H 1591.35 3.63551 -2.13092 0
M  V30 15744 H 1590.02 3.04826 -1.08916 0
M  V30 15745 H 1588.93 2.00498 -3.15834 0
M  V30 15746 H 1590.26 2.65453 -4.14482 0
M  V30 15747 N 1591.91 1.44376 0.631925 0
M  V30 15748 C 1593.14 1.50598 1.41873 0
M  V30 15749 C 1593.56 0.130589 1.88348 0
M  V30 15750 O 1592.91 -0.86336 1.60787 0
M  V30 15751 C 1592.96 2.47 2.63957 0
M  V30 15752 O 1592.69 3.79192 2.1942 0
M  V30 15753 C 1594.19 2.62678 3.57092 0
M  V30 15754 H 1591.41 0.510792 0.435124 0
M  V30 15755 H 1593.95 1.89332 0.772893 0
M  V30 15756 H 1592.11 2.11404 3.24634 0
M  V30 15757 H 1592.52 4.31231 2.98563 0
M  V30 15758 H 1593.99 3.34161 4.39364 0
M  V30 15759 H 1594.47 1.67881 4.05848 0
M  V30 15760 H 1595.08 2.99172 3.02285 0
M  V30 15761 N 1593.39 -0.872258 1.31261 0
M  V30 15762 C 1594.35 -1.96081 1.1868 0
M  V30 15763 C 1595.35 -1.60392 0.11452 0
M  V30 15764 O 1596.54 -1.70363 0.363613 0
M  V30 15765 C 1593.68 -3.30862 0.821183 0
M  V30 15766 H 1594.87 -2.08667 2.15402 0
M  V30 15767 H 1592.42 -1.06026 1.14839 0
M  V30 15768 H 1593.16 -3.23976 -0.14498 0
M  V30 15769 H 1592.94 -3.58137 1.59625 0
M  V30 15770 H 1594.43 -4.10682 0.756991 0
M  V30 15771 N 1594.87 -1.14184 -1.08627 0
M  V30 15772 C 1595.83 -0.82954 -2.13662 0
M  V30 15773 C 1596.83 0.164794 -1.59953 0
M  V30 15774 O 1598.02 -0.0632831 -1.74085 0
M  V30 15775 C 1595.15 -0.236176 -3.40081 0
M  V30 15776 H 1596.35 -1.76038 -2.42797 0
M  V30 15777 H 1593.9 -0.947568 -1.24301 0
M  V30 15778 H 1594.64 0.70349 -3.16578 0
M  V30 15779 H 1594.42 -0.952341 -3.80359 0
M  V30 15780 H 1595.91 -0.03481 -4.17585 0
M  V30 15781 N 1596.35 1.26749 -0.936613 0
M  V30 15782 C 1597.76 1.75925 -0.62507 0
M  V30 15783 C 1598.11 1.76359 0.859771 0
M  V30 15784 O 1597.24 1.37277 1.67284 0
M  V30 15785 C 1597.83 3.19474 -1.12791 0
M  V30 15786 C 1596.39 3.66282 -0.866872 0
M  V30 15787 C 1595.54 2.45913 -1.28148 0
M  V30 15788 H 1598.49 1.1289 -1.11542 0
M  V30 15789 H 1598.51 3.77465 -0.479643 0
M  V30 15790 H 1598.02 3.19126 -2.20862 0
M  V30 15791 H 1596.12 3.72065 0.199647 0
M  V30 15792 H 1596.23 4.55319 -1.49067 0
M  V30 15793 H 1594.6 2.44894 -0.699941 0
M  V30 15794 H 1595.38 2.4827 -2.37101 0
M  V30 15795 N 1597.83 0.703118 1.41046 0
M  V30 15796 C 1599.07 0.236818 2.00708 0
M  V30 15797 C 1599.4 -1.17008 1.55994 0
M  V30 15798 O 1598.67 -1.79094 0.793871 0
M  V30 15799 H 1597.25 0.0845643 0.742198 0
M  V30 15800 H 1599.91 0.905964 1.72564 0
M  V30 15801 H 1599 0.260141 3.11014 0
M  V30 15802 N 1599.3 -1.51086 0.448402 0
M  V30 15803 C 1600.55 -2.02476 -0.114511 0
M  V30 15804 C 1600.88 -1.33126 -1.4139 0
M  V30 15805 O 1600.16 -0.449665 -1.89231 0
M  V30 15806 C 1600.44 -3.58659 -0.321842 0
M  V30 15807 C 1600.29 -4.38612 0.996975 0
M  V30 15808 C 1601.61 -4.26473 -1.08667 0
M  V30 15809 H 1598.73 -0.735906 -0.0401431 0
M  V30 15810 H 1601.37 -1.80622 0.589563 0
M  V30 15811 H 1599.52 -3.77411 -0.92157 0
M  V30 15812 H 1601.2 -4.31484 1.63154 0
M  V30 15813 H 1599.44 -4.03255 1.599 0
M  V30 15814 H 1600.11 -5.46087 0.805817 0
M  V30 15815 H 1602.59 -4.12058 -0.578559 0
M  V30 15816 H 1601.46 -5.35611 -1.20051 0
M  V30 15817 H 1601.72 -3.88086 -2.11758 0
M  V30 15818 N 1600.78 -0.180154 -1.56567 0
M  V30 15819 C 1601.69 0.758959 -2.21984 0
M  V30 15820 C 1602.71 1.24631 -1.21422 0
M  V30 15821 O 1603.88 1.29659 -1.54112 0
M  V30 15822 C 1600.95 1.96744 -2.85469 0
M  V30 15823 C 1600.01 1.52612 -4.01258 0
M  V30 15824 C 1599.24 2.677 -4.61706 0
M  V30 15825 O 1599.47 3.84799 -4.21054 0
M  V30 15826 O 1598.4 2.41269 -5.51428 0
M  V30 15827 H 1602.23 0.231919 -3.02813 0
M  V30 15828 H 1599.81 0.0484552 -1.49321 0
M  V30 15829 H 1601.69 2.67404 -3.25689 0
M  V30 15830 H 1600.37 2.48337 -2.0763 0
M  V30 15831 H 1599.28 0.78877 -3.6569 0
M  V30 15832 H 1600.61 1.05701 -4.80716 0
M  V30 15833 N 1602.26 1.57322 0.0935319 0
M  V30 15834 C 1603.54 1.77187 0.828503 0
M  V30 15835 C 1603.92 0.762216 1.96859 0
M  V30 15836 O 1603.27 -0.208982 2.27542 0
M  V30 15837 C 1603.48 3.23007 1.32163 0
M  V30 15838 C 1604.82 3.86233 1.76379 0
M  V30 15839 O 1605.85 3.26766 1.41783 0
M  V30 15840 O 1604.71 4.90808 2.40354 0
M  V30 15841 H 1601.8 0.726401 0.395311 0
M  V30 15842 H 1604.35 1.69533 0.0752924 0
M  V30 15843 H 1603.12 3.88029 0.504863 0
M  V30 15844 H 1602.74 3.353 2.13681 0
M  V30 15845 N 1603.74 -0.364395 1.53329 0
M  V30 15846 C 1604.99 -1.10423 1.68789 0
M  V30 15847 C 1605.3 -1.90428 0.446819 0
M  V30 15848 O 1606.51 -2.67188 0.481978 0
M  V30 15849 C 1604.96 -2.01228 2.98388 0
M  V30 15850 C 1604.57 -1.26529 4.29761 0
M  V30 15851 C 1606.31 -2.75196 3.23214 0
M  V30 15852 C 1604.22 -2.16243 5.50448 0
M  V30 15853 H 1603.15 -0.415935 0.628899 0
M  V30 15854 H 1605.8 -0.365145 1.7983 0
M  V30 15855 H 1604.18 -2.78872 2.81152 0
M  V30 15856 H 1605.36 -0.5394 4.57632 0
M  V30 15857 H 1603.67 -0.644181 4.11387 0
M  V30 15858 H 1606.27 -3.42548 4.10567 0
M  V30 15859 H 1606.61 -3.40629 2.39327 0
M  V30 15860 H 1607.15 -2.04635 3.4113 0
M  V30 15861 H 1603.89 -1.55385 6.36817 0
M  V30 15862 H 1603.41 -2.86678 5.26855 0
M  V30 15863 H 1605.08 -2.75774 5.85284 0
M  V30 15864 N 1605.22 -1.44709 -0.62426 0
M  V30 15865 C 1606.44 -1.51573 -1.41564 0
M  V30 15866 C 1606.87 -0.143806 -1.87549 0
M  V30 15867 O 1606.22 0.868361 -1.59151 0
M  V30 15868 C 1606.27 -2.49085 -2.60747 0
M  V30 15869 O 1605.38 -1.99712 -3.60817 0
M  V30 15870 H 1604.72 -0.51157 -0.423311 0
M  V30 15871 H 1607.25 -1.89908 -0.761316 0
M  V30 15872 H 1607.26 -2.67346 -3.08205 0
M  V30 15873 H 1605.93 -3.48733 -2.26624 0
M  V30 15874 H 1604.51 -1.9125 -3.20122 0
M  V30 15875 N 1606.69 0.865285 -1.31722 0
M  V30 15876 C 1607.94 1.61549 -1.21435 0
M  V30 15877 C 1608.26 1.9368 0.226501 0
M  V30 15878 O 1607.53 1.58705 1.14846 0
M  V30 15879 H 1606.11 0.598905 -0.446454 0
M  V30 15880 H 1608.78 1.03563 -1.65108 0
M  V30 15881 H 1607.87 2.55708 -1.78941 0
M  V30 15882 N 1608.17 1.14759 1.0802 0
M  V30 15883 C 1609.1 0.860977 2.17047 0
M  V30 15884 C 1610.08 -0.185652 1.69084 0
M  V30 15885 O 1611.27 -0.0414797 1.94156 0
M  V30 15886 C 1608.4 0.342018 3.45612 0
M  V30 15887 C 1607.35 1.32455 4.06989 0
M  V30 15888 C 1606.68 0.664721 5.30552 0
M  V30 15889 C 1607.98 2.68819 4.4781 0
M  V30 15890 H 1609.67 1.77269 2.4128 0
M  V30 15891 H 1607.22 0.853757 1.15961 0
M  V30 15892 H 1609.17 0.129093 4.21202 0
M  V30 15893 H 1607.9 -0.605138 3.20945 0
M  V30 15894 H 1606.55 1.52371 3.33435 0
M  V30 15895 H 1606.2 -0.288367 5.02173 0
M  V30 15896 H 1605.9 1.32036 5.72573 0
M  V30 15897 H 1607.43 0.461412 6.08854 0
M  V30 15898 H 1608.84 2.52787 5.14559 0
M  V30 15899 H 1607.24 3.30694 5.00761 0
M  V30 15900 H 1608.31 3.25398 3.59506 0
M  V30 15901 N 1609.65 -1.26251 0.943322 0
M  V30 15902 C 1611.06 -1.75591 0.634391 0
M  V30 15903 C 1611.41 -1.76812 -0.850406 0
M  V30 15904 O 1610.54 -1.38162 -1.66554 0
M  V30 15905 C 1611.13 -3.18871 1.14484 0
M  V30 15906 C 1609.69 -3.65817 0.886285 0
M  V30 15907 C 1608.84 -2.4523 1.2945 0
M  V30 15908 H 1611.79 -1.12297 1.12139 0
M  V30 15909 H 1611.81 -3.77205 0.499654 0
M  V30 15910 H 1611.32 -3.17951 2.22551 0
M  V30 15911 H 1609.42 -3.72165 -0.179913 0
M  V30 15912 H 1609.54 -4.54523 1.5148 0
M  V30 15913 H 1607.9 -2.44519 0.712919 0
M  V30 15914 H 1608.68 -2.47009 2.38415 0
M  V30 15915 N 1611.13 -0.710588 -1.40671 0
M  V30 15916 C 1612.35 -0.256007 -2.05814 0
M  V30 15917 C 1612.78 1.09178 -1.53173 0
M  V30 15918 O 1612.14 1.68665 -0.664977 0
M  V30 15919 C 1612.19 -0.240528 -3.59797 0
M  V30 15920 O 1611.29 0.779859 -4.04959 0
M  V30 15921 H 1610.63 -0.121326 -0.652822 0
M  V30 15922 H 1613.16 -0.969667 -1.80163 0
M  V30 15923 H 1613.17 -0.0765027 -4.07928 0
M  V30 15924 H 1611.85 -1.22411 -3.97478 0
M  V30 15925 H 1610.42 0.583965 -3.68299 0
M  V30 15926 N 1612.61 1.50847 -0.456408 0
M  V30 15927 C 1613.86 2.01835 0.103414 0
M  V30 15928 C 1614.18 1.34142 1.4153 0
M  V30 15929 O 1613.45 0.482015 1.89877 0
M  V30 15930 H 1612.03 0.745863 0.0412074 0
M  V30 15931 H 1614.69 1.85322 -0.603477 0
M  V30 15932 H 1613.78 3.10968 0.265562 0
M  V30 15933 N 1614.09 0.188454 1.56469 0
M  V30 15934 C 1615 -0.747176 2.22384 0
M  V30 15935 C 1616.01 -1.23985 1.22081 0
M  V30 15936 O 1617.19 -1.2884 1.54797 0
M  V30 15937 C 1614.25 -1.95228 2.86508 0
M  V30 15938 C 1613.31 -1.50482 4.02062 0
M  V30 15939 C 1612.55 -2.65248 4.63119 0
M  V30 15940 O 1612.77 -3.8256 4.23088 0
M  V30 15941 O 1611.7 -2.38341 5.527 0
M  V30 15942 H 1615.53 -0.215857 3.02932 0
M  V30 15943 H 1613.11 -0.0405356 1.49345 0
M  V30 15944 H 1615 -2.65673 3.27103 0
M  V30 15945 H 1613.67 -2.47233 2.08944 0
M  V30 15946 H 1612.58 -0.769365 3.66103 0
M  V30 15947 H 1613.91 -1.03151 4.8127 0
M  V30 15948 N 1615.56 -1.5737 -0.0851874 0
M  V30 15949 C 1616.81 -1.86864 -0.78802 0
M  V30 15950 C 1617.14 -0.778936 -1.77894 0
M  V30 15951 O 1616.42 0.212132 -1.9334 0
M  V30 15952 C 1616.7 -3.27006 -1.50795 0
M  V30 15953 C 1616.55 -4.46615 -0.534354 0
M  V30 15954 C 1617.87 -3.65187 -2.45614 0
M  V30 15955 H 1614.99 -0.679657 -0.285017 0
M  V30 15956 H 1617.63 -1.8993 -0.0514443 0
M  V30 15957 H 1615.78 -3.24522 -2.13583 0
M  V30 15958 H 1617.46 -4.61217 0.0872761 0
M  V30 15959 H 1615.7 -4.33536 0.151455 0
M  V30 15960 H 1616.37 -5.41423 -1.07544 0
M  V30 15961 H 1618.85 -3.68678 -1.92913 0
M  V30 15962 H 1617.72 -4.64158 -2.92999 0
M  V30 15963 H 1617.98 -2.944 -3.2982 0
M  V30 15964 N 1617.04 0.356258 -1.53521 0
M  V30 15965 C 1617.97 1.44271 -1.83598 0
M  V30 15966 C 1618.95 1.5547 -0.690141 0
M  V30 15967 O 1620.14 1.69886 -0.940868 0
M  V30 15968 C 1617.27 2.8149 -2.03422 0
M  V30 15969 C 1616.22 2.85108 -3.19213 0
M  V30 15970 C 1615.55 4.25091 -3.24348 0
M  V30 15971 C 1616.85 2.51788 -4.57602 0
M  V30 15972 H 1618.54 1.1935 -2.74583 0
M  V30 15973 H 1616.09 0.572707 -1.32121 0
M  V30 15974 H 1618.04 3.57531 -2.23046 0
M  V30 15975 H 1616.76 3.07819 -1.09155 0
M  V30 15976 H 1615.42 2.1152 -2.99424 0
M  V30 15977 H 1615.07 4.4851 -2.277 0
M  V30 15978 H 1614.77 4.28426 -4.0215 0
M  V30 15979 H 1616.3 5.02992 -3.46167 0
M  V30 15980 H 1617.71 3.17542 -4.77326 0
M  V30 15981 H 1616.11 2.66426 -5.37715 0
M  V30 15982 H 1617.18 1.4701 -4.62078 0
M  V30 15983 N 1618.52 1.45038 0.616577 0
M  V30 15984 C 1619.43 1.55542 1.75624 0
M  V30 15985 C 1620.45 0.440304 1.68337 0
M  V30 15986 O 1621.62 0.699725 1.88854 0
M  V30 15987 C 1618.69 1.51062 3.1206 0
M  V30 15988 C 1617.75 2.7354 3.30869 0
M  V30 15989 C 1616.98 2.69264 4.60796 0
M  V30 15990 O 1617.2 1.76085 5.42541 0
M  V30 15991 O 1616.14 3.60335 4.82123 0
M  V30 15992 H 1619.96 2.51854 1.69715 0
M  V30 15993 H 1617.55 1.27448 0.779578 0
M  V30 15994 H 1619.43 1.51138 3.93364 0
M  V30 15995 H 1618.11 0.578976 3.1848 0
M  V30 15996 H 1617.01 2.79027 2.49188 0
M  V30 15997 H 1618.35 3.65799 3.2932 0
M  V30 15998 N 1620 -0.858287 1.32179 0
M  V30 15999 C 1621.23 -1.64473 1.25523 0
M  V30 16000 C 1621.64 -1.87964 -0.177425 0
M  V30 16001 O 1621 -1.44607 -1.11333 0
M  V30 16002 C 1621.05 -3.00609 2.0079 0
M  V30 16003 O 1620.77 -2.7816 3.38465 0
M  V30 16004 C 1622.27 -3.95054 2.01115 0
M  V30 16005 H 1619.49 -0.512393 0.433237 0
M  V30 16006 H 1622.03 -1.07048 1.74244 0
M  V30 16007 H 1620.19 -3.5469 1.55801 0
M  V30 16008 H 1620.6 -3.64712 3.76942 0
M  V30 16009 H 1622.08 -4.87854 2.58268 0
M  V30 16010 H 1622.55 -4.27746 0.996513 0
M  V30 16011 H 1623.16 -3.4691 2.46035 0
M  V30 16012 N 1621.48 -1.1533 -1.07409 0
M  V30 16013 C 1622.44 -0.852155 -2.1277 0
M  V30 16014 C 1623.44 0.14782 -1.60119 0
M  V30 16015 O 1624.63 -0.0817436 -1.74008 0
M  V30 16016 C 1621.76 -0.272233 -3.39811 0
M  V30 16017 H 1622.95 -1.78604 -2.40917 0
M  V30 16018 H 1620.51 -0.960698 -1.23289 0
M  V30 16019 H 1621.24 0.669873 -3.17306 0
M  V30 16020 H 1621.03 -0.992629 -3.79327 0
M  V30 16021 H 1622.52 -0.0790986 -4.17525 0
M  V30 16022 N 1622.95 1.25748 -0.950004 0
M  V30 16023 C 1623.92 2.24307 -0.47106 0
M  V30 16024 C 1624.92 1.55145 0.422704 0
M  V30 16025 O 1626.11 1.72797 0.220642 0
M  V30 16026 C 1623.24 3.39395 0.319979 0
M  V30 16027 H 1624.43 2.68192 -1.34214 0
M  V30 16028 H 1621.98 1.38056 -0.732827 0
M  V30 16029 H 1622.72 3.00925 1.20892 0
M  V30 16030 H 1622.5 3.90783 -0.321157 0
M  V30 16031 H 1623.99 4.12594 0.644697 0
M  V30 16032 N 1624.43 0.718038 1.40292 0
M  V30 16033 C 1625.84 0.330675 1.83748 0
M  V30 16034 C 1626.19 -1.13511 1.6003 0
M  V30 16035 O 1625.32 -1.87381 1.08247 0
M  V30 16036 C 1625.91 0.593398 3.33563 0
M  V30 16037 C 1624.47 0.259717 3.75503 0
M  V30 16038 C 1623.62 0.864537 2.63479 0
M  V30 16039 H 1626.57 0.917 1.29525 0
M  V30 16040 H 1626.59 -0.140544 3.8024 0
M  V30 16041 H 1626.1 1.66028 3.50794 0
M  V30 16042 H 1624.2 -0.802011 3.63866 0
M  V30 16043 H 1624.32 0.730427 4.73499 0
M  V30 16044 H 1622.68 0.292399 2.53016 0
M  V30 16045 H 1623.46 1.93574 2.83521 0
M  V30 16046 N 1625.91 -1.50602 0.464402 0
M  V30 16047 C 1627.16 -2.01887 -0.0927084 0
M  V30 16048 C 1627.48 -1.34891 -1.40817 0
M  V30 16049 O 1626.75 -0.492078 -1.89619 0
M  V30 16050 H 1625.33 -0.746071 -0.0372514 0
M  V30 16051 H 1627.99 -1.84999 0.613296 0
M  V30 16052 H 1627.09 -3.11105 -0.249067 0
M  V30 16053 N 1627.39 -0.19675 -1.56367 0
M  V30 16054 C 1628.63 0.442238 -1.97919 0
M  V30 16055 C 1628.97 1.61156 -1.08362 0
M  V30 16056 O 1628.24 1.94024 -0.135969 0
M  V30 16057 C 1628.53 0.90078 -3.48652 0
M  V30 16058 C 1628.38 -0.270471 -4.48986 0
M  V30 16059 C 1629.7 1.7657 -4.03126 0
M  V30 16060 H 1626.82 0.159276 -0.719583 0
M  V30 16061 H 1629.46 -0.288004 -1.87805 0
M  V30 16062 H 1627.61 1.52302 -3.57402 0
M  V30 16063 H 1629.28 -0.908176 -4.52272 0
M  V30 16064 H 1627.52 -0.921973 -4.23889 0
M  V30 16065 H 1628.19 0.0929101 -5.51922 0
M  V30 16066 H 1630.67 1.24091 -3.97166 0
M  V30 16067 H 1629.55 2.0555 -5.0896 0
M  V30 16068 H 1629.81 2.72047 -3.48486 0
M  V30 16069 N 1628.87 1.57413 0.0768405 0
M  V30 16070 C 1629.78 2.06688 1.10983 0
M  V30 16071 C 1630.79 0.995392 1.42716 0
M  V30 16072 O 1631.97 1.30977 1.52994 0
M  V30 16073 C 1629.03 2.49676 2.40546 0
M  V30 16074 C 1628.09 3.71101 2.1583 0
M  V30 16075 C 1627.33 4.1203 3.39216 0
M  V30 16076 O 1627.55 3.52877 4.48145 0
M  V30 16077 O 1626.48 5.04856 3.27726 0
M  V30 16078 H 1630.31 2.95012 0.721242 0
M  V30 16079 H 1627.9 1.46546 0.290624 0
M  V30 16080 H 1629.78 2.77871 3.16805 0
M  V30 16081 H 1628.45 1.64484 2.78795 0
M  V30 16082 H 1627.36 3.47996 1.37293 0
M  V30 16083 H 1628.69 4.5713 1.82465 0
M  V30 16084 N 1630.34 -0.348112 1.53707 0
M  V30 16085 C 1631.62 -1.1056 1.61356 0
M  V30 16086 C 1632 -2.06633 0.431955 0
M  V30 16087 O 1631.35 -2.21115 -0.576211 0
M  V30 16088 C 1631.56 -1.82929 2.97217 0
M  V30 16089 C 1632.91 -2.36837 3.52411 0
M  V30 16090 O 1633.93 -1.93032 2.99361 0
M  V30 16091 O 1632.79 -3.16966 4.45191 0
M  V30 16092 H 1629.88 -0.50817 0.652451 0
M  V30 16093 H 1632.43 -0.349971 1.66052 0
M  V30 16094 H 1631.2 -1.12912 3.74655 0
M  V30 16095 H 1630.83 -2.65361 2.9609 0
M  V30 16096 N 1631.82 -1.45363 -0.608876 0
M  V30 16097 C 1633.07 -1.48586 -1.364 0
M  V30 16098 C 1633.38 -0.131213 -1.95159 0
M  V30 16099 O 1634.59 -0.0410845 -2.71469 0
M  V30 16100 C 1633.05 -2.61694 -2.47071 0
M  V30 16101 C 1632.65 -4.03466 -1.94729 0
M  V30 16102 C 1634.4 -2.74162 -3.24091 0
M  V30 16103 C 1632.31 -5.07958 -3.02874 0
M  V30 16104 H 1631.24 -0.552893 -0.512665 0
M  V30 16105 H 1633.89 -1.71499 -0.65271 0
M  V30 16106 H 1632.27 -2.32062 -3.20879 0
M  V30 16107 H 1633.44 -4.4277 -1.27638 0
M  V30 16108 H 1631.76 -3.95436 -1.30457 0
M  V30 16109 H 1634.35 -3.494 -4.04752 0
M  V30 16110 H 1634.7 -1.80751 -3.75013 0
M  V30 16111 H 1635.23 -3.03313 -2.57383 0
M  V30 16112 H 1631.97 -6.03073 -2.56871 0
M  V30 16113 H 1631.49 -4.73225 -3.68535 0
M  V30 16114 H 1633.17 -5.3265 -3.67277 0
M  V30 16115 N 1633.3 0.851265 -1.32632 0
M  V30 16116 C 1634.53 1.64328 -1.26535 0
M  V30 16117 C 1634.95 1.87392 0.163086 0
M  V30 16118 O 1634.31 1.42913 1.1156 0
M  V30 16119 C 1634.36 2.97781 -2.03369 0
M  V30 16120 O 1633.46 3.8849 -1.38381 0
M  V30 16121 H 1632.8 0.500864 -0.435926 0
M  V30 16122 H 1635.33 1.06 -1.75001 0
M  V30 16123 H 1635.34 3.47576 -2.1367 0
M  V30 16124 H 1634.02 2.80316 -3.07239 0
M  V30 16125 H 1632.59 3.4696 -1.36649 0
M  V30 16126 N 1634.78 1.15898 1.06796 0
M  V30 16127 C 1636.03 0.935488 1.79145 0
M  V30 16128 C 1636.35 -0.538433 1.87419 0
M  V30 16129 O 1635.62 -1.39124 1.37917 0
M  V30 16130 H 1634.2 0.343123 0.663533 0
M  V30 16131 H 1636.86 1.4607 1.29034 0
M  V30 16132 H 1635.96 1.34978 2.81402 0
M  V30 16133 N 1636.26 -1.25243 0.956659 0
M  V30 16134 C 1637.19 -2.28159 0.496574 0
M  V30 16135 C 1638.17 -1.63814 -0.458132 0
M  V30 16136 O 1639.35 -1.90897 -0.356648 0
M  V30 16137 C 1636.48 -3.46573 -0.22454 0
M  V30 16138 C 1635.44 -4.2311 0.645104 0
M  V30 16139 C 1634.76 -5.343 -0.206867 0
M  V30 16140 C 1636.06 -4.85562 1.92422 0
M  V30 16141 H 1637.76 -2.66895 1.35675 0
M  V30 16142 H 1635.3 -1.28301 0.653827 0
M  V30 16143 H 1637.26 -4.17695 -0.55755 0
M  V30 16144 H 1635.98 -3.06833 -1.11898 0
M  V30 16145 H 1634.64 -3.53774 0.961228 0
M  V30 16146 H 1634.29 -4.908 -1.10112 0
M  V30 16147 H 1633.99 -5.86423 0.371714 0
M  V30 16148 H 1635.51 -6.08253 -0.534798 0
M  V30 16149 H 1636.92 -5.48817 1.65749 0
M  V30 16150 H 1635.32 -5.47871 2.44862 0
M  V30 16151 H 1636.39 -4.07634 2.62607 0
M  V30 16152 N 1637.73 -0.725468 -1.3991 0
M  V30 16153 C 1639.15 -0.340415 -1.8357 0
M  V30 16154 C 1639.5 1.1266 -1.6063 0
M  V30 16155 O 1638.62 1.86804 -1.0924 0
M  V30 16156 C 1639.22 -0.611079 -3.33244 0
M  V30 16157 C 1637.78 -0.279627 -3.7536 0
M  V30 16158 C 1636.92 -0.878498 -2.63017 0
M  V30 16159 H 1639.87 -0.923856 -1.29037 0
M  V30 16160 H 1639.89 0.120377 -3.8031 0
M  V30 16161 H 1639.41 -1.67886 -3.49908 0
M  V30 16162 H 1637.51 0.782703 -3.64286 0
M  V30 16163 H 1637.62 -0.755528 -4.73105 0
M  V30 16164 H 1635.98 -0.305813 -2.52857 0
M  V30 16165 H 1636.77 -1.95075 -2.8249 0
M  V30 16166 N 1639.21 1.50354 -0.472382 0
M  V30 16167 C 1640.44 2.07238 0.0820787 0
M  V30 16168 C 1640.86 1.3338 1.32632 0
M  V30 16169 O 1640.22 0.381857 1.77233 0
M  V30 16170 C 1640.27 3.58919 0.347746 0
M  V30 16171 O 1639.37 3.86888 1.42799 0
M  V30 16172 H 1638.71 0.663862 -0.0135544 0
M  V30 16173 H 1641.24 1.93533 -0.663795 0
M  V30 16174 H 1641.25 4.03743 0.587855 0
M  V30 16175 H 1639.93 4.12093 -0.56147 0
M  V30 16176 H 1638.51 3.53901 1.17509 0
M  V30 16177 N 1640.69 0.205039 1.56261 0
M  V30 16178 C 1641.94 -0.430245 1.97467 0
M  V30 16179 C 1642.26 -1.6146 1.09342 0
M  V30 16180 O 1641.53 -1.95188 0.166836 0
M  V30 16181 H 1640.11 -0.161945 0.729234 0
M  V30 16182 H 1642.77 0.294089 1.92668 0
M  V30 16183 H 1641.87 -0.767699 3.02511 0
M  V30 16184 N 1642.17 -1.57451 -0.0684915 0
M  V30 16185 C 1643.08 -2.07274 -1.09885 0
M  V30 16186 C 1644.1 -1.00295 -1.42186 0
M  V30 16187 O 1645.27 -1.31786 -1.52297 0
M  V30 16188 C 1642.34 -2.50949 -2.39219 0
M  V30 16189 C 1641.4 -3.7224 -2.13859 0
M  V30 16190 C 1640.63 -4.13823 -3.37026 0
M  V30 16191 O 1640.85 -3.55248 -4.46268 0
M  V30 16192 O 1639.79 -5.06587 -3.25044 0
M  V30 16193 H 1643.61 -2.9539 -0.705587 0
M  V30 16194 H 1641.2 -1.46698 -0.282849 0
M  V30 16195 H 1643.08 -2.79547 -3.15327 0
M  V30 16196 H 1641.76 -1.6596 -2.77919 0
M  V30 16197 H 1640.66 -3.4872 -1.35445 0
M  V30 16198 H 1642 -4.58091 -1.80038 0
M  V30 16199 N 1643.65 0.339955 -1.5389 0
M  V30 16200 C 1644.89 1.08139 -1.71563 0
M  V30 16201 C 1645.23 1.88193 -0.479292 0
M  V30 16202 O 1644.5 1.87317 0.523702 0
M  V30 16203 C 1644.78 2.01963 -2.98132 0
M  V30 16204 C 1644.64 1.25349 -4.31981 0
M  V30 16205 C 1645.96 3.01729 -3.20387 0
M  V30 16206 H 1643.08 0.391744 -0.624264 0
M  V30 16207 H 1645.72 0.359609 -1.86566 0
M  V30 16208 H 1643.87 2.63511 -2.85472 0
M  V30 16209 H 1645.54 0.66388 -4.56498 0
M  V30 16210 H 1643.78 0.555541 -4.30228 0
M  V30 16211 H 1644.45 1.94154 -5.16728 0
M  V30 16212 H 1646.93 2.50297 -3.32401 0
M  V30 16213 H 1645.81 3.64577 -4.10335 0
M  V30 16214 H 1646.07 3.73303 -2.36849 0
M  V30 16215 N 1645.13 1.45684 0.601159 0
M  V30 16216 C 1646.06 1.57694 1.72206 0
M  V30 16217 C 1647.04 0.428141 1.64624 0
M  V30 16218 O 1648.22 0.65209 1.82925 0
M  V30 16219 C 1645.35 1.54941 3.10822 0
M  V30 16220 C 1644.31 2.68603 3.33222 0
M  V30 16221 C 1643.63 2.50906 4.72176 0
M  V30 16222 C 1644.93 4.10568 3.22849 0
M  V30 16223 H 1646.63 2.51521 1.62412 0
M  V30 16224 H 1644.17 1.2105 0.779929 0
M  V30 16225 H 1646.12 1.61939 3.89042 0
M  V30 16226 H 1644.85 0.576471 3.21472 0
M  V30 16227 H 1643.51 2.61043 2.57394 0
M  V30 16228 H 1643.16 1.51736 4.79568 0
M  V30 16229 H 1642.86 3.27131 4.88118 0
M  V30 16230 H 1644.38 2.59767 5.52588 0
M  V30 16231 H 1645.79 4.19336 3.90935 0
M  V30 16232 H 1644.19 4.87234 3.50318 0
M  V30 16233 H 1645.26 4.32022 2.20192 0
M  V30 16234 N 1646.6 -0.84422 1.33082 0
M  V30 16235 C 1647.51 -1.9858 1.24913 0
M  V30 16236 C 1648.53 -1.73256 0.160708 0
M  V30 16237 O 1649.71 -1.97719 0.383313 0
M  V30 16238 C 1646.77 -3.32471 0.983063 0
M  V30 16239 C 1645.83 -3.70946 2.16096 0
M  V30 16240 C 1645.06 -4.98448 1.90749 0
M  V30 16241 O 1645.29 -5.63953 0.855173 0
M  V30 16242 O 1644.22 -5.34301 2.7714 0
M  V30 16243 H 1648.05 -2.0841 2.20905 0
M  V30 16244 H 1645.63 -0.976447 1.13075 0
M  V30 16245 H 1647.51 -4.12705 0.851612 0
M  V30 16246 H 1646.19 -3.23656 0.053384 0
M  V30 16247 H 1645.1 -2.91244 2.34793 0
M  V30 16248 H 1646.43 -3.8442 3.07379 0
M  V30 16249 N 1648.08 -1.16463 -1.0618 0
M  V30 16250 C 1649.31 -0.971075 -1.82696 0
M  V30 16251 C 1649.72 0.480716 -1.82578 0
M  V30 16252 O 1649.08 1.33366 -1.24579 0
M  V30 16253 C 1649.13 -1.49235 -3.29259 0
M  V30 16254 O 1648.85 -2.88728 -3.29496 0
M  V30 16255 C 1650.35 -1.34197 -4.225 0
M  V30 16256 H 1647.57 -0.34415 -0.576023 0
M  V30 16257 H 1650.12 -1.54517 -1.33958 0
M  V30 16258 H 1648.27 -0.960503 -3.75304 0
M  V30 16259 H 1648.69 -3.12618 -4.21153 0
M  V30 16260 H 1650.16 -1.75499 -5.23358 0
M  V30 16261 H 1650.64 -0.287685 -4.38257 0
M  V30 16262 H 1651.24 -1.86349 -3.82301 0
M  V30 16263 N 1649.56 1.24734 -0.963288 0
M  V30 16264 C 1650.52 2.23795 -0.494824 0
M  V30 16265 C 1651.52 1.55584 0.406225 0
M  V30 16266 O 1652.71 1.73021 0.202302 0
M  V30 16267 C 1649.84 3.39715 0.283963 0
M  V30 16268 H 1651.04 2.66753 -1.37051 0
M  V30 16269 H 1648.59 1.37271 -0.747428 0
M  V30 16270 H 1649.33 3.0219 1.17693 0
M  V30 16271 H 1649.11 3.9042 -0.362586 0
M  V30 16272 H 1650.6 4.13254 0.600899 0
M  V30 16273 N 1651.04 0.732878 1.39523 0
M  V30 16274 C 1652 0.10004 2.28982 0
M  V30 16275 C 1653 -0.669361 1.46206 0
M  V30 16276 O 1654.19 -0.498694 1.66909 0
M  V30 16277 C 1651.32 -0.867616 3.29674 0
M  V30 16278 H 1652.52 0.88816 2.86447 0
M  V30 16279 H 1650.07 0.498578 1.48135 0
M  V30 16280 H 1650.8 -1.68217 2.77261 0
M  V30 16281 H 1650.59 -0.318577 3.90804 0
M  V30 16282 H 1652.08 -1.30704 3.96618 0
M  V30 16283 N 1652.52 -1.50101 0.480349 0
M  V30 16284 C 1653.93 -1.8668 0.0274773 0
M  V30 16285 C 1654.28 -1.39442 -1.38023 0
M  V30 16286 O 1653.4 -0.763363 -2.02489 0
M  V30 16287 C 1654 -3.38773 0.043087 0
M  V30 16288 C 1652.56 -3.74728 -0.354352 0
M  V30 16289 C 1651.7 -2.7403 0.424583 0
M  V30 16290 H 1654.65 -1.42713 0.694172 0
M  V30 16291 H 1654.68 -3.72894 -0.756989 0
M  V30 16292 H 1654.19 -3.73123 1.06775 0
M  V30 16293 H 1652.29 -3.45981 -1.38303 0
M  V30 16294 H 1652.4 -4.79075 -0.0492608 0
M  V30 16295 H 1650.77 -2.54403 -0.122927 0
M  V30 16296 H 1651.55 -3.11225 1.44894 0
M  V30 16297 N 1653.99 -0.213323 -1.5615 0
M  V30 16298 C 1655.24 0.419767 -1.97693 0
M  V30 16299 C 1655.56 1.60878 -1.10197 0
M  V30 16300 O 1654.83 1.95097 -0.177185 0
M  V30 16301 H 1653.41 0.158075 -0.730083 0
M  V30 16302 H 1656.07 -0.304303 -1.9251 0
M  V30 16303 H 1655.17 0.751645 -3.02914 0
M  V30 16304 N 1655.47 1.57485 0.0601405 0
M  V30 16305 C 1656.72 1.88094 0.758192 0
M  V30 16306 C 1657.05 0.807138 1.76632 0
M  V30 16307 O 1656.33 -0.181347 1.93653 0
M  V30 16308 C 1656.61 3.29363 1.45574 0
M  V30 16309 C 1656.46 4.47408 0.463233 0
M  V30 16310 C 1657.78 3.69048 2.39773 0
M  V30 16311 H 1654.9 0.684106 0.274169 0
M  V30 16312 H 1657.54 1.89988 0.0212215 0
M  V30 16313 H 1655.69 3.27879 2.08393 0
M  V30 16314 H 1657.36 4.6102 -0.160641 0
M  V30 16315 H 1655.61 4.3324 -0.220408 0
M  V30 16316 H 1656.28 5.43065 0.989164 0
M  V30 16317 H 1658.75 3.71701 1.87024 0
M  V30 16318 H 1657.63 4.68761 2.85577 0
M  V30 16319 H 1657.89 2.9961 3.25094 0
M  V30 16320 N 1656.95 -0.331789 1.54068 0
M  V30 16321 C 1657.86 -1.43116 1.8589 0
M  V30 16322 C 1658.88 -1.57003 0.75007 0
M  V30 16323 O 1660.05 -1.72256 1.04355 0
M  V30 16324 C 1657.12 -2.77945 2.07238 0
M  V30 16325 C 1656.18 -2.73303 3.31065 0
M  V30 16326 C 1655.41 -4.01702 3.51385 0
M  V30 16327 O 1655.63 -4.99562 2.75306 0
M  V30 16328 O 1654.57 -4.0546 4.44844 0
M  V30 16329 H 1658.39 -1.19137 2.79357 0
M  V30 16330 H 1655.98 -0.525057 1.3987 0
M  V30 16331 H 1657.86 -3.57774 2.22656 0
M  V30 16332 H 1656.54 -3.01831 1.16959 0
M  V30 16333 H 1655.44 -1.92054 3.21039 0
M  V30 16334 H 1656.78 -2.54371 4.21374 0
M  V30 16335 N 1658.43 -1.46001 -0.593424 0
M  V30 16336 C 1659.71 -1.4123 -1.35327 0
M  V30 16337 C 1660.09 -0.0901956 -2.10907 0
M  V30 16338 O 1659.43 0.928102 -2.08803 0
M  V30 16339 C 1659.64 -2.63515 -2.28825 0
M  V30 16340 C 1660.99 -3.09208 -2.90991 0
M  V30 16341 O 1662.02 -2.63988 -2.39142 0
M  V30 16342 O 1660.87 -3.87723 -3.8514 0
M  V30 16343 H 1657.97 -0.561132 -0.607503 0
M  V30 16344 H 1660.51 -1.58151 -0.615333 0
M  V30 16345 H 1659.29 -3.51308 -1.72333 0
M  V30 16346 H 1658.91 -2.48999 -3.09976 0
M  V30 16347 N 1659.91 0.83715 -1.33527 0
M  V30 16348 C 1661.16 1.58747 -1.24428 0
M  V30 16349 C 1661.47 1.94696 0.187885 0
M  V30 16350 O 1662.67 2.68524 0.400903 0
M  V30 16351 C 1661.13 2.86337 -2.18035 0
M  V30 16352 C 1660.74 2.57745 -3.66431 0
M  V30 16353 C 1662.48 3.6436 -2.17812 0
M  V30 16354 C 1660.39 3.81443 -4.51946 0
M  V30 16355 H 1659.32 0.595749 -0.462168 0
M  V30 16356 H 1661.97 0.922901 -1.58603 0
M  V30 16357 H 1660.35 3.54344 -1.76795 0
M  V30 16358 H 1661.53 1.97939 -4.16121 0
M  V30 16359 H 1659.84 1.93023 -3.68959 0
M  V30 16360 H 1662.44 4.56181 -2.78932 0
M  V30 16361 H 1662.78 3.99414 -1.17364 0
M  V30 16362 H 1663.31 3.03279 -2.57423 0
M  V30 16363 H 1660.05 3.51519 -5.53276 0
M  V30 16364 H 1659.57 4.40582 -4.06998 0
M  V30 16365 H 1661.25 4.49004 -4.65837 0
M  V30 16366 N 1661.38 1.17024 1.05561 0
M  V30 16367 C 1662.61 0.981293 1.82717 0
M  V30 16368 C 1663.03 -0.465636 1.82246 0
M  V30 16369 O 1662.39 -1.33315 1.22869 0
M  V30 16370 C 1662.44 1.52239 3.26888 0
M  V30 16371 O 1661.54 0.73366 4.05822 0
M  V30 16372 H 1660.89 0.348677 0.565084 0
M  V30 16373 H 1663.42 1.55435 1.33046 0
M  V30 16374 H 1663.43 1.54306 3.77695 0
M  V30 16375 H 1662.1 2.57567 3.26545 0
M  V30 16376 H 1660.68 0.784101 3.64563 0
M  V30 16377 N 1662.86 -1.24221 0.969889 0
M  V30 16378 C 1664.11 -1.91973 0.631725 0
M  V30 16379 C 1664.43 -1.76169 -0.836032 0
M  V30 16380 O 1663.7 -1.13459 -1.597 0
M  V30 16381 H 1662.28 -0.710497 0.230658 0
M  V30 16382 H 1664.94 -1.51069 1.23143 0
M  V30 16383 H 1664.04 -2.99606 0.874223 0
M  V30 16384 N 1664.34 -0.740267 -1.39132 0
M  V30 16385 C 1665.27 -0.118951 -2.33197 0
M  V30 16386 C 1666.25 0.718416 -1.54184 0
M  V30 16387 O 1667.44 0.662322 -1.82557 0
M  V30 16388 C 1664.57 0.78512 -3.38309 0
M  V30 16389 C 1663.52 0.0515093 -4.27969 0
M  V30 16390 C 1662.85 1.07295 -5.23824 0
M  V30 16391 C 1664.15 -1.10903 -5.1039 0
M  V30 16392 H 1665.84 -0.904687 -2.85405 0
M  V30 16393 H 1663.39 -0.436493 -1.37225 0
M  V30 16394 H 1665.34 1.22935 -4.03069 0
M  V30 16395 H 1664.06 1.60303 -2.84553 0
M  V30 16396 H 1662.72 -0.373156 -3.64696 0
M  V30 16397 H 1662.37 1.88456 -4.66362 0
M  V30 16398 H 1662.07 0.586827 -5.84662 0
M  V30 16399 H 1663.59 1.51677 -5.91461 0
M  V30 16400 H 1665.01 -0.742993 -5.68465 0
M  V30 16401 H 1663.41 -1.52513 -5.80396 0
M  V30 16402 H 1664.48 -1.92825 -4.44912 0
M  V30 16403 N 1665.82 1.49844 -0.488302 0
M  V30 16404 C 1667.23 1.86663 -0.037377 0
M  V30 16405 C 1667.58 1.40172 1.37281 0
M  V30 16406 O 1666.71 0.77409 2.02081 0
M  V30 16407 C 1667.3 3.38745 -0.0610523 0
M  V30 16408 C 1665.86 3.74911 0.334475 0
M  V30 16409 C 1665.01 2.73801 -0.439109 0
M  V30 16410 H 1667.96 1.42343 -0.70173 0
M  V30 16411 H 1667.98 3.7329 0.737203 0
M  V30 16412 H 1667.49 3.72551 -1.08753 0
M  V30 16413 H 1665.59 3.4671 1.36466 0
M  V30 16414 H 1665.7 4.79094 0.0238536 0
M  V30 16415 H 1664.07 2.54465 0.109433 0
M  V30 16416 H 1664.85 3.10452 -1.46542 0
M  V30 16417 N 1667.3 0.221601 1.56034 0
M  V30 16418 C 1668.52 -0.417979 2.03145 0
M  V30 16419 C 1668.95 -1.52556 1.10038 0
M  V30 16420 O 1668.3 -1.81084 0.0885729 0
M  V30 16421 C 1668.35 -0.926762 3.48487 0
M  V30 16422 O 1667.46 -2.03811 3.58518 0
M  V30 16423 H 1666.8 -0.0945778 0.65723 0
M  V30 16424 H 1669.33 0.340252 2.01751 0
M  V30 16425 H 1669.34 -1.23656 3.8881 0
M  V30 16426 H 1668.01 -0.116115 4.15738 0
M  V30 16427 H 1666.59 -1.73494 3.30082 0
M  V30 16428 N 1668.77 -1.57515 -0.0517878 0
M  V30 16429 C 1670.02 -1.87843 -0.745624 0
M  V30 16430 C 1670.34 -0.816318 -1.77091 0
M  V30 16431 O 1669.61 0.152784 -1.95303 0
M  V30 16432 H 1668.19 -0.693194 -0.278372 0
M  V30 16433 H 1670.86 -1.94886 -0.0231267 0
M  V30 16434 H 1669.95 -2.86001 -1.2494 0
M  V30 16435 N 1670.25 0.323614 -1.54242 0
M  V30 16436 C 1671.16 1.42128 -1.86646 0
M  V30 16437 C 1672.18 1.56603 -0.758385 0
M  V30 16438 O 1673.36 1.717 -1.05267 0
M  V30 16439 C 1670.42 2.76842 -2.08709 0
M  V30 16440 C 1669.48 2.71543 -3.3251 0
M  V30 16441 C 1668.71 3.99833 -3.5351 0
M  V30 16442 O 1668.94 4.98095 -2.77952 0
M  V30 16443 O 1667.87 4.03095 -4.46988 0
M  V30 16444 H 1671.7 1.17653 -2.79985 0
M  V30 16445 H 1669.28 0.517632 -1.40146 0
M  V30 16446 H 1671.16 3.56588 -2.24551 0
M  V30 16447 H 1669.84 3.01207 -1.18558 0
M  V30 16448 H 1668.75 1.90348 -3.22053 0
M  V30 16449 H 1670.08 2.52133 -4.22717 0
M  V30 16450 N 1671.73 1.46313 0.585673 0
M  V30 16451 C 1672.98 1.51694 1.34598 0
M  V30 16452 C 1673.31 0.166889 1.93482 0
M  V30 16453 O 1672.59 -0.821331 1.76308 0
M  V30 16454 C 1672.87 2.61322 2.47755 0
M  V30 16455 C 1672.72 4.05848 1.93926 0
M  V30 16456 C 1674.04 2.67058 3.49812 0
M  V30 16457 H 1671.16 0.552253 0.488043 0
M  V30 16458 H 1673.8 1.78235 0.658201 0
M  V30 16459 H 1671.95 2.38822 3.06425 0
M  V30 16460 H 1673.62 4.39626 1.39736 0
M  V30 16461 H 1671.87 4.15468 1.24775 0
M  V30 16462 H 1672.54 4.78279 2.75596 0
M  V30 16463 H 1675.01 2.87276 3.01018 0
M  V30 16464 H 1673.89 3.45589 4.2645 0
M  V30 16465 H 1674.15 1.72993 4.06849 0
M  V30 16466 N 1673.21 -0.830057 1.33969 0
M  V30 16467 C 1674.14 -1.95557 1.27592 0
M  V30 16468 C 1675.12 -1.69395 0.154745 0
M  V30 16469 O 1676.31 -1.91094 0.345954 0
M  V30 16470 C 1673.44 -3.31881 1.02335 0
M  V30 16471 C 1672.39 -3.72464 2.10842 0
M  V30 16472 C 1671.72 -5.06692 1.70785 0
M  V30 16473 C 1673.02 -3.85315 3.52604 0
M  V30 16474 H 1674.71 -2.0115 2.21763 0
M  V30 16475 H 1672.26 -0.96639 1.06756 0
M  V30 16476 H 1674.21 -4.10197 0.965206 0
M  V30 16477 H 1672.93 -3.26568 0.0460462 0
M  V30 16478 H 1671.59 -2.96417 2.15714 0
M  V30 16479 H 1671.24 -4.97859 0.717334 0
M  V30 16480 H 1670.94 -5.34817 2.43403 0
M  V30 16481 H 1672.46 -5.87474 1.66452 0
M  V30 16482 H 1673.88 -4.5392 3.50185 0
M  V30 16483 H 1672.27 -4.24886 4.23783 0
M  V30 16484 H 1673.34 -2.87514 3.90466 0
M  V30 16485 N 1674.69 -1.17582 -1.04939 0
M  V30 16486 C 1675.6 -0.909588 -2.16249 0
M  V30 16487 C 1676.61 0.123166 -1.73564 0
M  V30 16488 O 1677.79 -0.0566976 -2.0132 0
M  V30 16489 C 1674.85 -0.429342 -3.44031 0
M  V30 16490 C 1673.92 -1.529 -4.01149 0
M  V30 16491 C 1673.15 -1.07157 -5.22832 0
M  V30 16492 O 1673.37 0.0732634 -5.70353 0
M  V30 16493 O 1672.31 -1.86567 -5.72255 0
M  V30 16494 H 1676.13 -1.84074 -2.41558 0
M  V30 16495 H 1673.72 -0.956914 -1.14732 0
M  V30 16496 H 1675.6 -0.16917 -4.2106 0
M  V30 16497 H 1674.27 0.473629 -3.20216 0
M  V30 16498 H 1673.18 -1.84308 -3.25548 0
M  V30 16499 H 1674.51 -2.40777 -4.29287 0
M  V30 16500 N 1676.17 1.23705 -0.976463 0
M  V30 16501 C 1677.39 1.96055 -0.661065 0
M  V30 16502 C 1677.81 1.7233 0.77121 0
M  V30 16503 O 1677.17 1.01234 1.51849 0
M  V30 16504 C 1677.22 3.49144 -0.937071 0
M  V30 16505 O 1676.94 3.72061 -2.31305 0
M  V30 16506 C 1678.44 4.38698 -0.637077 0
M  V30 16507 H 1675.66 0.624319 -0.245901 0
M  V30 16508 H 1678.2 1.57301 -1.30678 0
M  V30 16509 H 1676.36 3.85928 -0.33743 0
M  V30 16510 H 1676.77 4.66383 -2.39973 0
M  V30 16511 H 1678.25 5.44931 -0.88059 0
M  V30 16512 H 1678.72 4.37102 0.428802 0
M  V30 16513 H 1679.33 4.07515 -1.21702 0
M  V30 16514 N 1677.64 0.747635 1.38738 0
M  V30 16515 C 1678.61 0.124321 2.28863 0
M  V30 16516 C 1679.61 -0.653816 1.46908 0
M  V30 16517 O 1680.8 -0.480963 1.67429 0
M  V30 16518 C 1677.93 -0.832601 3.30576 0
M  V30 16519 H 1679.12 0.918492 2.85489 0
M  V30 16520 H 1676.67 0.514262 1.47598 0
M  V30 16521 H 1677.41 -1.65267 2.79029 0
M  V30 16522 H 1677.19 -0.277109 3.9112 0
M  V30 16523 H 1678.68 -1.2649 3.97982 0
M  V30 16524 N 1679.12 -1.49583 0.496242 0
M  V30 16525 C 1680.08 -2.27561 -0.273642 0
M  V30 16526 C 1681.08 -1.33375 -0.8982 0
M  V30 16527 O 1682.27 -1.56578 -0.76347 0
M  V30 16528 C 1679.41 -3.11178 -1.39216 0
M  V30 16529 H 1680.6 -2.97077 0.410543 0
M  V30 16530 H 1678.15 -1.54271 0.251058 0
M  V30 16531 H 1678.89 -2.46217 -2.11064 0
M  V30 16532 H 1678.67 -3.80422 -0.949829 0
M  V30 16533 H 1680.16 -3.70085 -1.93459 0
M  V30 16534 N 1680.6 -0.229873 -1.55915 0
M  V30 16535 C 1682.01 0.276452 -1.84642 0
M  V30 16536 C 1682.36 1.58861 -1.15142 0
M  V30 16537 O 1681.49 2.12207 -0.423932 0
M  V30 16538 C 1682.08 0.508371 -3.34964 0
M  V30 16539 C 1680.64 0.958989 -3.63979 0
M  V30 16540 C 1679.79 0.0266738 -2.77287 0
M  V30 16541 H 1682.74 -0.452864 -1.52101 0
M  V30 16542 H 1682.76 1.35328 -3.55621 0
M  V30 16543 H 1682.27 -0.4468 -3.8552 0
M  V30 16544 H 1680.37 1.92722 -3.18887 0
M  V30 16545 H 1680.49 0.827637 -4.71897 0
M  V30 16546 H 1678.85 0.53498 -2.49018 0
M  V30 16547 H 1679.63 -0.923563 -3.30644 0
M  V30 16548 N 1682.08 1.5754 0.0434337 0
M  V30 16549 C 1683.33 1.88235 0.735652 0
M  V30 16550 C 1683.65 0.825698 1.76656 0
M  V30 16551 O 1682.92 -0.142424 1.95382 0
M  V30 16552 H 1681.5 0.694661 0.274692 0
M  V30 16553 H 1684.16 1.94896 0.0127911 0
M  V30 16554 H 1683.25 2.86659 1.23421 0
M  V30 16555 N 1683.56 -0.31543 1.54411 0
M  V30 16556 C 1684.8 -1.05396 1.73261 0
M  V30 16557 C 1685.13 -1.87406 0.509171 0
M  V30 16558 O 1684.41 -1.88126 -0.493836 0
M  V30 16559 C 1684.69 -1.97195 3.01308 0
M  V30 16560 C 1684.55 -1.18461 4.33921 0
M  V30 16561 C 1685.86 -2.96594 3.25146 0
M  V30 16562 H 1682.98 -0.381763 0.630417 0
M  V30 16563 H 1685.63 -0.329882 1.87114 0
M  V30 16564 H 1683.78 -2.58936 2.89628 0
M  V30 16565 H 1685.45 -0.591171 4.57496 0
M  V30 16566 H 1683.69 -0.487025 4.31057 0
M  V30 16567 H 1684.36 -1.85909 5.19752 0
M  V30 16568 H 1686.84 -2.44977 3.36341 0
M  V30 16569 H 1685.71 -3.58002 4.16084 0
M  V30 16570 H 1685.97 -3.69487 2.42758 0
M  V30 16571 N 1685.03 -1.46622 -0.577906 0
M  V30 16572 C 1685.94 -1.60143 -1.71439 0
M  V30 16573 C 1686.96 -0.484781 -1.6711 0
M  V30 16574 O 1688.14 -0.749551 -1.86932 0
M  V30 16575 C 1685.2 -1.59282 -3.07945 0
M  V30 16576 C 1684.26 -2.82216 -3.235 0
M  V30 16577 C 1683.5 -2.81387 -4.53495 0
M  V30 16578 O 1683.72 -1.90407 -5.37681 0
M  V30 16579 O 1682.65 -3.72991 -4.724 0
M  V30 16580 H 1686.48 -2.56265 -1.62978 0
M  V30 16581 H 1684.06 -1.2947 -0.745514 0
M  V30 16582 H 1685.95 -1.61515 -3.89218 0
M  V30 16583 H 1684.62 -0.663212 -3.16833 0
M  V30 16584 H 1683.53 -2.85536 -2.41702 0
M  V30 16585 H 1684.86 -3.74402 -3.19506 0
M  V30 16586 N 1686.51 0.822941 -1.34408 0
M  V30 16587 C 1687.79 1.56492 -1.17345 0
M  V30 16588 C 1688.17 2.09567 0.253965 0
M  V30 16589 O 1687.52 1.90931 1.25529 0
M  V30 16590 C 1687.73 2.6863 -2.22797 0
M  V30 16591 C 1689.08 3.37399 -2.57773 0
M  V30 16592 O 1690.1 2.78887 -2.21587 0
M  V30 16593 O 1688.96 4.43063 -3.19934 0
M  V30 16594 H 1686.05 0.690664 -0.454876 0
M  V30 16595 H 1688.6 0.864315 -1.4604 0
M  V30 16596 H 1687.37 2.27166 -3.18608 0
M  V30 16597 H 1686.99 3.46341 -1.95279 0
M  V30 16598 N 1687.99 1.18137 1.04314 0
M  V30 16599 C 1689.24 0.969582 1.76867 0
M  V30 16600 C 1689.55 -0.501982 1.89049 0
M  V30 16601 O 1690.76 -0.832218 2.58431 0
M  V30 16602 C 1689.21 1.68571 3.17981 0
M  V30 16603 C 1688.82 3.19641 3.13901 0
M  V30 16604 C 1690.57 1.55664 3.94929 0
M  V30 16605 C 1688.47 3.83904 4.49858 0
M  V30 16606 H 1687.4 0.359141 0.662973 0
M  V30 16607 H 1690.05 1.41484 1.16852 0
M  V30 16608 H 1688.44 1.16821 3.78377 0
M  V30 16609 H 1689.61 3.78395 2.62971 0
M  V30 16610 H 1687.93 3.32661 2.50451 0
M  V30 16611 H 1690.52 2.01039 4.95467 0
M  V30 16612 H 1690.87 0.508522 4.13182 0
M  V30 16613 H 1691.4 2.0468 3.41103 0
M  V30 16614 H 1688.14 4.88751 4.36809 0
M  V30 16615 H 1687.66 3.29937 5.00901 0
M  V30 16616 H 1689.34 3.86623 5.18779 0
M  V30 16617 N 1689.47 -1.23186 0.98301 0
M  V30 16618 C 1690.69 -1.96242 0.671114 0
M  V30 16619 C 1691.12 -1.72248 -0.755792 0
M  V30 16620 O 1690.48 -0.995555 -1.5152 0
M  V30 16621 C 1690.52 -3.47293 0.970571 0
M  V30 16622 O 1689.63 -4.1235 0.0639814 0
M  V30 16623 H 1688.97 -0.614262 0.252147 0
M  V30 16624 H 1691.5 -1.56551 1.31731 0
M  V30 16625 H 1691.51 -3.9776 0.908345 0
M  V30 16626 H 1690.18 -3.64083 2.01039 0
M  V30 16627 H 1688.76 -3.72461 0.180842 0
M  V30 16628 N 1690.95 -0.754982 -1.38339 0
M  V30 16629 C 1692.19 -0.311146 -1.9969 0
M  V30 16630 C 1692.52 1.11138 -1.60229 0
M  V30 16631 O 1691.79 1.76024 -0.859794 0
M  V30 16632 H 1690.37 -0.112052 -0.738548 0
M  V30 16633 H 1693.03 -0.969386 -1.69083 0
M  V30 16634 H 1692.12 -0.375392 -3.09834 0
M  V30 16635 N 1692.42 1.49318 -0.504168 0
M  V30 16636 C 1693.35 2.32027 0.261837 0
M  V30 16637 C 1694.34 1.4045 0.959575 0
M  V30 16638 O 1695.52 1.69357 0.950365 0
M  V30 16639 C 1692.65 3.21039 1.3248 0
M  V30 16640 C 1691.6 4.21435 0.746752 0
M  V30 16641 C 1690.93 4.99405 1.91047 0
M  V30 16642 C 1692.23 5.21631 -0.264315 0
M  V30 16643 H 1693.92 2.96317 -0.428544 0
M  V30 16644 H 1691.47 1.42497 -0.207539 0
M  V30 16645 H 1693.42 3.77714 1.86843 0
M  V30 16646 H 1692.15 2.54699 2.04441 0
M  V30 16647 H 1690.81 3.6591 0.22485 0
M  V30 16648 H 1690.45 4.29509 2.61784 0
M  V30 16649 H 1690.15 5.67338 1.52975 0
M  V30 16650 H 1691.68 5.58924 2.45837 0
M  V30 16651 H 1693.09 5.72981 0.191288 0
M  V30 16652 H 1691.49 5.97472 -0.561039 0
M  V30 16653 H 1692.56 4.70346 -1.17911 0
M  V30 16654 N 1693.9 0.238138 1.5579 0
M  V30 16655 C 1695.31 -0.266656 1.84786 0
M  V30 16656 C 1695.66 -1.58248 1.15983 0
M  V30 16657 O 1694.79 -2.11979 0.43518 0
M  V30 16658 C 1695.38 -0.4906 3.35229 0
M  V30 16659 C 1693.94 -0.939672 3.64482 0
M  V30 16660 C 1693.09 -0.0119682 2.77297 0
M  V30 16661 H 1696.04 0.460924 1.51859 0
M  V30 16662 H 1696.06 -1.3344 3.56334 0
M  V30 16663 H 1695.57 0.467239 3.85277 0
M  V30 16664 H 1693.68 -1.91029 3.19904 0
M  V30 16665 H 1693.79 -0.8026 4.72329 0
M  V30 16666 H 1692.15 -0.521767 2.49298 0
M  V30 16667 H 1692.94 0.941085 3.30149 0
M  V30 16668 N 1695.38 -1.57561 -0.0350783 0
M  V30 16669 C 1696.61 -1.93644 -0.742753 0
M  V30 16670 C 1697.03 -0.837655 -1.68419 0
M  V30 16671 O 1696.39 0.207069 -1.80114 0
M  V30 16672 C 1696.44 -3.28779 -1.48111 0
M  V30 16673 O 1695.54 -3.20604 -2.59398 0
M  V30 16674 H 1694.88 -0.633103 -0.200192 0
M  V30 16675 H 1697.41 -2.04599 0.00765271 0
M  V30 16676 H 1697.42 -3.63527 -1.85236 0
M  V30 16677 H 1696.1 -4.08316 -0.790608 0
M  V30 16678 H 1694.67 -2.97477 -2.2486 0
M  V30 16679 N 1696.86 0.307236 -1.54576 0
M  V30 16680 C 1698.11 1.04115 -1.73218 0
M  V30 16681 C 1698.43 1.88008 -0.517482 0
M  V30 16682 O 1697.7 1.90219 0.468336 0
M  V30 16683 H 1696.28 0.387388 -0.638701 0
M  V30 16684 H 1698.94 0.339727 -1.91916 0
M  V30 16685 H 1698.04 1.69784 -2.61877 0
M  V30 16686 N 1698.34 1.46926 0.570122 0
M  V30 16687 C 1699.25 1.6105 1.70587 0
M  V30 16688 C 1700.26 0.493636 1.66851 0
M  V30 16689 O 1701.44 0.759454 1.86532 0
M  V30 16690 C 1698.5 1.60913 3.07096 0
M  V30 16691 C 1697.56 2.83928 3.21999 0
M  V30 16692 C 1696.8 2.83788 4.51996 0
M  V30 16693 O 1697.02 1.93256 5.36664 0
M  V30 16694 O 1695.95 3.75491 4.70415 0
M  V30 16695 H 1699.78 2.57126 1.61616 0
M  V30 16696 H 1697.37 1.29863 0.738637 0
M  V30 16697 H 1699.25 1.63576 3.88356 0
M  V30 16698 H 1697.92 0.680005 3.16477 0
M  V30 16699 H 1696.83 2.86814 2.40185 0
M  V30 16700 H 1698.16 3.76091 3.17516 0
M  V30 16701 N 1699.82 -0.815801 1.34842 0
M  V30 16702 C 1701.06 -1.57474 1.27788 0
M  V30 16703 C 1701.39 -1.9362 -0.149956 0
M  V30 16704 O 1700.67 -1.60605 -1.0971 0
M  V30 16705 C 1700.95 -2.86952 2.17556 0
M  V30 16706 C 1700.81 -2.5734 3.68912 0
M  V30 16707 C 1702.12 -3.88582 2.0662 0
M  V30 16708 H 1699.24 -0.57135 0.465541 0
M  V30 16709 H 1701.89 -0.939271 1.6516 0
M  V30 16710 H 1700.04 -3.41182 1.85815 0
M  V30 16711 H 1701.71 -2.09365 4.11052 0
M  V30 16712 H 1699.95 -1.90674 3.89648 0
M  V30 16713 H 1700.62 -3.49702 4.27098 0
M  V30 16714 H 1703.1 -3.43726 2.34503 0
M  V30 16715 H 1701.97 -4.7697 2.71644 0
M  V30 16716 H 1702.23 -4.29564 1.04532 0
M  V30 16717 N 1701.29 -1.18689 -1.03686 0
M  V30 16718 C 1702.22 -0.94094 -2.13702 0
M  V30 16719 C 1703.2 0.12277 -1.69656 0
M  V30 16720 O 1704.39 -0.0306085 -1.94176 0
M  V30 16721 C 1701.52 -0.470054 -3.44104 0
M  V30 16722 C 1700.47 -1.47468 -4.01792 0
M  V30 16723 C 1699.8 -0.861174 -5.2772 0
M  V30 16724 C 1701.1 -2.85254 -4.37524 0
M  V30 16725 H 1702.79 -1.86102 -2.34534 0
M  V30 16726 H 1700.34 -0.896207 -1.12713 0
M  V30 16727 H 1702.29 -0.28533 -4.20433 0
M  V30 16728 H 1701.02 0.485604 -3.2297 0
M  V30 16729 H 1699.68 -1.64641 -3.2755 0
M  V30 16730 H 1699.32 0.10179 -5.02897 0
M  V30 16731 H 1699.02 -1.53196 -5.67278 0
M  V30 16732 H 1700.55 -0.687066 -6.06722 0
M  V30 16733 H 1701.96 -2.71711 -5.04823 0
M  V30 16734 H 1700.36 -3.49051 -4.88143 0
M  V30 16735 H 1701.43 -3.38516 -3.47181 0
M  V30 16736 N 1702.77 1.22662 -0.989529 0
M  V30 16737 C 1703.68 2.28162 -0.545835 0
M  V30 16738 C 1704.7 1.69251 0.403762 0
M  V30 16739 O 1705.87 1.99563 0.271428 0
M  V30 16740 C 1702.94 3.46434 0.135808 0
M  V30 16741 C 1702 4.20673 -0.85633 0
M  V30 16742 C 1701.23 5.33298 -0.207121 0
M  V30 16743 O 1701.46 5.6157 0.99975 0
M  V30 16744 O 1700.39 5.94977 -0.910288 0
M  V30 16745 H 1704.22 2.68276 -1.42344 0
M  V30 16746 H 1701.8 1.28766 -0.757609 0
M  V30 16747 H 1703.68 4.18207 0.517776 0
M  V30 16748 H 1702.36 3.08252 0.988035 0
M  V30 16749 H 1701.26 3.51186 -1.28917 0
M  V30 16750 H 1702.6 4.62726 -1.67765 0
M  V30 16751 N 1704.25 0.762308 1.37937 0
M  V30 16752 C 1705.48 0.333458 2.04195 0
M  V30 16753 C 1705.89 -1.04118 1.57496 0
M  V30 16754 O 1705.25 -1.66289 0.751938 0
M  V30 16755 C 1705.3 0.35685 3.59734 0
M  V30 16756 O 1705.02 1.67725 4.04722 0
M  V30 16757 C 1706.52 -0.0847776 4.43219 0
M  V30 16758 H 1703.74 0.141107 0.655995 0
M  V30 16759 H 1706.29 1.03359 1.76457 0
M  V30 16760 H 1704.44 -0.294625 3.86278 0
M  V30 16761 H 1704.86 1.60939 4.99198 0
M  V30 16762 H 1706.33 -0.017252 5.51997 0
M  V30 16763 H 1706.81 -1.13387 4.24311 0
M  V30 16764 H 1707.41 0.538151 4.21882 0
M  V30 16765 N 1705.73 -1.49049 0.51208 0
M  V30 16766 C 1706.69 -2.27838 -0.249491 0
M  V30 16767 C 1707.69 -1.34321 -0.884004 0
M  V30 16768 O 1708.88 -1.57379 -0.74682 0
M  V30 16769 C 1706.01 -3.12637 -1.35908 0
M  V30 16770 H 1707.21 -2.96625 0.442029 0
M  V30 16771 H 1704.76 -1.53996 0.267406 0
M  V30 16772 H 1705.49 -2.48441 -2.0844 0
M  V30 16773 H 1705.28 -3.81408 -0.909427 0
M  V30 16774 H 1706.77 -3.72117 -1.89523 0
M  V30 16775 N 1707.21 -0.246397 -1.55662 0
M  V30 16776 C 1708.17 0.640041 -2.20082 0
M  V30 16777 C 1709.17 1.10313 -1.16994 0
M  V30 16778 O 1710.36 1.00792 -1.42079 0
M  V30 16779 C 1707.49 1.87964 -2.84398 0
M  V30 16780 H 1708.68 0.0780034 -2.99799 0
M  V30 16781 H 1706.24 0.00314588 -1.563 0
M  V30 16782 H 1706.97 2.48292 -2.08618 0
M  V30 16783 H 1706.76 1.5558 -3.59913 0
M  V30 16784 H 1708.25 2.51065 -3.33701 0
M  V30 16785 N 1708.68 1.57577 0.026722 0
M  V30 16786 C 1710.09 1.77689 0.573022 0
M  V30 16787 C 1710.45 0.877771 1.7547 0
M  V30 16788 O 1709.57 0.0732156 2.16276 0
M  V30 16789 C 1710.17 3.22239 1.0463 0
M  V30 16790 C 1708.72 3.4354 1.5381 0
M  V30 16791 C 1707.87 2.73163 0.47722 0
M  V30 16792 H 1710.82 1.57441 -0.199502 0
M  V30 16793 H 1710.84 3.28882 1.91355 0
M  V30 16794 H 1710.36 3.87654 0.186047 0
M  V30 16795 H 1708.46 2.83304 2.42012 0
M  V30 16796 H 1708.57 4.52158 1.58398 0
M  V30 16797 H 1706.93 2.37004 0.932793 0
M  V30 16798 H 1707.72 3.41261 -0.373605 0
M  V30 16799 N 1710.16 -0.299034 1.54737 0
M  V30 16800 C 1711.41 -1.03195 1.73767 0
M  V30 16801 C 1711.73 -1.87731 0.527445 0
M  V30 16802 O 1711 -1.90465 -0.458242 0
M  V30 16803 H 1709.58 -0.383996 0.640747 0
M  V30 16804 H 1712.24 -0.329544 1.92094 0
M  V30 16805 H 1711.34 -1.68393 2.62774 0
M  V30 16806 N 1711.64 -1.47227 -0.562322 0
M  V30 16807 C 1712.89 -1.53816 -1.32168 0
M  V30 16808 C 1713.22 -0.197649 -1.93192 0
M  V30 16809 O 1712.49 0.793178 -1.77592 0
M  V30 16810 C 1712.78 -2.65231 -2.43566 0
M  V30 16811 C 1712.63 -4.08882 -1.87445 0
M  V30 16812 C 1713.95 -2.72589 -3.45519 0
M  V30 16813 H 1711.07 -0.559947 -0.479195 0
M  V30 16814 H 1713.71 -1.7926 -0.629762 0
M  V30 16815 H 1711.86 -2.43667 -3.02587 0
M  V30 16816 H 1713.53 -4.41794 -1.32725 0
M  V30 16817 H 1711.77 -4.17401 -1.18149 0
M  V30 16818 H 1712.45 -4.82603 -2.67952 0
M  V30 16819 H 1714.92 -2.92028 -2.9641 0
M  V30 16820 H 1713.8 -3.5233 -4.20898 0
M  V30 16821 H 1714.06 -1.79444 -4.04045 0
M  V30 16822 N 1713.12 0.808639 -1.35273 0
M  V30 16823 C 1714.03 1.95198 -1.30134 0
M  V30 16824 C 1715.04 1.72769 -0.206587 0
M  V30 16825 O 1716.22 1.96633 -0.4356 0
M  V30 16826 C 1713.28 3.29747 -1.07087 0
M  V30 16827 C 1712.35 3.65086 -2.25855 0
M  V30 16828 C 1711.58 4.93215 -2.03898 0
M  V30 16829 O 1711.8 5.61487 -1.00439 0
M  V30 16830 O 1710.74 5.26765 -2.91208 0
M  V30 16831 H 1714.56 2.0248 -2.26353 0
M  V30 16832 H 1712.15 0.946124 -1.15624 0
M  V30 16833 H 1714.03 4.10302 -0.960734 0
M  V30 16834 H 1712.7 3.23401 -0.139177 0
M  V30 16835 H 1711.61 2.84917 -2.42432 0
M  V30 16836 H 1712.94 3.76135 -3.17464 0
M  V30 16837 N 1714.6 1.19237 1.03055 0
M  V30 16838 C 1715.87 0.903353 1.7349 0
M  V30 16839 C 1716.25 -0.591365 2.02648 0
M  V30 16840 O 1715.6 -1.54906 1.67978 0
M  V30 16841 C 1715.81 1.7615 3.01284 0
M  V30 16842 C 1717.16 1.99477 3.74825 0
M  V30 16843 O 1718.18 1.73287 3.11207 0
M  V30 16844 O 1717.04 2.43628 4.89191 0
M  V30 16845 H 1714.14 0.336512 0.755439 0
M  V30 16846 H 1716.68 1.30041 1.09029 0
M  V30 16847 H 1715.45 2.77428 2.75952 0
M  V30 16848 H 1715.08 1.36361 3.73486 0
M  V30 16849 N 1716.07 -1.22136 0.99602 0
M  V30 16850 C 1717.32 -1.9028 0.66907 0
M  V30 16851 C 1717.64 -1.7837 -0.802717 0
M  V30 16852 O 1718.84 -2.41458 -1.24138 0
M  V30 16853 C 1717.3 -3.4116 1.1462 0
M  V30 16854 C 1716.91 -3.617 2.64343 0
M  V30 16855 C 1718.65 -4.14985 0.893718 0
M  V30 16856 C 1716.56 -5.06297 3.05642 0
M  V30 16857 H 1715.49 -0.71255 0.246554 0
M  V30 16858 H 1718.14 -1.38304 1.20599 0
M  V30 16859 H 1716.52 -3.92337 0.537378 0
M  V30 16860 H 1717.69 -3.21002 3.30597 0
M  V30 16861 H 1716.01 -3.01212 2.87507 0
M  V30 16862 H 1718.61 -5.21564 1.17794 0
M  V30 16863 H 1718.95 -4.15952 -0.17013 0
M  V30 16864 H 1719.48 -3.69846 1.46488 0
M  V30 16865 H 1716.22 -5.10472 4.11216 0
M  V30 16866 H 1715.74 -5.47885 2.44094 0
M  V30 16867 H 1717.42 -5.74743 2.97118 0
M  V30 16868 N 1717.55 -0.769612 -1.37531 0
M  V30 16869 C 1718.78 -0.343069 -2.04543 0
M  V30 16870 C 1719.2 1.02583 -1.57665 0
M  V30 16871 O 1718.56 1.65692 -0.735915 0
M  V30 16872 C 1718.61 -0.392914 -3.58453 0
M  V30 16873 O 1717.71 0.607401 -4.07902 0
M  V30 16874 H 1717.05 -0.148905 -0.647088 0
M  V30 16875 H 1719.58 -1.04521 -1.75888 0
M  V30 16876 H 1719.59 -0.24945 -4.07237 0
M  V30 16877 H 1718.27 -1.39159 -3.91928 0
M  V30 16878 H 1716.85 0.427231 -3.70445 0
M  V30 16879 N 1719.03 1.48775 -0.519977 0
M  V30 16880 C 1720.28 2.02092 0.0177154 0
M  V30 16881 C 1720.6 1.40024 1.35714 0
M  V30 16882 O 1719.87 0.562115 1.87662 0
M  V30 16883 H 1718.45 0.746939 0.00953578 0
M  V30 16884 H 1721.11 1.82595 -0.681535 0
M  V30 16885 H 1720.21 3.11815 0.133431 0
M  V30 16886 N 1720.51 0.254649 1.55529 0
M  V30 16887 C 1721.44 -0.635656 2.24681 0
M  V30 16888 C 1722.42 -1.17519 1.22977 0
M  V30 16889 O 1723.6 -1.21311 1.51649 0
M  V30 16890 C 1720.73 -1.82922 2.95224 0
M  V30 16891 C 1719.69 -1.42212 4.03683 0
M  V30 16892 C 1719.01 -2.69713 4.61691 0
M  V30 16893 C 1720.31 -0.587436 5.18986 0
M  V30 16894 H 1722.01 -0.0590063 2.99342 0
M  V30 16895 H 1719.55 -0.02694 1.43975 0
M  V30 16896 H 1721.51 -2.45777 3.42304 0
M  V30 16897 H 1720.23 -2.43137 2.18064 0
M  V30 16898 H 1718.89 -0.81687 3.57383 0
M  V30 16899 H 1718.54 -3.28143 3.81223 0
M  V30 16900 H 1718.24 -2.43194 5.34911 0
M  V30 16901 H 1719.76 -3.33453 5.11509 0
M  V30 16902 H 1721.18 -1.12048 5.62244 0
M  V30 16903 H 1719.57 -0.417988 5.98643 0
M  V30 16904 H 1720.64 0.398577 4.83259 0
M  V30 16905 N 1721.99 -1.57589 -0.0183649 0
M  V30 16906 C 1723.4 -1.7799 -0.563591 0
M  V30 16907 C 1723.75 -0.887064 -1.75002 0
M  V30 16908 O 1722.87 -0.0846843 -2.16234 0
M  V30 16909 C 1723.47 -3.2279 -1.02919 0
M  V30 16910 C 1722.03 -3.44351 -1.51986 0
M  V30 16911 C 1721.17 -2.73412 -0.462727 0
M  V30 16912 H 1724.13 -1.57333 0.207849 0
M  V30 16913 H 1724.15 -3.29892 -1.89609 0
M  V30 16914 H 1723.66 -3.87747 -0.165487 0
M  V30 16915 H 1721.76 -2.84583 -2.40506 0
M  V30 16916 H 1721.87 -4.52992 -1.55998 0
M  V30 16917 H 1720.24 -2.37496 -0.920211 0
M  V30 16918 H 1721.02 -3.41058 0.391698 0
M  V30 16919 N 1723.46 0.290824 -1.54893 0
M  V30 16920 C 1724.69 1.04775 -1.78988 0
M  V30 16921 C 1725.11 1.79799 -0.552637 0
M  V30 16922 O 1724.47 1.74349 0.497199 0
M  V30 16923 C 1724.52 1.99603 -3.00318 0
M  V30 16924 O 1723.62 3.08079 -2.74155 0
M  V30 16925 H 1722.97 0.300478 -0.592123 0
M  V30 16926 H 1725.5 0.325151 -2.02 0
M  V30 16927 H 1725.51 2.41884 -3.28567 0
M  V30 16928 H 1724.18 1.44406 -3.90025 0
M  V30 16929 H 1722.76 2.7024 -2.56953 0
M  V30 16930 N 1724.94 1.47523 0.554506 0
M  V30 16931 C 1726.19 1.53982 1.30897 0
M  V30 16932 C 1726.51 0.20487 1.93921 0
M  V30 16933 O 1725.78 -0.771422 1.80072 0
M  V30 16934 H 1724.36 0.567206 0.486092 0
M  V30 16935 H 1727.02 1.83838 0.647284 0
M  V30 16936 H 1726.12 2.30783 2.10109 0
M  V30 16937 N 1726.42 -0.801453 1.357 0
M  V30 16938 C 1727.33 -1.94505 1.31167 0
M  V30 16939 C 1728.35 -1.72657 0.215747 0
M  V30 16940 O 1729.52 -1.96399 0.446022 0
M  V30 16941 C 1726.59 -3.29175 1.08834 0
M  V30 16942 C 1725.65 -3.63883 2.27788 0
M  V30 16943 C 1724.88 -4.92127 2.06511 0
M  V30 16944 O 1725.1 -5.60947 1.03416 0
M  V30 16945 O 1724.04 -5.25213 2.93998 0
M  V30 16946 H 1727.86 -2.01277 2.27423 0
M  V30 16947 H 1725.45 -0.939979 1.16124 0
M  V30 16948 H 1727.33 -4.09787 0.98248 0
M  V30 16949 H 1726.01 -3.23322 0.156326 0
M  V30 16950 H 1724.91 -2.83627 2.4394 0
M  V30 16951 H 1726.25 -3.74446 3.19454 0
M  V30 16952 N 1727.9 -1.19782 -1.02421 0
M  V30 16953 C 1729.14 -1.0048 -1.76158 0
M  V30 16954 C 1729.48 0.46281 -1.88605 0
M  V30 16955 O 1728.75 1.34366 -1.40628 0
M  V30 16956 C 1729.04 -1.67999 -3.1851 0
M  V30 16957 C 1728.89 -3.22155 -3.13905 0
M  V30 16958 C 1730.21 -1.40681 -4.17009 0
M  V30 16959 H 1727.33 -0.366436 -0.639448 0
M  V30 16960 H 1729.97 -1.47688 -1.19534 0
M  V30 16961 H 1728.12 -1.27862 -3.66856 0
M  V30 16962 H 1729.79 -3.71536 -2.7342 0
M  V30 16963 H 1728.03 -3.53456 -2.51498 0
M  V30 16964 H 1728.7 -3.64548 -4.14498 0
M  V30 16965 H 1731.18 -1.75488 -3.77284 0
M  V30 16966 H 1730.06 -1.90467 -5.14795 0
M  V30 16967 H 1730.32 -0.332889 -4.40845 0
M  V30 16968 N 1729.38 1.21606 -1.00248 0
M  V30 16969 C 1730.31 2.26159 -0.580911 0
M  V30 16970 C 1731.29 1.65402 0.397017 0
M  V30 16971 O 1732.47 1.92089 0.285552 0
M  V30 16972 C 1729.6 3.47168 0.0957564 0
M  V30 16973 C 1728.56 4.20425 -0.801695 0
M  V30 16974 C 1727.88 5.34699 0.00842241 0
M  V30 16975 C 1729.18 4.78086 -2.10311 0
M  V30 16976 H 1730.88 2.61675 -1.45487 0
M  V30 16977 H 1728.42 1.25786 -0.700995 0
M  V30 16978 H 1730.38 4.19477 0.402141 0
M  V30 16979 H 1729.1 3.10775 1.00433 0
M  V30 16980 H 1727.76 3.49963 -1.09187 0
M  V30 16981 H 1727.41 4.94548 0.918206 0
M  V30 16982 H 1727.11 5.84639 -0.589105 0
M  V30 16983 H 1728.63 6.09819 0.30868 0
M  V30 16984 H 1730.05 5.42287 -1.86004 0
M  V30 16985 H 1728.44 5.38405 -2.65028 0
M  V30 16986 H 1729.51 3.97607 -2.77555 0
M  V30 16987 N 1730.86 0.776895 1.37121 0
M  V30 16988 C 1731.77 0.167552 2.34001 0
M  V30 16989 C 1732.78 -0.673609 1.60432 0
M  V30 16990 O 1733.96 -0.592327 1.92493 0
M  V30 16991 C 1731.02 -0.697343 3.39615 0
M  V30 16992 C 1730.08 0.160869 4.28998 0
M  V30 16993 C 1729.32 -0.662841 5.29568 0
M  V30 16994 O 1729.54 -1.89962 5.37839 0
M  V30 16995 O 1728.47 -0.0693304 6.0186 0
M  V30 16996 H 1732.3 0.968247 2.87852 0
M  V30 16997 H 1729.88 0.538137 1.39372 0
M  V30 16998 H 1731.77 -1.19094 4.04221 0
M  V30 16999 H 1730.44 -1.47614 2.88083 0
M  V30 17000 H 1729.35 0.700941 3.67475 0
M  V30 17001 H 1730.68 0.902875 4.83848 0
M  V30 17002 N 1732.33 -1.48497 0.527859 0
M  V30 17003 C 1733.56 -2.069 -0.00302594 0
M  V30 17004 C 1733.98 -1.38469 -1.28342 0
M  V30 17005 O 1733.33 -0.471524 -1.76303 0
M  V30 17006 C 1733.38 -3.60749 -0.232871 0
M  V30 17007 O 1733.11 -4.26609 0.996797 0
M  V30 17008 C 1734.61 -4.35941 -0.804376 0
M  V30 17009 H 1731.83 -0.67021 0.0325559 0
M  V30 17010 H 1734.37 -1.90916 0.732897 0
M  V30 17011 H 1732.53 -3.76346 -0.918837 0
M  V30 17012 H 1732.94 -5.18725 0.776217 0
M  V30 17013 H 1734.41 -5.4437 -0.914635 0
M  V30 17014 H 1734.89 -4.00225 -1.80876 0
M  V30 17015 H 1735.5 -4.25017 -0.155041 0
M  V30 17016 N 1733.81 -0.262893 -1.55392 0
M  V30 17017 C 1734.77 0.616662 -2.20749 0
M  V30 17018 C 1735.77 1.09066 -1.18158 0
M  V30 17019 O 1736.96 0.992797 -1.4314 0
M  V30 17020 C 1734.1 1.84937 -2.86376 0
M  V30 17021 H 1735.29 0.0462013 -2.99864 0
M  V30 17022 H 1732.84 -0.013432 -1.56294 0
M  V30 17023 H 1733.58 2.46066 -2.1124 0
M  V30 17024 H 1733.36 1.51754 -3.61543 0
M  V30 17025 H 1734.85 2.47511 -3.36345 0
M  V30 17026 N 1735.29 1.57597 0.0100073 0
M  V30 17027 C 1736.25 2.06745 0.989401 0
M  V30 17028 C 1737.25 0.97499 1.27869 0
M  V30 17029 O 1738.44 1.23798 1.22555 0
M  V30 17030 C 1735.57 2.50048 2.31709 0
M  V30 17031 H 1736.77 2.9454 0.564473 0
M  V30 17032 H 1734.32 1.54168 0.257266 0
M  V30 17033 H 1735.06 1.65466 2.78911 0
M  V30 17034 H 1734.84 3.29823 2.12035 0
M  V30 17035 H 1736.33 2.88433 3.01987 0
M  V30 17036 N 1736.77 -0.282606 1.55045 0
M  V30 17037 C 1738.18 -0.854338 1.66006 0
M  V30 17038 C 1738.53 -1.87408 0.580753 0
M  V30 17039 O 1737.65 -2.14588 -0.279449 0
M  V30 17040 C 1738.25 -1.55637 3.00936 0
M  V30 17041 C 1736.81 -2.07626 3.13956 0
M  V30 17042 C 1735.96 -0.915064 2.61767 0
M  V30 17043 H 1738.91 -0.0591711 1.5859 0
M  V30 17044 H 1738.93 -2.42289 2.93388 0
M  V30 17045 H 1738.44 -0.813942 3.79469 0
M  V30 17046 H 1736.54 -2.84859 2.40179 0
M  V30 17047 H 1736.65 -2.29816 4.20382 0
M  V30 17048 H 1735.02 -1.30577 2.18682 0
M  V30 17049 H 1735.8 -0.186298 3.42794 0
M  V30 17050 N 1738.25 -1.47815 -0.546675 0
M  V30 17051 C 1739.49 -1.54674 -1.30078 0
M  V30 17052 C 1739.81 -0.215151 -1.93809 0
M  V30 17053 O 1739.08 0.761862 -1.80478 0
M  V30 17054 H 1737.66 -0.569776 -0.483078 0
M  V30 17055 H 1740.33 -1.84178 -0.637525 0
M  V30 17056 H 1739.42 -2.31894 -2.08882 0
M  V30 17057 N 1739.72 0.794246 -1.36123 0
M  V30 17058 C 1740.97 1.55421 -1.30277 0
M  V30 17059 C 1741.3 1.93834 0.119134 0
M  V30 17060 O 1740.58 1.6233 1.07141 0
M  V30 17061 C 1740.86 2.83454 -2.22094 0
M  V30 17062 C 1740.71 2.51439 -3.72959 0
M  V30 17063 C 1742.03 3.85246 -2.12776 0
M  V30 17064 H 1739.15 0.563871 -0.474572 0
M  V30 17065 H 1741.79 0.912877 -1.66633 0
M  V30 17066 H 1739.94 3.38182 -1.9122 0
M  V30 17067 H 1741.62 2.02799 -4.14331 0
M  V30 17068 H 1739.86 1.84451 -3.92632 0
M  V30 17069 H 1740.53 3.42863 -4.32608 0
M  V30 17070 H 1743.01 3.39952 -2.39942 0
M  V30 17071 H 1741.88 4.72588 -2.79198 0
M  V30 17072 H 1742.14 4.27847 -1.11353 0
M  V30 17073 N 1741.2 1.20323 1.01785 0
M  V30 17074 C 1742.11 0.966603 2.13761 0
M  V30 17075 C 1743.13 -0.0771059 1.73829 0
M  V30 17076 O 1744.3 0.110054 2.01099 0
M  V30 17077 C 1741.37 0.520405 3.42772 0
M  V30 17078 C 1740.43 1.63482 3.96954 0
M  V30 17079 C 1739.66 1.20981 5.19807 0
M  V30 17080 O 1739.89 0.0779814 5.70347 0
M  V30 17081 O 1738.82 2.01674 5.67108 0
M  V30 17082 H 1742.65 1.90414 2.36593 0
M  V30 17083 H 1740.23 0.986997 1.12155 0
M  V30 17084 H 1742.11 0.280747 4.20464 0
M  V30 17085 H 1740.79 -0.388563 3.21359 0
M  V30 17086 H 1739.69 1.92874 3.20547 0
M  V30 17087 H 1741.03 2.52074 4.22752 0
M  V30 17088 N 1742.68 -1.21073 1.00892 0
M  V30 17089 C 1743.96 -1.85871 0.609214 0
M  V30 17090 C 1744.34 -1.90334 -0.913023 0
M  V30 17091 O 1743.68 -1.40552 -1.80159 0
M  V30 17092 C 1743.89 -3.25918 1.24813 0
M  V30 17093 C 1745.24 -4.02274 1.35871 0
M  V30 17094 O 1746.27 -3.35244 1.20375 0
M  V30 17095 O 1745.13 -5.22296 1.60838 0
M  V30 17096 H 1742.22 -0.800105 0.20919 0
M  V30 17097 H 1744.77 -1.28724 1.10581 0
M  V30 17098 H 1743.54 -3.17392 2.28862 0
M  V30 17099 H 1743.16 -3.90688 0.738124 0
M  V30 17100 N 1744.16 -0.784156 -1.36707 0
M  V30 17101 C 1745.41 -0.350748 -1.98627 0
M  V30 17102 C 1745.72 1.08208 -1.62943 0
M  V30 17103 O 1746.93 1.6175 -2.18058 0
M  V30 17104 C 1745.38 -0.576173 -3.55258 0
M  V30 17105 C 1744.99 -2.02008 -3.99871 0
M  V30 17106 C 1746.73 -0.207008 -4.23995 0
M  V30 17107 C 1744.64 -2.19244 -5.4926 0
M  V30 17108 H 1743.57 -0.127403 -0.743158 0
M  V30 17109 H 1746.22 -0.965044 -1.56074 0
M  V30 17110 H 1744.6 0.10776 -3.95853 0
M  V30 17111 H 1745.78 -2.73998 -3.70489 0
M  V30 17112 H 1744.09 -2.34699 -3.43955 0
M  V30 17113 H 1746.69 -0.314139 -5.33776 0
M  V30 17114 H 1747.03 0.844253 -4.07649 0
M  V30 17115 H 1747.57 -0.843971 -3.88744 0
M  V30 17116 H 1744.31 -3.22734 -5.70546 0
M  V30 17117 H 1743.83 -1.51752 -5.80286 0
M  V30 17118 H 1745.5 -1.99703 -6.15408 0
M  V30 17119 N 1745.64 1.48215 -0.535727 0
M  V30 17120 C 1746.86 2.07399 -0.00589172 0
M  V30 17121 C 1747.29 1.38886 1.26856 0
M  V30 17122 O 1746.64 0.456684 1.75454 0
M  V30 17123 C 1746.69 3.60071 0.195203 0
M  V30 17124 O 1745.8 3.92596 1.26261 0
M  V30 17125 H 1745.14 0.662689 -0.0416988 0
M  V30 17126 H 1747.67 1.90543 -0.745281 0
M  V30 17127 H 1747.68 4.05873 0.416085 0
M  V30 17128 H 1746.35 4.0934 -0.735747 0
M  V30 17129 H 1744.93 3.58567 1.02393 0
M  V30 17130 N 1747.11 0.27113 1.5525 0
M  V30 17131 C 1748.36 -0.346106 1.99114 0
M  V30 17132 C 1748.68 -1.56677 1.16092 0
M  V30 17133 O 1747.95 -1.94305 0.249472 0
M  V30 17134 H 1746.53 -0.13087 0.735447 0
M  V30 17135 H 1749.2 0.375542 1.91248 0
M  V30 17136 H 1748.29 -0.638703 3.05495 0
M  V30 17137 N 1748.59 -1.576 -0.00164943 0
M  V30 17138 C 1749.52 -2.11354 -0.992554 0
M  V30 17139 C 1750.5 -1.0223 -1.35952 0
M  V30 17140 O 1751.69 -1.29904 -1.44356 0
M  V30 17141 C 1748.82 -2.61549 -2.28494 0
M  V30 17142 C 1747.77 -3.75185 -2.05962 0
M  V30 17143 C 1747.1 -4.11688 -3.412 0
M  V30 17144 C 1748.4 -5.02526 -1.42355 0
M  V30 17145 H 1750.09 -2.94398 -0.544986 0
M  V30 17146 H 1747.64 -1.4162 -0.260702 0
M  V30 17147 H 1749.59 -2.97782 -2.98168 0
M  V30 17148 H 1748.32 -1.75625 -2.75361 0
M  V30 17149 H 1746.97 -3.39343 -1.38714 0
M  V30 17150 H 1746.62 -3.22789 -3.85767 0
M  V30 17151 H 1746.32 -4.88246 -3.2694 0
M  V30 17152 H 1747.85 -4.50478 -4.12192 0
M  V30 17153 H 1749.26 -5.3654 -2.01984 0
M  V30 17154 H 1747.66 -5.83878 -1.38589 0
M  V30 17155 H 1748.73 -4.83308 -0.392565 0
M  V30 17156 N 1750.07 0.274379 -1.55193 0
M  V30 17157 C 1751.48 0.845522 -1.66457 0
M  V30 17158 C 1751.83 1.87097 -0.590684 0
M  V30 17159 O 1750.96 2.14733 0.268065 0
M  V30 17160 C 1751.55 1.54039 -3.01757 0
M  V30 17161 C 1750.11 2.05958 -3.15053 0
M  V30 17162 C 1749.26 0.901169 -2.62248 0
M  V30 17163 H 1752.21 0.0507599 -1.58619 0
M  V30 17164 H 1752.23 2.40729 -2.94669 0
M  V30 17165 H 1751.74 0.793807 -3.79895 0
M  V30 17166 H 1749.84 2.83582 -2.41686 0
M  V30 17167 H 1749.96 2.27584 -4.21595 0
M  V30 17168 H 1748.32 1.29416 -2.19371 0
M  V30 17169 H 1749.1 0.168116 -3.42888 0
M  V30 17170 N 1751.55 1.48103 0.538828 0
M  V30 17171 C 1752.77 1.59568 1.32487 0
M  V30 17172 C 1753.2 0.252908 1.86392 0
M  V30 17173 O 1752.56 -0.774094 1.63944 0
M  V30 17174 C 1752.6 2.63863 2.45782 0
M  V30 17175 O 1751.71 2.20409 3.48559 0
M  V30 17176 H 1751.05 0.53538 0.392765 0
M  V30 17177 H 1753.58 1.94024 0.649299 0
M  V30 17178 H 1753.59 2.8486 2.92093 0
M  V30 17179 H 1752.26 3.61352 2.05906 0
M  V30 17180 H 1750.84 2.09588 3.08427 0
M  V30 17181 N 1753.03 -0.787016 1.36542 0
M  V30 17182 C 1754.27 -1.54194 1.30647 0
M  V30 17183 C 1754.6 -1.94671 -0.113195 0
M  V30 17184 O 1753.87 -1.65131 -1.05397 0
M  V30 17185 H 1752.45 -0.571857 0.480613 0
M  V30 17186 H 1755.11 -0.93761 1.70865 0
M  V30 17187 H 1754.2 -2.4484 1.93545 0
M  V30 17188 N 1754.5 -1.20861 -1.01145 0
M  V30 17189 C 1755.41 -0.977926 -2.13246 0
M  V30 17190 C 1756.43 0.0678862 -1.73868 0
M  V30 17191 O 1757.61 -0.120717 -2.01038 0
M  V30 17192 C 1754.67 -0.538575 -3.42491 0
M  V30 17193 C 1753.73 -1.65584 -3.96081 0
M  V30 17194 C 1752.97 -1.23736 -5.19158 0
M  V30 17195 O 1753.19 -0.108227 -5.70297 0
M  V30 17196 O 1752.12 -2.04679 -5.6603 0
M  V30 17197 H 1755.95 -1.91666 -2.3558 0
M  V30 17198 H 1753.53 -0.992931 -1.1163 0
M  V30 17199 H 1755.42 -0.303041 -4.20309 0
M  V30 17200 H 1754.09 0.371515 -3.21561 0
M  V30 17201 H 1753 -1.94572 -3.19519 0
M  V30 17202 H 1754.33 -2.54313 -4.21409 0
M  V30 17203 N 1755.98 1.20536 -1.01532 0
M  V30 17204 C 1757.23 1.90152 -0.704973 0
M  V30 17205 C 1757.56 1.78569 0.763343 0
M  V30 17206 O 1756.84 1.16906 1.55445 0
M  V30 17207 C 1757.12 3.41589 -1.1397 0
M  V30 17208 C 1756.97 3.62113 -2.66823 0
M  V30 17209 C 1758.29 4.34335 -0.709984 0
M  V30 17210 H 1755.41 0.690524 -0.257577 0
M  V30 17211 H 1758.05 1.41959 -1.26284 0
M  V30 17212 H 1756.2 3.82765 -0.66505 0
M  V30 17213 H 1757.87 3.30197 -3.2213 0
M  V30 17214 H 1756.12 3.05626 -3.07855 0
M  V30 17215 H 1756.79 4.68261 -2.92294 0
M  V30 17216 H 1759.26 4.00799 -1.11801 0
M  V30 17217 H 1758.14 5.38915 -1.04221 0
M  V30 17218 H 1758.4 4.40391 0.388408 0
M  V30 17219 N 1757.46 0.791395 1.36289 0
M  V30 17220 C 1758.39 0.205419 2.32595 0
M  V30 17221 C 1759.37 -0.660696 1.56744 0
M  V30 17222 O 1760.56 -0.594111 1.84889 0
M  V30 17223 C 1757.69 -0.659018 3.4099 0
M  V30 17224 C 1756.64 0.107364 4.27865 0
M  V30 17225 C 1755.97 -0.877795 5.27446 0
M  V30 17226 C 1757.27 1.29769 5.05922 0
M  V30 17227 H 1758.96 1.00999 2.8185 0
M  V30 17228 H 1756.51 0.487122 1.35511 0
M  V30 17229 H 1758.46 -1.07891 4.07354 0
M  V30 17230 H 1757.18 -1.49632 2.90307 0
M  V30 17231 H 1755.84 0.508253 3.6306 0
M  V30 17232 H 1755.49 -1.71018 4.73035 0
M  V30 17233 H 1755.19 -0.369429 5.86438 0
M  V30 17234 H 1756.71 -1.29621 5.96683 0
M  V30 17235 H 1758.13 0.953463 5.65316 0
M  V30 17236 H 1756.53 1.73949 5.74336 0
M  V30 17237 H 1757.6 2.09205 4.37449 0
M  V30 17238 N 1758.94 -1.47929 0.54358 0
M  V30 17239 C 1759.85 -2.33611 -0.215191 0
M  V30 17240 C 1760.87 -1.47343 -0.925526 0
M  V30 17241 O 1762.04 -1.80299 -0.897459 0
M  V30 17242 C 1759.11 -3.23755 -1.24031 0
M  V30 17243 C 1758.17 -4.25904 -0.538874 0
M  V30 17244 C 1757.4 -5.11741 -1.51516 0
M  V30 17245 O 1757.62 -4.9979 -2.74893 0
M  V30 17246 O 1756.56 -5.92722 -1.0471 0
M  V30 17247 H 1760.38 -2.99765 0.487279 0
M  V30 17248 H 1757.97 -1.46267 0.30434 0
M  V30 17249 H 1759.85 -3.79475 -1.8324 0
M  V30 17250 H 1758.53 -2.60245 -1.92495 0
M  V30 17251 H 1757.43 -3.73982 0.0940539 0
M  V30 17252 H 1758.77 -4.9209 0.104063 0
M  V30 17253 N 1760.42 -0.27936 -1.55104 0
M  V30 17254 C 1761.65 0.339429 -2.04097 0
M  V30 17255 C 1762.06 1.49151 -1.15756 0
M  V30 17256 O 1761.42 1.81624 -0.178558 0
M  V30 17257 C 1761.47 0.816392 -3.52161 0
M  V30 17258 O 1761.19 -0.289812 -4.3714 0
M  V30 17259 C 1762.69 1.50256 -4.17059 0
M  V30 17260 H 1759.91 0.0768615 -0.666583 0
M  V30 17261 H 1762.45 -0.412691 -2.00293 0
M  V30 17262 H 1760.61 1.51859 -3.56395 0
M  V30 17263 H 1761.02 0.0776213 -5.24443 0
M  V30 17264 H 1762.5 1.78767 -5.22251 0
M  V30 17265 H 1762.97 2.4355 -3.65486 0
M  V30 17266 H 1763.58 0.844106 -4.16839 0
M  V30 17267 N 1761.9 1.57599 -0.0067085 0
M  V30 17268 C 1762.86 2.07783 0.967417 0
M  V30 17269 C 1763.86 0.988498 1.26828 0
M  V30 17270 O 1765.05 1.25091 1.21235 0
M  V30 17271 C 1762.18 2.52491 2.29044 0
M  V30 17272 H 1763.37 2.95122 0.533201 0
M  V30 17273 H 1760.93 1.54432 0.2409 0
M  V30 17274 H 1761.66 1.68415 2.77141 0
M  V30 17275 H 1761.45 3.32054 2.08525 0
M  V30 17276 H 1762.94 2.9162 2.98911 0
M  V30 17277 N 1763.37 -0.266145 1.55336 0
M  V30 17278 C 1764.34 -1.31242 1.87904 0
M  V30 17279 C 1765.34 -1.42022 0.754083 0
M  V30 17280 O 1766.53 -1.41054 1.02222 0
M  V30 17281 C 1763.66 -2.69285 2.09041 0
M  V30 17282 H 1764.85 -1.03592 2.81441 0
M  V30 17283 H 1762.4 -0.504537 1.47933 0
M  V30 17284 H 1763.14 -3.02106 1.17909 0
M  V30 17285 H 1762.92 -2.62846 2.90954 0
M  V30 17286 H 1764.41 -3.4487 2.35488 0
M  V30 17287 N 1764.85 -1.48386 -0.530967 0
M  V30 17288 C 1766.26 -1.49904 -1.11291 0
M  V30 17289 C 1766.61 -0.268276 -1.94357 0
M  V30 17290 O 1765.74 0.624676 -2.07188 0
M  V30 17291 C 1766.33 -2.71622 -2.02501 0
M  V30 17292 C 1764.89 -2.76015 -2.55916 0
M  V30 17293 C 1764.04 -2.43403 -1.32855 0
M  V30 17294 H 1766.99 -1.55517 -0.316269 0
M  V30 17295 H 1767.01 -2.50084 -2.86772 0
M  V30 17296 H 1766.52 -3.61182 -1.42017 0
M  V30 17297 H 1764.62 -1.9066 -3.20124 0
M  V30 17298 H 1764.74 -3.77416 -2.95116 0
M  V30 17299 H 1763.1 -1.94537 -1.644 0
M  V30 17300 H 1763.88 -3.35202 -0.741242 0
M  V30 17301 N 1766.33 0.779763 -1.36958 0
M  V30 17302 C 1767.58 1.53499 -1.31463 0
M  V30 17303 C 1767.9 1.94728 0.102869 0
M  V30 17304 O 1767.17 1.65688 1.0452 0
M  V30 17305 H 1765.75 0.5693 -0.483638 0
M  V30 17306 H 1768.41 0.928536 -1.7136 0
M  V30 17307 H 1767.51 2.4381 -1.94841 0
M  V30 17308 N 1767.81 1.21396 1.00503 0
M  V30 17309 C 1769.05 1.0327 1.74537 0
M  V30 17310 C 1769.39 -0.432746 1.89317 0
M  V30 17311 O 1768.66 -1.32111 1.42747 0
M  V30 17312 C 1768.94 1.73045 3.15797 0
M  V30 17313 C 1768.8 3.27108 3.0874 0
M  V30 17314 C 1770.12 1.47298 4.14718 0
M  V30 17315 H 1767.24 0.376563 0.633537 0
M  V30 17316 H 1769.88 1.49571 1.17169 0
M  V30 17317 H 1768.03 1.33682 3.64776 0
M  V30 17318 H 1769.7 3.75839 2.67475 0
M  V30 17319 H 1767.94 3.57413 2.45843 0
M  V30 17320 H 1768.61 3.71096 4.08646 0
M  V30 17321 H 1771.09 1.81468 3.74444 0
M  V30 17322 H 1769.97 1.98633 5.11699 0
M  V30 17323 H 1770.23 0.402981 4.4026 0
M  V30 17324 N 1769.29 -1.19996 1.0217 0
M  V30 17325 C 1770.2 -2.26634 0.606136 0
M  V30 17326 C 1771.21 -1.70262 -0.358746 0
M  V30 17327 O 1772.39 -2.00212 -0.218422 0
M  V30 17328 C 1769.45 -3.46672 -0.0439096 0
M  V30 17329 C 1768.51 -4.18254 0.967563 0
M  V30 17330 C 1767.75 -5.32561 0.348443 0
M  V30 17331 O 1767.97 -5.64024 -0.850508 0
M  V30 17332 O 1766.9 -5.92354 1.06772 0
M  V30 17333 H 1770.73 -2.64407 1.49407 0
M  V30 17334 H 1768.31 -1.26712 0.791483 0
M  V30 17335 H 1770.2 -4.19433 -0.406714 0
M  V30 17336 H 1768.87 -3.10764 -0.90596 0
M  V30 17337 H 1767.78 -3.47644 1.38183 0
M  V30 17338 H 1769.11 -4.58116 1.79975 0
M  V30 17339 N 1770.76 -0.798611 -1.35867 0
M  V30 17340 C 1772.04 -0.298858 -1.93303 0
M  V30 17341 C 1772.42 1.21038 -1.72954 0
M  V30 17342 O 1771.77 2.00617 -1.09386 0
M  V30 17343 C 1771.98 -0.701532 -3.41876 0
M  V30 17344 C 1773.33 -0.686486 -4.19014 0
M  V30 17345 O 1774.35 -0.642577 -3.50356 0
M  V30 17346 O 1773.21 -0.737653 -5.41499 0
M  V30 17347 H 1770.3 -0.0762987 -0.823473 0
M  V30 17348 H 1772.85 -0.881773 -1.44993 0
M  V30 17349 H 1771.62 -1.74204 -3.50383 0
M  V30 17350 H 1771.24 -0.092994 -3.97491 0
M  V30 17351 N 1772.24 1.47639 -0.551417 0
M  V30 17352 C 1773.49 2.01687 -0.0230887 0
M  V30 17353 C 1773.8 1.43178 1.33265 0
M  V30 17354 O 1775.01 1.88853 1.95056 0
M  V30 17355 C 1773.47 3.59899 0.00918719 0
M  V30 17356 C 1773.07 4.27398 -1.34295 0
M  V30 17357 C 1774.82 4.21718 0.485213 0
M  V30 17358 C 1772.72 5.77601 -1.2701 0
M  V30 17359 H 1771.65 0.753984 -0.00486122 0
M  V30 17360 H 1774.31 1.6969 -0.698405 0
M  V30 17361 H 1772.69 3.88832 0.75003 0
M  V30 17362 H 1773.86 4.10113 -2.10105 0
M  V30 17363 H 1772.18 3.77542 -1.75644 0
M  V30 17364 H 1774.77 5.3178 0.558025 0
M  V30 17365 H 1775.12 3.88495 1.4959 0
M  V30 17366 H 1775.65 3.97294 -0.200594 0
M  V30 17367 H 1772.39 6.15433 -2.2566 0
M  V30 17368 H 1771.91 5.97239 -0.553709 0
M  V30 17369 H 1773.59 6.39692 -0.969726 0
M  V30 17370 N 1773.72 0.287581 1.54954 0
M  V30 17371 C 1774.95 -0.331442 2.04735 0
M  V30 17372 C 1775.37 -1.47752 1.16409 0
M  V30 17373 O 1774.73 -1.80545 0.165297 0
M  V30 17374 C 1774.78 -0.778123 3.52105 0
M  V30 17375 O 1773.88 -1.88422 3.66839 0
M  V30 17376 H 1773.22 -0.0666173 0.66065 0
M  V30 17377 H 1775.75 0.425516 2.00126 0
M  V30 17378 H 1775.76 -1.07054 3.93705 0
M  V30 17379 H 1774.44 0.0603184 4.15856 0
M  V30 17380 H 1773.01 -1.59338 3.37144 0
M  V30 17381 N 1775.2 -1.57593 0.0150662 0
M  V30 17382 C 1776.45 -1.90836 -0.665282 0
M  V30 17383 C 1776.77 -0.890693 -1.73469 0
M  V30 17384 O 1776.04 0.0698113 -1.95776 0
M  V30 17385 H 1774.62 -0.704377 -0.24872 0
M  V30 17386 H 1777.28 -1.94809 0.0595521 0
M  V30 17387 H 1776.38 -2.91043 -1.12697 0
M  V30 17388 N 1776.68 0.257904 -1.55475 0
M  V30 17389 C 1777.61 1.32303 -1.92401 0
M  V30 17390 C 1778.59 1.50767 -0.787617 0
M  V30 17391 O 1779.77 1.63559 -1.047 0
M  V30 17392 C 1776.9 2.67984 -2.20912 0
M  V30 17393 C 1775.86 2.64231 -3.36699 0
M  V30 17394 C 1775.18 4.03604 -3.50725 0
M  V30 17395 C 1776.48 2.22177 -4.72689 0
M  V30 17396 H 1778.18 1.01646 -2.81618 0
M  V30 17397 H 1775.72 0.487523 -1.35496 0
M  V30 17398 H 1777.68 3.42622 -2.45332 0
M  V30 17399 H 1776.4 3.00254 -1.2851 0
M  V30 17400 H 1775.06 1.92049 -3.1227 0
M  V30 17401 H 1774.71 4.33122 -2.55763 0
M  V30 17402 H 1774.41 4.01983 -4.28583 0
M  V30 17403 H 1775.93 4.79959 -3.77455 0
M  V30 17404 H 1777.34 2.86543 -4.96554 0
M  V30 17405 H 1775.74 2.3169 -5.5357 0
M  V30 17406 H 1776.81 1.17326 -4.70492 0
M  V30 17407 N 1778.15 1.48666 0.52309 0
M  V30 17408 C 1779.57 1.50492 1.10495 0
M  V30 17409 C 1779.92 0.278579 1.94212 0
M  V30 17410 O 1779.04 -0.613679 2.07516 0
M  V30 17411 C 1779.64 2.72692 2.01058 0
M  V30 17412 C 1778.2 2.77368 2.54448 0
M  V30 17413 C 1777.34 2.44104 1.31562 0
M  V30 17414 H 1780.29 1.55682 0.308017 0
M  V30 17415 H 1780.31 2.51601 2.85442 0
M  V30 17416 H 1779.83 3.61931 1.401 0
M  V30 17417 H 1777.93 1.92356 3.19108 0
M  V30 17418 H 1778.04 3.78976 2.93111 0
M  V30 17419 H 1776.4 1.95407 1.63366 0
M  V30 17420 H 1777.19 3.35591 0.723455 0
M  V30 17421 N 1779.63 -0.772489 1.37369 0
M  V30 17422 C 1780.86 -1.56671 1.35901 0
M  V30 17423 C 1781.28 -1.88024 -0.0535538 0
M  V30 17424 O 1780.64 -1.49174 -1.03038 0
M  V30 17425 C 1780.69 -2.85417 2.20384 0
M  V30 17426 O 1779.79 -3.79761 1.60796 0
M  V30 17427 H 1779.13 -0.474596 0.464386 0
M  V30 17428 H 1781.66 -0.956162 1.80883 0
M  V30 17429 H 1781.67 -3.34527 2.33571 0
M  V30 17430 H 1780.35 -2.61926 3.2306 0
M  V30 17431 H 1778.93 -3.38403 1.56645 0
M  V30 17432 N 1781.11 -1.21927 -0.998575 0
M  V30 17433 C 1782.36 -1.03834 -1.73386 0
M  V30 17434 C 1782.68 0.428247 -1.90239 0
M  V30 17435 O 1781.95 1.30847 -1.45794 0
M  V30 17436 H 1780.53 -0.381225 -0.642399 0
M  V30 17437 H 1783.19 -1.53344 -1.20298 0
M  V30 17438 H 1782.29 -1.51155 -2.73054 0
M  V30 17439 N 1782.59 1.19452 -1.02805 0
M  V30 17440 C 1783.5 2.2631 -0.618147 0
M  V30 17441 C 1784.51 1.70449 0.349712 0
M  V30 17442 O 1785.69 2.00325 0.207801 0
M  V30 17443 C 1782.76 3.46691 0.0255242 0
M  V30 17444 C 1781.82 4.17735 -0.98973 0
M  V30 17445 C 1781.05 5.32369 -0.376681 0
M  V30 17446 O 1781.27 5.64467 0.820584 0
M  V30 17447 O 1780.21 5.9178 -1.09911 0
M  V30 17448 H 1784.03 2.63611 -1.50807 0
M  V30 17449 H 1781.62 1.2629 -0.798192 0
M  V30 17450 H 1783.5 4.19643 0.384464 0
M  V30 17451 H 1782.17 3.1124 0.889467 0
M  V30 17452 H 1781.08 3.46906 -1.40024 0
M  V30 17453 H 1782.41 4.57155 -1.82402 0
M  V30 17454 N 1784.07 0.805805 1.35442 0
M  V30 17455 C 1785.31 0.386379 1.99085 0
M  V30 17456 C 1785.65 -1.04356 1.63779 0
M  V30 17457 O 1784.92 -1.72386 0.900731 0
M  V30 17458 C 1785.2 0.569062 3.55575 0
M  V30 17459 C 1785.06 2.04387 4.00682 0
M  V30 17460 C 1786.38 -0.00574668 4.401 0
M  V30 17461 H 1783.49 0.141862 0.723218 0
M  V30 17462 H 1786.14 1.01519 1.60605 0
M  V30 17463 H 1784.29 0.0337767 3.88485 0
M  V30 17464 H 1785.96 2.64148 3.78184 0
M  V30 17465 H 1784.2 2.54059 3.5162 0
M  V30 17466 H 1784.87 2.12258 5.09559 0
M  V30 17467 H 1787.35 0.451387 4.13644 0
M  V30 17468 H 1786.22 0.151994 5.4869 0
M  V30 17469 H 1786.49 -1.09937 4.28213 0
M  V30 17470 N 1785.54 -1.47344 0.559239 0
M  V30 17471 C 1786.47 -2.32839 -0.175542 0
M  V30 17472 C 1787.46 -1.43914 -0.906787 0
M  V30 17473 O 1788.64 -1.72767 -0.886855 0
M  V30 17474 C 1785.77 -3.25735 -1.20474 0
M  V30 17475 C 1784.72 -4.23916 -0.589825 0
M  V30 17476 C 1784.05 -5.06151 -1.7238 0
M  V30 17477 C 1785.35 -5.2029 0.457733 0
M  V30 17478 H 1787.04 -2.94522 0.538225 0
M  V30 17479 H 1784.59 -1.41628 0.260282 0
M  V30 17480 H 1786.54 -3.84388 -1.72695 0
M  V30 17481 H 1785.27 -2.62111 -1.94847 0
M  V30 17482 H 1783.93 -3.66492 -0.0888897 0
M  V30 17483 H 1783.57 -4.38929 -2.45663 0
M  V30 17484 H 1783.27 -5.72625 -1.31813 0
M  V30 17485 H 1784.8 -5.67663 -2.24923 0
M  V30 17486 H 1786.21 -5.73296 0.0215019 0
M  V30 17487 H 1784.61 -5.94978 0.7824 0
M  V30 17488 H 1785.68 -4.65645 1.35286 0
M  V30 17489 N 1787.02 -0.295795 -1.54799 0
M  V30 17490 C 1787.93 0.592206 -2.27002 0
M  V30 17491 C 1788.95 1.1528 -1.30332 0
M  V30 17492 O 1790.12 1.1787 -1.63305 0
M  V30 17493 C 1787.19 1.75027 -2.99277 0
M  V30 17494 C 1786.25 1.22427 -4.11473 0
M  V30 17495 C 1785.48 2.32714 -4.80291 0
M  V30 17496 O 1785.71 3.52506 -4.48437 0
M  V30 17497 O 1784.64 1.997 -5.67806 0
M  V30 17498 H 1788.47 0.00666048 -3.03699 0
M  V30 17499 H 1786.05 -0.0624413 -1.49269 0
M  V30 17500 H 1787.93 2.42508 -3.44627 0
M  V30 17501 H 1786.61 2.32252 -2.25479 0
M  V30 17502 H 1785.52 0.515337 -3.70534 0
M  V30 17503 H 1786.85 0.697518 -4.87233 0
M  V30 17504 N 1788.5 1.57583 -0.0234236 0
M  V30 17505 C 1789.73 1.95861 0.666797 0
M  V30 17506 C 1790.14 0.899616 1.65989 0
M  V30 17507 O 1789.5 -0.119162 1.82111 0
M  V30 17508 C 1789.55 3.34198 1.37818 0
M  V30 17509 O 1789.27 4.36035 0.424887 0
M  V30 17510 C 1790.77 3.87074 2.16075 0
M  V30 17511 H 1787.99 0.645213 0.184233 0
M  V30 17512 H 1790.54 2.04338 -0.0814987 0
M  V30 17513 H 1788.69 3.26958 2.07792 0
M  V30 17514 H 1789.11 5.162 0.929394 0
M  V30 17515 H 1790.58 4.8623 2.61312 0
M  V30 17516 H 1791.06 3.21017 2.99741 0
M  V30 17517 H 1791.66 3.97565 1.5107 0
M  V30 17518 N 1789.98 -0.249655 1.5561 0
M  V30 17519 C 1790.94 -1.29242 1.89286 0
M  V30 17520 C 1791.94 -1.41214 0.769104 0
M  V30 17521 O 1793.13 -1.39962 1.03712 0
M  V30 17522 C 1790.26 -2.67053 2.11885 0
M  V30 17523 H 1791.46 -1.00601 2.82523 0
M  V30 17524 H 1789.01 -0.488819 1.4846 0
M  V30 17525 H 1789.75 -3.00838 1.21107 0
M  V30 17526 H 1789.53 -2.59745 2.93726 0
M  V30 17527 H 1791.02 -3.42353 2.39132 0
M  V30 17528 N 1791.46 -1.48941 -0.515198 0
M  V30 17529 C 1792.42 -1.64062 -1.60051 0
M  V30 17530 C 1793.42 -0.513101 -1.52394 0
M  V30 17531 O 1794.61 -0.77924 -1.558 0
M  V30 17532 C 1791.74 -1.6247 -2.99694 0
M  V30 17533 H 1792.94 -2.60849 -1.47978 0
M  V30 17534 H 1790.49 -1.37759 -0.738378 0
M  V30 17535 H 1791.22 -0.672141 -3.17258 0
M  V30 17536 H 1791.01 -2.4434 -3.0666 0
M  V30 17537 H 1792.5 -1.76273 -3.78573 0
M  V30 17538 N 1792.94 0.765193 -1.37777 0
M  V30 17539 C 1794.35 1.34186 -1.29811 0
M  V30 17540 C 1794.7 1.96133 0.0513426 0
M  V30 17541 O 1793.82 1.94272 0.953273 0
M  V30 17542 C 1794.42 2.43975 -2.35078 0
M  V30 17543 C 1792.98 2.97393 -2.30726 0
M  V30 17544 C 1792.12 1.70667 -2.18559 0
M  V30 17545 H 1795.07 0.564948 -1.48304 0
M  V30 17546 H 1795.1 3.23622 -2.00123 0
M  V30 17547 H 1794.61 1.98859 -3.33282 0
M  V30 17548 H 1792.71 3.46867 -1.36067 0
M  V30 17549 H 1792.82 3.52561 -3.24403 0
M  V30 17550 H 1791.19 1.93846 -1.65215 0
M  V30 17551 H 1791.97 1.27645 -3.18687 0
M  V30 17552 N 1794.41 1.22455 0.992094 0
M  V30 17553 C 1795.66 1.04752 1.72833 0
M  V30 17554 C 1795.98 -0.418152 1.90464 0
M  V30 17555 O 1795.25 -1.30072 1.46486 0
M  V30 17556 H 1793.83 0.384626 0.640368 0
M  V30 17557 H 1796.49 1.5398 1.19483 0
M  V30 17558 H 1795.59 1.52601 2.72249 0
M  V30 17559 N 1795.89 -1.18905 1.03437 0
M  V30 17560 C 1797.14 -1.89007 0.735135 0
M  V30 17561 C 1797.47 -1.7976 -0.734838 0
M  V30 17562 O 1796.75 -1.19365 -1.53565 0
M  V30 17563 C 1797.03 -3.39732 1.1939 0
M  V30 17564 C 1796.88 -3.57822 2.7255 0
M  V30 17565 C 1798.2 -4.33151 0.778993 0
M  V30 17566 H 1795.32 -0.686338 0.26853 0
M  V30 17567 H 1797.96 -1.39932 1.28527 0
M  V30 17568 H 1796.11 -3.81659 0.725861 0
M  V30 17569 H 1797.78 -3.25031 3.27342 0
M  V30 17570 H 1796.03 -3.0069 3.12679 0
M  V30 17571 H 1796.7 -4.63552 2.99706 0
M  V30 17572 H 1799.17 -3.98969 1.18164 0
M  V30 17573 H 1798.05 -5.37189 1.12781 0
M  V30 17574 H 1798.31 -4.40953 -0.318296 0
M  V30 17575 N 1797.37 -0.812977 -1.35013 0
M  V30 17576 C 1798.28 -0.229534 -2.33474 0
M  V30 17577 C 1799.3 0.630837 -1.62162 0
M  V30 17578 O 1800.47 0.541083 -1.93995 0
M  V30 17579 C 1797.54 0.607055 -3.41344 0
M  V30 17580 C 1796.6 -0.274554 -4.28421 0
M  V30 17581 C 1795.83 0.522202 -5.31139 0
M  V30 17582 O 1796.05 1.75636 -5.42686 0
M  V30 17583 O 1794.99 -0.0902666 -6.01832 0
M  V30 17584 H 1798.81 -1.04423 -2.85183 0
M  V30 17585 H 1796.4 -0.5749 -1.37896 0
M  V30 17586 H 1798.28 1.08335 -4.07236 0
M  V30 17587 H 1796.96 1.39924 -2.91895 0
M  V30 17588 H 1795.86 -0.798124 -3.65487 0
M  V30 17589 H 1797.2 -1.03084 -4.81284 0
M  V30 17590 N 1798.85 1.47045 -0.567045 0
M  V30 17591 C 1800.12 1.9559 0.0194544 0
M  V30 17592 C 1800.5 1.5097 1.47551 0
M  V30 17593 O 1799.85 0.753072 2.15734 0
M  V30 17594 C 1800.06 3.48734 -0.136263 0
M  V30 17595 C 1801.41 4.246 0.00401745 0
M  V30 17596 O 1802.43 3.56142 -0.0643042 0
M  V30 17597 O 1801.29 5.46287 0.152706 0
M  V30 17598 H 1798.39 0.82492 0.0586233 0
M  V30 17599 H 1800.93 1.57401 -0.634262 0
M  V30 17600 H 1799.71 3.74048 -1.14909 0
M  V30 17601 H 1799.33 3.93713 0.554612 0
M  V30 17602 N 1800.33 0.304 1.5464 0
M  V30 17603 C 1801.57 -0.305185 1.99378 0
M  V30 17604 C 1801.89 -1.54773 1.19602 0
M  V30 17605 O 1803.09 -2.23169 1.54621 0
M  V30 17606 C 1801.55 -0.594303 3.54959 0
M  V30 17607 C 1801.16 0.630078 4.43547 0
M  V30 17608 C 1802.9 -1.16452 4.08215 0
M  V30 17609 C 1800.81 0.313946 5.90566 0
M  V30 17610 H 1799.74 -0.11781 0.744739 0
M  V30 17611 H 1802.39 0.413174 1.78788 0
M  V30 17612 H 1800.77 -1.37233 3.71461 0
M  V30 17613 H 1801.95 1.40619 4.3882 0
M  V30 17614 H 1800.26 1.11914 4.01079 0
M  V30 17615 H 1802.86 -1.41534 5.15628 0
M  V30 17616 H 1803.2 -2.10773 3.58999 0
M  V30 17617 H 1803.73 -0.448123 3.95268 0
M  V30 17618 H 1800.47 1.2258 6.43937 0
M  V30 17619 H 1799.99 -0.424841 5.98294 0
M  V30 17620 H 1801.67 -0.083395 6.46946 0
M  V30 17621 N 1801.8 -1.57568 0.0317802 0
M  V30 17622 C 1803.03 -1.9662 -0.659953 0
M  V30 17623 C 1803.45 -0.908334 -1.64715 0
M  V30 17624 O 1802.81 0.130491 -1.8083 0
M  V30 17625 C 1802.86 -3.34765 -1.34033 0
M  V30 17626 O 1801.96 -3.31317 -2.45566 0
M  V30 17627 H 1801.3 -0.641024 -0.17316 0
M  V30 17628 H 1803.83 -2.04382 0.0944231 0
M  V30 17629 H 1803.84 -3.71056 -1.69651 0
M  V30 17630 H 1802.52 -4.11302 -0.616716 0
M  V30 17631 H 1801.1 -3.06746 -2.1204 0
M  V30 17632 N 1803.28 0.241399 -1.5574 0
M  V30 17633 C 1804.53 0.96675 -1.77478 0
M  V30 17634 C 1804.85 1.85644 -0.596757 0
M  V30 17635 O 1804.12 1.92035 0.387236 0
M  V30 17636 H 1802.7 0.35995 -0.654557 0
M  V30 17637 H 1805.36 0.258023 -1.93185 0
M  V30 17638 H 1804.46 1.58524 -2.68843 0
M  V30 17639 N 1804.76 1.49212 0.507292 0
M  V30 17640 C 1805.69 1.68326 1.61829 0
M  V30 17641 C 1806.67 0.531969 1.61568 0
M  V30 17642 O 1807.86 0.767104 1.78407 0
M  V30 17643 C 1804.99 1.74394 3.0034 0
M  V30 17644 C 1803.94 2.89251 3.15465 0
M  V30 17645 C 1803.27 2.80426 4.55264 0
M  V30 17646 C 1804.57 4.30269 2.96085 0
M  V30 17647 H 1806.26 2.6134 1.46087 0
M  V30 17648 H 1803.81 1.25765 0.701367 0
M  V30 17649 H 1805.76 1.86353 3.77956 0
M  V30 17650 H 1804.48 0.779748 3.17155 0
M  V30 17651 H 1803.14 2.76884 2.40272 0
M  V30 17652 H 1802.79 1.81928 4.68947 0
M  V30 17653 H 1802.49 3.57511 4.66326 0
M  V30 17654 H 1804.01 2.94384 5.34949 0
M  V30 17655 H 1805.43 4.4335 3.63475 0
M  V30 17656 H 1803.83 5.08527 3.18623 0
M  V30 17657 H 1804.9 4.45151 1.92272 0
M  V30 17658 N 1806.24 -0.757876 1.38181 0
M  V30 17659 C 1807.65 -1.33496 1.30521 0
M  V30 17660 C 1808 -1.96157 -0.0409405 0
M  V30 17661 O 1807.13 -1.94775 -0.942957 0
M  V30 17662 C 1807.72 -2.42725 2.36369 0
M  V30 17663 C 1806.28 -2.96165 2.323 0
M  V30 17664 C 1805.43 -1.69505 2.19461 0
M  V30 17665 H 1808.38 -0.557075 1.48601 0
M  V30 17666 H 1808.4 -3.22556 2.01836 0
M  V30 17667 H 1807.91 -1.97089 3.34331 0
M  V30 17668 H 1806.01 -3.4614 1.37904 0
M  V30 17669 H 1806.12 -3.50836 3.26269 0
M  V30 17670 H 1804.49 -1.92967 1.66241 0
M  V30 17671 H 1805.27 -1.25954 3.1936 0
M  V30 17672 N 1807.72 -1.22979 -0.985586 0
M  V30 17673 C 1808.94 -1.08615 -1.76685 0
M  V30 17674 C 1809.37 0.35859 -1.8465 0
M  V30 17675 O 1808.72 1.25924 -1.30433 0
M  V30 17676 C 1808.77 -1.71039 -3.17456 0
M  V30 17677 O 1807.88 -0.969018 -4.00854 0
M  V30 17678 H 1807.22 -0.38103 -0.543794 0
M  V30 17679 H 1809.75 -1.62927 -1.23757 0
M  V30 17680 H 1809.76 -1.76064 -3.68056 0
M  V30 17681 H 1808.43 -2.76168 -3.10973 0
M  V30 17682 H 1807.01 -0.995318 -3.59371 0
M  V30 17683 N 1809.19 1.18355 -1.04066 0
M  V30 17684 C 1810.44 1.87963 -0.742576 0
M  V30 17685 C 1810.76 1.80744 0.731899 0
M  V30 17686 O 1810.03 1.22576 1.52813 0
M  V30 17687 H 1808.61 0.69584 -0.271689 0
M  V30 17688 H 1811.28 1.43632 -1.31741 0
M  V30 17689 H 1810.37 2.93999 -1.04741 0
M  V30 17690 N 1810.67 0.820125 1.3458 0
M  V30 17691 C 1811.58 0.241913 2.33349 0
M  V30 17692 C 1812.6 -0.622228 1.62494 0
M  V30 17693 O 1813.77 -0.530787 1.9428 0
M  V30 17694 C 1810.84 -0.588944 3.41661 0
M  V30 17695 C 1809.9 0.29727 4.2827 0
M  V30 17696 C 1809.13 -0.494028 5.31409 0
M  V30 17697 O 1809.36 -1.72755 5.4361 0
M  V30 17698 O 1808.29 0.122182 6.01776 0
M  V30 17699 H 1812.12 1.05934 2.84626 0
M  V30 17700 H 1809.7 0.582205 1.37589 0
M  V30 17701 H 1811.58 -1.06174 4.07805 0
M  V30 17702 H 1810.26 -1.38374 2.92633 0
M  V30 17703 H 1809.17 0.817495 3.65059 0
M  V30 17704 H 1810.5 1.05635 4.80731 0
M  V30 17705 N 1812.15 -1.46743 0.574835 0
M  V30 17706 C 1813.4 -2.02718 0.0575005 0
M  V30 17707 C 1813.73 -1.4463 -1.29599 0
M  V30 17708 O 1813 -0.608422 -1.84739 0
M  V30 17709 C 1813.29 -3.60096 -0.016719 0
M  V30 17710 C 1813.14 -4.28584 1.36511 0
M  V30 17711 C 1814.46 -4.34149 -0.721324 0
M  V30 17712 H 1811.58 -0.73666 0.0223697 0
M  V30 17713 H 1814.22 -1.74975 0.74052 0
M  V30 17714 H 1812.37 -3.83864 -0.598396 0
M  V30 17715 H 1814.04 -4.16104 1.99135 0
M  V30 17716 H 1812.29 -3.88253 1.935 0
M  V30 17717 H 1812.96 -5.37293 1.26573 0
M  V30 17718 H 1815.43 -4.15479 -0.227256 0
M  V30 17719 H 1814.31 -5.43858 -0.742263 0
M  V30 17720 H 1814.57 -4.04637 -1.78106 0
M  V30 17721 N 1813.63 -0.312197 -1.54477 0
M  V30 17722 C 1814.56 0.551829 -2.26886 0
M  V30 17723 C 1815.54 1.12874 -1.27254 0
M  V30 17724 O 1816.72 1.15599 -1.56046 0
M  V30 17725 C 1813.85 1.71839 -3.01809 0
M  V30 17726 C 1812.81 1.27131 -4.08683 0
M  V30 17727 C 1812.13 2.52392 -4.71384 0
M  V30 17728 C 1813.43 0.394413 -5.20809 0
M  V30 17729 H 1815.13 -0.0521331 -2.99355 0
M  V30 17730 H 1812.67 -0.0265138 -1.43976 0
M  V30 17731 H 1814.63 2.32903 -3.5119 0
M  V30 17732 H 1813.35 2.34876 -2.26938 0
M  V30 17733 H 1812.01 0.683666 -3.60169 0
M  V30 17734 H 1811.66 3.13768 -3.93139 0
M  V30 17735 H 1811.36 2.23174 -5.43569 0
M  V30 17736 H 1812.88 3.14239 -5.23533 0
M  V30 17737 H 1814.3 0.911031 -5.66015 0
M  V30 17738 H 1812.69 0.195517 -5.99781 0
M  V30 17739 H 1813.76 -0.577661 -4.81447 0
M  V30 17740 N 1815.11 1.57549 -0.040136 0
M  V30 17741 C 1816.02 2.14351 0.953457 0
M  V30 17742 C 1817.03 1.09851 1.3494 0
M  V30 17743 O 1818.21 1.41965 1.42857 0
M  V30 17744 C 1815.27 2.66832 2.21363 0
M  V30 17745 C 1814.33 3.86088 1.87708 0
M  V30 17746 C 1813.57 4.36057 3.07718 0
M  V30 17747 O 1813.79 3.85147 4.20735 0
M  V30 17748 O 1812.72 5.27775 2.89374 0
M  V30 17749 H 1816.55 2.99549 0.500423 0
M  V30 17750 H 1814.14 1.48298 0.18112 0
M  V30 17751 H 1816.02 3.00605 2.95321 0
M  V30 17752 H 1814.69 1.84711 2.65826 0
M  V30 17753 H 1813.6 3.57222 1.11101 0
M  V30 17754 H 1814.93 4.69405 1.48053 0
M  V30 17755 N 1816.58 -0.233136 1.55866 0
M  V30 17756 C 1817.81 -0.976415 1.82411 0
M  V30 17757 C 1818.23 -1.78409 0.617724 0
M  V30 17758 O 1817.58 -1.77749 -0.413709 0
M  V30 17759 C 1817.64 -1.90328 3.07339 0
M  V30 17760 O 1817.36 -1.12828 4.23322 0
M  V30 17761 C 1818.86 -2.76142 3.46786 0
M  V30 17762 H 1816.08 -0.2867 0.606666 0
M  V30 17763 H 1818.62 -0.251863 2.02943 0
M  V30 17764 H 1816.78 -2.58193 2.88816 0
M  V30 17765 H 1817.19 -1.75643 4.94216 0
M  V30 17766 H 1818.66 -3.36901 4.37266 0
M  V30 17767 H 1819.14 -3.47953 2.68003 0
M  V30 17768 H 1819.75 -2.13708 3.67708 0
M  V30 17769 N 1818.06 -1.49479 -0.499372 0
M  V30 17770 C 1819.03 -1.6575 -1.58302 0
M  V30 17771 C 1820.03 -0.529236 -1.51841 0
M  V30 17772 O 1821.22 -0.795721 -1.54964 0
M  V30 17773 C 1818.35 -1.65639 -2.97954 0
M  V30 17774 H 1819.54 -2.62404 -1.45203 0
M  V30 17775 H 1817.09 -1.38535 -0.723725 0
M  V30 17776 H 1817.83 -0.705752 -3.16527 0
M  V30 17777 H 1817.61 -2.47578 -3.04051 0
M  V30 17778 H 1819.1 -1.80279 -3.76682 0
M  V30 17779 N 1819.54 0.750537 -1.38581 0
M  V30 17780 C 1820.5 1.84599 -1.35852 0
M  V30 17781 C 1821.5 1.58709 -0.258462 0
M  V30 17782 O 1822.69 1.66397 -0.51552 0
M  V30 17783 C 1819.83 3.22124 -1.11573 0
M  V30 17784 H 1821.02 1.88426 -2.33314 0
M  V30 17785 H 1818.57 0.952564 -1.23919 0
M  V30 17786 H 1819.31 3.23965 -0.147295 0
M  V30 17787 H 1819.09 3.42311 -1.91221 0
M  V30 17788 H 1820.58 4.02198 -1.12367 0
M  V30 17789 N 1821.02 1.235 0.979051 0
M  V30 17790 C 1822.43 1.06263 1.53509 0
M  V30 17791 C 1822.78 -0.369594 1.92687 0
M  V30 17792 O 1821.91 -1.25649 1.76185 0
M  V30 17793 C 1822.5 1.92276 2.78954 0
M  V30 17794 C 1821.06 1.79296 3.30953 0
M  V30 17795 C 1820.21 1.87898 2.03935 0
M  V30 17796 H 1823.16 1.37143 0.798588 0
M  V30 17797 H 1823.18 1.44835 3.51857 0
M  V30 17798 H 1822.69 2.96509 2.50408 0
M  V30 17799 H 1820.79 0.778512 3.64376 0
M  V30 17800 H 1820.91 2.62755 4.0062 0
M  V30 17801 H 1819.27 1.31494 2.18131 0
M  V30 17802 H 1820.05 2.93689 1.77769 0
M  V30 17803 N 1822.5 -1.17802 1.04693 0
M  V30 17804 C 1823.75 -1.87567 0.752534 0
M  V30 17805 C 1824.07 -1.81129 -0.722303 0
M  V30 17806 O 1823.34 -1.23385 -1.52161 0
M  V30 17807 H 1821.92 -0.69439 0.275376 0
M  V30 17808 H 1824.58 -1.42932 1.32501 0
M  V30 17809 H 1823.67 -2.9344 1.06299 0
M  V30 17810 N 1823.98 -0.827251 -1.34143 0
M  V30 17811 C 1825.22 -0.418003 -1.98445 0
M  V30 17812 C 1825.55 1.01737 -1.65418 0
M  V30 17813 O 1824.83 1.70932 -0.928042 0
M  V30 17814 C 1825.11 -0.625559 -3.54625 0
M  V30 17815 C 1824.97 -2.10736 -3.97379 0
M  V30 17816 C 1826.28 -0.0642701 -4.40053 0
M  V30 17817 H 1823.4 -0.15335 -0.72087 0
M  V30 17818 H 1826.05 -1.04062 -1.58969 0
M  V30 17819 H 1824.2 -0.095577 -3.88382 0
M  V30 17820 H 1825.87 -2.70131 -3.73934 0
M  V30 17821 H 1824.11 -2.59621 -3.47533 0
M  V30 17822 H 1824.78 -2.20338 -5.06118 0
M  V30 17823 H 1827.26 -0.517137 -4.12874 0
M  V30 17824 H 1826.13 -0.239267 -5.48378 0
M  V30 17825 H 1826.39 1.0311 -4.29908 0
M  V30 17826 N 1825.45 1.46436 -0.582609 0
M  V30 17827 C 1826.36 2.34099 0.153178 0
M  V30 17828 C 1827.38 1.49745 0.886135 0
M  V30 17829 O 1828.56 1.82615 0.849341 0
M  V30 17830 C 1825.62 3.26929 1.15404 0
M  V30 17831 C 1824.68 4.27183 0.425764 0
M  V30 17832 C 1823.91 5.15578 1.37895 0
M  V30 17833 O 1824.14 5.06903 2.61545 0
M  V30 17834 O 1823.07 5.9529 0.889585 0
M  V30 17835 H 1826.9 2.98368 -0.566585 0
M  V30 17836 H 1824.48 1.45409 -0.343013 0
M  V30 17837 H 1826.36 3.842 1.73114 0
M  V30 17838 H 1825.04 2.65257 1.85527 0
M  V30 17839 H 1823.95 3.73601 -0.193175 0
M  V30 17840 H 1825.28 4.91641 -0.234496 0
M  V30 17841 N 1826.93 0.320385 1.54309 0
M  V30 17842 C 1828.21 -0.337248 1.92671 0
M  V30 17843 C 1828.59 -1.70137 1.24967 0
M  V30 17844 O 1827.94 -2.25108 0.39224 0
M  V30 17845 C 1828.15 -0.432633 3.46308 0
M  V30 17846 C 1829.49 -0.694413 4.18883 0
M  V30 17847 O 1830.52 -0.515681 3.52447 0
M  V30 17848 O 1829.38 -1.039 5.36532 0
M  V30 17849 H 1826.47 -0.191985 0.804407 0
M  V30 17850 H 1829.02 0.369866 1.6562 0
M  V30 17851 H 1827.79 0.525553 3.87755 0
M  V30 17852 H 1827.41 -1.18745 3.79454 0
M  V30 17853 N 1828.41 -1.57525 0.0484906 0
M  V30 17854 C 1829.66 -1.91761 -0.625335 0
M  V30 17855 C 1829.97 -0.928421 -1.72162 0
M  V30 17856 O 1831.18 -1.16273 -2.45342 0
M  V30 17857 C 1829.63 -3.40571 -1.1636 0
M  V30 17858 C 1829.24 -4.47889 -0.0995687 0
M  V30 17859 C 1830.99 -3.83845 -1.81282 0
M  V30 17860 C 1828.89 -5.87811 -0.650563 0
M  V30 17861 H 1827.82 -0.71567 -0.237346 0
M  V30 17862 H 1830.47 -1.83127 0.116944 0
M  V30 17863 H 1828.86 -3.44201 -1.95811 0
M  V30 17864 H 1830.03 -4.55846 0.673904 0
M  V30 17865 H 1828.34 -4.13939 0.452038 0
M  V30 17866 H 1830.94 -4.8575 -2.23497 0
M  V30 17867 H 1831.28 -3.19947 -2.66345 0
M  V30 17868 H 1831.82 -3.8272 -1.08491 0
M  V30 17869 H 1828.56 -6.55299 0.162371 0
M  V30 17870 H 1828.08 -5.83422 -1.39208 0
M  V30 17871 H 1829.76 -6.36979 -1.1343 0
M  V30 17872 N 1829.89 0.224867 -1.55988 0
M  V30 17873 C 1831.11 0.970897 -1.83271 0
M  V30 17874 C 1831.54 1.77293 -0.628399 0
M  V30 17875 O 1830.9 1.76301 0.422804 0
M  V30 17876 C 1830.94 1.86686 -3.08514 0
M  V30 17877 O 1830.05 2.96174 -2.86975 0
M  V30 17878 H 1829.39 0.275093 -0.604334 0
M  V30 17879 H 1831.92 0.239183 -2.03197 0
M  V30 17880 H 1831.93 2.27731 -3.3853 0
M  V30 17881 H 1830.6 1.27733 -3.95799 0
M  V30 17882 H 1829.18 2.59099 -2.68183 0
M  V30 17883 N 1831.37 1.49742 0.491438 0
M  V30 17884 C 1832.61 1.59395 1.24248 0
M  V30 17885 C 1832.93 0.286934 1.92877 0
M  V30 17886 O 1832.2 -0.694353 1.83182 0
M  V30 17887 H 1830.78 0.587313 0.461598 0
M  V30 17888 H 1833.45 1.86417 0.56873 0
M  V30 17889 H 1832.54 2.39487 2.00131 0
M  V30 17890 N 1832.84 -0.743177 1.38977 0
M  V30 17891 C 1833.77 -1.87047 1.3977 0
M  V30 17892 C 1834.76 -1.68068 0.262161 0
M  V30 17893 O 1835.94 -1.88507 0.466782 0
M  V30 17894 C 1833.07 -3.24701 1.23234 0
M  V30 17895 C 1832.02 -3.58302 2.34102 0
M  V30 17896 C 1831.35 -4.94805 2.02663 0
M  V30 17897 C 1832.65 -3.62111 3.76395 0
M  V30 17898 H 1834.34 -1.8664 2.34107 0
M  V30 17899 H 1831.89 -0.896541 1.12686 0
M  V30 17900 H 1833.84 -4.03228 1.22412 0
M  V30 17901 H 1832.57 -3.25614 0.253638 0
M  V30 17902 H 1831.23 -2.82099 2.34128 0
M  V30 17903 H 1830.87 -4.92289 1.0325 0
M  V30 17904 H 1830.57 -5.18254 2.76922 0
M  V30 17905 H 1832.1 -5.75699 2.03477 0
M  V30 17906 H 1833.51 -4.30731 3.78343 0
M  V30 17907 H 1831.91 -3.97075 4.49946 0
M  V30 17908 H 1832.98 -2.62099 4.07961 0
M  V30 17909 N 1834.32 -1.24018 -0.972487 0
M  V30 17910 C 1835.73 -1.07076 -1.52943 0
M  V30 17911 C 1836.08 0.35937 -1.92881 0
M  V30 17912 O 1835.21 1.24713 -1.76849 0
M  V30 17913 C 1835.8 -1.93753 -2.7793 0
M  V30 17914 C 1834.36 -1.81048 -3.29998 0
M  V30 17915 C 1833.51 -1.88977 -2.02936 0
M  V30 17916 H 1836.46 -1.37565 -0.791304 0
M  V30 17917 H 1836.48 -1.46699 -3.51084 0
M  V30 17918 H 1835.99 -2.97833 -2.48832 0
M  V30 17919 H 1834.1 -0.797825 -3.63958 0
M  V30 17920 H 1834.21 -2.64876 -3.99221 0
M  V30 17921 H 1832.57 -1.32649 -2.17431 0
M  V30 17922 H 1833.36 -2.94627 -1.76209 0
M  V30 17923 N 1835.8 1.17245 -1.05316 0
M  V30 17924 C 1837.03 1.91995 -0.784387 0
M  V30 17925 C 1837.45 1.76362 0.65408 0
M  V30 17926 O 1836.81 1.0822 1.45458 0
M  V30 17927 C 1836.86 3.41043 -1.1714 0
M  V30 17928 O 1835.96 4.11276 -0.304285 0
M  V30 17929 H 1835.3 0.598516 -0.287532 0
M  V30 17930 H 1837.83 1.48604 -1.40634 0
M  V30 17931 H 1837.84 3.91788 -1.13871 0
M  V30 17932 H 1836.52 3.51742 -2.21924 0
M  V30 17933 H 1835.09 3.70773 -0.39769 0
M  V30 17934 N 1837.28 0.834353 1.33702 0
M  V30 17935 C 1838.53 0.427042 1.97537 0
M  V30 17936 C 1838.85 -1.01607 1.66436 0
M  V30 17937 O 1838.12 -1.70711 0.960958 0
M  V30 17938 H 1836.7 0.154921 0.730759 0
M  V30 17939 H 1839.36 1.06632 1.63143 0
M  V30 17940 H 1838.46 0.555396 3.07118 0
M  V30 17941 N 1838.76 -1.46125 0.590367 0
M  V30 17942 C 1839.67 -2.34177 -0.140761 0
M  V30 17943 C 1840.68 -1.50213 -0.878181 0
M  V30 17944 O 1841.86 -1.83063 -0.839644 0
M  V30 17945 C 1838.92 -3.27537 -1.13669 0
M  V30 17946 C 1837.98 -4.27403 -0.403103 0
M  V30 17947 C 1837.22 -5.16302 -1.35159 0
M  V30 17948 O 1837.44 -5.08283 -2.58853 0
M  V30 17949 O 1836.37 -5.95753 -0.858003 0
M  V30 17950 H 1840.2 -2.98063 0.582401 0
M  V30 17951 H 1837.79 -1.45225 0.35072 0
M  V30 17952 H 1839.67 -3.85112 -1.71074 0
M  V30 17953 H 1838.34 -2.66237 -1.84118 0
M  V30 17954 H 1837.25 -3.73493 0.212986 0
M  V30 17955 H 1838.58 -4.9151 0.260565 0
M  V30 17956 N 1840.23 -0.328564 -1.54137 0
M  V30 17957 C 1841.48 0.272909 -2.00955 0
M  V30 17958 C 1841.81 1.51393 -1.2163 0
M  V30 17959 O 1841.09 1.92174 -0.299916 0
M  V30 17960 C 1841.37 0.602055 -3.55031 0
M  V30 17961 C 1841.22 -0.650016 -4.45078 0
M  V30 17962 C 1842.54 1.4177 -4.1664 0
M  V30 17963 H 1839.66 0.0977177 -0.730493 0
M  V30 17964 H 1842.3 -0.446133 -1.84688 0
M  V30 17965 H 1840.45 1.21464 -3.69024 0
M  V30 17966 H 1842.13 -1.28821 -4.42948 0
M  V30 17967 H 1840.37 -1.2779 -4.1455 0
M  V30 17968 H 1841.04 -0.375181 -5.50724 0
M  V30 17969 H 1843.52 0.899849 -4.06254 0
M  V30 17970 H 1842.39 1.61676 -5.24549 0
M  V30 17971 H 1842.65 2.41534 -3.70289 0
M  V30 17972 N 1841.71 1.57497 -0.0568439 0
M  V30 17973 C 1842.64 2.14892 0.913427 0
M  V30 17974 C 1843.62 1.07205 1.32065 0
M  V30 17975 O 1844.81 1.35172 1.39435 0
M  V30 17976 C 1841.94 2.69849 2.18629 0
M  V30 17977 C 1840.89 3.8257 1.91896 0
M  V30 17978 C 1840.22 4.24068 3.25685 0
M  V30 17979 C 1841.52 5.07463 1.23606 0
M  V30 17980 H 1843.21 2.96218 0.435347 0
M  V30 17981 H 1840.76 1.4249 0.20796 0
M  V30 17982 H 1842.71 3.08643 2.86911 0
M  V30 17983 H 1841.44 1.85723 2.68653 0
M  V30 17984 H 1840.09 3.44258 1.26024 0
M  V30 17985 H 1839.74 3.36884 3.73521 0
M  V30 17986 H 1839.44 5.00043 3.08594 0
M  V30 17987 H 1840.97 4.65466 3.95189 0
M  V30 17988 H 1842.38 5.43667 1.81931 0
M  V30 17989 H 1840.78 5.88619 1.16823 0
M  V30 17990 H 1841.85 4.84432 0.212918 0
M  V30 17991 N 1843.19 -0.216591 1.56105 0
M  V30 17992 C 1844.1 -1.28933 1.95994 0
M  V30 17993 C 1845.12 -1.51007 0.864464 0
M  V30 17994 O 1846.29 -1.6404 1.16845 0
M  V30 17995 C 1843.36 -2.61807 2.27284 0
M  V30 17996 C 1842.42 -2.47992 3.50426 0
M  V30 17997 C 1841.65 -3.7453 3.80214 0
M  V30 17998 O 1841.87 -4.77765 3.11604 0
M  V30 17999 O 1840.81 -3.71345 4.73694 0
M  V30 18000 H 1844.63 -0.980864 2.87424 0
M  V30 18001 H 1842.22 -0.419859 1.43379 0
M  V30 18002 H 1844.1 -3.40272 2.48582 0
M  V30 18003 H 1842.78 -2.92324 1.39026 0
M  V30 18004 H 1841.68 -1.67711 3.34401 0
M  V30 18005 H 1843.02 -2.22413 4.39082 0
M  V30 18006 N 1844.67 -1.5 -0.48349 0
M  V30 18007 C 1845.9 -1.64105 -1.26004 0
M  V30 18008 C 1846.31 -0.319389 -1.86079 0
M  V30 18009 O 1845.67 0.697243 -1.68656 0
M  V30 18010 C 1845.72 -2.72299 -2.37772 0
M  V30 18011 O 1845.44 -3.99341 -1.80163 0
M  V30 18012 C 1846.94 -2.97266 -3.28858 0
M  V30 18013 H 1844.16 -0.551971 -0.381535 0
M  V30 18014 H 1846.71 -1.96146 -0.57852 0
M  V30 18015 H 1844.86 -2.42987 -3.01722 0
M  V30 18016 H 1845.27 -4.59077 -2.5367 0
M  V30 18017 H 1846.75 -3.76662 -4.03521 0
M  V30 18018 H 1847.23 -2.07855 -3.86902 0
M  V30 18019 H 1847.83 -3.28062 -2.70657 0
M  V30 18020 N 1846.15 0.735796 -1.39369 0
M  V30 18021 C 1847.11 1.83148 -1.37802 0
M  V30 18022 C 1848.11 1.58426 -0.27528 0
M  V30 18023 O 1849.3 1.65841 -0.53314 0
M  V30 18024 C 1846.43 3.20923 -1.14984 0
M  V30 18025 H 1847.62 1.85941 -2.353 0
M  V30 18026 H 1845.18 0.939367 -1.24922 0
M  V30 18027 H 1845.91 3.23791 -0.181648 0
M  V30 18028 H 1845.7 3.40264 -1.94841 0
M  V30 18029 H 1847.19 4.00984 -1.16626 0
M  V30 18030 N 1847.63 1.24532 0.965897 0
M  V30 18031 C 1848.59 1.04026 2.04233 0
M  V30 18032 C 1849.59 -0.00305855 1.608 0
M  V30 18033 O 1850.78 0.238077 1.72565 0
M  V30 18034 C 1847.91 0.577072 3.3598 0
M  V30 18035 H 1849.1 1.99569 2.23858 0
M  V30 18036 H 1846.66 1.0678 1.14139 0
M  V30 18037 H 1847.39 -0.381471 3.22049 0
M  V30 18038 H 1847.18 1.33012 3.6885 0
M  V30 18039 H 1848.67 0.45469 4.15117 0
M  V30 18040 N 1849.1 -1.16685 1.05936 0
M  V30 18041 C 1850.51 -1.68745 0.798866 0
M  V30 18042 C 1850.87 -1.84113 -0.678008 0
M  V30 18043 O 1849.99 -1.53408 -1.52627 0
M  V30 18044 C 1850.59 -3.06508 1.44356 0
M  V30 18045 C 1849.14 -3.55704 1.23092 0
M  V30 18046 C 1848.29 -2.31776 1.52235 0
M  V30 18047 H 1851.24 -1.01097 1.22332 0
M  V30 18048 H 1851.26 -3.70725 0.856908 0
M  V30 18049 H 1850.78 -2.95291 2.51843 0
M  V30 18050 H 1848.88 -3.72186 0.175632 0
M  V30 18051 H 1848.99 -4.38015 1.94112 0
M  V30 18052 H 1847.35 -2.36611 0.942734 0
M  V30 18053 H 1848.14 -2.2316 2.60873 0
M  V30 18054 N 1850.58 -0.841432 -1.33258 0
M  V30 18055 C 1851.83 -0.437512 -1.97307 0
M  V30 18056 C 1852.15 1.00723 -1.66973 0
M  V30 18057 O 1851.42 1.70199 -0.969998 0
M  V30 18058 H 1850 -0.158794 -0.729927 0
M  V30 18059 H 1852.66 -1.07495 -1.62575 0
M  V30 18060 H 1851.76 -0.571675 -3.0682 0
M  V30 18061 N 1852.06 1.4581 -0.598108 0
M  V30 18062 C 1853.31 2.02601 -0.089744 0
M  V30 18063 C 1853.64 1.46673 1.27282 0
M  V30 18064 O 1852.91 0.637735 1.83748 0
M  V30 18065 C 1853.2 3.60077 -0.0405712 0
M  V30 18066 C 1853.05 4.26358 -1.43313 0
M  V30 18067 C 1854.37 4.35241 0.652164 0
M  V30 18068 H 1851.49 0.736211 -0.0340865 0
M  V30 18069 H 1854.13 1.73775 -0.768263 0
M  V30 18070 H 1852.28 3.84767 0.537251 0
M  V30 18071 H 1853.95 4.12884 -2.0573 0
M  V30 18072 H 1852.19 3.85125 -1.99653 0
M  V30 18073 H 1852.87 5.35211 -1.35105 0
M  V30 18074 H 1855.34 4.15788 0.161128 0
M  V30 18075 H 1854.22 5.4497 0.655646 0
M  V30 18076 H 1854.48 4.07419 1.71646 0
M  V30 18077 N 1853.54 0.336733 1.53961 0
M  V30 18078 C 1854.45 -0.531812 2.28493 0
M  V30 18079 C 1855.46 -1.11784 1.33343 0
M  V30 18080 O 1856.64 -1.13499 1.66373 0
M  V30 18081 C 1853.7 -1.67031 3.03812 0
M  V30 18082 C 1852.77 -1.11475 4.14574 0
M  V30 18083 C 1852 -2.19898 4.86292 0
M  V30 18084 O 1852.22 -3.40492 4.57625 0
M  V30 18085 O 1851.16 -1.84576 5.72901 0
M  V30 18086 H 1854.98 0.0738624 3.0361 0
M  V30 18087 H 1852.57 0.101996 1.49051 0
M  V30 18088 H 1854.45 -2.33286 3.50936 0
M  V30 18089 H 1853.12 -2.26192 2.31558 0
M  V30 18090 H 1852.03 -0.416915 3.7177 0
M  V30 18091 H 1853.36 -0.568092 4.88911 0
M  V30 18092 N 1855.02 -1.57465 0.0651956 0
M  V30 18093 C 1856.29 -1.84622 -0.646065 0
M  V30 18094 C 1856.67 -0.956374 -1.88193 0
M  V30 18095 O 1856.02 -0.0209666 -2.2849 0
M  V30 18096 C 1856.23 -3.34664 -0.990013 0
M  V30 18097 C 1857.58 -4.02016 -1.36632 0
M  V30 18098 O 1858.6 -3.39371 -1.08194 0
M  V30 18099 O 1857.46 -5.12496 -1.89764 0
M  V30 18100 H 1854.56 -0.762482 -0.320236 0
M  V30 18101 H 1857.1 -1.6943 0.0956254 0
M  V30 18102 H 1855.87 -3.9114 -0.111977 0
M  V30 18103 H 1855.5 -3.55094 -1.78869 0
M  V30 18104 N 1856.49 0.20831 -1.56217 0
M  V30 18105 C 1857.74 0.928839 -1.7904 0
M  V30 18106 C 1858.06 1.84968 -0.636108 0
M  V30 18107 O 1859.26 2.60984 -0.748302 0
M  V30 18108 C 1857.72 1.70192 -3.17116 0
M  V30 18109 C 1857.33 0.826564 -4.40309 0
M  V30 18110 C 1859.07 2.41287 -3.49257 0
M  V30 18111 C 1856.98 1.59775 -5.69408 0
M  V30 18112 H 1855.91 0.350563 -0.667549 0
M  V30 18113 H 1858.56 0.182398 -1.82591 0
M  V30 18114 H 1856.94 2.49176 -3.07778 0
M  V30 18115 H 1858.11 0.076324 -4.60737 0
M  V30 18116 H 1856.43 0.227092 -4.1578 0
M  V30 18117 H 1859.03 2.99511 -4.42942 0
M  V30 18118 H 1859.37 3.14827 -2.72377 0
M  V30 18119 H 1859.9 1.69282 -3.59984 0
M  V30 18120 H 1856.64 0.905384 -6.49217 0
M  V30 18121 H 1856.16 2.32227 -5.5302 0
M  V30 18122 H 1857.84 2.155 -6.10056 0
M  V30 18123 N 1857.97 1.50255 0.475528 0
M  V30 18124 C 1859.2 1.65044 1.25599 0
M  V30 18125 C 1859.62 0.331736 1.85152 0
M  V30 18126 O 1858.98 -0.703863 1.67079 0
M  V30 18127 C 1859.03 2.7405 2.34369 0
M  V30 18128 O 1858.13 2.34994 3.38897 0
M  V30 18129 H 1857.47 0.551557 0.369704 0
M  V30 18130 H 1860 1.96603 0.566422 0
M  V30 18131 H 1860.01 2.96993 2.79749 0
M  V30 18132 H 1858.69 3.6976 1.90395 0
M  V30 18133 H 1857.26 2.22481 2.9926 0
M  V30 18134 N 1859.45 -0.728395 1.39758 0
M  V30 18135 C 1860.7 -1.48514 1.37069 0
M  V30 18136 C 1861.02 -1.94976 -0.0305263 0
M  V30 18137 O 1860.29 -1.69453 -0.982987 0
M  V30 18138 H 1858.87 -0.550958 0.504434 0
M  V30 18139 H 1861.53 -0.864297 1.74688 0
M  V30 18140 H 1860.63 -2.36411 2.03755 0
M  V30 18141 N 1860.93 -1.25042 -0.959279 0
M  V30 18142 C 1861.86 -1.07494 -2.07285 0
M  V30 18143 C 1862.84 0.0146264 -1.70094 0
M  V30 18144 O 1864.02 -0.154035 -1.93588 0
M  V30 18145 C 1861.15 -0.68794 -3.40418 0
M  V30 18146 C 1860.11 -1.72722 -3.91601 0
M  V30 18147 C 1859.43 -1.19504 -5.21175 0
M  V30 18148 C 1860.73 -3.12502 -4.18497 0
M  V30 18149 H 1862.43 -2.00641 -2.22224 0
M  V30 18150 H 1859.97 -0.966074 -1.06785 0
M  V30 18151 H 1861.93 -0.552133 -4.17767 0
M  V30 18152 H 1860.65 0.279224 -3.25404 0
M  V30 18153 H 1859.31 -1.85139 -3.16416 0
M  V30 18154 H 1858.96 -0.218239 -5.02526 0
M  V30 18155 H 1858.66 -1.88962 -5.56387 0
M  V30 18156 H 1860.18 -1.07153 -6.01124 0
M  V30 18157 H 1861.6 -3.03266 -4.86521 0
M  V30 18158 H 1859.99 -3.79389 -4.64956 0
M  V30 18159 H 1861.06 -3.5991 -3.2495 0
M  V30 18160 N 1862.41 1.16121 -1.06553 0
M  V30 18161 C 1863.82 1.68319 -0.807804 0
M  V30 18162 C 1864.17 1.8447 0.668234 0
M  V30 18163 O 1863.29 1.54215 1.51811 0
M  V30 18164 C 1863.89 3.05738 -1.45979 0
M  V30 18165 C 1862.45 3.55046 -1.24977 0
M  V30 18166 C 1861.59 2.30965 -1.53462 0
M  V30 18167 H 1864.55 1.00447 -1.22866 0
M  V30 18168 H 1864.57 3.70266 -0.876556 0
M  V30 18169 H 1864.08 2.93951 -2.53405 0
M  V30 18170 H 1862.18 3.72087 -0.195367 0
M  V30 18171 H 1862.29 4.36979 -1.96433 0
M  V30 18172 H 1860.66 2.36107 -0.955268 0
M  V30 18173 H 1861.44 2.21773 -2.62052 0
M  V30 18174 N 1863.88 0.848487 1.3281 0
M  V30 18175 C 1865.11 0.46174 2.02195 0
M  V30 18176 C 1865.53 -0.932159 1.63378 0
M  V30 18177 O 1864.89 -1.6112 0.831266 0
M  V30 18178 C 1864.94 0.601234 3.55552 0
M  V30 18179 O 1864.04 -0.368549 4.1075 0
M  V30 18180 H 1863.39 0.186379 0.637306 0
M  V30 18181 H 1865.92 1.14598 1.69495 0
M  V30 18182 H 1865.93 0.486456 4.0509 0
M  V30 18183 H 1864.6 1.61773 3.83148 0
M  V30 18184 H 1863.18 -0.210525 3.72305 0
M  V30 18185 N 1865.36 -1.4549 0.605832 0
M  V30 18186 C 1866.61 -2.01852 0.10014 0
M  V30 18187 C 1866.93 -1.47699 -1.27319 0
M  V30 18188 O 1866.2 -0.670571 -1.84066 0
M  V30 18189 H 1864.78 -0.746225 0.0340291 0
M  V30 18190 H 1867.44 -1.78311 0.786834 0
M  V30 18191 H 1866.54 -3.12062 0.0485925 0
M  V30 18192 N 1866.84 -0.344893 -1.5378 0
M  V30 18193 C 1867.75 0.519687 -2.28772 0
M  V30 18194 C 1868.77 1.11076 -1.33934 0
M  V30 18195 O 1869.94 1.12615 -1.66972 0
M  V30 18196 C 1867.01 1.65417 -3.04693 0
M  V30 18197 C 1866.07 1.09275 -4.1516 0
M  V30 18198 C 1865.3 2.17316 -4.87452 0
M  V30 18199 O 1865.52 3.38061 -4.59425 0
M  V30 18200 O 1864.46 1.81535 -5.73872 0
M  V30 18201 H 1868.28 -0.0899625 -3.03567 0
M  V30 18202 H 1865.87 -0.109899 -1.48995 0
M  V30 18203 H 1867.75 2.31421 -3.52168 0
M  V30 18204 H 1866.43 2.24961 -2.32754 0
M  V30 18205 H 1865.33 0.397193 -3.71985 0
M  V30 18206 H 1866.67 0.542156 -4.89205 0
M  V30 18207 N 1868.32 1.57428 -0.0735454 0
M  V30 18208 C 1869.56 1.93843 0.596054 0
M  V30 18209 C 1869.9 0.953931 1.69156 0
M  V30 18210 O 1869.17 -0.0165729 1.94493 0
M  V30 18211 C 1869.46 3.40516 1.17137 0
M  V30 18212 C 1869.31 4.49725 0.0823861 0
M  V30 18213 C 1870.63 3.88042 2.07634 0
M  V30 18214 H 1867.75 0.70488 0.215204 0
M  V30 18215 H 1870.39 1.89484 -0.139871 0
M  V30 18216 H 1868.54 3.44361 1.79855 0
M  V30 18217 H 1870.21 4.58 -0.55078 0
M  V30 18218 H 1868.45 4.29813 -0.586788 0
M  V30 18219 H 1869.12 5.49494 0.525354 0
M  V30 18220 H 1871.6 3.86214 1.54849 0
M  V30 18221 H 1870.48 4.91277 2.44822 0
M  V30 18222 H 1870.74 3.26084 2.98532 0
M  V30 18223 N 1869.8 -0.200022 1.56326 0
M  V30 18224 C 1870.73 -1.25071 1.97179 0
M  V30 18225 C 1871.71 -1.4774 0.84303 0
M  V30 18226 O 1872.89 -1.5956 1.10699 0
M  V30 18227 C 1870.02 -2.596 2.30706 0
M  V30 18228 C 1868.98 -2.51552 3.46274 0
M  V30 18229 C 1868.3 -3.90309 3.65463 0
M  V30 18230 C 1869.6 -2.0448 4.80609 0
M  V30 18231 H 1871.3 -0.911238 2.85196 0
M  V30 18232 H 1868.84 -0.436899 1.37212 0
M  V30 18233 H 1870.8 -3.33281 2.5788 0
M  V30 18234 H 1869.52 -2.95278 1.39565 0
M  V30 18235 H 1868.18 -1.80327 3.19183 0
M  V30 18236 H 1867.83 -4.23331 2.71662 0
M  V30 18237 H 1867.53 -3.858 4.43207 0
M  V30 18238 H 1869.05 -4.65619 3.95008 0
M  V30 18239 H 1870.46 -2.67917 5.06847 0
M  V30 18240 H 1868.86 -2.10985 5.61788 0
M  V30 18241 H 1869.93 -0.997828 4.74522 0
M  V30 18242 N 1871.27 -1.50505 -0.467553 0
M  V30 18243 C 1872.18 -1.72419 -1.59087 0
M  V30 18244 C 1873.2 -0.607403 -1.63054 0
M  V30 18245 O 1874.38 -0.886148 -1.80857 0
M  V30 18246 C 1871.44 -1.81686 -2.95281 0
M  V30 18247 C 1870.5 -3.05435 -3.01675 0
M  V30 18248 C 1869.74 -3.1425 -4.31373 0
M  V30 18249 O 1869.96 -2.29766 -5.22076 0
M  V30 18250 O 1868.89 -4.07005 -4.43431 0
M  V30 18251 H 1872.72 -2.67649 -1.43519 0
M  V30 18252 H 1870.3 -1.34643 -0.647422 0
M  V30 18253 H 1872.19 -1.89941 -3.76165 0
M  V30 18254 H 1870.86 -0.896404 -3.11041 0
M  V30 18255 H 1869.77 -3.02678 -2.19856 0
M  V30 18256 H 1871.1 -3.97071 -2.90853 0
M  V30 18257 N 1872.75 0.720973 -1.40142 0
M  V30 18258 C 1873.98 1.51012 -1.41431 0
M  V30 18259 C 1874.4 1.88796 -0.0125516 0
M  V30 18260 O 1873.75 1.55073 0.962217 0
M  V30 18261 C 1873.8 2.78886 -2.3001 0
M  V30 18262 O 1873.52 2.42703 -3.64729 0
M  V30 18263 C 1875.03 3.7282 -2.39834 0
M  V30 18264 H 1872.25 0.466214 -0.482582 0
M  V30 18265 H 1874.79 0.889777 -1.84128 0
M  V30 18266 H 1872.94 3.37219 -1.90689 0
M  V30 18267 H 1873.36 3.24945 -4.11717 0
M  V30 18268 H 1874.83 4.594 -3.06032 0
M  V30 18269 H 1875.31 4.15552 -1.42173 0
M  V30 18270 H 1875.92 3.20402 -2.79684 0
M  V30 18271 N 1874.23 1.25549 0.952634 0
M  V30 18272 C 1875.19 1.06186 2.03119 0
M  V30 18273 C 1876.19 0.0139966 1.60794 0
M  V30 18274 O 1877.38 0.256367 1.72303 0
M  V30 18275 C 1874.52 0.612674 3.35349 0
M  V30 18276 H 1875.71 2.01932 2.21729 0
M  V30 18277 H 1873.26 1.07984 1.13 0
M  V30 18278 H 1874 -0.347292 3.22435 0
M  V30 18279 H 1873.78 1.36917 3.67418 0
M  V30 18280 H 1875.27 0.498693 4.14612 0
M  V30 18281 N 1875.71 -1.15554 1.07168 0
M  V30 18282 C 1876.67 -2.18431 0.694305 0
M  V30 18283 C 1877.67 -1.5861 -0.264497 0
M  V30 18284 O 1878.86 -1.7414 -0.0457035 0
M  V30 18285 C 1875.99 -3.40892 0.0230473 0
M  V30 18286 H 1877.19 -2.53331 1.60511 0
M  V30 18287 H 1874.74 -1.29984 0.867982 0
M  V30 18288 H 1875.47 -3.11559 -0.900083 0
M  V30 18289 H 1875.26 -3.8557 0.712622 0
M  V30 18290 H 1876.75 -4.16986 -0.226392 0
M  V30 18291 N 1877.19 -0.855519 -1.32358 0
M  V30 18292 C 1878.6 -0.513833 -1.7949 0
M  V30 18293 C 1878.95 0.968373 -1.70637 0
M  V30 18294 O 1878.07 1.75541 -1.26547 0
M  V30 18295 C 1878.67 -0.925925 -3.25902 0
M  V30 18296 C 1877.23 -0.636124 -3.70986 0
M  V30 18297 C 1876.38 -1.12519 -2.53446 0
M  V30 18298 H 1879.33 -1.04264 -1.19644 0
M  V30 18299 H 1879.35 -0.242659 -3.79725 0
M  V30 18300 H 1878.86 -2.00473 -3.32313 0
M  V30 18301 H 1876.96 0.431924 -3.70088 0
M  V30 18302 H 1877.07 -1.20302 -4.6375 0
M  V30 18303 H 1875.44 -0.545429 -2.48791 0
M  V30 18304 H 1876.22 -2.21112 -2.62611 0
M  V30 18305 N 1878.67 1.45167 -0.61354 0
M  V30 18306 C 1879.91 2.01796 -0.110844 0
M  V30 18307 C 1880.23 1.48372 1.26534 0
M  V30 18308 O 1879.5 0.680323 1.83707 0
M  V30 18309 H 1878.08 0.746034 -0.0379861 0
M  V30 18310 H 1880.75 1.77892 -0.796279 0
M  V30 18311 H 1879.84 3.12032 -0.0651413 0
M  V30 18312 N 1880.14 0.353044 1.53595 0
M  V30 18313 C 1881.39 -0.240904 2.01364 0
M  V30 18314 C 1881.72 -1.49438 1.24023 0
M  V30 18315 O 1881 -1.91672 0.330451 0
M  V30 18316 C 1881.28 -0.545497 3.55944 0
M  V30 18317 C 1881.13 0.720742 4.43988 0
M  V30 18318 C 1882.45 -1.35124 4.18843 0
M  V30 18319 H 1879.57 -0.0860838 0.731955 0
M  V30 18320 H 1882.21 0.475459 1.83955 0
M  V30 18321 H 1880.36 -1.15578 3.7091 0
M  V30 18322 H 1882.04 1.35852 4.40842 0
M  V30 18323 H 1880.28 1.34369 4.12465 0
M  V30 18324 H 1880.95 0.462749 5.50057 0
M  V30 18325 H 1883.43 -0.835104 4.07634 0
M  V30 18326 H 1882.3 -1.53311 5.27055 0
M  V30 18327 H 1882.56 -2.35612 3.74085 0
M  V30 18328 N 1881.62 -1.57387 0.0818932 0
M  V30 18329 C 1882.53 -2.16804 -0.89629 0
M  V30 18330 C 1883.55 -1.1339 -1.3198 0
M  V30 18331 O 1884.72 -1.45702 -1.39042 0
M  V30 18332 C 1881.79 -2.72607 -2.14211 0
M  V30 18333 C 1880.85 -3.90929 -1.77406 0
M  V30 18334 C 1880.08 -4.44062 -2.96049 0
M  V30 18335 O 1880.31 -3.96166 -4.10376 0
M  V30 18336 O 1879.24 -5.35261 -2.75279 0
M  V30 18337 H 1883.07 -3.0077 -0.420827 0
M  V30 18338 H 1880.65 -1.48726 -0.141737 0
M  V30 18339 H 1882.53 -3.0833 -2.87247 0
M  V30 18340 H 1881.21 -1.91694 -2.60835 0
M  V30 18341 H 1880.11 -3.60042 -1.01591 0
M  V30 18342 H 1881.45 -4.73165 -1.35556 0
M  V30 18343 N 1883.1 0.191729 -1.56429 0
M  V30 18344 C 1884.38 0.937684 -1.71659 0
M  V30 18345 C 1884.76 2.0124 -0.63762 0
M  V30 18346 O 1884.1 2.2579 0.350865 0
M  V30 18347 C 1884.31 1.52104 -3.14111 0
M  V30 18348 C 1885.66 2.00186 -3.74447 0
M  V30 18349 O 1886.69 1.61939 -3.1726 0
M  V30 18350 O 1885.55 2.70576 -4.74817 0
M  V30 18351 H 1882.64 0.439962 -0.700259 0
M  V30 18352 H 1885.19 0.181161 -1.6873 0
M  V30 18353 H 1883.96 0.746526 -3.84113 0
M  V30 18354 H 1883.58 2.3423 -3.21282 0
M  V30 18355 N 1884.58 1.50751 0.459565 0
M  V30 18356 C 1885.83 1.61553 1.20762 0
M  V30 18357 C 1886.14 0.326862 1.9285 0
M  V30 18358 O 1887.35 0.313951 2.69679 0
M  V30 18359 C 1885.8 2.8522 2.19494 0
M  V30 18360 C 1885.41 4.21008 1.53156 0
M  V30 18361 C 1887.15 3.05373 2.94869 0
M  V30 18362 C 1885.06 5.35848 2.50241 0
M  V30 18363 H 1883.99 0.601658 0.454448 0
M  V30 18364 H 1886.64 1.77195 0.476886 0
M  V30 18365 H 1885.02 2.63163 2.95908 0
M  V30 18366 H 1886.2 4.53363 0.824521 0
M  V30 18367 H 1884.51 4.06554 0.900178 0
M  V30 18368 H 1887.11 3.88342 3.67552 0
M  V30 18369 H 1887.45 2.17557 3.54929 0
M  V30 18370 H 1887.99 3.27665 2.25566 0
M  V30 18371 H 1884.72 6.25854 1.94904 0
M  V30 18372 H 1884.24 5.07896 3.19063 0
M  V30 18373 H 1885.92 5.66894 3.11834 0
M  V30 18374 N 1886.06 -0.713531 1.40522 0
M  V30 18375 C 1887.28 -1.50766 1.42423 0
M  V30 18376 C 1887.71 -1.88082 0.0262417 0
M  V30 18377 O 1887.06 -1.5341 -0.966185 0
M  V30 18378 C 1887.11 -2.75813 2.32291 0
M  V30 18379 O 1886.22 -3.726 1.76758 0
M  V30 18380 H 1885.56 -0.454473 0.484098 0
M  V30 18381 H 1888.09 -0.878583 1.84776 0
M  V30 18382 H 1888.1 -3.2432 2.47549 0
M  V30 18383 H 1886.77 -2.47988 3.33878 0
M  V30 18384 H 1885.35 -3.31455 1.70857 0
M  V30 18385 N 1887.53 -1.26053 -0.945962 0
M  V30 18386 C 1888.78 -1.11095 -1.68826 0
M  V30 18387 C 1889.1 0.347174 -1.91885 0
M  V30 18388 O 1888.37 1.24545 -1.51213 0
M  V30 18389 H 1886.95 -0.408128 -0.625652 0
M  V30 18390 H 1889.61 -1.58309 -1.13686 0
M  V30 18391 H 1888.71 -1.626 -2.66397 0
M  V30 18392 N 1889.01 1.14984 -1.07779 0
M  V30 18393 C 1889.94 2.22006 -0.723564 0
M  V30 18394 C 1890.92 1.67592 0.291024 0
M  V30 18395 O 1892.11 1.93516 0.162812 0
M  V30 18396 C 1889.24 3.47074 -0.125223 0
M  V30 18397 C 1888.19 4.14475 -1.06745 0
M  V30 18398 C 1887.52 5.33671 -0.331643 0
M  V30 18399 C 1888.82 4.63744 -2.4029 0
M  V30 18400 H 1890.51 2.51893 -1.61834 0
M  V30 18401 H 1888.06 1.21073 -0.779571 0
M  V30 18402 H 1890.01 4.21185 0.134555 0
M  V30 18403 H 1888.73 3.16533 0.804654 0
M  V30 18404 H 1887.39 3.4231 -1.31222 0
M  V30 18405 H 1887.04 4.99387 0.601833 0
M  V30 18406 H 1886.74 5.7971 -0.959721 0
M  V30 18407 H 1888.27 6.10548 -0.0797668 0
M  V30 18408 H 1889.68 5.2936 -2.20115 0
M  V30 18409 H 1888.08 5.20461 -2.98732 0
M  V30 18410 H 1889.15 3.79151 -3.02279 0
M  V30 18411 N 1890.49 0.862526 1.31902 0
M  V30 18412 C 1891.9 0.523345 1.79215 0
M  V30 18413 C 1892.25 -0.95931 1.71148 0
M  V30 18414 O 1891.38 -1.74868 1.27476 0
M  V30 18415 C 1891.97 0.943195 3.25406 0
M  V30 18416 C 1890.53 0.655789 3.70643 0
M  V30 18417 C 1889.68 1.13861 2.52846 0
M  V30 18418 H 1892.63 1.04897 1.19089 0
M  V30 18419 H 1892.65 0.262794 3.79591 0
M  V30 18420 H 1892.16 2.02233 3.31245 0
M  V30 18421 H 1890.26 -0.412291 3.70312 0
M  V30 18422 H 1890.38 1.2276 4.63106 0
M  V30 18423 H 1888.74 0.558615 2.48499 0
M  V30 18424 H 1889.52 2.22501 2.61434 0
M  V30 18425 N 1891.97 -1.4484 0.62123 0
M  V30 18426 C 1893.19 -2.07012 0.126801 0
M  V30 18427 C 1893.62 -1.46046 -1.18542 0
M  V30 18428 O 1892.98 -0.558202 -1.72493 0
M  V30 18429 C 1893.02 -3.60597 0.0150611 0
M  V30 18430 O 1892.13 -3.9929 -1.03157 0
M  V30 18431 H 1891.47 -0.659131 0.0802646 0
M  V30 18432 H 1894 -1.85874 0.855105 0
M  V30 18433 H 1894.01 -4.07608 -0.178742 0
M  V30 18434 H 1892.68 -4.04354 0.973153 0
M  V30 18435 H 1891.26 -3.63927 -0.813135 0
M  V30 18436 N 1893.45 -0.361184 -1.53405 0
M  V30 18437 C 1894.69 0.229427 -2.00794 0
M  V30 18438 C 1895.02 1.49642 -1.25029 0
M  V30 18439 O 1894.29 1.9252 -0.362333 0
M  V30 18440 H 1892.87 0.0877687 -0.741826 0
M  V30 18441 H 1895.53 -0.486406 -1.88733 0
M  V30 18442 H 1894.62 0.459504 -3.08699 0
M  V30 18443 N 1894.92 1.57341 -0.0902386 0
M  V30 18444 C 1895.83 2.17276 0.88478 0
M  V30 18445 C 1896.85 1.14089 1.31376 0
M  V30 18446 O 1898.03 1.46438 1.38268 0
M  V30 18447 C 1895.09 2.73739 2.12762 0
M  V30 18448 C 1894.15 3.91865 1.7533 0
M  V30 18449 C 1893.39 4.45626 2.93689 0
M  V30 18450 O 1893.61 3.98337 4.08269 0
M  V30 18451 O 1892.54 5.36714 2.72437 0
M  V30 18452 H 1896.37 3.00989 0.40487 0
M  V30 18453 H 1893.95 1.48799 0.133848 0
M  V30 18454 H 1895.84 3.09849 2.85608 0
M  V30 18455 H 1894.51 1.93075 2.59815 0
M  V30 18456 H 1893.42 3.60576 0.996799 0
M  V30 18457 H 1894.75 4.73878 1.33045 0
M  V30 18458 N 1896.4 -0.183431 1.56529 0
M  V30 18459 C 1897.65 -0.903332 1.8157 0
M  V30 18460 C 1897.98 -1.82417 0.666167 0
M  V30 18461 O 1897.26 -1.91635 -0.332621 0
M  V30 18462 C 1897.54 -1.70949 3.16936 0
M  V30 18463 C 1897.39 -0.812595 4.42399 0
M  V30 18464 C 1898.71 -2.6797 3.49113 0
M  V30 18465 H 1895.83 -0.326961 0.660504 0
M  V30 18466 H 1898.47 -0.170115 1.89237 0
M  V30 18467 H 1896.62 -2.33458 3.10531 0
M  V30 18468 H 1898.29 -0.201313 4.60861 0
M  V30 18469 H 1896.54 -0.119949 4.33634 0
M  V30 18470 H 1897.21 -1.4119 5.33638 0
M  V30 18471 H 1899.68 -2.15591 3.55893 0
M  V30 18472 H 1898.56 -3.21451 4.44927 0
M  V30 18473 H 1898.82 -3.47584 2.73199 0
M  V30 18474 N 1897.88 -1.50992 -0.451564 0
M  V30 18475 C 1898.81 -1.74216 -1.5547 0
M  V30 18476 C 1899.79 -0.591568 -1.59482 0
M  V30 18477 O 1900.98 -0.83279 -1.75437 0
M  V30 18478 C 1898.11 -1.85421 -2.9366 0
M  V30 18479 C 1897.06 -3.0076 -3.04512 0
M  V30 18480 C 1896.39 -2.9713 -4.44542 0
M  V30 18481 C 1897.69 -4.40961 -2.79911 0
M  V30 18482 H 1899.38 -2.66582 -1.36287 0
M  V30 18483 H 1896.93 -1.28281 -0.654207 0
M  V30 18484 H 1898.88 -2.00252 -3.70779 0
M  V30 18485 H 1897.6 -0.896921 -3.14043 0
M  V30 18486 H 1896.26 -2.85611 -2.2983 0
M  V30 18487 H 1895.91 -1.99207 -4.61872 0
M  V30 18488 H 1895.61 -3.74572 -4.52736 0
M  V30 18489 H 1897.13 -3.14035 -5.23655 0
M  V30 18490 H 1898.55 -4.56534 -3.4677 0
M  V30 18491 H 1896.95 -5.20002 -2.9953 0
M  V30 18492 H 1898.02 -4.51981 -1.75618 0
M  V30 18493 N 1899.36 0.706069 -1.40899 0
M  V30 18494 C 1900.27 1.85007 -1.44255 0
M  V30 18495 C 1901.28 1.70761 -0.334174 0
M  V30 18496 O 1902.46 1.9286 -0.580258 0
M  V30 18497 C 1899.53 3.20896 -1.31251 0
M  V30 18498 C 1898.59 3.47327 -2.52314 0
M  V30 18499 C 1897.82 4.76732 -2.39922 0
M  V30 18500 O 1898.04 5.5249 -1.41813 0
M  V30 18501 O 1896.98 5.03713 -3.2948 0
M  V30 18502 H 1900.8 1.85132 -2.40748 0
M  V30 18503 H 1898.39 0.857751 -1.22323 0
M  V30 18504 H 1900.27 4.02045 -1.26244 0
M  V30 18505 H 1898.94 3.21477 -0.378684 0
M  V30 18506 H 1897.85 2.66149 -2.62899 0
M  V30 18507 H 1899.18 3.5155 -3.4449 0
M  V30 18508 N 1900.84 1.26553 0.939264 0
M  V30 18509 C 1902.06 1.14993 1.72001 0
M  V30 18510 C 1902.48 -0.29462 1.86487 0
M  V30 18511 O 1901.84 -1.20158 1.37362 0
M  V30 18512 C 1901.89 1.81598 3.12577 0
M  V30 18513 O 1901.61 3.20408 2.98781 0
M  V30 18514 C 1903.11 1.76017 4.06858 0
M  V30 18515 H 1900.33 0.400347 0.538482 0
M  V30 18516 H 1902.87 1.67209 1.17735 0
M  V30 18517 H 1901.03 1.33316 3.63739 0
M  V30 18518 H 1901.44 3.53397 3.8757 0
M  V30 18519 H 1902.92 2.27255 5.0305 0
M  V30 18520 H 1903.39 0.727075 4.3314 0
M  V30 18521 H 1904 2.2386 3.61617 0
M  V30 18522 N 1902.31 -1.14411 1.08387 0
M  V30 18523 C 1903.54 -1.89307 0.834895 0
M  V30 18524 C 1903.96 -1.78574 -0.612923 0
M  V30 18525 O 1903.31 -1.14494 -1.42118 0
M  V30 18526 C 1903.37 -3.39289 1.24761 0
M  V30 18527 O 1903.09 -3.49725 2.63863 0
M  V30 18528 C 1904.59 -4.31181 1.02947 0
M  V30 18529 H 1901.81 -0.599644 0.301112 0
M  V30 18530 H 1904.35 -1.44897 1.44309 0
M  V30 18531 H 1902.51 -3.81322 0.683524 0
M  V30 18532 H 1902.92 -4.42884 2.80988 0
M  V30 18533 H 1904.39 -5.34789 1.36763 0
M  V30 18534 H 1904.87 -4.39187 -0.0335224 0
M  V30 18535 H 1905.48 -3.94903 1.57898 0
M  V30 18536 N 1903.79 -0.869509 -1.31443 0
M  V30 18537 C 1904.76 -0.329869 -2.26814 0
M  V30 18538 C 1905.76 0.518895 -1.52198 0
M  V30 18539 O 1906.95 0.328267 -1.71079 0
M  V30 18540 C 1904.08 0.53159 -3.3673 0
M  V30 18541 H 1905.27 -1.1718 -2.7606 0
M  V30 18542 H 1902.82 -0.645061 -1.42368 0
M  V30 18543 H 1903.56 1.39473 -2.92776 0
M  V30 18544 H 1903.34 -0.0761553 -3.92026 0
M  V30 18545 H 1904.83 0.901447 -4.07754 0
M  V30 18546 N 1905.27 1.44508 -0.628902 0
M  V30 18547 C 1906.68 1.85457 -0.215122 0
M  V30 18548 C 1907.03 1.52619 1.23296 0
M  V30 18549 O 1906.16 0.963178 1.93783 0
M  V30 18550 C 1906.75 3.36621 -0.383645 0
M  V30 18551 C 1905.31 3.76392 -0.0243904 0
M  V30 18552 C 1904.46 2.68369 -0.698081 0
M  V30 18553 H 1907.41 1.35006 -0.834208 0
M  V30 18554 H 1907.43 3.78617 0.378049 0
M  V30 18555 H 1906.94 3.6049 -1.43767 0
M  V30 18556 H 1905.04 3.58139 1.02798 0
M  V30 18557 H 1905.16 4.7714 -0.432898 0
M  V30 18558 H 1903.52 2.54349 -0.133605 0
M  V30 18559 H 1904.3 2.95071 -1.75465 0
M  V30 18560 N 1906.75 0.369315 1.53212 0
M  V30 18561 C 1908 -0.218776 2.00912 0
M  V30 18562 C 1908.32 -1.48977 1.25821 0
M  V30 18563 O 1907.59 -1.92325 0.372538 0
M  V30 18564 H 1906.17 -0.0838334 0.742281 0
M  V30 18565 H 1908.83 0.496408 1.88472 0
M  V30 18566 H 1907.93 -0.443127 3.08938 0
M  V30 18567 N 1908.23 -1.57291 0.0985816 0
M  V30 18568 C 1909.47 -1.94767 -0.56514 0
M  V30 18569 C 1909.81 -0.980722 -1.67617 0
M  V30 18570 O 1909.08 -0.0143714 -1.94495 0
M  V30 18571 C 1909.36 -3.42336 -1.11704 0
M  V30 18572 C 1909.22 -4.49799 -0.0108284 0
M  V30 18573 C 1910.54 -3.91296 -2.01434 0
M  V30 18574 H 1907.66 -0.708215 -0.203963 0
M  V30 18575 H 1910.3 -1.89238 0.169998 0
M  V30 18576 H 1908.45 -3.47179 -1.74354 0
M  V30 18577 H 1910.12 -4.57066 0.623574 0
M  V30 18578 H 1908.36 -4.28825 0.655093 0
M  V30 18579 H 1909.03 -5.50261 -0.437868 0
M  V30 18580 H 1911.51 -3.88628 -1.48685 0
M  V30 18581 H 1910.39 -4.9511 -2.36975 0
M  V30 18582 H 1910.65 -3.30792 -2.93307 0
M  V30 18583 N 1909.71 0.175127 -1.56624 0
M  V30 18584 C 1910.62 1.23691 -1.99343 0
M  V30 18585 C 1911.63 1.48662 -0.904197 0
M  V30 18586 O 1912.81 1.60885 -1.21153 0
M  V30 18587 C 1909.87 2.55689 -2.34145 0
M  V30 18588 C 1908.93 2.38614 -3.56878 0
M  V30 18589 C 1908.17 3.64318 -3.9001 0
M  V30 18590 O 1908.39 4.69335 -3.24162 0
M  V30 18591 O 1907.32 3.58655 -4.83373 0
M  V30 18592 H 1911.15 0.904314 -2.89924 0
M  V30 18593 H 1908.73 0.381697 -1.44442 0
M  V30 18594 H 1910.62 3.33562 -2.57516 0
M  V30 18595 H 1909.29 2.88535 -1.46728 0
M  V30 18596 H 1908.2 1.58786 -3.3873 0
M  V30 18597 H 1909.53 2.10694 -4.44825 0
M  V30 18598 N 1911.18 1.5123 0.44355 0
M  V30 18599 C 1912.09 1.74928 1.56324 0
M  V30 18600 C 1913.11 0.633267 1.62067 0
M  V30 18601 O 1914.29 0.914808 1.79425 0
M  V30 18602 C 1911.35 1.86361 2.92354 0
M  V30 18603 C 1910.41 3.10196 2.96778 0
M  V30 18604 C 1909.64 3.21073 4.26319 0
M  V30 18605 O 1909.87 2.38043 5.18355 0
M  V30 18606 O 1908.8 4.14008 4.369 0
M  V30 18607 H 1912.63 2.69898 1.39243 0
M  V30 18608 H 1910.21 1.35656 0.62592 0
M  V30 18609 H 1912.09 1.95901 3.73096 0
M  V30 18610 H 1910.77 0.945775 3.09575 0
M  V30 18611 H 1909.68 3.06138 2.15013 0
M  V30 18612 H 1911.01 4.01648 2.84499 0
M  V30 18613 N 1912.66 -0.698586 1.41271 0
M  V30 18614 C 1913.91 -1.45425 1.39766 0
M  V30 18615 C 1914.22 -1.95598 0.00891528 0
M  V30 18616 O 1915.43 -2.71195 -0.128757 0
M  V30 18617 C 1913.89 -2.62952 2.45732 0
M  V30 18618 C 1913.49 -2.19578 3.90499 0
M  V30 18619 C 1915.24 -3.40602 2.53359 0
M  V30 18620 C 1913.14 -3.34046 4.88024 0
M  V30 18621 H 1912.07 -0.546236 0.519752 0
M  V30 18622 H 1914.73 -0.758678 1.67082 0
M  V30 18623 H 1913.11 -3.34762 2.11542 0
M  V30 18624 H 1914.28 -1.55077 4.33921 0
M  V30 18625 H 1912.6 -1.5493 3.86504 0
M  V30 18626 H 1915.19 -4.25809 3.23405 0
M  V30 18627 H 1915.54 -3.85582 1.56946 0
M  V30 18628 H 1916.07 -2.75846 2.86625 0
M  V30 18629 H 1912.81 -2.94081 5.8583 0
M  V30 18630 H 1912.33 -3.97407 4.49253 0
M  V30 18631 H 1914.01 -3.99867 5.0864 0
M  V30 18632 N 1914.14 -1.27049 -0.93254 0
M  V30 18633 C 1915.36 -1.16011 -1.71919 0
M  V30 18634 C 1915.79 0.279951 -1.86005 0
M  V30 18635 O 1915.15 1.20279 -1.35657 0
M  V30 18636 C 1915.2 -1.84349 -3.09916 0
M  V30 18637 O 1914.3 -1.13816 -3.96383 0
M  V30 18638 H 1913.64 -0.403752 -0.527144 0
M  V30 18639 H 1916.17 -1.6803 -1.16736 0
M  V30 18640 H 1916.18 -1.91516 -3.60258 0
M  V30 18641 H 1914.86 -2.89109 -2.9898 0
M  V30 18642 H 1913.43 -1.14684 -3.54827 0
M  V30 18643 N 1915.62 1.13835 -1.08993 0
M  V30 18644 C 1916.87 1.84645 -0.82163 0
M  V30 18645 C 1917.19 1.83685 0.65458 0
M  V30 18646 O 1916.46 1.28948 1.47477 0
M  V30 18647 H 1915.04 0.683691 -0.300958 0
M  V30 18648 H 1917.7 1.37915 -1.37715 0
M  V30 18649 H 1916.79 2.89292 -1.17117 0
M  V30 18650 N 1917.1 0.876467 1.3098 0
M  V30 18651 C 1918.03 0.352925 2.30817 0
M  V30 18652 C 1919.01 -0.559675 1.60629 0
M  V30 18653 O 1920.19 -0.475326 1.88293 0
M  V30 18654 C 1917.32 -0.440827 3.44491 0
M  V30 18655 C 1916.28 0.379253 4.26316 0
M  V30 18656 C 1915.6 -0.540582 5.3196 0
M  V30 18657 C 1916.9 1.61682 4.96645 0
M  V30 18658 H 1918.6 1.18719 2.74857 0
M  V30 18659 H 1916.14 0.572316 1.32138 0
M  V30 18660 H 1918.09 -0.817661 4.13391 0
M  V30 18661 H 1916.82 -1.30866 2.99235 0
M  V30 18662 H 1915.48 0.738117 3.59092 0
M  V30 18663 H 1915.13 -1.40588 4.82953 0
M  V30 18664 H 1914.83 0.00427133 5.876 0
M  V30 18665 H 1916.35 -0.914118 6.03719 0
M  V30 18666 H 1917.76 1.31105 5.58108 0
M  V30 18667 H 1916.16 2.10123 5.62111 0
M  V30 18668 H 1917.23 2.36602 4.23258 0
M  V30 18669 N 1918.57 -1.44173 0.636557 0
M  V30 18670 C 1919.98 -1.8534 0.224954 0
M  V30 18671 C 1920.34 -1.53271 -1.22485 0
M  V30 18672 O 1919.46 -0.973441 -1.93269 0
M  V30 18673 C 1920.06 -3.36413 0.401492 0
M  V30 18674 C 1918.61 -3.76374 0.0443511 0
M  V30 18675 C 1917.76 -2.67995 0.712303 0
M  V30 18676 H 1920.71 -1.34562 0.841356 0
M  V30 18677 H 1920.73 -3.78812 -0.357965 0
M  V30 18678 H 1920.25 -3.59722 1.45677 0
M  V30 18679 H 1918.35 -3.58679 -1.00897 0
M  V30 18680 H 1918.46 -4.76904 0.458196 0
M  V30 18681 H 1916.82 -2.54275 0.147092 0
M  V30 18682 H 1917.61 -2.94136 1.77028 0
M  V30 18683 N 1920.05 -0.377435 -1.53014 0
M  V30 18684 C 1921.28 0.211512 -2.06319 0
M  V30 18685 C 1921.7 1.40713 -1.24825 0
M  V30 18686 O 1921.06 1.79274 -0.270279 0
M  V30 18687 C 1921.11 0.571512 -3.56042 0
M  V30 18688 O 1920.21 1.66713 -3.77201 0
M  V30 18689 H 1919.55 0.0279862 -0.66341 0
M  V30 18690 H 1922.08 -0.541471 -1.97305 0
M  V30 18691 H 1922.09 0.839182 -3.99277 0
M  V30 18692 H 1920.77 -0.302672 -4.14797 0
M  V30 18693 H 1919.34 1.3941 -3.4586 0
M  V30 18694 N 1921.53 1.57237 -0.106922 0
M  V30 18695 C 1922.78 1.9439 0.552888 0
M  V30 18696 C 1923.1 0.990316 1.67981 0
M  V30 18697 O 1922.37 0.0444502 1.9585 0
M  V30 18698 H 1920.95 0.71768 0.20723 0
M  V30 18699 H 1923.61 1.9413 -0.17303 0
M  V30 18700 H 1922.71 2.97118 0.955369 0
M  V30 18701 N 1923.01 -0.166818 1.56715 0
M  V30 18702 C 1923.92 -1.22632 1.99996 0
M  V30 18703 C 1924.93 -1.4818 0.912068 0
M  V30 18704 O 1926.11 -1.6024 1.22005 0
M  V30 18705 C 1923.18 -2.54444 2.35498 0
M  V30 18706 C 1922.24 -2.36718 3.58138 0
M  V30 18707 C 1921.47 -3.62244 3.91937 0
M  V30 18708 O 1921.69 -4.67609 3.26646 0
M  V30 18709 O 1920.63 -3.56087 4.85269 0
M  V30 18710 H 1924.45 -0.888926 2.90399 0
M  V30 18711 H 1922.04 -0.374032 1.44642 0
M  V30 18712 H 1923.92 -3.32191 2.59281 0
M  V30 18713 H 1922.59 -2.87753 1.48256 0
M  V30 18714 H 1921.5 -1.56987 3.39567 0
M  V30 18715 H 1922.83 -2.08332 4.45936 0
M  V30 18716 N 1924.49 -1.51463 -0.435524 0
M  V30 18717 C 1925.73 -1.64464 -1.18656 0
M  V30 18718 C 1926.07 -0.360669 -1.90821 0
M  V30 18719 O 1925.34 0.639814 -1.83675 0
M  V30 18720 C 1925.62 -2.84919 -2.20212 0
M  V30 18721 C 1925.48 -4.23297 -1.52117 0
M  V30 18722 C 1926.8 -3.00891 -3.21174 0
M  V30 18723 H 1923.91 -0.598545 -0.430015 0
M  V30 18724 H 1926.56 -1.83952 -0.475572 0
M  V30 18725 H 1924.71 -2.68435 -2.80847 0
M  V30 18726 H 1926.38 -4.51453 -0.948048 0
M  V30 18727 H 1924.62 -4.25912 -0.823493 0
M  V30 18728 H 1925.29 -5.03576 -2.26087 0
M  V30 18729 H 1927.77 -3.16099 -2.70594 0
M  V30 18730 H 1926.64 -3.86734 -3.89523 0
M  V30 18731 H 1926.91 -2.13041 -3.87383 0
M  V30 18732 N 1925.96 0.691085 -1.4164 0
M  V30 18733 C 1926.89 1.8173 -1.46616 0
M  V30 18734 C 1927.88 1.66979 -0.324357 0
M  V30 18735 O 1929.06 1.86644 -0.536424 0
M  V30 18736 C 1926.19 3.19903 -1.35201 0
M  V30 18737 C 1925.14 3.49366 -2.47239 0
M  V30 18738 C 1924.47 4.86942 -2.20887 0
M  V30 18739 C 1925.77 3.47891 -3.89575 0
M  V30 18740 H 1927.46 1.77823 -2.40872 0
M  V30 18741 H 1925.01 0.8541 -1.15936 0
M  V30 18742 H 1926.96 3.98407 -1.37293 0
M  V30 18743 H 1925.69 3.24448 -0.374312 0
M  V30 18744 H 1924.35 2.73215 -2.44436 0
M  V30 18745 H 1923.99 4.88118 -1.2145 0
M  V30 18746 H 1923.69 5.0762 -2.95966 0
M  V30 18747 H 1925.22 5.67751 -2.24703 0
M  V30 18748 H 1926.63 4.16392 -3.94069 0
M  V30 18749 H 1925.03 3.80101 -4.64374 0
M  V30 18750 H 1926.1 2.46778 -4.17407 0
M  V30 18751 N 1927.44 1.27542 0.925789 0
M  V30 18752 C 1928.35 1.1225 2.06002 0
M  V30 18753 C 1929.37 0.0520487 1.73922 0
M  V30 18754 O 1930.54 0.258921 1.99729 0
M  V30 18755 C 1927.61 0.773231 3.37967 0
M  V30 18756 C 1926.67 1.92476 3.83733 0
M  V30 18757 C 1925.9 1.59206 5.09401 0
M  V30 18758 O 1926.13 0.500836 5.68197 0
M  V30 18759 O 1925.06 2.43185 5.50586 0
M  V30 18760 H 1928.89 2.07439 2.21817 0
M  V30 18761 H 1926.47 1.06747 1.04525 0
M  V30 18762 H 1928.35 0.591863 4.17223 0
M  V30 18763 H 1927.03 -0.149116 3.23356 0
M  V30 18764 H 1925.94 2.1612 3.05357 0
M  V30 18765 H 1927.27 2.82738 4.02889 0
M  V30 18766 N 1928.92 -1.13255 1.09595 0
M  V30 18767 C 1930.15 -1.88411 0.854927 0
M  V30 18768 C 1930.56 -1.79214 -0.593949 0
M  V30 18769 O 1929.92 -1.15995 -1.40895 0
M  V30 18770 C 1929.97 -3.37946 1.28353 0
M  V30 18771 O 1929.69 -3.46907 2.67558 0
M  V30 18772 C 1931.19 -4.30065 1.07514 0
M  V30 18773 H 1928.41 -0.596416 0.307455 0
M  V30 18774 H 1930.96 -1.43358 1.45838 0
M  V30 18775 H 1929.11 -3.80576 0.72393 0
M  V30 18776 H 1929.53 -4.39878 2.8567 0
M  V30 18777 H 1931 -5.33309 1.42428 0
M  V30 18778 H 1931.48 -4.39198 0.0130611 0
M  V30 18779 H 1932.08 -3.93206 1.62077 0
M  V30 18780 N 1930.4 -0.883401 -1.30514 0
M  V30 18781 C 1931.63 -0.515948 -2.00364 0
M  V30 18782 C 1932.04 0.895148 -1.6623 0
M  V30 18783 O 1931.4 1.58844 -0.898601 0
M  V30 18784 C 1931.45 -0.679282 -3.55061 0
M  V30 18785 O 1931.17 -2.03482 -3.87978 0
M  V30 18786 C 1932.67 -0.314612 -4.42182 0
M  V30 18787 H 1929.89 -0.199595 -0.640627 0
M  V30 18788 H 1932.44 -1.18827 -1.66435 0
M  V30 18789 H 1930.59 -0.0543511 -3.87362 0
M  V30 18790 H 1931 -2.0523 -4.82681 0
M  V30 18791 H 1932.48 -0.4798 -5.49911 0
M  V30 18792 H 1932.96 0.747247 -4.32797 0
M  V30 18793 H 1933.56 -0.9158 -4.15323 0
M  V30 18794 N 1931.88 1.43833 -0.644194 0
M  V30 18795 C 1932.84 2.29159 0.0433471 0
M  V30 18796 C 1933.84 1.41734 0.75948 0
M  V30 18797 O 1935.03 1.63464 0.602093 0
M  V30 18798 C 1932.16 3.23604 1.07208 0
M  V30 18799 H 1933.35 2.9144 -0.707295 0
M  V30 18800 H 1930.91 1.50963 -0.404968 0
M  V30 18801 H 1931.64 2.66199 1.85226 0
M  V30 18802 H 1931.43 3.88047 0.562339 0
M  V30 18803 H 1932.92 3.87669 1.55251 0
M  V30 18804 N 1933.35 0.385544 1.52811 0
M  V30 18805 C 1934.77 -0.0893152 1.86486 0
M  V30 18806 C 1935.12 -1.46473 1.30538 0
M  V30 18807 O 1934.24 -2.06866 0.635244 0
M  V30 18808 C 1934.84 -0.168846 3.38379 0
M  V30 18809 C 1933.4 -0.587992 3.71779 0
M  V30 18810 C 1932.54 0.252389 2.76149 0
M  V30 18811 H 1935.49 0.603569 1.46774 0
M  V30 18812 H 1935.51 -0.988694 3.6743 0
M  V30 18813 H 1935.03 0.832334 3.7907 0
M  V30 18814 H 1933.13 -1.59668 3.36656 0
M  V30 18815 H 1933.24 -0.34875 4.77829 0
M  V30 18816 H 1931.6 -0.281775 2.53137 0
M  V30 18817 H 1932.39 1.25148 3.19676 0
M  V30 18818 N 1934.83 -1.57178 0.115259 0
M  V30 18819 C 1936.08 -1.94681 -0.542571 0
M  V30 18820 C 1936.4 -0.999211 -1.67454 0
M  V30 18821 O 1935.67 -0.054836 -1.95823 0
M  V30 18822 H 1934.25 -0.718769 -0.203421 0
M  V30 18823 H 1936.91 -1.94036 0.183323 0
M  V30 18824 H 1936.01 -2.9762 -0.939599 0
M  V30 18825 N 1936.31 0.158505 -1.56801 0
M  V30 18826 C 1937.56 0.874331 -1.82984 0
M  V30 18827 C 1937.89 1.81334 -0.695103 0
M  V30 18828 O 1937.17 1.9214 0.302091 0
M  V30 18829 C 1937.45 1.65886 -3.19615 0
M  V30 18830 C 1937.3 0.74211 -4.43636 0
M  V30 18831 C 1938.62 2.62382 -3.53332 0
M  V30 18832 H 1935.74 0.316412 -0.665622 0
M  V30 18833 H 1938.38 0.139988 -1.89484 0
M  V30 18834 H 1936.53 2.28488 -3.14206 0
M  V30 18835 H 1938.2 0.127969 -4.61122 0
M  V30 18836 H 1936.45 0.0509465 -4.3377 0
M  V30 18837 H 1937.12 1.32683 -5.35816 0
M  V30 18838 H 1939.59 2.09902 -3.59278 0
M  V30 18839 H 1938.47 3.14332 -4.49985 0
M  V30 18840 H 1938.73 3.43194 -2.78694 0
M  V30 18841 N 1937.79 1.51692 0.427485 0
M  V30 18842 C 1939.07 1.55395 1.18793 0
M  V30 18843 C 1939.45 0.324036 2.08598 0
M  V30 18844 O 1938.79 -0.690292 2.17824 0
M  V30 18845 C 1939 2.87313 1.98121 0
M  V30 18846 C 1940.35 3.39632 2.54824 0
M  V30 18847 O 1941.38 2.8893 2.08322 0
M  V30 18848 O 1940.24 4.28125 3.39664 0
M  V30 18849 H 1937.33 0.625173 0.541376 0
M  V30 18850 H 1939.88 1.6401 0.435754 0
M  V30 18851 H 1938.65 3.68284 1.32222 0
M  V30 18852 H 1938.27 2.81907 2.80383 0
M  V30 18853 N 1939.27 -0.683564 1.42004 0
M  V30 18854 C 1940.18 -1.82689 1.4718 0
M  V30 18855 C 1941.19 -1.70208 0.361298 0
M  V30 18856 O 1942.37 -1.91912 0.610867 0
M  V30 18857 C 1939.43 -3.18767 1.3634 0
M  V30 18858 C 1938.5 -3.43269 2.57808 0
M  V30 18859 C 1937.73 -4.72855 2.47476 0
M  V30 18860 O 1937.95 -5.50164 1.50584 0
M  V30 18861 O 1936.89 -4.98407 3.37452 0
M  V30 18862 H 1940.71 -1.81279 2.43663 0
M  V30 18863 H 1938.3 -0.838182 1.23672 0
M  V30 18864 H 1940.18 -3.99986 1.32624 0
M  V30 18865 H 1938.85 -3.20834 0.429781 0
M  V30 18866 H 1937.76 -2.61933 2.67099 0
M  V30 18867 H 1939.09 -3.46025 3.50039 0
M  V30 18868 N 1940.75 -1.28031 -0.919012 0
M  V30 18869 C 1941.99 -1.14258 -1.66217 0
M  V30 18870 C 1942.31 0.309269 -1.9314 0
M  V30 18871 O 1943.51 0.568038 -2.65491 0
M  V30 18872 C 1941.97 -1.99702 -2.99411 0
M  V30 18873 C 1941.58 -3.49596 -2.80155 0
M  V30 18874 C 1943.32 -1.94601 -3.77267 0
M  V30 18875 C 1941.23 -4.27209 -4.08958 0
M  V30 18876 H 1940.16 -0.424009 -0.623484 0
M  V30 18877 H 1942.81 -1.52521 -1.02028 0
M  V30 18878 H 1941.19 -1.5429 -3.64706 0
M  V30 18879 H 1942.37 -4.02929 -2.23574 0
M  V30 18880 H 1940.68 -3.56167 -2.15718 0
M  V30 18881 H 1943.28 -2.49859 -4.72731 0
M  V30 18882 H 1943.62 -0.92157 -4.05971 0
M  V30 18883 H 1944.15 -2.37954 -3.18783 0
M  V30 18884 H 1940.89 -5.30212 -3.8543 0
M  V30 18885 H 1940.41 -3.7865 -4.65171 0
M  V30 18886 H 1942.09 -4.36847 -4.77256 0
M  V30 18887 N 1942.22 1.12672 -1.10194 0
M  V30 18888 C 1943.45 1.88496 -0.865112 0
M  V30 18889 C 1943.87 1.78977 0.578691 0
M  V30 18890 O 1943.23 1.14292 1.40737 0
M  V30 18891 C 1943.28 3.35768 -1.315 0
M  V30 18892 O 1942.38 4.09615 -0.478447 0
M  V30 18893 H 1941.72 0.585782 -0.312658 0
M  V30 18894 H 1944.25 1.42506 -1.46811 0
M  V30 18895 H 1944.26 3.86605 -1.30385 0
M  V30 18896 H 1942.94 3.42013 -2.36643 0
M  V30 18897 H 1941.52 3.68753 -0.554589 0
M  V30 18898 N 1943.7 0.89031 1.30043 0
M  V30 18899 C 1944.95 0.51044 1.95548 0
M  V30 18900 C 1945.27 -0.944562 1.70596 0
M  V30 18901 O 1944.54 -1.66482 1.0325 0
M  V30 18902 H 1943.12 0.185776 0.723531 0
M  V30 18903 H 1945.78 1.13455 1.58474 0
M  V30 18904 H 1944.88 0.685155 3.04487 0
M  V30 18905 N 1945.18 -1.43489 0.651812 0
M  V30 18906 C 1946.11 -2.33484 -0.0271093 0
M  V30 18907 C 1947.09 -1.4939 -0.813427 0
M  V30 18908 O 1948.28 -1.78058 -0.775186 0
M  V30 18909 C 1945.41 -3.32737 -0.995143 0
M  V30 18910 C 1944.36 -4.26809 -0.319036 0
M  V30 18911 C 1943.69 -5.1609 -1.39842 0
M  V30 18912 C 1944.99 -5.16326 0.787692 0
M  V30 18913 H 1946.68 -2.90503 0.724441 0
M  V30 18914 H 1944.23 -1.39686 0.349826 0
M  V30 18915 H 1946.18 -3.94593 -1.479 0
M  V30 18916 H 1944.9 -2.73972 -1.77784 0
M  V30 18917 H 1943.56 -3.66316 0.144366 0
M  V30 18918 H 1943.21 -4.53664 -2.17251 0
M  V30 18919 H 1942.91 -5.79848 -0.951292 0
M  V30 18920 H 1944.43 -5.80819 -1.88367 0
M  V30 18921 H 1945.85 -5.71999 0.386053 0
M  V30 18922 H 1944.24 -5.88798 1.1592 0
M  V30 18923 H 1945.31 -4.56099 1.64626 0
M  V30 18924 N 1946.66 -0.393643 -1.52605 0
M  V30 18925 C 1948.07 0.0794242 -1.86531 0
M  V30 18926 C 1948.42 1.45778 -1.31313 0
M  V30 18927 O 1947.54 2.06526 -0.646206 0
M  V30 18928 C 1948.14 0.150899 -3.38464 0
M  V30 18929 C 1946.7 0.568268 -3.72086 0
M  V30 18930 C 1945.85 -0.267031 -2.76011 0
M  V30 18931 H 1948.8 -0.611344 -1.46452 0
M  V30 18932 H 1948.82 0.969194 -3.6795 0
M  V30 18933 H 1948.33 -0.852425 -3.78623 0
M  V30 18934 H 1946.43 1.5788 -3.37498 0
M  V30 18935 H 1946.54 0.323405 -4.78007 0
M  V30 18936 H 1944.91 0.268347 -2.53282 0
M  V30 18937 H 1945.69 -1.26841 -3.19008 0
M  V30 18938 N 1948.14 1.57115 -0.123593 0
M  V30 18939 C 1949.36 2.00133 0.544196 0
M  V30 18940 C 1949.79 1.00282 1.59139 0
M  V30 18941 O 1949.14 -0.0248396 1.81283 0
M  V30 18942 C 1949.19 3.4201 1.14287 0
M  V30 18943 O 1948.3 3.45071 2.25832 0
M  V30 18944 H 1947.64 0.650029 0.135492 0
M  V30 18945 H 1950.17 2.03484 -0.213423 0
M  V30 18946 H 1950.18 3.80316 1.47728 0
M  V30 18947 H 1948.85 4.14198 0.375866 0
M  V30 18948 H 1947.43 3.18587 1.93795 0
M  V30 18949 N 1949.61 -0.150187 1.56883 0
M  V30 18950 C 1950.86 -0.86163 1.82812 0
M  V30 18951 C 1951.18 -1.81849 0.703977 0
M  V30 18952 O 1950.45 -1.93966 -0.274616 0
M  V30 18953 H 1949.03 -0.321175 0.67443 0
M  V30 18954 H 1951.69 -0.144952 1.9436 0
M  V30 18955 H 1950.79 -1.4258 2.77628 0
M  V30 18956 N 1951.09 -1.51916 -0.419434 0
M  V30 18957 C 1952 -1.77393 -1.53522 0
M  V30 18958 C 1953.02 -0.65897 -1.61039 0
M  V30 18959 O 1954.19 -0.943237 -1.77947 0
M  V30 18960 C 1951.26 -1.90988 -2.89352 0
M  V30 18961 C 1950.32 -3.14878 -2.91805 0
M  V30 18962 C 1949.55 -3.27815 -4.21157 0
M  V30 18963 O 1949.78 -2.4626 -5.14502 0
M  V30 18964 O 1948.71 -4.20906 -4.30258 0
M  V30 18965 H 1952.54 -2.72079 -1.34932 0
M  V30 18966 H 1950.12 -1.36635 -0.604259 0
M  V30 18967 H 1952 -2.01812 -3.69932 0
M  V30 18968 H 1950.68 -0.994906 -3.08031 0
M  V30 18969 H 1949.59 -3.0952 -2.10115 0
M  V30 18970 H 1950.92 -4.06123 -2.78073 0
M  V30 18971 N 1952.57 0.676023 -1.42365 0
M  V30 18972 C 1953.82 1.43821 -1.4298 0
M  V30 18973 C 1954.15 1.94147 -0.0455702 0
M  V30 18974 O 1953.42 1.70826 0.929976 0
M  V30 18975 C 1953.71 2.63612 -2.45318 0
M  V30 18976 C 1953.56 2.18926 -3.92927 0
M  V30 18977 C 1954.88 3.65827 -2.4466 0
M  V30 18978 H 1952 0.521622 -0.520653 0
M  V30 18979 H 1954.64 0.76837 -1.7377 0
M  V30 18980 H 1952.79 3.2076 -2.19193 0
M  V30 18981 H 1954.46 1.66955 -4.30028 0
M  V30 18982 H 1952.71 1.50512 -4.06852 0
M  V30 18983 H 1953.38 3.04965 -4.60109 0
M  V30 18984 H 1955.85 3.18393 -2.6789 0
M  V30 18985 H 1954.73 4.47226 -3.18245 0
M  V30 18986 H 1954.99 4.1687 -1.47213 0
M  V30 18987 N 1954.05 1.28517 0.912209 0
M  V30 18988 C 1954.98 1.15113 2.03153 0
M  V30 18989 C 1955.96 0.0485128 1.70031 0
M  V30 18990 O 1957.14 0.225778 1.92883 0
M  V30 18991 C 1954.27 0.81381 3.37631 0
M  V30 18992 C 1953.23 1.87137 3.8492 0
M  V30 18993 C 1952.55 1.38765 5.1638 0
M  V30 18994 C 1953.85 3.27819 4.06611 0
M  V30 18995 H 1955.55 2.0875 2.14625 0
M  V30 18996 H 1953.09 1.00504 1.03126 0
M  V30 18997 H 1955.05 0.706804 4.1543 0
M  V30 18998 H 1953.77 -0.15826 3.26216 0
M  V30 18999 H 1952.43 1.96755 3.09327 0
M  V30 19000 H 1952.08 0.404598 5.0137 0
M  V30 19001 H 1951.78 2.09482 5.48991 0
M  V30 19002 H 1953.3 1.29389 5.96733 0
M  V30 19003 H 1954.72 3.21114 4.7493 0
M  V30 19004 H 1953.11 3.96384 4.50555 0
M  V30 19005 H 1954.18 3.71723 3.11368 0
M  V30 19006 N 1955.53 -1.12086 1.1079 0
M  V30 19007 C 1956.44 -2.21514 0.772578 0
M  V30 19008 C 1957.45 -1.72454 -0.231462 0
M  V30 19009 O 1958.63 -2.01281 -0.0693074 0
M  V30 19010 C 1955.69 -3.46043 0.213364 0
M  V30 19011 C 1954.75 -4.09925 1.27515 0
M  V30 19012 C 1953.99 -5.28509 0.742524 0
M  V30 19013 O 1954.21 -5.68779 -0.429786 0
M  V30 19014 O 1953.14 -5.82802 1.50417 0
M  V30 19015 H 1956.97 -2.52596 1.68608 0
M  V30 19016 H 1954.56 -1.20492 0.883294 0
M  V30 19017 H 1956.44 -4.21294 -0.0944683 0
M  V30 19018 H 1955.11 -3.16628 -0.672947 0
M  V30 19019 H 1954.02 -3.36436 1.63589 0
M  V30 19020 H 1955.35 -4.43504 2.13461 0
M  V30 19021 N 1957 -0.897194 -1.29569 0
M  V30 19022 C 1958.23 -0.53717 -1.99805 0
M  V30 19023 C 1958.65 0.877466 -1.6717 0
M  V30 19024 O 1958 1.57882 -0.915398 0
M  V30 19025 C 1958.06 -0.716902 -3.5432 0
M  V30 19026 O 1957.78 -2.07586 -3.85798 0
M  V30 19027 C 1959.28 -0.361494 -4.41824 0
M  V30 19028 H 1956.5 -0.206379 -0.638474 0
M  V30 19029 H 1959.04 -1.20585 -1.65165 0
M  V30 19030 H 1957.2 -0.095433 -3.87282 0
M  V30 19031 H 1957.61 -2.10338 -4.80477 0
M  V30 19032 H 1959.08 -0.538099 -5.49371 0
M  V30 19033 H 1959.56 0.701301 -4.33565 0
M  V30 19034 H 1960.17 -0.959799 -4.14328 0
M  V30 19035 N 1958.48 1.43142 -0.659413 0
M  V30 19036 C 1959.71 2.06087 -0.183265 0
M  V30 19037 C 1960.13 1.49462 1.15354 0
M  V30 19038 O 1959.48 0.628341 1.71342 0
M  V30 19039 C 1959.53 3.61381 -0.0928701 0
M  V30 19040 O 1959.25 4.15902 -1.37684 0
M  V30 19041 C 1960.76 4.41413 0.408616 0
M  V30 19042 H 1957.98 0.664557 -0.092765 0
M  V30 19043 H 1960.52 1.83542 -0.901809 0
M  V30 19044 H 1958.67 3.8309 0.576268 0
M  V30 19045 H 1959.09 5.09629 -1.24009 0
M  V30 19046 H 1960.56 5.50394 0.420806 0
M  V30 19047 H 1961.04 4.14885 1.44108 0
M  V30 19048 H 1961.65 4.24687 -0.228247 0
M  V30 19049 N 1959.96 0.40173 1.52394 0
M  V30 19050 C 1960.92 -0.41541 2.25404 0
M  V30 19051 C 1961.92 -0.979848 1.27498 0
M  V30 19052 O 1963.11 -0.859891 1.51498 0
M  V30 19053 C 1960.25 -1.58403 3.01863 0
M  V30 19054 H 1961.44 0.223965 2.99063 0
M  V30 19055 H 1958.99 0.154095 1.55539 0
M  V30 19056 H 1959.73 -2.26048 2.32536 0
M  V30 19057 H 1959.51 -1.18586 3.73737 0
M  V30 19058 H 1961 -2.16224 3.57263 0
M  V30 19059 N 1961.44 -1.57047 0.131923 0
M  V30 19060 C 1962.85 -1.82552 -0.391375 0
M  V30 19061 C 1963.2 -1.04983 -1.6575 0
M  V30 19062 O 1962.33 -0.2904 -2.14443 0
M  V30 19063 C 1962.92 -3.3113 -0.716843 0
M  V30 19064 C 1961.48 -3.57269 -1.18472 0
M  V30 19065 C 1960.63 -2.76578 -0.200021 0
M  V30 19066 H 1963.58 -1.54636 0.356863 0
M  V30 19067 H 1963.6 -3.46463 -1.57302 0
M  V30 19068 H 1963.11 -3.87559 0.204844 0
M  V30 19069 H 1961.21 -3.06211 -2.12287 0
M  V30 19070 H 1961.32 -4.65798 -1.12111 0
M  V30 19071 H 1959.69 -2.45185 -0.689655 0
M  V30 19072 H 1960.47 -3.35772 0.71499 0
M  V30 19073 N 1962.92 0.141865 -1.5696 0
M  V30 19074 C 1964.16 0.851923 -1.83267 0
M  V30 19075 C 1964.49 1.81473 -0.713611 0
M  V30 19076 O 1963.76 1.94109 0.264326 0
M  V30 19077 H 1962.34 0.317594 -0.676124 0
M  V30 19078 H 1965 0.134643 -1.94434 0
M  V30 19079 H 1964.09 1.41106 -2.7838 0
M  V30 19080 N 1964.39 1.52136 0.411372 0
M  V30 19081 C 1965.64 1.66331 1.16025 0
M  V30 19082 C 1965.97 0.390981 1.90223 0
M  V30 19083 O 1965.25 -0.610512 1.8467 0
M  V30 19084 C 1965.53 2.88386 2.15651 0
M  V30 19085 C 1965.38 4.25664 1.45364 0
M  V30 19086 C 1966.7 3.05963 3.16346 0
M  V30 19087 H 1963.82 0.60531 0.420439 0
M  V30 19088 H 1966.46 1.84685 0.446247 0
M  V30 19089 H 1964.61 2.72869 2.76541 0
M  V30 19090 H 1966.29 4.52904 0.876105 0
M  V30 19091 H 1964.53 4.27168 0.75563 0
M  V30 19092 H 1965.2 5.07109 2.18047 0
M  V30 19093 H 1967.68 3.20363 2.65531 0
M  V30 19094 H 1966.55 3.92882 3.83321 0
M  V30 19095 H 1966.81 2.19177 3.83945 0
M  V30 19096 N 1965.87 -0.668464 1.42721 0
M  V30 19097 C 1966.78 -1.81118 1.49109 0
M  V30 19098 C 1967.8 -1.69815 0.379331 0
M  V30 19099 O 1968.98 -1.91254 0.631187 0
M  V30 19100 C 1966.04 -3.17303 1.39713 0
M  V30 19101 C 1965.1 -3.40515 2.61434 0
M  V30 19102 C 1964.33 -4.70203 2.52477 0
M  V30 19103 O 1964.56 -5.48536 1.56411 0
M  V30 19104 O 1963.49 -4.948 3.42719 0
M  V30 19105 H 1967.32 -1.78684 2.45572 0
M  V30 19106 H 1964.9 -0.825017 1.24554 0
M  V30 19107 H 1966.78 -3.98557 1.36859 0
M  V30 19108 H 1965.46 -3.2036 0.463785 0
M  V30 19109 H 1964.37 -2.59085 2.69863 0
M  V30 19110 H 1965.7 -3.42293 3.53689 0
M  V30 19111 N 1967.35 -1.28999 -0.905381 0
M  V30 19112 C 1968.26 -1.15513 -2.04191 0
M  V30 19113 C 1969.28 -0.0797116 -1.73817 0
M  V30 19114 O 1970.45 -0.290664 -1.99292 0
M  V30 19115 C 1967.52 -0.826901 -3.36695 0
M  V30 19116 C 1966.58 -1.98557 -3.80623 0
M  V30 19117 C 1965.81 -1.6729 -5.06803 0
M  V30 19118 O 1966.04 -0.591168 -5.67328 0
M  V30 19119 O 1964.97 -2.51914 -5.46647 0
M  V30 19120 H 1968.8 -2.10942 -2.18488 0
M  V30 19121 H 1966.38 -1.08397 -1.02813 0
M  V30 19122 H 1968.26 -0.658165 -4.16228 0
M  V30 19123 H 1966.94 0.0976541 -3.23553 0
M  V30 19124 H 1965.84 -2.20951 -3.0188 0
M  V30 19125 H 1967.18 -2.89112 -3.9834 0
M  V30 19126 N 1968.83 1.11497 -1.11383 0
M  V30 19127 C 1970.08 1.82584 -0.857082 0
M  V30 19128 C 1970.39 1.8554 0.61922 0
M  V30 19129 O 1971.6 2.52721 0.992197 0
M  V30 19130 C 1970.05 3.279 -1.48356 0
M  V30 19131 C 1969.66 3.33275 -2.99386 0
M  V30 19132 C 1971.41 4.0389 -1.30663 0
M  V30 19133 C 1969.31 4.72984 -3.55021 0
M  V30 19134 H 1968.24 0.684134 -0.31698 0
M  V30 19135 H 1970.89 1.25471 -1.339 0
M  V30 19136 H 1969.28 3.84941 -0.929311 0
M  V30 19137 H 1970.45 2.86119 -3.6121 0
M  V30 19138 H 1968.76 2.70764 -3.16348 0
M  V30 19139 H 1971.36 5.07069 -1.69662 0
M  V30 19140 H 1971.7 4.15554 -0.249147 0
M  V30 19141 H 1972.24 3.53235 -1.82949 0
M  V30 19142 H 1968.98 4.66518 -4.60479 0
M  V30 19143 H 1968.5 5.20553 -2.97968 0
M  V30 19144 H 1970.18 5.41941 -3.53425 0
M  V30 19145 N 1970.31 0.904053 1.29092 0
M  V30 19146 C 1971.53 0.547082 2.00054 0
M  V30 19147 C 1971.96 -0.862026 1.67185 0
M  V30 19148 O 1971.32 -1.57449 0.898855 0
M  V30 19149 C 1971.36 0.751495 3.52682 0
M  V30 19150 O 1970.47 -0.194004 4.11943 0
M  V30 19151 H 1969.81 0.213241 0.628828 0
M  V30 19152 H 1972.34 1.21683 1.64482 0
M  V30 19153 H 1972.35 0.657831 4.02662 0
M  V30 19154 H 1971.02 1.77878 3.75942 0
M  V30 19155 H 1969.6 -0.0524281 3.72863 0
M  V30 19156 N 1971.79 -1.4279 0.666995 0
M  V30 19157 C 1973.03 -2.01245 0.185662 0
M  V30 19158 C 1973.35 -1.52966 -1.2094 0
M  V30 19159 O 1972.62 -0.748036 -1.81056 0
M  V30 19160 H 1971.2 -0.74411 0.0656484 0
M  V30 19161 H 1973.87 -1.74814 0.861754 0
M  V30 19162 H 1972.96 -3.11575 0.180905 0
M  V30 19163 N 1973.26 -0.409806 -1.52179 0
M  V30 19164 C 1974.19 0.406421 -2.29936 0
M  V30 19165 C 1975.17 1.04553 -1.34174 0
M  V30 19166 O 1976.36 1.05441 -1.63082 0
M  V30 19167 C 1973.49 1.52297 -3.12127 0
M  V30 19168 C 1972.44 1.00883 -4.15941 0
M  V30 19169 C 1971.77 2.21903 -4.8648 0
M  V30 19170 C 1973.07 0.0623996 -5.22263 0
M  V30 19171 H 1974.76 -0.242406 -2.98417 0
M  V30 19172 H 1972.31 -0.118023 -1.43516 0
M  V30 19173 H 1974.26 2.10097 -3.65291 0
M  V30 19174 H 1972.99 2.19968 -2.41416 0
M  V30 19175 H 1971.65 0.453228 -3.63788 0
M  V30 19176 H 1971.29 2.88131 -4.12298 0
M  V30 19177 H 1970.99 1.88153 -5.56662 0
M  V30 19178 H 1972.52 2.80308 -5.42457 0
M  V30 19179 H 1973.93 0.549223 -5.70663 0
M  V30 19180 H 1972.33 -0.186317 -5.99811 0
M  V30 19181 H 1973.4 -0.882673 -4.76799 0
M  V30 19182 N 1974.74 1.56975 -0.14025 0
M  V30 19183 C 1976.15 1.82757 0.381688 0
M  V30 19184 C 1976.5 1.0586 1.65191 0
M  V30 19185 O 1975.63 0.301768 2.14286 0
M  V30 19186 C 1976.22 3.31505 0.699272 0
M  V30 19187 C 1974.78 3.57892 1.16576 0
M  V30 19188 C 1973.93 2.7668 0.185351 0
M  V30 19189 H 1976.88 1.54444 -0.365058 0
M  V30 19190 H 1976.9 3.47292 1.55462 0
M  V30 19191 H 1976.41 3.87445 -0.225394 0
M  V30 19192 H 1974.51 3.07332 2.1066 0
M  V30 19193 H 1974.63 4.66386 1.0964 0
M  V30 19194 H 1972.99 2.45548 0.676642 0
M  V30 19195 H 1973.77 3.35388 -0.732787 0
M  V30 19196 N 1976.22 -0.133539 1.57033 0
M  V30 19197 C 1977.44 -0.862393 1.8862 0
M  V30 19198 C 1977.87 -1.73328 0.730696 0
M  V30 19199 O 1977.23 -1.78466 -0.319297 0
M  V30 19200 C 1977.28 -1.68381 3.18873 0
M  V30 19201 O 1976.38 -2.78939 3.03755 0
M  V30 19202 H 1975.72 -0.239391 0.619345 0
M  V30 19203 H 1978.25 -0.120306 2.04246 0
M  V30 19204 H 1978.26 -2.07606 3.51232 0
M  V30 19205 H 1976.94 -1.0444 4.02573 0
M  V30 19206 H 1975.51 -2.43022 2.82833 0
M  V30 19207 N 1977.7 -1.52352 -0.403298 0
M  V30 19208 C 1978.95 -1.66368 -1.14744 0
M  V30 19209 C 1979.27 -0.398899 -1.90876 0
M  V30 19210 O 1978.54 0.586372 -1.86918 0
M  V30 19211 H 1977.12 -0.613226 -0.426571 0
M  V30 19212 H 1979.78 -1.89416 -0.459075 0
M  V30 19213 H 1978.87 -2.50748 -1.85828 0
M  V30 19214 N 1979.18 0.660885 -1.43074 0
M  V30 19215 C 1980.09 1.80324 -1.50068 0
M  V30 19216 C 1981.1 1.69611 -0.388331 0
M  V30 19217 O 1982.28 1.90916 -0.641321 0
M  V30 19218 C 1979.34 3.16557 -1.41394 0
M  V30 19219 C 1978.4 3.39124 -2.63236 0
M  V30 19220 C 1977.64 4.68858 -2.54967 0
M  V30 19221 O 1977.86 5.47699 -1.59318 0
M  V30 19222 O 1976.79 4.92975 -3.45339 0
M  V30 19223 H 1980.62 1.77379 -2.46516 0
M  V30 19224 H 1978.2 0.8184 -1.2499 0
M  V30 19225 H 1980.09 3.97825 -1.38971 0
M  V30 19226 H 1978.76 3.2011 -0.480768 0
M  V30 19227 H 1977.67 2.5765 -2.71233 0
M  V30 19228 H 1979 3.40413 -3.555 0
M  V30 19229 N 1980.65 1.29477 0.898527 0
M  V30 19230 C 1981.9 1.1769 1.65157 0
M  V30 19231 C 1982.23 -0.270742 1.92303 0
M  V30 19232 O 1981.51 -1.19538 1.5343 0
M  V30 19233 C 1981.79 1.99186 2.99995 0
M  V30 19234 C 1981.64 3.52097 2.79906 0
M  V30 19235 C 1982.96 1.81916 4.00743 0
M  V30 19236 H 1980.08 0.428901 0.599344 0
M  V30 19237 H 1982.72 1.58963 1.04071 0
M  V30 19238 H 1980.87 1.64116 3.52134 0
M  V30 19239 H 1982.55 3.97155 2.3466 0
M  V30 19240 H 1980.79 3.76962 2.14667 0
M  V30 19241 H 1981.46 4.04394 3.75725 0
M  V30 19242 H 1983.94 2.12549 3.57718 0
M  V30 19243 H 1982.81 2.41285 4.93024 0
M  V30 19244 H 1983.07 0.774654 4.3526 0
M  V30 19245 N 1982.13 -1.10905 1.11972 0
M  V30 19246 C 1983.06 -2.19168 0.805461 0
M  V30 19247 C 1984.04 -1.68557 -0.228623 0
M  V30 19248 O 1985.23 -1.93987 -0.0908778 0
M  V30 19249 C 1982.36 -3.4637 0.253951 0
M  V30 19250 C 1981.31 -4.10228 1.22054 0
M  V30 19251 C 1980.64 -5.32072 0.529483 0
M  V30 19252 C 1981.94 -4.54506 2.57336 0
M  V30 19253 H 1983.63 -2.45713 1.71071 0
M  V30 19254 H 1981.18 -1.18096 0.823969 0
M  V30 19255 H 1983.13 -4.21394 0.0218576 0
M  V30 19256 H 1981.86 -3.19301 -0.68662 0
M  V30 19257 H 1980.51 -3.37204 1.43836 0
M  V30 19258 H 1980.16 -5.01276 -0.416074 0
M  V30 19259 H 1979.86 -5.75748 1.17422 0
M  V30 19260 H 1981.39 -6.09831 0.306313 0
M  V30 19261 H 1982.8 -5.20826 2.3961 0
M  V30 19262 H 1981.2 -5.09015 3.17842 0
M  V30 19263 H 1982.27 -3.67671 3.16143 0
M  V30 19264 N 1983.61 -0.910886 -1.2861 0
M  V30 19265 C 1984.52 -0.402088 -2.31129 0
M  V30 19266 C 1985.54 0.508811 -1.66394 0
M  V30 19267 O 1986.71 0.395691 -1.97475 0
M  V30 19268 C 1983.78 0.352182 -3.44907 0
M  V30 19269 C 1982.84 -0.59159 -4.25204 0
M  V30 19270 C 1982.07 0.126778 -5.33549 0
M  V30 19271 O 1982.29 1.34897 -5.54219 0
M  V30 19272 O 1981.23 -0.536442 -5.99505 0
M  V30 19273 H 1985.05 -1.25289 -2.76652 0
M  V30 19274 H 1982.64 -0.675604 -1.33251 0
M  V30 19275 H 1984.52 0.778285 -4.14151 0
M  V30 19276 H 1983.2 1.17886 -3.01471 0
M  V30 19277 H 1982.1 -1.06703 -3.5856 0
M  V30 19278 H 1983.44 -1.38501 -4.72312 0
M  V30 19279 N 1985.09 1.42434 -0.674558 0
M  V30 19280 C 1986.32 2.05881 -0.205113 0
M  V30 19281 C 1986.73 1.50677 1.13763 0
M  V30 19282 O 1986.09 0.646479 1.70666 0
M  V30 19283 C 1986.14 3.61262 -0.131194 0
M  V30 19284 O 1985.86 4.14419 -1.42087 0
M  V30 19285 C 1987.36 4.41821 0.361775 0
M  V30 19286 H 1984.58 0.663535 -0.0998083 0
M  V30 19287 H 1987.13 1.82575 -0.921226 0
M  V30 19288 H 1985.28 3.8368 0.535604 0
M  V30 19289 H 1985.69 5.08285 -1.29407 0
M  V30 19290 H 1987.17 5.50809 0.362405 0
M  V30 19291 H 1987.65 4.1639 1.39699 0
M  V30 19292 H 1988.25 4.24421 -0.273278 0
M  V30 19293 N 1986.57 0.417871 1.51959 0
M  V30 19294 C 1987.79 -0.156736 2.06807 0
M  V30 19295 C 1988.22 -1.37354 1.28512 0
M  V30 19296 O 1987.57 -1.78494 0.317715 0
M  V30 19297 C 1987.62 -0.476913 3.57432 0
M  V30 19298 O 1986.73 -1.56654 3.81488 0
M  V30 19299 H 1986.07 -0.0103873 0.663919 0
M  V30 19300 H 1988.6 0.593593 1.958 0
M  V30 19301 H 1988.61 -0.733026 4.01361 0
M  V30 19302 H 1987.28 0.412542 4.13849 0
M  V30 19303 H 1985.86 -1.30191 3.49435 0
M  V30 19304 N 1988.04 -1.56898 0.148573 0
M  V30 19305 C 1989.27 -2.0054 -0.509047 0
M  V30 19306 C 1989.69 -1.02867 -1.58315 0
M  V30 19307 O 1989.04 -0.0259297 -1.82482 0
M  V30 19308 C 1989.1 -3.44093 -1.10825 0
M  V30 19309 O 1988.82 -4.38032 -0.077048 0
M  V30 19310 C 1990.32 -4.03021 -1.84633 0
M  V30 19311 H 1987.54 -0.657812 -0.132378 0
M  V30 19312 H 1990.08 -2.03044 0.243618 0
M  V30 19313 H 1988.24 -3.42436 -1.81153 0
M  V30 19314 H 1988.65 -5.21953 -0.516256 0
M  V30 19315 H 1990.12 -5.05458 -2.21847 0
M  V30 19316 H 1990.6 -3.43821 -2.73283 0
M  V30 19317 H 1991.21 -4.08313 -1.19 0
M  V30 19318 N 1989.52 0.125209 -1.57102 0
M  V30 19319 C 1990.75 0.852378 -1.89075 0
M  V30 19320 C 1991.17 1.72938 -0.739878 0
M  V30 19321 O 1990.53 1.78633 0.309828 0
M  V30 19322 C 1990.58 1.66688 -3.19762 0
M  V30 19323 O 1989.68 2.77324 -3.0523 0
M  V30 19324 H 1989.02 0.236103 -0.620606 0
M  V30 19325 H 1991.55 0.109473 -2.04307 0
M  V30 19326 H 1991.56 2.0574 -3.52328 0
M  V30 19327 H 1990.24 1.02303 -4.03121 0
M  V30 19328 H 1988.82 2.41519 -2.84118 0
M  V30 19329 N 1991 1.52564 0.395213 0
M  V30 19330 C 1991.96 1.76262 1.46508 0
M  V30 19331 C 1992.96 0.632579 1.47835 0
M  V30 19332 O 1994.15 0.900582 1.49115 0
M  V30 19333 C 1991.29 1.85771 2.85835 0
M  V30 19334 H 1992.48 2.71784 1.26782 0
M  V30 19335 H 1990.03 1.43191 0.626572 0
M  V30 19336 H 1990.77 0.922125 3.10914 0
M  V30 19337 H 1990.55 2.67936 2.86274 0
M  V30 19338 H 1992.04 2.05799 3.63368 0
M  V30 19339 N 1992.48 -0.653289 1.43422 0
M  V30 19340 C 1993.72 -1.41528 1.4525 0
M  V30 19341 C 1994.06 -1.94049 0.0764514 0
M  V30 19342 O 1993.33 -1.72284 -0.902682 0
M  V30 19343 C 1993.62 -2.59676 2.49481 0
M  V30 19344 C 1993.47 -2.12647 3.9636 0
M  V30 19345 C 1994.79 -3.61889 2.50449 0
M  V30 19346 H 1991.91 -0.513273 0.528885 0
M  V30 19347 H 1994.55 -0.740628 1.74971 0
M  V30 19348 H 1992.7 -3.17232 2.24268 0
M  V30 19349 H 1994.37 -1.60092 4.32629 0
M  V30 19350 H 1992.61 -1.4402 4.09195 0
M  V30 19351 H 1993.28 -2.97607 4.64902 0
M  V30 19352 H 1995.76 -3.14091 2.72921 0
M  V30 19353 H 1994.64 -4.42106 3.2532 0
M  V30 19354 H 1994.9 -4.14475 1.53826 0
M  V30 19355 N 1993.96 -1.29952 -0.891648 0
M  V30 19356 C 1995.2 -1.18155 -1.63963 0
M  V30 19357 C 1995.53 0.265477 -1.93184 0
M  V30 19358 O 1994.8 1.1802 -1.56359 0
M  V30 19359 H 1993.38 -0.434297 -0.607779 0
M  V30 19360 H 1996.04 -1.62988 -1.06869 0
M  V30 19361 H 1995.13 -1.73753 -2.59261 0
M  V30 19362 N 1995.44 1.1031 -1.12559 0
M  V30 19363 C 1996.71 1.788 -0.793094 0
M  V30 19364 C 1997.09 1.98553 0.716932 0
M  V30 19365 O 1996.44 1.57962 1.65107 0
M  V30 19366 C 1996.65 3.1171 -1.56964 0
M  V30 19367 C 1998 3.86566 -1.75648 0
M  V30 19368 O 1999.02 3.21435 -1.53487 0
M  V30 19369 O 1997.88 5.03468 -2.1256 0
M  V30 19370 H 1994.98 0.775004 -0.288612 0
M  V30 19371 H 1997.52 1.16948 -1.22969 0
M  V30 19372 H 1996.29 2.92761 -2.59628 0
M  V30 19373 H 1995.92 3.81282 -1.12738 0
M  V30 19374 N 1996.91 0.917694 1.28125 0
M  V30 19375 C 1997.84 0.426179 2.29578 0
M  V30 19376 C 1998.82 -0.508289 1.62328 0
M  V30 19377 O 2000.01 -0.415181 1.8971 0
M  V30 19378 C 1997.14 -0.331007 3.45719 0
M  V30 19379 C 1996.09 0.51469 4.24894 0
M  V30 19380 C 1995.42 -0.371069 5.33411 0
M  V30 19381 C 1996.72 1.774 4.9125 0
M  V30 19382 H 1998.41 1.27403 2.7094 0
M  V30 19383 H 1995.96 0.614065 1.30251 0
M  V30 19384 H 1997.91 -0.68573 4.15783 0
M  V30 19385 H 1996.64 -1.2128 3.03247 0
M  V30 19386 H 1995.3 0.851986 3.56562 0
M  V30 19387 H 1994.94 -1.25152 4.87182 0
M  V30 19388 H 1994.64 0.19121 5.87289 0
M  V30 19389 H 1996.17 -0.721587 6.06321 0
M  V30 19390 H 1997.58 1.48795 5.53654 0
M  V30 19391 H 1995.98 2.27899 5.55141 0
M  V30 19392 H 1997.05 2.49947 4.15517 0
M  V30 19393 N 1998.39 -1.42074 0.682102 0
M  V30 19394 C 1999.62 -2.06288 0.214488 0
M  V30 19395 C 2000.04 -1.50942 -1.12241 0
M  V30 19396 O 1999.4 -0.63086 -1.6997 0
M  V30 19397 C 1999.45 -3.60208 0.167989 0
M  V30 19398 O 1998.55 -4.03306 -0.86129 0
M  V30 19399 H 1997.89 -0.655134 0.108148 0
M  V30 19400 H 2000.42 -1.8208 0.933171 0
M  V30 19401 H 2000.43 -4.08 -0.00570039 0
M  V30 19402 H 1999.11 -3.99863 1.14378 0
M  V30 19403 H 1997.68 -3.67048 -0.65805 0
M  V30 19404 N 1999.87 -0.425924 -1.51735 0
M  V30 19405 C 2001.12 0.144058 -2.01586 0
M  V30 19406 C 2001.44 1.44204 -1.31264 0
M  V30 19407 O 2000.71 1.9081 -0.443661 0
M  V30 19408 H 1999.29 0.0562264 -0.744881 0
M  V30 19409 H 2001.95 -0.566016 -1.865 0
M  V30 19410 H 2001.05 0.328161 -3.1037 0
M  V30 19411 N 2001.35 1.56817 -0.156891 0
M  V30 19412 C 2002.28 2.20266 0.774915 0
M  V30 19413 C 2003.26 1.15387 1.24979 0
M  V30 19414 O 2004.44 1.43766 1.30557 0
M  V30 19415 C 2001.57 2.83207 2.01025 0
M  V30 19416 C 2000.53 3.94 1.67177 0
M  V30 19417 C 1999.85 4.43921 2.98057 0
M  V30 19418 C 2001.15 5.14297 0.91083 0
M  V30 19419 H 2002.85 2.98387 0.246082 0
M  V30 19420 H 2000.39 1.43525 0.116921 0
M  V30 19421 H 2002.35 3.26264 2.66701 0
M  V30 19422 H 2001.07 2.02433 2.56298 0
M  V30 19423 H 1999.73 3.51576 1.03876 0
M  V30 19424 H 1999.38 3.59957 3.5134 0
M  V30 19425 H 1999.08 5.18657 2.76169 0
M  V30 19426 H 2000.6 4.89656 3.64787 0
M  V30 19427 H 2002.02 5.54137 1.46988 0
M  V30 19428 H 2000.41 5.94857 0.791526 0
M  V30 19429 H 2001.48 4.84806 -0.0955943 0
M  V30 19430 N 2002.83 -0.116876 1.57166 0
M  V30 19431 C 2004.24 -0.673792 1.74118 0
M  V30 19432 C 2004.59 -1.80206 0.775892 0
M  V30 19433 O 2003.71 -2.16341 -0.0507019 0
M  V30 19434 C 2004.31 -1.22903 3.15722 0
M  V30 19435 C 2002.87 -1.73222 3.34172 0
M  V30 19436 C 2002.01 -0.632798 2.69983 0
M  V30 19437 H 2004.96 0.109055 1.58325 0
M  V30 19438 H 2004.99 -2.09867 3.1739 0
M  V30 19439 H 2004.5 -0.407637 3.85953 0
M  V30 19440 H 2002.6 -2.57832 2.68986 0
M  V30 19441 H 2002.71 -1.8402 4.4235 0
M  V30 19442 H 2001.08 -1.06693 2.31276 0
M  V30 19443 H 2001.86 0.177653 3.4284 0
M  V30 19444 N 2004.3 -1.52772 -0.387116 0
M  V30 19445 C 2005.53 -1.72086 -1.15763 0
M  V30 19446 C 2005.95 -0.43912 -1.82903 0
M  V30 19447 O 2005.31 0.605254 -1.70899 0
M  V30 19448 C 2005.36 -2.87248 -2.17992 0
M  V30 19449 O 2004.46 -2.54353 -3.2462 0
M  V30 19450 H 2003.8 -0.572174 -0.336918 0
M  V30 19451 H 2006.33 -1.99571 -0.450833 0
M  V30 19452 H 2006.34 -3.12798 -2.61957 0
M  V30 19453 H 2005.02 -3.80232 -1.68513 0
M  V30 19454 H 2003.6 -2.39551 -2.8578 0
M  V30 19455 N 2005.78 0.645673 -1.43767 0
M  V30 19456 C 2007.03 1.4027 -1.45495 0
M  V30 19457 C 2007.35 1.94822 -0.0832023 0
M  V30 19458 O 2006.62 1.74895 0.882519 0
M  V30 19459 H 2005.2 0.520611 -0.535699 0
M  V30 19460 H 2007.86 0.760978 -1.7943 0
M  V30 19461 H 2006.96 2.24129 -2.17192 0
M  V30 19462 N 2007.26 1.30423 0.884744 0
M  V30 19463 C 2008.51 1.19023 1.63334 0
M  V30 19464 C 2008.83 -0.255228 1.93322 0
M  V30 19465 O 2008.1 -1.17189 1.56983 0
M  V30 19466 H 2006.68 0.437514 0.605467 0
M  V30 19467 H 2009.34 1.63552 1.06003 0
M  V30 19468 H 2008.44 1.75125 2.58336 0
M  V30 19469 N 2008.74 -1.09711 1.13142 0
M  V30 19470 C 2009.65 -2.19825 0.819391 0
M  V30 19471 C 2010.66 -1.72906 -0.19483 0
M  V30 19472 O 2011.84 -2.01382 -0.0265972 0
M  V30 19473 C 2008.9 -3.45512 0.286717 0
M  V30 19474 C 2007.97 -4.07128 1.36181 0
M  V30 19475 C 2007.2 -5.26816 0.854462 0
M  V30 19476 O 2007.42 -5.69562 -0.309043 0
M  V30 19477 O 2006.36 -5.79481 1.62745 0
M  V30 19478 H 2010.18 -2.48963 1.73928 0
M  V30 19479 H 2007.77 -1.18591 0.908654 0
M  V30 19480 H 2009.65 -4.214 -0.00508436 0
M  V30 19481 H 2008.32 -3.17984 -0.605634 0
M  V30 19482 H 2007.23 -3.32891 1.70689 0
M  V30 19483 H 2008.56 -4.38876 2.2282 0
M  V30 19484 N 2010.22 -0.924476 -1.27637 0
M  V30 19485 C 2011.46 -0.564054 -1.94798 0
M  V30 19486 C 2011.8 0.891863 -1.72509 0
M  V30 19487 O 2011.07 1.63577 -1.05228 0
M  V30 19488 C 2011.35 -0.886888 -3.49008 0
M  V30 19489 C 2011.21 -2.39632 -3.80653 0
M  V30 19490 C 2012.53 -0.390514 -4.38364 0
M  V30 19491 H 2009.64 -0.206399 -0.707509 0
M  V30 19492 H 2012.29 -1.15567 -1.50812 0
M  V30 19493 H 2010.44 -0.383406 -3.86603 0
M  V30 19494 H 2012.11 -2.97125 -3.52866 0
M  V30 19495 H 2010.35 -2.84685 -3.27318 0
M  V30 19496 H 2011.02 -2.57274 -4.88379 0
M  V30 19497 H 2013.5 -0.821972 -4.07901 0
M  V30 19498 H 2012.37 -0.645381 -5.45093 0
M  V30 19499 H 2012.64 0.709365 -4.36372 0
M  V30 19500 N 2011.69 1.41711 -0.689627 0
M  V30 19501 C 2012.62 2.33474 -0.0348045 0
M  V30 19502 C 2013.61 1.51494 0.773533 0
M  V30 19503 O 2014.79 1.8005 0.727705 0
M  V30 19504 C 2011.92 3.35259 0.906573 0
M  V30 19505 C 2010.87 4.27505 0.205762 0
M  V30 19506 C 2010.2 5.19616 1.26109 0
M  V30 19507 C 2011.5 5.14056 -0.92431 0
M  V30 19508 H 2013.19 2.88481 -0.801208 0
M  V30 19509 H 2010.74 1.3871 -0.386738 0
M  V30 19510 H 2012.69 3.98375 1.37386 0
M  V30 19511 H 2011.42 2.78589 1.70457 0
M  V30 19512 H 2010.08 3.65804 -0.241437 0
M  V30 19513 H 2009.72 4.59264 2.05147 0
M  V30 19514 H 2009.42 5.82167 0.797221 0
M  V30 19515 H 2010.95 5.85609 1.72901 0
M  V30 19516 H 2012.36 5.70774 -0.537573 0
M  V30 19517 H 2010.76 5.85517 -1.3149 0
M  V30 19518 H 2011.83 4.51574 -1.7666 0
M  V30 19519 N 2013.17 0.433965 1.51507 0
M  V30 19520 C 2014.08 -0.385423 2.31412 0
M  V30 19521 C 2015.1 -1.03078 1.40182 0
M  V30 19522 O 2016.27 -1.02688 1.73254 0
M  V30 19523 C 2013.34 -1.47371 3.13819 0
M  V30 19524 C 2012.4 -0.848838 4.20824 0
M  V30 19525 C 2011.63 -1.88527 4.99293 0
M  V30 19526 O 2011.86 -3.107 4.78353 0
M  V30 19527 O 2010.79 -1.47768 5.83479 0
M  V30 19528 H 2014.62 0.266798 3.02526 0
M  V30 19529 H 2012.2 0.19658 1.48101 0
M  V30 19530 H 2014.08 -2.10495 3.65061 0
M  V30 19531 H 2012.76 -2.11008 2.45474 0
M  V30 19532 H 2011.67 -0.179639 3.73668 0
M  V30 19533 H 2013 -0.256013 4.91534 0
M  V30 19534 N 2014.65 -1.56732 0.165206 0
M  V30 19535 C 2015.9 -1.95872 -0.481368 0
M  V30 19536 C 2016.21 -1.05357 -1.64801 0
M  V30 19537 O 2017.42 -1.34152 -2.36041 0
M  V30 19538 C 2015.87 -3.48264 -0.907766 0
M  V30 19539 C 2015.48 -4.47394 0.232939 0
M  V30 19540 C 2017.23 -3.96235 -1.5231 0
M  V30 19541 C 2015.13 -5.91017 -0.212747 0
M  V30 19542 H 2014.06 -0.731304 -0.183605 0
M  V30 19543 H 2016.71 -1.81755 0.252461 0
M  V30 19544 H 2015.1 -3.57777 -1.69739 0
M  V30 19545 H 2016.27 -4.49591 1.01018 0
M  V30 19546 H 2014.59 -4.09446 0.757843 0
M  V30 19547 H 2017.18 -5.0099 -1.8685 0
M  V30 19548 H 2017.53 -3.38822 -2.41879 0
M  V30 19549 H 2018.06 -3.89713 -0.798029 0
M  V30 19550 H 2014.8 -6.52289 0.648008 0
M  V30 19551 H 2014.32 -5.92141 -0.955479 0
M  V30 19552 H 2016 -6.43638 -0.658675 0
M  V30 19553 N 2016.13 0.10854 -1.57226 0
M  V30 19554 C 2017.35 0.832276 -1.89968 0
M  V30 19555 C 2017.78 1.72143 -0.758179 0
M  V30 19556 O 2017.14 1.78952 0.290864 0
M  V30 19557 C 2017.18 1.63287 -3.21512 0
M  V30 19558 O 2016.29 2.74071 -3.08154 0
M  V30 19559 H 2015.63 0.229508 -0.623075 0
M  V30 19560 H 2018.16 0.0877974 -2.04412 0
M  V30 19561 H 2018.17 2.01992 -3.5449 0
M  V30 19562 H 2016.84 0.98022 -4.04184 0
M  V30 19563 H 2015.42 2.38492 -2.86664 0
M  V30 19564 N 2017.61 1.52975 0.379009 0
M  V30 19565 C 2018.85 1.68755 1.12471 0
M  V30 19566 C 2019.19 0.431242 1.89351 0
M  V30 19567 O 2018.46 -0.571204 1.85923 0
M  V30 19568 C 2018.74 2.92896 2.09485 0
M  V30 19569 C 2018.6 4.28651 1.36302 0
M  V30 19570 C 2019.92 3.12604 3.09785 0
M  V30 19571 H 2017.03 0.614092 0.407504 0
M  V30 19572 H 2019.68 1.8559 0.406972 0
M  V30 19573 H 2017.83 2.78673 2.70691 0
M  V30 19574 H 2019.5 4.54661 0.779841 0
M  V30 19575 H 2017.74 4.28675 0.664851 0
M  V30 19576 H 2018.41 5.1162 2.07241 0
M  V30 19577 H 2020.89 3.25924 2.58675 0
M  V30 19578 H 2019.76 4.00924 3.74901 0
M  V30 19579 H 2020.03 2.27272 3.79209 0
M  V30 19580 N 2019.08 -0.63804 1.44107 0
M  V30 19581 C 2020.31 -1.43004 1.50215 0
M  V30 19582 C 2020.73 -1.87678 0.125903 0
M  V30 19583 O 2020.09 -1.58316 -0.883508 0
M  V30 19584 C 2020.14 -2.63112 2.46585 0
M  V30 19585 O 2019.24 -3.62706 1.9626 0
M  V30 19586 H 2018.59 -0.428173 0.507508 0
M  V30 19587 H 2021.12 -0.779402 1.89173 0
M  V30 19588 H 2021.13 -3.10742 2.64393 0
M  V30 19589 H 2019.8 -2.29941 3.46554 0
M  V30 19590 H 2018.38 -3.21932 1.88186 0
M  V30 19591 N 2020.56 -1.3089 -0.877815 0
M  V30 19592 C 2021.81 -1.19888 -1.627 0
M  V30 19593 C 2022.13 0.244972 -1.93455 0
M  V30 19594 O 2021.4 1.16355 -1.57602 0
M  V30 19595 H 2019.98 -0.440719 -0.603138 0
M  V30 19596 H 2022.64 -1.64112 -1.05134 0
M  V30 19597 H 2021.74 -1.76493 -2.57404 0
M  V30 19598 N 2022.04 1.0911 -1.13723 0
M  V30 19599 C 2023.29 1.81621 -0.902319 0
M  V30 19600 C 2023.62 1.85646 0.570009 0
M  V30 19601 O 2022.89 1.32706 1.42195 0
M  V30 19602 C 2023.18 3.27604 -1.49492 0
M  V30 19603 C 2023.03 3.3183 -3.03659 0
M  V30 19604 C 2024.35 4.24378 -1.16581 0
M  V30 19605 H 2021.47 0.659374 -0.329233 0
M  V30 19606 H 2024.11 1.27792 -1.40603 0
M  V30 19607 H 2022.26 3.73574 -1.06653 0
M  V30 19608 H 2023.93 2.94239 -3.55276 0
M  V30 19609 H 2022.18 2.71317 -3.38481 0
M  V30 19610 H 2022.85 4.34686 -3.40224 0
M  V30 19611 H 2025.32 3.8671 -1.53604 0
M  V30 19612 H 2024.2 5.24853 -1.60688 0
M  V30 19613 H 2024.46 4.42028 -0.0800013 0
M  V30 19614 N 2023.52 0.931232 1.27145 0
M  V30 19615 C 2024.43 0.438807 2.3046 0
M  V30 19616 C 2025.44 -0.482275 1.67183 0
M  V30 19617 O 2026.62 -0.364225 1.98079 0
M  V30 19618 C 2023.69 -0.297266 3.45423 0
M  V30 19619 C 2022.75 0.659161 4.24209 0
M  V30 19620 C 2021.98 -0.0418787 5.33684 0
M  V30 19621 O 2022.2 -1.26062 5.56295 0
M  V30 19622 O 2021.14 0.631751 5.98575 0
M  V30 19623 H 2024.96 1.29675 2.74624 0
M  V30 19624 H 2022.55 0.696718 1.3216 0
M  V30 19625 H 2024.43 -0.712299 4.15336 0
M  V30 19626 H 2023.1 -1.13075 3.03308 0
M  V30 19627 H 2022.01 1.12394 3.56817 0
M  V30 19628 H 2023.34 1.45997 4.70049 0
M  V30 19629 N 2025 -1.41343 0.697132 0
M  V30 19630 C 2026.27 -1.94971 0.156721 0
M  V30 19631 C 2026.65 -1.63641 -1.33359 0
M  V30 19632 O 2026 -0.944246 -2.08077 0
M  V30 19633 C 2026.21 -3.46091 0.449687 0
M  V30 19634 C 2027.56 -4.22912 0.378281 0
M  V30 19635 O 2028.58 -3.54117 0.38469 0
M  V30 19636 O 2027.44 -5.45443 0.339755 0
M  V30 19637 H 2024.54 -0.826847 0.0158852 0
M  V30 19638 H 2027.08 -1.51052 0.7734 0
M  V30 19639 H 2025.86 -3.62183 1.48119 0
M  V30 19640 H 2025.48 -3.97107 -0.197886 0
M  V30 19641 N 2026.48 -0.441993 -1.51275 0
M  V30 19642 C 2027.72 0.124439 -2.01316 0
M  V30 19643 C 2028.04 1.43376 -1.33051 0
M  V30 19644 O 2029.24 2.08342 -1.74086 0
M  V30 19645 C 2027.7 0.272307 -3.58868 0
M  V30 19646 C 2027.31 -1.02686 -4.36073 0
M  V30 19647 C 2029.05 0.792259 -4.17041 0
M  V30 19648 C 2026.96 -0.844378 -5.85341 0
M  V30 19649 H 2025.89 0.0502803 -0.752322 0
M  V30 19650 H 2028.54 -0.572465 -1.74342 0
M  V30 19651 H 2026.92 1.03232 -3.82308 0
M  V30 19652 H 2028.1 -1.79557 -4.24377 0
M  V30 19653 H 2026.41 -1.4757 -3.89374 0
M  V30 19654 H 2029.01 0.94535 -5.26277 0
M  V30 19655 H 2029.35 1.77595 -3.76518 0
M  V30 19656 H 2029.88 0.0904292 -3.97697 0
M  V30 19657 H 2026.62 -1.80058 -6.30285 0
M  V30 19658 H 2026.14 -0.115549 -5.99689 0
M  V30 19659 H 2027.82 -0.499412 -6.4507 0
M  V30 19660 N 2027.95 1.56642 -0.173515 0
M  V30 19661 C 2029.18 2.01763 0.480249 0
M  V30 19662 C 2029.6 1.05294 1.55868 0
M  V30 19663 O 2028.96 0.0328468 1.8127 0
M  V30 19664 C 2029.01 3.45473 1.03349 0
M  V30 19665 O 2028.11 3.52081 2.14739 0
M  V30 19666 H 2027.45 0.654011 0.114743 0
M  V30 19667 H 2029.98 2.02702 -0.278052 0
M  V30 19668 H 2029.99 3.84823 1.35554 0
M  V30 19669 H 2028.67 4.15184 0.243902 0
M  V30 19670 H 2027.25 3.24591 1.83562 0
M  V30 19671 N 2029.43 -0.1002 1.57281 0
M  V30 19672 C 2030.68 -0.803034 1.85461 0
M  V30 19673 C 2031 -1.79518 0.761475 0
M  V30 19674 O 2030.27 -1.94741 -0.212768 0
M  V30 19675 H 2028.85 -0.299556 0.684306 0
M  V30 19676 H 2031.51 -0.0830444 1.94723 0
M  V30 19677 H 2030.61 -1.33676 2.82024 0
M  V30 19678 N 2030.91 -1.53174 -0.370891 0
M  V30 19679 C 2031.84 -1.82213 -1.46017 0
M  V30 19680 C 2032.82 -0.675274 -1.56122 0
M  V30 19681 O 2034.01 -0.924614 -1.70776 0
M  V30 19682 C 2031.14 -2.00727 -2.83419 0
M  V30 19683 C 2030.09 -3.16478 -2.88141 0
M  V30 19684 C 2029.42 -3.20276 -4.28167 0
M  V30 19685 C 2030.72 -4.55179 -2.56143 0
M  V30 19686 H 2032.41 -2.73432 -1.21965 0
M  V30 19687 H 2029.96 -1.31569 -0.585288 0
M  V30 19688 H 2031.91 -2.19625 -3.59643 0
M  V30 19689 H 2030.63 -1.06213 -3.08847 0
M  V30 19690 H 2029.29 -2.97392 -2.14367 0
M  V30 19691 H 2028.94 -2.2341 -4.50663 0
M  V30 19692 H 2028.64 -3.98044 -4.32244 0
M  V30 19693 H 2030.16 -3.41352 -5.06272 0
M  V30 19694 H 2031.58 -4.74274 -3.22082 0
M  V30 19695 H 2029.97 -5.35148 -2.71544 0
M  V30 19696 H 2031.04 -4.60654 -1.51412 0
M  V30 19697 N 2032.39 0.630389 -1.44443 0
M  V30 19698 C 2033.8 1.21202 -1.4201 0
M  V30 19699 C 2034.15 1.95729 -0.135833 0
M  V30 19700 O 2033.27 2.02474 0.763765 0
M  V30 19701 C 2033.87 2.20458 -2.57262 0
M  V30 19702 C 2032.43 2.74047 -2.58021 0
M  V30 19703 C 2031.58 1.49058 -2.33831 0
M  V30 19704 H 2034.53 0.421022 -1.53013 0
M  V30 19705 H 2034.55 3.03074 -2.30057 0
M  V30 19706 H 2034.06 1.66188 -3.50718 0
M  V30 19707 H 2032.16 3.32319 -1.68509 0
M  V30 19708 H 2032.27 3.20036 -3.56531 0
M  V30 19709 H 2030.64 1.77216 -1.82939 0
M  V30 19710 H 2031.42 0.96689 -3.29403 0
M  V30 19711 N 2033.87 1.31354 0.870861 0
M  V30 19712 C 2035.09 1.24082 1.66188 0
M  V30 19713 C 2035.52 -0.190886 1.87129 0
M  V30 19714 O 2034.87 -1.13669 1.41241 0
M  V30 19715 C 2034.92 1.98926 3.00767 0
M  V30 19716 O 2034.03 1.32599 3.90501 0
M  V30 19717 H 2033.37 0.428443 0.50728 0
M  V30 19718 H 2035.9 1.73408 1.08586 0
M  V30 19719 H 2035.91 2.08487 3.5071 0
M  V30 19720 H 2034.58 3.03044 2.84846 0
M  V30 19721 H 2033.16 1.31483 3.48951 0
M  V30 19722 N 2035.34 -1.08505 1.143 0
M  V30 19723 C 2036.59 -1.80514 0.908791 0
M  V30 19724 C 2036.91 -1.86599 -0.566196 0
M  V30 19725 O 2036.18 -1.35837 -1.41156 0
M  V30 19726 H 2034.76 -0.668553 0.333235 0
M  V30 19727 H 2037.42 -1.31188 1.44138 0
M  V30 19728 H 2036.52 -2.83375 1.30786 0
M  V30 19729 N 2036.82 -0.937962 -1.26649 0
M  V30 19730 C 2037.73 -0.451023 -2.30224 0
M  V30 19731 C 2038.75 0.473402 -1.67436 0
M  V30 19732 O 2039.92 0.353715 -1.9827 0
M  V30 19733 C 2036.99 0.278943 -3.45576 0
M  V30 19734 C 2036.05 -0.681649 -4.23854 0
M  V30 19735 C 2035.28 0.0135756 -5.33698 0
M  V30 19736 O 2035.51 1.2311 -5.56956 0
M  V30 19737 O 2034.44 -0.663486 -5.98232 0
M  V30 19738 H 2038.27 -1.31129 -2.73932 0
M  V30 19739 H 2035.85 -0.703717 -1.31788 0
M  V30 19740 H 2037.73 0.690262 -4.15708 0
M  V30 19741 H 2036.41 1.11465 -3.03903 0
M  V30 19742 H 2035.31 -1.14285 -3.56216 0
M  V30 19743 H 2036.65 -1.48488 -4.69268 0
M  V30 19744 N 2038.3 1.40971 -0.704618 0
M  V30 19745 C 2039.55 2.01377 -0.239781 0
M  V30 19746 C 2039.88 1.5571 1.16051 0
M  V30 19747 O 2039.15 0.772278 1.78511 0
M  V30 19748 C 2039.44 3.58784 -0.307556 0
M  V30 19749 C 2039.29 4.14553 -1.74544 0
M  V30 19750 C 2040.61 4.3888 0.327516 0
M  V30 19751 H 2037.73 0.731655 -0.088603 0
M  V30 19752 H 2040.37 1.67597 -0.895048 0
M  V30 19753 H 2038.52 3.87692 0.25036 0
M  V30 19754 H 2040.19 3.96486 -2.3579 0
M  V30 19755 H 2038.43 3.69254 -2.2767 0
M  V30 19756 H 2039.11 5.23715 -1.74433 0
M  V30 19757 H 2041.58 4.15838 -0.147737 0
M  V30 19758 H 2040.46 5.48332 0.249594 0
M  V30 19759 H 2040.72 4.19029 1.40952 0
M  V30 19760 N 2039.78 0.45001 1.51039 0
M  V30 19761 C 2041.02 -0.112357 2.02489 0
M  V30 19762 C 2041.36 -1.41249 1.33276 0
M  V30 19763 O 2040.63 -1.89183 0.451679 0
M  V30 19764 C 2040.92 -0.318025 3.58693 0
M  V30 19765 C 2040.77 1.00164 4.38506 0
M  V30 19766 C 2042.09 -1.08213 4.26589 0
M  V30 19767 H 2039.21 -0.0393599 0.735948 0
M  V30 19768 H 2041.85 0.591485 1.80559 0
M  V30 19769 H 2040 -0.917553 3.77509 0
M  V30 19770 H 2041.67 1.63613 4.3131 0
M  V30 19771 H 2039.91 1.60329 4.03085 0
M  V30 19772 H 2040.58 0.811628 5.46001 0
M  V30 19773 H 2043.06 -0.574174 4.12119 0
M  V30 19774 H 2041.94 -1.19481 5.35738 0
M  V30 19775 H 2042.2 -2.11345 3.88311 0
M  V30 19776 N 2041.26 -1.56548 0.18182 0
M  V30 19777 C 2042.17 -2.22065 -0.756597 0
M  V30 19778 C 2043.18 -1.21554 -1.24501 0
M  V30 19779 O 2044.36 -1.5425 -1.29495 0
M  V30 19780 C 2041.42 -2.85678 -1.9644 0
M  V30 19781 C 2040.48 -4.0142 -1.52185 0
M  V30 19782 C 2039.72 -4.61991 -2.67209 0
M  V30 19783 O 2039.94 -4.21463 -3.8435 0
M  V30 19784 O 2038.87 -5.51685 -2.40682 0
M  V30 19785 H 2042.7 -3.02838 -0.228696 0
M  V30 19786 H 2040.29 -1.49326 -0.0468661 0
M  V30 19787 H 2042.17 -3.25973 -2.67057 0
M  V30 19788 H 2040.84 -2.07894 -2.48116 0
M  V30 19789 H 2039.75 -3.65774 -0.784878 0
M  V30 19790 H 2041.08 -4.80828 -1.0519 0
M  V30 19791 N 2042.73 0.0918577 -1.57332 0
M  V30 19792 C 2043.96 0.808218 -1.90461 0
M  V30 19793 C 2044.38 1.72122 -0.775843 0
M  V30 19794 O 2043.73 1.80752 0.251995 0
M  V30 19795 C 2043.79 1.61885 -3.23227 0
M  V30 19796 O 2043.51 0.742563 -4.31761 0
M  V30 19797 C 2045.01 2.43798 -3.7024 0
M  V30 19798 H 2042.23 0.230915 -0.630015 0
M  V30 19799 H 2044.77 0.0681235 -2.04387 0
M  V30 19800 H 2042.93 2.31142 -3.1089 0
M  V30 19801 H 2043.34 1.30433 -5.08023 0
M  V30 19802 H 2044.81 2.96164 -4.65823 0
M  V30 19803 H 2045.29 3.2241 -2.98242 0
M  V30 19804 H 2045.9 1.79734 -3.85455 0
M  V30 19805 N 2044.21 1.53368 0.362763 0
M  V30 19806 C 2045.44 1.73906 1.13011 0
M  V30 19807 C 2045.86 0.468163 1.82181 0
M  V30 19808 O 2045.22 -0.577989 1.7184 0
M  V30 19809 C 2045.27 2.9068 2.13395 0
M  V30 19810 O 2044.37 2.59486 3.20532 0
M  V30 19811 H 2043.71 0.577461 0.327772 0
M  V30 19812 H 2046.24 2.00263 0.419026 0
M  V30 19813 H 2046.25 3.16926 2.56948 0
M  V30 19814 H 2044.93 3.82865 1.62442 0
M  V30 19815 H 2043.51 2.44067 2.81932 0
M  V30 19816 N 2045.69 -0.62272 1.44776 0
M  V30 19817 C 2046.65 -1.71618 1.5192 0
M  V30 19818 C 2047.65 -1.55738 0.400303 0
M  V30 19819 O 2048.84 -1.6108 0.66324 0
M  V30 19820 C 2045.98 -3.10771 1.40122 0
M  V30 19821 H 2047.17 -1.66655 2.49332 0
M  V30 19822 H 2044.72 -0.837126 1.31992 0
M  V30 19823 H 2045.46 -3.21323 0.438374 0
M  V30 19824 H 2045.24 -3.23705 2.21264 0
M  V30 19825 H 2046.73 -3.90448 1.48122 0
M  V30 19826 N 2047.17 -1.31814 -0.863883 0
M  V30 19827 C 2048.39 -1.24961 -1.65528 0
M  V30 19828 C 2048.82 0.18096 -1.87228 0
M  V30 19829 O 2048.18 1.12919 -1.41842 0
M  V30 19830 C 2048.22 -2.00518 -2.99708 0
M  V30 19831 O 2047.33 -1.34668 -3.89793 0
M  V30 19832 H 2046.67 -0.431127 -0.505001 0
M  V30 19833 H 2049.2 -1.73981 -1.07665 0
M  V30 19834 H 2049.21 -2.10344 -3.49599 0
M  V30 19835 H 2047.88 -3.0455 -2.83235 0
M  V30 19836 H 2046.46 -1.33332 -3.48249 0
M  V30 19837 N 2048.65 1.07897 -1.14873 0
M  V30 19838 C 2049.89 1.8003 -0.918351 0
M  V30 19839 C 2050.22 1.86897 0.556293 0
M  V30 19840 O 2049.49 1.36584 1.40434 0
M  V30 19841 H 2048.07 0.666777 -0.336776 0
M  V30 19842 H 2050.73 1.30421 -1.44832 0
M  V30 19843 H 2049.82 2.82678 -1.32287 0
M  V30 19844 N 2050.12 0.944665 1.2615 0
M  V30 19845 C 2051.37 0.589817 1.92884 0
M  V30 19846 C 2051.69 -0.875787 1.74898 0
M  V30 19847 O 2052.89 -1.34016 2.36118 0
M  V30 19848 C 2051.35 1.00415 3.45608 0
M  V30 19849 C 2050.96 2.4916 3.72321 0
M  V30 19850 C 2052.7 0.721357 4.18326 0
M  V30 19851 C 2050.61 2.84445 5.18503 0
M  V30 19852 H 2049.54 0.216879 0.722135 0
M  V30 19853 H 2052.19 1.14777 1.43173 0
M  V30 19854 H 2050.57 0.374687 3.94223 0
M  V30 19855 H 2051.74 3.1704 3.34398 0
M  V30 19856 H 2050.06 2.74805 3.12843 0
M  V30 19857 H 2052.66 0.961267 5.25988 0
M  V30 19858 H 2053 -0.341981 4.14893 0
M  V30 19859 H 2053.53 1.3107 3.75587 0
M  V30 19860 H 2050.27 3.89756 5.2704 0
M  V30 19861 H 2049.79 2.2123 5.5751 0
M  V30 19862 H 2051.47 2.73098 5.86538 0
M  V30 19863 N 2051.6 -1.40596 0.712085 0
M  V30 19864 C 2052.51 -2.34528 0.0582122 0
M  V30 19865 C 2053.53 -1.57115 -0.747715 0
M  V30 19866 O 2054.7 -1.8952 -0.681477 0
M  V30 19867 C 2051.77 -3.35992 -0.855008 0
M  V30 19868 C 2050.83 -4.29282 -0.0394267 0
M  V30 19869 C 2050.06 -5.25899 -0.909154 0
M  V30 19870 O 2050.29 -5.28392 -2.14845 0
M  V30 19871 O 2049.22 -6.00881 -0.350012 0
M  V30 19872 H 2053.05 -2.92055 0.832915 0
M  V30 19873 H 2050.63 -1.4173 0.472537 0
M  V30 19874 H 2052.51 -3.98225 -1.3782 0
M  V30 19875 H 2051.19 -2.80883 -1.60892 0
M  V30 19876 H 2050.1 -3.70344 0.528757 0
M  V30 19877 H 2051.43 -4.87533 0.676185 0
M  V30 19878 N 2053.08 -0.458013 -1.50798 0
M  V30 19879 C 2054.36 0.162411 -1.94925 0
M  V30 19880 C 2054.74 1.58194 -1.39777 0
M  V30 19881 O 2054.09 2.20663 -0.59332 0
M  V30 19882 C 2054.3 0.119083 -3.48797 0
M  V30 19883 C 2055.64 0.314458 -4.23434 0
M  V30 19884 O 2056.67 0.196266 -3.55659 0
M  V30 19885 O 2055.53 0.551722 -5.43708 0
M  V30 19886 H 2052.62 0.118781 -0.818425 0
M  V30 19887 H 2055.17 -0.517478 -1.61618 0
M  V30 19888 H 2053.94 -0.872528 -3.81448 0
M  V30 19889 H 2053.56 0.840995 -3.88604 0
M  V30 19890 N 2054.56 1.56449 -0.190119 0
M  V30 19891 C 2055.81 1.9773 0.450624 0
M  V30 19892 C 2056.14 1.07678 1.61614 0
M  V30 19893 O 2055.41 0.127743 1.9408 0
M  V30 19894 C 2055.7 3.48267 0.915552 0
M  V30 19895 C 2055.55 4.49097 -0.251436 0
M  V30 19896 C 2056.87 4.02374 1.78278 0
M  V30 19897 H 2053.99 0.718902 0.162325 0
M  V30 19898 H 2056.63 1.87925 -0.28004 0
M  V30 19899 H 2054.78 3.56753 1.53816 0
M  V30 19900 H 2056.45 4.52653 -0.888996 0
M  V30 19901 H 2054.69 4.24276 -0.903996 0
M  V30 19902 H 2055.37 5.51877 0.116306 0
M  V30 19903 H 2057.84 3.96636 1.25774 0
M  V30 19904 H 2056.72 5.08084 2.07706 0
M  V30 19905 H 2056.98 3.4733 2.73522 0
M  V30 19906 N 2056.04 -0.0835127 1.57379 0
M  V30 19907 C 2057.26 -0.801948 1.91268 0
M  V30 19908 C 2057.69 -1.70915 0.785469 0
M  V30 19909 O 2057.05 -1.79392 -0.262357 0
M  V30 19910 C 2057.09 -1.58151 3.24069 0
M  V30 19911 O 2056.2 -2.69134 3.12475 0
M  V30 19912 H 2055.54 -0.219566 0.626647 0
M  V30 19913 H 2058.07 -0.0552662 2.04525 0
M  V30 19914 H 2058.08 -1.96327 3.57659 0
M  V30 19915 H 2056.75 -0.915794 4.05692 0
M  V30 19916 H 2055.33 -2.33901 2.90422 0
M  V30 19917 N 2057.52 -1.53558 -0.354624 0
M  V30 19918 C 2058.43 -1.83745 -1.4586 0
M  V30 19919 C 2059.44 -0.72668 -1.58099 0
M  V30 19920 O 2060.62 -1.01786 -1.73786 0
M  V30 19921 C 2057.68 -2.03089 -2.80991 0
M  V30 19922 C 2056.74 -3.26971 -2.78187 0
M  V30 19923 C 2055.98 -3.45383 -4.06874 0
M  V30 19924 O 2056.2 -2.6786 -5.03594 0
M  V30 19925 O 2055.13 -4.38776 -4.12019 0
M  V30 19926 H 2058.96 -2.77557 -1.23271 0
M  V30 19927 H 2056.54 -1.39075 -0.545763 0
M  V30 19928 H 2058.43 -2.17321 -3.6104 0
M  V30 19929 H 2057.1 -1.12466 -3.03534 0
M  V30 19930 H 2056.01 -3.18153 -1.96798 0
M  V30 19931 H 2057.34 -4.17552 -2.60598 0
M  V30 19932 N 2058.99 0.615033 -1.45104 0
M  V30 19933 C 2059.92 1.73703 -1.56043 0
M  V30 19934 C 2060.9 1.65025 -0.412413 0
M  V30 19935 O 2062.09 1.83539 -0.634606 0
M  V30 19936 C 2059.22 3.12287 -1.51968 0
M  V30 19937 C 2058.17 3.35769 -2.65411 0
M  V30 19938 C 2057.5 4.74549 -2.46389 0
M  V30 19939 C 2058.8 3.26752 -4.07469 0
M  V30 19940 H 2060.49 1.64805 -2.4996 0
M  V30 19941 H 2058.04 0.791445 -1.203 0
M  V30 19942 H 2059.99 3.9057 -1.58219 0
M  V30 19943 H 2058.72 3.22008 -0.545769 0
M  V30 19944 H 2057.38 2.59874 -2.58575 0
M  V30 19945 H 2057.02 4.80994 -1.47153 0
M  V30 19946 H 2056.72 4.91217 -3.22458 0
M  V30 19947 H 2058.25 5.55041 -2.54482 0
M  V30 19948 H 2059.66 3.94918 -4.15587 0
M  V30 19949 H 2058.06 3.54952 -4.83869 0
M  V30 19950 H 2059.13 2.24305 -4.29902 0
M  V30 19951 N 2060.47 1.3227 0.85688 0
M  V30 19952 C 2061.88 1.20411 1.42682 0
M  V30 19953 C 2062.23 -0.184254 1.95333 0
M  V30 19954 O 2061.36 -1.08285 1.87359 0
M  V30 19955 C 2061.95 2.17989 2.59358 0
M  V30 19956 C 2060.51 2.10024 3.12357 0
M  V30 19957 C 2059.66 2.0648 1.85098 0
M  V30 19958 H 2062.61 1.4413 0.664236 0
M  V30 19959 H 2062.63 1.77712 3.3645 0
M  V30 19960 H 2062.14 3.19026 2.21007 0
M  V30 19961 H 2060.24 1.12227 3.55297 0
M  V30 19962 H 2060.36 2.99744 3.73752 0
M  V30 19963 H 2058.72 1.51687 2.04605 0
M  V30 19964 H 2059.5 3.09296 1.48967 0
M  V30 19965 N 2061.95 -1.07287 1.15444 0
M  V30 19966 C 2063.17 -1.84153 0.954061 0
M  V30 19967 C 2063.6 -1.81534 -0.492639 0
M  V30 19968 O 2062.96 -1.20877 -1.35124 0
M  V30 19969 C 2063.01 -3.29112 1.4737 0
M  V30 19970 O 2062.11 -4.06866 0.673335 0
M  V30 19971 H 2061.45 -0.570198 0.34025 0
M  V30 19972 H 2063.98 -1.35339 1.53442 0
M  V30 19973 H 2063.99 -3.79944 1.48682 0
M  V30 19974 H 2062.67 -3.30333 2.52691 0
M  V30 19975 H 2061.24 -3.65687 0.729894 0
M  V30 19976 N 2063.43 -0.951342 -1.25647 0
M  V30 19977 C 2064.68 -0.603157 -1.9289 0
M  V30 19978 C 2065 0.862093 -1.74908 0
M  V30 19979 O 2064.27 1.61366 -1.11075 0
M  V30 19980 H 2062.85 -0.220085 -0.713843 0
M  V30 19981 H 2065.51 -1.20887 -1.5288 0
M  V30 19982 H 2064.6 -0.82965 -3.00871 0
M  V30 19983 N 2064.91 1.40216 -0.719531 0
M  V30 19984 C 2065.82 2.34494 -0.0706489 0
M  V30 19985 C 2066.83 1.5751 0.739372 0
M  V30 19986 O 2068.01 1.89879 0.671417 0
M  V30 19987 C 2065.07 3.36441 0.837178 0
M  V30 19988 C 2064.13 4.29297 0.0166603 0
M  V30 19989 C 2063.37 5.26374 0.881251 0
M  V30 19990 O 2063.59 5.29524 2.1204 0
M  V30 19991 O 2062.52 6.01059 0.318141 0
M  V30 19992 H 2066.35 2.91609 -0.848392 0
M  V30 19993 H 2063.93 1.41478 -0.480047 0
M  V30 19994 H 2065.82 3.98951 1.35707 0
M  V30 19995 H 2064.49 2.81733 1.594 0
M  V30 19996 H 2063.4 3.70059 -0.54839 0
M  V30 19997 H 2064.73 4.87168 -0.70203 0
M  V30 19998 N 2066.38 0.466004 1.50553 0
M  V30 19999 C 2067.63 -0.09056 2.01897 0
M  V30 20000 C 2067.95 -1.40673 1.35041 0
M  V30 20001 O 2067.22 -1.89567 0.494095 0
M  V30 20002 H 2065.8 -0.0364574 0.74611 0
M  V30 20003 H 2068.46 0.615265 1.84934 0
M  V30 20004 H 2067.56 -0.245757 3.11131 0
M  V30 20005 N 2067.86 -1.56346 0.198413 0
M  V30 20006 C 2068.79 -2.22244 -0.716243 0
M  V30 20007 C 2069.77 -1.1866 -1.21876 0
M  V30 20008 O 2070.96 -1.47177 -1.26699 0
M  V30 20009 C 2068.09 -2.88437 -1.93446 0
M  V30 20010 C 2067.04 -3.98294 -1.56672 0
M  V30 20011 C 2066.37 -4.51668 -2.86182 0
M  V30 20012 C 2067.67 -5.16531 -0.774153 0
M  V30 20013 H 2069.36 -2.98935 -0.166883 0
M  V30 20014 H 2066.91 -1.43784 -0.0788267 0
M  V30 20015 H 2068.86 -3.33221 -2.57957 0
M  V30 20016 H 2067.58 -2.09157 -2.5084 0
M  V30 20017 H 2066.24 -3.54206 -0.945178 0
M  V30 20018 H 2065.89 -3.69146 -3.41673 0
M  V30 20019 H 2065.59 -5.25796 -2.6232 0
M  V30 20020 H 2067.12 -4.99155 -3.51676 0
M  V30 20021 H 2068.53 -5.57839 -1.32244 0
M  V30 20022 H 2066.93 -5.96746 -0.633532 0
M  V30 20023 H 2068 -4.84382 0.224098 0
M  V30 20024 N 2069.34 0.0751653 -1.57421 0
M  V30 20025 C 2070.25 1.10763 -2.06806 0
M  V30 20026 C 2071.27 1.4261 -0.99691 0
M  V30 20027 O 2072.44 1.52854 -1.31139 0
M  V30 20028 C 2069.51 2.40281 -2.49932 0
M  V30 20029 C 2068.57 2.15435 -3.7133 0
M  V30 20030 C 2067.8 3.38777 -4.1239 0
M  V30 20031 O 2068.02 4.4777 -3.53353 0
M  V30 20032 O 2066.96 3.27189 -5.05204 0
M  V30 20033 H 2070.78 0.718102 -2.95088 0
M  V30 20034 H 2068.37 0.289065 -1.46577 0
M  V30 20035 H 2070.25 3.16509 -2.78208 0
M  V30 20036 H 2068.93 2.7862 -1.64781 0
M  V30 20037 H 2067.83 1.36922 -3.48142 0
M  V30 20038 H 2069.17 1.81978 -4.57324 0
M  V30 20039 N 2070.82 1.53744 0.346476 0
M  V30 20040 C 2072.05 1.74784 1.10717 0
M  V30 20041 C 2072.46 0.485625 1.82448 0
M  V30 20042 O 2071.82 -0.542565 1.74248 0
M  V30 20043 C 2071.87 2.926 2.1229 0
M  V30 20044 O 2071.59 4.13939 1.43477 0
M  V30 20045 C 2073.09 3.25667 3.00758 0
M  V30 20046 H 2070.31 0.58408 0.33029 0
M  V30 20047 H 2072.86 2.00558 0.399573 0
M  V30 20048 H 2071.01 2.69165 2.7862 0
M  V30 20049 H 2071.42 4.80051 2.11308 0
M  V30 20050 H 2072.9 4.11463 3.6797 0
M  V30 20051 H 2073.38 2.41845 3.66617 0
M  V30 20052 H 2073.98 3.51098 2.40022 0
M  V30 20053 N 2072.3 -0.607329 1.45428 0
M  V30 20054 C 2073.52 -1.39786 1.53214 0
M  V30 20055 C 2073.95 -1.87369 0.165684 0
M  V30 20056 O 2073.3 -1.60154 -0.849728 0
M  V30 20057 C 2073.35 -2.57823 2.52111 0
M  V30 20058 O 2072.46 -3.58462 2.03909 0
M  V30 20059 H 2071.8 -0.417312 0.516476 0
M  V30 20060 H 2074.33 -0.739101 1.90784 0
M  V30 20061 H 2074.34 -3.05064 2.70925 0
M  V30 20062 H 2073.01 -2.22539 3.51354 0
M  V30 20063 H 2071.59 -3.17868 1.94973 0
M  V30 20064 N 2073.77 -1.32722 -0.849853 0
M  V30 20065 C 2074.74 -1.21991 -1.94038 0
M  V30 20066 C 2075.74 -0.141727 -1.60174 0
M  V30 20067 O 2076.93 -0.392477 -1.69721 0
M  V30 20068 C 2074.06 -0.877223 -3.2942 0
M  V30 20069 H 2075.25 -2.18913 -2.04981 0
M  V30 20070 H 2072.81 -1.16623 -1.04062 0
M  V30 20071 H 2073.54 0.0899704 -3.24175 0
M  V30 20072 H 2073.33 -1.65681 -3.55376 0
M  V30 20073 H 2074.82 -0.826588 -4.09338 0
M  V30 20074 N 2075.25 1.06673 -1.16011 0
M  V30 20075 C 2076.48 1.83645 -0.963814 0
M  V30 20076 C 2076.9 1.81793 0.483005 0
M  V30 20077 O 2076.26 1.21592 1.34481 0
M  V30 20078 C 2076.31 3.28326 -1.49113 0
M  V30 20079 O 2075.41 4.06503 -0.694902 0
M  V30 20080 H 2074.75 0.568386 -0.343269 0
M  V30 20081 H 2077.28 1.34523 -1.54158 0
M  V30 20082 H 2077.29 3.7915 -1.50695 0
M  V30 20083 H 2075.97 3.28988 -2.5444 0
M  V30 20084 H 2074.55 3.65295 -0.749278 0
M  V30 20085 N 2076.73 0.957992 1.25141 0
M  V30 20086 C 2077.98 0.613378 1.92567 0
M  V30 20087 C 2078.3 -0.852805 1.75363 0
M  V30 20088 O 2077.57 -1.60775 1.11929 0
M  V30 20089 H 2076.15 0.223867 0.712666 0
M  V30 20090 H 2078.81 1.21696 1.52237 0
M  V30 20091 H 2077.91 0.845594 3.00427 0
M  V30 20092 N 2078.21 -1.39832 0.726957 0
M  V30 20093 C 2079.45 -2.00971 0.271788 0
M  V30 20094 C 2079.79 -1.57537 -1.13559 0
M  V30 20095 O 2079.06 -0.800579 -1.7726 0
M  V30 20096 C 2079.35 -3.5825 0.364596 0
M  V30 20097 C 2079.2 -4.11724 1.81117 0
M  V30 20098 C 2080.52 -4.39345 -0.257652 0
M  V30 20099 H 2077.64 -0.730152 0.100232 0
M  V30 20100 H 2080.28 -1.66152 0.921599 0
M  V30 20101 H 2078.43 -3.88042 -0.18865 0
M  V30 20102 H 2080.1 -3.92684 2.42068 0
M  V30 20103 H 2078.34 -3.65585 2.33516 0
M  V30 20104 H 2079.01 -5.20873 1.82743 0
M  V30 20105 H 2081.49 -4.1555 0.213875 0
M  V30 20106 H 2080.37 -5.4866 -0.162327 0
M  V30 20107 H 2080.63 -4.21218 -1.34267 0
M  V30 20108 N 2079.69 -0.473982 -1.50304 0
M  V30 20109 C 2080.6 0.323933 -2.32353 0
M  V30 20110 C 2081.61 0.993251 -1.42865 0
M  V30 20111 O 2082.79 0.980589 -1.75916 0
M  V30 20112 C 2079.85 1.38999 -3.17616 0
M  V30 20113 C 2078.91 0.736965 -4.22927 0
M  V30 20114 C 2078.15 1.75223 -5.04116 0
M  V30 20115 O 2078.37 2.97908 -4.86423 0
M  V30 20116 O 2077.3 1.32246 -5.87192 0
M  V30 20117 H 2081.13 -0.346913 -3.01712 0
M  V30 20118 H 2078.72 -0.235777 -1.47528 0
M  V30 20119 H 2080.6 2.00742 -3.70514 0
M  V30 20120 H 2079.27 2.04425 -2.50982 0
M  V30 20121 H 2078.18 0.0805047 -3.74013 0
M  V30 20122 H 2079.51 0.125602 -4.9204 0
M  V30 20123 N 2081.16 1.56239 -0.206702 0
M  V30 20124 C 2082.44 1.89689 0.477219 0
M  V30 20125 C 2082.82 1.12193 1.78818 0
M  V30 20126 O 2082.17 0.226599 2.27374 0
M  V30 20127 C 2082.38 3.42218 0.684683 0
M  V30 20128 C 2083.73 4.12685 0.998827 0
M  V30 20129 O 2084.75 3.47734 0.771997 0
M  V30 20130 O 2083.61 5.275 1.42851 0
M  V30 20131 H 2080.7 0.788217 0.250286 0
M  V30 20132 H 2083.25 1.67881 -0.247781 0
M  V30 20133 H 2082.02 3.90559 -0.240635 0
M  V30 20134 H 2081.65 3.69756 1.46172 0
M  V30 20135 N 2082.64 -0.0668159 1.57458 0
M  V30 20136 C 2083.57 -1.0791 2.07069 0
M  V30 20137 C 2084.55 -1.40063 0.965207 0
M  V30 20138 O 2085.74 -1.49604 1.23823 0
M  V30 20139 C 2082.87 -2.39113 2.51877 0
M  V30 20140 C 2081.82 -2.213 3.66347 0
M  V30 20141 C 2081.15 -3.57931 3.97227 0
M  V30 20142 C 2082.45 -1.63013 4.9621 0
M  V30 20143 H 2084.14 -0.666254 2.91893 0
M  V30 20144 H 2081.69 -0.319039 1.40421 0
M  V30 20145 H 2083.64 -3.10226 2.85198 0
M  V30 20146 H 2082.37 -2.82387 1.64088 0
M  V30 20147 H 2081.02 -1.52628 3.33317 0
M  V30 20148 H 2080.67 -3.98784 3.06562 0
M  V30 20149 H 2080.37 -3.4685 4.74309 0
M  V30 20150 H 2081.9 -4.30467 4.33048 0
M  V30 20151 H 2083.31 -2.23997 5.27729 0
M  V30 20152 H 2081.71 -1.62614 5.77648 0
M  V30 20153 H 2082.78 -0.592078 4.81272 0
M  V30 20154 N 2084.12 -1.53926 -0.338317 0
M  V30 20155 C 2085.35 -1.75682 -1.1023 0
M  V30 20156 C 2085.77 -0.497087 -1.81413 0
M  V30 20157 O 2085.13 0.550577 -1.72738 0
M  V30 20158 C 2085.18 -2.94038 -2.08743 0
M  V30 20159 O 2084.28 -2.64552 -3.16364 0
M  V30 20160 H 2083.62 -0.582603 -0.318544 0
M  V30 20161 H 2086.15 -2.00904 -0.387113 0
M  V30 20162 H 2086.16 -3.20973 -2.51873 0
M  V30 20163 H 2084.84 -3.854 -1.56331 0
M  V30 20164 H 2083.41 -2.48521 -2.78014 0
M  V30 20165 N 2085.6 0.599608 -1.45748 0
M  V30 20166 C 2087.02 0.921212 -1.3033 0
M  V30 20167 C 2087.22 1.99787 -0.262213 0
M  V30 20168 O 2086.27 2.50186 0.34109 0
M  V30 20169 C 2087.58 1.35457 -2.68462 0
M  V30 20170 C 2089.13 1.46835 -2.76421 0
M  V30 20171 C 2089.61 1.93544 -4.15096 0
M  V30 20172 N 2091.1 2.00765 -4.1743 0
M  V30 20173 C 2091.83 2.38145 -5.21608 0
M  V30 20174 N 2091.33 2.74437 -6.36126 0
M  V30 20175 N 2093.12 2.38554 -5.08968 0
M  V30 20176 H 2085.27 -0.111892 -2.12105 0
M  V30 20177 H 2087.54 0.0126042 -0.947916 0
M  V30 20178 H 2087.24 0.63759 -3.45872 0
M  V30 20179 H 2087.12 2.31951 -2.97453 0
M  V30 20180 H 2089.5 2.17623 -1.99309 0
M  V30 20181 H 2089.58 0.486356 -2.51134 0
M  V30 20182 H 2089.23 1.2334 -4.92696 0
M  V30 20183 H 2089.16 2.92672 -4.3778 0
M  V30 20184 H 2091.65 1.75275 -3.34794 0
M  V30 20185 H 2091.96 3.01865 -7.11405 0
M  V30 20186 H 2090.31 2.72115 -6.39514 0
M  V30 20187 H 2093.5 2.09612 -4.18546 0
M  V30 20188 H 2093.67 2.67359 -5.90274 0
M  V30 20189 N 2087.08 1.33171 0.842803 0
M  V30 20190 C 2088.01 1.2572 1.96766 0
M  V30 20191 C 2088.99 0.138574 1.69535 0
M  V30 20192 O 2090.17 0.327704 1.91415 0
M  V30 20193 C 2087.3 0.991637 3.32842 0
M  V30 20194 C 2086.26 2.07278 3.74459 0
M  V30 20195 C 2085.58 1.65942 5.08299 0
M  V30 20196 C 2086.88 3.48911 3.88662 0
M  V30 20197 H 2088.58 2.19834 2.03257 0
M  V30 20198 H 2086.12 1.05829 0.976533 0
M  V30 20199 H 2088.08 0.926021 4.111 0
M  V30 20200 H 2086.8 0.0148823 3.26597 0
M  V30 20201 H 2085.46 2.12875 2.98462 0
M  V30 20202 H 2085.11 0.669795 4.98521 0
M  V30 20203 H 2084.81 2.38288 5.37115 0
M  V30 20204 H 2086.33 1.60839 5.89036 0
M  V30 20205 H 2087.75 3.45837 4.57241 0
M  V30 20206 H 2086.14 4.1971 4.2891 0
M  V30 20207 H 2087.21 3.87705 2.91226 0
M  V30 20208 N 2088.56 -1.06056 1.16576 0
M  V30 20209 C 2089.97 -1.60363 0.956067 0
M  V30 20210 C 2090.32 -1.89737 -0.499436 0
M  V30 20211 O 2089.44 -1.67257 -1.3731 0
M  V30 20212 C 2090.04 -2.91353 1.72913 0
M  V30 20213 C 2088.6 -3.42352 1.56436 0
M  V30 20214 C 2087.74 -2.1621 1.73633 0
M  V30 20215 H 2090.69 -0.889768 1.31411 0
M  V30 20216 H 2090.72 -3.6087 1.20636 0
M  V30 20217 H 2090.23 -2.69942 2.78842 0
M  V30 20218 H 2088.33 -3.68817 0.529577 0
M  V30 20219 H 2088.44 -4.17519 2.34978 0
M  V30 20220 H 2086.81 -2.26548 1.16396 0
M  V30 20221 H 2087.59 -1.97279 2.80955 0
M  V30 20222 N 2090.03 -0.964615 -1.24631 0
M  V30 20223 C 2091.26 -0.641907 -1.97216 0
M  V30 20224 C 2091.68 0.781279 -1.71107 0
M  V30 20225 O 2091.04 1.52981 -0.972952 0
M  V30 20226 C 2091.09 -0.918908 -3.48695 0
M  V30 20227 O 2090.19 -0.00276058 -4.124 0
M  V30 20228 H 2089.53 -0.243001 -0.617937 0
M  V30 20229 H 2092.06 -1.29393 -1.58489 0
M  V30 20230 H 2092.07 -0.849197 -3.99065 0
M  V30 20231 H 2090.75 -1.95612 -3.67027 0
M  V30 20232 H 2089.33 -0.125529 -3.72689 0
M  V30 20233 N 2091.51 1.39445 -0.734362 0
M  V30 20234 C 2092.76 2.0013 -0.281468 0
M  V30 20235 C 2093.08 1.58562 1.13504 0
M  V30 20236 O 2092.35 0.833568 1.77281 0
M  V30 20237 H 2090.93 0.74013 -0.101076 0
M  V30 20238 H 2093.59 1.70503 -0.944178 0
M  V30 20239 H 2092.69 3.10357 -0.329356 0
M  V30 20240 N 2092.99 0.481946 1.5005 0
M  V30 20241 C 2093.9 -0.311606 2.32521 0
M  V30 20242 C 2094.92 -0.985661 1.4339 0
M  V30 20243 O 2096.09 -0.971246 1.76433 0
M  V30 20244 C 2093.16 -1.37313 3.18349 0
M  V30 20245 C 2092.22 -0.714526 4.23312 0
M  V30 20246 C 2091.45 -1.72547 5.05038 0
M  V30 20247 O 2091.67 -2.95324 4.87996 0
M  V30 20248 O 2090.61 -1.2913 5.87885 0
M  V30 20249 H 2094.43 0.362909 3.01524 0
M  V30 20250 H 2092.02 0.243598 1.47401 0
M  V30 20251 H 2093.9 -1.98774 3.71573 0
M  V30 20252 H 2092.58 -2.03091 2.52063 0
M  V30 20253 H 2091.48 -0.0606687 3.74051 0
M  V30 20254 H 2092.82 -0.099506 4.92099 0
M  V30 20255 N 2094.47 -1.56127 0.214985 0
M  V30 20256 C 2095.38 -2.2362 -0.709323 0
M  V30 20257 C 2096.39 -1.24168 -1.21895 0
M  V30 20258 O 2097.57 -1.56962 -1.26194 0
M  V30 20259 C 2094.63 -2.89781 -1.90337 0
M  V30 20260 C 2093.7 -4.04558 -1.43636 0
M  V30 20261 C 2092.93 -4.67555 -2.57349 0
M  V30 20262 O 2093.15 -4.29521 -3.75324 0
M  V30 20263 O 2092.09 -5.56666 -2.28925 0
M  V30 20264 H 2095.91 -3.03255 -0.164408 0
M  V30 20265 H 2093.5 -1.49392 -0.0151812 0
M  V30 20266 H 2095.38 -3.31565 -2.60082 0
M  V30 20267 H 2094.05 -2.1311 -2.43651 0
M  V30 20268 H 2092.96 -3.67356 -0.707115 0
M  V30 20269 H 2094.29 -4.82951 -0.94967 0
M  V30 20270 N 2095.95 0.0584645 -1.57492 0
M  V30 20271 C 2097.19 0.75619 -1.88174 0
M  V30 20272 C 2097.52 1.76546 -0.809018 0
M  V30 20273 O 2096.8 1.93672 0.179286 0
M  V30 20274 C 2097.08 1.45223 -3.29518 0
M  V30 20275 C 2096.94 0.458472 -4.47457 0
M  V30 20276 C 2098.25 2.39381 -3.69303 0
M  V30 20277 H 2095.37 0.27344 -0.684397 0
M  V30 20278 H 2098.02 0.0191997 -1.8999 0
M  V30 20279 H 2096.17 2.08044 -3.28101 0
M  V30 20280 H 2097.84 -0.165547 -4.61003 0
M  V30 20281 H 2096.08 -0.225018 -4.33216 0
M  V30 20282 H 2096.75 0.983384 -5.4317 0
M  V30 20283 H 2099.23 1.86628 -3.719 0
M  V30 20284 H 2098.1 2.85078 -4.69065 0
M  V30 20285 H 2098.36 3.24775 -2.99956 0
M  V30 20286 N 2097.42 1.54103 0.330149 0
M  V30 20287 C 2098.35 1.8602 1.41134 0
M  V30 20288 C 2099.33 0.716429 1.54277 0
M  V30 20289 O 2100.52 0.969568 1.68265 0
M  V30 20290 C 2097.65 2.08171 2.77997 0
M  V30 20291 C 2096.6 3.24007 2.79649 0
M  V30 20292 C 2095.93 3.31516 4.19525 0
M  V30 20293 C 2097.23 4.6181 2.43985 0
M  V30 20294 H 2098.92 2.76569 1.14672 0
M  V30 20295 H 2096.47 1.33074 0.550199 0
M  V30 20296 H 2098.42 2.29083 3.53694 0
M  V30 20297 H 2097.15 1.14364 3.05922 0
M  V30 20298 H 2095.81 3.02971 2.06407 0
M  V30 20299 H 2095.45 2.3528 4.44581 0
M  V30 20300 H 2095.15 4.09364 4.21538 0
M  V30 20301 H 2096.68 3.54655 4.97044 0
M  V30 20302 H 2098.09 4.82647 3.09395 0
M  V30 20303 H 2096.49 5.4216 2.5726 0
M  V30 20304 H 2097.56 4.64507 1.39146 0
M  V30 20305 N 2098.9 -0.59187 1.46064 0
M  V30 20306 C 2099.81 -1.72959 1.585 0
M  V30 20307 C 2100.83 -1.67565 0.468813 0
M  V30 20308 O 2102 -1.87639 0.731679 0
M  V30 20309 C 2099.07 -3.09451 1.56336 0
M  V30 20310 C 2098.13 -3.26179 2.79117 0
M  V30 20311 C 2097.36 -4.56159 2.77046 0
M  V30 20312 O 2097.59 -5.39474 1.85268 0
M  V30 20313 O 2096.52 -4.75937 3.68466 0
M  V30 20314 H 2100.35 -1.65416 2.54699 0
M  V30 20315 H 2097.93 -0.757834 1.28753 0
M  V30 20316 H 2099.81 -3.90742 1.57793 0
M  V30 20317 H 2098.49 -3.17451 0.632949 0
M  V30 20318 H 2097.4 -2.44416 2.83217 0
M  V30 20319 H 2098.73 -3.23064 3.71336 0
M  V30 20320 N 2100.38 -1.33616 -0.835729 0
M  V30 20321 C 2101.63 -1.24597 -1.58614 0
M  V30 20322 C 2101.94 0.185813 -1.94715 0
M  V30 20323 O 2103.15 0.398045 -2.68566 0
M  V30 20324 C 2101.6 -2.18339 -2.86105 0
M  V30 20325 C 2101.21 -3.66705 -2.57355 0
M  V30 20326 C 2102.96 -2.182 -3.64128 0
M  V30 20327 C 2100.86 -4.52352 -3.80962 0
M  V30 20328 H 2099.79 -0.462802 -0.595256 0
M  V30 20329 H 2102.44 -1.58701 -0.921212 0
M  V30 20330 H 2100.83 -1.77172 -3.54156 0
M  V30 20331 H 2102 -4.16331 -1.97496 0
M  V30 20332 H 2100.32 -3.69164 -1.92631 0
M  V30 20333 H 2102.91 -2.79417 -4.55884 0
M  V30 20334 H 2103.26 -1.17789 -3.99289 0
M  V30 20335 H 2103.79 -2.57745 -3.03005 0
M  V30 20336 H 2100.53 -5.5365 -3.5093 0
M  V30 20337 H 2100.05 -4.07467 -4.40149 0
M  V30 20338 H 2101.73 -4.66315 -4.48508 0
M  V30 20339 N 2101.86 1.05436 -1.17136 0
M  V30 20340 C 2103.08 1.82612 -0.983237 0
M  V30 20341 C 2103.51 1.82295 0.463697 0
M  V30 20342 O 2102.87 1.23011 1.33184 0
M  V30 20343 C 2102.91 3.26726 -1.52587 0
M  V30 20344 O 2102.02 4.05743 -0.737979 0
M  V30 20345 H 2101.36 0.564713 -0.349279 0
M  V30 20346 H 2103.89 1.3288 -1.55576 0
M  V30 20347 H 2103.9 3.77531 -1.54708 0
M  V30 20348 H 2102.57 3.26271 -2.57915 0
M  V30 20349 H 2101.15 3.64479 -0.78798 0
M  V30 20350 N 2103.34 0.971211 1.24118 0
M  V30 20351 C 2104.3 0.509064 2.23475 0
M  V30 20352 C 2105.3 -0.39631 1.5584 0
M  V30 20353 O 2106.49 -0.191281 1.73147 0
M  V30 20354 C 2103.62 -0.262327 3.39889 0
M  V30 20355 H 2104.81 1.38746 2.65875 0
M  V30 20356 H 2102.37 0.756154 1.36792 0
M  V30 20357 H 2103.1 -1.15767 3.02933 0
M  V30 20358 H 2102.89 0.387439 3.90181 0
M  V30 20359 H 2104.38 -0.574574 4.13628 0
M  V30 20360 N 2104.81 -1.39054 0.741747 0
M  V30 20361 C 2106.04 -2.05193 0.301789 0
M  V30 20362 C 2106.46 -1.55567 -1.05739 0
M  V30 20363 O 2105.82 -0.702382 -1.67141 0
M  V30 20364 C 2105.87 -3.59172 0.320615 0
M  V30 20365 O 2104.97 -4.06596 -0.68946 0
M  V30 20366 H 2104.32 -0.649957 0.135837 0
M  V30 20367 H 2106.85 -1.77958 1.00956 0
M  V30 20368 H 2106.86 -4.07657 0.167351 0
M  V30 20369 H 2105.53 -3.94652 1.31234 0
M  V30 20370 H 2104.11 -3.69509 -0.50178 0
M  V30 20371 N 2106.29 -0.489897 -1.49792 0
M  V30 20372 C 2107.54 0.0584284 -2.02016 0
M  V30 20373 C 2107.86 1.38507 -1.37262 0
M  V30 20374 O 2107.13 1.88757 -0.524191 0
M  V30 20375 H 2105.71 0.0245828 -0.746595 0
M  V30 20376 H 2108.37 -0.644608 -1.83932 0
M  V30 20377 H 2107.47 0.196227 -3.11483 0
M  V30 20378 N 2107.77 1.56011 -0.223262 0
M  V30 20379 C 2109.02 1.98348 0.407977 0
M  V30 20380 C 2109.35 1.11094 1.59651 0
M  V30 20381 O 2108.6 0.156272 1.95075 0
M  V30 20382 C 2108.9 3.46302 0.883731 0
M  V30 20383 C 2108.57 4.5048 -0.194465 0
M  V30 20384 C 2107.23 4.78692 -0.490651 0
M  V30 20385 C 2109.58 5.12952 -0.923571 0
M  V30 20386 C 2106.91 5.66657 -1.52043 0
M  V30 20387 C 2109.26 6.02032 -1.9427 0
M  V30 20388 C 2107.92 6.28586 -2.24579 0
M  V30 20389 H 2107.19 0.725806 0.149289 0
M  V30 20390 H 2109.84 1.88702 -0.326139 0
M  V30 20391 H 2108.15 3.53159 1.69664 0
M  V30 20392 H 2109.84 3.76432 1.38202 0
M  V30 20393 H 2106.43 4.28575 0.046538 0
M  V30 20394 H 2110.62 4.91224 -0.707988 0
M  V30 20395 H 2105.87 5.85495 -1.76086 0
M  V30 20396 H 2110.05 6.49489 -2.51272 0
M  V30 20397 H 2107.67 6.96545 -3.04515 0
M  V30 20398 N 2109.25 -0.0501116 1.5752 0
M  V30 20399 C 2110.5 -0.743624 1.87922 0
M  V30 20400 C 2110.82 -1.77004 0.818202 0
M  V30 20401 O 2110.09 -1.95319 -0.150705 0
M  V30 20402 H 2108.67 -0.277634 0.69349 0
M  V30 20403 H 2111.33 -0.0210527 1.94889 0
M  V30 20404 H 2110.43 -1.24635 2.86134 0
M  V30 20405 N 2110.73 -1.54276 -0.321972 0
M  V30 20406 C 2112 -1.63209 -1.07806 0
M  V30 20407 C 2112.38 -0.466965 -2.0587 0
M  V30 20408 O 2111.73 0.538598 -2.22062 0
M  V30 20409 C 2111.94 -3.00279 -1.77858 0
M  V30 20410 C 2113.29 -3.5638 -2.30822 0
M  V30 20411 O 2114.31 -3.02594 -1.87923 0
M  V30 20412 O 2113.17 -4.50507 -3.09364 0
M  V30 20413 H 2110.27 -0.660982 -0.497023 0
M  V30 20414 H 2112.81 -1.66622 -0.321736 0
M  V30 20415 H 2111.58 -3.76518 -1.06537 0
M  V30 20416 H 2111.21 -3.00552 -2.60297 0
M  V30 20417 N 2112.2 0.584116 -1.46376 0
M  V30 20418 C 2113.13 1.70354 -1.59693 0
M  V30 20419 C 2114.12 1.64113 -0.447325 0
M  V30 20420 O 2115.3 1.82151 -0.673394 0
M  V30 20421 C 2112.43 3.08993 -1.58558 0
M  V30 20422 C 2111.38 3.30064 -2.72473 0
M  V30 20423 C 2110.71 4.69216 -2.56399 0
M  V30 20424 C 2112.01 3.18035 -4.14308 0
M  V30 20425 H 2113.7 1.59465 -2.53399 0
M  V30 20426 H 2111.25 0.765749 -1.21952 0
M  V30 20427 H 2113.2 3.87126 -1.66468 0
M  V30 20428 H 2111.93 3.20778 -0.613949 0
M  V30 20429 H 2110.59 2.5433 -2.64029 0
M  V30 20430 H 2110.23 4.77764 -1.57323 0
M  V30 20431 H 2109.93 4.84267 -3.32805 0
M  V30 20432 H 2111.46 5.49519 -2.66198 0
M  V30 20433 H 2112.87 3.86014 -4.2387 0
M  V30 20434 H 2111.27 3.44608 -4.91289 0
M  V30 20435 H 2112.34 2.15135 -4.34563 0
M  V30 20436 N 2113.68 1.34058 0.828631 0
M  V30 20437 C 2114.91 1.29306 1.62156 0
M  V30 20438 C 2115.33 -0.131256 1.87641 0
M  V30 20439 O 2114.69 -1.09118 1.44786 0
M  V30 20440 C 2114.74 2.08394 2.94286 0
M  V30 20441 O 2113.84 1.44955 3.86085 0
M  V30 20442 H 2113.18 0.444364 0.493393 0
M  V30 20443 H 2115.71 1.76775 1.03014 0
M  V30 20444 H 2115.72 2.19539 3.43899 0
M  V30 20445 H 2114.4 3.11953 2.7506 0
M  V30 20446 H 2112.98 1.42518 3.44591 0
M  V30 20447 N 2115.16 -1.04814 1.17694 0
M  V30 20448 C 2116.41 -1.77532 0.96576 0
M  V30 20449 C 2116.73 -1.88306 -0.506545 0
M  V30 20450 O 2116 -1.40259 -1.36763 0
M  V30 20451 H 2114.58 -0.657613 0.354336 0
M  V30 20452 H 2117.24 -1.26536 1.48239 0
M  V30 20453 H 2116.34 -2.79071 1.39735 0
M  V30 20454 N 2116.64 -0.977779 -1.23601 0
M  V30 20455 C 2117.89 -0.646167 -1.9223 0
M  V30 20456 C 2118.22 0.817893 -1.76137 0
M  V30 20457 O 2117.49 1.58966 -1.12071 0
M  V30 20458 C 2117.78 -1.03412 -3.44932 0
M  V30 20459 C 2117.63 -2.55561 -3.70147 0
M  V30 20460 C 2118.95 -0.576087 -4.36313 0
M  V30 20461 H 2116.07 -0.236222 -0.698118 0
M  V30 20462 H 2118.71 -1.21859 -1.45775 0
M  V30 20463 H 2116.86 -0.547033 -3.84629 0
M  V30 20464 H 2118.53 -3.11824 -3.39947 0
M  V30 20465 H 2116.77 -2.98312 -3.14949 0
M  V30 20466 H 2117.45 -2.77756 -4.77028 0
M  V30 20467 H 2119.92 -0.994237 -4.04047 0
M  V30 20468 H 2118.8 -0.875993 -5.41865 0
M  V30 20469 H 2119.06 0.523647 -4.38988 0
M  V30 20470 N 2118.12 1.38658 -0.749111 0
M  V30 20471 C 2119.53 1.82966 -0.371524 0
M  V30 20472 C 2119.88 1.62519 1.09918 0
M  V30 20473 O 2119 1.12394 1.84923 0
M  V30 20474 C 2119.6 3.32158 -0.667553 0
M  V30 20475 C 2118.16 3.74831 -0.343297 0
M  V30 20476 C 2117.31 2.61488 -0.923014 0
M  V30 20477 H 2120.26 1.2745 -0.945625 0
M  V30 20478 H 2120.28 3.80459 0.0558088 0
M  V30 20479 H 2119.79 3.47008 -1.73801 0
M  V30 20480 H 2117.89 3.65562 0.72076 0
M  V30 20481 H 2118 4.71755 -0.83572 0
M  V30 20482 H 2116.37 2.52302 -0.348687 0
M  V30 20483 H 2117.15 2.79138 -1.99841 0
M  V30 20484 N 2119.6 0.497834 1.49531 0
M  V30 20485 C 2120.82 -0.0468921 2.07347 0
M  V30 20486 C 2121.25 -1.30349 1.35612 0
M  V30 20487 O 2120.6 -1.76559 0.411884 0
M  V30 20488 C 2120.65 -0.286776 3.59458 0
M  V30 20489 O 2119.76 -1.36212 3.89256 0
M  V30 20490 H 2119.1 0.0248202 0.663536 0
M  V30 20491 H 2121.63 0.696547 1.92378 0
M  V30 20492 H 2121.64 -0.519243 4.04682 0
M  V30 20493 H 2120.31 0.631334 4.1108 0
M  V30 20494 H 2118.89 -1.11485 3.55845 0
M  V30 20495 N 2121.07 -1.5589 0.231532 0
M  V30 20496 C 2122.32 -1.98169 -0.396667 0
M  V30 20497 C 2122.64 -1.12067 -1.59581 0
M  V30 20498 O 2121.91 -0.199942 -1.94877 0
M  V30 20499 H 2120.49 -0.731878 -0.149544 0
M  V30 20500 H 2123.15 -1.92142 0.326749 0
M  V30 20501 H 2122.25 -3.0377 -0.716243 0
M  V30 20502 N 2122.55 0.0417572 -1.57545 0
M  V30 20503 C 2123.8 0.733648 -1.88314 0
M  V30 20504 C 2124.12 1.76568 -0.827577 0
M  V30 20505 O 2123.39 1.95397 0.140345 0
M  V30 20506 H 2121.97 0.273952 -0.694953 0
M  V30 20507 H 2124.63 0.010717 -1.94897 0
M  V30 20508 H 2123.73 1.23116 -2.8679 0
M  V30 20509 N 2124.03 1.54445 0.313786 0
M  V30 20510 C 2124.94 1.87547 1.40937 0
M  V30 20511 C 2125.96 0.768341 1.56117 0
M  V30 20512 O 2127.13 1.06358 1.71026 0
M  V30 20513 C 2124.2 2.10467 2.75508 0
M  V30 20514 C 2123.26 3.34232 2.69421 0
M  V30 20515 C 2122.49 3.56049 3.97574 0
M  V30 20516 O 2122.71 2.81118 4.96316 0
M  V30 20517 O 2121.65 4.49546 4.0024 0
M  V30 20518 H 2125.47 2.80728 1.15868 0
M  V30 20519 H 2123.06 1.40473 0.508698 0
M  V30 20520 H 2124.94 2.26817 3.55151 0
M  V30 20521 H 2123.62 1.20474 3.00446 0
M  V30 20522 H 2122.52 3.23259 1.88294 0
M  V30 20523 H 2123.86 4.24314 2.49436 0
M  V30 20524 N 2125.51 -0.576345 1.46683 0
M  V30 20525 C 2126.76 -1.33168 1.52022 0
M  V30 20526 C 2127.08 -1.94204 0.17606 0
M  V30 20527 O 2126.35 -1.78907 -0.798069 0
M  V30 20528 H 2124.93 -0.494459 0.559928 0
M  V30 20529 H 2127.59 -0.674503 1.82856 0
M  V30 20530 H 2126.68 -2.13511 2.27638 0
M  V30 20531 N 2126.99 -1.34495 -0.82151 0
M  V30 20532 C 2127.92 -1.28835 -1.94741 0
M  V30 20533 C 2128.9 -0.165528 -1.69293 0
M  V30 20534 O 2130.08 -0.358115 -1.9087 0
M  V30 20535 C 2127.21 -1.04446 -3.31222 0
M  V30 20536 C 2126.17 -2.13209 -3.71114 0
M  V30 20537 C 2125.49 -1.74007 -5.05594 0
M  V30 20538 C 2126.79 -3.55051 -3.83062 0
M  V30 20539 H 2128.49 -2.23039 -1.99734 0
M  V30 20540 H 2126.03 -1.07369 -0.959573 0
M  V30 20541 H 2127.98 -0.991306 -4.09574 0
M  V30 20542 H 2126.71 -0.0668391 -3.26532 0
M  V30 20543 H 2125.37 -2.17597 -2.95038 0
M  V30 20544 H 2125.02 -0.749021 -4.97392 0
M  V30 20545 H 2124.72 -2.46803 -5.33256 0
M  V30 20546 H 2126.24 -1.7019 -5.86402 0
M  V30 20547 H 2127.65 -3.53068 -4.51681 0
M  V30 20548 H 2126.05 -4.2648 -4.22179 0
M  V30 20549 H 2127.12 -3.92289 -2.85021 0
M  V30 20550 N 2128.46 1.04188 -1.18248 0
M  V30 20551 C 2129.37 2.15666 -0.923339 0
M  V30 20552 C 2130.39 1.73638 0.112112 0
M  V30 20553 O 2131.57 2.0128 -0.0695153 0
M  V30 20554 C 2128.63 3.43751 -0.451239 0
M  V30 20555 C 2127.69 4.00167 -1.55451 0
M  V30 20556 C 2126.93 5.22139 -1.10484 0
M  V30 20557 O 2127.15 5.70388 0.0369453 0
M  V30 20558 O 2126.08 5.71056 -1.90207 0
M  V30 20559 H 2129.91 2.40381 -1.85609 0
M  V30 20560 H 2127.49 1.14121 -0.9642 0
M  V30 20561 H 2129.38 4.20944 -0.195977 0
M  V30 20562 H 2128.05 3.20511 0.45323 0
M  V30 20563 H 2126.96 3.24368 -1.86377 0
M  V30 20564 H 2128.29 4.27745 -2.43506 0
M  V30 20565 N 2129.94 0.98432 1.23081 0
M  V30 20566 C 2131.17 0.673535 1.9563 0
M  V30 20567 C 2131.59 -0.760222 1.72818 0
M  V30 20568 O 2130.94 -1.51201 1.02198 0
M  V30 20569 C 2130.99 0.959283 3.4854 0
M  V30 20570 O 2130.71 2.33669 3.70581 0
M  V30 20571 C 2132.22 0.664998 4.38284 0
M  V30 20572 H 2129.44 0.249871 0.62274 0
M  V30 20573 H 2131.98 1.31677 1.56466 0
M  V30 20574 H 2130.13 0.361997 3.85705 0
M  V30 20575 H 2130.55 2.42938 4.64846 0
M  V30 20576 H 2132.02 0.915271 5.44359 0
M  V30 20577 H 2132.5 -0.400961 4.37366 0
M  V30 20578 H 2133.11 1.24294 4.06732 0
M  V30 20579 N 2131.42 -1.38259 0.756453 0
M  V30 20580 C 2132.65 -2.04861 0.323535 0
M  V30 20581 C 2133.07 -1.56679 -1.04083 0
M  V30 20582 O 2132.43 -0.72007 -1.66387 0
M  V30 20583 C 2132.48 -3.58812 0.358692 0
M  V30 20584 O 2131.58 -4.07304 -0.646296 0
M  V30 20585 H 2130.92 -0.64848 0.142723 0
M  V30 20586 H 2133.45 -1.76877 1.02838 0
M  V30 20587 H 2133.46 -4.07456 0.210579 0
M  V30 20588 H 2132.14 -3.93238 1.35413 0
M  V30 20589 H 2130.71 -3.7002 -0.462561 0
M  V30 20590 N 2132.9 -0.505757 -1.49264 0
M  V30 20591 C 2133.86 0.259147 -2.2773 0
M  V30 20592 C 2134.86 0.88969 -1.33945 0
M  V30 20593 O 2136.05 0.753485 -1.57061 0
M  V30 20594 C 2133.18 1.37232 -3.12058 0
M  V30 20595 H 2134.38 -0.42945 -2.96809 0
M  V30 20596 H 2131.93 -0.260876 -1.54108 0
M  V30 20597 H 2132.66 2.09492 -2.47555 0
M  V30 20598 H 2132.45 0.925587 -3.81019 0
M  V30 20599 H 2133.94 1.91099 -3.7131 0
M  V30 20600 N 2134.38 1.55765 -0.239796 0
M  V30 20601 C 2135.6 2.03618 0.394243 0
M  V30 20602 C 2136.03 1.1181 1.51261 0
M  V30 20603 O 2135.38 0.1097 1.80968 0
M  V30 20604 C 2135.43 3.49545 0.886029 0
M  V30 20605 O 2134.54 3.60872 1.99613 0
M  V30 20606 H 2133.88 0.658289 0.0869012 0
M  V30 20607 H 2136.41 2.0134 -0.363774 0
M  V30 20608 H 2136.42 3.90226 1.1911 0
M  V30 20609 H 2135.09 4.15845 0.0675883 0
M  V30 20610 H 2133.67 3.32085 1.6963 0
M  V30 20611 N 2135.85 -0.0334016 1.57565 0
M  V30 20612 C 2136.76 -1.05241 2.0967 0
M  V30 20613 C 2137.78 -1.39917 1.03437 0
M  V30 20614 O 2138.96 -1.49324 1.35146 0
M  V30 20615 C 2136.02 -2.3357 2.56215 0
M  V30 20616 C 2135.08 -2.05514 3.76912 0
M  V30 20617 C 2134.32 -3.27724 4.21227 0
M  V30 20618 O 2134.54 -4.38244 3.65101 0
M  V30 20619 O 2133.47 -3.13679 5.13701 0
M  V30 20620 H 2137.3 -0.639612 2.96888 0
M  V30 20621 H 2134.88 -0.250101 1.47292 0
M  V30 20622 H 2136.77 -3.09022 2.86502 0
M  V30 20623 H 2135.44 -2.74153 1.7211 0
M  V30 20624 H 2134.35 -1.27644 3.5165 0
M  V30 20625 H 2135.68 -1.69789 4.61988 0
M  V30 20626 N 2137.33 -1.54609 -0.305591 0
M  V30 20627 C 2138.58 -1.73929 -1.04291 0
M  V30 20628 C 2138.91 -0.521093 -1.87078 0
M  V30 20629 O 2138.19 0.481847 -1.88437 0
M  V30 20630 C 2138.47 -3.02557 -1.95272 0
M  V30 20631 C 2138.32 -4.34666 -1.15695 0
M  V30 20632 C 2139.64 -3.27028 -2.94517 0
M  V30 20633 H 2136.76 -0.632835 -0.377741 0
M  V30 20634 H 2139.4 -1.87321 -0.317961 0
M  V30 20635 H 2137.55 -2.91271 -2.57087 0
M  V30 20636 H 2139.22 -4.57863 -0.562028 0
M  V30 20637 H 2137.47 -4.31359 -0.459568 0
M  V30 20638 H 2138.14 -5.20925 -1.82595 0
M  V30 20639 H 2140.61 -3.37894 -2.42831 0
M  V30 20640 H 2139.49 -4.18355 -3.55346 0
M  V30 20641 H 2139.75 -2.45106 -3.67934 0
M  V30 20642 N 2138.81 0.568558 -1.46987 0
M  V30 20643 C 2140.06 1.3236 -1.52726 0
M  V30 20644 C 2140.38 1.94107 -0.186356 0
M  V30 20645 O 2139.65 1.79328 0.78857 0
M  V30 20646 H 2138.23 0.491483 -0.562542 0
M  V30 20647 H 2140.89 0.664797 -1.83212 0
M  V30 20648 H 2139.99 2.12301 -2.28768 0
M  V30 20649 N 2140.29 1.34929 0.814366 0
M  V30 20650 C 2141.52 1.30863 1.60257 0
M  V30 20651 C 2141.93 -0.11553 1.88446 0
M  V30 20652 O 2141.29 -1.06518 1.4819 0
M  V30 20653 C 2141.34 2.10565 2.93845 0
M  V30 20654 O 2141.06 3.47427 2.66882 0
M  V30 20655 C 2142.56 2.13994 3.88228 0
M  V30 20656 H 2139.78 0.449849 0.497872 0
M  V30 20657 H 2142.33 1.77669 1.01262 0
M  V30 20658 H 2140.48 1.67378 3.49376 0
M  V30 20659 H 2140.89 3.88729 3.52122 0
M  V30 20660 H 2142.37 2.74168 4.79099 0
M  V30 20661 H 2142.85 1.13661 4.24238 0
M  V30 20662 H 2143.45 2.57308 3.38634 0
M  V30 20663 N 2141.77 -1.0356 1.18799 0
M  V30 20664 C 2143.04 -1.73872 0.895991 0
M  V30 20665 C 2143.42 -2.02395 -0.59995 0
M  V30 20666 O 2142.77 -1.6732 -1.55616 0
M  V30 20667 C 2142.98 -3.02028 1.74871 0
M  V30 20668 C 2144.33 -3.75667 1.97887 0
M  V30 20669 O 2145.35 -3.11939 1.71966 0
M  V30 20670 O 2144.21 -4.90219 2.41553 0
M  V30 20671 H 2141.31 -0.756859 0.333306 0
M  V30 20672 H 2143.85 -1.09579 1.29578 0
M  V30 20673 H 2142.62 -2.77126 2.76256 0
M  V30 20674 H 2142.25 -3.7406 1.34776 0
M  V30 20675 N 2143.25 -0.990834 -1.22557 0
M  V30 20676 C 2144.18 -0.559304 -2.26703 0
M  V30 20677 C 2145.16 0.412782 -1.65016 0
M  V30 20678 O 2146.34 0.303868 -1.91808 0
M  V30 20679 C 2143.47 0.12888 -3.47061 0
M  V30 20680 C 2142.43 -0.76154 -4.2117 0
M  V30 20681 C 2141.75 0.0594442 -5.34667 0
M  V30 20682 C 2143.05 -2.0574 -4.80071 0
M  V30 20683 H 2144.75 -1.42983 -2.63052 0
M  V30 20684 H 2142.29 -0.68896 -1.26449 0
M  V30 20685 H 2144.24 0.44215 -4.19074 0
M  V30 20686 H 2142.97 1.03394 -3.09802 0
M  V30 20687 H 2141.63 -1.05842 -3.50989 0
M  V30 20688 H 2141.28 0.965355 -4.9365 0
M  V30 20689 H 2140.98 -0.533291 -5.85175 0
M  V30 20690 H 2142.5 0.366857 -6.09497 0
M  V30 20691 H 2143.91 -1.80821 -5.44037 0
M  V30 20692 H 2142.31 -2.59878 -5.4091 0
M  V30 20693 H 2143.38 -2.73748 -4.00237 0
M  V30 20694 N 2144.72 1.37856 -0.763775 0
M  V30 20695 C 2145.95 2.04686 -0.334395 0
M  V30 20696 C 2146.37 1.57229 1.0325 0
M  V30 20697 O 2145.73 0.728884 1.66003 0
M  V30 20698 C 2145.78 3.58616 -0.377715 0
M  V30 20699 O 2144.88 4.07641 0.624687 0
M  V30 20700 H 2144.22 0.647714 -0.146161 0
M  V30 20701 H 2146.75 1.76329 -1.03774 0
M  V30 20702 H 2146.76 4.07339 -0.232185 0
M  V30 20703 H 2145.44 3.92514 -1.37496 0
M  V30 20704 H 2144.02 3.7026 0.442931 0
M  V30 20705 N 2146.2 0.513665 1.48994 0
M  V30 20706 C 2147.45 -0.0262821 2.02083 0
M  V30 20707 C 2147.77 -1.36306 1.39448 0
M  V30 20708 O 2147.04 -1.87899 0.554154 0
M  V30 20709 H 2145.62 -0.012702 0.746892 0
M  V30 20710 H 2148.28 0.673788 1.82883 0
M  V30 20711 H 2147.38 -0.146648 3.11755 0
M  V30 20712 N 2147.68 -1.55636 0.248053 0
M  V30 20713 C 2148.61 -2.2441 -0.645175 0
M  V30 20714 C 2149.59 -1.22477 -1.18039 0
M  V30 20715 O 2150.78 -1.51133 -1.21953 0
M  V30 20716 C 2147.91 -2.94446 -1.84171 0
M  V30 20717 C 2146.86 -4.03076 -1.43922 0
M  V30 20718 C 2146.19 -4.60544 -2.71668 0
M  V30 20719 C 2147.49 -5.18732 -0.609431 0
M  V30 20720 H 2149.18 -2.99314 -0.0716951 0
M  V30 20721 H 2146.73 -1.43962 -0.033043 0
M  V30 20722 H 2148.68 -3.41259 -2.47225 0
M  V30 20723 H 2147.4 -2.17031 -2.44059 0
M  V30 20724 H 2146.06 -3.57034 -0.832012 0
M  V30 20725 H 2145.71 -3.79829 -3.29756 0
M  V30 20726 H 2145.41 -5.33876 -2.4546 0
M  V30 20727 H 2146.93 -5.10091 -3.35618 0
M  V30 20728 H 2148.35 -5.61764 -1.1443 0
M  V30 20729 H 2146.74 -5.9846 -0.443361 0
M  V30 20730 H 2147.81 -4.83424 0.378087 0
M  V30 20731 N 2149.16 0.0250451 -1.5758 0
M  V30 20732 C 2150.57 0.571131 -1.7775 0
M  V30 20733 C 2150.92 1.75376 -0.879637 0
M  V30 20734 O 2150.04 2.16268 -0.0755171 0
M  V30 20735 C 2150.64 1.04287 -3.2235 0
M  V30 20736 C 2149.2 1.53444 -3.43703 0
M  V30 20737 C 2148.35 0.474313 -2.73213 0
M  V30 20738 H 2151.3 -0.201177 -1.5742 0
M  V30 20739 H 2151.32 1.91005 -3.29085 0
M  V30 20740 H 2150.83 0.181922 -3.87673 0
M  V30 20741 H 2148.93 2.41711 -2.83561 0
M  V30 20742 H 2149.04 1.57917 -4.52326 0
M  V30 20743 H 2147.41 0.93027 -2.37103 0
M  V30 20744 H 2148.19 -0.377237 -3.41221 0
M  V30 20745 N 2150.64 1.54769 0.297388 0
M  V30 20746 C 2151.86 1.78543 1.05533 0
M  V30 20747 C 2152.29 0.54501 1.80031 0
M  V30 20748 O 2151.64 -0.504585 1.74137 0
M  V30 20749 C 2151.69 2.99469 2.00874 0
M  V30 20750 O 2150.8 2.72847 3.09238 0
M  V30 20751 H 2150.14 0.590843 0.302985 0
M  V30 20752 H 2152.67 2.0186 0.333711 0
M  V30 20753 H 2152.68 3.27538 2.43275 0
M  V30 20754 H 2151.35 3.8941 1.46058 0
M  V30 20755 H 2149.93 2.55805 2.71327 0
M  V30 20756 N 2152.11 -0.560755 1.47286 0
M  V30 20757 C 2153.36 -1.31548 1.53426 0
M  V30 20758 C 2153.68 -1.94006 0.196648 0
M  V30 20759 O 2152.95 -1.79743 -0.779049 0
M  V30 20760 H 2151.53 -0.488493 0.565141 0
M  V30 20761 H 2154.19 -0.655071 1.83562 0
M  V30 20762 H 2153.29 -2.11085 2.2989 0
M  V30 20763 N 2153.59 -1.35359 -0.807199 0
M  V30 20764 C 2155.01 -1.15384 -1.10266 0
M  V30 20765 C 2155.21 0.0341061 -2.01471 0
M  V30 20766 O 2154.26 0.704898 -2.42461 0
M  V30 20767 C 2155.58 -2.45652 -1.73423 0
M  V30 20768 C 2157.12 -2.51853 -1.85847 0
M  V30 20769 C 2157.6 -3.82163 -2.5242 0
M  V30 20770 N 2159.09 -3.83411 -2.59905 0
M  V30 20771 C 2159.83 -4.80967 -3.12183 0
M  V30 20772 N 2159.32 -5.88912 -3.64903 0
M  V30 20773 N 2161.11 -4.68405 -3.1073 0
M  V30 20774 H 2153.27 -2.11448 -0.200891 0
M  V30 20775 H 2155.53 -0.935782 -0.151711 0
M  V30 20776 H 2155.23 -3.32755 -1.13874 0
M  V30 20777 H 2155.11 -2.60154 -2.73129 0
M  V30 20778 H 2157.5 -1.6518 -2.4454 0
M  V30 20779 H 2157.58 -2.41265 -0.84998 0
M  V30 20780 H 2157.22 -4.69234 -1.94376 0
M  V30 20781 H 2157.15 -3.90039 -3.53804 0
M  V30 20782 H 2159.64 -3.05415 -2.22553 0
M  V30 20783 H 2159.95 -6.59346 -4.03091 0
M  V30 20784 H 2158.3 -5.92605 -3.63104 0
M  V30 20785 H 2161.49 -3.83215 -2.6882 0
M  V30 20786 H 2161.66 -5.44598 -3.51166 0
M  V30 20787 N 2155.07 1.02928 -1.19346 0
M  V30 20788 C 2155.98 2.14674 -0.946161 0
M  V30 20789 C 2157 1.73748 0.0936895 0
M  V30 20790 O 2158.17 2.01195 -0.0908598 0
M  V30 20791 C 2155.24 3.43253 -0.487673 0
M  V30 20792 C 2154.3 3.98496 -1.59686 0
M  V30 20793 C 2153.53 5.20938 -1.16016 0
M  V30 20794 O 2153.75 5.70395 -0.0235541 0
M  V30 20795 O 2152.69 5.69006 -1.96254 0
M  V30 20796 H 2156.51 2.38399 -1.88148 0
M  V30 20797 H 2154.1 1.13092 -0.97625 0
M  V30 20798 H 2155.98 4.20713 -0.240612 0
M  V30 20799 H 2154.66 3.20974 0.41921 0
M  V30 20800 H 2153.56 3.22373 -1.89807 0
M  V30 20801 H 2154.9 4.25138 -2.48029 0
M  V30 20802 N 2156.55 0.997319 1.2203 0
M  V30 20803 C 2157.8 0.674331 1.90518 0
M  V30 20804 C 2158.12 -0.796582 1.77988 0
M  V30 20805 O 2157.39 -1.57133 1.16988 0
M  V30 20806 H 2155.97 0.246427 0.705183 0
M  V30 20807 H 2158.63 1.26478 1.48288 0
M  V30 20808 H 2157.72 0.940744 2.97584 0
M  V30 20809 N 2158.03 -1.37449 0.771075 0
M  V30 20810 C 2158.96 -2.32874 0.170867 0
M  V30 20811 C 2159.94 -1.55746 -0.683892 0
M  V30 20812 O 2161.12 -1.83987 -0.621492 0
M  V30 20813 C 2158.25 -3.39974 -0.709566 0
M  V30 20814 C 2157.21 -4.27978 0.0438353 0
M  V30 20815 C 2156.53 -5.26084 -0.955998 0
M  V30 20816 C 2157.83 -5.07793 1.22245 0
M  V30 20817 H 2159.53 -2.83319 0.968038 0
M  V30 20818 H 2157.07 -1.36219 0.466952 0
M  V30 20819 H 2159.03 -4.05708 -1.13926 0
M  V30 20820 H 2157.75 -2.88053 -1.53925 0
M  V30 20821 H 2156.41 -3.63774 0.454301 0
M  V30 20822 H 2156.06 -4.70444 -1.78021 0
M  V30 20823 H 2155.76 -5.85824 -0.456445 0
M  V30 20824 H 2157.28 -5.94693 -1.38465 0
M  V30 20825 H 2158.69 -5.66669 0.869436 0
M  V30 20826 H 2157.09 -5.76855 1.65404 0
M  V30 20827 H 2158.16 -4.40506 2.02688 0
M  V30 20828 N 2159.5 -0.52156 -1.4872 0
M  V30 20829 C 2160.41 0.249847 -2.33266 0
M  V30 20830 C 2161.43 0.947297 -1.45953 0
M  V30 20831 O 2162.61 0.924126 -1.78947 0
M  V30 20832 C 2159.67 1.28824 -3.21878 0
M  V30 20833 C 2158.73 0.602041 -4.25058 0
M  V30 20834 C 2157.97 1.59096 -5.09435 0
M  V30 20835 O 2158.19 2.82282 -4.95654 0
M  V30 20836 O 2157.12 1.13498 -5.91102 0
M  V30 20837 H 2160.95 -0.442725 -3.00456 0
M  V30 20838 H 2158.53 -0.282593 -1.46703 0
M  V30 20839 H 2160.42 1.88853 -3.76713 0
M  V30 20840 H 2159.09 1.96337 -2.57359 0
M  V30 20841 H 2158 -0.0385256 -3.7408 0
M  V30 20842 H 2159.33 -0.0310005 -4.9219 0
M  V30 20843 N 2160.98 1.55502 -0.256304 0
M  V30 20844 C 2162.21 2.0357 0.36969 0
M  V30 20845 C 2162.63 1.13529 1.50853 0
M  V30 20846 O 2161.98 0.151576 1.81869 0
M  V30 20847 C 2162.03 3.5091 0.868581 0
M  V30 20848 O 2161.75 4.37522 -0.224886 0
M  V30 20849 C 2163.26 4.14782 1.56431 0
M  V30 20850 H 2160.48 0.665369 0.0867485 0
M  V30 20851 H 2163.02 2.00883 -0.382912 0
M  V30 20852 H 2161.17 3.54102 1.57133 0
M  V30 20853 H 2161.59 5.2427 0.155467 0
M  V30 20854 H 2163.06 5.1954 1.865 0
M  V30 20855 H 2163.54 3.6183 2.48949 0
M  V30 20856 H 2164.15 4.1554 0.905893 0
M  V30 20857 N 2162.46 -0.0166879 1.57591 0
M  V30 20858 C 2163.69 -0.720103 1.94497 0
M  V30 20859 C 2164.11 -1.6743 0.857254 0
M  V30 20860 O 2163.47 -1.80343 -0.186035 0
M  V30 20861 C 2163.52 -1.44264 3.30485 0
M  V30 20862 O 2162.62 -2.55638 3.23609 0
M  V30 20863 H 2161.96 -0.19279 0.635396 0
M  V30 20864 H 2164.49 0.0315297 2.04576 0
M  V30 20865 H 2164.5 -1.80981 3.65664 0
M  V30 20866 H 2163.18 -0.742902 4.09211 0
M  V30 20867 H 2161.75 -2.21373 3.00081 0
M  V30 20868 N 2163.94 -1.54924 -0.289176 0
M  V30 20869 C 2164.9 -1.85935 -1.34017 0
M  V30 20870 C 2165.9 -0.732916 -1.43126 0
M  V30 20871 O 2167.09 -1.00116 -1.42556 0
M  V30 20872 C 2164.22 -2.0502 -2.72359 0
M  V30 20873 H 2165.42 -2.79872 -1.07758 0
M  V30 20874 H 2162.97 -1.47168 -0.526442 0
M  V30 20875 H 2163.7 -1.13412 -3.03823 0
M  V30 20876 H 2163.49 -2.8702 -2.67136 0
M  V30 20877 H 2164.98 -2.30342 -3.48328 0
M  V30 20878 N 2165.42 0.552936 -1.47582 0
M  V30 20879 C 2166.64 1.34003 -1.58297 0
M  V30 20880 C 2167.07 1.86625 -0.23511 0
M  V30 20881 O 2166.42 1.63197 0.789702 0
M  V30 20882 C 2166.47 2.48288 -2.61506 0
M  V30 20883 O 2165.58 3.50647 -2.17073 0
M  V30 20884 H 2164.92 0.397855 -0.531608 0
M  V30 20885 H 2167.45 0.667783 -1.93395 0
M  V30 20886 H 2167.46 2.94798 -2.8206 0
M  V30 20887 H 2166.13 2.09345 -3.59371 0
M  V30 20888 H 2164.71 3.10413 -2.06636 0
M  V30 20889 N 2166.89 1.35785 0.800009 0
M  V30 20890 C 2168.14 1.2917 1.55434 0
M  V30 20891 C 2168.46 -0.131766 1.94554 0
M  V30 20892 O 2167.73 -1.06968 1.64118 0
M  V30 20893 H 2166.31 0.475134 0.576417 0
M  V30 20894 H 2168.98 1.69963 0.953872 0
M  V30 20895 H 2168.07 1.912 2.46676 0
M  V30 20896 N 2168.37 -1.02294 1.19891 0
M  V30 20897 C 2169.34 -2.08864 0.943854 0
M  V30 20898 C 2170.34 -1.6061 -0.0780656 0
M  V30 20899 O 2171.53 -1.73488 0.157319 0
M  V30 20900 C 2168.66 -3.38306 0.419714 0
M  V30 20901 H 2169.85 -2.32924 1.88909 0
M  V30 20902 H 2167.4 -1.18996 1.01339 0
M  V30 20903 H 2168.14 -3.19918 -0.531286 0
M  V30 20904 H 2167.92 -3.74653 1.15661 0
M  V30 20905 H 2169.41 -4.16786 0.26055 0
M  V30 20906 N 2169.85 -1.00378 -1.21499 0
M  V30 20907 C 2170.76 -0.572425 -2.27509 0
M  V30 20908 C 2171.78 0.383982 -1.6971 0
M  V30 20909 O 2172.95 0.248119 -1.99866 0
M  V30 20910 C 2170.02 0.0953686 -3.46569 0
M  V30 20911 C 2169.08 -0.905366 -4.19645 0
M  V30 20912 C 2168.31 -0.269345 -5.3302 0
M  V30 20913 O 2168.53 0.934144 -5.62699 0
M  V30 20914 O 2167.47 -0.979662 -5.93874 0
M  V30 20915 H 2171.29 -1.45465 -2.66596 0
M  V30 20916 H 2168.88 -0.772585 -1.27873 0
M  V30 20917 H 2170.76 0.468934 -4.18783 0
M  V30 20918 H 2169.44 0.951993 -3.09385 0
M  V30 20919 H 2168.34 -1.33007 -3.49657 0
M  V30 20920 H 2169.68 -1.73154 -4.60737 0
M  V30 20921 N 2171.33 1.37038 -0.778354 0
M  V30 20922 C 2172.61 1.93726 -0.270129 0
M  V30 20923 C 2172.99 1.71138 1.23592 0
M  V30 20924 O 2172.33 1.06396 2.02218 0
M  V30 20925 C 2172.54 3.4288 -0.650703 0
M  V30 20926 C 2173.89 4.19987 -0.624207 0
M  V30 20927 O 2174.92 3.51271 -0.590496 0
M  V30 20928 O 2173.77 5.42534 -0.657186 0
M  V30 20929 H 2170.87 0.824515 -0.0640657 0
M  V30 20930 H 2173.41 1.46286 -0.860152 0
M  V30 20931 H 2172.19 3.52931 -1.68984 0
M  V30 20932 H 2171.81 3.97585 -0.0339758 0
M  V30 20933 N 2172.81 0.529439 1.48441 0
M  V30 20934 C 2173.74 -0.222417 2.32438 0
M  V30 20935 C 2174.72 -0.935598 1.42058 0
M  V30 20936 O 2175.9 -0.921483 1.70945 0
M  V30 20937 C 2173.03 -1.27012 3.23242 0
M  V30 20938 C 2171.99 -0.675114 4.22642 0
M  V30 20939 C 2171.31 -1.82543 5.02576 0
M  V30 20940 C 2172.61 0.352815 5.21107 0
M  V30 20941 H 2174.31 0.478777 2.95547 0
M  V30 20942 H 2171.85 0.231695 1.42124 0
M  V30 20943 H 2173.81 -1.80405 3.80831 0
M  V30 20944 H 2172.53 -2.00089 2.58132 0
M  V30 20945 H 2171.19 -0.162711 3.66239 0
M  V30 20946 H 2170.84 -2.54456 4.33891 0
M  V30 20947 H 2170.54 -1.43323 5.69853 0
M  V30 20948 H 2172.06 -2.36315 5.63017 0
M  V30 20949 H 2173.48 -0.0940075 5.73223 0
M  V30 20950 H 2171.87 0.662368 5.96433 0
M  V30 20951 H 2172.94 1.25877 4.68277 0
M  V30 20952 N 2174.29 -1.55364 0.264547 0
M  V30 20953 C 2175.51 -2.0422 -0.361799 0
M  V30 20954 C 2175.94 -1.14203 -1.49464 0
M  V30 20955 O 2175.29 -0.138477 -1.8077 0
M  V30 20956 C 2175.34 -3.50911 -0.830308 0
M  V30 20957 O 2174.45 -3.64002 -1.93847 0
M  V30 20958 H 2173.79 -0.659588 -0.0764174 0
M  V30 20959 H 2176.32 -2.00736 0.39576 0
M  V30 20960 H 2176.33 -3.92072 -1.12887 0
M  V30 20961 H 2175 -4.159 -0.00142245 0
M  V30 20962 H 2173.58 -3.34741 -1.64325 0
M  V30 20963 N 2175.76 0.00833021 -1.57598 0
M  V30 20964 C 2177.01 0.693539 -1.89827 0
M  V30 20965 C 2177.33 1.74773 -0.864844 0
M  V30 20966 O 2176.6 1.9565 0.0988666 0
M  V30 20967 H 2175.18 0.25915 -0.700607 0
M  V30 20968 H 2177.84 -0.0306259 -1.94876 0
M  V30 20969 H 2176.94 1.17005 -2.89337 0
M  V30 20970 N 2177.24 1.55075 0.280956 0
M  V30 20971 C 2178.17 1.90416 1.35145 0
M  V30 20972 C 2179.15 0.765149 1.51919 0
M  V30 20973 O 2180.34 1.02261 1.65095 0
M  V30 20974 C 2177.47 2.16909 2.71233 0
M  V30 20975 C 2176.42 3.32739 2.692 0
M  V30 20976 C 2175.75 3.44695 4.08766 0
M  V30 20977 C 2177.05 4.69338 2.2917 0
M  V30 20978 H 2178.74 2.80078 1.05815 0
M  V30 20979 H 2176.29 1.34758 0.507584 0
M  V30 20980 H 2178.24 2.40219 3.46226 0
M  V30 20981 H 2176.96 1.24039 3.02129 0
M  V30 20982 H 2175.62 3.09385 1.96664 0
M  V30 20983 H 2175.27 2.49305 4.36871 0
M  V30 20984 H 2174.97 4.22568 4.08301 0
M  V30 20985 H 2176.5 3.70288 4.85509 0
M  V30 20986 H 2177.91 4.92246 2.93883 0
M  V30 20987 H 2176.31 5.5007 2.39882 0
M  V30 20988 H 2177.38 4.68698 1.24297 0
M  V30 20989 N 2178.72 -0.545102 1.47873 0
M  V30 20990 C 2180.13 -1.12717 1.48835 0
M  V30 20991 C 2180.48 -1.94604 0.249718 0
M  V30 20992 O 2179.61 -2.06582 -0.644417 0
M  V30 20993 C 2180.2 -2.05084 2.69678 0
M  V30 20994 C 2178.76 -2.58538 2.7356 0
M  V30 20995 C 2177.91 -1.35171 2.42124 0
M  V30 20996 H 2180.86 -0.331094 1.55208 0
M  V30 20997 H 2180.88 -2.89145 2.47336 0
M  V30 20998 H 2180.39 -1.45457 3.59811 0
M  V30 20999 H 2178.49 -3.21929 1.87597 0
M  V30 21000 H 2178.61 -2.98704 3.74583 0
M  V30 21001 H 2176.97 -1.66249 1.9296 0
M  V30 21002 H 2177.75 -0.773194 3.3448 0
M  V30 21003 N 2180.2 -1.36208 -0.792797 0
M  V30 21004 C 2181.42 -1.3356 -1.58671 0
M  V30 21005 C 2181.85 0.0814602 -1.87924 0
M  V30 21006 O 2181.21 1.05241 -1.47628 0
M  V30 21007 C 2181.25 -2.16123 -2.88658 0
M  V30 21008 O 2180.36 -1.5514 -3.82106 0
M  V30 21009 H 2179.7 -0.45729 -0.481438 0
M  V30 21010 H 2182.23 -1.79444 -0.982909 0
M  V30 21011 H 2182.24 -2.28579 -3.37958 0
M  V30 21012 H 2180.91 -3.19136 -2.66693 0
M  V30 21013 H 2179.49 -1.51604 -3.40691 0
M  V30 21014 N 2181.68 1.01656 -1.20431 0
M  V30 21015 C 2182.92 1.74909 -1.01249 0
M  V30 21016 C 2183.24 1.89583 0.456441 0
M  V30 21017 O 2182.51 1.43836 1.32997 0
M  V30 21018 H 2181.09 0.647988 -0.371646 0
M  V30 21019 H 2183.76 1.22561 -1.51542 0
M  V30 21020 H 2182.85 2.75268 -1.47085 0
M  V30 21021 N 2183.15 1.01021 1.20965 0
M  V30 21022 C 2184.1 0.575015 2.23522 0
M  V30 21023 C 2185.07 -0.401609 1.61172 0
M  V30 21024 O 2186.26 -0.302487 1.88387 0
M  V30 21025 C 2183.4 -0.0869827 3.4499 0
M  V30 21026 C 2182.51 0.933442 4.21795 0
M  V30 21027 C 2181.64 0.243164 5.30643 0
M  V30 21028 C 2180.68 1.25078 5.99184 0
M  V30 21029 N 2179.82 0.587617 6.99637 0
M  V30 21030 H 2184.66 1.45423 2.60108 0
M  V30 21031 H 2182.2 0.728091 1.27817 0
M  V30 21032 H 2184.15 -0.487872 4.14338 0
M  V30 21033 H 2182.78 -0.929881 3.09117 0
M  V30 21034 H 2181.84 1.45254 3.51576 0
M  V30 21035 H 2183.15 1.70003 4.68936 0
M  V30 21036 H 2182.3 -0.213561 6.06324 0
M  V30 21037 H 2181.04 -0.555781 4.84523 0
M  V30 21038 H 2180.05 1.71796 5.2227 0
M  V30 21039 H 2181.27 2.0509 6.47391 0
M  V30 21040 H 2179.22 -0.191575 6.5572 0
M  V30 21041 H 2179.13 1.29237 7.44872 0
M  V30 21042 H 2180.4 0.154271 7.79347 0
M  V30 21043 N 2184.63 -1.36623 0.78561 0
M  V30 21044 C 2185.54 -2.33889 0.182448 0
M  V30 21045 C 2186.56 -1.60858 -0.66338 0
M  V30 21046 O 2187.73 -1.92866 -0.580058 0
M  V30 21047 C 2184.8 -3.40052 -0.675704 0
M  V30 21048 C 2183.86 -4.28887 0.188182 0
M  V30 21049 C 2183.09 -5.29979 -0.629108 0
M  V30 21050 O 2183.32 -5.39037 -1.86534 0
M  V30 21051 O 2182.25 -6.01892 -0.0310062 0
M  V30 21052 H 2186.08 -2.87229 0.986556 0
M  V30 21053 H 2183.66 -1.39026 0.547001 0
M  V30 21054 H 2185.54 -4.04971 -1.16518 0
M  V30 21055 H 2184.22 -2.89017 -1.45777 0
M  V30 21056 H 2183.12 -3.67021 0.724325 0
M  V30 21057 H 2184.46 -4.83263 0.933665 0
M  V30 21058 N 2186.11 -0.537304 -1.48158 0
M  V30 21059 C 2187.39 0.0588571 -1.95511 0
M  V30 21060 C 2187.77 1.50563 -1.47966 0
M  V30 21061 O 2187.11 2.17207 -0.709454 0
M  V30 21062 C 2187.32 -0.0659743 -3.48938 0
M  V30 21063 C 2188.67 0.089563 -4.24506 0
M  V30 21064 O 2189.7 0.00746266 -3.56199 0
M  V30 21065 O 2188.56 0.262738 -5.45868 0
M  V30 21066 H 2185.65 0.0752315 -0.823571 0
M  V30 21067 H 2188.2 -0.60242 -1.58647 0
M  V30 21068 H 2186.97 -1.0735 -3.76287 0
M  V30 21069 H 2186.59 0.633822 -3.92516 0
M  V30 21070 N 2187.59 1.55221 -0.272782 0
M  V30 21071 C 2188.52 2.25408 0.609392 0
M  V30 21072 C 2189.5 1.2434 1.16076 0
M  V30 21073 O 2190.68 1.53054 1.19533 0
M  V30 21074 C 2187.81 2.97338 1.79464 0
M  V30 21075 C 2186.77 4.05315 1.37491 0
M  V30 21076 C 2186.09 4.64808 2.64307 0
M  V30 21077 C 2187.39 5.19636 0.526828 0
M  V30 21078 H 2189.09 2.9939 0.0240678 0
M  V30 21079 H 2186.63 1.43996 0.0101357 0
M  V30 21080 H 2188.59 3.45149 2.41765 0
M  V30 21081 H 2187.31 2.20887 2.40576 0
M  V30 21082 H 2185.97 3.58312 0.775106 0
M  V30 21083 H 2185.62 3.85027 3.23672 0
M  V30 21084 H 2185.32 5.37713 2.36935 0
M  V30 21085 H 2186.84 5.15366 3.2746 0
M  V30 21086 H 2188.26 5.63513 1.05478 0
M  V30 21087 H 2186.65 5.9909 0.348095 0
M  V30 21088 H 2187.72 4.82761 -0.454948 0
M  V30 21089 N 2189.07 2.77022e-05 1.576 0
M  V30 21090 C 2190.31 -0.685829 1.90851 0
M  V30 21091 C 2190.65 -1.73422 0.873984 0
M  V30 21092 O 2189.92 -1.94204 -0.107282 0
M  V30 21093 C 2190.2 -1.32893 3.34681 0
M  V30 21094 C 2190.06 -0.292085 4.48851 0
M  V30 21095 C 2191.38 -2.25509 3.77933 0
M  V30 21096 H 2188.49 -0.247851 0.694074 0
M  V30 21097 H 2191.14 0.0513272 1.89931 0
M  V30 21098 H 2189.29 -1.95723 3.35596 0
M  V30 21099 H 2190.96 0.336531 4.60071 0
M  V30 21100 H 2189.2 0.385648 4.32082 0
M  V30 21101 H 2189.87 -0.781112 5.46445 0
M  V30 21102 H 2192.35 -1.72696 3.7857 0
M  V30 21103 H 2191.22 -2.67473 4.79322 0
M  V30 21104 H 2191.49 -3.13419 3.11803 0
M  V30 21105 N 2190.54 -1.55222 -0.272728 0
M  V30 21106 C 2191.79 -1.75494 -1.00231 0
M  V30 21107 C 2192.11 -0.559233 -1.86809 0
M  V30 21108 O 2191.38 0.425848 -1.91215 0
M  V30 21109 H 2189.96 -0.647172 -0.373065 0
M  V30 21110 H 2192.63 -1.92625 -0.296893 0
M  V30 21111 H 2191.72 -2.65594 -1.63909 0
M  V30 21112 N 2192.02 0.537252 -1.4816 0
M  V30 21113 C 2193.25 1.32317 -1.59709 0
M  V30 21114 C 2193.67 1.86365 -0.254891 0
M  V30 21115 O 2193.03 1.64026 0.772349 0
M  V30 21116 C 2193.08 2.45501 -2.64125 0
M  V30 21117 O 2192.18 3.48325 -2.2078 0
M  V30 21118 H 2191.52 0.392195 -0.535798 0
M  V30 21119 H 2194.05 0.647233 -1.94093 0
M  V30 21120 H 2194.06 2.9179 -2.85171 0
M  V30 21121 H 2192.74 2.05522 -3.61571 0
M  V30 21122 H 2191.32 3.08204 -2.09917 0
M  V30 21123 N 2193.5 1.36626 0.785562 0
M  V30 21124 C 2194.46 1.3111 1.87997 0
M  V30 21125 C 2195.46 0.217987 1.59316 0
M  V30 21126 O 2196.65 0.473006 1.67655 0
M  V30 21127 C 2193.79 1.03339 3.2486 0
M  V30 21128 H 2194.98 2.28444 1.94303 0
M  V30 21129 H 2192.53 1.21455 0.983792 0
M  V30 21130 H 2193.27 0.0648002 3.24235 0
M  V30 21131 H 2193.05 1.82447 3.47067 0
M  V30 21132 H 2194.54 1.02095 4.04928 0
M  V30 21133 N 2194.98 -1.01016 1.20969 0
M  V30 21134 C 2196.2 -1.78837 1.05034 0
M  V30 21135 C 2196.63 -1.8389 -0.39572 0
M  V30 21136 O 2195.99 -1.2787 -1.28527 0
M  V30 21137 C 2196.03 -3.20837 1.64608 0
M  V30 21138 O 2195.14 -4.02725 0.888059 0
M  V30 21139 H 2194.48 -0.55136 0.369997 0
M  V30 21140 H 2197.01 -1.27015 1.60401 0
M  V30 21141 H 2197.02 -3.71529 1.68613 0
M  V30 21142 H 2195.69 -3.16474 2.69846 0
M  V30 21143 H 2194.27 -3.61304 0.922711 0
M  V30 21144 N 2196.46 -1.01661 -1.20428 0
M  V30 21145 C 2197.7 -0.704556 -1.89421 0
M  V30 21146 C 2198.03 0.768165 -1.79232 0
M  V30 21147 O 2197.3 1.55252 -1.19473 0
M  V30 21148 H 2195.88 -0.257615 -0.701173 0
M  V30 21149 H 2198.54 -1.28821 -1.46257 0
M  V30 21150 H 2197.63 -0.987968 -2.9605 0
M  V30 21151 N 2197.93 1.36205 -0.792844 0
M  V30 21152 C 2199.21 1.93428 -0.290661 0
M  V30 21153 C 2199.59 1.72439 1.2177 0
M  V30 21154 O 2198.94 1.08534 2.01078 0
M  V30 21155 C 2199.15 3.42171 -0.687033 0
M  V30 21156 C 2200.5 4.19301 -0.668717 0
M  V30 21157 O 2201.52 3.50625 -0.62772 0
M  V30 21158 O 2200.38 5.41807 -0.714692 0
M  V30 21159 H 2197.47 0.823789 -0.0728072 0
M  V30 21160 H 2200.02 1.45365 -0.875619 0
M  V30 21161 H 2198.79 3.51119 -1.72718 0
M  V30 21162 H 2198.42 3.97527 -0.0761432 0
M  V30 21163 N 2199.41 0.545154 1.47871 0
M  V30 21164 C 2200.34 -0.197752 2.32661 0
M  V30 21165 C 2201.32 -0.920479 1.43043 0
M  V30 21166 O 2202.51 -0.9033 1.71913 0
M  V30 21167 C 2199.64 -1.23576 3.24571 0
M  V30 21168 C 2198.59 -0.630249 4.23334 0
M  V30 21169 C 2197.92 -1.77202 5.04483 0
M  V30 21170 C 2199.22 0.408065 5.20703 0
M  V30 21171 H 2200.91 0.510097 2.95023 0
M  V30 21172 H 2198.46 0.246756 1.4187 0
M  V30 21173 H 2200.41 -1.76355 3.82723 0
M  V30 21174 H 2199.14 -1.9734 2.6024 0
M  V30 21175 H 2197.79 -0.123857 3.66391 0
M  V30 21176 H 2197.44 -2.4984 4.36565 0
M  V30 21177 H 2197.14 -1.37271 5.71341 0
M  V30 21178 H 2198.67 -2.3033 5.65491 0
M  V30 21179 H 2200.08 -0.0332043 5.7329 0
M  V30 21180 H 2198.48 0.725591 5.95697 0
M  V30 21181 H 2199.55 1.30837 4.66915 0
M  V30 21182 N 2200.89 -1.55074 0.28101 0
M  V30 21183 C 2202.17 -1.9175 -0.386173 0
M  V30 21184 C 2202.55 -1.20597 -1.73262 0
M  V30 21185 O 2201.9 -0.334824 -2.26034 0
M  V30 21186 C 2202.11 -3.45095 -0.520626 0
M  V30 21187 C 2203.45 -4.1698 -0.800792 0
M  V30 21188 O 2204.48 -3.51021 -0.605209 0
M  V30 21189 O 2203.34 -5.33714 -1.17521 0
M  V30 21190 H 2200.43 -0.799261 -0.212394 0
M  V30 21191 H 2202.98 -1.66508 0.327597 0
M  V30 21192 H 2201.75 -3.88967 0.426702 0
M  V30 21193 H 2201.37 -3.76309 -1.28364 0
M  V30 21194 N 2202.37 -0.00838561 -1.57598 0
M  V30 21195 C 2203.3 0.979076 -2.11982 0
M  V30 21196 C 2204.28 1.35299 -1.03093 0
M  V30 21197 O 2205.47 1.43526 -1.3082 0
M  V30 21198 C 2202.6 2.26824 -2.62999 0
M  V30 21199 C 2201.55 2.03569 -3.76488 0
M  V30 21200 C 2200.88 3.38571 -4.13852 0
M  V30 21201 C 2202.18 1.39152 -5.03422 0
M  V30 21202 H 2203.87 0.52623 -2.94739 0
M  V30 21203 H 2201.42 0.251679 -1.41784 0
M  V30 21204 H 2203.37 2.96266 -2.99674 0
M  V30 21205 H 2202.09 2.74237 -1.77374 0
M  V30 21206 H 2200.75 1.36551 -3.4022 0
M  V30 21207 H 2200.4 3.83704 -3.25239 0
M  V30 21208 H 2200.1 3.23825 -4.90317 0
M  V30 21209 H 2201.62 4.09315 -4.53093 0
M  V30 21210 H 2203.04 1.98563 -5.37815 0
M  V30 21211 H 2201.43 1.34868 -5.84748 0
M  V30 21212 H 2202.5 0.361783 -4.83548 0
M  V30 21213 N 2203.85 1.55365 0.264492 0
M  V30 21214 C 2205.1 1.76023 0.99299 0
M  V30 21215 C 2205.42 0.569132 1.8651 0
M  V30 21216 O 2204.69 -0.415701 1.91439 0
M  V30 21217 H 2203.27 0.649141 0.369627 0
M  V30 21218 H 2205.93 1.9278 0.286673 0
M  V30 21219 H 2205.02 2.6646 1.62498 0
M  V30 21220 N 2205.33 -0.529387 1.48443 0
M  V30 21221 C 2206.27 -1.63391 1.63009 0
M  V30 21222 C 2207.24 -1.59248 0.472148 0
M  V30 21223 O 2208.43 -1.77664 0.695704 0
M  V30 21224 C 2205.57 -3.0165 1.67635 0
M  V30 21225 C 2204.68 -3.16022 2.94541 0
M  V30 21226 C 2203.82 -4.44844 2.90323 0
M  V30 21227 C 2202.85 -4.52747 4.11931 0
M  V30 21228 N 2201.99 -5.72958 4.05788 0
M  V30 21229 H 2206.83 -1.5028 2.57332 0
M  V30 21230 H 2204.37 -0.731634 1.27615 0
M  V30 21231 H 2206.33 -3.81748 1.68299 0
M  V30 21232 H 2204.96 -3.1353 0.768025 0
M  V30 21233 H 2204.01 -2.29172 3.03619 0
M  V30 21234 H 2205.32 -3.17723 3.84518 0
M  V30 21235 H 2204.47 -5.33233 2.89391 0
M  V30 21236 H 2203.21 -4.45665 1.98076 0
M  V30 21237 H 2202.22 -3.62764 4.13137 0
M  V30 21238 H 2203.44 -4.53663 5.05338 0
M  V30 21239 H 2201.39 -5.74675 3.16361 0
M  V30 21240 H 2201.31 -5.76155 4.8947 0
M  V30 21241 H 2202.57 -6.63633 4.08915 0
M  V30 21242 N 2206.8 -1.37041 -0.778305 0
M  V30 21243 C 2207.73 -1.34965 -1.90543 0
M  V30 21244 C 2208.71 -0.219304 -1.6868 0
M  V30 21245 O 2209.9 -0.418657 -1.89634 0
M  V30 21246 C 2207.03 -1.14931 -3.27732 0
M  V30 21247 C 2205.98 -2.24908 -3.64143 0
M  V30 21248 C 2205.31 -1.90004 -4.99802 0
M  V30 21249 C 2206.61 -3.67058 -3.71572 0
M  V30 21250 H 2208.3 -2.29281 -1.92537 0
M  V30 21251 H 2205.85 -1.10368 -0.924928 0
M  V30 21252 H 2207.8 -1.12111 -4.06213 0
M  V30 21253 H 2206.53 -0.170689 -3.26154 0
M  V30 21254 H 2205.19 -2.26873 -2.87966 0
M  V30 21255 H 2204.83 -0.906883 -4.94757 0
M  V30 21256 H 2204.53 -2.63644 -5.25134 0
M  V30 21257 H 2206.06 -1.88759 -5.80691 0
M  V30 21258 H 2207.47 -3.67259 -4.4022 0
M  V30 21259 H 2205.87 -4.39695 -4.08397 0
M  V30 21260 H 2206.94 -4.01158 -2.72397 0
M  V30 21261 N 2208.28 1.00373 -1.21503 0
M  V30 21262 C 2209.69 1.55619 -1.03149 0
M  V30 21263 C 2210.04 1.91904 0.408341 0
M  V30 21264 O 2209.17 1.73618 1.29174 0
M  V30 21265 C 2209.76 2.82771 -1.86617 0
M  V30 21266 C 2208.32 3.34498 -1.72591 0
M  V30 21267 C 2207.47 2.0768 -1.83751 0
M  V30 21268 H 2210.42 0.826057 -1.35506 0
M  V30 21269 H 2210.44 3.54703 -1.37716 0
M  V30 21270 H 2209.95 2.56331 -2.91403 0
M  V30 21271 H 2208.05 3.65871 -0.704941 0
M  V30 21272 H 2208.17 4.05833 -2.5463 0
M  V30 21273 H 2206.53 2.20736 -1.27073 0
M  V30 21274 H 2207.31 1.8365 -2.90048 0
M  V30 21275 N 2209.76 1.02298 1.19887 0
M  V30 21276 C 2210.98 0.735271 1.93929 0
M  V30 21277 C 2211.41 -0.698751 1.7464 0
M  V30 21278 O 2210.77 -1.48165 1.04483 0
M  V30 21279 C 2210.82 1.08423 3.43914 0
M  V30 21280 O 2209.92 0.199519 4.11917 0
M  V30 21281 H 2209.26 0.272207 0.60564 0
M  V30 21282 H 2211.79 1.36807 1.52135 0
M  V30 21283 H 2211.8 1.03863 3.94559 0
M  V30 21284 H 2210.48 2.12901 3.57276 0
M  V30 21285 H 2209.05 0.303201 3.71665 0
M  V30 21286 N 2211.24 -1.35782 0.800057 0
M  V30 21287 C 2212.49 -1.9856 0.376632 0
M  V30 21288 C 2212.81 -1.63797 -1.0581 0
M  V30 21289 O 2212.08 -0.917202 -1.73102 0
M  V30 21290 H 2210.66 -0.734465 0.136274 0
M  V30 21291 H 2213.32 -1.65804 1.02445 0
M  V30 21292 H 2212.41 -3.08432 0.477056 0
M  V30 21293 N 2212.72 -0.552988 -1.4758 0
M  V30 21294 C 2213.94 -0.0320919 -2.06875 0
M  V30 21295 C 2214.36 1.25974 -1.40627 0
M  V30 21296 O 2213.72 1.75478 -0.50138 0
M  V30 21297 C 2213.77 0.171607 -3.61092 0
M  V30 21298 O 2213.49 -1.06906 -4.24856 0
M  V30 21299 C 2214.99 0.730267 -4.37244 0
M  V30 21300 H 2212.21 -0.0439268 -0.669561 0
M  V30 21301 H 2214.75 -0.765196 -1.89644 0
M  V30 21302 H 2212.91 0.854827 -3.77851 0
M  V30 21303 H 2213.32 -0.86415 -5.17332 0
M  V30 21304 H 2214.8 0.822107 -5.45844 0
M  V30 21305 H 2215.27 1.74057 -4.03238 0
M  V30 21306 H 2215.88 0.0828795 -4.25219 0
M  V30 21307 N 2214.19 1.54923 -0.28923 0
M  V30 21308 C 2215.12 2.26041 0.58545 0
M  V30 21309 C 2216.1 1.25564 1.14751 0
M  V30 21310 O 2217.29 1.54313 1.17903 0
M  V30 21311 C 2214.42 2.99225 1.763 0
M  V30 21312 C 2213.37 4.06751 1.33184 0
M  V30 21313 C 2212.7 4.67585 2.59362 0
M  V30 21314 C 2214 5.20166 0.471684 0
M  V30 21315 H 2215.69 2.99399 -0.00768794 0
M  V30 21316 H 2213.24 1.43999 -0.0051376 0
M  V30 21317 H 2215.19 3.47694 2.38091 0
M  V30 21318 H 2213.92 2.23426 2.38219 0
M  V30 21319 H 2212.58 3.59114 0.737058 0
M  V30 21320 H 2212.22 3.88438 3.1957 0
M  V30 21321 H 2211.92 5.40196 2.31219 0
M  V30 21322 H 2213.45 5.1881 3.21976 0
M  V30 21323 H 2214.86 5.646 0.994956 0
M  V30 21324 H 2213.26 5.99425 0.284534 0
M  V30 21325 H 2214.33 4.82251 -0.506126 0
M  V30 21326 N 2215.67 0.0167433 1.57591 0
M  V30 21327 C 2216.92 -0.663251 1.90907 0
M  V30 21328 C 2217.24 -1.73375 0.892539 0
M  V30 21329 O 2216.51 -1.95783 -0.0677279 0
M  V30 21330 H 2215.09 -0.247971 0.704641 0
M  V30 21331 H 2217.75 0.0616251 1.94803 0
M  V30 21332 H 2216.85 -1.12387 2.91162 0
M  V30 21333 N 2217.15 -1.55503 -0.256249 0
M  V30 21334 C 2218.38 -1.81278 -1.00762 0
M  V30 21335 C 2218.8 -0.592551 -1.78523 0
M  V30 21336 O 2218.16 0.458239 -1.75413 0
M  V30 21337 C 2218.21 -3.0469 -1.92864 0
M  V30 21338 O 2217.31 -2.8095 -3.01896 0
M  V30 21339 H 2216.65 -0.598669 -0.287213 0
M  V30 21340 H 2219.18 -2.02674 -0.280074 0
M  V30 21341 H 2219.19 -3.33873 -2.34505 0
M  V30 21342 H 2217.87 -3.93145 -1.35682 0
M  V30 21343 H 2216.44 -2.62909 -2.64449 0
M  V30 21344 N 2218.63 0.521507 -1.48721 0
M  V30 21345 C 2219.88 1.27434 -1.56859 0
M  V30 21346 C 2220.2 1.93416 -0.248016 0
M  V30 21347 O 2219.47 1.81746 0.731119 0
M  V30 21348 H 2218.05 0.473337 -0.577894 0
M  V30 21349 H 2220.71 0.606173 -1.85234 0
M  V30 21350 H 2219.81 2.04916 -2.35406 0
M  V30 21351 N 2220.11 1.37452 0.771027 0
M  V30 21352 C 2221.04 1.29149 1.89349 0
M  V30 21353 C 2222.05 0.207152 1.61477 0
M  V30 21354 O 2223.24 0.463354 1.72381 0
M  V30 21355 C 2220.34 0.974252 3.24594 0
M  V30 21356 C 2219.51 2.1642 3.80107 0
M  V30 21357 C 2218.57 1.81712 4.93829 0
M  V30 21358 O 2217.6 2.54015 5.09377 0
M  V30 21359 N 2218.8 0.761674 5.75481 0
M  V30 21360 H 2221.57 2.25867 1.96987 0
M  V30 21361 H 2219.13 1.31086 0.950168 0
M  V30 21362 H 2221.12 0.722898 3.98191 0
M  V30 21363 H 2219.69 0.0956076 3.12454 0
M  V30 21364 H 2218.91 2.57726 2.9828 0
M  V30 21365 H 2220.2 2.95875 4.13927 0
M  V30 21366 H 2219.59 0.161708 5.65469 0
M  V30 21367 H 2218.15 0.570178 6.49301 0
M  V30 21368 N 2221.58 -0.997276 1.22033 0
M  V30 21369 C 2222.55 -2.06815 0.987945 0
M  V30 21370 C 2223.55 -1.6074 -0.0439802 0
M  V30 21371 O 2224.74 -1.73115 0.194083 0
M  V30 21372 C 2221.87 -3.3734 0.49138 0
M  V30 21373 H 2223.06 -2.28864 1.93807 0
M  V30 21374 H 2220.62 -1.1682 1.0384 0
M  V30 21375 H 2221.35 -3.20973 -0.463307 0
M  V30 21376 H 2221.14 -3.72115 1.23582 0
M  V30 21377 H 2222.63 -4.1614 0.348897 0
M  V30 21378 N 2223.06 -1.02932 -1.19343 0
M  V30 21379 C 2224.47 -0.755663 -1.70724 0
M  V30 21380 C 2224.82 0.724644 -1.82328 0
M  V30 21381 O 2223.95 1.56482 -1.49474 0
M  V30 21382 C 2224.54 -1.36508 -3.10082 0
M  V30 21383 C 2223.1 -1.14 -3.58721 0
M  V30 21384 C 2222.25 -1.46287 -2.35575 0
M  V30 21385 H 2225.2 -1.19719 -1.04178 0
M  V30 21386 H 2225.22 -0.762283 -3.72786 0
M  V30 21387 H 2224.73 -2.44246 -3.01605 0
M  V30 21388 H 2222.84 -0.0808556 -3.72512 0
M  V30 21389 H 2222.95 -1.82902 -4.42813 0
M  V30 21390 H 2221.31 -0.882212 -2.38933 0
M  V30 21391 H 2222.1 -2.55109 -2.29727 0
M  V30 21392 N 2224.54 1.35356 -0.807246 0
M  V30 21393 C 2225.45 2.3357 -0.219635 0
M  V30 21394 C 2226.47 1.61893 0.637705 0
M  V30 21395 O 2227.64 1.93764 0.549302 0
M  V30 21396 C 2224.71 3.41084 0.62152 0
M  V30 21397 C 2223.77 4.28534 -0.25639 0
M  V30 21398 C 2223 5.30913 0.544713 0
M  V30 21399 O 2223.22 5.41937 1.77935 0
M  V30 21400 O 2222.16 6.01865 -0.0647536 0
M  V30 21401 H 2225.98 2.85624 -1.03213 0
M  V30 21402 H 2223.57 1.38138 -0.569049 0
M  V30 21403 H 2225.45 4.06774 1.1006 0
M  V30 21404 H 2224.13 2.913 1.4116 0
M  V30 21405 H 2223.03 3.65822 -0.782623 0
M  V30 21406 H 2224.37 4.81717 -1.01043 0
M  V30 21407 N 2226.02 0.560807 1.47284 0
M  V30 21408 C 2227.25 0.0430626 2.06855 0
M  V30 21409 C 2227.66 -1.25226 1.41293 0
M  V30 21410 O 2227.02 -1.75209 0.510679 0
M  V30 21411 C 2227.07 -0.152455 3.61178 0
M  V30 21412 O 2226.79 1.09158 4.24283 0
M  V30 21413 C 2228.29 -0.707068 4.37625 0
M  V30 21414 H 2225.51 0.047477 0.669318 0
M  V30 21415 H 2228.06 0.775243 1.89236 0
M  V30 21416 H 2226.21 -0.834777 3.78299 0
M  V30 21417 H 2226.62 0.891573 5.16867 0
M  V30 21418 H 2228.1 -0.793148 5.46272 0
M  V30 21419 H 2228.58 -1.71916 4.04155 0
M  V30 21420 H 2229.18 -0.0603279 4.25257 0
M  V30 21421 N 2227.5 -1.54768 0.297442 0
M  V30 21422 C 2228.72 -2.04941 -0.318399 0
M  V30 21423 C 2229.15 -1.17347 -1.47007 0
M  V30 21424 O 2228.5 -0.17679 -1.80436 0
M  V30 21425 C 2228.55 -3.52593 -0.755687 0
M  V30 21426 O 2227.66 -3.68032 -1.86082 0
M  V30 21427 H 2227 -0.661061 -0.0624094 0
M  V30 21428 H 2229.53 -1.99851 0.43825 0
M  V30 21429 H 2229.54 -3.94378 -1.04545 0
M  V30 21430 H 2228.21 -4.15809 0.0867964 0
M  V30 21431 H 2226.79 -3.38152 -1.57188 0
M  V30 21432 N 2228.97 -0.0251005 -1.5758 0
M  V30 21433 C 2230.22 0.653118 -1.91256 0
M  V30 21434 C 2230.54 1.72899 -0.901721 0
M  V30 21435 O 2229.81 1.95816 0.0573441 0
M  V30 21436 H 2228.39 0.24423 -0.705947 0
M  V30 21437 H 2231.06 -0.0719551 -1.94767 0
M  V30 21438 H 2230.15 1.10842 -2.91754 0
M  V30 21439 N 2230.45 1.55637 0.247999 0
M  V30 21440 C 2231.38 1.9324 1.31075 0
M  V30 21441 C 2232.36 0.797201 1.50262 0
M  V30 21442 O 2233.55 1.0574 1.62889 0
M  V30 21443 C 2230.68 2.22614 2.66571 0
M  V30 21444 C 2229.63 3.38375 2.62081 0
M  V30 21445 C 2228.96 3.53288 4.01362 0
M  V30 21446 C 2230.26 4.74094 2.19163 0
M  V30 21447 H 2231.95 2.82259 0.998506 0
M  V30 21448 H 2229.5 1.35804 0.478886 0
M  V30 21449 H 2231.45 2.47509 3.41053 0
M  V30 21450 H 2230.18 1.30419 2.9943 0
M  V30 21451 H 2228.83 3.13487 1.90057 0
M  V30 21452 H 2228.48 2.58515 4.31484 0
M  V30 21453 H 2228.18 4.31134 3.99246 0
M  V30 21454 H 2229.71 3.80503 4.77546 0
M  V30 21455 H 2231.12 4.98368 2.83376 0
M  V30 21456 H 2229.52 5.55034 2.2816 0
M  V30 21457 H 2230.59 4.7123 1.14327 0
M  V30 21458 N 2231.93 -0.513613 1.48996 0
M  V30 21459 C 2233.34 -1.09534 1.51192 0
M  V30 21460 C 2233.69 -1.94031 0.29094 0
M  V30 21461 O 2232.82 -2.07903 -0.600453 0
M  V30 21462 C 2233.41 -1.99317 2.73967 0
M  V30 21463 C 2231.97 -2.52677 2.78983 0
M  V30 21464 C 2231.12 -1.30005 2.44937 0
M  V30 21465 H 2234.07 -0.298098 1.55875 0
M  V30 21466 H 2234.09 -2.83834 2.53414 0
M  V30 21467 H 2233.6 -1.37792 3.62815 0
M  V30 21468 H 2231.7 -3.17877 1.94383 0
M  V30 21469 H 2231.82 -2.90692 3.80835 0
M  V30 21470 H 2230.18 -1.62118 1.96443 0
M  V30 21471 H 2230.96 -0.702072 3.36044 0
M  V30 21472 N 2233.41 -1.37859 -0.763727 0
M  V30 21473 C 2234.63 -1.36896 -1.55802 0
M  V30 21474 C 2235.06 0.0415805 -1.88054 0
M  V30 21475 O 2234.42 1.02086 -1.49827 0
M  V30 21476 C 2234.47 -2.22197 -2.84008 0
M  V30 21477 O 2233.57 -1.6321 -3.7873 0
M  V30 21478 H 2232.91 -0.467399 -0.47163 0
M  V30 21479 H 2235.44 -1.81488 -0.944625 0
M  V30 21480 H 2235.45 -2.35696 -3.33033 0
M  V30 21481 H 2234.13 -3.24721 -2.59864 0
M  V30 21482 H 2232.7 -1.58797 -3.37399 0
M  V30 21483 N 2234.89 0.990791 -1.22561 0
M  V30 21484 C 2236.14 1.72722 -1.04936 0
M  V30 21485 C 2236.46 1.90508 0.416125 0
M  V30 21486 O 2235.73 1.46624 1.29916 0
M  V30 21487 H 2234.31 0.639959 -0.385308 0
M  V30 21488 H 2236.97 1.19319 -1.54107 0
M  V30 21489 H 2236.06 2.72086 -1.52891 0
M  V30 21490 N 2236.37 1.03564 1.18795 0
M  V30 21491 C 2237.61 0.736056 1.88649 0
M  V30 21492 C 2237.94 -0.735857 1.80043 0
M  V30 21493 O 2237.2 -1.55223 1.19182 0
M  V30 21494 C 2237.49 1.14123 3.3869 0
M  V30 21495 C 2237.16 2.61256 3.675 0
M  V30 21496 C 2235.82 3.01453 3.75072 0
M  V30 21497 C 2238.17 3.56415 3.80287 0
M  V30 21498 C 2235.5 4.35707 3.92907 0
M  V30 21499 C 2237.85 4.90381 3.99636 0
M  V30 21500 C 2236.52 5.30256 4.05443 0
M  V30 21501 H 2235.79 0.269342 0.690316 0
M  V30 21502 H 2238.44 1.29973 1.40639 0
M  V30 21503 H 2236.74 0.49627 3.88644 0
M  V30 21504 H 2238.44 0.886858 3.9107 0
M  V30 21505 H 2235.03 2.29119 3.62219 0
M  V30 21506 H 2239.21 3.26508 3.73773 0
M  V30 21507 H 2234.47 4.66128 3.95645 0
M  V30 21508 H 2238.64 5.64024 4.08473 0
M  V30 21509 H 2236.27 6.34295 4.19015 0
M  V30 21510 N 2237.84 -1.34926 0.814413 0
M  V30 21511 C 2239.07 -2.03304 0.410133 0
M  V30 21512 C 2239.49 -1.60953 -0.973436 0
M  V30 21513 O 2238.85 -0.789993 -1.63183 0
M  V30 21514 C 2238.9 -3.56967 0.510553 0
M  V30 21515 O 2238 -4.09679 -0.472963 0
M  V30 21516 H 2237.34 -0.641843 0.170099 0
M  V30 21517 H 2239.87 -1.72356 1.10247 0
M  V30 21518 H 2239.88 -4.06196 0.383206 0
M  V30 21519 H 2238.56 -3.87141 1.5197 0
M  V30 21520 H 2237.14 -3.71649 -0.305206 0
M  V30 21521 N 2239.32 -0.56861 -1.46985 0
M  V30 21522 C 2240.57 -0.0487377 -2.02041 0
M  V30 21523 C 2240.89 1.31037 -1.44411 0
M  V30 21524 O 2240.16 1.85713 -0.62351 0
M  V30 21525 H 2238.74 -0.0150271 -0.746849 0
M  V30 21526 H 2241.4 -0.7412 -1.80256 0
M  V30 21527 H 2240.5 0.0308412 -3.12085 0
M  V30 21528 N 2240.8 1.54608 -0.305646 0
M  V30 21529 C 2241.71 2.27375 0.57774 0
M  V30 21530 C 2242.73 1.31063 1.14448 0
M  V30 21531 O 2243.9 1.64052 1.16828 0
M  V30 21532 C 2240.97 3.00385 1.73118 0
M  V30 21533 C 2240.03 4.12244 1.19805 0
M  V30 21534 C 2239.26 4.81763 2.29651 0
M  V30 21535 O 2239.48 4.50673 3.49643 0
M  V30 21536 O 2238.42 5.69066 1.96081 0
M  V30 21537 H 2242.24 3.03697 -0.0126774 0
M  V30 21538 H 2239.83 1.49227 -0.0719446 0
M  V30 21539 H 2241.71 3.46164 2.40309 0
M  V30 21540 H 2240.39 2.26953 2.30811 0
M  V30 21541 H 2239.29 3.70854 0.491733 0
M  V30 21542 H 2240.63 4.87667 0.66648 0
M  V30 21543 N 2242.28 0.033457 1.57564 0
M  V30 21544 C 2243.51 -0.653363 1.95997 0
M  V30 21545 C 2243.92 -1.65945 0.908778 0
M  V30 21546 O 2243.26 -1.83324 -0.117438 0
M  V30 21547 C 2243.32 -1.41243 3.30591 0
M  V30 21548 C 2242.98 -0.564183 4.53504 0
M  V30 21549 C 2243.98 0.162342 5.19646 0
M  V30 21550 C 2241.67 -0.50031 4.99802 0
M  V30 21551 C 2243.66 0.941366 6.3041 0
M  V30 21552 C 2241.35 0.282415 6.10447 0
M  V30 21553 C 2242.35 1.00196 6.75611 0
M  V30 21554 O 2242.03 1.77184 7.84131 0
M  V30 21555 H 2241.77 -0.184717 0.650274 0
M  V30 21556 H 2244.32 0.0908201 2.05199 0
M  V30 21557 H 2242.55 -2.20185 3.17892 0
M  V30 21558 H 2244.24 -1.98778 3.53896 0
M  V30 21559 H 2245 0.122356 4.84846 0
M  V30 21560 H 2240.88 -1.04994 4.48884 0
M  V30 21561 H 2244.43 1.50351 6.81205 0
M  V30 21562 H 2240.32 0.324103 6.44686 0
M  V30 21563 H 2241.09 1.69208 8.00819 0
M  V30 21564 N 2243.76 -1.55766 -0.239741 0
M  V30 21565 C 2244.98 -1.82336 -0.988341 0
M  V30 21566 C 2245.41 -0.611452 -1.77884 0
M  V30 21567 O 2244.76 0.439608 -1.7589 0
M  V30 21568 C 2244.81 -3.06718 -1.89621 0
M  V30 21569 O 2243.92 -2.84136 -2.98899 0
M  V30 21570 H 2243.26 -0.601681 -0.280848 0
M  V30 21571 H 2245.79 -2.0296 -0.258562 0
M  V30 21572 H 2245.8 -3.36342 -2.30951 0
M  V30 21573 H 2244.47 -3.94562 -1.31504 0
M  V30 21574 H 2243.05 -2.65699 -2.61646 0
M  V30 21575 N 2245.23 0.505704 -1.49266 0
M  V30 21576 C 2246.48 1.25764 -1.58202 0
M  V30 21577 C 2246.8 1.93142 -0.268516 0
M  V30 21578 O 2246.07 1.82511 0.711801 0
M  V30 21579 H 2244.65 0.467181 -0.582881 0
M  V30 21580 H 2247.31 0.586492 -1.85866 0
M  V30 21581 H 2246.41 2.02407 -2.37566 0
M  V30 21582 N 2246.71 1.38262 0.756405 0
M  V30 21583 C 2247.96 1.34514 1.51769 0
M  V30 21584 C 2248.29 -0.065635 1.94089 0
M  V30 21585 O 2247.57 -1.02623 1.65223 0
M  V30 21586 C 2247.85 2.29826 2.77222 0
M  V30 21587 C 2247.7 3.79751 2.41058 0
M  V30 21588 C 2249.02 2.23319 3.79232 0
M  V30 21589 H 2246.14 0.489941 0.55057 0
M  V30 21590 H 2248.78 1.69087 0.866577 0
M  V30 21591 H 2246.93 2.00473 3.3278 0
M  V30 21592 H 2248.6 4.19766 1.91296 0
M  V30 21593 H 2246.85 3.9757 1.73553 0
M  V30 21594 H 2247.52 4.41898 3.30802 0
M  V30 21595 H 2249.99 2.49225 3.33206 0
M  V30 21596 H 2248.87 2.92124 4.64709 0
M  V30 21597 H 2249.13 1.2311 4.24613 0
M  V30 21598 N 2248.19 -0.984277 1.23084 0
M  V30 21599 C 2249.47 -1.69915 0.968929 0
M  V30 21600 C 2249.85 -2.04758 -0.513568 0
M  V30 21601 O 2249.2 -1.73769 -1.4838 0
M  V30 21602 C 2249.41 -2.9434 1.87524 0
M  V30 21603 C 2250.75 -3.66936 2.13642 0
M  V30 21604 O 2251.78 -3.04365 1.85042 0
M  V30 21605 O 2250.64 -4.79533 2.62127 0
M  V30 21606 H 2247.73 -0.742041 0.365108 0
M  V30 21607 H 2250.28 -1.03985 1.34109 0
M  V30 21608 H 2249.05 -2.65159 2.87761 0
M  V30 21609 H 2248.67 -3.68007 1.5052 0
M  V30 21610 N 2249.67 -1.04192 -1.18244 0
M  V30 21611 C 2250.6 -0.654953 -2.24126 0
M  V30 21612 C 2251.58 0.342422 -1.66618 0
M  V30 21613 O 2252.76 0.222243 -1.92924 0
M  V30 21614 C 2249.89 -0.0184367 -3.47295 0
M  V30 21615 C 2248.85 -0.939488 -4.17562 0
M  V30 21616 C 2248.17 -0.16738 -5.34438 0
M  V30 21617 C 2249.47 -2.25916 -4.70913 0
M  V30 21618 H 2251.17 -1.54012 -2.5675 0
M  V30 21619 H 2248.71 -0.741971 -1.23413 0
M  V30 21620 H 2250.67 0.264009 -4.20572 0
M  V30 21621 H 2249.39 0.901609 -3.13909 0
M  V30 21622 H 2248.05 -1.20634 -3.46184 0
M  V30 21623 H 2247.7 0.755112 -4.973 0
M  V30 21624 H 2247.4 -0.781003 -5.82387 0
M  V30 21625 H 2248.92 0.108018 -6.10504 0
M  V30 21626 H 2250.34 -2.03733 -5.35879 0
M  V30 21627 H 2248.73 -2.82586 -5.29401 0
M  V30 21628 H 2249.8 -2.90477 -3.88267 0
M  V30 21629 N 2251.15 1.34492 -0.821557 0
M  V30 21630 C 2252.39 1.97935 -0.408173 0
M  V30 21631 C 2252.72 1.65459 1.0319 0
M  V30 21632 O 2251.99 0.944625 1.71621 0
M  V30 21633 H 2250.57 0.732204 -0.147941 0
M  V30 21634 H 2253.23 1.64153 -1.0507 0
M  V30 21635 H 2252.32 3.07634 -0.526065 0
M  V30 21636 N 2252.62 0.576397 1.46681 0
M  V30 21637 C 2253.85 0.063084 2.07304 0
M  V30 21638 C 2254.27 -1.22977 1.42331 0
M  V30 21639 O 2253.63 -1.74128 0.504895 0
M  V30 21640 C 2253.68 -0.0958316 3.60473 0
M  V30 21641 O 2252.78 -1.15387 3.95929 0
M  V30 21642 H 2252.13 0.0599579 0.661287 0
M  V30 21643 H 2254.66 0.797544 1.88415 0
M  V30 21644 H 2254.67 -0.303999 4.06866 0
M  V30 21645 H 2253.34 0.848351 4.07156 0
M  V30 21646 H 2251.92 -0.92466 3.61254 0
M  V30 21647 N 2254.1 -1.54444 0.313841 0
M  V30 21648 C 2255.35 -1.99993 -0.291064 0
M  V30 21649 C 2255.67 -1.20369 -1.53416 0
M  V30 21650 O 2254.94 -0.302961 -1.93543 0
M  V30 21651 H 2253.52 -0.738776 -0.110539 0
M  V30 21652 H 2256.18 -1.90139 0.428139 0
M  V30 21653 H 2255.28 -3.0714 -0.554214 0
M  V30 21654 N 2255.58 -0.0418125 -1.57545 0
M  V30 21655 C 2256.99 0.495227 -1.80012 0
M  V30 21656 C 2257.34 1.71488 -0.953229 0
M  V30 21657 O 2256.47 2.15753 -0.167176 0
M  V30 21658 C 2257.06 0.905208 -3.26483 0
M  V30 21659 C 2255.62 1.38728 -3.49902 0
M  V30 21660 C 2254.77 0.358007 -2.74979 0
M  V30 21661 H 2257.72 -0.267763 -1.56425 0
M  V30 21662 H 2257.74 1.76876 -3.36891 0
M  V30 21663 H 2257.25 0.0173328 -3.88096 0
M  V30 21664 H 2255.35 2.29466 -2.93558 0
M  V30 21665 H 2255.47 1.3859 -4.58617 0
M  V30 21666 H 2253.83 0.828869 -2.40836 0
M  V30 21667 H 2254.61 -0.521621 -3.39314 0
M  V30 21668 N 2257.06 1.55891 0.231477 0
M  V30 21669 C 2258.47 1.68725 0.799297 0
M  V30 21670 C 2258.82 0.642055 1.85397 0
M  V30 21671 O 2257.95 -0.208746 2.15391 0
M  V30 21672 C 2258.54 3.05891 1.45659 0
M  V30 21673 C 2257.1 3.20613 1.97192 0
M  V30 21674 C 2256.25 2.64634 0.828506 0
M  V30 21675 H 2259.2 1.58698 0.00699826 0
M  V30 21676 H 2259.22 3.01195 2.32512 0
M  V30 21677 H 2258.73 3.8194 0.688741 0
M  V30 21678 H 2256.83 2.49414 2.76809 0
M  V30 21679 H 2256.94 4.27711 2.15871 0
M  V30 21680 H 2255.31 2.22856 1.23317 0
M  V30 21681 H 2256.09 3.43221 0.0734941 0
M  V30 21682 N 2258.54 -0.497781 1.49532 0
M  V30 21683 C 2259.76 -1.28036 1.63161 0
M  V30 21684 C 2260.19 -1.85624 0.304213 0
M  V30 21685 O 2259.54 -1.66016 -0.728589 0
M  V30 21686 C 2259.59 -2.38411 2.70541 0
M  V30 21687 O 2258.7 -3.42349 2.29937 0
M  V30 21688 H 2258.04 -0.377851 0.546008 0
M  V30 21689 H 2260.57 -0.595546 1.95741 0
M  V30 21690 H 2260.58 -2.84127 2.92807 0
M  V30 21691 H 2259.25 -1.95863 3.66893 0
M  V30 21692 H 2257.83 -3.0253 2.18014 0
M  V30 21693 N 2260.01 -1.38661 -0.749062 0
M  V30 21694 C 2261.26 -1.3485 -1.50532 0
M  V30 21695 C 2261.58 0.0594673 -1.94909 0
M  V30 21696 O 2260.85 1.00803 -1.67975 0
M  V30 21697 H 2259.43 -0.4962 -0.558386 0
M  V30 21698 H 2262.1 -1.73386 -0.890134 0
M  V30 21699 H 2261.19 -2.00223 -2.3941 0
M  V30 21700 N 2261.49 0.977736 -1.23605 0
M  V30 21701 C 2262.42 2.08858 -1.04405 0
M  V30 21702 C 2263.4 1.70053 0.0398754 0
M  V30 21703 O 2264.59 1.93795 -0.12528 0
M  V30 21704 C 2261.72 3.41402 -0.637329 0
M  V30 21705 C 2260.67 3.94121 -1.6689 0
M  V30 21706 C 2260 5.22891 -1.11754 0
M  V30 21707 C 2261.3 4.2309 -3.06255 0
M  V30 21708 H 2262.99 2.25178 -1.9732 0
M  V30 21709 H 2260.54 1.08207 -0.950115 0
M  V30 21710 H 2262.49 4.18541 -0.490054 0
M  V30 21711 H 2261.22 3.24954 0.3275 0
M  V30 21712 H 2259.88 3.1913 -1.80421 0
M  V30 21713 H 2259.52 5.02795 -0.143615 0
M  V30 21714 H 2259.22 5.59131 -1.80682 0
M  V30 21715 H 2260.75 6.02649 -0.982173 0
M  V30 21716 H 2262.16 4.9097 -2.9601 0
M  V30 21717 H 2260.56 4.70537 -3.72445 0
M  V30 21718 H 2261.63 3.30257 -3.55047 0
M  V30 21719 N 2262.97 1.04818 1.1769 0
M  V30 21720 C 2264.38 0.782728 1.695 0
M  V30 21721 C 2264.73 -0.695545 1.83457 0
M  V30 21722 O 2263.86 -1.54084 1.51945 0
M  V30 21723 C 2264.45 1.41424 3.07871 0
M  V30 21724 C 2263.01 1.19693 3.56862 0
M  V30 21725 C 2262.16 1.50016 2.33218 0
M  V30 21726 H 2265.11 1.21362 1.0226 0
M  V30 21727 H 2265.13 0.821494 3.71526 0
M  V30 21728 H 2264.64 2.49014 2.97681 0
M  V30 21729 H 2262.74 0.140109 3.72336 0
M  V30 21730 H 2262.86 1.89924 4.39847 0
M  V30 21731 H 2261.22 0.920113 2.375 0
M  V30 21732 H 2262 2.58731 2.25639 0
M  V30 21733 N 2264.45 -1.34055 0.828678 0
M  V30 21734 C 2265.73 -1.9259 0.341842 0
M  V30 21735 C 2266.11 -1.75607 -1.17155 0
M  V30 21736 O 2265.45 -1.13827 -1.9813 0
M  V30 21737 C 2265.66 -3.40229 0.777512 0
M  V30 21738 C 2267.01 -4.17381 0.779652 0
M  V30 21739 O 2268.04 -3.48838 0.720461 0
M  V30 21740 O 2266.9 -5.39721 0.858091 0
M  V30 21741 H 2263.99 -0.821569 0.0946229 0
M  V30 21742 H 2266.54 -1.42992 0.913852 0
M  V30 21743 H 2265.31 -3.46416 1.81966 0
M  V30 21744 H 2264.93 -3.97185 0.181514 0
M  V30 21745 N 2265.93 -0.584167 -1.46374 0
M  V30 21746 C 2267.17 -0.070303 -2.02378 0
M  V30 21747 C 2267.5 1.2902 -1.45548 0
M  V30 21748 O 2266.76 1.85917 -0.610999 0
M  V30 21749 C 2267.06 0.0438714 -3.57373 0
M  V30 21750 C 2266.72 -1.24923 -4.3325 0
M  V30 21751 C 2265.38 -1.60349 -4.53698 0
M  V30 21752 C 2267.74 -2.10488 -4.76806 0
M  V30 21753 C 2265.06 -2.81137 -5.14955 0
M  V30 21754 C 2267.42 -3.30503 -5.39398 0
M  V30 21755 C 2266.08 -3.6621 -5.58074 0
M  V30 21756 H 2265.35 -0.0257257 -0.740553 0
M  V30 21757 H 2268 -0.761096 -1.75726 0
M  V30 21758 H 2266.3 0.817801 -3.8317 0
M  V30 21759 H 2268 0.457248 -3.98385 0
M  V30 21760 H 2264.59 -0.963437 -4.17631 0
M  V30 21761 H 2268.77 -1.84422 -4.60763 0
M  V30 21762 H 2264.03 -3.08938 -5.27605 0
M  V30 21763 H 2268.2 -3.97073 -5.72107 0
M  V30 21764 H 2265.83 -4.59896 -6.0531 0
M  V30 21765 N 2267.41 1.54275 -0.322027 0
M  V30 21766 C 2268.63 2.05422 0.285755 0
M  V30 21767 C 2269.06 1.19671 1.45122 0
M  V30 21768 O 2268.41 0.205473 1.80132 0
M  V30 21769 C 2268.46 3.5375 0.699497 0
M  V30 21770 O 2267.57 3.70945 1.80203 0
M  V30 21771 H 2266.91 0.66197 0.0518846 0
M  V30 21772 H 2269.44 1.99129 -0.469989 0
M  V30 21773 H 2269.45 3.95992 0.982579 0
M  V30 21774 H 2268.12 4.15619 -0.152937 0
M  V30 21775 H 2266.7 3.40609 1.51788 0
M  V30 21776 N 2268.88 0.0501669 1.5752 0
M  V30 21777 C 2270.13 -0.622608 1.92271 0
M  V30 21778 C 2270.45 -1.71442 0.929113 0
M  V30 21779 O 2269.72 -1.95883 -0.0261842 0
M  V30 21780 H 2268.3 -0.232968 0.709743 0
M  V30 21781 H 2270.96 0.102932 1.94628 0
M  V30 21782 H 2270.06 -1.06186 2.93481 0
M  V30 21783 N 2270.36 -1.56011 -0.223207 0
M  V30 21784 C 2271.29 -1.953 -1.27984 0
M  V30 21785 C 2272.27 -0.821005 -1.48975 0
M  V30 21786 O 2273.46 -1.08318 -1.61186 0
M  V30 21787 C 2270.59 -2.26827 -2.62996 0
M  V30 21788 C 2269.54 -3.42501 -2.56665 0
M  V30 21789 C 2268.87 -3.59629 -3.95691 0
M  V30 21790 C 2270.17 -4.77521 -2.11592 0
M  V30 21791 H 2271.86 -2.83812 -0.953475 0
M  V30 21792 H 2269.41 -1.36549 -0.45722 0
M  V30 21793 H 2271.36 -2.52904 -3.37072 0
M  V30 21794 H 2270.08 -1.35167 -2.97317 0
M  V30 21795 H 2268.74 -3.16471 -1.85046 0
M  V30 21796 H 2268.39 -2.65347 -4.27317 0
M  V30 21797 H 2268.09 -4.37431 -3.92337 0
M  V30 21798 H 2269.62 -3.88052 -4.71432 0
M  V30 21799 H 2271.03 -5.02814 -2.75411 0
M  V30 21800 H 2269.43 -5.58594 -2.19301 0
M  V30 21801 H 2270.5 -4.72989 -1.06816 0
M  V30 21802 N 2271.84 0.489844 -1.49794 0
M  V30 21803 C 2273.25 1.07115 -1.52916 0
M  V30 21804 C 2273.6 1.93543 -0.321772 0
M  V30 21805 O 2272.73 2.08832 0.567302 0
M  V30 21806 C 2273.32 1.94934 -2.77103 0
M  V30 21807 C 2271.88 2.48207 -2.82967 0
M  V30 21808 C 2271.03 1.26092 -2.46974 0
M  V30 21809 H 2273.98 0.273262 -1.5633 0
M  V30 21810 H 2274 2.79766 -2.57897 0
M  V30 21811 H 2273.51 1.32003 -3.64962 0
M  V30 21812 H 2271.61 3.14744 -1.99416 0
M  V30 21813 H 2271.73 2.84596 -3.85411 0
M  V30 21814 H 2270.09 1.58972 -1.98997 0
M  V30 21815 H 2270.87 0.648522 -3.37119 0
M  V30 21816 N 2273.32 1.39056 0.741698 0
M  V30 21817 C 2274.54 1.39357 1.53605 0
M  V30 21818 C 2274.97 -0.0116574 1.88096 0
M  V30 21819 O 2274.33 -0.996898 1.51432 0
M  V30 21820 C 2274.37 2.26687 2.80438 0
M  V30 21821 O 2273.48 1.69215 3.76085 0
M  V30 21822 H 2272.82 0.474843 0.464134 0
M  V30 21823 H 2275.35 1.82968 0.915633 0
M  V30 21824 H 2275.36 2.40965 3.29241 0
M  V30 21825 H 2274.03 3.28814 2.54665 0
M  V30 21826 H 2272.61 1.64144 3.3483 0
M  V30 21827 N 2274.8 -0.971167 1.24121 0
M  V30 21828 C 2276.04 -1.7103 1.07671 0
M  V30 21829 C 2276.36 -1.91146 -0.385764 0
M  V30 21830 O 2275.63 -1.48673 -1.27567 0
M  V30 21831 H 2274.21 -0.633748 0.39544 0
M  V30 21832 H 2276.88 -1.16852 1.55986 0
M  V30 21833 H 2275.97 -2.69619 1.572 0
M  V30 21834 N 2276.27 -1.05441 -1.17133 0
M  V30 21835 C 2277.52 -0.765975 -1.87454 0
M  V30 21836 C 2277.85 0.707121 -1.81191 0
M  V30 21837 O 2277.1 1.53307 -1.21636 0
M  V30 21838 C 2277.4 -1.19497 -3.36831 0
M  V30 21839 C 2277.07 -2.6707 -3.63297 0
M  V30 21840 C 2275.73 -3.07382 -3.70229 0
M  V30 21841 C 2278.08 -3.6242 -3.74568 0
M  V30 21842 C 2275.41 -4.41903 -3.85926 0
M  V30 21843 C 2277.76 -4.96677 -3.91784 0
M  V30 21844 C 2276.43 -5.3664 -3.96956 0
M  V30 21845 H 2275.7 -0.28029 -0.685943 0
M  V30 21846 H 2278.34 -1.32194 -1.38553 0
M  V30 21847 H 2276.65 -0.558037 -3.87806 0
M  V30 21848 H 2278.35 -0.948961 -3.8961 0
M  V30 21849 H 2274.94 -2.34853 -3.58528 0
M  V30 21850 H 2279.12 -3.32413 -3.68531 0
M  V30 21851 H 2274.38 -4.72363 -3.88179 0
M  V30 21852 H 2278.55 -5.70451 -3.99448 0
M  V30 21853 H 2276.18 -6.40881 -4.08871 0
M  V30 21854 N 2277.75 1.33613 -0.835776 0
M  V30 21855 C 2279.16 1.80233 -0.487131 0
M  V30 21856 C 2279.51 1.69181 0.993597 0
M  V30 21857 O 2278.64 1.23927 1.77401 0
M  V30 21858 C 2279.23 3.27241 -0.877442 0
M  V30 21859 C 2277.79 3.71889 -0.580981 0
M  V30 21860 C 2276.94 2.55088 -1.08744 0
M  V30 21861 H 2279.89 1.21179 -1.02476 0
M  V30 21862 H 2279.91 3.80044 -0.186262 0
M  V30 21863 H 2279.42 3.35253 -1.95518 0
M  V30 21864 H 2277.53 3.69406 0.486817 0
M  V30 21865 H 2277.64 4.65485 -1.13405 0
M  V30 21866 H 2276 2.49574 -0.508436 0
M  V30 21867 H 2276.79 2.65864 -2.17189 0
M  V30 21868 N 2279.23 0.591922 1.46062 0
M  V30 21869 C 2280.46 0.0869299 2.06717 0
M  V30 21870 C 2280.87 -1.22201 1.43918 0
M  V30 21871 O 2280.23 -1.74087 0.547729 0
M  V30 21872 C 2280.28 -0.0758089 3.61421 0
M  V30 21873 O 2280 1.18133 4.21872 0
M  V30 21874 C 2281.5 -0.614083 4.39026 0
M  V30 21875 H 2278.72 0.0616635 0.668161 0
M  V30 21876 H 2281.27 0.815208 1.87549 0
M  V30 21877 H 2279.42 -0.754346 3.79985 0
M  V30 21878 H 2279.84 1.00101 5.14859 0
M  V30 21879 H 2281.31 -0.677097 5.47832 0
M  V30 21880 H 2281.79 -1.63305 4.07711 0
M  V30 21881 H 2282.39 0.029889 4.25289 0
M  V30 21882 N 2280.71 -1.54102 0.330204 0
M  V30 21883 C 2281.95 -2.00984 -0.27077 0
M  V30 21884 C 2282.29 -1.21791 -1.51263 0
M  V30 21885 O 2281.56 -0.301961 -1.92142 0
M  V30 21886 C 2281.85 -3.55095 -0.598277 0
M  V30 21887 C 2281.7 -4.45009 0.654752 0
M  V30 21888 C 2283.02 -4.16791 -1.41327 0
M  V30 21889 H 2280.14 -0.730597 -0.0969403 0
M  V30 21890 H 2282.78 -1.8464 0.448098 0
M  V30 21891 H 2280.93 -3.69153 -1.21071 0
M  V30 21892 H 2282.6 -4.42811 1.29292 0
M  V30 21893 H 2280.84 -4.14414 1.28232 0
M  V30 21894 H 2281.51 -5.50683 0.381041 0
M  V30 21895 H 2283.99 -4.06349 -0.895525 0
M  V30 21896 H 2282.87 -5.24721 -1.61118 0
M  V30 21897 H 2283.13 -3.70546 -2.4114 0
M  V30 21898 N 2282.19 -0.0585199 -1.57491 0
M  V30 21899 C 2283.41 0.626486 -1.97712 0
M  V30 21900 C 2283.84 1.63149 -0.93616 0
M  V30 21901 O 2283.19 1.81025 0.0997792 0
M  V30 21902 C 2283.24 1.28332 -3.36992 0
M  V30 21903 O 2282.35 2.39907 -3.35437 0
M  V30 21904 H 2281.69 0.162255 -0.643871 0
M  V30 21905 H 2284.22 -0.1291 -2.04192 0
M  V30 21906 H 2284.23 1.63328 -3.73882 0
M  V30 21907 H 2282.9 0.546816 -4.1229 0
M  V30 21908 H 2281.48 2.06803 -3.10301 0
M  V30 21909 N 2283.66 1.56128 0.21493 0
M  V30 21910 C 2284.59 1.95976 1.26947 0
M  V30 21911 C 2285.58 0.828894 1.48537 0
M  V30 21912 O 2286.76 1.09171 1.60609 0
M  V30 21913 C 2283.89 2.28218 2.6179 0
M  V30 21914 C 2282.84 3.43858 2.54845 0
M  V30 21915 C 2282.17 3.61722 3.93778 0
M  V30 21916 C 2283.47 4.78636 2.09057 0
M  V30 21917 H 2285.16 2.84314 0.93841 0
M  V30 21918 H 2282.71 1.36789 0.449972 0
M  V30 21919 H 2284.66 2.54688 3.35726 0
M  V30 21920 H 2283.39 1.36741 2.96596 0
M  V30 21921 H 2282.05 3.17447 1.83365 0
M  V30 21922 H 2281.69 2.6761 4.25904 0
M  V30 21923 H 2281.39 4.39505 3.90012 0
M  V30 21924 H 2282.92 3.90547 4.69367 0
M  V30 21925 H 2284.33 5.04267 2.72741 0
M  V30 21926 H 2282.73 5.59749 2.16336 0
M  V30 21927 H 2283.8 4.73549 1.04306 0
M  V30 21928 N 2285.14 -0.481893 1.50052 0
M  V30 21929 C 2286.39 -1.23658 1.60738 0
M  V30 21930 C 2286.72 -1.9184 0.30182 0
M  V30 21931 O 2286 -1.81621 -0.695993 0
M  V30 21932 C 2286.28 -2.28869 2.78013 0
M  V30 21933 C 2286.13 -1.65062 4.18419 0
M  V30 21934 C 2287.45 -3.30274 2.90873 0
M  V30 21935 H 2284.57 -0.448218 0.585038 0
M  V30 21936 H 2287.21 -0.531914 1.82403 0
M  V30 21937 H 2285.36 -2.88969 2.59672 0
M  V30 21938 H 2287.03 -1.08642 4.48324 0
M  V30 21939 H 2285.28 -0.954074 4.23178 0
M  V30 21940 H 2285.95 -2.41465 4.96385 0
M  V30 21941 H 2288.42 -2.80186 3.07628 0
M  V30 21942 H 2287.3 -4.01231 3.74573 0
M  V30 21943 H 2287.56 -3.93751 2.01028 0
M  V30 21944 N 2286.62 -1.39448 -0.734313 0
M  V30 21945 C 2287.9 -1.27217 -1.48577 0
M  V30 21946 C 2288.28 0.117931 -2.1077 0
M  V30 21947 O 2287.63 1.12921 -1.98648 0
M  V30 21948 C 2287.84 -2.397 -2.53663 0
M  V30 21949 C 2289.18 -2.7905 -3.20026 0
M  V30 21950 O 2290.21 -2.39155 -2.63976 0
M  V30 21951 O 2289.07 -3.47912 -4.21449 0
M  V30 21952 H 2286.16 -0.498582 -0.659807 0
M  V30 21953 H 2288.71 -1.51323 -0.76808 0
M  V30 21954 H 2287.48 -3.3263 -2.0609 0
M  V30 21955 H 2287.1 -2.17264 -3.3299 0
M  V30 21956 N 2288.1 0.964571 -1.24635 0
M  V30 21957 C 2289.32 1.74816 -1.11599 0
M  V30 21958 C 2289.75 1.85232 0.327197 0
M  V30 21959 O 2289.11 1.32552 1.23692 0
M  V30 21960 C 2289.15 3.14507 -1.76402 0
M  V30 21961 O 2288.26 3.99151 -1.03692 0
M  V30 21962 H 2287.6 0.537248 -0.390205 0
M  V30 21963 H 2290.13 1.20974 -1.65004 0
M  V30 21964 H 2290.14 3.65015 -1.82286 0
M  V30 21965 H 2288.81 3.06241 -2.81406 0
M  V30 21966 H 2287.39 3.5763 -1.05617 0
M  V30 21967 N 2289.58 1.0606 1.16572 0
M  V30 21968 C 2290.8 0.796585 1.90951 0
M  V30 21969 C 2291.22 -0.648777 1.77303 0
M  V30 21970 O 2290.58 -1.44395 1.11607 0
M  V30 21971 C 2290.63 1.179 3.41734 0
M  V30 21972 O 2290.35 2.56764 3.5497 0
M  V30 21973 C 2291.85 0.942384 4.33167 0
M  V30 21974 H 2289.07 0.28897 0.605589 0
M  V30 21975 H 2291.61 1.41361 1.47775 0
M  V30 21976 H 2289.77 0.606558 3.82622 0
M  V30 21977 H 2290.18 2.72008 4.48455 0
M  V30 21978 H 2291.66 1.25961 5.37436 0
M  V30 21979 H 2292.13 -0.122001 4.39031 0
M  V30 21980 H 2292.74 1.49909 3.98004 0
M  V30 21981 N 2291.06 -1.33168 0.84285 0
M  V30 21982 C 2291.99 -2.31641 0.294069 0
M  V30 21983 C 2292.97 -1.59153 -0.600373 0
M  V30 21984 O 2294.15 -1.87022 -0.523091 0
M  V30 21985 C 2291.28 -3.43257 -0.528355 0
M  V30 21986 C 2290.24 -4.27143 0.270635 0
M  V30 21987 C 2289.56 -5.30412 -0.675788 0
M  V30 21988 C 2290.86 -5.00599 1.4899 0
M  V30 21989 H 2292.56 -2.77789 1.11686 0
M  V30 21990 H 2290.1 -1.33552 0.538502 0
M  V30 21991 H 2292.05 -4.11176 -0.922602 0
M  V30 21992 H 2290.78 -2.95808 -1.38439 0
M  V30 21993 H 2289.44 -3.60855 0.646491 0
M  V30 21994 H 2289.09 -4.79219 -1.52834 0
M  V30 21995 H 2288.79 -5.8742 -0.145271 0
M  V30 21996 H 2290.31 -6.01197 -1.06746 0
M  V30 21997 H 2291.72 -5.61264 1.16859 0
M  V30 21998 H 2290.12 -5.67276 1.95749 0
M  V30 21999 H 2291.19 -4.29143 2.25753 0
M  V30 22000 N 2292.53 -0.599659 -1.45746 0
M  V30 22001 C 2293.78 -0.0918999 -2.02592 0
M  V30 22002 C 2294.11 1.27126 -1.46808 0
M  V30 22003 O 2293.39 1.8368 -0.63969 0
M  V30 22004 C 2293.67 -0.044403 -3.60073 0
M  V30 22005 C 2293.52 -1.43766 -4.26206 0
M  V30 22006 C 2294.84 0.647532 -4.3531 0
M  V30 22007 H 2291.96 -0.03487 -0.736175 0
M  V30 22008 H 2294.6 -0.770112 -1.73693 0
M  V30 22009 H 2292.75 0.533156 -3.84824 0
M  V30 22010 H 2294.43 -2.06169 -4.12665 0
M  V30 22011 H 2292.67 -2.00062 -3.84912 0
M  V30 22012 H 2293.34 -1.35674 -5.35067 0
M  V30 22013 H 2295.82 0.156703 -4.15805 0
M  V30 22014 H 2294.69 0.649846 -5.4504 0
M  V30 22015 H 2294.95 1.71212 -4.07601 0
M  V30 22016 N 2294.01 1.53925 -0.338371 0
M  V30 22017 C 2294.92 2.28549 0.52938 0
M  V30 22018 C 2295.94 1.33461 1.11642 0
M  V30 22019 O 2297.11 1.66494 1.13322 0
M  V30 22020 C 2294.18 3.03989 1.66707 0
M  V30 22021 C 2293.24 4.14693 1.11034 0
M  V30 22022 C 2292.47 4.86526 2.19381 0
M  V30 22023 O 2292.7 4.57988 3.40005 0
M  V30 22024 O 2291.63 5.73097 1.83966 0
M  V30 22025 H 2295.46 3.03602 -0.0770932 0
M  V30 22026 H 2293.04 1.4904 -0.103582 0
M  V30 22027 H 2294.92 3.51184 2.32912 0
M  V30 22028 H 2293.6 2.31798 2.25945 0
M  V30 22029 H 2292.5 3.71814 0.412958 0
M  V30 22030 H 2293.84 4.88971 0.562889 0
M  V30 22031 N 2295.49 0.0668712 1.57458 0
M  V30 22032 C 2296.74 -0.604266 1.93588 0
M  V30 22033 C 2297.07 -1.69559 0.946752 0
M  V30 22034 O 2296.34 -1.94484 -0.0248174 0
M  V30 22035 C 2296.63 -1.18579 3.40016 0
M  V30 22036 C 2296.48 -0.10145 4.49686 0
M  V30 22037 C 2297.8 -2.09277 3.87158 0
M  V30 22038 H 2294.92 -0.21819 0.703962 0
M  V30 22039 H 2297.56 0.131837 1.89542 0
M  V30 22040 H 2295.71 -1.81313 3.43595 0
M  V30 22041 H 2297.38 0.53136 4.58229 0
M  V30 22042 H 2295.62 0.568562 4.30058 0
M  V30 22043 H 2296.3 -0.548643 5.49267 0
M  V30 22044 H 2298.77 -1.56485 3.85554 0
M  V30 22045 H 2297.65 -2.46903 4.90235 0
M  V30 22046 H 2297.91 -2.99912 3.24816 0
M  V30 22047 N 2296.97 -1.56239 -0.206647 0
M  V30 22048 C 2298.21 -1.80209 -0.930186 0
M  V30 22049 C 2298.55 -0.639013 -1.83386 0
M  V30 22050 O 2297.82 0.361032 -1.9112 0
M  V30 22051 C 2298.1 -3.14363 -1.75635 0
M  V30 22052 C 2297.96 -4.41144 -0.87818 0
M  V30 22053 C 2299.28 -3.45097 -2.73123 0
M  V30 22054 H 2296.4 -0.655577 -0.336731 0
M  V30 22055 H 2299.04 -1.88964 -0.198189 0
M  V30 22056 H 2297.19 -3.07031 -2.38042 0
M  V30 22057 H 2298.86 -4.60511 -0.269706 0
M  V30 22058 H 2297.1 -4.33408 -0.184309 0
M  V30 22059 H 2297.77 -5.31483 -1.49097 0
M  V30 22060 H 2300.25 -3.52653 -2.2085 0
M  V30 22061 H 2299.13 -4.40106 -3.28021 0
M  V30 22062 H 2299.39 -2.68009 -3.51602 0
M  V30 22063 N 2298.45 0.473929 -1.50305 0
M  V30 22064 C 2299.67 1.24957 -1.64904 0
M  V30 22065 C 2300.09 1.85872 -0.331231 0
M  V30 22066 O 2299.45 1.69096 0.68649 0
M  V30 22067 C 2299.5 2.36033 -2.73807 0
M  V30 22068 O 2299.22 1.77617 -4.0048 0
M  V30 22069 C 2300.72 3.26958 -2.99354 0
M  V30 22070 H 2297.94 0.378013 -0.554389 0
M  V30 22071 H 2300.48 0.566019 -1.96511 0
M  V30 22072 H 2298.64 3.00169 -2.44903 0
M  V30 22073 H 2299.05 2.50742 -4.60683 0
M  V30 22074 H 2300.53 4.01115 -3.79224 0
M  V30 22075 H 2301 3.8557 -2.10314 0
M  V30 22076 H 2301.61 2.68563 -3.29779 0
M  V30 22077 N 2299.92 1.39835 0.726907 0
M  V30 22078 C 2300.89 1.38966 1.82267 0
M  V30 22079 C 2301.89 0.285362 1.58248 0
M  V30 22080 O 2303.08 0.543689 1.65498 0
M  V30 22081 C 2300.21 1.17025 3.20184 0
M  V30 22082 H 2301.4 2.36479 1.84439 0
M  V30 22083 H 2298.95 1.25518 0.931393 0
M  V30 22084 H 2299.69 0.202261 3.23669 0
M  V30 22085 H 2299.47 1.97003 3.39016 0
M  V30 22086 H 2300.96 1.19177 4.00233 0
M  V30 22087 N 2301.4 -0.957948 1.25144 0
M  V30 22088 C 2302.63 -1.74221 1.12524 0
M  V30 22089 C 2303.05 -1.85403 -0.317369 0
M  V30 22090 O 2302.41 -1.33206 -1.22988 0
M  V30 22091 C 2302.46 -3.13567 1.78068 0
M  V30 22092 O 2301.56 -3.98596 1.05807 0
M  V30 22093 H 2300.9 -0.535171 0.393049 0
M  V30 22094 H 2303.43 -1.20097 1.65644 0
M  V30 22095 H 2303.44 -3.64043 1.84219 0
M  V30 22096 H 2302.12 -3.04744 2.83026 0
M  V30 22097 H 2300.69 -3.57065 1.07512 0
M  V30 22098 N 2302.88 -1.06677 -1.16008 0
M  V30 22099 C 2304.11 -0.806701 -1.90525 0
M  V30 22100 C 2304.52 0.639365 -1.77644 0
M  V30 22101 O 2303.88 1.43802 -1.12372 0
M  V30 22102 C 2303.93 -1.19711 -3.41104 0
M  V30 22103 O 2303.65 -2.58643 -3.53604 0
M  V30 22104 C 2305.15 -0.965343 -4.32662 0
M  V30 22105 H 2302.37 -0.292177 -0.604048 0
M  V30 22106 H 2304.92 -1.42142 -1.47023 0
M  V30 22107 H 2303.07 -0.626841 -3.82295 0
M  V30 22108 H 2303.49 -2.74383 -4.47006 0
M  V30 22109 H 2304.96 -1.28809 -5.36761 0
M  V30 22110 H 2305.44 0.0987165 -4.39089 0
M  V30 22111 H 2306.04 -1.52018 -3.97204 0
M  V30 22112 N 2304.36 1.32719 -0.8499 0
M  V30 22113 C 2305.32 2.27279 -0.296162 0
M  V30 22114 C 2306.32 1.51411 0.541432 0
M  V30 22115 O 2307.51 1.70573 0.353628 0
M  V30 22116 C 2304.64 3.35903 0.58152 0
M  V30 22117 H 2305.84 2.77769 -1.13069 0
M  V30 22118 H 2303.39 1.4331 -0.623855 0
M  V30 22119 H 2304.12 2.90673 1.43804 0
M  V30 22120 H 2303.91 3.92096 -0.0179503 0
M  V30 22121 H 2305.4 4.06371 0.961879 0
M  V30 22122 N 2305.84 0.60738 1.45426 0
M  V30 22123 C 2307.06 0.107042 2.07124 0
M  V30 22124 C 2307.49 -1.19931 1.44908 0
M  V30 22125 O 2306.84 -1.73018 0.541717 0
M  V30 22126 C 2306.89 -0.0193485 3.60595 0
M  V30 22127 O 2306 -1.06963 3.98287 0
M  V30 22128 H 2305.34 0.0739713 0.659867 0
M  V30 22129 H 2307.87 0.83733 1.86681 0
M  V30 22130 H 2307.88 -0.217629 4.07419 0
M  V30 22131 H 2306.55 0.934524 4.05265 0
M  V30 22132 H 2305.13 -0.847825 3.63134 0
M  V30 22133 N 2307.31 -1.53743 0.34653 0
M  V30 22134 C 2308.22 -2.28827 -0.517252 0
M  V30 22135 C 2309.24 -1.34052 -1.10933 0
M  V30 22136 O 2310.42 -1.67092 -1.12437 0
M  V30 22137 C 2307.48 -3.04869 -1.65093 0
M  V30 22138 C 2306.54 -4.15276 -1.08833 0
M  V30 22139 C 2305.78 -4.87683 -2.16798 0
M  V30 22140 O 2306 -4.59784 -3.37572 0
M  V30 22141 O 2304.93 -5.74065 -1.80924 0
M  V30 22142 H 2308.76 -3.03557 0.0931929 0
M  V30 22143 H 2306.34 -1.48983 0.111484 0
M  V30 22144 H 2308.23 -3.52414 -2.31046 0
M  V30 22145 H 2306.9 -2.32993 -2.24713 0
M  V30 22146 H 2305.81 -3.72028 -0.393234 0
M  V30 22147 H 2307.14 -4.89262 -0.53695 0
M  V30 22148 N 2308.79 -0.0752207 -1.5742 0
M  V30 22149 C 2309.72 0.888286 -2.15944 0
M  V30 22150 C 2310.7 1.30804 -1.08739 0
M  V30 22151 O 2311.89 1.37848 -1.3679 0
M  V30 22152 C 2309.02 2.15465 -2.72382 0
M  V30 22153 C 2307.97 1.87418 -3.84784 0
M  V30 22154 C 2307.3 3.20714 -4.2784 0
M  V30 22155 C 2308.6 1.17675 -5.08871 0
M  V30 22156 H 2310.29 0.400747 -2.96706 0
M  V30 22157 H 2307.84 0.191317 -1.42723 0
M  V30 22158 H 2309.79 2.83289 -3.1197 0
M  V30 22159 H 2308.52 2.66467 -1.88846 0
M  V30 22160 H 2307.17 1.21998 -3.45705 0
M  V30 22161 H 2306.82 3.69564 -3.41221 0
M  V30 22162 H 2306.52 3.02738 -5.03611 0
M  V30 22163 H 2308.05 3.8973 -4.70046 0
M  V30 22164 H 2309.46 1.75574 -5.45753 0
M  V30 22165 H 2307.86 1.09946 -5.89942 0
M  V30 22166 H 2308.93 0.156368 -4.84648 0
M  V30 22167 N 2310.27 1.56347 0.198358 0
M  V30 22168 C 2311.18 1.97485 1.26637 0
M  V30 22169 C 2312.2 0.882028 1.49988 0
M  V30 22170 O 2313.37 1.18751 1.62666 0
M  V30 22171 C 2310.44 2.30324 2.59137 0
M  V30 22172 C 2309.5 3.53296 2.43886 0
M  V30 22173 C 2308.73 3.84559 3.70067 0
M  V30 22174 O 2308.95 3.17159 4.74096 0
M  V30 22175 O 2307.89 4.77996 3.65792 0
M  V30 22176 H 2311.71 2.88549 0.947253 0
M  V30 22177 H 2309.3 1.43859 0.403098 0
M  V30 22178 H 2311.18 2.52536 3.37348 0
M  V30 22179 H 2309.86 1.42428 2.90682 0
M  V30 22180 H 2308.76 3.36335 1.63797 0
M  V30 22181 H 2310.1 4.41648 2.17274 0
M  V30 22182 N 2311.75 -0.465951 1.50554 0
M  V30 22183 C 2313 -1.21525 1.61481 0
M  V30 22184 C 2313.32 -1.92363 0.31963 0
M  V30 22185 O 2312.59 -1.84334 -0.663161 0
M  V30 22186 H 2311.17 -0.451563 0.595063 0
M  V30 22187 H 2313.83 -0.537007 1.87356 0
M  V30 22188 H 2312.93 -1.96038 2.42849 0
M  V30 22189 N 2313.23 -1.40218 -0.719481 0
M  V30 22190 C 2314.64 -1.22163 -1.02705 0
M  V30 22191 C 2314.84 -0.094091 -2.0128 0
M  V30 22192 O 2313.9 0.549274 -2.46453 0
M  V30 22193 C 2315.21 -2.56184 -1.5745 0
M  V30 22194 C 2316.76 -2.63162 -1.69454 0
M  V30 22195 C 2317.23 -3.97442 -2.27605 0
M  V30 22196 N 2318.73 -3.99163 -2.34995 0
M  V30 22197 C 2319.46 -4.99847 -2.80963 0
M  V30 22198 N 2318.96 -6.10926 -3.26712 0
M  V30 22199 N 2320.75 -4.87218 -2.80312 0
M  V30 22200 H 2312.9 -2.12297 -0.0660118 0
M  V30 22201 H 2315.16 -0.943536 -0.0918912 0
M  V30 22202 H 2314.87 -3.39323 -0.924814 0
M  V30 22203 H 2314.74 -2.76998 -2.56031 0
M  V30 22204 H 2317.13 -1.80397 -2.3354 0
M  V30 22205 H 2317.21 -2.46183 -0.694824 0
M  V30 22206 H 2316.86 -4.80645 -1.64141 0
M  V30 22207 H 2316.79 -4.1175 -3.28283 0
M  V30 22208 H 2319.28 -3.18951 -2.0268 0
M  V30 22209 H 2319.59 -6.83647 -3.60343 0
M  V30 22210 H 2317.93 -6.14497 -3.24681 0
M  V30 22211 H 2321.13 -3.99535 -2.43905 0
M  V30 22212 H 2321.3 -5.65828 -3.15821 0
M  V30 22213 N 2314.7 0.951297 -1.25651 0
M  V30 22214 C 2315.95 1.69296 -1.10378 0
M  V30 22215 C 2316.27 1.91736 0.355305 0
M  V30 22216 O 2315.54 1.50683 1.25185 0
M  V30 22217 H 2314.12 0.627376 -0.405472 0
M  V30 22218 H 2316.79 1.14356 -1.57825 0
M  V30 22219 H 2315.88 2.67084 -1.6147 0
M  V30 22220 N 2316.18 1.07291 1.1544 0
M  V30 22221 C 2317.41 0.816793 1.90095 0
M  V30 22222 C 2317.83 -0.629935 1.77981 0
M  V30 22223 O 2317.18 -1.43204 1.13133 0
M  V30 22224 C 2317.23 1.21518 3.40464 0
M  V30 22225 O 2316.95 2.60514 3.52227 0
M  V30 22226 C 2318.46 0.988274 4.32144 0
M  V30 22227 H 2315.68 0.295376 0.60249 0
M  V30 22228 H 2318.22 1.4292 1.46267 0
M  V30 22229 H 2316.37 0.647106 3.81957 0
M  V30 22230 H 2316.79 2.76749 4.45545 0
M  V30 22231 H 2318.26 1.31654 5.3607 0
M  V30 22232 H 2318.74 -0.0754291 4.39135 0
M  V30 22233 H 2319.35 1.54122 3.96392 0
M  V30 22234 N 2317.66 -1.32267 0.856927 0
M  V30 22235 C 2318.91 -1.9644 0.457633 0
M  V30 22236 C 2319.22 -1.68555 -0.992397 0
M  V30 22237 O 2320.43 -2.26485 -1.49723 0
M  V30 22238 C 2318.88 -3.51623 0.76742 0
M  V30 22239 C 2318.49 -3.88364 2.23333 0
M  V30 22240 C 2320.24 -4.22255 0.435961 0
M  V30 22241 C 2318.14 -5.36601 2.48622 0
M  V30 22242 H 2317.07 -0.735182 0.1674 0
M  V30 22243 H 2319.72 -1.50628 1.04802 0
M  V30 22244 H 2318.11 -3.95857 0.106437 0
M  V30 22245 H 2319.28 -3.55132 2.93629 0
M  V30 22246 H 2317.6 -3.30762 2.52954 0
M  V30 22247 H 2320.19 -5.31297 0.602295 0
M  V30 22248 H 2320.54 -4.11618 -0.6226 0
M  V30 22249 H 2321.07 -3.83612 1.05293 0
M  V30 22250 H 2317.81 -5.52261 3.53111 0
M  V30 22251 H 2317.33 -5.71231 1.82906 0
M  V30 22252 H 2319.01 -6.0371 2.32687 0
M  V30 22253 N 2319.14 -0.615084 -1.45102 0
M  V30 22254 C 2320.39 -0.112991 -2.01784 0
M  V30 22255 C 2320.71 1.26376 -1.48506 0
M  V30 22256 O 2319.98 1.83635 -0.682277 0
M  V30 22257 H 2318.56 -0.0387799 -0.745993 0
M  V30 22258 H 2321.22 -0.798172 -1.77807 0
M  V30 22259 H 2320.32 -0.0684618 -3.12025 0
M  V30 22260 N 2320.62 1.53557 -0.354678 0
M  V30 22261 C 2321.87 2.00273 0.239469 0
M  V30 22262 C 2322.18 1.24626 1.50757 0
M  V30 22263 O 2323.39 1.61875 2.17965 0
M  V30 22264 C 2321.84 3.56721 0.477279 0
M  V30 22265 C 2321.45 4.41236 -0.775566 0
M  V30 22266 C 2323.19 4.11823 1.02968 0
M  V30 22267 C 2321.1 5.89215 -0.507942 0
M  V30 22268 H 2320.03 0.74821 0.0932611 0
M  V30 22269 H 2322.68 1.77333 -0.471732 0
M  V30 22270 H 2321.06 3.75772 1.24946 0
M  V30 22271 H 2322.24 4.33959 -1.54971 0
M  V30 22272 H 2320.55 3.97183 -1.2504 0
M  V30 22273 H 2323.15 5.20003 1.24504 0
M  V30 22274 H 2323.49 3.65735 1.98856 0
M  V30 22275 H 2324.03 3.96528 0.317925 0
M  V30 22276 H 2320.76 6.39558 -1.43685 0
M  V30 22277 H 2320.28 5.99367 0.227906 0
M  V30 22278 H 2321.96 6.46871 -0.129352 0
M  V30 22279 N 2322.1 0.083568 1.57378 0
M  V30 22280 C 2323.32 -0.594952 1.98683 0
M  V30 22281 C 2323.75 -1.61639 0.961997 0
M  V30 22282 O 2323.1 -1.81161 -0.070967 0
M  V30 22283 C 2323.15 -1.22954 3.38991 0
M  V30 22284 O 2322.26 -2.3454 3.39212 0
M  V30 22285 H 2321.6 -0.151991 0.64637 0
M  V30 22286 H 2324.13 0.161568 2.03961 0
M  V30 22287 H 2324.14 -1.57359 3.76433 0
M  V30 22288 H 2322.81 -0.481155 4.13107 0
M  V30 22289 H 2321.39 -2.01841 3.13552 0
M  V30 22290 N 2323.57 -1.5645 -0.190064 0
M  V30 22291 C 2324.82 -1.8056 -0.907876 0
M  V30 22292 C 2325.14 -0.65747 -1.83582 0
M  V30 22293 O 2324.41 0.32389 -1.93204 0
M  V30 22294 H 2322.99 -0.666038 -0.338235 0
M  V30 22295 H 2325.65 -1.93928 -0.194369 0
M  V30 22296 H 2324.75 -2.73909 -1.496 0
M  V30 22297 N 2325.05 0.45796 -1.50799 0
M  V30 22298 C 2326.01 1.53671 -1.70053 0
M  V30 22299 C 2327.01 1.50324 -0.570908 0
M  V30 22300 O 2328.2 1.52711 -0.838153 0
M  V30 22301 C 2325.34 2.93273 -1.73793 0
M  V30 22302 H 2326.53 1.37912 -2.66309 0
M  V30 22303 H 2324.08 0.685246 -1.40478 0
M  V30 22304 H 2324.82 3.14461 -0.792773 0
M  V30 22305 H 2324.6 2.97108 -2.55869 0
M  V30 22306 H 2326.09 3.71567 -1.90598 0
M  V30 22307 N 2326.53 1.40598 0.712035 0
M  V30 22308 C 2327.78 1.38793 1.46904 0
M  V30 22309 C 2328.1 -0.00776963 1.94998 0
M  V30 22310 O 2327.37 -0.963144 1.70588 0
M  V30 22311 H 2325.95 0.51083 0.545034 0
M  V30 22312 H 2328.61 1.75685 0.843851 0
M  V30 22313 H 2327.71 2.06501 2.34017 0
M  V30 22314 N 2328.01 -0.94462 1.26153 0
M  V30 22315 C 2328.92 -2.07646 1.0918 0
M  V30 22316 C 2329.93 -1.7398 0.0262241 0
M  V30 22317 O 2331.11 -2.00091 0.229243 0
M  V30 22318 C 2328.17 -3.39078 0.722974 0
M  V30 22319 C 2327.24 -3.86549 1.86758 0
M  V30 22320 C 2326.47 -5.11708 1.51626 0
M  V30 22321 O 2326.69 -5.68878 0.416431 0
M  V30 22322 O 2325.63 -5.54135 2.34985 0
M  V30 22323 H 2329.45 -2.24872 2.04124 0
M  V30 22324 H 2327.04 -1.06098 1.05184 0
M  V30 22325 H 2328.92 -4.18056 0.529861 0
M  V30 22326 H 2327.59 -3.23099 -0.197102 0
M  V30 22327 H 2326.5 -3.08531 2.11564 0
M  V30 22328 H 2327.83 -4.07042 2.76726 0
M  V30 22329 N 2329.49 -1.07901 -1.1487 0
M  V30 22330 C 2330.73 -0.800531 -1.85133 0
M  V30 22331 C 2331.05 0.675982 -1.83548 0
M  V30 22332 O 2332.25 1.06944 -2.4955 0
M  V30 22333 C 2330.71 -1.38203 -3.32307 0
M  V30 22334 C 2330.32 -2.88996 -3.42323 0
M  V30 22335 C 2332.06 -1.18181 -4.07717 0
M  V30 22336 C 2329.97 -3.40309 -4.83678 0
M  V30 22337 H 2328.9 -0.295792 -0.693558 0
M  V30 22338 H 2331.55 -1.29978 -1.29529 0
M  V30 22339 H 2329.93 -0.8105 -3.87617 0
M  V30 22340 H 2331.11 -3.52241 -2.97091 0
M  V30 22341 H 2329.42 -3.07872 -2.80364 0
M  V30 22342 H 2332.02 -1.53989 -5.12046 0
M  V30 22343 H 2332.36 -0.121244 -4.16123 0
M  V30 22344 H 2332.89 -1.72 -3.58693 0
M  V30 22345 H 2329.63 -4.45916 -4.80458 0
M  V30 22346 H 2329.15 -2.8182 -5.29469 0
M  V30 22347 H 2330.83 -3.36593 -5.52552 0
M  V30 22348 N 2330.96 1.31811 -0.863929 0
M  V30 22349 C 2332.19 2.01642 -0.485305 0
M  V30 22350 C 2332.61 1.64455 0.913029 0
M  V30 22351 O 2331.97 0.850013 1.60139 0
M  V30 22352 C 2332.02 3.54827 -0.642687 0
M  V30 22353 O 2331.12 4.11152 0.320587 0
M  V30 22354 H 2330.46 0.635087 -0.193804 0
M  V30 22355 H 2332.99 1.68146 -1.16568 0
M  V30 22356 H 2333 4.04494 -0.533699 0
M  V30 22357 H 2331.68 3.81234 -1.66233 0
M  V30 22358 H 2330.26 3.72526 0.167061 0
M  V30 22359 N 2332.44 0.62277 1.44773 0
M  V30 22360 C 2333.69 0.12369 2.01721 0
M  V30 22361 C 2334.01 -1.25587 1.49174 0
M  V30 22362 O 2333.28 -1.83271 0.692006 0
M  V30 22363 H 2331.86 0.0427356 0.745777 0
M  V30 22364 H 2334.52 0.80759 1.77381 0
M  V30 22365 H 2333.62 0.0850082 3.11984 0
M  V30 22366 N 2333.92 -1.53367 0.362817 0
M  V30 22367 C 2334.85 -2.28577 -0.476936 0
M  V30 22368 C 2335.83 -1.30896 -1.08629 0
M  V30 22369 O 2337.02 -1.59763 -1.10406 0
M  V30 22370 C 2334.15 -3.07296 -1.61823 0
M  V30 22371 C 2333.1 -4.12642 -1.13626 0
M  V30 22372 C 2332.43 -4.79427 -2.36757 0
M  V30 22373 C 2333.73 -5.21824 -0.222969 0
M  V30 22374 H 2335.42 -2.99021 0.150526 0
M  V30 22375 H 2332.97 -1.43811 0.0738356 0
M  V30 22376 H 2334.92 -3.58657 -2.21231 0
M  V30 22377 H 2333.64 -2.34537 -2.27288 0
M  V30 22378 H 2332.3 -3.62222 -0.564881 0
M  V30 22379 H 2331.95 -4.03243 -3.00673 0
M  V30 22380 H 2331.65 -5.50612 -2.05182 0
M  V30 22381 H 2333.17 -5.33581 -2.96856 0
M  V30 22382 H 2334.59 -5.68704 -0.724445 0
M  V30 22383 H 2332.98 -6.001 0.00178349 0
M  V30 22384 H 2334.05 -4.79287 0.735638 0
M  V30 22385 N 2335.4 -0.091913 -1.57332 0
M  V30 22386 C 2336.81 0.437707 -1.81497 0
M  V30 22387 C 2337.16 1.68368 -1.0073 0
M  V30 22388 O 2336.29 2.15112 -0.235732 0
M  V30 22389 C 2336.88 0.800881 -3.29198 0
M  V30 22390 C 2335.44 1.27526 -3.54138 0
M  V30 22391 C 2334.59 0.270344 -2.75979 0
M  V30 22392 H 2337.54 -0.317393 -1.55494 0
M  V30 22393 H 2337.56 1.66068 -3.42347 0
M  V30 22394 H 2337.07 -0.106146 -3.87955 0
M  V30 22395 H 2335.17 2.20011 -3.00709 0
M  V30 22396 H 2335.28 1.23929 -4.62794 0
M  V30 22397 H 2333.65 0.75183 -2.43351 0
M  V30 22398 H 2334.43 -0.629307 -3.37483 0
M  V30 22399 N 2336.88 1.56548 0.181765 0
M  V30 22400 C 2338.1 1.85879 0.919987 0
M  V30 22401 C 2338.53 0.677052 1.75493 0
M  V30 22402 O 2337.88 -0.374025 1.774 0
M  V30 22403 C 2337.93 3.13545 1.78107 0
M  V30 22404 O 2337.04 2.95034 2.88147 0
M  V30 22405 H 2336.38 0.61169 0.258323 0
M  V30 22406 H 2338.91 2.03779 0.183056 0
M  V30 22407 H 2338.92 3.44682 2.18308 0
M  V30 22408 H 2337.59 3.99171 1.1677 0
M  V30 22409 H 2336.17 2.75226 2.51604 0
M  V30 22410 N 2338.35 -0.449957 1.5104 0
M  V30 22411 C 2339.58 -1.2278 1.67152 0
M  V30 22412 C 2340 -1.84562 0.363114 0
M  V30 22413 O 2339.36 -1.6825 -0.675403 0
M  V30 22414 C 2339.41 -2.29684 2.77989 0
M  V30 22415 O 2338.51 -3.3486 2.40713 0
M  V30 22416 H 2337.86 -0.360289 0.557753 0
M  V30 22417 H 2340.39 -0.532971 1.97536 0
M  V30 22418 H 2340.4 -2.74667 3.01698 0
M  V30 22419 H 2339.07 -1.84091 3.72939 0
M  V30 22420 H 2337.65 -2.95441 2.27529 0
M  V30 22421 N 2339.83 -1.40974 -0.704569 0
M  V30 22422 C 2340.74 -1.44452 -1.84854 0
M  V30 22423 C 2341.76 -0.335991 -1.70725 0
M  V30 22424 O 2342.93 -0.58231 -1.92798 0
M  V30 22425 C 2340 -1.31593 -3.20756 0
M  V30 22426 C 2339.06 -2.52683 -3.47058 0
M  V30 22427 C 2338.29 -2.40429 -4.76476 0
M  V30 22428 O 2338.52 -1.424 -5.52339 0
M  V30 22429 O 2337.45 -3.30016 -5.03362 0
M  V30 22430 H 2341.28 -2.40945 -1.84876 0
M  V30 22431 H 2338.86 -1.22415 -0.856449 0
M  V30 22432 H 2340.74 -1.26672 -4.01911 0
M  V30 22433 H 2339.42 -0.382105 -3.21437 0
M  V30 22434 H 2338.33 -2.63182 -2.65869 0
M  V30 22435 H 2339.66 -3.44864 -3.51184 0
M  V30 22436 N 2341.31 0.937917 -1.26653 0
M  V30 22437 C 2342.24 2.05431 -1.10997 0
M  V30 22438 C 2343.22 1.70094 -0.014246 0
M  V30 22439 O 2344.41 1.93299 -0.186871 0
M  V30 22440 C 2341.54 3.39202 -0.745621 0
M  V30 22441 C 2340.49 3.88612 -1.79344 0
M  V30 22442 C 2339.82 5.19071 -1.28333 0
M  V30 22443 C 2341.12 4.13133 -3.1956 0
M  V30 22444 H 2342.81 2.18787 -2.04384 0
M  V30 22445 H 2340.36 1.0513 -0.98406 0
M  V30 22446 H 2342.31 4.1677 -0.622961 0
M  V30 22447 H 2341.03 3.25831 0.223953 0
M  V30 22448 H 2339.69 3.13228 -1.90483 0
M  V30 22449 H 2339.34 5.02084 -0.303503 0
M  V30 22450 H 2339.04 5.531 -1.98379 0
M  V30 22451 H 2340.56 5.99219 -1.1734 0
M  V30 22452 H 2341.98 4.81304 -3.1148 0
M  V30 22453 H 2340.38 4.5845 -3.87226 0
M  V30 22454 H 2341.45 3.18794 -3.65374 0
M  V30 22455 N 2342.79 1.08509 1.14296 0
M  V30 22456 C 2344.07 0.72812 1.81543 0
M  V30 22457 C 2344.45 -0.788046 1.95839 0
M  V30 22458 O 2343.79 -1.70694 1.51907 0
M  V30 22459 C 2344 1.45625 3.17166 0
M  V30 22460 C 2345.35 1.61597 3.92647 0
M  V30 22461 O 2346.38 1.41799 3.26759 0
M  V30 22462 O 2345.23 1.94272 5.10804 0
M  V30 22463 H 2342.33 0.260485 0.784905 0
M  V30 22464 H 2344.87 1.18673 1.21305 0
M  V30 22465 H 2343.65 2.48905 3.0193 0
M  V30 22466 H 2343.27 0.989192 3.85098 0
M  V30 22467 N 2344.27 -1.31351 0.870907 0
M  V30 22468 C 2345.52 -1.95943 0.478443 0
M  V30 22469 C 2345.83 -1.69598 -0.974463 0
M  V30 22470 O 2347.03 -2.2806 -1.47312 0
M  V30 22471 C 2345.49 -3.50789 0.804671 0
M  V30 22472 C 2345.1 -3.85973 2.2744 0
M  V30 22473 C 2346.84 -4.21769 0.480722 0
M  V30 22474 C 2344.75 -5.33934 2.54299 0
M  V30 22475 H 2343.68 -0.733366 0.175188 0
M  V30 22476 H 2346.33 -1.49508 1.06394 0
M  V30 22477 H 2344.71 -3.95722 0.148417 0
M  V30 22478 H 2345.89 -3.51997 2.9738 0
M  V30 22479 H 2344.2 -3.2806 2.56448 0
M  V30 22480 H 2346.8 -5.30628 0.658612 0
M  V30 22481 H 2347.14 -4.12255 -0.578907 0
M  V30 22482 H 2347.67 -3.82474 1.09356 0
M  V30 22483 H 2344.41 -5.48485 3.58949 0
M  V30 22484 H 2343.93 -5.69259 1.88955 0
M  V30 22485 H 2345.61 -6.01208 2.39077 0
M  V30 22486 N 2345.74 -0.630439 -1.44441 0
M  V30 22487 C 2346.97 -0.13998 -2.06927 0
M  V30 22488 C 2347.39 1.1761 -1.46797 0
M  V30 22489 O 2346.75 1.72134 -0.569174 0
M  V30 22490 C 2346.8 -0.0380215 -3.6058 0
M  V30 22491 O 2345.9 1.00613 -3.99939 0
M  V30 22492 H 2345.25 -0.0844599 -0.658607 0
M  V30 22493 H 2347.78 -0.866923 -1.85326 0
M  V30 22494 H 2347.79 0.152784 -4.07714 0
M  V30 22495 H 2346.46 -0.99888 -4.03727 0
M  V30 22496 H 2345.04 0.789946 -3.64437 0
M  V30 22497 N 2347.22 1.53172 -0.370945 0
M  V30 22498 C 2348.47 2.00936 0.216637 0
M  V30 22499 C 2348.79 1.2598 1.48843 0
M  V30 22500 O 2348.06 0.374584 1.92285 0
M  V30 22501 H 2346.64 0.74237 0.0830434 0
M  V30 22502 H 2349.3 1.88419 -0.498413 0
M  V30 22503 H 2348.4 3.08985 0.439839 0
M  V30 22504 N 2348.7 0.100255 1.57281 0
M  V30 22505 C 2350.12 -0.256388 1.57527 0
M  V30 22506 C 2350.32 -1.68054 1.11176 0
M  V30 22507 O 2349.37 -2.39805 0.790572 0
M  V30 22508 C 2350.69 -0.0401218 3.00673 0
M  V30 22509 C 2352.23 -0.107473 3.12815 0
M  V30 22510 C 2352.71 0.0808639 4.57929 0
M  V30 22511 N 2354.2 0.0262021 4.63193 0
M  V30 22512 C 2354.93 0.1471 5.73211 0
M  V30 22513 N 2354.43 0.323121 6.92046 0
M  V30 22514 N 2356.22 0.0880032 5.62031 0
M  V30 22515 H 2348.37 1.03069 1.85717 0
M  V30 22516 H 2350.64 0.404354 0.857439 0
M  V30 22517 H 2350.34 0.943709 3.38802 0
M  V30 22518 H 2350.22 -0.780198 3.69043 0
M  V30 22519 H 2352.6 -1.08181 2.74556 0
M  V30 22520 H 2352.69 0.664177 2.47027 0
M  V30 22521 H 2352.33 1.05209 4.96884 0
M  V30 22522 H 2352.26 -0.710543 5.21784 0
M  V30 22523 H 2354.75 -0.107095 3.77748 0
M  V30 22524 H 2355.06 0.406744 7.71729 0
M  V30 22525 H 2353.41 0.358855 6.94073 0
M  V30 22526 H 2356.6 -0.0484157 4.68075 0
M  V30 22527 H 2356.77 0.185671 6.47734 0
M  V30 22528 N 2350.18 -1.56643 -0.17346 0
M  V30 22529 C 2351.14 -1.95364 -1.19856 0
M  V30 22530 C 2352.14 -0.837064 -1.37295 0
M  V30 22531 O 2353.33 -1.10415 -1.34737 0
M  V30 22532 C 2350.46 -2.24658 -2.56401 0
M  V30 22533 H 2351.66 -2.87094 -0.867012 0
M  V30 22534 H 2349.21 -1.50667 -0.415827 0
M  V30 22535 H 2349.95 -1.35636 -2.94573 0
M  V30 22536 H 2349.73 -3.06045 -2.4511 0
M  V30 22537 H 2351.22 -2.55546 -3.30282 0
M  V30 22538 N 2351.66 0.44194 -1.51277 0
M  V30 22539 C 2352.88 1.21892 -1.67801 0
M  V30 22540 C 2353.31 1.84367 -0.372896 0
M  V30 22541 O 2352.67 1.68606 0.666471 0
M  V30 22542 C 2352.71 2.28206 -2.79203 0
M  V30 22543 O 2351.82 3.33579 -2.42485 0
M  V30 22544 H 2351.16 0.357326 -0.559655 0
M  V30 22545 H 2353.69 0.522487 -1.97816 0
M  V30 22546 H 2353.7 2.73064 -3.03151 0
M  V30 22547 H 2352.37 1.82111 -3.7391 0
M  V30 22548 H 2350.95 2.9423 -2.29092 0
M  V30 22549 N 2353.14 1.41345 0.697083 0
M  V30 22550 C 2354.38 1.40344 1.45424 0
M  V30 22551 C 2354.7 0.012913 1.94996 0
M  V30 22552 O 2353.97 -0.944996 1.716 0
M  V30 22553 H 2352.55 0.516582 0.539585 0
M  V30 22554 H 2355.22 1.7657 0.82517 0
M  V30 22555 H 2354.31 2.08971 2.31814 0
M  V30 22556 N 2354.61 -0.931187 1.27148 0
M  V30 22557 C 2355.54 -2.0484 1.12085 0
M  V30 22558 C 2356.52 -1.70084 0.0232663 0
M  V30 22559 O 2357.71 -1.93197 0.197119 0
M  V30 22560 C 2354.84 -3.38801 0.763599 0
M  V30 22561 C 2353.79 -3.87656 1.81403 0
M  V30 22562 C 2353.12 -5.18383 1.31084 0
M  V30 22563 C 2354.42 -4.11432 3.21747 0
M  V30 22564 H 2356.11 -2.177 2.05541 0
M  V30 22565 H 2353.66 -1.04606 0.989621 0
M  V30 22566 H 2355.61 -4.16434 0.645055 0
M  V30 22567 H 2354.34 -3.25945 -0.20667 0
M  V30 22568 H 2353 -3.12213 1.92141 0
M  V30 22569 H 2352.64 -5.01916 0.330125 0
M  V30 22570 H 2352.34 -5.5204 2.01309 0
M  V30 22571 H 2353.87 -5.98588 1.20517 0
M  V30 22572 H 2355.28 -4.79645 3.14028 0
M  V30 22573 H 2353.68 -4.5639 3.89652 0
M  V30 22574 H 2354.75 -3.16852 3.67059 0
M  V30 22575 N 2356.09 -1.09114 -1.13719 0
M  V30 22576 C 2357.5 -0.845097 -1.66478 0
M  V30 22577 C 2357.85 0.626977 -1.85912 0
M  V30 22578 O 2356.98 1.48338 -1.57559 0
M  V30 22579 C 2357.57 -1.52753 -3.0241 0
M  V30 22580 C 2356.13 -1.32855 -3.52174 0
M  V30 22581 C 2355.28 -1.58568 -2.27489 0
M  V30 22582 H 2358.23 -1.25073 -0.97685 0
M  V30 22583 H 2358.25 -0.958817 -3.68221 0
M  V30 22584 H 2357.76 -2.5989 -2.88234 0
M  V30 22585 H 2355.86 -0.278203 -3.7156 0
M  V30 22586 H 2355.98 -2.06118 -4.32495 0
M  V30 22587 H 2354.34 -1.00763 -2.33921 0
M  V30 22588 H 2355.12 -2.66927 -2.15881 0
M  V30 22589 N 2357.57 1.30887 -0.877861 0
M  V30 22590 C 2358.79 2.01116 -0.506665 0
M  V30 22591 C 2359.22 1.65414 0.895535 0
M  V30 22592 O 2358.58 0.86695 1.59228 0
M  V30 22593 C 2358.63 3.54125 -0.680285 0
M  V30 22594 O 2357.73 4.11469 0.276961 0
M  V30 22595 H 2357.07 0.632996 -0.200529 0
M  V30 22596 H 2359.6 1.669 -1.18345 0
M  V30 22597 H 2359.61 4.03906 -0.576571 0
M  V30 22598 H 2358.29 3.79449 -1.70267 0
M  V30 22599 H 2356.86 3.72682 0.12754 0
M  V30 22600 N 2359.05 0.638091 1.44105 0
M  V30 22601 C 2360.3 0.145079 2.01579 0
M  V30 22602 C 2360.62 -1.23997 1.50498 0
M  V30 22603 O 2359.89 -1.82526 0.711406 0
M  V30 22604 H 2358.47 0.0506431 0.745281 0
M  V30 22605 H 2361.13 0.826358 1.76514 0
M  V30 22606 H 2360.22 0.118094 3.11876 0
M  V30 22607 N 2360.53 -1.52973 0.379063 0
M  V30 22608 C 2361.75 -2.05864 -0.206754 0
M  V30 22609 C 2362.17 -1.25158 -1.41354 0
M  V30 22610 O 2361.53 -0.295619 -1.8009 0
M  V30 22611 C 2361.58 -3.56703 -0.586983 0
M  V30 22612 O 2361.3 -4.34352 0.571853 0
M  V30 22613 C 2362.8 -4.25901 -1.22975 0
M  V30 22614 H 2360.02 -0.670158 -0.0336005 0
M  V30 22615 H 2362.56 -1.97205 0.541333 0
M  V30 22616 H 2360.72 -3.65468 -1.28497 0
M  V30 22617 H 2361.13 -5.23847 0.261636 0
M  V30 22618 H 2362.61 -5.32717 -1.44625 0
M  V30 22619 H 2363.08 -3.80469 -2.19409 0
M  V30 22620 H 2363.69 -4.21425 -0.572818 0
M  V30 22621 N 2362 -0.108595 -1.57225 0
M  V30 22622 C 2362.91 0.859363 -2.18294 0
M  V30 22623 C 2363.93 1.30036 -1.15614 0
M  V30 22624 O 2365.11 1.36549 -1.48041 0
M  V30 22625 C 2362.17 2.09553 -2.76204 0
M  V30 22626 C 2361.23 1.70745 -3.93884 0
M  V30 22627 C 2360.46 2.88469 -4.49023 0
M  V30 22628 O 2360.69 4.03592 -4.03075 0
M  V30 22629 O 2359.62 2.66155 -5.39857 0
M  V30 22630 H 2363.45 0.369716 -3.01441 0
M  V30 22631 H 2361.03 0.116473 -1.48945 0
M  V30 22632 H 2362.91 2.81972 -3.13161 0
M  V30 22633 H 2361.59 2.57544 -1.96094 0
M  V30 22634 H 2360.5 0.95465 -3.61714 0
M  V30 22635 H 2361.83 1.27505 -4.75398 0
M  V30 22636 N 2363.48 1.56732 0.16515 0
M  V30 22637 C 2364.41 1.99916 1.20648 0
M  V30 22638 C 2365.39 0.875731 1.45825 0
M  V30 22639 O 2366.58 1.14226 1.57055 0
M  V30 22640 C 2363.71 2.36431 2.54396 0
M  V30 22641 C 2362.66 3.51791 2.43776 0
M  V30 22642 C 2361.99 3.74067 3.82071 0
M  V30 22643 C 2363.29 4.85045 1.93724 0
M  V30 22644 H 2364.98 2.87155 0.847483 0
M  V30 22645 H 2362.53 1.38151 0.406226 0
M  V30 22646 H 2364.48 2.6524 3.27454 0
M  V30 22647 H 2363.2 1.46108 2.92096 0
M  V30 22648 H 2361.86 3.2312 1.73173 0
M  V30 22649 H 2361.51 2.81024 4.17174 0
M  V30 22650 H 2361.21 4.51691 3.75832 0
M  V30 22651 H 2362.74 4.05282 4.56705 0
M  V30 22652 H 2364.15 5.12689 2.5656 0
M  V30 22653 H 2362.55 5.66348 1.98418 0
M  V30 22654 H 2363.62 4.76627 0.891879 0
M  V30 22655 N 2364.96 -0.433911 1.51509 0
M  V30 22656 C 2366.18 -1.21 1.68445 0
M  V30 22657 C 2366.61 -1.84166 0.382669 0
M  V30 22658 O 2365.97 -1.68957 -0.65752 0
M  V30 22659 C 2366.02 -2.26722 2.80409 0
M  V30 22660 O 2365.12 -3.32288 2.44251 0
M  V30 22661 H 2364.46 -0.354353 0.561543 0
M  V30 22662 H 2366.99 -0.511989 1.9809 0
M  V30 22663 H 2367 -2.71452 3.04594 0
M  V30 22664 H 2365.68 -1.80126 3.7487 0
M  V30 22665 H 2364.25 -2.93011 2.30649 0
M  V30 22666 N 2366.44 -1.41713 -0.689577 0
M  V30 22667 C 2367.69 -1.41113 -1.44678 0
M  V30 22668 C 2368.01 -0.0232539 -1.94986 0
M  V30 22669 O 2367.28 0.935883 -1.72099 0
M  V30 22670 H 2365.86 -0.519436 -0.536838 0
M  V30 22671 H 2368.52 -1.77005 -0.815794 0
M  V30 22672 H 2367.62 -2.10197 -2.30702 0
M  V30 22673 N 2367.92 0.924431 -1.2764 0
M  V30 22674 C 2368.85 2.02983 -1.06445 0
M  V30 22675 C 2369.86 1.62788 -0.0195057 0
M  V30 22676 O 2371.05 1.76575 -0.261419 0
M  V30 22677 C 2368.15 3.33666 -0.593328 0
M  V30 22678 C 2367.32 4.02534 -1.7113 0
M  V30 22679 C 2366.38 5.11493 -1.23536 0
M  V30 22680 O 2365.41 5.35278 -1.93563 0
M  V30 22681 N 2366.61 5.80426 -0.0927698 0
M  V30 22682 H 2369.38 2.21726 -2.01637 0
M  V30 22683 H 2366.94 1.09503 -1.1925 0
M  V30 22684 H 2368.93 4.03872 -0.258757 0
M  V30 22685 H 2367.5 3.11471 0.265447 0
M  V30 22686 H 2366.72 3.26018 -2.21599 0
M  V30 22687 H 2368.01 4.45293 -2.46153 0
M  V30 22688 H 2367.4 5.6356 0.491642 0
M  V30 22689 H 2365.96 6.51544 0.182599 0
M  V30 22690 N 2369.39 1.09715 1.13139 0
M  V30 22691 C 2370.36 0.742789 2.1683 0
M  V30 22692 C 2371.36 -0.229101 1.5916 0
M  V30 22693 O 2372.55 -0.00690175 1.74199 0
M  V30 22694 C 2369.68 0.0989767 3.40756 0
M  V30 22695 H 2370.87 1.66114 2.49692 0
M  V30 22696 H 2368.43 0.896721 1.28018 0
M  V30 22697 H 2369.16 -0.830459 3.13487 0
M  V30 22698 H 2368.95 0.798333 3.83887 0
M  V30 22699 H 2370.44 -0.13345 4.17387 0
M  V30 22700 N 2370.87 -1.30419 0.88479 0
M  V30 22701 C 2372.1 -2.00845 0.517323 0
M  V30 22702 C 2372.52 -1.65887 -0.88675 0
M  V30 22703 O 2371.88 -0.875382 -1.58766 0
M  V30 22704 C 2371.93 -3.53759 0.699056 0
M  V30 22705 O 2371.03 -4.1161 -0.255136 0
M  V30 22706 H 2370.37 -0.631924 0.203883 0
M  V30 22707 H 2372.9 -1.6627 1.19228 0
M  V30 22708 H 2372.91 -4.03594 0.597983 0
M  V30 22709 H 2371.59 -3.78541 1.72277 0
M  V30 22710 H 2370.17 -3.72744 -0.107774 0
M  V30 22711 N 2372.35 -0.645724 -1.43764 0
M  V30 22712 C 2373.6 -0.155767 -2.01499 0
M  V30 22713 C 2373.92 1.23197 -1.51154 0
M  V30 22714 O 2373.19 1.82146 -0.721076 0
M  V30 22715 H 2371.77 -0.0545948 -0.745002 0
M  V30 22716 H 2374.43 -0.835708 -1.76074 0
M  V30 22717 H 2373.53 -0.134631 -3.11809 0
M  V30 22718 N 2373.83 1.5277 -0.38717 0
M  V30 22719 C 2375.05 2.06449 0.198371 0
M  V30 22720 C 2375.48 1.25719 1.39916 0
M  V30 22721 O 2374.84 0.281688 1.79098 0
M  V30 22722 C 2374.88 3.56399 0.54883 0
M  V30 22723 O 2373.99 3.78255 1.64308 0
M  V30 22724 H 2373.33 0.663575 0.0237615 0
M  V30 22725 H 2375.86 1.96956 -0.554023 0
M  V30 22726 H 2375.87 3.99803 0.813742 0
M  V30 22727 H 2374.54 4.14596 -0.329078 0
M  V30 22728 H 2373.12 3.46741 1.37205 0
M  V30 22729 N 2375.31 0.116931 1.57166 0
M  V30 22730 C 2376.72 -0.408777 1.8217 0
M  V30 22731 C 2377.07 -1.66744 1.03396 0
M  V30 22732 O 2376.19 -2.1471 0.269924 0
M  V30 22733 C 2376.79 -0.748408 3.3043 0
M  V30 22734 C 2375.35 -1.21876 3.56122 0
M  V30 22735 C 2374.49 -0.226403 2.76374 0
M  V30 22736 H 2377.45 0.342091 1.54969 0
M  V30 22737 H 2377.47 -1.60601 3.44946 0
M  V30 22738 H 2376.98 0.167853 3.87737 0
M  V30 22739 H 2375.08 -2.15199 3.04171 0
M  V30 22740 H 2375.19 -1.16551 4.64707 0
M  V30 22741 H 2373.56 -0.71302 2.44516 0
M  V30 22742 H 2374.34 0.682918 3.36439 0
M  V30 22743 N 2376.78 -1.56818 -0.156836 0
M  V30 22744 C 2378.06 -1.73705 -0.899213 0
M  V30 22745 C 2378.44 -0.682289 -1.9977 0
M  V30 22746 O 2377.79 0.300482 -2.26516 0
M  V30 22747 C 2378 -3.17421 -1.45069 0
M  V30 22748 C 2379.35 -3.78813 -1.91796 0
M  V30 22749 O 2380.37 -3.20789 -1.54832 0
M  V30 22750 O 2379.23 -4.80726 -2.59932 0
M  V30 22751 H 2376.32 -0.709886 -0.424254 0
M  V30 22752 H 2378.87 -1.69092 -0.143531 0
M  V30 22753 H 2377.64 -3.8568 -0.660778 0
M  V30 22754 H 2377.27 -3.2642 -2.27016 0
M  V30 22755 N 2378.26 0.425871 -1.51737 0
M  V30 22756 C 2379.51 1.17607 -1.65217 0
M  V30 22757 C 2379.84 1.90588 -0.372812 0
M  V30 22758 O 2379.12 1.84079 0.628106 0
M  V30 22759 C 2379.4 2.18393 -2.86315 0
M  V30 22760 C 2379.25 1.49419 -4.24257 0
M  V30 22761 C 2380.57 3.19251 -3.0293 0
M  V30 22762 H 2377.69 0.426195 -0.601271 0
M  V30 22763 H 2380.33 0.46385 -1.84251 0
M  V30 22764 H 2378.48 2.79132 -2.70218 0
M  V30 22765 H 2380.15 0.919283 -4.52047 0
M  V30 22766 H 2378.4 0.796357 -4.26428 0
M  V30 22767 H 2379.07 2.22876 -5.05005 0
M  V30 22768 H 2381.54 2.68575 -3.17815 0
M  V30 22769 H 2380.42 3.87053 -3.89206 0
M  V30 22770 H 2380.68 3.86019 -2.15504 0
M  V30 22771 N 2379.74 1.42077 0.682052 0
M  V30 22772 C 2380.97 1.45746 1.47556 0
M  V30 22773 C 2381.39 0.0681312 1.87977 0
M  V30 22774 O 2380.75 -0.931773 1.55524 0
M  V30 22775 C 2380.8 2.38378 2.70571 0
M  V30 22776 O 2379.9 1.85014 3.6857 0
M  V30 22777 H 2379.24 0.494101 0.443577 0
M  V30 22778 H 2381.77 1.86687 0.837206 0
M  V30 22779 H 2381.78 2.54712 3.18725 0
M  V30 22780 H 2380.46 3.39319 2.40489 0
M  V30 22781 H 2379.03 1.78198 3.27567 0
M  V30 22782 N 2381.22 -0.917649 1.28129 0
M  V30 22783 C 2382.47 -1.6631 1.14828 0
M  V30 22784 C 2382.79 -1.9261 -0.304345 0
M  V30 22785 O 2382.06 -1.53949 -1.21146 0
M  V30 22786 H 2380.64 -0.616405 0.421964 0
M  V30 22787 H 2383.3 -1.10131 1.60802 0
M  V30 22788 H 2382.4 -2.62709 1.68494 0
M  V30 22789 N 2382.7 -1.10314 -1.12555 0
M  V30 22790 C 2383.61 -0.763181 -2.21839 0
M  V30 22791 C 2384.62 0.23877 -1.72354 0
M  V30 22792 O 2385.8 0.0778393 -2.0125 0
M  V30 22793 C 2382.86 -0.198693 -3.4613 0
M  V30 22794 C 2381.93 -1.25776 -4.10462 0
M  V30 22795 C 2381.16 -0.720113 -5.28819 0
M  V30 22796 O 2381.38 0.453893 -5.68591 0
M  V30 22797 O 2380.32 -1.47945 -5.83435 0
M  V30 22798 H 2384.14 -1.67536 -2.53309 0
M  V30 22799 H 2381.73 -0.878179 -1.20865 0
M  V30 22800 H 2383.61 0.112326 -4.2125 0
M  V30 22801 H 2382.28 0.686363 -3.1634 0
M  V30 22802 H 2381.19 -1.62162 -3.37127 0
M  V30 22803 H 2382.52 -2.11579 -4.44404 0
M  V30 22804 N 2384.18 1.29948 -0.891694 0
M  V30 22805 C 2385.42 1.95157 -0.509555 0
M  V30 22806 C 2385.74 1.71127 0.947358 0
M  V30 22807 O 2386.94 2.30375 1.43665 0
M  V30 22808 C 2385.4 3.49465 -0.860377 0
M  V30 22809 C 2385.01 3.82306 -2.33552 0
M  V30 22810 C 2386.75 4.20951 -0.547761 0
M  V30 22811 C 2384.66 5.29821 -2.62762 0
M  V30 22812 H 2383.59 0.730486 -0.186833 0
M  V30 22813 H 2386.24 1.47796 -1.08759 0
M  V30 22814 H 2384.62 3.95436 -0.211354 0
M  V30 22815 H 2385.8 3.47222 -3.02942 0
M  V30 22816 H 2384.11 3.23939 -2.61634 0
M  V30 22817 H 2386.71 5.29513 -0.742947 0
M  V30 22818 H 2387.05 4.13124 0.513248 0
M  V30 22819 H 2387.58 3.80685 -1.15427 0
M  V30 22820 H 2384.32 5.42705 -3.67629 0
M  V30 22821 H 2383.84 5.66181 -1.97987 0
M  V30 22822 H 2385.52 5.97329 -2.48611 0
M  V30 22823 N 2385.65 0.653339 1.4342 0
M  V30 22824 C 2387.06 0.246569 1.85065 0
M  V30 22825 C 2387.42 -1.20688 1.5469 0
M  V30 22826 O 2386.54 -1.9212 0.99593 0
M  V30 22827 C 2387.14 0.440725 3.35921 0
M  V30 22828 C 2385.69 0.0882725 3.76296 0
M  V30 22829 C 2384.84 0.743531 2.67146 0
M  V30 22830 H 2387.79 0.857002 1.33571 0
M  V30 22831 H 2387.81 -0.313731 3.79204 0
M  V30 22832 H 2387.33 1.49865 3.57997 0
M  V30 22833 H 2385.43 -0.967047 3.59832 0
M  V30 22834 H 2385.54 0.513822 4.76337 0
M  V30 22835 H 2383.9 0.176757 2.54086 0
M  V30 22836 H 2384.69 1.80448 2.9205 0
M  V30 22837 N 2387.13 -1.52563 0.395266 0
M  V30 22838 C 2388.38 -2.01255 -0.184643 0
M  V30 22839 C 2388.7 -1.28332 -1.4682 0
M  V30 22840 O 2387.97 -0.405128 -1.91665 0
M  V30 22841 H 2386.55 -0.743597 -0.0712225 0
M  V30 22842 H 2389.21 -1.87603 0.528326 0
M  V30 22843 H 2388.31 -3.09646 -0.390626 0
M  V30 22844 N 2388.61 -0.125265 -1.57101 0
M  V30 22845 C 2389.54 0.819136 -2.18661 0
M  V30 22846 C 2390.52 1.27279 -1.12846 0
M  V30 22847 O 2391.71 1.33427 -1.41106 0
M  V30 22848 C 2388.84 2.0669 -2.79099 0
M  V30 22849 C 2387.79 1.75081 -3.90552 0
M  V30 22850 C 2387.12 3.0694 -4.37826 0
M  V30 22851 C 2388.42 1.01426 -5.12357 0
M  V30 22852 H 2390.11 0.30615 -2.97831 0
M  V30 22853 H 2387.66 0.145814 -1.4326 0
M  V30 22854 H 2389.61 2.73221 -3.20825 0
M  V30 22855 H 2388.33 2.60324 -1.97228 0
M  V30 22856 H 2386.99 1.10938 -3.49411 0
M  V30 22857 H 2386.64 3.58521 -3.52805 0
M  V30 22858 H 2386.34 2.86562 -5.12987 0
M  V30 22859 H 2387.86 3.74578 -4.82207 0
M  V30 22860 H 2389.28 1.58122 -5.51063 0
M  V30 22861 H 2387.67 0.911214 -5.93142 0
M  V30 22862 H 2388.74 0.00210157 -4.849 0
M  V30 22863 N 2390.09 1.56899 0.148518 0
M  V30 22864 C 2391.33 1.83266 0.861386 0
M  V30 22865 C 2391.66 0.705915 1.81238 0
M  V30 22866 O 2390.92 -0.305178 1.93306 0
M  V30 22867 C 2391.22 3.15953 1.67058 0
M  V30 22868 C 2390.88 4.42496 0.866513 0
M  V30 22869 C 2389.54 4.76862 0.644678 0
M  V30 22870 C 2391.9 5.20312 0.304089 0
M  V30 22871 C 2389.22 5.86507 -0.150313 0
M  V30 22872 C 2391.58 6.30792 -0.477935 0
M  V30 22873 C 2390.24 6.63709 -0.71036 0
M  V30 22874 H 2389.51 0.670617 0.315203 0
M  V30 22875 H 2392.16 1.91091 0.125108 0
M  V30 22876 H 2390.46 3.03572 2.47692 0
M  V30 22877 H 2392.16 3.33569 2.2256 0
M  V30 22878 H 2388.75 4.15553 1.04948 0
M  V30 22879 H 2392.93 4.94138 0.462757 0
M  V30 22880 H 2388.19 6.10454 -0.339903 0
M  V30 22881 H 2392.36 6.90285 -0.920881 0
M  V30 22882 H 2389.99 7.48507 -1.32823 0
M  V30 22883 N 2391.57 -0.417818 1.51961 0
M  V30 22884 C 2392.81 -1.16326 1.65265 0
M  V30 22885 C 2393.13 -1.91248 0.380667 0
M  V30 22886 O 2392.4 -1.8635 -0.604181 0
M  V30 22887 H 2390.98 -0.432403 0.609128 0
M  V30 22888 H 2393.65 -0.477129 1.8897 0
M  V30 22889 H 2392.74 -1.88212 2.48963 0
M  V30 22890 N 2393.04 -1.42436 -0.674508 0
M  V30 22891 C 2394.29 -1.43133 -1.43669 0
M  V30 22892 C 2394.62 -0.0476362 -1.94142 0
M  V30 22893 O 2393.9 0.928158 -1.70925 0
M  V30 22894 C 2394.18 -2.45598 -2.63351 0
M  V30 22895 C 2394.03 -3.9316 -2.18507 0
M  V30 22896 C 2395.35 -2.45049 -3.65567 0
M  V30 22897 H 2392.47 -0.521207 -0.521068 0
M  V30 22898 H 2395.11 -1.73852 -0.766521 0
M  V30 22899 H 2393.26 -2.19534 -3.20526 0
M  V30 22900 H 2394.94 -4.30205 -1.66497 0
M  V30 22901 H 2393.18 -4.07012 -1.50079 0
M  V30 22902 H 2393.85 -4.60433 -3.04475 0
M  V30 22903 H 2396.33 -2.68228 -3.18108 0
M  V30 22904 H 2395.2 -3.18721 -4.46887 0
M  V30 22905 H 2395.46 -1.47656 -4.16713 0
M  V30 22906 N 2394.52 0.910841 -1.28614 0
M  V30 22907 C 2395.75 1.69925 -1.18913 0
M  V30 22908 C 2396.17 1.86453 0.248339 0
M  V30 22909 O 2395.53 1.37679 1.17959 0
M  V30 22910 C 2395.58 3.06742 -1.89583 0
M  V30 22911 O 2394.68 3.94394 -1.20528 0
M  V30 22912 H 2394.02 0.520215 -0.412641 0
M  V30 22913 H 2396.55 1.13867 -1.69987 0
M  V30 22914 H 2396.56 3.56955 -1.97603 0
M  V30 22915 H 2395.24 2.9403 -2.94142 0
M  V30 22916 H 2393.81 3.52829 -1.2069 0
M  V30 22917 N 2396 1.10909 1.11969 0
M  V30 22918 C 2397.25 0.852852 1.83224 0
M  V30 22919 C 2397.57 -0.623309 1.8477 0
M  V30 22920 O 2396.84 -1.45267 1.31432 0
M  V30 22921 H 2395.42 0.312519 0.678484 0
M  V30 22922 H 2398.08 1.40036 1.35558 0
M  V30 22923 H 2397.18 1.2201 2.87263 0
M  V30 22924 N 2397.48 -1.29474 0.898573 0
M  V30 22925 C 2398.41 -2.26771 0.332766 0
M  V30 22926 C 2399.42 -1.54262 -0.520296 0
M  V30 22927 O 2400.61 -1.75278 -0.337637 0
M  V30 22928 C 2397.71 -3.34501 -0.544275 0
M  V30 22929 C 2396.89 -4.36485 0.282804 0
M  V30 22930 C 2395.94 -5.23555 -0.526889 0
M  V30 22931 O 2394.97 -5.69173 0.0552166 0
M  V30 22932 N 2396.17 -5.50793 -1.83322 0
M  V30 22933 H 2398.94 -2.7596 1.16902 0
M  V30 22934 H 2396.5 -1.42796 0.762944 0
M  V30 22935 H 2398.49 -3.8968 -1.09232 0
M  V30 22936 H 2397.06 -2.85138 -1.28122 0
M  V30 22937 H 2396.28 -3.80981 1.01227 0
M  V30 22938 H 2397.57 -5.01662 0.849268 0
M  V30 22939 H 2396.97 -5.15538 -2.32889 0
M  V30 22940 H 2395.52 -6.08792 -2.32842 0
M  V30 22941 N 2398.96 -0.660936 -1.43071 0
M  V30 22942 C 2400.37 -0.25638 -1.84931 0
M  V30 22943 C 2400.72 1.19866 -1.55328 0
M  V30 22944 O 2399.84 1.91589 -1.0061 0
M  V30 22945 C 2400.44 -0.458534 -3.35683 0
M  V30 22946 C 2399 -0.108227 -3.76244 0
M  V30 22947 C 2398.14 -0.757688 -2.66748 0
M  V30 22948 H 2401.1 -0.864074 -1.33114 0
M  V30 22949 H 2401.12 0.293617 -3.79365 0
M  V30 22950 H 2400.63 -1.51761 -3.57198 0
M  V30 22951 H 2398.73 0.94795 -3.6034 0
M  V30 22952 H 2398.84 -0.539076 -4.76058 0
M  V30 22953 H 2397.21 -0.190229 -2.53989 0
M  V30 22954 H 2397.99 -1.81995 -2.91089 0
M  V30 22955 N 2400.43 1.52351 -0.403352 0
M  V30 22956 C 2401.66 2.06648 0.176463 0
M  V30 22957 C 2402.08 1.27196 1.38574 0
M  V30 22958 O 2401.44 0.300668 1.78789 0
M  V30 22959 C 2401.49 3.56961 0.510999 0
M  V30 22960 O 2400.59 3.79976 1.60287 0
M  V30 22961 H 2399.94 0.663789 0.016722 0
M  V30 22962 H 2402.47 1.96357 -0.574882 0
M  V30 22963 H 2402.48 4.00643 0.771291 0
M  V30 22964 H 2401.15 4.14224 -0.373033 0
M  V30 22965 H 2399.73 3.48177 1.3352 0
M  V30 22966 N 2401.91 0.133594 1.57033 0
M  V30 22967 C 2403.16 -0.519814 1.95301 0
M  V30 22968 C 2403.48 -1.66276 1.01869 0
M  V30 22969 O 2402.75 -1.95746 0.0776857 0
M  V30 22970 H 2401.33 -0.195019 0.721094 0
M  V30 22971 H 2403.99 0.205955 1.93809 0
M  V30 22972 H 2403.09 -0.904801 2.98697 0
M  V30 22973 N 2403.39 -1.56975 -0.140195 0
M  V30 22974 C 2404.64 -1.8372 -0.851655 0
M  V30 22975 C 2404.97 -0.715516 -1.80861 0
M  V30 22976 O 2404.22 0.294922 -1.93465 0
M  V30 22977 C 2404.52 -3.16835 -1.6538 0
M  V30 22978 C 2404.19 -4.42949 -0.843034 0
M  V30 22979 C 2402.85 -4.77197 -0.61938 0
M  V30 22980 C 2405.2 -5.20466 -0.276491 0
M  V30 22981 C 2402.53 -5.86419 0.181415 0
M  V30 22982 C 2404.88 -6.3053 0.51138 0
M  V30 22983 C 2403.54 -6.63323 0.745548 0
M  V30 22984 H 2402.81 -0.67228 -0.311643 0
M  V30 22985 H 2405.46 -1.91155 -0.114972 0
M  V30 22986 H 2403.77 -3.04881 -2.46079 0
M  V30 22987 H 2405.46 -3.34744 -2.20788 0
M  V30 22988 H 2402.05 -4.16103 -1.02742 0
M  V30 22989 H 2406.24 -4.94376 -0.436545 0
M  V30 22990 H 2401.49 -6.10266 0.372272 0
M  V30 22991 H 2405.67 -6.89786 0.957475 0
M  V30 22992 H 2403.29 -7.47792 1.36791 0
M  V30 22993 N 2404.87 0.409753 -1.5218 0
M  V30 22994 C 2406.28 0.988587 -1.58379 0
M  V30 22995 C 2406.63 1.91566 -0.423913 0
M  V30 22996 O 2405.76 2.11545 0.455807 0
M  V30 22997 C 2406.35 1.79971 -2.87047 0
M  V30 22998 C 2404.91 2.32858 -2.95726 0
M  V30 22999 C 2404.06 1.12823 -2.53311 0
M  V30 23000 H 2407.01 0.190011 -1.57558 0
M  V30 23001 H 2407.03 2.65703 -2.72364 0
M  V30 23002 H 2406.54 1.12471 -3.71446 0
M  V30 23003 H 2404.64 3.03731 -2.1582 0
M  V30 23004 H 2404.75 2.63766 -3.99955 0
M  V30 23005 H 2403.12 1.482 -2.07144 0
M  V30 23006 H 2403.9 0.468911 -3.40083 0
M  V30 23007 N 2406.35 1.42792 0.666944 0
M  V30 23008 C 2407.62 1.34161 1.42338 0
M  V30 23009 C 2408 -0.0172358 2.11093 0
M  V30 23010 O 2407.35 -1.03314 2.0381 0
M  V30 23011 C 2407.56 2.5153 2.41937 0
M  V30 23012 C 2408.91 2.94001 3.06347 0
M  V30 23013 O 2409.93 2.51477 2.52265 0
M  V30 23014 O 2408.79 3.67624 4.0437 0
M  V30 23015 H 2405.89 0.529494 0.635268 0
M  V30 23016 H 2408.43 1.54815 0.695007 0
M  V30 23017 H 2407.2 3.42084 1.89985 0
M  V30 23018 H 2406.83 2.32904 3.22245 0
M  V30 23019 N 2407.82 -0.904008 1.29095 0
M  V30 23020 C 2409.05 -1.68764 1.19692 0
M  V30 23021 C 2409.47 -1.87229 -0.24308 0
M  V30 23022 O 2408.82 -1.40624 -1.16324 0
M  V30 23023 C 2408.88 -3.0745 1.90149 0
M  V30 23024 O 2408.6 -2.89832 3.28526 0
M  V30 23025 C 2410.1 -4.01849 1.8717 0
M  V30 23026 H 2407.32 -0.527237 0.415045 0
M  V30 23027 H 2409.86 -1.13079 1.70392 0
M  V30 23028 H 2408.02 -3.59924 1.43296 0
M  V30 23029 H 2408.43 -3.77677 3.63951 0
M  V30 23030 H 2409.9 -4.96592 2.41041 0
M  V30 23031 H 2410.38 -4.3097 0.846246 0
M  V30 23032 H 2410.99 -3.55306 2.33747 0
M  V30 23033 N 2409.3 -1.11501 -1.11379 0
M  V30 23034 C 2410.53 -0.887052 -1.87473 0
M  V30 23035 C 2410.95 0.557764 -1.7964 0
M  V30 23036 O 2410.31 1.39394 -1.15927 0
M  V30 23037 C 2410.36 -1.35409 -3.34211 0
M  V30 23038 O 2409.46 -0.526218 -4.09029 0
M  V30 23039 H 2408.8 -0.319473 -0.582094 0
M  V30 23040 H 2411.33 -1.48464 -1.40782 0
M  V30 23041 H 2411.34 -1.34888 -3.85057 0
M  V30 23042 H 2410.02 -2.40618 -3.39228 0
M  V30 23043 H 2408.6 -0.597587 -3.68081 0
M  V30 23044 N 2410.78 1.28995 -0.905426 0
M  V30 23045 C 2412.03 1.94939 -0.533227 0
M  V30 23046 C 2412.35 1.71687 0.924588 0
M  V30 23047 O 2411.62 1.05186 1.65266 0
M  V30 23048 H 2410.2 0.721313 -0.194207 0
M  V30 23049 H 2412.86 1.57139 -1.15297 0
M  V30 23050 H 2411.96 3.03666 -0.720644 0
M  V30 23051 N 2412.26 0.668514 1.42719 0
M  V30 23052 C 2413.17 -0.013934 2.34596 0
M  V30 23053 C 2414.19 -0.795675 1.54742 0
M  V30 23054 O 2415.36 -0.739433 1.87335 0
M  V30 23055 C 2412.43 -0.957924 3.33204 0
M  V30 23056 C 2411.49 -0.171415 4.28958 0
M  V30 23057 C 2410.72 -1.07044 5.22855 0
M  V30 23058 O 2410.94 -2.30991 5.21535 0
M  V30 23059 O 2409.88 -0.534621 5.99521 0
M  V30 23060 H 2413.7 0.742713 2.94478 0
M  V30 23061 H 2411.29 0.428731 1.43116 0
M  V30 23062 H 2413.17 -1.50001 3.93799 0
M  V30 23063 H 2411.85 -1.69453 2.75803 0
M  V30 23064 H 2410.75 0.414624 3.71795 0
M  V30 23065 H 2412.09 0.525946 4.89382 0
M  V30 23066 N 2413.74 -1.52135 0.411426 0
M  V30 23067 C 2414.97 -2.06257 -0.16304 0
M  V30 23068 C 2415.38 -1.28128 -1.38668 0
M  V30 23069 O 2414.74 -0.333753 -1.79422 0
M  V30 23070 C 2414.79 -3.57867 -0.511189 0
M  V30 23071 O 2414.51 -4.33041 0.663857 0
M  V30 23072 C 2416.01 -4.28414 -1.13914 0
M  V30 23073 H 2413.23 -0.67072 -0.0193779 0
M  V30 23074 H 2415.77 -1.96012 0.583041 0
M  V30 23075 H 2413.93 -3.68112 -1.20716 0
M  V30 23076 H 2414.34 -5.23174 0.372693 0
M  V30 23077 H 2415.82 -5.35665 -1.33293 0
M  V30 23078 H 2416.29 -3.85037 -2.11289 0
M  V30 23079 H 2416.9 -4.22545 -0.483299 0
M  V30 23080 N 2415.22 -0.14192 -1.5696 0
M  V30 23081 C 2416.44 0.520802 -2.00755 0
M  V30 23082 C 2416.87 1.57957 -1.02133 0
M  V30 23083 O 2416.22 1.813 0.00368137 0
M  V30 23084 C 2416.27 1.10288 -3.4332 0
M  V30 23085 O 2415.38 2.21789 -3.47683 0
M  V30 23086 H 2414.72 0.127897 -0.651566 0
M  V30 23087 H 2417.25 -0.237156 -2.03221 0
M  V30 23088 H 2417.26 1.4328 -3.82014 0
M  V30 23089 H 2415.93 0.327502 -4.14609 0
M  V30 23090 H 2414.51 1.90064 -3.20827 0
M  V30 23091 N 2416.69 1.57047 0.131868 0
M  V30 23092 C 2417.94 1.83805 0.840237 0
M  V30 23093 C 2418.26 0.725152 1.81015 0
M  V30 23094 O 2417.53 -0.251961 1.94273 0
M  V30 23095 H 2416.11 0.678132 0.313282 0
M  V30 23096 H 2418.77 1.94516 0.122259 0
M  V30 23097 H 2417.87 2.79273 1.3933 0
M  V30 23098 N 2418.17 -0.401677 1.52395 0
M  V30 23099 C 2419.42 -1.14963 1.67067 0
M  V30 23100 C 2419.75 -1.89971 0.403086 0
M  V30 23101 O 2419.03 -1.85055 -0.598741 0
M  V30 23102 C 2419.31 -2.1381 2.89754 0
M  V30 23103 C 2419.16 -1.4265 4.2658 0
M  V30 23104 C 2420.48 -3.14391 3.07971 0
M  V30 23105 H 2417.6 -0.416576 0.607975 0
M  V30 23106 H 2420.24 -0.434478 1.84966 0
M  V30 23107 H 2418.39 -2.74798 2.74624 0
M  V30 23108 H 2420.06 -0.847249 4.53453 0
M  V30 23109 H 2418.31 -0.728415 4.27641 0
M  V30 23110 H 2418.98 -2.14814 5.08487 0
M  V30 23111 H 2421.45 -2.63485 3.22048 0
M  V30 23112 H 2420.33 -3.80812 3.95315 0
M  V30 23113 H 2420.59 -3.82542 2.21618 0
M  V30 23114 N 2419.65 -1.43144 -0.659362 0
M  V30 23115 C 2420.88 -1.47863 -1.44721 0
M  V30 23116 C 2421.29 -0.0946217 -1.88563 0
M  V30 23117 O 2420.65 0.893887 -1.5911 0
M  V30 23118 C 2420.7 -2.41918 -2.68623 0
M  V30 23119 O 2420.42 -3.74936 -2.26616 0
M  V30 23120 C 2421.92 -2.55816 -3.6204 0
M  V30 23121 H 2419.14 -0.502395 -0.444792 0
M  V30 23122 H 2421.69 -1.87823 -0.808883 0
M  V30 23123 H 2419.84 -2.0517 -3.28609 0
M  V30 23124 H 2420.26 -4.25455 -3.06738 0
M  V30 23125 H 2421.73 -3.25715 -4.45661 0
M  V30 23126 H 2422.21 -1.60106 -4.08978 0
M  V30 23127 H 2422.81 -2.93349 -3.07939 0
M  V30 23128 N 2421.13 0.897149 -1.29572 0
M  V30 23129 C 2422.04 2.03451 -1.16811 0
M  V30 23130 C 2423.05 1.73763 -0.0907777 0
M  V30 23131 O 2424.23 1.99102 -0.303347 0
M  V30 23132 C 2421.29 3.36161 -0.848323 0
M  V30 23133 C 2420.36 3.79351 -2.00976 0
M  V30 23134 C 2419.59 5.05728 -1.70514 0
M  V30 23135 O 2419.81 5.6694 -0.62728 0
M  V30 23136 O 2418.75 5.45032 -2.55389 0
M  V30 23137 H 2422.57 2.17141 -2.12329 0
M  V30 23138 H 2420.16 1.02121 -1.09049 0
M  V30 23139 H 2422.04 4.15801 -0.684654 0
M  V30 23140 H 2420.71 3.23608 0.0770503 0
M  V30 23141 H 2419.62 3.00467 -2.22869 0
M  V30 23142 H 2420.95 3.96491 -2.91643 0
M  V30 23143 N 2422.61 1.1209 1.10786 0
M  V30 23144 C 2423.54 0.807793 2.19082 0
M  V30 23145 C 2424.52 -0.226829 1.68581 0
M  V30 23146 O 2425.7 -0.0888134 1.93997 0
M  V30 23147 C 2422.83 0.257637 3.46343 0
M  V30 23148 C 2421.79 1.22491 4.10098 0
M  V30 23149 C 2421.11 0.535145 5.32015 0
M  V30 23150 C 2422.41 2.57819 4.54232 0
M  V30 23151 H 2424.11 1.71333 2.45531 0
M  V30 23152 H 2421.65 0.825225 1.18009 0
M  V30 23153 H 2423.6 0.0263419 4.21392 0
M  V30 23154 H 2422.33 -0.683222 3.19374 0
M  V30 23155 H 2420.99 1.44195 3.37051 0
M  V30 23156 H 2420.64 -0.410739 5.0132 0
M  V30 23157 H 2420.34 1.18034 5.75623 0
M  V30 23158 H 2421.86 0.312802 6.09798 0
M  V30 23159 H 2423.27 2.40164 5.20571 0
M  V30 23160 H 2421.67 3.18384 5.08676 0
M  V30 23161 H 2422.74 3.16534 3.67334 0
M  V30 23162 N 2424.08 -1.28513 0.912254 0
M  V30 23163 C 2425.31 -1.99702 0.559809 0
M  V30 23164 C 2425.73 -1.6773 -0.851364 0
M  V30 23165 O 2425.09 -0.908862 -1.56874 0
M  V30 23166 C 2425.14 -3.52197 0.773936 0
M  V30 23167 O 2424.24 -4.12059 -0.16777 0
M  V30 23168 H 2423.58 -0.627457 0.217241 0
M  V30 23169 H 2426.11 -1.63704 1.22728 0
M  V30 23170 H 2426.12 -4.02235 0.683457 0
M  V30 23171 H 2424.8 -3.74802 1.80268 0
M  V30 23172 H 2423.38 -3.72889 -0.0286853 0
M  V30 23173 N 2425.56 -0.676073 -1.42362 0
M  V30 23174 C 2426.81 -0.198473 -2.01123 0
M  V30 23175 C 2427.13 1.19963 -1.53733 0
M  V30 23176 O 2426.4 1.80576 -0.759549 0
M  V30 23177 H 2424.98 -0.0703852 -0.743677 0
M  V30 23178 H 2427.64 -0.872867 -1.74261 0
M  V30 23179 H 2426.74 -0.200741 -3.11454 0
M  V30 23180 N 2427.04 1.51915 -0.419488 0
M  V30 23181 C 2427.97 2.3019 0.391772 0
M  V30 23182 C 2428.95 1.34837 1.03696 0
M  V30 23183 O 2430.14 1.6375 1.04401 0
M  V30 23184 C 2427.27 3.1309 1.50306 0
M  V30 23185 C 2426.22 4.16575 0.982327 0
M  V30 23186 C 2425.55 4.87884 2.18801 0
M  V30 23187 C 2426.85 5.22292 0.0291438 0
M  V30 23188 H 2428.54 2.98257 -0.261402 0
M  V30 23189 H 2426.09 1.43437 -0.127159 0
M  V30 23190 H 2428.04 3.66621 2.07767 0
M  V30 23191 H 2426.76 2.42811 2.18427 0
M  V30 23192 H 2425.42 3.64069 0.430055 0
M  V30 23193 H 2425.07 4.14124 2.855 0
M  V30 23194 H 2424.77 5.57848 1.84605 0
M  V30 23195 H 2426.29 5.44231 2.76848 0
M  V30 23196 H 2427.71 5.71001 0.512875 0
M  V30 23197 H 2426.11 5.9968 -0.224505 0
M  V30 23198 H 2427.18 4.76227 -0.913015 0
M  V30 23199 N 2428.52 0.150242 1.56882 0
M  V30 23200 C 2429.74 -0.510148 2.01028 0
M  V30 23201 C 2430.17 -1.57414 1.02969 0
M  V30 23202 O 2429.53 -1.81299 0.00593344 0
M  V30 23203 C 2429.57 -1.08466 3.439 0
M  V30 23204 O 2428.68 -2.19942 3.48854 0
M  V30 23205 H 2428.02 -0.124439 0.652235 0
M  V30 23206 H 2430.55 0.24793 2.03092 0
M  V30 23207 H 2430.56 -1.41252 3.82769 0
M  V30 23208 H 2429.23 -0.305509 4.14776 0
M  V30 23209 H 2427.81 -1.8836 3.21831 0
M  V30 23210 N 2430 -1.57115 -0.123538 0
M  V30 23211 C 2431.22 -1.89165 -0.850365 0
M  V30 23212 C 2431.65 -0.741718 -1.72859 0
M  V30 23213 O 2431 0.307926 -1.78666 0
M  V30 23214 C 2431.05 -3.19939 -1.66347 0
M  V30 23215 O 2430.16 -3.05525 -2.76999 0
M  V30 23216 H 2429.5 -0.620856 -0.235443 0
M  V30 23217 H 2432.03 -2.04318 -0.107299 0
M  V30 23218 H 2432.04 -3.52547 -2.05365 0
M  V30 23219 H 2430.71 -4.0323 -1.01874 0
M  V30 23220 H 2429.29 -2.84375 -2.41216 0
M  V30 23221 N 2431.47 0.393589 -1.52606 0
M  V30 23222 C 2432.72 1.13682 -1.67095 0
M  V30 23223 C 2433.04 1.90619 -0.411045 0
M  V30 23224 O 2432.31 1.87288 0.574458 0
M  V30 23225 H 2430.89 0.422657 -0.61593 0
M  V30 23226 H 2433.56 0.447005 -1.89705 0
M  V30 23227 H 2432.65 1.84228 -2.51926 0
M  V30 23228 N 2432.95 1.43492 0.651762 0
M  V30 23229 C 2433.88 1.44732 1.77723 0
M  V30 23230 C 2434.9 0.343259 1.5914 0
M  V30 23231 O 2436.09 0.607781 1.67834 0
M  V30 23232 C 2433.19 1.24584 3.1517 0
M  V30 23233 C 2432.36 2.47855 3.60398 0
M  V30 23234 C 2431.42 2.22911 4.76652 0
M  V30 23235 O 2430.44 2.96271 4.86016 0
M  V30 23236 N 2431.65 1.24666 5.66956 0
M  V30 23237 H 2434.41 2.41749 1.77136 0
M  V30 23238 H 2431.97 1.38667 0.835654 0
M  V30 23239 H 2433.96 1.05777 3.90632 0
M  V30 23240 H 2432.53 0.36007 3.10519 0
M  V30 23241 H 2431.75 2.82078 2.75364 0
M  V30 23242 H 2433.04 3.29891 3.87362 0
M  V30 23243 H 2432.44 0.640364 5.62064 0
M  V30 23244 H 2431 1.11841 6.42133 0
M  V30 23245 N 2434.43 -0.890264 1.30046 0
M  V30 23246 C 2435.84 -1.457 1.16741 0
M  V30 23247 C 2436.19 -1.94801 -0.233905 0
M  V30 23248 O 2435.32 -1.84543 -1.13018 0
M  V30 23249 C 2435.91 -2.64821 2.11318 0
M  V30 23250 C 2434.47 -3.17601 2.02007 0
M  V30 23251 C 2433.62 -1.90293 2.01703 0
M  V30 23252 H 2436.57 -0.700701 1.42393 0
M  V30 23253 H 2436.59 -3.40864 1.69092 0
M  V30 23254 H 2436.1 -2.29054 3.13298 0
M  V30 23255 H 2434.2 -3.58038 1.03148 0
M  V30 23256 H 2434.32 -3.81259 2.90135 0
M  V30 23257 H 2432.68 -2.08399 1.4643 0
M  V30 23258 H 2433.46 -1.5679 3.05404 0
M  V30 23259 N 2435.91 -1.12676 -1.1019 0
M  V30 23260 C 2437.16 -0.881893 -1.81844 0
M  V30 23261 C 2437.48 0.593835 -1.85738 0
M  V30 23262 O 2436.75 1.43157 -1.33727 0
M  V30 23263 H 2435.33 -0.323273 -0.673427 0
M  V30 23264 H 2437.99 -1.42175 -1.33313 0
M  V30 23265 H 2437.09 -1.26565 -2.85285 0
M  V30 23266 N 2437.39 1.28028 -0.919057 0
M  V30 23267 C 2438.63 1.95035 -0.555791 0
M  V30 23268 C 2438.97 1.7213 0.899167 0
M  V30 23269 O 2438.24 1.04533 1.64021 0
M  V30 23270 C 2438.52 3.4938 -0.872085 0
M  V30 23271 C 2438.38 3.81665 -2.38016 0
M  V30 23272 C 2439.7 4.38526 -0.371927 0
M  V30 23273 H 2436.81 0.708377 -0.203398 0
M  V30 23274 H 2439.46 1.51301 -1.14927 0
M  V30 23275 H 2437.61 3.86763 -0.367014 0
M  V30 23276 H 2439.28 3.54123 -2.95626 0
M  V30 23277 H 2437.52 3.28522 -2.83295 0
M  V30 23278 H 2438.19 4.89465 -2.55201 0
M  V30 23279 H 2440.67 4.08245 -0.804673 0
M  V30 23280 H 2439.54 5.45361 -0.622268 0
M  V30 23281 H 2439.81 4.36067 0.727857 0
M  V30 23282 N 2438.86 0.683613 1.42002 0
M  V30 23283 C 2440.09 0.216683 2.06265 0
M  V30 23284 C 2440.51 -1.12081 1.51061 0
M  V30 23285 O 2439.87 -1.69903 0.632668 0
M  V30 23286 C 2439.92 0.171822 3.6019 0
M  V30 23287 O 2439.02 -0.856998 4.03397 0
M  V30 23288 H 2438.37 0.108845 0.655018 0
M  V30 23289 H 2440.9 0.935109 1.8198 0
M  V30 23290 H 2440.91 -0.00135858 4.08 0
M  V30 23291 H 2439.58 1.14803 3.99741 0
M  V30 23292 H 2438.16 -0.654143 3.67118 0
M  V30 23293 N 2440.34 -1.5169 0.427538 0
M  V30 23294 C 2441.59 -2.01601 -0.141912 0
M  V30 23295 C 2441.91 -1.31417 -1.44065 0
M  V30 23296 O 2441.18 -0.445692 -1.90763 0
M  V30 23297 H 2439.76 -0.74494 -0.0554337 0
M  V30 23298 H 2442.42 -1.8644 0.568001 0
M  V30 23299 H 2441.52 -3.10405 -0.324858 0
M  V30 23300 N 2441.82 -0.15856 -1.568 0
M  V30 23301 C 2442.73 0.789479 -2.20917 0
M  V30 23302 C 2443.75 1.26292 -1.19693 0
M  V30 23303 O 2444.92 1.3177 -1.52311 0
M  V30 23304 C 2441.99 2.0066 -2.82731 0
M  V30 23305 C 2441.05 1.58127 -3.99117 0
M  V30 23306 C 2440.28 2.74037 -4.57973 0
M  V30 23307 O 2440.51 3.90565 -4.15711 0
M  V30 23308 O 2439.44 2.48845 -5.48051 0
M  V30 23309 H 2443.27 0.273628 -3.02465 0
M  V30 23310 H 2440.85 0.0690286 -1.4924 0
M  V30 23311 H 2442.73 2.71866 -3.21973 0
M  V30 23312 H 2441.41 2.51175 -2.04188 0
M  V30 23313 H 2440.31 0.83909 -3.64568 0
M  V30 23314 H 2441.65 1.12316 -4.79214 0
M  V30 23315 N 2443.3 1.57178 0.115204 0
M  V30 23316 C 2444.26 1.99678 1.12523 0
M  V30 23317 C 2445.26 0.887444 1.34094 0
M  V30 23318 O 2446.45 1.1534 1.30546 0
M  V30 23319 C 2443.58 2.3402 2.47886 0
M  V30 23320 H 2444.78 2.90114 0.759861 0
M  V30 23321 H 2442.33 1.52107 0.359621 0
M  V30 23322 H 2443.07 1.46475 2.89336 0
M  V30 23323 H 2442.85 3.14931 2.33583 0
M  V30 23324 H 2444.34 2.67628 3.2057 0
M  V30 23325 N 2444.78 -0.38549 1.52813 0
M  V30 23326 C 2446 -1.1558 1.72209 0
M  V30 23327 C 2446.43 -1.82856 0.441066 0
M  V30 23328 O 2445.79 -1.70963 -0.603435 0
M  V30 23329 C 2445.83 -2.17687 2.8748 0
M  V30 23330 O 2444.94 -3.24349 2.54699 0
M  V30 23331 H 2444.28 -0.336309 0.572532 0
M  V30 23332 H 2446.81 -0.448709 1.99619 0
M  V30 23333 H 2446.82 -2.61624 3.13076 0
M  V30 23334 H 2445.49 -1.68108 3.80411 0
M  V30 23335 H 2444.07 -2.85524 2.39855 0
M  V30 23336 N 2446.26 -1.43835 -0.644143 0
M  V30 23337 C 2447.5 -1.45644 -1.40115 0
M  V30 23338 C 2447.82 -0.0852755 -1.94813 0
M  V30 23339 O 2447.09 0.880657 -1.74989 0
M  V30 23340 H 2445.67 -0.536253 -0.520041 0
M  V30 23341 H 2448.34 -1.79511 -0.759069 0
M  V30 23342 H 2447.43 -2.17431 -2.23898 0
M  V30 23343 N 2447.73 0.883355 -1.30517 0
M  V30 23344 C 2448.98 1.63772 -1.1961 0
M  V30 23345 C 2449.31 1.92606 0.24828 0
M  V30 23346 O 2448.59 1.54815 1.1774 0
M  V30 23347 C 2448.87 2.9765 -2.02674 0
M  V30 23348 C 2448.72 2.75778 -3.5534 0
M  V30 23349 C 2450.04 3.98592 -1.8658 0
M  V30 23350 H 2447.16 0.594298 -0.435866 0
M  V30 23351 H 2449.8 1.02209 -1.60166 0
M  V30 23352 H 2447.95 3.50194 -1.68215 0
M  V30 23353 H 2449.63 2.30009 -3.99867 0
M  V30 23354 H 2447.87 2.10253 -3.79442 0
M  V30 23355 H 2448.54 3.7098 -4.08751 0
M  V30 23356 H 2451.02 3.55213 -2.1671 0
M  V30 23357 H 2449.89 4.90174 -2.47023 0
M  V30 23358 H 2450.15 4.34327 -0.825398 0
M  V30 23359 N 2449.21 1.13259 1.09591 0
M  V30 23360 C 2450.14 0.830984 2.18213 0
M  V30 23361 C 2451.12 -0.208936 1.68812 0
M  V30 23362 O 2452.31 -0.0682324 1.9408 0
M  V30 23363 C 2449.44 0.294357 3.4605 0
M  V30 23364 C 2448.39 1.26833 4.08775 0
M  V30 23365 C 2447.72 0.591542 5.31418 0
M  V30 23366 C 2449.02 2.62623 4.51472 0
M  V30 23367 H 2450.71 1.73927 2.437 0
M  V30 23368 H 2448.26 0.837695 1.17127 0
M  V30 23369 H 2450.21 0.0710347 4.2134 0
M  V30 23370 H 2448.93 -0.64931 3.20081 0
M  V30 23371 H 2447.59 1.47762 3.35503 0
M  V30 23372 H 2447.24 -0.357544 5.01728 0
M  V30 23373 H 2446.94 1.24133 5.74339 0
M  V30 23374 H 2448.47 0.377462 6.09432 0
M  V30 23375 H 2449.88 2.45672 5.17994 0
M  V30 23376 H 2448.28 3.23761 5.05271 0
M  V30 23377 H 2449.35 3.20412 3.63956 0
M  V30 23378 N 2450.69 -1.27539 0.925834 0
M  V30 23379 C 2451.92 -1.98271 0.580701 0
M  V30 23380 C 2452.33 -1.69273 -0.845178 0
M  V30 23381 O 2451.67 -0.948735 -1.57305 0
M  V30 23382 C 2451.73 -3.52124 0.72448 0
M  V30 23383 C 2451.4 -4.0474 2.12213 0
M  V30 23384 C 2452.39 -4.17656 3.09611 0
M  V30 23385 C 2450.08 -4.39134 2.43857 0
M  V30 23386 C 2452.07 -4.64238 4.36763 0
M  V30 23387 C 2449.76 -4.85407 3.71245 0
M  V30 23388 C 2450.76 -4.97917 4.67512 0
M  V30 23389 O 2450.45 -5.43177 5.92633 0
M  V30 23390 H 2450.18 -0.639543 0.218998 0
M  V30 23391 H 2452.73 -1.63402 1.24455 0
M  V30 23392 H 2450.96 -3.867 0.00353427 0
M  V30 23393 H 2452.65 -4.04073 0.384678 0
M  V30 23394 H 2453.42 -3.91346 2.86485 0
M  V30 23395 H 2449.3 -4.2864 1.69672 0
M  V30 23396 H 2452.84 -4.73918 5.11906 0
M  V30 23397 H 2448.74 -5.11159 3.94191 0
M  V30 23398 H 2449.5 -5.61435 5.95595 0
M  V30 23399 N 2452.17 -0.691135 -1.41637 0
M  V30 23400 C 2453.42 -0.219793 -2.00901 0
M  V30 23401 C 2453.74 1.18326 -1.54996 0
M  V30 23402 O 2453.01 1.7976 -0.778659 0
M  V30 23403 H 2451.59 -0.0782689 -0.742888 0
M  V30 23404 H 2454.25 -0.891301 -1.73326 0
M  V30 23405 H 2453.34 -0.233763 -3.11223 0
M  V30 23406 N 2453.65 1.51461 -0.435577 0
M  V30 23407 C 2454.87 2.0649 0.130206 0
M  V30 23408 C 2455.29 1.30318 1.36612 0
M  V30 23409 O 2454.65 0.362255 1.78869 0
M  V30 23410 C 2454.7 3.58635 0.45419 0
M  V30 23411 O 2454.42 4.3193 -0.732666 0
M  V30 23412 C 2455.92 4.30172 1.07084 0
M  V30 23413 H 2453.14 0.670944 0.0087049 0
M  V30 23414 H 2455.68 1.9506 -0.614151 0
M  V30 23415 H 2453.84 3.69986 1.14845 0
M  V30 23416 H 2454.25 5.22515 -0.455879 0
M  V30 23417 H 2455.73 5.37718 1.24754 0
M  V30 23418 H 2456.2 3.8835 2.05137 0
M  V30 23419 H 2456.81 4.2326 0.416015 0
M  V30 23420 N 2455.12 0.166873 1.56714 0
M  V30 23421 C 2456.35 -0.488798 2.01558 0
M  V30 23422 C 2456.77 -1.56313 1.04633 0
M  V30 23423 O 2456.13 -1.81283 0.0251623 0
M  V30 23424 C 2456.18 -1.04812 3.45032 0
M  V30 23425 O 2455.28 -2.1623 3.51167 0
M  V30 23426 H 2454.63 -0.117515 0.653518 0
M  V30 23427 H 2457.16 0.269457 2.02818 0
M  V30 23428 H 2457.17 -1.37184 3.84245 0
M  V30 23429 H 2455.84 -0.261499 4.15077 0
M  V30 23430 H 2454.42 -1.84936 3.2381 0
M  V30 23431 N 2456.6 -1.57237 -0.106866 0
M  V30 23432 C 2457.53 -1.97887 -1.15643 0
M  V30 23433 C 2458.55 -0.879803 -1.36979 0
M  V30 23434 O 2459.74 -1.15801 -1.35839 0
M  V30 23435 C 2456.84 -2.27246 -2.51421 0
M  V30 23436 C 2456.01 -3.58549 -2.50522 0
M  V30 23437 C 2455.07 -3.7598 -3.68138 0
M  V30 23438 O 2454.09 -4.47962 -3.51168 0
M  V30 23439 N 2455.3 -3.15665 -4.87171 0
M  V30 23440 H 2458.06 -2.88531 -0.81054 0
M  V30 23441 H 2455.62 -1.59171 -0.295996 0
M  V30 23442 H 2457.61 -2.36111 -3.28685 0
M  V30 23443 H 2456.18 -1.42668 -2.78145 0
M  V30 23444 H 2455.4 -3.60761 -1.58887 0
M  V30 23445 H 2456.69 -4.4483 -2.46989 0
M  V30 23446 H 2456.09 -2.57174 -5.03863 0
M  V30 23447 H 2454.65 -3.30033 -5.62069 0
M  V30 23448 N 2458.08 0.377381 -1.53015 0
M  V30 23449 C 2459.49 0.95477 -1.6044 0
M  V30 23450 C 2459.84 1.90623 -0.464451 0
M  V30 23451 O 2458.97 2.12464 0.410833 0
M  V30 23452 C 2459.56 1.73842 -2.908 0
M  V30 23453 C 2458.12 2.26533 -3.00599 0
M  V30 23454 C 2457.27 1.07425 -2.55647 0
M  V30 23455 H 2460.22 0.156548 -1.57926 0
M  V30 23456 H 2460.24 2.59865 -2.77939 0
M  V30 23457 H 2459.75 1.04567 -3.73748 0
M  V30 23458 H 2457.85 2.99085 -2.22214 0
M  V30 23459 H 2457.97 2.55223 -4.0546 0
M  V30 23460 H 2456.33 1.43773 -2.10241 0
M  V30 23461 H 2457.11 0.396669 -3.41001 0
M  V30 23462 N 2459.56 1.44175 0.636506 0
M  V30 23463 C 2460.81 1.46675 1.39616 0
M  V30 23464 C 2461.13 0.0973032 1.94256 0
M  V30 23465 O 2460.39 -0.900145 1.7377 0
M  V30 23466 C 2460.69 2.47009 2.58305 0
M  V30 23467 C 2460.35 3.92471 2.21985 0
M  V30 23468 C 2459.02 4.32085 2.11793 0
M  V30 23469 C 2461.37 4.84069 1.93202 0
M  V30 23470 C 2458.7 5.61228 1.70997 0
M  V30 23471 C 2461.05 6.13594 1.539 0
M  V30 23472 C 2459.71 6.52168 1.42245 0
M  V30 23473 H 2458.98 0.536721 0.510892 0
M  V30 23474 H 2461.63 1.77356 0.722297 0
M  V30 23475 H 2459.93 2.09792 3.309 0
M  V30 23476 H 2461.63 2.46192 3.16529 0
M  V30 23477 H 2458.22 3.61128 2.30834 0
M  V30 23478 H 2462.4 4.54223 1.99989 0
M  V30 23479 H 2457.66 5.89938 1.60573 0
M  V30 23480 H 2461.83 6.84032 1.30665 0
M  V30 23481 H 2459.46 7.5214 1.10406 0
M  V30 23482 N 2461.04 -0.876421 1.30983 0
M  V30 23483 C 2462.28 -1.62572 1.20061 0
M  V30 23484 C 2462.61 -1.93481 -0.242913 0
M  V30 23485 O 2461.88 -1.57726 -1.16187 0
M  V30 23486 H 2460.46 -0.602669 0.44136 0
M  V30 23487 H 2463.12 -1.0496 1.64224 0
M  V30 23488 H 2462.21 -2.57216 1.76767 0
M  V30 23489 N 2462.51 -1.13839 -1.08989 0
M  V30 23490 C 2463.76 -0.897541 -1.8063 0
M  V30 23491 C 2464.08 0.577737 -1.86873 0
M  V30 23492 O 2465.28 0.935656 -2.54868 0
M  V30 23493 C 2463.74 -1.55623 -3.24514 0
M  V30 23494 C 2463.35 -3.06735 -3.26523 0
M  V30 23495 C 2465.09 -1.39627 -4.0088 0
M  V30 23496 C 2463 -3.65469 -4.64959 0
M  V30 23497 H 2461.93 -0.332141 -0.676904 0
M  V30 23498 H 2464.58 -1.36662 -1.22457 0
M  V30 23499 H 2462.96 -1.01483 -3.82776 0
M  V30 23500 H 2464.13 -3.67494 -2.78002 0
M  V30 23501 H 2462.45 -3.22301 -2.6365 0
M  V30 23502 H 2465.05 -1.80915 -5.03164 0
M  V30 23503 H 2465.39 -0.341651 -4.14896 0
M  V30 23504 H 2465.92 -1.90772 -3.49072 0
M  V30 23505 H 2462.66 -4.70757 -4.56145 0
M  V30 23506 H 2462.18 -3.0949 -5.13786 0
M  V30 23507 H 2463.86 -3.6541 -5.33933 0
M  V30 23508 N 2463.99 1.27046 -0.932584 0
M  V30 23509 C 2465.22 1.98248 -0.592066 0
M  V30 23510 C 2465.64 1.69527 0.831032 0
M  V30 23511 O 2464.99 0.958589 1.55298 0
M  V30 23512 C 2465.04 3.52208 -0.814341 0
M  V30 23513 O 2464.76 3.79926 -2.18146 0
M  V30 23514 C 2466.27 4.40659 -0.483198 0
M  V30 23515 H 2463.49 0.63254 -0.223907 0
M  V30 23516 H 2466.03 1.61777 -1.25094 0
M  V30 23517 H 2464.18 3.86872 -0.202198 0
M  V30 23518 H 2464.6 4.74494 -2.23508 0
M  V30 23519 H 2466.07 5.47678 -0.689394 0
M  V30 23520 H 2466.55 4.35334 0.58147 0
M  V30 23521 H 2467.16 4.11524 -1.07369 0
M  V30 23522 N 2465.47 0.698636 1.41269 0
M  V30 23523 C 2466.75 0.158796 1.94954 0
M  V30 23524 C 2467.13 -1.33185 1.63783 0
M  V30 23525 O 2466.48 -2.07977 0.94646 0
M  V30 23526 C 2466.69 0.45337 3.46043 0
M  V30 23527 C 2468.03 0.382781 4.22871 0
M  V30 23528 O 2469.06 0.388458 3.54075 0
M  V30 23529 O 2467.92 0.345559 5.45406 0
M  V30 23530 H 2465.01 0.0167651 0.82683 0
M  V30 23531 H 2467.56 0.775007 1.50969 0
M  V30 23532 H 2466.33 1.48505 3.62025 0
M  V30 23533 H 2465.95 -0.19366 3.97128 0
M  V30 23534 N 2466.95 -1.51228 0.443603 0
M  V30 23535 C 2467.88 -2.30784 -0.355102 0
M  V30 23536 C 2468.86 -1.3647 -1.01538 0
M  V30 23537 O 2470.04 -1.65391 -1.01782 0
M  V30 23538 C 2467.17 -3.15442 -1.45306 0
M  V30 23539 C 2466.13 -4.18085 -0.915929 0
M  V30 23540 C 2465.45 -4.91303 -2.11011 0
M  V30 23541 C 2466.75 -5.22272 0.053952 0
M  V30 23542 H 2468.45 -2.97803 0.308819 0
M  V30 23543 H 2465.99 -1.43217 0.149963 0
M  V30 23544 H 2467.95 -3.6988 -2.01908 0
M  V30 23545 H 2466.67 -2.46255 -2.14536 0
M  V30 23546 H 2465.33 -3.64707 -0.372081 0
M  V30 23547 H 2464.98 -4.18614 -2.78875 0
M  V30 23548 H 2464.68 -5.60715 -1.75707 0
M  V30 23549 H 2466.2 -5.48567 -2.68155 0
M  V30 23550 H 2467.62 -5.71745 -0.421969 0
M  V30 23551 H 2466.01 -5.99247 0.319881 0
M  V30 23552 H 2467.08 -4.74714 0.988663 0
M  V30 23553 N 2468.43 -0.175182 -1.56623 0
M  V30 23554 C 2469.65 0.478102 -2.01814 0
M  V30 23555 C 2470.08 1.55755 -1.0546 0
M  V30 23556 O 2469.43 1.81267 -0.0347758 0
M  V30 23557 C 2469.48 1.02981 -3.45583 0
M  V30 23558 O 2468.59 2.14364 -3.52309 0
M  V30 23559 H 2467.93 0.114047 -0.654132 0
M  V30 23560 H 2470.46 -0.280209 -2.02672 0
M  V30 23561 H 2470.47 1.35145 -3.84967 0
M  V30 23562 H 2469.14 0.239483 -4.1521 0
M  V30 23563 H 2467.72 1.83216 -3.24786 0
M  V30 23564 N 2469.91 1.57292 0.0985263 0
M  V30 23565 C 2471.15 1.85546 0.80106 0
M  V30 23566 C 2471.47 0.763385 1.79436 0
M  V30 23567 O 2470.74 -0.210696 1.94764 0
M  V30 23568 H 2469.32 0.684625 0.298828 0
M  V30 23569 H 2471.99 1.94732 0.0809722 0
M  V30 23570 H 2471.08 2.82166 1.33375 0
M  V30 23571 N 2471.38 -0.369261 1.53213 0
M  V30 23572 C 2472.29 -1.47606 1.82345 0
M  V30 23573 C 2473.31 -1.58785 0.71156 0
M  V30 23574 O 2474.49 -1.74749 1.00123 0
M  V30 23575 C 2471.55 -2.82916 2.00398 0
M  V30 23576 C 2470.61 -2.81295 3.24302 0
M  V30 23577 C 2469.84 -4.10151 3.41485 0
M  V30 23578 O 2470.07 -5.06127 2.63042 0
M  V30 23579 O 2469 -4.16187 4.34824 0
M  V30 23580 H 2472.83 -1.25913 2.76368 0
M  V30 23581 H 2470.41 -0.559009 1.38548 0
M  V30 23582 H 2472.29 -3.63097 2.13866 0
M  V30 23583 H 2470.97 -3.04594 1.09564 0
M  V30 23584 H 2469.88 -1.99825 3.1626 0
M  V30 23585 H 2471.21 -2.64571 4.15046 0
M  V30 23586 N 2472.86 -1.4451 -0.628851 0
M  V30 23587 C 2474.09 -1.509 -1.41552 0
M  V30 23588 C 2474.5 -0.134597 -1.8832 0
M  V30 23589 O 2473.86 0.859936 -1.6097 0
M  V30 23590 C 2473.91 -2.47561 -2.63431 0
M  V30 23591 O 2473.63 -3.79658 -2.18612 0
M  V30 23592 C 2475.13 -2.63438 -3.56533 0
M  V30 23593 H 2472.35 -0.511717 -0.434035 0
M  V30 23594 H 2474.9 -1.89496 -0.768861 0
M  V30 23595 H 2473.05 -2.12094 -3.24183 0
M  V30 23596 H 2473.47 -4.31866 -2.97644 0
M  V30 23597 H 2474.94 -3.35095 -4.38651 0
M  V30 23598 H 2475.42 -1.68745 -4.0549 0
M  V30 23599 H 2476.02 -2.99815 -3.01647 0
M  V30 23600 N 2474.34 0.869463 -1.31446 0
M  V30 23601 C 2475.56 1.66056 -1.24259 0
M  V30 23602 C 2475.99 1.87149 0.188895 0
M  V30 23603 O 2475.35 1.41362 1.13519 0
M  V30 23604 C 2475.4 3.00555 -1.99246 0
M  V30 23605 O 2474.5 3.9036 -1.33014 0
M  V30 23606 H 2473.84 0.506824 -0.428982 0
M  V30 23607 H 2476.37 1.08401 -1.73523 0
M  V30 23608 H 2476.38 3.50488 -2.0886 0
M  V30 23609 H 2475.06 2.84523 -3.03347 0
M  V30 23610 H 2473.63 3.48811 -1.31854 0
M  V30 23611 N 2475.82 1.14415 1.08383 0
M  V30 23612 C 2477.07 0.910711 1.80417 0
M  V30 23613 C 2477.39 -0.56421 1.86659 0
M  V30 23614 O 2476.66 -1.41012 1.35987 0
M  V30 23615 H 2475.24 0.333946 0.668198 0
M  V30 23616 H 2477.9 1.44278 1.31034 0
M  V30 23617 H 2476.99 1.31087 2.83236 0
M  V30 23618 N 2477.3 -1.26549 0.939309 0
M  V30 23619 C 2478.54 -1.94126 0.586749 0
M  V30 23620 C 2478.87 -1.73538 -0.871669 0
M  V30 23621 O 2478.15 -1.0713 -1.62338 0
M  V30 23622 C 2478.43 -3.47949 0.927558 0
M  V30 23623 C 2478.29 -3.7783 2.44058 0
M  V30 23624 C 2479.6 -4.37878 0.441646 0
M  V30 23625 H 2476.72 -0.705052 0.214642 0
M  V30 23626 H 2479.37 -1.49453 1.17319 0
M  V30 23627 H 2477.52 -3.8613 0.428499 0
M  V30 23628 H 2479.19 -3.49375 3.01222 0
M  V30 23629 H 2477.43 -3.23973 2.88486 0
M  V30 23630 H 2478.1 -4.85343 2.62956 0
M  V30 23631 H 2480.58 -4.06913 0.86952 0
M  V30 23632 H 2479.45 -5.44302 0.708952 0
M  V30 23633 H 2479.71 -4.3717 -0.658391 0
M  V30 23634 N 2478.77 -0.706118 -1.40896 0
M  V30 23635 C 2480.18 -0.315085 -1.84022 0
M  V30 23636 C 2480.54 1.14863 -1.59062 0
M  V30 23637 O 2479.66 1.88292 -1.06655 0
M  V30 23638 C 2480.26 -0.565097 -3.34054 0
M  V30 23639 C 2478.81 -0.227872 -3.7571 0
M  V30 23640 C 2477.96 -0.842168 -2.64202 0
M  V30 23641 H 2480.91 -0.905986 -1.30298 0
M  V30 23642 H 2480.93 0.172776 -3.80108 0
M  V30 23643 H 2480.45 -1.63048 -3.52189 0
M  V30 23644 H 2478.55 0.832831 -3.63173 0
M  V30 23645 H 2478.66 -0.690257 -4.74102 0
M  V30 23646 H 2477.02 -0.270938 -2.53255 0
M  V30 23647 H 2477.81 -1.91163 -2.85152 0
M  V30 23648 N 2480.25 1.50991 -0.451617 0
M  V30 23649 C 2481.53 1.94854 0.170672 0
M  V30 23650 C 2481.91 1.39106 1.58786 0
M  V30 23651 O 2481.26 0.58396 2.20912 0
M  V30 23652 C 2481.47 3.48743 0.133867 0
M  V30 23653 C 2482.81 4.23297 0.332405 0
M  V30 23654 O 2483.84 3.55572 0.211341 0
M  V30 23655 O 2482.7 5.43469 0.574765 0
M  V30 23656 H 2479.79 0.817914 0.12225 0
M  V30 23657 H 2482.34 1.61836 -0.510622 0
M  V30 23658 H 2481.11 3.81815 -0.85635 0
M  V30 23659 H 2480.73 3.88244 0.857461 0
M  V30 23660 N 2481.73 0.183486 1.56528 0
M  V30 23661 C 2482.66 -0.737417 2.2155 0
M  V30 23662 C 2483.64 -1.23003 1.17492 0
M  V30 23663 O 2484.83 -1.28098 1.45961 0
M  V30 23664 C 2481.96 -1.96189 2.86578 0
M  V30 23665 C 2480.91 -1.60466 3.9678 0
M  V30 23666 C 2480.24 -2.90479 4.48917 0
M  V30 23667 C 2481.54 -0.823406 5.15769 0
M  V30 23668 H 2483.23 -0.195401 2.98762 0
M  V30 23669 H 2480.78 -0.0925433 1.43702 0
M  V30 23670 H 2482.73 -2.61125 3.30744 0
M  V30 23671 H 2481.45 -2.52825 2.06754 0
M  V30 23672 H 2480.11 -0.978935 3.53288 0
M  V30 23673 H 2479.76 -3.4518 3.65869 0
M  V30 23674 H 2479.46 -2.67326 5.23269 0
M  V30 23675 H 2480.98 -3.56423 4.95777 0
M  V30 23676 H 2482.4 -1.37561 5.56552 0
M  V30 23677 H 2480.79 -0.690446 5.96115 0
M  V30 23678 H 2481.86 0.177867 4.84574 0
M  V30 23679 N 2483.21 -1.57342 -0.0901833 0
M  V30 23680 C 2484.43 -1.90927 -0.810049 0
M  V30 23681 C 2484.86 -0.778217 -1.71247 0
M  V30 23682 O 2484.22 0.269959 -1.79279 0
M  V30 23683 C 2484.26 -3.23396 -1.59523 0
M  V30 23684 O 2483.37 -3.11332 -2.70456 0
M  V30 23685 H 2482.71 -0.625711 -0.22222 0
M  V30 23686 H 2485.24 -2.045 -0.0639357 0
M  V30 23687 H 2485.25 -3.56823 -1.97841 0
M  V30 23688 H 2483.92 -4.053 -0.932983 0
M  V30 23689 H 2482.5 -2.89428 -2.3513 0
M  V30 23690 N 2484.69 0.36113 -1.53407 0
M  V30 23691 C 2485.93 1.10112 -1.69469 0
M  V30 23692 C 2486.26 1.89704 -0.451385 0
M  V30 23693 O 2485.53 1.88464 0.534602 0
M  V30 23694 H 2484.11 0.409498 -0.624757 0
M  V30 23695 H 2486.77 0.406666 -1.9061 0
M  V30 23696 H 2485.86 1.78843 -2.55777 0
M  V30 23697 N 2486.16 1.44842 0.621179 0
M  V30 23698 C 2487.1 1.48469 1.74613 0
M  V30 23699 C 2488.11 0.376938 1.58376 0
M  V30 23700 O 2489.3 0.643244 1.66507 0
M  V30 23701 C 2486.4 1.31241 3.12456 0
M  V30 23702 C 2485.57 2.55444 3.55059 0
M  V30 23703 C 2484.63 2.32971 4.71817 0
M  V30 23704 O 2483.66 3.06514 4.79623 0
M  V30 23705 N 2484.86 1.36664 5.64184 0
M  V30 23706 H 2487.62 2.45452 1.71969 0
M  V30 23707 H 2485.18 1.40408 0.806052 0
M  V30 23708 H 2487.18 1.14039 3.883 0
M  V30 23709 H 2485.75 0.425855 3.09686 0
M  V30 23710 H 2484.97 2.87856 2.69319 0
M  V30 23711 H 2486.25 3.38033 3.80278 0
M  V30 23712 H 2485.65 0.759442 5.60579 0
M  V30 23713 H 2484.21 1.25437 6.39616 0
M  V30 23714 N 2487.64 -0.862479 1.31905 0
M  V30 23715 C 2489.05 -1.43191 1.19805 0
M  V30 23716 C 2489.4 -1.95253 -0.192532 0
M  V30 23717 O 2488.53 -1.86898 -1.09078 0
M  V30 23718 C 2489.12 -2.60279 2.16887 0
M  V30 23719 C 2487.68 -3.13245 2.08698 0
M  V30 23720 C 2486.83 -1.85971 2.05694 0
M  V30 23721 H 2489.78 -0.67034 1.43848 0
M  V30 23722 H 2489.8 -3.372 1.76284 0
M  V30 23723 H 2489.31 -2.22357 3.18086 0
M  V30 23724 H 2487.42 -3.55769 1.1072 0
M  V30 23725 H 2487.53 -3.75019 2.98157 0
M  V30 23726 H 2485.89 -2.05246 1.50818 0
M  V30 23727 H 2486.68 -1.50277 3.08661 0
M  V30 23728 N 2489.12 -1.14988 -1.07775 0
M  V30 23729 C 2490.35 -0.946246 -1.84556 0
M  V30 23730 C 2490.77 0.50033 -1.81324 0
M  V30 23731 O 2490.13 1.35635 -1.20303 0
M  V30 23732 C 2490.18 -1.45973 -3.29733 0
M  V30 23733 O 2489.28 -0.656081 -4.07148 0
M  V30 23734 H 2488.62 -0.33783 -0.571635 0
M  V30 23735 H 2491.15 -1.52867 -1.35988 0
M  V30 23736 H 2491.16 -1.4707 -3.80571 0
M  V30 23737 H 2489.84 -2.51289 -3.31401 0
M  V30 23738 H 2488.41 -0.714386 -3.65993 0
M  V30 23739 N 2490.6 1.26049 -0.946007 0
M  V30 23740 C 2491.85 1.93144 -0.594975 0
M  V30 23741 C 2492.17 1.74541 0.869499 0
M  V30 23742 O 2491.44 1.1039 1.61836 0
M  V30 23743 H 2490.02 0.714769 -0.217057 0
M  V30 23744 H 2492.68 1.53391 -1.20238 0
M  V30 23745 H 2491.78 3.0122 -0.816888 0
M  V30 23746 N 2492.08 0.71358 1.4052 0
M  V30 23747 C 2493.01 0.0744274 2.33381 0
M  V30 23748 C 2493.99 -0.747709 1.52785 0
M  V30 23749 O 2495.17 -0.69704 1.81259 0
M  V30 23750 C 2492.3 -0.849539 3.36749 0
M  V30 23751 C 2491.26 -0.133172 4.27793 0
M  V30 23752 C 2490.58 -1.17272 5.21681 0
M  V30 23753 C 2491.88 1.01143 5.12413 0
M  V30 23754 H 2493.58 0.850057 2.87079 0
M  V30 23755 H 2491.12 0.410226 1.38033 0
M  V30 23756 H 2493.08 -1.30605 4.0065 0
M  V30 23757 H 2491.8 -1.65704 2.81442 0
M  V30 23758 H 2490.46 0.303491 3.65342 0
M  V30 23759 H 2490.11 -1.97322 4.6268 0
M  V30 23760 H 2489.81 -0.698294 5.83436 0
M  V30 23761 H 2491.33 -1.62937 5.88459 0
M  V30 23762 H 2492.74 0.634374 5.69779 0
M  V30 23763 H 2491.14 1.41409 5.83201 0
M  V30 23764 H 2492.21 1.843 4.48511 0
M  V30 23765 N 2493.55 -1.50749 0.459618 0
M  V30 23766 C 2494.97 -1.867 0.00174828 0
M  V30 23767 C 2495.32 -1.37527 -1.39931 0
M  V30 23768 O 2494.44 -0.735385 -2.03522 0
M  V30 23769 C 2495.04 -3.388 -0.00360343 0
M  V30 23770 C 2493.6 -3.74204 -0.40596 0
M  V30 23771 C 2492.74 -2.74589 0.386778 0
M  V30 23772 H 2495.69 -1.43656 0.674438 0
M  V30 23773 H 2495.71 -3.71815 -0.808306 0
M  V30 23774 H 2495.23 -3.74559 1.01623 0
M  V30 23775 H 2493.33 -3.44043 -1.43057 0
M  V30 23776 H 2493.44 -4.78961 -0.115278 0
M  V30 23777 H 2491.8 -2.5421 -0.157974 0
M  V30 23778 H 2492.59 -3.13192 1.40591 0
M  V30 23779 N 2495.03 -0.191784 -1.56429 0
M  V30 23780 C 2496.28 0.446971 -1.97095 0
M  V30 23781 C 2496.6 1.62381 -1.0797 0
M  V30 23782 O 2495.87 1.95323 -0.150282 0
M  V30 23783 H 2494.45 0.168122 -0.727835 0
M  V30 23784 H 2497.11 -0.277744 -1.92911 0
M  V30 23785 H 2496.21 0.793318 -3.01849 0
M  V30 23786 N 2496.51 1.57387 0.0818378 0
M  V30 23787 C 2497.76 1.86754 0.782882 0
M  V30 23788 C 2498.09 0.782149 1.78081 0
M  V30 23789 O 2497.34 -0.222916 1.94426 0
M  V30 23790 C 2497.64 3.22754 1.53507 0
M  V30 23791 C 2497.31 4.45773 0.678056 0
M  V30 23792 C 2495.97 4.79167 0.441845 0
M  V30 23793 C 2498.32 5.21134 0.0831327 0
M  V30 23794 C 2495.65 5.85342 -0.398936 0
M  V30 23795 C 2498 6.28197 -0.745045 0
M  V30 23796 C 2496.66 6.60099 -0.991223 0
M  V30 23797 H 2495.93 0.683383 0.286477 0
M  V30 23798 H 2498.58 1.9145 0.0439472 0
M  V30 23799 H 2496.89 3.13804 2.34594 0
M  V30 23800 H 2498.58 3.42708 2.08212 0
M  V30 23801 H 2495.17 4.1963 0.872283 0
M  V30 23802 H 2499.36 4.95656 0.25276 0
M  V30 23803 H 2494.61 6.08463 -0.598512 0
M  V30 23804 H 2498.79 6.85758 -1.21283 0
M  V30 23805 H 2496.41 7.42199 -1.6445 0
M  V30 23806 N 2497.99 -0.35299 1.53596 0
M  V30 23807 C 2499.21 -1.11901 1.74622 0
M  V30 23808 C 2499.64 -1.81879 0.479753 0
M  V30 23809 O 2499 -1.72205 -0.567035 0
M  V30 23810 C 2499.04 -2.1154 2.92033 0
M  V30 23811 O 2498.15 -3.18874 2.61521 0
M  V30 23812 H 2497.49 -0.324089 0.579537 0
M  V30 23813 H 2500.02 -0.406266 2.00526 0
M  V30 23814 H 2500.03 -2.54925 3.18555 0
M  V30 23815 H 2498.7 -1.60001 3.83891 0
M  V30 23816 H 2497.28 -2.80373 2.45857 0
M  V30 23817 N 2499.47 -1.45169 -0.613489 0
M  V30 23818 C 2500.72 -1.48583 -1.36994 0
M  V30 23819 C 2501.04 -0.126579 -1.94589 0
M  V30 23820 O 2500.31 0.843341 -1.76818 0
M  V30 23821 H 2498.89 -0.547163 -0.508549 0
M  V30 23822 H 2501.55 -1.81081 -0.720821 0
M  V30 23823 H 2500.64 -2.22131 -2.19236 0
M  V30 23824 N 2500.95 0.855472 -1.32361 0
M  V30 23825 C 2501.91 1.94553 -1.21168 0
M  V30 23826 C 2502.91 1.60233 -0.134936 0
M  V30 23827 O 2504.1 1.69886 -0.385279 0
M  V30 23828 C 2501.23 3.29789 -0.86325 0
M  V30 23829 H 2502.42 2.05907 -2.18042 0
M  V30 23830 H 2499.98 1.04555 -1.1618 0
M  V30 23831 H 2500.71 3.24134 0.103712 0
M  V30 23832 H 2500.5 3.56075 -1.64173 0
M  V30 23833 H 2501.99 4.09684 -0.809228 0
M  V30 23834 N 2502.42 1.15558 1.07164 0
M  V30 23835 C 2503.65 0.955551 1.83512 0
M  V30 23836 C 2504.07 -0.496178 1.82163 0
M  V30 23837 O 2503.42 -1.34417 1.23443 0
M  V30 23838 C 2503.47 1.46438 3.30512 0
M  V30 23839 O 2503.2 2.85924 3.31932 0
M  V30 23840 C 2504.7 1.3061 4.23622 0
M  V30 23841 H 2501.92 0.339254 0.57892 0
M  V30 23842 H 2504.46 1.53376 1.35263 0
M  V30 23843 H 2502.62 0.92865 3.76105 0
M  V30 23844 H 2503.03 3.09036 4.23789 0
M  V30 23845 H 2504.5 1.71056 5.24828 0
M  V30 23846 H 2504.98 0.250518 4.38485 0
M  V30 23847 H 2505.59 1.83101 3.83867 0
M  V30 23848 N 2503.9 -1.25546 0.952678 0
M  V30 23849 C 2505.13 -1.9782 0.623059 0
M  V30 23850 C 2505.55 -1.70354 -0.79757 0
M  V30 23851 O 2504.91 -0.95831 -1.53903 0
M  V30 23852 C 2504.96 -3.49556 0.885593 0
M  V30 23853 O 2504.06 -4.12384 -0.0365917 0
M  V30 23854 H 2503.4 -0.620228 0.237093 0
M  V30 23855 H 2505.93 -1.59716 1.27874 0
M  V30 23856 H 2505.94 -3.99857 0.811079 0
M  V30 23857 H 2504.62 -3.68877 1.92101 0
M  V30 23858 H 2503.19 -3.72791 0.089961 0
M  V30 23859 N 2505.38 -0.721022 -1.40139 0
M  V30 23860 C 2506.63 -0.262358 -2.0039 0
M  V30 23861 C 2506.95 1.15012 -1.57471 0
M  V30 23862 O 2506.22 1.78068 -0.816614 0
M  V30 23863 H 2504.8 -0.094009 -0.741061 0
M  V30 23864 H 2507.46 -0.927866 -1.71396 0
M  V30 23865 H 2506.56 -0.299726 -3.10657 0
M  V30 23866 N 2506.86 1.50503 -0.467606 0
M  V30 23867 C 2508.1 2.02606 0.0887176 0
M  V30 23868 C 2508.44 1.34915 1.39683 0
M  V30 23869 O 2507.71 0.473727 1.88643 0
M  V30 23870 C 2507.99 3.5904 0.276143 0
M  V30 23871 C 2507.85 4.37307 -1.05275 0
M  V30 23872 C 2509.17 4.27823 1.03227 0
M  V30 23873 H 2506.29 0.736357 0.0307684 0
M  V30 23874 H 2508.93 1.79856 -0.612517 0
M  V30 23875 H 2507.08 3.78554 0.873433 0
M  V30 23876 H 2508.75 4.29372 -1.68635 0
M  V30 23877 H 2506.99 4.01186 -1.65022 0
M  V30 23878 H 2507.66 5.45016 -0.875293 0
M  V30 23879 H 2510.14 4.12761 0.526038 0
M  V30 23880 H 2509.02 5.37096 1.13221 0
M  V30 23881 H 2509.28 3.90751 2.06799 0
M  V30 23882 N 2508.34 0.200077 1.56325 0
M  V30 23883 C 2509.75 -0.311638 1.84081 0
M  V30 23884 C 2510.1 -1.61029 1.1209 0
M  V30 23885 O 2509.22 -2.12977 0.383358 0
M  V30 23886 C 2509.82 -0.572201 3.33933 0
M  V30 23887 C 2508.38 -1.02827 3.62082 0
M  V30 23888 C 2507.52 -0.0795852 2.77186 0
M  V30 23889 H 2510.47 0.423756 1.52938 0
M  V30 23890 H 2510.5 -1.4209 3.52974 0
M  V30 23891 H 2510.01 0.373147 3.86302 0
M  V30 23892 H 2508.11 -1.98773 3.15151 0
M  V30 23893 H 2508.22 -0.917541 4.70232 0
M  V30 23894 H 2506.59 -0.582404 2.47952 0
M  V30 23895 H 2507.37 0.860297 3.32346 0
M  V30 23896 N 2509.81 -1.57429 -0.0734901 0
M  V30 23897 C 2511.09 -1.78228 -0.805872 0
M  V30 23898 C 2511.47 -0.787224 -1.95872 0
M  V30 23899 O 2510.82 0.179989 -2.2779 0
M  V30 23900 C 2511.03 -3.24664 -1.28039 0
M  V30 23901 C 2512.38 -3.88447 -1.71446 0
M  V30 23902 O 2513.4 -3.28545 -1.3761 0
M  V30 23903 O 2512.26 -4.93829 -2.34084 0
M  V30 23904 H 2509.35 -0.731376 -0.386028 0
M  V30 23905 H 2511.9 -1.69615 -0.0536971 0
M  V30 23906 H 2510.67 -3.88641 -0.455408 0
M  V30 23907 H 2510.29 -3.37994 -2.09394 0
M  V30 23908 N 2511.29 0.344839 -1.53781 0
M  V30 23909 C 2512.22 1.42903 -1.84665 0
M  V30 23910 C 2513.2 1.54953 -0.701675 0
M  V30 23911 O 2514.39 1.69182 -0.953467 0
M  V30 23912 C 2511.52 2.79971 -2.05508 0
M  V30 23913 C 2510.47 2.82728 -3.21323 0
M  V30 23914 C 2509.8 4.22669 -3.27498 0
M  V30 23915 C 2511.1 2.48381 -4.59461 0
M  V30 23916 H 2512.79 1.17306 -2.75463 0
M  V30 23917 H 2510.34 0.562872 -1.32543 0
M  V30 23918 H 2512.29 3.55863 -2.25697 0
M  V30 23919 H 2511.01 3.07 -1.1144 0
M  V30 23920 H 2509.67 2.09289 -3.00988 0
M  V30 23921 H 2509.32 4.46806 -2.31027 0
M  V30 23922 H 2509.02 4.25426 -4.05323 0
M  V30 23923 H 2510.55 5.00405 -3.49895 0
M  V30 23924 H 2511.96 3.13986 -4.79672 0
M  V30 23925 H 2510.36 2.62422 -5.3968 0
M  V30 23926 H 2511.43 1.43572 -4.63158 0
M  V30 23927 N 2512.77 1.45492 0.605781 0
M  V30 23928 C 2514.02 1.49825 1.36676 0
M  V30 23929 C 2514.35 0.140209 1.93693 0
M  V30 23930 O 2513.62 -0.84555 1.75159 0
M  V30 23931 C 2513.91 2.57883 2.51333 0
M  V30 23932 C 2513.76 4.03137 1.995 0
M  V30 23933 C 2515.08 2.62212 3.53459 0
M  V30 23934 H 2512.2 0.545475 0.495607 0
M  V30 23935 H 2514.84 1.77311 0.682701 0
M  V30 23936 H 2512.99 2.34577 3.09687 0
M  V30 23937 H 2514.66 4.37659 1.45782 0
M  V30 23938 H 2512.9 4.13709 1.30489 0
M  V30 23939 H 2513.58 4.74436 2.82161 0
M  V30 23940 H 2516.05 2.831 3.04948 0
M  V30 23941 H 2514.93 3.3968 4.31172 0
M  V30 23942 H 2515.19 1.6737 4.09194 0
M  V30 23943 N 2514.25 -0.848441 1.32813 0
M  V30 23944 C 2515.47 -1.64058 1.26885 0
M  V30 23945 C 2515.9 -1.87426 -0.159097 0
M  V30 23946 O 2515.26 -1.4315 -1.11256 0
M  V30 23947 C 2515.3 -2.97347 2.04002 0
M  V30 23948 O 2514.41 -3.88195 1.39207 0
M  V30 23949 H 2513.75 -0.499935 0.436991 0
M  V30 23950 H 2516.28 -1.05627 1.75226 0
M  V30 23951 H 2516.29 -3.47121 2.14409 0
M  V30 23952 H 2514.96 -2.79661 3.07835 0
M  V30 23953 H 2513.54 -3.46669 1.37387 0
M  V30 23954 N 2515.73 -1.16125 -1.06549 0
M  V30 23955 C 2516.97 -0.939299 -1.78946 0
M  V30 23956 C 2517.3 0.534443 -1.87533 0
M  V30 23957 O 2516.57 1.3883 -1.38213 0
M  V30 23958 H 2515.15 -0.344534 -0.662801 0
M  V30 23959 H 2517.81 -1.46344 -1.28722 0
M  V30 23960 H 2516.9 -1.35577 -2.81114 0
M  V30 23961 N 2517.2 1.25039 -0.959323 0
M  V30 23962 C 2518.43 1.96947 -0.633984 0
M  V30 23963 C 2518.85 1.71251 0.794886 0
M  V30 23964 O 2518.2 0.991314 1.53229 0
M  V30 23965 C 2518.26 3.50402 -0.888866 0
M  V30 23966 O 2517.98 3.75214 -2.26156 0
M  V30 23967 C 2519.48 4.39535 -0.57656 0
M  V30 23968 H 2516.7 0.627648 -0.237274 0
M  V30 23969 H 2519.24 1.59087 -1.28498 0
M  V30 23970 H 2517.4 3.86356 -0.284213 0
M  V30 23971 H 2517.81 4.69646 -2.33523 0
M  V30 23972 H 2519.28 5.46093 -0.80541 0
M  V30 23973 H 2519.76 4.36469 0.488998 0
M  V30 23974 H 2520.37 4.09154 -1.16074 0
M  V30 23975 N 2518.68 0.728444 1.39755 0
M  V30 23976 C 2519.91 0.283564 2.04948 0
M  V30 23977 C 2520.33 -1.07927 1.5491 0
M  V30 23978 O 2519.68 -1.68074 0.711164 0
M  V30 23979 C 2519.73 0.26902 3.60498 0
M  V30 23980 O 2519.45 1.57805 4.08692 0
M  V30 23981 C 2520.96 -0.192834 4.4288 0
M  V30 23982 H 2518.18 0.125068 0.659241 0
M  V30 23983 H 2520.72 0.990257 1.78925 0
M  V30 23984 H 2518.87 -0.388733 3.85445 0
M  V30 23985 H 2519.29 1.48718 5.02974 0
M  V30 23986 H 2520.76 -0.151855 5.51791 0
M  V30 23987 H 2521.24 -1.23701 4.2142 0
M  V30 23988 H 2521.85 0.435113 4.23068 0
M  V30 23989 N 2520.16 -1.50253 0.475581 0
M  V30 23990 C 2521.39 -2.07255 -0.0776678 0
M  V30 23991 C 2521.81 -1.33662 -1.32348 0
M  V30 23992 O 2521.17 -0.385628 -1.77151 0
M  V30 23993 C 2521.22 -3.58993 -0.340106 0
M  V30 23994 O 2520.32 -3.87191 -1.41975 0
M  V30 23995 H 2519.66 -0.663831 0.0149673 0
M  V30 23996 H 2522.19 -1.93391 0.667912 0
M  V30 23997 H 2522.2 -4.03867 -0.579261 0
M  V30 23998 H 2520.88 -4.11972 0.570239 0
M  V30 23999 H 2519.45 -3.5415 -1.16756 0
M  V30 24000 N 2521.64 -0.208365 -1.56217 0
M  V30 24001 C 2522.89 0.426042 -1.97558 0
M  V30 24002 C 2523.21 1.61227 -1.09686 0
M  V30 24003 O 2522.48 1.95152 -0.17099 0
M  V30 24004 H 2521.06 0.160393 -0.729577 0
M  V30 24005 H 2523.72 -0.298189 -1.92605 0
M  V30 24006 H 2522.82 0.761259 -3.02674 0
M  V30 24007 N 2523.12 1.57465 0.0651402 0
M  V30 24008 C 2524.34 1.92191 0.779572 0
M  V30 24009 C 2524.77 0.805363 1.69987 0
M  V30 24010 O 2524.12 -0.241404 1.79686 0
M  V30 24011 C 2524.17 3.25892 1.54358 0
M  V30 24012 O 2523.28 3.15595 2.65469 0
M  V30 24013 H 2522.62 0.629167 0.212238 0
M  V30 24014 H 2525.15 2.04576 0.0313934 0
M  V30 24015 H 2525.16 3.59926 1.92139 0
M  V30 24016 H 2523.83 4.06733 0.868386 0
M  V30 24017 H 2522.41 2.93132 2.30496 0
M  V30 24018 N 2524.59 -0.336679 1.53962 0
M  V30 24019 C 2525.84 -1.07402 1.71199 0
M  V30 24020 C 2526.16 -1.88962 0.481509 0
M  V30 24021 O 2525.43 -1.89291 -0.504552 0
M  V30 24022 H 2524.01 -0.399506 0.631192 0
M  V30 24023 H 2526.68 -0.37629 1.91233 0
M  V30 24024 H 2525.77 -1.74751 2.5859 0
M  V30 24025 N 2526.07 -1.45812 -0.598057 0
M  V30 24026 C 2526.98 -1.57766 -1.73629 0
M  V30 24027 C 2528 -0.461705 -1.67763 0
M  V30 24028 O 2529.17 -0.723718 -1.87948 0
M  V30 24029 C 2526.24 -1.55023 -3.10111 0
M  V30 24030 C 2525.3 -2.77731 -3.27359 0
M  V30 24031 C 2524.53 -2.7511 -4.57329 0
M  V30 24032 O 2524.76 -1.82979 -5.40254 0
M  V30 24033 O 2523.69 -3.66445 -4.77495 0
M  V30 24034 H 2527.52 -2.53995 -1.66494 0
M  V30 24035 H 2525.1 -1.2843 -0.763285 0
M  V30 24036 H 2526.98 -1.56135 -3.91407 0
M  V30 24037 H 2525.66 -0.619486 -3.17717 0
M  V30 24038 H 2524.57 -2.82178 -2.45614 0
M  V30 24039 H 2525.9 -3.69964 -3.24635 0
M  V30 24040 N 2527.55 0.841385 -1.33261 0
M  V30 24041 C 2528.78 1.63383 -1.27753 0
M  V30 24042 C 2529.2 1.87508 0.149155 0
M  V30 24043 O 2528.56 1.43738 1.10495 0
M  V30 24044 C 2528.61 2.96261 -2.05576 0
M  V30 24045 O 2527.71 3.87451 -1.41264 0
M  V30 24046 H 2527.05 0.49761 -0.439636 0
M  V30 24047 H 2529.58 1.04696 -1.75784 0
M  V30 24048 H 2529.59 3.45979 -2.16247 0
M  V30 24049 H 2528.27 2.78025 -3.09314 0
M  V30 24050 H 2526.84 3.45935 -1.39223 0
M  V30 24051 N 2529.03 1.16688 1.05932 0
M  V30 24052 C 2530.25 0.975487 1.83027 0
M  V30 24053 C 2530.68 -0.47142 1.82097 0
M  V30 24054 O 2530.04 -1.33704 1.22446 0
M  V30 24055 C 2530.09 1.51201 3.27369 0
M  V30 24056 O 2529.19 0.720772 4.06053 0
M  V30 24057 H 2528.53 0.346882 0.566188 0
M  V30 24058 H 2531.06 1.55011 1.33539 0
M  V30 24059 H 2531.07 1.53106 3.78183 0
M  V30 24060 H 2529.75 2.56529 3.27362 0
M  V30 24061 H 2528.32 0.772522 3.6481 0
M  V30 24062 N 2530.51 -1.24529 0.96594 0
M  V30 24063 C 2531.76 -1.92173 0.625627 0
M  V30 24064 C 2532.08 -1.75903 -0.841621 0
M  V30 24065 O 2531.35 -1.12951 -1.60059 0
M  V30 24066 H 2529.93 -0.711226 0.228401 0
M  V30 24067 H 2532.59 -1.51459 1.22663 0
M  V30 24068 H 2531.68 -2.99882 0.864706 0
M  V30 24069 N 2531.99 -0.735845 -1.39367 0
M  V30 24070 C 2533.23 -0.281039 -1.99732 0
M  V30 24071 C 2533.55 1.13843 -1.59057 0
M  V30 24072 O 2534.75 1.6928 -2.12265 0
M  V30 24073 C 2533.21 -0.451525 -3.57056 0
M  V30 24074 C 2532.82 -1.87893 -4.06694 0
M  V30 24075 C 2534.56 -0.0585362 -4.2446 0
M  V30 24076 C 2532.47 -1.99893 -5.56594 0
M  V30 24077 H 2531.4 -0.101324 -0.747161 0
M  V30 24078 H 2534.05 -0.909847 -1.59355 0
M  V30 24079 H 2532.43 0.246193 -3.95234 0
M  V30 24080 H 2533.61 -2.60868 -3.79848 0
M  V30 24081 H 2531.92 -2.22521 -3.51956 0
M  V30 24082 H 2534.52 -0.127193 -5.34549 0
M  V30 24083 H 2534.86 0.986362 -4.04446 0
M  V30 24084 H 2535.39 -0.707443 -3.91459 0
M  V30 24085 H 2532.13 -3.02574 -5.81489 0
M  V30 24086 H 2531.65 -1.31356 -5.8524 0
M  V30 24087 H 2533.33 -1.7805 -6.22019 0
M  V30 24088 N 2533.46 1.49999 -0.483543 0
M  V30 24089 C 2534.69 2.068 0.0644468 0
M  V30 24090 C 2535.11 1.34598 1.32397 0
M  V30 24091 O 2534.46 0.418977 1.77626 0
M  V30 24092 C 2534.51 3.59899 0.339863 0
M  V30 24093 O 2534.24 4.29381 -0.86971 0
M  V30 24094 C 2535.74 4.33361 0.933439 0
M  V30 24095 H 2532.96 0.670881 -0.0126451 0
M  V30 24096 H 2535.5 1.93007 -0.675897 0
M  V30 24097 H 2533.66 3.73452 1.03016 0
M  V30 24098 H 2534.07 5.208 -0.621882 0
M  V30 24099 H 2535.54 5.41415 1.07584 0
M  V30 24100 H 2536.02 3.94679 1.92678 0
M  V30 24101 H 2536.63 4.2437 0.281147 0
M  V30 24102 N 2534.94 0.216646 1.56104 0
M  V30 24103 C 2536.19 -0.416381 1.98173 0
M  V30 24104 C 2536.52 -1.6012 1.10416 0
M  V30 24105 O 2535.77 -1.9514 0.148001 0
M  V30 24106 C 2536.07 -0.898403 3.45924 0
M  V30 24107 C 2535.74 0.175367 4.50559 0
M  V30 24108 C 2534.4 0.470355 4.78896 0
M  V30 24109 C 2536.75 0.901818 5.13339 0
M  V30 24110 C 2534.08 1.4964 5.67296 0
M  V30 24111 C 2536.43 1.91716 6.0285 0
M  V30 24112 C 2535.09 2.21912 6.29533 0
M  V30 24113 H 2534.36 -0.152365 0.725166 0
M  V30 24114 H 2537.01 0.318137 1.88839 0
M  V30 24115 H 2535.32 -1.71159 3.52437 0
M  V30 24116 H 2537.01 -1.39796 3.75843 0
M  V30 24117 H 2533.6 -0.0647052 4.28551 0
M  V30 24118 H 2537.79 0.687159 4.9152 0
M  V30 24119 H 2533.04 1.73602 5.86236 0
M  V30 24120 H 2537.22 2.48516 6.50548 0
M  V30 24121 H 2534.84 3.0156 6.97829 0
M  V30 24122 N 2536.42 -1.57498 -0.0567885 0
M  V30 24123 C 2537.67 -1.88255 -0.754187 0
M  V30 24124 C 2538 -0.810896 -1.7646 0
M  V30 24125 O 2537.27 0.177225 -1.93691 0
M  V30 24126 C 2537.56 -3.29672 -1.44873 0
M  V30 24127 C 2537.41 -4.47506 -0.45371 0
M  V30 24128 C 2538.73 -3.69558 -2.38987 0
M  V30 24129 H 2535.85 -0.684688 -0.272712 0
M  V30 24130 H 2538.49 -1.89992 -0.0171779 0
M  V30 24131 H 2536.64 -3.28322 -2.07694 0
M  V30 24132 H 2538.31 -4.60985 0.170452 0
M  V30 24133 H 2536.55 -4.33192 0.229628 0
M  V30 24134 H 2537.23 -5.43274 -0.977603 0
M  V30 24135 H 2539.7 -3.72098 -1.86232 0
M  V30 24136 H 2538.58 -4.69368 -2.84579 0
M  V30 24137 H 2538.84 -3.00301 -3.24456 0
M  V30 24138 N 2537.9 0.328509 -1.54138 0
M  V30 24139 C 2539.17 1.08496 -1.62751 0
M  V30 24140 C 2539.55 2.06067 -0.458234 0
M  V30 24141 O 2538.9 2.21831 0.548007 0
M  V30 24142 C 2539.11 1.79129 -2.99522 0
M  V30 24143 C 2540.46 2.3233 -3.55398 0
M  V30 24144 O 2541.48 1.89204 -3.01795 0
M  V30 24145 O 2540.34 3.11271 -4.49191 0
M  V30 24146 H 2537.44 0.499821 -0.658869 0
M  V30 24147 H 2539.98 0.328797 -1.66484 0
M  V30 24148 H 2538.76 1.08132 -3.76063 0
M  V30 24149 H 2538.38 2.61568 -2.99446 0
M  V30 24150 N 2539.38 1.46127 0.590316 0
M  V30 24151 C 2540.6 1.546 1.37501 0
M  V30 24152 C 2541.02 0.18448 1.87897 0
M  V30 24153 O 2540.38 -0.816956 1.63193 0
M  V30 24154 C 2540.43 2.54458 2.56775 0
M  V30 24155 O 2540.15 3.85321 2.08469 0
M  V30 24156 C 2541.65 2.72798 3.49423 0
M  V30 24157 H 2538.87 0.523045 0.420316 0
M  V30 24158 H 2541.41 1.91468 0.71835 0
M  V30 24159 H 2539.57 2.20615 3.18446 0
M  V30 24160 H 2539.98 4.39605 2.8609 0
M  V30 24161 H 2541.46 3.46608 4.29613 0
M  V30 24162 H 2541.93 1.79436 4.00873 0
M  V30 24163 H 2542.54 3.07707 2.93592 0
M  V30 24164 N 2540.85 -0.834306 1.33705 0
M  V30 24165 C 2542.08 -1.62703 1.28618 0
M  V30 24166 C 2542.5 -1.87584 -0.139209 0
M  V30 24167 O 2541.86 -1.44322 -1.09731 0
M  V30 24168 C 2541.91 -2.95167 2.07144 0
M  V30 24169 O 2541.01 -3.86696 1.43317 0
M  V30 24170 H 2540.35 -0.495272 0.442269 0
M  V30 24171 H 2542.88 -1.03762 1.76336 0
M  V30 24172 H 2542.89 -3.44827 2.18079 0
M  V30 24173 H 2541.57 -2.7638 3.10784 0
M  V30 24174 H 2540.15 -3.45192 1.41056 0
M  V30 24175 N 2542.33 -1.17248 -1.05312 0
M  V30 24176 C 2543.26 -0.9114 -2.14978 0
M  V30 24177 C 2544.24 0.146139 -1.69471 0
M  V30 24178 O 2545.43 -0.00384614 -1.942 0
M  V30 24179 C 2542.56 -0.422589 -3.44719 0
M  V30 24180 C 2541.51 -1.41917 -4.03786 0
M  V30 24181 C 2540.84 -0.788367 -5.28856 0
M  V30 24182 C 2542.14 -2.79198 -4.41413 0
M  V30 24183 H 2543.83 -1.82852 -2.37077 0
M  V30 24184 H 2541.38 -0.880589 -1.13937 0
M  V30 24185 H 2543.33 -0.227363 -4.20786 0
M  V30 24186 H 2542.05 0.530067 -3.2227 0
M  V30 24187 H 2540.71 -1.60112 -3.29787 0
M  V30 24188 H 2540.36 0.171085 -5.02709 0
M  V30 24189 H 2540.06 -1.45363 -5.69336 0
M  V30 24190 H 2541.59 -0.603389 -6.07611 0
M  V30 24191 H 2543 -2.64728 -5.08519 0
M  V30 24192 H 2541.4 -3.42291 -4.92907 0
M  V30 24193 H 2542.47 -3.337 -3.51813 0
M  V30 24194 N 2543.81 1.24015 -0.972531 0
M  V30 24195 C 2545.06 1.92503 -0.638012 0
M  V30 24196 C 2545.39 1.75788 0.825352 0
M  V30 24197 O 2544.66 1.11396 1.5944 0
M  V30 24198 C 2544.95 3.45367 -1.01948 0
M  V30 24199 C 2544.8 3.71227 -2.5399 0
M  V30 24200 C 2546.12 4.36554 -0.557587 0
M  V30 24201 H 2543.24 0.699113 -0.23326 0
M  V30 24202 H 2545.88 1.4629 -1.2124 0
M  V30 24203 H 2544.03 3.84858 -0.530723 0
M  V30 24204 H 2545.7 3.41266 -3.1038 0
M  V30 24205 H 2543.95 3.1621 -2.96974 0
M  V30 24206 H 2544.62 4.78201 -2.75731 0
M  V30 24207 H 2547.09 4.04465 -0.9771 0
M  V30 24208 H 2545.97 5.42231 -0.853015 0
M  V30 24209 H 2546.23 4.38762 0.542251 0
M  V30 24210 N 2545.29 0.743226 1.38974 0
M  V30 24211 C 2546.2 0.11044 2.3434 0
M  V30 24212 C 2547.21 -0.712531 1.58742 0
M  V30 24213 O 2548.39 -0.639092 1.90991 0
M  V30 24214 C 2545.46 -0.779953 3.37813 0
M  V30 24215 C 2544.52 0.0562073 4.29263 0
M  V30 24216 C 2543.75 -0.791782 5.27794 0
M  V30 24217 O 2543.97 -2.03021 5.33046 0
M  V30 24218 O 2542.91 -0.216077 6.01512 0
M  V30 24219 H 2546.73 0.897765 2.90127 0
M  V30 24220 H 2544.32 0.503991 1.40642 0
M  V30 24221 H 2546.2 -1.28916 4.01197 0
M  V30 24222 H 2544.87 -1.54595 2.84398 0
M  V30 24223 H 2543.78 0.611121 3.69075 0
M  V30 24224 H 2545.11 0.784617 4.85906 0
M  V30 24225 N 2546.77 -1.4974 0.491491 0
M  V30 24226 C 2548.01 -2.02721 -0.0564735 0
M  V30 24227 C 2548.35 -1.37121 -1.37519 0
M  V30 24228 O 2547.62 -0.503678 -1.87865 0
M  V30 24229 C 2547.9 -3.59434 -0.218988 0
M  V30 24230 C 2547.76 -4.35577 1.12219 0
M  V30 24231 C 2549.08 -4.29411 -0.964081 0
M  V30 24232 H 2546.19 -0.736754 -0.0190497 0
M  V30 24233 H 2548.84 -1.78859 0.641053 0
M  V30 24234 H 2546.99 -3.79896 -0.813098 0
M  V30 24235 H 2548.66 -4.26634 1.75445 0
M  V30 24236 H 2546.9 -3.9851 1.71384 0
M  V30 24237 H 2547.57 -5.43555 0.961889 0
M  V30 24238 H 2550.05 -4.13546 -0.460305 0
M  V30 24239 H 2548.92 -5.38829 -1.04662 0
M  V30 24240 H 2549.19 -3.93992 -2.00556 0
M  V30 24241 N 2548.24 -0.224922 -1.55987 0
M  V30 24242 C 2549.21 0.670309 -2.19179 0
M  V30 24243 C 2550.21 1.11915 -1.15463 0
M  V30 24244 O 2551.4 1.02741 -1.40677 0
M  V30 24245 C 2548.53 1.91866 -2.81781 0
M  V30 24246 H 2549.72 0.119311 -2.99663 0
M  V30 24247 H 2547.28 0.0246853 -1.56281 0
M  V30 24248 H 2548.01 2.51144 -2.05176 0
M  V30 24249 H 2547.8 1.60525 -3.57735 0
M  V30 24250 H 2549.29 2.5564 -3.30209 0
M  V30 24251 N 2549.72 1.57526 0.0484352 0
M  V30 24252 C 2551.13 1.76882 0.597455 0
M  V30 24253 C 2551.48 0.853506 1.76663 0
M  V30 24254 O 2550.61 0.0434036 2.16356 0
M  V30 24255 C 2551.2 3.20767 1.0906 0
M  V30 24256 C 2549.76 3.41387 1.58529 0
M  V30 24257 C 2548.91 2.72479 0.51482 0
M  V30 24258 H 2551.86 1.57701 -0.177786 0
M  V30 24259 H 2551.88 3.26214 1.95869 0
M  V30 24260 H 2551.39 3.87361 0.239452 0
M  V30 24261 H 2549.5 2.79941 2.45893 0
M  V30 24262 H 2549.61 4.49932 1.64614 0
M  V30 24263 H 2547.97 2.35696 0.965366 0
M  V30 24264 H 2548.76 3.41743 -0.326541 0
M  V30 24265 N 2551.2 -0.32033 1.5431 0
M  V30 24266 C 2552.43 -1.07735 1.76638 0
M  V30 24267 C 2552.84 -1.81597 0.516522 0
M  V30 24268 O 2552.2 -1.75144 -0.512911 0
M  V30 24269 C 2552.25 -2.07293 2.96162 0
M  V30 24270 O 2551.97 -1.36431 4.16315 0
M  V30 24271 C 2553.47 -2.95188 3.30725 0
M  V30 24272 H 2550.69 -0.320328 0.589602 0
M  V30 24273 H 2553.24 -0.365475 2.01208 0
M  V30 24274 H 2551.39 -2.74011 2.73856 0
M  V30 24275 H 2551.81 -2.03129 4.83569 0
M  V30 24276 H 2553.28 -3.60933 4.17649 0
M  V30 24277 H 2553.76 -3.62459 2.48033 0
M  V30 24278 H 2554.36 -2.34028 3.55121 0
M  V30 24279 N 2552.68 -1.46438 -0.582558 0
M  V30 24280 C 2553.91 -1.55327 -1.36679 0
M  V30 24281 C 2554.32 -0.194442 -1.87796 0
M  V30 24282 O 2553.68 0.80829 -1.63624 0
M  V30 24283 C 2553.73 -2.55817 -2.55421 0
M  V30 24284 O 2553.45 -3.86421 -2.06423 0
M  V30 24285 C 2554.95 -2.74647 -3.47971 0
M  V30 24286 H 2552.17 -0.525266 -0.417536 0
M  V30 24287 H 2554.72 -1.91846 -0.708185 0
M  V30 24288 H 2552.87 -2.22301 -3.17272 0
M  V30 24289 H 2553.28 -4.41116 -2.83754 0
M  V30 24290 H 2554.76 -3.48881 -4.27769 0
M  V30 24291 H 2555.24 -1.8156 -3.99916 0
M  V30 24292 H 2555.84 -3.0926 -2.91956 0
M  V30 24293 N 2554.16 0.827204 -1.34146 0
M  V30 24294 C 2555.4 1.58317 -1.26261 0
M  V30 24295 C 2555.73 1.93768 0.168561 0
M  V30 24296 O 2554.99 1.59868 1.12874 0
M  V30 24297 C 2555.29 2.89581 -2.09469 0
M  V30 24298 C 2554.95 2.73441 -3.58526 0
M  V30 24299 C 2553.61 2.68747 -3.9916 0
M  V30 24300 C 2555.97 2.5742 -4.53193 0
M  V30 24301 C 2553.29 2.45947 -5.3266 0
M  V30 24302 C 2555.65 2.36153 -5.86869 0
M  V30 24303 C 2554.31 2.29868 -6.26671 0
M  V30 24304 H 2553.58 0.579324 -0.462023 0
M  V30 24305 H 2556.23 0.95745 -1.65847 0
M  V30 24306 H 2554.53 3.56422 -1.62698 0
M  V30 24307 H 2556.23 3.4715 -2.00718 0
M  V30 24308 H 2552.82 2.77933 -3.26269 0
M  V30 24309 H 2557 2.60073 -4.227 0
M  V30 24310 H 2552.26 2.39536 -5.62523 0
M  V30 24311 H 2556.43 2.22742 -6.59817 0
M  V30 24312 H 2554.06 2.11962 -7.30052 0
M  V30 24313 N 2555.63 1.17805 1.04688 0
M  V30 24314 C 2556.58 0.899381 2.12555 0
M  V30 24315 C 2557.55 -0.158742 1.6534 0
M  V30 24316 O 2558.74 -0.0204462 1.90789 0
M  V30 24317 C 2555.88 0.424375 3.42481 0
M  V30 24318 C 2554.99 1.5472 4.03343 0
M  V30 24319 C 2554.12 1.02556 5.21206 0
M  V30 24320 C 2553.16 2.12349 5.74086 0
M  V30 24321 N 2552.3 1.61624 6.83244 0
M  V30 24322 H 2557.14 1.82305 2.35731 0
M  V30 24323 H 2554.68 0.909179 1.15639 0
M  V30 24324 H 2556.64 0.130495 4.16996 0
M  V30 24325 H 2555.27 -0.462321 3.19472 0
M  V30 24326 H 2554.32 1.9567 3.26217 0
M  V30 24327 H 2555.63 2.37509 4.38624 0
M  V30 24328 H 2554.78 0.685824 6.02811 0
M  V30 24329 H 2553.52 0.167169 4.87413 0
M  V30 24330 H 2552.53 2.47174 4.91106 0
M  V30 24331 H 2553.75 2.98612 6.09924 0
M  V30 24332 H 2551.7 0.780647 6.51339 0
M  V30 24333 H 2551.62 2.38016 7.17554 0
M  V30 24334 H 2552.88 1.30559 7.68489 0
M  V30 24335 N 2557.11 -1.23497 0.979094 0
M  V30 24336 C 2558.02 -2.28616 0.526472 0
M  V30 24337 C 2559.04 -1.68902 -0.418097 0
M  V30 24338 O 2560.21 -1.99325 -0.288337 0
M  V30 24339 C 2557.28 -3.46306 -0.165174 0
M  V30 24340 C 2556.34 -4.21384 0.820634 0
M  V30 24341 C 2555.57 -5.33454 0.1619 0
M  V30 24342 O 2555.8 -5.60702 -1.04732 0
M  V30 24343 O 2554.73 -5.95727 0.859813 0
M  V30 24344 H 2558.56 -2.69473 1.40065 0
M  V30 24345 H 2556.14 -1.29404 0.746665 0
M  V30 24346 H 2558.02 -4.17753 -0.553213 0
M  V30 24347 H 2556.7 -3.07404 -1.01413 0
M  V30 24348 H 2555.61 -3.52266 1.25935 0
M  V30 24349 H 2556.94 -4.64132 1.63836 0
M  V30 24350 N 2558.59 -0.750586 -1.38578 0
M  V30 24351 C 2559.5 -0.122866 -2.34278 0
M  V30 24352 C 2560.52 0.704103 -1.59118 0
M  V30 24353 O 2561.69 0.628954 -1.91327 0
M  V30 24354 C 2558.76 0.762027 -3.38222 0
M  V30 24355 C 2557.82 -0.0789714 -4.29227 0
M  V30 24356 C 2557.05 0.763781 -5.28206 0
M  V30 24357 O 2557.28 2.00192 -5.34116 0
M  V30 24358 O 2556.21 0.184174 -6.01618 0
M  V30 24359 H 2560.04 -0.913139 -2.89647 0
M  V30 24360 H 2557.62 -0.511442 -1.40373 0
M  V30 24361 H 2559.5 1.26786 -4.01875 0
M  V30 24362 H 2558.18 1.53085 -2.85214 0
M  V30 24363 H 2557.08 -0.630686 -3.68745 0
M  V30 24364 H 2558.42 -0.810375 -4.85483 0
M  V30 24365 N 2560.07 1.49477 -0.499425 0
M  V30 24366 C 2560.98 2.32869 0.284448 0
M  V30 24367 C 2562 1.44531 0.968859 0
M  V30 24368 O 2563.17 1.77555 0.950589 0
M  V30 24369 C 2560.24 3.1993 1.33588 0
M  V30 24370 C 2559.3 4.24117 0.665075 0
M  V30 24371 C 2558.53 5.07017 1.66641 0
M  V30 24372 O 2558.75 4.91409 2.89609 0
M  V30 24373 O 2557.69 5.89352 1.2226 0
M  V30 24374 H 2561.51 3.0108 -0.398073 0
M  V30 24375 H 2559.1 1.47106 -0.260784 0
M  V30 24376 H 2560.98 3.73868 1.94424 0
M  V30 24377 H 2559.66 2.54416 2.00136 0
M  V30 24378 H 2558.56 3.74096 0.0170112 0
M  V30 24379 H 2559.9 4.92182 0.042069 0
M  V30 24380 N 2561.55 0.233191 1.55865 0
M  V30 24381 C 2562.8 -0.394558 1.98211 0
M  V30 24382 C 2563.12 -1.59461 1.12237 0
M  V30 24383 O 2562.39 -1.94856 0.202016 0
M  V30 24384 H 2560.97 -0.148765 0.732037 0
M  V30 24385 H 2563.63 0.328793 1.92107 0
M  V30 24386 H 2562.72 -0.71301 3.03846 0
M  V30 24387 N 2563.03 -1.57549 -0.0400806 0
M  V30 24388 C 2563.96 -2.08871 -1.0438 0
M  V30 24389 C 2564.94 -0.988842 -1.38405 0
M  V30 24390 O 2566.12 -1.26345 -1.47481 0
M  V30 24391 C 2563.25 -2.55899 -2.34804 0
M  V30 24392 C 2562.21 -3.70051 -2.1505 0
M  V30 24393 C 2561.53 -4.03245 -3.51137 0
M  V30 24394 C 2562.83 -4.98905 -1.54567 0
M  V30 24395 H 2564.53 -2.92982 -0.616615 0
M  V30 24396 H 2562.07 -1.40943 -0.295159 0
M  V30 24397 H 2564.02 -2.90422 -3.05341 0
M  V30 24398 H 2562.75 -1.68858 -2.79562 0
M  V30 24399 H 2561.41 -3.3586 -1.46948 0
M  V30 24400 H 2561.06 -3.13286 -3.93523 0
M  V30 24401 H 2560.76 -4.80128 -3.38749 0
M  V30 24402 H 2562.28 -4.40292 -4.23054 0
M  V30 24403 H 2563.69 -5.31455 -2.15008 0
M  V30 24404 H 2562.09 -5.80324 -1.52786 0
M  V30 24405 H 2563.16 -4.82207 -0.510306 0
M  V30 24406 N 2564.5 0.312142 -1.54478 0
M  V30 24407 C 2565.75 1.04665 -1.72886 0
M  V30 24408 C 2566.07 1.88172 -0.51151 0
M  V30 24409 O 2565.34 1.9007 0.474373 0
M  V30 24410 H 2563.92 0.389414 -0.637468 0
M  V30 24411 H 2566.58 0.345818 -1.91807 0
M  V30 24412 H 2565.68 1.70615 -2.61337 0
M  V30 24413 N 2565.98 1.46745 0.574784 0
M  V30 24414 C 2567.21 1.5629 1.36338 0
M  V30 24415 C 2567.63 0.20738 1.86953 0
M  V30 24416 O 2566.99 -0.813842 1.62007 0
M  V30 24417 C 2567.04 2.57791 2.52143 0
M  V30 24418 O 2566.14 2.11844 3.5383 0
M  V30 24419 H 2565.48 0.525643 0.405703 0
M  V30 24420 H 2568.01 1.92383 0.696419 0
M  V30 24421 H 2568.02 2.77653 2.98953 0
M  V30 24422 H 2566.7 3.56224 2.14657 0
M  V30 24423 H 2565.27 2.02005 3.13446 0
M  V30 24424 N 2567.46 -0.820078 1.34583 0
M  V30 24425 C 2568.71 -1.57879 1.27287 0
M  V30 24426 C 2569.04 -1.93572 -0.156103 0
M  V30 24427 O 2568.31 -1.60256 -1.10219 0
M  V30 24428 C 2568.6 -2.87641 2.16644 0
M  V30 24429 C 2568.45 -2.5851 3.68093 0
M  V30 24430 C 2569.77 -3.89236 2.05385 0
M  V30 24431 H 2566.89 -0.572825 0.463725 0
M  V30 24432 H 2569.53 -0.94451 1.64861 0
M  V30 24433 H 2567.68 -3.4177 1.84731 0
M  V30 24434 H 2569.35 -2.10669 4.10386 0
M  V30 24435 H 2567.59 -1.9191 3.89041 0
M  V30 24436 H 2568.27 -3.51056 4.25986 0
M  V30 24437 H 2570.74 -3.44469 2.33411 0
M  V30 24438 H 2569.62 -4.7783 2.70128 0
M  V30 24439 H 2569.88 -4.29894 1.03168 0
M  V30 24440 N 2568.94 -1.18359 -1.04062 0
M  V30 24441 C 2569.85 -0.925634 -2.15567 0
M  V30 24442 C 2570.86 0.110265 -1.7365 0
M  V30 24443 O 2572.04 -0.0716572 -2.01272 0
M  V30 24444 C 2569.1 -0.454897 -3.43703 0
M  V30 24445 C 2568.17 -1.55877 -4.00001 0
M  V30 24446 C 2567.4 -1.11039 -5.22021 0
M  V30 24447 O 2567.62 0.0308754 -5.70392 0
M  V30 24448 O 2566.56 -1.90815 -5.70853 0
M  V30 24449 H 2570.38 -1.85864 -2.40183 0
M  V30 24450 H 2567.97 -0.965414 -1.14018 0
M  V30 24451 H 2569.85 -0.200456 -4.20923 0
M  V30 24452 H 2568.52 0.449819 -3.20559 0
M  V30 24453 H 2567.43 -1.86722 -3.24169 0
M  V30 24454 H 2568.76 -2.43961 -4.27486 0
M  V30 24455 N 2570.42 1.22976 -0.98563 0
M  V30 24456 C 2571.35 2.26938 -0.549689 0
M  V30 24457 C 2572.33 1.64839 0.419774 0
M  V30 24458 O 2573.51 1.91677 0.311997 0
M  V30 24459 C 2570.64 3.47003 0.143591 0
M  V30 24460 C 2569.6 4.2149 -0.74368 0
M  V30 24461 C 2568.92 5.34637 0.0821087 0
M  V30 24462 C 2570.22 4.80939 -2.03703 0
M  V30 24463 H 2571.92 2.63655 -1.41867 0
M  V30 24464 H 2569.46 1.2674 -0.683594 0
M  V30 24465 H 2571.41 4.18883 0.459911 0
M  V30 24466 H 2570.14 3.09361 1.04706 0
M  V30 24467 H 2568.8 3.51434 -1.04353 0
M  V30 24468 H 2568.45 4.93236 0.986272 0
M  V30 24469 H 2568.15 5.85396 -0.50848 0
M  V30 24470 H 2569.67 6.09336 0.39269 0
M  V30 24471 H 2571.08 5.44799 -1.78513 0
M  V30 24472 H 2569.48 5.42007 -2.57583 0
M  V30 24473 H 2570.55 4.01394 -2.72049 0
M  V30 24474 N 2571.89 0.757924 1.38178 0
M  V30 24475 C 2573.12 0.325715 2.04826 0
M  V30 24476 C 2573.54 -1.03916 1.5679 0
M  V30 24477 O 2572.9 -1.6631 0.721841 0
M  V30 24478 C 2572.95 0.36251 3.58773 0
M  V30 24479 O 2572.05 -0.641961 4.07373 0
M  V30 24480 H 2571.39 0.143413 0.648328 0
M  V30 24481 H 2573.92 1.03026 1.76768 0
M  V30 24482 H 2573.93 0.214915 4.07434 0
M  V30 24483 H 2572.61 1.35831 3.93094 0
M  V30 24484 H 2571.19 -0.458623 3.70069 0
M  V30 24485 N 2573.37 -1.4921 0.507345 0
M  V30 24486 C 2574.62 -2.0207 -0.0348484 0
M  V30 24487 C 2574.94 -1.38869 -1.36896 0
M  V30 24488 O 2574.21 -0.546184 -1.88132 0
M  V30 24489 H 2572.79 -0.746831 -0.0158681 0
M  V30 24490 H 2575.45 -1.83167 0.66603 0
M  V30 24491 H 2574.55 -3.1169 -0.159862 0
M  V30 24492 N 2574.85 -0.241454 -1.55739 0
M  V30 24493 C 2575.78 0.654682 -2.24134 0
M  V30 24494 C 2576.76 1.18558 -1.21976 0
M  V30 24495 O 2577.95 1.22592 -1.50615 0
M  V30 24496 C 2575.08 1.85418 -2.93662 0
M  V30 24497 C 2574.03 1.45629 -4.02463 0
M  V30 24498 C 2573.36 2.73618 -4.59388 0
M  V30 24499 C 2574.66 0.631415 -5.18469 0
M  V30 24500 H 2576.35 0.0843827 -2.99281 0
M  V30 24501 H 2573.9 0.0391454 -1.43947 0
M  V30 24502 H 2575.85 2.4867 -3.40208 0
M  V30 24503 H 2574.57 2.44977 -2.15995 0
M  V30 24504 H 2573.23 0.84714 -3.56678 0
M  V30 24505 H 2572.88 3.31363 -3.78428 0
M  V30 24506 H 2572.58 2.47721 -5.3283 0
M  V30 24507 H 2574.1 3.37777 -5.08664 0
M  V30 24508 H 2575.52 1.1681 -5.61274 0
M  V30 24509 H 2573.92 0.468726 -5.98267 0
M  V30 24510 H 2574.99 -0.357591 -4.8358 0
M  V30 24511 N 2576.33 1.57568 0.0317248 0
M  V30 24512 C 2577.74 1.77506 0.57866 0
M  V30 24513 C 2578.09 0.872195 1.75748 0
M  V30 24514 O 2577.22 0.0663487 2.16298 0
M  V30 24515 C 2577.81 3.21905 1.05652 0
M  V30 24516 C 2576.37 3.4305 1.549 0
M  V30 24517 C 2575.52 2.7301 0.485891 0
M  V30 24518 H 2578.47 1.57504 -0.194502 0
M  V30 24519 H 2578.49 3.28273 1.92399 0
M  V30 24520 H 2578 3.87593 0.198354 0
M  V30 24521 H 2576.1 2.82534 2.4291 0
M  V30 24522 H 2576.21 4.51653 1.59833 0
M  V30 24523 H 2574.58 2.36707 0.940313 0
M  V30 24524 H 2575.36 3.41378 -0.362769 0
M  V30 24525 N 2577.81 -0.303946 1.54641 0
M  V30 24526 C 2579.03 -1.06289 1.78094 0
M  V30 24527 C 2579.46 -1.80261 0.537374 0
M  V30 24528 O 2578.81 -1.73921 -0.511963 0
M  V30 24529 C 2578.86 -2.02142 2.98615 0
M  V30 24530 O 2577.97 -3.10392 2.71534 0
M  V30 24531 H 2577.31 -0.305487 0.589554 0
M  V30 24532 H 2579.84 -0.342265 2.01717 0
M  V30 24533 H 2579.85 -2.44661 3.26504 0
M  V30 24534 H 2578.52 -1.47707 3.88787 0
M  V30 24535 H 2577.1 -2.72409 2.54652 0
M  V30 24536 N 2579.28 -1.47047 -0.566994 0
M  V30 24537 C 2580.53 -1.52867 -1.32198 0
M  V30 24538 C 2580.85 -0.188422 -1.94088 0
M  V30 24539 O 2580.12 0.786661 -1.79411 0
M  V30 24540 H 2578.7 -0.563065 -0.490884 0
M  V30 24541 H 2581.37 -1.83282 -0.662847 0
M  V30 24542 H 2580.46 -2.28993 -2.12058 0
M  V30 24543 N 2580.76 0.812929 -1.35016 0
M  V30 24544 C 2581.67 1.9561 -1.29514 0
M  V30 24545 C 2582.69 1.72834 -0.201101 0
M  V30 24546 O 2583.86 1.9677 -0.429355 0
M  V30 24547 C 2580.93 3.30086 -1.06039 0
M  V30 24548 C 2579.99 3.65802 -2.24695 0
M  V30 24549 C 2579.22 4.9386 -2.02331 0
M  V30 24550 O 2579.45 5.61803 -0.986563 0
M  V30 24551 O 2578.38 5.27687 -2.89534 0
M  V30 24552 H 2582.21 2.03198 -2.25709 0
M  V30 24553 H 2579.79 0.94979 -1.15323 0
M  V30 24554 H 2581.67 4.10605 -0.947702 0
M  V30 24555 H 2580.35 3.23443 -0.128909 0
M  V30 24556 H 2579.26 2.85685 -2.41526 0
M  V30 24557 H 2580.59 3.77141 -3.16268 0
M  V30 24558 N 2582.24 1.18909 1.03433 0
M  V30 24559 C 2583.2 0.923881 2.09755 0
M  V30 24560 C 2584.2 -0.0933878 1.60529 0
M  V30 24561 O 2585.39 0.140757 1.7363 0
M  V30 24562 C 2582.53 0.387413 3.38691 0
M  V30 24563 H 2583.72 1.86678 2.34716 0
M  V30 24564 H 2581.27 1.00199 1.19958 0
M  V30 24565 H 2582.01 -0.561789 3.19397 0
M  V30 24566 H 2581.79 1.12081 3.7574 0
M  V30 24567 H 2583.28 0.220767 4.17016 0
M  V30 24568 N 2583.72 -1.22452 0.992137 0
M  V30 24569 C 2585 -1.86693 0.583541 0
M  V30 24570 C 2585.38 -1.89058 -0.939166 0
M  V30 24571 O 2584.72 -1.38056 -1.82079 0
M  V30 24572 C 2584.93 -3.27607 1.20309 0
M  V30 24573 C 2586.28 -4.04108 1.30315 0
M  V30 24574 O 2587.31 -3.36871 1.15743 0
M  V30 24575 O 2586.16 -5.24463 1.53625 0
M  V30 24576 H 2583.26 -0.802912 0.198143 0
M  V30 24577 H 2585.8 -1.30236 1.08797 0
M  V30 24578 H 2584.58 -3.20516 2.24467 0
M  V30 24579 H 2584.2 -3.91669 0.684213 0
M  V30 24580 N 2585.2 -0.765242 -1.37774 0
M  V30 24581 C 2586.13 -0.160994 -2.32944 0
M  V30 24582 C 2587.11 0.690488 -1.55455 0
M  V30 24583 O 2588.29 0.629286 -1.83722 0
M  V30 24584 C 2585.42 0.723971 -3.3967 0
M  V30 24585 C 2584.38 -0.0256925 -4.27992 0
M  V30 24586 C 2583.7 0.97829 -5.25674 0
M  V30 24587 C 2585 -1.20091 -5.08306 0
M  V30 24588 H 2586.7 -0.956019 -2.83726 0
M  V30 24589 H 2584.24 -0.461173 -1.36416 0
M  V30 24590 H 2586.2 1.15645 -4.05221 0
M  V30 24591 H 2584.92 1.55144 -2.87398 0
M  V30 24592 H 2583.58 -0.438876 -3.63964 0
M  V30 24593 H 2583.23 1.80014 -4.69685 0
M  V30 24594 H 2582.93 0.481275 -5.85626 0
M  V30 24595 H 2584.45 1.40984 -5.94101 0
M  V30 24596 H 2585.86 -0.845407 -5.67032 0
M  V30 24597 H 2584.26 -1.62957 -5.77551 0
M  V30 24598 H 2585.33 -2.00819 -4.41361 0
M  V30 24599 N 2586.67 1.48939 -0.515251 0
M  V30 24600 C 2587.9 2.07388 0.0226906 0
M  V30 24601 C 2588.32 1.37124 1.28758 0
M  V30 24602 O 2587.68 0.432461 1.76067 0
M  V30 24603 C 2587.73 3.59768 0.244806 0
M  V30 24604 O 2586.83 3.90819 1.3166 0
M  V30 24605 H 2586.18 0.663201 -0.0325623 0
M  V30 24606 H 2588.71 1.91552 -0.718951 0
M  V30 24607 H 2588.72 4.05261 0.471979 0
M  V30 24608 H 2587.39 4.10315 -0.679266 0
M  V30 24609 H 2585.97 3.57122 1.07325 0
M  V30 24610 N 2588.15 0.249709 1.55609 0
M  V30 24611 C 2589.4 -0.373513 1.98618 0
M  V30 24612 C 2589.72 -1.58262 1.13922 0
M  V30 24613 O 2588.99 -1.9463 0.222671 0
M  V30 24614 H 2587.57 -0.140993 0.733573 0
M  V30 24615 H 2590.23 0.34915 1.91747 0
M  V30 24616 H 2589.33 -0.680743 3.04585 0
M  V30 24617 N 2589.63 -1.57583 -0.0233682 0
M  V30 24618 C 2590.58 -2.06929 -1.02221 0
M  V30 24619 C 2591.55 -0.959641 -1.35573 0
M  V30 24620 O 2592.73 -1.23058 -1.45813 0
M  V30 24621 C 2589.87 -2.55814 -2.31632 0
M  V30 24622 C 2588.99 -3.80591 -2.04388 0
M  V30 24623 C 2588.12 -4.18067 -3.2771 0
M  V30 24624 C 2587.16 -5.35745 -2.96046 0
M  V30 24625 N 2586.3 -5.68625 -4.11837 0
M  V30 24626 H 2591.14 -2.92011 -0.594453 0
M  V30 24627 H 2588.67 -1.44374 -0.281896 0
M  V30 24628 H 2590.63 -2.82226 -3.07253 0
M  V30 24629 H 2589.26 -1.73641 -2.72119 0
M  V30 24630 H 2588.31 -3.61229 -1.19238 0
M  V30 24631 H 2589.63 -4.66327 -1.77034 0
M  V30 24632 H 2588.78 -4.45637 -4.11695 0
M  V30 24633 H 2587.52 -3.30994 -3.58182 0
M  V30 24634 H 2586.52 -5.07922 -2.10465 0
M  V30 24635 H 2587.75 -6.24476 -2.66846 0
M  V30 24636 H 2585.7 -4.84511 -4.4225 0
M  V30 24637 H 2585.61 -6.48883 -3.87927 0
M  V30 24638 H 2586.88 -6.00775 -4.96678 0
M  V30 24639 N 2591.11 0.29574 -1.548 0
M  V30 24640 C 2592.33 1.05343 -1.78655 0
M  V30 24641 C 2592.76 1.79973 -0.546926 0
M  V30 24642 O 2592.12 1.7419 0.502732 0
M  V30 24643 C 2592.17 2.00555 -2.99683 0
M  V30 24644 O 2591.27 3.08948 -2.73176 0
M  V30 24645 H 2590.61 0.302356 -0.591166 0
M  V30 24646 H 2593.14 0.331562 -2.01896 0
M  V30 24647 H 2593.15 2.42926 -3.27797 0
M  V30 24648 H 2591.83 1.45643 -3.89565 0
M  V30 24649 H 2590.4 2.71055 -2.56093 0
M  V30 24650 N 2592.59 1.47346 0.559187 0
M  V30 24651 C 2593.84 1.53565 1.31385 0
M  V30 24652 C 2594.16 0.198712 1.93985 0
M  V30 24653 O 2593.43 -0.777135 1.79826 0
M  V30 24654 H 2592.01 0.56566 0.487891 0
M  V30 24655 H 2594.67 1.83631 0.653117 0
M  V30 24656 H 2593.76 2.30115 2.1084 0
M  V30 24657 N 2594.07 -0.805758 1.35445 0
M  V30 24658 C 2595 -1.92351 1.22786 0
M  V30 24659 C 2595.98 -1.62189 0.115572 0
M  V30 24660 O 2597.16 -1.86351 0.28381 0
M  V30 24661 C 2594.29 -3.26776 0.890804 0
M  V30 24662 C 2593.33 -3.75885 2.01526 0
M  V30 24663 S 2594.17 -3.9359 3.63108 0
M  V30 24664 C 2595.32 -5.30915 3.31481 0
M  V30 24665 H 2595.56 -2.02795 2.17397 0
M  V30 24666 H 2593.09 -0.963224 1.2067 0
M  V30 24667 H 2595.05 -4.04433 0.703139 0
M  V30 24668 H 2593.71 -3.14078 -0.03726 0
M  V30 24669 H 2592.9 -4.73247 1.73359 0
M  V30 24670 H 2592.5 -3.05228 2.1613 0
M  V30 24671 H 2594.79 -6.14935 2.84361 0
M  V30 24672 H 2595.74 -5.64076 4.28046 0
M  V30 24673 H 2596.15 -4.97241 2.6723 0
M  V30 24674 N 2595.54 -1.19456 -1.02801 0
M  V30 24675 C 2596.79 -0.999202 -1.76476 0
M  V30 24676 C 2597.12 0.468795 -1.88457 0
M  V30 24677 O 2596.4 1.34812 -1.402 0
M  V30 24678 C 2596.68 -1.66987 -3.19041 0
M  V30 24679 C 2596.53 -3.21157 -3.14926 0
M  V30 24680 C 2597.85 -1.39357 -4.17454 0
M  V30 24681 H 2594.97 -0.364404 -0.640608 0
M  V30 24682 H 2597.61 -1.47307 -1.20002 0
M  V30 24683 H 2595.76 -1.26697 -3.6726 0
M  V30 24684 H 2597.44 -3.70666 -2.74598 0
M  V30 24685 H 2595.68 -3.52656 -2.52619 0
M  V30 24686 H 2596.35 -3.6323 -4.15654 0
M  V30 24687 H 2598.83 -1.74289 -3.77839 0
M  V30 24688 H 2597.7 -1.88832 -5.15397 0
M  V30 24689 H 2597.96 -0.318891 -4.40948 0
M  V30 24690 N 2597.02 1.21924 -0.998617 0
M  V30 24691 C 2598.3 1.86381 -0.593434 0
M  V30 24692 C 2598.68 1.89553 0.929127 0
M  V30 24693 O 2598.03 1.3902 1.81344 0
M  V30 24694 C 2598.24 3.26965 -1.22045 0
M  V30 24695 C 2599.58 4.03411 -1.32456 0
M  V30 24696 O 2600.61 3.36252 -1.17528 0
M  V30 24697 O 2599.47 5.23641 -1.56404 0
M  V30 24698 H 2596.56 0.80185 -0.202399 0
M  V30 24699 H 2599.11 1.29657 -1.09486 0
M  V30 24700 H 2597.88 3.19321 -2.26163 0
M  V30 24701 H 2597.5 3.913 -0.704975 0
M  V30 24702 N 2598.5 0.772537 1.37367 0
M  V30 24703 C 2599.75 0.337716 1.99968 0
M  V30 24704 C 2600.08 -1.08318 1.61185 0
M  V30 24705 O 2599.35 -1.74532 0.858426 0
M  V30 24706 C 2599.64 0.482184 3.56857 0
M  V30 24707 C 2599.49 1.94556 4.05547 0
M  V30 24708 C 2600.81 -0.113066 4.39955 0
M  V30 24709 H 2597.93 0.124183 0.726462 0
M  V30 24710 H 2600.57 0.975728 1.63032 0
M  V30 24711 H 2598.72 -0.0609678 3.88452 0
M  V30 24712 H 2600.39 2.54847 3.84513 0
M  V30 24713 H 2598.63 2.45409 3.5771 0
M  V30 24714 H 2599.31 1.99769 5.14584 0
M  V30 24715 H 2601.78 0.350383 4.14622 0
M  V30 24716 H 2600.66 0.0181479 5.48897 0
M  V30 24717 H 2600.92 -1.20346 4.25405 0
M  V30 24718 N 2599.98 -1.48664 0.523142 0
M  V30 24719 C 2601.2 -2.07397 -0.011692 0
M  V30 24720 C 2601.63 -1.37805 -1.28029 0
M  V30 24721 O 2600.99 -0.441793 -1.75835 0
M  V30 24722 C 2601.03 -3.59893 -0.225723 0
M  V30 24723 O 2600.14 -3.91512 -1.29585 0
M  V30 24724 H 2599.48 -0.663019 0.036079 0
M  V30 24725 H 2602.01 -1.91168 0.7291 0
M  V30 24726 H 2602.02 -4.05505 -0.45048 0
M  V30 24727 H 2600.69 -4.09949 0.701016 0
M  V30 24728 H 2599.27 -3.57686 -1.05429 0
M  V30 24729 N 2601.46 -0.257958 -1.55475 0
M  V30 24730 C 2602.7 0.362974 -1.98814 0
M  V30 24731 C 2603.02 1.57655 -1.1476 0
M  V30 24732 O 2602.29 1.9451 -0.23299 0
M  V30 24733 H 2600.87 0.1371 -0.734311 0
M  V30 24734 H 2603.54 -0.359314 -1.91559 0
M  V30 24735 H 2602.63 0.66458 -3.04942 0
M  V30 24736 N 2602.93 1.57593 0.0150108 0
M  V30 24737 C 2603.87 2.04293 1.03909 0
M  V30 24738 C 2604.88 0.958169 1.31617 0
M  V30 24739 O 2606.07 1.23524 1.28857 0
M  V30 24740 C 2603.17 2.41518 2.37744 0
M  V30 24741 C 2602.34 3.72545 2.29192 0
M  V30 24742 C 2601.4 3.96804 3.45591 0
M  V30 24743 O 2600.43 4.67674 3.24453 0
M  V30 24744 N 2601.63 3.43531 4.67939 0
M  V30 24745 H 2604.39 2.92766 0.640939 0
M  V30 24746 H 2601.95 1.60626 0.202691 0
M  V30 24747 H 2603.95 2.54872 3.1436 0
M  V30 24748 H 2602.52 1.58642 2.69354 0
M  V30 24749 H 2601.74 3.69411 1.37584 0
M  V30 24750 H 2603.02 4.58473 2.20634 0
M  V30 24751 H 2602.42 2.86113 4.88012 0
M  V30 24752 H 2600.98 3.62241 5.41871 0
M  V30 24753 N 2604.41 -0.287527 1.54955 0
M  V30 24754 C 2605.66 -1.02103 1.74875 0
M  V30 24755 C 2605.99 -1.868 0.541862 0
M  V30 24756 O 2605.24 -1.89824 -0.475959 0
M  V30 24757 C 2605.54 -1.94507 2.99836 0
M  V30 24758 C 2605.21 -1.25678 4.33031 0
M  V30 24759 C 2603.87 -1.0664 4.69235 0
M  V30 24760 C 2606.22 -0.765823 5.15543 0
M  V30 24761 C 2603.55 -0.37212 5.85519 0
M  V30 24762 C 2605.9 -0.0851989 6.32543 0
M  V30 24763 C 2604.57 0.117017 6.67397 0
M  V30 24764 H 2603.84 -0.373621 0.639913 0
M  V30 24765 H 2606.48 -0.294632 1.8922 0
M  V30 24766 H 2604.79 -2.7372 2.8033 0
M  V30 24767 H 2606.48 -2.51356 3.12444 0
M  V30 24768 H 2603.07 -1.41505 4.04567 0
M  V30 24769 H 2607.26 -0.900574 4.88061 0
M  V30 24770 H 2602.51 -0.204588 6.11058 0
M  V30 24771 H 2606.69 0.303058 6.9574 0
M  V30 24772 H 2604.32 0.656992 7.57356 0
M  V30 24773 N 2605.89 -1.47641 -0.551365 0
M  V30 24774 C 2607.12 -1.58439 -1.33835 0
M  V30 24775 C 2607.54 -0.237096 -1.866 0
M  V30 24776 O 2606.9 0.787965 -1.63281 0
M  V30 24777 C 2606.95 -2.6177 -2.4801 0
M  V30 24778 O 2606.05 -2.17446 -3.50415 0
M  V30 24779 H 2605.39 -0.532031 -0.397289 0
M  V30 24780 H 2607.92 -1.93466 -0.665725 0
M  V30 24781 H 2607.93 -2.82374 -2.94498 0
M  V30 24782 H 2606.61 -3.59594 -2.08962 0
M  V30 24783 H 2605.18 -2.06966 -3.10193 0
M  V30 24784 N 2607.37 0.798563 -1.3587 0
M  V30 24785 C 2608.62 1.55296 -1.29335 0
M  V30 24786 C 2608.94 1.94568 0.129695 0
M  V30 24787 O 2608.21 1.64231 1.06793 0
M  V30 24788 H 2606.79 0.575911 -0.475747 0
M  V30 24789 H 2609.45 0.952063 -1.70064 0
M  V30 24790 H 2608.55 2.46472 -1.91462 0
M  V30 24791 N 2608.85 1.19999 1.02166 0
M  V30 24792 C 2610.07 1.03252 1.79295 0
M  V30 24793 C 2610.49 -0.41847 1.84104 0
M  V30 24794 O 2609.85 -1.29061 1.29033 0
M  V30 24795 C 2609.9 1.60324 3.24004 0
M  V30 24796 O 2609.62 2.99745 3.19507 0
M  V30 24797 C 2611.12 1.4846 4.17701 0
M  V30 24798 H 2608.34 0.363502 0.56401 0
M  V30 24799 H 2610.88 1.58975 1.28636 0
M  V30 24800 H 2609.04 1.08733 3.71828 0
M  V30 24801 H 2609.45 3.26733 4.103 0
M  V30 24802 H 2610.93 1.93162 5.171 0
M  V30 24803 H 2611.4 0.436269 4.37028 0
M  V30 24804 H 2612.01 1.99217 3.75756 0
M  V30 24805 N 2610.32 -1.21392 1.00507 0
M  V30 24806 C 2611.57 -1.90743 0.688826 0
M  V30 24807 C 2611.9 -1.77915 -0.778455 0
M  V30 24808 O 2611.18 -1.15584 -1.56431 0
M  V30 24809 C 2611.46 -3.42543 1.11069 0
M  V30 24810 C 2611.31 -3.64362 2.63743 0
M  V30 24811 C 2612.63 -4.34922 0.673135 0
M  V30 24812 H 2609.75 -0.692683 0.251714 0
M  V30 24813 H 2612.39 -1.43024 1.25076 0
M  V30 24814 H 2610.54 -3.83315 0.632575 0
M  V30 24815 H 2612.22 -3.32916 3.19319 0
M  V30 24816 H 2610.46 -3.08225 3.05253 0
M  V30 24817 H 2611.13 -4.70722 2.88313 0
M  V30 24818 H 2613.61 -4.01732 1.08399 0
M  V30 24819 H 2612.48 -5.39779 0.996478 0
M  V30 24820 H 2612.74 -4.40045 -0.425731 0
M  V30 24821 N 2611.8 -0.779811 -1.36955 0
M  V30 24822 C 2613.08 -0.27219 -1.93697 0
M  V30 24823 C 2613.46 1.2341 -1.7127 0
M  V30 24824 O 2612.81 2.02105 -1.06611 0
M  V30 24825 C 2613.02 -0.654351 -3.42811 0
M  V30 24826 C 2614.37 -0.628676 -4.1992 0
M  V30 24827 O 2615.39 -0.594234 -3.51208 0
M  V30 24828 O 2614.25 -0.662959 -5.42464 0
M  V30 24829 H 2611.34 -0.0649431 -0.824446 0
M  V30 24830 H 2613.89 -0.861708 -1.46194 0
M  V30 24831 H 2612.66 -1.69359 -3.52751 0
M  V30 24832 H 2612.28 -0.0382068 -3.97582 0
M  V30 24833 N 2613.28 1.48384 -0.531019 0
M  V30 24834 C 2614.51 2.074 0.000693079 0
M  V30 24835 C 2614.93 1.38482 1.27296 0
M  V30 24836 O 2614.29 0.451111 1.75598 0
M  V30 24837 C 2614.34 3.60007 0.206634 0
M  V30 24838 O 2613.44 3.92193 1.27507 0
M  V30 24839 H 2612.78 0.662818 -0.0395946 0
M  V30 24840 H 2615.31 1.90779 -0.739228 0
M  V30 24841 H 2615.32 4.05739 0.428969 0
M  V30 24842 H 2614 4.09572 -0.722747 0
M  V30 24843 H 2612.57 3.5824 1.03531 0
M  V30 24844 N 2614.76 0.2662 1.55336 0
M  V30 24845 C 2615.98 -0.359625 2.04258 0
M  V30 24846 C 2616.41 -1.49342 1.14362 0
M  V30 24847 O 2615.77 -1.80756 0.1404 0
M  V30 24848 C 2615.81 -0.826573 3.50999 0
M  V30 24849 O 2614.92 -1.93459 3.64208 0
M  V30 24850 H 2614.26 -0.0757154 0.659669 0
M  V30 24851 H 2616.79 0.397896 2.00694 0
M  V30 24852 H 2616.8 -1.1247 3.92192 0
M  V30 24853 H 2615.47 0.00300343 4.159 0
M  V30 24854 H 2614.05 -1.63969 3.34916 0
M  V30 24855 N 2616.24 -1.57599 -0.0066531 0
M  V30 24856 C 2617.48 -1.89901 -0.691518 0
M  V30 24857 C 2617.81 -0.866703 -1.7468 0
M  V30 24858 O 2617.08 0.0967845 -1.95661 0
M  V30 24859 H 2615.66 -0.700883 -0.258404 0
M  V30 24860 H 2618.32 -1.94873 0.0326997 0
M  V30 24861 H 2617.41 -2.89462 -1.16697 0
M  V30 24862 N 2617.72 0.279305 -1.55105 0
M  V30 24863 C 2618.96 1.01174 -1.75414 0
M  V30 24864 C 2619.29 1.8651 -0.55176 0
M  V30 24865 O 2618.55 1.90074 0.465885 0
M  V30 24866 C 2618.84 1.92914 -3.00864 0
M  V30 24867 C 2618.51 1.2338 -4.33691 0
M  V30 24868 C 2617.17 1.0415 -4.69794 0
M  V30 24869 C 2619.52 0.738472 -5.15942 0
M  V30 24870 C 2616.85 0.341063 -5.85708 0
M  V30 24871 C 2619.2 0.0516524 -6.32579 0
M  V30 24872 C 2617.87 -0.152409 -6.67326 0
M  V30 24873 H 2617.14 0.370222 -0.641885 0
M  V30 24874 H 2619.79 0.284593 -1.89373 0
M  V30 24875 H 2618.09 2.72229 -2.81777 0
M  V30 24876 H 2619.79 2.49695 -3.13773 0
M  V30 24877 H 2616.38 1.39357 -4.05312 0
M  V30 24878 H 2620.56 0.874678 -4.88532 0
M  V30 24879 H 2615.82 0.172179 -6.11158 0
M  V30 24880 H 2619.99 -0.33995 -6.9557 0
M  V30 24881 H 2617.62 -0.697147 -7.56997 0
M  V30 24882 N 2619.19 1.47931 0.543528 0
M  V30 24883 C 2620.42 1.58896 1.32513 0
M  V30 24884 C 2620.84 0.244164 1.87215 0
M  V30 24885 O 2620.19 -0.764623 1.6571 0
M  V30 24886 C 2620.24 2.62499 2.48549 0
M  V30 24887 O 2619.97 3.91758 1.96105 0
M  V30 24888 C 2621.47 2.83776 3.40567 0
M  V30 24889 H 2618.69 0.536152 0.403463 0
M  V30 24890 H 2621.23 1.93656 0.657072 0
M  V30 24891 H 2619.39 2.30634 3.11266 0
M  V30 24892 H 2619.8 4.48485 2.71959 0
M  V30 24893 H 2621.27 3.601 4.18368 0
M  V30 24894 H 2621.75 1.92099 3.94962 0
M  V30 24895 H 2622.36 3.16892 2.83654 0
M  V30 24896 N 2620.67 -0.791347 1.36292 0
M  V30 24897 C 2621.9 -1.58529 1.33729 0
M  V30 24898 C 2622.32 -1.87932 -0.0794603 0
M  V30 24899 O 2621.68 -1.4774 -1.05084 0
M  V30 24900 C 2621.73 -2.88427 2.1643 0
M  V30 24901 O 2620.83 -3.81941 1.55547 0
M  V30 24902 H 2620.17 -0.480951 0.457802 0
M  V30 24903 H 2622.7 -0.980999 1.79548 0
M  V30 24904 H 2622.71 -3.37714 2.28939 0
M  V30 24905 H 2621.39 -2.66353 3.1942 0
M  V30 24906 H 2619.96 -3.4053 1.51967 0
M  V30 24907 N 2622.15 -1.2054 -1.01528 0
M  V30 24908 C 2623.08 -0.913192 -2.10222 0
M  V30 24909 C 2624.09 0.0995712 -1.62495 0
M  V30 24910 O 2625.28 -0.131614 -1.78014 0
M  V30 24911 C 2622.38 -0.347776 -3.37111 0
M  V30 24912 C 2621.56 -1.4124 -4.13969 0
M  V30 24913 C 2620.62 -0.858067 -5.19157 0
M  V30 24914 O 2619.64 -1.53907 -5.47997 0
M  V30 24915 N 2620.84 0.331864 -5.79551 0
M  V30 24916 H 2623.61 -1.84885 -2.35876 0
M  V30 24917 H 2621.17 -1.10925 -1.17929 0
M  V30 24918 H 2623.16 0.0372314 -4.04683 0
M  V30 24919 H 2621.73 0.492473 -3.08696 0
M  V30 24920 H 2620.95 -1.97169 -3.41348 0
M  V30 24921 H 2622.24 -2.12936 -4.62099 0
M  V30 24922 H 2621.64 0.902379 -5.58456 0
M  V30 24923 H 2620.19 0.658496 -6.48465 0
M  V30 24924 N 2623.63 1.20858 -1.01149 0
M  V30 24925 C 2624.86 1.94081 -0.716945 0
M  V30 24926 C 2625.27 1.74469 0.721537 0
M  V30 24927 O 2624.63 1.05541 1.48887 0
M  V30 24928 C 2624.68 3.46317 -1.03668 0
M  V30 24929 O 2624.4 3.65284 -2.41866 0
M  V30 24930 C 2625.9 4.36694 -0.762462 0
M  V30 24931 H 2623.12 0.61702 -0.263681 0
M  V30 24932 H 2625.66 1.53494 -1.35129 0
M  V30 24933 H 2623.82 3.84803 -0.447824 0
M  V30 24934 H 2624.23 4.59319 -2.53232 0
M  V30 24935 H 2625.71 5.42185 -1.0363 0
M  V30 24936 H 2626.18 4.38151 0.303437 0
M  V30 24937 H 2626.79 4.03863 -1.33323 0
M  V30 24938 N 2625.11 0.787064 1.3654 0
M  V30 24939 C 2626.52 0.421839 1.81872 0
M  V30 24940 C 2626.87 -1.05394 1.65489 0
M  V30 24941 O 2625.99 -1.81753 1.17451 0
M  V30 24942 C 2626.59 0.758899 3.30191 0
M  V30 24943 C 2625.15 0.446534 3.73742 0
M  V30 24944 C 2624.29 0.994773 2.58843 0
M  V30 24945 H 2627.24 0.980412 1.24794 0
M  V30 24946 H 2627.27 0.0491317 3.80468 0
M  V30 24947 H 2626.78 1.83305 3.42083 0
M  V30 24948 H 2624.88 -0.619674 3.67411 0
M  V30 24949 H 2624.99 0.965498 4.69271 0
M  V30 24950 H 2623.36 0.418132 2.51244 0
M  V30 24951 H 2624.14 2.07463 2.73521 0
M  V30 24952 N 2626.58 -1.48101 0.53888 0
M  V30 24953 C 2627.49 -2.33541 -0.222607 0
M  V30 24954 C 2628.51 -1.47049 -0.930199 0
M  V30 24955 O 2629.69 -1.80013 -0.903179 0
M  V30 24956 C 2626.75 -3.23359 -1.25059 0
M  V30 24957 C 2625.81 -4.25731 -0.552394 0
M  V30 24958 C 2625.04 -5.11257 -1.5314 0
M  V30 24959 O 2625.27 -4.98915 -2.76478 0
M  V30 24960 O 2624.2 -5.92387 -1.06592 0
M  V30 24961 H 2628.03 -2.99919 0.477759 0
M  V30 24962 H 2625.61 -1.46363 0.299695 0
M  V30 24963 H 2627.49 -3.78891 -1.84444 0
M  V30 24964 H 2626.17 -2.59632 -1.9332 0
M  V30 24965 H 2625.08 -3.7401 0.0821798 0
M  V30 24966 H 2626.41 -4.92121 0.0884391 0
M  V30 24967 N 2628.06 -0.274434 -1.55192 0
M  V30 24968 C 2629.31 0.342544 -1.99582 0
M  V30 24969 C 2629.64 1.55912 -1.16283 0
M  V30 24970 O 2628.89 1.94456 -0.220324 0
M  V30 24971 C 2629.19 0.769397 -3.4902 0
M  V30 24972 C 2628.86 -0.342468 -4.49598 0
M  V30 24973 C 2627.52 -0.64777 -4.7682 0
M  V30 24974 C 2629.87 -1.09172 -5.09638 0
M  V30 24975 C 2627.2 -1.70591 -5.61351 0
M  V30 24976 C 2629.55 -2.13958 -5.95319 0
M  V30 24977 C 2628.21 -2.45124 -6.20863 0
M  V30 24978 H 2627.48 0.125346 -0.730321 0
M  V30 24979 H 2630.13 -0.388004 -1.87528 0
M  V30 24980 H 2628.44 1.57961 -3.58547 0
M  V30 24981 H 2630.13 1.25751 -3.80773 0
M  V30 24982 H 2626.72 -0.0943933 -4.28496 0
M  V30 24983 H 2630.91 -0.86911 -4.88631 0
M  V30 24984 H 2626.16 -1.9524 -5.79389 0
M  V30 24985 H 2630.34 -2.7249 -6.40876 0
M  V30 24986 H 2627.96 -3.27252 -6.86156 0
M  V30 24987 N 2629.54 1.576 -0.00170483 0
M  V30 24988 C 2630.76 1.95325 0.697355 0
M  V30 24989 C 2631.19 0.876735 1.66418 0
M  V30 24990 O 2630.55 -0.164976 1.80548 0
M  V30 24991 C 2630.6 3.32146 1.40397 0
M  V30 24992 O 2629.7 3.2657 2.51844 0
M  V30 24993 H 2629.04 0.637603 0.185362 0
M  V30 24994 H 2631.57 2.04525 -0.0554025 0
M  V30 24995 H 2631.58 3.67751 1.76701 0
M  V30 24996 H 2630.26 4.1005 0.695095 0
M  V30 24997 H 2628.83 3.02644 2.17856 0
M  V30 24998 N 2631.02 -0.271076 1.55251 0
M  V30 24999 C 2632.27 -1.00044 1.75601 0
M  V30 25000 C 2632.59 -1.86749 0.56122 0
M  V30 25001 O 2631.86 -1.91261 -0.423813 0
M  V30 25002 H 2630.44 -0.372376 0.647569 0
M  V30 25003 H 2633.1 -0.294843 1.92657 0
M  V30 25004 H 2632.19 -1.63626 2.65769 0
M  V30 25005 N 2632.5 -1.48217 -0.535675 0
M  V30 25006 C 2633.43 -1.65207 -1.65012 0
M  V30 25007 C 2634.41 -0.50104 -1.62553 0
M  V30 25008 O 2635.59 -0.732917 -1.79839 0
M  V30 25009 C 2632.72 -1.68631 -3.03613 0
M  V30 25010 C 2631.68 -2.83178 -3.20927 0
M  V30 25011 C 2631 -2.71687 -4.60532 0
M  V30 25012 C 2632.3 -4.2454 -3.04242 0
M  V30 25013 H 2634 -2.58505 -1.51048 0
M  V30 25014 H 2631.54 -1.24404 -0.72524 0
M  V30 25015 H 2633.5 -1.79106 -3.81443 0
M  V30 25016 H 2632.22 -0.719082 -3.18586 0
M  V30 25017 H 2630.88 -2.72249 -2.45512 0
M  V30 25018 H 2630.53 -1.72946 -4.72333 0
M  V30 25019 H 2630.23 -3.48547 -4.73063 0
M  V30 25020 H 2631.75 -2.84121 -5.4047 0
M  V30 25021 H 2633.16 -4.36332 -3.71869 0
M  V30 25022 H 2631.56 -5.02354 -3.28269 0
M  V30 25023 H 2632.63 -4.41401 -2.00732 0
M  V30 25024 N 2633.97 0.784108 -1.3671 0
M  V30 25025 C 2635.39 1.35962 -1.2795 0
M  V30 25026 C 2635.74 1.96043 0.0783668 0
M  V30 25027 O 2634.86 1.9294 0.979955 0
M  V30 25028 C 2635.46 2.47191 -2.31693 0
M  V30 25029 C 2634.02 3.00544 -2.26606 0
M  V30 25030 C 2633.16 1.73662 -2.16187 0
M  V30 25031 H 2636.11 0.585332 -1.47511 0
M  V30 25032 H 2636.13 3.26349 -1.95644 0
M  V30 25033 H 2635.65 2.03433 -3.30509 0
M  V30 25034 H 2633.75 3.48709 -1.31274 0
M  V30 25035 H 2633.86 3.56998 -3.19514 0
M  V30 25036 H 2632.22 1.96104 -1.62528 0
M  V30 25037 H 2633.01 1.32025 -3.16898 0
M  V30 25038 N 2635.45 1.21076 1.00888 0
M  V30 25039 C 2636.68 1.05224 1.78725 0
M  V30 25040 C 2637.1 -0.393762 1.83932 0
M  V30 25041 O 2636.46 -1.2839 1.28006 0
M  V30 25042 C 2636.51 1.64949 3.20662 0
M  V30 25043 O 2635.61 0.892344 4.0263 0
M  V30 25044 H 2634.95 0.370583 0.550966 0
M  V30 25045 H 2637.48 1.60536 1.26844 0
M  V30 25046 H 2637.49 1.69008 3.71349 0
M  V30 25047 H 2636.17 2.70183 3.16187 0
M  V30 25048 H 2634.75 0.926555 3.61205 0
M  V30 25049 N 2636.93 -1.2032 1.01789 0
M  V30 25050 C 2638.18 -1.89346 0.706571 0
M  V30 25051 C 2638.5 -1.79314 -0.766258 0
M  V30 25052 O 2637.77 -1.19638 -1.55124 0
M  V30 25053 H 2636.35 -0.700899 0.258361 0
M  V30 25054 H 2639.01 -1.4612 1.28976 0
M  V30 25055 H 2638.11 -2.95945 0.991118 0
M  V30 25056 N 2638.41 -0.794293 -1.3612 0
M  V30 25057 C 2639.66 -0.365499 -1.98361 0
M  V30 25058 C 2639.97 1.06994 -1.63742 0
M  V30 25059 O 2641.18 1.60125 -2.19254 0
M  V30 25060 C 2639.63 -0.602558 -3.5482 0
M  V30 25061 C 2639.24 -2.04974 -3.98359 0
M  V30 25062 C 2640.98 -0.238511 -4.23829 0
M  V30 25063 C 2638.89 -2.2332 -5.47615 0
M  V30 25064 H 2637.82 -0.132923 -0.742191 0
M  V30 25065 H 2640.47 -0.976617 -1.55353 0
M  V30 25066 H 2638.85 0.0783394 -3.95923 0
M  V30 25067 H 2640.03 -2.76743 -3.68442 0
M  V30 25068 H 2638.34 -2.37249 -3.42202 0
M  V30 25069 H 2640.94 -0.353798 -5.33528 0
M  V30 25070 H 2641.28 0.813935 -4.08266 0
M  V30 25071 H 2641.82 -0.872838 -3.88106 0
M  V30 25072 H 2638.56 -3.26965 -5.68132 0
M  V30 25073 H 2638.08 -1.5606 -5.79142 0
M  V30 25074 H 2639.75 -2.04271 -6.13907 0
M  V30 25075 N 2639.89 1.47813 -0.546727 0
M  V30 25076 C 2640.85 2.28358 0.196247 0
M  V30 25077 C 2641.85 1.36347 0.852413 0
M  V30 25078 O 2643.04 1.59079 0.709885 0
M  V30 25079 C 2640.17 3.15724 1.28574 0
M  V30 25080 H 2641.36 2.95512 -0.511138 0
M  V30 25081 H 2638.92 1.53329 -0.303275 0
M  V30 25082 H 2639.65 2.53238 2.02585 0
M  V30 25083 H 2639.44 3.83426 0.820161 0
M  V30 25084 H 2640.93 3.76438 1.80787 0
M  V30 25085 N 2641.36 0.28266 1.55044 0
M  V30 25086 C 2642.27 -0.61143 2.26492 0
M  V30 25087 C 2643.29 -1.16381 1.2935 0
M  V30 25088 O 2644.47 -1.1925 1.623 0
M  V30 25089 C 2641.53 -1.77558 2.97782 0
M  V30 25090 C 2640.59 -1.25911 4.1042 0
M  V30 25091 C 2639.83 -2.36778 4.78301 0
M  V30 25092 O 2640.05 -3.56295 4.45432 0
M  V30 25093 O 2638.98 -2.04507 5.66092 0
M  V30 25094 H 2642.81 -0.0324082 3.03683 0
M  V30 25095 H 2640.39 0.0497838 1.49317 0
M  V30 25096 H 2642.28 -2.45421 3.42559 0
M  V30 25097 H 2640.95 -2.34155 2.23502 0
M  V30 25098 H 2639.86 -0.546732 3.70083 0
M  V30 25099 H 2641.19 -0.738801 4.86624 0
M  V30 25100 N 2642.84 -1.57597 0.0100627 0
M  V30 25101 C 2644.09 -1.91284 -0.673663 0
M  V30 25102 C 2644.42 -0.885009 -1.72862 0
M  V30 25103 O 2643.7 0.0949146 -1.94268 0
M  V30 25104 C 2643.98 -3.3552 -1.3076 0
M  V30 25105 C 2643.83 -4.49028 -0.263499 0
M  V30 25106 C 2645.15 -3.79362 -2.23098 0
M  V30 25107 H 2642.27 -0.695638 -0.243427 0
M  V30 25108 H 2644.91 -1.89894 0.0634197 0
M  V30 25109 H 2643.06 -3.36836 -1.93582 0
M  V30 25110 H 2644.73 -4.59847 0.365819 0
M  V30 25111 H 2642.98 -4.31828 0.413153 0
M  V30 25112 H 2643.65 -5.46932 -0.746302 0
M  V30 25113 H 2646.12 -3.79662 -1.70282 0
M  V30 25114 H 2645 -4.81015 -2.64415 0
M  V30 25115 H 2645.26 -3.13792 -3.11427 0
M  V30 25116 N 2644.32 0.262839 -1.55393 0
M  V30 25117 C 2645.55 1.0153 -1.80849 0
M  V30 25118 C 2645.97 1.78773 -0.584978 0
M  V30 25119 O 2645.33 1.75218 0.465671 0
M  V30 25120 C 2645.38 1.94154 -3.0387 0
M  V30 25121 O 2644.48 3.03084 -2.79668 0
M  V30 25122 H 2643.82 0.289749 -0.597446 0
M  V30 25123 H 2646.35 0.288663 -2.02553 0
M  V30 25124 H 2646.36 2.35918 -3.32876 0
M  V30 25125 H 2645.04 1.37347 -3.92567 0
M  V30 25126 H 2643.61 2.65561 -2.61785 0
M  V30 25127 N 2645.8 1.48499 0.527807 0
M  V30 25128 C 2647.05 1.56318 1.28098 0
M  V30 25129 C 2647.37 0.239815 1.9352 0
M  V30 25130 O 2646.64 -0.738817 1.81434 0
M  V30 25131 H 2645.22 0.575882 0.475783 0
M  V30 25132 H 2647.88 1.84975 0.614019 0
M  V30 25133 H 2646.98 2.34535 2.05912 0
M  V30 25134 N 2647.28 -0.776847 1.37123 0
M  V30 25135 C 2648.19 -1.92108 1.34654 0
M  V30 25136 C 2649.2 -1.7224 0.246854 0
M  V30 25137 O 2650.38 -1.95563 0.481374 0
M  V30 25138 C 2647.44 -3.27158 1.14754 0
M  V30 25139 C 2646.51 -3.59716 2.34314 0
M  V30 25140 C 2645.74 -4.88322 2.15354 0
M  V30 25141 O 2645.96 -5.5899 1.13517 0
M  V30 25142 O 2644.9 -5.19825 3.03423 0
M  V30 25143 H 2648.72 -1.97142 2.31017 0
M  V30 25144 H 2646.31 -0.918881 1.178 0
M  V30 25145 H 2648.19 -4.07948 1.05623 0
M  V30 25146 H 2646.86 -3.22988 0.214618 0
M  V30 25147 H 2645.77 -2.79181 2.49016 0
M  V30 25148 H 2647.1 -3.68623 3.26156 0
M  V30 25149 N 2648.76 -1.2161 -1.00244 0
M  V30 25150 C 2649.98 -1.0617 -1.78165 0
M  V30 25151 C 2650.41 0.384002 -1.84139 0
M  V30 25152 O 2649.76 1.2771 -1.28685 0
M  V30 25153 C 2649.81 -1.66648 -3.19783 0
M  V30 25154 O 2648.92 -0.913684 -4.02151 0
M  V30 25155 H 2648.26 -0.3735 -0.548993 0
M  V30 25156 H 2650.79 -1.61206 -1.25991 0
M  V30 25157 H 2650.8 -1.70975 -3.70448 0
M  V30 25158 H 2649.47 -2.71856 -3.14749 0
M  V30 25159 H 2648.05 -0.945698 -3.60709 0
M  V30 25160 N 2650.23 1.19778 -1.02425 0
M  V30 25161 C 2651.46 1.93851 -0.737334 0
M  V30 25162 C 2651.88 1.74714 0.696893 0
M  V30 25163 O 2651.24 1.04641 1.48054 0
M  V30 25164 C 2651.29 3.43798 -1.08789 0
M  V30 25165 O 2650.39 4.11896 -0.203902 0
M  V30 25166 H 2649.73 0.60535 -0.272851 0
M  V30 25167 H 2652.26 1.51989 -1.36969 0
M  V30 25168 H 2652.27 3.94448 -1.04283 0
M  V30 25169 H 2650.95 3.57049 -2.13281 0
M  V30 25170 H 2649.53 3.71633 -0.307156 0
M  V30 25171 N 2651.71 0.801501 1.35697 0
M  V30 25172 C 2653.13 0.484623 1.52064 0
M  V30 25173 C 2653.33 -0.995053 1.75217 0
M  V30 25174 O 2652.38 -1.78023 1.79065 0
M  V30 25175 C 2653.7 1.32557 2.69906 0
M  V30 25176 C 2655.24 1.32049 2.83782 0
M  V30 25177 C 2655.72 2.14544 4.04642 0
M  V30 25178 N 2657.21 2.12053 4.1181 0
M  V30 25179 C 2657.95 2.72645 5.04433 0
M  V30 25180 N 2657.44 3.42144 6.0242 0
M  V30 25181 N 2659.23 2.62314 4.9714 0
M  V30 25182 H 2651.39 1.75985 1.18925 0
M  V30 25183 H 2653.65 0.748752 0.581442 0
M  V30 25184 H 2653.35 2.37541 2.59359 0
M  V30 25185 H 2653.23 0.975245 3.64375 0
M  V30 25186 H 2655.62 0.278511 2.93783 0
M  V30 25187 H 2655.7 1.71065 1.90185 0
M  V30 25188 H 2655.34 3.18779 3.95402 0
M  V30 25189 H 2655.27 1.72891 4.9741 0
M  V30 25190 H 2657.76 1.61482 3.41661 0
M  V30 25191 H 2658.07 3.85677 6.69681 0
M  V30 25192 H 2656.42 3.46248 6.02609 0
M  V30 25193 H 2659.61 2.0761 4.19542 0
M  V30 25194 H 2659.78 3.09825 5.69133 0
M  V30 25195 N 2653.19 -1.47521 0.554558 0
M  V30 25196 C 2654.15 -2.28459 -0.184134 0
M  V30 25197 C 2655.15 -1.36797 -0.84517 0
M  V30 25198 O 2656.34 -1.59454 -0.701439 0
M  V30 25199 C 2653.47 -3.16401 -1.26898 0
M  V30 25200 H 2654.67 -2.95237 0.526803 0
M  V30 25201 H 2652.22 -1.53167 0.311402 0
M  V30 25202 H 2652.96 -2.54309 -2.01239 0
M  V30 25203 H 2652.74 -3.83856 -0.799816 0
M  V30 25204 H 2654.23 -3.77392 -1.78788 0
M  V30 25205 N 2654.67 -0.290879 -1.54892 0
M  V30 25206 C 2655.58 0.59941 -2.26813 0
M  V30 25207 C 2656.59 1.15694 -1.29965 0
M  V30 25208 O 2657.77 1.18388 -1.6293 0
M  V30 25209 C 2654.83 1.75976 -2.98719 0
M  V30 25210 C 2653.9 1.23733 -4.11082 0
M  V30 25211 C 2653.13 2.34238 -4.7955 0
M  V30 25212 O 2653.35 3.53928 -4.47316 0
M  V30 25213 O 2652.29 2.01502 -5.67169 0
M  V30 25214 H 2656.11 0.0163027 -3.03696 0
M  V30 25215 H 2653.7 -0.0577018 -1.49289 0
M  V30 25216 H 2655.58 2.43601 -3.43855 0
M  V30 25217 H 2654.25 2.32966 -2.24741 0
M  V30 25218 H 2653.16 0.527098 -3.70368 0
M  V30 25219 H 2654.49 0.712984 -4.87009 0
M  V30 25220 N 2656.15 1.57589 -0.0184203 0
M  V30 25221 C 2657.39 1.90533 0.661816 0
M  V30 25222 C 2657.71 0.895397 1.73902 0
M  V30 25223 O 2658.91 1.1157 2.47516 0
M  V30 25224 C 2657.37 3.38288 1.22838 0
M  V30 25225 C 2656.98 4.47618 0.185024 0
M  V30 25226 C 2658.72 3.80316 1.88575 0
M  V30 25227 C 2656.63 5.86462 0.76262 0
M  V30 25228 H 2655.56 0.71101 0.25096 0
M  V30 25229 H 2658.21 1.83317 -0.0819757 0
M  V30 25230 H 2656.59 3.40401 2.02344 0
M  V30 25231 H 2657.77 4.57049 -0.58679 0
M  V30 25232 H 2656.08 4.14726 -0.372962 0
M  V30 25233 H 2658.68 4.81397 2.32726 0
M  V30 25234 H 2659.02 3.14806 2.72402 0
M  V30 25235 H 2659.55 3.8058 1.15775 0
M  V30 25236 H 2656.29 6.55489 -0.0372865 0
M  V30 25237 H 2655.81 5.80659 1.50317 0
M  V30 25238 H 2657.49 6.34699 1.25565 0
M  V30 25239 N 2657.62 -0.254594 1.5553 0
M  V30 25240 C 2658.87 -0.981762 1.76652 0
M  V30 25241 C 2659.19 -1.86144 0.580996 0
M  V30 25242 O 2658.46 -1.91699 -0.403503 0
M  V30 25243 H 2657.04 -0.365487 0.651482 0
M  V30 25244 H 2659.7 -0.274392 1.92959 0
M  V30 25245 H 2658.8 -1.60798 2.67489 0
M  V30 25246 N 2659.1 -1.48777 -0.519925 0
M  V30 25247 C 2660.33 -1.61243 -1.30444 0
M  V30 25248 C 2660.75 -0.276624 -1.86055 0
M  V30 25249 O 2660.11 0.753154 -1.64916 0
M  V30 25250 C 2660.16 -2.66972 -2.42401 0
M  V30 25251 O 2659.26 -2.2483 -3.45724 0
M  V30 25252 H 2658.6 -0.540338 -0.385915 0
M  V30 25253 H 2661.13 -1.94835 -0.624538 0
M  V30 25254 H 2661.14 -2.88557 -2.88442 0
M  V30 25255 H 2659.82 -3.63945 -2.01288 0
M  V30 25256 H 2658.39 -2.13499 -3.05733 0
M  V30 25257 N 2660.58 0.769564 -1.37534 0
M  V30 25258 C 2661.8 1.56381 -1.36234 0
M  V30 25259 C 2662.23 1.88035 0.0495519 0
M  V30 25260 O 2661.59 1.49393 1.0272 0
M  V30 25261 C 2661.64 2.84948 -2.20991 0
M  V30 25262 O 2660.74 3.79418 -1.61604 0
M  V30 25263 H 2660.08 0.473607 -0.465395 0
M  V30 25264 H 2662.61 0.95231 -1.81086 0
M  V30 25265 H 2662.62 3.34029 -2.34283 0
M  V30 25266 H 2661.3 2.61238 -3.23617 0
M  V30 25267 H 2659.87 3.38069 -1.57365 0
M  V30 25268 N 2662.06 1.22139 0.995977 0
M  V30 25269 C 2662.99 1.01293 2.10385 0
M  V30 25270 C 2663.97 -0.0651155 1.69975 0
M  V30 25271 O 2665.15 0.0964969 1.9396 0
M  V30 25272 C 2662.28 0.586577 3.42311 0
M  V30 25273 C 2661.24 1.61021 3.96556 0
M  V30 25274 C 2660.56 1.03979 5.24493 0
M  V30 25275 C 2661.86 2.9994 4.2759 0
M  V30 25276 H 2663.56 1.93955 2.28083 0
M  V30 25277 H 2661.1 0.933947 1.09606 0
M  V30 25278 H 2663.06 0.427867 4.19222 0
M  V30 25279 H 2661.78 -0.375704 3.24432 0
M  V30 25280 H 2660.44 1.75664 3.21773 0
M  V30 25281 H 2660.09 0.0689587 5.02953 0
M  V30 25282 H 2659.79 1.72362 5.61752 0
M  V30 25283 H 2661.31 0.892601 6.04041 0
M  V30 25284 H 2662.73 2.88689 4.9531 0
M  V30 25285 H 2661.12 3.65418 4.76014 0
M  V30 25286 H 2662.19 3.50105 3.35491 0
M  V30 25287 N 2663.54 -1.19233 1.03059 0
M  V30 25288 C 2664.95 -1.70643 0.757479 0
M  V30 25289 C 2665.3 -1.82405 -0.722703 0
M  V30 25290 O 2664.42 -1.4964 -1.56322 0
M  V30 25291 C 2665.02 -3.09937 1.36838 0
M  V30 25292 C 2663.58 -3.586 1.14382 0
M  V30 25293 C 2662.72 -2.35419 1.46537 0
M  V30 25294 H 2665.68 -1.0405 1.1983 0
M  V30 25295 H 2665.7 -3.72705 0.76625 0
M  V30 25296 H 2665.21 -3.01344 2.44567 0
M  V30 25297 H 2663.31 -3.72503 0.0848197 0
M  V30 25298 H 2663.42 -4.42618 1.83373 0
M  V30 25299 H 2661.79 -2.38839 0.884754 0
M  V30 25300 H 2662.57 -2.29455 2.55353 0
M  V30 25301 N 2665.01 -0.808686 -1.3527 0
M  V30 25302 C 2666.24 -0.401511 -2.03476 0
M  V30 25303 C 2666.66 0.98025 -1.60539 0
M  V30 25304 O 2666.02 1.63517 -0.783068 0
M  V30 25305 C 2666.07 -0.495416 -3.57181 0
M  V30 25306 O 2665.17 0.490325 -4.09475 0
M  V30 25307 H 2664.52 -0.167377 -0.642558 0
M  V30 25308 H 2667.05 -1.09515 -1.72822 0
M  V30 25309 H 2667.06 -0.365983 -4.06355 0
M  V30 25310 H 2665.73 -1.50327 -3.87782 0
M  V30 25311 H 2664.31 0.320958 -3.71516 0
M  V30 25312 N 2666.49 1.47225 -0.562374 0
M  V30 25313 C 2667.74 2.0206 -0.0401726 0
M  V30 25314 C 2668.06 1.43854 1.31648 0
M  V30 25315 O 2667.33 0.615632 1.85975 0
M  V30 25316 H 2665.91 0.746906 -0.011861 0
M  V30 25317 H 2668.57 1.80569 -0.733552 0
M  V30 25318 H 2667.67 3.12069 0.0440705 0
M  V30 25319 N 2667.97 0.299089 1.54736 0
M  V30 25320 C 2668.93 -0.564973 2.22128 0
M  V30 25321 C 2669.93 -1.06278 1.20671 0
M  V30 25322 O 2671.12 -0.959119 1.45419 0
M  V30 25323 C 2668.26 -1.78203 2.90614 0
M  V30 25324 H 2669.45 0.0237975 2.99891 0
M  V30 25325 H 2667 0.0499063 1.5622 0
M  V30 25326 H 2667.74 -2.41068 2.16925 0
M  V30 25327 H 2667.52 -1.43274 3.64986 0
M  V30 25328 H 2669.01 -2.39594 3.4203 0
M  V30 25329 N 2669.45 -1.57577 0.0267774 0
M  V30 25330 C 2670.68 -1.95718 -0.661666 0
M  V30 25331 C 2671.09 -0.901735 -1.66329 0
M  V30 25332 O 2670.43 0.125209 -1.83273 0
M  V30 25333 C 2670.49 -3.2999 -1.42643 0
M  V30 25334 C 2670.16 -4.53261 -0.583402 0
M  V30 25335 C 2671.15 -5.19711 0.140312 0
M  V30 25336 C 2668.84 -4.99586 -0.521493 0
M  V30 25337 C 2670.83 -6.30804 0.914634 0
M  V30 25338 C 2668.52 -6.10561 0.256535 0
M  V30 25339 C 2669.52 -6.76029 0.973308 0
M  V30 25340 O 2669.2 -7.84875 1.73859 0
M  V30 25341 H 2668.94 -0.649485 -0.187471 0
M  V30 25342 H 2671.49 -2.05236 0.0821208 0
M  V30 25343 H 2669.72 -3.16956 -2.21531 0
M  V30 25344 H 2671.41 -3.5305 -2.00276 0
M  V30 25345 H 2672.18 -4.84893 0.101802 0
M  V30 25346 H 2668.05 -4.48435 -1.06896 0
M  V30 25347 H 2671.6 -6.81836 1.47462 0
M  V30 25348 H 2667.5 -6.44817 0.296771 0
M  V30 25349 H 2668.26 -8.01529 1.65812 0
M  V30 25350 N 2670.93 0.246342 -1.55663 0
M  V30 25351 C 2672.16 0.990406 -1.81313 0
M  V30 25352 C 2672.56 1.79425 -0.600266 0
M  V30 25353 O 2671.91 1.7834 0.440505 0
M  V30 25354 C 2671.97 1.97601 -3.00323 0
M  V30 25355 C 2671.63 1.35905 -4.36324 0
M  V30 25356 C 2672.63 0.761257 -5.14296 0
M  V30 25357 C 2670.32 1.37825 -4.83021 0
M  V30 25358 C 2672.31 0.190886 -6.37114 0
M  V30 25359 C 2670 0.804021 -6.05788 0
M  V30 25360 C 2670.99 0.211369 -6.82673 0
M  V30 25361 O 2670.68 -0.353986 -8.0312 0
M  V30 25362 H 2670.41 0.297047 -0.607239 0
M  V30 25363 H 2672.97 0.274316 -2.0356 0
M  V30 25364 H 2671.2 2.73043 -2.73833 0
M  V30 25365 H 2672.89 2.58355 -3.13061 0
M  V30 25366 H 2673.65 0.738929 -4.79338 0
M  V30 25367 H 2669.53 1.82893 -4.23168 0
M  V30 25368 H 2673.08 -0.272329 -6.97068 0
M  V30 25369 H 2668.97 0.823679 -6.40223 0
M  V30 25370 H 2669.74 -0.245905 -8.18131 0
M  V30 25371 N 2672.4 1.4905 0.512027 0
M  V30 25372 C 2673.65 1.57668 1.26433 0
M  V30 25373 C 2673.97 0.260326 1.93254 0
M  V30 25374 O 2673.24 -0.719532 1.82207 0
M  V30 25375 H 2671.82 0.580896 0.469648 0
M  V30 25376 H 2674.49 1.85616 0.594366 0
M  V30 25377 H 2673.58 2.36706 2.03413 0
M  V30 25378 N 2673.88 -0.762259 1.3794 0
M  V30 25379 C 2675.11 -1.55657 1.37061 0
M  V30 25380 C 2675.53 -1.88058 -0.0395792 0
M  V30 25381 O 2674.89 -1.49935 -1.01927 0
M  V30 25382 C 2674.94 -2.83772 2.22499 0
M  V30 25383 O 2674.04 -3.78556 1.63613 0
M  V30 25384 H 2673.38 -0.471132 0.4679 0
M  V30 25385 H 2675.91 -0.942693 1.81589 0
M  V30 25386 H 2675.92 -3.32782 2.36051 0
M  V30 25387 H 2674.6 -2.59518 3.24997 0
M  V30 25388 H 2673.18 -3.3723 1.59156 0
M  V30 25389 N 2675.36 -1.22666 -0.989486 0
M  V30 25390 C 2676.61 -1.0512 -1.7261 0
M  V30 25391 C 2676.93 0.414097 -1.90552 0
M  V30 25392 O 2676.2 1.2976 -1.46763 0
M  V30 25393 H 2674.78 -0.385988 -0.639548 0
M  V30 25394 H 2677.44 -1.54234 -1.19155 0
M  V30 25395 H 2676.54 -1.5318 -2.71923 0
M  V30 25396 N 2676.84 1.18685 -1.0369 0
M  V30 25397 C 2678.07 1.92517 -0.757952 0
M  V30 25398 C 2678.48 1.7596 0.684368 0
M  V30 25399 O 2677.84 1.08676 1.46615 0
M  V30 25400 C 2677.89 3.4404 -1.10991 0
M  V30 25401 O 2677.61 3.60071 -2.4956 0
M  V30 25402 C 2679.11 4.34978 -0.85492 0
M  V30 25403 H 2676.33 0.611288 -0.27671 0
M  V30 25404 H 2678.88 1.50593 -1.38355 0
M  V30 25405 H 2677.03 3.83766 -0.529346 0
M  V30 25406 H 2677.45 4.53844 -2.62918 0
M  V30 25407 H 2678.92 5.39865 -1.15107 0
M  V30 25408 H 2679.4 4.38696 0.21043 0
M  V30 25409 H 2680 4.00944 -1.4186 0
M  V30 25410 N 2678.32 0.815849 1.34839 0
M  V30 25411 C 2679.73 0.460322 1.80936 0
M  V30 25412 C 2680.08 -1.0186 1.67687 0
M  V30 25413 O 2679.2 -1.79221 1.2128 0
M  V30 25414 C 2679.8 0.828766 3.28507 0
M  V30 25415 C 2678.36 0.525709 3.72711 0
M  V30 25416 C 2677.51 1.04945 2.56674 0
M  V30 25417 H 2680.46 1.00666 1.22687 0
M  V30 25418 H 2680.48 0.129824 3.80278 0
M  V30 25419 H 2679.99 1.90519 3.38118 0
M  V30 25420 H 2678.09 -0.541602 3.68643 0
M  V30 25421 H 2678.2 1.06482 4.67117 0
M  V30 25422 H 2676.57 0.47133 2.50301 0
M  V30 25423 H 2677.35 2.13218 2.69059 0
M  V30 25424 N 2679.8 -1.46924 0.570174 0
M  V30 25425 C 2681.02 -2.07329 0.0542956 0
M  V30 25426 C 2681.45 -1.41809 -1.2358 0
M  V30 25427 O 2680.8 -0.49751 -1.7434 0
M  V30 25428 C 2680.85 -3.60429 -0.111112 0
M  V30 25429 O 2679.96 -3.95436 -1.17064 0
M  V30 25430 H 2679.3 -0.661536 0.0571541 0
M  V30 25431 H 2681.83 -1.88752 0.789549 0
M  V30 25432 H 2681.84 -4.06733 -0.321244 0
M  V30 25433 H 2680.51 -4.07512 0.831084 0
M  V30 25434 H 2679.09 -3.60859 -0.939966 0
M  V30 25435 N 2681.27 -0.307291 -1.54575 0
M  V30 25436 C 2682.5 0.305343 -2.0514 0
M  V30 25437 C 2682.92 1.46257 -1.18281 0
M  V30 25438 O 2682.28 1.8032 -0.188275 0
M  V30 25439 C 2682.33 0.733221 -3.53067 0
M  V30 25440 O 2681.43 1.83735 -3.69209 0
M  V30 25441 H 2680.77 0.0581989 -0.661445 0
M  V30 25442 H 2683.3 -0.450966 -1.99568 0
M  V30 25443 H 2683.31 1.02032 -3.95036 0
M  V30 25444 H 2681.99 -0.113271 -4.15746 0
M  V30 25445 H 2680.57 1.55031 -3.39146 0
M  V30 25446 N 2682.75 1.57561 -0.0351337 0
M  V30 25447 C 2684 1.92047 0.642195 0
M  V30 25448 C 2684.33 0.91209 1.71788 0
M  V30 25449 O 2683.58 -0.0780809 1.95544 0
M  V30 25450 C 2683.88 3.33252 1.29143 0
M  V30 25451 C 2683.55 4.49574 0.345525 0
M  V30 25452 C 2682.21 4.81125 0.0851929 0
M  V30 25453 C 2684.56 5.20315 -0.303661 0
M  V30 25454 C 2681.89 5.8077 -0.832029 0
M  V30 25455 C 2684.24 6.2094 -1.20897 0
M  V30 25456 C 2682.9 6.50928 -1.47814 0
M  V30 25457 H 2682.17 0.70275 0.234996 0
M  V30 25458 H 2684.82 1.91248 -0.0981865 0
M  V30 25459 H 2683.13 3.30341 2.1067 0
M  V30 25460 H 2684.82 3.57209 1.82217 0
M  V30 25461 H 2681.41 4.24944 0.558609 0
M  V30 25462 H 2685.6 4.96165 -0.115602 0
M  V30 25463 H 2680.85 6.02348 -1.04821 0
M  V30 25464 H 2685.03 6.74872 -1.71816 0
M  V30 25465 H 2682.65 7.27956 -2.19052 0
M  V30 25466 N 2684.23 -0.238084 1.55791 0
M  V30 25467 C 2685.64 -0.806442 1.68385 0
M  V30 25468 C 2685.99 -1.85668 0.63419 0
M  V30 25469 O 2685.12 -2.153 -0.217875 0
M  V30 25470 C 2685.71 -1.46954 3.0527 0
M  V30 25471 C 2684.27 -1.98549 3.19774 0
M  V30 25472 C 2683.42 -0.839716 2.6428 0
M  V30 25473 H 2686.37 -0.0137256 1.58694 0
M  V30 25474 H 2686.39 -2.33786 3.00207 0
M  V30 25475 H 2685.9 -0.704925 3.81644 0
M  V30 25476 H 2684 -2.77864 2.48239 0
M  V30 25477 H 2684.12 -2.17682 4.26792 0
M  V30 25478 H 2682.48 -1.24261 2.22332 0
M  V30 25479 H 2683.26 -0.0880429 3.43187 0
M  V30 25480 N 2685.71 -1.4932 -0.504115 0
M  V30 25481 C 2686.94 -1.62353 -1.28254 0
M  V30 25482 C 2687.35 -0.293715 -1.86501 0
M  V30 25483 O 2686.71 0.72042 -1.67679 0
M  V30 25484 C 2686.76 -2.68996 -2.41502 0
M  V30 25485 O 2686.48 -3.9682 -1.85649 0
M  V30 25486 C 2687.98 -2.92706 -3.32923 0
M  V30 25487 H 2685.2 -0.546661 -0.389106 0
M  V30 25488 H 2687.74 -1.9533 -0.605496 0
M  V30 25489 H 2685.9 -2.38806 -3.05042 0
M  V30 25490 H 2686.31 -4.55538 -2.59973 0
M  V30 25491 H 2687.79 -3.71066 -4.08674 0
M  V30 25492 H 2688.26 -2.02503 -3.8973 0
M  V30 25493 H 2688.87 -3.24301 -2.75153 0
M  V30 25494 N 2687.19 0.754933 -1.38342 0
M  V30 25495 C 2688.43 1.51626 -1.34675 0
M  V30 25496 C 2688.76 1.94096 0.0635695 0
M  V30 25497 O 2688.04 1.65332 1.02447 0
M  V30 25498 C 2688.32 2.76977 -2.30121 0
M  V30 25499 C 2688.18 2.40654 -3.80008 0
M  V30 25500 C 2689.49 3.78994 -2.23722 0
M  V30 25501 H 2686.61 0.550048 -0.490527 0
M  V30 25502 H 2689.26 0.864777 -1.69179 0
M  V30 25503 H 2687.41 3.32567 -2.00827 0
M  V30 25504 H 2689.08 1.90849 -4.19969 0
M  V30 25505 H 2687.32 1.7313 -3.97754 0
M  V30 25506 H 2687.99 3.30332 -4.4225 0
M  V30 25507 H 2690.47 3.3294 -2.4958 0
M  V30 25508 H 2689.34 4.64398 -2.92618 0
M  V30 25509 H 2689.6 4.24482 -1.23561 0
M  V30 25510 N 2688.66 1.23189 0.982967 0
M  V30 25511 C 2689.89 1.08991 1.76453 0
M  V30 25512 C 2690.31 -0.354659 1.84726 0
M  V30 25513 O 2689.67 -1.25646 1.30701 0
M  V30 25514 C 2689.72 1.71714 3.17091 0
M  V30 25515 O 2688.82 0.977547 4.00647 0
M  V30 25516 H 2688.16 0.382187 0.542982 0
M  V30 25517 H 2690.69 1.6319 1.2341 0
M  V30 25518 H 2690.7 1.76847 3.67681 0
M  V30 25519 H 2689.38 2.76829 3.10385 0
M  V30 25520 H 2687.96 1.00296 3.59159 0
M  V30 25521 N 2690.14 -1.18133 1.04318 0
M  V30 25522 C 2691.07 -2.24057 0.657338 0
M  V30 25523 C 2692.05 -1.66654 -0.340649 0
M  V30 25524 O 2693.24 -1.92948 -0.22019 0
M  V30 25525 C 2690.37 -3.47293 0.0221325 0
M  V30 25526 C 2689.32 -4.17461 0.943931 0
M  V30 25527 C 2688.65 -5.3442 0.173067 0
M  V30 25528 C 2689.95 -4.70673 2.26417 0
M  V30 25529 H 2691.64 -2.56586 1.54285 0
M  V30 25530 H 2689.19 -1.23334 0.743284 0
M  V30 25531 H 2691.14 -4.206 -0.259533 0
M  V30 25532 H 2689.86 -3.14004 -0.898268 0
M  V30 25533 H 2688.52 -3.46055 1.21002 0
M  V30 25534 H 2688.17 -4.9738 -0.74982 0
M  V30 25535 H 2687.87 -5.82303 0.7872 0
M  V30 25536 H 2689.4 -6.10516 -0.101521 0
M  V30 25537 H 2690.81 -5.35661 2.04303 0
M  V30 25538 H 2689.21 -5.291 2.83149 0
M  V30 25539 H 2690.28 -3.87957 2.9089 0
M  V30 25540 N 2691.62 -0.822988 -1.34405 0
M  V30 25541 C 2692.87 -0.411701 -1.98577 0
M  V30 25542 C 2693.2 1.02262 -1.65095 0
M  V30 25543 O 2692.47 1.71225 -0.922611 0
M  V30 25544 C 2692.76 -0.614297 -3.54822 0
M  V30 25545 C 2692.61 -2.09473 -3.98046 0
M  V30 25546 C 2693.93 -0.0502984 -4.40071 0
M  V30 25547 H 2691.05 -0.15106 -0.721353 0
M  V30 25548 H 2693.69 -1.03556 -1.59299 0
M  V30 25549 H 2691.84 -0.0832457 -3.88411 0
M  V30 25550 H 2693.51 -2.68943 -3.7479 0
M  V30 25551 H 2691.76 -2.58516 -3.48356 0
M  V30 25552 H 2692.43 -2.1873 -5.06815 0
M  V30 25553 H 2694.9 -0.504026 -4.13036 0
M  V30 25554 H 2693.78 -0.221855 -5.48451 0
M  V30 25555 H 2694.04 1.04475 -4.29578 0
M  V30 25556 N 2693.1 1.4662 -0.577957 0
M  V30 25557 C 2694.38 1.95599 0.00491849 0
M  V30 25558 C 2694.76 1.52062 1.46425 0
M  V30 25559 O 2694.1 0.769083 2.15168 0
M  V30 25560 C 2694.31 3.48623 -0.162176 0
M  V30 25561 C 2695.66 4.24591 -0.027537 0
M  V30 25562 O 2696.69 3.56084 -0.0907693 0
M  V30 25563 O 2695.54 5.46385 0.112104 0
M  V30 25564 H 2692.64 0.825332 0.0524912 0
M  V30 25565 H 2695.18 1.56926 -0.645942 0
M  V30 25566 H 2693.96 3.73183 -1.17686 0
M  V30 25567 H 2693.58 3.94114 0.525337 0
M  V30 25568 N 2694.58 0.315484 1.5441 0
M  V30 25569 C 2695.99 -0.0374359 1.59556 0
M  V30 25570 C 2696.19 -1.51178 1.3322 0
M  V30 25571 O 2695.25 -2.26662 1.11268 0
M  V30 25572 C 2696.56 0.37353 2.98371 0
M  V30 25573 C 2698.11 0.323507 3.11324 0
M  V30 25574 C 2698.58 0.709512 4.52471 0
M  V30 25575 N 2700.08 0.662605 4.58436 0
M  V30 25576 C 2700.81 0.933574 5.65749 0
M  V30 25577 N 2700.31 1.27126 6.81037 0
M  V30 25578 N 2702.1 0.859671 5.55487 0
M  V30 25579 H 2694.25 1.27617 1.69787 0
M  V30 25580 H 2696.51 0.51837 0.793723 0
M  V30 25581 H 2696.22 1.40043 3.22616 0
M  V30 25582 H 2696.09 -0.265549 3.76264 0
M  V30 25583 H 2698.48 -0.694172 2.86819 0
M  V30 25584 H 2698.56 0.997408 2.35553 0
M  V30 25585 H 2698.21 1.72507 4.77707 0
M  V30 25586 H 2698.14 0.0133849 5.26598 0
M  V30 25587 H 2700.63 0.413131 3.75635 0
M  V30 25588 H 2700.94 1.46361 7.58814 0
M  V30 25589 H 2699.28 1.30944 6.82553 0
M  V30 25590 H 2702.48 0.595406 4.64298 0
M  V30 25591 H 2702.65 1.07421 6.39034 0
M  V30 25592 N 2696.05 -1.5754 0.0434891 0
M  V30 25593 C 2697.28 -1.96694 -0.641801 0
M  V30 25594 C 2697.7 -0.920681 -1.6483 0
M  V30 25595 O 2697.05 0.0959609 -1.82248 0
M  V30 25596 C 2697.11 -3.35926 -1.33551 0
M  V30 25597 O 2696.83 -4.3654 -0.369326 0
M  V30 25598 C 2698.33 -3.89795 -2.11128 0
M  V30 25599 H 2695.55 -0.647506 -0.176001 0
M  V30 25600 H 2698.09 -2.04217 0.107513 0
M  V30 25601 H 2696.25 -3.29577 -2.03611 0
M  V30 25602 H 2696.66 -5.17342 -0.863583 0
M  V30 25603 H 2698.13 -4.89519 -2.55099 0
M  V30 25604 H 2698.61 -3.24808 -2.95629 0
M  V30 25605 H 2699.22 -3.99457 -1.45995 0
M  V30 25606 N 2697.53 0.229818 -1.55915 0
M  V30 25607 C 2698.46 1.28811 -1.94756 0
M  V30 25608 C 2699.44 1.49322 -0.814683 0
M  V30 25609 O 2700.63 1.61644 -1.07634 0
M  V30 25610 C 2697.76 2.63955 -2.2571 0
M  V30 25611 C 2696.71 2.58114 -3.4141 0
M  V30 25612 C 2696.04 3.97212 -3.57948 0
M  V30 25613 C 2697.34 2.13615 -4.76619 0
M  V30 25614 H 2699.03 0.965497 -2.83405 0
M  V30 25615 H 2696.58 0.463004 -1.36353 0
M  V30 25616 H 2698.53 3.38141 -2.51472 0
M  V30 25617 H 2697.26 2.97888 -1.33905 0
M  V30 25618 H 2695.91 1.86386 -3.15683 0
M  V30 25619 H 2695.56 4.28438 -2.63534 0
M  V30 25620 H 2695.26 3.94188 -4.35764 0
M  V30 25621 H 2696.79 4.73072 -3.8605 0
M  V30 25622 H 2698.2 2.7754 -5.01642 0
M  V30 25623 H 2696.6 2.21667 -5.57659 0
M  V30 25624 H 2697.67 1.0882 -4.72532 0
M  V30 25625 N 2699.01 1.49585 0.49619 0
M  V30 25626 C 2700.26 1.59551 1.25186 0
M  V30 25627 C 2700.59 0.2835 1.9212 0
M  V30 25628 O 2699.86 -0.713292 1.80949 0
M  V30 25629 C 2700.15 2.75816 2.31511 0
M  V30 25630 C 2700 4.16825 1.69047 0
M  V30 25631 C 2701.32 2.87708 3.33035 0
M  V30 25632 H 2698.44 0.580735 0.45378 0
M  V30 25633 H 2701.08 1.81887 0.549295 0
M  V30 25634 H 2699.23 2.56902 2.91433 0
M  V30 25635 H 2700.9 4.47267 1.12915 0
M  V30 25636 H 2699.15 4.22249 0.994411 0
M  V30 25637 H 2699.82 4.94059 2.46191 0
M  V30 25638 H 2702.29 3.04941 2.83109 0
M  V30 25639 H 2701.17 3.70727 4.04787 0
M  V30 25640 H 2701.43 1.97262 3.95652 0
M  V30 25641 N 2700.49 -0.747586 1.3874 0
M  V30 25642 C 2701.4 -1.89208 1.38699 0
M  V30 25643 C 2702.41 -1.71678 0.283333 0
M  V30 25644 O 2703.59 -1.94498 0.522748 0
M  V30 25645 C 2700.66 -3.24651 1.21667 0
M  V30 25646 C 2699.72 -3.54664 2.41892 0
M  V30 25647 C 2698.95 -4.83644 2.25663 0
M  V30 25648 O 2699.17 -5.56457 1.25348 0
M  V30 25649 O 2698.11 -5.13272 3.14381 0
M  V30 25650 H 2701.93 -1.92198 2.35146 0
M  V30 25651 H 2699.52 -0.893687 1.19723 0
M  V30 25652 H 2701.4 -4.05616 1.14253 0
M  V30 25653 H 2700.07 -3.2246 0.283081 0
M  V30 25654 H 2698.98 -2.73836 2.54882 0
M  V30 25655 H 2700.31 -3.61622 3.33902 0
M  V30 25656 N 2701.97 -1.23709 -0.97642 0
M  V30 25657 C 2703.19 -1.09925 -1.75873 0
M  V30 25658 C 2703.62 0.344858 -1.84912 0
M  V30 25659 O 2702.97 1.24951 -1.31365 0
M  V30 25660 C 2703.02 -1.73393 -3.16176 0
M  V30 25661 O 2702.13 -0.998781 -4.00123 0
M  V30 25662 H 2701.47 -0.385061 -0.540947 0
M  V30 25663 H 2704 -1.63842 -1.22543 0
M  V30 25664 H 2704.01 -1.78795 -3.66738 0
M  V30 25665 H 2702.68 -2.78471 -3.08912 0
M  V30 25666 H 2701.26 -1.022 -3.58622 0
M  V30 25667 N 2703.44 1.17579 -1.04943 0
M  V30 25668 C 2704.69 1.88055 -0.759145 0
M  V30 25669 C 2705.02 1.80682 0.711887 0
M  V30 25670 O 2704.3 1.2131 1.52033 0
M  V30 25671 C 2704.58 3.38185 -1.23706 0
M  V30 25672 C 2704.43 3.54322 -2.77084 0
M  V30 25673 C 2705.75 4.32124 -0.83409 0
M  V30 25674 H 2702.87 0.682863 -0.277249 0
M  V30 25675 H 2705.51 1.38284 -1.30298 0
M  V30 25676 H 2703.66 3.80704 -0.774404 0
M  V30 25677 H 2705.34 3.20836 -3.31455 0
M  V30 25678 H 2703.58 2.96684 -3.16482 0
M  V30 25679 H 2704.25 4.59698 -3.05585 0
M  V30 25680 H 2706.73 3.97432 -1.23235 0
M  V30 25681 H 2705.6 5.35709 -1.19613 0
M  V30 25682 H 2705.86 4.41322 0.262117 0
M  V30 25683 N 2704.92 0.830104 1.33967 0
M  V30 25684 C 2706.15 0.434808 2.0228 0
M  V30 25685 C 2706.57 -0.96139 1.62489 0
M  V30 25686 O 2705.92 -1.62335 0.833878 0
M  V30 25687 C 2705.97 0.535687 3.57509 0
M  V30 25688 O 2705.69 1.87686 3.9586 0
M  V30 25689 C 2707.2 0.136215 4.43091 0
M  V30 25690 H 2704.42 0.173624 0.648148 0
M  V30 25691 H 2706.96 1.12025 1.71087 0
M  V30 25692 H 2705.11 -0.101749 3.87266 0
M  V30 25693 H 2705.53 1.85618 4.90557 0
M  V30 25694 H 2707 0.257869 5.51397 0
M  V30 25695 H 2707.48 -0.921 4.29435 0
M  V30 25696 H 2708.09 0.747736 4.18675 0
M  V30 25697 N 2706.4 -1.46311 0.585725 0
M  V30 25698 C 2707.33 -2.28463 -0.183647 0
M  V30 25699 C 2708.35 -1.38688 -0.852615 0
M  V30 25700 O 2709.54 -1.63261 -0.721672 0
M  V30 25701 C 2706.64 -3.1381 -1.27971 0
M  V30 25702 C 2705.81 -4.31728 -0.702088 0
M  V30 25703 C 2704.87 -4.9845 -1.68624 0
M  V30 25704 O 2703.89 -5.55947 -1.22111 0
M  V30 25705 N 2705.1 -4.95735 -3.02039 0
M  V30 25706 H 2707.86 -2.95134 0.521178 0
M  V30 25707 H 2705.42 -1.56257 0.423701 0
M  V30 25708 H 2707.41 -3.55311 -1.93743 0
M  V30 25709 H 2705.98 -2.49194 -1.88736 0
M  V30 25710 H 2705.2 -3.93975 0.13317 0
M  V30 25711 H 2706.49 -5.07938 -0.296012 0
M  V30 25712 H 2705.89 -4.50272 -3.42449 0
M  V30 25713 H 2704.45 -5.41167 -3.63292 0
M  V30 25714 N 2707.88 -0.323668 -1.54241 0
M  V30 25715 C 2708.84 0.529563 -2.22998 0
M  V30 25716 C 2709.84 1.04345 -1.22347 0
M  V30 25717 O 2711.03 0.935863 -1.46926 0
M  V30 25718 C 2708.16 1.73557 -2.93412 0
M  V30 25719 H 2709.36 -0.0715045 -2.99815 0
M  V30 25720 H 2706.91 -0.0747533 -1.56121 0
M  V30 25721 H 2707.65 2.37587 -2.20733 0
M  V30 25722 H 2707.43 1.37449 -3.67219 0
M  V30 25723 H 2708.92 2.34122 -3.45799 0
M  V30 25724 N 2709.36 1.57515 -0.0518432 0
M  V30 25725 C 2710.77 1.80324 0.483755 0
M  V30 25726 C 2711.12 0.964129 1.70877 0
M  V30 25727 O 2710.24 0.18091 2.15642 0
M  V30 25728 C 2710.84 3.27053 0.884401 0
M  V30 25729 C 2709.4 3.50778 1.36498 0
M  V30 25730 C 2708.55 2.75202 0.340491 0
M  V30 25731 H 2711.5 1.56251 -0.277718 0
M  V30 25732 H 2711.52 3.3801 1.74727 0
M  V30 25733 H 2711.03 3.88099 -0.00737915 0
M  V30 25734 H 2709.13 2.95013 2.27592 0
M  V30 25735 H 2709.24 4.5949 1.35667 0
M  V30 25736 H 2707.61 2.41359 0.813518 0
M  V30 25737 H 2708.39 3.38975 -0.543216 0
M  V30 25738 N 2710.84 -0.221546 1.56035 0
M  V30 25739 C 2712.06 -0.962832 1.83132 0
M  V30 25740 C 2712.48 -1.77945 0.630966 0
M  V30 25741 O 2711.84 -1.78052 -0.400488 0
M  V30 25742 C 2711.89 -1.88039 3.08745 0
M  V30 25743 O 2711.61 -1.09679 4.24149 0
M  V30 25744 C 2713.11 -2.73557 3.48829 0
M  V30 25745 H 2710.33 -0.282183 0.60878 0
M  V30 25746 H 2712.87 -0.236774 2.03125 0
M  V30 25747 H 2711.03 -2.5604 2.90727 0
M  V30 25748 H 2711.44 -1.71965 4.95508 0
M  V30 25749 H 2712.92 -3.33642 4.39758 0
M  V30 25750 H 2713.39 -3.45951 2.70582 0
M  V30 25751 H 2714 -2.1097 3.69286 0
M  V30 25752 N 2712.31 -1.49846 -0.48825 0
M  V30 25753 C 2713.28 -1.66922 -1.57066 0
M  V30 25754 C 2714.28 -0.540505 -1.51444 0
M  V30 25755 O 2715.47 -0.807215 -1.54369 0
M  V30 25756 C 2712.6 -1.67849 -2.96715 0
M  V30 25757 H 2713.79 -2.63476 -1.43249 0
M  V30 25758 H 2711.34 -1.39069 -0.71341 0
M  V30 25759 H 2712.08 -0.729256 -3.15994 0
M  V30 25760 H 2711.86 -2.49831 -3.02203 0
M  V30 25761 H 2713.35 -1.83073 -3.75332 0
M  V30 25762 N 2713.79 0.740218 -1.39135 0
M  V30 25763 C 2714.72 1.86425 -1.33335 0
M  V30 25764 C 2715.74 1.60975 -0.243071 0
M  V30 25765 O 2716.93 1.71306 -0.501638 0
M  V30 25766 C 2714.03 3.22344 -1.04632 0
M  V30 25767 C 2713.2 3.75192 -2.24833 0
M  V30 25768 C 2712.26 4.89659 -1.92667 0
M  V30 25769 O 2711.28 5.03592 -2.65299 0
M  V30 25770 N 2712.49 5.73642 -0.889676 0
M  V30 25771 H 2715.25 1.91907 -2.30199 0
M  V30 25772 H 2712.81 0.920732 -1.3317 0
M  V30 25773 H 2714.8 3.96482 -0.811417 0
M  V30 25774 H 2713.37 3.12163 -0.165184 0
M  V30 25775 H 2712.59 2.92465 -2.64306 0
M  V30 25776 H 2713.88 4.07234 -3.05022 0
M  V30 25777 H 2713.28 5.64968 -0.287629 0
M  V30 25778 H 2711.84 6.4787 -0.714671 0
M  V30 25779 N 2715.27 1.24225 0.969846 0
M  V30 25780 C 2716.18 1.04974 2.09804 0
M  V30 25781 C 2717.2 -0.00883396 1.73998 0
M  V30 25782 O 2718.37 0.188883 2.00512 0
M  V30 25783 C 2715.44 0.654512 3.40466 0
M  V30 25784 C 2714.5 1.78933 3.90233 0
M  V30 25785 C 2713.73 1.41286 5.14659 0
M  V30 25786 O 2713.95 0.301732 5.69601 0
M  V30 25787 O 2712.89 2.23773 5.58757 0
M  V30 25788 H 2716.71 1.99552 2.28939 0
M  V30 25789 H 2714.3 1.03025 1.08195 0
M  V30 25790 H 2716.18 0.445525 4.19038 0
M  V30 25791 H 2714.86 -0.262159 3.22637 0
M  V30 25792 H 2713.76 2.05304 3.12731 0
M  V30 25793 H 2715.1 2.68469 4.12535 0
M  V30 25794 N 2716.75 -1.1702 1.05565 0
M  V30 25795 C 2717.71 -2.19367 0.664137 0
M  V30 25796 C 2718.71 -1.5823 -0.28633 0
M  V30 25797 O 2719.9 -1.74061 -0.0696974 0
M  V30 25798 C 2717.03 -3.40892 -0.0239333 0
M  V30 25799 H 2718.23 -2.55518 1.57004 0
M  V30 25800 H 2715.78 -1.31168 0.849987 0
M  V30 25801 H 2716.51 -3.10289 -0.942934 0
M  V30 25802 H 2716.3 -3.86515 0.659419 0
M  V30 25803 H 2717.79 -4.16634 -0.283835 0
M  V30 25804 N 2718.23 -0.837197 -1.33524 0
M  V30 25805 C 2719.47 -0.431246 -1.97445 0
M  V30 25806 C 2719.79 1.01252 -1.66652 0
M  V30 25807 O 2719.06 1.70507 -0.964589 0
M  V30 25808 H 2717.64 -0.156476 -0.730427 0
M  V30 25809 H 2720.31 -1.06979 -1.62916 0
M  V30 25810 H 2719.4 -0.561931 -3.07 0
M  V30 25811 N 2719.7 1.45999 -0.593476 0
M  V30 25812 C 2720.61 2.34207 0.135776 0
M  V30 25813 C 2721.63 1.504 0.874982 0
M  V30 25814 O 2722.81 1.83241 0.835746 0
M  V30 25815 C 2719.87 3.27778 1.12971 0
M  V30 25816 C 2718.93 4.27488 0.394006 0
M  V30 25817 C 2718.16 5.16589 1.34059 0
M  V30 25818 O 2718.39 5.08832 2.57771 0
M  V30 25819 O 2717.32 5.95934 0.845322 0
M  V30 25820 H 2721.15 2.97939 -0.588743 0
M  V30 25821 H 2718.73 1.4515 -0.35381 0
M  V30 25822 H 2720.61 3.85476 1.70254 0
M  V30 25823 H 2719.29 2.66628 1.83551 0
M  V30 25824 H 2718.2 3.73447 -0.220934 0
M  V30 25825 H 2719.53 4.91453 -0.271026 0
M  V30 25826 N 2721.18 0.331843 1.54067 0
M  V30 25827 C 2722.43 -0.267704 2.00319 0
M  V30 25828 C 2722.75 -1.52001 1.22151 0
M  V30 25829 O 2722.02 -1.93176 0.325527 0
M  V30 25830 H 2720.6 -0.101909 0.740016 0
M  V30 25831 H 2723.26 0.4503 1.89627 0
M  V30 25832 H 2722.36 -0.518331 3.07766 0
M  V30 25833 N 2722.66 -1.57485 0.0601958 0
M  V30 25834 C 2724.07 -1.80578 -0.474185 0
M  V30 25835 C 2724.42 -0.973177 -1.70363 0
M  V30 25836 O 2723.55 -0.192344 -2.15543 0
M  V30 25837 C 2724.14 -3.27518 -0.867044 0
M  V30 25838 C 2722.7 -3.51497 -1.34635 0
M  V30 25839 C 2721.85 -2.75378 -0.325892 0
M  V30 25840 H 2724.8 -1.56102 0.286001 0
M  V30 25841 H 2724.82 -3.38932 -1.72932 0
M  V30 25842 H 2724.33 -3.8809 0.0279609 0
M  V30 25843 H 2722.43 -2.96216 -2.26025 0
M  V30 25844 H 2722.55 -4.60203 -1.33228 0
M  V30 25845 H 2720.91 -2.41787 -0.800706 0
M  V30 25846 H 2721.69 -3.38682 0.561185 0
M  V30 25847 N 2724.14 0.213268 -1.5615 0
M  V30 25848 C 2725.36 0.95725 -1.83988 0
M  V30 25849 C 2725.79 1.76821 -0.641557 0
M  V30 25850 O 2725.15 1.7661 0.409691 0
M  V30 25851 C 2725.19 1.84388 -3.09893 0
M  V30 25852 O 2724.3 2.94033 -2.89168 0
M  V30 25853 H 2723.64 0.270595 -0.606362 0
M  V30 25854 H 2726.17 0.224076 -2.03369 0
M  V30 25855 H 2726.18 2.25209 -3.40213 0
M  V30 25856 H 2724.85 1.24788 -3.96738 0
M  V30 25857 H 2723.43 2.57098 -2.70101 0
M  V30 25858 N 2725.62 1.50103 0.480296 0
M  V30 25859 C 2726.86 1.60314 1.2306 0
M  V30 25860 C 2727.19 0.30126 1.92659 0
M  V30 25861 O 2726.46 -0.680721 1.83693 0
M  V30 25862 H 2725.04 0.590727 0.457221 0
M  V30 25863 H 2727.7 1.86835 0.55486 0
M  V30 25864 H 2726.79 2.40967 1.98346 0
M  V30 25865 N 2727.09 -0.732829 1.39526 0
M  V30 25866 C 2728.34 -1.4879 1.36178 0
M  V30 25867 C 2728.66 -1.95562 -0.0387851 0
M  V30 25868 O 2729.86 -2.708 -0.194851 0
M  V30 25869 C 2728.32 -2.68866 2.39246 0
M  V30 25870 C 2727.93 -2.29035 3.85028 0
M  V30 25871 C 2729.67 -3.46679 2.44978 0
M  V30 25872 C 2727.58 -3.45847 4.79733 0
M  V30 25873 H 2726.51 -0.558748 0.506277 0
M  V30 25874 H 2729.16 -0.799197 1.65182 0
M  V30 25875 H 2727.54 -3.39822 2.03316 0
M  V30 25876 H 2728.71 -1.65612 4.30011 0
M  V30 25877 H 2727.03 -1.64309 3.82611 0
M  V30 25878 H 2729.63 -4.33569 3.12925 0
M  V30 25879 H 2729.97 -3.89295 1.47497 0
M  V30 25880 H 2730.5 -2.82754 2.79813 0
M  V30 25881 H 2727.24 -3.08279 5.78484 0
M  V30 25882 H 2726.76 -4.08244 4.39428 0
M  V30 25883 H 2728.44 -4.12152 4.98738 0
M  V30 25884 N 2728.57 -1.24737 -0.963244 0
M  V30 25885 C 2729.5 -1.06836 -2.07626 0
M  V30 25886 C 2730.48 0.0200267 -1.70088 0
M  V30 25887 O 2731.67 -0.147888 -1.93636 0
M  V30 25888 C 2728.8 -0.677129 -3.40635 0
M  V30 25889 C 2727.75 -1.71478 -3.92147 0
M  V30 25890 C 2727.08 -1.17849 -5.21551 0
M  V30 25891 C 2728.38 -3.11172 -4.19487 0
M  V30 25892 H 2730.07 -1.99934 -2.2286 0
M  V30 25893 H 2727.62 -0.962679 -1.07091 0
M  V30 25894 H 2729.57 -0.538866 -4.1794 0
M  V30 25895 H 2728.3 0.289554 -3.25314 0
M  V30 25896 H 2726.95 -1.84134 -3.17002 0
M  V30 25897 H 2726.6 -0.202284 -5.02593 0
M  V30 25898 H 2726.3 -1.87195 -5.56985 0
M  V30 25899 H 2727.83 -1.05244 -6.01462 0
M  V30 25900 H 2729.24 -3.01719 -4.87482 0
M  V30 25901 H 2727.64 -3.77911 -4.66158 0
M  V30 25902 H 2728.71 -3.58877 -3.26091 0
M  V30 25903 N 2730.05 1.16459 -1.06184 0
M  V30 25904 C 2730.96 2.24446 -0.68271 0
M  V30 25905 C 2731.98 1.71381 0.30075 0
M  V30 25906 O 2733.15 2.00838 0.150341 0
M  V30 25907 C 2730.22 3.46621 -0.0737811 0
M  V30 25908 C 2729.28 4.14729 -1.10897 0
M  V30 25909 C 2728.51 5.31072 -0.529001 0
M  V30 25910 O 2728.73 5.66585 0.65858 0
M  V30 25911 O 2727.67 5.88389 -1.26815 0
M  V30 25912 H 2731.49 2.59184 -1.58295 0
M  V30 25913 H 2729.08 1.23952 -0.834035 0
M  V30 25914 H 2730.96 4.20571 0.264118 0
M  V30 25915 H 2729.64 3.1366 0.79996 0
M  V30 25916 H 2728.54 3.42754 -1.49903 0
M  V30 25917 H 2729.88 4.51743 -1.9542 0
M  V30 25918 N 2731.53 0.844266 1.33079 0
M  V30 25919 C 2732.46 0.296533 2.31609 0
M  V30 25920 C 2733.44 -0.598679 1.59216 0
M  V30 25921 O 2734.62 -0.521101 1.87078 0
M  V30 25922 C 2731.75 -0.524702 3.43314 0
M  V30 25923 C 2730.71 0.275181 4.27114 0
M  V30 25924 C 2730.03 -0.670143 5.30484 0
M  V30 25925 C 2731.33 1.49522 5.0044 0
M  V30 25926 H 2733.03 1.11981 2.7767 0
M  V30 25927 H 2730.57 0.539923 1.33495 0
M  V30 25928 H 2732.53 -0.918226 4.11274 0
M  V30 25929 H 2731.25 -1.38124 2.95955 0
M  V30 25930 H 2729.91 0.65033 3.60786 0
M  V30 25931 H 2729.56 -1.52324 4.79381 0
M  V30 25932 H 2729.26 -0.13902 5.87436 0
M  V30 25933 H 2730.78 -1.06107 6.0131 0
M  V30 25934 H 2732.2 1.17456 5.61139 0
M  V30 25935 H 2730.59 1.96353 5.67068 0
M  V30 25936 H 2731.66 2.2621 4.28902 0
M  V30 25937 N 2733.01 -1.45682 0.60121 0
M  V30 25938 C 2734.23 -2.07167 0.0982609 0
M  V30 25939 C 2734.66 -1.44398 -1.20544 0
M  V30 25940 O 2734.01 -0.534378 -1.73246 0
M  V30 25941 C 2734.06 -3.60583 -0.0346342 0
M  V30 25942 O 2733.17 -3.9783 -1.0865 0
M  V30 25943 H 2732.51 -0.660174 0.0711734 0
M  V30 25944 H 2735.04 -1.87035 0.829409 0
M  V30 25945 H 2735.05 -4.07323 -0.234897 0
M  V30 25946 H 2733.72 -4.05657 0.917336 0
M  V30 25947 H 2732.3 -3.62771 -0.863211 0
M  V30 25948 N 2734.48 -0.340009 -1.53889 0
M  V30 25949 C 2735.73 0.257077 -2.00458 0
M  V30 25950 C 2736.05 1.51351 -1.22955 0
M  V30 25951 O 2735.32 1.93001 -0.335768 0
M  V30 25952 H 2733.9 0.0979835 -0.740546 0
M  V30 25953 H 2736.57 -0.46035 -1.89385 0
M  V30 25954 H 2735.66 0.502002 -3.08036 0
M  V30 25955 N 2735.96 1.57451 -0.0685468 0
M  V30 25956 C 2736.93 2.11419 0.885136 0
M  V30 25957 C 2737.93 1.03751 1.22851 0
M  V30 25958 O 2739.12 1.29752 1.16233 0
M  V30 25959 C 2736.25 2.61285 2.18959 0
M  V30 25960 H 2737.44 2.96987 0.416981 0
M  V30 25961 H 2734.99 1.55259 0.180113 0
M  V30 25962 H 2735.73 1.79161 2.70318 0
M  V30 25963 H 2735.51 3.39981 1.95334 0
M  V30 25964 H 2737 3.03125 2.87237 0
M  V30 25965 N 2737.44 -0.204984 1.56261 0
M  V30 25966 C 2738.39 -1.25794 1.90157 0
M  V30 25967 C 2739.38 -1.41483 0.766252 0
M  V30 25968 O 2740.57 -1.44019 1.02895 0
M  V30 25969 C 2737.7 -2.60489 2.23608 0
M  V30 25970 C 2736.78 -2.48633 3.43573 0
M  V30 25971 N 2737.17 -2.06446 4.6175 0
M  V30 25972 C 2735.47 -2.79552 3.47515 0
M  V30 25973 C 2736.17 -2.06243 5.4391 0
M  V30 25974 N 2735.15 -2.47369 4.84055 0
M  V30 25975 H 2738.95 -0.922937 2.79032 0
M  V30 25976 H 2736.46 -0.413473 1.57048 0
M  V30 25977 H 2738.46 -3.36532 2.46073 0
M  V30 25978 H 2737.12 -2.94821 1.36054 0
M  V30 25979 H 2738.13 -1.77312 4.86601 0
M  V30 25980 H 2734.81 -3.18146 2.70351 0
M  V30 25981 H 2736.2 -1.75611 6.48545 0
M  V30 25982 N 2738.92 -1.50356 -0.472329 0
M  V30 25983 C 2740.14 -1.65311 -1.25248 0
M  V30 25984 C 2740.57 -0.335675 -1.85081 0
M  V30 25985 O 2739.93 0.700306 -1.67229 0
M  V30 25986 C 2739.98 -2.74548 -2.33785 0
M  V30 25987 O 2739.08 -2.35715 -3.38396 0
M  V30 25988 H 2738.42 -0.552343 -0.368529 0
M  V30 25989 H 2740.95 -1.96723 -0.562236 0
M  V30 25990 H 2740.96 -2.97587 -2.79116 0
M  V30 25991 H 2739.64 -3.70165 -1.89607 0
M  V30 25992 H 2738.21 -2.23118 -2.98786 0
M  V30 25993 N 2740.4 0.725419 -1.39912 0
M  V30 25994 C 2741.65 1.48222 -1.37385 0
M  V30 25995 C 2741.97 1.94982 0.0263765 0
M  V30 25996 O 2741.24 1.69661 0.979378 0
M  V30 25997 H 2739.82 0.549883 -0.505606 0
M  V30 25998 H 2742.48 0.860577 -1.74872 0
M  V30 25999 H 2741.57 2.35977 -2.04258 0
M  V30 26000 N 2741.88 1.25246 0.956615 0
M  V30 26001 C 2742.84 1.05541 2.03455 0
M  V30 26002 C 2743.84 0.00889143 1.60798 0
M  V30 26003 O 2745.03 0.250895 1.72384 0
M  V30 26004 C 2742.16 0.602024 3.35542 0
M  V30 26005 H 2743.35 2.01227 2.22369 0
M  V30 26006 H 2740.91 1.07625 1.13343 0
M  V30 26007 H 2741.64 -0.357528 3.22323 0
M  V30 26008 H 2741.43 1.35749 3.67851 0
M  V30 26009 H 2742.92 0.485527 4.14768 0
M  V30 26010 N 2743.35 -1.15894 1.068 0
M  V30 26011 C 2744.76 -1.68147 0.811384 0
M  V30 26012 C 2745.12 -1.84612 -0.664307 0
M  V30 26013 O 2744.24 -1.54538 -1.51483 0
M  V30 26014 C 2744.84 -3.05426 1.46629 0
M  V30 26015 C 2743.39 -3.54779 1.25732 0
M  V30 26016 C 2742.54 -2.30638 1.53953 0
M  V30 26017 H 2745.49 -1.00185 1.2308 0
M  V30 26018 H 2745.51 -3.70078 0.884435 0
M  V30 26019 H 2745.03 -2.93411 2.5403 0
M  V30 26020 H 2743.13 -3.72045 0.203286 0
M  V30 26021 H 2743.24 -4.3656 1.97362 0
M  V30 26022 H 2741.6 -2.35904 0.960291 0
M  V30 26023 H 2742.39 -2.21215 2.62524 0
M  V30 26024 N 2744.83 -0.851312 -1.32629 0
M  V30 26025 C 2746.11 -0.374482 -1.91982 0
M  V30 26026 C 2746.49 1.14158 -1.7757 0
M  V30 26027 O 2745.84 1.9617 -1.17174 0
M  V30 26028 C 2746.05 -0.835148 -3.3886 0
M  V30 26029 C 2747.39 -0.850383 -4.15997 0
M  V30 26030 O 2748.42 -0.779566 -3.47565 0
M  V30 26031 O 2747.28 -0.949575 -5.38187 0
M  V30 26032 H 2744.37 -0.108554 -0.819845 0
M  V30 26033 H 2746.92 -0.937991 -1.41421 0
M  V30 26034 H 2745.69 -1.8782 -3.43278 0
M  V30 26035 H 2745.31 -0.248902 -3.9682 0
M  V30 26036 N 2746.31 1.45361 -0.608928 0
M  V30 26037 C 2747.24 2.27652 0.158019 0
M  V30 26038 C 2748.22 1.37217 0.872373 0
M  V30 26039 O 2749.4 1.66647 0.880972 0
M  V30 26040 C 2746.53 3.1562 1.2289 0
M  V30 26041 C 2745.58 4.22006 0.617533 0
M  V30 26042 S 2746.41 5.32397 -0.575611 0
M  V30 26043 C 2747.57 6.23933 0.495828 0
M  V30 26044 H 2747.8 2.92352 -0.540146 0
M  V30 26045 H 2745.33 1.49223 -0.396482 0
M  V30 26046 H 2747.29 3.66858 1.84188 0
M  V30 26047 H 2745.95 2.50183 1.89914 0
M  V30 26048 H 2745.14 4.83485 1.42333 0
M  V30 26049 H 2744.75 3.73915 0.0796616 0
M  V30 26050 H 2747.04 6.6341 1.37453 0
M  V30 26051 H 2747.98 7.08052 -0.0828352 0
M  V30 26052 H 2748.39 5.58633 0.811758 0
M  V30 26053 N 2747.79 0.348166 1.53706 0
M  V30 26054 C 2749.01 -0.250847 2.05877 0
M  V30 26055 C 2749.44 -1.4307 1.22117 0
M  V30 26056 O 2748.8 -1.79757 0.236017 0
M  V30 26057 C 2748.84 -0.639354 3.54887 0
M  V30 26058 O 2747.95 -1.73881 3.73951 0
M  V30 26059 H 2747.29 -0.0406414 0.662755 0
M  V30 26060 H 2749.82 0.50372 1.98302 0
M  V30 26061 H 2749.83 -0.915225 3.97602 0
M  V30 26062 H 2748.5 0.223459 4.15299 0
M  V30 26063 H 2747.08 -1.45985 3.43137 0
M  V30 26064 N 2749.27 -1.57412 0.0768958 0
M  V30 26065 C 2750.51 -1.933 -0.589884 0
M  V30 26066 C 2750.83 -0.958079 -1.69841 0
M  V30 26067 O 2750.1 -0.00706705 -1.95899 0
M  V30 26068 H 2748.68 -0.713595 -0.220888 0
M  V30 26069 H 2751.35 -1.94425 0.135951 0
M  V30 26070 H 2750.44 -2.95241 -1.0119 0
M  V30 26071 N 2750.74 0.196695 -1.56368 0
M  V30 26072 C 2751.65 1.26426 -1.9762 0
M  V30 26073 C 2752.67 1.49894 -0.883624 0
M  V30 26074 O 2753.85 1.62539 -1.18924 0
M  V30 26075 C 2750.91 2.58891 -2.306 0
M  V30 26076 C 2749.97 2.4351 -3.53556 0
M  V30 26077 C 2749.21 3.69658 -3.84953 0
M  V30 26078 O 2749.43 4.73758 -3.17663 0
M  V30 26079 O 2748.36 3.65283 -4.78385 0
M  V30 26080 H 2752.19 0.944182 -2.8865 0
M  V30 26081 H 2749.77 0.401566 -1.43902 0
M  V30 26082 H 2751.66 3.37079 -2.52895 0
M  V30 26083 H 2750.33 2.9053 -1.42738 0
M  V30 26084 H 2749.24 1.63439 -3.36509 0
M  V30 26085 H 2750.57 2.16804 -4.41879 0
M  V30 26086 N 2752.22 1.50604 0.464349 0
M  V30 26087 C 2753.17 1.66346 1.55926 0
M  V30 26088 C 2754.16 0.517914 1.52337 0
M  V30 26089 O 2755.35 0.772629 1.59246 0
M  V30 26090 C 2752.48 1.76715 2.94324 0
M  V30 26091 C 2751.56 2.96968 3.02772 0
M  V30 26092 N 2751.95 4.2055 2.81019 0
M  V30 26093 C 2750.25 2.95665 3.33914 0
M  V30 26094 C 2750.95 5.01578 2.94609 0
M  V30 26095 N 2749.93 4.3567 3.25104 0
M  V30 26096 H 2753.73 2.59583 1.37818 0
M  V30 26097 H 2751.25 1.47881 0.671201 0
M  V30 26098 H 2753.24 1.86097 3.73059 0
M  V30 26099 H 2751.9 0.846408 3.13474 0
M  V30 26100 H 2752.91 4.49938 2.56469 0
M  V30 26101 H 2749.59 2.13117 3.59009 0
M  V30 26102 H 2750.98 6.0987 2.81973 0
M  V30 26103 N 2753.7 -0.717989 1.40295 0
M  V30 26104 C 2754.93 -1.51217 1.41944 0
M  V30 26105 C 2755.35 -1.88089 0.0202701 0
M  V30 26106 O 2754.71 -1.53102 -0.971051 0
M  V30 26107 C 2754.76 -2.7655 2.31415 0
M  V30 26108 O 2753.86 -3.73159 1.75574 0
M  V30 26109 H 2753.2 -0.456007 0.482652 0
M  V30 26110 H 2755.73 -0.884445 1.84496 0
M  V30 26111 H 2755.74 -3.25104 2.46518 0
M  V30 26112 H 2754.42 -2.49047 3.33089 0
M  V30 26113 H 2752.99 -3.31996 1.69804 0
M  V30 26114 N 2755.18 -1.25752 -0.94996 0
M  V30 26115 C 2756.43 -1.10558 -1.69178 0
M  V30 26116 C 2756.75 0.353265 -1.91773 0
M  V30 26117 O 2756.02 1.25025 -1.50816 0
M  V30 26118 H 2754.6 -0.40614 -0.626945 0
M  V30 26119 H 2757.26 -1.57947 -1.14188 0
M  V30 26120 H 2756.36 -1.61754 -2.66912 0
M  V30 26121 N 2756.66 1.15326 -1.07413 0
M  V30 26122 C 2757.9 1.86127 -0.797682 0
M  V30 26123 C 2758.23 1.82365 0.676265 0
M  V30 26124 O 2757.49 1.24221 1.51221 0
M  V30 26125 C 2757.79 3.34755 -1.25196 0
M  V30 26126 C 2757.45 3.58711 -2.73198 0
M  V30 26127 C 2756.11 3.64959 -3.13622 0
M  V30 26128 C 2758.47 3.68363 -3.68725 0
M  V30 26129 C 2755.79 3.78369 -4.4839 0
M  V30 26130 C 2758.15 3.83298 -5.03255 0
M  V30 26131 C 2756.81 3.87791 -5.433 0
M  V30 26132 H 2756.08 0.681087 -0.291892 0
M  V30 26133 H 2758.73 1.36289 -1.34527 0
M  V30 26134 H 2757.03 3.86803 -0.62378 0
M  V30 26135 H 2758.73 3.87943 -1.01495 0
M  V30 26136 H 2755.32 3.5449 -2.40904 0
M  V30 26137 H 2759.5 3.62836 -3.3862 0
M  V30 26138 H 2754.76 3.80105 -4.78884 0
M  V30 26139 H 2758.93 3.89708 -5.77149 0
M  V30 26140 H 2756.56 3.97935 -6.47728 0
M  V30 26141 N 2758.13 0.858334 1.32176 0
M  V30 26142 C 2759.06 0.321082 2.31282 0
M  V30 26143 C 2760.05 -0.581758 1.59842 0
M  V30 26144 O 2761.23 -0.501229 1.8762 0
M  V30 26145 C 2758.36 -0.48826 3.43851 0
M  V30 26146 C 2757.31 0.320466 4.26799 0
M  V30 26147 C 2756.64 -0.61384 5.31165 0
M  V30 26148 C 2757.94 1.54822 4.98826 0
M  V30 26149 H 2759.63 1.1492 2.76467 0
M  V30 26150 H 2757.18 0.554051 1.32915 0
M  V30 26151 H 2759.13 -0.874553 4.12225 0
M  V30 26152 H 2757.86 -1.34978 2.97403 0
M  V30 26153 H 2756.52 0.68856 3.60076 0
M  V30 26154 H 2756.16 -1.47231 4.8097 0
M  V30 26155 H 2755.86 -0.0767064 5.8755 0
M  V30 26156 H 2757.39 -0.99723 6.02402 0
M  V30 26157 H 2758.8 1.23401 5.59862 0
M  V30 26158 H 2757.2 2.02356 5.64953 0
M  V30 26159 H 2758.27 2.30746 4.26479 0
M  V30 26160 N 2759.61 -1.45036 0.616628 0
M  V30 26161 C 2760.89 -1.95544 0.046943 0
M  V30 26162 C 2761.27 -1.55891 -1.42342 0
M  V30 26163 O 2760.62 -0.825861 -2.13053 0
M  V30 26164 C 2760.83 -3.4807 0.25455 0
M  V30 26165 C 2762.18 -4.24369 0.1401 0
M  V30 26166 O 2763.2 -3.55718 0.185147 0
M  V30 26167 O 2762.06 -5.4649 0.0327995 0
M  V30 26168 H 2759.15 -0.826434 -0.0305906 0
M  V30 26169 H 2761.7 -1.55158 0.687321 0
M  V30 26170 H 2760.47 -3.69932 1.27539 0
M  V30 26171 H 2760.09 -3.95368 -0.42066 0
M  V30 26172 N 2761.09 -0.356312 -1.53519 0
M  V30 26173 C 2762.02 0.486621 -2.28373 0
M  V30 26174 C 2763 1.09183 -1.30434 0
M  V30 26175 O 2764.19 1.11082 -1.59293 0
M  V30 26176 C 2761.32 1.63124 -3.06607 0
M  V30 26177 C 2760.27 1.15374 -4.12156 0
M  V30 26178 C 2759.6 2.38788 -4.78419 0
M  V30 26179 C 2760.9 0.245088 -5.21725 0
M  V30 26180 H 2762.59 -0.137849 -2.99082 0
M  V30 26181 H 2760.14 -0.0677387 -1.43841 0
M  V30 26182 H 2762.09 2.22749 -3.57716 0
M  V30 26183 H 2760.81 2.2828 -2.33572 0
M  V30 26184 H 2759.47 0.580231 -3.61979 0
M  V30 26185 H 2759.12 3.02379 -4.01965 0
M  V30 26186 H 2758.82 2.07514 -5.49738 0
M  V30 26187 H 2760.34 2.99115 -5.32318 0
M  V30 26188 H 2761.76 0.748547 -5.68392 0
M  V30 26189 H 2760.16 0.0236553 -6.00095 0
M  V30 26190 H 2761.23 -0.715314 -4.79595 0
M  V30 26191 N 2762.57 1.57369 -0.0852427 0
M  V30 26192 C 2763.79 1.98747 0.592838 0
M  V30 26193 C 2764.22 0.963717 1.61537 0
M  V30 26194 O 2763.58 -0.0690391 1.81169 0
M  V30 26195 C 2763.62 3.39121 1.22593 0
M  V30 26196 O 2762.73 3.39461 2.34179 0
M  V30 26197 H 2762.07 0.646532 0.151303 0
M  V30 26198 H 2764.6 2.03944 -0.163739 0
M  V30 26199 H 2764.61 3.76601 1.56959 0
M  V30 26200 H 2763.28 4.13158 0.476759 0
M  V30 26201 H 2761.86 3.13767 2.01507 0
M  V30 26202 N 2764.05 -0.188399 1.5647 0
M  V30 26203 C 2765.29 -0.905954 1.80657 0
M  V30 26204 C 2765.62 -1.83512 0.659423 0
M  V30 26205 O 2764.89 -1.93238 -0.321834 0
M  V30 26206 H 2763.47 -0.337526 0.666397 0
M  V30 26207 H 2766.13 -0.192305 1.93949 0
M  V30 26208 H 2765.22 -1.49308 2.74069 0
M  V30 26209 N 2765.53 -1.50848 -0.456355 0
M  V30 26210 C 2766.46 -1.73722 -1.56022 0
M  V30 26211 C 2767.44 -0.586501 -1.59669 0
M  V30 26212 O 2768.62 -0.827216 -1.75701 0
M  V30 26213 C 2765.75 -1.84488 -2.94247 0
M  V30 26214 C 2764.71 -2.99791 -3.05466 0
M  V30 26215 C 2764.03 -2.95717 -4.45483 0
M  V30 26216 C 2765.33 -4.4007 -2.8131 0
M  V30 26217 H 2767.03 -2.66148 -1.37133 0
M  V30 26218 H 2764.57 -1.28073 -0.658277 0
M  V30 26219 H 2766.52 -1.99074 -3.71413 0
M  V30 26220 H 2765.25 -0.886946 -3.14326 0
M  V30 26221 H 2763.91 -2.8488 -2.30736 0
M  V30 26222 H 2763.56 -1.9774 -4.62502 0
M  V30 26223 H 2763.26 -3.73133 -4.53923 0
M  V30 26224 H 2764.78 -3.12371 -5.24649 0
M  V30 26225 H 2766.19 -4.55431 -3.48218 0
M  V30 26226 H 2764.59 -5.19048 -3.01179 0
M  V30 26227 H 2765.66 -4.51421 -1.77052 0
M  V30 26228 N 2767 0.710538 -1.40674 0
M  V30 26229 C 2767.94 1.83555 -1.37259 0
M  V30 26230 C 2768.95 1.60423 -0.277161 0
M  V30 26231 O 2770.14 1.70204 -0.537861 0
M  V30 26232 C 2767.24 3.20052 -1.11445 0
M  V30 26233 C 2766.41 3.70338 -2.32741 0
M  V30 26234 C 2765.47 4.85462 -2.0301 0
M  V30 26235 O 2764.5 4.97852 -2.75921 0
M  V30 26236 N 2765.7 5.71626 -1.01115 0
M  V30 26237 H 2768.46 1.86981 -2.34218 0
M  V30 26238 H 2766.02 0.892278 -1.35093 0
M  V30 26239 H 2768.02 3.94672 -0.895334 0
M  V30 26240 H 2766.59 3.11743 -0.231361 0
M  V30 26241 H 2765.81 2.86793 -2.70451 0
M  V30 26242 H 2767.09 4.00672 -3.13591 0
M  V30 26243 H 2766.49 5.64231 -0.407402 0
M  V30 26244 H 2765.05 6.46208 -0.851933 0
M  V30 26245 N 2768.48 1.26254 0.943277 0
M  V30 26246 C 2769.71 1.1455 1.72896 0
M  V30 26247 C 2770.13 -0.29571 1.85761 0
M  V30 26248 O 2769.49 -1.21425 1.34632 0
M  V30 26249 C 2769.54 1.81715 3.11467 0
M  V30 26250 O 2768.64 1.10452 3.97334 0
M  V30 26251 H 2767.98 0.399268 0.530548 0
M  V30 26252 H 2770.51 1.67034 1.18156 0
M  V30 26253 H 2770.52 1.88455 3.61868 0
M  V30 26254 H 2769.2 2.86563 3.0142 0
M  V30 26255 H 2767.77 1.11672 3.55786 0
M  V30 26256 N 2769.96 -1.14755 1.08024 0
M  V30 26257 C 2771.21 -1.85335 0.805946 0
M  V30 26258 C 2771.53 -1.83124 -0.67013 0
M  V30 26259 O 2770.8 -1.27693 -1.48565 0
M  V30 26260 H 2769.38 -0.686218 0.29515 0
M  V30 26261 H 2772.04 -1.39078 1.36541 0
M  V30 26262 H 2771.14 -2.90275 1.1466 0
M  V30 26263 N 2771.44 -0.865331 -1.31719 0
M  V30 26264 C 2772.37 -0.333343 -2.31108 0
M  V30 26265 C 2773.35 0.573273 -1.60149 0
M  V30 26266 O 2774.53 0.491272 -1.87883 0
M  V30 26267 C 2771.66 0.470017 -3.44105 0
M  V30 26268 C 2770.62 -0.343096 -4.26623 0
M  V30 26269 C 2769.94 0.585663 -5.31483 0
M  V30 26270 C 2771.24 -1.57465 -4.97998 0
M  V30 26271 H 2772.94 -1.16385 -2.75853 0
M  V30 26272 H 2770.48 -0.561092 -1.32619 0
M  V30 26273 H 2772.44 0.852679 -4.12683 0
M  V30 26274 H 2771.16 1.33399 -2.98115 0
M  V30 26275 H 2769.82 -0.707646 -3.59705 0
M  V30 26276 H 2769.47 1.44678 -4.81744 0
M  V30 26277 H 2769.17 0.0455461 -5.87582 0
M  V30 26278 H 2770.69 0.965269 -6.02922 0
M  V30 26279 H 2772.11 -1.26369 -5.59199 0
M  V30 26280 H 2770.5 -2.05349 -5.63872 0
M  V30 26281 H 2771.57 -2.33005 -4.25249 0
M  V30 26282 N 2772.92 1.44707 -0.624311 0
M  V30 26283 C 2774.16 2.01321 -0.123575 0
M  V30 26284 C 2774.48 1.49642 1.25963 0
M  V30 26285 O 2775.68 1.9834 1.85401 0
M  V30 26286 C 2774.14 3.59497 -0.170187 0
M  V30 26287 C 2773.75 4.20174 -1.55429 0
M  V30 26288 C 2775.49 4.23612 0.274439 0
M  V30 26289 C 2773.4 5.70553 -1.55638 0
M  V30 26290 H 2772.33 0.752805 -0.0424316 0
M  V30 26291 H 2774.98 1.65998 -0.782105 0
M  V30 26292 H 2773.36 3.92087 0.555316 0
M  V30 26293 H 2774.54 3.99132 -2.30283 0
M  V30 26294 H 2772.85 3.68319 -1.94242 0
M  V30 26295 H 2775.45 5.339 0.292308 0
M  V30 26296 H 2775.79 3.95468 1.30043 0
M  V30 26297 H 2776.32 3.95801 -0.398345 0
M  V30 26298 H 2773.06 6.03422 -2.56051 0
M  V30 26299 H 2772.58 5.93737 -0.850668 0
M  V30 26300 H 2774.26 6.34064 -1.28732 0
M  V30 26301 N 2774.39 0.364449 1.53328 0
M  V30 26302 C 2775.3 -0.490512 2.29415 0
M  V30 26303 C 2776.32 -1.09361 1.35337 0
M  V30 26304 O 2777.5 -1.1048 1.68393 0
M  V30 26305 C 2774.56 -1.61524 3.06775 0
M  V30 26306 C 2773.62 -1.03979 4.16518 0
M  V30 26307 C 2772.85 -2.11091 4.9018 0
M  V30 26308 O 2773.08 -3.32183 4.63693 0
M  V30 26309 O 2772.01 -1.74212 5.76137 0
M  V30 26310 H 2775.84 0.128613 3.03428 0
M  V30 26311 H 2773.42 0.128864 1.48843 0
M  V30 26312 H 2775.3 -2.26918 3.55086 0
M  V30 26313 H 2773.98 -2.21978 2.356 0
M  V30 26314 H 2772.89 -0.34979 3.72461 0
M  V30 26315 H 2774.22 -0.479814 4.89856 0
M  V30 26316 N 2775.87 -1.57322 0.0935872 0
M  V30 26317 C 2777.28 -1.81543 -0.435775 0
M  V30 26318 C 2777.63 -1.00909 -1.68261 0
M  V30 26319 O 2776.76 -0.238021 -2.15087 0
M  V30 26320 C 2777.35 -3.29283 -0.797378 0
M  V30 26321 C 2775.91 -3.54274 -1.27149 0
M  V30 26322 C 2775.06 -2.76008 -0.267407 0
M  V30 26323 H 2778.01 -1.5546 0.319048 0
M  V30 26324 H 2778.03 -3.42524 -1.65704 0
M  V30 26325 H 2777.54 -3.87943 0.110274 0
M  V30 26326 H 2775.64 -3.00943 -2.19691 0
M  V30 26327 H 2775.76 -4.62926 -1.23437 0
M  V30 26328 H 2774.12 -2.43431 -0.74924 0
M  V30 26329 H 2774.9 -3.37416 0.632898 0
M  V30 26330 N 2777.35 0.180099 -1.56568 0
M  V30 26331 C 2778.57 0.918008 -1.85977 0
M  V30 26332 C 2779 1.7542 -0.678919 0
M  V30 26333 O 2778.36 1.7744 0.372137 0
M  V30 26334 C 2778.41 1.77773 -3.13734 0
M  V30 26335 O 2777.51 2.87833 -2.9534 0
M  V30 26336 H 2776.85 0.257672 -0.611965 0
M  V30 26337 H 2779.38 0.180888 -2.03799 0
M  V30 26338 H 2779.39 2.17941 -3.44914 0
M  V30 26339 H 2778.07 1.16345 -3.99295 0
M  V30 26340 H 2776.64 2.51311 -2.75494 0
M  V30 26341 N 2778.83 1.51088 0.448349 0
M  V30 26342 C 2780.08 1.62888 1.19632 0
M  V30 26343 C 2780.4 0.342058 1.91976 0
M  V30 26344 O 2779.67 -0.641604 1.85095 0
M  V30 26345 H 2778.25 0.600292 0.444587 0
M  V30 26346 H 2780.91 1.8797 0.515105 0
M  V30 26347 H 2780 2.4512 1.9319 0
M  V30 26348 N 2780.31 -0.703068 1.41049 0
M  V30 26349 C 2781.22 -1.847 1.44648 0
M  V30 26350 C 2782.23 -1.70689 0.337808 0
M  V30 26351 O 2783.41 -1.92736 0.584361 0
M  V30 26352 C 2780.47 -3.20615 1.31934 0
M  V30 26353 C 2779.53 -3.46789 2.53053 0
M  V30 26354 C 2778.77 -4.7622 2.40936 0
M  V30 26355 O 2778.99 -5.52187 1.42988 0
M  V30 26356 O 2777.92 -5.0301 3.30552 0
M  V30 26357 H 2781.75 -1.84619 2.41142 0
M  V30 26358 H 2779.34 -0.855145 1.22506 0
M  V30 26359 H 2781.22 -4.01776 1.27099 0
M  V30 26360 H 2779.89 -3.21396 0.385525 0
M  V30 26361 H 2778.8 -2.65589 2.63464 0
M  V30 26362 H 2780.13 -3.50816 3.45237 0
M  V30 26363 N 2781.78 -1.26752 -0.936569 0
M  V30 26364 C 2783.2 -1.11412 -1.49814 0
M  V30 26365 C 2783.55 0.303981 -1.93831 0
M  V30 26366 O 2782.67 1.19597 -1.80348 0
M  V30 26367 C 2783.27 -2.01633 -2.72267 0
M  V30 26368 C 2781.83 -1.90425 -3.24677 0
M  V30 26369 C 2780.97 -1.94711 -1.9744 0
M  V30 26370 H 2783.92 -1.39775 -0.75158 0
M  V30 26371 H 2783.94 -1.56694 -3.46738 0
M  V30 26372 H 2783.46 -3.04837 -2.402 0
M  V30 26373 H 2781.56 -0.901738 -3.61524 0
M  V30 26374 H 2781.67 -2.76201 -3.91471 0
M  V30 26375 H 2780.03 -1.38822 -2.13543 0
M  V30 26376 H 2780.82 -2.99553 -1.67698 0
M  V30 26377 N 2783.26 1.1418 -1.08631 0
M  V30 26378 C 2784.67 1.66835 -0.838032 0
M  V30 26379 C 2785.02 1.85645 0.634852 0
M  V30 26380 O 2784.15 1.56928 1.49005 0
M  V30 26381 C 2784.74 3.03055 -1.5147 0
M  V30 26382 C 2783.3 3.52734 -1.31361 0
M  V30 26383 C 2782.45 2.28159 -1.57603 0
M  V30 26384 H 2785.4 0.982143 -1.24658 0
M  V30 26385 H 2785.42 3.68624 -0.943199 0
M  V30 26386 H 2784.93 2.89333 -2.58666 0
M  V30 26387 H 2783.04 3.71675 -0.262449 0
M  V30 26388 H 2783.15 4.33365 -2.04282 0
M  V30 26389 H 2781.51 2.34346 -0.9977 0
M  V30 26390 H 2782.3 2.17011 -2.6601 0
M  V30 26391 N 2784.74 0.872304 1.31258 0
M  V30 26392 C 2785.99 0.483443 1.96233 0
M  V30 26393 C 2786.31 -0.967982 1.69278 0
M  V30 26394 O 2785.58 -1.67889 1.00946 0
M  V30 26395 H 2784.16 0.175787 0.726022 0
M  V30 26396 H 2786.82 1.1126 1.60022 0
M  V30 26397 H 2785.92 0.643129 3.05402 0
M  V30 26398 N 2786.22 -1.44374 0.631976 0
M  V30 26399 C 2787.45 -2.06399 0.143903 0
M  V30 26400 C 2787.86 -1.47233 -1.18186 0
M  V30 26401 O 2787.22 -0.595528 -1.7251 0
M  V30 26402 C 2787.27 -3.61492 0.0238889 0
M  V30 26403 O 2786.99 -4.18454 1.29722 0
M  V30 26404 C 2788.49 -4.40553 -0.492779 0
M  V30 26405 H 2785.71 -0.666206 0.0800659 0
M  V30 26406 H 2788.26 -1.8523 0.866619 0
M  V30 26407 H 2786.41 -3.8192 -0.649271 0
M  V30 26408 H 2786.82 -5.11903 1.14261 0
M  V30 26409 H 2788.3 -5.4949 -0.525764 0
M  V30 26410 H 2788.78 -4.12059 -1.51999 0
M  V30 26411 H 2789.38 -4.25045 0.14716 0
M  V30 26412 N 2787.7 -0.372575 -1.53133 0
M  V30 26413 C 2789.11 0.105123 -1.86404 0
M  V30 26414 C 2789.46 1.47574 -1.29292 0
M  V30 26415 O 2788.58 2.07397 -0.617683 0
M  V30 26416 C 2789.18 0.197528 -3.38224 0
M  V30 26417 C 2787.74 0.619491 -3.71267 0
M  V30 26418 C 2786.88 -0.228968 -2.76353 0
M  V30 26419 H 2789.84 -0.591103 -1.47281 0
M  V30 26420 H 2789.86 1.01981 -3.66579 0
M  V30 26421 H 2789.37 -0.800166 -3.79762 0
M  V30 26422 H 2787.47 1.62516 -3.3529 0
M  V30 26423 H 2787.58 0.389248 -4.77516 0
M  V30 26424 H 2785.95 0.303226 -2.52889 0
M  V30 26425 H 2786.73 -1.22433 -3.20726 0
M  V30 26426 N 2789.17 1.5727 -0.101929 0
M  V30 26427 C 2790.4 1.98652 0.567533 0
M  V30 26428 C 2790.81 0.980066 1.61837 0
M  V30 26429 O 2790.16 -0.0376241 1.83661 0
M  V30 26430 C 2790.22 3.3642 1.26736 0
M  V30 26431 C 2789.88 4.55528 0.366481 0
M  V30 26432 C 2790.88 5.18449 -0.388113 0
M  V30 26433 C 2788.56 5.01505 0.28254 0
M  V30 26434 C 2790.56 6.25721 -1.21456 0
M  V30 26435 C 2788.24 6.08642 -0.547549 0
M  V30 26436 C 2789.24 6.70616 -1.29474 0
M  V30 26437 O 2788.93 7.75686 -2.11108 0
M  V30 26438 H 2788.66 0.65769 0.15627 0
M  V30 26439 H 2791.22 2.0461 -0.179948 0
M  V30 26440 H 2789.45 3.27165 2.06156 0
M  V30 26441 H 2791.14 3.62203 1.83203 0
M  V30 26442 H 2791.9 4.83855 -0.333034 0
M  V30 26443 H 2787.78 4.53025 0.853789 0
M  V30 26444 H 2791.32 6.74024 -1.79825 0
M  V30 26445 H 2787.22 6.42667 -0.604084 0
M  V30 26446 H 2787.99 7.92705 -2.03865 0
M  V30 26447 N 2790.65 -0.171793 1.56661 0
M  V30 26448 C 2791.9 -0.888497 1.81967 0
M  V30 26449 C 2792.23 -1.82266 0.678932 0
M  V30 26450 O 2791.48 -1.92832 -0.333841 0
M  V30 26451 C 2791.78 -1.7173 3.13438 0
M  V30 26452 C 2791.45 -0.932106 4.4116 0
M  V30 26453 C 2790.11 -0.715398 4.75852 0
M  V30 26454 C 2792.46 -0.381296 5.19803 0
M  V30 26455 C 2789.79 0.0632291 5.86666 0
M  V30 26456 C 2792.14 0.38424 6.31432 0
M  V30 26457 C 2790.81 0.611754 6.64691 0
M  V30 26458 H 2790.08 -0.325124 0.665864 0
M  V30 26459 H 2792.72 -0.153462 1.90884 0
M  V30 26460 H 2791.03 -2.52171 2.99861 0
M  V30 26461 H 2792.72 -2.27487 3.30228 0
M  V30 26462 H 2789.31 -1.11105 4.13949 0
M  V30 26463 H 2793.5 -0.536061 4.93396 0
M  V30 26464 H 2788.75 0.249243 6.10892 0
M  V30 26465 H 2792.93 0.818306 6.91576 0
M  V30 26466 H 2790.56 1.21697 7.50396 0
M  V30 26467 N 2792.13 -1.51324 -0.44033 0
M  V30 26468 C 2793.36 -1.6793 -1.21713 0
M  V30 26469 C 2793.78 -0.374858 -1.84327 0
M  V30 26470 O 2793.14 0.664676 -1.68676 0
M  V30 26471 C 2793.19 -2.79446 -2.27909 0
M  V30 26472 O 2792.29 -2.4284 -3.3332 0
M  V30 26473 H 2791.63 -0.560035 -0.35673 0
M  V30 26474 H 2794.16 -1.97872 -0.520382 0
M  V30 26475 H 2794.17 -3.03441 -2.72741 0
M  V30 26476 H 2792.85 -3.74103 -1.81713 0
M  V30 26477 H 2791.42 -2.29405 -2.93986 0
M  V30 26478 N 2793.61 0.695578 -1.41419 0
M  V30 26479 C 2794.86 1.45274 -1.40498 0
M  V30 26480 C 2795.18 1.94994 -0.0149881 0
M  V30 26481 O 2794.45 1.71701 0.94317 0
M  V30 26482 H 2793.03 0.539035 -0.517156 0
M  V30 26483 H 2795.69 0.82329 -1.76658 0
M  V30 26484 H 2794.79 2.31591 -2.09218 0
M  V30 26485 N 2795.09 1.27247 0.929833 0
M  V30 26486 C 2796.36 1.04189 1.65542 0
M  V30 26487 C 2796.74 -0.42406 2.06797 0
M  V30 26488 O 2796.09 -1.40684 1.80056 0
M  V30 26489 C 2796.3 2.00143 2.85909 0
M  V30 26490 C 2797.65 2.29393 3.57301 0
M  V30 26491 O 2798.67 1.981 2.96032 0
M  V30 26492 O 2797.53 2.82728 4.67683 0
M  V30 26493 H 2794.63 0.397024 0.725466 0
M  V30 26494 H 2797.17 1.38503 0.980559 0
M  V30 26495 H 2795.95 2.99017 2.52398 0
M  V30 26496 H 2795.57 1.66377 3.61115 0
M  V30 26497 N 2796.57 -1.13603 1.09235 0
M  V30 26498 C 2797.81 -1.84834 0.827192 0
M  V30 26499 C 2798.14 -1.83418 -0.647167 0
M  V30 26500 O 2797.4 -1.26611 -1.49225 0
M  V30 26501 C 2797.69 -3.3272 1.30506 0
M  V30 26502 C 2797.36 -3.5432 2.7887 0
M  V30 26503 C 2796.02 -3.59923 3.19388 0
M  V30 26504 C 2798.37 -3.6245 3.74539 0
M  V30 26505 C 2795.7 -3.71188 4.54353 0
M  V30 26506 C 2798.05 -3.75243 5.09289 0
M  V30 26507 C 2796.72 -3.79098 5.49401 0
M  V30 26508 H 2795.99 -0.676357 0.302691 0
M  V30 26509 H 2798.64 -1.34132 1.36678 0
M  V30 26510 H 2796.94 -3.85761 0.685238 0
M  V30 26511 H 2798.64 -3.86279 1.07654 0
M  V30 26512 H 2795.23 -3.50613 2.46513 0
M  V30 26513 H 2799.41 -3.57403 3.4435 0
M  V30 26514 H 2794.67 -3.72439 4.8487 0
M  V30 26515 H 2798.84 -3.80477 5.83276 0
M  V30 26516 H 2796.47 -3.87579 6.53977 0
M  V30 26517 N 2798.04 -0.879253 -1.30793 0
M  V30 26518 C 2799.01 -0.346716 -2.26562 0
M  V30 26519 C 2800.01 0.50757 -1.52579 0
M  V30 26520 O 2801.2 0.315545 -1.71318 0
M  V30 26521 C 2798.33 0.506552 -3.37116 0
M  V30 26522 H 2799.52 -1.19228 -2.75181 0
M  V30 26523 H 2797.07 -0.655623 -1.41885 0
M  V30 26524 H 2797.81 1.37294 -2.93804 0
M  V30 26525 H 2797.59 -0.105287 -3.91959 0
M  V30 26526 H 2799.08 0.87112 -4.08413 0
M  V30 26527 N 2799.52 1.44037 -0.639624 0
M  V30 26528 C 2800.75 2.06834 -0.153153 0
M  V30 26529 C 2801.17 1.47543 1.16673 0
M  V30 26530 O 2800.53 0.580123 1.71768 0
M  V30 26531 C 2800.58 3.60548 -0.0609802 0
M  V30 26532 O 2799.68 4.00571 0.98064 0
M  V30 26533 H 2799.02 0.658055 -0.0886518 0
M  V30 26534 H 2801.55 1.8477 -0.878706 0
M  V30 26535 H 2801.56 4.07803 0.12682 0
M  V30 26536 H 2800.24 4.03082 -1.02457 0
M  V30 26537 H 2798.81 3.64933 0.766725 0
M  V30 26538 N 2801 0.380691 1.52933 0
M  V30 26539 C 2802.23 -0.204563 2.05886 0
M  V30 26540 C 2802.64 -1.41221 1.25308 0
M  V30 26541 O 2802 -1.80058 0.297536 0
M  V30 26542 C 2802.05 -0.583186 3.56765 0
M  V30 26543 O 2801.77 0.576475 4.34291 0
M  V30 26544 C 2803.27 -1.22522 4.26032 0
M  V30 26545 H 2800.49 -0.0328874 0.670194 0
M  V30 26546 H 2803.04 0.543431 1.97147 0
M  V30 26547 H 2801.19 -1.28108 3.65605 0
M  V30 26548 H 2801.61 0.267211 5.23819 0
M  V30 26549 H 2803.08 -1.44058 5.32871 0
M  V30 26550 H 2803.56 -2.19004 3.80702 0
M  V30 26551 H 2804.16 -0.568333 4.21486 0
M  V30 26552 N 2802.48 -1.57214 0.110268 0
M  V30 26553 C 2803.71 -1.99239 -0.557799 0
M  V30 26554 C 2804.12 -0.989762 -1.60777 0
M  V30 26555 O 2803.48 0.0185772 -1.82491 0
M  V30 26556 C 2803.53 -3.41288 -1.19183 0
M  V30 26557 O 2803.25 -4.37714 -0.183842 0
M  V30 26558 C 2804.75 -3.98398 -1.94406 0
M  V30 26559 H 2801.97 -0.654389 -0.14838 0
M  V30 26560 H 2804.51 -2.03577 0.194032 0
M  V30 26561 H 2802.67 -3.37917 -1.8945 0
M  V30 26562 H 2803.08 -5.20539 -0.643383 0
M  V30 26563 H 2804.56 -4.99898 -2.34107 0
M  V30 26564 H 2805.03 -3.37055 -2.81586 0
M  V30 26565 H 2805.64 -4.05289 -1.28921 0
M  V30 26566 N 2803.96 0.163482 -1.5675 0
M  V30 26567 C 2804.9 1.22155 -1.97941 0
M  V30 26568 C 2805.9 1.45394 -0.869314 0
M  V30 26569 O 2807.1 1.45881 -1.05445 0
M  V30 26570 H 2803.48 0.410804 -0.629876 0
M  V30 26571 H 2805.45 0.84733 -2.86117 0
M  V30 26572 C 2804.2 2.55147 -2.3621 0
M  V30 26573 H 2803.52 2.38091 -3.21174 0
M  V30 26574 H 2804.96 3.2785 -2.68869 0
M  V30 26575 C 2803.42 3.1448 -1.20847 0
M  V30 26576 O 2803.95 3.98572 -0.500328 0
M  V30 26577 N 2802.16 2.73685 -0.976991 0
M  V30 26578 H 2801.7 2.05402 -1.5546 0
M  V30 26579 H 2801.66 3.13718 -0.206967 0
M  V30 26580 N 2805.43 1.51555 0.432299 0
M  V30 26581 C 2806.68 1.64717 1.18306 0
M  V30 26582 C 2807.01 0.364729 1.90744 0
M  V30 26583 O 2806.29 -0.635904 1.83811 0
M  V30 26584 C 2806.57 2.85387 2.19605 0
M  V30 26585 C 2806.42 4.2362 1.51216 0
M  V30 26586 C 2807.74 3.01574 3.20532 0
M  V30 26587 H 2804.86 0.599459 0.42874 0
M  V30 26588 H 2807.5 1.84053 0.471656 0
M  V30 26589 H 2805.65 2.69032 2.80275 0
M  V30 26590 H 2807.33 4.51654 0.938437 0
M  V30 26591 H 2805.57 4.26086 0.814426 0
M  V30 26592 H 2806.24 5.04056 2.25015 0
M  V30 26593 H 2808.72 3.16674 2.6992 0
M  V30 26594 H 2807.59 3.87562 3.88699 0
M  V30 26595 H 2807.85 2.13865 3.86929 0
M  V30 26596 N 2806.91 -0.688069 1.41786 0
M  V30 26597 C 2808.14 -1.48172 1.4512 0
M  V30 26598 C 2808.56 -1.88004 0.0601621 0
M  V30 26599 O 2807.92 -1.55128 -0.938357 0
M  V30 26600 C 2807.97 -2.71579 2.37229 0
M  V30 26601 O 2807.07 -3.69351 1.8345 0
M  V30 26602 H 2806.41 -0.445667 0.492216 0
M  V30 26603 H 2808.94 -0.845112 1.8633 0
M  V30 26604 H 2808.95 -3.19802 2.53359 0
M  V30 26605 H 2807.63 -2.41926 3.38297 0
M  V30 26606 H 2806.2 -3.28319 1.76808 0
M  V30 26607 N 2808.39 -1.27739 -0.923072 0
M  V30 26608 C 2809.64 -1.14122 -1.66795 0
M  V30 26609 C 2809.96 0.312507 -1.9248 0
M  V30 26610 O 2809.23 1.21798 -1.53435 0
M  V30 26611 H 2807.81 -0.419347 -0.618189 0
M  V30 26612 H 2810.47 -1.60333 -1.10812 0
M  V30 26613 H 2809.57 -1.67379 -2.63421 0
M  V30 26614 N 2809.87 1.13022 -1.09836 0
M  V30 26615 C 2810.78 2.22161 -0.75377 0
M  V30 26616 C 2811.79 1.72251 0.246074 0
M  V30 26617 O 2812.97 2.01215 0.0863697 0
M  V30 26618 C 2810.04 3.46211 -0.184019 0
M  V30 26619 C 2809.1 4.10991 -1.24035 0
M  V30 26620 C 2808.33 5.2912 -0.69769 0
M  V30 26621 O 2808.55 5.68394 0.477992 0
M  V30 26622 O 2807.49 5.84056 -1.4547 0
M  V30 26623 H 2811.31 2.54017 -1.66461 0
M  V30 26624 H 2808.9 1.21236 -0.873047 0
M  V30 26625 H 2810.78 4.21199 0.130183 0
M  V30 26626 H 2809.45 3.16046 0.699767 0
M  V30 26627 H 2808.36 3.37811 -1.60731 0
M  V30 26628 H 2809.69 4.45297 -2.09693 0
M  V30 26629 N 2811.35 0.886177 1.30325 0
M  V30 26630 C 2812.57 0.51946 2.00789 0
M  V30 26631 C 2813 -0.884984 1.65981 0
M  V30 26632 O 2812.35 -1.58673 0.877071 0
M  V30 26633 C 2812.4 0.70282 3.53685 0
M  V30 26634 O 2811.51 -0.250756 4.11637 0
M  V30 26635 H 2810.85 0.204555 0.631707 0
M  V30 26636 H 2813.38 1.19405 1.66143 0
M  V30 26637 H 2813.39 0.602278 4.0353 0
M  V30 26638 H 2812.06 1.7268 3.78357 0
M  V30 26639 H 2810.64 -0.103807 3.72755 0
M  V30 26640 N 2812.82 -1.43695 0.647253 0
M  V30 26641 C 2814.05 -2.0675 0.16412 0
M  V30 26642 C 2814.47 -1.4816 -1.15889 0
M  V30 26643 O 2813.83 -0.589224 -1.71458 0
M  V30 26644 C 2813.88 -3.60511 0.0801001 0
M  V30 26645 O 2812.98 -4.01086 -0.959383 0
M  V30 26646 H 2812.33 -0.657576 0.0921404 0
M  V30 26647 H 2814.86 -1.84301 0.888493 0
M  V30 26648 H 2814.87 -4.07864 -0.105192 0
M  V30 26649 H 2813.54 -4.02533 1.04593 0
M  V30 26650 H 2812.12 -3.65334 -0.747361 0
M  V30 26651 N 2814.3 -0.388796 -1.52729 0
M  V30 26652 C 2815.55 0.193842 -2.01871 0
M  V30 26653 C 2815.88 1.46503 -1.27477 0
M  V30 26654 O 2815.16 1.90849 -0.375096 0
M  V30 26655 C 2815.44 0.462273 -3.5712 0
M  V30 26656 C 2815.29 -0.824169 -4.42185 0
M  V30 26657 C 2816.61 1.25311 -4.21883 0
M  V30 26658 H 2813.73 0.068977 -0.733765 0
M  V30 26659 H 2816.37 -0.518263 -1.82795 0
M  V30 26660 H 2814.52 1.06889 -3.73506 0
M  V30 26661 H 2816.19 -1.46104 -4.37552 0
M  V30 26662 H 2814.44 -1.43959 -4.09216 0
M  V30 26663 H 2815.11 -0.591002 -5.48827 0
M  V30 26664 H 2817.58 0.739738 -4.09472 0
M  V30 26665 H 2816.46 1.40968 -5.3049 0
M  V30 26666 H 2816.72 2.26817 -3.79482 0
M  V30 26667 N 2815.78 1.57153 -0.118604 0
M  V30 26668 C 2816.74 2.14128 0.817427 0
M  V30 26669 C 2817.74 1.07606 1.19488 0
M  V30 26670 O 2818.93 1.33384 1.12046 0
M  V30 26671 C 2816.07 2.68118 2.10536 0
M  V30 26672 H 2817.26 2.98163 0.322286 0
M  V30 26673 H 2814.81 1.55753 0.130628 0
M  V30 26674 H 2815.55 1.8767 2.64482 0
M  V30 26675 H 2815.33 3.46023 1.84419 0
M  V30 26676 H 2816.82 3.1211 2.77448 0
M  V30 26677 N 2817.26 -0.155167 1.56834 0
M  V30 26678 C 2818.19 -1.22108 1.92782 0
M  V30 26679 C 2819.17 -1.41973 0.792613 0
M  V30 26680 O 2820.35 -1.56718 1.04746 0
M  V30 26681 C 2817.48 -2.58138 2.19277 0
M  V30 26682 C 2816.53 -2.54915 3.41937 0
M  V30 26683 S 2817.36 -2.0241 4.95773 0
M  V30 26684 C 2818.52 -3.40185 5.25381 0
M  V30 26685 H 2818.75 -0.914343 2.82891 0
M  V30 26686 H 2816.28 -0.360435 1.50134 0
M  V30 26687 H 2818.24 -3.36423 2.35223 0
M  V30 26688 H 2816.9 -2.86004 1.29848 0
M  V30 26689 H 2816.09 -3.55031 3.57727 0
M  V30 26690 H 2815.7 -1.84734 3.25191 0
M  V30 26691 H 2817.99 -4.36259 5.18348 0
M  V30 26692 H 2818.93 -3.29255 6.26895 0
M  V30 26693 H 2819.34 -3.36943 4.52912 0
M  V30 26694 N 2818.74 -1.51782 -0.424256 0
M  V30 26695 C 2819.98 -1.64771 -1.17025 0
M  V30 26696 C 2820.31 -0.372557 -1.91408 0
M  V30 26697 O 2819.58 0.612076 -1.86093 0
M  V30 26698 H 2818.16 -0.607289 -0.434981 0
M  V30 26699 H 2820.82 -1.88766 -0.485135 0
M  V30 26700 H 2819.91 -2.48163 -1.89266 0
M  V30 26701 N 2820.21 0.68054 -1.42149 0
M  V30 26702 C 2821.44 1.469 -1.45699 0
M  V30 26703 C 2821.86 1.88682 -0.066619 0
M  V30 26704 O 2821.21 1.57765 0.917408 0
M  V30 26705 C 2821.27 2.72184 -2.37903 0
M  V30 26706 O 2820.99 2.32157 -3.7153 0
M  V30 26707 C 2822.49 3.65798 -2.50413 0
M  V30 26708 H 2819.71 0.452201 -0.495737 0
M  V30 26709 H 2822.25 0.836677 -1.86601 0
M  V30 26710 H 2820.41 3.31619 -2.00269 0
M  V30 26711 H 2820.82 3.1302 -4.20855 0
M  V30 26712 H 2822.29 4.50447 -3.19064 0
M  V30 26713 H 2822.77 4.11309 -1.54017 0
M  V30 26714 H 2823.38 3.1226 -2.88745 0
M  V30 26715 N 2821.69 1.28226 0.916285 0
M  V30 26716 C 2822.92 1.18191 1.70428 0
M  V30 26717 C 2823.34 -0.256241 1.86346 0
M  V30 26718 O 2822.7 -1.18542 1.37177 0
M  V30 26719 C 2822.75 1.88281 3.07543 0
M  V30 26720 O 2821.85 1.18855 3.94902 0
M  V30 26721 H 2821.19 0.410432 0.521959 0
M  V30 26722 H 2823.72 1.69503 1.14586 0
M  V30 26723 H 2823.73 1.96089 3.57789 0
M  V30 26724 H 2822.41 2.92893 2.95274 0
M  V30 26725 H 2820.99 1.19194 3.53337 0
M  V30 26726 N 2823.17 -1.12438 1.10433 0
M  V30 26727 C 2824.42 -1.83583 0.845077 0
M  V30 26728 C 2824.74 -1.84504 -0.631136 0
M  V30 26729 O 2824.01 -1.30815 -1.45823 0
M  V30 26730 H 2822.59 -0.679803 0.30964 0
M  V30 26731 H 2825.25 -1.3615 1.3946 0
M  V30 26732 H 2824.35 -2.87778 1.20791 0
M  V30 26733 N 2824.65 -0.893076 -1.29853 0
M  V30 26734 C 2825.56 -0.370198 -2.31661 0
M  V30 26735 C 2826.58 0.531694 -1.65677 0
M  V30 26736 O 2827.75 0.422868 -1.96911 0
M  V30 26737 C 2824.82 0.39968 -3.44389 0
M  V30 26738 C 2823.88 -0.532936 -4.25979 0
M  V30 26739 C 2823.11 0.200294 -5.33324 0
M  V30 26740 O 2823.33 1.42522 -5.52308 0
M  V30 26741 O 2822.27 -0.453774 -6.00187 0
M  V30 26742 H 2826.09 -1.21465 -2.78352 0
M  V30 26743 H 2823.68 -0.657176 -1.3417 0
M  V30 26744 H 2825.56 0.835285 -4.13039 0
M  V30 26745 H 2824.24 1.2203 -2.99817 0
M  V30 26746 H 2823.14 -1.01752 -3.59996 0
M  V30 26747 H 2824.48 -1.31978 -4.74176 0
M  V30 26748 N 2826.13 1.4335 -0.654865 0
M  V30 26749 C 2827.09 2.29185 0.0263159 0
M  V30 26750 C 2828.09 1.42295 0.748926 0
M  V30 26751 O 2829.28 1.63907 0.589929 0
M  V30 26752 C 2826.41 3.24391 1.048 0
M  V30 26753 H 2827.61 2.90906 -0.728934 0
M  V30 26754 H 2825.16 1.50657 -0.416175 0
M  V30 26755 H 2825.89 2.67568 1.83243 0
M  V30 26756 H 2825.68 3.88454 0.533486 0
M  V30 26757 H 2827.17 3.88812 1.52365 0
M  V30 26758 N 2827.61 0.39689 1.52521 0
M  V30 26759 C 2828.83 -0.185222 2.06571 0
M  V30 26760 C 2829.26 -1.39112 1.26607 0
M  V30 26761 O 2828.61 -1.78915 0.293086 0
M  V30 26762 C 2828.66 -0.526126 3.56741 0
M  V30 26763 O 2827.77 -1.61896 3.79293 0
M  V30 26764 H 2827.11 -0.0195358 0.663713 0
M  V30 26765 H 2829.64 0.566553 1.96599 0
M  V30 26766 H 2829.65 -0.788268 4.00313 0
M  V30 26767 H 2828.32 0.35547 4.14378 0
M  V30 26768 H 2826.9 -1.34994 3.47607 0
M  V30 26769 N 2829.08 -1.57088 0.126936 0
M  V30 26770 C 2830.33 -1.95079 -0.528088 0
M  V30 26771 C 2830.65 -1.01163 -1.66707 0
M  V30 26772 O 2829.92 -0.0693872 -1.95777 0
M  V30 26773 H 2828.5 -0.720261 -0.198074 0
M  V30 26774 H 2831.16 -1.93894 0.197738 0
M  V30 26775 H 2830.26 -2.98311 -0.917455 0
M  V30 26776 N 2830.56 0.146848 -1.56914 0
M  V30 26777 C 2831.49 1.18306 -2.0131 0
M  V30 26778 C 2832.47 1.44793 -0.89269 0
M  V30 26779 O 2833.66 1.55711 -1.16051 0
M  V30 26780 C 2830.79 2.5162 -2.39384 0
M  V30 26781 C 2829.74 2.39654 -3.54612 0
M  V30 26782 C 2829.07 3.77679 -3.785 0
M  V30 26783 C 2830.37 1.8805 -4.87273 0
M  V30 26784 H 2832.06 0.813913 -2.88125 0
M  V30 26785 H 2829.61 0.390075 -1.38616 0
M  V30 26786 H 2831.56 3.24336 -2.69043 0
M  V30 26787 H 2830.28 2.90371 -1.49507 0
M  V30 26788 H 2828.94 1.6939 -3.25119 0
M  V30 26789 H 2828.59 4.13866 -2.85874 0
M  V30 26790 H 2828.29 3.70535 -4.56046 0
M  V30 26791 H 2829.82 4.51944 -4.10584 0
M  V30 26792 H 2831.23 2.50559 -5.15648 0
M  V30 26793 H 2829.63 1.91795 -5.68625 0
M  V30 26794 H 2830.7 0.836193 -4.77636 0
M  V30 26795 N 2832.04 1.52005 0.4162 0
M  V30 26796 C 2833.45 1.57958 0.995292 0
M  V30 26797 C 2833.8 0.415788 1.91744 0
M  V30 26798 O 2832.93 -0.464771 2.1135 0
M  V30 26799 C 2833.52 2.86281 1.81186 0
M  V30 26800 C 2832.08 2.94737 2.3411 0
M  V30 26801 C 2831.23 2.5283 1.13896 0
M  V30 26802 H 2834.18 1.57476 0.196688 0
M  V30 26803 H 2834.2 2.71236 2.66855 0
M  V30 26804 H 2833.71 3.70965 1.14045 0
M  V30 26805 H 2831.81 2.1453 3.04643 0
M  V30 26806 H 2831.93 3.98833 2.65459 0
M  V30 26807 H 2830.29 2.06514 1.49077 0
M  V30 26808 H 2831.07 3.39881 0.483323 0
M  V30 26809 N 2833.52 -0.672992 1.42508 0
M  V30 26810 C 2834.43 -1.8159 1.48533 0
M  V30 26811 C 2835.44 -1.69934 0.373937 0
M  V30 26812 O 2836.62 -1.91453 0.625112 0
M  V30 26813 C 2833.68 -3.17745 1.38705 0
M  V30 26814 C 2832.75 -3.41344 2.60352 0
M  V30 26815 C 2831.98 -4.71002 2.50983 0
M  V30 26816 O 2832.2 -5.4903 1.54669 0
M  V30 26817 O 2831.14 -4.95886 3.41147 0
M  V30 26818 H 2834.96 -1.79463 2.45004 0
M  V30 26819 H 2832.55 -0.828968 1.24292 0
M  V30 26820 H 2834.43 -3.98989 1.35593 0
M  V30 26821 H 2833.1 -3.20506 0.453612 0
M  V30 26822 H 2832.01 -2.5994 2.69039 0
M  V30 26823 H 2833.34 -3.43414 3.52601 0
M  V30 26824 N 2835 -1.2871 -0.909472 0
M  V30 26825 C 2836.24 -1.16286 -1.66149 0
M  V30 26826 C 2836.57 0.287036 -1.92067 0
M  V30 26827 O 2835.85 1.20835 -1.52411 0
M  V30 26828 C 2836.13 -1.96636 -3.01673 0
M  V30 26829 C 2835.99 -3.49711 -2.82881 0
M  V30 26830 C 2837.3 -1.78511 -4.02271 0
M  V30 26831 H 2834.42 -0.423804 -0.602959 0
M  V30 26832 H 2837.07 -1.58075 -1.05415 0
M  V30 26833 H 2835.22 -1.61125 -3.53512 0
M  V30 26834 H 2836.89 -3.95152 -2.38019 0
M  V30 26835 H 2835.13 -3.75129 -2.17855 0
M  V30 26836 H 2835.8 -4.01194 -3.7914 0
M  V30 26837 H 2838.28 -2.09509 -3.59507 0
M  V30 26838 H 2837.15 -2.37097 -4.95052 0
M  V30 26839 H 2837.41 -0.737724 -4.35901 0
M  V30 26840 N 2836.47 1.1185 -1.11028 0
M  V30 26841 C 2837.7 1.87307 -0.878851 0
M  V30 26842 C 2838.12 1.79956 0.571078 0
M  V30 26843 O 2837.47 1.1778 1.39407 0
M  V30 26844 C 2837.52 3.36285 -1.32646 0
M  V30 26845 O 2837.25 3.43471 -2.71954 0
M  V30 26846 C 2838.75 4.28661 -1.12982 0
M  V30 26847 H 2835.97 0.592453 -0.315025 0
M  V30 26848 H 2838.51 1.41489 -1.47652 0
M  V30 26849 H 2836.67 3.79623 -0.772336 0
M  V30 26850 H 2837.08 4.36205 -2.91248 0
M  V30 26851 H 2838.55 5.31452 -1.49208 0
M  V30 26852 H 2839.03 4.39146 -0.0689899 0
M  V30 26853 H 2839.64 3.9111 -1.67071 0
M  V30 26854 N 2837.95 0.89995 1.29378 0
M  V30 26855 C 2838.88 0.3945 2.30143 0
M  V30 26856 C 2839.86 -0.530611 1.61612 0
M  V30 26857 O 2841.05 -0.441286 1.8912 0
M  V30 26858 C 2838.18 -0.378619 3.4523 0
M  V30 26859 C 2837.13 0.456087 4.25563 0
M  V30 26860 C 2836.46 -0.444544 5.32849 0
M  V30 26861 C 2837.76 1.70613 4.93648 0
M  V30 26862 H 2839.45 1.23657 2.7267 0
M  V30 26863 H 2837 0.596057 1.31085 0
M  V30 26864 H 2838.95 -0.742964 4.14799 0
M  V30 26865 H 2837.67 -1.25448 3.01547 0
M  V30 26866 H 2836.33 0.802767 3.57703 0
M  V30 26867 H 2835.98 -1.31854 4.85411 0
M  V30 26868 H 2835.68 0.110257 5.87497 0
M  V30 26869 H 2837.21 -0.805076 6.05269 0
M  V30 26870 H 2838.62 1.41151 5.55652 0
M  V30 26871 H 2837.02 2.20227 5.58229 0
M  V30 26872 H 2838.09 2.44197 4.18922 0
M  V30 26873 N 2839.43 -1.43001 0.662458 0
M  V30 26874 C 2840.68 -2.00923 0.176908 0
M  V30 26875 C 2840.99 -1.52929 -1.21952 0
M  V30 26876 O 2842.2 -2.03185 -1.80078 0
M  V30 26877 C 2840.65 -3.5892 0.265442 0
M  V30 26878 C 2840.26 -4.15905 1.66514 0
M  V30 26879 C 2842.01 -4.24191 -0.162029 0
M  V30 26880 C 2839.91 -5.66226 1.7071 0
M  V30 26881 H 2838.84 -0.751415 0.062376 0
M  V30 26882 H 2841.49 -1.63866 0.825842 0
M  V30 26883 H 2839.88 -3.93422 -0.451166 0
M  V30 26884 H 2841.05 -3.92886 2.40784 0
M  V30 26885 H 2839.37 -3.6304 2.03939 0
M  V30 26886 H 2841.96 -5.34488 -0.150651 0
M  V30 26887 H 2842.31 -3.98776 -1.19512 0
M  V30 26888 H 2842.84 -3.94605 0.503144 0
M  V30 26889 H 2839.58 -5.96421 2.7196 0
M  V30 26890 H 2839.1 -5.91273 1.00779 0
M  V30 26891 H 2840.78 -6.30428 1.45498 0
M  V30 26892 N 2840.91 -0.404973 -1.52308 0
M  V30 26893 C 2842.14 0.171782 -2.06186 0
M  V30 26894 C 2842.55 1.3921 -1.27539 0
M  V30 26895 O 2841.91 1.79562 -0.326144 0
M  V30 26896 C 2841.96 0.526354 -3.57648 0
M  V30 26897 O 2841.68 -0.645494 -4.33319 0
M  V30 26898 C 2843.18 1.15729 -4.27927 0
M  V30 26899 H 2840.4 0.022221 -0.670632 0
M  V30 26900 H 2842.95 -0.574727 -1.96258 0
M  V30 26901 H 2841.1 1.22276 -3.67597 0
M  V30 26902 H 2841.51 -0.350512 -5.23327 0
M  V30 26903 H 2842.99 1.35562 -5.35095 0
M  V30 26904 H 2843.47 2.12919 -3.84138 0
M  V30 26905 H 2844.07 0.501207 -4.22336 0
M  V30 26906 N 2842.39 1.57018 -0.135265 0
M  V30 26907 C 2843.61 2.00532 0.529308 0
M  V30 26908 C 2844.04 1.01462 1.58389 0
M  V30 26909 O 2843.39 -0.0113668 1.81296 0
M  V30 26910 C 2843.44 3.4285 1.11742 0
M  V30 26911 O 2842.55 3.46739 2.23261 0
M  V30 26912 H 2841.89 0.651018 0.130658 0
M  V30 26913 H 2844.42 2.0332 -0.228539 0
M  V30 26914 H 2844.43 3.81403 1.44898 0
M  V30 26915 H 2843.1 4.14466 0.345074 0
M  V30 26916 H 2841.68 3.20019 1.91422 0
M  V30 26917 N 2843.86 -0.138524 1.5699 0
M  V30 26918 C 2844.77 -1.19005 2.02176 0
M  V30 26919 C 2845.79 -1.46511 0.938647 0
M  V30 26920 O 2846.97 -1.58013 1.24875 0
M  V30 26921 C 2844.03 -2.50154 2.40049 0
M  V30 26922 C 2843.09 -2.3022 3.6235 0
M  V30 26923 C 2842.33 -3.55116 3.98407 0
M  V30 26924 O 2842.55 -4.61642 3.35027 0
M  V30 26925 O 2841.48 -3.47276 4.91613 0
M  V30 26926 H 2845.31 -0.836401 2.91956 0
M  V30 26927 H 2842.89 -0.347881 1.45293 0
M  V30 26928 H 2844.78 -3.27461 2.65231 0
M  V30 26929 H 2843.45 -2.85032 1.53422 0
M  V30 26930 H 2842.36 -1.50837 3.42344 0
M  V30 26931 H 2843.69 -2.00255 4.49621 0
M  V30 26932 N 2845.34 -1.52224 -0.408133 0
M  V30 26933 C 2846.59 -1.66331 -1.15499 0
M  V30 26934 C 2846.92 -0.393735 -1.90473 0
M  V30 26935 O 2846.17 0.623324 -1.85508 0
M  V30 26936 C 2846.47 -2.83663 -2.17417 0
M  V30 26937 C 2846.14 -4.21844 -1.59243 0
M  V30 26938 C 2844.8 -4.59429 -1.43102 0
M  V30 26939 C 2847.15 -5.07952 -1.16767 0
M  V30 26940 C 2844.48 -5.80799 -0.830046 0
M  V30 26941 C 2846.83 -6.29927 -0.580877 0
M  V30 26942 C 2845.5 -6.6626 -0.406611 0
M  V30 26943 H 2844.77 -0.60865 -0.422642 0
M  V30 26944 H 2847.41 -1.86327 -0.442082 0
M  V30 26945 H 2845.72 -2.58006 -2.94856 0
M  V30 26946 H 2847.41 -2.91775 -2.75079 0
M  V30 26947 H 2844 -3.92227 -1.72789 0
M  V30 26948 H 2848.19 -4.79497 -1.28046 0
M  V30 26949 H 2843.44 -6.07572 -0.683054 0
M  V30 26950 H 2847.62 -6.95975 -0.243365 0
M  V30 26951 H 2845.25 -7.60175 0.0611703 0
M  V30 26952 N 2846.82 0.665425 -1.42863 0
M  V30 26953 C 2848.07 1.42754 -1.44045 0
M  V30 26954 C 2848.4 1.94107 -0.059997 0
M  V30 26955 O 2847.67 1.71513 0.917256 0
M  V30 26956 C 2847.96 2.61781 -2.4727 0
M  V30 26957 C 2847.81 2.16 -3.94543 0
M  V30 26958 C 2849.13 3.63999 -2.47372 0
M  V30 26959 H 2846.25 0.517739 -0.524515 0
M  V30 26960 H 2848.89 0.755435 -1.74336 0
M  V30 26961 H 2847.04 3.19122 -2.21571 0
M  V30 26962 H 2848.71 1.63754 -4.31257 0
M  V30 26963 H 2846.96 1.47484 -4.07959 0
M  V30 26964 H 2847.63 3.01538 -4.62363 0
M  V30 26965 H 2850.1 3.16394 -2.70248 0
M  V30 26966 H 2848.98 4.44849 -3.2156 0
M  V30 26967 H 2849.24 4.15765 -1.50307 0
M  V30 26968 N 2848.3 1.29191 0.902633 0
M  V30 26969 C 2849.21 1.15948 2.03944 0
M  V30 26970 C 2850.22 0.0834109 1.738 0
M  V30 26971 O 2851.4 0.294905 1.99229 0
M  V30 26972 C 2848.47 0.834065 3.36518 0
M  V30 26973 C 2847.53 1.99366 3.80199 0
M  V30 26974 C 2846.76 1.68368 5.06446 0
M  V30 26975 O 2846.98 0.603241 5.67201 0
M  V30 26976 O 2845.92 2.53077 5.4611 0
M  V30 26977 H 2849.74 2.11407 2.18039 0
M  V30 26978 H 2847.33 1.08615 1.02582 0
M  V30 26979 H 2849.21 0.667022 4.16087 0
M  V30 26980 H 2847.88 -0.0907676 3.23573 0
M  V30 26981 H 2846.79 2.21593 3.01409 0
M  V30 26982 H 2848.12 2.89959 3.97724 0
M  V30 26983 N 2849.78 -1.1126 1.1162 0
M  V30 26984 C 2851.02 -1.82677 0.864501 0
M  V30 26985 C 2851.35 -1.85163 -0.611531 0
M  V30 26986 O 2850.62 -1.32354 -1.44427 0
M  V30 26987 H 2849.2 -0.676481 0.316833 0
M  V30 26988 H 2851.86 -1.34664 1.40896 0
M  V30 26989 H 2850.95 -2.8648 1.23837 0
M  V30 26990 N 2851.25 -0.906798 -1.28899 0
M  V30 26991 C 2852.5 -0.537155 -1.95557 0
M  V30 26992 C 2852.83 0.915552 -1.71264 0
M  V30 26993 O 2852.11 1.65011 -1.02964 0
M  V30 26994 C 2852.39 -0.838707 -3.50197 0
M  V30 26995 C 2852.24 -2.34364 -3.83919 0
M  V30 26996 C 2853.56 -0.330065 -4.38861 0
M  V30 26997 H 2850.68 -0.19663 -0.710286 0
M  V30 26998 H 2853.32 -1.13478 -1.5239 0
M  V30 26999 H 2851.47 -0.330092 -3.87095 0
M  V30 27000 H 2853.15 -2.92234 -3.56928 0
M  V30 27001 H 2851.39 -2.80147 -3.3121 0
M  V30 27002 H 2852.06 -2.50519 -4.91878 0
M  V30 27003 H 2854.54 -0.765681 -4.08995 0
M  V30 27004 H 2853.41 -0.5702 -5.4593 0
M  V30 27005 H 2853.67 0.769435 -4.35353 0
M  V30 27006 N 2852.73 1.42648 -0.670032 0
M  V30 27007 C 2853.96 2.05945 -0.198576 0
M  V30 27008 C 2854.38 1.50315 1.1424 0
M  V30 27009 O 2853.73 0.641057 1.7087 0
M  V30 27010 C 2853.78 3.61302 -0.119724 0
M  V30 27011 O 2853.5 4.14868 -1.40771 0
M  V30 27012 C 2855.01 4.41704 0.375801 0
M  V30 27013 H 2852.23 0.663849 -0.0977011 0
M  V30 27014 H 2854.77 1.82867 -0.915424 0
M  V30 27015 H 2852.92 3.83508 0.547783 0
M  V30 27016 H 2853.34 5.08694 -1.27793 0
M  V30 27017 H 2854.81 5.50691 0.379891 0
M  V30 27018 H 2855.29 4.15944 1.41021 0
M  V30 27019 H 2855.9 4.24506 -0.259801 0
M  V30 27020 N 2854.21 0.413044 1.52091 0
M  V30 27021 C 2855.12 -0.417277 2.30859 0
M  V30 27022 C 2856.14 -1.05 1.38748 0
M  V30 27023 O 2857.31 -1.05066 1.71823 0
M  V30 27024 C 2854.38 -1.51682 3.11759 0
M  V30 27025 C 2853.44 -0.906751 4.19615 0
M  V30 27026 C 2852.67 -1.9539 4.96647 0
M  V30 27027 O 2852.9 -3.17263 4.74026 0
M  V30 27028 O 2851.83 -1.55795 5.81388 0
M  V30 27029 H 2855.66 0.225081 3.02865 0
M  V30 27030 H 2853.24 0.176152 1.48358 0
M  V30 27031 H 2855.12 -2.15506 3.62126 0
M  V30 27032 H 2853.8 -2.14371 2.42543 0
M  V30 27033 H 2852.7 -0.231118 3.73385 0
M  V30 27034 H 2854.04 -0.323727 4.91134 0
M  V30 27035 N 2855.69 -1.56945 0.143591 0
M  V30 27036 C 2857.1 -1.82838 -0.377798 0
M  V30 27037 C 2857.45 -1.06212 -1.64965 0
M  V30 27038 O 2856.58 -0.306328 -2.14221 0
M  V30 27039 C 2857.17 -3.31653 -0.692215 0
M  V30 27040 C 2855.73 -3.5814 -1.15814 0
M  V30 27041 C 2854.88 -2.76719 -0.179461 0
M  V30 27042 H 2857.83 -1.54366 0.368345 0
M  V30 27043 H 2857.85 -3.47622 -1.54723 0
M  V30 27044 H 2857.36 -3.87396 0.23364 0
M  V30 27045 H 2855.46 -3.0778 -2.10005 0
M  V30 27046 H 2855.58 -4.66618 -1.08647 0
M  V30 27047 H 2853.94 -2.45691 -0.671415 0
M  V30 27048 H 2854.72 -3.35231 0.739924 0
M  V30 27049 N 2857.17 0.130197 -1.57061 0
M  V30 27050 C 2858.4 0.854423 -1.88434 0
M  V30 27051 C 2858.81 1.73963 -0.733639 0
M  V30 27052 O 2858.17 1.80084 0.295997 0
M  V30 27053 C 2858.22 1.69718 -3.19183 0
M  V30 27054 O 2857.94 0.847629 -4.29822 0
M  V30 27055 C 2859.44 2.52754 -3.64184 0
M  V30 27056 H 2856.66 0.24621 -0.624197 0
M  V30 27057 H 2859.2 0.117944 -2.0416 0
M  V30 27058 H 2857.36 2.38654 -3.05161 0
M  V30 27059 H 2857.77 1.42783 -5.04691 0
M  V30 27060 H 2859.25 3.07435 -4.58462 0
M  V30 27061 H 2859.72 3.29587 -2.90291 0
M  V30 27062 H 2860.33 1.8908 -3.80958 0
M  V30 27063 N 2858.65 1.52438 0.400055 0
M  V30 27064 C 2859.89 1.66168 1.14329 0
M  V30 27065 C 2860.21 0.402287 1.91418 0
M  V30 27066 O 2861.41 0.419534 2.68239 0
M  V30 27067 C 2859.87 2.93614 2.08132 0
M  V30 27068 C 2859.48 4.26693 1.36517 0
M  V30 27069 C 2861.22 3.16708 2.82659 0
M  V30 27070 C 2859.13 5.45255 2.29021 0
M  V30 27071 H 2858.06 0.619028 0.430489 0
M  V30 27072 H 2860.71 1.7893 0.406985 0
M  V30 27073 H 2859.09 2.74572 2.85353 0
M  V30 27074 H 2860.27 4.5625 0.645981 0
M  V30 27075 H 2858.58 4.09773 0.739948 0
M  V30 27076 H 2861.18 4.02466 3.5203 0
M  V30 27077 H 2861.52 2.31318 3.46118 0
M  V30 27078 H 2862.05 3.36265 2.12535 0
M  V30 27079 H 2858.79 6.3302 1.70194 0
M  V30 27080 H 2858.31 5.20025 2.98887 0
M  V30 27081 H 2859.99 5.78694 2.89349 0
M  V30 27082 N 2860.12 -0.657839 1.43214 0
M  V30 27083 C 2861.35 -1.45061 1.4823 0
M  V30 27084 C 2861.77 -1.87834 0.100027 0
M  V30 27085 O 2861.13 -1.57083 -0.905241 0
M  V30 27086 C 2861.18 -2.66486 2.42936 0
M  V30 27087 O 2860.28 -3.65376 1.91243 0
M  V30 27088 H 2859.62 -0.435126 0.501559 0
M  V30 27089 H 2862.15 -0.805398 1.88081 0
M  V30 27090 H 2862.16 -3.14356 2.60085 0
M  V30 27091 H 2860.84 -2.34695 3.43352 0
M  V30 27092 H 2859.42 -3.24495 1.83732 0
M  V30 27093 N 2861.6 -1.29668 -0.895769 0
M  V30 27094 C 2862.53 -1.10941 -2.00561 0
M  V30 27095 C 2863.55 -0.0557626 -1.62704 0
M  V30 27096 O 2864.74 -0.300687 -1.75949 0
M  V30 27097 C 2861.84 -0.667506 -3.32261 0
M  V30 27098 C 2861.01 -1.80054 -3.98622 0
M  V30 27099 C 2860.07 -1.34899 -5.08615 0
M  V30 27100 O 2859.09 -2.05438 -5.30833 0
M  V30 27101 N 2860.3 -0.222039 -5.80075 0
M  V30 27102 H 2863.06 -2.06526 -2.1718 0
M  V30 27103 H 2860.62 -1.2166 -1.0682 0
M  V30 27104 H 2862.61 -0.348657 -4.03195 0
M  V30 27105 H 2861.18 0.196 -3.11985 0
M  V30 27106 H 2860.4 -2.28806 -3.21001 0
M  V30 27107 H 2861.69 -2.56011 -4.397 0
M  V30 27108 H 2861.09 0.365984 -5.64515 0
M  V30 27109 H 2859.65 0.0374201 -6.51789 0
M  V30 27110 N 2863.08 1.10667 -1.12208 0
M  V30 27111 C 2863.99 2.20512 -0.800724 0
M  V30 27112 C 2865.01 1.72734 0.209482 0
M  V30 27113 O 2866.18 2.01353 0.0436696 0
M  V30 27114 C 2863.25 3.45743 -0.257414 0
M  V30 27115 C 2862.31 4.08268 -1.32725 0
M  V30 27116 C 2861.54 5.27521 -0.809767 0
M  V30 27117 O 2861.76 5.6928 0.35732 0
M  V30 27118 O 2860.7 5.80839 -1.57826 0
M  V30 27119 H 2864.52 2.50429 -1.71811 0
M  V30 27120 H 2862.11 1.19357 -0.898567 0
M  V30 27121 H 2863.99 4.2138 0.0408108 0
M  V30 27122 H 2862.67 3.17459 0.632572 0
M  V30 27123 H 2861.57 3.34326 -1.6786 0
M  V30 27124 H 2862.91 4.40749 -2.19091 0
M  V30 27125 N 2864.56 0.913621 1.28416 0
M  V30 27126 C 2865.49 0.418888 2.29712 0
M  V30 27127 C 2866.47 -0.51344 1.62166 0
M  V30 27128 O 2867.65 -0.421202 1.89577 0
M  V30 27129 C 2864.78 -0.341981 3.45612 0
M  V30 27130 C 2863.74 0.501198 4.25055 0
M  V30 27131 C 2863.06 -0.388003 5.3329 0
M  V30 27132 C 2864.36 1.75839 4.91811 0
M  V30 27133 H 2866.06 1.26543 2.71344 0
M  V30 27134 H 2863.6 0.609926 1.30445 0
M  V30 27135 H 2865.56 -0.698927 4.15563 0
M  V30 27136 H 2864.28 -1.22242 3.0286 0
M  V30 27137 H 2862.94 0.840661 3.56831 0
M  V30 27138 H 2862.59 -1.26699 4.86782 0
M  V30 27139 H 2862.29 0.172563 5.87347 0
M  V30 27140 H 2863.81 -0.740833 6.06089 0
M  V30 27141 H 2865.23 1.47036 5.54124 0
M  V30 27142 H 2863.62 2.26136 5.55862 0
M  V30 27143 H 2864.69 2.48627 4.16308 0
M  V30 27144 N 2866.04 -1.4229 0.677588 0
M  V30 27145 C 2867.28 -2.01102 0.200613 0
M  V30 27146 C 2867.6 -1.5386 -1.198 0
M  V30 27147 O 2866.87 -0.761471 -1.80495 0
M  V30 27148 H 2865.45 -0.743601 0.0711765 0
M  V30 27149 H 2868.12 -1.74168 0.874721 0
M  V30 27150 H 2867.21 -3.11432 0.204055 0
M  V30 27151 N 2867.51 -0.421104 -1.5187 0
M  V30 27152 C 2868.45 0.434025 -2.25053 0
M  V30 27153 C 2869.46 1.0001 -1.28459 0
M  V30 27154 O 2870.65 0.897005 -1.54325 0
M  V30 27155 C 2867.75 1.61738 -2.97815 0
M  V30 27156 C 2866.92 1.17307 -4.21376 0
M  V30 27157 C 2865.98 2.22469 -4.76858 0
M  V30 27158 O 2865.01 1.82568 -5.39127 0
M  V30 27159 N 2866.21 3.54774 -4.59473 0
M  V30 27160 H 2868.97 -0.193125 -2.99077 0
M  V30 27161 H 2866.53 -0.249116 -1.59972 0
M  V30 27162 H 2868.53 2.31679 -3.31824 0
M  V30 27163 H 2867.1 2.1502 -2.26903 0
M  V30 27164 H 2866.32 0.301331 -3.93047 0
M  V30 27165 H 2867.6 0.853356 -5.01593 0
M  V30 27166 H 2867 3.89934 -4.09839 0
M  V30 27167 H 2865.56 4.20656 -4.97887 0
M  V30 27168 N 2868.99 1.56866 -0.151912 0
M  V30 27169 C 2870.41 1.58285 0.204458 0
M  V30 27170 C 2870.61 1.16641 1.64308 0
M  V30 27171 O 2869.66 0.868987 2.37076 0
M  V30 27172 C 2870.98 3.00643 -0.0587548 0
M  V30 27173 C 2872.53 3.13 0.00456802 0
M  V30 27174 C 2873 4.57415 -0.231377 0
M  V30 27175 N 2874.49 4.62856 -0.178476 0
M  V30 27176 C 2875.23 5.72418 -0.33548 0
M  V30 27177 N 2874.72 6.9061 -0.550476 0
M  V30 27178 N 2876.52 5.61438 -0.272739 0
M  V30 27179 H 2868.67 1.82227 -1.09119 0
M  V30 27180 H 2870.93 0.843681 -0.432326 0
M  V30 27181 H 2870.64 3.35516 -1.05459 0
M  V30 27182 H 2870.51 3.71409 0.658442 0
M  V30 27183 H 2872.9 2.77964 0.99096 0
M  V30 27184 H 2872.98 2.4471 -0.745035 0
M  V30 27185 H 2872.62 4.93156 -1.21489 0
M  V30 27186 H 2872.55 5.23838 0.538608 0
M  V30 27187 H 2875.04 3.77896 -0.0171588 0
M  V30 27188 H 2875.36 7.69974 -0.660252 0
M  V30 27189 H 2873.7 6.92518 -0.586857 0
M  V30 27190 H 2876.89 4.67981 -0.105503 0
M  V30 27191 H 2877.06 6.46773 -0.398531 0
M  V30 27192 N 2870.47 -0.121866 1.57128 0
M  V30 27193 C 2871.88 -0.679317 1.73903 0
M  V30 27194 C 2872.23 -1.80452 0.770166 0
M  V30 27195 O 2871.36 -2.16323 -0.0575703 0
M  V30 27196 C 2871.95 -1.23905 3.1533 0
M  V30 27197 C 2870.51 -1.74282 3.33621 0
M  V30 27198 C 2869.66 -0.641366 2.69781 0
M  V30 27199 H 2872.61 0.104028 1.58359 0
M  V30 27200 H 2872.63 -2.10874 3.16722 0
M  V30 27201 H 2872.14 -0.419889 3.85822 0
M  V30 27202 H 2870.24 -2.58684 2.68166 0
M  V30 27203 H 2870.36 -1.85424 4.41763 0
M  V30 27204 H 2868.72 -1.07426 2.30937 0
M  V30 27205 H 2869.5 0.166767 3.42895 0
M  V30 27206 N 2871.95 -1.52648 -0.391965 0
M  V30 27207 C 2873.36 -1.59522 -0.970036 0
M  V30 27208 C 2873.71 -0.44624 -1.91058 0
M  V30 27209 O 2872.84 0.431088 -2.12063 0
M  V30 27210 C 2873.43 -2.89128 -1.76609 0
M  V30 27211 C 2871.99 -2.98424 -2.29391 0
M  V30 27212 C 2871.14 -2.5461 -1.09859 0
M  V30 27213 H 2874.09 -1.57769 -0.17161 0
M  V30 27214 H 2874.11 -2.75447 -2.62506 0
M  V30 27215 H 2873.62 -3.72733 -1.08129 0
M  V30 27216 H 2871.72 -2.1935 -3.01192 0
M  V30 27217 H 2871.83 -4.03006 -2.59081 0
M  V30 27218 H 2870.2 -2.0886 -1.45773 0
M  V30 27219 H 2870.98 -3.40607 -0.42919 0
M  V30 27220 N 2873.43 0.650235 -1.43561 0
M  V30 27221 C 2874.67 1.41219 -1.45551 0
M  V30 27222 C 2875.01 1.94033 -0.0805813 0
M  V30 27223 O 2874.28 1.72476 0.899013 0
M  V30 27224 C 2874.56 2.59144 -2.50033 0
M  V30 27225 C 2874.42 2.11803 -3.96812 0
M  V30 27226 C 2875.74 3.61355 -2.51218 0
M  V30 27227 H 2872.85 0.512146 -0.529976 0
M  V30 27228 H 2875.5 0.736902 -1.75128 0
M  V30 27229 H 2873.65 3.16754 -2.24943 0
M  V30 27230 H 2875.32 1.59171 -4.32969 0
M  V30 27231 H 2873.56 1.43149 -4.09501 0
M  V30 27232 H 2874.23 2.96617 -4.65535 0
M  V30 27233 H 2876.71 3.1351 -2.73589 0
M  V30 27234 H 2875.58 4.41413 -3.2626 0
M  V30 27235 H 2875.85 4.14147 -1.54708 0
M  V30 27236 N 2874.9 1.30141 0.88888 0
M  V30 27237 C 2876.13 1.21654 1.67356 0
M  V30 27238 C 2876.55 -0.221213 1.875 0
M  V30 27239 O 2875.9 -1.14675 1.41972 0
M  V30 27240 C 2875.96 1.93724 3.0521 0
M  V30 27241 O 2875.68 3.31886 2.85978 0
M  V30 27242 C 2877.18 1.91847 3.99637 0
M  V30 27243 H 2874.4 0.42117 0.522357 0
M  V30 27244 H 2876.94 1.717 1.11083 0
M  V30 27245 H 2875.1 1.47486 3.58227 0
M  V30 27246 H 2875.51 3.68334 3.73404 0
M  V30 27247 H 2876.98 2.4682 4.93745 0
M  V30 27248 H 2877.46 0.896484 4.29953 0
M  V30 27249 H 2878.07 2.37878 3.52554 0
M  V30 27250 N 2876.38 -1.1007 1.12794 0
M  V30 27251 C 2877.33 -2.14672 0.768124 0
M  V30 27252 C 2878.32 -1.59179 -0.234688 0
M  V30 27253 O 2879.51 -1.76956 -0.0396119 0
M  V30 27254 C 2876.64 -3.42538 0.228532 0
M  V30 27255 C 2875.72 -4.04955 1.25986 0
M  V30 27256 N 2876.11 -4.42021 2.45868 0
M  V30 27257 C 2874.41 -4.32067 1.10609 0
M  V30 27258 C 2875.11 -4.91104 3.11755 0
M  V30 27259 N 2874.09 -4.88147 2.39194 0
M  V30 27260 H 2877.89 -2.41127 1.68033 0
M  V30 27261 H 2875.41 -1.2723 1.00927 0
M  V30 27262 H 2877.4 -4.16873 -0.0474483 0
M  V30 27263 H 2876.06 -3.17541 -0.678081 0
M  V30 27264 H 2877.07 -4.33596 2.83223 0
M  V30 27265 H 2873.75 -4.16708 0.257095 0
M  V30 27266 H 2875.14 -5.29302 4.13871 0
M  V30 27267 N 2877.86 -0.920419 -1.2793 0
M  V30 27268 C 2879.09 -0.573122 -1.98804 0
M  V30 27269 C 2879.5 0.847171 -1.68726 0
M  V30 27270 O 2878.86 1.56205 -0.943726 0
M  V30 27271 C 2878.91 -0.780695 -3.52969 0
M  V30 27272 O 2878.63 -2.14511 -3.81991 0
M  V30 27273 C 2880.13 -0.441127 -4.411 0
M  V30 27274 H 2877.35 -0.217861 -0.634648 0
M  V30 27275 H 2879.9 -1.23545 -1.62963 0
M  V30 27276 H 2878.05 -0.165272 -3.87047 0
M  V30 27277 H 2878.47 -2.1897 -4.76605 0
M  V30 27278 H 2879.94 -0.637102 -5.48311 0
M  V30 27279 H 2880.42 0.622984 -4.34759 0
M  V30 27280 H 2881.02 -1.03438 -4.1253 0
M  V30 27281 N 2879.34 1.41929 -0.685124 0
M  V30 27282 C 2880.75 1.84469 -0.287732 0
M  V30 27283 C 2881.1 1.5734 1.17212 0
M  V30 27284 O 2880.23 1.03848 1.89854 0
M  V30 27285 C 2880.82 3.34856 -0.515444 0
M  V30 27286 C 2879.38 3.76006 -0.172072 0
M  V30 27287 C 2878.53 2.65423 -0.802855 0
M  V30 27288 H 2881.48 1.31629 -0.886543 0
M  V30 27289 H 2881.5 3.79809 0.229184 0
M  V30 27290 H 2881.01 3.5457 -1.57802 0
M  V30 27291 H 2879.11 3.61897 0.886653 0
M  V30 27292 H 2879.22 4.75074 -0.6198 0
M  V30 27293 H 2877.59 2.53629 -0.233312 0
M  V30 27294 H 2878.37 2.87958 -1.86909 0
M  V30 27295 N 2880.82 0.429152 1.51644 0
M  V30 27296 C 2881.75 -0.422084 2.2528 0
M  V30 27297 C 2882.76 -0.993276 1.28988 0
M  V30 27298 O 2883.95 -0.888809 1.54798 0
M  V30 27299 C 2881.05 -1.60156 2.98669 0
M  V30 27300 C 2880.22 -1.15071 4.21992 0
M  V30 27301 C 2879.28 -2.19937 4.78031 0
M  V30 27302 O 2878.31 -1.79706 5.40087 0
M  V30 27303 N 2879.51 -3.52332 4.61348 0
M  V30 27304 H 2882.28 0.208983 2.9897 0
M  V30 27305 H 2879.84 0.257597 1.59838 0
M  V30 27306 H 2881.83 -2.29916 3.33048 0
M  V30 27307 H 2880.4 -2.13814 2.2804 0
M  V30 27308 H 2879.62 -0.280482 3.93201 0
M  V30 27309 H 2880.91 -0.826743 5.02038 0
M  V30 27310 H 2880.3 -3.87755 4.11901 0
M  V30 27311 H 2878.86 -4.1801 5.00111 0
M  V30 27312 N 2882.29 -1.56783 0.160229 0
M  V30 27313 C 2883.22 -2.20431 -0.770225 0
M  V30 27314 C 2884.21 -1.15653 -1.24734 0
M  V30 27315 O 2885.39 -1.44043 -1.30251 0
M  V30 27316 C 2882.52 -2.83634 -2.00422 0
M  V30 27317 C 2881.47 -3.94355 -1.66338 0
M  V30 27318 C 2880.8 -4.44555 -2.97111 0
M  V30 27319 C 2882.1 -5.14489 -0.899882 0
M  V30 27320 H 2883.79 -2.98439 -0.239731 0
M  V30 27321 H 2881.34 -1.43549 -0.113866 0
M  V30 27322 H 2883.29 -3.26831 -2.66006 0
M  V30 27323 H 2882.02 -2.02978 -2.55866 0
M  V30 27324 H 2880.68 -3.51796 -1.03127 0
M  V30 27325 H 2880.32 -3.60704 -3.50573 0
M  V30 27326 H 2880.02 -5.19243 -2.75064 0
M  V30 27327 H 2881.55 -4.90431 -3.63744 0
M  V30 27328 H 2882.96 -5.54448 -1.45808 0
M  V30 27329 H 2881.36 -5.95024 -0.778864 0
M  V30 27330 H 2882.43 -4.84784 0.105912 0
M  V30 27331 N 2883.77 0.113531 -1.57191 0
M  V30 27332 C 2885.02 0.820349 -1.85139 0
M  V30 27333 C 2885.35 1.7962 -0.746111 0
M  V30 27334 O 2884.6 1.93938 0.262043 0
M  V30 27335 C 2884.9 1.59979 -3.19596 0
M  V30 27336 C 2884.57 0.76773 -4.44316 0
M  V30 27337 C 2883.23 0.538295 -4.7818 0
M  V30 27338 C 2885.58 0.188111 -5.2086 0
M  V30 27339 C 2882.91 -0.280923 -5.86027 0
M  V30 27340 C 2885.26 -0.618328 -6.29571 0
M  V30 27341 C 2883.93 -0.858028 -6.61962 0
M  V30 27342 H 2883.2 0.300187 -0.677472 0
M  V30 27343 H 2885.84 0.0825106 -1.91322 0
M  V30 27344 H 2884.15 2.40869 -3.09014 0
M  V30 27345 H 2885.85 2.15074 -3.38444 0
M  V30 27346 H 2882.44 0.956651 -4.17787 0
M  V30 27347 H 2886.62 0.352571 -4.95046 0
M  V30 27348 H 2881.88 -0.4758 -6.09546 0
M  V30 27349 H 2886.05 -1.07442 -6.88062 0
M  V30 27350 H 2883.68 -1.49464 -7.45362 0
M  V30 27351 N 2885.25 1.52854 0.383864 0
M  V30 27352 C 2886.16 1.80928 1.49339 0
M  V30 27353 C 2887.18 0.696376 1.59457 0
M  V30 27354 O 2888.35 0.984512 1.75697 0
M  V30 27355 C 2885.42 1.97689 2.84815 0
M  V30 27356 C 2884.48 3.21603 2.84377 0
M  V30 27357 C 2883.71 3.37555 4.13391 0
M  V30 27358 O 2883.94 2.58201 5.08614 0
M  V30 27359 O 2882.87 4.30833 4.20317 0
M  V30 27360 H 2886.7 2.75154 1.28545 0
M  V30 27361 H 2884.28 1.38008 0.572204 0
M  V30 27362 H 2886.16 2.10391 3.65121 0
M  V30 27363 H 2884.84 1.06653 3.05625 0
M  V30 27364 H 2883.74 3.14339 2.02834 0
M  V30 27365 H 2885.08 4.12503 2.68519 0
M  V30 27366 N 2886.73 -0.642612 1.43904 0
M  V30 27367 C 2887.95 -1.43481 1.4976 0
M  V30 27368 C 2888.38 -1.87717 0.119944 0
M  V30 27369 O 2887.74 -1.58034 -0.88853 0
M  V30 27370 C 2887.79 -2.63894 2.45749 0
M  V30 27371 O 2886.89 -3.63327 1.95108 0
M  V30 27372 H 2886.23 -0.429782 0.506146 0
M  V30 27373 H 2888.76 -0.785404 1.88925 0
M  V30 27374 H 2888.77 -3.1158 2.63405 0
M  V30 27375 H 2887.45 -2.3104 3.45822 0
M  V30 27376 H 2886.02 -3.22528 1.87163 0
M  V30 27377 N 2888.21 -1.30611 -0.881966 0
M  V30 27378 C 2889.43 -1.22668 -1.67234 0
M  V30 27379 C 2889.86 0.206745 -1.8696 0
M  V30 27380 O 2889.22 1.14863 -1.40272 0
M  V30 27381 C 2889.26 -1.96369 -3.02443 0
M  V30 27382 O 2888.37 -1.29283 -3.91612 0
M  V30 27383 H 2887.71 -0.424126 -0.510894 0
M  V30 27384 H 2890.24 -1.72481 -1.10052 0
M  V30 27385 H 2890.25 -2.05506 -3.52465 0
M  V30 27386 H 2888.92 -3.00618 -2.87405 0
M  V30 27387 H 2887.5 -1.2852 -3.50053 0
M  V30 27388 N 2889.69 1.0947 -1.13376 0
M  V30 27389 C 2890.93 1.81278 -0.893454 0
M  V30 27390 C 2891.25 1.86112 0.581996 0
M  V30 27391 O 2890.52 1.34635 1.42303 0
M  V30 27392 H 2889.1 0.671355 -0.327555 0
M  V30 27393 H 2891.77 1.32405 -1.43021 0
M  V30 27394 H 2890.86 2.84474 -1.28379 0
M  V30 27395 N 2891.16 0.92719 1.2744 0
M  V30 27396 C 2892.11 0.424499 2.26863 0
M  V30 27397 C 2893.08 -0.508319 1.58131 0
M  V30 27398 O 2894.27 -0.427587 1.85947 0
M  V30 27399 C 2891.41 -0.317119 3.4364 0
M  V30 27400 C 2890.52 0.64975 4.27086 0
M  V30 27401 C 2889.65 -0.11166 5.31083 0
M  V30 27402 C 2888.69 0.847949 6.06198 0
M  V30 27403 N 2887.83 0.119198 7.01999 0
M  V30 27404 H 2892.67 1.27732 2.69237 0
M  V30 27405 H 2890.21 0.64113 1.32393 0
M  V30 27406 H 2892.16 -0.763413 4.10156 0
M  V30 27407 H 2890.79 -1.13419 3.02219 0
M  V30 27408 H 2889.85 1.21457 3.60489 0
M  V30 27409 H 2891.16 1.38315 4.79239 0
M  V30 27410 H 2890.31 -0.617894 6.03545 0
M  V30 27411 H 2889.05 -0.87803 4.79731 0
M  V30 27412 H 2888.06 1.36544 5.32575 0
M  V30 27413 H 2889.28 1.61409 6.59639 0
M  V30 27414 H 2887.23 -0.628936 6.52978 0
M  V30 27415 H 2887.14 0.792178 7.51838 0
M  V30 27416 H 2888.41 -0.3664 7.78638 0
M  V30 27417 N 2892.64 -1.41564 0.692641 0
M  V30 27418 C 2893.89 -2.01574 0.2227 0
M  V30 27419 C 2894.22 -1.54721 -1.17367 0
M  V30 27420 O 2893.5 -0.757116 -1.79159 0
M  V30 27421 C 2893.78 -3.59032 0.277127 0
M  V30 27422 C 2893.63 -4.16018 1.71023 0
M  V30 27423 C 2894.95 -4.38586 -0.364713 0
M  V30 27424 H 2892.07 -0.73238 0.0823968 0
M  V30 27425 H 2894.71 -1.6835 0.880807 0
M  V30 27426 H 2892.86 -3.87466 -0.28322 0
M  V30 27427 H 2894.53 -3.98471 2.3242 0
M  V30 27428 H 2892.78 -3.71171 2.24531 0
M  V30 27429 H 2893.45 -5.25175 1.69987 0
M  V30 27430 H 2895.92 -4.15948 0.112477 0
M  V30 27431 H 2894.8 -5.48101 -0.296073 0
M  V30 27432 H 2895.06 -4.17819 -1.44499 0
M  V30 27433 N 2894.12 -0.437188 -1.51415 0
M  V30 27434 C 2895.34 0.130388 -2.0699 0
M  V30 27435 C 2895.77 1.35707 -1.30251 0
M  V30 27436 O 2895.13 1.78075 -0.34042 0
M  V30 27437 C 2895.18 0.431357 -3.58011 0
M  V30 27438 O 2894.28 1.51783 -3.83452 0
M  V30 27439 H 2893.62 0.00193172 -0.663997 0
M  V30 27440 H 2896.15 -0.618479 -1.95028 0
M  V30 27441 H 2896.16 0.681855 -4.02262 0
M  V30 27442 H 2894.84 -0.46521 -4.1329 0
M  V30 27443 H 2893.41 1.25731 -3.51064 0
M  V30 27444 N 2895.6 1.56696 -0.168541 0
M  V30 27445 C 2896.83 2.01172 0.483468 0
M  V30 27446 C 2897.24 1.04875 1.56992 0
M  V30 27447 O 2896.6 0.0491658 1.82434 0
M  V30 27448 C 2896.65 3.45476 1.06434 0
M  V30 27449 O 2896.37 4.38095 0.0212604 0
M  V30 27450 C 2897.87 4.05339 1.79485 0
M  V30 27451 H 2895.09 0.659445 0.123991 0
M  V30 27452 H 2897.63 2.02717 -0.269455 0
M  V30 27453 H 2895.79 3.44715 1.76778 0
M  V30 27454 H 2896.2 5.22568 0.449745 0
M  V30 27455 H 2897.68 5.08242 2.15392 0
M  V30 27456 H 2898.15 3.47273 2.68883 0
M  V30 27457 H 2898.76 4.09795 1.1379 0
M  V30 27458 N 2897.08 -0.105193 1.57249 0
M  V30 27459 C 2898.04 -1.11249 2.0039 0
M  V30 27460 C 2899.04 -1.33526 0.895964 0
M  V30 27461 O 2900.23 -1.29809 1.16169 0
M  V30 27462 C 2897.36 -2.46391 2.35593 0
M  V30 27463 H 2898.55 -0.741373 2.90592 0
M  V30 27464 H 2896.11 -0.349929 1.52332 0
M  V30 27465 H 2896.84 -2.88398 1.48315 0
M  V30 27466 H 2896.63 -2.31572 3.16412 0
M  V30 27467 H 2898.12 -3.18859 2.69663 0
M  V30 27468 N 2898.55 -1.53055 -0.375752 0
M  V30 27469 C 2899.8 -1.68411 -1.11724 0
M  V30 27470 C 2900.12 -0.433263 -1.90126 0
M  V30 27471 O 2899.39 0.552562 -1.87946 0
M  V30 27472 H 2897.97 -0.620821 -0.41544 0
M  V30 27473 H 2900.64 -1.90213 -0.424835 0
M  V30 27474 H 2899.73 -2.54059 -1.81275 0
M  V30 27475 N 2900.03 0.634971 -1.44242 0
M  V30 27476 C 2901.31 1.39314 -1.37299 0
M  V30 27477 C 2901.69 2.11079 -0.0297903 0
M  V30 27478 O 2901.04 2.06061 0.987488 0
M  V30 27479 C 2901.25 2.36274 -2.56857 0
M  V30 27480 C 2902.6 2.99722 -3.00752 0
M  V30 27481 O 2903.62 2.466 -2.57034 0
M  V30 27482 O 2902.48 3.96081 -3.7654 0
M  V30 27483 H 2899.57 0.623315 -0.543514 0
M  V30 27484 H 2902.12 0.660349 -1.56325 0
M  V30 27485 H 2900.89 1.82318 -3.46231 0
M  V30 27486 H 2900.51 3.16977 -2.40024 0
M  V30 27487 N 2901.51 1.31076 0.875027 0
M  V30 27488 C 2902.76 1.19834 1.62243 0
M  V30 27489 C 2903.07 -0.243536 1.94078 0
M  V30 27490 O 2904.28 -0.477599 2.67266 0
M  V30 27491 C 2902.73 2.09749 2.92461 0
M  V30 27492 C 2902.34 3.58903 2.68128 0
M  V30 27493 C 2904.09 2.07294 3.70445 0
M  V30 27494 C 2901.99 4.40843 3.94223 0
M  V30 27495 H 2900.92 0.444927 0.608733 0
M  V30 27496 H 2903.57 1.55896 0.96792 0
M  V30 27497 H 2901.96 1.6658 3.59259 0
M  V30 27498 H 2903.13 4.10285 2.09769 0
M  V30 27499 H 2901.45 3.63283 2.03505 0
M  V30 27500 H 2904.04 2.6576 4.63978 0
M  V30 27501 H 2904.39 1.05883 4.0261 0
M  V30 27502 H 2904.92 2.48637 3.10523 0
M  V30 27503 H 2901.66 5.42988 3.67211 0
M  V30 27504 H 2901.18 3.94221 4.52051 0
M  V30 27505 H 2902.86 4.52794 4.62154 0
M  V30 27506 N 2902.99 -1.08867 1.13955 0
M  V30 27507 C 2904.21 -1.85451 0.928592 0
M  V30 27508 C 2904.64 -1.80838 -0.51761 0
M  V30 27509 O 2904 -1.19003 -1.36777 0
M  V30 27510 C 2904.04 -3.31111 1.4282 0
M  V30 27511 O 2903.15 -4.07755 0.617201 0
M  V30 27512 H 2902.49 -0.574833 0.33236 0
M  V30 27513 H 2905.02 -1.3744 1.51563 0
M  V30 27514 H 2905.03 -3.81957 1.43432 0
M  V30 27515 H 2903.7 -3.33784 2.48115 0
M  V30 27516 H 2902.28 -3.66658 0.67943 0
M  V30 27517 N 2904.47 -0.933936 -1.26946 0
M  V30 27518 C 2905.71 -0.576518 -1.93703 0
M  V30 27519 C 2906.04 0.886115 -1.73704 0
M  V30 27520 O 2905.31 1.62882 -1.08841 0
M  V30 27521 H 2903.89 -0.210226 -0.716808 0
M  V30 27522 H 2906.55 -1.18769 -1.54532 0
M  V30 27523 H 2905.64 -0.788108 -3.01986 0
M  V30 27524 N 2905.94 1.41194 -0.700139 0
M  V30 27525 C 2906.91 2.29153 -0.0466108 0
M  V30 27526 C 2907.91 1.44605 0.703277 0
M  V30 27527 O 2909.1 1.65701 0.537484 0
M  V30 27528 C 2906.23 3.27561 0.944266 0
M  V30 27529 H 2907.42 2.8844 -0.821114 0
M  V30 27530 H 2904.98 1.49257 -0.463895 0
M  V30 27531 H 2905.71 2.73262 1.74637 0
M  V30 27532 H 2905.5 3.89954 0.409632 0
M  V30 27533 H 2906.99 3.93462 1.39918 0
M  V30 27534 N 2907.42 0.445212 1.51181 0
M  V30 27535 C 2908.65 -0.117055 2.06569 0
M  V30 27536 C 2909.07 -1.35779 1.31185 0
M  V30 27537 O 2908.42 -1.78634 0.373637 0
M  V30 27538 C 2908.47 -0.431345 3.58917 0
M  V30 27539 O 2908.19 0.760153 4.31455 0
M  V30 27540 C 2909.7 -1.04342 4.30845 0
M  V30 27541 H 2906.92 -0.00443256 0.670985 0
M  V30 27542 H 2909.46 0.626559 1.94665 0
M  V30 27543 H 2907.61 -1.12487 3.7071 0
M  V30 27544 H 2908.03 0.48914 5.22214 0
M  V30 27545 H 2909.5 -1.21328 5.38501 0
M  V30 27546 H 2909.98 -2.0266 3.89648 0
M  V30 27547 H 2910.59 -0.389055 4.23517 0
M  V30 27548 N 2908.9 -1.56605 0.176849 0
M  V30 27549 C 2910.31 -1.83598 -0.33893 0
M  V30 27550 C 2910.66 -1.09687 -1.62675 0
M  V30 27551 O 2909.79 -0.351699 -2.13523 0
M  V30 27552 C 2910.38 -3.33047 -0.621711 0
M  V30 27553 C 2908.94 -3.60516 -1.08191 0
M  V30 27554 C 2908.09 -2.77037 -0.120725 0
M  V30 27555 H 2911.04 -1.5355 0.401005 0
M  V30 27556 H 2911.06 -3.50826 -1.47314 0
M  V30 27557 H 2910.57 -3.86813 0.315759 0
M  V30 27558 H 2908.67 -3.12165 -2.03429 0
M  V30 27559 H 2908.79 -4.68818 -0.987247 0
M  V30 27560 H 2907.15 -2.4706 -0.619149 0
M  V30 27561 H 2907.93 -3.33586 0.810865 0
M  V30 27562 N 2910.38 0.0968524 -1.57302 0
M  V30 27563 C 2911.62 0.801853 -1.86274 0
M  V30 27564 C 2911.96 1.78466 -0.765725 0
M  V30 27565 O 2911.23 1.93177 0.226461 0
M  V30 27566 C 2911.52 1.53216 -3.25879 0
M  V30 27567 C 2911.37 0.567451 -4.46206 0
M  V30 27568 C 2912.69 2.48315 -3.63356 0
M  V30 27569 H 2909.81 0.290049 -0.677526 0
M  V30 27570 H 2912.45 0.0655243 -1.89887 0
M  V30 27571 H 2910.6 2.15983 -3.2293 0
M  V30 27572 H 2912.27 -0.0530792 -4.61269 0
M  V30 27573 H 2910.51 -0.119309 -4.33636 0
M  V30 27574 H 2911.18 1.11555 -5.4061 0
M  V30 27575 H 2913.66 1.95641 -3.67238 0
M  V30 27576 H 2912.54 2.96432 -4.61973 0
M  V30 27577 H 2912.8 3.31993 -2.91947 0
M  V30 27578 N 2911.86 1.53252 0.36763 0
M  V30 27579 C 2912.79 1.82523 1.45628 0
M  V30 27580 C 2913.77 0.678595 1.55978 0
M  V30 27581 O 2914.95 0.928247 1.70579 0
M  V30 27582 C 2912.08 2.01329 2.82991 0
M  V30 27583 C 2911.04 3.17091 2.87467 0
M  V30 27584 C 2910.36 3.21187 4.27485 0
M  V30 27585 C 2911.66 4.55723 2.55174 0
M  V30 27586 H 2913.36 2.73691 1.21382 0
M  V30 27587 H 2910.9 1.31693 0.582486 0
M  V30 27588 H 2912.86 2.20389 3.59175 0
M  V30 27589 H 2911.58 1.0687 3.0862 0
M  V30 27590 H 2910.24 2.97848 2.13734 0
M  V30 27591 H 2909.89 2.24369 4.50186 0
M  V30 27592 H 2909.59 3.98963 4.31396 0
M  V30 27593 H 2911.11 3.42428 5.05544 0
M  V30 27594 H 2912.52 4.74958 3.21072 0
M  V30 27595 H 2910.92 5.35725 2.70405 0
M  V30 27596 H 2911.99 4.60975 1.50431 0
M  V30 27597 N 2913.34 -0.627313 1.44577 0
M  V30 27598 C 2914.75 -1.209 1.42268 0
M  V30 27599 C 2915.1 -1.957 0.139998 0
M  V30 27600 O 2914.22 -2.02636 -0.759454 0
M  V30 27601 C 2914.82 -2.1991 2.57731 0
M  V30 27602 C 2913.38 -2.73498 2.58604 0
M  V30 27603 C 2912.52 -1.4856 2.34148 0
M  V30 27604 H 2915.47 -0.417764 1.53103 0
M  V30 27605 H 2915.5 -3.02584 2.30702 0
M  V30 27606 H 2915.01 -1.65441 3.51071 0
M  V30 27607 H 2913.11 -3.31959 1.69216 0
M  V30 27608 H 2913.22 -3.19276 3.57211 0
M  V30 27609 H 2911.59 -1.76826 1.83316 0
M  V30 27610 H 2912.37 -0.959877 3.29608 0
M  V30 27611 N 2914.81 -1.31539 -0.868063 0
M  V30 27612 C 2916.06 -1.21094 -1.61805 0
M  V30 27613 C 2916.38 0.230589 -1.93632 0
M  V30 27614 O 2915.65 1.1518 -1.58462 0
M  V30 27615 H 2914.23 -0.445189 -0.599846 0
M  V30 27616 H 2916.89 -1.64889 -1.03912 0
M  V30 27617 H 2915.99 -1.78401 -2.56085 0
M  V30 27618 N 2916.29 1.08262 -1.1453 0
M  V30 27619 C 2917.52 1.84956 -0.938414 0
M  V30 27620 C 2917.94 1.8111 0.508012 0
M  V30 27621 O 2917.3 1.19727 1.36144 0
M  V30 27622 C 2917.35 3.30349 -1.44574 0
M  V30 27623 O 2916.45 4.07422 -0.638816 0
M  V30 27624 H 2915.79 0.573062 -0.335404 0
M  V30 27625 H 2918.32 1.36635 -1.5229 0
M  V30 27626 H 2918.33 3.81191 -1.45456 0
M  V30 27627 H 2917.01 3.32463 -2.49882 0
M  V30 27628 H 2915.58 3.66293 -0.698865 0
M  V30 27629 N 2917.77 0.940655 1.26449 0
M  V30 27630 C 2919.02 0.586782 1.93394 0
M  V30 27631 C 2919.34 -0.87689 1.74171 0
M  V30 27632 O 2918.61 -1.62302 1.09703 0
M  V30 27633 H 2917.19 0.214025 0.715683 0
M  V30 27634 H 2919.85 1.19586 1.539 0
M  V30 27635 H 2918.95 0.804112 3.01563 0
M  V30 27636 N 2919.25 -1.40821 0.707617 0
M  V30 27637 C 2920.49 -2.01326 0.244067 0
M  V30 27638 C 2920.83 -1.55957 -1.1572 0
M  V30 27639 O 2920.1 -0.776075 -1.78346 0
M  V30 27640 C 2920.38 -3.58718 0.315191 0
M  V30 27641 C 2920.24 -4.14181 1.75426 0
M  V30 27642 C 2921.56 -4.38948 -0.318174 0
M  V30 27643 H 2918.68 -0.731464 0.09016 0
M  V30 27644 H 2921.32 -1.67407 0.898614 0
M  V30 27645 H 2919.47 -3.87745 -0.242108 0
M  V30 27646 H 2921.14 -3.95983 2.36633 0
M  V30 27647 H 2919.38 -3.68769 2.28456 0
M  V30 27648 H 2920.05 -5.23342 1.75547 0
M  V30 27649 H 2922.53 -4.15805 0.156587 0
M  V30 27650 H 2921.41 -5.48384 -0.237923 0
M  V30 27651 H 2921.67 -4.19328 -1.40059 0
M  V30 27652 N 2920.73 -0.453223 -1.50943 0
M  V30 27653 C 2921.64 0.355922 -2.31884 0
M  V30 27654 C 2922.65 1.01285 -1.41483 0
M  V30 27655 O 2923.83 1.00474 -1.74548 0
M  V30 27656 C 2920.89 1.43363 -3.15671 0
M  V30 27657 C 2919.95 0.795179 -4.21871 0
M  V30 27658 C 2919.19 1.82153 -5.01653 0
M  V30 27659 O 2919.41 3.04583 -4.82271 0
M  V30 27660 O 2918.34 1.40325 -5.85314 0
M  V30 27661 H 2922.17 -0.305301 -3.02162 0
M  V30 27662 H 2919.75 -0.215424 -1.47839 0
M  V30 27663 H 2921.64 2.05829 -3.67712 0
M  V30 27664 H 2920.31 2.07865 -2.48141 0
M  V30 27665 H 2919.22 0.13204 -3.73867 0
M  V30 27666 H 2920.55 0.193398 -4.9182 0
M  V30 27667 N 2922.2 1.56509 -0.185151 0
M  V30 27668 C 2923.45 1.97586 0.456899 0
M  V30 27669 C 2923.78 1.07164 1.61955 0
M  V30 27670 O 2923.06 0.12158 1.9412 0
M  V30 27671 C 2923.34 3.47974 0.926604 0
M  V30 27672 C 2923.19 4.49174 -0.237176 0
M  V30 27673 C 2924.51 4.01806 1.79554 0
M  V30 27674 H 2921.63 0.718383 0.164606 0
M  V30 27675 H 2924.27 1.88013 -0.274072 0
M  V30 27676 H 2922.42 3.56263 1.54947 0
M  V30 27677 H 2924.1 4.52933 -0.87462 0
M  V30 27678 H 2922.34 4.24561 -0.890521 0
M  V30 27679 H 2923.01 5.51838 0.133827 0
M  V30 27680 H 2925.49 3.96235 1.27033 0
M  V30 27681 H 2924.36 5.07422 2.09318 0
M  V30 27682 H 2924.62 3.4646 2.74623 0
M  V30 27683 N 2923.68 -0.0885089 1.57351 0
M  V30 27684 C 2924.91 -0.808017 1.91013 0
M  V30 27685 C 2925.33 -1.71164 0.780039 0
M  V30 27686 O 2924.69 -1.79307 -0.268051 0
M  V30 27687 C 2924.74 -1.59179 3.23565 0
M  V30 27688 O 2923.84 -2.70124 3.11619 0
M  V30 27689 H 2923.18 -0.221554 0.625947 0
M  V30 27690 H 2925.71 -0.0617594 2.04507 0
M  V30 27691 H 2925.72 -1.97461 3.57034 0
M  V30 27692 H 2924.4 -0.92867 4.05399 0
M  V30 27693 H 2922.97 -2.34822 2.89678 0
M  V30 27694 N 2925.16 -1.53445 -0.359498 0
M  V30 27695 C 2926.38 -1.74146 -1.12641 0
M  V30 27696 C 2926.81 -0.472039 -1.82081 0
M  V30 27697 O 2926.17 0.57433 -1.71963 0
M  V30 27698 C 2926.22 -2.91134 -2.12776 0
M  V30 27699 O 2925.32 -2.60167 -3.19979 0
M  V30 27700 H 2924.66 -0.578157 -0.326542 0
M  V30 27701 H 2927.19 -2.00352 -0.414763 0
M  V30 27702 H 2927.2 -3.17472 -2.56273 0
M  V30 27703 H 2925.88 -3.83209 -1.61627 0
M  V30 27704 H 2924.45 -2.44666 -2.81412 0
M  V30 27705 N 2926.64 0.619637 -1.44908 0
M  V30 27706 C 2927.88 1.38099 -1.48514 0
M  V30 27707 C 2928.22 1.93818 -0.12172 0
M  V30 27708 O 2927.49 1.74344 0.862226 0
M  V30 27709 C 2927.77 2.53782 -2.55473 0
M  V30 27710 C 2927.63 2.03338 -4.01215 0
M  V30 27711 C 2928.95 3.55945 -2.58827 0
M  V30 27712 H 2926.07 0.50079 -0.540721 0
M  V30 27713 H 2928.71 0.699589 -1.76651 0
M  V30 27714 H 2926.86 3.11911 -2.31611 0
M  V30 27715 H 2928.53 1.49951 -4.36248 0
M  V30 27716 H 2926.77 1.3443 -4.12445 0
M  V30 27717 H 2927.44 2.86675 -4.71722 0
M  V30 27718 H 2929.92 3.07636 -2.80177 0
M  V30 27719 H 2928.8 4.34393 -3.3555 0
M  V30 27720 H 2929.06 4.10772 -1.63458 0
M  V30 27721 N 2928.12 1.31997 0.861075 0
M  V30 27722 C 2929.53 1.19957 1.43063 0
M  V30 27723 C 2929.88 -0.190455 1.95273 0
M  V30 27724 O 2929 -1.08879 1.87014 0
M  V30 27725 C 2929.6 2.17164 2.60048 0
M  V30 27726 C 2928.16 2.09031 3.13022 0
M  V30 27727 C 2927.3 2.05892 1.85752 0
M  V30 27728 H 2930.26 1.43919 0.668809 0
M  V30 27729 H 2930.28 1.76643 3.37013 0
M  V30 27730 H 2929.79 3.18323 2.22018 0
M  V30 27731 H 2927.89 1.11098 3.55651 0
M  V30 27732 H 2928 2.98555 3.74702 0
M  V30 27733 H 2926.37 1.51036 2.05086 0
M  V30 27734 H 2927.15 3.08821 1.49948 0
M  V30 27735 N 2929.59 -1.07653 1.15103 0
M  V30 27736 C 2930.5 -2.18312 0.858908 0
M  V30 27737 C 2931.52 -1.73229 -0.163611 0
M  V30 27738 O 2932.7 -2.01398 0.00973081 0
M  V30 27739 C 2929.76 -3.44939 0.348991 0
M  V30 27740 C 2928.82 -4.04605 1.43503 0
M  V30 27741 C 2928.06 -5.25189 0.949345 0
M  V30 27742 O 2928.28 -5.70027 -0.20626 0
M  V30 27743 O 2927.21 -5.76451 1.73171 0
M  V30 27744 H 2931.04 -2.45785 1.78391 0
M  V30 27745 H 2928.62 -1.16933 0.929896 0
M  V30 27746 H 2930.51 -4.2134 0.070925 0
M  V30 27747 H 2929.18 -3.19025 -0.548181 0
M  V30 27748 H 2928.09 -3.29758 1.76665 0
M  V30 27749 H 2929.42 -4.34786 2.307 0
M  V30 27750 N 2931.07 -0.947348 -1.25949 0
M  V30 27751 C 2932.3 -0.614668 -1.98082 0
M  V30 27752 C 2932.72 0.804785 -1.70014 0
M  V30 27753 O 2932.08 1.54308 -0.951777 0
M  V30 27754 C 2932.13 -0.870767 -3.49929 0
M  V30 27755 O 2931.23 0.0540726 -4.12365 0
M  V30 27756 H 2930.57 -0.234462 -0.621228 0
M  V30 27757 H 2933.1 -1.27196 -1.60257 0
M  V30 27758 H 2933.11 -0.794121 -4.00197 0
M  V30 27759 H 2931.79 -1.90535 -3.69688 0
M  V30 27760 H 2930.37 -0.0741572 -3.72826 0
M  V30 27761 N 2932.55 1.40444 -0.715075 0
M  V30 27762 C 2933.78 2.05731 -0.262576 0
M  V30 27763 C 2934.2 1.5352 1.08688 0
M  V30 27764 O 2933.56 0.670358 1.68451 0
M  V30 27765 C 2933.61 3.59718 -0.252013 0
M  V30 27766 O 2932.71 4.05206 0.766927 0
M  V30 27767 H 2932.05 0.652431 -0.123409 0
M  V30 27768 H 2934.58 1.79852 -0.975413 0
M  V30 27769 H 2934.59 4.07902 -0.0895254 0
M  V30 27770 H 2933.27 3.97085 -1.23679 0
M  V30 27771 H 2931.84 3.68484 0.572204 0
M  V30 27772 N 2934.03 0.461222 1.507 0
M  V30 27773 C 2935.25 -0.0974409 2.07171 0
M  V30 27774 C 2935.68 -1.33617 1.32393 0
M  V30 27775 O 2935.04 -1.77511 0.368707 0
M  V30 27776 C 2935.08 -0.374346 3.58652 0
M  V30 27777 O 2934.19 -1.45664 3.85818 0
M  V30 27778 H 2933.53 0.00863214 0.663944 0
M  V30 27779 H 2936.06 0.649428 1.9402 0
M  V30 27780 H 2936.07 -0.617772 4.03296 0
M  V30 27781 H 2934.74 0.530902 4.12498 0
M  V30 27782 H 2933.32 -1.2013 3.5302 0
M  V30 27783 N 2935.51 -1.56408 0.193449 0
M  V30 27784 C 2936.42 -2.22621 -0.740073 0
M  V30 27785 C 2937.43 -1.22476 -1.23594 0
M  V30 27786 O 2938.61 -1.55208 -1.28345 0
M  V30 27787 C 2935.67 -2.8713 -1.94312 0
M  V30 27788 C 2934.73 -4.0254 -1.49198 0
M  V30 27789 C 2933.97 -4.63964 -2.63768 0
M  V30 27790 O 2934.19 -4.24308 -3.81208 0
M  V30 27791 O 2933.12 -5.53458 -2.36575 0
M  V30 27792 H 2936.95 -3.02999 -0.206184 0
M  V30 27793 H 2934.54 -1.49357 -0.0357676 0
M  V30 27794 H 2936.42 -3.27949 -2.64627 0
M  V30 27795 H 2935.09 -2.09732 -2.46564 0
M  V30 27796 H 2934 -3.66347 -0.757673 0
M  V30 27797 H 2935.33 -4.81597 -1.01614 0
M  V30 27798 N 2936.98 0.0801629 -1.57396 0
M  V30 27799 C 2938.21 0.794042 -1.91057 0
M  V30 27800 C 2938.63 1.71541 -0.788613 0
M  V30 27801 O 2937.98 1.80934 0.238555 0
M  V30 27802 C 2938.04 1.59478 -3.24421 0
M  V30 27803 O 2937.76 0.710456 -4.32301 0
M  V30 27804 C 2939.26 2.4104 -3.72041 0
M  V30 27805 H 2936.48 0.226227 -0.631714 0
M  V30 27806 H 2939.02 0.0529325 -2.04431 0
M  V30 27807 H 2937.18 2.28825 -3.12599 0
M  V30 27808 H 2937.59 1.26654 -5.08978 0
M  V30 27809 H 2939.06 2.92694 -4.68011 0
M  V30 27810 H 2939.54 3.20185 -3.0063 0
M  V30 27811 H 2940.15 1.76865 -3.8678 0
M  V30 27812 N 2938.46 1.53634 0.351355 0
M  V30 27813 C 2939.69 1.74741 1.11715 0
M  V30 27814 C 2940.11 0.481688 1.81828 0
M  V30 27815 O 2939.47 -0.565202 1.72265 0
M  V30 27816 C 2939.52 2.92258 2.11229 0
M  V30 27817 O 2938.62 2.6186 3.18595 0
M  V30 27818 H 2937.96 0.579881 0.323472 0
M  V30 27819 H 2940.49 2.00569 0.404132 0
M  V30 27820 H 2940.5 3.18826 2.54585 0
M  V30 27821 H 2939.18 3.84061 1.59593 0
M  V30 27822 H 2937.76 2.46155 2.80111 0
M  V30 27823 N 2939.94 -0.611943 1.45234 0
M  V30 27824 C 2940.9 -1.70485 1.53192 0
M  V30 27825 C 2941.9 -1.55436 0.411866 0
M  V30 27826 O 2943.09 -1.60583 0.675192 0
M  V30 27827 C 2940.23 -3.09721 1.42428 0
M  V30 27828 H 2941.42 -1.64797 2.50563 0
M  V30 27829 H 2938.97 -0.827294 1.3261 0
M  V30 27830 H 2939.71 -3.20989 0.462241 0
M  V30 27831 H 2939.49 -3.22051 2.23663 0
M  V30 27832 H 2940.98 -3.89337 1.51019 0
M  V30 27833 N 2941.42 -1.32452 -0.854063 0
M  V30 27834 C 2942.65 -1.25865 -1.63834 0
M  V30 27835 C 2943.06 0.175555 -1.88384 0
M  V30 27836 O 2942.4 1.12328 -1.45355 0
M  V30 27837 C 2942.46 -1.94929 -3.02065 0
M  V30 27838 C 2942.13 -3.44262 -3.00554 0
M  V30 27839 C 2943.12 -4.39736 -2.7736 0
M  V30 27840 C 2940.81 -3.86206 -3.21171 0
M  V30 27841 C 2942.8 -5.75127 -2.74787 0
M  V30 27842 C 2940.49 -5.21705 -3.18224 0
M  V30 27843 C 2941.49 -6.15977 -2.95061 0
M  V30 27844 O 2941.17 -7.48997 -2.9199 0
M  V30 27845 H 2940.91 -0.435532 -0.516999 0
M  V30 27846 H 2943.46 -1.75139 -1.07311 0
M  V30 27847 H 2941.69 -1.40225 -3.6038 0
M  V30 27848 H 2943.38 -1.82043 -3.62788 0
M  V30 27849 H 2944.15 -4.08657 -2.61198 0
M  V30 27850 H 2940.02 -3.13249 -3.38225 0
M  V30 27851 H 2943.57 -6.48682 -2.56626 0
M  V30 27852 H 2939.47 -5.52413 -3.33931 0
M  V30 27853 H 2940.23 -7.58364 -3.0794 0
M  V30 27854 N 2942.9 1.07041 -1.15672 0
M  V30 27855 C 2944.31 1.61168 -0.942437 0
M  V30 27856 C 2944.66 1.89307 0.515504 0
M  V30 27857 O 2943.78 1.66087 1.38723 0
M  V30 27858 C 2944.38 2.92809 -1.70436 0
M  V30 27859 C 2942.94 3.43666 -1.53527 0
M  V30 27860 C 2942.09 2.17675 -1.71794 0
M  V30 27861 H 2945.04 0.900877 -1.30652 0
M  V30 27862 H 2945.06 3.6188 -1.17572 0
M  V30 27863 H 2944.57 2.72297 -2.76543 0
M  V30 27864 H 2942.67 3.69253 -0.498289 0
M  V30 27865 H 2942.78 4.19496 -2.31429 0
M  V30 27866 H 2941.15 2.27527 -1.14472 0
M  V30 27867 H 2941.93 1.99654 -2.79272 0
M  V30 27868 N 2944.38 0.954014 1.25445 0
M  V30 27869 C 2945.29 0.480304 2.29631 0
M  V30 27870 C 2946.3 -0.452041 1.68026 0
M  V30 27871 O 2947.48 -0.328437 1.98704 0
M  V30 27872 C 2944.54 -0.234913 3.45903 0
M  V30 27873 C 2943.6 0.735569 4.22951 0
M  V30 27874 C 2942.84 0.0543895 5.33672 0
M  V30 27875 O 2943.06 -1.16008 5.58479 0
M  V30 27876 O 2941.99 0.739614 5.97339 0
M  V30 27877 H 2945.82 1.34607 2.7224 0
M  V30 27878 H 2943.4 0.720442 1.30882 0
M  V30 27879 H 2945.29 -0.637268 4.16554 0
M  V30 27880 H 2943.96 -1.07586 3.05298 0
M  V30 27881 H 2942.87 1.18812 3.54732 0
M  V30 27882 H 2944.2 1.54452 4.67339 0
M  V30 27883 N 2945.85 -1.40063 0.722513 0
M  V30 27884 C 2946.82 -2.29049 0.0830611 0
M  V30 27885 C 2947.82 -1.45706 -0.680182 0
M  V30 27886 O 2949.01 -1.66535 -0.511055 0
M  V30 27887 C 2946.14 -3.29022 -0.892034 0
M  V30 27888 H 2947.33 -2.87097 0.866899 0
M  V30 27889 H 2944.88 -1.485 0.487582 0
M  V30 27890 H 2945.62 -2.76006 -1.70268 0
M  V30 27891 H 2945.4 -3.90557 -0.347542 0
M  V30 27892 H 2946.89 -3.95638 -1.33641 0
M  V30 27893 N 2947.33 -0.469207 -1.50453 0
M  V30 27894 C 2948.58 0.0862627 -2.01916 0
M  V30 27895 C 2948.9 1.40386 -1.3534 0
M  V30 27896 O 2948.17 1.89461 -0.498129 0
M  V30 27897 H 2946.75 0.0348693 -0.746186 0
M  V30 27898 H 2949.41 -0.619199 -1.84802 0
M  V30 27899 H 2948.51 0.239134 -3.11183 0
M  V30 27900 N 2948.81 1.56303 -0.201741 0
M  V30 27901 C 2950.06 1.97767 0.435272 0
M  V30 27902 C 2950.38 1.08883 1.61167 0
M  V30 27903 O 2949.64 0.129374 1.95272 0
M  V30 27904 C 2949.94 3.45051 0.931371 0
M  V30 27905 C 2949.6 4.50706 -0.132366 0
M  V30 27906 C 2948.27 4.79323 -0.424636 0
M  V30 27907 C 2950.62 5.14176 -0.852794 0
M  V30 27908 C 2947.95 5.68698 -1.4422 0
M  V30 27909 C 2950.3 6.04652 -1.85955 0
M  V30 27910 C 2948.96 6.31622 -2.15895 0
M  V30 27911 H 2948.23 0.723679 0.159277 0
M  V30 27912 H 2950.88 1.89134 -0.300103 0
M  V30 27913 H 2949.18 3.50788 1.74514 0
M  V30 27914 H 2950.88 3.74492 1.43376 0
M  V30 27915 H 2947.47 4.2847 0.105596 0
M  V30 27916 H 2951.66 4.92153 -0.640225 0
M  V30 27917 H 2946.91 5.87866 -1.68 0
M  V30 27918 H 2951.09 6.5289 -2.42297 0
M  V30 27919 H 2948.71 7.00675 -2.94887 0
M  V30 27920 N 2950.29 -0.0718147 1.57436 0
M  V30 27921 C 2951.54 -0.769451 1.86879 0
M  V30 27922 C 2951.86 -1.78115 0.793731 0
M  V30 27923 O 2951.13 -1.95093 -0.177608 0
M  V30 27924 H 2949.71 -0.287165 0.689598 0
M  V30 27925 H 2952.37 -0.0479084 1.94841 0
M  V30 27926 H 2951.46 -1.28567 2.84389 0
M  V30 27927 N 2951.77 -1.53818 -0.343203 0
M  V30 27928 C 2952.73 -1.81133 -1.40441 0
M  V30 27929 C 2953.73 -0.682392 -1.45602 0
M  V30 27930 O 2954.92 -0.950675 -1.45972 0
M  V30 27931 C 2952.05 -1.95366 -2.79365 0
M  V30 27932 H 2953.24 -2.7593 -1.17484 0
M  V30 27933 H 2950.8 -1.45236 -0.57761 0
M  V30 27934 H 2951.53 -1.02712 -3.07605 0
M  V30 27935 H 2951.32 -2.77498 -2.77015 0
M  V30 27936 H 2952.81 -2.18014 -3.56174 0
M  V30 27937 N 2953.24 0.604233 -1.45557 0
M  V30 27938 C 2954.47 1.3946 -1.53512 0
M  V30 27939 C 2954.89 1.87333 -0.169671 0
M  V30 27940 O 2954.25 1.60335 0.846317 0
M  V30 27941 C 2954.3 2.57286 -2.52659 0
M  V30 27942 O 2953.4 3.58027 -2.04672 0
M  V30 27943 H 2952.74 0.416211 -0.517363 0
M  V30 27944 H 2955.27 0.735038 -1.90941 0
M  V30 27945 H 2955.28 3.04486 -2.71573 0
M  V30 27946 H 2953.96 2.2179 -3.51826 0
M  V30 27947 H 2952.54 3.17452 -1.95649 0
M  V30 27948 N 2954.72 1.32903 0.847027 0
M  V30 27949 C 2955.68 1.22404 1.93778 0
M  V30 27950 C 2956.68 0.145136 1.60144 0
M  V30 27951 O 2957.87 0.396088 1.69637 0
M  V30 27952 C 2955.01 0.884232 3.29233 0
M  V30 27953 H 2956.2 2.19349 2.04514 0
M  V30 27954 H 2953.75 1.16844 1.03813 0
M  V30 27955 H 2954.49 -0.0830707 3.24194 0
M  V30 27956 H 2954.27 1.66437 3.55023 0
M  V30 27957 H 2955.76 0.835298 4.09161 0
M  V30 27958 N 2956.2 -1.06426 1.16238 0
M  V30 27959 C 2957.16 -2.12038 0.870201 0
M  V30 27960 C 2958.16 -1.60239 -0.134211 0
M  V30 27961 O 2959.35 -1.73932 0.0965238 0
M  V30 27962 C 2956.48 -3.39568 0.301093 0
M  V30 27963 H 2957.68 -2.3939 1.80644 0
M  V30 27964 H 2955.23 -1.22469 0.971138 0
M  V30 27965 H 2955.97 -3.17864 -0.642892 0
M  V30 27966 H 2955.75 -3.7847 1.02482 0
M  V30 27967 H 2957.24 -4.17443 0.114567 0
M  V30 27968 N 2957.68 -0.960653 -1.24937 0
M  V30 27969 C 2959.09 -0.65856 -1.74699 0
M  V30 27970 C 2959.44 0.825927 -1.77969 0
M  V30 27971 O 2958.57 1.64632 -1.40447 0
M  V30 27972 C 2959.16 -1.18873 -3.17261 0
M  V30 27973 C 2957.72 -0.936678 -3.64559 0
M  V30 27974 C 2956.87 -1.32822 -2.43421 0
M  V30 27975 H 2959.82 -1.13678 -1.10739 0
M  V30 27976 H 2959.84 -0.551655 -3.7648 0
M  V30 27977 H 2959.35 -2.26917 -3.1485 0
M  V30 27978 H 2957.45 0.128542 -3.72378 0
M  V30 27979 H 2957.56 -1.57737 -4.52389 0
M  V30 27980 H 2955.93 -0.746591 -2.43512 0
M  V30 27981 H 2956.71 -2.418 -2.43696 0
M  V30 27982 N 2959.16 1.39677 -0.729931 0
M  V30 27983 C 2960.07 2.34435 -0.0880735 0
M  V30 27984 C 2961.08 1.58055 0.727647 0
M  V30 27985 O 2962.26 1.90373 0.657287 0
M  V30 27986 C 2959.32 3.37053 0.812152 0
M  V30 27987 C 2958.38 4.29297 -0.0152435 0
M  V30 27988 C 2957.62 5.27014 0.842109 0
M  V30 27989 O 2957.84 5.31085 2.08098 0
M  V30 27990 O 2956.77 6.01278 0.273465 0
M  V30 27991 H 2960.6 2.90971 -0.87004 0
M  V30 27992 H 2958.19 1.41117 -0.490547 0
M  V30 27993 H 2960.07 3.99948 1.32738 0
M  V30 27994 H 2958.74 2.8291 1.57302 0
M  V30 27995 H 2957.65 3.69641 -0.575876 0
M  V30 27996 H 2958.98 4.86633 -0.738215 0
M  V30 27997 N 2960.63 0.47718 1.50202 0
M  V30 27998 C 2961.6 -0.302559 2.27194 0
M  V30 27999 C 2962.6 -0.915089 1.32222 0
M  V30 28000 O 2963.79 -0.783321 1.55595 0
M  V30 28001 C 2960.92 -1.43162 3.09382 0
M  V30 28002 H 2962.11 0.37273 2.97575 0
M  V30 28003 H 2959.67 0.231419 1.54577 0
M  V30 28004 H 2960.4 -2.14178 2.43513 0
M  V30 28005 H 2960.19 -0.99813 3.79183 0
M  V30 28006 H 2961.68 -1.9815 3.67595 0
M  V30 28007 N 2962.11 -1.56194 0.210027 0
M  V30 28008 C 2963.34 -2.02829 -0.433028 0
M  V30 28009 C 2963.76 -1.08903 -1.53368 0
M  V30 28010 O 2963.12 -0.075145 -1.81144 0
M  V30 28011 C 2963.17 -3.47791 -0.952574 0
M  V30 28012 O 2962.27 -3.56997 -2.06463 0
M  V30 28013 H 2961.61 -0.656511 -0.0994479 0
M  V30 28014 H 2964.14 -2.01998 0.325285 0
M  V30 28015 H 2964.15 -3.87882 -1.26536 0
M  V30 28016 H 2962.83 -4.1564 -0.146934 0
M  V30 28017 H 2961.41 -3.28787 -1.75936 0
M  V30 28018 N 2963.59 0.0634645 -1.57472 0
M  V30 28019 C 2965.01 0.418439 -1.54017 0
M  V30 28020 C 2965.21 1.78681 -0.931407 0
M  V30 28021 O 2964.26 2.46713 -0.537508 0
M  V30 28022 C 2965.58 0.351854 -2.98634 0
M  V30 28023 C 2967.12 0.431439 -3.10012 0
M  V30 28024 C 2967.6 0.394673 -4.56296 0
M  V30 28025 N 2969.09 0.454502 -4.60965 0
M  V30 28026 C 2969.82 0.448401 -5.71644 0
M  V30 28027 N 2969.32 0.39662 -6.91664 0
M  V30 28028 N 2971.11 0.495579 -5.59911 0
M  V30 28029 H 2963.26 -0.832442 -1.95408 0
M  V30 28030 H 2965.53 -0.313212 -0.894764 0
M  V30 28031 H 2965.23 -0.587109 -3.46765 0
M  V30 28032 H 2965.11 1.15887 -3.58957 0
M  V30 28033 H 2967.49 1.36083 -2.6185 0
M  V30 28034 H 2967.58 -0.404303 -2.52585 0
M  V30 28035 H 2967.22 -0.5309 -5.05118 0
M  V30 28036 H 2967.15 1.24806 -5.11597 0
M  V30 28037 H 2969.64 0.49843 -3.74599 0
M  V30 28038 H 2969.95 0.39612 -7.71784 0
M  V30 28039 H 2968.3 0.363182 -6.9405 0
M  V30 28040 H 2971.49 0.533782 -4.65047 0
M  V30 28041 H 2971.66 0.487355 -6.46165 0
M  V30 28042 N 2965.07 1.53998 0.33504 0
M  V30 28043 C 2965.98 1.85587 1.43508 0
M  V30 28044 C 2966.99 0.746754 1.57161 0
M  V30 28045 O 2968.17 1.03991 1.72476 0
M  V30 28046 C 2965.24 2.0665 2.78382 0
M  V30 28047 C 2964.3 3.30487 2.74001 0
M  V30 28048 C 2963.53 3.50536 4.02443 0
M  V30 28049 O 2963.75 2.74251 5.00142 0
M  V30 28050 O 2962.69 4.43987 4.06398 0
M  V30 28051 H 2966.51 2.79105 1.19726 0
M  V30 28052 H 2964.1 1.39758 0.528009 0
M  V30 28053 H 2965.98 2.21901 3.58243 0
M  V30 28054 H 2964.65 1.16322 3.02078 0
M  V30 28055 H 2963.56 3.20633 1.92731 0
M  V30 28056 H 2964.89 4.20837 2.5526 0
M  V30 28057 N 2966.55 -0.596505 1.45875 0
M  V30 28058 C 2967.82 -1.35625 1.40944 0
M  V30 28059 C 2968.2 -2.10926 0.0857437 0
M  V30 28060 O 2967.55 -2.08606 -0.932507 0
M  V30 28061 C 2967.76 -2.29381 2.63031 0
M  V30 28062 C 2969.11 -2.91643 3.08593 0
M  V30 28063 O 2970.13 -2.39699 2.63482 0
M  V30 28064 O 2968.99 -3.85958 3.86909 0
M  V30 28065 H 2966.09 -0.608686 0.559849 0
M  V30 28066 H 2968.63 -0.61867 1.58021 0
M  V30 28067 H 2967.4 -1.73074 3.50943 0
M  V30 28068 H 2967.03 -3.10501 2.48344 0
M  V30 28069 N 2968.02 -1.3335 -0.839967 0
M  V30 28070 C 2969.25 -1.27927 -1.63247 0
M  V30 28071 C 2969.67 0.14716 -1.87523 0
M  V30 28072 O 2969.03 1.10342 -1.43855 0
M  V30 28073 C 2969.08 -2.05891 -2.96042 0
M  V30 28074 O 2968.18 -1.41676 -3.873 0
M  V30 28075 H 2967.53 -0.440165 -0.497142 0
M  V30 28076 H 2970.06 -1.75895 -1.04509 0
M  V30 28077 H 2970.07 -2.16615 -3.45748 0
M  V30 28078 H 2968.74 -3.0961 -2.77695 0
M  V30 28079 H 2967.32 -1.39591 -3.45787 0
M  V30 28080 N 2969.5 1.05808 -1.16801 0
M  V30 28081 C 2970.75 1.78344 -0.950674 0
M  V30 28082 C 2971.07 1.8787 0.522491 0
M  V30 28083 O 2970.34 1.39094 1.37948 0
M  V30 28084 H 2968.92 0.660594 -0.348748 0
M  V30 28085 H 2971.58 1.27788 -1.47161 0
M  V30 28086 H 2970.68 2.80246 -1.37364 0
M  V30 28087 N 2970.98 0.967265 1.24426 0
M  V30 28088 C 2972.21 0.646103 1.97079 0
M  V30 28089 C 2972.63 -0.777635 1.71273 0
M  V30 28090 O 2971.99 -1.52774 0.976206 0
M  V30 28091 C 2972.04 0.926328 3.48499 0
M  V30 28092 O 2971.14 0.0115378 4.12398 0
M  V30 28093 H 2970.48 0.244315 0.617419 0
M  V30 28094 H 2973.01 1.2973 1.58213 0
M  V30 28095 H 2973.02 0.857689 3.98883 0
M  V30 28096 H 2971.7 1.96393 3.6661 0
M  V30 28097 H 2970.27 0.133461 3.72661 0
M  V30 28098 N 2972.46 -1.39288 0.737328 0
M  V30 28099 C 2973.87 -1.83275 0.355998 0
M  V30 28100 C 2974.22 -1.61582 -1.11292 0
M  V30 28101 O 2973.35 -1.10823 -1.85869 0
M  V30 28102 C 2973.94 -3.32712 0.639368 0
M  V30 28103 C 2972.5 -3.75109 0.311506 0
M  V30 28104 C 2971.65 -2.62261 0.900812 0
M  V30 28105 H 2974.6 -1.28248 0.934786 0
M  V30 28106 H 2974.62 -3.80398 -0.0880624 0
M  V30 28107 H 2974.13 -3.48469 1.70853 0
M  V30 28108 H 2972.23 -3.64938 -0.751726 0
M  V30 28109 H 2972.35 -4.72446 0.795694 0
M  V30 28110 H 2970.71 -2.52588 0.327284 0
M  V30 28111 H 2971.49 -2.80823 1.97468 0
M  V30 28112 N 2973.94 -0.485139 -1.49947 0
M  V30 28113 C 2975.21 0.127225 -1.95186 0
M  V30 28114 C 2975.59 1.55648 -1.42608 0
M  V30 28115 O 2974.94 2.19556 -0.633024 0
M  V30 28116 C 2975.15 0.0561503 -3.48955 0
M  V30 28117 C 2976.5 0.238032 -4.23932 0
M  V30 28118 O 2977.52 0.132083 -3.55955 0
M  V30 28119 O 2976.38 0.453562 -5.44615 0
M  V30 28120 H 2973.48 0.104 -0.820435 0
M  V30 28121 H 2976.02 -0.546545 -1.60658 0
M  V30 28122 H 2974.8 -0.941188 -3.79812 0
M  V30 28123 H 2974.42 0.770765 -3.90058 0
M  V30 28124 N 2975.42 1.56081 -0.218307 0
M  V30 28125 C 2976.35 2.23138 0.687883 0
M  V30 28126 C 2977.33 1.20202 1.20355 0
M  V30 28127 O 2978.51 1.48778 1.24815 0
M  V30 28128 C 2975.64 2.90877 1.89757 0
M  V30 28129 C 2974.6 4.00256 1.51588 0
M  V30 28130 C 2973.92 4.55276 2.80407 0
M  V30 28131 C 2975.22 5.17475 0.708313 0
M  V30 28132 H 2976.92 2.99123 0.128802 0
M  V30 28133 H 2974.46 1.43873 0.0605101 0
M  V30 28134 H 2976.41 3.36479 2.53693 0
M  V30 28135 H 2975.14 2.12334 2.48157 0
M  V30 28136 H 2973.8 3.55381 0.899995 0
M  V30 28137 H 2973.45 3.73467 3.36944 0
M  V30 28138 H 2973.15 5.29094 2.55603 0
M  V30 28139 H 2974.67 5.03593 3.45291 0
M  V30 28140 H 2976.08 5.59478 1.2513 0
M  V30 28141 H 2974.48 5.97505 0.557488 0
M  V30 28142 H 2975.55 4.84057 -0.285764 0
M  V30 28143 N 2976.89 -0.0551124 1.57504 0
M  V30 28144 C 2978.12 -0.767318 1.92684 0
M  V30 28145 C 2978.54 -1.69471 0.81617 0
M  V30 28146 O 2977.9 -1.79836 -0.229957 0
M  V30 28147 C 2977.95 -1.5228 3.26869 0
M  V30 28148 O 2977.05 -2.63454 3.17279 0
M  V30 28149 H 2976.39 -0.208227 0.630506 0
M  V30 28150 H 2978.92 -0.0183666 2.04592 0
M  V30 28151 H 2978.93 -1.89844 3.61142 0
M  V30 28152 H 2977.61 -0.84247 4.07278 0
M  V30 28153 H 2976.19 -2.28624 2.94593 0
M  V30 28154 N 2978.37 -1.54173 -0.326869 0
M  V30 28155 C 2979.28 -1.86346 -1.42522 0
M  V30 28156 C 2980.3 -0.755078 -1.56763 0
M  V30 28157 O 2981.47 -1.04904 -1.71922 0
M  V30 28158 C 2978.54 -2.08124 -2.77282 0
M  V30 28159 C 2977.6 -3.31936 -2.72245 0
M  V30 28160 C 2976.83 -3.52666 -4.00578 0
M  V30 28161 O 2977.06 -2.769 -4.98681 0
M  V30 28162 O 2975.99 -4.46136 -4.04037 0
M  V30 28163 H 2979.82 -2.79736 -1.18244 0
M  V30 28164 H 2977.4 -1.40037 -0.520589 0
M  V30 28165 H 2979.28 -2.23797 -3.57061 0
M  V30 28166 H 2977.96 -1.17922 -3.01457 0
M  V30 28167 H 2976.86 -3.21651 -1.91028 0
M  V30 28168 H 2978.2 -4.22184 -2.53024 0
M  V30 28169 N 2979.85 0.58876 -1.4619 0
M  V30 28170 C 2981.08 1.37337 -1.54746 0
M  V30 28171 C 2981.49 1.87877 -0.186479 0
M  V30 28172 O 2980.85 1.6328 0.815219 0
M  V30 28173 C 2980.9 2.56504 -2.54732 0
M  V30 28174 O 2980.62 2.08059 -3.85543 0
M  V30 28175 C 2982.12 3.49132 -2.7317 0
M  V30 28176 H 2979.34 0.419759 -0.523492 0
M  V30 28177 H 2981.89 0.716312 -1.91544 0
M  V30 28178 H 2980.04 3.18211 -2.20954 0
M  V30 28179 H 2980.46 2.85622 -4.3991 0
M  V30 28180 H 2981.93 4.29244 -3.47065 0
M  V30 28181 H 2982.41 4.00682 -1.79863 0
M  V30 28182 H 2983.01 2.93265 -3.08019 0
M  V30 28183 N 2981.33 1.33794 0.832883 0
M  V30 28184 C 2982.56 1.28642 1.62046 0
M  V30 28185 C 2982.97 -0.141489 1.88269 0
M  V30 28186 O 2982.33 -1.0855 1.46708 0
M  V30 28187 C 2982.38 2.06495 2.96719 0
M  V30 28188 O 2982.1 3.43716 2.71644 0
M  V30 28189 C 2983.6 2.08624 3.91141 0
M  V30 28190 H 2980.82 0.442945 0.504024 0
M  V30 28191 H 2983.36 1.76257 1.037 0
M  V30 28192 H 2981.52 1.62547 3.51649 0
M  V30 28193 H 2981.93 3.83839 3.57446 0
M  V30 28194 H 2983.41 2.67539 4.82832 0
M  V30 28195 H 2983.88 1.07804 4.25764 0
M  V30 28196 H 2984.49 2.52617 3.42147 0
M  V30 28197 N 2982.81 -1.05187 1.1736 0
M  V30 28198 C 2984.03 -1.82402 0.987122 0
M  V30 28199 C 2984.46 -1.82393 -0.459816 0
M  V30 28200 O 2983.81 -1.23294 -1.32922 0
M  V30 28201 C 2983.86 -3.264 1.53282 0
M  V30 28202 O 2982.97 -4.05585 0.746612 0
M  V30 28203 H 2982.31 -0.563968 0.35048 0
M  V30 28204 H 2984.84 -1.32549 1.55859 0
M  V30 28205 H 2984.85 -3.77201 1.55511 0
M  V30 28206 H 2983.52 -3.25721 2.58608 0
M  V30 28207 H 2982.1 -3.64311 0.795735 0
M  V30 28208 N 2984.28 -0.97385 -1.23911 0
M  V30 28209 C 2985.25 -0.513819 -2.23366 0
M  V30 28210 C 2986.25 0.392992 -1.55924 0
M  V30 28211 O 2987.44 0.187596 -1.73187 0
M  V30 28212 C 2984.57 0.255092 -3.39944 0
M  V30 28213 H 2985.76 -1.39312 -2.65579 0
M  V30 28214 H 2983.31 -0.759063 -1.36631 0
M  V30 28215 H 2984.05 1.15122 -3.03179 0
M  V30 28216 H 2983.83 -0.395742 -3.90098 0
M  V30 28217 H 2985.32 0.565769 -4.1375 0
M  V30 28218 N 2985.76 1.38895 -0.744705 0
M  V30 28219 C 2987.01 2.00311 -0.296919 0
M  V30 28220 C 2987.34 1.59104 1.11875 0
M  V30 28221 O 2986.59 0.815734 1.77888 0
M  V30 28222 C 2986.89 3.55609 -0.357364 0
M  V30 28223 C 2986.56 4.16498 -1.72743 0
M  V30 28224 C 2985.22 4.32843 -2.1024 0
M  V30 28225 C 2987.57 4.5018 -2.62655 0
M  V30 28226 C 2984.9 4.80161 -3.37138 0
M  V30 28227 C 2987.25 4.98911 -3.88935 0
M  V30 28228 C 2985.91 5.13463 -4.26512 0
M  V30 28229 H 2985.18 0.732991 -0.10865 0
M  V30 28230 H 2987.83 1.66077 -0.953448 0
M  V30 28231 H 2986.14 3.89926 0.382736 0
M  V30 28232 H 2987.83 4.00999 0.00738911 0
M  V30 28233 H 2984.42 4.04185 -1.42592 0
M  V30 28234 H 2988.61 4.37162 -2.34953 0
M  V30 28235 H 2983.86 4.89613 -3.66182 0
M  V30 28236 H 2988.04 5.23944 -4.58754 0
M  V30 28237 H 2985.66 5.49889 -5.24906 0
M  V30 28238 N 2987.24 0.493084 1.49688 0
M  V30 28239 C 2988.19 -0.308642 2.25901 0
M  V30 28240 C 2989.17 -0.942447 1.3041 0
M  V30 28241 O 2990.37 -0.851357 1.5518 0
M  V30 28242 C 2987.5 -1.37719 3.14465 0
M  V30 28243 C 2986.58 -0.750026 4.17415 0
M  V30 28244 N 2986.97 0.142686 5.05599 0
M  V30 28245 C 2985.27 -1.01151 4.34378 0
M  V30 28246 C 2985.97 0.500884 5.7954 0
M  V30 28247 N 2984.95 -0.12929 5.43446 0
M  V30 28248 H 2988.75 0.378703 2.9145 0
M  V30 28249 H 2986.26 0.308642 1.5944 0
M  V30 28250 H 2988.26 -1.96493 3.6769 0
M  V30 28251 H 2986.92 -2.0663 2.50468 0
M  V30 28252 H 2987.93 0.512985 5.15353 0
M  V30 28253 H 2984.61 -1.69396 3.81591 0
M  V30 28254 H 2986 1.23074 6.60532 0
M  V30 28255 N 2988.72 -1.55963 0.226582 0
M  V30 28256 C 2989.63 -2.24141 -0.692685 0
M  V30 28257 C 2990.64 -1.2507 -1.20969 0
M  V30 28258 O 2991.82 -1.57895 -1.25024 0
M  V30 28259 C 2988.89 -2.91187 -1.88178 0
M  V30 28260 C 2987.95 -4.05614 -1.40626 0
M  V30 28261 C 2987.18 -4.69454 -2.53867 0
M  V30 28262 O 2987.4 -4.32298 -3.72122 0
M  V30 28263 O 2986.34 -5.58352 -2.24782 0
M  V30 28264 H 2990.16 -3.03368 -0.141867 0
M  V30 28265 H 2987.75 -1.49399 -0.00407864 0
M  V30 28266 H 2989.63 -3.33488 -2.57611 0
M  V30 28267 H 2988.3 -2.14915 -2.4206 0
M  V30 28268 H 2987.21 -3.67872 -0.679795 0
M  V30 28269 H 2988.54 -4.83644 -0.913753 0
M  V30 28270 N 2990.2 0.0467589 -1.57531 0
M  V30 28271 C 2991.16 1.03735 -2.04381 0
M  V30 28272 C 2992.16 1.30108 -0.944904 0
M  V30 28273 O 2993.35 1.25408 -1.20906 0
M  V30 28274 C 2990.48 2.37477 -2.44576 0
M  V30 28275 H 2991.67 0.633011 -2.93143 0
M  V30 28276 H 2989.23 0.29315 -1.53526 0
M  V30 28277 H 2989.96 2.82694 -1.58916 0
M  V30 28278 H 2989.75 2.1967 -3.24789 0
M  V30 28279 H 2991.24 3.08631 -2.81312 0
M  V30 28280 N 2991.67 1.54344 0.318688 0
M  V30 28281 C 2992.62 1.848 1.41251 0
M  V30 28282 C 2993.62 0.720283 1.53324 0
M  V30 28283 O 2994.82 0.904019 1.55652 0
M  V30 28284 H 2991.2 0.58586 0.471458 0
M  V30 28285 H 2993.17 2.76262 1.1279 0
M  V30 28286 C 2991.92 2.09642 2.77391 0
M  V30 28287 H 2991.24 2.95881 2.68876 0
M  V30 28288 H 2992.68 2.34902 3.52983 0
M  V30 28289 C 2991.14 0.889455 3.24947 0
M  V30 28290 O 2991.67 0.101133 4.01573 0
M  V30 28291 N 2989.88 0.699734 2.8205 0
M  V30 28292 H 2989.42 1.34244 2.19855 0
M  V30 28293 H 2989.38 -0.106313 3.1422 0
M  V30 28294 N 2993.15 -0.580999 1.465 0
M  V30 28295 C 2994.08 -1.70014 1.60055 0
M  V30 28296 C 2995.06 -1.64017 0.450816 0
M  V30 28297 O 2996.25 -1.82007 0.677269 0
M  V30 28298 C 2993.38 -3.08655 1.59215 0
M  V30 28299 C 2992.33 -3.29483 2.73175 0
M  V30 28300 C 2991.66 -4.68669 2.57397 0
M  V30 28301 C 2992.96 -3.17153 4.14984 0
M  V30 28302 H 2994.65 -1.58926 2.53738 0
M  V30 28303 H 2992.2 -0.763152 1.22115 0
M  V30 28304 H 2994.15 -3.86771 1.67292 0
M  V30 28305 H 2992.88 -3.20646 0.620775 0
M  V30 28306 H 2991.53 -2.53768 2.6457 0
M  V30 28307 H 2991.18 -4.77428 1.58339 0
M  V30 28308 H 2990.88 -4.83558 3.33835 0
M  V30 28309 H 2992.41 -5.48951 2.67367 0
M  V30 28310 H 2993.82 -3.85111 4.24691 0
M  V30 28311 H 2992.22 -3.43562 4.92022 0
M  V30 28312 H 2993.29 -2.1421 4.3502 0
M  V30 28313 N 2994.63 -1.34234 -0.825776 0
M  V30 28314 C 2995.54 -1.27641 -1.96837 0
M  V30 28315 C 2996.56 -0.184599 -1.73018 0
M  V30 28316 O 2997.73 -0.410559 -1.97171 0
M  V30 28317 C 2994.8 -1.02885 -3.31083 0
M  V30 28318 C 2993.86 -2.21194 -3.67929 0
M  V30 28319 C 2993.09 -1.97609 -4.95768 0
M  V30 28320 O 2993.31 -0.932909 -5.62719 0
M  V30 28321 O 2992.25 -2.84486 -5.30426 0
M  V30 28322 H 2996.07 -2.23759 -2.05342 0
M  V30 28323 H 2993.66 -1.14411 -0.960752 0
M  V30 28324 H 2995.54 -0.908478 -4.11491 0
M  V30 28325 H 2994.22 -0.098039 -3.23552 0
M  V30 28326 H 2993.12 -2.38789 -2.87977 0
M  V30 28327 H 2994.46 -3.12655 -3.80142 0
M  V30 28328 N 2996.11 1.04563 -1.17917 0
M  V30 28329 C 2997.52 1.29863 -0.927784 0
M  V30 28330 C 2997.72 1.97295 0.409501 0
M  V30 28331 O 2996.78 2.25046 1.14501 0
M  V30 28332 C 2998.09 2.16221 -2.08971 0
M  V30 28333 C 2999.64 2.29584 -2.12745 0
M  V30 28334 C 3000.12 3.19306 -3.28341 0
M  V30 28335 N 3001.61 3.26893 -3.2817 0
M  V30 28336 C 3002.34 3.96458 -4.14256 0
M  V30 28337 N 3001.84 4.68398 -5.10466 0
M  V30 28338 N 3003.63 3.92687 -4.02186 0
M  V30 28339 H 2995.78 0.591975 -2.03984 0
M  V30 28340 H 2998.05 0.323685 -0.891029 0
M  V30 28341 H 2997.75 1.73973 -3.05657 0
M  V30 28342 H 2997.63 3.16882 -2.04611 0
M  V30 28343 H 3000.01 2.7107 -1.1664 0
M  V30 28344 H 3000.09 1.28531 -2.21164 0
M  V30 28345 H 2999.74 2.78532 -4.24715 0
M  V30 28346 H 2999.67 4.20379 -3.17158 0
M  V30 28347 H 3002.16 2.75641 -2.58516 0
M  V30 28348 H 3002.47 5.1906 -5.72536 0
M  V30 28349 H 3000.82 4.67319 -5.1443 0
M  V30 28350 H 3004.01 3.35614 -3.26314 0
M  V30 28351 H 3004.18 4.46632 -4.69494 0
M  V30 28352 N 2997.59 0.980408 1.23393 0
M  V30 28353 C 2998.81 0.66697 1.96383 0
M  V30 28354 C 2999.24 -0.759426 1.72088 0
M  V30 28355 O 2998.59 -1.5173 0.992355 0
M  V30 28356 C 2998.64 0.963238 3.47497 0
M  V30 28357 O 2997.75 0.0552775 4.12363 0
M  V30 28358 H 2997.09 0.25085 0.614793 0
M  V30 28359 H 2999.62 1.314 1.56828 0
M  V30 28360 H 2999.63 0.899947 3.97951 0
M  V30 28361 H 2998.3 2.0027 3.64506 0
M  V30 28362 H 2996.88 0.172979 3.72499 0
M  V30 28363 N 2999.06 -1.38498 0.75206 0
M  V30 28364 C 3000.29 -2.04963 0.317029 0
M  V30 28365 C 3000.71 -1.56348 -1.0458 0
M  V30 28366 O 3000.07 -0.714784 -1.66615 0
M  V30 28367 C 3000.12 -3.58924 0.347298 0
M  V30 28368 O 2999.22 -4.07097 -0.659224 0
M  V30 28369 H 2998.57 -0.64893 0.140664 0
M  V30 28370 H 3001.1 -1.77203 1.02276 0
M  V30 28371 H 3001.11 -4.07521 0.197642 0
M  V30 28372 H 2999.78 -3.93666 1.34164 0
M  V30 28373 H 2998.36 -3.69871 -0.474306 0
M  V30 28374 N 3000.54 -0.501015 -1.49424 0
M  V30 28375 C 3001.79 0.043414 -2.02053 0
M  V30 28376 C 3002.11 1.37483 -1.38287 0
M  V30 28377 O 3001.38 1.88362 -0.538204 0
M  V30 28378 H 2999.96 0.0190338 -0.746757 0
M  V30 28379 H 3002.62 -0.658259 -1.83447 0
M  V30 28380 H 3001.72 0.173074 -3.1162 0
M  V30 28381 N 3002.02 1.5584 -0.234849 0
M  V30 28382 C 3002.95 2.23855 0.664177 0
M  V30 28383 C 3003.93 1.21472 1.19074 0
M  V30 28384 O 3005.12 1.50094 1.2323 0
M  V30 28385 C 3002.25 2.92874 1.86661 0
M  V30 28386 C 3001.2 4.01842 1.47334 0
M  V30 28387 C 3000.53 4.58224 2.75563 0
M  V30 28388 C 3001.83 5.18197 0.653388 0
M  V30 28389 H 3003.52 2.99243 0.0970687 0
M  V30 28390 H 3001.07 1.43929 0.0452471 0
M  V30 28391 H 3003.02 3.39151 2.5011 0
M  V30 28392 H 3001.74 2.14954 2.45891 0
M  V30 28393 H 3000.4 3.56316 0.862252 0
M  V30 28394 H 3000.05 3.7702 3.32964 0
M  V30 28395 H 2999.75 5.31775 2.49977 0
M  V30 28396 H 3001.28 5.07227 3.39931 0
M  V30 28397 H 3002.69 5.60774 1.19189 0
M  V30 28398 H 3001.09 5.98063 0.494083 0
M  V30 28399 H 3002.16 4.83727 -0.337089 0
M  V30 28400 N 3003.5 -0.038404 1.57553 0
M  V30 28401 C 3004.75 -0.729638 1.88469 0
M  V30 28402 C 3005.07 -1.76391 0.831333 0
M  V30 28403 O 3004.34 -1.95426 -0.136186 0
M  V30 28404 H 3002.92 -0.272473 0.695534 0
M  V30 28405 H 3005.58 -0.00656894 1.94899 0
M  V30 28406 H 3004.68 -1.22506 2.87052 0
M  V30 28407 N 3004.98 -1.54511 -0.310498 0
M  V30 28408 C 3006.22 -1.73597 -1.04843 0
M  V30 28409 C 3006.56 -0.515151 -1.87243 0
M  V30 28410 O 3005.83 0.487827 -1.88283 0
M  V30 28411 C 3006.11 -3.01936 -1.96232 0
M  V30 28412 C 3005.97 -4.34297 -1.17075 0
M  V30 28413 C 3007.29 -3.26092 -2.95554 0
M  V30 28414 H 3004.41 -0.631633 -0.379749 0
M  V30 28415 H 3007.05 -1.87219 -0.323907 0
M  V30 28416 H 3005.2 -2.90453 -2.5801 0
M  V30 28417 H 3006.87 -4.57683 -0.576562 0
M  V30 28418 H 3005.11 -4.31211 -0.473261 0
M  V30 28419 H 3005.78 -5.20343 -1.84248 0
M  V30 28420 H 3008.26 -3.37122 -2.43902 0
M  V30 28421 H 3007.14 -4.17224 -3.56672 0
M  V30 28422 H 3007.4 -2.43936 -3.6871 0
M  V30 28423 N 3006.46 0.573222 -1.46806 0
M  V30 28424 C 3007.68 1.36172 -1.56435 0
M  V30 28425 C 3008.11 1.86931 -0.209369 0
M  V30 28426 O 3007.46 1.62094 0.812118 0
M  V30 28427 C 3007.51 2.51868 -2.58059 0
M  V30 28428 O 3006.62 3.53605 -2.1222 0
M  V30 28429 H 3005.96 0.405144 -0.526075 0
M  V30 28430 H 3008.49 0.694372 -1.92457 0
M  V30 28431 H 3008.5 2.98657 -2.77971 0
M  V30 28432 H 3007.17 2.14278 -3.56452 0
M  V30 28433 H 3005.75 3.13231 -2.02338 0
M  V30 28434 N 3007.93 1.3467 0.818645 0
M  V30 28435 C 3009.18 1.27015 1.57199 0
M  V30 28436 C 3009.5 -0.158565 1.94354 0
M  V30 28437 O 3008.77 -1.0922 1.62628 0
M  V30 28438 H 3007.35 0.467145 0.58291 0
M  V30 28439 H 3010.01 1.68632 0.977204 0
M  V30 28440 H 3009.11 1.87782 2.49287 0
M  V30 28441 N 3009.41 -1.03936 1.1847 0
M  V30 28442 C 3010.64 -1.81345 1.00641 0
M  V30 28443 C 3011.06 -1.82871 -0.440445 0
M  V30 28444 O 3010.42 -1.24697 -1.31607 0
M  V30 28445 C 3010.47 -3.24756 1.56735 0
M  V30 28446 O 3009.57 -4.04771 0.789588 0
M  V30 28447 H 3008.91 -0.560219 0.356442 0
M  V30 28448 H 3011.44 -1.30888 1.57256 0
M  V30 28449 H 3011.45 -3.7553 1.59503 0
M  V30 28450 H 3010.13 -3.2296 2.62049 0
M  V30 28451 H 3008.7 -3.63446 0.834331 0
M  V30 28452 N 3010.89 -0.986938 -1.22871 0
M  V30 28453 C 3012.12 -0.677697 -1.95486 0
M  V30 28454 C 3012.53 0.756542 -1.72979 0
M  V30 28455 O 3011.89 1.50983 -1.0252 0
M  V30 28456 C 3011.94 -0.966699 -3.48335 0
M  V30 28457 O 3011.66 -2.34457 -3.70083 0
M  V30 28458 C 3013.16 -0.674325 -4.38141 0
M  V30 28459 H 3010.38 -0.251196 -0.622207 0
M  V30 28460 H 3012.93 -1.32009 -1.56185 0
M  V30 28461 H 3011.08 -0.370205 -3.85627 0
M  V30 28462 H 3011.5 -2.43926 -4.64328 0
M  V30 28463 H 3012.97 -0.926854 -5.44163 0
M  V30 28464 H 3013.45 0.391652 -4.3745 0
M  V30 28465 H 3014.05 -1.2516 -4.06467 0
M  V30 28466 N 3012.37 1.38098 -0.759394 0
M  V30 28467 C 3013.3 2.3301 -0.151118 0
M  V30 28468 C 3014.28 1.55161 0.697072 0
M  V30 28469 O 3015.46 1.83453 0.637069 0
M  V30 28470 C 3012.59 3.3936 0.738364 0
M  V30 28471 C 3011.55 4.27999 -0.00754933 0
M  V30 28472 C 3010.87 5.25255 1.00057 0
M  V30 28473 C 3012.17 5.08811 -1.17935 0
M  V30 28474 H 3013.87 2.84129 -0.943983 0
M  V30 28475 H 3011.41 1.3661 -0.455386 0
M  V30 28476 H 3013.37 4.04727 1.17362 0
M  V30 28477 H 3012.09 2.86738 1.56361 0
M  V30 28478 H 3010.75 3.64146 -0.423443 0
M  V30 28479 H 3010.4 4.68918 1.82003 0
M  V30 28480 H 3010.1 5.85416 0.506096 0
M  V30 28481 H 3011.62 5.93498 1.43501 0
M  V30 28482 H 3013.04 5.67386 -0.821362 0
M  V30 28483 H 3011.43 5.78236 -1.60507 0
M  V30 28484 H 3012.5 4.42209 -1.98946 0
M  V30 28485 N 3013.85 0.508932 1.49156 0
M  V30 28486 C 3015.07 -0.029337 2.06879 0
M  V30 28487 C 3015.49 -1.30093 1.36826 0
M  V30 28488 O 3014.85 -1.76889 0.449065 0
M  V30 28489 C 3014.9 -0.278728 3.60424 0
M  V30 28490 O 3014.62 0.942464 4.27843 0
M  V30 28491 C 3016.12 -0.859749 4.34883 0
M  V30 28492 H 3013.34 0.0240302 0.67057 0
M  V30 28493 H 3015.88 0.70856 1.91832 0
M  V30 28494 H 3014.04 -0.966623 3.75147 0
M  V30 28495 H 3014.45 0.710189 5.1967 0
M  V30 28496 H 3015.93 -0.983789 5.43163 0
M  V30 28497 H 3016.4 -1.85951 3.97893 0
M  V30 28498 H 3017.01 -0.209077 4.24786 0
M  V30 28499 N 3015.32 -1.55714 0.243111 0
M  V30 28500 C 3016.57 -1.98851 -0.382685 0
M  V30 28501 C 3016.9 -1.13118 -1.58223 0
M  V30 28502 O 3016.15 -0.181101 -1.9486 0
M  V30 28503 C 3016.45 -3.47399 -0.83956 0
M  V30 28504 C 3016.12 -4.50196 0.251816 0
M  V30 28505 C 3014.78 -4.78028 0.551571 0
M  V30 28506 C 3017.13 -5.11734 0.988818 0
M  V30 28507 C 3014.46 -5.64675 1.59247 0
M  V30 28508 C 3016.81 -5.99509 2.01921 0
M  V30 28509 C 3015.48 -6.25675 2.32565 0
M  V30 28510 H 3014.75 -0.727648 -0.140034 0
M  V30 28511 H 3017.39 -1.88272 0.350143 0
M  V30 28512 H 3015.7 -3.55291 -1.65152 0
M  V30 28513 H 3017.4 -3.78162 -1.33397 0
M  V30 28514 H 3013.99 -4.28599 0.00804275 0
M  V30 28515 H 3018.17 -4.90283 0.770486 0
M  V30 28516 H 3013.43 -5.83205 1.83527 0
M  V30 28517 H 3017.6 -6.46236 2.59522 0
M  V30 28518 H 3015.23 -6.9261 3.13361 0
M  V30 28519 N 3016.8 0.030048 -1.57571 0
M  V30 28520 C 3017.73 1.05853 -2.03292 0
M  V30 28521 C 3018.75 1.32525 -0.945566 0
M  V30 28522 O 3019.94 1.3003 -1.22289 0
M  V30 28523 C 3017.04 2.40038 -2.39238 0
M  V30 28524 C 3016.21 2.32736 -3.70341 0
M  V30 28525 C 3015.27 3.49362 -3.93488 0
M  V30 28526 O 3014.29 3.28901 -4.64557 0
M  V30 28527 N 3015.5 4.71195 -3.3905 0
M  V30 28528 H 3018.26 0.668846 -2.92141 0
M  V30 28529 H 3015.82 0.218009 -1.60425 0
M  V30 28530 H 3017.81 3.16778 -2.51861 0
M  V30 28531 H 3016.38 2.70855 -1.56065 0
M  V30 28532 H 3015.6 1.41102 -3.68081 0
M  V30 28533 H 3016.89 2.24999 -4.56347 0
M  V30 28534 H 3016.29 4.9072 -2.81443 0
M  V30 28535 H 3014.85 5.45303 -3.57054 0
M  V30 28536 N 3018.28 1.54674 0.3023 0
M  V30 28537 C 3019.19 1.8859 1.39539 0
M  V30 28538 C 3020.21 0.779922 1.55542 0
M  V30 28539 O 3021.38 1.07626 1.70231 0
M  V30 28540 C 3018.45 2.12509 2.73936 0
M  V30 28541 C 3017.51 3.36225 2.66929 0
M  V30 28542 C 3016.74 3.58994 3.94917 0
M  V30 28543 O 3016.96 2.84798 4.94213 0
M  V30 28544 O 3015.9 4.52508 3.96889 0
M  V30 28545 H 3019.72 2.81581 1.13779 0
M  V30 28546 H 3017.31 1.40847 0.498245 0
M  V30 28547 H 3019.19 2.2945 3.53456 0
M  V30 28548 H 3017.87 1.22703 2.99542 0
M  V30 28549 H 3016.77 3.24649 1.85886 0
M  V30 28550 H 3018.11 4.26156 2.46276 0
M  V30 28551 N 3019.76 -0.565428 1.47108 0
M  V30 28552 C 3021.01 -1.32035 1.53007 0
M  V30 28553 C 3021.33 -1.94067 0.190487 0
M  V30 28554 O 3020.6 -1.79495 -0.784751 0
M  V30 28555 H 3019.18 -0.490284 0.563587 0
M  V30 28556 H 3021.84 -0.660896 1.83353 0
M  V30 28557 H 3020.94 -2.11814 2.29219 0
M  V30 28558 N 3021.24 -1.35102 -0.811492 0
M  V30 28559 C 3022.15 -1.29722 -1.95472 0
M  V30 28560 C 3023.16 -0.20294 -1.72812 0
M  V30 28561 O 3024.34 -0.431449 -1.96724 0
M  V30 28562 C 3021.4 -1.0639 -3.29973 0
M  V30 28563 C 3020.46 -2.25084 -3.65562 0
M  V30 28564 C 3019.7 -2.02856 -4.93645 0
M  V30 28565 O 3019.92 -0.992541 -5.61698 0
M  V30 28566 O 3018.85 -2.90096 -5.27378 0
M  V30 28567 H 3022.68 -2.25925 -2.02958 0
M  V30 28568 H 3020.27 -1.15424 -0.948563 0
M  V30 28569 H 3022.15 -0.952071 -4.10504 0
M  V30 28570 H 3020.82 -0.13235 -3.23429 0
M  V30 28571 H 3019.73 -2.4183 -2.85428 0
M  V30 28572 H 3021.06 -3.16669 -3.76804 0
M  V30 28573 N 3022.71 1.03306 -1.19019 0
M  V30 28574 C 3023.68 2.09656 -0.926113 0
M  V30 28575 C 3024.68 1.60538 0.0916795 0
M  V30 28576 O 3025.87 1.73615 -0.142605 0
M  V30 28577 C 3023 3.3865 -0.391017 0
M  V30 28578 H 3024.19 2.34517 -1.86927 0
M  V30 28579 H 3021.75 1.19851 -1.00327 0
M  V30 28580 H 3022.48 3.19457 0.55839 0
M  V30 28581 H 3022.27 3.7562 -1.1248 0
M  V30 28582 H 3023.76 4.16992 -0.225205 0
M  V30 28583 N 3024.19 0.99344 1.22346 0
M  V30 28584 C 3025.42 0.687761 1.95665 0
M  V30 28585 C 3025.84 -0.741131 1.72884 0
M  V30 28586 O 3025.2 -1.50669 1.00839 0
M  V30 28587 C 3025.25 1.00004 3.46456 0
M  V30 28588 O 3024.35 0.099011 4.12281 0
M  V30 28589 H 3023.69 0.257357 0.612098 0
M  V30 28590 H 3026.22 1.33056 1.55426 0
M  V30 28591 H 3026.23 0.942105 3.96974 0
M  V30 28592 H 3024.91 2.04125 3.62362 0
M  V30 28593 H 3023.49 0.212478 3.72294 0
M  V30 28594 N 3025.67 -1.37693 0.766707 0
M  V30 28595 C 3026.63 -2.28669 0.155889 0
M  V30 28596 C 3027.63 -1.47796 -0.633483 0
M  V30 28597 O 3028.82 -1.68076 -0.457814 0
M  V30 28598 C 3025.96 -3.31694 -0.786907 0
M  V30 28599 H 3027.15 -2.84194 0.957798 0
M  V30 28600 H 3024.7 -1.46874 0.534579 0
M  V30 28601 H 3025.44 -2.81283 -1.61401 0
M  V30 28602 H 3025.22 -3.91465 -0.223113 0
M  V30 28603 H 3026.71 -3.9969 -1.20987 0
M  V30 28604 N 3027.15 -0.516835 -1.48884 0
M  V30 28605 C 3028.11 0.242216 -2.27917 0
M  V30 28606 C 3029.11 0.879711 -1.34602 0
M  V30 28607 O 3030.3 0.741792 -1.57617 0
M  V30 28608 C 3027.43 1.34909 -3.13069 0
M  V30 28609 H 3028.63 -0.451496 -2.96482 0
M  V30 28610 H 3026.18 -0.272321 -1.53909 0
M  V30 28611 H 3026.91 2.07646 -2.49105 0
M  V30 28612 H 3026.7 0.897246 -3.81696 0
M  V30 28613 H 3028.19 1.88334 -3.7272 0
M  V30 28614 N 3028.63 1.55583 -0.251365 0
M  V30 28615 C 3030.04 1.85006 0.250948 0
M  V30 28616 C 3030.39 1.17323 1.57257 0
M  V30 28617 O 3029.51 0.453173 2.11602 0
M  V30 28618 C 3030.11 3.35634 0.462102 0
M  V30 28619 C 3028.67 3.65267 0.908673 0
M  V30 28620 C 3027.81 2.77298 -0.0115905 0
M  V30 28621 H 3030.77 1.51462 -0.473809 0
M  V30 28622 H 3030.79 3.57455 1.30408 0
M  V30 28623 H 3030.3 3.84866 -0.499954 0
M  V30 28624 H 3028.4 3.21516 1.88304 0
M  V30 28625 H 3028.51 4.72994 0.762443 0
M  V30 28626 H 3026.88 2.49733 0.500568 0
M  V30 28627 H 3027.66 3.29338 -0.9691 0
M  V30 28628 N 3030.1 -0.0216912 1.57585 0
M  V30 28629 C 3031.01 -1.0368 2.10446 0
M  V30 28630 C 3032.03 -1.39145 1.04474 0
M  V30 28631 O 3033.21 -1.48315 1.36252 0
M  V30 28632 C 3030.27 -2.31659 2.57944 0
M  V30 28633 C 3029.33 -2.02708 3.78429 0
M  V30 28634 C 3028.57 -3.24585 4.23651 0
M  V30 28635 O 3028.79 -4.35518 3.68348 0
M  V30 28636 O 3027.72 -3.09853 5.16018 0
M  V30 28637 H 3031.55 -0.617531 2.97355 0
M  V30 28638 H 3029.13 -0.239148 1.47474 0
M  V30 28639 H 3031.02 -3.06884 2.88791 0
M  V30 28640 H 3029.69 -2.72867 1.74142 0
M  V30 28641 H 3028.6 -1.25027 3.52589 0
M  V30 28642 H 3029.93 -1.66351 4.63237 0
M  V30 28643 N 3031.58 -1.54832 -0.294093 0
M  V30 28644 C 3032.83 -1.74699 -1.02996 0
M  V30 28645 C 3033.16 -0.534982 -1.86686 0
M  V30 28646 O 3032.44 0.46783 -1.8879 0
M  V30 28647 C 3032.72 -3.04 -1.93018 0
M  V30 28648 C 3032.57 -4.35514 -1.12462 0
M  V30 28649 C 3033.89 -3.29208 -2.92079 0
M  V30 28650 H 3031.01 -0.635625 -0.373028 0
M  V30 28651 H 3033.65 -1.87552 -0.304032 0
M  V30 28652 H 3031.8 -2.93173 -2.54915 0
M  V30 28653 H 3033.48 -4.58268 -0.527986 0
M  V30 28654 H 3031.72 -4.31688 -0.427498 0
M  V30 28655 H 3032.39 -5.22268 -1.78719 0
M  V30 28656 H 3034.87 -3.39689 -2.40313 0
M  V30 28657 H 3033.74 -4.20984 -3.52227 0
M  V30 28658 H 3034 -2.47833 -3.66102 0
M  V30 28659 N 3033.06 0.557619 -1.47405 0
M  V30 28660 C 3034.29 1.34505 -1.57871 0
M  V30 28661 C 3034.71 1.86699 -0.229184 0
M  V30 28662 O 3034.07 1.62946 0.79488 0
M  V30 28663 C 3034.12 2.49117 -2.60716 0
M  V30 28664 O 3033.22 3.51334 -2.15959 0
M  V30 28665 H 3032.56 0.399541 -0.530342 0
M  V30 28666 H 3035.09 0.67392 -1.93183 0
M  V30 28667 H 3035.1 2.95692 -2.81123 0
M  V30 28668 H 3033.78 2.10485 -3.58704 0
M  V30 28669 H 3032.35 3.11067 -2.05649 0
M  V30 28670 N 3034.54 1.35531 0.804316 0
M  V30 28671 C 3035.79 1.28676 1.55843 0
M  V30 28672 C 3036.11 -0.137942 1.94511 0
M  V30 28673 O 3035.38 -1.07489 1.63777 0
M  V30 28674 H 3033.96 0.473301 0.577923 0
M  V30 28675 H 3036.62 1.69659 0.959263 0
M  V30 28676 H 3035.72 1.90416 2.47282 0
M  V30 28677 N 3036.02 -1.02674 1.19565 0
M  V30 28678 C 3036.93 -2.14472 0.950728 0
M  V30 28679 C 3037.94 -1.73767 -0.0899914 0
M  V30 28680 O 3039.12 -2.01175 0.0951417 0
M  V30 28681 C 3036.18 -3.43148 0.494977 0
M  V30 28682 C 3035.25 -3.98155 1.60534 0
M  V30 28683 C 3034.48 -5.2069 1.17124 0
M  V30 28684 O 3034.7 -5.70389 0.0356939 0
M  V30 28685 O 3033.64 -5.68587 1.97464 0
M  V30 28686 H 3037.46 -2.37998 1.88655 0
M  V30 28687 H 3035.05 -1.12884 0.978655 0
M  V30 28688 H 3036.93 -4.2066 0.249566 0
M  V30 28689 H 3035.6 -3.21063 -0.412378 0
M  V30 28690 H 3034.51 -3.21968 1.90493 0
M  V30 28691 H 3035.84 -4.24609 2.48933 0
M  V30 28692 N 3037.5 -0.999914 -1.21817 0
M  V30 28693 C 3038.72 -0.698128 -1.95297 0
M  V30 28694 C 3039.15 0.731952 -1.73275 0
M  V30 28695 O 3038.5 1.50132 -1.01637 0
M  V30 28696 C 3038.55 -1.0184 -3.4592 0
M  V30 28697 O 3037.66 -0.120874 -4.12223 0
M  V30 28698 H 3037 -0.260599 -0.610724 0
M  V30 28699 H 3039.53 -1.33879 -1.54718 0
M  V30 28700 H 3039.54 -0.963144 -3.96469 0
M  V30 28701 H 3038.21 -2.06044 -3.61274 0
M  V30 28702 H 3036.79 -0.232219 -3.72176 0
M  V30 28703 N 3038.97 1.37284 -0.773999 0
M  V30 28704 C 3040.2 2.03905 -0.350794 0
M  V30 28705 C 3040.62 1.58375 1.02776 0
M  V30 28706 O 3039.97 0.766039 1.65644 0
M  V30 28707 C 3040.02 3.59418 -0.387399 0
M  V30 28708 O 3039.75 4.03283 -1.71157 0
M  V30 28709 C 3041.25 4.43275 0.0471201 0
M  V30 28710 H 3038.47 0.654773 -0.146675 0
M  V30 28711 H 3041.01 1.75573 -1.04855 0
M  V30 28712 H 3039.17 3.86514 0.261797 0
M  V30 28713 H 3039.58 4.97813 -1.65175 0
M  V30 28714 H 3041.05 5.51992 -0.0296445 0
M  V30 28715 H 3041.53 4.25259 1.09778 0
M  V30 28716 H 3042.14 4.21409 -0.573974 0
M  V30 28717 N 3040.45 0.524724 1.48608 0
M  V30 28718 C 3041.68 -0.00739309 2.06899 0
M  V30 28719 C 3042.09 -1.28634 1.38198 0
M  V30 28720 O 3041.45 -1.76403 0.467802 0
M  V30 28721 C 3041.5 -0.240485 3.60699 0
M  V30 28722 O 3041.22 0.98779 4.26819 0
M  V30 28723 C 3042.72 -0.813576 4.3577 0
M  V30 28724 H 3039.94 0.0311411 0.670277 0
M  V30 28725 H 3042.49 0.728866 1.9107 0
M  V30 28726 H 3040.64 -0.926779 3.76151 0
M  V30 28727 H 3041.06 0.765267 5.18887 0
M  V30 28728 H 3042.53 -0.926124 5.44175 0
M  V30 28729 H 3043.01 -1.81721 3.99843 0
M  V30 28730 H 3043.61 -0.164011 4.24984 0
M  V30 28731 N 3041.93 -1.55447 0.259613 0
M  V30 28732 C 3043.16 -2.03649 -0.365357 0
M  V30 28733 C 3043.57 -1.1385 -1.50611 0
M  V30 28734 O 3042.93 -0.155446 -1.81837 0
M  V30 28735 C 3042.98 -3.51094 -0.86111 0
M  V30 28736 O 3042.7 -4.37474 0.234198 0
M  V30 28737 C 3044.2 -4.15114 -1.55548 0
M  V30 28738 H 3041.42 -0.665552 -0.0853322 0
M  V30 28739 H 3043.97 -2.00801 0.387186 0
M  V30 28740 H 3042.12 -3.54435 -1.56379 0
M  V30 28741 H 3042.54 -5.24301 -0.144308 0
M  V30 28742 H 3044.01 -5.19936 -1.85394 0
M  V30 28743 H 3044.49 -3.62359 -2.48178 0
M  V30 28744 H 3045.09 -4.15732 -0.897047 0
M  V30 28745 N 3043.41 0.0133338 -1.57594 0
M  V30 28746 C 3044.63 0.715962 -1.9465 0
M  V30 28747 C 3045.06 1.67247 -0.860815 0
M  V30 28748 O 3044.42 1.80382 0.182196 0
M  V30 28749 C 3044.46 1.4356 -3.30791 0
M  V30 28750 O 3043.57 2.54949 -3.24152 0
M  V30 28751 H 3042.91 0.191437 -0.635805 0
M  V30 28752 H 3045.44 -0.0358837 -2.04569 0
M  V30 28753 H 3045.45 1.80202 -3.66048 0
M  V30 28754 H 3044.12 0.734191 -4.09368 0
M  V30 28755 H 3042.7 2.20733 -3.00551 0
M  V30 28756 N 3044.89 1.54985 0.285878 0
M  V30 28757 C 3046.16 1.65681 1.03967 0
M  V30 28758 C 3046.54 0.514887 2.04725 0
M  V30 28759 O 3045.89 -0.486624 2.23258 0
M  V30 28760 C 3046.1 3.04348 1.70801 0
M  V30 28761 C 3047.45 3.6167 2.22441 0
M  V30 28762 O 3048.47 3.06898 1.80809 0
M  V30 28763 O 3047.33 4.57604 2.98765 0
M  V30 28764 H 3044.43 0.672402 0.481461 0
M  V30 28765 H 3046.97 1.67328 0.28276 0
M  V30 28766 H 3045.74 3.78902 0.977204 0
M  V30 28767 H 3045.37 3.06545 2.53211 0
M  V30 28768 N 3046.36 -0.549794 1.47699 0
M  V30 28769 C 3047.61 -1.30856 1.54934 0
M  V30 28770 C 3047.94 -1.93017 0.214055 0
M  V30 28771 O 3047.22 -1.78259 -0.778062 0
M  V30 28772 C 3047.5 -2.41304 2.67291 0
M  V30 28773 C 3047.35 -1.83964 4.1046 0
M  V30 28774 C 3048.67 -3.4319 2.75515 0
M  V30 28775 H 3045.79 -0.474421 0.563998 0
M  V30 28776 H 3048.43 -0.61451 1.79788 0
M  V30 28777 H 3046.58 -3.00505 2.46229 0
M  V30 28778 H 3048.26 -1.28966 4.42906 0
M  V30 28779 H 3046.5 -1.14599 4.18389 0
M  V30 28780 H 3047.17 -2.63842 4.84862 0
M  V30 28781 H 3049.65 -2.93918 2.94536 0
M  V30 28782 H 3048.52 -4.17889 3.55893 0
M  V30 28783 H 3048.78 -4.02506 1.8287 0
M  V30 28784 N 3047.84 -1.35955 -0.797117 0
M  V30 28785 C 3049.09 -1.295 -1.55158 0
M  V30 28786 C 3049.41 0.127625 -1.94582 0
M  V30 28787 O 3048.68 1.06619 -1.64345 0
M  V30 28788 H 3047.26 -0.47636 -0.575405 0
M  V30 28789 H 3049.92 -1.70165 -0.950252 0
M  V30 28790 H 3049.02 -1.91725 -2.46268 0
M  V30 28791 N 3049.32 1.02038 -1.20108 0
M  V30 28792 C 3050.55 1.79185 -1.03443 0
M  V30 28793 C 3050.96 1.84148 0.41651 0
M  V30 28794 O 3050.32 1.29171 1.28923 0
M  V30 28795 C 3050.37 3.23833 -1.60669 0
M  V30 28796 O 3050.09 3.19188 -3.00085 0
M  V30 28797 C 3051.59 4.17543 -1.48905 0
M  V30 28798 H 3048.81 0.563623 -0.364102 0
M  V30 28799 H 3051.36 1.28467 -1.59112 0
M  V30 28800 H 3049.51 3.71712 -1.09129 0
M  V30 28801 H 3049.93 4.09952 -3.27169 0
M  V30 28802 H 3051.4 5.16894 -1.93712 0
M  V30 28803 H 3051.88 4.36981 -0.44092 0
M  V30 28804 H 3052.48 3.75544 -1.99617 0
M  V30 28805 N 3050.8 1.00636 1.21285 0
M  V30 28806 C 3051.71 0.577266 2.27387 0
M  V30 28807 C 3052.72 -0.380369 1.69792 0
M  V30 28808 O 3053.9 -0.243865 1.99918 0
M  V30 28809 C 3050.97 -0.0879922 3.46588 0
M  V30 28810 C 3050.03 0.914296 4.19451 0
M  V30 28811 C 3049.26 0.280689 5.32961 0
M  V30 28812 O 3049.48 -0.922166 5.62896 0
M  V30 28813 O 3048.42 0.9923 5.93664 0
M  V30 28814 H 3052.24 1.46032 2.66286 0
M  V30 28815 H 3049.83 0.775305 1.27708 0
M  V30 28816 H 3051.71 -0.46002 4.18882 0
M  V30 28817 H 3050.38 -0.945406 3.09586 0
M  V30 28818 H 3049.29 1.3375 3.49373 0
M  V30 28819 H 3050.62 1.74134 4.60367 0
M  V30 28820 N 3052.28 -1.36872 0.781268 0
M  V30 28821 C 3053.24 -2.28491 0.180134 0
M  V30 28822 C 3054.24 -1.48459 -0.617772 0
M  V30 28823 O 3055.43 -1.68553 -0.439962 0
M  V30 28824 C 3052.56 -3.32509 -0.751682 0
M  V30 28825 H 3053.75 -2.83162 0.987887 0
M  V30 28826 H 3051.31 -1.46299 0.550127 0
M  V30 28827 H 3052.04 -2.82979 -1.58408 0
M  V30 28828 H 3051.83 -3.91679 -0.181581 0
M  V30 28829 H 3053.32 -4.00951 -1.1674 0
M  V30 28830 N 3053.75 -0.532597 -1.48328 0
M  V30 28831 C 3055.17 -0.0928076 -1.86469 0
M  V30 28832 C 3055.52 1.33057 -1.44188 0
M  V30 28833 O 3054.64 1.99693 -0.833776 0
M  V30 28834 C 3055.24 -0.161648 -3.38414 0
M  V30 28835 C 3053.8 0.222962 -3.75739 0
M  V30 28836 C 3052.94 -0.520247 -2.72376 0
M  V30 28837 H 3055.89 -0.743703 -1.40195 0
M  V30 28838 H 3055.91 0.625994 -3.75315 0
M  V30 28839 H 3055.43 -1.19771 -3.69156 0
M  V30 28840 H 3053.53 1.26107 -3.50611 0
M  V30 28841 H 3053.64 -0.118469 -4.78954 0
M  V30 28842 H 3052 0.0337977 -2.54678 0
M  V30 28843 H 3052.79 -1.55699 -3.05962 0
M  V30 28844 N 3055.23 1.55307 -0.267853 0
M  V30 28845 C 3056.48 1.99041 0.350308 0
M  V30 28846 C 3056.8 1.15761 1.56922 0
M  V30 28847 O 3056.07 0.24537 1.94357 0
M  V30 28848 H 3054.65 0.735169 0.132422 0
M  V30 28849 H 3057.31 1.91327 -0.371504 0
M  V30 28850 H 3056.41 3.05359 0.64515 0
M  V30 28851 N 3056.71 -0.00497598 1.57599 0
M  V30 28852 C 3057.64 -0.997013 2.11144 0
M  V30 28853 C 3058.62 -1.36168 1.01943 0
M  V30 28854 O 3059.81 -1.4463 1.29599 0
M  V30 28855 C 3056.94 -2.29045 2.61066 0
M  V30 28856 C 3055.89 -2.06754 3.74749 0
M  V30 28857 C 3055.22 -3.42068 4.10967 0
M  V30 28858 C 3056.52 -1.43415 5.02224 0
M  V30 28859 H 3058.21 -0.551199 2.94282 0
M  V30 28860 H 3055.76 -0.26369 1.41565 0
M  V30 28861 H 3057.71 -2.98796 2.97151 0
M  V30 28862 H 3056.43 -2.75731 1.75043 0
M  V30 28863 H 3055.09 -1.3943 3.3905 0
M  V30 28864 H 3054.74 -3.86447 3.21974 0
M  V30 28865 H 3054.44 -3.2797 4.87554 0
M  V30 28866 H 3055.96 -4.13142 4.49607 0
M  V30 28867 H 3057.38 -2.03116 5.36113 0
M  V30 28868 H 3055.78 -1.39821 5.83584 0
M  V30 28869 H 3056.85 -0.402765 4.83224 0
M  V30 28870 N 3058.19 -1.55135 -0.277654 0
M  V30 28871 C 3059.6 -1.66278 -0.849034 0
M  V30 28872 C 3059.95 -0.586733 -1.87221 0
M  V30 28873 O 3059.08 0.272597 -2.14676 0
M  V30 28874 C 3059.67 -3.01432 -1.54675 0
M  V30 28875 C 3058.23 -3.14617 -2.06623 0
M  V30 28876 C 3057.38 -2.62058 -0.906702 0
M  V30 28877 H 3060.33 -1.58608 -0.0541078 0
M  V30 28878 H 3060.35 -2.9416 -2.41351 0
M  V30 28879 H 3059.86 -3.79727 -0.801823 0
M  V30 28880 H 3057.96 -2.41087 -2.84091 0
M  V30 28881 H 3058.07 -4.21114 -2.28473 0
M  V30 28882 H 3056.44 -2.19097 -1.29879 0
M  V30 28883 H 3057.22 -3.42852 -0.175353 0
M  V30 28884 N 3059.67 0.541953 -1.47989 0
M  V30 28885 C 3060.89 1.32823 -1.59288 0
M  V30 28886 C 3061.32 1.86445 -0.248973 0
M  V30 28887 O 3060.67 1.6378 0.777553 0
M  V30 28888 C 3060.72 2.46338 -2.63344 0
M  V30 28889 O 3059.83 3.49024 -2.19673 0
M  V30 28890 H 3059.17 0.393894 -0.53455 0
M  V30 28891 H 3061.7 0.653392 -1.93886 0
M  V30 28892 H 3061.71 2.92694 -2.84243 0
M  V30 28893 H 3060.38 2.06669 -3.60917 0
M  V30 28894 H 3058.96 3.08868 -2.08937 0
M  V30 28895 N 3061.15 1.36376 0.789896 0
M  V30 28896 C 3062.11 1.30513 1.88412 0
M  V30 28897 C 3063.11 0.212928 1.59384 0
M  V30 28898 O 3064.3 0.467681 1.67805 0
M  V30 28899 C 3061.43 1.02307 3.25186 0
M  V30 28900 H 3062.62 2.27826 1.95027 0
M  V30 28901 H 3060.18 1.21142 0.987643 0
M  V30 28902 H 3060.91 0.0545056 3.24254 0
M  V30 28903 H 3060.7 1.81345 3.47644 0
M  V30 28904 H 3062.19 1.00809 4.0525 0
M  V30 28905 N 3062.62 -1.014 1.20647 0
M  V30 28906 C 3063.85 -1.78633 1.04392 0
M  V30 28907 C 3064.27 -1.84367 -0.406738 0
M  V30 28908 O 3063.62 -1.29853 -1.28236 0
M  V30 28909 C 3063.67 -3.22976 1.62384 0
M  V30 28910 O 3063.4 -3.17592 3.01773 0
M  V30 28911 C 3064.9 -4.16748 1.51117 0
M  V30 28912 H 3062.12 -0.561684 0.367086 0
M  V30 28913 H 3064.66 -1.27621 1.59791 0
M  V30 28914 H 3062.82 -3.71128 1.11099 0
M  V30 28915 H 3063.23 -4.08211 3.29339 0
M  V30 28916 H 3064.7 -5.1586 1.9645 0
M  V30 28917 H 3065.18 -4.36741 0.464088 0
M  V30 28918 H 3065.79 -3.7448 2.01606 0
M  V30 28919 N 3064.1 -1.01278 -1.2075 0
M  V30 28920 C 3065.51 -0.732063 -1.71749 0
M  V30 28921 C 3065.86 0.749701 -1.81312 0
M  V30 28922 O 3064.99 1.58527 -1.47303 0
M  V30 28923 C 3065.58 -1.32222 -3.11934 0
M  V30 28924 C 3064.14 -1.09046 -3.60258 0
M  V30 28925 C 3063.29 -1.43026 -2.37568 0
M  V30 28926 H 3066.24 -1.18272 -1.05818 0
M  V30 28927 H 3066.26 -0.710837 -3.73801 0
M  V30 28928 H 3065.77 -2.40067 -3.04942 0
M  V30 28929 H 3063.87 -0.0295119 -3.72588 0
M  V30 28930 H 3063.99 -1.76782 -4.45292 0
M  V30 28931 H 3062.35 -0.849201 -2.40126 0
M  V30 28932 H 3063.13 -2.51919 -2.33221 0
M  V30 28933 N 3065.58 1.36456 -0.788516 0
M  V30 28934 C 3066.81 2.03521 -0.372401 0
M  V30 28935 C 3067.22 1.59456 1.0109 0
M  V30 28936 O 3066.58 0.783564 1.64823 0
M  V30 28937 C 3066.63 3.58987 -0.425498 0
M  V30 28938 O 3066.35 4.01445 -1.75425 0
M  V30 28939 C 3067.85 4.433 0.000102246 0
M  V30 28940 H 3065.07 0.65318 -0.153611 0
M  V30 28941 H 3067.62 1.74451 -1.06711 0
M  V30 28942 H 3065.77 3.8677 0.220788 0
M  V30 28943 H 3066.19 4.96033 -1.70445 0
M  V30 28944 H 3067.66 5.5193 -0.0881889 0
M  V30 28945 H 3068.14 4.264 1.05262 0
M  V30 28946 H 3068.74 4.20777 -0.618637 0
M  V30 28947 N 3067.06 0.540456 1.48043 0
M  V30 28948 C 3068.02 -0.205926 2.28273 0
M  V30 28949 C 3069.02 -0.858185 1.35985 0
M  V30 28950 O 3070.21 -0.716623 1.58777 0
M  V30 28951 C 3067.34 -1.29911 3.15176 0
M  V30 28952 H 3068.54 0.498607 2.95726 0
M  V30 28953 H 3066.09 0.296772 1.53457 0
M  V30 28954 H 3066.82 -2.03657 2.52377 0
M  V30 28955 H 3066.61 -0.836408 3.83075 0
M  V30 28956 H 3068.1 -1.82381 3.75669 0
M  V30 28957 N 3068.54 -1.55163 0.276085 0
M  V30 28958 C 3069.76 -2.04483 -0.346612 0
M  V30 28959 C 3070.19 -1.1531 -1.48611 0
M  V30 28960 O 3069.54 -0.151907 -1.80662 0
M  V30 28961 C 3069.59 -3.51518 -0.804207 0
M  V30 28962 O 3068.7 -3.65432 -1.91136 0
M  V30 28963 H 3068.04 -0.660138 -0.0715135 0
M  V30 28964 H 3070.57 -2.00436 0.410667 0
M  V30 28965 H 3070.58 -3.929 -1.0997 0
M  V30 28966 H 3069.25 -4.1589 0.0294854 0
M  V30 28967 H 3067.83 -3.35953 -1.61833 0
M  V30 28968 N 3070.01 -0.00338196 -1.576 0
M  V30 28969 C 3071.26 0.679413 -1.90338 0
M  V30 28970 C 3071.58 1.74125 -0.877808 0
M  V30 28971 O 3070.85 1.95718 0.0843241 0
M  V30 28972 H 3069.43 0.253936 -0.702514 0
M  V30 28973 H 3072.09 -0.0451074 -1.94848 0
M  V30 28974 H 3071.19 1.14852 -2.90199 0
M  V30 28975 N 3071.49 1.5528 0.269423 0
M  V30 28976 C 3072.77 1.66774 1.02204 0
M  V30 28977 C 3073.15 0.536572 2.04167 0
M  V30 28978 O 3072.5 -0.462917 2.23762 0
M  V30 28979 C 3072.71 3.06143 1.67564 0
M  V30 28980 C 3074.05 3.64009 2.18593 0
M  V30 28981 O 3075.08 3.08799 1.77544 0
M  V30 28982 O 3073.94 4.60747 2.93895 0
M  V30 28983 H 3071.03 0.677471 0.474302 0
M  V30 28984 H 3073.58 1.67618 0.264997 0
M  V30 28985 H 3072.35 3.79917 0.936962 0
M  V30 28986 H 3071.97 3.09213 2.49946 0
M  V30 28987 N 3072.97 -0.534097 1.48274 0
M  V30 28988 C 3074.39 -0.862249 1.34304 0
M  V30 28989 C 3074.59 -1.9842 0.350937 0
M  V30 28990 O 3073.64 -2.51457 -0.22932 0
M  V30 28991 C 3074.95 -1.23366 2.74229 0
M  V30 28992 C 3076.5 -1.34378 2.82686 0
M  V30 28993 C 3076.98 -1.74864 4.23304 0
M  V30 28994 N 3078.47 -1.81974 4.25958 0
M  V30 28995 C 3079.2 -2.14677 5.31697 0
M  V30 28996 N 3078.7 -2.45832 6.47718 0
M  V30 28997 N 3080.49 -2.15648 5.19088 0
M  V30 28998 H 3072.64 0.206252 2.11396 0
M  V30 28999 H 3074.91 0.0296283 0.947537 0
M  V30 29000 H 3074.61 -0.482906 3.48369 0
M  V30 29001 H 3074.49 -2.18473 3.07489 0
M  V30 29002 H 3076.87 -2.0853 2.08804 0
M  V30 29003 H 3076.95 -0.374019 2.53051 0
M  V30 29004 H 3076.6 -1.01273 4.97701 0
M  V30 29005 H 3076.53 -2.72883 4.50381 0
M  V30 29006 H 3079.02 -1.6019 3.42268 0
M  V30 29007 H 3079.33 -2.69879 7.24144 0
M  V30 29008 H 3077.68 -2.43361 6.51 0
M  V30 29009 H 3080.87 -1.90762 4.27466 0
M  V30 29010 H 3081.04 -2.40803 6.01596 0
M  V30 29011 N 3074.45 -1.36793 -0.782652 0
M  V30 29012 C 3075.68 -1.34568 -1.5716 0
M  V30 29013 C 3076.09 0.0715169 -1.88664 0
M  V30 29014 O 3075.45 1.0303 -1.50635 0
M  V30 29015 C 3075.5 -2.17365 -2.8885 0
M  V30 29016 O 3075.22 -3.53561 -2.587 0
M  V30 29017 C 3076.72 -2.22997 -3.83128 0
M  V30 29018 H 3073.94 -0.461347 -0.487237 0
M  V30 29019 H 3076.48 -1.79984 -0.970873 0
M  V30 29020 H 3074.64 -1.75487 -3.45374 0
M  V30 29021 H 3075.05 -3.96841 -3.42954 0
M  V30 29022 H 3076.53 -2.85275 -4.7257 0
M  V30 29023 H 3077 -1.23531 -4.2147 0
M  V30 29024 H 3077.61 -2.65141 -3.32536 0
M  V30 29025 N 3075.93 1.00759 -1.21184 0
M  V30 29026 C 3076.84 2.12933 -0.984729 0
M  V30 29027 C 3077.85 1.73888 0.0623351 0
M  V30 29028 O 3079.03 2.00998 -0.127135 0
M  V30 29029 C 3076.09 3.42318 -0.549507 0
M  V30 29030 C 3075.15 3.95551 -1.66848 0
M  V30 29031 C 3074.39 5.1876 -1.25393 0
M  V30 29032 O 3074.61 5.7026 -0.126433 0
M  V30 29033 O 3073.54 5.65374 -2.06485 0
M  V30 29034 H 3077.37 2.34967 -1.92417 0
M  V30 29035 H 3074.96 1.11312 -0.99649 0
M  V30 29036 H 3076.84 4.2021 -0.316458 0
M  V30 29037 H 3075.51 3.21678 0.361248 0
M  V30 29038 H 3074.42 3.18897 -1.95591 0
M  V30 29039 H 3075.75 4.20595 -2.55657 0
M  V30 29040 N 3077.4 1.01917 1.20211 0
M  V30 29041 C 3078.65 0.705294 1.88967 0
M  V30 29042 C 3078.97 -0.7685 1.79871 0
M  V30 29043 O 3080.17 -1.19503 2.43785 0
M  V30 29044 C 3078.63 1.21115 3.38909 0
M  V30 29045 C 3078.24 2.71203 3.56585 0
M  V30 29046 C 3079.98 0.972822 4.13203 0
M  V30 29047 C 3077.89 3.15257 5.00367 0
M  V30 29048 H 3076.82 0.260119 0.70771 0
M  V30 29049 H 3079.47 1.23219 1.35975 0
M  V30 29050 H 3077.85 0.612221 3.91239 0
M  V30 29051 H 3079.02 3.36668 3.14629 0
M  V30 29052 H 3077.34 2.93208 2.95666 0
M  V30 29053 H 3079.94 1.27735 5.19218 0
M  V30 29054 H 3080.28 -0.0906468 4.16201 0
M  V30 29055 H 3080.81 1.53526 3.6698 0
M  V30 29056 H 3077.55 4.20891 5.02524 0
M  V30 29057 H 3077.07 2.54514 5.43123 0
M  V30 29058 H 3078.75 3.08042 5.68963 0
M  V30 29059 N 3078.88 -1.36036 0.795742 0
M  V30 29060 C 3080.11 -2.0385 0.382076 0
M  V30 29061 C 3080.53 -1.59596 -0.995525 0
M  V30 29062 O 3079.89 -0.76743 -1.64257 0
M  V30 29063 C 3079.94 -3.57637 0.461311 0
M  V30 29064 O 3079.04 -4.08988 -0.529376 0
M  V30 29065 H 3078.38 -0.644126 0.161238 0
M  V30 29066 H 3080.91 -1.73859 1.07861 0
M  V30 29067 H 3080.92 -4.06686 0.327192 0
M  V30 29068 H 3079.6 -3.89198 1.4662 0
M  V30 29069 H 3078.18 -3.71193 -0.356394 0
M  V30 29070 N 3080.36 -0.5483 -1.47755 0
M  V30 29071 C 3081.61 -0.0208898 -2.02089 0
M  V30 29072 C 3081.93 1.33014 -1.42591 0
M  V30 29073 O 3081.2 1.86554 -0.597858 0
M  V30 29074 H 3079.78 -0.00473336 -0.746985 0
M  V30 29075 H 3082.44 -0.716288 -1.8126 0
M  V30 29076 H 3081.54 0.0738468 -3.12013 0
M  V30 29077 N 3081.84 1.55014 -0.28431 0
M  V30 29078 C 3083.12 1.91832 0.382091 0
M  V30 29079 C 3083.5 1.20965 1.73005 0
M  V30 29080 O 3082.84 0.339634 2.25962 0
M  V30 29081 C 3083.05 3.45205 0.51328 0
M  V30 29082 C 3084.4 4.1715 0.791915 0
M  V30 29083 O 3085.43 3.51149 0.597737 0
M  V30 29084 O 3084.28 5.33963 1.16385 0
M  V30 29085 H 3081.38 0.799711 0.210693 0
M  V30 29086 H 3083.92 1.66438 -0.33114 0
M  V30 29087 H 3082.7 3.88875 -0.434979 0
M  V30 29088 H 3082.32 3.76581 1.27563 0
M  V30 29089 N 3083.32 0.0117398 1.57596 0
M  V30 29090 C 3084.25 -0.974562 2.1219 0
M  V30 29091 C 3085.23 -1.35079 1.03381 0
M  V30 29092 O 3086.41 -1.43247 1.31125 0
M  V30 29093 C 3083.54 -2.26264 2.63481 0
M  V30 29094 C 3082.5 -2.02768 3.76921 0
M  V30 29095 C 3081.82 -3.3769 4.14572 0
M  V30 29096 C 3083.12 -1.38081 5.03717 0
M  V30 29097 H 3084.82 -0.519955 2.94851 0
M  V30 29098 H 3082.36 -0.248661 1.41837 0
M  V30 29099 H 3084.32 -2.95627 3.00304 0
M  V30 29100 H 3083.04 -2.73859 1.77958 0
M  V30 29101 H 3081.7 -1.35827 3.4051 0
M  V30 29102 H 3081.35 -3.83011 3.26055 0
M  V30 29103 H 3081.05 -3.22781 4.91005 0
M  V30 29104 H 3082.57 -4.0835 4.53963 0
M  V30 29105 H 3083.98 -1.97418 5.38237 0
M  V30 29106 H 3082.38 -1.33623 5.85034 0
M  V30 29107 H 3083.45 -0.35149 4.83624 0
M  V30 29108 N 3084.79 -1.55421 -0.261185 0
M  V30 29109 C 3086.02 -1.80957 -1.01337 0
M  V30 29110 C 3086.44 -0.58688 -1.7871 0
M  V30 29111 O 3085.8 0.463806 -1.75267 0
M  V30 29112 C 3085.85 -3.04076 -1.9383 0
M  V30 29113 O 3084.95 -2.7999 -3.02786 0
M  V30 29114 H 3084.3 -0.597754 -0.289113 0
M  V30 29115 H 3086.83 -2.02584 -0.286507 0
M  V30 29116 H 3086.84 -3.33127 -2.35564 0
M  V30 29117 H 3085.51 -3.92713 -1.36929 0
M  V30 29118 H 3084.09 -2.62068 -2.65283 0
M  V30 29119 N 3086.27 0.526227 -1.48555 0
M  V30 29120 C 3087.52 1.27932 -1.56454 0
M  V30 29121 C 3087.84 1.93494 -0.241874 0
M  V30 29122 O 3087.11 1.81513 0.736886 0
M  V30 29123 H 3085.69 0.47517 -0.576388 0
M  V30 29124 H 3088.35 0.612051 -1.8504 0
M  V30 29125 H 3087.45 2.05662 -2.34754 0
M  V30 29126 N 3087.75 1.37206 0.775387 0
M  V30 29127 C 3088.7 1.29192 1.87865 0
M  V30 29128 C 3089.68 0.180494 1.59884 0
M  V30 29129 O 3090.88 0.414567 1.72077 0
M  V30 29130 C 3088.01 1.09754 3.25283 0
M  V30 29131 C 3087.09 2.25425 3.59227 0
M  V30 29132 N 3087.48 3.50801 3.64379 0
M  V30 29133 C 3085.78 2.17499 3.89371 0
M  V30 29134 C 3086.48 4.27055 3.94967 0
M  V30 29135 N 3085.46 3.56153 4.10677 0
M  V30 29136 H 3089.26 2.24146 1.90095 0
M  V30 29137 H 3086.77 1.30126 0.971644 0
M  V30 29138 H 3088.77 1.02098 4.04205 0
M  V30 29139 H 3087.43 0.15714 3.2432 0
M  V30 29140 H 3088.44 3.84756 3.46675 0
M  V30 29141 H 3085.12 1.31496 3.96251 0
M  V30 29142 H 3086.51 5.35546 4.05759 0
M  V30 29143 N 3089.23 -1.00115 1.21716 0
M  V30 29144 C 3090.46 -1.77516 1.06281 0
M  V30 29145 C 3090.87 -1.84788 -0.387161 0
M  V30 29146 O 3090.23 -1.31205 -1.26852 0
M  V30 29147 C 3090.28 -3.21236 1.65801 0
M  V30 29148 O 3090 -3.14373 3.05125 0
M  V30 29149 C 3091.5 -4.15121 1.55529 0
M  V30 29150 H 3088.72 -0.557759 0.373023 0
M  V30 29151 H 3091.27 -1.25919 1.61136 0
M  V30 29152 H 3089.42 -3.69929 1.15029 0
M  V30 29153 H 3089.83 -4.04695 3.3365 0
M  V30 29154 H 3091.31 -5.13747 2.01911 0
M  V30 29155 H 3091.79 -4.36224 0.510384 0
M  V30 29156 H 3092.39 -3.72321 2.05566 0
M  V30 29157 N 3090.71 -1.02553 -1.19669 0
M  V30 29158 C 3091.93 -0.739397 -1.93772 0
M  V30 29159 C 3092.36 0.695033 -1.74788 0
M  V30 29160 O 3091.72 1.47942 -1.04798 0
M  V30 29161 C 3091.76 -1.09155 -3.43682 0
M  V30 29162 O 3090.87 -0.208285 -4.11874 0
M  V30 29163 H 3090.21 -0.273495 -0.605059 0
M  V30 29164 H 3092.74 -1.3713 -1.51843 0
M  V30 29165 H 3092.75 -1.04702 -3.94337 0
M  V30 29166 H 3091.42 -2.1366 -3.56822 0
M  V30 29167 H 3090 -0.311111 -3.716 0
M  V30 29168 N 3092.19 1.35612 -0.802945 0
M  V30 29169 C 3093.12 2.2858 -0.168501 0
M  V30 29170 C 3094.13 1.50112 0.630097 0
M  V30 29171 O 3095.32 1.72389 0.463056 0
M  V30 29172 C 3092.42 3.2971 0.783885 0
M  V30 29173 C 3091.59 4.37388 0.0324396 0
M  V30 29174 C 3090.65 5.18398 0.902767 0
M  V30 29175 O 3089.68 5.68092 0.355044 0
M  V30 29176 N 3090.88 5.36153 2.22532 0
M  V30 29177 H 3093.64 2.83666 -0.96714 0
M  V30 29178 H 3091.21 1.47922 -0.658069 0
M  V30 29179 H 3093.2 3.80796 1.37027 0
M  V30 29180 H 3091.77 2.75165 1.48334 0
M  V30 29181 H 3090.99 3.87285 -0.735125 0
M  V30 29182 H 3092.28 5.06478 -0.485589 0
M  V30 29183 H 3091.67 4.97417 2.6943 0
M  V30 29184 H 3090.23 5.90432 2.76103 0
M  V30 29185 N 3093.66 0.556128 1.47462 0
M  V30 29186 C 3094.59 -0.180456 2.32802 0
M  V30 29187 C 3095.57 -0.909823 1.43723 0
M  V30 29188 O 3096.76 -0.8905 1.7258 0
M  V30 29189 C 3093.89 -1.21161 3.2548 0
M  V30 29190 C 3092.84 -0.598771 4.23791 0
M  V30 29191 C 3092.17 -1.73448 5.05786 0
M  V30 29192 C 3093.47 0.44675 5.20386 0
M  V30 29193 H 3095.16 0.532007 2.94635 0
M  V30 29194 H 3092.71 0.257292 1.41683 0
M  V30 29195 H 3094.66 -1.73506 3.84023 0
M  V30 29196 H 3093.39 -1.954 2.61699 0
M  V30 29197 H 3092.05 -0.0966253 3.66473 0
M  V30 29198 H 3091.69 -2.46589 4.3841 0
M  V30 29199 H 3091.39 -1.33021 5.72345 0
M  V30 29200 H 3092.92 -2.26121 5.67187 0
M  V30 29201 H 3094.33 0.00940096 5.73299 0
M  V30 29202 H 3092.73 0.76984 5.95142 0
M  V30 29203 H 3093.8 1.34303 4.6593 0
M  V30 29204 N 3095.14 -1.54861 0.292527 0
M  V30 29205 C 3096.39 -1.99573 -0.318598 0
M  V30 29206 C 3096.71 -1.18243 -1.5506 0
M  V30 29207 O 3095.98 -0.27626 -1.93942 0
M  V30 29208 H 3094.56 -0.737183 -0.120709 0
M  V30 29209 H 3097.22 -1.90711 0.401896 0
M  V30 29210 H 3096.32 -3.06347 -0.596488 0
M  V30 29211 N 3096.62 -0.0200973 -1.57587 0
M  V30 29212 C 3097.87 0.66147 -1.91709 0
M  V30 29213 C 3098.2 1.72295 -0.895998 0
M  V30 29214 O 3097.47 1.94325 0.0825428 0
M  V30 29215 C 3097.76 1.28621 -3.36346 0
M  V30 29216 C 3097.61 0.234903 -4.49186 0
M  V30 29217 C 3098.93 2.20678 -3.80774 0
M  V30 29218 H 3096.05 0.238992 -0.697174 0
M  V30 29219 H 3098.69 -0.0755098 -1.8985 0
M  V30 29220 H 3096.84 1.91433 -3.38061 0
M  V30 29221 H 3098.51 -0.395091 -4.59605 0
M  V30 29222 H 3096.75 -0.440641 -4.31556 0
M  V30 29223 H 3097.43 0.711462 -5.47396 0
M  V30 29224 H 3099.9 1.67862 -3.80738 0
M  V30 29225 H 3098.78 2.61347 -4.82689 0
M  V30 29226 H 3099.04 3.09423 -3.15769 0
M  V30 29227 N 3098.1 1.55557 0.252939 0
M  V30 29228 C 3099.34 1.77368 0.983275 0
M  V30 29229 C 3099.68 0.58429 1.85202 0
M  V30 29230 O 3098.95 -0.417611 1.89964 0
M  V30 29231 C 3099.23 3.09011 1.84891 0
M  V30 29232 C 3099.09 4.38343 1.00875 0
M  V30 29233 C 3100.41 3.36836 2.83248 0
M  V30 29234 H 3097.53 0.645292 0.356044 0
M  V30 29235 H 3100.17 1.88292 0.254199 0
M  V30 29236 H 3098.32 2.99829 2.47052 0
M  V30 29237 H 3099.99 4.59507 0.406299 0
M  V30 29238 H 3098.23 4.3267 0.312894 0
M  V30 29239 H 3098.9 5.26822 1.64809 0
M  V30 29240 H 3101.38 3.45942 2.31222 0
M  V30 29241 H 3100.26 4.30175 3.40941 0
M  V30 29242 H 3100.52 2.57453 3.59403 0
M  V30 29243 N 3099.58 -0.518341 1.48832 0
M  V30 29244 C 3100.82 -1.27005 1.56692 0
M  V30 29245 C 3101.14 -1.93983 0.250968 0
M  V30 29246 O 3102.34 -2.70703 0.207932 0
M  V30 29247 C 3100.8 -2.30512 2.76391 0
M  V30 29248 C 3100.41 -1.69551 4.14676 0
M  V30 29249 C 3102.15 -3.0662 2.93572 0
M  V30 29250 C 3100.06 -2.71067 5.2562 0
M  V30 29251 H 3098.99 -0.477698 0.58337 0
M  V30 29252 H 3101.64 -0.546021 1.75188 0
M  V30 29253 H 3100.02 -3.06002 2.51354 0
M  V30 29254 H 3101.2 -1.00171 4.4978 0
M  V30 29255 H 3099.51 -1.05895 4.0271 0
M  V30 29256 H 3102.11 -3.82501 3.73627 0
M  V30 29257 H 3102.45 -3.63189 2.03468 0
M  V30 29258 H 3102.98 -2.38245 3.18566 0
M  V30 29259 H 3099.72 -2.19302 6.17727 0
M  V30 29260 H 3099.24 -3.38739 4.94991 0
M  V30 29261 H 3100.92 -3.3383 5.54226 0
M  V30 29262 N 3101.05 -1.37615 -0.7681 0
M  V30 29263 C 3102.28 -1.364 -1.56236 0
M  V30 29264 C 3102.7 0.0475508 -1.8804 0
M  V30 29265 O 3102.06 1.02561 -1.49502 0
M  V30 29266 C 3102.11 -2.21294 -2.84712 0
M  V30 29267 O 3101.21 -1.62007 -3.79246 0
M  V30 29268 H 3100.55 -0.465899 -0.473111 0
M  V30 29269 H 3103.08 -1.81187 -0.950383 0
M  V30 29270 H 3103.09 -2.34638 -3.3378 0
M  V30 29271 H 3101.77 -3.23894 -2.60893 0
M  V30 29272 H 3100.35 -1.57725 -3.37901 0
M  V30 29273 N 3102.53 0.994677 -1.22245 0
M  V30 29274 C 3103.76 1.7695 -1.07221 0
M  V30 29275 C 3104.17 1.8499 0.377356 0
M  V30 29276 O 3103.53 1.31876 1.26154 0
M  V30 29277 C 3103.58 3.20352 -1.67502 0
M  V30 29278 O 3103.3 3.1275 -3.06788 0
M  V30 29279 C 3104.8 4.14291 -1.57728 0
M  V30 29280 H 3102.02 0.555773 -0.375976 0
M  V30 29281 H 3104.57 1.25063 -1.61801 0
M  V30 29282 H 3102.72 3.69313 -1.16989 0
M  V30 29283 H 3103.14 4.0292 -3.35791 0
M  V30 29284 H 3104.61 5.12669 -2.04632 0
M  V30 29285 H 3105.09 4.35948 -0.533511 0
M  V30 29286 H 3105.69 3.71225 -2.07538 0
M  V30 29287 N 3104.01 1.03186 1.19123 0
M  V30 29288 C 3105.23 0.749662 1.93377 0
M  V30 29289 C 3105.66 -0.685754 1.75154 0
M  V30 29290 O 3105.02 -1.47385 1.05582 0
M  V30 29291 C 3105.07 1.10976 3.43099 0
M  V30 29292 O 3104.17 0.230125 4.11757 0
M  V30 29293 H 3103.51 0.2767 0.6036 0
M  V30 29294 H 3106.04 1.37934 1.51114 0
M  V30 29295 H 3106.05 1.06792 3.93776 0
M  V30 29296 H 3104.73 2.1555 3.55684 0
M  V30 29297 H 3103.3 0.330813 3.7143 0
M  V30 29298 N 3105.49 -1.35184 0.810125 0
M  V30 29299 C 3106.74 -1.97921 0.388624 0
M  V30 29300 C 3107.05 -1.6498 -1.05076 0
M  V30 29301 O 3108.26 -2.21108 -1.57555 0
M  V30 29302 C 3106.71 -3.54093 0.643926 0
M  V30 29303 C 3106.32 -3.9594 2.09609 0
M  V30 29304 C 3108.06 -4.23522 0.287958 0
M  V30 29305 C 3105.97 -5.44972 2.29695 0
M  V30 29306 H 3104.9 -0.740589 0.141575 0
M  V30 29307 H 3107.55 -1.54202 0.99468 0
M  V30 29308 H 3105.93 -3.95987 -0.0321282 0
M  V30 29309 H 3107.11 -3.65187 2.81025 0
M  V30 29310 H 3105.42 -3.3941 2.41226 0
M  V30 29311 H 3108.02 -5.33079 0.416039 0
M  V30 29312 H 3108.36 -4.09188 -0.766233 0
M  V30 29313 H 3108.9 -3.87061 0.918072 0
M  V30 29314 H 3105.64 -5.64278 3.33573 0
M  V30 29315 H 3105.16 -5.77281 1.62808 0
M  V30 29316 H 3106.83 -6.11482 2.11422 0
M  V30 29317 N 3106.97 -0.56394 -1.47165 0
M  V30 29318 C 3108.38 -0.13234 -1.8623 0
M  V30 29319 C 3108.73 1.29969 -1.46978 0
M  V30 29320 O 3107.85 1.97879 -0.875946 0
M  V30 29321 C 3108.45 -0.233394 -3.37995 0
M  V30 29322 C 3107.01 0.143212 -3.76127 0
M  V30 29323 C 3106.15 -0.577905 -2.71211 0
M  V30 29324 H 3109.11 -0.773273 -1.38586 0
M  V30 29325 H 3109.13 0.546243 -3.76559 0
M  V30 29326 H 3108.64 -1.27574 -3.66533 0
M  V30 29327 H 3106.74 1.18641 -3.53207 0
M  V30 29328 H 3106.85 -0.220036 -4.78594 0
M  V30 29329 H 3105.22 -0.0202308 -2.54692 0
M  V30 29330 H 3106 -1.62154 -3.0259 0
M  V30 29331 N 3108.44 1.54704 -0.300735 0
M  V30 29332 C 3109.35 2.2719 0.584956 0
M  V30 29333 C 3110.37 1.30699 1.14864 0
M  V30 29334 O 3111.55 1.63681 1.17348 0
M  V30 29335 C 3108.61 2.99834 1.74071 0
M  V30 29336 C 3107.67 4.11862 1.21113 0
M  V30 29337 C 3106.91 4.81032 2.3118 0
M  V30 29338 O 3107.13 4.4956 3.51072 0
M  V30 29339 O 3106.06 5.6844 1.97887 0
M  V30 29340 H 3109.89 3.037 -0.00303516 0
M  V30 29341 H 3107.47 1.49249 -0.0672064 0
M  V30 29342 H 3109.36 3.454 2.41407 0
M  V30 29343 H 3108.03 2.26219 2.31531 0
M  V30 29344 H 3106.94 3.70696 0.503505 0
M  V30 29345 H 3108.27 4.87453 0.68196 0
M  V30 29346 N 3109.92 0.0284543 1.57574 0
M  V30 29347 C 3111.15 -0.664102 1.9648 0
M  V30 29348 C 3111.57 -1.64906 0.904855 0
M  V30 29349 O 3110.93 -1.80802 -0.134307 0
M  V30 29350 C 3110.98 -1.34739 3.34481 0
M  V30 29351 O 3110.08 -2.46265 3.30798 0
M  V30 29352 H 3109.42 -0.174513 0.640657 0
M  V30 29353 H 3111.95 0.0901088 2.04401 0
M  V30 29354 H 3111.96 -1.70433 3.70697 0
M  V30 29355 H 3110.64 -0.625396 4.11171 0
M  V30 29356 H 3109.22 -2.12687 3.06298 0
M  V30 29357 N 3111.4 -1.55689 -0.244686 0
M  V30 29358 C 3112.31 -1.93639 -1.32443 0
M  V30 29359 C 3113.33 -0.837113 -1.5254 0
M  V30 29360 O 3114.5 -1.1387 -1.66119 0
M  V30 29361 C 3111.57 -2.22529 -2.6586 0
M  V30 29362 C 3110.63 -3.459 -2.54267 0
M  V30 29363 C 3109.86 -3.73404 -3.81321 0
M  V30 29364 O 3110.08 -3.02944 -4.83302 0
M  V30 29365 O 3109.02 -4.66926 -3.79821 0
M  V30 29366 H 3112.84 -2.8561 -1.0325 0
M  V30 29367 H 3110.43 -1.42599 -0.445627 0
M  V30 29368 H 3112.31 -2.4241 -3.44696 0
M  V30 29369 H 3110.99 -1.33736 -2.94782 0
M  V30 29370 H 3109.89 -3.31325 -1.73709 0
M  V30 29371 H 3111.23 -4.35003 -2.30289 0
M  V30 29372 N 3112.88 0.510441 -1.49105 0
M  V30 29373 C 3114.12 1.26441 -1.59324 0
M  V30 29374 C 3114.48 1.90464 -0.272224 0
M  V30 29375 O 3113.77 1.77283 0.726731 0
M  V30 29376 C 3113.97 2.36156 -2.68263 0
M  V30 29377 C 3113.8 1.8289 -4.1083 0
M  V30 29378 C 3112.57 1.64614 -4.77734 0
M  V30 29379 C 3114.76 1.34616 -4.9637 0
M  V30 29380 N 3112.75 1.06179 -6.04648 0
M  V30 29381 C 3114.12 0.882548 -6.13686 0
M  V30 29382 C 3116.17 1.23101 -4.82442 0
M  V30 29383 C 3114.87 0.31518 -7.18609 0
M  V30 29384 C 3116.9 0.677623 -5.87505 0
M  V30 29385 C 3116.26 0.224184 -7.04043 0
M  V30 29386 H 3112.36 0.452988 -0.637437 0
M  V30 29387 H 3114.95 0.573204 -1.86071 0
M  V30 29388 H 3113.12 3.02749 -2.43305 0
M  V30 29389 H 3114.85 3.03195 -2.68057 0
M  V30 29390 H 3111.6 1.88708 -4.3438 0
M  V30 29391 H 3112.03 0.789152 -6.72385 0
M  V30 29392 H 3116.67 1.56759 -3.92666 0
M  V30 29393 H 3114.39 -0.0336845 -8.08093 0
M  V30 29394 H 3117.97 0.591433 -5.78786 0
M  V30 29395 H 3116.85 -0.19735 -7.83952 0
M  V30 29396 N 3114.36 1.38021 0.760791 0
M  V30 29397 C 3115.58 1.37051 1.54999 0
M  V30 29398 C 3116 -0.041493 1.88754 0
M  V30 29399 O 3115.36 -1.00621 1.52255 0
M  V30 29400 C 3115.41 2.21933 2.85356 0
M  V30 29401 O 3115.13 3.57632 2.53043 0
M  V30 29402 C 3116.63 2.29064 3.79532 0
M  V30 29403 H 3113.85 0.46904 0.479836 0
M  V30 29404 H 3116.39 1.81506 0.942116 0
M  V30 29405 H 3114.55 1.80959 3.42538 0
M  V30 29406 H 3114.96 4.02247 3.36597 0
M  V30 29407 H 3116.44 2.92757 4.67972 0
M  V30 29408 H 3116.91 1.30221 4.19451 0
M  V30 29409 H 3117.52 2.70398 3.28276 0
M  V30 29410 N 3115.83 -0.98818 1.22771 0
M  V30 29411 C 3116.77 -2.08136 0.959794 0
M  V30 29412 C 3117.78 -1.62677 -0.0633501 0
M  V30 29413 O 3118.97 -1.77677 0.171234 0
M  V30 29414 C 3116.07 -3.36253 0.422783 0
M  V30 29415 C 3115.24 -4.1072 1.50426 0
M  V30 29416 C 3114.3 -5.17116 0.973498 0
M  V30 29417 O 3113.33 -5.44433 1.66076 0
M  V30 29418 N 3114.53 -5.80146 -0.202685 0
M  V30 29419 H 3117.29 -2.31699 1.90094 0
M  V30 29420 H 3114.85 -1.15429 1.13524 0
M  V30 29421 H 3116.85 -4.04665 0.0529225 0
M  V30 29422 H 3115.42 -3.09717 -0.423587 0
M  V30 29423 H 3114.64 -3.36871 2.04723 0
M  V30 29424 H 3115.92 -4.57241 2.23177 0
M  V30 29425 H 3115.32 -5.60328 -0.777757 0
M  V30 29426 H 3113.88 -6.49771 -0.513884 0
M  V30 29427 N 3117.31 -1.03816 -1.18575 0
M  V30 29428 C 3118.24 -0.585094 -2.21606 0
M  V30 29429 C 3119.26 0.343935 -1.59126 0
M  V30 29430 O 3120.45 0.138851 -1.77959 0
M  V30 29431 C 3117.55 0.165542 -3.38495 0
M  V30 29432 C 3116.72 -0.770737 -4.30556 0
M  V30 29433 C 3115.78 -0.0638459 -5.26161 0
M  V30 29434 O 3114.8 -0.693458 -5.6496 0
M  V30 29435 N 3116.01 1.20367 -5.67884 0
M  V30 29436 H 3118.77 -1.47126 -2.61102 0
M  V30 29437 H 3116.33 -0.918339 -1.33335 0
M  V30 29438 H 3118.32 0.648222 -3.99475 0
M  V30 29439 H 3116.89 0.953215 -2.97712 0
M  V30 29440 H 3116.11 -1.43333 -3.67218 0
M  V30 29441 H 3117.4 -1.40675 -4.88966 0
M  V30 29442 H 3116.8 1.73577 -5.38412 0
M  V30 29443 H 3115.36 1.63067 -6.31072 0
M  V30 29444 N 3118.79 1.34753 -0.817283 0
M  V30 29445 C 3120.02 2.02685 -0.415487 0
M  V30 29446 C 3120.43 1.61564 0.976851 0
M  V30 29447 O 3119.79 0.818349 1.63124 0
M  V30 29448 C 3119.84 3.58004 -0.501549 0
M  V30 29449 O 3119.56 3.97633 -1.839 0
M  V30 29450 C 3121.06 4.432 -0.0939283 0
M  V30 29451 H 3118.28 0.649775 -0.167431 0
M  V30 29452 H 3120.83 1.72148 -1.10387 0
M  V30 29453 H 3118.98 3.87152 0.138698 0
M  V30 29454 H 3119.4 4.92306 -1.80928 0
M  V30 29455 H 3120.87 5.51618 -0.205242 0
M  V30 29456 H 3121.35 4.28536 0.961936 0
M  V30 29457 H 3121.95 4.1937 -0.707751 0
M  V30 29458 N 3120.27 0.571737 1.46864 0
M  V30 29459 C 3121.2 -0.205439 2.28277 0
M  V30 29460 C 3122.21 -0.86581 1.37868 0
M  V30 29461 O 3123.4 -0.737218 1.62565 0
M  V30 29462 C 3120.5 -1.3096 3.12574 0
M  V30 29463 C 3119.68 -0.743252 4.31039 0
M  V30 29464 C 3118.74 -1.73373 4.96818 0
M  V30 29465 O 3117.76 -1.2741 5.54757 0
M  V30 29466 N 3118.96 -3.06755 4.9283 0
M  V30 29467 H 3121.73 0.492992 2.95617 0
M  V30 29468 H 3119.29 0.408771 1.56655 0
M  V30 29469 H 3121.28 -1.97125 3.53446 0
M  V30 29470 H 3119.85 -1.91105 2.47381 0
M  V30 29471 H 3119.07 0.0955697 3.94084 0
M  V30 29472 H 3120.36 -0.344467 5.07633 0
M  V30 29473 H 3119.76 -3.4673 4.46984 0
M  V30 29474 H 3118.31 -3.68439 5.37676 0
M  V30 29475 N 3121.75 -1.54542 0.308935 0
M  V30 29476 C 3123.16 -1.59539 -0.0441993 0
M  V30 29477 C 3123.36 -1.32578 -1.51741 0
M  V30 29478 O 3122.42 -1.10306 -2.27132 0
M  V30 29479 C 3123.73 -2.98527 0.360878 0
M  V30 29480 C 3125.28 -3.11458 0.310307 0
M  V30 29481 C 3125.76 -4.52768 0.690325 0
M  V30 29482 N 3127.25 -4.58713 0.643165 0
M  V30 29483 C 3127.98 -5.6614 0.909583 0
M  V30 29484 N 3127.48 -6.81569 1.24238 0
M  V30 29485 N 3129.27 -5.55847 0.836116 0
M  V30 29486 H 3121.42 -1.70327 1.26896 0
M  V30 29487 H 3123.68 -0.795914 0.515 0
M  V30 29488 H 3123.39 -3.23206 1.38674 0
M  V30 29489 H 3123.26 -3.76148 -0.281496 0
M  V30 29490 H 3125.65 -2.86522 -0.706325 0
M  V30 29491 H 3125.73 -2.35974 0.987414 0
M  V30 29492 H 3125.38 -4.78434 1.7048 0
M  V30 29493 H 3125.31 -5.26599 -0.00893818 0
M  V30 29494 H 3127.8 -3.75807 0.397204 0
M  V30 29495 H 3128.11 -7.59427 1.43143 0
M  V30 29496 H 3126.46 -6.83102 1.2805 0
M  V30 29497 H 3129.65 -4.64546 0.575718 0
M  V30 29498 H 3129.82 -6.39484 1.04711 0
M  V30 29499 N 3123.23 -0.0368104 -1.57557 0
M  V30 29500 C 3124.64 0.50094 -1.79854 0
M  V30 29501 C 3124.99 1.71789 -0.947779 0
M  V30 29502 O 3124.11 2.15805 -0.160325 0
M  V30 29503 C 3124.71 0.915569 -3.26194 0
M  V30 29504 C 3123.27 1.39839 -3.4946 0
M  V30 29505 C 3122.41 0.366736 -2.74864 0
M  V30 29506 H 3125.36 -0.262796 -1.56509 0
M  V30 29507 H 3125.39 1.77944 -3.36327 0
M  V30 29508 H 3124.9 0.0296545 -3.88089 0
M  V30 29509 H 3123 2.30397 -2.92828 0
M  V30 29510 H 3123.11 1.40046 -4.58175 0
M  V30 29511 H 3121.48 0.836512 -2.40571 0
M  V30 29512 H 3122.26 -0.510845 -3.39478 0
M  V30 29513 N 3124.7 1.55817 0.236426 0
M  V30 29514 C 3125.67 1.90377 1.27629 0
M  V30 29515 C 3126.67 0.781073 1.40556 0
M  V30 29516 O 3127.86 1.04897 1.39076 0
M  V30 29517 C 3124.99 2.14147 2.65243 0
M  V30 29518 H 3126.18 2.83368 0.981969 0
M  V30 29519 H 3123.73 1.4887 0.476188 0
M  V30 29520 H 3124.47 1.23658 2.99798 0
M  V30 29521 H 3124.25 2.95922 2.57241 0
M  V30 29522 H 3125.74 2.42032 3.40309 0
M  V30 29523 N 3126.18 -0.502526 1.49373 0
M  V30 29524 C 3127.09 -1.63065 1.68662 0
M  V30 29525 C 3128.11 -1.64426 0.569211 0
M  V30 29526 O 3129.28 -1.82875 0.843728 0
M  V30 29527 C 3126.35 -2.99438 1.7475 0
M  V30 29528 C 3125.41 -3.08716 2.98317 0
M  V30 29529 C 3124.64 -4.38584 3.04105 0
M  V30 29530 O 3124.87 -5.27293 2.17528 0
M  V30 29531 O 3123.8 -4.52802 3.96552 0
M  V30 29532 H 3127.63 -1.49722 2.64229 0
M  V30 29533 H 3125.21 -0.678647 1.33097 0
M  V30 29534 H 3127.09 -3.80493 1.81116 0
M  V30 29535 H 3125.77 -3.13047 0.82362 0
M  V30 29536 H 3124.67 -2.26855 2.97469 0
M  V30 29537 H 3126.01 -3.00034 3.9018 0
M  V30 29538 N 3127.66 -1.38422 -0.75346 0
M  V30 29539 C 3128.89 -1.37871 -1.5427 0
M  V30 29540 C 3129.3 0.0314823 -1.88774 0
M  V30 29541 O 3128.66 0.998121 -1.52787 0
M  V30 29542 C 3128.71 -2.23443 -2.84175 0
M  V30 29543 O 3128.43 -3.58969 -2.51143 0
M  V30 29544 C 3129.93 -2.31074 -3.78312 0
M  V30 29545 H 3127.15 -0.471578 -0.477342 0
M  V30 29546 H 3129.7 -1.82003 -0.932477 0
M  V30 29547 H 3127.85 -1.82773 -3.41574 0
M  V30 29548 H 3128.27 -4.04027 -3.34459 0
M  V30 29549 H 3129.74 -2.95234 -4.66413 0
M  V30 29550 H 3130.22 -1.32443 -4.18755 0
M  V30 29551 H 3130.82 -2.72135 -3.26837 0
M  V30 29552 N 3129.14 0.981655 -1.23294 0
M  V30 29553 C 3130.09 2.05856 -0.980169 0
M  V30 29554 C 3131.07 1.60733 0.0733761 0
M  V30 29555 O 3132.26 1.76457 -0.138592 0
M  V30 29556 C 3129.39 3.38502 -0.571938 0
M  V30 29557 C 3128.48 3.90228 -1.66082 0
M  V30 29558 N 3128.87 4.15047 -2.89085 0
M  V30 29559 C 3127.17 4.18749 -1.53511 0
M  V30 29560 C 3127.87 4.57253 -3.59575 0
M  V30 29561 N 3126.84 4.6161 -2.87084 0
M  V30 29562 H 3130.65 2.23001 -1.91436 0
M  V30 29563 H 3128.16 1.16432 -1.13213 0
M  V30 29564 H 3130.16 4.15236 -0.372132 0
M  V30 29565 H 3128.82 3.22751 0.355222 0
M  V30 29566 H 3129.83 4.02907 -3.25402 0
M  V30 29567 H 3126.51 4.12008 -0.674964 0
M  V30 29568 H 3127.9 4.84985 -4.65015 0
M  V30 29569 N 3130.62 1.04444 1.18022 0
M  V30 29570 C 3131.55 0.659722 2.23986 0
M  V30 29571 C 3132.53 -0.338875 1.6669 0
M  V30 29572 O 3133.71 -0.218136 1.92971 0
M  V30 29573 C 3130.84 0.0258283 3.4729 0
M  V30 29574 C 3129.8 0.948373 4.17361 0
M  V30 29575 C 3129.12 0.178754 5.34401 0
M  V30 29576 C 3130.42 2.26918 4.70431 0
M  V30 29577 H 3132.12 1.54558 2.56422 0
M  V30 29578 H 3129.66 0.744596 1.23255 0
M  V30 29579 H 3131.61 -0.255057 4.20627 0
M  V30 29580 H 3130.34 -0.894926 3.141 0
M  V30 29581 H 3129 1.2137 3.45926 0
M  V30 29582 H 3128.65 -0.744526 4.97459 0
M  V30 29583 H 3128.35 0.793397 5.82219 0
M  V30 29584 H 3129.87 -0.0950242 6.10526 0
M  V30 29585 H 3131.28 2.04873 5.35444 0
M  V30 29586 H 3129.68 2.83712 5.28798 0
M  V30 29587 H 3130.75 2.91303 3.87648 0
M  V30 29588 N 3132.09 -1.34317 0.824418 0
M  V30 29589 C 3133 -2.33271 0.249361 0
M  V30 29590 C 3134.02 -1.62692 -0.617037 0
M  V30 29591 O 3135.2 -1.94448 -0.524582 0
M  V30 29592 C 3132.26 -3.41847 -0.578034 0
M  V30 29593 C 3131.32 -4.28172 0.310941 0
M  V30 29594 C 3130.55 -5.31564 -0.47706 0
M  V30 29595 O 3130.78 -5.44159 -1.71019 0
M  V30 29596 O 3129.71 -6.01734 0.141393 0
M  V30 29597 H 3133.54 -2.84286 1.06842 0
M  V30 29598 H 3131.12 -1.37402 0.586594 0
M  V30 29599 H 3133 -4.08142 -1.04871 0
M  V30 29600 H 3131.68 -2.93074 -1.37439 0
M  V30 29601 H 3130.59 -3.64796 0.829145 0
M  V30 29602 H 3131.92 -4.80391 1.07169 0
M  V30 29603 N 3133.57 -0.579517 -1.46558 0
M  V30 29604 C 3134.82 -0.061609 -2.01606 0
M  V30 29605 C 3135.13 1.30505 -1.45697 0
M  V30 29606 O 3136.34 1.91413 -1.92545 0
M  V30 29607 C 3134.8 -0.0595593 -3.59851 0
M  V30 29608 C 3134.4 -1.42434 -4.24755 0
M  V30 29609 C 3136.15 0.404572 -4.22568 0
M  V30 29610 C 3134.05 -1.38019 -5.75069 0
M  V30 29611 H 3132.98 -0.0192623 -0.753754 0
M  V30 29612 H 3135.64 -0.73069 -1.68325 0
M  V30 29613 H 3134.02 0.675622 -3.90194 0
M  V30 29614 H 3135.19 -2.179 -4.06025 0
M  V30 29615 H 3133.51 -1.82824 -3.74118 0
M  V30 29616 H 3136.1 0.456347 -5.32749 0
M  V30 29617 H 3136.45 1.42142 -3.91282 0
M  V30 29618 H 3136.98 -0.276445 -3.96838 0
M  V30 29619 H 3133.72 -2.37375 -6.1101 0
M  V30 29620 H 3133.24 -0.667688 -5.96072 0
M  V30 29621 H 3134.92 -1.09174 -6.37723 0
M  V30 29622 N 3135.05 1.54376 -0.317127 0
M  V30 29623 C 3135.96 2.27798 0.560827 0
M  V30 29624 C 3136.98 1.3191 1.13471 0
M  V30 29625 O 3138.15 1.64916 1.15606 0
M  V30 29626 C 3135.22 3.01663 1.70881 0
M  V30 29627 C 3134.28 4.13123 1.16738 0
M  V30 29628 C 3133.51 4.83457 2.26065 0
M  V30 29629 O 3133.73 4.53258 3.46284 0
M  V30 29630 O 3132.67 5.70507 1.91846 0
M  V30 29631 H 3136.49 3.0368 -0.0352464 0
M  V30 29632 H 3134.08 1.49169 -0.0830325 0
M  V30 29633 H 3135.96 3.47941 2.3773 0
M  V30 29634 H 3134.64 2.28662 2.29118 0
M  V30 29635 H 3133.54 3.71209 0.464159 0
M  V30 29636 H 3134.88 4.88149 0.630221 0
M  V30 29637 N 3136.53 0.0451655 1.57535 0
M  V30 29638 C 3137.75 -0.643225 1.97173 0
M  V30 29639 C 3138.18 -1.63937 0.922295 0
M  V30 29640 O 3137.54 -1.80934 -0.115123 0
M  V30 29641 C 3137.58 -1.31184 3.35891 0
M  V30 29642 O 3136.69 -2.42743 3.33391 0
M  V30 29643 H 3136.03 -0.167708 0.642472 0
M  V30 29644 H 3138.56 0.111783 2.04294 0
M  V30 29645 H 3138.57 -1.66492 3.72484 0
M  V30 29646 H 3137.24 -0.581751 4.11811 0
M  V30 29647 H 3135.82 -2.09427 3.08537 0
M  V30 29648 N 3138.01 -1.5594 -0.228159 0
M  V30 29649 C 3139.23 -1.83066 -0.974763 0
M  V30 29650 C 3139.66 -0.624655 -1.77425 0
M  V30 29651 O 3139.01 0.426525 -1.76211 0
M  V30 29652 C 3139.06 -3.08119 -1.87337 0
M  V30 29653 O 3138.17 -2.8635 -2.96779 0
M  V30 29654 H 3137.51 -0.603752 -0.276368 0
M  V30 29655 H 3140.04 -2.03146 -0.243471 0
M  V30 29656 H 3140.05 -3.38049 -2.28445 0
M  V30 29657 H 3138.72 -3.95529 -1.28568 0
M  V30 29658 H 3137.3 -2.67636 -2.59664 0
M  V30 29659 N 3139.48 0.494597 -1.49638 0
M  V30 29660 C 3140.71 1.27688 -1.63433 0
M  V30 29661 C 3141.13 1.85559 -0.308163 0
M  V30 29662 O 3140.49 1.66171 0.725054 0
M  V30 29663 C 3140.54 2.37835 -2.71048 0
M  V30 29664 O 3139.64 3.41858 -2.30666 0
M  V30 29665 H 3138.99 0.376688 -0.546811 0
M  V30 29666 H 3141.52 0.591378 -1.95867 0
M  V30 29667 H 3141.53 2.83503 -2.93411 0
M  V30 29668 H 3140.2 1.95082 -3.67309 0
M  V30 29669 H 3138.78 3.02065 -2.18658 0
M  V30 29670 N 3140.96 1.3882 0.746109 0
M  V30 29671 C 3141.89 1.39375 1.87341 0
M  V30 29672 C 3142.87 0.258613 1.68123 0
M  V30 29673 O 3144.06 0.462802 1.88605 0
M  V30 29674 C 3141.19 1.22549 3.2496 0
M  V30 29675 C 3140.14 2.33346 3.58795 0
M  V30 29676 C 3139.47 2.01618 4.95232 0
M  V30 29677 C 3140.77 3.7563 3.62904 0
M  V30 29678 H 3142.46 2.33712 1.87134 0
M  V30 29679 H 3140.01 1.12497 0.898917 0
M  V30 29680 H 3141.96 1.21561 4.03486 0
M  V30 29681 H 3140.69 0.246764 3.25666 0
M  V30 29682 H 3139.34 2.33532 2.82592 0
M  V30 29683 H 3138.99 1.02211 4.92506 0
M  V30 29684 H 3138.69 2.75828 5.18838 0
M  V30 29685 H 3140.22 2.02261 5.76127 0
M  V30 29686 H 3141.63 3.77433 4.31529 0
M  V30 29687 H 3140.03 4.49107 3.98023 0
M  V30 29688 H 3141.1 4.07407 2.6296 0
M  V30 29689 N 3142.44 -0.975103 1.23812 0
M  V30 29690 C 3143.37 -2.08636 1.04849 0
M  V30 29691 C 3144.35 -1.70061 -0.036256 0
M  V30 29692 O 3145.54 -1.93768 0.129404 0
M  V30 29693 C 3142.67 -3.41266 0.644594 0
M  V30 29694 C 3141.62 -3.93765 1.67728 0
M  V30 29695 C 3140.95 -5.22652 1.12867 0
M  V30 29696 C 3142.25 -4.22437 3.07155 0
M  V30 29697 H 3143.94 -2.24758 1.97799 0
M  V30 29698 H 3141.49 -1.08005 0.952416 0
M  V30 29699 H 3143.44 -4.18436 0.498961 0
M  V30 29700 H 3142.16 -3.25023 -0.320583 0
M  V30 29701 H 3140.82 -3.18745 1.811 0
M  V30 29702 H 3140.47 -5.02763 0.154316 0
M  V30 29703 H 3140.17 -5.58745 1.81872 0
M  V30 29704 H 3141.69 -6.02439 0.994997 0
M  V30 29705 H 3143.11 -4.90338 2.97054 0
M  V30 29706 H 3141.51 -4.69743 3.73445 0
M  V30 29707 H 3142.58 -3.29501 3.55749 0
M  V30 29708 N 3143.92 -1.05068 -1.17467 0
M  V30 29709 C 3145.15 -0.779236 -1.91341 0
M  V30 29710 C 3145.56 0.668733 -1.76988 0
M  V30 29711 O 3144.9 1.46846 -1.10372 0
M  V30 29712 C 3144.96 -1.07866 -3.42936 0
M  V30 29713 C 3144.63 -2.52256 -3.81072 0
M  V30 29714 C 3145.62 -3.50463 -3.84021 0
M  V30 29715 C 3143.31 -2.87232 -4.12071 0
M  V30 29716 C 3145.3 -4.81691 -4.17436 0
M  V30 29717 C 3142.99 -4.18664 -4.45156 0
M  V30 29718 C 3143.99 -5.15704 -4.47816 0
M  V30 29719 O 3143.67 -6.44778 -4.80122 0
M  V30 29720 H 3143.41 -0.282874 -0.61397 0
M  V30 29721 H 3145.96 -1.4042 -1.49905 0
M  V30 29722 H 3144.19 -0.396598 -3.84661 0
M  V30 29723 H 3145.88 -0.793427 -3.9807 0
M  V30 29724 H 3146.65 -3.24781 -3.60197 0
M  V30 29725 H 3142.52 -2.12365 -4.09173 0
M  V30 29726 H 3146.07 -5.57428 -4.19427 0
M  V30 29727 H 3141.97 -4.44109 -4.68441 0
M  V30 29728 H 3142.73 -6.4958 -4.97984 0
M  V30 29729 N 3145.4 1.33878 -0.831529 0
M  V30 29730 C 3146.62 2.02766 -0.435989 0
M  V30 29731 C 3147.05 1.62179 0.952861 0
M  V30 29732 O 3146.4 0.810709 1.62164 0
M  V30 29733 C 3146.45 3.56288 -0.55597 0
M  V30 29734 O 3145.56 4.10248 0.420754 0
M  V30 29735 H 3144.9 0.639625 -0.178259 0
M  V30 29736 H 3147.43 1.70939 -1.12433 0
M  V30 29737 H 3147.44 4.05675 -0.434902 0
M  V30 29738 H 3146.11 3.85174 -1.56887 0
M  V30 29739 H 3144.69 3.72007 0.257854 0
M  V30 29740 N 3146.87 0.587281 1.46249 0
M  V30 29741 C 3148.12 0.0744628 2.01963 0
M  V30 29742 C 3148.44 -1.29187 1.46068 0
M  V30 29743 O 3147.71 -1.84904 0.647109 0
M  V30 29744 H 3146.29 0.0245367 0.746597 0
M  V30 29745 H 3148.96 0.764095 1.79298 0
M  V30 29746 H 3148.05 0.00890379 3.12099 0
M  V30 29747 N 3148.35 -1.54206 0.325309 0
M  V30 29748 C 3149.26 -2.28092 -0.548738 0
M  V30 29749 C 3150.28 -1.3251 -1.1277 0
M  V30 29750 O 3151.45 -1.65527 -1.14729 0
M  V30 29751 C 3148.52 -3.02565 -1.69279 0
M  V30 29752 C 3147.58 -4.13736 -1.14545 0
M  V30 29753 C 3146.81 -4.84649 -2.23498 0
M  V30 29754 O 3147.04 -4.55089 -3.43876 0
M  V30 29755 O 3145.97 -5.71517 -1.88818 0
M  V30 29756 H 3149.8 -3.03657 0.0513508 0
M  V30 29757 H 3147.38 -1.49123 0.0909421 0
M  V30 29758 H 3149.26 -3.49196 -2.35881 0
M  V30 29759 H 3147.94 -2.29874 -2.27902 0
M  V30 29760 H 3146.85 -3.7145 -0.444466 0
M  V30 29761 H 3148.18 -4.88476 -0.604324 0
M  V30 29762 N 3149.83 -0.0535194 -1.57509 0
M  V30 29763 C 3150.74 0.935212 -2.15153 0
M  V30 29764 C 3151.76 1.34001 -1.10994 0
M  V30 29765 O 3152.93 1.41645 -1.43173 0
M  V30 29766 C 3150 2.19088 -2.68703 0
M  V30 29767 C 3149.06 1.84421 -3.87669 0
M  V30 29768 C 3148.29 3.04002 -4.38655 0
M  V30 29769 O 3148.52 4.17448 -3.88707 0
M  V30 29770 O 3147.45 2.8488 -5.30214 0
M  V30 29771 H 3151.28 0.474956 -2.99963 0
M  V30 29772 H 3148.86 0.168514 -1.48447 0
M  V30 29773 H 3150.74 2.92756 -3.03104 0
M  V30 29774 H 3149.42 2.64247 -1.86963 0
M  V30 29775 H 3148.32 1.08062 -3.58153 0
M  V30 29776 H 3149.66 1.4406 -4.70646 0
M  V30 29777 N 3151.31 1.56059 0.219886 0
M  V30 29778 C 3152.54 1.83234 0.960882 0
M  V30 29779 C 3152.95 0.632859 1.77877 0
M  V30 29780 O 3152.31 -0.398593 1.78094 0
M  V30 29781 C 3152.36 3.08945 1.8771 0
M  V30 29782 O 3152.08 4.24265 1.09227 0
M  V30 29783 C 3153.58 3.4912 2.73186 0
M  V30 29784 H 3150.8 0.60908 0.281535 0
M  V30 29785 H 3153.35 2.0315 0.234613 0
M  V30 29786 H 3151.5 2.91 2.5573 0
M  V30 29787 H 3151.92 4.95691 1.71438 0
M  V30 29788 H 3153.39 4.40113 3.33174 0
M  V30 29789 H 3153.87 2.7095 3.45663 0
M  V30 29790 H 3154.47 3.6951 2.10576 0
M  V30 29791 N 3152.79 -0.486655 1.49898 0
M  V30 29792 C 3153.74 -1.58378 1.64013 0
M  V30 29793 C 3154.72 -1.53089 0.495242 0
M  V30 29794 O 3155.91 -1.60376 0.748904 0
M  V30 29795 C 3153.04 -2.96915 1.72326 0
M  V30 29796 C 3152.13 -3.07147 2.9244 0
M  V30 29797 N 3152.52 -2.87231 4.16331 0
M  V30 29798 C 3150.82 -3.38266 2.90675 0
M  V30 29799 C 3151.52 -3.02022 4.97149 0
M  V30 29800 N 3150.49 -3.31536 4.30795 0
M  V30 29801 H 3154.3 -1.41656 2.57509 0
M  V30 29802 H 3151.81 -0.69308 1.46868 0
M  V30 29803 H 3153.81 -3.75781 1.80539 0
M  V30 29804 H 3152.47 -3.14696 0.799779 0
M  V30 29805 H 3153.48 -2.6312 4.46081 0
M  V30 29806 H 3150.16 -3.62133 2.07764 0
M  V30 29807 H 3151.55 -2.90995 6.05616 0
M  V30 29808 N 3154.27 -1.39214 -0.738737 0
M  V30 29809 C 3155.49 -1.395 -1.52799 0
M  V30 29810 C 3155.91 0.0114585 -1.88797 0
M  V30 29811 O 3155.27 0.98186 -1.53837 0
M  V30 29812 C 3155.32 -2.26445 -2.81789 0
M  V30 29813 O 3155.04 -3.61613 -2.47321 0
M  V30 29814 C 3156.54 -2.35073 -3.7584 0
M  V30 29815 H 3153.76 -0.476614 -0.472313 0
M  V30 29816 H 3156.3 -1.82982 -0.913121 0
M  V30 29817 H 3154.46 -1.86386 -3.39616 0
M  V30 29818 H 3154.87 -4.07551 -3.30155 0
M  V30 29819 H 3156.35 -3.00165 -4.63255 0
M  V30 29820 H 3156.82 -1.36877 -4.17326 0
M  V30 29821 H 3157.43 -2.75586 -3.23932 0
M  V30 29822 N 3155.74 0.968523 -1.24328 0
M  V30 29823 C 3156.99 1.71392 -1.08409 0
M  V30 29824 C 3157.32 1.90519 0.376319 0
M  V30 29825 O 3156.6 1.46609 1.27813 0
M  V30 29826 C 3156.88 3.10517 -1.82349 0
M  V30 29827 C 3156.73 2.98887 -3.36135 0
M  V30 29828 C 3158.05 4.1016 -1.59552 0
M  V30 29829 H 3155.17 0.622072 -0.395216 0
M  V30 29830 H 3157.81 1.12675 -1.52985 0
M  V30 29831 H 3155.96 3.60644 -1.44459 0
M  V30 29832 H 3157.64 2.56193 -3.83618 0
M  V30 29833 H 3155.88 2.35117 -3.64558 0
M  V30 29834 H 3156.55 3.97443 -3.83071 0
M  V30 29835 H 3159.03 3.68889 -1.92511 0
M  V30 29836 H 3157.9 5.05573 -2.13745 0
M  V30 29837 H 3158.16 4.38868 -0.53358 0
M  V30 29838 N 3157.22 1.0569 1.16908 0
M  V30 29839 C 3158.13 0.673189 2.24734 0
M  V30 29840 C 3159.15 -0.308013 1.71252 0
M  V30 29841 O 3160.32 -0.158853 2.00773 0
M  V30 29842 C 3157.39 0.0590869 3.4665 0
M  V30 29843 C 3156.45 1.09138 4.15196 0
M  V30 29844 C 3155.68 0.506484 5.31291 0
M  V30 29845 O 3155.91 -0.682592 5.66301 0
M  V30 29846 O 3154.84 1.2432 5.88921 0
M  V30 29847 H 3158.67 1.57195 2.59853 0
M  V30 29848 H 3156.25 0.828773 1.24305 0
M  V30 29849 H 3158.13 -0.281944 4.20456 0
M  V30 29850 H 3156.81 -0.813249 3.13318 0
M  V30 29851 H 3155.71 1.48448 3.43386 0
M  V30 29852 H 3157.05 1.93503 4.52567 0
M  V30 29853 N 3158.7 -1.33435 0.838617 0
M  V30 29854 C 3159.93 -2.01999 0.44768 0
M  V30 29855 C 3160.34 -1.63098 -0.951024 0
M  V30 29856 O 3159.7 -0.844197 -1.61801 0
M  V30 29857 C 3159.75 -3.57161 0.558441 0
M  V30 29858 O 3159.47 -3.94657 1.90203 0
M  V30 29859 C 3160.97 -4.42995 0.164426 0
M  V30 29860 H 3158.19 -0.647029 0.177748 0
M  V30 29861 H 3160.74 -1.7037 1.13112 0
M  V30 29862 H 3158.89 -3.87323 -0.0770882 0
M  V30 29863 H 3159.31 -4.89365 1.88738 0
M  V30 29864 H 3160.78 -5.51222 0.292973 0
M  V30 29865 H 3161.26 -4.30013 -0.893638 0
M  V30 29866 H 3161.86 -4.18191 0.77438 0
M  V30 29867 N 3160.18 -0.595029 -1.45935 0
M  V30 29868 C 3161.14 0.121062 -2.2888 0
M  V30 29869 C 3162.14 0.807124 -1.39076 0
M  V30 29870 O 3163.33 0.6572 -1.61327 0
M  V30 29871 C 3160.46 1.18124 -3.1978 0
M  V30 29872 H 3161.66 -0.60802 -2.93672 0
M  V30 29873 H 3159.21 -0.353522 -1.5225 0
M  V30 29874 H 3159.94 1.9415 -2.59762 0
M  V30 29875 H 3159.73 0.693656 -3.85916 0
M  V30 29876 H 3161.22 1.68312 -3.82179 0
M  V30 29877 N 3161.66 1.54031 -0.333483 0
M  V30 29878 C 3162.88 2.0516 0.267777 0
M  V30 29879 C 3163.3 1.20906 1.45007 0
M  V30 29880 O 3162.66 0.242026 1.80888 0
M  V30 29881 C 3162.71 3.54803 0.692618 0
M  V30 29882 O 3162.43 4.35858 -0.442655 0
M  V30 29883 C 3163.93 4.22063 1.35565 0
M  V30 29884 H 3161.15 0.668865 0.0534807 0
M  V30 29885 H 3163.69 1.98725 -0.48255 0
M  V30 29886 H 3161.85 3.61493 1.3929 0
M  V30 29887 H 3162.26 5.24393 -0.106007 0
M  V30 29888 H 3163.74 5.28189 1.60376 0
M  V30 29889 H 3164.21 3.73787 2.30607 0
M  V30 29890 H 3164.82 4.19539 0.697674 0
M  V30 29891 N 3163.13 0.0618717 1.57479 0
M  V30 29892 C 3164.36 -0.622276 1.97845 0
M  V30 29893 C 3164.78 -1.6295 0.939631 0
M  V30 29894 O 3164.14 -1.81046 -0.0959261 0
M  V30 29895 C 3164.19 -1.27614 3.37264 0
M  V30 29896 O 3163.29 -2.39193 3.35947 0
M  V30 29897 H 3162.63 -0.160884 0.644214 0
M  V30 29898 H 3165.16 0.133445 2.04164 0
M  V30 29899 H 3165.17 -1.62532 3.74229 0
M  V30 29900 H 3163.85 -0.53804 4.12405 0
M  V30 29901 H 3162.43 -2.06142 3.10741 0
M  V30 29902 N 3164.61 -1.56173 -0.211607 0
M  V30 29903 C 3166.02 -1.69729 -0.777746 0
M  V30 29904 C 3166.37 -0.665612 -1.84564 0
M  V30 29905 O 3165.5 0.1813 -2.15639 0
M  V30 29906 C 3166.09 -3.07721 -1.41751 0
M  V30 29907 C 3164.65 -3.23098 -1.93093 0
M  V30 29908 C 3163.8 -2.65667 -0.794739 0
M  V30 29909 H 3166.75 -1.58695 0.0132118 0
M  V30 29910 H 3166.77 -3.04132 -2.28657 0
M  V30 29911 H 3166.28 -3.82786 -0.640047 0
M  V30 29912 H 3164.39 -2.52919 -2.7361 0
M  V30 29913 H 3164.5 -4.30425 -2.10406 0
M  V30 29914 H 3162.86 -2.24409 -1.20469 0
M  V30 29915 H 3163.65 -3.43287 -0.0297805 0
M  V30 29916 N 3166.09 0.478699 -1.50154 0
M  V30 29917 C 3167.32 1.25479 -1.64507 0
M  V30 29918 C 3167.73 1.85976 -0.325328 0
M  V30 29919 O 3167.09 1.68878 0.691855 0
M  V30 29920 C 3167.14 2.36902 -2.73057 0
M  V30 29921 O 3166.86 1.78887 -3.99914 0
M  V30 29922 C 3168.36 3.27907 -2.98315 0
M  V30 29923 H 3165.58 0.379771 -0.553186 0
M  V30 29924 H 3168.13 0.572255 -1.9633 0
M  V30 29925 H 3166.28 3.00945 -2.43949 0
M  V30 29926 H 3166.7 2.52203 -4.59884 0
M  V30 29927 H 3168.17 4.02317 -3.77949 0
M  V30 29928 H 3168.65 3.86236 -2.09089 0
M  V30 29929 H 3169.25 2.69609 -3.28924 0
M  V30 29930 N 3167.57 1.39603 0.731343 0
M  V30 29931 C 3168.85 1.27533 1.48306 0
M  V30 29932 C 3169.23 -0.113445 2.10795 0
M  V30 29933 O 3168.57 -1.12498 1.98888 0
M  V30 29934 C 3168.78 2.4024 2.53152 0
M  V30 29935 C 3170.13 2.7973 3.19431 0
M  V30 29936 O 3171.16 2.39716 2.63466 0
M  V30 29937 O 3170.01 3.48808 4.20708 0
M  V30 29938 H 3167.11 0.499985 0.658744 0
M  V30 29939 H 3169.65 1.51486 0.764857 0
M  V30 29940 H 3168.43 3.33068 2.05382 0
M  V30 29941 H 3168.05 2.17972 3.32527 0
M  V30 29942 N 3169.05 -0.961916 1.2484 0
M  V30 29943 C 3170.01 -2.039 1.04677 0
M  V30 29944 C 3171.01 -1.608 0.002075 0
M  V30 29945 O 3172.2 -1.72489 0.243585 0
M  V30 29946 C 3169.33 -3.35794 0.587795 0
M  V30 29947 H 3170.52 -2.2322 2.00282 0
M  V30 29948 H 3168.08 -1.13798 1.07144 0
M  V30 29949 H 3168.81 -3.22169 -0.371188 0
M  V30 29950 H 3168.6 -3.68423 1.34189 0
M  V30 29951 H 3170.09 -4.1497 0.46794 0
M  V30 29952 N 3170.52 -1.06308 -1.16346 0
M  V30 29953 C 3171.75 -0.80067 -1.91322 0
M  V30 29954 C 3172.17 0.639074 -1.76911 0
M  V30 29955 O 3171.53 1.44533 -1.09452 0
M  V30 29956 C 3171.58 -1.20033 -3.40036 0
M  V30 29957 O 3170.68 -0.339214 -4.11003 0
M  V30 29958 H 3170.03 -0.292606 -0.596052 0
M  V30 29959 H 3172.56 -1.41892 -1.47404 0
M  V30 29960 H 3172.57 -1.17195 -3.90806 0
M  V30 29961 H 3171.24 -2.24904 -3.49844 0
M  V30 29962 H 3169.82 -0.429175 -3.70422 0
M  V30 29963 N 3172 1.32989 -0.845682 0
M  V30 29964 C 3173.25 1.96821 -0.440963 0
M  V30 29965 C 3173.56 1.67708 1.00665 0
M  V30 29966 O 3174.77 2.25207 1.51637 0
M  V30 29967 C 3173.23 3.52261 -0.737581 0
M  V30 29968 C 3172.83 3.90243 -2.20033 0
M  V30 29969 C 3174.58 4.2261 -0.400146 0
M  V30 29970 C 3172.49 5.3869 -2.44064 0
M  V30 29971 H 3171.42 0.736575 -0.161161 0
M  V30 29972 H 3174.07 1.51511 -1.03521 0
M  V30 29973 H 3172.45 3.95933 -0.0728721 0
M  V30 29974 H 3173.62 3.57608 -2.90608 0
M  V30 29975 H 3171.94 3.32895 -2.5014 0
M  V30 29976 H 3174.53 5.31789 -0.55723 0
M  V30 29977 H 3174.88 4.11075 0.657475 0
M  V30 29978 H 3175.41 3.84491 -1.02037 0
M  V30 29979 H 3172.15 5.55235 -3.48416 0
M  V30 29980 H 3171.67 5.72762 -1.78057 0
M  V30 29981 H 3173.35 6.05661 -2.2756 0
M  V30 29982 N 3173.48 0.60276 1.45618 0
M  V30 29983 C 3174.89 0.181669 1.85814 0
M  V30 29984 C 3175.24 -1.26026 1.50372 0
M  V30 29985 O 3174.37 -1.95487 0.928102 0
M  V30 29986 C 3174.96 0.322926 3.37258 0
M  V30 29987 C 3173.52 -0.0434378 3.76375 0
M  V30 29988 C 3172.67 0.649609 2.69584 0
M  V30 29989 H 3175.62 0.809745 1.36487 0
M  V30 29990 H 3175.64 -0.446213 3.77875 0
M  V30 29991 H 3175.15 1.37248 3.63022 0
M  V30 29992 H 3173.25 -1.09235 3.56228 0
M  V30 29993 H 3173.37 0.346849 4.77843 0
M  V30 29994 H 3171.73 0.0877507 2.54549 0
M  V30 29995 H 3172.51 1.7012 2.98185 0
M  V30 29996 N 3174.96 -1.53852 0.341647 0
M  V30 29997 C 3175.92 -2.23601 -0.503502 0
M  V30 29998 C 3176.92 -1.23556 -1.0291 0
M  V30 29999 O 3178.11 -1.48008 -0.918652 0
M  V30 30000 C 3175.24 -2.95418 -1.70121 0
M  V30 30001 H 3176.44 -2.99711 0.106489 0
M  V30 30002 H 3173.99 -1.56023 0.0929682 0
M  V30 30003 H 3174.72 -2.23491 -2.34995 0
M  V30 30004 H 3174.51 -3.68798 -1.33154 0
M  V30 30005 H 3176 -3.48507 -2.3007 0
M  V30 30006 N 3176.44 -0.0702223 -1.57443 0
M  V30 30007 C 3177.66 0.611775 -1.98172 0
M  V30 30008 C 3178.09 1.62449 -0.948259 0
M  V30 30009 O 3177.44 1.81094 0.0863235 0
M  V30 30010 C 3177.49 1.25824 -3.37936 0
M  V30 30011 O 3176.6 2.37408 -3.37211 0
M  V30 30012 H 3175.94 0.157466 -0.645059 0
M  V30 30013 H 3178.47 -0.144271 -2.04091 0
M  V30 30014 H 3178.48 1.60545 -3.75086 0
M  V30 30015 H 3177.15 0.516162 -4.12685 0
M  V30 30016 H 3175.73 2.04492 -3.11829 0
M  V30 30017 N 3177.91 1.56283 0.203321 0
M  V30 30018 C 3179.33 1.70139 0.768734 0
M  V30 30019 C 3179.68 0.675391 1.84209 0
M  V30 30020 O 3178.8 -0.169862 2.15732 0
M  V30 30021 C 3179.4 3.08468 1.40118 0
M  V30 30022 C 3177.96 3.24117 1.91377 0
M  V30 30023 C 3177.1 2.66085 0.780638 0
M  V30 30024 H 3180.05 1.58685 -0.0216276 0
M  V30 30025 H 3180.07 3.0534 2.27041 0
M  V30 30026 H 3179.59 3.8312 0.619738 0
M  V30 30027 H 3177.69 2.54367 2.72265 0
M  V30 30028 H 3177.8 4.31535 2.08121 0
M  V30 30029 H 3176.16 2.25044 1.19277 0
M  V30 30030 H 3176.95 3.43298 0.0115747 0
M  V30 30031 N 3179.39 -0.470729 1.50406 0
M  V30 30032 C 3180.3 -1.59451 1.72083 0
M  V30 30033 C 3181.32 -1.63182 0.60396 0
M  V30 30034 O 3182.5 -1.81044 0.882328 0
M  V30 30035 C 3179.56 -2.95664 1.81062 0
M  V30 30036 C 3178.62 -3.02319 3.04798 0
M  V30 30037 C 3177.85 -4.32035 3.13339 0
M  V30 30038 O 3178.08 -5.2256 2.28664 0
M  V30 30039 O 3177.01 -4.44289 4.06068 0
M  V30 30040 H 3180.84 -1.44084 2.67345 0
M  V30 30041 H 3178.42 -0.650263 1.34506 0
M  V30 30042 H 3180.3 -3.76565 1.89147 0
M  V30 30043 H 3178.98 -3.11229 0.889837 0
M  V30 30044 H 3177.89 -2.20494 3.02214 0
M  V30 30045 H 3179.22 -2.91691 3.96456 0
M  V30 30046 N 3180.87 -1.39989 -0.72393 0
M  V30 30047 C 3182.12 -1.39023 -1.48473 0
M  V30 30048 C 3182.47 0.0105101 -1.92397 0
M  V30 30049 O 3181.77 0.979265 -1.64684 0
M  V30 30050 C 3181.96 -2.30663 -2.73 0
M  V30 30051 C 3181.79 -3.79508 -2.41254 0
M  V30 30052 C 3180.56 -4.48371 -2.33005 0
M  V30 30053 C 3182.76 -4.71211 -2.0607 0
M  V30 30054 N 3180.74 -5.82492 -1.93846 0
M  V30 30055 C 3182.11 -5.94065 -1.77444 0
M  V30 30056 C 3184.16 -4.59126 -1.92634 0
M  V30 30057 C 3182.87 -7.06184 -1.36735 0
M  V30 30058 C 3184.89 -5.71178 -1.53328 0
M  V30 30059 C 3184.26 -6.93113 -1.25595 0
M  V30 30060 H 3180.35 -0.563981 -0.54171 0
M  V30 30061 H 3182.94 -1.75633 -0.840313 0
M  V30 30062 H 3181.11 -1.96194 -3.35205 0
M  V30 30063 H 3182.84 -2.20612 -3.39282 0
M  V30 30064 H 3179.6 -4.01948 -2.50469 0
M  V30 30065 H 3180.02 -6.53499 -1.76828 0
M  V30 30066 H 3184.66 -3.65379 -2.12739 0
M  V30 30067 H 3182.38 -7.99822 -1.15372 0
M  V30 30068 H 3185.97 -5.6382 -1.43522 0
M  V30 30069 H 3184.85 -7.78346 -0.956368 0
M  V30 30070 N 3182.35 0.955282 -1.25348 0
M  V30 30071 C 3183.3 2.05186 -1.05676 0
M  V30 30072 C 3184.27 1.66065 0.0338925 0
M  V30 30073 O 3185.45 1.90402 -0.123159 0
M  V30 30074 C 3182.59 3.38317 -0.680851 0
M  V30 30075 C 3181.7 3.90559 -1.84629 0
M  V30 30076 C 3180.84 5.12013 -1.4148 0
M  V30 30077 C 3179.88 5.56482 -2.54941 0
M  V30 30078 N 3179.02 6.69147 -2.12572 0
M  V30 30079 H 3183.86 2.21346 -1.99524 0
M  V30 30080 H 3181.39 1.08471 -0.993607 0
M  V30 30081 H 3183.35 4.14832 -0.443867 0
M  V30 30082 H 3181.98 3.22045 0.220643 0
M  V30 30083 H 3181.03 3.1057 -2.19659 0
M  V30 30084 H 3182.34 4.19511 -2.69837 0
M  V30 30085 H 3181.5 5.95943 -1.13743 0
M  V30 30086 H 3180.24 4.84774 -0.533419 0
M  V30 30087 H 3179.24 4.71117 -2.83423 0
M  V30 30088 H 3180.47 5.85728 -3.43655 0
M  V30 30089 H 3178.41 6.43619 -1.26849 0
M  V30 30090 H 3178.33 6.97613 -2.91329 0
M  V30 30091 H 3179.6 7.56487 -1.88009 0
M  V30 30092 N 3183.83 1.06924 1.1578 0
M  V30 30093 C 3185.24 0.793921 1.38452 0
M  V30 30094 C 3185.44 -0.603841 1.92239 0
M  V30 30095 O 3184.5 -1.36331 2.12532 0
M  V30 30096 C 3185.81 1.86412 2.35947 0
M  V30 30097 C 3187.36 1.88837 2.49619 0
M  V30 30098 C 3187.84 2.94929 3.50401 0
M  V30 30099 N 3189.33 2.94004 3.57933 0
M  V30 30100 C 3190.06 3.72739 4.35722 0
M  V30 30101 N 3189.56 4.6131 5.1688 0
M  V30 30102 N 3191.35 3.61103 4.30768 0
M  V30 30103 H 3183.5 1.97079 0.792067 0
M  V30 30104 H 3185.76 0.854387 0.410764 0
M  V30 30105 H 3185.47 2.86823 2.03532 0
M  V30 30106 H 3185.34 1.72055 3.35674 0
M  V30 30107 H 3187.73 0.890808 2.81334 0
M  V30 30108 H 3187.81 2.07273 1.49906 0
M  V30 30109 H 3187.46 3.94882 3.19422 0
M  V30 30110 H 3187.39 2.73742 4.49859 0
M  V30 30111 H 3189.88 2.29796 3.00003 0
M  V30 30112 H 3190.19 5.18029 5.73468 0
M  V30 30113 H 3188.54 4.65362 5.16201 0
M  V30 30114 H 3191.73 2.91289 3.66427 0
M  V30 30115 H 3191.9 4.22708 4.91144 0
M  V30 30116 N 3185.31 -1.32538 0.852723 0
M  V30 30117 C 3186.22 -2.3269 0.298785 0
M  V30 30118 C 3187.23 -1.63964 -0.582389 0
M  V30 30119 O 3188.41 -1.95517 -0.483219 0
M  V30 30120 C 3185.47 -3.42997 -0.505393 0
M  V30 30121 C 3184.53 -4.27417 0.401693 0
M  V30 30122 C 3183.77 -5.32456 -0.3642 0
M  V30 30123 O 3183.99 -5.47664 -1.59438 0
M  V30 30124 O 3182.92 -6.01299 0.268998 0
M  V30 30125 H 3186.75 -2.81956 1.12848 0
M  V30 30126 H 3184.33 -1.36127 0.615608 0
M  V30 30127 H 3186.22 -4.10275 -0.961902 0
M  V30 30128 H 3184.89 -2.95923 -1.31192 0
M  V30 30129 H 3183.8 -3.62955 0.906337 0
M  V30 30130 H 3185.13 -4.7801 1.17335 0
M  V30 30131 N 3186.78 -0.610474 -1.45296 0
M  V30 30132 C 3188.01 -0.11145 -2.071 0
M  V30 30133 C 3188.43 1.19622 -1.45163 0
M  V30 30134 O 3187.79 1.72902 -0.545398 0
M  V30 30135 C 3187.84 0.0116738 -3.60598 0
M  V30 30136 O 3186.94 1.06115 -3.98514 0
M  V30 30137 H 3186.28 -0.0753756 -0.659708 0
M  V30 30138 H 3188.81 -0.841301 -1.86503 0
M  V30 30139 H 3188.82 0.208957 -4.07465 0
M  V30 30140 H 3187.5 -0.943147 -4.05065 0
M  V30 30141 H 3186.08 0.840094 -3.63314 0
M  V30 30142 N 3188.26 1.53669 -0.349801 0
M  V30 30143 C 3189.17 2.28936 0.512381 0
M  V30 30144 C 3190.19 1.34287 1.10648 0
M  V30 30145 O 3191.36 1.67331 1.12081 0
M  V30 30146 C 3188.43 3.0522 1.64444 0
M  V30 30147 C 3187.49 4.15506 1.07949 0
M  V30 30148 C 3186.72 4.88143 2.15759 0
M  V30 30149 O 3186.95 4.60502 3.36592 0
M  V30 30150 O 3185.88 5.74448 1.79702 0
M  V30 30151 H 3189.71 3.03536 -0.0996534 0
M  V30 30152 H 3187.29 1.48959 -0.114655 0
M  V30 30153 H 3189.17 3.52905 2.30296 0
M  V30 30154 H 3187.85 2.33471 2.24216 0
M  V30 30155 H 3186.75 3.7211 0.385316 0
M  V30 30156 H 3188.09 4.89376 0.526535 0
M  V30 30157 N 3189.74 0.0785709 1.57404 0
M  V30 30158 C 3190.96 -0.601257 1.98493 0
M  V30 30159 C 3191.39 -1.61944 0.956861 0
M  V30 30160 O 3190.75 -1.81138 -0.0767184 0
M  V30 30161 C 3190.8 -1.2403 3.38599 0
M  V30 30162 O 3189.9 -2.35616 3.38465 0
M  V30 30163 H 3189.24 -0.154042 0.645885 0
M  V30 30164 H 3191.77 0.155092 2.04011 0
M  V30 30165 H 3191.78 -1.58554 3.75932 0
M  V30 30166 H 3190.46 -0.494269 4.12953 0
M  V30 30167 H 3189.03 -2.02835 3.1291 0
M  V30 30168 N 3191.22 -1.56389 -0.19503 0
M  V30 30169 C 3192.45 -1.84739 -0.93161 0
M  V30 30170 C 3192.86 -0.661077 -1.76848 0
M  V30 30171 O 3192.22 0.370209 -1.78706 0
M  V30 30172 C 3192.27 -3.11892 -1.82772 0
M  V30 30173 O 3191.99 -4.25949 -1.02464 0
M  V30 30174 C 3193.49 -3.53422 -2.67597 0
M  V30 30175 H 3190.71 -0.613482 -0.27181 0
M  V30 30176 H 3193.25 -2.03497 -0.202264 0
M  V30 30177 H 3191.41 -2.95031 -2.51068 0
M  V30 30178 H 3191.82 -4.98356 -1.6353 0
M  V30 30179 H 3193.3 -4.45358 -3.2613 0
M  V30 30180 H 3193.77 -2.76414 -3.41309 0
M  V30 30181 H 3194.38 -3.72813 -2.04671 0
M  V30 30182 N 3192.7 0.462746 -1.50653 0
M  V30 30183 C 3193.66 1.5421 -1.69564 0
M  V30 30184 C 3194.66 1.50504 -0.566132 0
M  V30 30185 O 3195.85 1.52976 -0.8333 0
M  V30 30186 C 3192.98 2.93823 -1.72861 0
M  V30 30187 H 3194.17 1.38757 -2.65869 0
M  V30 30188 H 3191.73 0.689703 -1.4026 0
M  V30 30189 H 3192.46 3.14711 -0.782785 0
M  V30 30190 H 3192.25 2.97919 -2.54925 0
M  V30 30191 H 3193.74 3.7217 -1.89417 0
M  V30 30192 N 3194.17 1.40371 0.716495 0
M  V30 30193 C 3195.14 1.40316 1.81229 0
M  V30 30194 C 3196.14 0.297115 1.58031 0
M  V30 30195 O 3197.33 0.555973 1.6509 0
M  V30 30196 C 3194.46 1.19401 3.19306 0
M  V30 30197 H 3195.65 2.37843 1.82676 0
M  V30 30198 H 3193.21 1.26207 0.92204 0
M  V30 30199 H 3193.94 0.226309 3.23509 0
M  V30 30200 H 3193.73 1.99517 3.37543 0
M  V30 30201 H 3195.22 1.22148 3.99336 0
M  V30 30202 N 3195.65 -0.948621 1.25853 0
M  V30 30203 C 3196.62 -2.02779 1.06834 0
M  V30 30204 C 3197.62 -1.60789 0.0191299 0
M  V30 30205 O 3198.81 -1.72221 0.261866 0
M  V30 30206 C 3195.94 -3.35152 0.623377 0
M  V30 30207 H 3197.13 -2.21083 2.02639 0
M  V30 30208 H 3194.68 -1.12655 1.08345 0
M  V30 30209 H 3195.42 -3.22544 -0.336997 0
M  V30 30210 H 3195.2 -3.66979 1.38089 0
M  V30 30211 H 3196.69 -4.1445 0.511927 0
M  V30 30212 N 3197.13 -1.07536 -1.15212 0
M  V30 30213 C 3198.54 -0.822074 -1.67627 0
M  V30 30214 C 3198.89 0.652538 -1.85031 0
M  V30 30215 O 3198.02 1.50495 -1.55499 0
M  V30 30216 C 3198.61 -1.48571 -3.04487 0
M  V30 30217 C 3197.17 -1.27989 -3.53971 0
M  V30 30218 C 3196.32 -1.55418 -2.29653 0
M  V30 30219 H 3199.27 -1.23715 -0.993994 0
M  V30 30220 H 3199.29 -0.907981 -3.69508 0
M  V30 30221 H 3198.8 -2.55894 -2.91788 0
M  V30 30222 H 3196.9 -0.226971 -3.71908 0
M  V30 30223 H 3197.02 -2.00138 -4.35295 0
M  V30 30224 H 3195.38 -0.975293 -2.35287 0
M  V30 30225 H 3196.16 -2.63927 -2.19539 0
M  V30 30226 N 3198.61 1.32084 -0.85974 0
M  V30 30227 C 3199.57 2.27052 -0.313044 0
M  V30 30228 C 3200.57 1.51809 0.530165 0
M  V30 30229 O 3201.76 1.70831 0.340942 0
M  V30 30230 C 3198.89 3.36326 0.556541 0
M  V30 30231 H 3200.09 2.76921 -1.1513 0
M  V30 30232 H 3197.64 1.42842 -0.634488 0
M  V30 30233 H 3198.37 2.91734 1.4164 0
M  V30 30234 H 3198.16 3.92072 -0.0470886 0
M  V30 30235 H 3199.65 4.07075 0.931653 0
M  V30 30236 N 3200.09 0.618171 1.4497 0
M  V30 30237 C 3201.5 0.282694 1.57076 0
M  V30 30238 C 3201.7 -1.21453 1.60784 0
M  V30 30239 O 3200.76 -1.99804 1.54385 0
M  V30 30240 C 3202.07 0.963198 2.84856 0
M  V30 30241 C 3203.62 0.940115 2.98548 0
M  V30 30242 C 3204.09 1.60083 4.29112 0
M  V30 30243 N 3205.59 1.56681 4.35896 0
M  V30 30244 C 3206.32 2.0471 5.35613 0
M  V30 30245 N 3205.82 2.60872 6.41808 0
M  V30 30246 N 3207.61 1.95415 5.27038 0
M  V30 30247 H 3199.76 1.59019 1.40807 0
M  V30 30248 H 3202.02 0.666753 0.673902 0
M  V30 30249 H 3201.73 2.01785 2.88055 0
M  V30 30250 H 3201.6 0.492967 3.73965 0
M  V30 30251 H 3203.99 -0.106019 2.94909 0
M  V30 30252 H 3204.07 1.44871 2.10822 0
M  V30 30253 H 3203.72 2.64635 4.3351 0
M  V30 30254 H 3203.65 1.06717 5.15673 0
M  V30 30255 H 3206.14 1.15665 3.59764 0
M  V30 30256 H 3206.45 2.95286 7.14161 0
M  V30 30257 H 3204.79 2.64916 6.4253 0
M  V30 30258 H 3207.99 1.51271 4.42984 0
M  V30 30259 H 3208.16 2.33158 6.046 0
M  V30 30260 N 3201.56 -1.53481 0.357946 0
M  V30 30261 C 3202.79 -2.06033 -0.237733 0
M  V30 30262 C 3203.21 -1.23026 -1.42289 0
M  V30 30263 O 3202.57 -0.247459 -1.79603 0
M  V30 30264 C 3202.62 -3.55287 -0.616744 0
M  V30 30265 O 3201.72 -3.7505 -1.71497 0
M  V30 30266 H 3201.07 -0.663 -0.0364205 0
M  V30 30267 H 3203.6 -1.97978 0.516336 0
M  V30 30268 H 3203.61 -3.98177 -0.88989 0
M  V30 30269 H 3202.28 -4.15149 0.249898 0
M  V30 30270 H 3200.86 -3.44059 -1.43797 0
M  V30 30271 N 3203.04 -0.0869173 -1.5736 0
M  V30 30272 C 3204.28 0.582177 -1.95934 0
M  V30 30273 C 3204.65 1.65855 -0.967267 0
M  V30 30274 O 3205.85 2.38427 -1.2412 0
M  V30 30275 C 3204.12 1.13044 -3.39051 0
M  V30 30276 S 3205.68 1.81255 -3.99615 0
M  V30 30277 H 3202.5 0.190209 -0.685085 0
M  V30 30278 H 3205.1 -0.164375 -1.94808 0
M  V30 30279 H 3203.8 0.33542 -4.09027 0
M  V30 30280 H 3203.33 1.913 -3.43755 0
M  V30 30281 H 3205.35 3.09617 -3.87752 0
M  V30 30282 N 3204.52 1.5649 0.186734 0
M  V30 30283 C 3205.48 1.94341 1.21508 0
M  V30 30284 C 3206.48 0.825394 1.38 0
M  V30 30285 O 3207.67 1.09269 1.35669 0
M  V30 30286 C 3204.81 2.22477 2.58296 0
M  V30 30287 H 3206 2.86349 0.891321 0
M  V30 30288 H 3203.55 1.50309 0.428586 0
M  V30 30289 H 3204.29 1.33134 2.95713 0
M  V30 30290 H 3204.07 3.03956 2.47696 0
M  V30 30291 H 3205.56 2.52736 3.32437 0
M  V30 30292 N 3206 -0.45475 1.50897 0
M  V30 30293 C 3206.91 -1.57617 1.73764 0
M  V30 30294 C 3207.92 -1.62532 0.621234 0
M  V30 30295 O 3209.1 -1.80098 0.901481 0
M  V30 30296 C 3206.17 -2.93727 1.84188 0
M  V30 30297 C 3205.23 -2.99069 3.07987 0
M  V30 30298 C 3204.46 -4.28687 3.17904 0
M  V30 30299 O 3204.68 -5.20105 2.34194 0
M  V30 30300 O 3203.62 -4.39957 4.10757 0
M  V30 30301 H 3207.44 -1.4124 2.68858 0
M  V30 30302 H 3205.03 -0.63596 1.35188 0
M  V30 30303 H 3206.91 -3.74538 1.9313 0
M  V30 30304 H 3205.58 -3.10268 0.922797 0
M  V30 30305 H 3204.49 -2.17277 3.04535 0
M  V30 30306 H 3205.82 -2.87469 3.99528 0
M  V30 30307 N 3207.48 -1.40749 -0.709041 0
M  V30 30308 C 3208.39 -1.43864 -1.85311 0
M  V30 30309 C 3209.4 -0.330569 -1.70831 0
M  V30 30310 O 3210.58 -0.576185 -1.92982 0
M  V30 30311 C 3207.64 -1.30574 -3.21172 0
M  V30 30312 C 3206.7 -2.5158 -3.47859 0
M  V30 30313 C 3205.94 -2.38915 -4.77237 0
M  V30 30314 O 3206.16 -1.40646 -5.52788 0
M  V30 30315 O 3205.09 -3.28416 -5.04407 0
M  V30 30316 H 3208.92 -2.40357 -1.8564 0
M  V30 30317 H 3206.51 -1.22142 -0.860331 0
M  V30 30318 H 3208.39 -1.25395 -4.02311 0
M  V30 30319 H 3207.06 -0.371898 -3.21557 0
M  V30 30320 H 3205.97 -2.62336 -2.66703 0
M  V30 30321 H 3207.3 -3.43747 -3.52277 0
M  V30 30322 N 3208.96 0.941933 -1.26354 0
M  V30 30323 C 3210.37 1.50285 -1.10776 0
M  V30 30324 C 3210.72 1.937 0.312194 0
M  V30 30325 O 3209.84 1.7984 1.20361 0
M  V30 30326 C 3210.44 2.7312 -2.00477 0
M  V30 30327 C 3209 3.25481 -1.89047 0
M  V30 30328 C 3208.14 1.98264 -1.93873 0
M  V30 30329 H 3211.09 0.757498 -1.39455 0
M  V30 30330 H 3211.12 3.47399 -1.55222 0
M  V30 30331 H 3210.63 2.4149 -3.03816 0
M  V30 30332 H 3208.73 3.61903 -0.886405 0
M  V30 30333 H 3208.84 3.92638 -2.74539 0
M  V30 30334 H 3207.21 2.14129 -1.37916 0
M  V30 30335 H 3207.99 1.68967 -2.9884 0
M  V30 30336 N 3210.43 1.08146 1.1464 0
M  V30 30337 C 3211.67 0.818986 1.87275 0
M  V30 30338 C 3212.04 -0.64345 1.80897 0
M  V30 30339 O 3213.24 -1.02131 2.48642 0
M  V30 30340 C 3211.51 1.3232 3.32003 0
M  V30 30341 S 3213.07 1.19263 4.22282 0
M  V30 30342 H 3209.89 0.296561 0.646199 0
M  V30 30343 H 3212.49 1.3822 1.38259 0
M  V30 30344 H 3211.19 2.38208 3.34193 0
M  V30 30345 H 3210.72 0.755548 3.86076 0
M  V30 30346 H 3212.74 0.13523 4.96016 0
M  V30 30347 N 3211.91 -1.31626 0.866732 0
M  V30 30348 C 3213.16 -1.96436 0.47512 0
M  V30 30349 C 3213.48 -1.68866 -0.975149 0
M  V30 30350 O 3212.75 -1.00233 -1.68316 0
M  V30 30351 H 3211.33 -0.726761 0.172708 0
M  V30 30352 H 3213.99 -1.60492 1.10581 0
M  V30 30353 H 3213.09 -3.05672 0.630177 0
M  V30 30354 N 3213.39 -0.62585 -1.4464 0
M  V30 30355 C 3214.35 0.0724857 -2.29085 0
M  V30 30356 C 3215.35 0.777443 -1.40757 0
M  V30 30357 O 3216.54 0.622832 -1.62685 0
M  V30 30358 C 3213.67 1.11314 -3.22214 0
M  V30 30359 H 3214.87 -0.670175 -2.92316 0
M  V30 30360 H 3212.42 -0.385737 -1.51465 0
M  V30 30361 H 3213.16 1.88596 -2.63822 0
M  V30 30362 H 3212.94 0.611641 -3.873 0
M  V30 30363 H 3214.43 1.60168 -3.85663 0
M  V30 30364 N 3214.87 1.53289 -0.36608 0
M  V30 30365 C 3216.12 2.00866 0.223016 0
M  V30 30366 C 3216.44 1.25506 1.49242 0
M  V30 30367 O 3215.71 0.368478 1.92403 0
M  V30 30368 H 3214.29 0.742102 0.0854 0
M  V30 30369 H 3216.95 1.88577 -0.492429 0
M  V30 30370 H 3216.04 3.08844 0.449647 0
M  V30 30371 N 3216.35 0.0952613 1.57312 0
M  V30 30372 C 3217.57 -0.576785 1.98698 0
M  V30 30373 C 3217.99 -1.61714 0.974375 0
M  V30 30374 O 3217.35 -1.82465 -0.03599 0
M  V30 30375 C 3217.4 -1.22434 3.40135 0
M  V30 30376 O 3217.12 -0.225601 4.37519 0
M  V30 30377 C 3218.62 -1.98198 3.96525 0
M  V30 30378 H 3215.84 -0.154618 0.652943 0
M  V30 30379 H 3218.38 0.174598 2.03753 0
M  V30 30380 H 3216.54 -1.92666 3.36093 0
M  V30 30381 H 3216.95 -0.693025 5.19901 0
M  V30 30382 H 3218.43 -2.38867 4.97641 0
M  V30 30383 H 3218.9 -2.8479 3.34352 0
M  V30 30384 H 3219.51 -1.32783 4.04041 0
M  V30 30385 N 3217.82 -1.56587 -0.178432 0
M  V30 30386 C 3219.06 -1.83383 -0.902778 0
M  V30 30387 C 3219.43 -0.675171 -1.79737 0
M  V30 30388 O 3220.63 -0.823413 -2.55878 0
M  V30 30389 C 3218.9 -3.15268 -1.68347 0
M  V30 30390 S 3220.46 -3.63524 -2.45756 0
M  V30 30391 H 3217.28 -0.643441 -0.302497 0
M  V30 30392 H 3219.88 -1.94803 -0.164927 0
M  V30 30393 H 3218.58 -3.97595 -1.01718 0
M  V30 30394 H 3218.11 -3.0677 -2.46283 0
M  V30 30395 H 3220.13 -3.30284 -3.70306 0
M  V30 30396 N 3219.3 0.446741 -1.51136 0
M  V30 30397 C 3220.25 1.54155 -1.7177 0
M  V30 30398 C 3221.22 1.56403 -0.559229 0
M  V30 30399 O 3222.4 1.73558 -0.792598 0
M  V30 30400 C 3219.54 2.91949 -1.84011 0
M  V30 30401 C 3218.66 2.99302 -3.11516 0
M  V30 30402 C 3217.79 4.28161 -3.14407 0
M  V30 30403 C 3216.83 4.29347 -4.36266 0
M  V30 30404 N 3215.97 5.49714 -4.36759 0
M  V30 30405 H 3220.81 1.35864 -2.65226 0
M  V30 30406 H 3218.34 0.660163 -1.31454 0
M  V30 30407 H 3220.3 3.71888 -1.8909 0
M  V30 30408 H 3218.93 3.08819 -0.939715 0
M  V30 30409 H 3217.98 2.12084 -3.15792 0
M  V30 30410 H 3219.3 2.9604 -4.0145 0
M  V30 30411 H 3218.45 5.16467 -3.1835 0
M  V30 30412 H 3217.19 4.34066 -2.22346 0
M  V30 30413 H 3216.19 3.39435 -4.32509 0
M  V30 30414 H 3217.42 4.25113 -5.29581 0
M  V30 30415 H 3215.37 5.56359 -3.47563 0
M  V30 30416 H 3215.28 5.48293 -5.20491 0
M  V30 30417 H 3216.55 6.40079 -4.44882 0
M  V30 30418 N 3220.78 1.41123 0.701567 0
M  V30 30419 C 3221.69 1.44845 1.84546 0
M  V30 30420 C 3222.71 0.339624 1.70653 0
M  V30 30421 O 3223.88 0.586412 1.92674 0
M  V30 30422 C 3220.95 1.32275 3.20475 0
M  V30 30423 C 3220.01 2.53422 3.4652 0
M  V30 30424 C 3219.24 2.41442 4.75964 0
M  V30 30425 O 3219.46 1.43576 5.52035 0
M  V30 30426 O 3218.4 3.31087 5.02658 0
M  V30 30427 H 3222.22 2.41338 1.84363 0
M  V30 30428 H 3219.81 1.22597 0.853841 0
M  V30 30429 H 3221.69 1.27527 4.0164 0
M  V30 30430 H 3220.37 0.388945 3.21355 0
M  V30 30431 H 3219.27 2.63747 2.65308 0
M  V30 30432 H 3220.61 3.4561 3.50449 0
M  V30 30433 N 3222.26 -0.935219 1.26852 0
M  V30 30434 C 3223.49 -1.71633 1.15541 0
M  V30 30435 C 3223.9 -1.8658 -0.288665 0
M  V30 30436 O 3223.26 -1.37745 -1.19719 0
M  V30 30437 C 3223.31 -3.11995 1.82595 0
M  V30 30438 O 3223.03 -2.97757 3.2136 0
M  V30 30439 C 3224.53 -4.06294 1.77315 0
M  V30 30440 H 3221.75 -0.537201 0.402064 0
M  V30 30441 H 3224.29 -1.172 1.67584 0
M  V30 30442 H 3222.45 -3.63311 1.34476 0
M  V30 30443 H 3222.86 -3.8644 3.54633 0
M  V30 30444 H 3224.34 -5.02322 2.28859 0
M  V30 30445 H 3224.81 -4.32906 0.7409 0
M  V30 30446 H 3225.42 -3.609 2.25013 0
M  V30 30447 N 3223.74 -1.08752 -1.14065 0
M  V30 30448 C 3224.65 -0.732537 -2.2287 0
M  V30 30449 C 3225.66 0.2625 -1.72009 0
M  V30 30450 O 3226.84 0.105566 -2.01123 0
M  V30 30451 C 3223.9 -0.150974 -3.46371 0
M  V30 30452 C 3222.96 -1.20107 -4.12156 0
M  V30 30453 C 3222.2 -0.647168 -5.29762 0
M  V30 30454 O 3222.42 0.532208 -5.67912 0
M  V30 30455 O 3221.35 -1.39891 -5.85418 0
M  V30 30456 H 3225.18 -1.64029 -2.55594 0
M  V30 30457 H 3222.77 -0.861439 -1.22064 0
M  V30 30458 H 3224.65 0.170368 -4.21055 0
M  V30 30459 H 3223.32 0.729893 -3.15364 0
M  V30 30460 H 3222.23 -1.575 -3.39329 0
M  V30 30461 H 3223.56 -2.05434 -4.47278 0
M  V30 30462 N 3225.21 1.31165 -0.873701 0
M  V30 30463 C 3226.46 1.96181 -0.485531 0
M  V30 30464 C 3226.78 1.69381 0.96618 0
M  V30 30465 O 3226.05 1.01124 1.67782 0
M  V30 30466 H 3224.63 0.725834 -0.17656 0
M  V30 30467 H 3227.3 1.59904 -1.11431 0
M  V30 30468 H 3226.39 3.05333 -0.646379 0
M  V30 30469 N 3226.69 0.633512 1.44307 0
M  V30 30470 C 3227.64 -0.0919218 2.27815 0
M  V30 30471 C 3228.63 -0.813858 1.38799 0
M  V30 30472 O 3229.82 -0.699572 1.62588 0
M  V30 30473 C 3226.95 -1.07119 3.2616 0
M  V30 30474 C 3226.03 -0.348757 4.22664 0
M  V30 30475 N 3226.42 0.623942 5.01937 0
M  V30 30476 C 3224.72 -0.592881 4.42042 0
M  V30 30477 C 3225.42 1.05099 5.72127 0
M  V30 30478 N 3224.4 0.389278 5.42204 0
M  V30 30479 H 3228.2 0.654771 2.86513 0
M  V30 30480 H 3225.72 0.459206 1.55772 0
M  V30 30481 H 3227.71 -1.60553 3.84745 0
M  V30 30482 H 3226.37 -1.81816 2.69022 0
M  V30 30483 H 3227.38 1.00185 5.08117 0
M  V30 30484 H 3224.06 -1.32254 3.95999 0
M  V30 30485 H 3225.45 1.85472 6.45794 0
M  V30 30486 N 3228.17 -1.53093 0.374204 0
M  V30 30487 C 3229.42 -2.01677 -0.213096 0
M  V30 30488 C 3229.75 -1.26074 -1.47713 0
M  V30 30489 O 3229.02 -0.356868 -1.91198 0
M  V30 30490 C 3229.31 -3.56663 -0.496329 0
M  V30 30491 C 3229.16 -4.42951 0.781937 0
M  V30 30492 C 3230.48 -4.20668 -1.29331 0
M  V30 30493 H 3227.6 -0.733073 -0.0759757 0
M  V30 30494 H 3230.24 -1.83281 0.500797 0
M  V30 30495 H 3228.39 -3.72469 -1.10449 0
M  V30 30496 H 3230.06 -4.38926 1.41922 0
M  V30 30497 H 3228.31 -4.10572 1.40048 0
M  V30 30498 H 3228.98 -5.49366 0.538605 0
M  V30 30499 H 3231.45 -4.08747 -0.778777 0
M  V30 30500 H 3230.33 -5.2912 -1.46023 0
M  V30 30501 H 3230.59 -3.773 -2.30428 0
M  V30 30502 N 3229.65 -0.103603 -1.57259 0
M  V30 30503 C 3230.9 0.557826 -1.93833 0
M  V30 30504 C 3231.21 1.68806 -0.988117 0
M  V30 30505 O 3232.42 2.41122 -1.2479 0
M  V30 30506 C 3230.87 1.04367 -3.44435 0
M  V30 30507 C 3230.48 -0.0572758 -4.47963 0
M  V30 30508 C 3232.22 1.67735 -3.89955 0
M  V30 30509 C 3230.13 0.444401 -5.89728 0
M  V30 30510 H 3229.06 0.212148 -0.723539 0
M  V30 30511 H 3231.71 -0.180976 -1.82605 0
M  V30 30512 H 3230.09 1.83642 -3.50844 0
M  V30 30513 H 3231.27 -0.83306 -4.53207 0
M  V30 30514 H 3229.58 -0.59666 -4.12103 0
M  V30 30515 H 3232.18 2.06356 -4.93276 0
M  V30 30516 H 3232.52 2.54982 -3.29074 0
M  V30 30517 H 3233.06 0.950275 -3.86283 0
M  V30 30518 H 3229.8 -0.391658 -6.54329 0
M  V30 30519 H 3229.32 1.187 -5.87937 0
M  V30 30520 H 3230.99 0.910627 -6.4056 0
M  V30 30521 N 3231.13 1.56679 0.170126 0
M  V30 30522 C 3232.37 1.83859 0.89304 0
M  V30 30523 C 3232.73 0.684693 1.79377 0
M  V30 30524 O 3233.93 0.836971 2.55437 0
M  V30 30525 C 3232.2 3.16156 1.66673 0
M  V30 30526 S 3233.76 3.64822 2.43824 0
M  V30 30527 H 3230.58 0.645036 0.29908 0
M  V30 30528 H 3233.18 1.94888 0.154593 0
M  V30 30529 H 3231.89 3.98129 0.996082 0
M  V30 30530 H 3231.42 3.08072 2.44653 0
M  V30 30531 H 3233.43 3.32244 3.68549 0
M  V30 30532 N 3232.6 -0.43872 1.5137 0
M  V30 30533 C 3233.53 -1.53984 1.75531 0
M  V30 30534 C 3234.52 -1.58974 0.605095 0
M  V30 30535 O 3235.7 -1.74723 0.847664 0
M  V30 30536 C 3232.83 -2.92074 1.87909 0
M  V30 30537 C 3231.78 -3.01946 3.03336 0
M  V30 30538 C 3231.11 -4.42002 3.00896 0
M  V30 30539 C 3232.41 -2.76155 4.43323 0
M  V30 30540 H 3234.1 -1.34017 2.67731 0
M  V30 30541 H 3231.65 -0.643285 1.28833 0
M  V30 30542 H 3233.6 -3.69064 2.03395 0
M  V30 30543 H 3232.33 -3.13269 0.923569 0
M  V30 30544 H 3230.99 -2.27395 2.87553 0
M  V30 30545 H 3230.63 -4.60163 2.03124 0
M  V30 30546 H 3230.33 -4.49537 3.78405 0
M  V30 30547 H 3231.86 -5.20968 3.18473 0
M  V30 30548 H 3233.27 -3.42879 4.59464 0
M  V30 30549 H 3231.67 -2.95101 5.22528 0
M  V30 30550 H 3232.74 -1.71771 4.53456 0
M  V30 30551 N 3234.08 -1.41493 -0.694073 0
M  V30 30552 C 3235.32 -1.424 -1.46634 0
M  V30 30553 C 3235.69 -0.0321593 -1.91973 0
M  V30 30554 O 3236.89 0.0839852 -2.68669 0
M  V30 30555 C 3235.16 -2.40396 -2.6447 0
M  V30 30556 S 3236.72 -2.59845 -3.5359 0
M  V30 30557 H 3233.54 -0.504435 -0.501065 0
M  V30 30558 H 3236.14 -1.77943 -0.809729 0
M  V30 30559 H 3234.84 -3.40321 -2.29368 0
M  V30 30560 H 3234.37 -2.06212 -3.35023 0
M  V30 30561 H 3236.39 -1.86698 -4.59737 0
M  V30 30562 N 3235.56 0.928479 -1.27346 0
M  V30 30563 C 3236.97 1.49101 -1.12364 0
M  V30 30564 C 3237.32 1.9402 0.291632 0
M  V30 30565 O 3236.45 1.81106 1.18446 0
M  V30 30566 C 3237.04 2.70978 -2.03363 0
M  V30 30567 C 3235.6 3.23458 -1.92489 0
M  V30 30568 C 3234.75 1.96197 -1.95965 0
M  V30 30569 H 3237.7 0.742665 -1.4025 0
M  V30 30570 H 3237.72 3.45733 -1.58898 0
M  V30 30571 H 3237.23 2.38254 -3.0636 0
M  V30 30572 H 3235.33 3.60942 -0.924739 0
M  V30 30573 H 3235.45 3.89704 -2.78688 0
M  V30 30574 H 3233.81 2.12654 -1.40179 0
M  V30 30575 H 3234.59 1.65787 -3.00615 0
M  V30 30576 N 3237.04 1.09355 1.13486 0
M  V30 30577 C 3238.45 0.848638 1.66298 0
M  V30 30578 C 3238.8 -0.623019 1.86045 0
M  V30 30579 O 3237.93 -1.48003 1.57874 0
M  V30 30580 C 3238.52 1.53397 3.02084 0
M  V30 30581 C 3237.08 1.33604 3.5189 0
M  V30 30582 C 3236.23 1.59052 2.27151 0
M  V30 30583 H 3239.18 1.25281 0.974186 0
M  V30 30584 H 3239.2 0.966652 3.68016 0
M  V30 30585 H 3238.71 2.60503 2.8768 0
M  V30 30586 H 3236.81 0.28611 3.715 0
M  V30 30587 H 3236.92 2.07038 4.32056 0
M  V30 30588 H 3235.29 1.0126 2.33706 0
M  V30 30589 H 3236.07 2.67386 2.15312 0
M  V30 30590 N 3238.52 -1.307 0.880644 0
M  V30 30591 C 3239.77 -1.95921 0.495928 0
M  V30 30592 C 3240.09 -1.69891 -0.957184 0
M  V30 30593 O 3239.36 -1.02013 -1.67243 0
M  V30 30594 H 3237.94 -0.724888 0.180406 0
M  V30 30595 H 3240.6 -1.59311 1.12277 0
M  V30 30596 H 3239.69 -3.04986 0.662562 0
M  V30 30597 N 3240 -0.641156 -1.43969 0
M  V30 30598 C 3241.23 -0.156815 -2.06004 0
M  V30 30599 C 3241.63 1.17791 -1.48061 0
M  V30 30600 O 3240.98 1.73562 -0.601818 0
M  V30 30601 C 3241.04 0.0216571 -3.59493 0
M  V30 30602 C 3240.7 -1.23646 -4.39955 0
M  V30 30603 C 3241.7 -2.16247 -4.72793 0
M  V30 30604 C 3239.38 -1.47468 -4.80165 0
M  V30 30605 C 3241.38 -3.30971 -5.44735 0
M  V30 30606 C 3239.07 -2.62488 -5.51855 0
M  V30 30607 C 3240.06 -3.54065 -5.84061 0
M  V30 30608 O 3239.75 -4.67078 -6.54288 0
M  V30 30609 H 3239.48 -0.0815803 -0.671059 0
M  V30 30610 H 3242.04 -0.87855 -1.85663 0
M  V30 30611 H 3240.27 0.798641 -3.78363 0
M  V30 30612 H 3241.96 0.461822 -4.03264 0
M  V30 30613 H 3242.72 -1.99081 -4.42258 0
M  V30 30614 H 3238.6 -0.770732 -4.54512 0
M  V30 30615 H 3242.15 -4.02472 -5.69791 0
M  V30 30616 H 3238.04 -2.79593 -5.81806 0
M  V30 30617 H 3238.81 -4.66188 -6.72763 0
M  V30 30618 N 3241.47 1.52892 -0.382318 0
M  V30 30619 C 3242.7 2.05908 0.202372 0
M  V30 30620 C 3243.12 1.25458 1.41088 0
M  V30 30621 O 3242.47 0.299452 1.80026 0
M  V30 30622 C 3242.52 3.56827 0.579389 0
M  V30 30623 O 3242.25 4.34229 -0.581096 0
M  V30 30624 C 3243.75 4.26162 1.22069 0
M  V30 30625 H 3240.97 0.670228 0.0321741 0
M  V30 30626 H 3243.51 1.97089 -0.545529 0
M  V30 30627 H 3241.67 3.65741 1.27719 0
M  V30 30628 H 3242.08 5.2379 -0.272785 0
M  V30 30629 H 3243.55 5.33024 1.43491 0
M  V30 30630 H 3244.03 3.80935 2.18599 0
M  V30 30631 H 3244.64 4.21546 0.563848 0
M  V30 30632 N 3242.95 0.111941 1.57202 0
M  V30 30633 C 3244.2 -0.546679 1.94566 0
M  V30 30634 C 3244.52 -1.67664 0.995674 0
M  V30 30635 O 3243.79 -1.95834 0.0507025 0
M  V30 30636 H 3242.37 -0.204938 0.718338 0
M  V30 30637 H 3245.03 0.179227 1.94074 0
M  V30 30638 H 3244.13 -0.945879 2.97421 0
M  V30 30639 N 3244.43 -1.56767 -0.161814 0
M  V30 30640 C 3245.34 -2.00387 -1.21993 0
M  V30 30641 C 3246.36 -0.916794 -1.47888 0
M  V30 30642 O 3247.53 -1.22515 -1.5985 0
M  V30 30643 C 3244.6 -2.36309 -2.5369 0
M  V30 30644 C 3243.66 -3.58892 -2.35574 0
M  V30 30645 C 3242.89 -3.93092 -3.60991 0
M  V30 30646 O 3243.11 -3.28137 -4.66564 0
M  V30 30647 O 3242.05 -4.86403 -3.54536 0
M  V30 30648 H 3245.87 -2.90682 -0.87965 0
M  V30 30649 H 3243.46 -1.44761 -0.369412 0
M  V30 30650 H 3245.34 -2.60341 -3.31362 0
M  V30 30651 H 3244.02 -1.49174 -2.87278 0
M  V30 30652 H 3242.92 -3.40067 -1.55902 0
M  V30 30653 H 3244.26 -4.46599 -2.06907 0
M  V30 30654 N 3245.91 0.430686 -1.51601 0
M  V30 30655 C 3246.86 1.52182 -1.69778 0
M  V30 30656 C 3247.84 1.51145 -0.551719 0
M  V30 30657 O 3249.03 1.57486 -0.80791 0
M  V30 30658 C 3246.16 2.90315 -1.83227 0
M  V30 30659 C 3245.25 2.96082 -3.03638 0
M  V30 30660 N 3245.64 2.71581 -4.26705 0
M  V30 30661 C 3243.94 3.27245 -3.0303 0
M  V30 30662 C 3244.64 2.83363 -5.08016 0
M  V30 30663 N 3243.61 3.15319 -4.42803 0
M  V30 30664 H 3247.42 1.32001 -2.62589 0
M  V30 30665 H 3244.93 0.638093 -1.49339 0
M  V30 30666 H 3246.93 3.68821 -1.94361 0
M  V30 30667 H 3245.59 3.11511 -0.916026 0
M  V30 30668 H 3246.6 2.46383 -4.55539 0
M  V30 30669 H 3243.28 3.54172 -2.21061 0
M  V30 30670 H 3244.67 2.68318 -6.15999 0
M  V30 30671 N 3247.39 1.4186 0.686559 0
M  V30 30672 C 3248.63 1.43176 1.45877 0
M  V30 30673 C 3248.99 0.0423397 1.91953 0
M  V30 30674 O 3250.19 -0.0697358 2.6871 0
M  V30 30675 C 3248.46 2.41795 2.63192 0
M  V30 30676 S 3250.02 2.61716 3.52207 0
M  V30 30677 H 3246.84 0.507086 0.498383 0
M  V30 30678 H 3249.44 1.7837 0.800281 0
M  V30 30679 H 3248.14 3.41533 2.2756 0
M  V30 30680 H 3247.68 2.07986 3.33924 0
M  V30 30681 H 3249.69 1.89133 4.58741 0
M  V30 30682 N 3248.86 -0.921712 1.27837 0
M  V30 30683 C 3249.81 -2.04447 1.10924 0
M  V30 30684 C 3250.81 -1.69372 0.0306767 0
M  V30 30685 O 3252.01 -1.79007 0.18885 0
M  V30 30686 H 3248.39 -0.669739 0.341984 0
M  V30 30687 H 3250.36 -2.15857 2.0603 0
M  V30 30688 C 3249.11 -3.3885 0.779503 0
M  V30 30689 H 3248.43 -3.66328 1.60137 0
M  V30 30690 H 3249.87 -4.18164 0.701072 0
M  V30 30691 C 3248.33 -3.32919 -0.516411 0
M  V30 30692 O 3248.86 -3.7063 -1.54907 0
M  V30 30693 N 3247.06 -2.86014 -0.514226 0
M  V30 30694 H 3246.61 -2.55522 0.326554 0
M  V30 30695 H 3246.57 -2.82428 -1.38136 0
M  V30 30696 N 3250.34 -1.09956 -1.12905 0
M  V30 30697 C 3251.59 -0.833794 -1.83659 0
M  V30 30698 C 3251.9 0.642765 -1.84737 0
M  V30 30699 O 3253.11 1.02426 -2.51438 0
M  V30 30700 C 3251.57 -1.44174 -3.2976 0
M  V30 30701 C 3251.17 -2.95123 -3.37055 0
M  V30 30702 C 3252.92 -1.25516 -4.05519 0
M  V30 30703 C 3250.82 -3.48977 -4.77461 0
M  V30 30704 H 3249.75 -0.308254 -0.68811 0
M  V30 30705 H 3252.41 -1.32294 -1.27164 0
M  V30 30706 H 3250.79 -0.880283 -3.86092 0
M  V30 30707 H 3251.96 -3.57542 -2.90689 0
M  V30 30708 H 3250.28 -3.12879 -2.74765 0
M  V30 30709 H 3252.87 -1.632 -5.09186 0
M  V30 30710 H 3253.22 -0.196281 -4.15837 0
M  V30 30711 H 3253.75 -1.78442 -3.55533 0
M  V30 30712 H 3250.49 -4.54509 -4.72336 0
M  V30 30713 H 3250.01 -2.91324 -5.243 0
M  V30 30714 H 3251.69 -3.46505 -5.46391 0
M  V30 30715 N 3251.82 1.30231 -0.887563 0
M  V30 30716 C 3253.1 1.90876 -0.427282 0
M  V30 30717 C 3253.48 1.80651 1.09217 0
M  V30 30718 O 3252.82 1.22539 1.92864 0
M  V30 30719 C 3253.03 3.36428 -0.928278 0
M  V30 30720 C 3254.38 4.13494 -0.964779 0
M  V30 30721 O 3255.41 3.45283 -0.875118 0
M  V30 30722 O 3254.27 5.35364 -1.09763 0
M  V30 30723 H 3251.36 0.816539 -0.131121 0
M  V30 30724 H 3253.91 1.3878 -0.976634 0
M  V30 30725 H 3252.68 3.37967 -1.97215 0
M  V30 30726 H 3252.3 3.95983 -0.358239 0
M  V30 30727 N 3253.3 0.648782 1.43627 0
M  V30 30728 C 3254.23 -0.0841456 2.29045 0
M  V30 30729 C 3255.24 -0.791512 1.42264 0
M  V30 30730 O 3256.43 -0.650009 1.66244 0
M  V30 30731 C 3253.53 -1.14207 3.19077 0
M  V30 30732 C 3252.71 -0.513723 4.34373 0
M  V30 30733 C 3251.76 -1.46794 5.0531 0
M  V30 30734 O 3250.79 -0.978247 5.60731 0
M  V30 30735 N 3251.99 -2.802 5.08398 0
M  V30 30736 H 3254.76 0.649 2.92589 0
M  V30 30737 H 3252.32 0.491236 1.54268 0
M  V30 30738 H 3254.31 -1.78112 3.63398 0
M  V30 30739 H 3252.88 -1.77723 2.57164 0
M  V30 30740 H 3252.1 0.304331 3.93023 0
M  V30 30741 H 3253.39 -0.0748977 5.08745 0
M  V30 30742 H 3252.79 -3.22549 4.64735 0
M  V30 30743 H 3251.34 -3.3942 5.5645 0
M  V30 30744 N 3254.78 -1.52688 0.390421 0
M  V30 30745 C 3255.69 -2.30214 -0.451503 0
M  V30 30746 C 3256.7 -1.37174 -1.07048 0
M  V30 30747 O 3257.88 -1.70244 -1.07606 0
M  V30 30748 C 3254.94 -3.09473 -1.56293 0
M  V30 30749 C 3254 -4.18222 -0.968943 0
M  V30 30750 C 3253.24 -4.93692 -2.02741 0
M  V30 30751 O 3253.46 -4.69264 -3.24265 0
M  V30 30752 O 3252.39 -5.79011 -1.64408 0
M  V30 30753 H 3256.22 -3.03166 0.180096 0
M  V30 30754 H 3253.81 -1.48603 0.154108 0
M  V30 30755 H 3255.69 -3.58887 -2.20858 0
M  V30 30756 H 3254.36 -2.39334 -2.17948 0
M  V30 30757 H 3253.27 -3.73001 -0.286522 0
M  V30 30758 H 3254.6 -4.906 -0.396601 0
M  V30 30759 N 3256.25 -0.120276 -1.5714 0
M  V30 30760 C 3257.5 0.538211 -1.95528 0
M  V30 30761 C 3257.83 1.66248 -1.00376 0
M  V30 30762 O 3257.11 1.94456 -0.0412076 0
M  V30 30763 C 3257.39 1.0697 -3.43845 0
M  V30 30764 C 3257.24 -0.0512386 -4.49771 0
M  V30 30765 C 3258.56 1.96016 -3.94038 0
M  V30 30766 H 3255.68 0.194171 -0.710962 0
M  V30 30767 H 3258.32 -0.196094 -1.88985 0
M  V30 30768 H 3256.47 1.69547 -3.49551 0
M  V30 30769 H 3258.15 -0.686583 -4.56162 0
M  V30 30770 H 3256.39 -0.714203 -4.2788 0
M  V30 30771 H 3257.06 0.361898 -5.50812 0
M  V30 30772 H 3259.54 1.43308 -3.90643 0
M  V30 30773 H 3258.41 2.30121 -4.98333 0
M  V30 30774 H 3258.67 2.88715 -3.34808 0
M  V30 30775 N 3257.73 1.56851 0.153498 0
M  V30 30776 C 3258.97 1.84796 0.873489 0
M  V30 30777 C 3259.34 0.70368 1.7864 0
M  V30 30778 O 3260.54 0.864017 2.54535 0
M  V30 30779 C 3258.81 3.17906 1.6331 0
M  V30 30780 S 3260.37 3.67388 2.39941 0
M  V30 30781 H 3257.19 0.648172 0.292222 0
M  V30 30782 H 3259.79 1.95041 0.133914 0
M  V30 30783 H 3258.49 3.99163 0.953799 0
M  V30 30784 H 3258.02 3.1065 2.41372 0
M  V30 30785 H 3260.04 3.36134 3.65005 0
M  V30 30786 N 3259.21 -0.42264 1.51827 0
M  V30 30787 C 3260.12 -1.53896 1.77069 0
M  V30 30788 C 3261.14 -1.61178 0.65557 0
M  V30 30789 O 3262.31 -1.78145 0.939479 0
M  V30 30790 C 3259.38 -2.89754 1.90377 0
M  V30 30791 C 3258.44 -2.92469 3.14262 0
M  V30 30792 C 3257.67 -4.21848 3.26926 0
M  V30 30793 O 3257.89 -5.15021 2.45173 0
M  V30 30794 O 3256.83 -4.31145 4.19997 0
M  V30 30795 H 3260.65 -1.35506 2.71794 0
M  V30 30796 H 3258.24 -0.607141 1.36507 0
M  V30 30797 H 3260.12 -3.70357 2.01031 0
M  V30 30798 H 3258.8 -3.08241 0.988402 0
M  V30 30799 H 3257.7 -2.10768 3.09075 0
M  V30 30800 H 3259.04 -2.7893 4.05535 0
M  V30 30801 N 3260.69 -1.42222 -0.679027 0
M  V30 30802 C 3261.6 -1.47762 -1.82218 0
M  V30 30803 C 3262.61 -0.36673 -1.70091 0
M  V30 30804 O 3263.79 -0.61699 -1.91716 0
M  V30 30805 C 3260.86 -1.37357 -3.1833 0
M  V30 30806 C 3259.92 -2.58902 -3.42444 0
M  V30 30807 C 3259.15 -2.48984 -4.72062 0
M  V30 30808 O 3259.37 -1.5234 -5.49681 0
M  V30 30809 O 3258.31 -3.39042 -4.97327 0
M  V30 30810 H 3262.13 -2.44241 -1.805 0
M  V30 30811 H 3259.72 -1.23939 -0.834229 0
M  V30 30812 H 3261.6 -1.339 -3.99561 0
M  V30 30813 H 3260.27 -0.440021 -3.20695 0
M  V30 30814 H 3259.18 -2.67934 -2.61079 0
M  V30 30815 H 3260.51 -3.51142 -3.44906 0
M  V30 30816 N 3262.17 0.91492 -1.28324 0
M  V30 30817 C 3263.41 1.66065 -1.15182 0
M  V30 30818 C 3263.74 1.92675 0.300245 0
M  V30 30819 O 3263.01 1.54207 1.20818 0
M  V30 30820 H 3261.59 0.615506 -0.423275 0
M  V30 30821 H 3264.25 1.09789 -1.61036 0
M  V30 30822 H 3263.34 2.6235 -1.69053 0
M  V30 30823 N 3263.64 1.10553 1.1232 0
M  V30 30824 C 3264.89 0.859859 1.84331 0
M  V30 30825 C 3265.25 -0.60802 1.8254 0
M  V30 30826 O 3264.54 -1.44265 1.26088 0
M  V30 30827 C 3264.73 1.3438 3.31175 0
M  V30 30828 C 3264.56 2.8572 3.47267 0
M  V30 30829 C 3263.33 3.53736 3.60831 0
M  V30 30830 C 3265.53 3.83817 3.42329 0
M  V30 30831 N 3263.51 4.93385 3.65301 0
M  V30 30832 C 3264.88 5.09483 3.53309 0
M  V30 30833 C 3266.94 3.76507 3.25802 0
M  V30 30834 C 3265.64 6.28702 3.49466 0
M  V30 30835 C 3267.67 4.95226 3.23273 0
M  V30 30836 C 3267.03 6.19741 3.34815 0
M  V30 30837 H 3263.13 0.367663 0.690179 0
M  V30 30838 H 3265.71 1.40813 1.34461 0
M  V30 30839 H 3263.88 0.822833 3.79584 0
M  V30 30840 H 3265.61 1.04224 3.91049 0
M  V30 30841 H 3262.37 3.04184 3.63 0
M  V30 30842 H 3262.79 5.66164 3.71197 0
M  V30 30843 H 3267.44 2.81154 3.15772 0
M  V30 30844 H 3265.15 7.24341 3.58267 0
M  V30 30845 H 3268.74 4.9128 3.11665 0
M  V30 30846 H 3267.62 7.10064 3.32834 0
M  V30 30847 N 3265.12 -1.29758 0.894457 0
M  V30 30848 C 3266.07 -2.29828 0.357999 0
M  V30 30849 C 3267.06 -1.6056 -0.540065 0
M  V30 30850 O 3268.27 -1.74948 -0.423447 0
M  V30 30851 H 3264.65 -0.745701 0.0971314 0
M  V30 30852 H 3266.62 -2.72523 1.21547 0
M  V30 30853 C 3265.37 -3.45344 -0.404065 0
M  V30 30854 H 3264.69 -3.98834 0.277741 0
M  V30 30855 H 3266.13 -4.17415 -0.744372 0
M  V30 30856 C 3264.59 -2.96225 -1.60475 0
M  V30 30857 O 3265.12 -2.97056 -2.70408 0
M  V30 30858 N 3263.32 -2.5212 -1.44513 0
M  V30 30859 H 3262.87 -2.51643 -0.550776 0
M  V30 30860 H 3262.83 -2.19614 -2.24983 0
M  V30 30861 N 3266.6 -0.65639 -1.4328 0
M  V30 30862 C 3267.55 0.0332749 -2.30776 0
M  V30 30863 C 3268.52 0.811468 -1.44929 0
M  V30 30864 O 3269.7 0.787434 -1.73793 0
M  V30 30865 C 3266.84 0.991508 -3.3055 0
M  V30 30866 C 3265.96 0.209083 -4.31494 0
M  V30 30867 C 3265.09 1.1614 -5.18348 0
M  V30 30868 C 3264.13 0.369592 -6.10983 0
M  V30 30869 N 3263.27 1.27366 -6.90451 0
M  V30 30870 H 3268.11 -0.718718 -2.89203 0
M  V30 30871 H 3265.64 -0.366186 -1.42469 0
M  V30 30872 H 3267.6 1.56071 -3.86908 0
M  V30 30873 H 3266.23 1.71034 -2.73765 0
M  V30 30874 H 3265.28 -0.47646 -3.77404 0
M  V30 30875 H 3266.6 -0.406481 -4.97141 0
M  V30 30876 H 3265.75 1.80114 -5.79348 0
M  V30 30877 H 3264.49 1.81087 -4.52834 0
M  V30 30878 H 3263.49 -0.283474 -5.49069 0
M  V30 30879 H 3264.72 -0.275519 -6.78541 0
M  V30 30880 H 3262.66 1.90988 -6.27582 0
M  V30 30881 H 3262.58 0.712738 -7.52633 0
M  V30 30882 H 3263.85 1.90145 -7.55953 0
M  V30 30883 N 3268.08 1.52478 -0.398513 0
M  V30 30884 C 3269.31 2.05812 0.180259 0
M  V30 30885 C 3269.72 1.26936 1.40299 0
M  V30 30886 O 3269.06 0.311575 1.81038 0
M  V30 30887 C 3269.12 3.54356 0.605948 0
M  V30 30888 C 3268.79 4.54206 -0.504588 0
M  V30 30889 C 3269.78 5.01665 -1.36487 0
M  V30 30890 C 3267.47 4.97754 -0.674248 0
M  V30 30891 C 3269.46 5.91305 -2.37986 0
M  V30 30892 C 3267.15 5.87193 -1.69256 0
M  V30 30893 C 3268.15 6.33862 -2.54378 0
M  V30 30894 O 3267.84 7.21532 -3.54467 0
M  V30 30895 H 3267.57 0.675394 0.0286277 0
M  V30 30896 H 3270.12 1.97478 -0.564947 0
M  V30 30897 H 3268.35 3.6034 1.40327 0
M  V30 30898 H 3270.04 3.90387 1.11143 0
M  V30 30899 H 3270.81 4.68744 -1.24515 0
M  V30 30900 H 3266.69 4.60995 -0.0213839 0
M  V30 30901 H 3270.23 6.27654 -3.04461 0
M  V30 30902 H 3266.13 6.19527 -1.81263 0
M  V30 30903 H 3266.89 7.39617 -3.50584 0
M  V30 30904 N 3269.56 0.128608 1.57074 0
M  V30 30905 C 3270.49 -0.84867 2.12909 0
M  V30 30906 C 3271.5 -1.22341 1.07408 0
M  V30 30907 O 3272.69 -1.17069 1.34748 0
M  V30 30908 C 3269.79 -2.14755 2.62171 0
M  V30 30909 C 3268.96 -1.94302 3.91874 0
M  V30 30910 C 3268.02 -3.08008 4.26635 0
M  V30 30911 O 3267.05 -2.80502 4.95285 0
M  V30 30912 N 3268.25 -4.347 3.84729 0
M  V30 30913 H 3271.02 -0.371584 2.97388 0
M  V30 30914 H 3268.58 -0.055529 1.61805 0
M  V30 30915 H 3270.57 -2.89836 2.82449 0
M  V30 30916 H 3269.14 -2.53783 1.82519 0
M  V30 30917 H 3268.36 -1.03361 3.80408 0
M  V30 30918 H 3269.65 -1.77953 4.76666 0
M  V30 30919 H 3269.05 -4.5992 3.29378 0
M  V30 30920 H 3267.6 -5.0662 4.10096 0
M  V30 30921 N 3271.04 -1.5693 -0.145178 0
M  V30 30922 C 3272.28 -1.83086 -0.85579 0
M  V30 30923 C 3272.6 -0.709779 -1.81624 0
M  V30 30924 O 3271.87 0.268422 -1.94052 0
M  V30 30925 H 3270.45 -0.675452 -0.31902 0
M  V30 30926 H 3273.12 -1.94406 -0.138746 0
M  V30 30927 H 3272.21 -2.78082 -1.41693 0
M  V30 30928 N 3272.51 0.414582 -1.52049 0
M  V30 30929 C 3273.46 1.50373 -1.71383 0
M  V30 30930 C 3274.45 1.50552 -0.567719 0
M  V30 30931 O 3275.64 1.5662 -0.824569 0
M  V30 30932 C 3272.77 2.88355 -1.86296 0
M  V30 30933 C 3271.85 2.92845 -3.06762 0
M  V30 30934 N 3272.25 2.6704 -4.29562 0
M  V30 30935 C 3270.54 3.24012 -3.06483 0
M  V30 30936 C 3271.24 2.77959 -5.10993 0
M  V30 30937 N 3270.22 3.10605 -4.46123 0
M  V30 30938 H 3274.02 1.29209 -2.63974 0
M  V30 30939 H 3271.54 0.622218 -1.50007 0
M  V30 30940 H 3273.53 3.66739 -1.98262 0
M  V30 30941 H 3272.19 3.10522 -0.949014 0
M  V30 30942 H 3273.2 2.41537 -4.58127 0
M  V30 30943 H 3269.88 3.51808 -2.24805 0
M  V30 30944 H 3271.27 2.61769 -6.18811 0
M  V30 30945 N 3273.99 1.4258 0.671475 0
M  V30 30946 C 3275.23 1.44715 1.4435 0
M  V30 30947 C 3275.6 0.0626965 1.91898 0
M  V30 30948 O 3276.8 -0.0412317 2.68768 0
M  V30 30949 C 3275.07 2.44573 2.60612 0
M  V30 30950 S 3276.63 2.65437 3.49412 0
M  V30 30951 H 3273.44 0.512343 0.492976 0
M  V30 30952 H 3276.05 1.79208 0.781318 0
M  V30 30953 H 3274.75 3.43927 2.23925 0
M  V30 30954 H 3274.28 2.11516 3.317 0
M  V30 30955 H 3276.3 1.93988 4.56709 0
M  V30 30956 N 3275.47 -0.908102 1.28807 0
M  V30 30957 C 3276.7 -1.68898 1.18983 0
M  V30 30958 C 3277.11 -1.87497 -0.253301 0
M  V30 30959 O 3276.45 -1.40586 -1.18242 0
M  V30 30960 C 3276.51 -3.09867 1.82271 0
M  V30 30961 C 3276.18 -3.14532 3.3154 0
M  V30 30962 C 3277.17 -2.95306 4.27891 0
M  V30 30963 C 3274.86 -3.36866 3.72595 0
M  V30 30964 C 3276.85 -2.98333 5.63273 0
M  V30 30965 C 3274.54 -3.39525 5.08101 0
M  V30 30966 C 3275.54 -3.2028 6.03249 0
M  V30 30967 O 3275.23 -3.22711 7.36283 0
M  V30 30968 H 3274.96 -0.534566 0.413781 0
M  V30 30969 H 3277.51 -1.14461 1.70552 0
M  V30 30970 H 3275.74 -3.6587 1.25204 0
M  V30 30971 H 3277.43 -3.70005 1.66886 0
M  V30 30972 H 3278.2 -2.77872 3.97507 0
M  V30 30973 H 3274.08 -3.50889 2.98995 0
M  V30 30974 H 3277.62 -2.8323 6.37516 0
M  V30 30975 H 3273.52 -3.56488 5.38133 0
M  V30 30976 H 3274.28 -3.39035 7.44982 0
M  V30 30977 N 3276.95 -1.11147 -1.11732 0
M  V30 30978 C 3278.36 -0.84476 -1.3541 0
M  V30 30979 C 3278.56 0.532077 -1.94348 0
M  V30 30980 O 3277.62 1.2835 -2.17446 0
M  V30 30981 C 3278.93 -1.95041 -2.28866 0
M  V30 30982 C 3280.48 -1.97972 -2.42438 0
M  V30 30983 C 3280.96 -3.07731 -3.39213 0
M  V30 30984 N 3282.45 -3.07086 -3.46775 0
M  V30 30985 C 3283.18 -3.88653 -4.21588 0
M  V30 30986 N 3282.68 -4.80176 -4.99403 0
M  V30 30987 N 3284.47 -3.76842 -4.17069 0
M  V30 30988 H 3276.62 -1.99883 -0.718377 0
M  V30 30989 H 3278.88 -0.869043 -0.378771 0
M  V30 30990 H 3278.59 -2.94179 -1.92747 0
M  V30 30991 H 3278.46 -1.84395 -3.29057 0
M  V30 30992 H 3280.85 -0.99461 -2.77834 0
M  V30 30993 H 3280.93 -2.12694 -1.4211 0
M  V30 30994 H 3280.58 -4.06466 -3.04546 0
M  V30 30995 H 3280.51 -2.90249 -4.39389 0
M  V30 30996 H 3283 -2.40773 -2.91268 0
M  V30 30997 H 3283.31 -5.38956 -5.53847 0
M  V30 30998 H 3281.66 -4.84199 -4.98574 0
M  V30 30999 H 3284.85 -3.04688 -3.55363 0
M  V30 31000 H 3285.02 -4.40645 -4.75117 0
M  V30 31001 N 3278.43 1.29282 -0.901326 0
M  V30 31002 C 3279.38 2.25273 -0.351602 0
M  V30 31003 C 3280.36 1.51947 0.529249 0
M  V30 31004 O 3281.55 1.73068 0.371001 0
M  V30 31005 C 3278.68 3.40741 0.41837 0
M  V30 31006 C 3277.77 4.21403 -0.477494 0
M  V30 31007 N 3278.16 4.80309 -1.58546 0
M  V30 31008 C 3276.46 4.45148 -0.275583 0
M  V30 31009 C 3277.16 5.40886 -2.1405 0
M  V30 31010 N 3276.13 5.24363 -1.43333 0
M  V30 31011 H 3279.93 2.68377 -1.19795 0
M  V30 31012 H 3277.45 1.43911 -0.752563 0
M  V30 31013 H 3279.45 4.08576 0.82895 0
M  V30 31014 H 3278.11 2.99173 1.26196 0
M  V30 31015 H 3279.12 4.79044 -1.96818 0
M  V30 31016 H 3275.79 4.14129 0.529508 0
M  V30 31017 H 3277.18 5.97568 -3.07184 0
M  V30 31018 N 3279.9 0.663979 1.4293 0
M  V30 31019 C 3281.15 0.181773 2.01683 0
M  V30 31020 C 3281.48 -1.20799 1.52439 0
M  V30 31021 O 3280.73 -1.82266 0.712572 0
M  V30 31022 C 3281.03 0.153226 3.57071 0
M  V30 31023 C 3280.7 1.48619 4.25703 0
M  V30 31024 C 3279.36 1.85119 4.44167 0
M  V30 31025 C 3281.71 2.36456 4.64476 0
M  V30 31026 C 3279.04 3.09101 4.98672 0
M  V30 31027 C 3281.39 3.59739 5.20356 0
M  V30 31028 C 3280.06 3.96422 5.37035 0
M  V30 31029 H 3279.33 0.0665155 0.738009 0
M  V30 31030 H 3281.97 0.856822 1.71262 0
M  V30 31031 H 3280.28 -0.605304 3.87096 0
M  V30 31032 H 3281.98 -0.236911 4.003 0
M  V30 31033 H 3278.57 1.19222 4.11684 0
M  V30 31034 H 3282.75 2.09544 4.49894 0
M  V30 31035 H 3278.01 3.37556 5.0977 0
M  V30 31036 H 3282.18 4.28011 5.49345 0
M  V30 31037 H 3279.81 4.92569 5.79033 0
M  V30 31038 N 3281.38 -1.52265 0.406593 0
M  V30 31039 C 3282.79 -1.86592 -0.0635742 0
M  V30 31040 C 3283.14 -1.32547 -1.44657 0
M  V30 31041 O 3282.27 -0.663728 -2.0597 0
M  V30 31042 C 3282.86 -3.3858 -0.122138 0
M  V30 31043 C 3281.42 -3.72555 -0.536636 0
M  V30 31044 C 3280.57 -2.75774 0.29047 0
M  V30 31045 H 3283.52 -1.45928 0.623764 0
M  V30 31046 H 3283.54 -3.6876 -0.937899 0
M  V30 31047 H 3283.05 -3.77885 0.884561 0
M  V30 31048 H 3281.15 -3.38827 -1.55007 0
M  V30 31049 H 3281.27 -4.78265 -0.282783 0
M  V30 31050 H 3279.63 -2.53501 -0.246819 0
M  V30 31051 H 3280.41 -3.17919 1.29547 0
M  V30 31052 N 3282.86 -0.136936 -1.57004 0
M  V30 31053 C 3284.14 0.5612 -1.87376 0
M  V30 31054 C 3284.52 1.83636 -1.0412 0
M  V30 31055 O 3283.87 2.28157 -0.125143 0
M  V30 31056 C 3284.08 0.836367 -3.3883 0
M  V30 31057 C 3285.42 1.18157 -4.07828 0
M  V30 31058 O 3286.45 0.92605 -3.43952 0
M  V30 31059 O 3285.31 1.66195 -5.20616 0
M  V30 31060 H 3282.4 0.285131 -0.776292 0
M  V30 31061 H 3284.95 -0.172791 -1.68818 0
M  V30 31062 H 3283.72 -0.0665108 -3.91243 0
M  V30 31063 H 3283.34 1.62489 -3.62882 0
M  V30 31064 N 3284.34 1.57005 0.136853 0
M  V30 31065 C 3285.75 1.51897 0.48983 0
M  V30 31066 C 3285.95 0.847042 1.82832 0
M  V30 31067 O 3285.01 0.421836 2.48951 0
M  V30 31068 C 3286.32 2.96668 0.490779 0
M  V30 31069 C 3287.87 3.07662 0.575585 0
M  V30 31070 C 3288.35 4.53958 0.607098 0
M  V30 31071 N 3289.84 4.58343 0.669039 0
M  V30 31072 C 3290.57 5.6893 0.714575 0
M  V30 31073 N 3290.07 6.89061 0.718838 0
M  V30 31074 N 3291.86 5.5699 0.756228 0
M  V30 31075 H 3284.01 1.99078 -0.740382 0
M  V30 31076 H 3286.28 0.9084 -0.271132 0
M  V30 31077 H 3285.98 3.49126 -0.42471 0
M  V30 31078 H 3285.86 3.5316 1.32505 0
M  V30 31079 H 3288.24 2.55217 1.48149 0
M  V30 31080 H 3288.32 2.54196 -0.286036 0
M  V30 31081 H 3287.97 5.07044 -0.294693 0
M  V30 31082 H 3287.9 5.05218 1.48535 0
M  V30 31083 H 3290.39 3.71866 0.672632 0
M  V30 31084 H 3290.7 7.69096 0.755713 0
M  V30 31085 H 3289.05 6.91601 0.686549 0
M  V30 31086 H 3292.24 4.6205 0.750137 0
M  V30 31087 H 3292.41 6.43188 0.78825 0
M  V30 31088 N 3285.82 -0.406513 1.52267 0
M  V30 31089 C 3286.73 -1.52009 1.78691 0
M  V30 31090 C 3287.74 -1.60473 0.672628 0
M  V30 31091 O 3288.92 -1.77139 0.958321 0
M  V30 31092 C 3285.98 -2.87719 1.93439 0
M  V30 31093 C 3285.04 -2.89119 3.17346 0
M  V30 31094 C 3284.28 -4.18356 3.31381 0
M  V30 31095 O 3284.5 -5.12391 2.50622 0
M  V30 31096 O 3283.43 -4.26666 4.24546 0
M  V30 31097 H 3287.26 -1.32615 2.73216 0
M  V30 31098 H 3284.85 -0.592629 1.37143 0
M  V30 31099 H 3286.73 -3.68204 2.04948 0
M  V30 31100 H 3285.4 -3.07175 1.02104 0
M  V30 31101 H 3284.31 -2.07478 3.11294 0
M  V30 31102 H 3285.64 -2.74613 4.08471 0
M  V30 31103 N 3287.29 -1.42934 -0.663904 0
M  V30 31104 C 3288.52 -1.47403 -1.45189 0
M  V30 31105 C 3288.94 -0.0886345 -1.88592 0
M  V30 31106 O 3288.29 0.898934 -1.58825 0
M  V30 31107 C 3288.35 -2.41064 -2.69389 0
M  V30 31108 O 3288.07 -3.74214 -2.27805 0
M  V30 31109 C 3289.57 -2.54665 -3.62851 0
M  V30 31110 H 3286.79 -0.500981 -0.446385 0
M  V30 31111 H 3289.33 -1.87565 -0.814843 0
M  V30 31112 H 3287.49 -2.04126 -3.29259 0
M  V30 31113 H 3287.9 -4.24479 -3.08087 0
M  V30 31114 H 3289.37 -3.24299 -4.46693 0
M  V30 31115 H 3289.85 -1.58807 -4.09484 0
M  V30 31116 H 3290.46 -2.9237 -3.08869 0
M  V30 31117 N 3288.77 0.901258 -1.29287 0
M  V30 31118 C 3290.02 1.65422 -1.18351 0
M  V30 31119 C 3290.37 1.90598 0.262726 0
M  V30 31120 O 3289.67 1.5042 1.18677 0
M  V30 31121 C 3289.86 3.00892 -1.9287 0
M  V30 31122 C 3289.69 2.88939 -3.44593 0
M  V30 31123 C 3288.46 2.89791 -4.13943 0
M  V30 31124 C 3290.66 2.66084 -4.40118 0
M  V30 31125 N 3288.64 2.68559 -5.52041 0
M  V30 31126 C 3290.01 2.53817 -5.65665 0
M  V30 31127 C 3292.07 2.51179 -4.29899 0
M  V30 31128 C 3290.77 2.28163 -6.82154 0
M  V30 31129 C 3292.79 2.26908 -5.46138 0
M  V30 31130 C 3292.16 2.15404 -6.70657 0
M  V30 31131 H 3288.26 0.610992 -0.488071 0
M  V30 31132 H 3290.84 1.06338 -1.63096 0
M  V30 31133 H 3289.01 3.58039 -1.50541 0
M  V30 31134 H 3290.74 3.65283 -1.74214 0
M  V30 31135 H 3287.5 3.01017 -3.65631 0
M  V30 31136 H 3287.92 2.61 -6.24666 0
M  V30 31137 H 3292.56 2.58817 -3.34326 0
M  V30 31138 H 3290.28 2.19263 -7.77785 0
M  V30 31139 H 3293.87 2.16221 -5.40129 0
M  V30 31140 H 3292.75 1.96882 -7.59083 0
M  V30 31141 N 3290.25 1.11738 1.11141 0
M  V30 31142 C 3291.5 0.869445 1.83217 0
M  V30 31143 C 3291.83 -0.603369 1.84589 0
M  V30 31144 O 3291.1 -1.44563 1.30122 0
M  V30 31145 C 3291.39 1.43564 3.30244 0
M  V30 31146 C 3291.24 2.9763 3.37248 0
M  V30 31147 C 3292.56 1.08915 4.2641 0
M  V30 31148 H 3289.68 0.317298 0.6652 0
M  V30 31149 H 3292.32 1.38278 1.30304 0
M  V30 31150 H 3290.47 0.999044 3.75435 0
M  V30 31151 H 3292.14 3.49916 3.00593 0
M  V30 31152 H 3290.39 3.33537 2.77373 0
M  V30 31153 H 3291.06 3.32336 4.40746 0
M  V30 31154 H 3293.53 1.46611 3.89416 0
M  V30 31155 H 3292.41 1.51204 5.27663 0
M  V30 31156 H 3292.67 0.000336719 4.421 0
M  V30 31157 N 3291.73 -1.28802 0.90817 0
M  V30 31158 C 3293.01 -1.90172 0.457595 0
M  V30 31159 C 3293.39 -1.82366 -1.06329 0
M  V30 31160 O 3292.73 -1.25592 -1.9089 0
M  V30 31161 C 3292.94 -3.34909 0.981683 0
M  V30 31162 C 3294.29 -4.11907 1.03044 0
M  V30 31163 O 3295.32 -3.43847 0.929938 0
M  V30 31164 O 3294.17 -5.3355 1.18266 0
M  V30 31165 H 3291.27 -0.81435 0.144095 0
M  V30 31166 H 3293.81 -1.37209 0.998589 0
M  V30 31167 H 3292.59 -3.34787 2.02567 0
M  V30 31168 H 3292.21 -3.95363 0.421191 0
M  V30 31169 N 3293.21 -0.67155 -1.42576 0
M  V30 31170 C 3294.17 -0.000432769 -2.292 0
M  V30 31171 C 3295.17 0.732268 -1.43159 0
M  V30 31172 O 3296.36 0.57076 -1.64584 0
M  V30 31173 C 3293.49 1.01007 -3.25592 0
M  V30 31174 H 3294.68 -0.762834 -2.90036 0
M  V30 31175 H 3292.24 -0.433729 -1.50162 0
M  V30 31176 H 3292.97 1.80107 -2.69688 0
M  V30 31177 H 3292.76 0.488115 -3.8905 0
M  V30 31178 H 3294.25 1.47817 -3.90563 0
M  V30 31179 N 3294.68 1.52047 -0.414663 0
M  V30 31180 C 3295.59 2.30903 0.41482 0
M  V30 31181 C 3296.61 1.3886 1.04852 0
M  V30 31182 O 3297.79 1.71934 1.04883 0
M  V30 31183 C 3294.85 3.1192 1.5135 0
M  V30 31184 C 3293.91 4.19711 0.902285 0
M  V30 31185 C 3293.15 4.96855 1.94861 0
M  V30 31186 O 3293.37 4.74363 3.16758 0
M  V30 31187 O 3292.3 5.81553 1.55176 0
M  V30 31188 H 3296.13 3.02841 -0.228304 0
M  V30 31189 H 3293.71 1.48339 -0.17773 0
M  V30 31190 H 3295.6 3.62355 2.15121 0
M  V30 31191 H 3294.27 2.42771 2.14112 0
M  V30 31192 H 3293.18 3.7341 0.227144 0
M  V30 31193 H 3294.51 4.91168 0.318501 0
M  V30 31194 N 3296.16 0.145261 1.56929 0
M  V30 31195 C 3297.58 -0.211166 1.58197 0
M  V30 31196 C 3297.78 -1.64801 1.15944 0
M  V30 31197 O 3296.83 -2.37442 0.85893 0
M  V30 31198 C 3298.15 0.0460097 3.00665 0
M  V30 31199 C 3299.7 -0.0178363 3.12995 0
M  V30 31200 C 3300.17 0.211985 4.57509 0
M  V30 31201 N 3301.66 0.158853 4.62928 0
M  V30 31202 C 3302.4 0.311212 5.72555 0
M  V30 31203 N 3301.89 0.521196 6.90837 0
M  V30 31204 N 3303.69 0.248937 5.61548 0
M  V30 31205 H 3295.84 1.08345 1.82688 0
M  V30 31206 H 3298.1 0.428746 0.845506 0
M  V30 31207 H 3297.81 1.04036 3.3596 0
M  V30 31208 H 3297.68 -0.674181 3.71126 0
M  V30 31209 H 3300.07 -1.00273 2.77541 0
M  V30 31210 H 3300.15 0.734655 2.45023 0
M  V30 31211 H 3299.79 1.19397 4.93667 0
M  V30 31212 H 3299.72 -0.560809 5.23605 0
M  V30 31213 H 3302.21 0.00113926 3.779 0
M  V30 31214 H 3302.53 0.627606 7.70247 0
M  V30 31215 H 3300.87 0.557496 6.9276 0
M  V30 31216 H 3304.06 0.0856644 4.68022 0
M  V30 31217 H 3304.23 0.37111 6.46936 0
M  V30 31218 N 3297.64 -1.57075 -0.128525 0
M  V30 31219 C 3299.06 -1.52155 -0.481767 0
M  V30 31220 C 3299.26 -0.856726 -1.8238 0
M  V30 31221 O 3298.31 -0.435033 -2.48724 0
M  V30 31222 C 3299.63 -2.96924 -0.475039 0
M  V30 31223 C 3301.17 -3.07963 -0.559261 0
M  V30 31224 C 3301.65 -4.54274 -0.583015 0
M  V30 31225 N 3303.14 -4.58691 -0.644723 0
M  V30 31226 C 3303.88 -5.69301 -0.684393 0
M  V30 31227 N 3303.37 -6.89432 -0.682285 0
M  V30 31228 N 3305.16 -5.57383 -0.726679 0
M  V30 31229 H 3297.32 -1.98683 0.750929 0
M  V30 31230 H 3299.58 -0.90695 0.275946 0
M  V30 31231 H 3299.28 -3.48896 0.443219 0
M  V30 31232 H 3299.16 -3.53858 -1.30631 0
M  V30 31233 H 3301.55 -2.55999 -1.46794 0
M  V30 31234 H 3301.63 -2.5404 0.299513 0
M  V30 31235 H 3301.27 -5.06881 0.321579 0
M  V30 31236 H 3301.2 -5.05998 -1.45854 0
M  V30 31237 H 3303.69 -3.72217 -0.652901 0
M  V30 31238 H 3304 -7.69486 -0.714915 0
M  V30 31239 H 3302.35 -6.91955 -0.649863 0
M  V30 31240 H 3305.54 -4.62442 -0.725623 0
M  V30 31241 H 3305.71 -6.43597 -0.754129 0
M  V30 31242 N 3299.12 0.398432 -1.5248 0
M  V30 31243 C 3300.36 1.15343 -1.68746 0
M  V30 31244 C 3300.72 1.87488 -0.413772 0
M  V30 31245 O 3301.92 2.64961 -0.45267 0
M  V30 31246 C 3300.2 2.11306 -2.88244 0
M  V30 31247 S 3301.75 2.9477 -3.25048 0
M  V30 31248 H 3298.57 0.390588 -0.594106 0
M  V30 31249 H 3301.17 0.439195 -1.90503 0
M  V30 31250 H 3299.88 1.5701 -3.79178 0
M  V30 31251 H 3299.41 2.87253 -2.68792 0
M  V30 31252 H 3301.42 4.13356 -2.74502 0
M  V30 31253 N 3300.6 1.43284 0.656314 0
M  V30 31254 C 3302.01 1.26616 0.971623 0
M  V30 31255 C 3302.21 0.183647 2.00661 0
M  V30 31256 O 3301.27 -0.43896 2.48655 0
M  V30 31257 C 3302.58 2.62942 1.45883 0
M  V30 31258 C 3304.13 2.70449 1.57564 0
M  V30 31259 C 3304.61 4.07185 2.09677 0
M  V30 31260 N 3306.1 4.09234 2.16984 0
M  V30 31261 C 3306.83 5.11865 2.58421 0
M  V30 31262 N 3306.33 6.24872 2.99177 0
M  V30 31263 N 3308.12 4.9922 2.58334 0
M  V30 31264 H 3300.27 2.12381 -0.0286104 0
M  V30 31265 H 3302.53 0.946692 0.0497751 0
M  V30 31266 H 3302.24 3.43105 0.772762 0
M  V30 31267 H 3302.11 2.88126 2.4344 0
M  V30 31268 H 3304.5 1.9062 2.25273 0
M  V30 31269 H 3304.58 2.49033 0.584485 0
M  V30 31270 H 3304.23 4.87479 1.42571 0
M  V30 31271 H 3304.16 4.25963 3.09618 0
M  V30 31272 H 3306.65 3.27661 1.88272 0
M  V30 31273 H 3306.96 6.99018 3.29536 0
M  V30 31274 H 3305.31 6.28349 2.96989 0
M  V30 31275 H 3308.5 4.10002 2.25868 0
M  V30 31276 H 3308.67 5.79333 2.90305 0
M  V30 31277 N 3302.08 -0.894389 1.29763 0
M  V30 31278 C 3302.99 -2.03202 1.17244 0
M  V30 31279 C 3304 -1.73743 0.0944757 0
M  V30 31280 O 3305.18 -1.99037 0.307584 0
M  V30 31281 C 3302.24 -3.3598 0.855475 0
M  V30 31282 C 3301.3 -3.78922 2.01783 0
M  V30 31283 C 3300.54 -5.05364 1.7159 0
M  V30 31284 O 3300.76 -5.66806 0.639345 0
M  V30 31285 O 3299.69 -5.44487 2.56549 0
M  V30 31286 H 3303.52 -2.16688 2.12791 0
M  V30 31287 H 3301.1 -1.01889 1.09266 0
M  V30 31288 H 3302.99 -4.15654 0.693502 0
M  V30 31289 H 3301.66 -3.23624 -0.0701626 0
M  V30 31290 H 3300.57 -2.99992 2.23508 0
M  V30 31291 H 3301.9 -3.9587 2.92486 0
M  V30 31292 N 3303.55 -1.12326 -1.10547 0
M  V30 31293 C 3304.49 -0.747864 -2.16656 0
M  V30 31294 C 3305.5 0.224952 -1.61238 0
M  V30 31295 O 3306.69 0.0064627 -1.78499 0
M  V30 31296 C 3303.79 -0.0860017 -3.38791 0
M  V30 31297 C 3302.96 -1.08799 -4.23653 0
M  V30 31298 C 3302.02 -0.453964 -5.24238 0
M  V30 31299 O 3301.05 -1.11062 -5.5826 0
M  V30 31300 N 3302.25 0.779114 -5.75248 0
M  V30 31301 H 3305.01 -1.66088 -2.49469 0
M  V30 31302 H 3302.57 -1.01471 -1.26155 0
M  V30 31303 H 3304.57 0.350115 -4.03183 0
M  V30 31304 H 3303.14 0.729754 -3.03963 0
M  V30 31305 H 3302.36 -1.70177 -3.55575 0
M  V30 31306 H 3303.64 -1.76558 -4.77184 0
M  V30 31307 H 3303.04 1.33161 -5.49804 0
M  V30 31308 H 3301.6 1.15807 -6.4143 0
M  V30 31309 N 3305.03 1.28319 -0.914988 0
M  V30 31310 C 3305.96 2.26329 -0.361617 0
M  V30 31311 C 3306.98 1.54912 0.500609 0
M  V30 31312 O 3308.17 1.75693 0.315289 0
M  V30 31313 C 3305.27 3.35167 0.501634 0
M  V30 31314 C 3304.44 4.36089 -0.338366 0
M  V30 31315 C 3303.5 5.24184 0.460174 0
M  V30 31316 O 3302.52 5.69057 -0.127694 0
M  V30 31317 N 3303.73 5.53083 1.76293 0
M  V30 31318 H 3306.49 2.74449 -1.20407 0
M  V30 31319 H 3304.05 1.41813 -0.781067 0
M  V30 31320 H 3306.04 3.91039 1.04261 0
M  V30 31321 H 3304.61 2.86746 1.2448 0
M  V30 31322 H 3303.83 3.79661 -1.06071 0
M  V30 31323 H 3305.12 5.0054 -0.913084 0
M  V30 31324 H 3304.52 5.18462 2.26305 0
M  V30 31325 H 3303.08 6.11708 2.2507 0
M  V30 31326 N 3306.51 0.679102 1.42218 0
M  V30 31327 C 3307.73 0.210133 2.06333 0
M  V30 31328 C 3308.16 -1.1256 1.50705 0
M  V30 31329 O 3307.52 -1.70103 0.627271 0
M  V30 31330 C 3307.57 0.160386 3.60243 0
M  V30 31331 O 3306.67 -0.869801 4.03123 0
M  V30 31332 H 3306.01 0.106765 0.65536 0
M  V30 31333 H 3308.54 0.929326 1.82276 0
M  V30 31334 H 3308.55 -0.0143123 4.07997 0
M  V30 31335 H 3307.23 1.13533 4.00104 0
M  V30 31336 H 3305.8 -0.665796 3.66908 0
M  V30 31337 N 3307.99 -1.51825 0.42272 0
M  V30 31338 C 3308.94 -2.24216 -0.413686 0
M  V30 31339 C 3309.92 -1.25872 -1.00226 0
M  V30 31340 O 3311.11 -1.5104 -0.922819 0
M  V30 31341 C 3308.24 -3.07698 -1.52239 0
M  V30 31342 C 3307.33 -4.13462 -0.943927 0
M  V30 31343 N 3307.72 -5.05714 -0.0933228 0
M  V30 31344 C 3306.02 -4.29187 -1.21304 0
M  V30 31345 C 3306.72 -5.81245 0.229993 0
M  V30 31346 N 3305.69 -5.42251 -0.382658 0
M  V30 31347 H 3309.5 -2.92899 0.242334 0
M  V30 31348 H 3307.01 -1.60706 0.23393 0
M  V30 31349 H 3309.01 -3.58124 -2.13431 0
M  V30 31350 H 3307.67 -2.40556 -2.18089 0
M  V30 31351 H 3308.68 -5.17185 0.272023 0
M  V30 31352 H 3305.36 -3.73273 -1.87012 0
M  V30 31353 H 3306.75 -6.65554 0.921276 0
M  V30 31354 N 3309.47 -0.153581 -1.5685 0
M  V30 31355 C 3310.4 0.779562 -2.20102 0
M  V30 31356 C 3311.38 1.25223 -1.15123 0
M  V30 31357 O 3312.56 1.3086 -1.4349 0
M  V30 31358 C 3309.69 2.01623 -2.82782 0
M  V30 31359 C 3308.65 1.68009 -3.93646 0
M  V30 31360 C 3307.97 2.98993 -4.43291 0
M  V30 31361 C 3309.27 0.921684 -5.14103 0
M  V30 31362 H 3310.97 0.25238 -2.98334 0
M  V30 31363 H 3308.51 0.11995 -1.435 0
M  V30 31364 H 3310.46 2.67389 -3.25701 0
M  V30 31365 H 3309.19 2.56724 -2.01891 0
M  V30 31366 H 3307.85 1.04618 -3.51356 0
M  V30 31367 H 3307.5 3.52099 -3.59215 0
M  V30 31368 H 3307.2 2.77263 -5.18072 0
M  V30 31369 H 3308.72 3.6582 -4.88885 0
M  V30 31370 H 3310.13 1.48157 -5.53825 0
M  V30 31371 H 3308.53 0.80408 -5.94689 0
M  V30 31372 H 3309.6 -0.085361 -4.84825 0
M  V30 31373 N 3310.94 1.57141 0.120193 0
M  V30 31374 C 3312.17 1.89346 0.846337 0
M  V30 31375 C 3312.59 0.745395 1.72701 0
M  V30 31376 O 3311.95 -0.304123 1.78731 0
M  V30 31377 C 3312 3.20292 1.65666 0
M  V30 31378 O 3311.1 3.06114 2.76348 0
M  V30 31379 H 3310.44 0.621356 0.234121 0
M  V30 31380 H 3312.97 2.04341 0.10295 0
M  V30 31381 H 3312.98 3.52983 2.04615 0
M  V30 31382 H 3311.66 4.03446 1.01016 0
M  V30 31383 H 3310.24 2.84888 2.4061 0
M  V30 31384 N 3312.42 -0.39034 1.5269 0
M  V30 31385 C 3313.65 -1.16126 1.71841 0
M  V30 31386 C 3314.07 -1.82995 0.435258 0
M  V30 31387 O 3313.43 -1.70771 -0.60886 0
M  V30 31388 C 3313.48 -2.18598 2.86788 0
M  V30 31389 O 3312.58 -3.25156 2.53668 0
M  V30 31390 H 3311.92 -0.338125 0.571461 0
M  V30 31391 H 3314.45 -0.455045 1.99476 0
M  V30 31392 H 3314.46 -2.62617 3.12244 0
M  V30 31393 H 3313.14 -1.69315 3.79875 0
M  V30 31394 H 3311.72 -2.86285 2.38947 0
M  V30 31395 N 3313.9 -1.4363 -0.648706 0
M  V30 31396 C 3315.15 -1.44771 -1.40443 0
M  V30 31397 C 3315.46 -0.0773788 -1.95447 0
M  V30 31398 O 3316.67 0.0337465 -2.71479 0
M  V30 31399 C 3315.12 -2.54786 -2.54189 0
M  V30 31400 C 3314.73 -3.97946 -2.05774 0
M  V30 31401 C 3316.48 -2.65126 -3.31524 0
M  V30 31402 C 3314.38 -4.99418 -3.16758 0
M  V30 31403 H 3313.31 -0.538554 -0.527708 0
M  V30 31404 H 3315.96 -1.69635 -0.699726 0
M  V30 31405 H 3314.35 -2.23131 -3.27152 0
M  V30 31406 H 3315.52 -4.39084 -1.39792 0
M  V30 31407 H 3313.84 -3.91691 -1.41306 0
M  V30 31408 H 3316.43 -3.38112 -4.14227 0
M  V30 31409 H 3316.78 -1.70347 -3.79852 0
M  V30 31410 H 3317.31 -2.96105 -2.65644 0
M  V30 31411 H 3314.05 -5.95765 -2.73394 0
M  V30 31412 H 3313.57 -4.62889 -3.81437 0
M  V30 31413 H 3315.25 -5.22326 -3.81817 0
M  V30 31414 N 3315.38 0.887495 -1.30236 0
M  V30 31415 C 3316.62 1.64151 -1.19089 0
M  V30 31416 C 3316.96 1.92527 0.254394 0
M  V30 31417 O 3316.23 1.5444 1.1823 0
M  V30 31418 C 3316.52 2.98292 -2.01728 0
M  V30 31419 C 3316.37 2.76905 -3.54463 0
M  V30 31420 C 3317.69 3.99183 -1.85314 0
M  V30 31421 H 3314.81 0.595678 -0.433977 0
M  V30 31422 H 3317.45 1.02717 -1.59841 0
M  V30 31423 H 3315.6 3.50727 -1.67102 0
M  V30 31424 H 3317.27 2.31277 -3.99135 0
M  V30 31425 H 3315.51 2.11457 -3.78772 0
M  V30 31426 H 3316.18 3.72276 -4.07571 0
M  V30 31427 H 3318.66 3.55899 -2.15581 0
M  V30 31428 H 3317.54 4.90956 -2.45465 0
M  V30 31429 H 3317.8 4.34586 -0.811604 0
M  V30 31430 N 3316.86 1.12911 1.0995 0
M  V30 31431 C 3318.08 0.910516 1.85788 0
M  V30 31432 C 3318.5 -0.540452 1.80899 0
M  V30 31433 O 3317.86 -1.37387 1.20129 0
M  V30 31434 C 3317.91 1.38335 3.33985 0
M  V30 31435 O 3317.63 2.77745 3.38806 0
M  V30 31436 C 3319.13 1.20241 4.26681 0
M  V30 31437 H 3316.35 0.325036 0.58702 0
M  V30 31438 H 3318.89 1.50032 1.38963 0
M  V30 31439 H 3317.05 0.836658 3.78258 0
M  V30 31440 H 3317.46 2.9861 4.31199 0
M  V30 31441 H 3318.94 1.58207 5.28843 0
M  V30 31442 H 3319.41 0.143517 4.38965 0
M  V30 31443 H 3320.02 1.73686 3.88218 0
M  V30 31444 N 3318.33 -1.27832 0.92178 0
M  V30 31445 C 3319.75 -1.76642 0.604527 0
M  V30 31446 C 3320.1 -1.75345 -0.880263 0
M  V30 31447 O 3319.22 -1.35318 -1.68873 0
M  V30 31448 C 3319.82 -3.20767 1.09061 0
M  V30 31449 C 3318.38 -3.67267 0.824131 0
M  V30 31450 C 3317.52 -2.4739 1.25274 0
M  V30 31451 H 3320.47 -1.14182 1.10219 0
M  V30 31452 H 3320.49 -3.77998 0.435625 0
M  V30 31453 H 3320.01 -3.21678 2.17128 0
M  V30 31454 H 3318.11 -3.71807 -0.24299 0
M  V30 31455 H 3318.22 -4.57026 1.43751 0
M  V30 31456 H 3316.58 -2.45693 0.671357 0
M  V30 31457 H 3317.37 -2.51016 2.34192 0
M  V30 31458 N 3319.81 -0.686634 -1.41856 0
M  V30 31459 C 3320.72 -0.0159418 -2.34595 0
M  V30 31460 C 3321.74 0.775905 -1.55742 0
M  V30 31461 O 3322.91 0.715517 -1.88261 0
M  V30 31462 C 3319.98 0.915414 -3.34397 0
M  V30 31463 C 3319.04 0.116775 -4.29141 0
M  V30 31464 C 3318.27 1.00377 -5.24176 0
M  V30 31465 O 3318.5 2.24331 -5.24435 0
M  V30 31466 O 3317.43 0.458232 -6.00153 0
M  V30 31467 H 3321.26 -0.780153 -2.93509 0
M  V30 31468 H 3318.84 -0.446921 -1.42559 0
M  V30 31469 H 3320.72 1.44974 -3.95677 0
M  V30 31470 H 3319.4 1.65927 -2.77939 0
M  V30 31471 H 3318.31 -0.461936 -3.71237 0
M  V30 31472 H 3319.64 -0.588223 -4.88672 0
M  V30 31473 N 3321.29 1.51599 -0.430766 0
M  V30 31474 C 3322.2 2.3133 0.390307 0
M  V30 31475 C 3323.22 1.39964 1.03374 0
M  V30 31476 O 3324.39 1.73037 1.03054 0
M  V30 31477 C 3321.46 3.13508 1.48033 0
M  V30 31478 C 3320.52 4.20644 0.857718 0
M  V30 31479 C 3319.75 4.98894 1.8958 0
M  V30 31480 O 3319.97 4.77696 3.11709 0
M  V30 31481 O 3318.91 5.83166 1.48999 0
M  V30 31482 H 3322.73 3.02581 -0.260411 0
M  V30 31483 H 3320.32 1.48142 -0.193454 0
M  V30 31484 H 3322.2 3.64616 2.11265 0
M  V30 31485 H 3320.88 2.45028 2.11525 0
M  V30 31486 H 3319.78 3.7363 0.187526 0
M  V30 31487 H 3321.12 4.91479 0.266388 0
M  V30 31488 N 3322.77 0.161897 1.56766 0
M  V30 31489 C 3323.7 -0.803318 2.14661 0
M  V30 31490 C 3324.71 -1.20035 1.09979 0
M  V30 31491 O 3325.9 -1.14184 1.37201 0
M  V30 31492 C 3323 -2.09146 2.66667 0
M  V30 31493 C 3322.18 -1.85947 3.95907 0
M  V30 31494 C 3321.23 -2.98889 4.33072 0
M  V30 31495 O 3320.26 -2.69933 5.01123 0
M  V30 31496 N 3321.46 -4.26441 3.93863 0
M  V30 31497 H 3324.23 -0.30842 2.98109 0
M  V30 31498 H 3321.79 -0.0211953 1.61886 0
M  V30 31499 H 3323.78 -2.83779 2.88533 0
M  V30 31500 H 3322.35 -2.49854 1.87861 0
M  V30 31501 H 3321.57 -0.952684 3.82515 0
M  V30 31502 H 3322.86 -1.67802 4.80333 0
M  V30 31503 H 3322.26 -4.5283 3.39059 0
M  V30 31504 H 3320.81 -4.97808 4.2075 0
M  V30 31505 N 3324.25 -1.57203 -0.111858 0
M  V30 31506 C 3325.16 -2.04167 -1.15556 0
M  V30 31507 C 3326.17 -0.96338 -1.44897 0
M  V30 31508 O 3327.35 -1.27539 -1.55871 0
M  V30 31509 C 3324.41 -2.44261 -2.46044 0
M  V30 31510 C 3323.47 -3.66205 -2.24037 0
M  V30 31511 C 3322.71 -4.04377 -3.48303 0
M  V30 31512 O 3322.93 -3.42814 -4.55889 0
M  V30 31513 O 3321.86 -4.97436 -3.38882 0
M  V30 31514 H 3325.69 -2.93333 -0.786727 0
M  V30 31515 H 3323.28 -1.45863 -0.32317 0
M  V30 31516 H 3325.16 -2.70751 -3.22912 0
M  V30 31517 H 3323.83 -1.58238 -2.82387 0
M  V30 31518 H 3322.74 -3.44854 -1.45004 0
M  V30 31519 H 3324.07 -4.52955 -1.92594 0
M  V30 31520 N 3325.72 0.382237 -1.52894 0
M  V30 31521 C 3326.97 1.1266 -1.68268 0
M  V30 31522 C 3327.3 1.89777 -0.426007 0
M  V30 31523 O 3326.55 1.86539 0.591747 0
M  V30 31524 C 3326.85 2.12571 -2.87312 0
M  V30 31525 C 3326.52 1.5206 -4.24486 0
M  V30 31526 C 3325.18 1.35283 -4.61792 0
M  V30 31527 C 3327.53 1.08129 -5.0986 0
M  V30 31528 C 3324.86 0.731346 -5.82124 0
M  V30 31529 C 3327.21 0.473875 -6.30823 0
M  V30 31530 C 3325.88 0.293467 -6.66855 0
M  V30 31531 H 3325.15 0.412251 -0.615736 0
M  V30 31532 H 3327.79 0.410392 -1.87051 0
M  V30 31533 H 3326.1 2.90435 -2.62973 0
M  V30 31534 H 3327.8 2.70087 -2.96402 0
M  V30 31535 H 3324.39 1.66107 -3.95103 0
M  V30 31536 H 3328.57 1.19889 -4.81602 0
M  V30 31537 H 3323.83 0.579831 -6.08644 0
M  V30 31538 H 3328 0.125201 -6.96287 0
M  V30 31539 H 3325.63 -0.190187 -7.59962 0
M  V30 31540 N 3327.2 1.43972 0.64108 0
M  V30 31541 C 3328.45 1.46448 1.40289 0
M  V30 31542 C 3328.78 0.0929345 1.93978 0
M  V30 31543 O 3328.06 -0.888012 1.73045 0
M  V30 31544 C 3328.34 2.51678 2.57547 0
M  V30 31545 C 3328.19 3.98152 2.09272 0
M  V30 31546 C 3329.51 2.53514 3.59748 0
M  V30 31547 H 3326.63 0.533227 0.508761 0
M  V30 31548 H 3329.27 1.75593 0.725736 0
M  V30 31549 H 3327.42 2.26955 3.15315 0
M  V30 31550 H 3329.1 4.33974 1.56411 0
M  V30 31551 H 3327.34 4.10404 1.40538 0
M  V30 31552 H 3328.01 4.67414 2.93646 0
M  V30 31553 H 3330.49 2.7558 3.11761 0
M  V30 31554 H 3329.36 3.29064 4.39327 0
M  V30 31555 H 3329.62 1.57342 4.13154 0
M  V30 31556 N 3328.68 -0.880575 1.30704 0
M  V30 31557 C 3329.63 -2.00815 1.17372 0
M  V30 31558 C 3330.62 -1.69189 0.0845457 0
M  V30 31559 O 3331.83 -1.78315 0.245704 0
M  V30 31560 H 3328.2 -0.65852 0.363119 0
M  V30 31561 H 3330.18 -2.09193 2.12793 0
M  V30 31562 C 3328.92 -3.36198 0.88691 0
M  V30 31563 H 3328.25 -3.61048 1.71711 0
M  V30 31564 H 3329.69 -4.15722 0.833753 0
M  V30 31565 C 3328.15 -3.34393 -0.410234 0
M  V30 31566 O 3328.68 -3.75371 -1.43038 0
M  V30 31567 N 3326.88 -2.87505 -0.422973 0
M  V30 31568 H 3326.43 -2.54354 0.407681 0
M  V30 31569 H 3326.39 -2.8668 -1.29081 0
M  V30 31570 N 3330.16 -1.13492 -1.09349 0
M  V30 31571 C 3331.11 -0.808465 -2.18098 0
M  V30 31572 C 3332.1 0.209542 -1.68099 0
M  V30 31573 O 3333.31 0.06661 -1.79877 0
M  V30 31574 H 3329.68 -0.24367 -0.711427 0
M  V30 31575 H 3331.65 -1.73377 -2.42864 0
M  V30 31576 C 3330.4 -0.291676 -3.46474 0
M  V30 31577 H 3329.73 -1.06634 -3.85317 0
M  V30 31578 H 3331.17 -0.101691 -4.23878 0
M  V30 31579 C 3329.62 0.982771 -3.22247 0
M  V30 31580 O 3330.15 2.05844 -3.44951 0
M  V30 31581 N 3328.36 0.914169 -2.75847 0
M  V30 31582 H 3327.91 0.0386747 -2.57571 0
M  V30 31583 H 3327.87 1.76748 -2.60014 0
M  V30 31584 N 3331.64 1.27341 -0.928546 0
M  V30 31585 C 3332.59 2.28799 -0.418808 0
M  V30 31586 C 3333.58 1.61936 0.497305 0
M  V30 31587 O 3334.79 1.7601 0.376914 0
M  V30 31588 H 3331.16 0.742863 -0.116868 0
M  V30 31589 H 3333.13 2.69205 -1.28729 0
M  V30 31590 C 3331.88 3.46294 0.312361 0
M  V30 31591 H 3331.2 3.97958 -0.383387 0
M  V30 31592 H 3332.64 4.19242 0.63344 0
M  V30 31593 C 3331.1 3.00376 1.52565 0
M  V30 31594 O 3331.63 3.04121 2.62438 0
M  V30 31595 N 3329.84 2.55863 1.37778 0
M  V30 31596 H 3329.39 2.53015 0.483864 0
M  V30 31597 H 3329.34 2.25501 2.19081 0
M  V30 31598 N 3333.12 0.694147 1.4149 0
M  V30 31599 C 3334.08 0.0368964 2.2917 0
M  V30 31600 C 3335.08 -0.7094 1.44306 0
M  V30 31601 O 3336.27 -0.544504 1.65471 0
M  V30 31602 C 3333.4 -0.958143 3.27158 0
M  V30 31603 H 3334.59 0.80888 2.88786 0
M  V30 31604 H 3332.15 0.457564 1.49452 0
M  V30 31605 H 3332.88 -1.75794 2.7252 0
M  V30 31606 H 3332.67 -0.426159 3.89777 0
M  V30 31607 H 3334.16 -1.41585 3.92866 0
M  V30 31608 N 3334.59 -1.51368 0.438799 0
M  V30 31609 C 3335.53 -2.25544 -0.407731 0
M  V30 31610 C 3336.54 -1.29618 -0.985043 0
M  V30 31611 O 3337.73 -1.55361 -0.878934 0
M  V30 31612 C 3334.83 -2.99683 -1.58251 0
M  V30 31613 C 3334 -4.22716 -1.12382 0
M  V30 31614 C 3333.06 -4.79422 -2.16889 0
M  V30 31615 O 3332.09 -5.41221 -1.76264 0
M  V30 31616 N 3333.29 -4.63582 -3.49388 0
M  V30 31617 H 3336.05 -2.98831 0.228016 0
M  V30 31618 H 3333.61 -1.5967 0.267769 0
M  V30 31619 H 3335.61 -3.34505 -2.2779 0
M  V30 31620 H 3334.18 -2.29397 -2.12358 0
M  V30 31621 H 3333.4 -3.93372 -0.25544 0
M  V30 31622 H 3334.68 -5.02554 -0.79476 0
M  V30 31623 H 3334.08 -4.14361 -3.85125 0
M  V30 31624 H 3332.64 -5.02762 -4.14817 0
M  V30 31625 N 3336.07 -0.170208 -1.56678 0
M  V30 31626 C 3337.35 0.521328 -1.88525 0
M  V30 31627 C 3337.73 1.81386 -1.07992 0
M  V30 31628 O 3337.08 2.2784 -0.17351 0
M  V30 31629 C 3337.29 0.764307 -3.40528 0
M  V30 31630 C 3338.63 1.0948 -4.10243 0
M  V30 31631 O 3339.66 0.852884 -3.45839 0
M  V30 31632 O 3338.52 1.55115 -5.24025 0
M  V30 31633 H 3335.61 0.268601 -0.782165 0
M  V30 31634 H 3338.16 -0.208561 -1.68414 0
M  V30 31635 H 3336.93 -0.149484 -3.91014 0
M  V30 31636 H 3336.55 1.54755 -3.66247 0
M  V30 31637 N 3337.55 1.5726 0.10352 0
M  V30 31638 C 3338.78 1.89581 0.821124 0
M  V30 31639 C 3339.19 0.761214 1.73211 0
M  V30 31640 O 3338.53 -0.276218 1.81611 0
M  V30 31641 C 3338.59 3.17075 1.69422 0
M  V30 31642 C 3338.26 4.4689 0.955935 0
M  V30 31643 C 3339.25 5.19093 0.289603 0
M  V30 31644 C 3336.94 4.93568 0.932515 0
M  V30 31645 C 3338.93 6.36204 -0.390275 0
M  V30 31646 C 3336.62 6.10593 0.248847 0
M  V30 31647 C 3337.62 6.8176 -0.411379 0
M  V30 31648 O 3337.31 7.96557 -1.0841 0
M  V30 31649 H 3337.04 0.631773 0.240497 0
M  V30 31650 H 3339.59 2.05212 0.0877456 0
M  V30 31651 H 3337.82 2.97567 2.46963 0
M  V30 31652 H 3339.51 3.35294 2.28764 0
M  V30 31653 H 3340.28 4.84076 0.299212 0
M  V30 31654 H 3336.16 4.38069 1.43585 0
M  V30 31655 H 3339.7 6.91689 -0.906179 0
M  V30 31656 H 3335.6 6.45065 0.237054 0
M  V30 31657 H 3336.36 8.12489 -0.990144 0
M  V30 31658 N 3339.03 -0.374123 1.53095 0
M  V30 31659 C 3339.96 -1.47773 1.75202 0
M  V30 31660 C 3340.97 -1.50004 0.632654 0
M  V30 31661 O 3342.16 -1.53638 0.908715 0
M  V30 31662 C 3339.26 -2.86572 1.80914 0
M  V30 31663 C 3338.43 -3.08135 3.10438 0
M  V30 31664 C 3337.49 -4.26999 3.07503 0
M  V30 31665 O 3336.52 -4.22586 3.81327 0
M  V30 31666 N 3337.72 -5.33968 2.27725 0
M  V30 31667 H 3340.49 -1.29191 2.70425 0
M  V30 31668 H 3338.05 -0.563775 1.51767 0
M  V30 31669 H 3340.04 -3.64214 1.76439 0
M  V30 31670 H 3338.61 -2.98442 0.930126 0
M  V30 31671 H 3337.83 -2.18228 3.28284 0
M  V30 31672 H 3339.12 -3.19406 3.96052 0
M  V30 31673 H 3338.52 -5.40414 1.67241 0
M  V30 31674 H 3337.07 -6.10219 2.29076 0
M  V30 31675 N 3340.51 -1.4431 -0.633436 0
M  V30 31676 C 3341.75 -1.48183 -1.39331 0
M  V30 31677 C 3342.11 -0.111869 -1.92075 0
M  V30 31678 O 3341.4 0.87255 -1.70579 0
M  V30 31679 C 3341.59 -2.47558 -2.57778 0
M  V30 31680 C 3341.42 -3.94083 -2.16631 0
M  V30 31681 C 3340.19 -4.62282 -2.04018 0
M  V30 31682 C 3342.39 -4.83362 -1.75685 0
M  V30 31683 N 3340.37 -5.93641 -1.56409 0
M  V30 31684 C 3341.74 -6.04148 -1.39305 0
M  V30 31685 C 3343.8 -4.70447 -1.63045 0
M  V30 31686 C 3342.5 -7.1345 -0.915479 0
M  V30 31687 C 3344.53 -5.79773 -1.16693 0
M  V30 31688 C 3343.89 -6.99697 -0.812612 0
M  V30 31689 H 3339.99 -0.59729 -0.504746 0
M  V30 31690 H 3342.57 -1.80621 -0.726916 0
M  V30 31691 H 3340.74 -2.17115 -3.22049 0
M  V30 31692 H 3342.48 -2.41742 -3.24565 0
M  V30 31693 H 3339.23 -4.17063 -2.244 0
M  V30 31694 H 3339.65 -6.63422 -1.3491 0
M  V30 31695 H 3344.3 -3.78169 -1.89071 0
M  V30 31696 H 3342.01 -8.0554 -0.642728 0
M  V30 31697 H 3345.6 -5.71806 -1.07374 0
M  V30 31698 H 3344.48 -7.82853 -0.459433 0
M  V30 31699 N 3341.98 0.873632 -1.3117 0
M  V30 31700 C 3343.23 1.62115 -1.20006 0
M  V30 31701 C 3343.55 1.94104 0.241471 0
M  V30 31702 O 3344.75 2.67317 0.474754 0
M  V30 31703 C 3343.21 2.92237 -2.1006 0
M  V30 31704 C 3342.82 2.67746 -3.59188 0
M  V30 31705 C 3344.56 3.70224 -2.07688 0
M  V30 31706 C 3342.47 3.93753 -4.41262 0
M  V30 31707 H 3341.4 0.608259 -0.445574 0
M  V30 31708 H 3344.05 0.96626 -1.55999 0
M  V30 31709 H 3342.43 3.59082 -1.66962 0
M  V30 31710 H 3343.6 2.09332 -4.10508 0
M  V30 31711 H 3341.92 2.03118 -3.635 0
M  V30 31712 H 3344.52 4.63695 -2.66254 0
M  V30 31713 H 3344.86 4.02497 -1.06312 0
M  V30 31714 H 3345.39 3.10259 -2.48967 0
M  V30 31715 H 3342.13 3.66633 -5.43379 0
M  V30 31716 H 3341.65 4.51631 -3.94701 0
M  V30 31717 H 3343.33 4.61672 -4.53286 0
M  V30 31718 N 3343.46 1.1407 1.08746 0
M  V30 31719 C 3344.71 0.904978 1.80706 0
M  V30 31720 C 3345.03 -0.570134 1.86479 0
M  V30 31721 O 3344.3 -1.41443 1.35539 0
M  V30 31722 H 3342.88 0.331823 0.669255 0
M  V30 31723 H 3345.54 1.43861 1.31492 0
M  V30 31724 H 3344.64 1.30187 2.83651 0
M  V30 31725 N 3344.94 -1.26847 0.935286 0
M  V30 31726 C 3345.87 -2.28968 0.457817 0
M  V30 31727 C 3346.85 -1.63014 -0.485841 0
M  V30 31728 O 3348.04 -1.90265 -0.388964 0
M  V30 31729 C 3345.17 -3.46143 -0.283271 0
M  V30 31730 C 3344.12 -4.24143 0.573271 0
M  V30 31731 C 3343.45 -5.33872 -0.297431 0
M  V30 31732 C 3344.75 -4.88755 1.84162 0
M  V30 31733 H 3346.44 -2.69157 1.3113 0
M  V30 31734 H 3343.99 -1.29391 0.631979 0
M  V30 31735 H 3345.94 -4.1669 -0.628292 0
M  V30 31736 H 3344.66 -3.04892 -1.17084 0
M  V30 31737 H 3343.32 -3.55353 0.901105 0
M  V30 31738 H 3342.97 -4.88862 -1.18418 0
M  V30 31739 H 3342.67 -5.86969 0.272229 0
M  V30 31740 H 3344.19 -6.07259 -0.637854 0
M  V30 31741 H 3345.61 -5.51548 1.5642 0
M  V30 31742 H 3344.01 -5.51944 2.35538 0
M  V30 31743 H 3345.08 -4.12028 2.55657 0
M  V30 31744 N 3346.42 -0.701641 -1.4112 0
M  V30 31745 C 3347.37 -0.0288461 -2.32582 0
M  V30 31746 C 3348.36 0.762047 -1.51292 0
M  V30 31747 O 3349.57 0.666985 -1.67186 0
M  V30 31748 H 3345.94 0.00947353 -0.75194 0
M  V30 31749 H 3347.91 -0.817192 -2.86992 0
M  V30 31750 C 3346.66 0.889158 -3.36139 0
M  V30 31751 H 3345.98 0.289992 -3.98747 0
M  V30 31752 H 3347.42 1.32812 -4.02662 0
M  V30 31753 C 3345.88 2.00816 -2.70508 0
M  V30 31754 O 3346.41 3.09759 -2.55758 0
M  V30 31755 N 3344.62 1.78768 -2.29108 0
M  V30 31756 H 3344.17 0.901665 -2.41304 0
M  V30 31757 H 3344.12 2.53822 -1.85531 0
M  V30 31758 N 3347.9 1.51133 -0.446821 0
M  V30 31759 C 3349.17 1.94799 0.176858 0
M  V30 31760 C 3349.55 1.38601 1.59226 0
M  V30 31761 O 3348.9 0.576944 2.21096 0
M  V30 31762 C 3349.11 3.48699 0.144939 0
M  V30 31763 C 3350.46 4.23189 0.345843 0
M  V30 31764 O 3351.48 3.55504 0.222629 0
M  V30 31765 O 3350.34 5.43284 0.592017 0
M  V30 31766 H 3347.44 0.817522 0.124846 0
M  V30 31767 H 3349.98 1.61997 -0.505482 0
M  V30 31768 H 3348.75 3.82084 -0.844223 0
M  V30 31769 H 3348.38 3.8797 0.869783 0
M  V30 31770 N 3349.37 0.178515 1.56586 0
M  V30 31771 C 3350.79 -0.177562 1.58609 0
M  V30 31772 C 3350.99 -1.62304 1.19413 0
M  V30 31773 O 3350.05 -2.35567 0.909101 0
M  V30 31774 C 3351.36 0.109775 3.005 0
M  V30 31775 C 3352.91 0.0485586 3.12962 0
M  V30 31776 C 3353.38 0.308982 4.56957 0
M  V30 31777 N 3354.87 0.257011 4.62486 0
M  V30 31778 C 3355.61 0.432589 5.71766 0
M  V30 31779 N 3355.1 0.667615 6.89576 0
M  V30 31780 N 3356.9 0.367994 5.60894 0
M  V30 31781 H 3349.05 1.12196 1.80349 0
M  V30 31782 H 3351.31 0.446584 0.836222 0
M  V30 31783 H 3351.02 1.11139 3.33678 0
M  V30 31784 H 3350.89 -0.595308 3.72473 0
M  V30 31785 H 3353.28 -0.943638 2.79606 0
M  V30 31786 H 3353.36 0.786463 2.4341 0
M  V30 31787 H 3353 1.29842 4.91023 0
M  V30 31788 H 3352.93 -0.449618 5.24677 0
M  V30 31789 H 3355.42 0.0812972 3.77813 0
M  V30 31790 H 3355.74 0.790845 7.68743 0
M  V30 31791 H 3354.08 0.704315 6.91422 0
M  V30 31792 H 3357.27 0.184919 4.67735 0
M  V30 31793 H 3357.45 0.508252 6.46004 0
M  V30 31794 N 3350.85 -1.57312 -0.0951784 0
M  V30 31795 C 3352.08 -1.9029 -0.812237 0
M  V30 31796 C 3352.5 -0.772208 -1.72286 0
M  V30 31797 O 3351.85 0.25581 -1.80698 0
M  V30 31798 C 3351.9 -3.22884 -1.62566 0
M  V30 31799 O 3351.62 -4.31603 -0.751674 0
M  V30 31800 C 3353.13 -3.69724 -2.44579 0
M  V30 31801 H 3350.35 -0.629526 -0.232245 0
M  V30 31802 H 3352.89 -2.04372 -0.0724374 0
M  V30 31803 H 3351.04 -3.10401 -2.31797 0
M  V30 31804 H 3351.46 -5.07747 -1.31505 0
M  V30 31805 H 3352.93 -4.65197 -2.97146 0
M  V30 31806 H 3353.41 -2.97561 -3.23039 0
M  V30 31807 H 3354.02 -3.85075 -1.80547 0
M  V30 31808 N 3352.33 0.365999 -1.53291 0
M  V30 31809 C 3353.58 1.10599 -1.68673 0
M  V30 31810 C 3353.89 1.90475 -0.444826 0
M  V30 31811 O 3355.1 2.67238 -0.479182 0
M  V30 31812 C 3353.55 2.0154 -2.98177 0
M  V30 31813 C 3353.16 1.26978 -4.29628 0
M  V30 31814 C 3354.91 2.75534 -3.22926 0
M  V30 31815 C 3352.81 2.16819 -5.50221 0
M  V30 31816 H 3351.74 0.416593 -0.628464 0
M  V30 31817 H 3354.39 0.367027 -1.79792 0
M  V30 31818 H 3352.78 2.79166 -2.8086 0
M  V30 31819 H 3353.95 0.544189 -4.57575 0
M  V30 31820 H 3352.27 0.648486 -4.11319 0
M  V30 31821 H 3354.86 3.42978 -4.10208 0
M  V30 31822 H 3355.21 3.4088 -2.3897 0
M  V30 31823 H 3355.74 2.04992 -3.40915 0
M  V30 31824 H 3352.48 1.56051 -6.36654 0
M  V30 31825 H 3352 2.87229 -5.26554 0
M  V30 31826 H 3353.68 2.76386 -5.84995 0
M  V30 31827 N 3353.81 1.44644 0.625774 0
M  V30 31828 C 3354.72 1.54423 1.76609 0
M  V30 31829 C 3355.73 0.429606 1.68613 0
M  V30 31830 O 3356.91 0.687719 1.89294 0
M  V30 31831 C 3353.98 1.49077 3.13013 0
M  V30 31832 C 3353.04 2.71434 3.32599 0
M  V30 31833 C 3352.27 2.66333 4.62496 0
M  V30 31834 O 3352.49 1.72636 5.43648 0
M  V30 31835 O 3351.43 3.57266 4.84401 0
M  V30 31836 H 3355.25 2.50772 1.71311 0
M  V30 31837 H 3352.84 1.2695 0.787655 0
M  V30 31838 H 3354.72 1.48638 3.94316 0
M  V30 31839 H 3353.39 0.558742 3.18841 0
M  V30 31840 H 3352.3 2.77439 2.50954 0
M  V30 31841 H 3353.63 3.63701 3.31636 0
M  V30 31842 N 3355.29 -0.866663 1.31631 0
M  V30 31843 C 3356.53 -1.61676 1.21266 0
M  V30 31844 C 3356.86 -1.93656 -0.228528 0
M  V30 31845 O 3356.13 -1.58585 -1.15012 0
M  V30 31846 H 3354.71 -0.599372 0.445827 0
M  V30 31847 H 3357.37 -1.03736 1.64999 0
M  V30 31848 H 3356.46 -2.55895 1.78673 0
M  V30 31849 N 3356.77 -1.14645 -1.0814 0
M  V30 31850 C 3358.04 -0.827103 -1.77252 0
M  V30 31851 C 3358.42 0.678875 -1.99886 0
M  V30 31852 O 3357.77 1.62059 -1.61087 0
M  V30 31853 C 3357.98 -1.6289 -3.08655 0
M  V30 31854 C 3359.33 -1.82999 -3.8314 0
M  V30 31855 O 3360.35 -1.59598 -3.18444 0
M  V30 31856 O 3359.21 -2.22139 -4.99316 0
M  V30 31857 H 3356.31 -0.303363 -0.76935 0
M  V30 31858 H 3358.85 -1.2518 -1.14577 0
M  V30 31859 H 3357.62 -2.65173 -2.87748 0
M  V30 31860 H 3357.25 -1.2 -3.79059 0
M  V30 31861 N 3358.24 1.26349 -0.942 0
M  V30 31862 C 3359.49 1.93714 -0.590005 0
M  V30 31863 C 3359.82 1.73905 0.871054 0
M  V30 31864 O 3359.07 1.06994 1.63862 0
M  V30 31865 C 3359.37 3.46408 -0.879542 0
M  V30 31866 C 3359.04 3.86358 -2.32461 0
M  V30 31867 C 3357.7 3.96975 -2.71964 0
M  V30 31868 C 3360.05 4.06367 -3.26367 0
M  V30 31869 C 3357.38 4.24999 -4.04466 0
M  V30 31870 C 3359.73 4.35879 -4.58467 0
M  V30 31871 C 3358.4 4.44711 -4.97783 0
M  V30 31872 H 3357.67 0.70885 -0.215898 0
M  V30 31873 H 3360.31 1.50144 -1.18866 0
M  V30 31874 H 3358.62 3.91298 -0.198357 0
M  V30 31875 H 3360.32 3.96696 -0.585956 0
M  V30 31876 H 3356.91 3.78641 -2.00821 0
M  V30 31877 H 3361.09 3.97591 -2.97044 0
M  V30 31878 H 3356.35 4.30049 -4.34589 0
M  V30 31879 H 3360.52 4.50307 -5.31221 0
M  V30 31880 H 3358.15 4.6618 -6.00483 0
M  V30 31881 N 3359.72 0.709115 1.40746 0
M  V30 31882 C 3361.14 0.382016 1.54961 0
M  V30 31883 C 3361.34 -1.10982 1.68182 0
M  V30 31884 O 3360.39 -1.89581 1.66779 0
M  V30 31885 C 3361.71 1.14241 2.78154 0
M  V30 31886 C 3363.25 1.12808 2.91965 0
M  V30 31887 C 3363.73 1.87049 4.18063 0
M  V30 31888 N 3365.22 1.84086 4.25049 0
M  V30 31889 C 3365.96 2.38359 5.2151 0
M  V30 31890 N 3365.45 3.0116 6.23919 0
M  V30 31891 N 3367.24 2.28537 5.13544 0
M  V30 31892 H 3359.4 1.67652 1.30409 0
M  V30 31893 H 3361.66 0.708261 0.630135 0
M  V30 31894 H 3361.36 2.19695 2.74639 0
M  V30 31895 H 3361.24 0.729796 3.70073 0
M  V30 31896 H 3363.63 0.0817475 2.94987 0
M  V30 31897 H 3363.71 1.57986 2.01182 0
M  V30 31898 H 3363.35 2.91669 4.15802 0
M  V30 31899 H 3363.28 1.39296 5.07843 0
M  V30 31900 H 3365.77 1.38311 3.5168 0
M  V30 31901 H 3366.08 3.40106 6.93936 0
M  V30 31902 H 3364.43 3.05242 6.24381 0
M  V30 31903 H 3367.62 1.79137 4.32467 0
M  V30 31904 H 3367.79 2.71136 5.88548 0
M  V30 31905 N 3361.2 -1.50894 0.454829 0
M  V30 31906 C 3362.45 -2.03163 -0.0980791 0
M  V30 31907 C 3362.8 -1.33183 -1.38853 0
M  V30 31908 O 3362.09 -0.443439 -1.86398 0
M  V30 31909 C 3362.29 -3.55642 -0.354097 0
M  V30 31910 C 3362.12 -4.40397 0.909988 0
M  V30 31911 C 3360.89 -4.8409 1.4486 0
M  V30 31912 C 3363.08 -4.81736 1.80097 0
M  V30 31913 N 3361.07 -5.53115 2.66341 0
M  V30 31914 C 3362.44 -5.50005 2.86172 0
M  V30 31915 C 3364.49 -4.63707 1.8133 0
M  V30 31916 C 3363.2 -6.02155 3.93448 0
M  V30 31917 C 3365.22 -5.16786 2.87552 0
M  V30 31918 C 3364.58 -5.85016 3.92346 0
M  V30 31919 H 3360.68 -0.781991 0.00372347 0
M  V30 31920 H 3363.27 -1.84584 0.619409 0
M  V30 31921 H 3361.44 -3.742 -1.04062 0
M  V30 31922 H 3363.17 -3.94568 -0.899907 0
M  V30 31923 H 3359.92 -4.62921 1.00005 0
M  V30 31924 H 3360.35 -5.92244 3.27989 0
M  V30 31925 H 3364.99 -4.10403 1.01634 0
M  V30 31926 H 3362.71 -6.54505 4.73971 0
M  V30 31927 H 3366.29 -5.04677 2.89469 0
M  V30 31928 H 3365.17 -6.2535 4.73189 0
M  V30 31929 N 3362.68 -0.186817 -1.56489 0
M  V30 31930 C 3363.9 0.463091 -2.02164 0
M  V30 31931 C 3364.33 1.54967 -1.06615 0
M  V30 31932 O 3363.69 1.81236 -0.0482457 0
M  V30 31933 C 3363.73 1.0041 -3.46338 0
M  V30 31934 O 3362.84 2.1174 -3.53892 0
M  V30 31935 H 3362.18 0.109183 -0.654962 0
M  V30 31936 H 3364.71 -0.295263 -2.02458 0
M  V30 31937 H 3364.72 1.3228 -3.85961 0
M  V30 31938 H 3363.39 0.20862 -4.15376 0
M  V30 31939 H 3361.97 1.80797 -3.26139 0
M  V30 31940 N 3364.16 1.57361 0.0868344 0
M  V30 31941 C 3365.43 1.77538 0.820953 0
M  V30 31942 C 3365.81 0.770589 1.96533 0
M  V30 31943 O 3365.16 -0.199294 2.27629 0
M  V30 31944 C 3365.37 3.23567 1.30787 0
M  V30 31945 C 3366.72 3.8698 1.74733 0
M  V30 31946 O 3367.74 3.27367 1.40391 0
M  V30 31947 O 3366.6 4.91826 2.38263 0
M  V30 31948 H 3363.7 0.728077 0.392215 0
M  V30 31949 H 3366.24 1.69563 0.0680753 0
M  V30 31950 H 3365.01 3.88241 0.488341 0
M  V30 31951 H 3364.64 3.36207 2.12252 0
M  V30 31952 N 3365.63 -0.357865 1.53483 0
M  V30 31953 C 3366.88 -1.09751 1.69703 0
M  V30 31954 C 3367.2 -1.89607 0.455422 0
M  V30 31955 O 3366.47 -1.88578 -0.53059 0
M  V30 31956 H 3365.05 -0.408167 0.625627 0
M  V30 31957 H 3367.71 -0.402608 1.90696 0
M  V30 31958 H 3366.81 -1.78298 2.56157 0
M  V30 31959 N 3367.11 -1.44974 -0.618094 0
M  V30 31960 C 3368.06 -1.49271 -1.72343 0
M  V30 31961 C 3369.05 -0.357069 -1.56888 0
M  V30 31962 O 3370.24 -0.603242 -1.66403 0
M  V30 31963 C 3367.37 -1.45225 -3.1107 0
M  V30 31964 C 3366.45 -2.63952 -3.31949 0
M  V30 31965 N 3366.84 -3.89124 -3.23134 0
M  V30 31966 C 3365.14 -2.59426 -3.62787 0
M  V30 31967 C 3365.84 -4.68306 -3.45058 0
M  V30 31968 N 3364.82 -3.99589 -3.68551 0
M  V30 31969 H 3368.62 -2.43884 -1.64006 0
M  V30 31970 H 3366.13 -1.40119 -0.821005 0
M  V30 31971 H 3368.13 -1.46388 -3.90354 0
M  V30 31972 H 3366.79 -0.516611 -3.20564 0
M  V30 31973 H 3367.8 -4.20901 -3.01766 0
M  V30 31974 H 3364.48 -1.7472 -3.79182 0
M  V30 31975 H 3365.87 -5.77324 -3.43725 0
M  V30 31976 N 3368.59 0.85967 -1.32089 0
M  V30 31977 C 3370 1.42936 -1.2011 0
M  V30 31978 C 3370.35 1.95294 0.188376 0
M  V30 31979 O 3369.48 1.8713 1.0868 0
M  V30 31980 C 3370.07 2.59817 -2.17441 0
M  V30 31981 C 3368.63 3.128 -2.09364 0
M  V30 31982 C 3367.78 1.85533 -2.06089 0
M  V30 31983 H 3370.73 0.667277 -1.4399 0
M  V30 31984 H 3370.75 3.36824 -1.77001 0
M  V30 31985 H 3370.26 2.21679 -3.18559 0
M  V30 31986 H 3368.36 3.55533 -1.11477 0
M  V30 31987 H 3368.48 3.74384 -2.98954 0
M  V30 31988 H 3366.84 2.04925 -1.51254 0
M  V30 31989 H 3367.62 1.49619 -3.0898 0
M  V30 31990 N 3370.07 1.15217 1.0753 0
M  V30 31991 C 3371 0.790838 2.14058 0
M  V30 31992 C 3371.98 -0.231894 1.60938 0
M  V30 31993 O 3373.16 -0.118873 1.88125 0
M  V30 31994 C 3370.29 0.175692 3.38244 0
M  V30 31995 C 3369.34 1.17003 4.10137 0
M  V30 31996 S 3370.17 2.71127 4.61791 0
M  V30 31997 C 3371.32 2.11027 5.89253 0
M  V30 31998 H 3371.56 1.69312 2.44378 0
M  V30 31999 H 3369.09 0.974329 1.19776 0
M  V30 32000 H 3371.05 -0.172787 4.10136 0
M  V30 32001 H 3369.71 -0.704158 3.06105 0
M  V30 32002 H 3368.9 0.687802 4.99285 0
M  V30 32003 H 3368.5 1.46295 3.442 0
M  V30 32004 H 3370.8 1.4712 6.61333 0
M  V30 32005 H 3371.74 2.98334 6.42186 0
M  V30 32006 H 3372.15 1.55404 5.42688 0
M  V30 32007 N 3371.55 -1.25848 0.948687 0
M  V30 32008 C 3372.48 -2.25291 0.421498 0
M  V30 32009 C 3373.49 -1.56185 -0.459361 0
M  V30 32010 O 3374.68 -1.76468 -0.268596 0
M  V30 32011 C 3371.78 -3.36379 -0.412594 0
M  V30 32012 C 3370.95 -4.35039 0.453868 0
M  V30 32013 C 3370.01 -5.2522 -0.321035 0
M  V30 32014 O 3369.04 -5.68518 0.278524 0
M  V30 32015 N 3370.24 -5.57563 -1.61567 0
M  V30 32016 H 3373.01 -2.7116 1.27641 0
M  V30 32017 H 3370.57 -1.39692 0.818392 0
M  V30 32018 H 3372.56 -3.93666 -0.938568 0
M  V30 32019 H 3371.13 -2.89946 -1.16834 0
M  V30 32020 H 3370.35 -3.76716 1.16099 0
M  V30 32021 H 3371.64 -4.97943 1.04547 0
M  V30 32022 H 3371.03 -5.2428 -2.12479 0
M  V30 32023 H 3369.59 -6.1746 -2.08773 0
M  V30 32024 N 3373.02 -0.716569 -1.40368 0
M  V30 32025 C 3374.27 -0.256501 -2.00869 0
M  V30 32026 C 3374.6 1.15058 -1.56818 0
M  V30 32027 O 3373.85 1.79496 -0.779728 0
M  V30 32028 C 3374.15 -0.285645 -3.56257 0
M  V30 32029 C 3373.82 -1.64316 -4.19894 0
M  V30 32030 C 3372.48 -2.01476 -4.36991 0
M  V30 32031 C 3374.83 -2.53532 -4.5538 0
M  V30 32032 C 3372.16 -3.27395 -4.86856 0
M  V30 32033 C 3374.51 -3.78804 -5.06646 0
M  V30 32034 C 3373.18 -4.1608 -5.21952 0
M  V30 32035 H 3372.45 -0.0938604 -0.735031 0
M  V30 32036 H 3375.09 -0.919794 -1.67964 0
M  V30 32037 H 3373.4 0.461219 -3.89076 0
M  V30 32038 H 3375.1 0.0881791 -4.00903 0
M  V30 32039 H 3371.69 -1.3442 -4.06976 0
M  V30 32040 H 3375.87 -2.26098 -4.41807 0
M  V30 32041 H 3371.13 -3.56244 -4.96891 0
M  V30 32042 H 3375.3 -4.48105 -5.33081 0
M  V30 32043 H 3372.93 -5.1372 -5.60353 0
M  V30 32044 N 3374.5 1.50651 -0.462825 0
M  V30 32045 C 3375.41 2.32106 0.34115 0
M  V30 32046 C 3376.43 1.42125 1.00382 0
M  V30 32047 O 3377.6 1.75184 0.993604 0
M  V30 32048 C 3374.67 3.16577 1.4135 0
M  V30 32049 C 3373.73 4.22369 0.7683 0
M  V30 32050 C 3372.96 5.02803 1.78955 0
M  V30 32051 O 3373.19 4.84201 3.01506 0
M  V30 32052 O 3372.12 5.86196 1.36596 0
M  V30 32053 H 3375.95 3.01961 -0.324535 0
M  V30 32054 H 3373.53 1.47699 -0.224833 0
M  V30 32055 H 3375.41 3.69015 2.03484 0
M  V30 32056 H 3374.09 2.4946 2.0628 0
M  V30 32057 H 3373 3.73943 0.108232 0
M  V30 32058 H 3374.33 4.91933 0.162078 0
M  V30 32059 N 3375.98 0.195113 1.56388 0
M  V30 32060 C 3376.93 -0.742445 2.20433 0
M  V30 32061 C 3377.92 -1.21977 1.1755 0
M  V30 32062 O 3379.13 -1.18266 1.35695 0
M  V30 32063 H 3375.5 -0.257774 0.706439 0
M  V30 32064 H 3377.47 -0.178572 2.97865 0
M  V30 32065 C 3376.22 -1.95142 2.87776 0
M  V30 32066 H 3375.55 -1.5932 3.66684 0
M  V30 32067 H 3376.99 -2.58579 3.36025 0
M  V30 32068 C 3375.45 -2.79019 1.88812 0
M  V30 32069 O 3375.98 -3.76943 1.38842 0
M  V30 32070 N 3374.18 -2.44512 1.57041 0
M  V30 32071 H 3373.73 -1.64939 1.97871 0
M  V30 32072 H 3373.69 -3.00917 0.910829 0
M  V30 32073 N 3377.46 -1.57404 -0.0784879 0
M  V30 32074 C 3378.7 -1.88063 -0.77485 0
M  V30 32075 C 3379.06 -0.787997 -1.75523 0
M  V30 32076 O 3378.35 0.208481 -1.90462 0
M  V30 32077 C 3378.55 -3.2308 -1.5282 0
M  V30 32078 C 3378.38 -4.45374 -0.622282 0
M  V30 32079 C 3377.15 -5.04622 -0.261742 0
M  V30 32080 C 3379.34 -5.14241 0.0780544 0
M  V30 32081 N 3377.33 -6.10443 0.650599 0
M  V30 32082 C 3378.7 -6.14176 0.847835 0
M  V30 32083 C 3380.75 -4.97673 0.15023 0
M  V30 32084 C 3379.45 -6.99332 1.68307 0
M  V30 32085 C 3381.48 -5.83351 0.972423 0
M  V30 32086 C 3380.84 -6.82818 1.73027 0
M  V30 32087 H 3376.94 -0.7378 -0.259181 0
M  V30 32088 H 3379.53 -1.94666 -0.0366454 0
M  V30 32089 H 3377.7 -3.17498 -2.23717 0
M  V30 32090 H 3379.43 -3.4141 -2.17305 0
M  V30 32091 H 3376.18 -4.69615 -0.613114 0
M  V30 32092 H 3376.61 -6.68007 1.09982 0
M  V30 32093 H 3381.25 -4.20695 -0.421349 0
M  V30 32094 H 3378.97 -7.75689 2.26565 0
M  V30 32095 H 3382.55 -5.72589 1.03116 0
M  V30 32096 H 3381.43 -7.47965 2.35623 0
M  V30 32097 N 3378.94 0.34972 -1.53671 0
M  V30 32098 C 3380.35 0.692431 -1.43797 0
M  V30 32099 C 3380.55 1.92676 -0.589753 0
M  V30 32100 O 3379.61 2.52378 -0.0783383 0
M  V30 32101 C 3380.92 0.89083 -2.87202 0
M  V30 32102 C 3382.47 0.98984 -2.96936 0
M  V30 32103 C 3382.94 1.2206 -4.41436 0
M  V30 32104 N 3384.44 1.28794 -4.44934 0
M  V30 32105 C 3385.17 1.48388 -5.53867 0
M  V30 32106 N 3384.67 1.65196 -6.72817 0
M  V30 32107 N 3386.46 1.50886 -5.4147 0
M  V30 32108 H 3378.61 -0.461931 -2.07316 0
M  V30 32109 H 3380.87 -0.144698 -0.936892 0
M  V30 32110 H 3380.58 0.0554477 -3.51656 0
M  V30 32111 H 3380.45 1.79436 -3.31787 0
M  V30 32112 H 3382.84 1.81575 -2.32625 0
M  V30 32113 H 3382.92 0.0633456 -2.55722 0
M  V30 32114 H 3382.57 0.39964 -5.06325 0
M  V30 32115 H 3382.5 2.16056 -4.80237 0
M  V30 32116 H 3384.99 1.17355 -3.59216 0
M  V30 32117 H 3385.3 1.79765 -7.51601 0
M  V30 32118 H 3383.64 1.62344 -6.75773 0
M  V30 32119 H 3386.84 1.37334 -4.47501 0
M  V30 32120 H 3387.01 1.65815 -6.26426 0
M  V30 32121 N 3380.41 1.45299 0.610397 0
M  V30 32122 C 3381.83 1.43669 1.19231 0
M  V30 32123 C 3382.18 0.162828 1.95523 0
M  V30 32124 O 3381.3 -0.735753 2.03508 0
M  V30 32125 C 3381.9 2.6028 2.16887 0
M  V30 32126 C 3380.46 2.61778 2.70461 0
M  V30 32127 C 3379.6 2.35866 1.45817 0
M  V30 32128 H 3382.55 1.5358 0.399868 0
M  V30 32129 H 3382.57 2.34218 2.99871 0
M  V30 32130 H 3382.09 3.52978 1.61332 0
M  V30 32131 H 3380.19 1.73078 3.29962 0
M  V30 32132 H 3380.3 3.60913 3.15086 0
M  V30 32133 H 3378.66 1.85367 1.74675 0
M  V30 32134 H 3379.45 3.30705 0.921345 0
M  V30 32135 N 3381.89 -0.852653 1.32543 0
M  V30 32136 C 3382.84 -1.9828 1.21605 0
M  V30 32137 C 3383.83 -1.68971 0.120414 0
M  V30 32138 O 3385.04 -1.77754 0.283472 0
M  V30 32139 H 3381.42 -0.65067 0.377005 0
M  V30 32140 H 3383.39 -2.04632 2.17183 0
M  V30 32141 C 3382.14 -3.34241 0.958024 0
M  V30 32142 H 3381.46 -3.57324 1.7933 0
M  V30 32143 H 3382.9 -4.1386 0.921746 0
M  V30 32144 C 3381.36 -3.35188 -0.339212 0
M  V30 32145 O 3381.89 -3.7832 -1.35043 0
M  V30 32146 N 3380.09 -2.88338 -0.361893 0
M  V30 32147 H 3379.64 -2.53432 0.461542 0
M  V30 32148 H 3379.6 -2.89354 -1.22971 0
M  V30 32149 N 3383.37 -1.15786 -1.06918 0
M  V30 32150 C 3384.3 -0.816413 -2.14167 0
M  V30 32151 C 3385.32 0.173542 -1.61872 0
M  V30 32152 O 3386.5 -0.0503286 -1.78429 0
M  V30 32153 C 3383.6 -0.193742 -3.38346 0
M  V30 32154 C 3382.78 -1.22222 -4.19977 0
M  V30 32155 C 3381.84 -0.620516 -5.22529 0
M  V30 32156 O 3380.86 -1.28766 -5.54444 0
M  V30 32157 N 3382.06 0.595709 -5.77435 0
M  V30 32158 H 3384.83 -1.73941 -2.44059 0
M  V30 32159 H 3382.39 -1.05434 -1.22863 0
M  V30 32160 H 3384.38 0.221668 -4.04092 0
M  V30 32161 H 3382.95 0.632681 -3.06131 0
M  V30 32162 H 3382.17 -1.81403 -3.49981 0
M  V30 32163 H 3383.46 -1.9165 -4.71326 0
M  V30 32164 H 3382.86 1.15602 -5.53762 0
M  V30 32165 H 3381.42 0.953416 -6.44789 0
M  V30 32166 N 3384.85 1.25343 -0.955348 0
M  V30 32167 C 3386.26 1.74977 -0.651148 0
M  V30 32168 C 3386.61 1.77617 0.833464 0
M  V30 32169 O 3385.74 1.39748 1.65225 0
M  V30 32170 C 3386.33 3.17762 -1.17527 0
M  V30 32171 C 3384.89 3.64953 -0.921215 0
M  V30 32172 C 3384.04 2.43982 -1.31789 0
M  V30 32173 H 3386.99 1.1122 -1.13207 0
M  V30 32174 H 3387.01 3.7671 -0.535691 0
M  V30 32175 H 3386.52 3.15809 -2.2558 0
M  V30 32176 H 3384.62 3.7232 0.144326 0
M  V30 32177 H 3384.73 4.53054 -1.55818 0
M  V30 32178 H 3383.1 2.43826 -0.736262 0
M  V30 32179 H 3383.88 2.44718 -2.40765 0
M  V30 32180 N 3386.33 0.724003 1.39986 0
M  V30 32181 C 3387.6 0.193935 1.94636 0
M  V30 32182 C 3387.98 -1.30209 1.66159 0
M  V30 32183 O 3387.33 -2.06236 0.983819 0
M  V30 32184 C 3387.54 0.515712 3.45169 0
M  V30 32185 C 3388.89 0.458993 4.22112 0
M  V30 32186 O 3389.91 0.45226 3.53317 0
M  V30 32187 O 3388.77 0.443879 5.44694 0
M  V30 32188 H 3385.87 0.031676 0.826393 0
M  V30 32189 H 3388.41 0.802111 1.49547 0
M  V30 32190 H 3387.19 1.55011 3.59287 0
M  V30 32191 H 3386.81 -0.121998 3.97413 0
M  V30 32192 N 3387.81 -1.50403 0.470808 0
M  V30 32193 C 3388.75 -2.30138 -0.337544 0
M  V30 32194 C 3389.75 -1.37414 -0.990649 0
M  V30 32195 O 3390.95 -1.54606 -0.921786 0
M  V30 32196 H 3387.33 -0.741079 -0.127693 0
M  V30 32197 H 3389.3 -2.96277 0.355349 0
M  V30 32198 C 3388.05 -3.17957 -1.40708 0
M  V30 32199 H 3387.37 -3.89214 -0.913914 0
M  V30 32200 H 3388.81 -3.76743 -1.94527 0
M  V30 32201 C 3387.27 -2.35533 -2.40885 0
M  V30 32202 O 3387.8 -2.03822 -3.46149 0
M  V30 32203 N 3386.01 -1.98119 -2.12596 0
M  V30 32204 H 3385.55 -2.24107 -1.27019 0
M  V30 32205 H 3385.51 -1.43274 -2.79857 0
M  V30 32206 N 3389.28 -0.203404 -1.56282 0
M  V30 32207 C 3390.53 0.433167 -1.97813 0
M  V30 32208 C 3390.86 1.61051 -1.09054 0
M  V30 32209 O 3390.11 1.95258 -0.131452 0
M  V30 32210 C 3390.41 0.927699 -3.4515 0
M  V30 32211 C 3390.08 -0.137162 -4.50691 0
M  V30 32212 C 3388.74 -0.429737 -4.79277 0
M  V30 32213 C 3391.09 -0.858265 -5.14085 0
M  V30 32214 C 3388.42 -1.44825 -5.68544 0
M  V30 32215 C 3390.77 -1.86598 -6.04453 0
M  V30 32216 C 3389.44 -2.16567 -6.31391 0
M  V30 32217 H 3388.71 0.158507 -0.723848 0
M  V30 32218 H 3391.35 -0.302115 -1.89102 0
M  V30 32219 H 3389.66 1.74141 -3.50973 0
M  V30 32220 H 3391.36 1.42978 -3.74644 0
M  V30 32221 H 3387.95 0.101036 -4.28481 0
M  V30 32222 H 3392.13 -0.645462 -4.92085 0
M  V30 32223 H 3387.39 -1.68626 -5.87686 0
M  V30 32224 H 3391.56 -2.42992 -6.52632 0
M  V30 32225 H 3389.19 -2.95633 -7.00361 0
M  V30 32226 N 3390.76 1.57444 0.0701393 0
M  V30 32227 C 3392.01 1.87331 0.768981 0
M  V30 32228 C 3392.34 0.795361 1.77494 0
M  V30 32229 O 3391.59 -0.208461 1.94587 0
M  V30 32230 C 3391.89 3.23886 1.51104 0
M  V30 32231 C 3391.56 4.46264 0.644909 0
M  V30 32232 C 3390.22 4.79482 0.406223 0
M  V30 32233 C 3392.57 5.21181 0.0444022 0
M  V30 32234 C 3389.9 5.85029 -0.442425 0
M  V30 32235 C 3392.25 6.27626 -0.791709 0
M  V30 32236 C 3390.91 6.59344 -1.04025 0
M  V30 32237 H 3390.18 0.685493 0.28139 0
M  V30 32238 H 3392.83 1.91477 0.0297183 0
M  V30 32239 H 3391.14 3.15539 2.32255 0
M  V30 32240 H 3392.83 3.44246 2.05659 0
M  V30 32241 H 3389.42 4.20266 0.841074 0
M  V30 32242 H 3393.61 4.9583 0.215918 0
M  V30 32243 H 3388.86 6.08002 -0.643714 0
M  V30 32244 H 3393.04 6.84837 -1.26375 0
M  V30 32245 H 3390.66 7.40957 -1.69962 0
M  V30 32246 N 3392.24 -0.341566 1.53854 0
M  V30 32247 C 3393.2 -1.40248 1.81282 0
M  V30 32248 C 3394.2 -1.4553 0.683941 0
M  V30 32249 O 3395.39 -1.45871 0.952228 0
M  V30 32250 C 3392.52 -2.79157 1.95663 0
M  V30 32251 H 3393.72 -1.17191 2.76055 0
M  V30 32252 H 3391.27 -0.576064 1.45297 0
M  V30 32253 H 3392.01 -3.07495 1.03039 0
M  V30 32254 H 3391.79 -2.7672 2.77793 0
M  V30 32255 H 3393.28 -3.55941 2.18393 0
M  V30 32256 N 3393.72 -1.45621 -0.602683 0
M  V30 32257 C 3394.68 -1.54274 -1.69506 0
M  V30 32258 C 3395.68 -0.421755 -1.5517 0
M  V30 32259 O 3396.87 -0.685403 -1.6015 0
M  V30 32260 C 3394 -1.44397 -3.08808 0
M  V30 32261 H 3395.2 -2.51607 -1.63198 0
M  V30 32262 H 3392.75 -1.33135 -0.818834 0
M  V30 32263 H 3393.48 -0.482671 -3.20688 0
M  V30 32264 H 3393.27 -2.25709 -3.20621 0
M  V30 32265 H 3394.76 -1.53495 -3.88367 0
M  V30 32266 N 3395.2 0.845612 -1.32993 0
M  V30 32267 C 3396.44 1.59726 -1.23822 0
M  V30 32268 C 3396.76 1.93995 0.19769 0
M  V30 32269 O 3396.03 1.60394 1.12474 0
M  V30 32270 H 3394.61 0.592204 -0.455306 0
M  V30 32271 H 3397.28 1.01098 -1.66629 0
M  V30 32272 H 3396.37 2.5302 -1.82722 0
M  V30 32273 N 3396.67 1.16351 1.06302 0
M  V30 32274 C 3397.58 0.884327 2.17294 0
M  V30 32275 C 3398.6 -0.143383 1.73408 0
M  V30 32276 O 3399.78 0.0332341 2.01373 0
M  V30 32277 C 3396.84 0.389223 3.44508 0
M  V30 32278 C 3395.9 1.48215 4.02903 0
M  V30 32279 C 3395.13 1.01057 5.24045 0
M  V30 32280 O 3395.36 -0.139721 5.70229 0
M  V30 32281 O 3394.29 1.79886 5.74391 0
M  V30 32282 H 3398.12 1.81247 2.43687 0
M  V30 32283 H 3395.7 0.94348 1.1584 0
M  V30 32284 H 3397.58 0.120092 4.21229 0
M  V30 32285 H 3396.26 -0.510912 3.19643 0
M  V30 32286 H 3395.17 1.80502 3.27673 0
M  V30 32287 H 3396.5 2.35758 4.32064 0
M  V30 32288 N 3398.15 -1.24835 0.961982 0
M  V30 32289 C 3399.43 -1.8806 0.537842 0
M  V30 32290 C 3399.81 -1.86711 -0.98499 0
M  V30 32291 O 3399.16 -1.33575 -1.85391 0
M  V30 32292 C 3399.37 -3.30444 1.12285 0
M  V30 32293 C 3400.71 -4.07166 1.20422 0
M  V30 32294 O 3401.74 -3.39593 1.07494 0
M  V30 32295 O 3400.6 -5.28054 1.4079 0
M  V30 32296 H 3397.69 -0.807505 0.178505 0
M  V30 32297 H 3400.24 -1.3285 1.05589 0
M  V30 32298 H 3399.01 -3.25894 2.16584 0
M  V30 32299 H 3398.63 -3.93221 0.588499 0
M  V30 32300 N 3399.63 -0.731417 -1.396 0
M  V30 32301 C 3400.87 -0.282423 -2.02439 0
M  V30 32302 C 3401.23 1.10836 -1.56778 0
M  V30 32303 O 3402.43 1.65524 -2.11791 0
M  V30 32304 C 3400.71 -0.376767 -3.55409 0
M  V30 32305 S 3402.26 -0.00708644 -4.38799 0
M  V30 32306 H 3399.08 -0.110899 -0.702298 0
M  V30 32307 H 3401.68 -0.957141 -1.70467 0
M  V30 32308 H 3400.39 -1.39033 -3.86132 0
M  V30 32309 H 3399.92 0.315894 -3.9213 0
M  V30 32310 H 3401.93 1.21023 -4.81215 0
M  V30 32311 N 3401.11 1.50152 -0.478778 0
M  V30 32312 C 3402.35 2.02666 0.0736584 0
M  V30 32313 C 3402.69 1.3595 1.38677 0
M  V30 32314 O 3401.96 0.487733 1.88285 0
M  V30 32315 C 3402.25 3.59235 0.249453 0
M  V30 32316 C 3402.1 4.36512 -1.08522 0
M  V30 32317 C 3403.42 4.28578 1.00045 0
M  V30 32318 H 3400.54 0.736566 0.0252953 0
M  V30 32319 H 3403.18 1.79396 -0.625866 0
M  V30 32320 H 3401.33 3.79193 0.845277 0
M  V30 32321 H 3403 4.28106 -1.71821 0
M  V30 32322 H 3401.24 3.99949 -1.67999 0
M  V30 32323 H 3401.91 5.44351 -0.915772 0
M  V30 32324 H 3404.39 4.13141 0.495349 0
M  V30 32325 H 3403.27 5.37923 1.09226 0
M  V30 32326 H 3403.53 3.92277 2.03889 0
M  V30 32327 N 3402.59 0.211689 1.56172 0
M  V30 32328 C 3403.83 -0.423297 1.98333 0
M  V30 32329 C 3404.17 -1.60113 1.09898 0
M  V30 32330 O 3403.44 -1.93885 0.154511 0
M  V30 32331 C 3403.72 -0.867409 3.49497 0
M  V30 32332 C 3403.58 0.313381 4.48707 0
M  V30 32333 C 3404.9 -1.72709 4.04796 0
M  V30 32334 H 3402.01 -0.152389 0.721073 0
M  V30 32335 H 3404.66 0.305945 1.87521 0
M  V30 32336 H 3402.81 -1.48878 3.58842 0
M  V30 32337 H 3404.48 0.951371 4.51383 0
M  V30 32338 H 3402.72 0.962454 4.22988 0
M  V30 32339 H 3403.39 -0.0401432 5.51985 0
M  V30 32340 H 3405.87 -1.20289 3.98334 0
M  V30 32341 H 3404.74 -2.00675 5.10902 0
M  V30 32342 H 3405.01 -2.68703 3.51071 0
M  V30 32343 N 3404.06 -1.57479 -0.0617887 0
M  V30 32344 C 3405 -1.99691 -1.10448 0
M  V30 32345 C 3405.98 -0.875497 -1.37018 0
M  V30 32346 O 3407.16 -1.13864 -1.50224 0
M  V30 32347 C 3404.29 -2.34215 -2.44665 0
M  V30 32348 C 3403.33 -3.56467 -2.34166 0
M  V30 32349 S 3404.17 -5.06914 -1.72621 0
M  V30 32350 C 3405.32 -5.4465 -3.08395 0
M  V30 32351 H 3405.55 -2.8782 -0.744792 0
M  V30 32352 H 3403.09 -1.52009 -0.270672 0
M  V30 32353 H 3405.05 -2.5478 -3.21866 0
M  V30 32354 H 3403.71 -1.46597 -2.77791 0
M  V30 32355 H 3402.9 -3.78173 -3.33169 0
M  V30 32356 H 3402.5 -3.35585 -1.65103 0
M  V30 32357 H 3404.79 -5.43332 -4.04717 0
M  V30 32358 H 3405.74 -6.45335 -2.91459 0
M  V30 32359 H 3406.14 -4.72116 -3.09462 0
M  V30 32360 N 3405.54 0.333401 -1.54033 0
M  V30 32361 C 3406.79 1.06997 -1.70981 0
M  V30 32362 C 3407.1 1.89488 -0.485129 0
M  V30 32363 O 3408.31 2.66161 -0.535759 0
M  V30 32364 C 3406.77 1.9517 -3.02385 0
M  V30 32365 C 3406.37 1.17837 -4.32225 0
M  V30 32366 C 3408.12 2.68622 -3.28698 0
M  V30 32367 C 3406.03 2.05099 -5.54697 0
M  V30 32368 H 3404.96 0.403168 -0.637159 0
M  V30 32369 H 3407.61 0.328808 -1.8053 0
M  V30 32370 H 3405.99 2.73146 -2.86718 0
M  V30 32371 H 3407.16 0.447008 -4.58627 0
M  V30 32372 H 3405.48 0.561093 -4.12602 0
M  V30 32373 H 3408.07 3.34199 -4.17391 0
M  V30 32374 H 3408.42 3.35734 -2.46147 0
M  V30 32375 H 3408.95 1.97714 -3.45187 0
M  V30 32376 H 3405.69 1.42512 -6.39821 0
M  V30 32377 H 3405.21 2.75996 -5.32528 0
M  V30 32378 H 3406.89 2.63915 -5.90726 0
M  V30 32379 N 3407.02 1.45939 0.594952 0
M  V30 32380 C 3408.27 1.51825 1.35354 0
M  V30 32381 C 3408.62 0.162754 1.9171 0
M  V30 32382 O 3407.91 -0.827017 1.72832 0
M  V30 32383 C 3408.11 2.54306 2.51124 0
M  V30 32384 C 3407.94 3.99688 2.06106 0
M  V30 32385 C 3406.71 4.67529 1.9169 0
M  V30 32386 C 3408.91 4.8785 1.62808 0
M  V30 32387 N 3406.89 5.97579 1.40615 0
M  V30 32388 C 3408.26 6.07629 1.23238 0
M  V30 32389 C 3410.31 4.74605 1.50515 0
M  V30 32390 C 3409.02 7.15627 0.725998 0
M  V30 32391 C 3411.04 5.82663 1.0128 0
M  V30 32392 C 3410.4 7.01606 0.626814 0
M  V30 32393 H 3406.5 0.610462 0.488733 0
M  V30 32394 H 3409.09 1.82485 0.678772 0
M  V30 32395 H 3407.26 2.25577 3.1618 0
M  V30 32396 H 3408.99 2.50263 3.18042 0
M  V30 32397 H 3405.75 4.22866 2.13263 0
M  V30 32398 H 3406.17 6.66765 1.17273 0
M  V30 32399 H 3410.81 3.83049 1.78978 0
M  V30 32400 H 3408.53 8.06961 0.428927 0
M  V30 32401 H 3412.12 5.74452 0.921763 0
M  V30 32402 H 3411 7.83796 0.251712 0
M  V30 32403 N 3408.5 -0.838547 1.3344 0
M  V30 32404 C 3409.45 -1.93687 1.20288 0
M  V30 32405 C 3410.43 -1.60552 0.105714 0
M  V30 32406 O 3411.62 -1.73823 0.333844 0
M  V30 32407 C 3408.75 -3.30049 0.944602 0
M  V30 32408 C 3407.84 -3.69352 2.08422 0
M  V30 32409 N 3408.23 -3.80347 3.33421 0
M  V30 32410 C 3406.53 -3.99094 1.99099 0
M  V30 32411 C 3407.23 -4.14458 4.08166 0
M  V30 32412 N 3406.21 -4.26844 3.36608 0
M  V30 32413 H 3410.01 -2.00344 2.15034 0
M  V30 32414 H 3407.52 -1.03129 1.25452 0
M  V30 32415 H 3409.52 -4.08528 0.831314 0
M  V30 32416 H 3408.18 -3.247 0.00567981 0
M  V30 32417 H 3409.19 -3.64246 3.68165 0
M  V30 32418 H 3405.87 -4.01954 1.12868 0
M  V30 32419 H 3407.26 -4.30299 5.16035 0
M  V30 32420 N 3409.98 -1.16914 -1.05683 0
M  V30 32421 C 3410.89 -0.895838 -2.16822 0
M  V30 32422 C 3411.9 0.134185 -1.73482 0
M  V30 32423 O 3413.08 -0.0439129 -2.01352 0
M  V30 32424 C 3410.14 -0.407488 -3.44297 0
M  V30 32425 C 3409.2 -1.50349 -4.02111 0
M  V30 32426 C 3408.44 -1.03835 -5.23502 0
M  V30 32427 O 3408.66 0.109478 -5.70295 0
M  V30 32428 O 3407.59 -1.8293 -5.73428 0
M  V30 32429 H 3411.42 -1.82537 -2.42722 0
M  V30 32430 H 3409.01 -0.94961 -1.15338 0
M  V30 32431 H 3410.89 -0.14243 -4.21159 0
M  V30 32432 H 3409.56 0.493953 -3.19909 0
M  V30 32433 H 3408.47 -1.82237 -3.26712 0
M  V30 32434 H 3409.8 -2.38046 -4.30807 0
M  V30 32435 N 3411.45 1.24323 -0.968589 0
M  V30 32436 C 3412.4 2.25344 -0.498857 0
M  V30 32437 C 3413.37 1.59716 0.456054 0
M  V30 32438 O 3414.56 1.87252 0.366221 0
M  V30 32439 C 3411.7 3.44497 0.203967 0
M  V30 32440 C 3410.81 4.24719 -0.789816 0
M  V30 32441 C 3409.94 5.31163 -0.0630089 0
M  V30 32442 C 3408.98 6.03083 -1.0468 0
M  V30 32443 N 3408.12 7.01227 -0.349935 0
M  V30 32444 H 3412.96 2.64892 -1.36515 0
M  V30 32445 H 3410.5 1.30214 -0.684311 0
M  V30 32446 H 3412.46 4.12444 0.62815 0
M  V30 32447 H 3411.09 3.05784 1.03421 0
M  V30 32448 H 3410.14 3.56301 -1.33244 0
M  V30 32449 H 3411.45 4.74433 -1.53997 0
M  V30 32450 H 3410.6 6.05251 0.419127 0
M  V30 32451 H 3409.34 4.82359 0.71983 0
M  V30 32452 H 3408.35 5.27798 -1.5398 0
M  V30 32453 H 3409.57 6.53976 -1.8301 0
M  V30 32454 H 3407.52 6.54693 0.413911 0
M  V30 32455 H 3407.44 7.48827 -1.03894 0
M  V30 32456 H 3408.7 7.79422 0.110203 0
M  V30 32457 N 3412.93 0.73881 1.3921 0
M  V30 32458 C 3414.18 0.287855 2.0004 0
M  V30 32459 C 3414.5 -1.12997 1.58923 0
M  V30 32460 O 3413.77 -1.77014 0.839224 0
M  V30 32461 H 3412.35 0.103438 0.739804 0
M  V30 32462 H 3415.01 0.949617 1.70201 0
M  V30 32463 H 3414.11 0.339262 3.10251 0
M  V30 32464 N 3414.41 -1.49895 0.486734 0
M  V30 32465 C 3415.32 -2.3262 -0.304181 0
M  V30 32466 C 3416.34 -1.43704 -0.981078 0
M  V30 32467 O 3417.51 -1.76743 -0.965608 0
M  V30 32468 C 3414.58 -3.18786 -1.36296 0
M  V30 32469 C 3413.64 -4.23538 -0.701008 0
M  V30 32470 C 3412.87 -5.05586 -1.70934 0
M  V30 32471 O 3413.09 -4.88936 -2.93765 0
M  V30 32472 O 3412.03 -5.88295 -1.27252 0
M  V30 32473 H 3415.85 -3.01407 0.372533 0
M  V30 32474 H 3413.44 -1.47322 0.248302 0
M  V30 32475 H 3415.32 -3.72206 -1.97587 0
M  V30 32476 H 3414 -2.5271 -2.02286 0
M  V30 32477 H 3412.9 -3.74068 -0.0487268 0
M  V30 32478 H 3414.24 -4.92129 -0.0837952 0
M  V30 32479 N 3415.89 -0.219968 -1.56057 0
M  V30 32480 C 3417.14 0.406025 -1.99306 0
M  V30 32481 C 3417.49 1.57499 -1.10508 0
M  V30 32482 O 3416.78 1.90974 -0.154696 0
M  V30 32483 C 3416.98 0.891039 -3.46115 0
M  V30 32484 C 3416.81 -0.229386 -4.49115 0
M  V30 32485 C 3415.58 -0.695257 -5.00494 0
M  V30 32486 C 3417.77 -1.0471 -5.03528 0
M  V30 32487 N 3415.76 -1.79091 -5.87197 0
M  V30 32488 C 3417.13 -1.99164 -5.8714 0
M  V30 32489 C 3419.18 -1.08672 -4.85896 0
M  V30 32490 C 3417.89 -2.97258 -6.55004 0
M  V30 32491 C 3419.91 -2.05582 -5.54518 0
M  V30 32492 C 3419.27 -2.98776 -6.37897 0
M  V30 32493 H 3415.37 0.11529 -0.773455 0
M  V30 32494 H 3417.96 -0.331376 -1.91859 0
M  V30 32495 H 3416.13 1.59781 -3.54012 0
M  V30 32496 H 3417.86 1.48972 -3.76284 0
M  V30 32497 H 3414.61 -0.284136 -4.72747 0
M  V30 32498 H 3415.04 -2.34068 -6.35249 0
M  V30 32499 H 3419.68 -0.380137 -4.21088 0
M  V30 32500 H 3417.4 -3.68879 -7.18995 0
M  V30 32501 H 3420.98 -2.09319 -5.42841 0
M  V30 32502 H 3419.86 -3.72541 -6.9006 0
M  V30 32503 N 3417.37 1.57509 0.0534363 0
M  V30 32504 C 3418.32 2.06001 1.0801 0
M  V30 32505 C 3419.31 0.968887 1.38957 0
M  V30 32506 O 3420.52 1.15391 1.38148 0
M  V30 32507 H 3416.89 0.657069 0.365739 0
M  V30 32508 H 3418.86 2.91343 0.645118 0
M  V30 32509 C 3417.61 2.53479 2.37999 0
M  V30 32510 H 3416.93 3.37042 2.15042 0
M  V30 32511 H 3418.37 2.91143 3.08239 0
M  V30 32512 C 3416.83 1.42548 3.05257 0
M  V30 32513 O 3417.36 0.777901 3.94096 0
M  V30 32514 N 3415.57 1.16604 2.6618 0
M  V30 32515 H 3415.12 1.69447 1.94024 0
M  V30 32516 H 3415.07 0.425904 3.11502 0
M  V30 32517 N 3418.85 -0.325228 1.54208 0
M  V30 32518 C 3420.12 -1.0815 1.62982 0
M  V30 32519 C 3420.5 -2.05969 0.462619 0
M  V30 32520 O 3419.85 -2.21947 -0.543284 0
M  V30 32521 C 3420.06 -1.78492 2.99903 0
M  V30 32522 C 3421.41 -2.31573 3.55892 0
M  V30 32523 O 3422.43 -1.88561 3.02197 0
M  V30 32524 O 3421.29 -3.10314 4.49853 0
M  V30 32525 H 3418.39 -0.498417 0.659931 0
M  V30 32526 H 3420.93 -0.325252 1.66554 0
M  V30 32527 H 3419.7 -1.07332 3.76292 0
M  V30 32528 H 3419.33 -2.60931 3.00002 0
M  V30 32529 N 3420.32 -1.46252 -0.587204 0
M  V30 32530 C 3421.57 -1.51553 -1.34757 0
M  V30 32531 C 3421.9 -0.164864 -1.93499 0
M  V30 32532 O 3421.18 0.823176 -1.76222 0
M  V30 32533 C 3421.46 -2.61063 -2.48028 0
M  V30 32534 C 3421.31 -4.05645 -1.9435 0
M  V30 32535 C 3422.63 -2.66691 -3.50091 0
M  V30 32536 H 3419.75 -0.551742 -0.488621 0
M  V30 32537 H 3422.39 -1.78166 -0.660066 0
M  V30 32538 H 3420.54 -2.38502 -3.06675 0
M  V30 32539 H 3422.22 -4.3948 -1.40196 0
M  V30 32540 H 3420.46 -4.15337 -1.2521 0
M  V30 32541 H 3421.13 -4.7799 -2.76096 0
M  V30 32542 H 3423.61 -2.86961 -3.01319 0
M  V30 32543 H 3422.48 -3.45143 -4.26811 0
M  V30 32544 H 3422.74 -1.72567 -4.07029 0
M  V30 32545 N 3421.8 0.831459 -1.33883 0
M  V30 32546 C 3423.21 1.40356 -1.23114 0
M  V30 32547 C 3423.56 1.95649 0.146909 0
M  V30 32548 O 3422.69 1.89393 1.04686 0
M  V30 32549 C 3423.28 2.55146 -2.22903 0
M  V30 32550 C 3421.84 3.08288 -2.15952 0
M  V30 32551 C 3420.99 1.8112 -2.09978 0
M  V30 32552 H 3423.94 0.636584 -1.45373 0
M  V30 32553 H 3423.96 3.32994 -1.84106 0
M  V30 32554 H 3423.47 2.14872 -3.23189 0
M  V30 32555 H 3421.57 3.53088 -1.18993 0
M  V30 32556 H 3421.69 3.67958 -3.06828 0
M  V30 32557 H 3420.05 2.0167 -1.55567 0
M  V30 32558 H 3420.83 1.43032 -3.12085 0
M  V30 32559 N 3423.28 1.17472 1.05062 0
M  V30 32560 C 3424.52 0.974756 1.7966 0
M  V30 32561 C 3424.88 -0.487824 1.85699 0
M  V30 32562 O 3426.08 -0.806909 2.56403 0
M  V30 32563 C 3424.36 1.59982 3.19595 0
M  V30 32564 S 3425.91 1.54623 4.10655 0
M  V30 32565 H 3422.73 0.35026 0.61874 0
M  V30 32566 H 3425.33 1.4944 1.26047 0
M  V30 32567 H 3424.04 2.65674 3.12802 0
M  V30 32568 H 3423.57 1.08003 3.78284 0
M  V30 32569 H 3425.58 0.55512 4.93085 0
M  V30 32570 N 3424.76 -1.23807 0.975168 0
M  V30 32571 C 3425.71 -2.27087 0.503436 0
M  V30 32572 C 3426.7 -1.6367 -0.436861 0
M  V30 32573 O 3427.91 -1.77287 -0.311329 0
M  V30 32574 H 3424.28 -0.738014 0.144359 0
M  V30 32575 H 3426.25 -2.64242 1.38632 0
M  V30 32576 C 3425 -3.47215 -0.183621 0
M  V30 32577 H 3424.32 -3.9626 0.530822 0
M  V30 32578 H 3425.76 -4.21304 -0.477405 0
M  V30 32579 C 3424.22 -3.05831 -1.41311 0
M  V30 32580 O 3424.75 -3.13651 -2.50969 0
M  V30 32581 N 3422.96 -2.608 -1.28186 0
M  V30 32582 H 3422.51 -2.54636 -0.389625 0
M  V30 32583 H 3422.46 -2.33477 -2.10561 0
M  V30 32584 N 3426.24 -0.746182 -1.38816 0
M  V30 32585 C 3427.47 -0.309192 -2.04273 0
M  V30 32586 C 3427.87 1.06483 -1.5639 0
M  V30 32587 O 3427.22 1.6862 -0.728904 0
M  V30 32588 C 3427.28 -0.245066 -3.58664 0
M  V30 32589 C 3426.94 -1.55941 -4.29571 0
M  V30 32590 C 3427.94 -2.50722 -4.5545 0
M  V30 32591 C 3425.62 -1.82679 -4.67903 0
M  V30 32592 C 3427.62 -3.70467 -5.18684 0
M  V30 32593 C 3425.31 -3.027 -5.30863 0
M  V30 32594 C 3426.3 -3.96414 -5.56188 0
M  V30 32595 O 3425.99 -5.14325 -6.17839 0
M  V30 32596 H 3425.72 -0.131133 -0.663159 0
M  V30 32597 H 3428.28 -1.01385 -1.78634 0
M  V30 32598 H 3426.51 0.51578 -3.83245 0
M  V30 32599 H 3428.2 0.161418 -4.05579 0
M  V30 32600 H 3428.96 -2.31338 -4.26272 0
M  V30 32601 H 3424.84 -1.10575 -4.47542 0
M  V30 32602 H 3428.39 -4.43629 -5.38367 0
M  V30 32603 H 3424.28 -3.2198 -5.59463 0
M  V30 32604 H 3425.05 -5.14808 -6.36329 0
M  V30 32605 N 3427.71 1.49635 -0.494676 0
M  V30 32606 C 3428.66 2.25934 0.306238 0
M  V30 32607 C 3429.65 1.3051 0.941059 0
M  V30 32608 O 3430.84 1.55271 0.849705 0
M  V30 32609 C 3427.97 3.14611 1.37385 0
M  V30 32610 C 3427.05 4.17495 0.745584 0
M  V30 32611 N 3427.45 5.05583 -0.148066 0
M  V30 32612 C 3425.74 4.34486 1.00689 0
M  V30 32613 C 3426.44 5.79486 -0.507051 0
M  V30 32614 N 3425.42 5.4346 0.123507 0
M  V30 32615 H 3429.22 2.91409 -0.381804 0
M  V30 32616 H 3426.74 1.59407 -0.310339 0
M  V30 32617 H 3428.73 3.67899 1.96102 0
M  V30 32618 H 3427.39 2.50687 2.06363 0
M  V30 32619 H 3428.4 5.15298 -0.518469 0
M  V30 32620 H 3425.08 3.81771 1.6899 0
M  V30 32621 H 3426.47 6.60401 -1.23777 0
M  V30 32622 N 3429.19 0.228241 1.55939 0
M  V30 32623 C 3430.12 -0.673661 2.23571 0
M  V30 32624 C 3431.1 -1.19587 1.20966 0
M  V30 32625 O 3432.29 -1.23865 1.4957 0
M  V30 32626 C 3429.42 -1.87901 2.9208 0
M  V30 32627 C 3428.37 -1.49036 4.01214 0
M  V30 32628 C 3427.7 -2.77503 4.57052 0
M  V30 32629 C 3429 -0.675349 5.17915 0
M  V30 32630 H 3430.69 -0.109753 2.99199 0
M  V30 32631 H 3428.24 -0.0513479 1.43908 0
M  V30 32632 H 3430.19 -2.51545 3.38087 0
M  V30 32633 H 3428.91 -2.468 2.1391 0
M  V30 32634 H 3427.57 -0.877349 3.55947 0
M  V30 32635 H 3427.22 -3.3456 3.75605 0
M  V30 32636 H 3426.92 -2.52229 5.30711 0
M  V30 32637 H 3428.45 -3.42078 5.05782 0
M  V30 32638 H 3429.86 -1.21565 5.60263 0
M  V30 32639 H 3428.26 -0.519431 5.97848 0
M  V30 32640 H 3429.33 0.31658 4.83865 0
M  V30 32641 N 3430.67 -1.57536 -0.0450825 0
M  V30 32642 C 3432.08 -1.77009 -0.593689 0
M  V30 32643 C 3432.43 -0.857264 -1.76481 0
M  V30 32644 O 3431.56 -0.0480083 -2.16347 0
M  V30 32645 C 3432.15 -3.20998 -1.08377 0
M  V30 32646 C 3430.71 -3.41724 -1.57802 0
M  V30 32647 C 3429.86 -2.72588 -0.509019 0
M  V30 32648 H 3432.81 -1.57663 0.181142 0
M  V30 32649 H 3432.83 -3.2663 -1.95175 0
M  V30 32650 H 3432.34 -3.87411 -0.231208 0
M  V30 32651 H 3430.44 -2.80464 -2.45297 0
M  V30 32652 H 3430.56 -4.50281 -1.63656 0
M  V30 32653 H 3428.92 -2.35901 -0.960347 0
M  V30 32654 H 3429.7 -3.41673 0.333813 0
M  V30 32655 N 3432.15 0.317045 -1.54378 0
M  V30 32656 C 3433.4 1.05421 -1.72895 0
M  V30 32657 C 3433.72 1.878 -0.506115 0
M  V30 32658 O 3432.98 1.88881 0.512097 0
M  V30 32659 C 3433.28 2.00194 -2.9607 0
M  V30 32660 C 3432.94 1.33919 -4.30554 0
M  V30 32661 C 3431.61 1.15576 -4.67114 0
M  V30 32662 C 3433.96 0.864067 -5.13988 0
M  V30 32663 C 3431.29 0.48379 -5.84702 0
M  V30 32664 C 3433.64 0.205895 -6.32265 0
M  V30 32665 C 3432.3 0.0103676 -6.67499 0
M  V30 32666 H 3431.57 0.385764 -0.632666 0
M  V30 32667 H 3434.22 0.330688 -1.88623 0
M  V30 32668 H 3432.52 2.7902 -2.75055 0
M  V30 32669 H 3434.22 2.57273 -3.0759 0
M  V30 32670 H 3430.81 1.492 -4.01793 0
M  V30 32671 H 3434.99 0.99355 -4.86253 0
M  V30 32672 H 3430.25 0.321162 -6.10556 0
M  V30 32673 H 3434.42 -0.170231 -6.96192 0
M  V30 32674 H 3432.05 -0.512342 -7.58472 0
M  V30 32675 N 3433.63 1.46561 0.57944 0
M  V30 32676 C 3434.85 1.55617 1.36348 0
M  V30 32677 C 3435.27 0.198438 1.87754 0
M  V30 32678 O 3434.63 -0.804805 1.63796 0
M  V30 32679 C 3434.68 2.5636 2.54876 0
M  V30 32680 O 3434.4 3.8686 2.056 0
M  V30 32681 C 3435.9 2.75387 3.47386 0
M  V30 32682 H 3433.12 0.526154 0.416417 0
M  V30 32683 H 3435.66 1.91997 0.704101 0
M  V30 32684 H 3433.82 2.22975 3.16798 0
M  V30 32685 H 3434.23 4.41719 2.82815 0
M  V30 32686 H 3435.71 3.49791 4.27025 0
M  V30 32687 H 3436.18 1.82411 3.99529 0
M  V30 32688 H 3436.79 3.0988 2.91297 0
M  V30 32689 N 3435.1 -0.824347 1.34322 0
M  V30 32690 C 3436.34 -1.59403 1.27945 0
M  V30 32691 C 3436.71 -1.91422 -0.148927 0
M  V30 32692 O 3437.91 -2.66681 -0.336844 0
M  V30 32693 C 3436.18 -2.85951 2.14398 0
M  V30 32694 S 3437.74 -3.76508 2.2536 0
M  V30 32695 H 3434.56 -0.546379 0.454962 0
M  V30 32696 H 3437.16 -0.973844 1.69519 0
M  V30 32697 H 3435.86 -2.60424 3.17187 0
M  V30 32698 H 3435.39 -3.52968 1.73716 0
M  V30 32699 H 3437.41 -4.75288 1.42534 0
M  V30 32700 N 3436.58 -1.18028 -1.04437 0
M  V30 32701 C 3437.53 -0.903903 -2.12363 0
M  V30 32702 C 3438.5 0.155223 -1.65373 0
M  V30 32703 O 3439.68 0.0163855 -1.90793 0
M  V30 32704 C 3436.82 -0.431664 -3.4239 0
M  V30 32705 C 3435.94 -1.55578 -4.03013 0
M  V30 32706 C 3435.07 -1.03665 -5.20987 0
M  V30 32707 C 3434.11 -2.1357 -5.73632 0
M  V30 32708 N 3433.25 -1.63078 -6.82898 0
M  V30 32709 H 3438.09 -1.82806 -2.35342 0
M  V30 32710 H 3435.63 -0.911638 -1.15445 0
M  V30 32711 H 3437.58 -0.139369 -4.16967 0
M  V30 32712 H 3436.21 0.45552 -3.1957 0
M  V30 32713 H 3435.27 -1.96364 -3.258 0
M  V30 32714 H 3436.58 -2.38442 -4.38117 0
M  V30 32715 H 3435.73 -0.698652 -6.02664 0
M  V30 32716 H 3434.47 -0.177543 -4.87377 0
M  V30 32717 H 3433.48 -2.48218 -4.90579 0
M  V30 32718 H 3434.7 -2.99909 -6.09287 0
M  V30 32719 H 3432.65 -0.794508 -6.51171 0
M  V30 32720 H 3432.56 -2.39543 -7.17046 0
M  V30 32721 H 3433.83 -1.32194 -7.68209 0
M  V30 32722 N 3438.06 1.23288 -0.98172 0
M  V30 32723 C 3439.01 2.24803 -0.52273 0
M  V30 32724 C 3439.98 1.60191 0.439088 0
M  V30 32725 O 3441.16 1.8763 0.34634 0
M  V30 32726 C 3438.3 3.44694 0.167417 0
M  V30 32727 C 3437.42 4.23857 -0.834818 0
M  V30 32728 C 3436.55 5.31066 -0.119342 0
M  V30 32729 C 3435.59 6.01938 -1.1107 0
M  V30 32730 N 3434.73 7.00817 -0.42429 0
M  V30 32731 H 3439.57 2.63429 -1.39317 0
M  V30 32732 H 3437.1 1.29481 -0.698083 0
M  V30 32733 H 3439.06 4.13087 0.58437 0
M  V30 32734 H 3437.69 3.06864 1.00172 0
M  V30 32735 H 3436.74 3.54868 -1.37015 0
M  V30 32736 H 3438.06 4.72773 -1.5902 0
M  V30 32737 H 3437.21 6.05661 0.354908 0
M  V30 32738 H 3435.95 4.83095 0.668629 0
M  V30 32739 H 3434.95 5.26135 -1.59569 0
M  V30 32740 H 3436.18 6.51998 -1.89936 0
M  V30 32741 H 3434.12 6.55095 0.344449 0
M  V30 32742 H 3434.04 7.47683 -1.1183 0
M  V30 32743 H 3435.31 7.79495 0.0275285 0
M  V30 32744 N 3439.54 0.753533 1.38418 0
M  V30 32745 C 3440.79 0.309056 1.99723 0
M  V30 32746 C 3441.11 -1.11305 1.60113 0
M  V30 32747 O 3440.38 -1.76114 0.857951 0
M  V30 32748 H 3438.96 0.111279 0.738665 0
M  V30 32749 H 3441.62 0.967615 1.69184 0
M  V30 32750 H 3440.72 0.372149 3.09873 0
M  V30 32751 N 3441.02 -1.49371 0.502605 0
M  V30 32752 C 3442.24 -2.06865 -0.0381066 0
M  V30 32753 C 3442.66 -1.36273 -1.30672 0
M  V30 32754 O 3442.02 -0.441563 -1.77078 0
M  V30 32755 C 3442.07 -3.60302 -0.294004 0
M  V30 32756 O 3441.79 -4.28238 0.924319 0
M  V30 32757 C 3443.29 -4.34515 -0.878176 0
M  V30 32758 H 3440.51 -0.670665 0.0211874 0
M  V30 32759 H 3443.05 -1.92131 0.700421 0
M  V30 32760 H 3441.21 -3.74734 -0.982517 0
M  V30 32761 H 3441.62 -5.19966 0.688153 0
M  V30 32762 H 3443.1 -5.42741 -1.0068 0
M  V30 32763 H 3443.57 -3.97101 -1.87636 0
M  V30 32764 H 3444.18 -4.24693 -0.227083 0
M  V30 32765 N 3442.49 -0.236508 -1.55815 0
M  V30 32766 C 3443.74 0.39169 -1.98981 0
M  V30 32767 C 3444.07 1.58344 -1.12431 0
M  V30 32768 O 3443.35 1.93615 -0.185337 0
M  V30 32769 C 3443.63 0.811697 -3.50833 0
M  V30 32770 C 3443.48 -0.384726 -4.48152 0
M  V30 32771 C 3444.8 1.66247 -4.07492 0
M  V30 32772 H 3441.92 0.140899 -0.723406 0
M  V30 32773 H 3444.56 -0.335739 -1.8701 0
M  V30 32774 H 3442.71 1.43151 -3.61165 0
M  V30 32775 H 3444.39 -1.02306 -4.49812 0
M  V30 32776 H 3442.63 -1.02963 -4.21404 0
M  V30 32777 H 3443.3 -0.047678 -5.51979 0
M  V30 32778 H 3445.78 1.13936 -4.00197 0
M  V30 32779 H 3444.65 1.92522 -5.1403 0
M  V30 32780 H 3444.91 2.63084 -3.55302 0
M  V30 32781 N 3443.97 1.57557 0.0367273 0
M  V30 32782 C 3444.94 2.05038 1.02431 0
M  V30 32783 C 3445.94 0.953169 1.29504 0
M  V30 32784 O 3447.13 1.21702 1.24636 0
M  V30 32785 C 3444.26 2.46083 2.35915 0
M  V30 32786 H 3445.45 2.9354 0.614333 0
M  V30 32787 H 3443 1.5371 0.283369 0
M  V30 32788 H 3443.74 1.60713 2.81677 0
M  V30 32789 H 3443.52 3.26181 2.17597 0
M  V30 32790 H 3445.01 2.83271 3.06834 0
M  V30 32791 N 3445.45 -0.308854 1.54544 0
M  V30 32792 C 3446.69 -1.05308 1.75184 0
M  V30 32793 C 3447.06 -1.84757 0.52238 0
M  V30 32794 O 3448.26 -2.61871 0.60638 0
M  V30 32795 C 3446.53 -1.94142 3.00073 0
M  V30 32796 S 3448.09 -2.75317 3.41681 0
M  V30 32797 H 3444.9 -0.355285 0.615868 0
M  V30 32798 H 3447.51 -0.327379 1.92739 0
M  V30 32799 H 3446.21 -1.34636 3.87687 0
M  V30 32800 H 3445.74 -2.71093 2.85083 0
M  V30 32801 H 3447.76 -3.96649 2.98135 0
M  V30 32802 N 3446.93 -1.46867 -0.571659 0
M  V30 32803 C 3448.18 -1.52446 -1.32682 0
M  V30 32804 C 3448.5 -0.182259 -1.94146 0
M  V30 32805 O 3447.77 0.792353 -1.79161 0
M  V30 32806 H 3446.35 -0.561504 -0.492669 0
M  V30 32807 H 3449.01 -1.83071 -0.668662 0
M  V30 32808 H 3448.11 -2.28319 -2.12784 0
M  V30 32809 N 3448.41 0.817212 -1.34757 0
M  V30 32810 C 3449.32 1.96021 -1.28892 0
M  V30 32811 C 3450.33 1.72897 -0.195612 0
M  V30 32812 O 3451.51 1.96906 -0.423106 0
M  V30 32813 C 3448.57 3.30421 -1.04991 0
M  V30 32814 C 3447.64 3.66513 -2.23532 0
M  V30 32815 C 3446.87 4.945 -2.00762 0
M  V30 32816 O 3447.09 5.62114 -0.968721 0
M  V30 32817 O 3446.03 5.28603 -2.87858 0
M  V30 32818 H 3449.85 2.03913 -2.25062 0
M  V30 32819 H 3447.44 0.953447 -1.15021 0
M  V30 32820 H 3449.32 4.10904 -0.934661 0
M  V30 32821 H 3447.99 3.23483 -0.118639 0
M  V30 32822 H 3446.9 2.8645 -2.40618 0
M  V30 32823 H 3448.23 3.78143 -3.15069 0
M  V30 32824 N 3449.89 1.1858 1.0381 0
M  V30 32825 C 3451.3 0.986524 1.58507 0
M  V30 32826 C 3451.65 -0.463103 1.90656 0
M  V30 32827 O 3450.77 -1.3409 1.69849 0
M  V30 32828 C 3451.37 1.78446 2.87997 0
M  V30 32829 C 3449.93 1.62946 3.39301 0
M  V30 32830 C 3449.07 1.77731 2.12854 0
M  V30 32831 H 3452.02 1.33086 0.864505 0
M  V30 32832 H 3452.05 1.27507 3.585 0
M  V30 32833 H 3451.56 2.83947 2.64567 0
M  V30 32834 H 3449.66 0.599929 3.67739 0
M  V30 32835 H 3449.77 2.4291 4.12955 0
M  V30 32836 H 3448.14 1.20703 2.24283 0
M  V30 32837 H 3448.92 2.84672 1.91877 0
M  V30 32838 N 3451.36 -1.22766 0.988245 0
M  V30 32839 C 3452.77 -1.73189 0.697311 0
M  V30 32840 C 3453.13 -1.79764 -0.786079 0
M  V30 32841 O 3452.25 -1.4408 -1.61462 0
M  V30 32842 C 3452.85 -3.14535 1.25911 0
M  V30 32843 C 3451.4 -3.62382 1.01765 0
M  V30 32844 C 3450.55 -2.40402 1.38211 0
M  V30 32845 H 3453.5 -1.08179 1.16116 0
M  V30 32846 H 3453.52 -3.75158 0.635381 0
M  V30 32847 H 3453.04 -3.09717 2.33874 0
M  V30 32848 H 3451.14 -3.72572 -0.0455615 0
M  V30 32849 H 3451.25 -4.48763 1.67775 0
M  V30 32850 H 3449.61 -2.41789 0.800649 0
M  V30 32851 H 3450.4 -2.38249 2.47169 0
M  V30 32852 N 3452.84 -0.760864 -1.38017 0
M  V30 32853 C 3454.09 -0.320751 -2.00247 0
M  V30 32854 C 3454.42 1.09681 -1.60261 0
M  V30 32855 O 3453.7 1.75253 -0.843598 0
M  V30 32856 C 3453.98 -0.451912 -3.57253 0
M  V30 32857 C 3453.83 -1.9111 -4.07182 0
M  V30 32858 C 3455.15 0.150362 -4.39843 0
M  V30 32859 H 3452.27 -0.11802 -0.727489 0
M  V30 32860 H 3454.91 -0.96187 -1.63854 0
M  V30 32861 H 3453.06 0.0938989 -3.88387 0
M  V30 32862 H 3454.73 -2.51578 -3.8666 0
M  V30 32863 H 3452.98 -2.42368 -3.59778 0
M  V30 32864 H 3453.65 -1.95399 -5.16259 0
M  V30 32865 H 3456.12 -0.315218 -4.14904 0
M  V30 32866 H 3455 0.0283888 -5.48893 0
M  V30 32867 H 3455.26 1.23948 -4.24369 0
M  V30 32868 N 3454.32 1.49102 -0.510519 0
M  V30 32869 C 3455.57 2.02777 0.0306534 0
M  V30 32870 C 3455.9 1.38861 1.35762 0
M  V30 32871 O 3455.17 0.527561 1.87209 0
M  V30 32872 C 3455.46 3.59683 0.173198 0
M  V30 32873 C 3455.31 4.34112 -1.17757 0
M  V30 32874 C 3456.63 4.30604 0.90932 0
M  V30 32875 H 3453.75 0.736937 0.00966595 0
M  V30 32876 H 3456.39 1.78028 -0.663778 0
M  V30 32877 H 3454.54 3.80901 0.764654 0
M  V30 32878 H 3456.21 4.24366 -1.80863 0
M  V30 32879 H 3454.45 3.96295 -1.76444 0
M  V30 32880 H 3455.13 5.42286 -1.03103 0
M  V30 32881 H 3457.6 4.14099 0.407604 0
M  V30 32882 H 3456.48 5.40118 0.977917 0
M  V30 32883 H 3456.74 3.96514 1.95523 0
M  V30 32884 N 3455.8 0.244768 1.55688 0
M  V30 32885 C 3456.71 -0.66648 2.24934 0
M  V30 32886 C 3457.72 -1.19501 1.26473 0
M  V30 32887 O 3458.9 -1.23173 1.59344 0
M  V30 32888 C 3455.96 -1.84767 2.93363 0
M  V30 32889 C 3455.03 -1.35882 4.07228 0
M  V30 32890 C 3454.26 -2.48371 4.72385 0
M  V30 32891 O 3454.48 -3.67051 4.36611 0
M  V30 32892 O 3453.42 -2.18251 5.60937 0
M  V30 32893 H 3457.24 -0.106453 3.03513 0
M  V30 32894 H 3454.83 0.0133572 1.49394 0
M  V30 32895 H 3456.71 -2.53702 3.36472 0
M  V30 32896 H 3455.38 -2.39536 2.17725 0
M  V30 32897 H 3454.29 -0.636817 3.6864 0
M  V30 32898 H 3455.62 -0.857248 4.84677 0
M  V30 32899 N 3457.28 -1.57574 -0.0283712 0
M  V30 32900 C 3458.23 -2.0307 -1.03665 0
M  V30 32901 C 3459.21 -0.920152 -1.31992 0
M  V30 32902 O 3460.4 -1.18404 -1.31566 0
M  V30 32903 C 3457.53 -2.51422 -2.33756 0
M  V30 32904 C 3456.62 -3.69299 -2.08516 0
M  V30 32905 N 3457.01 -4.81997 -1.53336 0
M  V30 32906 C 3455.31 -3.76686 -2.38797 0
M  V30 32907 C 3456.01 -5.63616 -1.43917 0
M  V30 32908 N 3454.98 -5.08753 -1.91498 0
M  V30 32909 H 3458.78 -2.87626 -0.604046 0
M  V30 32910 H 3456.3 -1.60696 -0.234661 0
M  V30 32911 H 3458.3 -2.82276 -3.06799 0
M  V30 32912 H 3456.96 -1.68273 -2.77695 0
M  V30 32913 H 3457.97 -5.03423 -1.21598 0
M  V30 32914 H 3454.64 -3.04338 -2.85805 0
M  V30 32915 H 3456.03 -6.64153 -1.01738 0
M  V30 32916 N 3458.75 0.300654 -1.54706 0
M  V30 32917 C 3459.72 1.35392 -1.84937 0
M  V30 32918 C 3460.72 1.43665 -0.722285 0
M  V30 32919 O 3461.91 1.43295 -0.990568 0
M  V30 32920 C 3459.04 2.73872 -2.02995 0
M  V30 32921 H 3460.23 1.0983 -2.79065 0
M  V30 32922 H 3457.78 0.537339 -1.46773 0
M  V30 32923 H 3458.52 3.04655 -1.11156 0
M  V30 32924 H 3458.3 2.69257 -2.85032 0
M  V30 32925 H 3459.79 3.50026 -2.27753 0
M  V30 32926 N 3460.23 1.47168 0.563863 0
M  V30 32927 C 3461.65 1.32539 0.889133 0
M  V30 32928 C 3461.85 0.310889 1.99087 0
M  V30 32929 O 3460.9 -0.279936 2.50943 0
M  V30 32930 C 3462.22 2.71687 1.28866 0
M  V30 32931 C 3463.77 2.79922 1.40046 0
M  V30 32932 C 3464.24 4.19695 1.83357 0
M  V30 32933 N 3465.73 4.22205 1.90519 0
M  V30 32934 C 3466.47 5.27264 2.25345 0
M  V30 32935 N 3465.96 6.42633 2.58832 0
M  V30 32936 N 3467.76 5.14638 2.26062 0
M  V30 32937 H 3459.91 2.11769 -0.163619 0
M  V30 32938 H 3462.17 0.947941 -0.0105317 0
M  V30 32939 H 3461.88 3.47325 0.552996 0
M  V30 32940 H 3461.75 3.03025 2.24623 0
M  V30 32941 H 3464.14 2.0456 2.12695 0
M  V30 32942 H 3464.22 2.52246 0.424927 0
M  V30 32943 H 3463.86 4.95559 1.1128 0
M  V30 32944 H 3463.79 4.44791 2.81901 0
M  V30 32945 H 3466.28 3.38971 1.67053 0
M  V30 32946 H 3466.6 7.1856 2.84414 0
M  V30 32947 H 3464.94 6.45964 2.56428 0
M  V30 32948 H 3468.13 4.23536 1.99336 0
M  V30 32949 H 3468.3 5.96623 2.52874 0
M  V30 32950 N 3461.71 -0.810054 1.35188 0
M  V30 32951 C 3462.94 -1.59839 1.31374 0
M  V30 32952 C 3463.35 -1.88482 -0.109514 0
M  V30 32953 O 3462.71 -1.48529 -1.06045 0
M  V30 32954 C 3462.76 -2.93171 2.11502 0
M  V30 32955 O 3462.48 -2.65771 3.48277 0
M  V30 32956 C 3463.98 -3.87543 2.15233 0
M  V30 32957 H 3461.2 -0.496433 0.451437 0
M  V30 32958 H 3463.75 -1.00694 1.77992 0
M  V30 32959 H 3461.9 -3.4884 1.68493 0
M  V30 32960 H 3462.32 -3.50879 3.89851 0
M  V30 32961 H 3463.79 -4.78222 2.75696 0
M  V30 32962 H 3464.27 -4.23873 1.15015 0
M  V30 32963 H 3464.87 -3.3781 2.58388 0
M  V30 32964 N 3463.19 -1.19129 -1.0318 0
M  V30 32965 C 3464.44 -0.992124 -1.76531 0
M  V30 32966 C 3464.76 0.477396 -1.8855 0
M  V30 32967 O 3464.02 1.37072 -1.39678 0
M  V30 32968 C 3464.32 -1.60272 -3.19449 0
M  V30 32969 C 3463.98 -3.09987 -3.27443 0
M  V30 32970 C 3462.65 -3.50847 -3.29332 0
M  V30 32971 C 3465 -4.05998 -3.26825 0
M  V30 32972 C 3462.33 -4.86276 -3.28256 0
M  V30 32973 C 3464.68 -5.41354 -3.2729 0
M  V30 32974 C 3463.34 -5.8165 -3.27475 0
M  V30 32975 H 3462.61 -0.363044 -0.645972 0
M  V30 32976 H 3465.26 -1.48328 -1.21124 0
M  V30 32977 H 3463.56 -1.03379 -3.77915 0
M  V30 32978 H 3465.26 -1.42394 -3.74866 0
M  V30 32979 H 3461.85 -2.77427 -3.26699 0
M  V30 32980 H 3466.03 -3.75475 -3.24549 0
M  V30 32981 H 3461.29 -5.16781 -3.26722 0
M  V30 32982 H 3465.46 -6.1551 -3.25762 0
M  V30 32983 H 3463.09 -6.86564 -3.26395 0
M  V30 32984 N 3464.67 1.2224 -0.994741 0
M  V30 32985 C 3465.91 1.9066 -0.670308 0
M  V30 32986 C 3466.24 1.77819 0.800338 0
M  V30 32987 O 3465.51 1.16656 1.57379 0
M  V30 32988 H 3464.09 0.705701 -0.244938 0
M  V30 32989 H 3466.75 1.48555 -1.26164 0
M  V30 32990 H 3465.84 2.97782 -0.934461 0
M  V30 32991 N 3466.14 0.768172 1.37611 0
M  V30 32992 C 3467.08 0.110274 2.28935 0
M  V30 32993 C 3468.09 -0.668096 1.4846 0
M  V30 32994 O 3469.28 -0.506778 1.71155 0
M  V30 32995 C 3466.38 -0.86754 3.27608 0
M  V30 32996 C 3465.55 -0.143742 4.37164 0
M  V30 32997 C 3464.61 -1.0344 5.15933 0
M  V30 32998 O 3463.64 -0.499505 5.67004 0
M  V30 32999 N 3464.84 -2.36105 5.30316 0
M  V30 33000 H 3467.6 0.894635 2.86036 0
M  V30 33001 H 3465.16 0.620211 1.49549 0
M  V30 33002 H 3467.16 -1.46673 3.77186 0
M  V30 33003 H 3465.73 -1.55289 2.71301 0
M  V30 33004 H 3464.95 0.636325 3.8903 0
M  V30 33005 H 3466.23 0.356536 5.07549 0
M  V30 33006 H 3465.63 -2.82002 4.90399 0
M  V30 33007 H 3464.19 -2.9104 5.83215 0
M  V30 33008 N 3467.62 -1.48829 0.518419 0
M  V30 33009 C 3468.57 -2.29435 -0.250644 0
M  V30 33010 C 3469.54 -1.36635 -0.944457 0
M  V30 33011 O 3470.72 -1.65598 -0.947737 0
M  V30 33012 C 3467.86 -3.19733 -1.29865 0
M  V30 33013 C 3466.98 -4.27602 -0.614854 0
M  V30 33014 C 3466.11 -5.05094 -1.6448 0
M  V30 33015 C 3465.15 -6.0478 -0.943826 0
M  V30 33016 N 3464.29 -6.75372 -1.91877 0
M  V30 33017 H 3469.13 -2.9469 0.442932 0
M  V30 33018 H 3466.67 -1.45286 0.230272 0
M  V30 33019 H 3468.62 -3.70475 -1.91844 0
M  V30 33020 H 3467.25 -2.56425 -1.96076 0
M  V30 33021 H 3466.31 -3.80215 0.118619 0
M  V30 33022 H 3467.62 -4.98759 -0.0639064 0
M  V30 33023 H 3466.77 -5.59792 -2.33918 0
M  V30 33024 H 3465.51 -4.3375 -2.22963 0
M  V30 33025 H 3464.52 -5.49296 -0.235311 0
M  V30 33026 H 3465.74 -6.78117 -0.365263 0
M  V30 33027 H 3463.69 -6.06787 -2.4929 0
M  V30 33028 H 3463.6 -7.42564 -1.41896 0
M  V30 33029 H 3464.87 -7.34666 -2.6055 0
M  V30 33030 N 3469.1 -0.253021 -1.55556 0
M  V30 33031 C 3470.05 0.64394 -2.21635 0
M  V30 33032 C 3471.02 1.16668 -1.18228 0
M  V30 33033 O 3472.2 1.22003 -1.46697 0
M  V30 33034 C 3469.34 1.83241 -2.92432 0
M  V30 33035 C 3468.46 1.34562 -4.10508 0
M  V30 33036 C 3467.59 2.49413 -4.69006 0
M  V30 33037 C 3466.63 1.97626 -5.79319 0
M  V30 33038 N 3465.77 3.05867 -6.31973 0
M  V30 33039 H 3470.61 0.0737655 -2.97909 0
M  V30 33040 H 3468.14 0.024647 -1.47079 0
M  V30 33041 H 3470.1 2.53067 -3.31682 0
M  V30 33042 H 3468.73 2.37496 -2.18621 0
M  V30 33043 H 3467.78 0.541201 -3.7653 0
M  V30 33044 H 3469.1 0.926134 -4.90127 0
M  V30 33045 H 3468.25 3.2727 -5.10861 0
M  V30 33046 H 3466.99 2.94666 -3.88617 0
M  V30 33047 H 3465.99 1.18241 -5.36935 0
M  V30 33048 H 3467.22 1.53335 -6.61563 0
M  V30 33049 H 3465.16 3.50543 -5.54487 0
M  V30 33050 H 3465.08 2.68268 -7.06801 0
M  V30 33051 H 3466.35 3.83765 -6.78487 0
M  V30 33052 N 3470.58 1.57587 0.0200142 0
M  V30 33053 C 3471.86 1.8086 0.744914 0
M  V30 33054 C 3472.24 0.853252 1.93088 0
M  V30 33055 O 3471.58 -0.10257 2.2827 0
M  V30 33056 C 3471.79 3.28823 1.16946 0
M  V30 33057 C 3473.14 3.94043 1.58163 0
M  V30 33058 O 3474.17 3.33026 1.2638 0
M  V30 33059 O 3473.02 5.01489 2.17188 0
M  V30 33060 H 3470.12 0.744057 0.360982 0
M  V30 33061 H 3472.66 1.697 -0.00390357 0
M  V30 33062 H 3471.44 3.89963 0.323235 0
M  V30 33063 H 3471.06 3.44907 1.97801 0
M  V30 33064 N 3472.06 -0.292445 1.54863 0
M  V30 33065 C 3473.47 -0.638585 1.46268 0
M  V30 33066 C 3473.67 -1.90355 0.660858 0
M  V30 33067 O 3472.73 -2.51914 0.171953 0
M  V30 33068 C 3474.04 -0.783624 2.9031 0
M  V30 33069 C 3475.59 -0.878952 3.00405 0
M  V30 33070 C 3476.06 -1.05592 4.45662 0
M  V30 33071 N 3477.56 -1.12192 4.49408 0
M  V30 33072 C 3478.29 -1.2773 5.58993 0
M  V30 33073 N 3477.79 -1.40111 6.78484 0
M  V30 33074 N 3479.58 -1.30686 5.46697 0
M  V30 33075 H 3471.73 0.538557 2.05459 0
M  V30 33076 H 3473.99 0.17937 0.930876 0
M  V30 33077 H 3473.7 0.0751055 3.5162 0
M  V30 33078 H 3473.57 -1.66999 3.38218 0
M  V30 33079 H 3475.96 -1.72816 2.39204 0
M  V30 33080 H 3476.04 0.0316074 2.5578 0
M  V30 33081 H 3475.69 -0.211446 5.0746 0
M  V30 33082 H 3475.62 -1.98083 4.87925 0
M  V30 33083 H 3478.11 -1.03942 3.63324 0
M  V30 33084 H 3478.42 -1.51746 7.57755 0
M  V30 33085 H 3476.76 -1.37151 6.81333 0
M  V30 33086 H 3479.96 -1.2063 4.5229 0
M  V30 33087 H 3480.13 -1.42452 6.32148 0
M  V30 33088 N 3473.53 -1.47465 -0.55605 0
M  V30 33089 C 3474.76 -1.57538 -1.33661 0
M  V30 33090 C 3475.17 -0.22501 -1.87857 0
M  V30 33091 O 3474.52 0.792062 -1.65747 0
M  V30 33092 C 3474.58 -2.54157 -2.54253 0
M  V30 33093 C 3474.24 -3.99825 -2.21335 0
M  V30 33094 C 3475.24 -4.88275 -1.78559 0
M  V30 33095 C 3472.92 -4.45169 -2.32658 0
M  V30 33096 C 3474.92 -6.2009 -1.47538 0
M  V30 33097 C 3472.6 -5.77011 -2.0125 0
M  V30 33098 C 3473.6 -6.64293 -1.58757 0
M  V30 33099 O 3473.29 -7.93685 -1.27748 0
M  V30 33100 H 3473.02 -0.53462 -0.413712 0
M  V30 33101 H 3475.58 -1.93807 -0.680308 0
M  V30 33102 H 3473.81 -2.12958 -3.22778 0
M  V30 33103 H 3475.5 -2.54345 -3.16328 0
M  V30 33104 H 3476.26 -4.5449 -1.69303 0
M  V30 33105 H 3472.14 -3.77438 -2.64691 0
M  V30 33106 H 3475.68 -6.88173 -1.14298 0
M  V30 33107 H 3471.58 -6.10338 -2.10139 0
M  V30 33108 H 3472.35 -8.06199 -1.41369 0
M  V30 33109 N 3475.01 0.802873 -1.35616 0
M  V30 33110 C 3475.92 1.94642 -1.30964 0
M  V30 33111 C 3476.94 1.7268 -0.213939 0
M  V30 33112 O 3478.12 1.96446 -0.443966 0
M  V30 33113 C 3475.18 3.29289 -1.08489 0
M  V30 33114 C 3474.24 3.64122 -2.27407 0
M  V30 33115 C 3473.47 4.92343 -2.05995 0
M  V30 33116 O 3473.7 5.61055 -1.02829 0
M  V30 33117 O 3472.63 5.25521 -2.93448 0
M  V30 33118 H 3476.46 2.01515 -2.27212 0
M  V30 33119 H 3474.04 0.941194 -1.16025 0
M  V30 33120 H 3475.92 4.09889 -0.97819 0
M  V30 33121 H 3474.6 3.23338 -0.152942 0
M  V30 33122 H 3473.51 2.83882 -2.43643 0
M  V30 33123 H 3474.84 3.7478 -3.19062 0
M  V30 33124 N 3476.49 1.19674 1.02547 0
M  V30 33125 C 3477.74 0.995762 1.75407 0
M  V30 33126 C 3478.05 -0.473829 1.89774 0
M  V30 33127 O 3479.26 -0.793717 2.59639 0
M  V30 33128 C 3477.72 1.73278 3.1544 0
M  V30 33129 C 3477.32 3.24271 3.09115 0
M  V30 33130 C 3479.07 1.61516 3.92572 0
M  V30 33131 C 3476.97 3.90548 4.44102 0
M  V30 33132 H 3475.9 0.368955 0.657562 0
M  V30 33133 H 3478.56 1.43205 1.14737 0
M  V30 33134 H 3476.94 1.22432 3.76598 0
M  V30 33135 H 3478.11 3.82262 2.57318 0
M  V30 33136 H 3476.43 3.36346 2.45479 0
M  V30 33137 H 3479.02 2.08381 4.92424 0
M  V30 33138 H 3479.37 0.569876 4.12381 0
M  V30 33139 H 3479.9 2.09727 3.38023 0
M  V30 33140 H 3476.64 4.95189 4.29497 0
M  V30 33141 H 3476.16 3.37346 4.95942 0
M  V30 33142 H 3477.84 3.94291 5.12975 0
M  V30 33143 N 3477.97 -1.21711 1.00121 0
M  V30 33144 C 3478.92 -2.25968 0.551491 0
M  V30 33145 C 3479.91 -1.6456 -0.402046 0
M  V30 33146 O 3481.12 -1.77908 -0.273654 0
M  V30 33147 H 3477.49 -0.734786 0.15998 0
M  V30 33148 H 3479.46 -2.61242 1.44206 0
M  V30 33149 C 3478.21 -3.47526 -0.109931 0
M  V30 33150 H 3477.54 -3.95045 0.614756 0
M  V30 33151 H 3478.98 -4.22222 -0.387933 0
M  V30 33152 C 3477.43 -3.0876 -1.34792 0
M  V30 33153 O 3477.96 -3.18904 -2.4426 0
M  V30 33154 N 3476.17 -2.6346 -1.22626 0
M  V30 33155 H 3475.72 -2.55406 -0.335526 0
M  V30 33156 H 3475.68 -2.37891 -2.05561 0
M  V30 33157 N 3479.45 -0.775459 -1.37202 0
M  V30 33158 C 3480.67 -0.351772 -2.04395 0
M  V30 33159 C 3481.1 1.01911 -1.58101 0
M  V30 33160 O 3480.46 1.65378 -0.742961 0
M  V30 33161 C 3480.5 -0.408168 -3.58282 0
M  V30 33162 O 3479.61 0.590032 -4.08157 0
M  V30 33163 H 3478.95 -0.151658 -0.646449 0
M  V30 33164 H 3481.48 -1.05268 -1.75441 0
M  V30 33165 H 3481.49 -0.266783 -4.07127 0
M  V30 33166 H 3480.16 -1.40826 -3.91332 0
M  V30 33167 H 3478.74 0.411459 -3.70623 0
M  V30 33168 N 3480.93 1.48552 -0.526305 0
M  V30 33169 C 3481.86 2.32391 0.227323 0
M  V30 33170 C 3482.84 1.41861 0.938595 0
M  V30 33171 O 3484.02 1.70751 0.925089 0
M  V30 33172 C 3481.15 3.22973 1.27694 0
M  V30 33173 C 3480.11 4.22499 0.684033 0
M  V30 33174 C 3479.43 5.02189 1.83603 0
M  V30 33175 C 3480.73 5.2118 -0.341814 0
M  V30 33176 H 3482.43 2.95647 -0.472538 0
M  V30 33177 H 3479.97 1.42172 -0.228694 0
M  V30 33178 H 3481.92 3.80449 1.81208 0
M  V30 33179 H 3480.65 2.57709 2.00633 0
M  V30 33180 H 3479.31 3.66204 0.170441 0
M  V30 33181 H 3478.96 4.33353 2.55371 0
M  V30 33182 H 3478.66 5.69549 1.44526 0
M  V30 33183 H 3480.18 5.62516 2.37503 0
M  V30 33184 H 3481.59 5.73202 0.106107 0
M  V30 33185 H 3479.99 5.96572 -0.649777 0
M  V30 33186 H 3481.06 4.68541 -1.24888 0
M  V30 33187 N 3482.4 0.261267 1.55419 0
M  V30 33188 C 3483.65 -0.359984 1.99579 0
M  V30 33189 C 3483.98 -1.56536 1.14936 0
M  V30 33190 O 3483.26 -1.93296 0.216116 0
M  V30 33191 C 3483.54 -0.75578 3.5208 0
M  V30 33192 C 3483.39 0.455975 4.47483 0
M  V30 33193 C 3484.71 -1.59743 4.10086 0
M  V30 33194 H 3481.83 -0.129372 0.725556 0
M  V30 33195 H 3484.47 0.365448 1.86452 0
M  V30 33196 H 3482.62 -1.37387 3.63397 0
M  V30 33197 H 3484.3 1.09449 4.48128 0
M  V30 33198 H 3482.54 1.09654 4.19712 0
M  V30 33199 H 3483.21 0.135487 5.51834 0
M  V30 33200 H 3485.69 -1.07555 4.01959 0
M  V30 33201 H 3484.56 -1.8432 5.17027 0
M  V30 33202 H 3484.82 -2.57398 3.59442 0
M  V30 33203 N 3483.88 -1.57596 -0.0116567 0
M  V30 33204 C 3485.3 -1.5531 -0.367575 0
M  V30 33205 C 3485.5 -0.98965 -1.75523 0
M  V30 33206 O 3484.55 -0.618332 -2.44812 0
M  V30 33207 C 3485.87 -2.9963 -0.253479 0
M  V30 33208 C 3487.41 -3.11263 -0.32928 0
M  V30 33209 C 3487.89 -4.57347 -0.24444 0
M  V30 33210 N 3489.38 -4.6221 -0.3027 0
M  V30 33211 C 3490.12 -5.72809 -0.260214 0
M  V30 33212 N 3489.61 -6.92594 -0.169002 0
M  V30 33213 N 3491.4 -5.61238 -0.311224 0
M  V30 33214 H 3483.56 -1.92565 0.896238 0
M  V30 33215 H 3485.82 -0.883982 0.342461 0
M  V30 33216 H 3485.52 -3.44647 0.7008 0
M  V30 33217 H 3485.4 -3.62573 -1.04023 0
M  V30 33218 H 3487.79 -2.66183 -1.274 0
M  V30 33219 H 3487.87 -2.51119 0.487128 0
M  V30 33220 H 3487.51 -5.03099 0.696685 0
M  V30 33221 H 3487.44 -5.15423 -1.07918 0
M  V30 33222 H 3489.93 -3.76035 -0.375001 0
M  V30 33223 H 3490.24 -7.72669 -0.14216 0
M  V30 33224 H 3488.59 -6.94869 -0.134797 0
M  V30 33225 H 3491.78 -4.6655 -0.380596 0
M  V30 33226 H 3491.95 -6.47418 -0.274647 0
M  V30 33227 N 3485.36 0.284228 -1.55016 0
M  V30 33228 C 3486.59 1.03433 -1.78844 0
M  V30 33229 C 3487 1.80836 -0.556333 0
M  V30 33230 O 3486.34 1.77213 0.483864 0
M  V30 33231 C 3486.4 2.04866 -2.95415 0
M  V30 33232 C 3486.07 1.46504 -4.3288 0
M  V30 33233 C 3487.06 0.886445 -5.12287 0
M  V30 33234 C 3484.75 1.49562 -4.79517 0
M  V30 33235 C 3486.74 0.346194 -6.36459 0
M  V30 33236 C 3484.43 0.951507 -6.03647 0
M  V30 33237 C 3485.43 0.37778 -6.81954 0
M  V30 33238 O 3485.12 -0.158036 -8.03745 0
M  V30 33239 H 3484.85 0.311767 -0.599814 0
M  V30 33240 H 3487.4 0.323873 -2.02831 0
M  V30 33241 H 3485.63 2.79639 -2.67094 0
M  V30 33242 H 3487.32 2.65913 -3.06668 0
M  V30 33243 H 3488.09 0.855598 -4.77393 0
M  V30 33244 H 3483.97 1.93158 -4.18582 0
M  V30 33245 H 3487.51 -0.102264 -6.97525 0
M  V30 33246 H 3483.41 0.979556 -6.38024 0
M  V30 33247 H 3484.17 -0.0463258 -8.18487 0
M  V30 33248 N 3486.84 1.47758 0.548222 0
M  V30 33249 C 3487.77 1.56987 1.66996 0
M  V30 33250 C 3488.78 0.4554 1.56301 0
M  V30 33251 O 3489.97 0.725427 1.63094 0
M  V30 33252 C 3487.07 1.4665 3.05527 0
M  V30 33253 C 3486.24 2.72822 3.41887 0
M  V30 33254 C 3485.3 2.56195 4.5962 0
M  V30 33255 O 3484.33 3.30036 4.63751 0
M  V30 33256 N 3485.53 1.64611 5.56672 0
M  V30 33257 H 3488.3 2.53718 1.59522 0
M  V30 33258 H 3485.86 1.44251 0.735075 0
M  V30 33259 H 3487.85 1.33249 3.82135 0
M  V30 33260 H 3486.42 0.579664 3.07179 0
M  V30 33261 H 3485.64 3.0092 2.54639 0
M  V30 33262 H 3486.93 3.56565 3.62959 0
M  V30 33263 H 3486.33 1.03787 5.56098 0
M  V30 33264 H 3484.88 1.57157 6.3257 0
M  V30 33265 N 3488.32 -0.79567 1.3604 0
M  V30 33266 C 3489.56 -1.56653 1.31298 0
M  V30 33267 C 3489.92 -1.91694 -0.10829 0
M  V30 33268 O 3491.12 -2.67336 -0.280201 0
M  V30 33269 C 3489.39 -2.81339 2.20416 0
M  V30 33270 S 3490.95 -3.71643 2.33296 0
M  V30 33271 H 3487.77 -0.536606 0.466449 0
M  V30 33272 H 3490.37 -0.937667 1.71546 0
M  V30 33273 H 3489.07 -2.53637 3.2264 0
M  V30 33274 H 3488.61 -3.49203 1.81164 0
M  V30 33275 H 3490.62 -4.72158 1.52584 0
M  V30 33276 N 3489.79 -1.20217 -1.0191 0
M  V30 33277 C 3491.02 -1.03634 -1.79074 0
M  V30 33278 C 3491.44 0.41455 -1.84193 0
M  V30 33279 O 3490.79 1.28786 -1.29308 0
M  V30 33280 C 3490.85 -1.61013 -3.23662 0
M  V30 33281 O 3490.57 -3.00424 -3.18868 0
M  V30 33282 C 3492.07 -1.49349 -4.17384 0
M  V30 33283 H 3489.29 -0.364702 -0.563235 0
M  V30 33284 H 3491.83 -1.59249 -1.28297 0
M  V30 33285 H 3489.99 -1.09524 -3.71595 0
M  V30 33286 H 3490.4 -3.27605 -4.09604 0
M  V30 33287 H 3491.87 -1.94262 -5.16688 0
M  V30 33288 H 3492.35 -0.44557 -4.36934 0
M  V30 33289 H 3492.96 -2.00017 -3.75331 0
M  V30 33290 N 3491.27 1.21178 -1.00765 0
M  V30 33291 C 3492.18 2.27325 -0.579686 0
M  V30 33292 C 3493.2 1.69832 0.378562 0
M  V30 33293 O 3494.37 1.99944 0.241737 0
M  V30 33294 C 3491.44 3.46597 0.0843039 0
M  V30 33295 C 3490.5 4.19353 -0.918759 0
M  V30 33296 C 3489.73 5.32931 -0.286361 0
M  V30 33297 O 3489.96 5.62994 0.916175 0
M  V30 33298 O 3488.89 5.93558 -0.998617 0
M  V30 33299 H 3492.72 2.6613 -1.46316 0
M  V30 33300 H 3490.3 1.27626 -0.776664 0
M  V30 33301 H 3492.18 4.1893 0.455562 0
M  V30 33302 H 3490.86 3.09687 0.942111 0
M  V30 33303 H 3489.77 3.49231 -1.34122 0
M  V30 33304 H 3491.1 4.60182 -1.74624 0
M  V30 33305 N 3492.75 0.782725 1.36789 0
M  V30 33306 C 3494 0.351351 1.99022 0
M  V30 33307 C 3494.32 -1.07884 1.62438 0
M  V30 33308 O 3493.59 -1.74254 0.895114 0
M  V30 33309 H 3492.17 0.126922 0.736138 0
M  V30 33310 H 3494.83 1.00328 1.67093 0
M  V30 33311 H 3493.93 0.437794 3.09014 0
M  V30 33312 N 3494.23 -1.48271 0.534176 0
M  V30 33313 C 3495.48 -2.025 0.00160818 0
M  V30 33314 C 3495.8 -1.41087 -1.33883 0
M  V30 33315 O 3495.06 -0.547577 -1.87883 0
M  V30 33316 C 3495.36 -3.57019 -0.165081 0
M  V30 33317 C 3495.02 -4.37238 1.10153 0
M  V30 33318 C 3493.69 -4.58876 1.44866 0
M  V30 33319 C 3496.04 -4.83672 1.94192 0
M  V30 33320 C 3493.37 -5.24196 2.63506 0
M  V30 33321 C 3495.72 -5.503 3.12015 0
M  V30 33322 C 3494.38 -5.70176 3.47068 0
M  V30 33323 H 3493.65 -0.741 0.000588475 0
M  V30 33324 H 3496.3 -1.78207 0.701045 0
M  V30 33325 H 3494.6 -3.80175 -0.947317 0
M  V30 33326 H 3496.3 -3.96604 -0.592132 0
M  V30 33327 H 3492.89 -4.20659 0.821206 0
M  V30 33328 H 3497.07 -4.66754 1.68685 0
M  V30 33329 H 3492.33 -5.37782 2.90862 0
M  V30 33330 H 3496.5 -5.85248 3.77437 0
M  V30 33331 H 3494.13 -6.20563 4.39097 0
M  V30 33332 N 3495.71 -0.269505 -1.55279 0
M  V30 33333 C 3496.95 0.349395 -1.99768 0
M  V30 33334 C 3497.29 1.55924 -1.15764 0
M  V30 33335 O 3496.56 1.93178 -0.226364 0
M  V30 33336 C 3496.84 0.737098 -3.52475 0
M  V30 33337 C 3496.7 -0.479699 -4.47235 0
M  V30 33338 C 3498.02 1.57566 -4.10927 0
M  V30 33339 H 3495.13 0.125522 -0.726232 0
M  V30 33340 H 3497.78 -0.375331 -1.86256 0
M  V30 33341 H 3495.93 1.35458 -3.6412 0
M  V30 33342 H 3497.6 -1.11824 -4.47541 0
M  V30 33343 H 3495.84 -1.11878 -4.19125 0
M  V30 33344 H 3496.51 -0.16475 -5.51754 0
M  V30 33345 H 3498.99 1.05422 -4.02524 0
M  V30 33346 H 3497.86 1.81575 -5.17998 0
M  V30 33347 H 3498.13 2.55488 -3.60802 0
M  V30 33348 N 3497.18 1.576 0.00329885 0
M  V30 33349 C 3498.12 2.0506 1.02388 0
M  V30 33350 C 3499.13 0.967924 1.30901 0
M  V30 33351 O 3500.32 1.24478 1.27935 0
M  V30 33352 C 3497.42 2.43278 2.35943 0
M  V30 33353 C 3496.59 3.74238 2.26417 0
M  V30 33354 C 3495.65 3.99361 3.42633 0
M  V30 33355 O 3494.68 4.70072 3.20968 0
M  V30 33356 N 3495.88 3.46999 4.65373 0
M  V30 33357 H 3498.64 2.93234 0.619164 0
M  V30 33358 H 3496.2 1.60772 0.190749 0
M  V30 33359 H 3498.2 2.57202 3.12457 0
M  V30 33360 H 3496.77 1.60639 2.68167 0
M  V30 33361 H 3495.99 3.70423 1.34834 0
M  V30 33362 H 3497.27 4.601 2.17221 0
M  V30 33363 H 3496.67 2.89732 4.85873 0
M  V30 33364 H 3495.23 3.66258 5.39164 0
M  V30 33365 N 3498.66 -0.276003 1.55164 0
M  V30 33366 C 3500.08 -0.623036 1.46937 0
M  V30 33367 C 3500.28 -1.89643 0.68101 0
M  V30 33368 O 3499.33 -2.51717 0.198662 0
M  V30 33369 C 3500.65 -0.752788 2.91125 0
M  V30 33370 C 3502.2 -0.84704 3.01321 0
M  V30 33371 C 3502.67 -1.00859 4.46757 0
M  V30 33372 N 3504.16 -1.07419 4.50572 0
M  V30 33373 C 3504.9 -1.21794 5.60316 0
M  V30 33374 N 3504.39 -1.32907 6.79932 0
M  V30 33375 N 3506.19 -1.2488 5.48052 0
M  V30 33376 H 3498.34 0.560318 2.04876 0
M  V30 33377 H 3500.6 0.189233 0.928921 0
M  V30 33378 H 3500.31 0.112395 3.5152 0
M  V30 33379 H 3500.18 -1.63402 3.3997 0
M  V30 33380 H 3502.57 -1.70269 2.41024 0
M  V30 33381 H 3502.65 0.0587346 2.55733 0
M  V30 33382 H 3502.29 -0.157611 5.07655 0
M  V30 33383 H 3502.22 -1.92897 4.89998 0
M  V30 33384 H 3504.71 -1.00083 3.64406 0
M  V30 33385 H 3505.03 -1.43701 7.59322 0
M  V30 33386 H 3503.37 -1.29917 6.82749 0
M  V30 33387 H 3506.56 -1.15827 4.53544 0
M  V30 33388 H 3506.73 -1.35739 6.33624 0
M  V30 33389 N 3500.14 -1.48046 -0.540378 0
M  V30 33390 C 3501.09 -1.58197 -1.64188 0
M  V30 33391 C 3502.07 -0.43973 -1.54775 0
M  V30 33392 O 3503.27 -0.6906 -1.62972 0
M  V30 33393 C 3500.4 -1.6151 -3.02935 0
M  V30 33394 C 3499.48 -2.81177 -3.1749 0
M  V30 33395 N 3499.87 -4.05706 -3.02054 0
M  V30 33396 C 3498.17 -2.78292 -3.48525 0
M  V30 33397 C 3498.87 -4.85938 -3.19749 0
M  V30 33398 N 3497.85 -4.18563 -3.46851 0
M  V30 33399 H 3501.65 -2.52234 -1.50848 0
M  V30 33400 H 3499.16 -1.44274 -0.745576 0
M  V30 33401 H 3501.16 -1.66874 -3.82045 0
M  V30 33402 H 3499.82 -0.685809 -3.17375 0
M  V30 33403 H 3500.83 -4.36305 -2.79031 0
M  V30 33404 H 3497.51 -1.94574 -3.69388 0
M  V30 33405 H 3498.9 -5.94732 -3.12639 0
M  V30 33406 N 3501.62 0.788444 -1.3646 0
M  V30 33407 C 3502.55 1.90772 -1.25225 0
M  V30 33408 C 3503.53 1.62028 -0.136216 0
M  V30 33409 O 3504.71 1.85975 -0.307518 0
M  V30 33410 C 3501.84 3.25615 -0.932345 0
M  V30 33411 C 3500.89 3.73288 -2.06296 0
M  V30 33412 S 3501.72 3.88934 -3.68091 0
M  V30 33413 C 3502.88 5.26651 -3.38215 0
M  V30 33414 H 3503.11 2.0001 -2.19962 0
M  V30 33415 H 3500.64 0.947779 -1.21887 0
M  V30 33416 H 3502.6 4.03505 -0.754585 0
M  V30 33417 H 3501.26 3.141 -0.00273934 0
M  V30 33418 H 3500.45 4.71001 -1.79371 0
M  V30 33419 H 3500.06 3.02451 -2.19999 0
M  V30 33420 H 3502.35 6.11264 -2.92168 0
M  V30 33421 H 3503.29 5.5858 -4.35195 0
M  V30 33422 H 3503.7 4.93798 -2.7354 0
M  V30 33423 N 3503.1 1.20755 1.01271 0
M  V30 33424 C 3504.51 1.01992 1.56379 0
M  V30 33425 C 3504.86 -0.422558 1.91596 0
M  V30 33426 O 3503.98 -1.30457 1.72655 0
M  V30 33427 C 3504.58 1.84515 2.84147 0
M  V30 33428 C 3503.14 1.70107 3.35769 0
M  V30 33429 C 3502.28 1.82206 2.09036 0
M  V30 33430 H 3505.24 1.3489 0.836081 0
M  V30 33431 H 3505.26 1.35083 3.55715 0
M  V30 33432 H 3504.77 2.89495 2.58485 0
M  V30 33433 H 3502.87 0.677796 3.66383 0
M  V30 33434 H 3502.98 2.51614 4.07709 0
M  V30 33435 H 3501.35 1.25433 2.21673 0
M  V30 33436 H 3502.13 2.88678 1.85795 0
M  V30 33437 N 3504.58 -1.20642 1.01406 0
M  V30 33438 C 3505.8 -1.93928 0.721075 0
M  V30 33439 C 3506.22 -1.74622 -0.717822 0
M  V30 33440 O 3505.58 -1.05858 -1.48662 0
M  V30 33441 C 3505.63 -3.46095 1.04405 0
M  V30 33442 O 3505.35 -3.64768 2.42643 0
M  V30 33443 C 3506.85 -4.3653 0.771755 0
M  V30 33444 H 3504.07 -0.616457 0.264994 0
M  V30 33445 H 3506.61 -1.53206 1.35456 0
M  V30 33446 H 3504.77 -3.84707 0.456013 0
M  V30 33447 H 3505.18 -4.58779 2.54209 0
M  V30 33448 H 3506.66 -5.41963 1.04784 0
M  V30 33449 H 3507.13 -4.38214 -0.294111 0
M  V30 33450 H 3507.74 -4.03578 1.34183 0
M  V30 33451 N 3506.05 -0.789968 -1.36372 0
M  V30 33452 C 3507.3 -0.3592 -1.98476 0
M  V30 33453 C 3507.62 1.07514 -1.63402 0
M  V30 33454 O 3508.82 1.6082 -2.18745 0
M  V30 33455 C 3507.28 -0.59129 -3.5501 0
M  V30 33456 C 3506.89 -2.03708 -3.99008 0
M  V30 33457 C 3508.63 -0.225054 -4.23903 0
M  V30 33458 C 3506.54 -2.2158 -5.48321 0
M  V30 33459 H 3505.47 -0.130566 -0.742609 0
M  V30 33460 H 3508.12 -0.971679 -1.55662 0
M  V30 33461 H 3506.5 0.0909092 -3.95896 0
M  V30 33462 H 3507.67 -2.75572 -3.69319 0
M  V30 33463 H 3505.99 -2.36161 -3.42953 0
M  V30 33464 H 3508.59 -0.336858 -5.33638 0
M  V30 33465 H 3508.93 0.826893 -4.08005 0
M  V30 33466 H 3509.46 -0.860511 -3.88381 0
M  V30 33467 H 3506.2 -3.25159 -5.69168 0
M  V30 33468 H 3505.72 -1.54221 -5.79634 0
M  V30 33469 H 3507.4 -2.02321 -6.14553 0
M  V30 33470 N 3507.53 1.47986 -0.542031 0
M  V30 33471 C 3508.95 1.58333 -0.200719 0
M  V30 33472 C 3509.15 1.54258 1.29641 0
M  V30 33473 O 3508.2 1.43798 2.07553 0
M  V30 33474 C 3509.52 2.89475 -0.813929 0
M  V30 33475 C 3511.06 3.03028 -0.783764 0
M  V30 33476 C 3511.54 4.36849 -1.37577 0
M  V30 33477 N 3513.03 4.43446 -1.33827 0
M  V30 33478 C 3513.77 5.45524 -1.76611 0
M  V30 33479 N 3513.26 6.54493 -2.27181 0
M  V30 33480 N 3515.05 5.36478 -1.67774 0
M  V30 33481 H 3507.21 1.48877 -1.5149 0
M  V30 33482 H 3509.47 0.707627 -0.630847 0
M  V30 33483 H 3509.17 2.98148 -1.86549 0
M  V30 33484 H 3509.05 3.76021 -0.298045 0
M  V30 33485 H 3511.44 2.93961 0.259067 0
M  V30 33486 H 3511.52 2.18063 -1.33725 0
M  V30 33487 H 3511.16 4.46671 -2.41759 0
M  V30 33488 H 3511.09 5.20521 -0.797861 0
M  V30 33489 H 3513.58 3.65286 -0.968211 0
M  V30 33490 H 3513.89 7.28536 -2.5779 0
M  V30 33491 H 3512.24 6.55423 -2.31182 0
M  V30 33492 H 3515.43 4.50244 -1.28056 0
M  V30 33493 H 3515.6 6.15895 -2.01437 0
M  V30 33494 N 3509.01 0.277736 1.55133 0
M  V30 33495 C 3510.25 -0.339454 2.01562 0
M  V30 33496 C 3510.61 -1.52854 1.16188 0
M  V30 33497 O 3511.81 -2.21554 1.52208 0
M  V30 33498 C 3510.09 -0.709506 3.50287 0
M  V30 33499 S 3511.64 -1.31286 4.187 0
M  V30 33500 H 3508.46 -0.105439 0.703138 0
M  V30 33501 H 3511.06 0.400182 1.9136 0
M  V30 33502 H 3509.77 0.164747 4.10069 0
M  V30 33503 H 3509.3 -1.48053 3.64477 0
M  V30 33504 H 3511.31 -2.60138 4.22543 0
M  V30 33505 N 3510.49 -1.57599 0.00505908 0
M  V30 33506 C 3511.42 -2.056 -1.01299 0
M  V30 33507 C 3512.43 -0.974852 -1.30386 0
M  V30 33508 O 3513.62 -1.25155 -1.27273 0
M  V30 33509 C 3510.72 -2.44526 -2.34649 0
M  V30 33510 C 3509.89 -3.75434 -2.24429 0
M  V30 33511 C 3508.95 -4.01172 -3.4051 0
M  V30 33512 O 3507.98 -4.71768 -3.18471 0
M  V30 33513 N 3509.18 -3.49462 -4.63526 0
M  V30 33514 H 3511.95 -2.93559 -0.603604 0
M  V30 33515 H 3509.51 -1.60871 -0.18222 0
M  V30 33516 H 3511.5 -2.58855 -3.11089 0
M  V30 33517 H 3510.07 -1.62059 -2.67312 0
M  V30 33518 H 3509.29 -3.71133 -1.32868 0
M  V30 33519 H 3510.58 -4.61246 -2.14778 0
M  V30 33520 H 3509.98 -2.92304 -4.84329 0
M  V30 33521 H 3508.53 -3.69113 -5.37214 0
M  V30 33522 N 3511.97 0.267771 -1.55309 0
M  V30 33523 C 3513.38 0.838429 -1.66815 0
M  V30 33524 C 3513.73 1.86844 -0.598642 0
M  V30 33525 O 3512.85 2.14845 0.258922 0
M  V30 33526 C 3513.45 1.52753 -3.0241 0
M  V30 33527 C 3512.01 2.04615 -3.15927 0
M  V30 33528 C 3511.15 0.889998 -2.6263 0
M  V30 33529 H 3514.1 0.0440076 -1.58639 0
M  V30 33530 H 3514.13 2.39473 -2.95691 0
M  V30 33531 H 3513.64 0.777628 -3.8023 0
M  V30 33532 H 3511.74 2.8255 -2.42891 0
M  V30 33533 H 3511.85 2.25787 -4.2256 0
M  V30 33534 H 3510.22 1.28481 -2.1992 0
M  V30 33535 H 3511 0.153519 -3.42957 0
M  V30 33536 N 3513.44 1.48331 0.532519 0
M  V30 33537 C 3514.67 1.60131 1.31806 0
M  V30 33538 C 3515.09 0.26084 1.86283 0
M  V30 33539 O 3514.45 -0.767108 1.64272 0
M  V30 33540 C 3514.5 2.64907 2.44656 0
M  V30 33541 O 3513.6 2.21891 3.47618 0
M  V30 33542 H 3512.94 0.537047 0.390482 0
M  V30 33543 H 3515.47 1.94299 0.641034 0
M  V30 33544 H 3515.48 2.86101 2.90878 0
M  V30 33545 H 3514.16 3.62225 2.04366 0
M  V30 33546 H 3512.74 2.10899 3.07532 0
M  V30 33547 N 3514.92 -0.781196 1.36876 0
M  V30 33548 C 3516.17 -1.53636 1.31302 0
M  V30 33549 C 3516.49 -1.94718 -0.104907 0
M  V30 33550 O 3515.76 -1.65578 -1.04693 0
M  V30 33551 H 3514.34 -0.569806 0.483042 0
M  V30 33552 H 3517 -0.930329 1.71263 0
M  V30 33553 H 3516.1 -2.44014 1.94586 0
M  V30 33554 N 3516.4 -1.21291 -1.0063 0
M  V30 33555 C 3517.35 -0.938495 -2.07789 0
M  V30 33556 C 3518.33 0.105745 -1.60552 0
M  V30 33557 O 3519.53 -0.103012 -1.767 0
M  V30 33558 C 3516.65 -0.503622 -3.39586 0
M  V30 33559 C 3515.74 -1.58186 -3.93495 0
M  V30 33560 N 3516.13 -2.80664 -4.20787 0
M  V30 33561 C 3514.43 -1.45043 -4.21757 0
M  V30 33562 C 3515.13 -3.50289 -4.64405 0
M  V30 33563 N 3514.11 -2.77725 -4.673 0
M  V30 33564 H 3517.91 -1.86904 -2.26813 0
M  V30 33565 H 3515.42 -1.10844 -1.1869 0
M  V30 33566 H 3517.42 -0.288397 -4.15901 0
M  V30 33567 H 3516.08 0.420176 -3.2197 0
M  V30 33568 H 3517.09 -3.17219 -4.09381 0
M  V30 33569 H 3513.77 -0.591817 -4.13284 0
M  V30 33570 H 3515.16 -4.5515 -4.94255 0
M  V30 33571 N 3517.88 1.20103 -1.02045 0
M  V30 33572 C 3519.12 1.90125 -0.722781 0
M  V30 33573 C 3519.48 1.77606 0.739859 0
M  V30 33574 O 3518.77 1.15203 1.53098 0
M  V30 33575 C 3518.97 3.40114 -1.09806 0
M  V30 33576 C 3518.79 3.67228 -2.59564 0
M  V30 33577 C 3517.56 3.85729 -3.26407 0
M  V30 33578 C 3519.76 3.69476 -3.57759 0
M  V30 33579 N 3517.74 4.00397 -4.65355 0
M  V30 33580 C 3519.12 3.89615 -4.82287 0
M  V30 33581 C 3521.17 3.52459 -3.51677 0
M  V30 33582 C 3519.87 3.94499 -6.01467 0
M  V30 33583 C 3521.9 3.58617 -4.70264 0
M  V30 33584 C 3521.26 3.79232 -5.93601 0
M  V30 33585 H 3517.36 0.715214 -0.316216 0
M  V30 33586 H 3519.94 1.44397 -1.30605 0
M  V30 33587 H 3518.12 3.84584 -0.543093 0
M  V30 33588 H 3519.85 3.97623 -0.753531 0
M  V30 33589 H 3516.6 3.84269 -2.76829 0
M  V30 33590 H 3517.03 4.11599 -5.37508 0
M  V30 33591 H 3521.67 3.35484 -2.57314 0
M  V30 33592 H 3519.39 4.10269 -6.96208 0
M  V30 33593 H 3522.97 3.46752 -4.67177 0
M  V30 33594 H 3521.85 3.8386 -6.83828 0
M  V30 33595 N 3519.36 0.797189 1.35951 0
M  V30 33596 C 3520.27 0.202312 2.33726 0
M  V30 33597 C 3521.28 -0.649691 1.61416 0
M  V30 33598 O 3522.46 -0.563652 1.93352 0
M  V30 33599 C 3519.52 -0.64679 3.40613 0
M  V30 33600 C 3518.58 0.224612 4.28712 0
M  V30 33601 C 3517.82 -0.58406 5.30495 0
M  V30 33602 O 3518.04 -1.81948 5.40603 0
M  V30 33603 O 3516.97 0.0201297 6.01897 0
M  V30 33604 H 3520.8 1.01092 2.86381 0
M  V30 33605 H 3518.39 0.558792 1.38556 0
M  V30 33606 H 3520.27 -1.13073 4.05946 0
M  V30 33607 H 3518.94 -1.43316 2.90245 0
M  V30 33608 H 3517.85 0.75548 3.66392 0
M  V30 33609 H 3519.18 0.974688 4.82453 0
M  V30 33610 N 3520.83 -1.47696 0.549872 0
M  V30 33611 C 3521.74 -2.337 -0.205245 0
M  V30 33612 C 3522.76 -1.47736 -0.919245 0
M  V30 33613 O 3523.94 -1.80679 -0.889776 0
M  V30 33614 C 3521 -3.2428 -1.22652 0
M  V30 33615 C 3520.06 -4.2613 -0.52074 0
M  V30 33616 C 3519.3 -5.12381 -1.49336 0
M  V30 33617 O 3519.52 -5.00956 -2.72763 0
M  V30 33618 O 3518.45 -5.93162 -1.02186 0
M  V30 33619 H 3522.28 -2.99555 0.500035 0
M  V30 33620 H 3519.86 -1.46136 0.310563 0
M  V30 33621 H 3521.75 -3.80251 -1.81623 0
M  V30 33622 H 3520.42 -2.61062 -1.91385 0
M  V30 33623 H 3519.33 -3.73938 0.109972 0
M  V30 33624 H 3520.66 -4.92041 0.125009 0
M  V30 33625 N 3522.31 -0.285959 -1.54984 0
M  V30 33626 C 3523.72 0.209674 -1.85519 0
M  V30 33627 C 3524.07 1.54604 -1.20797 0
M  V30 33628 O 3523.2 2.1054 -0.500196 0
M  V30 33629 C 3523.79 0.387224 -3.3658 0
M  V30 33630 C 3522.35 0.827083 -3.67201 0
M  V30 33631 C 3521.5 -0.0733568 -2.77203 0
M  V30 33632 H 3524.45 -0.50743 -1.50369 0
M  V30 33633 H 3524.47 1.22414 -3.60271 0
M  V30 33634 H 3523.98 -0.58556 -3.83657 0
M  V30 33635 H 3522.09 1.81095 -3.25631 0
M  V30 33636 H 3522.2 0.656893 -4.74575 0
M  V30 33637 H 3520.56 0.444815 -2.50786 0
M  V30 33638 H 3521.35 -1.04222 -3.27097 0
M  V30 33639 N 3523.79 1.57594 -0.0134169 0
M  V30 33640 C 3525.21 1.55875 0.34282 0
M  V30 33641 C 3525.41 1.01745 1.73926 0
M  V30 33642 O 3524.46 0.657201 2.43797 0
M  V30 33643 C 3525.78 2.99995 0.205778 0
M  V30 33644 C 3527.32 3.11748 0.27972 0
M  V30 33645 C 3527.8 4.57678 0.171649 0
M  V30 33646 N 3529.29 4.62633 0.229129 0
M  V30 33647 C 3530.02 5.73151 0.169052 0
M  V30 33648 N 3529.52 6.92775 0.0587948 0
M  V30 33649 N 3531.31 5.61662 0.221897 0
M  V30 33650 H 3523.46 1.91115 -0.92676 0
M  V30 33651 H 3525.73 0.878422 -0.356481 0
M  V30 33652 H 3525.43 3.43489 -0.755542 0
M  V30 33653 H 3525.31 3.64182 0.982412 0
M  V30 33654 H 3527.69 2.68176 1.23149 0
M  V30 33655 H 3527.78 2.50312 -0.527018 0
M  V30 33656 H 3527.42 5.01927 -0.776636 0
M  V30 33657 H 3527.35 5.17075 0.997047 0
M  V30 33658 H 3529.84 3.76584 0.31513 0
M  V30 33659 H 3530.15 7.72798 0.0192168 0
M  V30 33660 H 3528.5 6.94996 0.0242321 0
M  V30 33661 H 3531.69 4.67097 0.306324 0
M  V30 33662 H 3531.86 6.47773 0.171613 0
M  V30 33663 N 3525.27 -0.259531 1.55448 0
M  V30 33664 C 3526.52 -0.98717 1.75892 0
M  V30 33665 C 3526.83 -1.86958 0.574983 0
M  V30 33666 O 3528.04 -2.63302 0.662138 0
M  V30 33667 C 3526.49 -1.80521 3.11352 0
M  V30 33668 C 3526.1 -0.970805 4.37355 0
M  V30 33669 C 3527.84 -2.52634 3.4114 0
M  V30 33670 C 3525.75 -1.784 5.6385 0
M  V30 33671 H 3524.68 -0.372309 0.655669 0
M  V30 33672 H 3527.33 -0.2423 1.81893 0
M  V30 33673 H 3525.71 -2.59155 2.99424 0
M  V30 33674 H 3526.89 -0.227682 4.60237 0
M  V30 33675 H 3525.2 -0.363596 4.1481 0
M  V30 33676 H 3527.8 -3.13904 4.3286 0
M  V30 33677 H 3528.14 -3.23608 2.61885 0
M  V30 33678 H 3528.68 -1.8102 3.54227 0
M  V30 33679 H 3525.42 -1.11823 6.45892 0
M  V30 33680 H 3524.94 -2.50274 5.4509 0
M  V30 33681 H 3526.61 -2.3543 6.02645 0
M  V30 33682 N 3526.75 -1.48611 -0.524645 0
M  V30 33683 C 3527.97 -1.6057 -1.30479 0
M  V30 33684 C 3528.39 -0.267985 -1.86888 0
M  V30 33685 O 3527.75 0.743459 -1.6667 0
M  V30 33686 C 3527.8 -2.65643 -2.45186 0
M  V30 33687 O 3527.52 -3.94224 -1.911 0
M  V30 33688 C 3529.02 -2.8809 -3.36926 0
M  V30 33689 H 3526.24 -0.541246 -0.396602 0
M  V30 33690 H 3528.78 -1.94477 -0.632357 0
M  V30 33691 H 3526.94 -2.34579 -3.08304 0
M  V30 33692 H 3527.35 -4.51912 -2.66226 0
M  V30 33693 H 3528.83 -3.65398 -4.13749 0
M  V30 33694 H 3529.3 -1.97113 -3.92483 0
M  V30 33695 H 3529.91 -3.20478 -2.79596 0
M  V30 33696 N 3528.22 0.773926 -1.37289 0
M  V30 33697 C 3529.46 1.54545 -1.33773 0
M  V30 33698 C 3529.83 1.91842 0.0777797 0
M  V30 33699 O 3531.03 2.67748 0.237635 0
M  V30 33700 C 3529.3 2.77797 -2.24864 0
M  V30 33701 S 3530.86 3.67884 -2.39179 0
M  V30 33702 H 3527.68 0.529117 -0.474927 0
M  V30 33703 H 3530.28 0.910257 -1.73016 0
M  V30 33704 H 3528.98 2.48472 -3.26634 0
M  V30 33705 H 3528.51 3.46277 -1.86697 0
M  V30 33706 H 3530.53 4.6967 -1.60076 0
M  V30 33707 N 3529.7 1.21823 0.99985 0
M  V30 33708 C 3530.93 1.0647 1.77403 0
M  V30 33709 C 3531.35 -0.385194 1.84829 0
M  V30 33710 O 3530.7 -1.26712 1.3134 0
M  V30 33711 C 3530.75 1.66142 3.21059 0
M  V30 33712 O 3530.47 3.05459 3.14048 0
M  V30 33713 C 3531.98 1.5597 4.14956 0
M  V30 33714 H 3529.2 0.373616 0.557361 0
M  V30 33715 H 3531.74 1.61269 1.25747 0
M  V30 33716 H 3529.89 1.15422 3.69806 0
M  V30 33717 H 3530.31 3.3408 4.0434 0
M  V30 33718 H 3531.78 2.02457 5.13532 0
M  V30 33719 H 3532.26 0.515026 4.3617 0
M  V30 33720 H 3532.87 2.05962 3.72102 0
M  V30 33721 N 3531.18 -1.1956 1.0268 0
M  V30 33722 C 3532.46 -1.84945 0.636772 0
M  V30 33723 C 3532.84 -1.9167 -0.884634 0
M  V30 33724 O 3532.19 -1.43215 -1.7805 0
M  V30 33725 C 3532.4 -3.24027 1.29643 0
M  V30 33726 C 3533.74 -4.0021 1.41835 0
M  V30 33727 O 3534.77 -3.33418 1.25344 0
M  V30 33728 O 3533.63 -5.19848 1.68583 0
M  V30 33729 H 3530.72 -0.796908 0.221058 0
M  V30 33730 H 3533.27 -1.27066 1.12482 0
M  V30 33731 H 3532.04 -3.13956 2.33554 0
M  V30 33732 H 3531.66 -3.89548 0.796109 0
M  V30 33733 N 3532.66 -0.804387 -1.35526 0
M  V30 33734 C 3533.62 -0.21889 -2.28152 0
M  V30 33735 C 3534.62 0.592484 -1.49487 0
M  V30 33736 O 3535.81 0.411289 -1.69275 0
M  V30 33737 C 3532.94 0.695136 -3.33737 0
M  V30 33738 H 3534.14 -1.03581 -2.81445 0
M  V30 33739 H 3531.69 -0.574879 -1.45344 0
M  V30 33740 H 3532.42 1.53582 -2.85627 0
M  V30 33741 H 3532.21 0.115074 -3.91931 0
M  V30 33742 H 3533.7 1.09918 -4.02874 0
M  V30 33743 N 3534.14 1.47403 -0.557697 0
M  V30 33744 C 3535.37 2.06864 -0.0386963 0
M  V30 33745 C 3535.78 1.41029 1.25524 0
M  V30 33746 O 3535.14 0.50698 1.75317 0
M  V30 33747 C 3535.19 3.61145 0.160078 0
M  V30 33748 O 3534.91 4.24513 -1.08262 0
M  V30 33749 C 3536.41 4.37475 0.716304 0
M  V30 33750 H 3533.63 0.669417 -0.0460641 0
M  V30 33751 H 3536.17 1.89399 -0.771247 0
M  V30 33752 H 3534.33 3.78122 0.84276 0
M  V30 33753 H 3534.74 5.17054 -0.880661 0
M  V30 33754 H 3536.22 5.46103 0.804677 0
M  V30 33755 H 3536.69 4.03791 1.72769 0
M  V30 33756 H 3537.3 4.25244 0.069304 0
M  V30 33757 N 3535.62 0.294175 1.5483 0
M  V30 33758 C 3536.84 -0.319902 2.04412 0
M  V30 33759 C 3537.26 -1.48037 1.17177 0
M  V30 33760 O 3536.62 -1.81445 0.195913 0
M  V30 33761 C 3536.67 -0.782689 3.52925 0
M  V30 33762 O 3536.39 0.331588 4.36843 0
M  V30 33763 C 3537.89 -1.46262 4.18476 0
M  V30 33764 H 3535.11 -0.0704856 0.667288 0
M  V30 33765 H 3537.65 0.43182 1.99889 0
M  V30 33766 H 3535.81 -1.48445 3.57831 0
M  V30 33767 H 3536.22 -0.0274821 5.24493 0
M  V30 33768 H 3537.7 -1.73766 5.23936 0
M  V30 33769 H 3538.17 -2.40045 3.67798 0
M  V30 33770 H 3538.78 -0.804218 4.17627 0
M  V30 33771 N 3537.09 -1.57585 0.0217743 0
M  V30 33772 C 3538.32 -1.95507 -0.667877 0
M  V30 33773 C 3538.73 -0.89645 -1.66615 0
M  V30 33774 O 3538.07 0.131027 -1.83232 0
M  V30 33775 C 3538.14 -3.29535 -1.4369 0
M  V30 33776 C 3537.8 -4.53073 -0.59779 0
M  V30 33777 C 3538.8 -5.19753 0.123811 0
M  V30 33778 C 3536.48 -4.99417 -0.537352 0
M  V30 33779 C 3538.48 -6.31091 0.894602 0
M  V30 33780 C 3536.16 -6.1064 0.237149 0
M  V30 33781 C 3537.16 -6.76335 0.951839 0
M  V30 33782 O 3536.85 -7.85423 1.71366 0
M  V30 33783 H 3536.58 -0.648886 -0.189533 0
M  V30 33784 H 3539.14 -2.05261 0.0756043 0
M  V30 33785 H 3537.37 -3.16251 -2.22536 0
M  V30 33786 H 3539.05 -3.52412 -2.01396 0
M  V30 33787 H 3539.82 -4.84923 0.086406 0
M  V30 33788 H 3535.7 -4.48094 -1.08319 0
M  V30 33789 H 3539.24 -6.82301 1.45297 0
M  V30 33790 H 3535.14 -6.44908 0.276297 0
M  V30 33791 H 3535.91 -8.02051 1.63266 0
M  V30 33792 N 3538.57 0.251283 -1.55584 0
M  V30 33793 C 3539.52 1.31105 -1.89948 0
M  V30 33794 C 3540.49 1.48039 -0.753235 0
M  V30 33795 O 3541.67 1.62094 -1.00649 0
M  V30 33796 C 3538.81 2.6623 -2.19581 0
M  V30 33797 C 3537.93 2.57339 -3.46988 0
M  V30 33798 C 3537.06 3.84788 -3.66213 0
M  V30 33799 C 3536.1 3.70497 -4.87236 0
M  V30 33800 N 3535.24 4.89828 -5.03004 0
M  V30 33801 H 3540.08 1.01099 -2.80327 0
M  V30 33802 H 3537.61 0.487961 -1.38771 0
M  V30 33803 H 3539.57 3.44878 -2.34766 0
M  V30 33804 H 3538.2 2.94393 -1.32411 0
M  V30 33805 H 3537.25 1.70283 -3.40159 0
M  V30 33806 H 3538.57 2.42687 -4.3578 0
M  V30 33807 H 3537.72 4.7188 -3.81333 0
M  V30 33808 H 3536.46 4.02332 -2.75645 0
M  V30 33809 H 3535.46 2.81788 -4.72097 0
M  V30 33810 H 3536.69 3.54451 -5.79259 0
M  V30 33811 H 3534.64 5.07741 -4.15373 0
M  V30 33812 H 3534.55 4.7779 -5.85878 0
M  V30 33813 H 3535.82 5.7843 -5.22531 0
M  V30 33814 N 3540.05 1.48887 0.516757 0
M  V30 33815 C 3541.47 1.35301 0.846516 0
M  V30 33816 C 3541.67 0.374069 1.97997 0
M  V30 33817 O 3540.72 -0.199958 2.51707 0
M  V30 33818 C 3542.03 2.7565 1.20157 0
M  V30 33819 C 3543.58 2.84235 1.31069 0
M  V30 33820 C 3544.06 4.25316 1.69912 0
M  V30 33821 N 3545.55 4.28052 1.7699 0
M  V30 33822 C 3546.28 5.34166 2.08457 0
M  V30 33823 N 3545.78 6.50543 2.38256 0
M  V30 33824 N 3547.57 5.2157 2.09575 0
M  V30 33825 H 3539.72 2.11141 -0.230909 0
M  V30 33826 H 3541.99 0.947127 -0.0406845 0
M  V30 33827 H 3541.69 3.48909 0.442217 0
M  V30 33828 H 3541.57 3.10018 2.14869 0
M  V30 33829 H 3543.95 2.11224 2.06079 0
M  V30 33830 H 3544.03 2.5347 0.344461 0
M  V30 33831 H 3543.68 4.98849 0.954579 0
M  V30 33832 H 3543.61 4.53535 2.67608 0
M  V30 33833 H 3546.1 3.44115 1.56185 0
M  V30 33834 H 3546.41 7.27245 2.6141 0
M  V30 33835 H 3544.76 6.53795 2.35747 0
M  V30 33836 H 3547.95 4.29663 1.8576 0
M  V30 33837 H 3548.12 6.04366 2.33765 0
M  V30 33838 N 3541.53 -0.766635 1.37697 0
M  V30 33839 C 3542.94 -1.0679 1.18608 0
M  V30 33840 C 3543.14 -2.01484 0.0257549 0
M  V30 33841 O 3542.2 -2.44448 -0.632565 0
M  V30 33842 C 3543.51 -1.6605 2.50695 0
M  V30 33843 C 3545.06 -1.78284 2.57262 0
M  V30 33844 C 3545.54 -2.40956 3.89492 0
M  V30 33845 N 3547.03 -2.48401 3.90962 0
M  V30 33846 C 3547.76 -2.97758 4.90028 0
M  V30 33847 N 3547.26 -3.47249 5.99491 0
M  V30 33848 N 3549.05 -2.96679 4.77428 0
M  V30 33849 H 3541.2 -0.137993 2.11951 0
M  V30 33850 H 3543.46 -0.123847 0.939876 0
M  V30 33851 H 3543.17 -1.03939 3.3599 0
M  V30 33852 H 3543.04 -2.65281 2.68153 0
M  V30 33853 H 3545.43 -2.39525 1.72371 0
M  V30 33854 H 3545.51 -0.777939 2.43684 0
M  V30 33855 H 3545.16 -1.80352 4.74801 0
M  V30 33856 H 3545.09 -3.42062 4.00376 0
M  V30 33857 H 3547.58 -2.13383 3.11891 0
M  V30 33858 H 3547.89 -3.83328 6.71029 0
M  V30 33859 H 3546.24 -3.4534 6.03129 0
M  V30 33860 H 3549.43 -2.57318 3.91031 0
M  V30 33861 H 3549.6 -3.34834 5.54788 0
M  V30 33862 N 3543.01 -1.22351 -0.993375 0
M  V30 33863 C 3543.94 -1.01741 -2.10169 0
M  V30 33864 C 3544.92 0.0614977 -1.69989 0
M  V30 33865 O 3546.1 -0.100625 -1.93939 0
M  V30 33866 C 3543.23 -0.593862 -3.42185 0
M  V30 33867 C 3542.19 -1.61865 -3.96212 0
M  V30 33868 C 3541.51 -1.05095 -5.2427 0
M  V30 33869 C 3542.81 -3.0085 -4.26951 0
M  V30 33870 H 3544.51 -1.9444 -2.27669 0
M  V30 33871 H 3542.05 -0.936278 -1.09407 0
M  V30 33872 H 3544 -0.436788 -4.1913 0
M  V30 33873 H 3542.73 0.368798 -3.24511 0
M  V30 33874 H 3541.39 -1.76349 -3.21398 0
M  V30 33875 H 3541.04 -0.0796631 -5.02937 0
M  V30 33876 H 3540.74 -1.73557 -5.61384 0
M  V30 33877 H 3542.26 -0.905455 -6.03849 0
M  V30 33878 H 3543.67 -2.89742 -4.94694 0
M  V30 33879 H 3542.07 -3.66431 -4.75235 0
M  V30 33880 H 3543.14 -3.50818 -3.34746 0
M  V30 33881 N 3544.48 1.19014 -1.03313 0
M  V30 33882 C 3545.42 2.21852 -0.575694 0
M  V30 33883 C 3546.43 1.58978 0.350678 0
M  V30 33884 O 3547.62 1.77899 0.146394 0
M  V30 33885 C 3544.72 3.38422 0.17989 0
M  V30 33886 C 3543.89 4.30879 -0.752479 0
M  V30 33887 C 3542.95 5.26184 -0.0415409 0
M  V30 33888 O 3541.98 5.65249 -0.669503 0
M  V30 33889 N 3543.18 5.67368 1.22773 0
M  V30 33890 H 3545.94 2.61723 -1.46017 0
M  V30 33891 H 3543.5 1.33723 -0.912679 0
M  V30 33892 H 3545.5 3.99196 0.66515 0
M  V30 33893 H 3544.07 2.97305 0.965827 0
M  V30 33894 H 3543.29 3.67823 -1.41775 0
M  V30 33895 H 3544.57 4.89558 -1.38601 0
M  V30 33896 H 3543.97 5.37671 1.75858 0
M  V30 33897 H 3542.53 6.30375 1.65741 0
M  V30 33898 N 3545.96 0.811563 1.35098 0
M  V30 33899 C 3546.91 0.223412 2.29716 0
M  V30 33900 C 3547.88 -0.645369 1.5305 0
M  V30 33901 O 3549.06 -0.589404 1.81468 0
M  V30 33902 C 3546.2 -0.617998 3.39521 0
M  V30 33903 C 3545.32 0.271768 4.31144 0
M  V30 33904 C 3544.45 -0.578121 5.28045 0
M  V30 33905 C 3543.49 0.311736 6.11306 0
M  V30 33906 N 3542.63 -0.498416 7.00329 0
M  V30 33907 H 3547.47 1.03568 2.79424 0
M  V30 33908 H 3545 0.522256 1.37517 0
M  V30 33909 H 3546.96 -1.12104 4.01856 0
M  V30 33910 H 3545.59 -1.39549 2.91077 0
M  V30 33911 H 3544.64 0.89295 3.69771 0
M  V30 33912 H 3545.96 0.956478 4.89544 0
M  V30 33913 H 3545.11 -1.1461 5.95776 0
M  V30 33914 H 3543.85 -1.29638 4.70155 0
M  V30 33915 H 3542.85 0.891945 5.42517 0
M  V30 33916 H 3544.08 1.02793 6.71275 0
M  V30 33917 H 3542.03 -1.20056 6.44921 0
M  V30 33918 H 3541.94 0.128143 7.55891 0
M  V30 33919 H 3543.21 -1.04951 7.72402 0
M  V30 33920 N 3547.44 -1.47105 0.565506 0
M  V30 33921 C 3548.86 -1.57993 0.225883 0
M  V30 33922 C 3549.06 -1.56301 -1.2717 0
M  V30 33923 O 3548.11 -1.47082 -2.05239 0
M  V30 33924 C 3549.42 -2.88143 0.859879 0
M  V30 33925 C 3550.97 -3.01743 0.831874 0
M  V30 33926 C 3551.45 -4.34604 1.44509 0
M  V30 33927 N 3552.94 -4.41261 1.40865 0
M  V30 33928 C 3553.67 -5.42645 1.85268 0
M  V30 33929 N 3553.17 -6.50796 2.37564 0
M  V30 33930 N 3554.96 -5.33741 1.76288 0
M  V30 33931 H 3547.11 -1.46448 1.5384 0
M  V30 33932 H 3549.38 -0.697501 0.642025 0
M  V30 33933 H 3549.08 -2.95143 1.91269 0
M  V30 33934 H 3548.96 -3.75499 0.357828 0
M  V30 33935 H 3551.34 -2.94336 -0.212267 0
M  V30 33936 H 3551.42 -2.15908 1.37177 0
M  V30 33937 H 3551.07 -4.42768 2.48834 0
M  V30 33938 H 3551 -5.19185 0.88057 0
M  V30 33939 H 3553.49 -3.637 1.0262 0
M  V30 33940 H 3553.8 -7.24342 2.69348 0
M  V30 33941 H 3552.15 -6.51663 2.4158 0
M  V30 33942 H 3555.34 -4.48149 1.35203 0
M  V30 33943 H 3555.51 -6.12613 2.1121 0
M  V30 33944 N 3548.92 -0.302382 -1.54672 0
M  V30 33945 C 3550.14 0.311855 -2.05042 0
M  V30 33946 C 3550.57 1.46632 -1.17816 0
M  V30 33947 O 3549.93 1.80379 -0.182549 0
M  V30 33948 C 3549.97 0.744427 -3.52832 0
M  V30 33949 O 3549.08 1.84906 -3.68624 0
M  V30 33950 H 3548.42 0.0602986 -0.661256 0
M  V30 33951 H 3550.95 -0.444628 -1.9971 0
M  V30 33952 H 3550.96 1.03286 -3.9471 0
M  V30 33953 H 3549.63 -0.100071 -4.1578 0
M  V30 33954 H 3548.21 1.56107 -3.38652 0
M  V30 33955 N 3550.4 1.57571 -0.0301311 0
M  V30 33956 C 3551.62 1.96551 0.662011 0
M  V30 33957 C 3552.05 0.906609 1.6481 0
M  V30 33958 O 3551.4 -0.132383 1.80816 0
M  V30 33959 C 3551.45 3.34624 1.34383 0
M  V30 33960 O 3550.56 3.3106 2.45913 0
M  V30 33961 H 3549.9 0.640842 0.173831 0
M  V30 33962 H 3552.43 2.04392 -0.092284 0
M  V30 33963 H 3552.44 3.70878 1.70039 0
M  V30 33964 H 3551.11 4.11237 0.62102 0
M  V30 33965 H 3549.69 3.06524 2.12361 0
M  V30 33966 N 3551.87 -0.243029 1.55715 0
M  V30 33967 C 3553.29 -0.591728 1.48225 0
M  V30 33968 C 3553.49 -1.88156 0.721083 0
M  V30 33969 O 3552.55 -2.51239 0.25201 0
M  V30 33970 C 3553.86 -0.690867 2.92656 0
M  V30 33971 C 3555.41 -0.782935 3.0305 0
M  V30 33972 C 3555.88 -0.913603 4.48795 0
M  V30 33973 N 3557.37 -0.978375 4.52749 0
M  V30 33974 C 3558.11 -1.09881 5.62773 0
M  V30 33975 N 3557.6 -1.18455 6.82598 0
M  V30 33976 N 3559.4 -1.13227 5.50578 0
M  V30 33977 H 3551.55 0.60365 2.03641 0
M  V30 33978 H 3553.81 0.208895 0.924698 0
M  V30 33979 H 3553.52 0.186933 3.51203 0
M  V30 33980 H 3553.39 -1.56154 3.4336 0
M  V30 33981 H 3555.78 -1.65119 2.44581 0
M  V30 33982 H 3555.86 0.112966 2.5555 0
M  V30 33983 H 3555.5 -0.0498942 5.07875 0
M  V30 33984 H 3555.43 -1.8246 4.9398 0
M  V30 33985 H 3557.92 -0.923305 3.66447 0
M  V30 33986 H 3558.24 -1.27562 7.62199 0
M  V30 33987 H 3556.58 -1.15405 6.85351 0
M  V30 33988 H 3559.77 -1.0618 4.55898 0
M  V30 33989 H 3559.95 -1.22268 6.3636 0
M  V30 33990 N 3553.35 -1.49159 -0.508854 0
M  V30 33991 C 3554.3 -1.61644 -1.60796 0
M  V30 33992 C 3555.29 -0.472461 -1.53807 0
M  V30 33993 O 3556.48 -0.725014 -1.6147 0
M  V30 33994 C 3553.61 -1.67899 -2.99441 0
M  V30 33995 C 3552.69 -2.87848 -3.11455 0
M  V30 33996 N 3553.08 -4.12022 -2.9338 0
M  V30 33997 C 3551.38 -2.85622 -3.42544 0
M  V30 33998 C 3552.08 -4.92611 -3.09369 0
M  V30 33999 N 3551.06 -4.25826 -3.37895 0
M  V30 34000 H 3554.86 -2.55377 -1.45463 0
M  V30 34001 H 3552.38 -1.45823 -0.714806 0
M  V30 34002 H 3554.37 -1.7494 -3.7842 0
M  V30 34003 H 3553.03 -0.752974 -3.15849 0
M  V30 34004 H 3554.04 -4.42126 -2.69713 0
M  V30 34005 H 3550.72 -2.02365 -3.65177 0
M  V30 34006 H 3552.11 -6.0123 -2.99954 0
M  V30 34007 N 3554.83 0.759322 -1.38102 0
M  V30 34008 C 3556.24 1.33632 -1.30381 0
M  V30 34009 C 3556.59 1.96153 0.0429934 0
M  V30 34010 O 3555.72 1.94676 0.944995 0
M  V30 34011 C 3556.31 2.42972 -2.36114 0
M  V30 34012 C 3554.87 2.96408 -2.3199 0
M  V30 34013 C 3554.02 1.69735 -2.19284 0
M  V30 34014 H 3556.97 0.55863 -1.48543 0
M  V30 34015 H 3556.99 3.22767 -2.01499 0
M  V30 34016 H 3556.5 1.97439 -3.34125 0
M  V30 34017 H 3554.6 3.46284 -1.37542 0
M  V30 34018 H 3554.72 3.51177 -3.25901 0
M  V30 34019 H 3553.08 1.93141 -1.66039 0
M  V30 34020 H 3553.86 1.26288 -3.19228 0
M  V30 34021 N 3556.31 1.22876 0.986873 0
M  V30 34022 C 3557.72 0.990019 1.25183 0
M  V30 34023 C 3557.92 -0.312785 1.99058 0
M  V30 34024 O 3556.98 -1.03388 2.30363 0
M  V30 34025 C 3558.29 2.19268 2.05772 0
M  V30 34026 C 3559.84 2.23689 2.18934 0
M  V30 34027 C 3560.32 3.43524 3.02911 0
M  V30 34028 N 3561.81 3.43723 3.10497 0
M  V30 34029 C 3562.54 4.331 3.75782 0
M  V30 34030 N 3562.04 5.32704 4.42943 0
M  V30 34031 N 3563.83 4.2086 3.72603 0
M  V30 34032 H 3555.98 2.06628 0.491779 0
M  V30 34033 H 3558.25 0.905756 0.279841 0
M  V30 34034 H 3557.95 3.13779 1.58858 0
M  V30 34035 H 3557.83 2.19823 3.06525 0
M  V30 34036 H 3560.21 1.29723 2.65058 0
M  V30 34037 H 3560.29 2.2717 1.17591 0
M  V30 34038 H 3559.94 4.37794 2.57485 0
M  V30 34039 H 3559.87 3.37284 4.04409 0
M  V30 34040 H 3562.36 2.71652 2.62704 0
M  V30 34041 H 3562.67 5.97171 4.90517 0
M  V30 34042 H 3561.02 5.36611 4.41672 0
M  V30 34043 H 3564.21 3.42295 3.19299 0
M  V30 34044 H 3564.38 4.90719 4.23201 0
M  V30 34045 N 3557.79 -1.18464 1.03942 0
M  V30 34046 C 3559.2 -1.40428 0.758428 0
M  V30 34047 C 3559.4 -1.9064 -0.65257 0
M  V30 34048 O 3558.46 -2.08994 -1.41696 0
M  V30 34049 C 3559.77 -2.40615 1.80347 0
M  V30 34050 C 3561.32 -2.54344 1.82423 0
M  V30 34051 C 3561.79 -3.57793 2.85916 0
M  V30 34052 N 3563.29 -3.65299 2.84799 0
M  V30 34053 C 3564.02 -4.45067 3.61529 0
M  V30 34054 N 3563.52 -5.28453 4.48006 0
M  V30 34055 N 3565.31 -4.39818 3.50024 0
M  V30 34056 H 3557.46 -0.841966 1.94999 0
M  V30 34057 H 3559.72 -0.432375 0.843656 0
M  V30 34058 H 3559.43 -2.10766 2.8155 0
M  V30 34059 H 3559.3 -3.39944 1.63457 0
M  V30 34060 H 3561.69 -2.8351 0.818922 0
M  V30 34061 H 3561.77 -1.55132 2.03391 0
M  V30 34062 H 3561.42 -3.29368 3.86625 0
M  V30 34063 H 3561.35 -4.5668 2.62204 0
M  V30 34064 H 3563.84 -3.05754 2.22087 0
M  V30 34065 H 3564.15 -5.86466 5.03267 0
M  V30 34066 H 3562.49 -5.27877 4.52074 0
M  V30 34067 H 3565.69 -3.73721 2.81869 0
M  V30 34068 H 3565.86 -5.01742 4.10071 0
M  V30 34069 N 3559.26 -0.818716 -1.34665 0
M  V30 34070 C 3560.49 -0.416621 -2.03172 0
M  V30 34071 C 3560.91 0.968293 -1.61263 0
M  V30 34072 O 3560.27 1.6293 -0.795199 0
M  V30 34073 C 3560.32 -0.521947 -3.56803 0
M  V30 34074 O 3559.42 0.459881 -4.09828 0
M  V30 34075 H 3558.77 -0.172148 -0.641297 0
M  V30 34076 H 3561.3 -1.10797 -1.72004 0
M  V30 34077 H 3561.31 -0.396172 -4.06072 0
M  V30 34078 H 3559.98 -1.53205 -3.86654 0
M  V30 34079 H 3558.56 0.29334 -3.71744 0
M  V30 34080 N 3560.74 1.46803 -0.573299 0
M  V30 34081 C 3562.16 1.57871 -0.234258 0
M  V30 34082 C 3562.36 1.56973 1.26339 0
M  V30 34083 O 3561.41 1.48168 2.04456 0
M  V30 34084 C 3562.73 2.87683 -0.875148 0
M  V30 34085 C 3564.28 3.01298 -0.847865 0
M  V30 34086 C 3564.75 4.33832 -1.46812 0
M  V30 34087 N 3566.24 4.40508 -1.43203 0
M  V30 34088 C 3566.98 5.41655 -1.88143 0
M  V30 34089 N 3566.47 6.49527 -2.41012 0
M  V30 34090 N 3568.27 5.32798 -1.79116 0
M  V30 34091 H 3560.42 1.4563 -1.54614 0
M  V30 34092 H 3562.68 0.694086 -0.645715 0
M  V30 34093 H 3562.39 2.94124 -1.92831 0
M  V30 34094 H 3562.26 3.75304 -0.377737 0
M  V30 34095 H 3564.65 2.94444 0.196655 0
M  V30 34096 H 3564.73 2.15177 -1.3832 0
M  V30 34097 H 3564.37 4.41443 -2.51179 0
M  V30 34098 H 3564.3 5.18711 -0.908091 0
M  V30 34099 H 3566.79 3.6315 -1.04548 0
M  V30 34100 H 3567.11 7.22904 -2.73185 0
M  V30 34101 H 3565.45 6.50372 -2.45033 0
M  V30 34102 H 3568.64 4.47426 -1.37577 0
M  V30 34103 H 3568.81 6.11484 -2.14456 0
M  V30 34104 N 3562.22 0.31058 1.54509 0
M  V30 34105 C 3563.63 -0.180133 1.85829 0
M  V30 34106 C 3563.98 -1.52663 1.23241 0
M  V30 34107 O 3563.11 -2.09717 0.533627 0
M  V30 34108 C 3563.7 -0.333628 3.37153 0
M  V30 34109 C 3562.26 -0.76856 3.6847 0
M  V30 34110 C 3561.41 0.117448 2.77051 0
M  V30 34111 H 3564.36 0.531289 1.49543 0
M  V30 34112 H 3564.38 -1.16666 3.62173 0
M  V30 34113 H 3563.89 0.646522 3.82677 0
M  V30 34114 H 3561.99 -1.75892 3.2847 0
M  V30 34115 H 3562.11 -0.581309 4.7556 0
M  V30 34116 H 3560.47 -0.404861 2.51462 0
M  V30 34117 H 3561.25 1.09413 3.25398 0
M  V30 34118 N 3563.7 -1.57553 0.0384871 0
M  V30 34119 C 3564.92 -1.96899 -0.651578 0
M  V30 34120 C 3565.35 -0.915337 -1.64326 0
M  V30 34121 O 3564.71 0.122792 -1.80884 0
M  V30 34122 C 3564.76 -3.35332 -1.32607 0
M  V30 34123 O 3563.86 -3.32359 -2.44154 0
M  V30 34124 H 3563.2 -0.641755 -0.17043 0
M  V30 34125 H 3565.73 -2.0434 0.103122 0
M  V30 34126 H 3565.74 -3.71775 -1.6807 0
M  V30 34127 H 3564.42 -4.11561 -0.599203 0
M  V30 34128 H 3562.99 -3.07646 -2.10733 0
M  V30 34129 N 3565.18 0.234767 -1.55842 0
M  V30 34130 C 3566.41 0.978323 -1.82309 0
M  V30 34131 C 3566.82 1.78473 -0.615857 0
M  V30 34132 O 3566.18 1.77706 0.415569 0
M  V30 34133 C 3566.23 1.9065 -3.0714 0
M  V30 34134 O 3565.95 1.13271 -4.23204 0
M  V30 34135 C 3567.45 2.76505 -3.46497 0
M  V30 34136 H 3564.67 0.287335 -0.606366 0
M  V30 34137 H 3567.21 0.253987 -2.02917 0
M  V30 34138 H 3565.37 2.58496 -2.88546 0
M  V30 34139 H 3565.78 1.7616 -4.94032 0
M  V30 34140 H 3567.26 3.37358 -4.36914 0
M  V30 34141 H 3567.73 3.48233 -2.67639 0
M  V30 34142 H 3568.34 2.14093 -3.67484 0
M  V30 34143 N 3566.66 1.49427 0.500936 0
M  V30 34144 C 3567.62 1.65584 1.58475 0
M  V30 34145 C 3568.62 0.527646 1.51896 0
M  V30 34146 O 3569.81 0.794099 1.55047 0
M  V30 34147 C 3566.94 1.65327 2.98127 0
M  V30 34148 H 3568.13 2.62252 1.45478 0
M  V30 34149 H 3565.69 1.38459 0.725175 0
M  V30 34150 H 3566.42 0.702439 3.16601 0
M  V30 34151 H 3566.21 2.4726 3.0431 0
M  V30 34152 H 3567.7 1.79884 3.7687 0
M  V30 34153 N 3568.13 -0.751987 1.38502 0
M  V30 34154 C 3569.08 -1.85645 1.32363 0
M  V30 34155 C 3570.07 -1.59555 0.207606 0
M  V30 34156 O 3571.26 -1.71348 0.443714 0
M  V30 34157 C 3568.39 -3.23373 1.15259 0
M  V30 34158 C 3567.47 -3.5535 2.3149 0
M  V30 34159 N 3567.87 -3.58373 3.56935 0
M  V30 34160 C 3566.16 -3.85624 2.24077 0
M  V30 34161 C 3566.86 -3.87661 4.33698 0
M  V30 34162 N 3565.84 -4.04573 3.63072 0
M  V30 34163 H 3569.64 -1.86263 2.2734 0
M  V30 34164 H 3567.16 -0.949418 1.31757 0
M  V30 34165 H 3569.15 -4.02414 1.08944 0
M  V30 34166 H 3567.81 -3.24006 0.212165 0
M  V30 34167 H 3568.82 -3.40094 3.90584 0
M  V30 34168 H 3565.5 -3.93962 1.38202 0
M  V30 34169 H 3566.89 -3.9661 5.42356 0
M  V30 34170 O 3569.65 -1.3459 -0.892625 0
M  V30 34171 H 3570.34 -1.18942 -1.52881 0
M  V30 END ATOM
M  V30 BEGIN BOND
M  V30 END BOND
M  V30 END CTAB
M  END
$$$$
