drugbank_drug|DB01277 Mecasermin
 OpenBabel12092119113D

  0  0  0     0  0            999 V3000
M  V30 BEGIN CTAB
M  V30 COUNTS 1052 1063 0 0 0
M  V30 BEGIN ATOM
M  V30 1 H -0.908 1.98254 -0.117106 0
M  V30 2 N 0 1.576 0 0
M  V30 3 C 1.248 1.90191 0.683495 0
M  V30 4 C 1.569 0.874069 1.74313 0
M  V30 5 O 0.839 -0.0885238 1.957 0
M  V30 6 H -0.581 0.701967 0.255443 0
M  V30 7 H 2.081 1.94857 -0.040926 0
M  V30 8 H 1.177 2.89952 1.15474 0
M  V30 9 N 1.4781 -0.272755 1.55222 0
M  V30 10 C 2.8891 -0.84378 1.66545 0
M  V30 11 C 3.2401 -1.87035 0.592641 0
M  V30 12 O 2.3651 -2.14761 -0.265818 0
M  V30 13 C 2.9601 -1.53723 3.01918 0
M  V30 14 C 1.5191 -2.05628 3.15268 0
M  V30 15 C 0.6661 -0.898424 2.62343 0
M  V30 16 H 3.6171 -0.0490998 1.58624 0
M  V30 17 H 3.6381 -2.40421 2.94921 0
M  V30 18 H 3.1501 -0.78983 3.79978 0
M  V30 19 H 1.2511 -2.83329 2.41983 0
M  V30 20 H 1.3641 -2.27142 4.21833 0
M  V30 21 H -0.2719 -1.29186 2.19506 0
M  V30 22 H 0.5111 -0.164528 3.42906 0
M  V30 23 N 2.9562 -1.48159 -0.537278 0
M  V30 24 C 3.8662 -1.64807 -1.6696 0
M  V30 25 C 4.8822 -0.530651 -1.65711 0
M  V30 26 O 6.0582 -0.800784 -1.84796 0
M  V30 27 C 3.1232 -1.67708 -3.03438 0
M  V30 28 C 2.1842 -2.91025 -3.156 0
M  V30 29 C 1.4172 -2.93778 -4.45567 0
M  V30 30 O 1.6402 -2.05153 -5.3223 0
M  V30 31 O 0.5742 -3.85868 -4.61941 0
M  V30 32 H 4.4002 -2.6066 -1.55853 0
M  V30 33 H 1.9852 -1.31475 -0.709549 0
M  V30 34 H 3.8672 -1.7218 -3.84619 0
M  V30 35 H 2.5422 -0.750278 -3.14885 0
M  V30 36 H 1.4492 -2.92089 -2.33741 0
M  V30 37 H 2.7822 -3.83065 -3.09066 0
M  V30 38 N 4.4343 0.785586 -1.36625 0
M  V30 39 C 5.6623 1.57448 -1.3423 0
M  V30 40 C 6.0773 1.88649 0.0755653 0
M  V30 41 O 5.4343 1.50414 1.03354 0
M  V30 42 C 5.4853 2.89316 -2.16745 0
M  V30 43 O 5.2063 2.59459 -3.53005 0
M  V30 44 C 6.7073 3.83606 -2.22174 0
M  V30 45 H 3.9273 0.488226 -0.4603 0
M  V30 46 H 6.4713 0.974733 -1.79775 0
M  V30 47 H 4.6263 3.4575 -1.74745 0
M  V30 48 H 5.0403 3.43804 -3.96105 0
M  V30 49 H 6.5143 4.73181 -2.8426 0
M  V30 50 H 6.9913 4.21734 -1.22627 0
M  V30 51 H 7.5973 3.33104 -2.64427 0
M  V30 52 N 5.9124 1.20967 1.01018 0
M  V30 53 C 6.8424 0.988272 2.11555 0
M  V30 54 C 7.8234 -0.0849778 1.69888 0
M  V30 55 O 9.0084 0.0738202 1.9406 0
M  V30 56 C 6.1384 0.546528 3.42973 0
M  V30 57 C 5.0924 1.56375 3.9841 0
M  V30 58 C 4.4184 0.97842 5.25672 0
M  V30 59 C 5.7184 2.94922 4.31066 0
M  V30 60 H 7.4124 1.91276 2.30334 0
M  V30 61 H 4.9584 0.921073 1.1069 0
M  V30 62 H 6.9114 0.378839 4.19694 0
M  V30 63 H 5.6354 -0.413598 3.23971 0
M  V30 64 H 4.2944 1.71891 3.23804 0
M  V30 65 H 3.9424 0.0101688 5.02999 0
M  V30 66 H 3.6424 1.65784 5.63728 0
M  V30 67 H 5.1664 0.821939 6.05043 0
M  V30 68 H 6.5804 2.8288 4.9865 0
M  V30 69 H 4.9774 3.5983 4.80253 0
M  V30 70 H 6.0474 3.4616 3.39561 0
M  V30 71 N 7.3905 -1.2043 1.01659 0
M  V30 72 C 8.6305 -1.91507 0.714456 0
M  V30 73 C 8.9945 -1.77073 -0.742237 0
M  V30 74 O 10.1955 -2.42631 -1.15688 0
M  V30 75 C 8.4665 -3.38795 1.13809 0
M  V30 76 S 10.0255 -4.28216 0.957925 0
M  V30 77 H 6.8435 -0.661571 0.260471 0
M  V30 78 H 9.4455 -1.45671 1.30384 0
M  V30 79 H 8.1495 -3.46822 2.19415 0
M  V30 80 H 7.6805 -3.89656 0.541474 0
M  V30 81 H 9.6955 -4.96007 -0.138531 0
M  V30 82 N 8.8686 -0.792821 -1.36206 0
M  V30 83 C 10.1166 -0.366062 -1.98757 0
M  V30 84 C 10.4376 1.0668 -1.63231 0
M  V30 85 O 9.7076 1.73587 -0.907978 0
M  V30 86 H 8.2876 -0.132364 -0.735179 0
M  V30 87 H 10.9496 -1.01562 -1.66347 0
M  V30 88 H 10.0456 -0.460638 -3.08682 0
M  V30 89 N 10.3467 1.47872 -0.545128 0
M  V30 90 C 11.3097 2.28337 0.198717 0
M  V30 91 C 12.3097 1.36255 0.853888 0
M  V30 92 O 13.4997 1.59003 0.711606 0
M  V30 93 C 10.6317 3.15585 1.28915 0
M  V30 94 H 11.8247 2.95567 -0.507941 0
M  V30 95 H 9.3777 1.53362 -0.301616 0
M  V30 96 H 10.1127 2.53019 2.02859 0
M  V30 97 H 9.8977 3.83337 0.824309 0
M  V30 98 H 11.3877 3.76243 1.81194 0
M  V30 99 N 11.8248 0.280983 1.55075 0
M  V30 100 C 12.7348 -0.61388 2.26426 0
M  V30 101 C 13.7508 -1.16521 1.29224 0
M  V30 102 O 14.9268 -1.19426 1.62171 0
M  V30 103 C 11.9918 -1.7788 2.9759 0
M  V30 104 C 11.0528 -1.26355 4.10284 0
M  V30 105 C 10.2858 -2.37295 4.78045 0
M  V30 106 O 10.5088 -3.56777 4.45047 0
M  V30 107 O 9.4428 -2.05119 5.65871 0
M  V30 108 H 13.2688 -0.0356932 3.03679 0
M  V30 109 H 10.8538 0.0481686 1.49322 0
M  V30 110 H 12.7358 -2.45791 3.42293 0
M  V30 111 H 11.4108 -2.34397 2.23249 0
M  V30 112 H 10.3178 -0.550735 3.70024 0
M  V30 113 H 11.6508 -0.744065 4.86543 0
M  V30 114 N 13.3029 -1.57598 0.00835791 0
M  V30 115 C 14.2329 -2.1198 -0.979113 0
M  V30 116 C 15.2139 -1.03091 -1.35301 0
M  V30 117 O 16.3989 -1.30818 -1.43528 0
M  V30 118 C 13.5289 -2.62995 -2.26828 0
M  V30 119 C 12.4829 -3.76485 -2.03576 0
M  V30 120 C 11.8089 -4.13846 -3.38579 0
M  V30 121 C 13.1089 -5.0342 -1.39161 0
M  V30 122 H 14.8029 -2.94738 -0.526281 0
M  V30 123 H 12.3489 -1.41783 -0.251704 0
M  V30 124 H 14.3019 -2.99669 -2.96271 0
M  V30 125 H 13.0259 -1.7737 -2.7424 0
M  V30 126 H 11.6849 -3.40217 -1.36557 0
M  V30 127 H 11.3329 -3.25232 -3.83709 0
M  V30 128 H 11.0329 -4.90312 -3.23834 0
M  V30 129 H 12.5569 -4.53086 -4.09323 0
M  V30 130 H 13.9709 -5.37812 -1.98573 0
M  V30 131 H 12.3679 -5.84746 -1.34878 0
M  V30 132 H 13.4379 -4.83548 -0.361868 0
M  V30 133 N 14.781 0.264519 -1.55364 0
M  V30 134 C 16.027 0.99646 -1.76631 0
M  V30 135 C 16.36 1.85632 -0.570478 0
M  V30 136 O 15.635 1.89647 0.43175 0
M  V30 137 C 15.918 1.87187 -3.07625 0
M  V30 138 C 15.771 1.04138 -4.37579 0
M  V30 139 C 17.09 2.85749 -3.34717 0
M  V30 140 H 14.209 0.360841 -0.642622 0
M  V30 141 H 16.851 0.268218 -1.88097 0
M  V30 142 H 15.001 2.49279 -2.9798 0
M  V30 143 H 16.673 0.440517 -4.59192 0
M  V30 144 H 14.916 0.345115 -4.32425 0
M  V30 145 H 15.587 1.68729 -5.2558 0
M  V30 146 H 18.063 2.33793 -3.4421 0
M  V30 147 H 16.939 3.44136 -4.27623 0
M  V30 148 H 17.2 3.61311 -2.54768 0
M  V30 149 N 16.2591 1.48442 0.529413 0
M  V30 150 C 17.5361 1.46978 1.29062 0
M  V30 151 C 17.9161 0.181769 2.10316 0
M  V30 152 O 17.2641 -0.836481 2.12639 0
M  V30 153 C 17.4741 2.7321 2.17157 0
M  V30 154 C 18.8221 3.21562 2.77278 0
M  V30 155 O 19.8461 2.74131 2.27444 0
M  V30 156 O 18.7051 4.04094 3.67927 0
M  V30 157 H 15.7991 0.587003 0.582543 0
M  V30 158 H 18.3451 1.60676 0.546021 0
M  V30 159 H 17.1171 3.58465 1.56903 0
M  V30 160 H 16.7401 2.62235 2.98862 0
M  V30 161 N 17.7372 -0.778329 1.37039 0
M  V30 162 C 18.7002 -1.87301 1.32102 0
M  V30 163 C 19.7002 -1.59198 0.226405 0
M  V30 164 O 20.8902 -1.67403 0.481861 0
M  V30 165 C 18.0222 -3.24309 1.05055 0
M  V30 166 H 19.2152 -1.93093 2.29467 0
M  V30 167 H 16.7682 -0.977358 1.21973 0
M  V30 168 H 17.5032 -3.24196 0.0819373 0
M  V30 169 H 17.2882 -3.46098 1.84279 0
M  V30 170 H 18.7782 -4.04382 1.04234 0
M  V30 171 N 19.2153 -1.21501 -1.00376 0
M  V30 172 C 20.1453 -0.999478 -2.11028 0
M  V30 173 C 21.1263 0.0759671 -1.6993 0
M  V30 174 O 22.3113 -0.0841106 -1.94018 0
M  V30 175 C 19.4413 -0.564709 -3.42678 0
M  V30 176 C 18.3953 -1.58486 -3.97576 0
M  V30 177 C 17.7213 -1.00628 -5.25146 0
M  V30 178 C 19.0213 -2.97204 -4.29496 0
M  V30 179 H 20.7153 -1.92495 -2.29317 0
M  V30 180 H 18.2613 -0.92693 -1.102 0
M  V30 181 H 20.2143 -0.401091 -4.19487 0
M  V30 182 H 18.9383 0.396411 -3.24185 0
M  V30 183 H 17.5973 -1.73606 -3.22888 0
M  V30 184 H 17.2453 -0.0368439 -5.02987 0
M  V30 185 H 16.9453 -1.68771 -5.62841 0
M  V30 186 H 18.4693 -0.854015 -6.04598 0
M  V30 187 H 19.8833 -2.8552 -4.97143 0
M  V30 188 H 18.2803 -3.62372 -4.78338 0
M  V30 189 H 19.3503 -3.47956 -3.3772 0
M  V30 190 N 20.6934 1.19889 -1.02296 0
M  V30 191 C 21.6254 2.22334 -0.556787 0
M  V30 192 C 22.6384 1.58674 0.364199 0
M  V30 193 O 23.8274 1.77768 0.161533 0
M  V30 194 C 20.9274 3.38257 0.208694 0
M  V30 195 C 20.1004 4.31504 -0.71577 0
M  V30 196 C 19.1594 5.262 0.00325597 0
M  V30 197 O 18.1854 5.65798 -0.621357 0
M  V30 198 N 19.3874 5.66303 1.27599 0
M  V30 199 H 22.1524 2.62957 -1.43784 0
M  V30 200 H 19.7134 1.34495 -0.901261 0
M  V30 201 H 21.7054 3.98616 0.699111 0
M  V30 202 H 20.2754 2.96472 0.991102 0
M  V30 203 H 19.4954 3.69016 -1.38638 0
M  V30 204 H 20.7834 4.9072 -1.34428 0
M  V30 205 H 20.1814 5.36155 1.80429 0
M  V30 206 H 18.7384 6.28942 1.71102 0
M  V30 207 N 22.1715 0.800033 1.35784 0
M  V30 208 C 23.4185 0.377342 1.98953 0
M  V30 209 C 23.7465 -1.05378 1.6348 0
M  V30 210 O 23.0015 -1.74459 0.886707 0
M  V30 211 C 23.3005 0.500276 3.53881 0
M  V30 212 C 22.9665 1.89375 4.09204 0
M  V30 213 C 21.6285 2.27499 4.24025 0
M  V30 214 C 23.9805 2.8057 4.39238 0
M  V30 215 C 21.3085 3.562 4.66195 0
M  V30 216 C 23.6605 4.0871 4.82844 0
M  V30 217 C 22.3245 4.46843 4.95871 0
M  V30 218 H 21.5945 0.138079 0.728021 0
M  V30 219 H 24.2415 1.01955 1.62103 0
M  V30 220 H 22.5465 -0.225405 3.91151 0
M  V30 221 H 24.2435 0.154097 4.00704 0
M  V30 222 H 20.8335 1.58753 3.98115 0
M  V30 223 H 25.0175 2.52367 4.27346 0
M  V30 224 H 20.2735 3.85602 4.74469 0
M  V30 225 H 24.4475 4.79481 5.05046 0
M  V30 226 H 22.0745 5.46623 5.28306 0
M  V30 227 N 23.6496 -1.47581 0.552962 0
M  V30 228 C 24.8956 -2.02782 0.0273648 0
M  V30 229 C 25.2286 -1.42687 -1.31734 0
M  V30 230 O 24.5036 -0.580897 -1.85623 0
M  V30 231 C 24.7866 -3.60031 -0.0702371 0
M  V30 232 C 24.6396 -4.30566 1.30126 0
M  V30 233 C 25.9586 -4.33028 -0.785771 0
M  V30 234 H 23.0776 -0.736912 0.0114185 0
M  V30 235 H 25.7196 -1.76056 0.714432 0
M  V30 236 H 23.8696 -3.82932 -0.655382 0
M  V30 237 H 25.5416 -4.19018 1.92929 0
M  V30 238 H 23.7846 -3.91086 1.87709 0
M  V30 239 H 24.4556 -5.39114 1.18573 0
M  V30 240 H 26.9316 -4.15095 -0.288982 0
M  V30 241 H 25.8076 -5.42695 -0.823013 0
M  V30 242 H 26.0686 -4.01945 -1.841 0
M  V30 243 N 25.1277 -0.289203 -1.54924 0
M  V30 244 C 26.3677 0.324536 -2.01807 0
M  V30 245 C 26.7317 1.5199 -1.17316 0
M  V30 246 O 27.9327 2.20422 -1.53843 0
M  V30 247 C 26.2037 0.683578 -3.50802 0
M  V30 248 S 27.7627 1.28185 -4.19659 0
M  V30 249 H 24.5807 0.100236 -0.703899 0
M  V30 250 H 27.1827 -0.414325 -1.91059 0
M  V30 251 H 25.8867 -0.195073 -4.09936 0
M  V30 252 H 25.4177 1.45354 -3.65562 0
M  V30 253 H 27.4327 2.57006 -4.24456 0
M  V30 254 N 26.6058 1.57591 -0.0167156 0
M  V30 255 C 27.8538 1.90906 0.663285 0
M  V30 256 C 28.1748 0.892509 1.73376 0
M  V30 257 O 27.4448 -0.0677623 1.95783 0
M  V30 258 H 26.0248 0.704637 0.247983 0
M  V30 259 H 28.6868 1.94803 -0.0615909 0
M  V30 260 H 27.7828 2.9116 1.12393 0
M  V30 261 N 28.0839 -0.256276 1.55502 0
M  V30 262 C 29.3609 -1.00789 1.67633 0
M  V30 263 C 29.7409 -2.03706 0.553826 0
M  V30 264 O 29.0889 -2.24145 -0.443969 0
M  V30 265 C 29.2989 -1.64968 3.07549 0
M  V30 266 C 30.6469 -2.15505 3.65845 0
M  V30 267 O 31.6709 -1.74925 3.1029 0
M  V30 268 O 30.5299 -2.89986 4.63217 0
M  V30 269 H 27.6239 -0.468553 0.681459 0
M  V30 270 H 30.1699 -0.250806 1.67836 0
M  V30 271 H 28.9419 -0.904785 3.80696 0
M  V30 272 H 28.5649 -2.47321 3.11317 0
M  V30 273 N 29.562 -1.4872 -0.521534 0
M  V30 274 C 30.978 -1.35028 -0.850855 0
M  V30 275 C 31.178 -0.367712 -1.98116 0
M  V30 276 O 30.234 0.208037 -2.51642 0
M  V30 277 C 31.547 -2.75263 -1.21041 0
M  V30 278 C 33.095 -2.83813 -1.31981 0
M  V30 279 C 33.57 -4.24769 -1.71276 0
M  V30 280 N 35.061 -4.27482 -1.78363 0
M  V30 281 C 35.796 -5.33494 -2.1017 0
M  V30 282 N 35.292 -6.49775 -2.40343 0
M  V30 283 N 37.085 -5.20894 -2.11248 0
M  V30 284 H 29.236 -2.11214 0.22413 0
M  V30 285 H 31.499 -0.947252 0.0376439 0
M  V30 286 H 31.205 -3.48765 -0.453415 0
M  V30 287 H 31.079 -3.09327 -2.15863 0
M  V30 288 H 33.466 -2.10561 -2.06756 0
M  V30 289 H 33.547 -2.53358 -0.352596 0
M  V30 290 H 33.191 -4.9854 -0.970588 0
M  V30 291 H 33.121 -4.52673 -2.69062 0
M  V30 292 H 35.612 -3.43611 -1.57288 0
M  V30 293 H 35.925 -7.26402 -2.63743 0
M  V30 294 H 34.27 -6.53035 -2.37844 0
M  V30 295 H 37.461 -4.29065 -1.87139 0
M  V30 296 H 37.634 -6.03612 -2.35704 0
M  V30 297 N 31.0401 0.771051 -1.3745 0
M  V30 298 C 32.2881 1.52661 -1.32435 0
M  V30 299 C 32.6091 1.9479 0.0905024 0
M  V30 300 O 31.8791 1.66348 1.03466 0
M  V30 301 H 30.4591 0.566218 -0.487244 0
M  V30 302 H 33.1211 0.917636 -1.71946 0
M  V30 303 H 32.2171 2.42568 -1.96385 0
M  V30 304 N 32.5182 1.22032 0.997298 0
M  V30 305 C 33.7652 1.04222 1.73621 0
M  V30 306 C 34.0932 -0.423264 1.89839 0
M  V30 307 O 33.3482 -1.3302 1.43542 0
M  V30 308 C 33.6472 1.69345 3.14733 0
M  V30 309 C 33.3132 3.19226 3.18442 0
M  V30 310 C 31.9752 3.60124 3.19161 0
M  V30 311 C 34.3272 4.15181 3.15078 0
M  V30 312 C 31.6552 4.95467 3.14212 0
M  V30 313 C 34.0072 5.50495 3.1167 0
M  V30 314 C 32.6712 5.90779 3.10703 0
M  V30 315 H 31.9412 0.381374 0.635323 0
M  V30 316 H 34.5882 1.51732 1.16831 0
M  V30 317 H 32.8932 1.14147 3.74803 0
M  V30 318 H 34.5902 1.53059 3.7064 0
M  V30 319 H 31.1802 2.86659 3.18629 0
M  V30 320 H 35.3642 3.84605 3.13676 0
M  V30 321 H 30.6202 5.25916 3.11805 0
M  V30 322 H 34.7942 6.24576 3.08022 0
M  V30 323 H 32.4212 6.9562 3.06622 0
M  V30 324 N 33.9963 -1.19345 1.0293 0
M  V30 325 C 35.2263 -1.92717 0.744563 0
M  V30 326 C 35.6343 -1.75751 -0.700579 0
M  V30 327 O 34.9773 -1.07703 -1.48815 0
M  V30 328 C 35.0393 -3.44828 1.01657 0
M  V30 329 C 34.7033 -3.85564 2.45335 0
M  V30 330 C 35.7003 -3.90286 3.43472 0
M  V30 331 C 33.3853 -4.1719 2.79746 0
M  V30 332 C 35.3793 -4.26065 4.74075 0
M  V30 333 C 33.0663 -4.52642 4.10559 0
M  V30 334 C 34.0643 -4.57054 5.07534 0
M  V30 335 O 33.7523 -4.91685 6.36004 0
M  V30 336 H 33.4843 -0.618977 0.271742 0
M  V30 337 H 36.0383 -1.52415 1.37691 0
M  V30 338 H 34.2683 -3.85314 0.327084 0
M  V30 339 H 35.9573 -3.99437 0.721427 0
M  V30 340 H 36.7233 -3.66002 3.18225 0
M  V30 341 H 32.6023 -4.1294 2.04943 0
M  V30 342 H 36.1463 -4.29423 5.49765 0
M  V30 343 H 32.0433 -4.76383 4.35579 0
M  V30 344 H 32.8113 -5.09631 6.40483 0
M  V30 345 N 35.4744 -0.807222 -1.35358 0
M  V30 346 C 36.7214 -0.387888 -1.9875 0
M  V30 347 C 37.0494 1.04509 -1.64037 0
M  V30 348 O 36.3044 1.73986 -0.895946 0
M  V30 349 C 36.6034 -0.519036 -3.53611 0
M  V30 350 C 36.2694 -1.91542 -4.08194 0
M  V30 351 C 34.9314 -2.29745 -4.22813 0
M  V30 352 C 37.2834 -2.82896 -4.37744 0
M  V30 353 C 34.6114 -3.58668 -4.643 0
M  V30 354 C 36.9634 -4.11265 -4.8067 0
M  V30 355 C 35.6274 -4.49466 -4.93494 0
M  V30 356 H 34.8974 -0.141938 -0.727279 0
M  V30 357 H 37.5444 -1.02814 -1.6156 0
M  V30 358 H 35.8494 0.204658 -3.91265 0
M  V30 359 H 37.5464 -0.175345 -4.00616 0
M  V30 360 H 34.1364 -1.60862 -3.97268 0
M  V30 361 H 38.3204 -2.54629 -4.26002 0
M  V30 362 H 33.5764 -3.88113 -4.72418 0
M  V30 363 H 37.7504 -4.82153 -5.02496 0
M  V30 364 H 35.3774 -5.49418 -5.25399 0
M  V30 365 N 36.9525 1.47285 -0.560781 0
M  V30 366 C 37.9005 2.31756 0.197942 0
M  V30 367 C 38.8945 1.43146 0.905854 0
M  V30 368 O 40.1005 1.59891 0.826733 0
M  V30 369 H 36.4755 0.747438 0.0827049 0
M  V30 370 H 38.4465 2.9359 -0.533629 0
M  V30 371 C 37.1955 3.25874 1.21249 0
M  V30 372 H 36.5185 3.94023 0.67719 0
M  V30 373 H 37.9585 3.87803 1.71419 0
M  V30 374 C 36.4175 2.49651 2.26221 0
M  V30 375 O 36.9475 2.24355 3.33208 0
M  V30 376 N 35.1535 2.10597 2.00243 0
M  V30 377 H 34.7005 2.31369 1.13252 0
M  V30 378 H 34.6585 1.59913 2.70694 0
M  V30 379 N 38.4306 0.297415 1.54768 0
M  V30 380 C 39.3776 -0.580276 2.23386 0
M  V30 381 C 40.3476 -1.13238 1.21517 0
M  V30 382 O 41.5326 -1.17757 1.50126 0
M  V30 383 C 38.6726 -1.74801 2.97555 0
M  V30 384 C 37.7856 -1.22764 4.1419 0
M  V30 385 C 36.9206 -2.35895 4.75949 0
M  V30 386 C 35.9596 -1.80974 5.84735 0
M  V30 387 N 35.0966 -2.87664 6.40464 0
M  V30 388 H 39.9366 0.0114833 2.97998 0
M  V30 389 H 37.4736 0.0174361 1.4709 0
M  V30 390 H 39.4316 -2.43475 3.38786 0
M  V30 391 H 38.0616 -2.31145 2.25326 0
M  V30 392 H 37.1136 -0.433271 3.77924 0
M  V30 393 H 38.4256 -0.785551 4.92575 0
M  V30 394 H 37.5796 -3.12523 5.20014 0
M  V30 395 H 36.3186 -2.83429 3.96887 0
M  V30 396 H 35.3236 -1.02834 5.40097 0
M  V30 397 H 36.5486 -1.34348 6.65678 0
M  V30 398 H 34.4946 -3.34538 5.64287 0
M  V30 399 H 34.4116 -2.4794 7.14186 0
M  V30 400 H 35.6796 -3.642 6.89187 0
M  V30 401 N 39.9087 -1.5758 0.0250728 0
M  V30 402 C 41.3197 -1.79476 -0.514323 0
M  V30 403 C 41.6707 -0.934956 -1.72491 0
M  V30 404 O 40.7957 -0.144245 -2.15919 0
M  V30 405 C 41.3907 -3.25503 -0.939842 0
M  V30 406 C 39.9497 -3.48408 -1.42438 0
M  V30 407 C 39.0967 -2.74583 -0.387201 0
M  V30 408 H 42.0477 -1.567 0.25113 0
M  V30 409 H 42.0687 -3.34992 -1.80445 0
M  V30 410 H 41.5807 -3.88056 -0.0585628 0
M  V30 411 H 39.6817 -2.91103 -2.32572 0
M  V30 412 H 39.7947 -4.57119 -1.43455 0
M  V30 413 H 38.1587 -2.39942 -0.854409 0
M  V30 414 H 38.9417 -3.39849 0.485543 0
M  V30 415 N 41.3868 0.248026 -1.55636 0
M  V30 416 C 42.6148 0.993808 -1.81469 0
M  V30 417 C 43.0298 1.78991 -0.60064 0
M  V30 418 O 42.3868 1.77345 0.430682 0
M  V30 419 C 42.4378 1.93258 -3.05506 0
M  V30 420 O 42.1588 1.16869 -4.22224 0
M  V30 421 C 43.6598 2.79444 -3.4413 0
M  V30 422 H 40.8798 0.292486 -0.603898 0
M  V30 423 H 43.4238 0.271253 -2.02693 0
M  V30 424 H 41.5788 2.60943 -2.86335 0
M  V30 425 H 41.9928 1.80359 -4.92515 0
M  V30 426 H 43.4668 3.41066 -4.34026 0
M  V30 427 H 43.9438 3.50499 -2.64665 0
M  V30 428 H 44.5498 2.17214 -3.65648 0
M  V30 429 N 42.8649 1.48995 0.513639 0
M  V30 430 C 44.1129 1.57531 1.26604 0
M  V30 431 C 44.4339 0.258236 1.93283 0
M  V30 432 O 43.7039 -0.721502 1.8213 0
M  V30 433 H 42.2839 0.580387 0.470276 0
M  V30 434 H 44.9459 1.85552 0.596373 0
M  V30 435 H 44.0419 2.36486 2.03669 0
M  V30 436 N 44.343 -0.763751 1.37857 0
M  V30 437 C 45.573 -1.55067 1.3652 0
M  V30 438 C 45.981 -1.89135 -0.0494227 0
M  V30 439 O 45.324 -1.52529 -1.02375 0
M  V30 440 C 45.386 -2.8838 2.14656 0
M  V30 441 C 45.05 -2.76905 3.63555 0
M  V30 442 C 46.047 -2.4739 4.57268 0
M  V30 443 C 43.732 -2.94676 4.06781 0
M  V30 444 C 45.726 -2.35786 5.92186 0
M  V30 445 C 43.413 -2.82692 5.41782 0
M  V30 446 C 44.411 -2.53289 6.34298 0
M  V30 447 O 44.099 -2.41345 7.66817 0
M  V30 448 H 43.831 -0.486776 0.469069 0
M  V30 449 H 46.385 -0.953812 1.81911 0
M  V30 450 H 44.615 -3.50217 1.63967 0
M  V30 451 H 46.304 -3.49828 2.05852 0
M  V30 452 H 47.07 -2.33339 4.2518 0
M  V30 453 H 42.949 -3.16563 3.35126 0
M  V30 454 H 46.493 -2.12757 6.64365 0
M  V30 455 H 42.39 -2.96314 5.7347 0
M  V30 456 H 43.158 -2.56634 7.77226 0
M  V30 457 N 45.8211 -1.22559 -0.990812 0
M  V30 458 C 47.0691 -1.04933 -1.72724 0
M  V30 459 C 47.3901 0.416158 -1.90508 0
M  V30 460 O 46.6601 1.29918 -1.46622 0
M  V30 461 H 45.2401 -0.385296 -0.639965 0
M  V30 462 H 47.9021 -1.54105 -1.19322 0
M  V30 463 H 46.9981 -1.52886 -2.72089 0
M  V30 464 N 47.2992 1.18797 -1.03562 0
M  V30 465 C 48.5242 1.9314 -0.755764 0
M  V30 466 C 48.9492 1.7537 0.68022 0
M  V30 467 O 48.3072 1.06046 1.47051 0
M  V30 468 C 48.3552 3.42747 -1.12058 0
M  V30 469 O 47.4592 4.11683 -0.243124 0
M  V30 470 H 46.8002 0.602724 -0.278604 0
M  V30 471 H 49.3302 1.50678 -1.3841 0
M  V30 472 H 49.3402 3.93437 -1.08035 0
M  V30 473 H 48.0152 3.55002 -2.16672 0
M  V30 474 H 46.5922 3.71323 -0.342539 0
M  V30 475 N 48.7773 0.814389 1.34928 0
M  V30 476 C 50.0023 0.410097 2.03305 0
M  V30 477 C 50.4273 -0.973464 1.60951 0
M  V30 478 O 49.7853 -1.63185 0.789964 0
M  V30 479 C 49.8333 0.51049 3.56968 0
M  V30 480 O 48.9373 -0.473035 4.09678 0
M  V30 481 H 48.2783 0.170088 0.641846 0
M  V30 482 H 50.8083 1.10244 1.72358 0
M  V30 483 H 50.8183 0.383135 4.06197 0
M  V30 484 H 49.4933 1.51963 3.87144 0
M  V30 485 H 48.0703 -0.305272 3.71648 0
M  V30 486 N 50.2554 -1.46986 0.568584 0
M  V30 487 C 51.4804 -2.07335 0.0520528 0
M  V30 488 C 51.9054 -1.41675 -1.23733 0
M  V30 489 O 51.2634 -0.495623 -1.74394 0
M  V30 490 C 51.3114 -3.60417 -0.11501 0
M  V30 491 O 50.4154 -3.95309 -1.17492 0
M  V30 492 H 49.7564 -0.661597 0.0564385 0
M  V30 493 H 52.2864 -1.88837 0.787507 0
M  V30 494 H 52.2964 -4.06698 -0.325644 0
M  V30 495 H 50.9714 -4.07601 0.826675 0
M  V30 496 H 49.5484 -3.60757 -0.943869 0
M  V30 497 N 51.7335 -0.305618 -1.54608 0
M  V30 498 C 53.1495 0.0476228 -1.59529 0
M  V30 499 C 53.3495 1.52025 -1.32252 0
M  V30 500 O 52.4055 2.27368 -1.09818 0
M  V30 501 C 53.7185 -0.354471 -2.98603 0
M  V30 502 C 55.2665 -0.303622 -3.11524 0
M  V30 503 C 55.7415 -0.680608 -4.52915 0
M  V30 504 N 57.2325 -0.63332 -4.5885 0
M  V30 505 C 57.9675 -0.897432 -5.66334 0
M  V30 506 N 57.4635 -1.22775 -6.81834 0
M  V30 507 N 59.2565 -0.824186 -5.56025 0
M  V30 508 H 51.4075 -1.2653 -1.70599 0
M  V30 509 H 53.6705 -0.513291 -0.797017 0
M  V30 510 H 53.3765 -1.3798 -3.23503 0
M  V30 511 H 53.2505 0.289568 -3.76087 0
M  V30 512 H 55.6375 0.712472 -2.8637 0
M  V30 513 H 55.7185 -0.982348 -2.36185 0
M  V30 514 H 55.3625 -1.69453 -4.78799 0
M  V30 515 H 55.2925 0.0202385 -5.26596 0
M  V30 516 H 57.7835 -0.389138 -3.75891 0
M  V30 517 H 58.0965 -1.41513 -7.59733 0
M  V30 518 H 56.4415 -1.26583 -6.83375 0
M  V30 519 H 59.6325 -0.565748 -4.64669 0
M  V30 520 H 59.8055 -1.03338 -6.39707 0
M  V30 521 N 53.2116 1.57565 -0.0334293 0
M  V30 522 C 54.6276 1.56297 0.322997 0
M  V30 523 C 54.8276 1.03945 1.7262 0
M  V30 524 O 53.8836 0.688109 2.42943 0
M  V30 525 C 55.1966 3.00232 0.167664 0
M  V30 526 C 56.7446 3.12078 0.240107 0
M  V30 527 C 57.2196 4.57859 0.113513 0
M  V30 528 N 58.7106 4.62887 0.170359 0
M  V30 529 C 59.4456 5.73319 0.0962517 0
M  V30 530 N 58.9416 6.92794 -0.0291881 0
M  V30 531 N 60.7346 5.61898 0.150551 0
M  V30 532 H 52.8856 1.89923 -0.950956 0
M  V30 533 H 55.1486 0.873824 -0.367608 0
M  V30 534 H 54.8546 3.42501 -0.799102 0
M  V30 535 H 54.7286 3.654 0.936083 0
M  V30 536 H 57.1156 2.69718 1.19733 0
M  V30 537 H 57.1966 2.49623 -0.558763 0
M  V30 538 H 56.8406 5.009 -0.840314 0
M  V30 539 H 56.7706 5.18299 0.931302 0
M  V30 540 H 59.2616 3.76954 0.26728 0
M  V30 541 H 59.5746 7.7276 -0.0789252 0
M  V30 542 H 57.9196 6.94971 -0.0640299 0
M  V30 543 H 61.1106 4.67448 0.246981 0
M  V30 544 H 61.2836 6.47938 0.0893365 0
M  V30 545 N 54.6897 -0.239769 1.55765 0
M  V30 546 C 55.6527 -1.28038 1.90103 0
M  V30 547 C 56.6527 -1.40723 0.778055 0
M  V30 548 O 57.8427 -1.39301 1.04599 0
M  V30 549 C 54.9747 -2.65702 2.13577 0
M  V30 550 H 56.1677 -0.988048 2.83157 0
M  V30 551 H 53.7207 -0.479382 1.48767 0
M  V30 552 H 54.4557 -3.00063 1.23015 0
M  V30 553 H 54.2407 -2.57875 2.95369 0
M  V30 554 H 55.7307 -3.40828 2.41301 0
M  V30 555 N 56.1678 -1.49265 -0.50573 0
M  V30 556 C 57.5788 -1.51769 -1.08734 0
M  V30 557 C 57.9298 -0.301192 -1.93874 0
M  V30 558 O 57.0548 0.589456 -2.08217 0
M  V30 559 C 57.6498 -2.75017 -1.97867 0
M  V30 560 C 56.2088 -2.80314 -2.51199 0
M  V30 561 C 55.3558 -2.4562 -1.28709 0
M  V30 562 H 58.3068 -1.56031 -0.289855 0
M  V30 563 H 58.3278 -2.5491 -2.82491 0
M  V30 564 H 57.8398 -3.63539 -1.35873 0
M  V30 565 H 55.9408 -1.96061 -3.16845 0
M  V30 566 H 56.0538 -3.82366 -2.88675 0
M  V30 567 H 54.4178 -1.97297 -1.61078 0
M  V30 568 H 55.2008 -3.36411 -0.6843 0
M  V30 569 N 57.6459 0.756429 -1.3826 0
M  V30 570 C 58.5779 1.87971 -1.31147 0
M  V30 571 C 59.5909 1.61248 -0.224239 0
M  V30 572 O 60.7799 1.71881 -0.481581 0
M  V30 573 C 57.8799 3.23545 -1.00857 0
M  V30 574 C 57.0529 3.77794 -2.20432 0
M  V30 575 C 56.1119 4.91877 -1.86931 0
M  V30 576 O 55.1379 5.06659 -2.59395 0
M  V30 577 N 56.3399 5.74643 -0.822568 0
M  V30 578 H 59.1049 1.94585 -2.2794 0
M  V30 579 H 56.6659 0.936234 -1.32084 0
M  V30 580 H 58.6579 3.97403 -0.765021 0
M  V30 581 H 57.2279 3.12335 -0.128687 0
M  V30 582 H 56.4479 2.95534 -2.6087 0
M  V30 583 H 57.7359 4.10771 -3.00241 0
M  V30 584 H 57.1339 5.65266 -0.221575 0
M  V30 585 H 55.6909 6.48661 -0.638899 0
M  V30 586 N 59.124 1.23083 0.984299 0
M  V30 587 C 60.352 1.08714 1.76037 0
M  V30 588 C 60.767 -0.361691 1.85303 0
M  V30 589 O 60.124 -1.25034 1.32939 0
M  V30 590 C 60.175 1.70206 3.18923 0
M  V30 591 O 59.896 3.09423 3.10144 0
M  V30 592 C 61.397 1.61227 4.12941 0
M  V30 593 H 58.617 0.380664 0.552572 0
M  V30 594 H 61.161 1.62853 1.23689 0
M  V30 595 H 59.316 1.20109 3.6831 0
M  V30 596 H 59.73 3.39188 4.00065 0
M  V30 597 H 61.204 2.08962 5.10919 0
M  V30 598 H 61.681 0.570375 4.35481 0
M  V30 599 H 62.287 2.10671 3.69456 0
M  V30 600 N 60.6021 -1.18246 1.0419 0
M  V30 601 C 61.8501 -1.87886 0.744543 0
M  V30 602 C 62.1711 -1.8082 -0.730006 0
M  V30 603 O 61.4411 -1.22736 -1.52685 0
M  V30 604 H 60.0211 -0.695556 0.272417 0
M  V30 605 H 62.6831 -1.43494 1.31892 0
M  V30 606 H 61.7791 -2.9389 1.05049 0
M  V30 607 N 62.0802 -0.821533 -1.34494 0
M  V30 608 C 63.3292 -0.405355 -1.97585 0
M  V30 609 C 63.6422 1.03677 -1.65863 0
M  V30 610 O 64.8482 1.55679 -2.22433 0
M  V30 611 C 63.3042 -0.673861 -3.53535 0
M  V30 612 C 62.9122 -2.12951 -3.94152 0
M  V30 613 C 64.6562 -0.32378 -4.23263 0
M  V30 614 C 62.5632 -2.34298 -5.43009 0
M  V30 615 H 61.4932 -0.147836 -0.739365 0
M  V30 616 H 64.1442 -1.00769 -1.53355 0
M  V30 617 H 62.5262 -0.00137554 -3.96 0
M  V30 618 H 63.7002 -2.84104 -3.62797 0
M  V30 619 H 62.0152 -2.44089 -3.37356 0
M  V30 620 H 64.6122 -0.461126 -5.32708 0
M  V30 621 H 64.9552 0.731586 -4.09821 0
M  V30 622 H 65.4882 -0.950786 -3.8627 0
M  V30 623 H 62.2272 -3.38335 -5.61435 0
M  V30 624 H 61.7472 -1.67687 -5.75883 0
M  V30 625 H 63.4262 -2.16588 -6.09671 0
M  V30 626 N 63.5583 1.46682 -0.576371 0
M  V30 627 C 64.8043 2.02712 -0.0596221 0
M  V30 628 C 65.1373 1.44765 1.29448 0
M  V30 629 O 64.4123 0.610355 1.84675 0
M  V30 630 C 64.6953 3.60098 0.0129503 0
M  V30 631 C 64.5483 4.28441 -1.3696 0
M  V30 632 C 65.8673 4.34224 0.71678 0
M  V30 633 H 62.9863 0.736637 -0.0231407 0
M  V30 634 H 65.6283 1.74898 -0.742351 0
M  V30 635 H 63.7783 3.83926 0.594378 0
M  V30 636 H 65.4503 4.15896 -1.9957 0
M  V30 637 H 63.6933 3.8805 -1.93907 0
M  V30 638 H 64.3643 5.3716 -1.27135 0
M  V30 639 H 66.8403 4.15503 0.222908 0
M  V30 640 H 65.7163 5.43936 0.73657 0
M  V30 641 H 65.9773 4.04823 1.77682 0
M  V30 642 N 65.0364 0.313813 1.54444 0
M  V30 643 C 66.3134 -0.345447 1.92525 0
M  V30 644 C 66.6934 -1.70667 1.24242 0
M  V30 645 O 66.0414 -2.25273 0.382654 0
M  V30 646 C 66.2514 -0.44737 3.46121 0
M  V30 647 C 67.5994 -0.712238 4.18584 0
M  V30 648 O 68.6234 -0.530678 3.52225 0
M  V30 649 O 67.4824 -1.06183 5.36085 0
M  V30 650 H 64.5764 -0.195407 0.803583 0
M  V30 651 H 67.1224 0.362813 1.65776 0
M  V30 652 H 65.8944 0.509043 3.87975 0
M  V30 653 H 65.5174 -1.20359 3.78945 0
M  V30 654 N 66.5145 -1.57545 0.0417849 0
M  V30 655 C 67.4245 -2.14451 -0.951213 0
M  V30 656 C 68.4405 -1.09992 -1.34825 0
M  V30 657 O 69.6165 -1.42114 -1.42708 0
M  V30 658 C 66.6815 -2.67063 -2.21084 0
M  V30 659 C 65.7425 -3.86284 -1.87304 0
M  V30 660 C 64.9755 -4.36378 -3.07261 0
M  V30 661 O 65.1985 -3.85587 -4.20332 0
M  V30 662 O 64.1325 -5.28077 -2.88822 0
M  V30 663 H 67.9585 -2.99601 -0.497287 0
M  V30 664 H 65.5435 -1.48317 -0.179567 0
M  V30 665 H 67.4255 -3.00914 -2.95006 0
M  V30 666 H 66.1005 -1.84989 -2.65633 0
M  V30 667 H 65.0075 -3.57338 -1.10727 0
M  V30 668 H 66.3405 -4.6956 -1.47562 0
M  V30 669 N 67.9926 0.231505 -1.5589 0
M  V30 670 C 69.2326 0.964533 -1.80211 0
M  V30 671 C 69.5966 1.81926 -0.613744 0
M  V30 672 O 70.7976 2.58526 -0.736045 0
M  V30 673 C 69.0686 1.78956 -3.09369 0
M  V30 674 S 70.6276 2.57959 -3.54969 0
M  V30 675 H 67.4456 0.324173 -0.632798 0
M  V30 676 H 70.0476 0.230985 -1.94131 0
M  V30 677 H 68.7516 1.15161 -3.93911 0
M  V30 678 H 68.2826 2.56559 -2.9823 0
M  V30 679 H 70.2976 3.81309 -3.17519 0
M  V30 680 N 69.4707 1.49531 0.497807 0
M  V30 681 C 70.7107 1.60799 1.26187 0
M  V30 682 C 71.0747 0.289627 1.89803 0
M  V30 683 O 72.2757 0.277512 2.67364 0
M  V30 684 C 70.5467 2.73729 2.29798 0
M  V30 685 S 72.1057 3.04968 3.155 0
M  V30 686 H 68.9237 0.567145 0.428798 0
M  V30 687 H 71.5257 1.87204 0.563477 0
M  V30 688 H 70.2297 3.68036 1.81597 0
M  V30 689 H 69.7607 2.49328 3.04301 0
M  V30 690 H 71.7757 2.46735 4.30507 0
M  V30 691 N 70.9488 -0.749086 1.3866 0
M  V30 692 C 72.1958 -1.50833 1.35114 0
M  V30 693 C 72.5238 -1.94415 -0.0574049 0
M  V30 694 O 71.7788 -1.66065 -1.03541 0
M  V30 695 C 72.0778 -2.7712 2.25697 0
M  V30 696 C 71.7438 -2.52477 3.73585 0
M  V30 697 C 70.4058 -2.45466 4.13884 0
M  V30 698 C 72.7578 -2.31066 4.67181 0
M  V30 699 C 70.0858 -2.15064 5.45861 0
M  V30 700 C 72.4378 -2.02183 5.9942 0
M  V30 701 C 71.1018 -1.93631 6.38798 0
M  V30 702 H 70.3718 -0.551936 0.494416 0
M  V30 703 H 73.0188 -0.860979 1.71054 0
M  V30 704 H 71.3238 -3.46528 1.82827 0
M  V30 705 H 73.0208 -3.35096 2.20254 0
M  V30 706 H 69.6108 -2.58807 3.41638 0
M  V30 707 H 73.7948 -2.35459 4.3689 0
M  V30 708 H 69.0508 -2.06954 5.75308 0
M  V30 709 H 73.2248 -1.8462 6.71482 0
M  V30 710 H 70.8518 -1.69839 7.40985 0
M  V30 711 N 72.4269 -1.23603 -0.977757 0
M  V30 712 C 73.8429 -0.999251 -1.24447 0
M  V30 713 C 74.0429 0.298053 -1.99283 0
M  V30 714 O 73.0989 1.01681 -2.31122 0
M  V30 715 C 74.4119 -2.20784 -2.04144 0
M  V30 716 C 75.9599 -2.25303 -2.17273 0
M  V30 717 C 76.4349 -3.45755 -3.00362 0
M  V30 718 N 77.9259 -3.4601 -3.07947 0
M  V30 719 C 78.6609 -4.35868 -3.72568 0
M  V30 720 N 78.1569 -5.35966 -4.38991 0
M  V30 721 N 79.9499 -4.23605 -3.6948 0
M  V30 722 H 72.1009 -2.06986 -0.476483 0
M  V30 723 H 74.3639 -0.907801 -0.273134 0
M  V30 724 H 74.0699 -3.14945 -1.56533 0
M  V30 725 H 73.9439 -2.22085 -3.04891 0
M  V30 726 H 76.3309 -1.3168 -2.64092 0
M  V30 727 H 76.4119 -2.28033 -1.15907 0
M  V30 728 H 76.0559 -4.39687 -2.5424 0
M  V30 729 H 75.9859 -3.40266 -4.01904 0
M  V30 730 H 78.4769 -2.73588 -2.60688 0
M  V30 731 H 78.7899 -6.00783 -4.86086 0
M  V30 732 H 77.1349 -5.39863 -4.37691 0
M  V30 733 H 80.3259 -3.44647 -3.16759 0
M  V30 734 H 80.4989 -4.93836 -4.1956 0
M  V30 735 N 73.905 1.17692 -1.04816 0
M  V30 736 C 75.13 1.92327 -0.776207 0
M  V30 737 C 75.555 1.76082 0.661581 0
M  V30 738 O 74.913 1.076 1.45917 0
M  V30 739 C 74.961 3.41539 -1.15687 0
M  V30 740 O 74.065 4.11402 -0.286775 0
M  V30 741 H 73.406 0.599735 -0.284981 0
M  V30 742 H 75.936 1.49201 -1.4 0
M  V30 743 H 75.946 3.92269 -1.12202 0
M  V30 744 H 74.621 3.52684 -2.20425 0
M  V30 745 H 73.198 3.70939 -0.381903 0
M  V30 746 N 75.3831 0.828654 1.34056 0
M  V30 747 C 76.6231 0.425394 1.99924 0
M  V30 748 C 76.9871 -0.994294 1.64249 0
M  V30 749 O 78.1881 -1.50074 2.23005 0
M  V30 750 C 76.4591 0.628071 3.51838 0
M  V30 751 S 78.0181 0.318511 4.37642 0
M  V30 752 H 74.8361 0.160465 0.692656 0
M  V30 753 H 77.4381 1.07572 1.63244 0
M  V30 754 H 76.1421 1.66089 3.7529 0
M  V30 755 H 75.6731 -0.0367799 3.93383 0
M  V30 756 H 77.6881 -0.865632 4.88591 0
M  V30 757 N 76.8612 -1.46375 0.584142 0
M  V30 758 C 78.1382 -1.956 0.0033388 0
M  V30 759 C 78.5182 -1.52679 -1.45782 0
M  V30 760 O 77.8662 -0.77816 -2.14842 0
M  V30 761 C 78.0762 -3.48551 0.176891 0
M  V30 762 C 79.4242 -4.24576 0.0454609 0
M  V30 763 O 80.4482 -3.56043 0.105801 0
M  V30 764 O 79.3072 -5.46427 -0.0890376 0
M  V30 765 H 76.4012 -0.825547 -0.0490066 0
M  V30 766 H 78.9472 -1.56652 0.65256 0
M  V30 767 H 77.7192 -3.72683 1.1926 0
M  V30 768 H 77.3422 -3.94332 -0.508695 0
M  V30 769 N 78.3393 -0.321999 -1.54275 0
M  V30 770 C 79.2693 0.537411 -2.27231 0
M  V30 771 C 80.2503 1.12064 -1.27968 0
M  V30 772 O 81.4353 1.14606 -1.56777 0
M  V30 773 C 78.5653 1.69919 -3.02894 0
M  V30 774 C 77.5193 1.24534 -4.09482 0
M  V30 775 C 76.8453 2.49394 -4.72977 0
M  V30 776 C 78.1453 0.361335 -5.21049 0
M  V30 777 H 79.8393 -0.0711406 -2.99315 0
M  V30 778 H 77.3853 -0.0356555 -1.43956 0
M  V30 779 H 79.3383 2.30668 -3.52662 0
M  V30 780 H 78.0623 2.33431 -2.28424 0
M  V30 781 H 76.7213 0.660782 -3.60596 0
M  V30 782 H 76.3693 3.11265 -3.95124 0
M  V30 783 H 76.0693 2.19718 -5.44975 0
M  V30 784 H 77.5933 3.10908 -5.25517 0
M  V30 785 H 79.0073 0.875072 -5.66582 0
M  V30 786 H 77.4043 0.157428 -5.99893 0
M  V30 787 H 78.4743 -0.60822 -4.8107 0
M  V30 788 N 79.8174 1.5752 -0.0501392 0
M  V30 789 C 81.2334 1.56631 0.306402 0
M  V30 790 C 81.4334 1.0577 1.71508 0
M  V30 791 O 80.4894 0.713837 2.422 0
M  V30 792 C 81.8024 3.00393 0.135811 0
M  V30 793 C 83.3504 3.12315 0.206993 0
M  V30 794 C 83.8254 4.57954 0.064944 0
M  V30 795 N 85.3164 4.63041 0.121254 0
M  V30 796 C 86.0514 5.73389 0.0354381 0
M  V30 797 N 85.5474 6.92724 -0.102666 0
M  V30 798 N 87.3404 5.62026 0.090946 0
M  V30 799 H 79.4914 1.88903 -0.971046 0
M  V30 800 H 81.7544 0.869876 -0.376855 0
M  V30 801 H 81.4604 3.41635 -0.835384 0
M  V30 802 H 81.3344 3.66373 0.897275 0
M  V30 803 H 83.7214 2.70973 1.16866 0
M  V30 804 H 83.8024 2.49016 -0.585208 0
M  V30 805 H 83.4464 4.99981 -0.893394 0
M  V30 806 H 83.3764 5.19258 0.876277 0
M  V30 807 H 85.8674 3.77216 0.227284 0
M  V30 808 H 86.1804 7.72633 -0.160882 0
M  V30 809 H 84.5254 6.94864 -0.137737 0
M  V30 810 H 87.7164 4.67684 0.197388 0
M  V30 811 H 87.8894 6.47997 0.0206089 0
M  V30 812 N 81.2955 -0.223234 1.56011 0
M  V30 813 C 82.7115 -0.572856 1.48965 0
M  V30 814 C 82.9115 -1.87225 0.74492 0
M  V30 815 O 81.9675 -2.50899 0.283896 0
M  V30 816 C 83.2805 -0.653646 2.9351 0
M  V30 817 C 84.8285 -0.744386 3.0402 0
M  V30 818 C 85.3035 -0.856535 4.49919 0
M  V30 819 N 86.7945 -0.9208 4.53955 0
M  V30 820 C 87.5295 -1.02726 5.64123 0
M  V30 821 N 87.0255 -1.09777 6.84047 0
M  V30 822 N 88.8185 -1.06226 5.51971 0
M  V30 823 H 80.9695 0.629462 2.02858 0
M  V30 824 H 83.2325 0.220621 0.921971 0
M  V30 825 H 82.9385 0.231518 3.50937 0
M  V30 826 H 82.8125 -1.51781 3.45315 0
M  V30 827 H 85.1995 -1.61999 2.46658 0
M  V30 828 H 85.2805 0.14541 2.55386 0
M  V30 829 H 84.9245 0.0146069 5.07898 0
M  V30 830 H 84.8545 -1.76172 4.96257 0
M  V30 831 H 87.3455 -0.876694 3.6759 0
M  V30 832 H 87.6585 -1.17872 7.63758 0
M  V30 833 H 86.0035 -1.06693 6.86762 0
M  V30 834 H 89.1945 -1.00382 4.5721 0
M  V30 835 H 89.3675 -1.14177 6.37862 0
M  V30 836 N 82.7736 -1.49793 -0.48987 0
M  V30 837 C 83.7036 -1.70201 -1.59856 0
M  V30 838 C 84.6846 -0.55076 -1.60937 0
M  V30 839 O 85.8696 -0.787841 -1.77501 0
M  V30 840 C 82.9996 -1.77882 -2.98287 0
M  V30 841 C 81.9536 -2.92907 -3.12073 0
M  V30 842 C 81.2796 -2.85712 -4.51965 0
M  V30 843 C 82.5796 -4.3369 -2.91051 0
M  V30 844 H 84.2736 -2.63025 -1.43032 0
M  V30 845 H 81.8196 -1.26574 -0.686664 0
M  V30 846 H 83.7726 -1.90744 -3.75759 0
M  V30 847 H 82.4966 -0.816653 -3.16225 0
M  V30 848 H 81.1556 -2.79665 -2.37029 0
M  V30 849 H 80.8036 -1.8738 -4.66795 0
M  V30 850 H 80.5036 -3.62921 -4.62128 0
M  V30 851 H 82.0276 -3.00598 -5.31482 0
M  V30 852 H 83.4416 -4.47555 -3.58284 0
M  V30 853 H 81.8386 -5.12205 -3.12675 0
M  V30 854 H 82.9086 -4.47362 -1.87071 0
M  V30 855 N 84.2517 0.741722 -1.39055 0
M  V30 856 C 85.1617 1.88621 -1.39496 0
M  V30 857 C 86.1777 1.71557 -0.290578 0
M  V30 858 O 87.3537 1.94275 -0.530954 0
M  V30 859 C 84.4187 3.24134 -1.23037 0
M  V30 860 C 83.4797 3.5364 -2.43387 0
M  V30 861 C 82.7127 4.82687 -2.27703 0
M  V30 862 O 82.9357 5.55922 -1.27696 0
M  V30 863 O 81.8697 5.1194 -3.16545 0
M  V30 864 H 85.6957 1.91203 -2.35956 0
M  V30 865 H 83.2807 0.888625 -1.20099 0
M  V30 866 H 85.1627 4.0513 -1.15964 0
M  V30 867 H 83.8377 3.22337 -0.296691 0
M  V30 868 H 82.7447 2.72758 -2.56035 0
M  V30 869 H 84.0777 3.60209 -3.35425 0
M  V30 870 N 85.7298 1.2412 0.971189 0
M  V30 871 C 86.6628 0.97373 2.06382 0
M  V30 872 C 87.6408 -0.0912662 1.62344 0
M  V30 873 O 88.8248 0.0449365 1.88446 0
M  V30 874 C 85.9518 0.468746 3.35441 0
M  V30 875 C 84.9978 1.52176 3.98428 0
M  V30 876 S 85.8308 3.10203 4.36503 0
M  V30 877 C 86.9868 2.61398 5.68702 0
M  V30 878 H 87.2198 1.89893 2.28753 0
M  V30 879 H 84.7528 1.07466 1.10862 0
M  V30 880 H 86.7108 0.184012 4.10087 0
M  V30 881 H 85.3718 -0.435688 3.11064 0
M  V30 882 H 84.5648 1.11876 4.91426 0
M  V30 883 H 84.1668 1.75632 3.30196 0
M  V30 884 H 86.4588 2.03992 6.4606 0
M  V30 885 H 87.4018 3.52972 6.13854 0
M  V30 886 H 87.8098 2.01941 5.27143 0
M  V30 887 N 87.2079 -1.17134 1.05439 0
M  V30 888 C 88.4379 -1.91094 0.785274 0
M  V30 889 C 88.8459 -1.77198 -0.663142 0
M  V30 890 O 88.1889 -1.10835 -1.46497 0
M  V30 891 C 88.2509 -3.42594 1.08949 0
M  V30 892 C 87.9149 -3.80274 2.53458 0
M  V30 893 C 88.9119 -3.82912 3.51673 0
M  V30 894 C 86.5969 -4.11162 2.88532 0
M  V30 895 C 88.5909 -4.15913 4.83006 0
M  V30 896 C 86.2779 -4.43831 4.20068 0
M  V30 897 C 87.2759 -4.46185 5.17115 0
M  V30 898 O 86.9639 -4.78083 6.46291 0
M  V30 899 H 86.6959 -0.613073 0.284811 0
M  V30 900 H 89.2499 -1.49461 1.40893 0
M  V30 901 H 87.4799 -3.84534 0.408741 0
M  V30 902 H 89.1689 -3.97817 0.805991 0
M  V30 903 H 89.9349 -3.5917 3.25917 0
M  V30 904 H 85.8139 -4.085 2.13656 0
M  V30 905 H 89.3579 -4.17665 5.5875 0
M  V30 906 H 85.2549 -4.67037 4.45586 0
M  V30 907 H 86.0229 -4.9593 6.51149 0
M  V30 908 N 88.686 -0.835752 -1.33615 0
M  V30 909 C 89.926 -0.43599 -1.99696 0
M  V30 910 C 90.29 0.98557 -1.64774 0
M  V30 911 O 91.491 1.48889 -2.23798 0
M  V30 912 C 89.762 -0.646721 -3.515 0
M  V30 913 S 91.321 -0.341715 -4.37467 0
M  V30 914 H 88.139 -0.164136 -0.691795 0
M  V30 915 H 90.741 -1.08436 -1.62671 0
M  V30 916 H 89.445 -1.68077 -3.74404 0
M  V30 917 H 88.976 0.0159173 -3.93397 0
M  V30 918 H 90.991 0.839708 -4.89043 0
M  V30 919 N 90.1641 1.46063 -0.591896 0
M  V30 920 C 91.1271 2.28854 0.125973 0
M  V30 921 C 92.1271 1.38903 0.810107 0
M  V30 922 O 93.3171 1.61186 0.66066 0
M  V30 923 C 90.4491 3.19526 1.1881 0
M  V30 924 H 91.6421 2.93802 -0.601717 0
M  V30 925 H 89.1951 1.52325 -0.350254 0
M  V30 926 H 89.9301 2.59345 1.94707 0
M  V30 927 H 89.7151 3.85766 0.701936 0
M  V30 928 H 91.2051 3.81817 1.69132 0
M  V30 929 N 91.6422 0.330177 1.54103 0
M  V30 930 C 93.0532 -0.15652 1.86043 0
M  V30 931 C 93.4042 -1.51086 1.2517 0
M  V30 932 O 92.5292 -2.09023 0.560217 0
M  V30 933 C 93.1242 -0.290784 3.3755 0
M  V30 934 C 91.6832 -0.721705 3.69416 0
M  V30 935 C 90.8302 0.152622 2.7688 0
M  V30 936 H 93.7812 0.550237 1.48856 0
M  V30 937 H 93.8022 -1.12058 3.63625 0
M  V30 938 H 93.3142 0.695068 3.81825 0
M  V30 939 H 91.4152 -1.71706 3.30678 0
M  V30 940 H 91.5282 -0.520869 4.7626 0
M  V30 941 H 89.8922 -0.372894 2.51956 0
M  V30 942 H 90.6752 1.13536 3.23982 0
M  V30 943 N 93.1203 -1.57491 0.0584922 0
M  V30 944 C 94.0503 -2.14988 -0.911178 0
M  V30 945 C 95.0313 -1.07343 -1.31952 0
M  V30 946 O 96.2163 -1.35318 -1.39294 0
M  V30 947 C 93.3463 -2.70078 -2.18347 0
M  V30 948 C 92.3003 -3.82771 -1.91495 0
M  V30 949 C 91.6263 -4.24408 -3.25241 0
M  V30 950 C 92.9263 -5.07592 -1.23075 0
M  V30 951 H 94.6203 -2.96263 -0.432246 0
M  V30 952 H 92.1663 -1.42512 -0.206469 0
M  V30 953 H 94.1193 -3.08943 -2.86587 0
M  V30 954 H 92.8433 -1.86005 -2.68458 0
M  V30 955 H 91.5023 -3.44389 -1.25664 0
M  V30 956 H 91.1503 -3.37275 -3.73168 0
M  V30 957 H 90.8503 -5.00366 -3.08071 0
M  V30 958 H 92.3743 -4.65879 -3.94701 0
M  V30 959 H 93.7883 -5.43857 -1.81362 0
M  V30 960 H 92.1853 -5.88741 -1.16207 0
M  V30 961 H 93.2553 -4.84454 -0.207847 0
M  V30 962 N 94.5984 0.214957 -1.56127 0
M  V30 963 C 95.5454 1.26642 -1.92952 0
M  V30 964 C 96.5154 1.46244 -0.78753 0
M  V30 965 O 97.7004 1.59704 -1.04399 0
M  V30 966 C 94.8404 2.6104 -2.25726 0
M  V30 967 C 93.9534 2.49183 -3.52891 0
M  V30 968 C 93.0884 3.76149 -3.7508 0
M  V30 969 C 92.1274 3.59041 -4.95738 0
M  V30 970 N 91.2644 4.77972 -5.14283 0
M  V30 971 H 96.1044 0.945384 -2.82607 0
M  V30 972 H 93.6414 0.455489 -1.3987 0
M  V30 973 H 95.5994 3.39313 -2.42739 0
M  V30 974 H 94.2294 2.91227 -1.39236 0
M  V30 975 H 93.2814 1.6231 -3.44034 0
M  V30 976 H 94.5934 2.32466 -4.41318 0
M  V30 977 H 93.7474 4.62865 -3.92226 0
M  V30 978 H 92.4864 3.95799 -2.84947 0
M  V30 979 H 91.4914 2.7071 -4.78535 0
M  V30 980 H 92.7164 3.40856 -5.87362 0
M  V30 981 H 90.6624 4.97923 -4.27093 0
M  V30 982 H 90.5794 4.64006 -5.96853 0
M  V30 983 H 91.8474 5.66096 -5.35869 0
M  V30 984 N 96.0765 1.50051 0.48192 0
M  V30 985 C 97.4875 1.5348 1.06305 0
M  V30 986 C 97.8385 0.331997 1.93371 0
M  V30 987 O 96.9635 -0.556256 2.09129 0
M  V30 988 C 97.5585 2.7813 1.93466 0
M  V30 989 C 96.1175 2.84275 2.46707 0
M  V30 990 C 95.2645 2.47637 1.24785 0
M  V30 991 H 98.2155 1.56472 0.264995 0
M  V30 992 H 98.2365 2.59372 2.78399 0
M  V30 993 H 97.7485 3.65654 1.30072 0
M  V30 994 H 95.8495 2.01077 3.13686 0
M  V30 995 H 95.9625 3.8691 2.82555 0
M  V30 996 H 94.3265 1.99835 1.57918 0
M  V30 997 H 95.1095 3.37457 0.630694 0
M  V30 998 N 97.5546 -0.734337 1.39446 0
M  V30 999 C 98.5176 -1.83004 1.37994 0
M  V30 1000 C 99.5176 -1.58397 0.276938 0
M  V30 1001 O 100.708 -1.65785 0.534875 0
M  V30 1002 C 97.8396 -3.20802 1.1532 0
M  V30 1003 H 99.0326 -1.85694 2.35494 0
M  V30 1004 H 96.5856 -0.938059 1.25021 0
M  V30 1005 H 97.3206 -3.23772 0.185036 0
M  V30 1006 H 97.1056 -3.4006 1.95197 0
M  V30 1007 H 98.5956 -4.00862 1.17046 0
M  V30 1008 N 99.0327 -1.24633 -0.964593 0
M  V30 1009 C 99.9797 -1.04144 -2.05968 0
M  V30 1010 C 100.95 0.046262 -1.66036 0
M  V30 1011 O 102.135 -0.108972 -1.90489 0
M  V30 1012 C 99.2747 -0.65563 -3.38815 0
M  V30 1013 C 98.3877 -1.81714 -3.91923 0
M  V30 1014 C 97.5227 -1.37662 -5.13052 0
M  V30 1015 C 96.5617 -2.50788 -5.58365 0
M  V30 1016 N 95.6987 -2.07582 -6.70712 0
M  V30 1017 H 100.539 -1.9787 -2.22827 0
M  V30 1018 H 98.0757 -0.9855 -1.09208 0
M  V30 1019 H 100.034 -0.412954 -4.15151 0
M  V30 1020 H 98.6637 0.244627 -3.21872 0
M  V30 1021 H 97.7157 -2.1734 -3.12198 0
M  V30 1022 H 99.0277 -2.66705 -4.21509 0
M  V30 1023 H 98.1817 -1.093 -5.96773 0
M  V30 1024 H 96.9207 -0.497293 -4.85158 0
M  V30 1025 H 95.9257 -2.79906 -4.73215 0
M  V30 1026 H 97.1507 -3.39283 -5.88272 0
M  V30 1027 H 95.0967 -1.22051 -6.44546 0
M  V30 1028 H 95.0137 -2.86125 -6.99763 0
M  V30 1029 H 96.2817 -1.82369 -7.57867 0
M  V30 1030 N 100.511 1.16574 -1.06058 0
M  V30 1031 C 101.736 1.91493 -0.796562 0
M  V30 1032 C 102.161 1.76773 0.642868 0
M  V30 1033 O 101.519 1.09142 1.44768 0
M  V30 1034 C 101.567 3.40293 -1.19303 0
M  V30 1035 O 100.671 4.11074 -0.330394 0
M  V30 1036 H 100.012 0.596678 -0.291326 0
M  V30 1037 H 102.542 1.47708 -1.41575 0
M  V30 1038 H 102.552 3.91057 -1.16356 0
M  V30 1039 H 101.227 3.50326 -2.24153 0
M  V30 1040 H 99.8038 3.70513 -0.421225 0
M  V30 1041 N 101.989 0.842826 1.3317 0
M  V30 1042 C 102.952 0.284065 2.27433 0
M  V30 1043 C 103.952 -0.54948 1.5112 0
M  V30 1044 O 105.142 -0.362699 1.70382 0
M  V30 1045 C 102.274 -0.599384 3.35589 0
M  V30 1046 H 103.467 1.11589 2.78366 0
M  V30 1047 H 101.02 0.616221 1.4364 0
M  V30 1048 H 101.755 -1.45349 2.89904 0
M  V30 1049 H 101.54 -0.00291266 3.921 0
M  V30 1050 H 103.03 -0.983488 4.05854 0
M  V30 1051 O 103.506 -1.43543 0.740114 0
M  V30 1052 H 104.197 -1.91465 0.293394 0
M  V30 END ATOM
M  V30 BEGIN BOND
M  V30 END BOND
M  V30 END CTAB
M  END
$$$$
