drugbank_target|P55263 Adenosine kinase (DB00131; DB07173; DB07280)
 OpenBabel12092120343D

  0  0  0     0  0            999 V3000
M  V30 BEGIN CTAB
M  V30 COUNTS 5701 5758 0 0 0
M  V30 BEGIN ATOM
M  V30 1 H -0.908 1.98254 -0.117106 0
M  V30 2 N 0 1.576 0 0
M  V30 3 C 0.933 2.03868 1.02534 0
M  V30 4 C 1.911 0.928543 1.3348 0
M  V30 5 O 3.095 1.19667 1.45644 0
M  V30 6 C 0.222 2.43627 2.35294 0
M  V30 7 C -0.732 3.65373 2.2001 0
M  V30 8 S 0.101 5.13292 1.52614 0
M  V30 9 C 1.257 5.56322 2.86805 0
M  V30 10 H 1.49 2.90518 0.631377 0
M  V30 11 H -0.977 1.52953 0.210867 0
M  V30 12 H 0.981 2.67203 3.11629 0
M  V30 13 H -0.358 1.57376 2.7183 0
M  V30 14 H -1.165 3.90944 3.18086 0
M  V30 15 H -1.563 3.418 1.51819 0
M  V30 16 H 0.729 5.58782 3.83104 0
M  V30 17 H 1.672 6.56266 2.65933 0
M  V30 18 H 2.08 4.83886 2.90714 0
M  V30 19 N 1.4781 -0.272755 1.55222 0
M  V30 20 C 2.4411 -1.32041 1.87344 0
M  V30 21 C 3.4411 -1.42342 0.74803 0
M  V30 22 O 4.6311 -1.41488 1.0162 0
M  V30 23 C 1.7631 -2.70173 2.07893 0
M  V30 24 H 2.9561 -1.04789 2.80997 0
M  V30 25 H 0.5091 -0.51083 1.47717 0
M  V30 26 H 1.2441 -3.02605 1.16622 0
M  V30 27 H 1.0291 -2.64082 2.89833 0
M  V30 28 H 2.5191 -3.45869 2.34017 0
M  V30 29 N 2.9562 -1.48159 -0.537278 0
M  V30 30 C 3.9192 -1.61665 -1.62472 0
M  V30 31 C 4.9192 -0.490395 -1.5314 0
M  V30 32 O 6.1092 -0.755998 -1.5694 0
M  V30 33 C 3.2412 -1.57997 -3.02076 0
M  V30 34 H 4.4342 -2.58621 -1.51839 0
M  V30 35 H 1.9872 -1.36647 -0.758771 0
M  V30 36 H 2.7222 -0.624913 -3.18222 0
M  V30 37 H 2.5072 -2.39755 -3.10258 0
M  V30 38 H 3.9972 -1.70627 -3.81151 0
M  V30 39 N 4.4343 0.785586 -1.36625 0
M  V30 40 C 5.3973 1.87999 -1.31107 0
M  V30 41 C 6.3973 1.59316 -0.217959 0
M  V30 42 O 7.5873 1.67656 -0.472977 0
M  V30 43 C 4.7193 3.24861 -1.03334 0
M  V30 44 H 5.9123 1.94307 -2.2844 0
M  V30 45 H 3.4653 0.983813 -1.21453 0
M  V30 46 H 4.2003 3.24235 -0.0647432 0
M  V30 47 H 3.9853 3.4707 -1.82441 0
M  V30 48 H 5.4753 4.04929 -1.02088 0
M  V30 49 N 5.9124 1.20967 1.01018 0
M  V30 50 C 6.8224 0.980157 2.13143 0
M  V30 51 C 7.8384 -0.0660665 1.73875 0
M  V30 52 O 9.0144 0.122821 2.01025 0
M  V30 53 C 6.0794 0.54216 3.42435 0
M  V30 54 C 5.1404 1.65999 3.95908 0
M  V30 55 C 4.3734 1.2428 5.19028 0
M  V30 56 O 4.5964 0.114196 5.70286 0
M  V30 57 O 3.5304 2.05271 5.65816 0
M  V30 58 H 7.3564 1.91913 2.35379 0
M  V30 59 H 4.9414 0.994099 1.11526 0
M  V30 60 H 6.8234 0.30744 4.20277 0
M  V30 61 H 5.4984 -0.36815 3.216 0
M  V30 62 H 4.4054 1.94906 3.19316 0
M  V30 63 H 5.7384 2.54753 4.21143 0
M  V30 64 N 7.3905 -1.2043 1.01659 0
M  V30 65 C 8.3005 -2.2689 0.596484 0
M  V30 66 C 9.3165 -1.70107 -0.36599 0
M  V30 67 O 10.4925 -2.00117 -0.226942 0
M  V30 68 C 7.5575 -3.4665 -0.0586659 0
M  V30 69 C 6.6185 -4.18662 0.949751 0
M  V30 70 C 5.8515 -5.32705 0.32577 0
M  V30 71 O 6.0745 -5.63656 -0.874509 0
M  V30 72 O 5.0085 -5.92803 1.04249 0
M  V30 73 H 8.8345 -2.65041 1.4828 0
M  V30 74 H 6.4195 -1.27048 0.786082 0
M  V30 75 H 8.3015 -4.19256 -0.424564 0
M  V30 76 H 6.9765 -3.10375 -0.91918 0
M  V30 77 H 5.8835 -3.48229 1.36702 0
M  V30 78 H 7.2165 -4.58878 1.78023 0
M  V30 79 N 8.8686 -0.792821 -1.36206 0
M  V30 80 C 9.7786 -0.194808 -2.3379 0
M  V30 81 C 10.7946 0.654869 -1.61206 0
M  V30 82 O 11.9706 0.569856 -1.9317 0
M  V30 83 C 9.0356 0.657721 -3.40404 0
M  V30 84 C 8.0966 -0.210849 -4.28782 0
M  V30 85 C 7.3296 0.601086 -5.30304 0
M  V30 86 O 7.5526 1.83682 -5.40016 0
M  V30 87 O 6.4866 -0.000808277 -6.019 0
M  V30 88 H 10.3126 -1.00172 -2.86704 0
M  V30 89 H 7.8976 -0.554341 -1.38735 0
M  V30 90 H 9.7796 1.14375 -4.05581 0
M  V30 91 H 8.4546 1.44247 -2.89784 0
M  V30 92 H 7.3616 -0.743714 -3.66633 0
M  V30 93 H 8.6946 -0.959195 -4.82763 0
M  V30 94 N 10.3467 1.47872 -0.545128 0
M  V30 95 C 11.7577 1.86384 -0.108581 0
M  V30 96 C 12.1087 1.45309 1.31832 0
M  V30 97 O 11.2337 0.850641 1.9898 0
M  V30 98 C 11.8287 3.38265 -0.190274 0
M  V30 99 C 10.3877 3.75914 0.191164 0
M  V30 100 C 9.5347 2.71926 -0.543273 0
M  V30 101 H 12.4857 1.39561 -0.755537 0
M  V30 102 H 12.5067 3.75831 0.594217 0
M  V30 103 H 12.0187 3.6813 -1.2289 0
M  V30 104 H 10.1197 3.51665 1.23136 0
M  V30 105 H 10.2327 4.78836 -0.158987 0
M  V30 106 H 8.5967 2.54697 0.0122495 0
M  V30 107 H 9.3797 3.04634 -1.58282 0
M  V30 108 N 11.8248 0.280983 1.55075 0
M  V30 109 C 12.7718 -0.603937 2.22758 0
M  V30 110 C 13.7418 -1.1452 1.20309 0
M  V30 111 O 14.9268 -1.19343 1.48869 0
M  V30 112 C 12.0668 -1.77947 2.95684 0
M  V30 113 C 11.1798 -1.2715 4.12864 0
M  V30 114 C 10.3148 -2.4093 4.7342 0
M  V30 115 C 9.3538 -1.87165 5.82783 0
M  V30 116 N 8.4908 -2.94441 6.37377 0
M  V30 117 H 13.3308 -0.020124 2.97993 0
M  V30 118 H 10.8678 0.00183425 1.471 0
M  V30 119 H 12.8258 -2.47055 3.36184 0
M  V30 120 H 11.4558 -2.33522 2.22861 0
M  V30 121 H 10.5078 -0.473331 3.77444 0
M  V30 122 H 11.8198 -0.837751 4.91715 0
M  V30 123 H 10.9738 -3.18021 5.1667 0
M  V30 124 H 9.7128 -2.87623 3.93859 0
M  V30 125 H 8.7178 -1.08556 5.38976 0
M  V30 126 H 9.9428 -1.41401 6.64216 0
M  V30 127 H 7.8888 -3.40505 5.60707 0
M  V30 128 H 7.8058 -2.55501 7.11516 0
M  V30 129 H 9.0738 -3.71489 6.85285 0
M  V30 130 N 13.3029 -1.57598 0.00835791 0
M  V30 131 C 14.7139 -1.7892 -0.53333 0
M  V30 132 C 15.0649 -0.916609 -1.73473 0
M  V30 133 O 14.1899 -0.121336 -2.1606 0
M  V30 134 C 14.7849 -3.24488 -0.974313 0
M  V30 135 C 13.3439 -3.46878 -1.46125 0
M  V30 136 C 12.4909 -2.74157 -0.416302 0
M  V30 137 H 15.4419 -1.56958 0.234495 0
M  V30 138 H 15.4629 -3.3306 -1.83988 0
M  V30 139 H 14.9749 -3.87972 -0.099718 0
M  V30 140 H 13.0759 -2.8862 -2.35646 0
M  V30 141 H 13.1889 -4.55572 -1.48295 0
M  V30 142 H 11.5529 -2.39022 -0.87981 0
M  V30 143 H 12.3359 -3.40345 0.44947 0
M  V30 144 N 14.781 0.264519 -1.55364 0
M  V30 145 C 15.728 1.32717 -1.88825 0
M  V30 146 C 16.698 1.48675 -0.740605 0
M  V30 147 O 17.883 1.62945 -0.992657 0
M  V30 148 C 15.023 2.68089 -2.17307 0
M  V30 149 C 14.136 2.60284 -3.44785 0
M  V30 150 C 13.271 3.87892 -3.62924 0
M  V30 151 C 12.31 3.74631 -4.84064 0
M  V30 152 N 11.447 4.94092 -4.98816 0
M  V30 153 H 16.287 1.03481 -2.79456 0
M  V30 154 H 13.824 0.499757 -1.3835 0
M  V30 155 H 15.782 3.46864 -2.31821 0
M  V30 156 H 14.412 2.95509 -1.299 0
M  V30 157 H 13.464 1.73173 -3.38697 0
M  V30 158 H 14.776 2.46388 -4.33698 0
M  V30 159 H 13.93 4.75109 -3.77302 0
M  V30 160 H 12.669 4.04664 -2.7221 0
M  V30 161 H 11.674 2.85797 -4.69681 0
M  V30 162 H 12.899 3.5937 -5.76221 0
M  V30 163 H 10.845 5.11259 -4.11036 0
M  V30 164 H 10.762 4.8276 -5.81789 0
M  V30 165 H 12.03 5.82857 -5.17588 0
M  V30 166 N 16.2591 1.48442 0.529413 0
M  V30 167 C 17.2061 1.63007 1.63394 0
M  V30 168 C 18.1761 0.47212 1.59249 0
M  V30 169 O 19.3611 0.695673 1.77666 0
M  V30 170 C 16.5011 1.6763 3.01653 0
M  V30 171 C 15.6141 2.94535 3.16027 0
M  V30 172 C 14.7491 2.90316 4.44849 0
M  V30 173 C 13.7881 4.11923 4.52754 0
M  V30 174 N 12.9251 4.05777 5.72965 0
M  V30 175 H 17.7651 2.5733 1.50285 0
M  V30 176 H 15.3021 1.27613 0.731656 0
M  V30 177 H 17.2601 1.68292 3.81751 0
M  V30 178 H 15.8901 0.76797 3.13532 0
M  V30 179 H 14.9421 3.03615 2.29177 0
M  V30 180 H 16.2541 3.84512 3.17729 0
M  V30 181 H 15.4081 2.89382 5.33238 0
M  V30 182 H 14.1471 1.98068 4.45668 0
M  V30 183 H 13.1521 4.13131 3.62771 0
M  V30 184 H 14.3771 5.0533 4.53672 0
M  V30 185 H 12.3231 3.16351 5.74681 0
M  V30 186 H 12.2401 4.8946 5.76164 0
M  V30 187 H 13.5081 4.08904 6.6364 0
M  V30 188 N 17.7372 -0.778329 1.37039 0
M  V30 189 C 18.6672 -1.90546 1.34962 0
M  V30 190 C 19.6482 -1.68681 0.219274 0
M  V30 191 O 20.8332 -1.89634 0.418624 0
M  V30 192 C 17.9632 -3.27734 1.14925 0
M  V30 193 C 16.9172 -3.64147 2.24902 0
M  V30 194 C 16.2432 -4.99806 1.89996 0
M  V30 195 C 17.5432 -3.71579 3.67051 0
M  V30 196 H 19.2372 -1.92541 2.29277 0
M  V30 197 H 16.7832 -0.924948 1.10366 0
M  V30 198 H 18.7362 -4.06215 1.12104 0
M  V30 199 H 17.4602 -3.26154 0.170631 0
M  V30 200 H 16.1192 -2.8797 2.26868 0
M  V30 201 H 15.7672 -4.94759 0.906796 0
M  V30 202 H 15.4672 -5.25139 2.63634 0
M  V30 203 H 16.9912 -5.80694 1.88749 0
M  V30 204 H 18.4052 -4.40227 3.67251 0
M  V30 205 H 16.8022 -4.08405 4.39688 0
M  V30 206 H 17.8722 -2.72404 4.01154 0
M  V30 207 N 19.2153 -1.21501 -1.00376 0
M  V30 208 C 20.1623 -0.975387 -2.09177 0
M  V30 209 C 21.1323 0.0990615 -1.65804 0
M  V30 210 O 22.3173 -0.0483147 -1.90739 0
M  V30 211 C 19.4573 -0.547507 -3.40729 0
M  V30 212 C 18.5703 -1.69153 -3.97506 0
M  V30 213 C 17.7053 -1.2127 -5.17172 0
M  V30 214 C 16.7443 -2.32897 -5.66061 0
M  V30 215 N 15.8813 -1.86138 -6.76976 0
M  V30 216 H 20.7213 -1.9068 -2.29009 0
M  V30 217 H 18.2583 -0.950257 -1.12288 0
M  V30 218 H 20.2163 -0.280667 -4.16255 0
M  V30 219 H 18.8463 0.346904 -3.20931 0
M  V30 220 H 17.8983 -2.07298 -3.18954 0
M  V30 221 H 19.2103 -2.5316 -4.29781 0
M  V30 222 H 18.3643 -0.902591 -5.99948 0
M  V30 223 H 17.1033 -0.342692 -4.86495 0
M  V30 224 H 16.1083 -2.64709 -4.81881 0
M  V30 225 H 17.3333 -3.20396 -5.98768 0
M  V30 226 H 15.2793 -1.01484 -6.48103 0
M  V30 227 H 15.1963 -2.63717 -7.08512 0
M  V30 228 H 16.4643 -1.58165 -7.63285 0
M  V30 229 N 20.6934 1.19889 -1.02296 0
M  V30 230 C 21.9394 1.89701 -0.717033 0
M  V30 231 C 22.2724 1.7905 0.751989 0
M  V30 232 O 21.5474 1.17891 1.547 0
M  V30 233 C 21.8304 3.40858 -1.16136 0
M  V30 234 C 21.6834 3.60411 -2.69117 0
M  V30 235 C 23.0024 4.33876 -0.737549 0
M  V30 236 H 20.1214 0.688874 -0.261957 0
M  V30 237 H 22.7634 1.41154 -1.27183 0
M  V30 238 H 20.9134 3.82335 -0.689342 0
M  V30 239 H 22.5854 3.28145 -3.2422 0
M  V30 240 H 20.8284 3.03665 -3.0979 0
M  V30 241 H 21.4994 4.66396 -2.95261 0
M  V30 242 H 23.9754 4.00081 -1.14344 0
M  V30 243 H 22.8514 5.38242 -1.0764 0
M  V30 244 H 23.1124 4.40628 0.360436 0
M  V30 245 N 22.1715 0.800033 1.35784 0
M  V30 246 C 23.0815 0.207204 2.33683 0
M  V30 247 C 24.0975 -0.64631 1.61551 0
M  V30 248 O 25.2735 -0.559604 1.93469 0
M  V30 249 C 22.3385 -0.639659 3.40748 0
M  V30 250 C 21.3995 0.233585 4.28664 0
M  V30 251 C 20.6325 -0.572954 5.30616 0
M  V30 252 O 20.8555 -1.80816 5.40982 0
M  V30 253 O 19.7895 0.0327285 6.01891 0
M  V30 254 H 23.6155 1.01692 2.86169 0
M  V30 255 H 21.2005 0.561691 1.38439 0
M  V30 256 H 23.0825 -1.12223 4.06182 0
M  V30 257 H 21.7575 -1.42708 2.90544 0
M  V30 258 H 20.6645 0.763147 3.66233 0
M  V30 259 H 21.9975 0.984784 4.82248 0
M  V30 260 N 23.6496 -1.47581 0.552962 0
M  V30 261 C 24.6126 -2.28439 -0.186605 0
M  V30 262 C 25.6126 -1.36706 -0.84665 0
M  V30 263 O 26.8026 -1.59378 -0.703164 0
M  V30 264 C 23.9346 -3.16264 -1.2724 0
M  V30 265 H 25.1276 -2.95294 0.523609 0
M  V30 266 H 22.6806 -1.532 0.309745 0
M  V30 267 H 23.4156 -2.54091 -2.01514 0
M  V30 268 H 23.2006 -3.83769 -0.803968 0
M  V30 269 H 24.6906 -3.77198 -1.79196 0
M  V30 270 N 25.1277 -0.289203 -1.54924 0
M  V30 271 C 26.5387 0.205791 -1.85562 0
M  V30 272 C 26.8897 1.54351 -1.2112 0
M  V30 273 O 26.0147 2.10435 -0.504601 0
M  V30 274 C 26.6097 0.380177 -3.3666 0
M  V30 275 C 25.1687 0.819395 -3.67373 0
M  V30 276 C 24.3157 -0.079159 -2.77187 0
M  V30 277 H 27.2667 -0.510577 -1.50262 0
M  V30 278 H 27.2877 1.21659 -3.60526 0
M  V30 279 H 26.7997 -0.593589 -3.83534 0
M  V30 280 H 24.9007 1.80413 -3.26009 0
M  V30 281 H 25.0137 0.646957 -4.74712 0
M  V30 282 H 23.3777 0.439565 -2.50878 0
M  V30 283 H 24.1607 -1.04906 -3.26878 0
M  V30 284 N 26.6058 1.57591 -0.0167156 0
M  V30 285 C 27.5378 2.06343 0.997753 0
M  V30 286 C 28.5508 0.984469 1.29661 0
M  V30 287 O 29.7398 1.26093 1.26344 0
M  V30 288 C 26.8398 2.46255 2.32834 0
M  V30 289 C 26.0128 3.77083 2.21646 0
M  V30 290 C 25.0718 4.0368 3.37534 0
M  V30 291 O 24.0978 4.7411 3.14973 0
M  V30 292 N 25.2998 3.52881 4.60929 0
M  V30 293 H 28.0648 2.93997 0.581875 0
M  V30 294 H 25.6258 1.61002 0.170316 0
M  V30 295 H 27.6178 2.61149 3.09166 0
M  V30 296 H 26.1878 1.64032 2.66106 0
M  V30 297 H 25.4078 3.72106 1.30119 0
M  V30 298 H 26.6958 4.62822 2.11361 0
M  V30 299 H 26.0938 2.95878 4.82154 0
M  V30 300 H 24.6508 3.73076 5.34469 0
M  V30 301 N 28.0839 -0.256276 1.55502 0
M  V30 302 C 29.0469 -1.30047 1.88734 0
M  V30 303 C 30.0469 -1.4154 0.763086 0
M  V30 304 O 31.2369 -1.40403 1.03115 0
M  V30 305 C 28.3689 -2.67953 2.10747 0
M  V30 306 H 29.5619 -1.01802 2.82093 0
M  V30 307 H 27.1149 -0.495134 1.4825 0
M  V30 308 H 27.8499 -3.01351 1.19825 0
M  V30 309 H 27.6349 -2.60993 2.92617 0
M  V30 310 H 29.1249 -3.43368 2.37673 0
M  V30 311 N 29.562 -1.4872 -0.521534 0
M  V30 312 C 30.492 -1.66771 -1.63431 0
M  V30 313 C 31.473 -0.516499 -1.62069 0
M  V30 314 O 32.658 -0.750013 -1.79132 0
M  V30 315 C 29.788 -1.71515 -3.01993 0
M  V30 316 C 28.742 -2.86222 -3.18216 0
M  V30 317 C 28.068 -2.76061 -4.57924 0
M  V30 318 C 29.368 -4.27419 -3.00184 0
M  V30 319 H 31.062 -2.59932 -1.48579 0
M  V30 320 H 28.608 -1.25089 -0.713358 0
M  V30 321 H 30.561 -1.82731 -3.7972 0
M  V30 322 H 29.285 -0.749393 -3.17886 0
M  V30 323 H 27.944 -2.74575 -2.42908 0
M  V30 324 H 27.592 -1.77437 -4.70665 0
M  V30 325 H 27.292 -3.53037 -4.69722 0
M  V30 326 H 28.816 -2.89256 -5.37739 0
M  V30 327 H 30.23 -4.39855 -3.67697 0
M  V30 328 H 28.627 -5.05458 -3.2347 0
M  V30 329 H 29.697 -4.43293 -1.96518 0
M  V30 330 N 31.0401 0.771051 -1.3745 0
M  V30 331 C 32.4561 1.07171 -1.18265 0
M  V30 332 C 32.6561 2.01491 -0.019287 0
M  V30 333 O 31.7121 2.44244 0.640408 0
M  V30 334 C 33.0251 1.66854 -2.50161 0
M  V30 335 C 34.5731 1.79109 -2.56689 0
M  V30 336 C 35.0481 2.42205 -3.88717 0
M  V30 337 N 36.5391 2.49655 -3.90162 0
M  V30 338 C 37.2741 2.9933 -4.8907 0
M  V30 339 N 36.7701 3.49172 -5.98374 0
M  V30 340 N 38.5631 2.9821 -4.76474 0
M  V30 341 H 30.7141 0.144796 -2.11906 0
M  V30 342 H 32.9771 0.126863 -0.939473 0
M  V30 343 H 32.6831 1.05017 -3.35655 0
M  V30 344 H 32.5571 2.6614 -2.673 0
M  V30 345 H 34.9441 2.40077 -1.71601 0
M  V30 346 H 35.0251 0.785757 -2.43433 0
M  V30 347 H 34.6691 1.81875 -4.74219 0
M  V30 348 H 34.5991 3.43345 -3.99276 0
M  V30 349 H 37.0901 2.14383 -3.11205 0
M  V30 350 H 37.4031 3.8548 -6.69795 0
M  V30 351 H 35.7481 3.47275 -6.02018 0
M  V30 352 H 38.9391 2.58572 -3.90203 0
M  V30 353 H 39.1121 3.36613 -5.53711 0
M  V30 354 N 32.5182 1.22032 0.997298 0
M  V30 355 C 33.4282 1.00271 2.12092 0
M  V30 356 C 34.4442 -0.047621 1.73935 0
M  V30 357 O 35.6202 0.144136 2.00884 0
M  V30 358 C 32.6852 0.578449 3.4184 0
M  V30 359 C 31.7462 1.70189 3.94125 0
M  V30 360 C 30.9792 1.29778 5.17681 0
M  V30 361 O 31.2022 0.174676 5.70132 0
M  V30 362 O 30.1362 2.11261 5.63607 0
M  V30 363 H 33.9622 1.94398 2.3333 0
M  V30 364 H 31.5472 1.00587 1.10465 0
M  V30 365 H 33.4292 0.351998 4.19927 0
M  V30 366 H 32.1042 -0.334019 3.21972 0
M  V30 367 H 31.0112 1.98282 3.1723 0
M  V30 368 H 32.3442 2.59206 4.18417 0
M  V30 369 N 33.9963 -1.19345 1.0293 0
M  V30 370 C 34.9443 -2.24621 0.604001 0
M  V30 371 C 35.9383 -1.65452 -0.363587 0
M  V30 372 O 37.1443 -1.78497 -0.23212 0
M  V30 373 H 33.5193 -0.730858 0.177061 0
M  V30 374 H 35.4903 -2.5781 1.50255 0
M  V30 375 C 34.2393 -3.47688 -0.0289127 0
M  V30 376 H 33.5623 -3.93505 0.706651 0
M  V30 377 H 35.0023 -4.23011 -0.289432 0
M  V30 378 C 33.4613 -3.11817 -1.2756 0
M  V30 379 O 33.9913 -3.2451 -2.36762 0
M  V30 380 N 32.1973 -2.66246 -1.16453 0
M  V30 381 H 31.7443 -2.56118 -0.275914 0
M  V30 382 H 31.7023 -2.42617 -1.99961 0
M  V30 383 N 35.4744 -0.807222 -1.35358 0
M  V30 384 C 36.7234 -0.384376 -1.98004 0
M  V30 385 C 37.0364 1.0543 -1.64754 0
M  V30 386 O 38.2424 1.58029 -2.20769 0
M  V30 387 C 36.6984 -0.636326 -3.5423 0
M  V30 388 C 36.3064 -2.08759 -3.96388 0
M  V30 389 C 38.0504 -0.278869 -4.23583 0
M  V30 390 C 35.9574 -2.28525 -5.45463 0
M  V30 391 H 34.8874 -0.139986 -0.740891 0
M  V30 392 H 37.5384 -0.991369 -1.54415 0
M  V30 393 H 35.9204 0.0406256 -3.95979 0
M  V30 394 H 37.0944 -2.8024 -3.6579 0
M  V30 395 H 35.4094 -2.40497 -3.39926 0
M  V30 396 H 38.0064 -0.404599 -5.33167 0
M  V30 397 H 38.3494 0.775012 -4.09022 0
M  V30 398 H 38.8824 -0.909764 -3.87257 0
M  V30 399 H 35.6214 -3.32361 -5.64992 0
M  V30 400 H 35.1414 -1.61569 -5.77629 0
M  V30 401 H 36.8204 -2.10109 -6.11934 0
M  V30 402 N 36.9525 1.47285 -0.560781 0
M  V30 403 C 37.8825 2.32857 0.173105 0
M  V30 404 C 38.8635 1.44009 0.905281 0
M  V30 405 O 40.0485 1.7286 0.885046 0
M  V30 406 C 37.1785 3.25861 1.20133 0
M  V30 407 C 36.1325 4.23978 0.585388 0
M  V30 408 C 35.4585 5.06332 1.7185 0
M  V30 409 C 36.7585 5.20242 -0.463178 0
M  V30 410 H 38.4525 2.94466 -0.541307 0
M  V30 411 H 35.9985 1.41601 -0.261764 0
M  V30 412 H 37.9515 3.84569 1.72293 0
M  V30 413 H 36.6755 2.62315 1.94573 0
M  V30 414 H 35.3345 3.66501 0.085054 0
M  V30 415 H 34.9825 4.39186 2.45203 0
M  V30 416 H 34.6825 5.72762 1.31213 0
M  V30 417 H 36.2065 5.67899 2.24329 0
M  V30 418 H 37.6205 5.73293 -0.027502 0
M  V30 419 H 36.0175 5.94896 -0.788627 0
M  V30 420 H 37.0875 4.65504 -1.35773 0
M  V30 421 N 38.4306 0.297415 1.54768 0
M  V30 422 C 39.6776 -0.312913 2.00068 0
M  V30 423 C 40.0056 -1.54171 1.18582 0
M  V30 424 O 39.2606 -1.94108 0.249133 0
M  V30 425 C 39.5596 -0.717561 3.50123 0
M  V30 426 C 39.2256 0.409095 4.4904 0
M  V30 427 C 37.8876 0.718399 4.75807 0
M  V30 428 C 40.2396 1.16717 5.07963 0
M  V30 429 C 37.5676 1.78896 5.5876 0
M  V30 430 C 39.9196 2.22762 5.92081 0
M  V30 431 C 38.5836 2.54303 6.1716 0
M  V30 432 H 37.8536 -0.114503 0.7321 0
M  V30 433 H 40.5006 0.415767 1.86932 0
M  V30 434 H 38.8056 -1.52627 3.60849 0
M  V30 435 H 40.5026 -1.20091 3.82595 0
M  V30 436 H 37.0926 0.157918 4.28309 0
M  V30 437 H 41.2766 0.941466 4.87289 0
M  V30 438 H 36.5326 2.0381 5.7643 0
M  V30 439 H 40.7066 2.81962 6.36765 0
M  V30 440 H 38.3336 3.3739 6.81229 0
M  V30 441 N 39.9087 -1.5758 0.0250728 0
M  V30 442 C 41.1567 -1.91255 -0.653151 0
M  V30 443 C 41.4777 -0.901691 -1.729 0
M  V30 444 O 40.7477 0.0573785 -1.95816 0
M  V30 445 H 39.3277 -0.705942 -0.244243 0
M  V30 446 H 41.9897 -1.94767 0.0719209 0
M  V30 447 H 41.0857 -2.91752 -1.10847 0
M  V30 448 N 41.3868 0.248026 -1.55636 0
M  V30 449 C 42.3198 1.3334 -1.85191 0
M  V30 450 C 43.2978 1.46429 -0.706906 0
M  V30 451 O 44.4818 1.62662 -0.952544 0
M  V30 452 C 41.6088 2.70703 -2.03562 0
M  V30 453 C 40.6548 2.7477 -3.26196 0
M  V30 454 S 41.4878 2.31493 -4.82878 0
M  V30 455 C 42.6438 3.70783 -5.04253 0
M  V30 456 H 42.8768 1.08072 -2.76962 0
M  V30 457 H 40.4098 0.448952 -1.47729 0
M  V30 458 H 42.3678 3.49798 -2.1483 0
M  V30 459 H 41.0288 2.9321 -1.12635 0
M  V30 460 H 40.2218 3.75648 -3.36013 0
M  V30 461 H 39.8238 2.03719 -3.13647 0
M  V30 462 H 42.1158 4.6627 -4.91527 0
M  V30 463 H 43.0588 3.65901 -6.06236 0
M  V30 464 H 43.4668 3.63244 -4.32105 0
M  V30 465 N 42.8649 1.48995 0.513639 0
M  V30 466 C 44.1129 1.57531 1.26604 0
M  V30 467 C 44.4339 0.258236 1.93283 0
M  V30 468 O 43.7039 -0.721502 1.8213 0
M  V30 469 H 42.2839 0.580387 0.470276 0
M  V30 470 H 44.9459 1.85552 0.596373 0
M  V30 471 H 44.0419 2.36486 2.03669 0
M  V30 472 N 44.343 -0.763751 1.37857 0
M  V30 473 C 45.291 -1.89864 1.34367 0
M  V30 474 C 46.285 -1.67816 0.231143 0
M  V30 475 O 47.491 -1.75508 0.399617 0
M  V30 476 H 43.866 -0.624501 0.41893 0
M  V30 477 H 45.837 -1.89925 2.30155 0
M  V30 478 C 44.586 -3.27227 1.1755 0
M  V30 479 H 43.909 -3.44773 2.02414 0
M  V30 480 H 45.349 -4.06911 1.1916 0
M  V30 481 C 43.808 -3.36692 -0.118311 0
M  V30 482 O 44.338 -3.86374 -1.09902 0
M  V30 483 N 42.544 -2.90092 -0.171717 0
M  V30 484 H 42.091 -2.49853 0.627012 0
M  V30 485 H 42.049 -2.96806 -1.03699 0
M  V30 486 N 45.8211 -1.22559 -0.990812 0
M  V30 487 C 47.2321 -1.04791 -1.54518 0
M  V30 488 C 47.5831 0.387998 -1.92325 0
M  V30 489 O 46.7081 1.27328 -1.74976 0
M  V30 490 C 47.3031 -1.896 -2.80779 0
M  V30 491 C 45.8621 -1.76124 -3.32652 0
M  V30 492 C 45.0091 -1.8594 -2.05722 0
M  V30 493 H 47.9601 -1.36374 -0.811662 0
M  V30 494 H 47.9811 -1.41464 -3.53225 0
M  V30 495 H 47.4931 -2.94101 -2.53231 0
M  V30 496 H 45.5941 -0.743643 -3.65104 0
M  V30 497 H 45.7071 -2.58913 -4.03114 0
M  V30 498 H 44.0711 -1.29403 -2.19379 0
M  V30 499 H 44.8541 -2.91976 -1.80568 0
M  V30 500 N 47.2992 1.18797 -1.03562 0
M  V30 501 C 48.2292 2.24472 -0.643019 0
M  V30 502 C 49.2102 1.66433 0.351283 0
M  V30 503 O 50.3952 1.92803 0.232505 0
M  V30 504 C 47.5252 3.473 4.24935e-05 0
M  V30 505 C 46.4792 4.18055 -0.917257 0
M  V30 506 C 45.8052 5.34519 -0.138941 0
M  V30 507 C 47.1052 4.72109 -2.23407 0
M  V30 508 H 48.7992 2.57566 -1.52643 0
M  V30 509 H 46.3452 1.23806 -0.735394 0
M  V30 510 H 48.2982 4.20426 0.286383 0
M  V30 511 H 47.0222 3.13424 0.918299 0
M  V30 512 H 45.6812 3.46821 -1.1879 0
M  V30 513 H 45.3292 4.96891 0.781562 0
M  V30 514 H 45.0292 5.82794 -0.750005 0
M  V30 515 H 46.5532 6.10438 0.1405 0
M  V30 516 H 47.9672 5.36955 -2.00879 0
M  V30 517 H 46.3642 5.30897 -2.79765 0
M  V30 518 H 47.4342 3.89807 -2.88407 0
M  V30 519 N 48.7773 0.814389 1.34928 0
M  V30 520 C 49.7073 0.244827 2.32213 0
M  V30 521 C 50.6883 -0.634024 1.57842 0
M  V30 522 O 51.8733 -0.562676 1.8587 0
M  V30 523 C 49.0033 -0.601106 3.42058 0
M  V30 524 C 47.9573 0.179896 4.27622 0
M  V30 525 C 47.2833 -0.788237 5.28858 0
M  V30 526 C 48.5833 1.38329 5.03649 0
M  V30 527 H 50.2773 1.05763 2.80097 0
M  V30 528 H 47.8233 0.510029 1.34665 0
M  V30 529 H 49.7763 -1.00968 4.09125 0
M  V30 530 H 48.5003 -1.44688 2.92802 0
M  V30 531 H 47.1593 0.569739 3.62146 0
M  V30 532 H 46.8073 -1.62973 4.75866 0
M  V30 533 H 46.5073 -0.269942 5.8698 0
M  V30 534 H 48.0313 -1.19485 5.98795 0
M  V30 535 H 49.4453 1.04918 5.63618 0
M  V30 536 H 47.8423 1.83662 5.71304 0
M  V30 537 H 48.9123 2.16592 4.33839 0
M  V30 538 N 50.2554 -1.46986 0.568584 0
M  V30 539 C 51.5324 -1.95592 -0.0174074 0
M  V30 540 C 51.9124 -1.51124 -1.47393 0
M  V30 541 O 51.2604 -0.755329 -2.15655 0
M  V30 542 C 51.4704 -3.48719 0.139913 0
M  V30 543 C 52.8184 -4.246 0.000426376 0
M  V30 544 O 53.8424 -3.56135 0.0680316 0
M  V30 545 O 52.7014 -5.46302 -0.146988 0
M  V30 546 H 49.7954 -0.82498 -0.0577599 0
M  V30 547 H 52.3414 -1.57335 0.635909 0
M  V30 548 H 51.1134 -3.73927 1.15301 0
M  V30 549 H 50.7364 -3.93771 -0.550491 0
M  V30 550 N 51.7335 -0.305618 -1.54608 0
M  V30 551 C 52.9825 0.303098 -1.9941 0
M  V30 552 C 53.2955 1.54648 -1.19764 0
M  V30 553 O 54.5015 2.23007 -1.54855 0
M  V30 554 C 52.9575 0.590588 -3.55021 0
M  V30 555 C 52.5655 -0.634719 -4.43481 0
M  V30 556 C 54.3095 1.16025 -4.08336 0
M  V30 557 C 52.2165 -0.320126 -5.90533 0
M  V30 558 H 51.1465 0.117031 -0.744862 0
M  V30 559 H 53.7975 -0.415045 -1.78745 0
M  V30 560 H 52.1795 1.36845 -3.71604 0
M  V30 561 H 53.3535 -1.41079 -4.38672 0
M  V30 562 H 51.6685 -1.12333 -4.00962 0
M  V30 563 H 54.2655 1.40994 -5.15776 0
M  V30 564 H 54.6085 2.10397 -3.5922 0
M  V30 565 H 55.1415 0.443985 -3.95315 0
M  V30 566 H 51.8805 -1.23254 -6.43808 0
M  V30 567 H 51.4005 0.418579 -5.98338 0
M  V30 568 H 53.0795 0.0766241 -6.46955 0
M  V30 569 N 53.2116 1.57565 -0.0334293 0
M  V30 570 C 54.4366 1.96689 0.657895 0
M  V30 571 C 54.8616 0.910057 1.64619 0
M  V30 572 O 54.2196 -0.128598 1.80843 0
M  V30 573 C 54.2676 3.34905 1.33683 0
M  V30 574 O 53.3716 3.31574 2.45219 0
M  V30 575 H 52.7126 0.641205 0.172489 0
M  V30 576 H 55.2426 2.04372 -0.0965621 0
M  V30 577 H 55.2526 3.71234 1.69262 0
M  V30 578 H 53.9276 4.11366 0.612411 0
M  V30 579 H 52.5046 3.06968 2.11719 0
M  V30 580 N 54.6897 -0.239769 1.55765 0
M  V30 581 C 55.6527 -1.28038 1.90103 0
M  V30 582 C 56.6527 -1.40723 0.778055 0
M  V30 583 O 57.8427 -1.39301 1.04599 0
M  V30 584 C 54.9747 -2.65702 2.13577 0
M  V30 585 H 56.1677 -0.988048 2.83157 0
M  V30 586 H 53.7207 -0.479382 1.48767 0
M  V30 587 H 54.4557 -3.00063 1.23015 0
M  V30 588 H 54.2407 -2.57875 2.95369 0
M  V30 589 H 55.7307 -3.40828 2.41301 0
M  V30 590 N 56.1678 -1.49265 -0.50573 0
M  V30 591 C 57.4138 -1.58748 -1.26202 0
M  V30 592 C 57.7468 -0.271227 -1.92297 0
M  V30 593 O 57.0218 0.724831 -1.80489 0
M  V30 594 C 57.3048 -2.74332 -2.33268 0
M  V30 595 C 57.1578 -4.15737 -1.71705 0
M  V30 596 C 58.4768 -2.85576 -3.34865 0
M  V30 597 H 55.5958 -0.577826 -0.457478 0
M  V30 598 H 58.2378 -1.81532 -0.560897 0
M  V30 599 H 56.3878 -2.55036 -2.93068 0
M  V30 600 H 58.0598 -4.46537 -1.15769 0
M  V30 601 H 56.3028 -4.21605 -1.02135 0
M  V30 602 H 56.9738 -4.92477 -2.49341 0
M  V30 603 H 59.4498 -3.03127 -2.8505 0
M  V30 604 H 58.3258 -3.68135 -4.07146 0
M  V30 605 H 58.5868 -1.94732 -3.96903 0
M  V30 606 N 57.6459 0.756429 -1.3826 0
M  V30 607 C 58.8919 1.51772 -1.34511 0
M  V30 608 C 59.2249 1.94089 0.0656691 0
M  V30 609 O 58.4999 1.65221 1.02626 0
M  V30 610 C 58.7829 2.77226 -2.29821 0
M  V30 611 C 58.6359 2.41065 -3.79747 0
M  V30 612 C 59.9549 3.79236 -2.23312 0
M  V30 613 H 57.0739 0.550578 -0.489931 0
M  V30 614 H 59.7159 0.866607 -1.69086 0
M  V30 615 H 57.8659 3.32784 -2.00467 0
M  V30 616 H 59.5379 1.91303 -4.19763 0
M  V30 617 H 57.7809 1.7356 -3.97567 0
M  V30 618 H 58.4519 3.3081 -4.41892 0
M  V30 619 H 60.9279 3.3321 -2.49219 0
M  V30 620 H 59.8039 4.64714 -2.92116 0
M  V30 621 H 60.0649 4.24615 -1.23102 0
M  V30 622 N 59.124 1.23083 0.984299 0
M  V30 623 C 60.401 0.9689 1.69917 0
M  V30 624 C 60.781 -0.513604 2.04757 0
M  V30 625 O 60.129 -1.48383 1.73767 0
M  V30 626 C 60.339 1.87518 2.94343 0
M  V30 627 C 61.687 2.13636 3.6694 0
M  V30 628 O 62.711 1.85036 3.04368 0
M  V30 629 O 61.57 2.62119 4.79537 0
M  V30 630 H 58.664 0.365095 0.742048 0
M  V30 631 H 61.21 1.34107 1.03987 0
M  V30 632 H 59.982 2.87756 2.65164 0
M  V30 633 H 59.605 1.50514 3.6801 0
M  V30 634 N 60.6021 -1.18246 1.0419 0
M  V30 635 C 61.5491 -2.2192 0.634037 0
M  V30 636 C 62.5191 -1.62179 -0.358765 0
M  V30 637 O 63.7041 -1.89122 -0.252466 0
M  V30 638 C 60.8441 -3.451 0.00445535 0
M  V30 639 C 59.9571 -4.19174 1.04487 0
M  V30 640 C 59.0921 -5.29813 0.383676 0
M  V30 641 C 58.1311 -5.9566 1.4091 0
M  V30 642 N 57.2681 -6.97834 0.772784 0
M  V30 643 H 62.1081 -2.56164 1.52263 0
M  V30 644 H 59.6451 -1.25843 0.761701 0
M  V30 645 H 61.6031 -4.15485 -0.377919 0
M  V30 646 H 60.2331 -3.11472 -0.847652 0
M  V30 647 H 59.2851 -3.47604 1.54518 0
M  V30 648 H 60.5971 -4.64267 1.82368 0
M  V30 649 H 59.7511 -6.06677 -0.0528366 0
M  V30 650 H 58.4901 -4.85825 -0.427208 0
M  V30 651 H 57.4951 -5.17535 1.85574 0
M  V30 652 H 58.7201 -6.4173 2.22171 0
M  V30 653 H 56.6661 -6.55998 -0.0177708 0
M  V30 654 H 56.5831 -7.41186 1.48928 0
M  V30 655 H 57.8511 -7.78665 0.36071 0
M  V30 656 N 62.0802 -0.821533 -1.34494 0
M  V30 657 C 63.3572 -0.33159 -1.92769 0
M  V30 658 C 63.7372 1.18088 -1.74981 0
M  V30 659 O 63.0852 1.98733 -1.12772 0
M  V30 660 C 63.2952 -0.759398 -3.40638 0
M  V30 661 C 64.6432 -0.757433 -4.1779 0
M  V30 662 O 65.6672 -0.70189 -3.49216 0
M  V30 663 O 64.5262 -0.829361 -5.4017 0
M  V30 664 H 61.6202 -0.0902502 -0.822061 0
M  V30 665 H 64.1662 -0.906231 -1.43477 0
M  V30 666 H 62.9382 -1.8012 -3.47379 0
M  V30 667 H 62.5612 -0.160378 -3.97276 0
M  V30 668 N 63.5583 1.46682 -0.576371 0
M  V30 669 C 64.8053 2.02412 -0.0595339 0
M  V30 670 C 65.1333 1.44859 1.29793 0
M  V30 671 O 64.3883 0.601099 1.8624 0
M  V30 672 C 64.6873 3.57345 0.062886 0
M  V30 673 C 64.3533 4.33908 -1.22616 0
M  V30 674 C 63.0153 4.54544 -1.57933 0
M  V30 675 C 65.3673 4.77919 -2.07948 0
M  V30 676 C 62.6953 5.16444 -2.78393 0
M  V30 677 C 65.0473 5.41149 -3.27629 0
M  V30 678 C 63.7113 5.60014 -3.63236 0
M  V30 679 H 62.9813 0.74068 -0.021785 0
M  V30 680 H 65.6283 1.76128 -0.751735 0
M  V30 681 H 63.9333 3.82729 0.838178 0
M  V30 682 H 65.6303 3.98136 0.478439 0
M  V30 683 H 62.2203 4.18138 -0.941202 0
M  V30 684 H 66.4043 4.61738 -1.81967 0
M  V30 685 H 61.6603 5.29242 -3.06126 0
M  V30 686 H 65.8343 5.74211 -3.94023 0
M  V30 687 H 63.4613 6.07748 -4.56669 0
M  V30 688 N 65.0364 0.313813 1.54444 0
M  V30 689 C 65.9664 -0.549454 2.26943 0
M  V30 690 C 66.9474 -1.12741 1.27372 0
M  V30 691 O 68.1324 -1.15436 1.56167 0
M  V30 692 C 65.2624 -1.71523 3.01989 0
M  V30 693 C 64.2164 -1.26703 4.08816 0
M  V30 694 C 63.5424 -2.51898 4.71647 0
M  V30 695 C 64.8424 -0.388962 5.2085 0
M  V30 696 H 66.5364 0.0552661 2.99349 0
M  V30 697 H 64.0824 0.0280207 1.43973 0
M  V30 698 H 66.0354 -2.32535 3.51433 0
M  V30 699 H 64.7594 -2.34639 2.27183 0
M  V30 700 H 63.4184 -0.679896 3.6024 0
M  V30 701 H 63.0664 -3.13356 3.93468 0
M  V30 702 H 62.7664 -2.22605 5.43802 0
M  V30 703 H 64.2904 -3.1369 5.23861 0
M  V30 704 H 65.7044 -0.905107 5.6611 0
M  V30 705 H 64.1014 -0.18924 5.99802 0
M  V30 706 H 65.1714 0.582699 4.81386 0
M  V30 707 N 66.5145 -1.57545 0.0417849 0
M  V30 708 C 67.7915 -1.83642 -0.673433 0
M  V30 709 C 68.1715 -0.928298 -1.89594 0
M  V30 710 O 67.5195 0.0129955 -2.28496 0
M  V30 711 C 67.7295 -3.33155 -1.03964 0
M  V30 712 C 69.0775 -3.99941 -1.42592 0
M  V30 713 O 70.1015 -3.37725 -1.13226 0
M  V30 714 O 68.9605 -5.09619 -1.9736 0
M  V30 715 H 66.0545 -0.757638 -0.331533 0
M  V30 716 H 68.6005 -1.69554 0.070433 0
M  V30 717 H 67.3725 -3.9093 -0.170098 0
M  V30 718 H 66.9955 -3.52396 -1.84126 0
M  V30 719 N 67.9926 0.231505 -1.5589 0
M  V30 720 C 68.9396 1.28682 -1.91598 0
M  V30 721 C 69.9096 1.47071 -0.771974 0
M  V30 722 O 71.0946 1.60802 -1.027 0
M  V30 723 C 68.2346 2.6342 -2.22944 0
M  V30 724 C 67.3476 2.52912 -3.50228 0
M  V30 725 C 66.4826 3.80106 -3.7107 0
M  V30 726 C 65.5216 3.64279 -4.91902 0
M  V30 727 N 64.6586 4.834 -5.09184 0
M  V30 728 H 69.4986 0.975305 -2.81588 0
M  V30 729 H 67.0356 0.470299 -1.39379 0
M  V30 730 H 68.9936 3.41869 -2.39126 0
M  V30 731 H 67.6236 2.92687 -1.36139 0
M  V30 732 H 66.6756 1.6595 -3.42294 0
M  V30 733 H 67.9876 2.37133 -4.38827 0
M  V30 734 H 67.1416 4.66999 -3.87295 0
M  V30 735 H 65.8806 3.98799 -2.80733 0
M  V30 736 H 64.8856 2.7577 -4.75637 0
M  V30 737 H 66.1106 3.47067 -5.83714 0
M  V30 738 H 64.0566 5.02425 -4.21788 0
M  V30 739 H 63.9736 4.70311 -5.91898 0
M  V30 740 H 65.2416 5.71747 -5.29835 0
M  V30 741 N 69.4707 1.49531 0.497807 0
M  V30 742 C 70.7007 1.62657 1.27382 0
M  V30 743 C 71.1087 0.298488 1.86831 0
M  V30 744 O 70.4517 -0.72647 1.68725 0
M  V30 745 C 70.5137 2.6393 2.44093 0
M  V30 746 C 70.1777 4.08195 2.05489 0
M  V30 747 C 71.1747 4.949 1.59279 0
M  V30 748 C 68.8597 4.53948 2.15026 0
M  V30 749 C 70.8537 6.25397 1.23113 0
M  V30 750 C 68.5407 5.84458 1.78473 0
M  V30 751 C 69.5387 6.70006 1.32591 0
M  V30 752 O 69.2267 7.98083 0.965327 0
M  V30 753 H 68.9587 0.550429 0.392434 0
M  V30 754 H 71.5127 1.96325 0.603801 0
M  V30 755 H 69.7427 2.25449 3.14181 0
M  V30 756 H 71.4317 2.66552 3.06113 0
M  V30 757 H 72.1977 4.60779 1.51354 0
M  V30 758 H 68.0767 3.87525 2.4969 0
M  V30 759 H 71.6207 6.92125 0.872299 0
M  V30 760 H 67.5177 6.18107 1.86048 0
M  V30 761 H 68.2857 8.11122 1.09652 0
M  V30 762 N 70.9488 -0.749086 1.3866 0
M  V30 763 C 72.1738 -1.54344 1.38538 0
M  V30 764 C 72.5988 -1.88088 -0.0216655 0
M  V30 765 O 71.9568 -1.50899 -1.00494 0
M  V30 766 C 72.0048 -2.8164 2.25192 0
M  V30 767 O 71.1088 -3.7698 1.67212 0
M  V30 768 H 70.4498 -0.466654 0.472367 0
M  V30 769 H 72.9798 -0.925355 1.82478 0
M  V30 770 H 72.9898 -3.30519 2.3921 0
M  V30 771 H 71.6648 -2.56411 3.27454 0
M  V30 772 H 70.2418 -3.35699 1.6236 0
M  V30 773 N 72.4269 -1.23603 -0.977757 0
M  V30 774 C 73.3569 -1.04401 -2.0886 0
M  V30 775 C 74.3379 0.0399052 -1.70053 0
M  V30 776 O 75.5229 -0.125246 -1.93796 0
M  V30 777 C 72.6529 -0.637269 -3.41403 0
M  V30 778 C 71.6069 -1.66883 -3.94124 0
M  V30 779 C 70.9329 -1.11745 -5.22893 0
M  V30 780 C 72.2329 -3.06247 -4.23096 0
M  V30 781 H 73.9269 -1.97316 -2.25182 0
M  V30 782 H 71.4729 -0.950096 -1.08209 0
M  V30 783 H 73.4259 -0.48998 -4.18542 0
M  V30 784 H 72.1499 0.327557 -3.24953 0
M  V30 785 H 70.8089 -1.80416 -3.19133 0
M  V30 786 H 70.4569 -0.143527 -5.02795 0
M  V30 787 H 70.1569 -1.80672 -5.59134 0
M  V30 788 H 71.6809 -0.982067 -6.02651 0
M  V30 789 H 73.0949 -2.96001 -4.90975 0
M  V30 790 H 71.4919 -3.72436 -4.70544 0
M  V30 791 H 72.5619 -3.55041 -3.30263 0
M  V30 792 N 73.905 1.17692 -1.04816 0
M  V30 793 C 74.852 2.21581 -0.645797 0
M  V30 794 C 75.822 1.62367 0.350159 0
M  V30 795 O 77.007 1.89254 0.242433 0
M  V30 796 C 74.147 3.45092 -0.0227568 0
M  V30 797 C 73.26 4.18613 -1.06709 0
M  V30 798 C 72.395 5.29602 -0.411767 0
M  V30 799 C 71.434 5.94904 -1.44067 0
M  V30 800 N 70.571 6.97414 -0.809781 0
M  V30 801 H 75.411 2.55353 -1.5362 0
M  V30 802 H 72.948 1.25438 -0.768364 0
M  V30 803 H 74.906 4.15679 0.35588 0
M  V30 804 H 73.536 3.11917 0.831122 0
M  V30 805 H 72.588 3.46779 -1.5636 0
M  V30 806 H 73.9 4.63293 -1.84827 0
M  V30 807 H 73.054 6.06696 0.0206623 0
M  V30 808 H 71.793 4.86045 0.401438 0
M  V30 809 H 70.798 5.16544 -1.88316 0
M  V30 810 H 72.023 6.40542 -2.25571 0
M  V30 811 H 69.969 6.55998 -0.0170186 0
M  V30 812 H 69.886 7.40386 -1.52856 0
M  V30 813 H 71.154 7.78463 -0.401999 0
M  V30 814 N 75.3831 0.828654 1.34056 0
M  V30 815 C 76.7941 0.477534 1.8049 0
M  V30 816 C 77.1451 -1.00258 1.6865 0
M  V30 817 O 76.2701 -1.78057 1.22982 0
M  V30 818 C 76.8651 0.860018 3.27703 0
M  V30 819 C 75.4241 0.561185 3.72193 0
M  V30 820 C 74.5711 1.07385 2.55663 0
M  V30 821 H 77.5221 1.0183 1.21722 0
M  V30 822 H 77.5431 0.166038 3.80138 0
M  V30 823 H 77.0551 1.93731 3.36288 0
M  V30 824 H 75.1561 -0.506465 3.69142 0
M  V30 825 H 75.2691 1.10926 4.66082 0
M  V30 826 H 73.6331 0.495149 2.49841 0
M  V30 827 H 74.4161 2.15771 2.67016 0
M  V30 828 N 76.8612 -1.46375 0.584142 0
M  V30 829 C 77.8092 -2.32042 -0.161047 0
M  V30 830 C 78.8032 -1.44569 -0.882966 0
M  V30 831 O 80.0092 -1.61186 -0.801191 0
M  V30 832 H 76.3842 -0.748659 -0.0708033 0
M  V30 833 H 78.3552 -2.92704 0.580269 0
M  V30 834 C 77.1042 -3.27762 -1.1605 0
M  V30 835 H 76.4272 -3.95051 -0.614419 0
M  V30 836 H 77.8672 -3.90481 -1.65228 0
M  V30 837 C 76.3262 -2.53218 -2.22221 0
M  V30 838 O 76.8562 -2.29628 -3.29597 0
M  V30 839 N 75.0622 -2.13756 -1.96868 0
M  V30 840 H 74.6092 -2.33142 -1.09557 0
M  V30 841 H 74.5672 -1.642 -2.68115 0
M  V30 842 N 78.3393 -0.321999 -1.54275 0
M  V30 843 C 79.6163 0.335232 -1.92706 0
M  V30 844 C 79.9963 1.70006 -1.25145 0
M  V30 845 O 79.3443 2.25067 -0.394596 0
M  V30 846 C 79.5543 0.429008 -3.46353 0
M  V30 847 C 80.9023 0.690029 -4.18956 0
M  V30 848 O 81.9263 0.511992 -3.52501 0
M  V30 849 O 80.7853 1.03338 -5.36641 0
M  V30 850 H 77.8793 0.191143 -0.804608 0
M  V30 851 H 80.4253 -0.3716 -1.65581 0
M  V30 852 H 79.1973 -0.529611 -3.87699 0
M  V30 853 H 78.8203 1.18348 -3.79578 0
M  V30 854 N 79.8174 1.5752 -0.0501392 0
M  V30 855 C 80.7494 2.08413 0.95376 0
M  V30 856 C 81.7624 1.01175 1.27544 0
M  V30 857 O 82.9514 1.28744 1.23641 0
M  V30 858 C 80.0514 2.51138 2.27559 0
M  V30 859 C 79.2244 3.817 2.13598 0
M  V30 860 C 78.2834 4.10749 3.28895 0
M  V30 861 O 77.3094 4.80685 3.04845 0
M  V30 862 N 78.5114 3.62579 4.5334 0
M  V30 863 H 81.2764 2.95165 0.519383 0
M  V30 864 H 78.8374 1.61327 0.136127 0
M  V30 865 H 80.8294 2.67648 3.03557 0
M  V30 866 H 79.3994 1.6964 2.62567 0
M  V30 867 H 78.6194 3.74782 1.22197 0
M  V30 868 H 79.9074 4.67201 2.01496 0
M  V30 869 H 79.3054 3.06039 4.75769 0
M  V30 870 H 77.8624 3.84329 5.26436 0
M  V30 871 N 81.2955 -0.223234 1.56011 0
M  V30 872 C 82.5445 -0.945912 1.78144 0
M  V30 873 C 82.8575 -1.85567 0.618396 0
M  V30 874 O 84.0635 -2.61688 0.723318 0
M  V30 875 C 82.5195 -1.73216 3.15475 0
M  V30 876 C 82.1275 -0.868619 4.39499 0
M  V30 877 C 83.8715 -2.44615 3.46935 0
M  V30 878 C 81.7785 -1.65212 5.67855 0
M  V30 879 H 80.7085 -0.356929 0.664167 0
M  V30 880 H 83.3595 -0.199845 1.82409 0
M  V30 881 H 81.7415 -2.52107 3.05382 0
M  V30 882 H 82.9155 -0.120366 4.60643 0
M  V30 883 H 81.2305 -0.26683 4.15544 0
M  V30 884 H 83.8275 -3.03732 4.40058 0
M  V30 885 H 84.1705 -3.17417 2.69355 0
M  V30 886 H 84.7035 -1.72715 3.58349 0
M  V30 887 H 81.4425 -0.967407 6.48322 0
M  V30 888 H 80.9625 -2.37503 5.50774 0
M  V30 889 H 82.6415 -2.21322 6.07968 0
M  V30 890 N 82.7736 -1.49793 -0.48987 0
M  V30 891 C 83.7036 -1.70201 -1.59856 0
M  V30 892 C 84.6846 -0.55076 -1.60937 0
M  V30 893 O 85.8696 -0.787841 -1.77501 0
M  V30 894 C 82.9996 -1.77882 -2.98287 0
M  V30 895 C 81.9536 -2.92907 -3.12073 0
M  V30 896 C 81.2796 -2.85712 -4.51965 0
M  V30 897 C 82.5796 -4.3369 -2.91051 0
M  V30 898 H 84.2736 -2.63025 -1.43032 0
M  V30 899 H 81.8196 -1.26574 -0.686664 0
M  V30 900 H 83.7726 -1.90744 -3.75759 0
M  V30 901 H 82.4966 -0.816653 -3.16225 0
M  V30 902 H 81.1556 -2.79665 -2.37029 0
M  V30 903 H 80.8036 -1.8738 -4.66795 0
M  V30 904 H 80.5036 -3.62921 -4.62128 0
M  V30 905 H 82.0276 -3.00598 -5.31482 0
M  V30 906 H 83.4416 -4.47555 -3.58284 0
M  V30 907 H 81.8386 -5.12205 -3.12675 0
M  V30 908 H 82.9086 -4.47362 -1.87071 0
M  V30 909 N 84.2517 0.741722 -1.39055 0
M  V30 910 C 85.2147 1.83733 -1.37021 0
M  V30 911 C 86.2147 1.58542 -0.268534 0
M  V30 912 O 87.4047 1.66067 -0.526076 0
M  V30 913 C 84.5367 3.2141 -1.13617 0
M  V30 914 H 85.7297 1.86941 -2.34506 0
M  V30 915 H 83.2827 0.944676 -1.24521 0
M  V30 916 H 84.0177 3.23865 -0.167863 0
M  V30 917 H 83.8027 3.4109 -1.93391 0
M  V30 918 H 85.2927 4.01477 -1.14918 0
M  V30 919 N 85.7298 1.2412 0.971189 0
M  V30 920 C 86.6398 1.04747 2.09917 0
M  V30 921 C 87.6558 -0.0107162 1.73997 0
M  V30 922 O 88.8318 0.186714 2.00533 0
M  V30 923 C 85.8968 0.650828 3.40537 0
M  V30 924 C 84.9578 1.7851 3.90426 0
M  V30 925 C 84.1908 1.40729 5.14812 0
M  V30 926 O 84.4138 0.29557 5.69634 0
M  V30 927 O 83.3478 2.23168 5.58999 0
M  V30 928 H 87.1738 1.99304 2.29154 0
M  V30 929 H 84.7588 1.02908 1.08307 0
M  V30 930 H 86.6408 0.440992 4.19086 0
M  V30 931 H 85.3158 -0.265649 3.22608 0
M  V30 932 H 84.2228 2.04966 3.12953 0
M  V30 933 H 85.5558 2.68023 4.12825 0
M  V30 934 N 87.2079 -1.17134 1.05439 0
M  V30 935 C 88.4849 -1.83411 0.679699 0
M  V30 936 C 88.8649 -1.9368 -0.839726 0
M  V30 937 O 88.2129 -1.47325 -1.74664 0
M  V30 938 C 88.4229 -3.20918 1.37159 0
M  V30 939 C 89.7709 -3.96796 1.51123 0
M  V30 940 O 90.7949 -3.30406 1.3308 0
M  V30 941 O 89.6539 -5.15778 1.80651 0
M  V30 942 H 86.7479 -0.79154 0.239569 0
M  V30 943 H 89.2939 -1.24411 1.15413 0
M  V30 944 H 88.0659 -3.08428 2.40807 0
M  V30 945 H 87.6889 -3.87587 0.886674 0
M  V30 946 N 88.686 -0.835752 -1.33615 0
M  V30 947 C 89.633 -0.26473 -2.29277 0
M  V30 948 C 90.603 0.617712 -1.54187 0
M  V30 949 O 91.788 0.556641 -1.825 0
M  V30 950 C 88.928 0.556777 -3.40579 0
M  V30 951 C 88.041 -0.349339 -4.30585 0
M  V30 952 C 87.176 0.482969 -5.29 0
M  V30 953 C 86.215 -0.421732 -6.10645 0
M  V30 954 N 85.352 0.372262 -7.01112 0
M  V30 955 H 90.192 -1.08582 -2.77514 0
M  V30 956 H 87.729 -0.546927 -1.36554 0
M  V30 957 H 89.687 1.04852 -4.03809 0
M  V30 958 H 88.317 1.34286 -2.93542 0
M  V30 959 H 87.369 -0.959372 -3.68104 0
M  V30 960 H 88.681 -1.04445 -4.87742 0
M  V30 961 H 87.835 1.03866 -5.97743 0
M  V30 962 H 86.574 1.21153 -4.72412 0
M  V30 963 H 85.579 -0.989464 -5.40823 0
M  V30 964 H 86.804 -1.14861 -6.69316 0
M  V30 965 H 84.75 1.08426 -6.46977 0
M  V30 966 H 84.667 -0.264198 -7.55538 0
M  V30 967 H 85.935 0.910293 -7.74167 0
M  V30 968 N 90.1641 1.46063 -0.591896 0
M  V30 969 C 91.1141 2.27458 0.157172 0
M  V30 970 C 92.0981 1.3641 0.853301 0
M  V30 971 O 93.2901 1.60517 0.74588 0
M  V30 972 C 90.4191 3.22956 1.16423 0
M  V30 973 C 89.5051 4.2149 0.469742 0
M  V30 974 N 89.8961 5.03519 -0.479839 0
M  V30 975 C 88.1941 4.40161 0.719319 0
M  V30 976 C 88.8951 5.74904 -0.886591 0
M  V30 977 N 87.8711 5.43097 -0.233731 0
M  V30 978 H 91.6731 2.88272 -0.572392 0
M  V30 979 H 89.1871 1.57024 -0.414375 0
M  V30 980 H 91.1841 3.79986 1.71513 0
M  V30 981 H 89.8441 2.63701 1.89451 0
M  V30 982 H 90.8551 5.1078 -0.855823 0
M  V30 983 H 87.5321 3.92046 1.43548 0
M  V30 984 H 88.9221 6.50844 -1.66888 0
M  V30 985 N 91.6422 0.330177 1.54103 0
M  V30 986 C 92.5892 -0.532762 2.24567 0
M  V30 987 C 93.5592 -1.10635 1.23892 0
M  V30 988 O 94.7442 -1.14546 1.5259 0
M  V30 989 C 91.8842 -1.6845 3.01195 0
M  V30 990 C 90.9972 -1.13951 4.167 0
M  V30 991 C 90.1322 -2.25746 4.80845 0
M  V30 992 C 89.1712 -1.6853 5.88442 0
M  V30 993 N 88.3082 -2.74014 6.46421 0
M  V30 994 H 93.1482 0.0746905 2.97906 0
M  V30 995 H 90.6852 0.048632 1.4702 0
M  V30 996 H 92.6432 -2.36234 3.43874 0
M  V30 997 H 91.2732 -2.26314 2.30178 0
M  V30 998 H 90.3252 -0.35301 3.78758 0
M  V30 999 H 91.6372 -0.680892 4.94131 0
M  V30 1000 H 90.7912 -3.01422 5.26526 0
M  V30 1001 H 89.5302 -2.74947 4.0281 0
M  V30 1002 H 88.5352 -0.913543 5.42157 0
M  V30 1003 H 89.7602 -1.20198 6.68378 0
M  V30 1004 H 87.7062 -3.22494 5.71256 0
M  V30 1005 H 87.6232 -2.32735 7.19285 0
M  V30 1006 H 88.8912 -3.49499 6.96757 0
M  V30 1007 N 93.1203 -1.57491 0.0584922 0
M  V30 1008 C 94.0303 -2.15448 -0.928414 0
M  V30 1009 C 95.0463 -1.11416 -1.3365 0
M  V30 1010 O 96.2223 -1.4362 -1.41193 0
M  V30 1011 C 93.2873 -2.69393 -2.18239 0
M  V30 1012 C 92.3483 -3.88249 -1.83196 0
M  V30 1013 C 91.5813 -4.39613 -3.02616 0
M  V30 1014 O 91.8043 -3.90023 -4.16219 0
M  V30 1015 O 90.7383 -5.31111 -2.83204 0
M  V30 1016 H 94.5643 -3.00112 -0.465483 0
M  V30 1017 H 92.1493 -1.48499 -0.163826 0
M  V30 1018 H 94.0313 -3.04026 -2.91798 0
M  V30 1019 H 92.7063 -1.87796 -2.63656 0
M  V30 1020 H 91.6133 -3.58492 -1.06931 0
M  V30 1021 H 92.9463 -4.71098 -1.42573 0
M  V30 1022 N 94.5984 0.214957 -1.56127 0
M  V30 1023 C 95.5284 1.2695 -1.95974 0
M  V30 1024 C 96.5094 1.48539 -0.828868 0
M  V30 1025 O 97.6944 1.60611 -1.09168 0
M  V30 1026 C 94.8244 2.61794 -2.28214 0
M  V30 1027 C 93.7784 2.54851 -3.43853 0
M  V30 1028 C 93.1044 3.93785 -3.61715 0
M  V30 1029 C 94.4044 2.09065 -4.78632 0
M  V30 1030 H 96.0984 0.93846 -2.84312 0
M  V30 1031 H 93.6444 0.449996 -1.36788 0
M  V30 1032 H 95.5974 3.35731 -2.54682 0
M  V30 1033 H 94.3214 2.96599 -1.36736 0
M  V30 1034 H 92.9804 1.8337 -3.17444 0
M  V30 1035 H 92.6284 4.25908 -2.67602 0
M  V30 1036 H 92.3284 3.90019 -4.39498 0
M  V30 1037 H 93.8524 4.69374 -3.90539 0
M  V30 1038 H 95.2664 2.7275 -5.04262 0
M  V30 1039 H 93.6634 2.16346 -5.59745 0
M  V30 1040 H 94.7334 1.04315 -4.73547 0
M  V30 1041 N 96.0765 1.50051 0.48192 0
M  V30 1042 C 97.3235 1.60498 1.23477 0
M  V30 1043 C 97.6515 0.300331 1.92167 0
M  V30 1044 O 96.9065 -0.713094 1.82246 0
M  V30 1045 C 97.2055 2.72717 2.30998 0
M  V30 1046 C 96.8715 4.13572 1.79636 0
M  V30 1047 C 95.5335 4.519 1.65348 0
M  V30 1048 C 97.8855 5.01649 1.41412 0
M  V30 1049 C 95.2135 5.76057 1.11244 0
M  V30 1050 C 97.5655 6.26343 0.887538 0
M  V30 1051 C 96.2295 6.63483 0.731207 0
M  V30 1052 H 95.4995 0.587303 0.451836 0
M  V30 1053 H 98.1465 1.83948 0.532468 0
M  V30 1054 H 96.4515 2.43312 3.07094 0
M  V30 1055 H 98.1485 2.78006 2.88988 0
M  V30 1056 H 94.7385 3.83329 1.91721 0
M  V30 1057 H 98.9225 4.72679 1.51289 0
M  V30 1058 H 94.1785 6.03516 0.978686 0
M  V30 1059 H 98.3525 6.93958 0.582654 0
M  V30 1060 H 95.9795 7.59568 0.309806 0
M  V30 1061 N 97.5546 -0.734337 1.39446 0
M  V30 1062 C 98.8316 -1.48579 1.27215 0
M  V30 1063 C 99.2116 -2.1077 -0.117968 0
M  V30 1064 O 98.5596 -1.98646 -1.12924 0
M  V30 1065 C 98.7696 -2.53667 2.39696 0
M  V30 1066 C 100.118 -3.20031 2.79044 0
M  V30 1067 O 101.142 -2.6398 2.39151 0
M  V30 1068 O 100.001 -4.21455 3.47905 0
M  V30 1069 H 97.0946 -0.659816 0.49857 0
M  V30 1070 H 99.6406 -0.768106 1.51322 0
M  V30 1071 H 98.4126 -2.06096 3.32626 0
M  V30 1072 H 98.0356 -3.32994 2.17258 0
M  V30 1073 N 99.0327 -1.24633 -0.964593 0
M  V30 1074 C 99.9427 -1.05859 -2.09359 0
M  V30 1075 C 100.959 0.00148855 -1.74 0
M  V30 1076 O 102.135 -0.197346 -2.00431 0
M  V30 1077 C 99.1997 -0.668879 -3.40187 0
M  V30 1078 C 98.2607 -1.80578 -3.89474 0
M  V30 1079 C 97.4937 -1.43457 -5.14058 0
M  V30 1080 O 97.7167 -0.325775 -5.69469 0
M  V30 1081 O 96.6507 -2.2613 -5.57807 0
M  V30 1082 H 100.477 -2.00516 -2.28094 0
M  V30 1083 H 98.0617 -1.03481 -1.0776 0
M  V30 1084 H 99.9437 -0.463211 -4.18846 0
M  V30 1085 H 98.6187 0.248536 -3.22744 0
M  V30 1086 H 97.5257 -2.06623 -3.11862 0
M  V30 1087 H 98.8587 -2.70208 -4.11398 0
M  V30 1088 N 100.511 1.16574 -1.06058 0
M  V30 1089 C 101.441 2.23057 -0.690488 0
M  V30 1090 C 102.422 1.67141 0.315901 0
M  V30 1091 O 103.607 1.93253 0.191556 0
M  V30 1092 C 100.737 3.47222 -0.073625 0
M  V30 1093 C 99.6908 4.16016 -1.00573 0
M  V30 1094 C 99.0168 5.34104 -0.252289 0
M  V30 1095 C 100.317 4.67264 -2.33371 0
M  V30 1096 H 102.011 2.54271 -1.58072 0
M  V30 1097 H 99.5568 1.22218 -0.76149 0
M  V30 1098 H 101.51 4.20939 0.19714 0
M  V30 1099 H 100.234 3.15302 0.85161 0
M  V30 1100 H 98.8928 3.44223 -1.2612 0
M  V30 1101 H 98.5408 4.98437 0.675988 0
M  V30 1102 H 98.2408 5.81072 -0.873455 0
M  V30 1103 H 99.7648 6.10599 0.0109857 0
M  V30 1104 H 101.179 5.32573 -2.12223 0
M  V30 1105 H 99.5758 5.24843 -2.90963 0
M  V30 1106 H 100.646 3.83602 -2.96611 0
M  V30 1107 N 101.989 0.842826 1.3317 0
M  V30 1108 C 103.235 0.441099 1.97945 0
M  V30 1109 C 103.568 -0.998024 1.66593 0
M  V30 1110 O 102.843 -1.69839 0.947898 0
M  V30 1111 C 103.126 0.666841 3.53872 0
M  V30 1112 C 102.979 2.15352 3.94897 0
M  V30 1113 C 104.298 0.115544 4.39948 0
M  V30 1114 H 101.417 0.161739 0.719034 0
M  V30 1115 H 104.059 1.05907 1.57746 0
M  V30 1116 H 102.209 0.140828 3.88245 0
M  V30 1117 H 103.881 2.7447 3.70761 0
M  V30 1118 H 102.124 2.63653 3.44484 0
M  V30 1119 H 102.795 2.26221 5.03516 0
M  V30 1120 H 105.271 0.565213 4.12243 0
M  V30 1121 H 104.147 0.303152 5.48062 0
M  V30 1122 H 104.408 -0.980935 4.3108 0
M  V30 1123 N 103.467 -1.45747 0.599634 0
M  V30 1124 C 104.414 -2.30467 -0.123849 0
M  V30 1125 C 105.384 -1.41632 -0.86774 0
M  V30 1126 O 106.569 -1.70568 -0.855056 0
M  V30 1127 C 103.709 -3.26402 -1.12051 0
M  V30 1128 C 102.822 -4.3034 -0.37832 0
M  V30 1129 C 101.957 -5.13389 -1.364 0
M  V30 1130 C 100.996 -6.09061 -0.609171 0
M  V30 1131 N 100.133 -6.84918 -1.54374 0
M  V30 1132 H 104.973 -2.91802 0.604627 0
M  V30 1133 H 102.51 -1.43797 0.309972 0
M  V30 1134 H 104.468 -3.80482 -1.7114 0
M  V30 1135 H 103.098 -2.66839 -1.8165 0
M  V30 1136 H 102.15 -3.78984 0.327929 0
M  V30 1137 H 103.462 -4.98354 0.210997 0
M  V30 1138 H 102.616 -5.7183 -2.02719 0
M  V30 1139 H 101.355 -4.45376 -1.98725 0
M  V30 1140 H 100.36 -5.49758 0.0676979 0
M  V30 1141 H 101.585 -6.79099 0.00891991 0
M  V30 1142 H 99.531 -6.19601 -2.15478 0
M  V30 1143 H 99.448 -7.49254 -1.00766 0
M  V30 1144 H 100.716 -7.47906 -2.19676 0
M  V30 1145 N 104.945 -0.338344 -1.53925 0
M  V30 1146 C 105.892 0.520845 -2.24846 0
M  V30 1147 C 106.862 1.09976 -1.24477 0
M  V30 1148 O 108.047 1.13735 -1.53196 0
M  V30 1149 C 105.187 1.6685 -3.02084 0
M  V30 1150 C 104.3 1.11739 -4.17299 0
M  V30 1151 C 103.435 2.23193 -4.82036 0
M  V30 1152 C 102.474 1.65407 -5.89328 0
M  V30 1153 N 101.611 2.70582 -6.47866 0
M  V30 1154 H 106.451 -0.0904881 -2.97863 0
M  V30 1155 H 103.988 -0.0564282 -1.46992 0
M  V30 1156 H 105.946 2.34407 -3.45122 0
M  V30 1157 H 104.576 2.2509 -2.31375 0
M  V30 1158 H 103.628 0.332919 -3.7894 0
M  V30 1159 H 104.94 0.654677 -4.94485 0
M  V30 1160 H 104.094 2.98626 -5.28117 0
M  V30 1161 H 102.833 2.72807 -4.04262 0
M  V30 1162 H 101.838 0.884779 -5.42634 0
M  V30 1163 H 103.063 1.16652 -6.69006 0
M  V30 1164 H 101.009 3.1946 -5.72959 0
M  V30 1165 H 100.926 2.28917 -7.20509 0
M  V30 1166 H 102.194 3.45799 -6.98601 0
M  V30 1167 N 106.423 1.57458 -0.0668435 0
M  V30 1168 C 107.67 1.93301 0.603406 0
M  V30 1169 C 107.998 0.946486 1.69917 0
M  V30 1170 O 107.253 -0.0387021 1.95662 0
M  V30 1171 C 107.552 3.35784 1.22409 0
M  V30 1172 C 107.218 4.50179 0.254955 0
M  V30 1173 C 105.88 4.81199 -0.0116746 0
M  V30 1174 C 108.232 5.19598 -0.408338 0
M  V30 1175 C 105.56 5.78978 -0.94877 0
M  V30 1176 C 107.912 6.18381 -1.33372 0
M  V30 1177 C 106.576 6.47821 -1.60887 0
M  V30 1178 H 105.846 0.707338 0.220802 0
M  V30 1179 H 108.493 1.91012 -0.136665 0
M  V30 1180 H 106.798 3.34515 2.03978 0
M  V30 1181 H 108.495 3.60804 1.74989 0
M  V30 1182 H 105.085 4.25983 0.472954 0
M  V30 1183 H 109.269 4.95832 -0.215456 0
M  V30 1184 H 104.525 6.00115 -1.16925 0
M  V30 1185 H 108.699 6.71277 -1.85367 0
M  V30 1186 H 106.326 7.23399 -2.33661 0
M  V30 1187 N 107.901 -0.206675 1.56239 0
M  V30 1188 C 108.848 -1.25617 1.93621 0
M  V30 1189 C 109.818 -1.45824 0.795274 0
M  V30 1190 O 111.003 -1.59148 1.05245 0
M  V30 1191 C 108.143 -2.59839 2.27107 0
M  V30 1192 C 107.256 -2.47308 3.54207 0
M  V30 1193 C 106.391 -3.74155 3.7707 0
M  V30 1194 C 105.43 -3.56407 4.97635 0
M  V30 1195 N 104.567 -4.75238 5.1681 0
M  V30 1196 H 109.407 -0.930383 2.83104 0
M  V30 1197 H 106.944 -0.448065 1.4011 0
M  V30 1198 H 108.902 -3.38021 2.44535 0
M  V30 1199 H 107.532 -2.90485 1.40778 0
M  V30 1200 H 106.584 -1.60483 3.4489 0
M  V30 1201 H 107.896 -2.30122 4.42544 0
M  V30 1202 H 107.05 -4.60778 3.94675 0
M  V30 1203 H 105.789 -3.94282 2.87042 0
M  V30 1204 H 104.794 -2.68168 4.79964 0
M  V30 1205 H 106.019 -3.37736 5.89161 0
M  V30 1206 H 103.965 -4.95651 4.29728 0
M  V30 1207 H 103.882 -4.60835 5.99306 0
M  V30 1208 H 105.15 -5.63246 5.38864 0
M  V30 1209 N 109.379 -1.50304 -0.473955 0
M  V30 1210 C 110.625 -1.61389 -1.22806 0
M  V30 1211 C 110.958 -0.311955 -1.91678 0
M  V30 1212 O 110.233 0.686384 -1.81986 0
M  V30 1213 C 110.516 -2.79219 -2.27396 0
M  V30 1214 C 110.369 -4.19286 -1.62848 0
M  V30 1215 C 111.688 -2.92614 -3.28732 0
M  V30 1216 H 108.807 -0.587399 -0.445119 0
M  V30 1217 H 111.449 -1.82681 -0.522265 0
M  V30 1218 H 109.599 -2.61195 -2.87592 0
M  V30 1219 H 111.271 -4.48892 -1.06271 0
M  V30 1220 H 109.514 -4.23677 -0.931693 0
M  V30 1221 H 110.185 -4.97655 -2.38838 0
M  V30 1222 H 112.661 -3.09105 -2.78556 0
M  V30 1223 H 111.537 -3.76688 -3.99246 0
M  V30 1224 H 111.798 -2.03107 -3.92683 0
M  V30 1225 N 110.857 0.726932 -1.39834 0
M  V30 1226 C 111.767 1.87131 -1.41489 0
M  V30 1227 C 112.783 1.71239 -0.308757 0
M  V30 1228 O 113.959 1.93701 -0.551529 0
M  V30 1229 C 111.024 3.22811 -1.26468 0
M  V30 1230 C 110.085 3.51039 -2.47124 0
M  V30 1231 C 109.318 4.80245 -2.3281 0
M  V30 1232 O 109.541 5.54537 -1.33585 0
M  V30 1233 O 108.475 5.08554 -3.21957 0
M  V30 1234 H 112.301 1.8869 -2.3797 0
M  V30 1235 H 109.886 0.875837 -1.21035 0
M  V30 1236 H 111.768 4.03877 -1.20255 0
M  V30 1237 H 110.443 3.22005 -0.330862 0
M  V30 1238 H 109.35 2.70027 -2.58914 0
M  V30 1239 H 110.683 3.56632 -3.39227 0
M  V30 1240 N 112.336 1.25143 0.95797 0
M  V30 1241 C 113.566 1.12261 1.73439 0
M  V30 1242 C 113.974 -0.326715 1.86358 0
M  V30 1243 O 113.317 -1.2367 1.35836 0
M  V30 1244 C 113.379 1.69966 3.16784 0
M  V30 1245 C 113.043 3.18936 3.27305 0
M  V30 1246 C 114.04 4.15968 3.11877 0
M  V30 1247 C 111.725 3.59083 3.51234 0
M  V30 1248 C 113.719 5.51126 3.20217 0
M  V30 1249 C 111.406 4.9438 3.5921 0
M  V30 1250 C 112.404 5.90211 3.43716 0
M  V30 1251 O 112.092 7.23046 3.51368 0
M  V30 1252 H 111.824 0.392476 0.550399 0
M  V30 1253 H 114.378 1.65927 1.21068 0
M  V30 1254 H 112.608 1.10744 3.70503 0
M  V30 1255 H 114.297 1.52232 3.76272 0
M  V30 1256 H 115.063 3.86292 2.93264 0
M  V30 1257 H 110.942 2.84989 3.62356 0
M  V30 1258 H 114.486 6.25905 3.0804 0
M  V30 1259 H 110.383 5.23723 3.77339 0
M  V30 1260 H 111.151 7.31097 3.6802 0
M  V30 1261 N 113.814 -1.1601 1.06675 0
M  V30 1262 C 114.764 -2.18512 0.650888 0
M  V30 1263 C 115.748 -1.57677 -0.320441 0
M  V30 1264 O 116.94 -1.76482 -0.135266 0
M  V30 1265 C 114.069 -3.43273 0.0429255 0
M  V30 1266 C 113.155 -4.11176 1.03898 0
M  V30 1267 N 113.546 -4.54672 2.216 0
M  V30 1268 C 111.844 -4.37417 0.870779 0
M  V30 1269 C 112.545 -5.07248 2.84736 0
M  V30 1270 N 111.521 -5.0037 2.12441 0
M  V30 1271 H 115.323 -2.49863 1.54745 0
M  V30 1272 H 112.837 -1.32503 0.938975 0
M  V30 1273 H 114.834 -4.16006 -0.272857 0
M  V30 1274 H 113.494 -3.13408 -0.84884 0
M  V30 1275 H 114.505 -4.4828 2.59356 0
M  V30 1276 H 111.182 -4.17488 0.0313293 0
M  V30 1277 H 112.572 -5.50912 3.84636 0
M  V30 1278 N 115.292 -0.849877 -1.32721 0
M  V30 1279 C 116.255 -0.296122 -2.27279 0
M  V30 1280 C 117.255 0.541458 -1.5141 0
M  V30 1281 O 118.445 0.353658 -1.70572 0
M  V30 1282 C 115.577 0.581579 -3.35902 0
M  V30 1283 H 116.77 -1.13064 -2.77771 0
M  V30 1284 H 114.323 -0.62383 -1.43311 0
M  V30 1285 H 115.058 1.43809 -2.9067 0
M  V30 1286 H 114.843 -0.0178814 -3.92096 0
M  V30 1287 H 116.333 0.961951 -4.0637 0
M  V30 1288 N 116.77 1.45427 -0.607355 0
M  V30 1289 C 118.018 2.01841 -0.102253 0
M  V30 1290 C 118.339 1.47832 1.27164 0
M  V30 1291 O 117.609 0.672497 1.83995 0
M  V30 1292 H 116.189 0.746188 -0.0348101 0
M  V30 1293 H 118.851 1.78229 -0.7887 0
M  V30 1294 H 117.947 3.12057 -0.0518585 0
M  V30 1295 N 118.248 0.346503 1.53744 0
M  V30 1296 C 119.496 -0.248612 2.00565 0
M  V30 1297 C 119.817 -1.5083 1.23593 0
M  V30 1298 O 119.087 -1.92858 0.343912 0
M  V30 1299 H 117.667 -0.0948564 0.740953 0
M  V30 1300 H 120.329 0.468341 1.89189 0
M  V30 1301 H 119.425 -0.488994 3.08245 0
M  V30 1302 N 119.726 -1.57421 0.075193 0
M  V30 1303 C 120.951 -1.98364 -0.605515 0
M  V30 1304 C 121.376 -0.953383 -1.62149 0
M  V30 1305 O 120.734 0.0806053 -1.81121 0
M  V30 1306 C 120.782 -3.38332 -1.24756 0
M  V30 1307 O 119.886 -3.37959 -2.36342 0
M  V30 1308 H 119.227 -0.645553 -0.155428 0
M  V30 1309 H 121.757 -2.04044 0.150714 0
M  V30 1310 H 121.767 -3.75591 -1.5936 0
M  V30 1311 H 120.442 -4.12846 -0.503129 0
M  V30 1312 H 119.019 -3.12474 -2.03506 0
M  V30 1313 N 121.204 0.198386 -1.56346 0
M  V30 1314 C 122.432 0.935572 -1.84539 0
M  V30 1315 C 122.847 1.76989 -0.657281 0
M  V30 1316 O 122.204 1.78626 0.374043 0
M  V30 1317 C 122.255 1.8344 -3.11499 0
M  V30 1318 O 121.976 1.03377 -4.25728 0
M  V30 1319 C 123.477 2.68355 -3.52846 0
M  V30 1320 H 120.697 0.273126 -0.612897 0
M  V30 1321 H 123.241 0.20663 -2.03453 0
M  V30 1322 H 121.396 2.51701 -2.94492 0
M  V30 1323 H 121.81 1.64599 -4.98003 0
M  V30 1324 H 123.284 3.27085 -4.44657 0
M  V30 1325 H 123.761 3.41901 -2.75681 0
M  V30 1326 H 124.367 2.05471 -3.72373 0
M  V30 1327 N 122.682 1.50554 0.465978 0
M  V30 1328 C 123.614 1.65949 1.58093 0
M  V30 1329 C 124.627 0.540827 1.53554 0
M  V30 1330 O 125.816 0.814187 1.5885 0
M  V30 1331 C 122.916 1.63261 2.96983 0
M  V30 1332 C 122.089 2.91245 3.26336 0
M  V30 1333 C 121.148 2.8113 4.44806 0
M  V30 1334 O 120.174 3.55086 4.44862 0
M  V30 1335 N 121.376 1.95032 5.46756 0
M  V30 1336 H 124.141 2.62122 1.45301 0
M  V30 1337 H 121.702 1.48082 0.65448 0
M  V30 1338 H 123.694 1.54101 3.74212 0
M  V30 1339 H 122.264 0.748032 3.03518 0
M  V30 1340 H 121.484 3.14493 2.37672 0
M  V30 1341 H 122.772 3.76022 3.42761 0
M  V30 1342 H 122.17 1.3427 5.49534 0
M  V30 1343 H 120.727 1.91772 6.2295 0
M  V30 1344 N 124.16 -0.719506 1.40217 0
M  V30 1345 C 125.108 -1.85493 1.40339 0
M  V30 1346 C 126.102 -1.66995 0.284415 0
M  V30 1347 O 127.308 -1.74148 0.455252 0
M  V30 1348 H 123.683 -0.610857 0.438586 0
M  V30 1349 H 125.654 -1.82506 2.36081 0
M  V30 1350 C 124.403 -3.23321 1.27901 0
M  V30 1351 H 123.726 -3.38159 2.1328 0
M  V30 1352 H 125.166 -4.02914 1.32045 0
M  V30 1353 C 123.625 -3.36898 -0.0111355 0
M  V30 1354 O 124.155 -3.89674 -0.975538 0
M  V30 1355 N 122.361 -2.90492 -0.0793393 0
M  V30 1356 H 121.908 -2.47731 0.706183 0
M  V30 1357 H 121.866 -2.99955 -0.942038 0
M  V30 1358 N 125.638 -1.25649 -0.95132 0
M  V30 1359 C 126.863 -1.13443 -1.73624 0
M  V30 1360 C 127.288 0.307565 -1.85568 0
M  V30 1361 O 126.646 1.22282 -1.33854 0
M  V30 1362 C 126.694 -1.79723 -3.12621 0
M  V30 1363 O 125.798 -1.07912 -3.98031 0
M  V30 1364 H 125.139 -0.395872 -0.533086 0
M  V30 1365 H 127.669 -1.66276 -1.1922 0
M  V30 1366 H 127.679 -1.86141 -3.63064 0
M  V30 1367 H 126.354 -2.84633 -3.03244 0
M  V30 1368 H 124.931 -1.09398 -3.56492 0
M  V30 1369 N 127.117 1.15442 -1.07289 0
M  V30 1370 C 128.366 1.85557 -0.790669 0
M  V30 1371 C 128.679 1.83186 0.685739 0
M  V30 1372 O 129.885 2.48977 1.0827 0
M  V30 1373 C 128.341 3.33038 -1.36433 0
M  V30 1374 C 127.949 3.43856 -2.8717 0
M  V30 1375 C 129.693 4.0834 -1.1601 0
M  V30 1376 C 127.6 4.85482 -3.3773 0
M  V30 1377 H 126.53 0.695122 -0.292098 0
M  V30 1378 H 129.181 1.30219 -1.29287 0
M  V30 1379 H 127.563 3.88043 -0.789864 0
M  V30 1380 H 128.737 2.98961 -3.50655 0
M  V30 1381 H 127.052 2.81998 -3.06376 0
M  V30 1382 H 129.649 5.12859 -1.51262 0
M  V30 1383 H 129.992 4.16182 -0.0991007 0
M  V30 1384 H 130.525 3.59603 -1.70089 0
M  V30 1385 H 127.264 4.82823 -4.43353 0
M  V30 1386 H 126.784 5.30961 -2.78999 0
M  V30 1387 H 128.463 5.54335 -3.33648 0
M  V30 1388 N 128.595 0.856903 1.32268 0
M  V30 1389 C 129.542 0.301172 2.28827 0
M  V30 1390 C 130.512 -0.593104 1.5515 0
M  V30 1391 O 131.697 -0.527537 1.83362 0
M  V30 1392 C 128.837 -0.502523 3.41422 0
M  V30 1393 C 127.95 0.417797 4.29975 0
M  V30 1394 C 127.085 -0.398749 5.29701 0
M  V30 1395 C 126.124 0.518827 6.09897 0
M  V30 1396 N 125.261 -0.260674 7.01616 0
M  V30 1397 H 130.101 1.12983 2.75751 0
M  V30 1398 H 127.638 0.568582 1.35667 0
M  V30 1399 H 129.596 -0.984141 4.05426 0
M  V30 1400 H 128.226 -1.29599 2.95642 0
M  V30 1401 H 127.278 1.01781 3.66531 0
M  V30 1402 H 128.59 1.12191 4.86019 0
M  V30 1403 H 127.744 -0.943435 5.9932 0
M  V30 1404 H 126.483 -1.13622 4.7428 0
M  V30 1405 H 125.488 1.07538 5.39181 0
M  V30 1406 H 126.713 1.25495 6.67404 0
M  V30 1407 H 124.659 -0.981198 6.4862 0
M  V30 1408 H 124.576 0.384364 7.55022 0
M  V30 1409 H 125.844 -0.787014 7.75517 0
M  V30 1410 N 130.073 -1.45103 0.615059 0
M  V30 1411 C 131.319 -2.02483 0.113347 0
M  V30 1412 C 131.652 -1.48146 -1.25564 0
M  V30 1413 O 130.927 -0.659104 -1.82992 0
M  V30 1414 C 131.21 -3.60005 0.0825278 0
M  V30 1415 C 131.063 -4.2466 1.48271 0
M  V30 1416 C 132.382 -4.35972 -0.601401 0
M  V30 1417 H 129.501 -0.735764 0.0426632 0
M  V30 1418 H 132.143 -1.72868 0.788461 0
M  V30 1419 H 130.293 -3.85367 -0.492378 0
M  V30 1420 H 131.965 -4.10458 2.10527 0
M  V30 1421 H 130.208 -3.82772 2.04127 0
M  V30 1422 H 130.879 -5.336 1.41332 0
M  V30 1423 H 133.355 -4.15947 -0.112666 0
M  V30 1424 H 132.231 -5.45697 -0.592097 0
M  V30 1425 H 132.492 -4.09391 -1.66887 0
M  V30 1426 N 131.551 -0.354651 -1.53558 0
M  V30 1427 C 132.514 0.484566 -2.24019 0
M  V30 1428 C 133.514 1.01861 -1.24422 0
M  V30 1429 O 134.704 0.906097 -1.4878 0
M  V30 1430 C 131.836 1.67615 -2.96847 0
M  V30 1431 H 133.029 -0.131843 -2.9961 0
M  V30 1432 H 130.582 -0.106165 -1.55939 0
M  V30 1433 H 131.317 2.33095 -2.25471 0
M  V30 1434 H 131.102 1.30029 -3.69912 0
M  V30 1435 H 132.592 2.27114 -3.50441 0
M  V30 1436 N 133.029 1.57378 -0.0835403 0
M  V30 1437 C 133.961 2.10389 0.909338 0
M  V30 1438 C 134.974 1.03858 1.25369 0
M  V30 1439 O 136.163 1.31338 1.20882 0
M  V30 1440 C 133.263 2.55908 2.2218 0
M  V30 1441 C 132.436 3.86145 2.05453 0
M  V30 1442 C 131.495 4.17633 3.20108 0
M  V30 1443 O 130.521 4.87043 2.94581 0
M  V30 1444 N 131.723 3.72113 4.45547 0
M  V30 1445 H 134.488 2.962 0.456657 0
M  V30 1446 H 132.049 1.61579 0.101877 0
M  V30 1447 H 134.041 2.74027 2.97811 0
M  V30 1448 H 132.611 1.75171 2.58909 0
M  V30 1449 H 131.831 3.7729 1.1422 0
M  V30 1450 H 133.119 4.7137 1.91541 0
M  V30 1451 H 132.517 3.16062 4.69171 0
M  V30 1452 H 131.074 3.95409 5.18165 0
M  V30 1453 N 134.507 -0.190092 1.56449 0
M  V30 1454 C 135.753 -0.906472 1.82084 0
M  V30 1455 C 136.108 -1.80677 0.661335 0
M  V30 1456 O 135.401 -1.88501 -0.343237 0
M  V30 1457 C 135.595 -1.75382 3.1141 0
M  V30 1458 C 135.424 -0.937053 4.39829 0
M  V30 1459 C 134.194 -0.619507 5.01488 0
M  V30 1460 C 136.392 -0.2874 5.13496 0
M  V30 1461 N 134.374 0.215367 6.13522 0
M  V30 1462 C 135.745 0.409454 6.18646 0
M  V30 1463 C 137.8 -0.203639 4.97483 0
M  V30 1464 C 136.503 1.1821 7.0952 0
M  V30 1465 C 138.529 0.555622 5.88784 0
M  V30 1466 C 137.891 1.24091 6.93384 0
M  V30 1467 H 133.99 -0.310931 0.717528 0
M  V30 1468 H 136.574 -0.174821 1.93914 0
M  V30 1469 H 134.745 -2.45703 3.00806 0
M  V30 1470 H 136.477 -2.41006 3.25112 0
M  V30 1471 H 133.232 -0.945126 4.64074 0
M  V30 1472 H 133.656 0.622562 6.74131 0
M  V30 1473 H 138.298 -0.719099 4.1664 0
M  V30 1474 H 136.016 1.70897 7.89823 0
M  V30 1475 H 139.602 0.621854 5.78467 0
M  V30 1476 H 138.482 1.81901 7.62812 0
M  V30 1477 N 135.985 -1.50799 -0.457987 0
M  V30 1478 C 136.918 -1.65273 -1.57353 0
M  V30 1479 C 137.896 -0.500578 -1.54703 0
M  V30 1480 O 139.08 -0.721781 -1.74134 0
M  V30 1481 C 136.207 -1.64737 -2.95938 0
M  V30 1482 C 135.253 -2.8567 -3.16693 0
M  V30 1483 S 136.086 -4.46791 -2.95191 0
M  V30 1484 C 137.242 -4.48968 -4.36095 0
M  V30 1485 H 137.475 -2.59633 -1.44838 0
M  V30 1486 H 135.008 -1.40225 -0.64625 0
M  V30 1487 H 136.966 -1.65112 -3.7583 0
M  V30 1488 H 135.627 -0.715899 -3.05833 0
M  V30 1489 H 134.82 -2.81637 -4.17967 0
M  V30 1490 H 134.422 -2.8293 -2.44594 0
M  V30 1491 H 136.714 -4.23337 -5.28954 0
M  V30 1492 H 137.657 -5.50664 -4.45168 0
M  V30 1493 H 138.065 -3.78522 -4.18786 0
M  V30 1494 N 137.463 0.71206 -1.40597 0
M  V30 1495 C 138.712 1.46754 -1.38369 0
M  V30 1496 C 139.025 1.95598 0.0097839 0
M  V30 1497 O 140.231 2.71059 0.154677 0
M  V30 1498 C 138.687 2.65289 -2.43207 0
M  V30 1499 C 138.295 2.23301 -3.88382 0
M  V30 1500 C 140.039 3.43008 -2.50091 0
M  V30 1501 C 137.946 3.38696 -4.84808 0
M  V30 1502 H 136.876 0.55118 -0.514506 0
M  V30 1503 H 139.527 0.774616 -1.66349 0
M  V30 1504 H 137.909 3.36769 -2.08332 0
M  V30 1505 H 139.083 1.59218 -4.32419 0
M  V30 1506 H 137.398 1.58618 -3.85006 0
M  V30 1507 H 139.995 4.28881 -3.1932 0
M  V30 1508 H 140.338 3.87065 -1.53253 0
M  V30 1509 H 140.871 2.78574 -2.83974 0
M  V30 1510 H 137.61 2.99668 -5.82992 0
M  V30 1511 H 137.13 4.01683 -4.45433 0
M  V30 1512 H 138.809 4.04712 -5.04794 0
M  V30 1513 N 138.941 1.26152 0.944643 0
M  V30 1514 C 139.873 1.03199 2.04652 0
M  V30 1515 C 140.886 -0.00642356 1.62799 0
M  V30 1516 O 142.075 0.233263 1.76969 0
M  V30 1517 C 139.175 0.540111 3.34568 0
M  V30 1518 C 138.348 1.64697 4.05208 0
M  V30 1519 C 137.407 1.15374 5.13396 0
M  V30 1520 O 136.433 1.85013 5.38293 0
M  V30 1521 N 137.635 0.00031529 5.805 0
M  V30 1522 H 140.4 1.9808 2.2491 0
M  V30 1523 H 137.961 1.17491 1.11389 0
M  V30 1524 H 139.953 0.194401 4.04233 0
M  V30 1525 H 138.523 -0.315021 3.11009 0
M  V30 1526 H 137.743 2.16379 3.29506 0
M  V30 1527 H 139.031 2.3903 4.49157 0
M  V30 1528 H 138.429 -0.581336 5.62705 0
M  V30 1529 H 136.986 -0.286346 6.51171 0
M  V30 1530 N 140.419 -1.14872 1.07899 0
M  V30 1531 C 141.351 -2.19425 0.662231 0
M  V30 1532 C 142.364 -1.60231 -0.288079 0
M  V30 1533 O 143.553 -1.78336 -0.076534 0
M  V30 1534 C 140.653 -3.38867 -0.0470695 0
M  V30 1535 C 139.826 -4.27597 0.920831 0
M  V30 1536 C 138.885 -5.25616 0.247805 0
M  V30 1537 O 137.911 -5.62189 0.890599 0
M  V30 1538 N 139.113 -5.71746 -1.00435 0
M  V30 1539 H 141.878 -2.55797 1.56166 0
M  V30 1540 H 139.439 -1.30042 0.964404 0
M  V30 1541 H 141.431 -4.01497 -0.50813 0
M  V30 1542 H 140.001 -3.00864 -0.848523 0
M  V30 1543 H 139.221 -3.61982 1.56087 0
M  V30 1544 H 140.509 -4.83748 1.57688 0
M  V30 1545 H 139.907 -5.44153 -1.54642 0
M  V30 1546 H 138.464 -6.36389 -1.40899 0
M  V30 1547 N 141.898 -0.863906 -1.31812 0
M  V30 1548 C 143.309 -0.52522 -1.7916 0
M  V30 1549 C 143.66 0.957518 -1.71248 0
M  V30 1550 O 142.785 1.74734 -1.27659 0
M  V30 1551 C 143.38 -0.9466 -3.25307 0
M  V30 1552 C 141.939 -0.659668 -3.70574 0
M  V30 1553 C 141.086 -1.14126 -2.52726 0
M  V30 1554 H 144.037 -1.05022 -1.1898 0
M  V30 1555 H 144.058 -0.266766 -3.79564 0
M  V30 1556 H 143.57 -2.02579 -3.31034 0
M  V30 1557 H 141.671 0.408416 -3.70355 0
M  V30 1558 H 141.784 -1.23245 -4.62977 0
M  V30 1559 H 140.148 -0.561216 -2.4844 0
M  V30 1560 H 140.931 -2.22775 -2.61201 0
M  V30 1561 N 143.376 1.44774 -0.622745 0
M  V30 1562 C 144.326 2.2774 0.108889 0
M  V30 1563 C 145.31 1.38189 0.824175 0
M  V30 1564 O 146.502 1.62063 0.711664 0
M  V30 1565 C 143.631 3.25353 1.09546 0
M  V30 1566 C 142.717 4.22392 0.380232 0
M  V30 1567 N 143.108 5.02388 -0.586535 0
M  V30 1568 C 141.406 4.41588 0.625792 0
M  V30 1569 C 142.107 5.72894 -1.00834 0
M  V30 1570 N 141.083 5.42479 -0.348878 0
M  V30 1571 H 144.885 2.86993 -0.63341 0
M  V30 1572 H 142.399 1.5611 -0.447589 0
M  V30 1573 H 144.396 3.83538 1.63414 0
M  V30 1574 H 143.056 2.6766 1.83815 0
M  V30 1575 H 144.067 5.0885 -0.963975 0
M  V30 1576 H 140.744 3.95003 1.352 0
M  V30 1577 H 142.134 6.47158 -1.80656 0
M  V30 1578 N 144.854 0.36279 1.53368 0
M  V30 1579 C 145.801 -0.485008 2.25646 0
M  V30 1580 C 146.771 -1.07982 1.2621 0
M  V30 1581 O 147.956 -1.11284 1.54986 0
M  V30 1582 C 145.096 -1.62023 3.04701 0
M  V30 1583 C 144.209 -1.05086 4.19024 0
M  V30 1584 C 143.344 -2.15496 4.85525 0
M  V30 1585 C 142.383 -1.5601 5.91884 0
M  V30 1586 N 141.52 -2.60241 6.52088 0
M  V30 1587 H 146.36 0.137864 2.97681 0
M  V30 1588 H 143.897 0.0798061 1.46883 0
M  V30 1589 H 145.855 -2.28887 3.48807 0
M  V30 1590 H 144.485 -2.2138 2.34927 0
M  V30 1591 H 143.537 -0.27259 3.79422 0
M  V30 1592 H 144.849 -0.575926 4.95464 0
M  V30 1593 H 144.003 -2.90186 5.32801 0
M  V30 1594 H 142.742 -2.66341 4.08551 0
M  V30 1595 H 141.747 -0.798338 5.43973 0
M  V30 1596 H 142.972 -1.05994 6.70777 0
M  V30 1597 H 140.918 -3.10304 5.77968 0
M  V30 1598 H 140.835 -2.17426 7.24059 0
M  V30 1599 H 142.103 -3.34641 7.04014 0
M  V30 1600 N 146.332 -1.57332 0.0918853 0
M  V30 1601 C 147.295 -2.12708 -0.85369 0
M  V30 1602 C 148.295 -1.05561 -1.213 0
M  V30 1603 O 149.485 -1.31461 -1.14296 0
M  V30 1604 C 146.617 -2.64503 -2.15061 0
M  V30 1605 H 147.81 -2.97573 -0.3729 0
M  V30 1606 H 145.363 -1.55509 -0.157072 0
M  V30 1607 H 146.098 -1.83149 -2.67632 0
M  V30 1608 H 145.883 -3.4284 -1.90272 0
M  V30 1609 H 147.373 -3.07351 -2.82711 0
M  V30 1610 N 147.81 0.181792 -1.56548 0
M  V30 1611 C 148.773 1.20894 -1.94724 0
M  V30 1612 C 149.773 1.37738 -0.829747 0
M  V30 1613 O 150.963 1.35323 -1.09697 0
M  V30 1614 C 148.095 2.57593 -2.23291 0
M  V30 1615 H 149.288 0.882275 -2.86629 0
M  V30 1616 H 146.841 0.423838 -1.50444 0
M  V30 1617 H 147.576 2.95291 -1.34067 0
M  V30 1618 H 147.361 2.46735 -3.04736 0
M  V30 1619 H 148.851 3.31637 -2.53785 0
M  V30 1620 N 149.288 1.51039 0.449983 0
M  V30 1621 C 150.516 1.66869 1.2232 0
M  V30 1622 C 150.931 0.360727 1.85322 0
M  V30 1623 O 150.288 -0.659531 1.70166 0
M  V30 1624 C 150.339 2.77524 2.31652 0
M  V30 1625 O 150.06 4.03252 1.7123 0
M  V30 1626 C 151.561 3.04512 3.2216 0
M  V30 1627 H 148.781 0.560326 0.369155 0
M  V30 1628 H 151.325 1.97385 0.534719 0
M  V30 1629 H 149.48 2.49642 2.96239 0
M  V30 1630 H 149.894 4.64609 2.43389 0
M  V30 1631 H 151.368 3.85551 3.95038 0
M  V30 1632 H 151.845 2.16415 3.8218 0
M  V30 1633 H 152.451 3.34005 2.63288 0
M  V30 1634 N 150.766 -0.704594 1.40972 0
M  V30 1635 C 152.013 -1.46458 1.39844 0
M  V30 1636 C 152.341 -1.94499 0.00447594 0
M  V30 1637 O 151.596 -1.69275 -0.982057 0
M  V30 1638 C 151.895 -2.698 2.34399 0
M  V30 1639 C 151.561 -2.40464 3.81429 0
M  V30 1640 C 150.223 -2.32174 4.21484 0
M  V30 1641 C 152.575 -2.16086 4.74296 0
M  V30 1642 C 149.903 -1.97589 5.52427 0
M  V30 1643 C 152.255 -1.83011 6.05549 0
M  V30 1644 C 150.919 -1.7321 6.44635 0
M  V30 1645 H 150.189 -0.535927 0.511725 0
M  V30 1646 H 152.836 -0.806124 1.73706 0
M  V30 1647 H 151.141 -3.40536 1.93759 0
M  V30 1648 H 152.838 -3.27919 2.30804 0
M  V30 1649 H 149.428 -2.47808 3.49699 0
M  V30 1650 H 153.612 -2.2144 4.4416 0
M  V30 1651 H 148.868 -1.88547 5.81601 0
M  V30 1652 H 153.042 -1.63164 6.77016 0
M  V30 1653 H 150.669 -1.46179 7.46013 0
M  V30 1654 N 152.244 -1.26651 -0.937939 0
M  V30 1655 C 153.491 -1.12387 -1.6845 0
M  V30 1656 C 153.819 0.332208 -1.91642 0
M  V30 1657 O 153.074 1.2602 -1.49725 0
M  V30 1658 C 153.373 -1.84168 -3.06295 0
M  V30 1659 C 153.039 -3.34056 -3.02849 0
M  V30 1660 C 151.701 -3.74942 -3.01616 0
M  V30 1661 C 154.053 -4.29741 -2.9491 0
M  V30 1662 C 151.381 -5.09894 -2.90215 0
M  V30 1663 C 153.733 -5.64738 -2.8505 0
M  V30 1664 C 152.397 -6.0493 -2.82162 0
M  V30 1665 H 151.667 -0.411252 -0.616403 0
M  V30 1666 H 154.314 -1.57134 -1.09459 0
M  V30 1667 H 152.619 -1.319 -3.6893 0
M  V30 1668 H 154.316 -1.70569 -3.62915 0
M  V30 1669 H 150.906 -3.01534 -3.0459 0
M  V30 1670 H 155.09 -3.99133 -2.94969 0
M  V30 1671 H 150.346 -5.40194 -2.86358 0
M  V30 1672 H 154.52 -6.38561 -2.77872 0
M  V30 1673 H 152.147 -7.09457 -2.73084 0
M  V30 1674 N 153.722 1.14298 -1.08507 0
M  V30 1675 C 154.97 1.84993 -0.813763 0
M  V30 1676 C 155.291 1.83405 0.662393 0
M  V30 1677 O 154.561 1.28319 1.48024 0
M  V30 1678 H 153.141 0.684966 -0.298045 0
M  V30 1679 H 155.803 1.385 -1.37126 0
M  V30 1680 H 154.899 2.89788 -1.15884 0
M  V30 1681 N 155.201 0.870884 1.31352 0
M  V30 1682 C 156.441 0.488783 1.9847 0
M  V30 1683 C 156.805 -0.941536 1.67329 0
M  V30 1684 O 158.006 -1.42903 2.27667 0
M  V30 1685 C 156.277 0.739688 3.49662 0
M  V30 1686 S 157.836 0.457582 4.36408 0
M  V30 1687 H 154.654 0.18242 0.6872 0
M  V30 1688 H 157.256 1.12711 1.59739 0
M  V30 1689 H 155.96 1.77944 3.69816 0
M  V30 1690 H 155.491 0.0883905 3.93301 0
M  V30 1691 H 157.506 -0.709752 4.91098 0
M  V30 1692 N 156.679 -1.44442 0.630414 0
M  V30 1693 C 157.928 -2.01267 0.132073 0
M  V30 1694 C 158.241 -1.50172 -1.25331 0
M  V30 1695 O 159.447 -1.9912 -1.84562 0
M  V30 1696 C 157.903 -3.59422 0.185362 0
M  V30 1697 C 157.511 -4.19514 1.57201 0
M  V30 1698 C 159.255 -4.23724 -0.256553 0
M  V30 1699 C 157.162 -5.69891 1.58045 0
M  V30 1700 H 156.092 -0.752619 0.0456092 0
M  V30 1701 H 158.743 -1.65666 0.789106 0
M  V30 1702 H 157.125 -3.92318 -0.538759 0
M  V30 1703 H 158.299 -3.98156 2.31966 0
M  V30 1704 H 156.614 -3.67496 1.95795 0
M  V30 1705 H 159.211 -5.34019 -0.269767 0
M  V30 1706 H 159.554 -3.96013 -1.28372 0
M  V30 1707 H 160.087 -3.95629 0.41505 0
M  V30 1708 H 156.826 -6.02336 2.58597 0
M  V30 1709 H 156.346 -5.93373 0.875725 0
M  V30 1710 H 158.025 -6.33515 1.31408 0
M  V30 1711 N 158.157 -0.370918 -1.53173 0
M  V30 1712 C 159.405 0.216673 -2.00935 0
M  V30 1713 C 159.726 1.48845 -1.25977 0
M  V30 1714 O 158.996 1.92286 -0.374551 0
M  V30 1715 H 157.576 0.0830565 -0.742368 0
M  V30 1716 H 160.238 -0.49838 -1.8842 0
M  V30 1717 H 159.334 0.439893 -3.08984 0
M  V30 1718 N 159.635 1.57281 -0.100228 0
M  V30 1719 C 160.884 1.93713 0.561984 0
M  V30 1720 C 161.197 0.984492 1.69018 0
M  V30 1721 O 162.403 1.24273 2.41389 0
M  V30 1722 C 160.859 3.4421 1.05106 0
M  V30 1723 C 160.467 4.47975 -0.0476628 0
M  V30 1724 C 162.211 3.89595 1.68571 0
M  V30 1725 C 160.118 5.89631 0.457055 0
M  V30 1726 H 159.048 0.723082 0.2137 0
M  V30 1727 H 161.699 1.82644 -0.177057 0
M  V30 1728 H 160.081 3.50449 1.84395 0
M  V30 1729 H 161.255 4.53385 -0.823333 0
M  V30 1730 H 159.57 4.1223 -0.587816 0
M  V30 1731 H 162.167 4.92832 2.07414 0
M  V30 1732 H 162.51 3.28526 2.55688 0
M  V30 1733 H 163.043 3.86078 0.958562 0
M  V30 1734 H 159.782 6.54411 -0.377616 0
M  V30 1735 H 159.302 5.87681 1.19962 0
M  V30 1736 H 160.981 6.40363 0.92437 0
M  V30 1737 N 161.113 -0.173488 1.56642 0
M  V30 1738 C 162.39 -0.917617 1.7274 0
M  V30 1739 C 162.77 -2.00484 0.661027 0
M  V30 1740 O 162.118 -2.26184 -0.32453 0
M  V30 1741 C 162.328 -1.48433 3.15862 0
M  V30 1742 C 163.676 -1.95809 3.76754 0
M  V30 1743 O 164.7 -1.58231 3.19126 0
M  V30 1744 O 163.559 -2.65024 4.77938 0
M  V30 1745 H 160.653 -0.431772 0.705338 0
M  V30 1746 H 163.199 -0.161487 1.6893 0
M  V30 1747 H 161.971 -0.701715 3.84957 0
M  V30 1748 H 161.594 -2.30471 3.23989 0
M  V30 1749 N 162.591 -1.51276 -0.441967 0
M  V30 1750 C 163.538 -1.72256 -1.53612 0
M  V30 1751 C 164.508 -0.564164 -1.56225 0
M  V30 1752 O 165.693 -0.798074 -1.73307 0
M  V30 1753 C 162.833 -1.84932 -2.91366 0
M  V30 1754 C 161.946 -3.12459 -2.98317 0
M  V30 1755 C 161.081 -3.15758 -4.27166 0
M  V30 1756 C 160.12 -4.37619 -4.27967 0
M  V30 1757 N 159.257 -4.38493 -5.48333 0
M  V30 1758 H 164.097 -2.65654 -1.35026 0
M  V30 1759 H 161.634 -1.31662 -0.656009 0
M  V30 1760 H 163.592 -1.90263 -3.7129 0
M  V30 1761 H 162.222 -0.949461 -3.08521 0
M  V30 1762 H 161.274 -3.1646 -2.11086 0
M  V30 1763 H 162.586 -4.02382 -2.94771 0
M  V30 1764 H 161.74 -3.19979 -5.15459 0
M  V30 1765 H 160.479 -2.23715 -4.33362 0
M  V30 1766 H 159.484 -4.33579 -3.38067 0
M  V30 1767 H 160.709 -5.30921 -4.23438 0
M  V30 1768 H 158.655 -3.49318 -5.55259 0
M  V30 1769 H 158.572 -5.22219 -5.46647 0
M  V30 1770 H 159.84 -4.469 -6.38671 0
M  V30 1771 N 164.069 0.697108 -1.41344 0
M  V30 1772 C 165.316 1.45714 -1.40619 0
M  V30 1773 C 165.644 1.94494 -0.0147907 0
M  V30 1774 O 164.899 1.69794 0.973066 0
M  V30 1775 C 165.198 2.68553 -2.35826 0
M  V30 1776 C 164.864 2.38438 -3.82698 0
M  V30 1777 C 163.526 2.29936 -4.22709 0
M  V30 1778 C 165.878 2.13567 -4.75435 0
M  V30 1779 C 163.206 1.94656 -5.53467 0
M  V30 1780 C 165.558 1.79797 -6.06511 0
M  V30 1781 C 164.222 1.69789 -6.45545 0
M  V30 1782 H 163.492 0.533206 -0.51456 0
M  V30 1783 H 166.139 0.796901 -1.74131 0
M  V30 1784 H 164.444 3.39503 -1.95563 0
M  V30 1785 H 166.141 3.2669 -2.32539 0
M  V30 1786 H 162.731 2.4595 -3.51008 0
M  V30 1787 H 166.915 2.19082 -4.45328 0
M  V30 1788 H 162.171 1.8546 -5.82593 0
M  V30 1789 H 166.345 1.59572 -6.77872 0
M  V30 1790 H 163.972 1.4222 -7.46778 0
M  V30 1791 N 165.547 1.27147 0.931209 0
M  V30 1792 C 166.795 1.13055 1.6752 0
M  V30 1793 C 167.116 -0.324791 1.92276 0
M  V30 1794 O 166.386 -1.22775 1.52654 0
M  V30 1795 H 164.966 0.415391 0.620854 0
M  V30 1796 H 167.628 1.59623 1.11833 0
M  V30 1797 H 166.724 1.65694 2.64485 0
M  V30 1798 N 167.025 -1.13721 1.09112 0
M  V30 1799 C 167.935 -2.22638 0.73957 0
M  V30 1800 C 168.951 -1.72091 -0.257068 0
M  V30 1801 O 170.127 -2.01155 -0.0992154 0
M  V30 1802 C 167.192 -3.46322 0.16191 0
M  V30 1803 C 166.253 -4.11775 1.21408 0
M  V30 1804 C 165.486 -5.29555 0.663891 0
M  V30 1805 O 165.709 -5.68077 -0.514274 0
M  V30 1806 O 164.643 -5.84973 1.41738 0
M  V30 1807 H 168.469 -2.55074 1.64836 0
M  V30 1808 H 166.054 -1.21791 0.865289 0
M  V30 1809 H 167.936 -4.21107 -0.157073 0
M  V30 1810 H 166.611 -3.15593 -0.719932 0
M  V30 1811 H 165.518 -3.3883 1.58571 0
M  V30 1812 H 166.851 -4.46627 2.06845 0
M  V30 1813 N 168.503 -0.877838 -1.30888 0
M  V30 1814 C 169.752 -0.488793 -1.95688 0
M  V30 1815 C 170.065 0.965485 -1.70111 0
M  V30 1816 O 171.271 1.46104 -2.28836 0
M  V30 1817 C 169.727 -0.823201 -3.50359 0
M  V30 1818 C 169.335 -2.29477 -3.84765 0
M  V30 1819 C 171.079 -0.503009 -4.21509 0
M  V30 1820 C 168.986 -2.57118 -5.32583 0
M  V30 1821 H 167.916 -0.179062 -0.732429 0
M  V30 1822 H 170.567 -1.07183 -1.48943 0
M  V30 1823 H 168.949 -0.169331 -3.95638 0
M  V30 1824 H 170.123 -2.99236 -3.5042 0
M  V30 1825 H 168.438 -2.58178 -3.267 0
M  V30 1826 H 171.035 -0.68665 -5.30273 0
M  V30 1827 H 171.378 0.557109 -4.12555 0
M  V30 1828 H 171.911 -1.11376 -3.8189 0
M  V30 1829 H 168.65 -3.61843 -5.4658 0
M  V30 1830 H 168.17 -1.91961 -5.68253 0
M  V30 1831 H 169.849 -2.42251 -5.99936 0
M  V30 1832 N 169.982 1.44106 -0.638065 0
M  V30 1833 C 170.912 2.33448 0.0494287 0
M  V30 1834 C 171.893 1.48606 0.827672 0
M  V30 1835 O 173.078 1.77308 0.792173 0
M  V30 1836 C 170.208 3.31771 1.02691 0
M  V30 1837 C 169.162 4.26485 0.359823 0
M  V30 1838 C 168.488 5.14729 1.44769 0
M  V30 1839 C 169.788 5.17056 -0.738296 0
M  V30 1840 H 171.482 2.91183 -0.696636 0
M  V30 1841 H 169.028 1.40014 -0.336456 0
M  V30 1842 H 170.981 3.93161 1.51666 0
M  V30 1843 H 169.705 2.7226 1.80395 0
M  V30 1844 H 168.364 3.66437 -0.10934 0
M  V30 1845 H 168.012 4.51566 2.21578 0
M  V30 1846 H 167.712 5.78913 1.00668 0
M  V30 1847 H 169.236 5.78991 1.93911 0
M  V30 1848 H 170.65 5.72342 -0.331354 0
M  V30 1849 H 169.047 5.89879 -1.10286 0
M  V30 1850 H 170.117 4.57652 -1.60258 0
M  V30 1851 N 171.46 0.379036 1.52974 0
M  V30 1852 C 172.407 -0.461048 2.26148 0
M  V30 1853 C 173.377 -1.06637 1.27349 0
M  V30 1854 O 174.562 -1.09633 1.56157 0
M  V30 1855 C 171.702 -1.58782 3.06402 0
M  V30 1856 C 170.815 -1.00636 4.20115 0
M  V30 1857 C 169.95 -2.10334 4.87784 0
M  V30 1858 C 168.989 -1.49724 5.93506 0
M  V30 1859 N 168.126 -2.5331 6.54812 0
M  V30 1860 H 172.966 0.169429 2.97518 0
M  V30 1861 H 170.503 0.0953806 1.4679 0
M  V30 1862 H 172.461 -2.25174 3.51215 0
M  V30 1863 H 171.091 -2.18876 2.37261 0
M  V30 1864 H 170.143 -0.232332 3.7969 0
M  V30 1865 H 171.455 -0.523343 4.96047 0
M  V30 1866 H 170.609 -2.84519 5.35849 0
M  V30 1867 H 169.348 -2.61992 4.11353 0
M  V30 1868 H 168.353 -0.740598 5.44789 0
M  V30 1869 H 169.578 -0.988732 6.71864 0
M  V30 1870 H 167.524 -3.04156 5.81227 0
M  V30 1871 H 167.441 -2.09734 7.26325 0
M  V30 1872 H 168.709 -3.27155 7.07524 0
M  V30 1873 N 172.938 -1.57226 0.108567 0
M  V30 1874 C 174.354 -1.5766 -0.248058 0
M  V30 1875 C 174.554 -1.12063 -1.67464 0
M  V30 1876 O 173.61 -0.803236 -2.39383 0
M  V30 1877 C 174.923 -3.0069 -0.0242287 0
M  V30 1878 C 176.471 -3.12868 -0.0909372 0
M  V30 1879 C 176.946 -4.57879 0.105067 0
M  V30 1880 N 178.437 -4.63172 0.0506846 0
M  V30 1881 C 179.172 -5.73126 0.177396 0
M  V30 1882 N 178.668 -6.91866 0.359696 0
M  V30 1883 N 180.461 -5.61977 0.117709 0
M  V30 1884 H 172.612 -1.85169 1.04049 0
M  V30 1885 H 174.875 -0.85529 0.40888 0
M  V30 1886 H 174.581 -3.38299 0.961604 0
M  V30 1887 H 174.455 -3.6945 -0.76068 0
M  V30 1888 H 176.842 -2.75124 -1.06729 0
M  V30 1889 H 176.923 -2.46672 0.677225 0
M  V30 1890 H 176.567 -4.96321 1.07834 0
M  V30 1891 H 176.497 -5.22153 -0.682954 0
M  V30 1892 H 178.988 -3.778 -0.0871266 0
M  V30 1893 H 179.301 -7.71503 0.447529 0
M  V30 1894 H 177.646 -6.93874 0.395536 0
M  V30 1895 H 180.837 -4.68094 -0.0236741 0
M  V30 1896 H 181.01 -6.47627 0.219905 0
M  V30 1897 N 174.416 0.165178 -1.56732 0
M  V30 1898 C 175.363 1.2044 -1.96883 0
M  V30 1899 C 176.333 1.43664 -0.833657 0
M  V30 1900 O 177.518 1.56302 -1.09427 0
M  V30 1901 C 174.658 2.53727 -2.33916 0
M  V30 1902 C 173.771 2.3783 -3.6064 0
M  V30 1903 C 172.906 3.64026 -3.86857 0
M  V30 1904 C 171.945 3.43088 -5.06909 0
M  V30 1905 N 171.082 4.61369 -5.29229 0
M  V30 1906 H 175.922 0.854996 -2.85471 0
M  V30 1907 H 173.459 0.41076 -1.41249 0
M  V30 1908 H 175.417 3.31419 -2.53411 0
M  V30 1909 H 174.047 2.8665 -1.48431 0
M  V30 1910 H 173.099 1.51282 -3.49024 0
M  V30 1911 H 174.411 2.18308 -4.4849 0
M  V30 1912 H 173.565 4.50152 -4.06753 0
M  V30 1913 H 172.304 3.86533 -2.97394 0
M  V30 1914 H 171.309 2.55349 -4.86906 0
M  V30 1915 H 172.534 3.21997 -5.97909 0
M  V30 1916 H 170.48 4.84084 -4.42718 0
M  V30 1917 H 170.397 4.44783 -6.11313 0
M  V30 1918 H 171.665 5.48761 -5.53608 0
M  V30 1919 N 175.894 1.51508 0.433938 0
M  V30 1920 C 176.857 1.72473 1.50949 0
M  V30 1921 C 177.857 0.594725 1.49398 0
M  V30 1922 O 179.047 0.862315 1.5136 0
M  V30 1923 C 176.179 1.78431 2.90474 0
M  V30 1924 H 177.372 2.68467 1.33662 0
M  V30 1925 H 174.925 1.41549 0.662836 0
M  V30 1926 H 175.66 0.842645 3.13161 0
M  V30 1927 H 175.445 2.60558 2.93005 0
M  V30 1928 H 176.935 1.96479 3.68491 0
M  V30 1929 N 177.372 -0.689602 1.41712 0
M  V30 1930 C 178.335 -1.78521 1.43746 0
M  V30 1931 C 179.335 -1.57436 0.327191 0
M  V30 1932 O 180.525 -1.64 0.587348 0
M  V30 1933 C 177.657 -3.16971 1.25467 0
M  V30 1934 H 178.85 -1.78108 2.41283 0
M  V30 1935 H 176.403 -0.89781 1.27942 0
M  V30 1936 H 177.138 -3.23019 0.287948 0
M  V30 1937 H 176.923 -3.33678 2.05917 0
M  V30 1938 H 178.413 -3.96935 1.2974 0
M  V30 1939 N 178.85 -1.27639 -0.924453 0
M  V30 1940 C 179.76 -1.12466 -2.05885 0
M  V30 1941 C 180.776 -0.053869 -1.73917 0
M  V30 1942 O 181.952 -0.261012 -1.99702 0
M  V30 1943 C 179.017 -0.776768 -3.37886 0
M  V30 1944 C 178.078 -1.92878 -3.83532 0
M  V30 1945 C 177.311 -1.59739 -5.09234 0
M  V30 1946 O 177.534 -0.506782 -5.68144 0
M  V30 1947 O 176.468 -2.43761 -5.50331 0
M  V30 1948 H 180.294 -2.07671 -2.21599 0
M  V30 1949 H 177.879 -1.06857 -1.04413 0
M  V30 1950 H 179.761 -0.596229 -4.17161 0
M  V30 1951 H 178.436 0.145732 -3.23372 0
M  V30 1952 H 177.343 -2.1644 -3.0513 0
M  V30 1953 H 178.676 -2.8316 -4.02593 0
M  V30 1954 N 180.328 1.1314 -1.09713 0
M  V30 1955 C 181.291 2.16831 -0.742751 0
M  V30 1956 C 182.291 1.59159 0.229129 0
M  V30 1957 O 183.481 1.74199 0.00693237 0
M  V30 1958 C 180.613 3.40756 -0.0989168 0
M  V30 1959 H 181.806 2.49695 -1.66109 0
M  V30 1960 H 179.359 1.2802 -0.896699 0
M  V30 1961 H 180.094 3.13485 0.830514 0
M  V30 1962 H 179.879 3.83888 -0.798265 0
M  V30 1963 H 181.369 4.17386 0.133524 0
M  V30 1964 N 181.806 0.884767 1.30421 0
M  V30 1965 C 182.756 0.322846 2.25703 0
M  V30 1966 C 183.74 -0.548582 1.51259 0
M  V30 1967 O 184.932 -0.39304 1.72581 0
M  V30 1968 C 182.061 -0.461787 3.4018 0
M  V30 1969 C 181.147 0.423717 4.21978 0
M  V30 1970 N 181.538 1.52408 4.82292 0
M  V30 1971 C 179.836 0.218795 4.45463 0
M  V30 1972 C 180.537 2.07136 5.43571 0
M  V30 1973 N 179.513 1.36635 5.26148 0
M  V30 1974 H 183.315 1.16363 2.69883 0
M  V30 1975 H 180.829 0.73415 1.44859 0
M  V30 1976 H 182.826 -0.880985 4.07485 0
M  V30 1977 H 181.486 -1.30001 2.9754 0
M  V30 1978 H 182.497 1.90693 4.81515 0
M  V30 1979 H 179.174 -0.582275 4.1342 0
M  V30 1980 H 180.564 2.99538 6.01437 0
M  V30 1981 N 183.284 -1.43765 0.645699 0
M  V30 1982 C 184.53 -2.02197 0.156271 0
M  V30 1983 C 184.863 -1.50776 -1.22393 0
M  V30 1984 O 184.138 -0.697771 -1.81553 0
M  V30 1985 C 184.421 -3.59749 0.158872 0
M  V30 1986 C 184.274 -4.21419 1.57245 0
M  V30 1987 C 185.593 -4.37149 -0.50879 0
M  V30 1988 H 182.712 -0.734694 0.0582602 0
M  V30 1989 H 185.354 -1.71157 0.824951 0
M  V30 1990 H 183.504 -3.86325 -0.410525 0
M  V30 1991 H 185.176 -4.059 2.19186 0
M  V30 1992 H 183.419 -3.78356 2.122 0
M  V30 1993 H 184.09 -5.30482 1.52619 0
M  V30 1994 H 186.566 -4.16093 -0.024412 0
M  V30 1995 H 185.442 -5.4683 -0.476213 0
M  V30 1996 H 185.703 -4.12839 -1.58165 0
M  V30 1997 N 184.763 -0.387143 -1.52771 0
M  V30 1998 C 186.04 0.253197 -1.93954 0
M  V30 1999 C 186.42 1.64545 -1.32243 0
M  V30 2000 O 185.768 2.23191 -0.489699 0
M  V30 2001 C 185.978 0.281722 -3.47861 0
M  V30 2002 C 187.326 0.511715 -4.21505 0
M  V30 2003 O 188.35 0.362023 -3.54356 0
M  V30 2004 O 187.209 0.804847 -5.40541 0
M  V30 2005 H 184.303 0.156845 -0.811991 0
M  V30 2006 H 186.849 -0.441494 -1.63856 0
M  V30 2007 H 185.621 -0.693571 -3.85104 0
M  V30 2008 H 185.244 1.02142 -3.84256 0
M  V30 2009 N 186.241 1.57166 -0.116904 0
M  V30 2010 C 187.204 2.14039 0.819742 0
M  V30 2011 C 188.204 1.07477 1.19605 0
M  V30 2012 O 189.394 1.33263 1.1219 0
M  V30 2013 C 186.526 2.67891 2.10826 0
M  V30 2014 H 187.719 2.98128 0.325511 0
M  V30 2015 H 185.272 1.55739 0.132312 0
M  V30 2016 H 186.007 1.87384 2.64685 0
M  V30 2017 H 185.792 3.45823 1.84793 0
M  V30 2018 H 187.282 3.11809 2.77785 0
M  V30 2019 N 187.719 -0.156864 1.56817 0
M  V30 2020 C 188.669 -1.19891 1.93934 0
M  V30 2021 C 189.653 -1.39061 0.809372 0
M  V30 2022 O 190.845 -1.40789 1.07273 0
M  V30 2023 C 187.974 -2.53493 2.31508 0
M  V30 2024 C 187.06 -2.37957 3.51052 0
M  V30 2025 N 187.451 -1.92158 4.67877 0
M  V30 2026 C 185.749 -2.68739 3.55943 0
M  V30 2027 C 186.45 -1.8943 5.49992 0
M  V30 2028 N 185.426 -2.32375 4.91429 0
M  V30 2029 H 189.228 -0.836746 2.81737 0
M  V30 2030 H 186.742 -0.365012 1.58245 0
M  V30 2031 H 188.739 -3.28811 2.56299 0
M  V30 2032 H 187.399 -2.905 1.45051 0
M  V30 2033 H 188.41 -1.62274 4.91821 0
M  V30 2034 H 185.087 -3.09687 2.80001 0
M  V30 2035 H 186.477 -1.55596 6.53636 0
M  V30 2036 N 189.197 -1.51736 -0.425897 0
M  V30 2037 C 190.427 -1.68549 -1.19476 0
M  V30 2038 C 190.835 -0.387288 -1.85194 0
M  V30 2039 O 190.178 0.645142 -1.71999 0
M  V30 2040 C 190.24 -2.75275 -2.31223 0
M  V30 2041 C 189.904 -4.17534 -1.8578 0
M  V30 2042 C 190.901 -5.01936 -1.35485 0
M  V30 2043 C 188.586 -4.6369 -1.93123 0
M  V30 2044 C 190.58 -6.30559 -0.931347 0
M  V30 2045 C 188.267 -5.92307 -1.50384 0
M  V30 2046 C 189.265 -6.75569 -1.00473 0
M  V30 2047 O 188.953 -8.0178 -0.583452 0
M  V30 2048 H 188.685 -0.568525 -0.365725 0
M  V30 2049 H 191.239 -1.98982 -0.509444 0
M  V30 2050 H 189.469 -2.40182 -3.03067 0
M  V30 2051 H 191.158 -2.80853 -2.93047 0
M  V30 2052 H 191.924 -4.67475 -1.29197 0
M  V30 2053 H 187.803 -3.98997 -2.30916 0
M  V30 2054 H 191.347 -6.95498 -0.541084 0
M  V30 2055 H 187.244 -6.2628 -1.56346 0
M  V30 2056 H 188.012 -8.1543 -0.708275 0
M  V30 2057 N 190.675 0.682077 -1.42076 0
M  V30 2058 C 191.905 1.46844 -1.45329 0
M  V30 2059 C 192.313 1.89102 -0.0609328 0
M  V30 2060 O 191.656 1.58238 0.933082 0
M  V30 2061 C 191.718 2.75375 -2.31104 0
M  V30 2062 C 191.382 2.55238 -3.79081 0
M  V30 2063 C 192.379 2.20309 -4.70914 0
M  V30 2064 C 190.064 2.70459 -4.2327 0
M  V30 2065 C 192.058 2.00859 -6.04925 0
M  V30 2066 C 189.745 2.50624 -5.57343 0
M  V30 2067 C 190.743 2.15876 -6.47986 0
M  V30 2068 O 190.431 1.96227 -7.79583 0
M  V30 2069 H 190.163 0.4586 -0.496651 0
M  V30 2070 H 192.717 0.846131 -1.87162 0
M  V30 2071 H 190.947 3.40061 -1.84107 0
M  V30 2072 H 192.636 3.37231 -2.25898 0
M  V30 2073 H 193.402 2.08153 -4.38061 0
M  V30 2074 H 189.281 2.96485 -3.53012 0
M  V30 2075 H 192.825 1.7366 -6.75639 0
M  V30 2076 H 188.722 2.62375 -5.89771 0
M  V30 2077 H 189.49 2.10883 -7.90867 0
M  V30 2078 N 192.153 1.28127 0.917671 0
M  V30 2079 C 193.063 1.13556 2.05286 0
M  V30 2080 C 194.079 0.0630914 1.73886 0
M  V30 2081 O 195.255 0.271598 1.9956 0
M  V30 2082 C 192.32 0.794676 3.3747 0
M  V30 2083 C 191.381 1.94909 3.82504 0
M  V30 2084 C 190.614 1.62437 5.0838 0
M  V30 2085 O 190.837 0.536905 5.67867 0
M  V30 2086 O 189.771 2.46677 5.4903 0
M  V30 2087 H 193.597 2.08844 2.20495 0
M  V30 2088 H 191.182 1.07409 1.03845 0
M  V30 2089 H 193.064 0.618344 4.16839 0
M  V30 2090 H 191.739 -0.128581 3.23445 0
M  V30 2091 H 190.646 2.18055 3.03978 0
M  V30 2092 H 191.979 2.85291 4.01086 0
M  V30 2093 N 193.631 -1.12557 1.10312 0
M  V30 2094 C 194.563 -2.17971 0.708625 0
M  V30 2095 C 195.576 -1.60806 -0.254027 0
M  V30 2096 O 196.765 -1.78458 -0.0386891 0
M  V30 2097 C 193.865 -3.38891 0.0248198 0
M  V30 2098 C 193.038 -4.25548 1.01132 0
M  V30 2099 C 192.097 -5.24972 0.35924 0
M  V30 2100 O 191.123 -5.60174 1.00965 0
M  V30 2101 N 192.325 -5.73747 -0.882847 0
M  V30 2102 H 195.09 -2.52427 1.61557 0
M  V30 2103 H 192.651 -1.27967 0.991771 0
M  V30 2104 H 194.643 -4.02485 -0.422852 0
M  V30 2105 H 193.213 -3.02596 -0.784514 0
M  V30 2106 H 192.433 -3.58589 1.6373 0
M  V30 2107 H 193.721 -4.80294 1.67914 0
M  V30 2108 H 193.119 -5.4731 -1.43065 0
M  V30 2109 H 191.676 -6.39234 -1.27369 0
M  V30 2110 N 195.109 -0.891671 -1.2995 0
M  V30 2111 C 196.057 -0.353066 -2.29905 0
M  V30 2112 C 197.051 0.543509 -1.60444 0
M  V30 2113 O 198.257 0.4272 -1.74857 0
M  V30 2114 H 194.632 -0.095531 -0.745907 0
M  V30 2115 H 196.603 -1.20961 -2.72784 0
M  V30 2116 C 195.352 0.411475 -3.45257 0
M  V30 2117 H 194.675 -0.269182 -3.98893 0
M  V30 2118 H 196.115 0.753328 -4.17254 0
M  V30 2119 C 194.574 1.6111 -2.9588 0
M  V30 2120 O 195.104 2.71045 -2.96475 0
M  V30 2121 N 193.31 1.45054 -2.51809 0
M  V30 2122 H 192.857 0.556175 -2.51524 0
M  V30 2123 H 192.815 2.25453 -2.1913 0
M  V30 2124 N 196.587 1.43421 -0.653314 0
M  V30 2125 C 197.497 2.34568 0.0388565 0
M  V30 2126 C 198.513 1.53888 0.81207 0
M  V30 2127 O 199.689 1.86539 0.759294 0
M  V30 2128 C 196.754 3.32167 0.993269 0
M  V30 2129 C 195.815 4.28751 0.216977 0
M  V30 2130 C 195.048 5.21688 1.12593 0
M  V30 2131 O 195.271 5.19052 2.36519 0
M  V30 2132 O 194.205 5.98919 0.598284 0
M  V30 2133 H 198.031 2.95251 -0.711386 0
M  V30 2134 H 195.616 1.43564 -0.413502 0
M  V30 2135 H 197.498 3.92183 1.54176 0
M  V30 2136 H 196.173 2.73987 1.72374 0
M  V30 2137 H 195.08 3.72215 -0.375101 0
M  V30 2138 H 196.413 4.89913 -0.473924 0
M  V30 2139 N 198.065 0.39524 1.52563 0
M  V30 2140 C 198.997 -0.472201 2.24283 0
M  V30 2141 C 200.01 -1.02178 1.26742 0
M  V30 2142 O 201.199 -0.923097 1.52778 0
M  V30 2143 C 198.299 -1.66775 2.95024 0
M  V30 2144 C 197.472 -1.2445 4.19322 0
M  V30 2145 C 196.531 -2.30539 4.7301 0
M  V30 2146 O 195.557 -1.91702 5.35947 0
M  V30 2147 N 196.759 -3.6253 4.53379 0
M  V30 2148 H 199.524 0.142282 2.99362 0
M  V30 2149 H 197.085 0.2219 1.60372 0
M  V30 2150 H 199.077 -2.37283 3.27839 0
M  V30 2151 H 197.647 -2.18845 2.23217 0
M  V30 2152 H 196.867 -0.368069 3.92478 0
M  V30 2153 H 198.155 -0.938457 5.0007 0
M  V30 2154 H 197.553 -3.96841 4.03154 0
M  V30 2155 H 196.11 -4.29055 4.90668 0
M  V30 2156 N 199.544 -1.57102 0.125237 0
M  V30 2157 C 200.955 -1.82384 -0.399142 0
M  V30 2158 C 201.306 -1.04276 -1.66195 0
M  V30 2159 O 200.431 -0.281269 -2.14564 0
M  V30 2160 C 201.026 -3.30821 -0.730932 0
M  V30 2161 C 199.585 -3.56762 -1.19992 0
M  V30 2162 C 198.732 -2.7649 -0.211792 0
M  V30 2163 H 201.683 -1.54786 0.350277 0
M  V30 2164 H 201.704 -3.4579 -1.58775 0
M  V30 2165 H 201.216 -3.87643 0.188345 0
M  V30 2166 H 199.317 -3.05305 -2.13588 0
M  V30 2167 H 199.43 -4.65317 -1.14093 0
M  V30 2168 H 197.794 -2.4489 -0.700085 0
M  V30 2169 H 198.577 -3.36073 0.700691 0
M  V30 2170 N 201.022 0.148545 -1.56898 0
M  V30 2171 C 202.25 0.876389 -1.87422 0
M  V30 2172 C 202.665 1.74809 -0.713256 0
M  V30 2173 O 202.022 1.79725 0.317025 0
M  V30 2174 C 202.073 1.73438 -3.17178 0
M  V30 2175 O 201.794 0.897809 -4.28802 0
M  V30 2176 C 203.295 2.56993 -3.61205 0
M  V30 2177 H 200.515 0.253489 -0.621277 0
M  V30 2178 H 203.059 0.141798 -2.04008 0
M  V30 2179 H 201.214 2.42205 -3.0235 0
M  V30 2180 H 201.628 1.48672 -5.02988 0
M  V30 2181 H 203.102 3.12773 -4.54838 0
M  V30 2182 H 203.579 3.32958 -2.86419 0
M  V30 2183 H 204.185 1.9352 -3.78722 0
M  V30 2184 N 202.5 1.5196 0.417844 0
M  V30 2185 C 203.748 1.65263 1.16329 0
M  V30 2186 C 204.069 0.380634 1.91249 0
M  V30 2187 O 203.339 -0.604214 1.86349 0
M  V30 2188 H 201.919 0.60912 0.432414 0
M  V30 2189 H 204.581 1.88969 0.477162 0
M  V30 2190 H 203.677 2.4896 1.88217 0
M  V30 2191 N 203.978 -0.674533 1.42435 0
M  V30 2192 C 205.206 -1.46283 1.46317 0
M  V30 2193 C 205.621 -1.88653 0.0745836 0
M  V30 2194 O 204.978 -1.58151 -0.91074 0
M  V30 2195 C 205.029 -2.71178 2.3905 0
M  V30 2196 O 204.75 -2.30586 3.72507 0
M  V30 2197 C 206.251 -3.64738 2.51955 0
M  V30 2198 H 203.471 -0.450104 0.497642 0
M  V30 2199 H 206.015 -0.828792 1.86953 0
M  V30 2200 H 204.17 -3.3077 2.01667 0
M  V30 2201 H 204.584 -3.11241 4.22172 0
M  V30 2202 H 206.058 -4.49096 3.20962 0
M  V30 2203 H 206.535 -4.10656 1.55752 0
M  V30 2204 H 207.141 -3.11038 2.90061 0
M  V30 2205 N 205.456 -1.28612 -0.910864 0
M  V30 2206 C 206.696 -1.1719 -1.67469 0
M  V30 2207 C 207.06 0.274441 -1.90028 0
M  V30 2208 O 208.261 0.511425 -2.6389 0
M  V30 2209 C 206.532 -1.95137 -2.99427 0
M  V30 2210 S 208.091 -2.00122 -3.90508 0
M  V30 2211 H 204.909 -0.41806 -0.575106 0
M  V30 2212 H 207.511 -1.6275 -1.08317 0
M  V30 2213 H 206.215 -2.99381 -2.80712 0
M  V30 2214 H 205.746 -1.50137 -3.63624 0
M  V30 2215 H 207.761 -1.10981 -4.8363 0
M  V30 2216 N 206.934 1.1197 -1.10907 0
M  V30 2217 C 207.897 2.16031 -0.765707 0
M  V30 2218 C 208.897 1.59393 0.212235 0
M  V30 2219 O 210.087 1.74196 -0.0115441 0
M  V30 2220 C 207.219 3.40632 -0.135053 0
M  V30 2221 H 208.412 2.47919 -1.68748 0
M  V30 2222 H 205.965 1.27061 -0.910226 0
M  V30 2223 H 206.7 3.14348 0.797218 0
M  V30 2224 H 206.485 3.8302 -0.838937 0
M  V30 2225 H 207.975 4.17505 0.0892469 0
M  V30 2226 N 208.412 0.89855 1.29475 0
M  V30 2227 C 209.375 0.380272 2.26023 0
M  V30 2228 C 210.375 -0.484891 1.53315 0
M  V30 2229 O 211.565 -0.290108 1.71767 0
M  V30 2230 C 208.697 -0.45651 3.3783 0
M  V30 2231 H 209.89 1.23295 2.73383 0
M  V30 2232 H 207.443 0.676589 1.40897 0
M  V30 2233 H 208.178 -1.32922 2.95808 0
M  V30 2234 H 207.963 0.163393 3.91759 0
M  V30 2235 H 209.453 -0.810466 4.0966 0
M  V30 2236 N 209.89 -1.43072 0.660911 0
M  V30 2237 C 211.13 -2.03596 0.181146 0
M  V30 2238 C 211.494 -1.51057 -1.18515 0
M  V30 2239 O 212.695 -2.03275 -1.75877 0
M  V30 2240 C 210.966 -3.56845 0.19911 0
M  V30 2241 S 212.525 -4.38289 -0.211684 0
M  V30 2242 H 209.343 -0.706954 0.0757479 0
M  V30 2243 H 211.945 -1.75027 0.870965 0
M  V30 2244 H 210.649 -3.92583 1.1961 0
M  V30 2245 H 210.18 -3.90067 -0.510996 0
M  V30 2246 H 212.195 -4.74583 -1.44863 0
M  V30 2247 N 211.368 -0.403325 -1.52352 0
M  V30 2248 C 212.617 0.175668 -2.00934 0
M  V30 2249 C 212.93 1.46718 -1.29356 0
M  V30 2250 O 214.136 2.12708 -1.68724 0
M  V30 2251 C 212.592 0.363612 -3.58058 0
M  V30 2252 C 212.2 -0.915472 -4.38547 0
M  V30 2253 C 213.944 0.89821 -4.14888 0
M  V30 2254 C 211.851 -0.695035 -5.87302 0
M  V30 2255 H 210.781 0.0694234 -0.750797 0
M  V30 2256 H 213.432 -0.527879 -1.75743 0
M  V30 2257 H 211.814 1.12935 -3.79555 0
M  V30 2258 H 212.988 -1.68691 -4.28812 0
M  V30 2259 H 211.303 -1.37606 -3.93006 0
M  V30 2260 H 213.9 1.07907 -5.23699 0
M  V30 2261 H 214.243 1.87126 -3.71873 0
M  V30 2262 H 214.776 0.191681 -3.97338 0
M  V30 2263 H 211.515 -1.63948 -6.34666 0
M  V30 2264 H 211.035 0.0372116 -5.99788 0
M  V30 2265 H 212.714 -0.33497 -6.46132 0
M  V30 2266 N 212.846 1.57033 -0.133567 0
M  V30 2267 C 214.074 2.00044 0.528195 0
M  V30 2268 C 214.489 1.01349 1.59291 0
M  V30 2269 O 213.846 0.00848369 1.82498 0
M  V30 2270 C 213.897 3.43018 1.1411 0
M  V30 2271 O 213.618 4.37939 0.11892 0
M  V30 2272 C 215.119 4.01237 1.88477 0
M  V30 2273 H 212.339 0.656517 0.138661 0
M  V30 2274 H 214.883 2.03267 -0.224196 0
M  V30 2275 H 213.038 3.40688 1.84418 0
M  V30 2276 H 213.452 5.21436 0.56613 0
M  V30 2277 H 214.926 5.03314 2.26669 0
M  V30 2278 H 215.403 3.41193 2.76558 0
M  V30 2279 H 216.009 4.07156 1.22898 0
M  V30 2280 N 214.325 -0.140222 1.56975 0
M  V30 2281 C 215.573 -0.850005 1.83356 0
M  V30 2282 C 215.894 -1.81399 0.71551 0
M  V30 2283 O 215.164 -1.94136 -0.262294 0
M  V30 2284 H 213.744 -0.316886 0.676456 0
M  V30 2285 H 216.406 -0.132608 1.94448 0
M  V30 2286 H 215.502 -1.40814 2.78528 0
M  V30 2287 N 215.803 -1.52179 -0.40978 0
M  V30 2288 C 217.08 -1.56769 -1.16974 0
M  V30 2289 C 217.46 -0.348322 -2.08206 0
M  V30 2290 O 216.808 0.664862 -2.18613 0
M  V30 2291 C 217.018 -2.89603 -1.9476 0
M  V30 2292 C 218.366 -3.42579 -2.50849 0
M  V30 2293 O 219.39 -2.91338 -2.04941 0
M  V30 2294 O 218.249 -4.32054 -3.34652 0
M  V30 2295 H 215.343 -0.631439 -0.534054 0
M  V30 2296 H 217.889 -1.64507 -0.416613 0
M  V30 2297 H 216.661 -3.698 -1.27921 0
M  V30 2298 H 216.284 -2.85155 -2.77079 0
M  V30 2299 N 217.281 0.66697 -1.42791 0
M  V30 2300 C 218.229 1.80157 -1.47127 0
M  V30 2301 C 219.223 1.65825 -0.346199 0
M  V30 2302 O 220.429 1.72338 -0.519572 0
M  V30 2303 H 216.804 0.594158 -0.460956 0
M  V30 2304 H 218.775 1.73619 -2.42692 0
M  V30 2305 C 217.524 3.18351 -1.39813 0
M  V30 2306 H 216.847 3.3001 -2.25684 0
M  V30 2307 H 218.287 3.97736 -1.46908 0
M  V30 2308 C 216.746 3.36707 -0.11391 0
M  V30 2309 O 217.276 3.93027 0.830241 0
M  V30 2310 N 215.482 2.90586 -0.0285295 0
M  V30 2311 H 215.029 2.4494 -0.79764 0
M  V30 2312 H 214.987 3.03245 0.830063 0
M  V30 2313 N 218.759 1.29093 0.90403 0
M  V30 2314 C 220.175 1.07011 1.1841 0
M  V30 2315 C 220.375 -0.181358 2.00682 0
M  V30 2316 O 219.431 -0.880331 2.36657 0
M  V30 2317 C 220.744 2.32311 1.90924 0
M  V30 2318 C 222.292 2.37587 2.03768 0
M  V30 2319 C 222.767 3.62679 2.79693 0
M  V30 2320 N 224.258 3.63376 2.87249 0
M  V30 2321 C 224.993 4.56848 3.46522 0
M  V30 2322 N 224.489 5.60648 4.06996 0
M  V30 2323 N 226.282 4.44426 3.44154 0
M  V30 2324 H 218.433 2.09412 0.354993 0
M  V30 2325 H 220.696 0.922181 0.219742 0
M  V30 2326 H 220.402 3.23536 1.37905 0
M  V30 2327 H 220.276 2.39483 2.91424 0
M  V30 2328 H 222.663 1.46853 2.55965 0
M  V30 2329 H 222.744 2.34403 1.02415 0
M  V30 2330 H 222.388 4.53762 2.28173 0
M  V30 2331 H 222.318 3.63119 3.81381 0
M  V30 2332 H 224.809 2.88321 2.44293 0
M  V30 2333 H 225.122 6.28101 4.50232 0
M  V30 2334 H 223.467 5.64463 4.05471 0
M  V30 2335 H 226.658 3.62529 2.96126 0
M  V30 2336 H 226.831 5.17457 3.90054 0
M  V30 2337 N 220.237 -1.11381 1.11499 0
M  V30 2338 C 221.462 -1.87475 0.887019 0
M  V30 2339 C 221.887 -1.79639 -0.557796 0
M  V30 2340 O 221.245 -1.15924 -1.39396 0
M  V30 2341 C 221.293 -3.34213 1.35403 0
M  V30 2342 O 220.397 -4.0903 0.526146 0
M  V30 2343 H 219.738 -0.582099 0.319463 0
M  V30 2344 H 222.268 -1.40785 1.48461 0
M  V30 2345 H 222.278 -3.8506 1.34881 0
M  V30 2346 H 220.953 -3.39232 2.40612 0
M  V30 2347 H 219.53 -3.68082 0.597522 0
M  V30 2348 N 221.715 -0.905404 -1.28997 0
M  V30 2349 C 222.645 -0.404212 -2.29975 0
M  V30 2350 C 223.626 0.523784 -1.61835 0
M  V30 2351 O 224.811 0.433298 -1.89304 0
M  V30 2352 C 221.941 0.364042 -3.45387 0
M  V30 2353 C 220.895 -0.474048 -4.25367 0
M  V30 2354 C 220.221 0.422045 -5.33032 0
M  V30 2355 C 221.521 -1.72696 -4.92923 0
M  V30 2356 H 223.215 -1.24807 -2.72146 0
M  V30 2357 H 220.761 -0.601585 -1.30832 0
M  V30 2358 H 222.714 0.725447 -4.15109 0
M  V30 2359 H 221.438 1.24174 -3.02074 0
M  V30 2360 H 220.097 -0.81786 -3.57361 0
M  V30 2361 H 219.745 1.29804 -4.85963 0
M  V30 2362 H 219.445 -0.135057 -5.87445 0
M  V30 2363 H 220.969 0.779517 -6.05604 0
M  V30 2364 H 222.383 -1.43495 -5.55051 0
M  V30 2365 H 220.78 -2.22582 -5.57295 0
M  V30 2366 H 221.85 -2.45964 -4.17887 0
M  V30 2367 N 223.193 1.4272 -0.668489 0
M  V30 2368 C 224.442 2.00846 -0.185389 0
M  V30 2369 C 224.755 1.53442 1.21305 0
M  V30 2370 O 225.961 2.03944 1.79218 0
M  V30 2371 C 224.417 3.58805 -0.280591 0
M  V30 2372 C 224.025 4.15198 -1.68268 0
M  V30 2373 C 225.769 4.24255 0.14412 0
M  V30 2374 C 223.676 5.655 -1.73099 0
M  V30 2375 H 222.606 0.751145 -0.0655475 0
M  V30 2376 H 225.257 1.63516 -0.832752 0
M  V30 2377 H 223.639 3.93608 0.434553 0
M  V30 2378 H 224.813 3.91866 -2.42441 0
M  V30 2379 H 223.128 3.62176 -2.05469 0
M  V30 2380 H 225.725 5.34547 0.128086 0
M  V30 2381 H 226.068 3.99277 1.17827 0
M  V30 2382 H 226.601 3.94389 -0.519798 0
M  V30 2383 H 223.34 5.95268 -2.74475 0
M  V30 2384 H 222.86 5.90842 -1.03274 0
M  V30 2385 H 224.539 6.29808 -1.48158 0
M  V30 2386 N 224.671 0.411399 1.52136 0
M  V30 2387 C 225.634 -0.401089 2.25663 0
M  V30 2388 C 226.634 -0.971732 1.28117 0
M  V30 2389 O 227.824 -0.850254 1.52041 0
M  V30 2390 C 224.956 -1.56483 3.02863 0
M  V30 2391 H 226.149 0.24295 2.98914 0
M  V30 2392 H 223.702 0.163968 1.55438 0
M  V30 2393 H 224.437 -2.24567 2.33967 0
M  V30 2394 H 224.222 -1.16211 3.74483 0
M  V30 2395 H 225.712 -2.13951 3.58629 0
M  V30 2396 N 226.149 -1.5696 0.141893 0
M  V30 2397 C 227.097 -2.17784 -0.816874 0
M  V30 2398 C 228.091 -1.1334 -1.25899 0
M  V30 2399 O 229.297 -1.316 -1.22806 0
M  V30 2400 H 225.672 -0.697278 -0.281615 0
M  V30 2401 H 227.643 -2.97087 -0.279621 0
M  V30 2402 C 226.392 -2.80983 -2.04802 0
M  V30 2403 H 225.715 -3.61062 -1.7168 0
M  V30 2404 H 227.155 -3.2705 -2.69841 0
M  V30 2405 C 225.614 -1.79228 -2.8527 0
M  V30 2406 O 226.144 -1.25962 -3.8144 0
M  V30 2407 N 224.35 -1.48647 -2.49704 0
M  V30 2408 H 223.897 -1.92155 -1.71564 0
M  V30 2409 H 223.855 -0.808115 -3.03837 0
M  V30 2410 N 227.627 0.131896 -1.57047 0
M  V30 2411 C 228.557 1.16384 -2.02428 0
M  V30 2412 C 229.538 1.43936 -0.90644 0
M  V30 2413 O 230.723 1.54599 -1.17528 0
M  V30 2414 C 227.853 2.49328 -2.4177 0
M  V30 2415 C 226.807 2.36266 -3.56879 0
M  V30 2416 C 226.133 3.74057 -3.8208 0
M  V30 2417 C 227.433 1.834 -4.89042 0
M  V30 2418 H 229.127 0.786433 -2.88887 0
M  V30 2419 H 226.673 0.376855 -1.38981 0
M  V30 2420 H 228.626 3.21759 -2.7212 0
M  V30 2421 H 227.35 2.88934 -1.52266 0
M  V30 2422 H 226.009 1.66286 -3.26718 0
M  V30 2423 H 225.657 4.11125 -2.89803 0
M  V30 2424 H 225.357 3.66174 -4.59554 0
M  V30 2425 H 226.881 4.48012 -4.1487 0
M  V30 2426 H 228.295 2.45636 -5.18011 0
M  V30 2427 H 226.692 1.8637 -5.70426 0
M  V30 2428 H 227.762 0.790662 -4.7841 0
M  V30 2429 N 229.106 1.52395 0.401703 0
M  V30 2430 C 230.069 1.75636 1.47257 0
M  V30 2431 C 231.069 0.62628 1.48103 0
M  V30 2432 O 232.259 0.894227 1.49497 0
M  V30 2433 C 229.391 1.84553 2.86624 0
M  V30 2434 H 230.584 2.71241 1.27938 0
M  V30 2435 H 228.137 1.42923 0.632662 0
M  V30 2436 H 228.872 0.908882 3.11303 0
M  V30 2437 H 228.657 2.66715 2.87412 0
M  V30 2438 H 230.147 2.04251 3.64241 0
M  V30 2439 N 230.584 -0.659388 1.43143 0
M  V30 2440 C 231.547 -1.75432 1.47501 0
M  V30 2441 C 232.547 -1.56707 0.360512 0
M  V30 2442 O 233.737 -1.62717 0.622002 0
M  V30 2443 C 230.869 -3.14239 1.32162 0
M  V30 2444 H 232.062 -1.7295 2.45006 0
M  V30 2445 H 229.615 -0.870469 1.29817 0
M  V30 2446 H 230.35 -3.22336 0.356401 0
M  V30 2447 H 230.135 -3.29235 2.12948 0
M  V30 2448 H 231.625 -3.94094 1.3813 0
M  V30 2449 N 232.062 -1.29571 -0.897171 0
M  V30 2450 C 233.025 -1.14913 -1.98312 0
M  V30 2451 C 234.025 -0.0838629 -1.60581 0
M  V30 2452 O 235.215 -0.331006 -1.71026 0
M  V30 2453 C 232.347 -0.757835 -3.3237 0
M  V30 2454 H 233.54 -2.11377 -2.12743 0
M  V30 2455 H 231.093 -1.12793 -1.08201 0
M  V30 2456 H 231.828 0.206837 -3.2364 0
M  V30 2457 H 231.613 -1.52755 -3.61121 0
M  V30 2458 H 233.103 -0.678408 -4.12053 0
M  V30 2459 N 233.54 1.10788 -1.12088 0
M  V30 2460 C 234.488 2.19111 -0.780587 0
M  V30 2461 C 235.482 1.67818 0.230961 0
M  V30 2462 O 236.688 1.79777 0.0895427 0
M  V30 2463 H 233.063 0.714477 -0.234578 0
M  V30 2464 H 235.034 2.45055 -1.70266 0
M  V30 2465 C 233.783 3.46818 -0.24747 0
M  V30 2466 H 233.106 3.86646 -1.01712 0
M  V30 2467 H 234.546 4.23973 -0.0476291 0
M  V30 2468 C 233.005 3.20968 1.02378 0
M  V30 2469 O 233.535 3.42298 2.10226 0
M  V30 2470 N 231.741 2.74658 0.949271 0
M  V30 2471 H 231.288 2.57501 0.0715173 0
M  V30 2472 H 231.246 2.57739 1.80049 0
M  V30 2473 N 235.018 0.912232 1.28515 0
M  V30 2474 C 236.258 0.551677 1.96814 0
M  V30 2475 C 236.622 -0.887825 1.7024 0
M  V30 2476 O 237.823 -1.35588 2.32098 0
M  V30 2477 C 236.094 0.850555 3.47132 0
M  V30 2478 S 237.653 0.59619 4.34731 0
M  V30 2479 H 234.471 0.204191 0.681049 0
M  V30 2480 H 237.073 1.17736 1.56072 0
M  V30 2481 H 235.777 1.8962 3.63968 0
M  V30 2482 H 235.308 0.213471 3.9282 0
M  V30 2483 H 237.323 -0.553154 4.93107 0
M  V30 2484 N 236.496 -1.42363 0.676048 0
M  V30 2485 C 237.726 -2.05561 0.206967 0
M  V30 2486 C 238.134 -1.50887 -1.14148 0
M  V30 2487 O 237.477 -0.643933 -1.72044 0
M  V30 2488 C 237.539 -3.5944 0.0659508 0
M  V30 2489 C 237.203 -4.36812 1.34331 0
M  V30 2490 C 238.2 -4.67383 2.27704 0
M  V30 2491 C 235.885 -4.76429 1.59125 0
M  V30 2492 C 237.879 -5.36509 3.44147 0
M  V30 2493 C 235.566 -5.45294 2.75857 0
M  V30 2494 C 236.564 -5.75259 3.68193 0
M  V30 2495 O 236.252 -6.42712 4.82883 0
M  V30 2496 H 235.984 -0.668872 0.0979084 0
M  V30 2497 H 238.538 -1.83467 0.923531 0
M  V30 2498 H 236.768 -3.80197 -0.706204 0
M  V30 2499 H 238.457 -4.0427 -0.363418 0
M  V30 2500 H 239.223 -4.37275 2.09799 0
M  V30 2501 H 235.102 -4.52498 0.881258 0
M  V30 2502 H 238.646 -5.59814 4.16238 0
M  V30 2503 H 234.543 -5.7482 2.93688 0
M  V30 2504 H 235.311 -6.61204 4.82444 0
M  V30 2505 N 237.974 -0.419461 -1.51915 0
M  V30 2506 C 238.921 0.400927 -2.27291 0
M  V30 2507 C 239.891 1.03224 -1.30131 0
M  V30 2508 O 241.076 1.05455 -1.59009 0
M  V30 2509 C 238.216 1.50603 -3.10504 0
M  V30 2510 C 237.329 0.89462 -4.22635 0
M  V30 2511 C 236.464 1.97328 -4.93189 0
M  V30 2512 C 235.503 1.33935 -5.97267 0
M  V30 2513 N 234.64 2.3586 -6.61298 0
M  V30 2514 H 239.48 -0.248251 -2.96964 0
M  V30 2515 H 237.017 -0.134266 -1.46486 0
M  V30 2516 H 238.975 2.15783 -3.57062 0
M  V30 2517 H 237.605 2.12509 -2.42981 0
M  V30 2518 H 236.657 0.131583 -3.80172 0
M  V30 2519 H 237.969 0.391641 -4.9726 0
M  V30 2520 H 237.123 2.70211 -5.43204 0
M  V30 2521 H 235.862 2.50994 -4.18155 0
M  V30 2522 H 234.867 0.595896 -5.46561 0
M  V30 2523 H 236.092 0.810252 -6.74249 0
M  V30 2524 H 234.038 2.88639 -5.89087 0
M  V30 2525 H 233.955 1.90403 -7.3163 0
M  V30 2526 H 235.223 3.08282 -7.15949 0
M  V30 2527 N 239.452 1.56882 -0.150215 0
M  V30 2528 C 240.399 2.16922 0.788244 0
M  V30 2529 C 241.369 1.10303 1.24187 0
M  V30 2530 O 242.554 1.38359 1.31383 0
M  V30 2531 C 239.694 2.79754 2.02068 0
M  V30 2532 C 238.807 4.00775 1.61257 0
M  V30 2533 C 237.942 4.51595 2.79705 0
M  V30 2534 C 236.981 5.65074 2.35282 0
M  V30 2535 N 236.118 6.10499 3.4675 0
M  V30 2536 H 240.958 2.96779 0.269444 0
M  V30 2537 H 238.495 1.46599 0.12128 0
M  V30 2538 H 240.453 3.14329 2.74323 0
M  V30 2539 H 239.083 2.02536 2.51354 0
M  V30 2540 H 238.135 3.72158 0.787553 0
M  V30 2541 H 239.447 4.82978 1.24633 0
M  V30 2542 H 238.601 4.88242 3.60145 0
M  V30 2543 H 237.34 3.68406 3.19576 0
M  V30 2544 H 236.345 5.28 1.53283 0
M  V30 2545 H 237.57 6.50052 1.96493 0
M  V30 2546 H 235.516 5.30243 3.86236 0
M  V30 2547 H 235.433 6.87637 3.14152 0
M  V30 2548 H 236.701 6.51791 4.27537 0
M  V30 2549 N 240.93 -0.123565 1.57115 0
M  V30 2550 C 241.84 -1.17074 2.033 0
M  V30 2551 C 242.856 -1.4561 0.952559 0
M  V30 2552 O 244.032 -1.56817 1.26374 0
M  V30 2553 C 241.097 -2.47857 2.42421 0
M  V30 2554 C 240.158 -2.26758 3.64526 0
M  V30 2555 C 239.391 -3.51305 4.01771 0
M  V30 2556 O 239.614 -4.5843 3.39409 0
M  V30 2557 O 238.548 -3.42578 4.94898 0
M  V30 2558 H 242.374 -0.808555 2.92739 0
M  V30 2559 H 239.959 -0.334027 1.45618 0
M  V30 2560 H 241.841 -3.2492 2.68338 0
M  V30 2561 H 240.516 -2.83558 1.5613 0
M  V30 2562 H 239.423 -1.47569 3.43765 0
M  V30 2563 H 240.756 -1.95963 4.51508 0
M  V30 2564 N 242.408 -1.52605 -0.393616 0
M  V30 2565 C 243.355 -1.77055 -1.48054 0
M  V30 2566 C 244.325 -0.61358 -1.54352 0
M  V30 2567 O 245.51 -0.852806 -1.70681 0
M  V30 2568 C 242.65 -1.94108 -2.85335 0
M  V30 2569 C 241.763 -3.21792 -2.88226 0
M  V30 2570 C 240.898 -3.29188 -4.16904 0
M  V30 2571 C 239.937 -4.51013 -4.13828 0
M  V30 2572 N 239.074 -4.55716 -5.34105 0
M  V30 2573 H 243.914 -2.69815 -1.26506 0
M  V30 2574 H 241.451 -1.33683 -0.61379 0
M  V30 2575 H 243.409 -2.01979 -3.65049 0
M  V30 2576 H 242.039 -1.04713 -3.05344 0
M  V30 2577 H 241.091 -3.23015 -2.00911 0
M  V30 2578 H 242.403 -4.11557 -2.8182 0
M  V30 2579 H 241.557 -3.36216 -5.05018 0
M  V30 2580 H 240.296 -2.37389 -4.26026 0
M  V30 2581 H 239.301 -4.44115 -3.24102 0
M  V30 2582 H 240.526 -5.44123 -4.06333 0
M  V30 2583 H 238.472 -3.66807 -5.43865 0
M  V30 2584 H 238.389 -5.39346 -5.29756 0
M  V30 2585 H 239.657 -4.66993 -6.2413 0
M  V30 2586 N 243.887 0.651787 -1.4349 0
M  V30 2587 C 244.837 1.75783 -1.45205 0
M  V30 2588 C 245.821 1.57679 -0.320328 0
M  V30 2589 O 247.013 1.67767 -0.564211 0
M  V30 2590 C 244.142 3.14377 -1.3792 0
M  V30 2591 C 243.228 3.38023 -2.56127 0
M  V30 2592 N 243.619 3.32135 -3.81471 0
M  V30 2593 C 241.917 3.68747 -2.50882 0
M  V30 2594 C 242.618 3.55902 -4.60118 0
M  V30 2595 N 241.594 3.77783 -3.90872 0
M  V30 2596 H 245.396 1.69657 -2.39987 0
M  V30 2597 H 242.91 0.853508 -1.38163 0
M  V30 2598 H 244.907 3.93666 -1.37231 0
M  V30 2599 H 243.567 3.21683 -0.441596 0
M  V30 2600 H 244.578 3.11515 -4.13738 0
M  V30 2601 H 241.255 3.8316 -1.65816 0
M  V30 2602 H 242.645 3.57116 -5.69138 0
M  V30 2603 N 245.365 1.30045 0.890287 0
M  V30 2604 C 246.295 1.18541 2.01172 0
M  V30 2605 C 247.276 0.0773356 1.69924 0
M  V30 2606 O 248.461 0.25845 1.92473 0
M  V30 2607 C 245.591 0.870941 3.36202 0
M  V30 2608 C 244.545 1.93637 3.81692 0
M  V30 2609 C 243.871 1.475 5.13953 0
M  V30 2610 C 245.171 3.34666 4.00994 0
M  V30 2611 H 246.865 2.12359 2.11054 0
M  V30 2612 H 244.411 1.02238 1.01407 0
M  V30 2613 H 246.364 0.777141 4.14172 0
M  V30 2614 H 245.088 -0.102926 3.26438 0
M  V30 2615 H 243.747 2.01972 3.05946 0
M  V30 2616 H 243.395 0.489551 5.00612 0
M  V30 2617 H 243.095 2.1876 5.4536 0
M  V30 2618 H 244.619 1.39489 5.94454 0
M  V30 2619 H 246.033 3.2912 4.69417 0
M  V30 2620 H 244.43 4.03966 4.43769 0
M  V30 2621 H 245.5 3.76949 3.05021 0
M  V30 2622 N 246.843 -1.10192 1.12674 0
M  V30 2623 C 248.12 -1.78717 0.794965 0
M  V30 2624 C 248.5 -1.98628 -0.714853 0
M  V30 2625 O 247.848 -1.58135 -1.64941 0
M  V30 2626 C 248.058 -3.11546 1.5729 0
M  V30 2627 C 249.406 -3.86382 1.76052 0
M  V30 2628 O 250.43 -3.21274 1.53823 0
M  V30 2629 O 249.289 -5.03246 2.13087 0
M  V30 2630 H 246.383 -0.774702 0.289423 0
M  V30 2631 H 248.929 -1.16819 1.23091 0
M  V30 2632 H 247.701 -2.92489 2.59935 0
M  V30 2633 H 247.324 -3.81164 1.13137 0
M  V30 2634 N 248.321 -0.919034 -1.28029 0
M  V30 2635 C 249.251 -0.428581 -2.29533 0
M  V30 2636 C 250.232 0.50659 -1.62381 0
M  V30 2637 O 251.417 0.413195 -1.89753 0
M  V30 2638 C 248.547 0.327388 -3.45753 0
M  V30 2639 C 247.501 -0.519137 -4.2484 0
M  V30 2640 C 246.827 0.365486 -5.33449 0
M  V30 2641 C 248.127 -1.77914 -4.91064 0
M  V30 2642 H 249.821 -1.27687 -2.70807 0
M  V30 2643 H 247.367 -0.615428 -1.30186 0
M  V30 2644 H 249.32 0.681378 -4.15855 0
M  V30 2645 H 248.044 1.20963 -3.03374 0
M  V30 2646 H 246.703 -0.855717 -3.56473 0
M  V30 2647 H 246.351 1.24642 -4.87312 0
M  V30 2648 H 246.051 -0.197356 -5.87268 0
M  V30 2649 H 247.575 0.715241 -6.06396 0
M  V30 2650 H 248.989 -1.49374 -5.53498 0
M  V30 2651 H 247.386 -2.2848 -5.54903 0
M  V30 2652 H 248.456 -2.50382 -4.15255 0
M  V30 2653 N 249.799 1.42003 -0.683588 0
M  V30 2654 C 250.709 2.34597 -0.0109075 0
M  V30 2655 C 251.725 1.55576 0.779245 0
M  V30 2656 O 252.901 1.88107 0.719555 0
M  V30 2657 C 249.966 3.34199 0.922588 0
M  V30 2658 C 249.027 4.29115 0.125984 0
M  V30 2659 C 248.26 5.23959 1.01502 0
M  V30 2660 O 248.483 5.23952 2.25456 0
M  V30 2661 O 247.417 6.00053 0.47111 0
M  V30 2662 H 251.243 2.93675 -0.773853 0
M  V30 2663 H 248.828 1.42654 -0.443861 0
M  V30 2664 H 250.71 3.95365 1.45823 0
M  V30 2665 H 249.385 2.77582 1.66523 0
M  V30 2666 H 248.292 3.71335 -0.453969 0
M  V30 2667 H 249.625 4.88798 -0.577736 0
M  V30 2668 N 251.277 0.427512 1.51691 0
M  V30 2669 C 252.224 -0.388867 2.275 0
M  V30 2670 C 253.194 -1.02532 1.30677 0
M  V30 2671 O 254.379 -1.0461 1.59566 0
M  V30 2672 C 251.519 -1.48954 3.11298 0
M  V30 2673 C 250.632 -0.872194 4.23104 0
M  V30 2674 C 249.767 -1.94709 4.94228 0
M  V30 2675 C 248.806 -1.30766 5.97969 0
M  V30 2676 N 247.943 -2.32349 6.62539 0
M  V30 2677 H 252.783 0.263997 2.96828 0
M  V30 2678 H 250.32 0.142033 1.46413 0
M  V30 2679 H 252.278 -2.13887 3.58201 0
M  V30 2680 H 250.908 -2.11217 2.44105 0
M  V30 2681 H 249.96 -0.111419 3.80237 0
M  V30 2682 H 251.272 -0.365264 4.97461 0
M  V30 2683 H 250.426 -2.67327 5.44629 0
M  V30 2684 H 249.165 -2.48773 4.1948 0
M  V30 2685 H 248.17 -0.566902 5.4687 0
M  V30 2686 H 249.395 -0.774483 6.74669 0
M  V30 2687 H 247.341 -2.85511 5.90609 0
M  V30 2688 H 247.258 -1.8652 7.3263 0
M  V30 2689 H 248.526 -3.04481 7.17574 0
M  V30 2690 N 252.755 -1.56801 0.158532 0
M  V30 2691 C 253.703 -2.18638 -0.793729 0
M  V30 2692 C 254.697 -1.14669 -1.24689 0
M  V30 2693 O 255.903 -1.32895 -1.21403 0
M  V30 2694 H 252.278 -0.700226 -0.274204 0
M  V30 2695 H 254.249 -2.97367 -0.248095 0
M  V30 2696 C 252.998 -2.83139 -2.0181 0
M  V30 2697 H 252.321 -3.62863 -1.67841 0
M  V30 2698 H 253.761 -3.29894 -2.66357 0
M  V30 2699 C 252.22 -1.82244 -2.83353 0
M  V30 2700 O 252.75 -1.3 -3.80083 0
M  V30 2701 N 250.956 -1.51288 -2.48114 0
M  V30 2702 H 250.503 -1.93964 -1.69516 0
M  V30 2703 H 250.461 -0.840296 -3.02963 0
M  V30 2704 N 254.233 0.115231 -1.57178 0
M  V30 2705 C 255.479 0.818565 -1.86202 0
M  V30 2706 C 255.834 1.77316 -0.746785 0
M  V30 2707 O 255.127 1.89923 0.25291 0
M  V30 2708 C 255.321 1.60324 -3.19423 0
M  V30 2709 C 255.15 0.726138 -4.43799 0
M  V30 2710 C 253.92 0.379535 -5.03873 0
M  V30 2711 C 256.118 0.0420774 -5.14283 0
M  V30 2712 N 254.1 -0.507841 -6.11796 0
M  V30 2713 C 255.471 -0.704152 -6.15988 0
M  V30 2714 C 257.526 -0.0339486 -4.97888 0
M  V30 2715 C 256.229 -1.51927 -7.03072 0
M  V30 2716 C 258.255 -0.835906 -5.85463 0
M  V30 2717 C 257.617 -1.57031 -6.86673 0
M  V30 2718 H 253.716 0.276343 -0.731545 0
M  V30 2719 H 256.3 0.0821032 -1.94527 0
M  V30 2720 H 254.471 2.31072 -3.12186 0
M  V30 2721 H 256.203 2.2522 -3.36241 0
M  V30 2722 H 252.958 0.722634 -4.68054 0
M  V30 2723 H 253.382 -0.94349 -6.70393 0
M  V30 2724 H 258.024 0.519496 -4.19596 0
M  V30 2725 H 255.742 -2.08386 -7.80769 0
M  V30 2726 H 259.328 -0.89714 -5.74841 0
M  V30 2727 H 258.208 -2.18088 -7.53264 0
M  V30 2728 N 255.711 1.52812 0.385517 0
M  V30 2729 C 256.644 1.72592 1.49289 0
M  V30 2730 C 257.622 0.573819 1.52138 0
M  V30 2731 O 258.806 0.80404 1.70492 0
M  V30 2732 C 255.933 1.78669 2.87741 0
M  V30 2733 C 254.979 3.00455 3.02703 0
M  V30 2734 S 255.812 4.60366 2.73538 0
M  V30 2735 C 256.968 4.69263 4.14177 0
M  V30 2736 H 257.201 2.66248 1.32285 0
M  V30 2737 H 254.734 1.43148 0.578611 0
M  V30 2738 H 256.692 1.82855 3.67524 0
M  V30 2739 H 255.353 0.861 3.02069 0
M  V30 2740 H 254.546 3.01258 4.04054 0
M  V30 2741 H 254.148 2.94278 2.30817 0
M  V30 2742 H 256.44 4.48092 5.08153 0
M  V30 2743 H 257.383 5.71276 4.18388 0
M  V30 2744 H 257.791 3.98072 4.00249 0
M  V30 2745 N 257.189 -0.644168 1.43834 0
M  V30 2746 C 258.119 -1.76814 1.52509 0
M  V30 2747 C 259.1 -1.65823 0.379052 0
M  V30 2748 O 260.285 -1.84781 0.597466 0
M  V30 2749 C 257.415 -3.15288 1.4564 0
M  V30 2750 C 256.369 -3.41053 2.58586 0
M  V30 2751 C 255.695 -4.79421 2.36769 0
M  V30 2752 C 256.995 -3.34902 4.00797 0
M  V30 2753 H 258.689 -1.69812 2.46586 0
M  V30 2754 H 256.235 -0.815542 1.1868 0
M  V30 2755 H 258.188 -3.93681 1.50311 0
M  V30 2756 H 256.912 -3.23043 0.480725 0
M  V30 2757 H 255.571 -2.65035 2.53282 0
M  V30 2758 H 255.219 -4.83863 1.37424 0
M  V30 2759 H 254.919 -4.9762 3.12487 0
M  V30 2760 H 256.443 -5.6006 2.43238 0
M  V30 2761 H 257.857 -4.03218 4.07539 0
M  V30 2762 H 256.254 -3.64637 4.76613 0
M  V30 2763 H 257.324 -2.32928 4.25291 0
M  V30 2764 N 258.668 -1.30515 -0.883378 0
M  V30 2765 C 259.914 -1.19607 -1.63774 0
M  V30 2766 C 260.247 0.248314 -1.92606 0
M  V30 2767 O 259.522 1.17742 -1.54813 0
M  V30 2768 C 259.805 -2.02669 -2.97653 0
M  V30 2769 C 259.658 -3.55335 -2.75784 0
M  V30 2770 C 260.977 -1.86573 -3.98596 0
M  V30 2771 H 258.096 -0.435856 -0.594305 0
M  V30 2772 H 260.738 -1.60165 -1.02212 0
M  V30 2773 H 258.888 -1.68208 -3.50197 0
M  V30 2774 H 260.56 -3.99863 -2.30016 0
M  V30 2775 H 258.803 -3.79438 -2.1026 0
M  V30 2776 H 259.474 -4.08745 -3.70988 0
M  V30 2777 H 261.95 -2.16703 -3.55217 0
M  V30 2778 H 260.826 -2.47014 -4.90179 0
M  V30 2779 H 261.087 -0.825321 -4.34328 0
M  V30 2780 N 260.146 1.09593 -1.13257 0
M  V30 2781 C 261.056 2.19739 -0.821691 0
M  V30 2782 C 262.072 1.72926 0.19302 0
M  V30 2783 O 263.248 2.01385 0.0244895 0
M  V30 2784 C 260.313 3.45482 -0.290333 0
M  V30 2785 C 259.374 4.06985 -1.36607 0
M  V30 2786 C 258.607 5.26726 -0.859975 0
M  V30 2787 O 258.83 5.69594 0.303082 0
M  V30 2788 O 257.764 5.7931 -1.63351 0
M  V30 2789 H 261.59 2.48781 -1.74189 0
M  V30 2790 H 259.175 1.18496 -0.909894 0
M  V30 2791 H 261.057 4.214 0.000674022 0
M  V30 2792 H 259.732 3.18047 0.602306 0
M  V30 2793 H 258.639 3.32712 -1.71037 0
M  V30 2794 H 259.972 4.38643 -2.23279 0
M  V30 2795 N 261.624 0.925811 1.2754 0
M  V30 2796 C 262.571 0.422045 2.26908 0
M  V30 2797 C 263.541 -0.510029 1.58076 0
M  V30 2798 O 264.726 -0.429599 1.85901 0
M  V30 2799 C 261.866 -0.320837 3.43605 0
M  V30 2800 C 260.979 0.64513 4.27156 0
M  V30 2801 C 260.114 -0.117405 5.3107 0
M  V30 2802 C 259.153 0.841391 6.0629 0
M  V30 2803 N 258.29 0.111604 7.02011 0
M  V30 2804 H 263.13 1.27441 2.69375 0
M  V30 2805 H 260.667 0.639697 1.32462 0
M  V30 2806 H 262.625 -0.76785 4.10073 0
M  V30 2807 H 261.255 -1.13745 3.02096 0
M  V30 2808 H 260.307 1.21067 3.6062 0
M  V30 2809 H 261.619 1.37797 4.79389 0
M  V30 2810 H 260.773 -0.624422 6.03478 0
M  V30 2811 H 259.512 -0.883219 4.79636 0
M  V30 2812 H 258.517 1.35967 5.32722 0
M  V30 2813 H 259.742 1.60696 6.59813 0
M  V30 2814 H 257.688 -0.635999 6.5291 0
M  V30 2815 H 257.605 0.784044 7.51923 0
M  V30 2816 H 258.873 -0.374823 7.78598 0
M  V30 2817 N 263.102 -1.41638 0.69111 0
M  V30 2818 C 264.065 -2.29178 0.0319786 0
M  V30 2819 C 265.065 -1.44153 -0.712496 0
M  V30 2820 O 266.255 -1.65354 -0.548053 0
M  V30 2821 C 263.387 -3.26952 -0.965161 0
M  V30 2822 H 264.58 -2.88959 0.802681 0
M  V30 2823 H 262.133 -1.4955 0.454356 0
M  V30 2824 H 262.868 -2.72142 -1.76378 0
M  V30 2825 H 262.653 -3.89685 -0.434522 0
M  V30 2826 H 264.143 -3.92561 -1.42428 0
M  V30 2827 N 264.58 -0.43555 -1.51462 0
M  V30 2828 C 265.996 -0.0877501 -1.59359 0
M  V30 2829 C 266.196 1.4027 -1.4466 0
M  V30 2830 O 265.252 2.17243 -1.28693 0
M  V30 2831 C 266.565 -0.606264 -2.94525 0
M  V30 2832 C 268.113 -0.566548 -3.0783 0
M  V30 2833 C 268.588 -1.06201 -4.45517 0
M  V30 2834 N 270.079 -1.01992 -4.51832 0
M  V30 2835 C 270.814 -1.37417 -5.5669 0
M  V30 2836 N 270.31 -1.80119 -6.68976 0
M  V30 2837 N 272.103 -1.29245 -5.47039 0
M  V30 2838 H 264.254 -1.40533 -1.59261 0
M  V30 2839 H 266.517 -0.578992 -0.750648 0
M  V30 2840 H 266.223 -1.64901 -3.10645 0
M  V30 2841 H 266.097 -0.0302097 -3.77188 0
M  V30 2842 H 268.484 0.467208 -2.91378 0
M  V30 2843 H 268.565 -1.17898 -2.2701 0
M  V30 2844 H 268.209 -2.09422 -4.62715 0
M  V30 2845 H 268.139 -0.426127 -5.24873 0
M  V30 2846 H 270.63 -0.706308 -3.71241 0
M  V30 2847 H 270.943 -2.05392 -7.45006 0
M  V30 2848 H 269.288 -1.84044 -6.70189 0
M  V30 2849 H 272.479 -0.957522 -4.58202 0
M  V30 2850 H 272.652 -1.57182 -6.28648 0
M  V30 2851 N 266.058 1.56714 -0.166846 0
M  V30 2852 C 267.304 1.97039 0.479962 0
M  V30 2853 C 267.637 1.05264 1.63197 0
M  V30 2854 O 266.912 0.0988833 1.94248 0
M  V30 2855 C 267.195 3.46867 0.967212 0
M  V30 2856 C 267.048 4.49421 -0.18466 0
M  V30 2857 C 268.367 3.9968 1.84238 0
M  V30 2858 H 265.486 0.71641 0.172992 0
M  V30 2859 H 268.128 1.8832 -0.252079 0
M  V30 2860 H 266.278 3.54428 1.59101 0
M  V30 2861 H 267.95 4.53924 -0.821621 0
M  V30 2862 H 266.193 4.25573 -0.840837 0
M  V30 2863 H 266.864 5.51644 0.198317 0
M  V30 2864 H 269.34 3.94723 1.31655 0
M  V30 2865 H 268.216 5.04941 2.15234 0
M  V30 2866 H 268.477 3.43226 2.78654 0
M  V30 2867 N 267.536 -0.106894 1.57237 0
M  V30 2868 C 268.776 -0.818277 1.87306 0
M  V30 2869 C 269.14 -1.76474 0.756371 0
M  V30 2870 O 270.341 -2.5186 0.939155 0
M  V30 2871 C 268.612 -1.53806 3.22612 0
M  V30 2872 S 270.171 -2.28935 3.74345 0
M  V30 2873 H 266.989 -0.272862 0.656557 0
M  V30 2874 H 269.591 -0.075988 1.95352 0
M  V30 2875 H 268.295 -0.834951 4.01817 0
M  V30 2876 H 267.826 -2.32049 3.17674 0
M  V30 2877 H 269.841 -3.54871 3.46815 0
M  V30 2878 N 269.014 -1.53014 -0.377408 0
M  V30 2879 C 270.244 -1.72265 -1.14054 0
M  V30 2880 C 270.652 -0.44601 -1.83868 0
M  V30 2881 O 269.995 0.590095 -1.73964 0
M  V30 2882 C 270.057 -2.82492 -2.22348 0
M  V30 2883 C 269.721 -4.23233 -1.72402 0
M  V30 2884 C 270.718 -5.05992 -1.19448 0
M  V30 2885 C 268.403 -4.696 -1.78273 0
M  V30 2886 C 270.397 -6.33203 -0.730268 0
M  V30 2887 C 268.084 -5.96792 -1.31464 0
M  V30 2888 C 269.082 -6.78424 -0.789297 0
M  V30 2889 O 268.77 -8.0323 -0.328077 0
M  V30 2890 H 268.502 -0.579873 -0.347453 0
M  V30 2891 H 271.056 -2.00502 -0.445882 0
M  V30 2892 H 269.286 -2.49702 -2.95272 0
M  V30 2893 H 270.975 -2.90034 -2.83963 0
M  V30 2894 H 271.741 -4.71349 -1.14259 0
M  V30 2895 H 267.62 -4.06142 -2.18106 0
M  V30 2896 H 271.164 -6.96868 -0.319542 0
M  V30 2897 H 267.061 -6.30937 -1.36342 0
M  V30 2898 H 267.829 -8.1727 -0.448493 0
M  V30 2899 N 270.492 0.636531 -1.44174 0
M  V30 2900 C 271.741 1.39213 -1.45954 0
M  V30 2901 C 272.054 1.95374 -0.0939119 0
M  V30 2902 O 273.26 2.71498 0.0107767 0
M  V30 2903 C 271.716 2.52025 -2.56927 0
M  V30 2904 C 271.324 2.024 -3.99673 0
M  V30 2905 C 273.068 3.29269 -2.67922 0
M  V30 2906 C 270.975 3.12521 -5.0208 0
M  V30 2907 H 269.905 0.523132 -0.542999 0
M  V30 2908 H 272.556 0.685349 -1.70221 0
M  V30 2909 H 270.938 3.25253 -2.25891 0
M  V30 2910 H 272.112 1.36073 -4.40251 0
M  V30 2911 H 270.427 1.37987 -3.92872 0
M  V30 2912 H 273.024 4.11352 -3.41605 0
M  V30 2913 H 273.367 3.78397 -1.73555 0
M  V30 2914 H 273.9 2.63129 -2.98342 0
M  V30 2915 H 270.639 2.68343 -5.98057 0
M  V30 2916 H 270.159 3.77507 -4.66099 0
M  V30 2917 H 271.838 3.77385 -5.25538 0
M  V30 2918 N 271.97 1.30982 0.876444 0
M  V30 2919 C 272.933 1.18054 1.96459 0
M  V30 2920 C 273.933 0.109399 1.60427 0
M  V30 2921 O 275.123 0.358173 1.70478 0
M  V30 2922 C 272.255 0.810616 3.31122 0
M  V30 2923 H 273.448 2.14735 2.09354 0
M  V30 2924 H 271.001 1.145 1.06392 0
M  V30 2925 H 271.736 -0.155322 3.23928 0
M  V30 2926 H 271.521 1.58481 3.58645 0
M  V30 2927 H 273.011 0.743876 4.10921 0
M  V30 2928 N 273.449 -1.08991 1.13837 0
M  V30 2929 C 274.697 -1.80899 0.901098 0
M  V30 2930 C 275.018 -1.86356 -0.574134 0
M  V30 2931 O 274.288 -1.35235 -1.41733 0
M  V30 2932 H 272.868 -0.669966 0.330386 0
M  V30 2933 H 275.53 -1.318 1.43578 0
M  V30 2934 H 274.626 -2.83929 1.29578 0
M  V30 2935 N 274.927 -0.932562 -1.27047 0
M  V30 2936 C 276.174 -0.575559 -1.94148 0
M  V30 2937 C 276.502 0.883984 -1.73251 0
M  V30 2938 O 275.757 1.64655 -1.0577 0
M  V30 2939 C 276.056 -0.853713 -3.47054 0
M  V30 2940 C 275.722 -2.29577 -3.88079 0
M  V30 2941 C 274.384 -2.68999 -3.9899 0
M  V30 2942 C 276.736 -3.23331 -4.08787 0
M  V30 2943 C 274.064 -4.01289 -4.28 0
M  V30 2944 C 276.416 -4.55207 -4.39282 0
M  V30 2945 C 275.08 -4.94457 -4.48407 0
M  V30 2946 H 274.35 -0.210612 -0.710439 0
M  V30 2947 H 276.997 -1.17744 -1.51025 0
M  V30 2948 H 275.302 -0.169204 -3.91434 0
M  V30 2949 H 276.999 -0.55639 -3.97121 0
M  V30 2950 H 273.589 -1.97994 -3.80127 0
M  V30 2951 H 277.773 -2.94074 -3.99793 0
M  V30 2952 H 273.029 -4.31374 -4.33275 0
M  V30 2953 H 277.203 -5.27852 -4.54252 0
M  V30 2954 H 274.83 -5.96994 -4.7064 0
M  V30 2955 N 276.405 1.4127 -0.698611 0
M  V30 2956 C 277.652 2.0118 -0.230865 0
M  V30 2957 C 277.98 1.55338 1.17049 0
M  V30 2958 O 277.235 0.756775 1.80475 0
M  V30 2959 C 277.534 3.56592 -0.240192 0
M  V30 2960 C 277.2 4.21955 -1.58948 0
M  V30 2961 C 275.862 4.39524 -1.95887 0
M  V30 2962 C 278.214 4.58576 -2.47704 0
M  V30 2963 C 275.542 4.90992 -3.2116 0
M  V30 2964 C 277.894 5.11435 -3.72313 0
M  V30 2965 C 276.558 5.27215 -4.0939 0
M  V30 2966 H 275.828 0.736169 -0.0844796 0
M  V30 2967 H 278.475 1.69124 -0.8983 0
M  V30 2968 H 276.78 3.88456 0.510797 0
M  V30 2969 H 278.477 4.00758 0.139296 0
M  V30 2970 H 275.067 4.08657 -1.29219 0
M  V30 2971 H 279.251 4.44654 -2.20445 0
M  V30 2972 H 274.507 5.01393 -3.49878 0
M  V30 2973 H 278.681 5.38752 -4.4127 0
M  V30 2974 H 276.308 5.66859 -5.06533 0
M  V30 2975 N 277.883 0.443576 1.51229 0
M  V30 2976 C 278.813 -0.355142 2.30783 0
M  V30 2977 C 279.794 -1.0154 1.36468 0
M  V30 2978 O 280.979 -1.01785 1.65389 0
M  V30 2979 C 278.109 -1.45312 3.15439 0
M  V30 2980 C 277.063 -0.916002 4.18083 0
M  V30 2981 C 276.389 -2.1102 4.91299 0
M  V30 2982 C 277.689 0.0538602 5.22272 0
M  V30 2983 H 279.383 0.308767 2.97804 0
M  V30 2984 H 276.929 0.149937 1.43217 0
M  V30 2985 H 278.882 -2.01914 3.69876 0
M  V30 2986 H 277.606 -2.14541 2.46252 0
M  V30 2987 H 276.265 -0.372145 3.64706 0
M  V30 2988 H 275.913 -2.78882 4.18609 0
M  V30 2989 H 275.613 -1.75717 5.60712 0
M  V30 2990 H 277.137 -2.68164 5.48562 0
M  V30 2991 H 278.551 -0.422069 5.71744 0
M  V30 2992 H 276.948 0.319776 5.99247 0
M  V30 2993 H 278.018 0.98858 4.74716 0
M  V30 2994 N 279.361 -1.56624 0.175154 0
M  V30 2995 C 280.589 -2.01374 -0.474971 0
M  V30 2996 C 281.004 -1.05537 -1.56548 0
M  V30 2997 O 280.361 -0.0568668 -1.82411 0
M  V30 2998 C 280.412 -3.45923 -1.04975 0
M  V30 2999 O 280.133 -4.381 -0.00276605 0
M  V30 3000 C 281.634 -4.06093 -1.77773 0
M  V30 3001 H 278.854 -0.659962 -0.121206 0
M  V30 3002 H 281.398 -2.02601 0.27801 0
M  V30 3003 H 279.553 -3.45458 -1.75321 0
M  V30 3004 H 279.967 -5.22753 -0.427681 0
M  V30 3005 H 281.441 -5.09147 -2.13245 0
M  V30 3006 H 281.918 -3.48405 -2.67414 0
M  V30 3007 H 282.524 -4.10272 -1.12059 0
M  V30 3008 N 280.839 0.0985539 -1.57292 0
M  V30 3009 C 282.085 0.803867 -1.86188 0
M  V30 3010 C 282.418 1.78549 -0.763794 0
M  V30 3011 O 281.693 1.93153 0.22855 0
M  V30 3012 C 281.976 1.53568 -3.25713 0
M  V30 3013 C 281.829 0.572277 -4.46145 0
M  V30 3014 C 283.148 2.48708 -3.63087 0
M  V30 3015 H 280.267 0.290781 -0.677211 0
M  V30 3016 H 282.909 0.0675783 -1.8988 0
M  V30 3017 H 281.059 2.16332 -3.22696 0
M  V30 3018 H 282.731 -0.0480894 -4.61275 0
M  V30 3019 H 280.974 -0.114618 -4.33649 0
M  V30 3020 H 281.645 1.12139 -5.40489 0
M  V30 3021 H 284.121 1.96039 -3.67026 0
M  V30 3022 H 282.997 2.96932 -4.61652 0
M  V30 3023 H 283.258 3.32309 -2.91588 0
M  V30 3024 N 282.317 1.53212 0.369288 0
M  V30 3025 C 283.542 1.73423 1.1375 0
M  V30 3026 C 283.967 0.460404 1.82378 0
M  V30 3027 O 283.325 -0.585298 1.71592 0
M  V30 3028 C 283.373 2.89769 2.1463 0
M  V30 3029 O 282.477 2.58119 3.21634 0
M  V30 3030 H 281.818 0.576061 0.330227 0
M  V30 3031 H 284.348 2.00083 0.427547 0
M  V30 3032 H 284.358 3.15829 2.58294 0
M  V30 3033 H 283.033 3.8217 1.64071 0
M  V30 3034 H 281.61 2.42864 2.82969 0
M  V30 3035 N 283.795 -0.628877 1.44509 0
M  V30 3036 C 285.206 -1.21054 1.42137 0
M  V30 3037 C 285.557 -1.95715 0.137881 0
M  V30 3038 O 284.682 -2.02554 -0.761645 0
M  V30 3039 C 285.277 -2.20189 2.57493 0
M  V30 3040 C 283.836 -2.73777 2.58308 0
M  V30 3041 C 282.983 -1.48813 2.33987 0
M  V30 3042 H 285.934 -0.41942 1.53057 0
M  V30 3043 H 285.955 -3.02833 2.30375 0
M  V30 3044 H 285.467 -1.6582 3.50892 0
M  V30 3045 H 283.568 -3.32142 1.68856 0
M  V30 3046 H 283.681 -3.19662 3.56865 0
M  V30 3047 H 282.045 -1.77024 1.83124 0
M  V30 3048 H 282.828 -0.963442 3.29504 0
M  V30 3049 N 285.273 -1.31445 -0.869486 0
M  V30 3050 C 286.183 -1.21097 -2.0093 0
M  V30 3051 C 287.199 -0.127584 -1.73532 0
M  V30 3052 O 288.375 -0.345477 -1.98415 0
M  V30 3053 C 285.44 -0.919378 -3.34288 0
M  V30 3054 C 284.501 -2.08971 -3.75006 0
M  V30 3055 C 283.734 -1.81194 -5.02001 0
M  V30 3056 O 283.957 -0.747296 -5.65484 0
M  V30 3057 O 282.891 -2.66883 -5.39497 0
M  V30 3058 H 286.717 -2.16883 -2.12592 0
M  V30 3059 H 284.302 -1.11189 -0.997868 0
M  V30 3060 H 286.184 -0.772625 -4.14257 0
M  V30 3061 H 284.859 0.00844772 -3.23699 0
M  V30 3062 H 283.766 -2.29187 -2.95676 0
M  V30 3063 H 285.099 -2.9998 -3.90221 0
M  V30 3064 N 286.751 1.08385 -1.14413 0
M  V30 3065 C 287.976 1.85057 -0.936413 0
M  V30 3066 C 288.401 1.81055 0.509971 0
M  V30 3067 O 287.759 1.1958 1.36273 0
M  V30 3068 C 287.807 3.30505 -1.44217 0
M  V30 3069 O 286.911 4.07491 -0.634409 0
M  V30 3070 H 286.252 0.573425 -0.334784 0
M  V30 3071 H 288.782 1.36799 -1.52142 0
M  V30 3072 H 288.792 3.81348 -1.45043 0
M  V30 3073 H 287.467 3.32734 -2.49522 0
M  V30 3074 H 286.044 3.66368 -0.694902 0
M  V30 3075 N 288.23 0.939286 1.26551 0
M  V30 3076 C 289.476 0.586715 1.94128 0
M  V30 3077 C 289.809 -0.8717 1.73537 0
M  V30 3078 O 289.084 -1.62339 1.07127 0
M  V30 3079 C 289.367 0.927497 3.4795 0
M  V30 3080 C 289.22 2.44052 3.77834 0
M  V30 3081 C 290.539 0.441569 4.37879 0
M  V30 3082 H 287.658 0.21463 0.705055 0
M  V30 3083 H 290.3 1.17316 1.49455 0
M  V30 3084 H 288.45 0.428431 3.8613 0
M  V30 3085 H 290.122 3.01216 3.4938 0
M  V30 3086 H 288.365 2.8848 3.23978 0
M  V30 3087 H 289.036 2.62947 4.85348 0
M  V30 3088 H 291.512 0.869448 4.06915 0
M  V30 3089 H 290.388 0.708856 5.44304 0
M  V30 3090 H 290.649 -0.658467 4.37169 0
M  V30 3091 N 289.708 -1.40897 0.706093 0
M  V30 3092 C 290.638 -2.33418 0.0620085 0
M  V30 3093 C 291.619 -1.52385 -0.755827 0
M  V30 3094 O 292.804 -1.80886 -0.706674 0
M  V30 3095 C 289.934 -3.36293 -0.867445 0
M  V30 3096 C 288.888 -4.27716 -0.155932 0
M  V30 3097 C 288.214 -5.2105 -1.20046 0
M  V30 3098 C 289.514 -5.12944 0.984149 0
M  V30 3099 H 291.208 -2.87527 0.83477 0
M  V30 3100 H 288.754 -1.38249 0.402875 0
M  V30 3101 H 290.707 -3.99949 -1.32735 0
M  V30 3102 H 289.431 -2.80556 -1.67199 0
M  V30 3103 H 288.09 -3.65498 0.284047 0
M  V30 3104 H 287.738 -4.61624 -1.99781 0
M  V30 3105 H 287.438 -5.83056 -0.729328 0
M  V30 3106 H 288.962 -5.87584 -1.66066 0
M  V30 3107 H 290.376 -5.70109 0.604048 0
M  V30 3108 H 288.773 -5.83945 1.38304 0
M  V30 3109 H 289.843 -4.49485 1.81911 0
M  V30 3110 N 291.186 -0.45159 -1.50991 0
M  V30 3111 C 292.133 0.352625 -2.2809 0
M  V30 3112 C 293.103 1.0044 -1.32291 0
M  V30 3113 O 294.288 1.02058 -1.6121 0
M  V30 3114 C 291.428 1.43983 -3.13629 0
M  V30 3115 C 290.541 0.804772 -4.24438 0
M  V30 3116 C 289.676 1.86822 -4.97263 0
M  V30 3117 C 288.715 1.21236 -5.99973 0
M  V30 3118 N 287.852 2.2178 -6.66152 0
M  V30 3119 H 292.692 -0.311186 -2.96371 0
M  V30 3120 H 290.229 -0.165308 -1.46168 0
M  V30 3121 H 292.187 2.08161 -3.61559 0
M  V30 3122 H 290.817 2.07307 -2.47434 0
M  V30 3123 H 289.869 0.0509129 -3.80366 0
M  V30 3124 H 291.181 0.286076 -4.97979 0
M  V30 3125 H 290.335 2.58628 -5.48813 0
M  V30 3126 H 289.074 2.42068 -4.23385 0
M  V30 3127 H 288.079 0.479828 -5.47702 0
M  V30 3128 H 289.304 0.667051 -6.75816 0
M  V30 3129 H 287.25 2.76079 -5.95077 0
M  V30 3130 H 287.167 1.74841 -7.35504 0
M  V30 3131 H 288.435 2.93026 -7.22327 0
M  V30 3132 N 292.664 1.56529 -0.183458 0
M  V30 3133 C 293.91 1.97537 0.459036 0
M  V30 3134 C 294.243 1.06989 1.62071 0
M  V30 3135 O 293.518 0.11948 1.94133 0
M  V30 3136 C 293.801 3.47874 0.930368 0
M  V30 3137 C 293.654 4.492 -0.232317 0
M  V30 3138 C 294.973 4.01612 1.79989 0
M  V30 3139 H 292.092 0.718204 0.165383 0
M  V30 3140 H 294.734 1.88042 -0.272038 0
M  V30 3141 H 292.884 3.56095 1.55333 0
M  V30 3142 H 294.556 4.53027 -0.86972 0
M  V30 3143 H 292.799 4.24657 -0.885928 0
M  V30 3144 H 293.47 5.51823 0.139796 0
M  V30 3145 H 295.946 3.96097 1.27461 0
M  V30 3146 H 294.822 5.07195 2.09867 0
M  V30 3147 H 295.083 3.46163 2.74998 0
M  V30 3148 N 294.142 -0.090211 1.57342 0
M  V30 3149 C 295.105 -1.09335 2.01441 0
M  V30 3150 C 296.105 -1.32666 0.908641 0
M  V30 3151 O 297.295 -1.28697 1.174 0
M  V30 3152 C 294.427 -2.44136 2.3793 0
M  V30 3153 H 295.62 -0.713662 2.91285 0
M  V30 3154 H 293.173 -0.335404 1.52659 0
M  V30 3155 H 293.908 -2.86972 1.51055 0
M  V30 3156 H 293.693 -2.28548 3.18603 0
M  V30 3157 H 295.183 -3.16277 2.72688 0
M  V30 3158 N 295.62 -1.53406 -0.361157 0
M  V30 3159 C 296.57 -1.76536 -1.44287 0
M  V30 3160 C 297.554 -0.620019 -1.48474 0
M  V30 3161 O 298.746 -0.878834 -1.53641 0
M  V30 3162 C 295.875 -1.96266 -2.81664 0
M  V30 3163 C 294.961 -3.16815 -2.81938 0
M  V30 3164 N 295.352 -4.38637 -2.51855 0
M  V30 3165 C 293.65 -3.17627 -3.13096 0
M  V30 3166 C 294.351 -5.20401 -2.59919 0
M  V30 3167 N 293.327 -4.56712 -2.94814 0
M  V30 3168 H 297.129 -2.68331 -1.19899 0
M  V30 3169 H 294.643 -1.52091 -0.56938 0
M  V30 3170 H 296.64 -2.10966 -3.59582 0
M  V30 3171 H 295.3 -1.05702 -3.07013 0
M  V30 3172 H 296.311 -4.66293 -2.25369 0
M  V30 3173 H 292.988 -2.36971 -3.43731 0
M  V30 3174 H 294.378 -6.27586 -2.39969 0
M  V30 3175 N 297.098 0.621204 -1.44841 0
M  V30 3176 C 298.048 1.72663 -1.48901 0
M  V30 3177 C 299.032 1.56964 -0.353702 0
M  V30 3178 O 300.224 1.66532 -0.599669 0
M  V30 3179 C 297.353 3.11381 -1.44557 0
M  V30 3180 C 296.439 3.32514 -2.6324 0
M  V30 3181 N 296.83 3.23969 -3.8843 0
M  V30 3182 C 295.128 3.63343 -2.58647 0
M  V30 3183 C 295.829 3.46062 -4.67564 0
M  V30 3184 N 294.805 3.69407 -3.98797 0
M  V30 3185 H 298.607 1.64529 -2.43531 0
M  V30 3186 H 296.121 0.82401 -1.39942 0
M  V30 3187 H 298.118 3.90667 -1.4555 0
M  V30 3188 H 296.778 3.20674 -0.509731 0
M  V30 3189 H 297.789 3.02669 -4.20252 0
M  V30 3190 H 294.466 3.79556 -1.73906 0
M  V30 3191 H 295.856 3.44963 -5.76585 0
M  V30 3192 N 298.576 1.31904 0.862503 0
M  V30 3193 C 299.539 1.20131 1.95195 0
M  V30 3194 C 300.539 0.126409 1.60302 0
M  V30 3195 O 301.729 0.376234 1.70089 0
M  V30 3196 C 298.861 0.845691 3.30244 0
M  V30 3197 H 300.054 2.16943 2.07064 0
M  V30 3198 H 297.607 1.15622 1.05172 0
M  V30 3199 H 298.342 -0.120957 3.24074 0
M  V30 3200 H 298.127 1.62276 3.56944 0
M  V30 3201 H 299.617 0.787418 4.10109 0
M  V30 3202 N 300.054 -1.07777 1.14986 0
M  V30 3203 C 301.279 -1.84558 0.946213 0
M  V30 3204 C 301.704 -1.81323 -0.500362 0
M  V30 3205 O 301.062 -1.20301 -1.35637 0
M  V30 3206 C 301.11 -3.29736 1.45968 0
M  V30 3207 O 300.214 -4.07149 0.65601 0
M  V30 3208 H 299.555 -0.571641 0.33782 0
M  V30 3209 H 302.085 -1.35991 1.52865 0
M  V30 3210 H 302.095 -3.80574 1.47063 0
M  V30 3211 H 300.77 -3.31406 2.51283 0
M  V30 3212 H 299.347 -3.65994 0.714322 0
M  V30 3213 N 301.532 -0.945985 -1.26051 0
M  V30 3214 C 302.442 -0.465633 -2.29933 0
M  V30 3215 C 303.458 0.462761 -1.67733 0
M  V30 3216 O 304.634 0.341118 -1.9849 0
M  V30 3217 C 301.699 0.256994 -3.45746 0
M  V30 3218 C 300.76 -0.708549 -4.23412 0
M  V30 3219 C 299.993 -0.0203135 -5.33696 0
M  V30 3220 O 300.216 1.19571 -5.57726 0
M  V30 3221 O 299.15 -0.701459 -5.97799 0
M  V30 3222 H 302.976 -1.32866 -2.73094 0
M  V30 3223 H 300.561 -0.712071 -1.31339 0
M  V30 3224 H 302.443 0.663852 -4.16138 0
M  V30 3225 H 301.118 1.09533 -3.04605 0
M  V30 3226 H 300.025 -1.16545 -3.55483 0
M  V30 3227 H 301.358 -1.51465 -4.68315 0
M  V30 3228 N 303.011 1.40521 -0.713556 0
M  V30 3229 C 303.959 2.32549 -0.0485227 0
M  V30 3230 C 304.953 1.51931 0.74922 0
M  V30 3231 O 306.159 1.67745 0.652816 0
M  V30 3232 H 302.534 0.751994 0.00311138 0
M  V30 3233 H 304.505 2.86291 -0.841443 0
M  V30 3234 C 303.254 3.36879 0.860687 0
M  V30 3235 H 302.577 3.98978 0.256246 0
M  V30 3236 H 304.017 4.03772 1.294 0
M  V30 3237 C 302.476 2.72197 1.9852 0
M  V30 3238 O 303.006 2.5837 3.07584 0
M  V30 3239 N 301.212 2.30612 1.76823 0
M  V30 3240 H 300.759 2.42059 0.881217 0
M  V30 3241 H 300.717 1.87672 2.52243 0
M  V30 3242 N 304.489 0.459591 1.5075 0
M  V30 3243 C 305.437 -0.354678 2.2988 0
M  V30 3244 C 306.431 -1.00086 1.36672 0
M  V30 3245 O 307.637 -0.933277 1.53915 0
M  V30 3246 H 304.012 -0.13321 0.740107 0
M  V30 3247 H 305.983 0.333269 2.96533 0
M  V30 3248 C 304.732 -1.43073 3.169 0
M  V30 3249 H 304.055 -0.942882 3.88523 0
M  V30 3250 H 305.495 -1.97328 3.75284 0
M  V30 3251 C 303.954 -2.42633 2.33732 0
M  V30 3252 O 304.484 -3.47658 2.01238 0
M  V30 3253 N 302.69 -2.14066 1.9653 0
M  V30 3254 H 302.237 -1.28685 2.23155 0
M  V30 3255 H 302.195 -2.80917 1.41185 0
M  V30 3256 N 305.967 -1.56429 0.191757 0
M  V30 3257 C 307.383 -1.58754 -0.164137 0
M  V30 3258 C 307.583 -1.20782 -1.61288 0
M  V30 3259 O 306.639 -0.928999 -2.34789 0
M  V30 3260 C 307.952 -3.00396 0.135195 0
M  V30 3261 C 309.5 -3.1291 0.0750351 0
M  V30 3262 C 309.975 -4.56679 0.347632 0
M  V30 3263 N 311.466 -4.62252 0.296131 0
M  V30 3264 C 312.201 -5.71379 0.480948 0
M  V30 3265 N 311.697 -6.88986 0.725933 0
M  V30 3266 N 313.49 -5.60563 0.415435 0
M  V30 3267 H 305.641 -1.79393 1.13718 0
M  V30 3268 H 307.904 -0.832414 0.453643 0
M  V30 3269 H 307.61 -3.32726 1.13958 0
M  V30 3270 H 307.484 -3.72963 -0.563773 0
M  V30 3271 H 309.871 -2.80394 -0.919948 0
M  V30 3272 H 309.952 -2.42736 0.807029 0
M  V30 3273 H 309.596 -4.89907 1.33992 0
M  V30 3274 H 309.526 -5.25039 -0.405212 0
M  V30 3275 H 312.017 -3.7773 0.113259 0
M  V30 3276 H 312.33 -7.68046 0.855857 0
M  V30 3277 H 310.675 -6.90801 0.762788 0
M  V30 3278 H 313.866 -4.67561 0.224486 0
M  V30 3279 H 314.039 -6.45551 0.562889 0
M  V30 3280 N 307.445 0.0818655 -1.57387 0
M  V30 3281 C 308.694 0.781681 -1.85937 0
M  V30 3282 C 309.007 1.79246 -0.782957 0
M  V30 3283 O 310.213 2.54112 -0.955987 0
M  V30 3284 C 308.669 1.44109 -3.29789 0
M  V30 3285 C 308.277 0.469396 -4.45534 0
M  V30 3286 C 310.021 2.12386 -3.67549 0
M  V30 3287 C 307.928 1.13415 -5.80423 0
M  V30 3288 H 306.858 0.295682 -0.693605 0
M  V30 3289 H 309.509 0.0348051 -1.83467 0
M  V30 3290 H 307.891 2.23588 -3.2684 0
M  V30 3291 H 309.065 -0.294856 -4.59856 0
M  V30 3292 H 307.38 -0.108383 -4.16259 0
M  V30 3293 H 309.977 2.62878 -4.65617 0
M  V30 3294 H 310.32 2.91877 -2.96839 0
M  V30 3295 H 310.853 1.39751 -3.72444 0
M  V30 3296 H 307.592 0.379771 -6.54399 0
M  V30 3297 H 307.112 1.8695 -5.69921 0
M  V30 3298 H 308.791 1.65686 -6.25426 0
M  V30 3299 N 308.923 1.53595 0.353017 0
M  V30 3300 C 310.17 1.70385 1.09431 0
M  V30 3301 C 310.498 0.462113 1.88931 0
M  V30 3302 O 309.753 -0.556074 1.87633 0
M  V30 3303 C 310.052 2.91313 2.07054 0
M  V30 3304 C 309.718 4.27308 1.43939 0
M  V30 3305 C 308.38 4.64287 1.26454 0
M  V30 3306 C 310.732 5.11829 0.983883 0
M  V30 3307 C 308.06 5.83412 0.620226 0
M  V30 3308 C 310.412 6.31611 0.353516 0
M  V30 3309 C 309.076 6.67293 0.166272 0
M  V30 3310 H 308.346 0.623484 0.400436 0
M  V30 3311 H 310.993 1.87799 0.374655 0
M  V30 3312 H 309.298 2.68463 2.85368 0
M  V30 3313 H 310.995 3.01497 2.64387 0
M  V30 3314 H 307.585 3.98198 1.58543 0
M  V30 3315 H 311.769 4.838 1.10685 0
M  V30 3316 H 307.025 6.09639 0.463681 0
M  V30 3317 H 311.199 6.964 -0.00757555 0
M  V30 3318 H 308.826 7.59461 -0.335047 0
M  V30 3319 N 310.401 -0.613514 1.45168 0
M  V30 3320 C 311.629 -1.39946 1.5239 0
M  V30 3321 C 312.044 -1.88167 0.154531 0
M  V30 3322 O 311.401 -1.61872 -0.842843 0
M  V30 3323 C 311.452 -2.60795 2.50337 0
M  V30 3324 O 311.173 -2.1458 3.81952 0
M  V30 3325 C 312.674 -3.53723 2.67198 0
M  V30 3326 H 309.894 -0.428593 0.516284 0
M  V30 3327 H 312.438 -0.748753 1.903 0
M  V30 3328 H 310.593 -3.21919 2.15515 0
M  V30 3329 H 311.007 -2.93055 4.34993 0
M  V30 3330 H 312.481 -4.35079 3.39721 0
M  V30 3331 H 312.958 -4.0368 1.73029 0
M  V30 3332 H 313.564 -2.98456 3.02992 0
M  V30 3333 N 311.879 -1.3236 -0.855495 0
M  V30 3334 C 312.809 -1.23833 -1.97958 0
M  V30 3335 C 313.79 -0.122361 -1.69659 0
M  V30 3336 O 314.975 -0.30939 -1.9172 0
M  V30 3337 C 312.105 -0.959772 -3.33775 0
M  V30 3338 C 311.059 -2.03689 -3.76424 0
M  V30 3339 C 310.385 -1.61075 -5.09862 0
M  V30 3340 C 311.685 -3.4518 -3.9198 0
M  V30 3341 H 313.379 -2.1788 -2.0535 0
M  V30 3342 H 310.925 -1.04891 -0.986605 0
M  V30 3343 H 312.878 -0.886678 -4.11966 0
M  V30 3344 H 311.602 0.0163404 -3.26596 0
M  V30 3345 H 310.261 -2.10012 -3.00484 0
M  V30 3346 H 309.909 -0.622107 -4.99138 0
M  V30 3347 H 309.609 -2.33143 -5.39368 0
M  V30 3348 H 311.133 -1.55201 -5.90546 0
M  V30 3349 H 312.547 -3.4145 -4.60526 0
M  V30 3350 H 310.944 -4.1559 -4.32903 0
M  V30 3351 H 312.014 -3.84903 -2.94919 0
M  V30 3352 N 313.357 1.07166 -1.15556 0
M  V30 3353 C 314.305 2.16517 -0.8499 0
M  V30 3354 C 315.299 1.68468 0.177454 0
M  V30 3355 O 316.505 1.79971 0.0323026 0
M  V30 3356 H 312.88 0.706652 -0.25719 0
M  V30 3357 H 314.851 2.39514 -1.77976 0
M  V30 3358 C 313.6 3.45855 -0.357682 0
M  V30 3359 H 312.923 3.83214 -1.13961 0
M  V30 3360 H 314.363 4.23607 -0.182489 0
M  V30 3361 C 312.822 3.24062 0.921152 0
M  V30 3362 O 313.352 3.48813 1.9923 0
M  V30 3363 N 311.558 2.77539 0.86141 0
M  V30 3364 H 311.105 2.57598 -0.0104408 0
M  V30 3365 H 311.063 2.63337 1.71758 0
M  V30 3366 N 314.835 0.952656 1.25548 0
M  V30 3367 C 315.765 0.489287 2.28316 0
M  V30 3368 C 316.746 -0.463359 1.63667 0
M  V30 3369 O 317.931 -0.36274 1.90782 0
M  V30 3370 C 315.061 -0.235603 3.465 0
M  V30 3371 C 314.015 0.631593 4.23314 0
M  V30 3372 C 313.341 -0.223923 5.34231 0
M  V30 3373 C 314.641 1.90871 4.86174 0
M  V30 3374 H 316.335 1.34822 2.67326 0
M  V30 3375 H 313.881 0.649728 1.28509 0
M  V30 3376 H 315.834 -0.570882 4.17515 0
M  V30 3377 H 314.558 -1.12877 3.06474 0
M  V30 3378 H 313.217 0.949929 3.54079 0
M  V30 3379 H 312.865 -1.11678 4.90446 0
M  V30 3380 H 312.565 0.35299 5.86539 0
M  V30 3381 H 314.089 -0.554214 6.0808 0
M  V30 3382 H 315.503 1.63997 5.49343 0
M  V30 3383 H 313.9 2.43112 5.4865 0
M  V30 3384 H 314.97 2.61304 4.08471 0
M  V30 3385 N 316.313 -1.40141 0.720998 0
M  V30 3386 C 317.538 -2.05618 0.271258 0
M  V30 3387 C 317.963 -1.53978 -1.08039 0
M  V30 3388 O 317.321 -0.677463 -1.68167 0
M  V30 3389 C 317.369 -3.59609 0.267197 0
M  V30 3390 O 316.473 -4.05526 -0.749814 0
M  V30 3391 H 315.814 -0.651904 0.126162 0
M  V30 3392 H 318.344 -1.79439 0.982997 0
M  V30 3393 H 318.354 -4.0786 0.106744 0
M  V30 3394 H 317.029 -3.96559 1.25354 0
M  V30 3395 H 315.606 -3.68722 -0.556644 0
M  V30 3396 N 317.792 -0.46758 -1.50504 0
M  V30 3397 C 318.755 0.317059 -2.26996 0
M  V30 3398 C 319.755 0.923513 -1.31635 0
M  V30 3399 O 320.945 0.793239 -1.55091 0
M  V30 3400 C 318.077 1.45134 -3.08462 0
M  V30 3401 H 319.27 -0.353723 -2.97807 0
M  V30 3402 H 316.823 -0.221545 -1.54722 0
M  V30 3403 H 317.558 2.15728 -2.4214 0
M  V30 3404 H 317.343 1.02232 -3.78538 0
M  V30 3405 H 318.833 2.00493 -3.66323 0
M  V30 3406 N 319.27 1.56325 -0.20005 0
M  V30 3407 C 320.681 1.8408 0.31167 0
M  V30 3408 C 321.032 1.12087 1.61031 0
M  V30 3409 O 320.157 0.38332 2.12978 0
M  V30 3410 C 320.752 3.33932 0.57226 0
M  V30 3411 C 319.311 3.6208 1.02834 0
M  V30 3412 C 318.458 2.77186 0.079634 0
M  V30 3413 H 321.409 1.52939 -0.423729 0
M  V30 3414 H 321.43 3.52971 1.42096 0
M  V30 3415 H 320.942 3.86303 -0.37308 0
M  V30 3416 H 319.043 3.15147 1.98778 0
M  V30 3417 H 319.156 4.7023 0.917624 0
M  V30 3418 H 317.52 2.47951 0.582448 0
M  V30 3419 H 318.303 3.32347 -0.860238 0
M  V30 3420 N 320.748 -0.0735177 1.57428 0
M  V30 3421 C 321.995 -0.772999 1.87166 0
M  V30 3422 C 322.323 -1.77665 0.791551 0
M  V30 3423 O 321.578 -1.94541 -0.212636 0
M  V30 3424 C 321.877 -1.51799 3.23561 0
M  V30 3425 C 321.543 -0.654484 4.46125 0
M  V30 3426 C 320.205 -0.416511 4.79394 0
M  V30 3427 C 322.557 -0.0555862 5.2117 0
M  V30 3428 C 319.885 0.429869 5.85123 0
M  V30 3429 C 322.237 0.778239 6.27795 0
M  V30 3430 C 320.901 1.0261 6.59566 0
M  V30 3431 H 320.171 -0.282861 0.684888 0
M  V30 3432 H 322.818 -0.0338272 1.9147 0
M  V30 3433 H 321.123 -2.32932 3.1504 0
M  V30 3434 H 322.82 -2.06397 3.43804 0
M  V30 3435 H 319.41 -0.850091 4.20085 0
M  V30 3436 H 323.594 -0.226558 4.95783 0
M  V30 3437 H 318.85 0.630665 6.08139 0
M  V30 3438 H 323.024 1.24906 6.85107 0
M  V30 3439 H 320.651 1.68371 7.4132 0
M  V30 3440 N 322.226 -1.5378 -0.344866 0
M  V30 3441 C 323.475 -1.7018 -1.08267 0
M  V30 3442 C 323.788 -0.471 -1.89845 0
M  V30 3443 O 324.994 -0.515917 -2.66553 0
M  V30 3444 C 323.45 -3.00923 -1.97417 0
M  V30 3445 C 323.058 -4.31335 -1.21053 0
M  V30 3446 C 324.802 -3.26688 -2.71063 0
M  V30 3447 C 322.709 -5.53153 -2.09225 0
M  V30 3448 H 321.639 -0.634138 -0.407903 0
M  V30 3449 H 324.29 -1.8028 -0.342246 0
M  V30 3450 H 322.672 -2.84676 -2.75274 0
M  V30 3451 H 323.846 -4.58281 -0.481159 0
M  V30 3452 H 322.161 -4.12173 -0.591813 0
M  V30 3453 H 324.758 -4.1489 -3.37299 0
M  V30 3454 H 325.101 -2.43639 -3.37558 0
M  V30 3455 H 325.634 -3.43705 -2.0028 0
M  V30 3456 H 322.373 -6.38741 -1.47274 0
M  V30 3457 H 321.893 -5.30458 -2.79955 0
M  V30 3458 H 323.572 -5.88744 -2.68308 0
M  V30 3459 N 323.704 0.605807 -1.45491 0
M  V30 3460 C 324.929 1.39625 -1.53361 0
M  V30 3461 C 325.354 1.87351 -0.167645 0
M  V30 3462 O 324.712 1.60243 0.848051 0
M  V30 3463 C 324.76 2.57559 -2.5238 0
M  V30 3464 O 323.864 3.58248 -2.04285 0
M  V30 3465 H 323.205 0.416771 -0.516912 0
M  V30 3466 H 325.735 0.737103 -1.90861 0
M  V30 3467 H 325.745 3.0478 -2.71244 0
M  V30 3468 H 324.42 2.22171 -3.51586 0
M  V30 3469 H 322.997 3.17664 -1.95305 0
M  V30 3470 N 325.182 1.32811 0.848464 0
M  V30 3471 C 326.114 1.18095 1.96433 0
M  V30 3472 C 327.127 0.114354 1.62398 0
M  V30 3473 O 328.316 0.363892 1.74751 0
M  V30 3474 C 325.416 0.786798 3.2964 0
M  V30 3475 C 324.589 1.943 3.91875 0
M  V30 3476 C 323.648 1.53138 5.03423 0
M  V30 3477 O 322.674 2.24432 5.23086 0
M  V30 3478 N 323.876 0.430915 5.78898 0
M  V30 3479 H 326.641 2.14218 2.09597 0
M  V30 3480 H 324.202 1.2543 1.02367 0
M  V30 3481 H 326.194 0.493715 4.01677 0
M  V30 3482 H 324.764 -0.0834541 3.12489 0
M  V30 3483 H 323.984 2.40224 3.12547 0
M  V30 3484 H 325.272 2.71689 4.30189 0
M  V30 3485 H 324.67 -0.162333 5.65467 0
M  V30 3486 H 323.227 0.197466 6.51501 0
M  V30 3487 N 326.66 -1.06551 1.16123 0
M  V30 3488 C 327.907 -1.79302 0.941126 0
M  V30 3489 C 328.235 -1.87105 -0.531235 0
M  V30 3490 O 327.49 -1.35692 -1.41018 0
M  V30 3491 C 327.789 -3.23911 1.51052 0
M  V30 3492 C 327.455 -3.36193 3.00475 0
M  V30 3493 C 326.117 -3.39252 3.41265 0
M  V30 3494 C 328.469 -3.38326 3.96465 0
M  V30 3495 C 325.797 -3.42057 4.76669 0
M  V30 3496 C 328.149 -3.4267 5.31752 0
M  V30 3497 C 326.813 -3.4401 5.72026 0
M  V30 3498 H 326.083 -0.656111 0.344382 0
M  V30 3499 H 328.73 -1.25325 1.44796 0
M  V30 3500 H 327.035 -3.80723 0.925063 0
M  V30 3501 H 328.732 -3.78793 1.31593 0
M  V30 3502 H 325.322 -3.34516 2.6795 0
M  V30 3503 H 329.506 -3.35176 3.6602 0
M  V30 3504 H 324.762 -3.41398 5.07206 0
M  V30 3505 H 328.936 -3.43268 6.05921 0
M  V30 3506 H 326.563 -3.45937 6.76928 0
M  V30 3507 N 328.138 -0.959301 -1.25041 0
M  V30 3508 C 329.368 -0.63303 -1.96663 0
M  V30 3509 C 329.776 0.800031 -1.71453 0
M  V30 3510 O 329.119 1.54736 -0.99008 0
M  V30 3511 C 329.181 -0.817523 -3.50081 0
M  V30 3512 C 328.845 -2.22863 -3.98975 0
M  V30 3513 C 329.842 -3.20569 -4.09306 0
M  V30 3514 C 327.527 -2.55407 -4.32519 0
M  V30 3515 C 329.521 -4.4891 -4.52503 0
M  V30 3516 C 327.208 -3.83976 -4.754 0
M  V30 3517 C 328.206 -4.8054 -4.85356 0
M  V30 3518 O 327.894 -6.06817 -5.27284 0
M  V30 3519 H 327.626 -0.235866 -0.633516 0
M  V30 3520 H 330.18 -1.2874 -1.60047 0
M  V30 3521 H 328.41 -0.105992 -3.86555 0
M  V30 3522 H 330.099 -0.491604 -4.02912 0
M  V30 3523 H 330.865 -2.96753 -3.83618 0
M  V30 3524 H 326.744 -1.8097 -4.23994 0
M  V30 3525 H 330.288 -5.24283 -4.60188 0
M  V30 3526 H 326.185 -4.07596 -5.00535 0
M  V30 3527 H 326.953 -6.10262 -5.45457 0
M  V30 3528 N 329.616 1.39756 -0.72842 0
M  V30 3529 C 330.563 2.30647 -0.0841519 0
M  V30 3530 C 331.533 1.48869 0.7367 0
M  V30 3531 O 332.718 1.77574 0.698015 0
M  V30 3532 C 329.858 3.35165 0.822091 0
M  V30 3533 C 328.971 4.31999 -0.0106663 0
M  V30 3534 C 328.106 5.23585 0.896241 0
M  V30 3535 C 327.145 6.12072 0.0583381 0
M  V30 3536 N 326.282 6.96035 0.920818 0
M  V30 3537 H 331.122 2.85173 -0.864891 0
M  V30 3538 H 328.659 1.40422 -0.438179 0
M  V30 3539 H 330.617 3.94345 1.36189 0
M  V30 3540 H 329.247 2.8211 1.56888 0
M  V30 3541 H 328.299 3.74492 -0.66781 0
M  V30 3542 H 329.611 4.9443 -0.658825 0
M  V30 3543 H 328.765 5.87759 1.50412 0
M  V30 3544 H 327.504 4.61459 1.57819 0
M  V30 3545 H 326.509 5.46916 -0.562389 0
M  V30 3546 H 327.734 6.76261 -0.6203 0
M  V30 3547 H 325.68 6.36485 1.58818 0
M  V30 3548 H 325.597 7.55284 0.32899 0
M  V30 3549 H 326.865 7.64646 1.51447 0
M  V30 3550 N 331.094 0.475555 1.50254 0
M  V30 3551 C 332.004 -0.321501 2.32387 0
M  V30 3552 C 333.02 -0.991755 1.42969 0
M  V30 3553 O 334.196 -0.978747 1.76018 0
M  V30 3554 C 331.261 -1.38667 3.17762 0
M  V30 3555 C 330.322 -0.732538 4.23004 0
M  V30 3556 C 329.555 -1.74695 5.04299 0
M  V30 3557 O 329.778 -2.97399 4.86734 0
M  V30 3558 O 328.712 -1.31631 5.8733 0
M  V30 3559 H 332.538 0.350071 3.01676 0
M  V30 3560 H 330.123 0.237321 1.47503 0
M  V30 3561 H 332.005 -2.00354 3.70724 0
M  V30 3562 H 330.68 -2.04163 2.51196 0
M  V30 3563 H 329.587 -0.0765902 3.74022 0
M  V30 3564 H 330.92 -0.120452 4.92053 0
M  V30 3565 N 332.573 -1.56217 0.208337 0
M  V30 3566 C 333.798 -2.02782 -0.435222 0
M  V30 3567 C 334.223 -1.08738 -1.53485 0
M  V30 3568 O 333.581 -0.0731855 -1.81152 0
M  V30 3569 C 333.629 -3.47687 -0.956335 0
M  V30 3570 O 332.733 -3.56773 -2.06849 0
M  V30 3571 H 332.074 -0.656403 -0.100158 0
M  V30 3572 H 334.604 -2.02033 0.3231 0
M  V30 3573 H 334.614 -3.87745 -1.26955 0
M  V30 3574 H 333.289 -4.15624 -0.15143 0
M  V30 3575 H 331.866 -3.28597 -1.76292 0
M  V30 3576 N 334.051 0.0651679 -1.57465 0
M  V30 3577 C 334.981 1.07693 -2.07182 0
M  V30 3578 C 335.962 1.39962 -0.966673 0
M  V30 3579 O 337.147 1.49475 -1.2398 0
M  V30 3580 C 334.277 2.3885 -2.52127 0
M  V30 3581 C 333.231 2.20917 -3.66579 0
M  V30 3582 C 332.557 3.57515 -3.97601 0
M  V30 3583 C 333.857 1.62493 -4.9638 0
M  V30 3584 H 335.551 0.663199 -2.91962 0
M  V30 3585 H 333.097 0.317569 -1.40455 0
M  V30 3586 H 335.05 3.09928 -2.85522 0
M  V30 3587 H 333.774 2.82215 -1.64384 0
M  V30 3588 H 332.433 1.52279 -3.33477 0
M  V30 3589 H 332.081 3.98463 -3.06979 0
M  V30 3590 H 331.781 3.46353 -4.74672 0
M  V30 3591 H 333.305 4.30013 -4.33499 0
M  V30 3592 H 334.719 2.23445 -5.27963 0
M  V30 3593 H 333.116 1.62009 -5.77818 0
M  V30 3594 H 334.186 0.587041 -4.81333 0
M  V30 3595 N 335.529 1.53961 0.336706 0
M  V30 3596 C 336.462 1.77255 1.43722 0
M  V30 3597 C 337.44 0.62193 1.50236 0
M  V30 3598 O 338.624 0.857874 1.67847 0
M  V30 3599 C 335.751 1.87733 2.81912 0
M  V30 3600 C 334.797 3.09933 2.92991 0
M  V30 3601 S 335.63 4.68836 2.58753 0
M  V30 3602 C 336.786 4.82202 3.99039 0
M  V30 3603 H 337.019 2.70322 1.23748 0
M  V30 3604 H 334.552 1.44917 0.532777 0
M  V30 3605 H 336.51 1.94455 3.61521 0
M  V30 3606 H 335.171 0.956666 2.99177 0
M  V30 3607 H 334.364 3.1396 3.94265 0
M  V30 3608 H 333.966 3.01472 2.21338 0
M  V30 3609 H 336.258 4.64032 4.9364 0
M  V30 3610 H 337.201 5.84298 4.00002 0
M  V30 3611 H 337.609 4.10604 3.87382 0
M  V30 3612 N 337.007 -0.598083 1.45811 0
M  V30 3613 C 337.954 -1.7082 1.55207 0
M  V30 3614 C 338.924 -1.61278 0.39732 0
M  V30 3615 O 340.109 -1.80717 0.612038 0
M  V30 3616 C 337.249 -3.09144 1.53376 0
M  V30 3617 C 336.362 -3.29423 2.79472 0
M  V30 3618 C 335.497 -4.57907 2.69248 0
M  V30 3619 C 334.536 -4.71476 3.90354 0
M  V30 3620 N 333.673 -5.9127 3.78608 0
M  V30 3621 H 338.513 -1.62125 2.50039 0
M  V30 3622 H 336.05 -0.790389 1.24062 0
M  V30 3623 H 338.008 -3.89186 1.50301 0
M  V30 3624 H 336.638 -3.16773 0.620876 0
M  V30 3625 H 335.69 -2.43091 2.92594 0
M  V30 3626 H 337.002 -3.3532 3.69272 0
M  V30 3627 H 336.156 -5.46157 2.64192 0
M  V30 3628 H 334.895 -4.54423 1.77063 0
M  V30 3629 H 333.9 -3.81648 3.95759 0
M  V30 3630 H 335.125 -4.76751 4.83617 0
M  V30 3631 H 333.071 -5.88813 2.89199 0
M  V30 3632 H 332.988 -5.98369 4.6205 0
M  V30 3633 H 334.256 -6.81992 3.77501 0
M  V30 3634 N 338.485 -1.33259 -0.841409 0
M  V30 3635 C 339.731 -1.24757 -1.59886 0
M  V30 3636 C 340.064 0.186913 -1.93298 0
M  V30 3637 O 339.339 1.12757 -1.5848 0
M  V30 3638 C 339.622 -2.12036 -2.91055 0
M  V30 3639 C 339.475 -3.63929 -2.6434 0
M  V30 3640 C 340.794 -1.9916 -3.92458 0
M  V30 3641 H 337.913 -0.454542 -0.580138 0
M  V30 3642 H 340.555 -1.63335 -0.970647 0
M  V30 3643 H 338.705 -1.79265 -3.44669 0
M  V30 3644 H 340.377 -4.06978 -2.17178 0
M  V30 3645 H 338.62 -3.85935 -1.98082 0
M  V30 3646 H 339.291 -4.20341 -3.57796 0
M  V30 3647 H 341.767 -2.27895 -3.48143 0
M  V30 3648 H 340.643 -2.62484 -4.82072 0
M  V30 3649 H 340.904 -0.963082 -4.31482 0
M  V30 3650 N 339.963 1.05934 -1.16686 0
M  V30 3651 C 340.896 2.1295 -0.820225 0
M  V30 3652 C 341.874 1.61242 0.209722 0
M  V30 3653 O 343.058 1.88271 0.0929688 0
M  V30 3654 C 340.185 3.3797 -0.22223 0
M  V30 3655 C 339.231 4.08488 -1.22637 0
M  V30 3656 S 340.064 4.58015 -2.77457 0
M  V30 3657 C 341.22 5.86292 -2.19117 0
M  V30 3658 H 341.453 2.42025 -1.72659 0
M  V30 3659 H 338.986 1.18423 -0.990722 0
M  V30 3660 H 340.944 4.10335 0.116322 0
M  V30 3661 H 339.605 3.07045 0.66196 0
M  V30 3662 H 338.798 4.98291 -0.756455 0
M  V30 3663 H 338.4 3.42154 -1.51019 0
M  V30 3664 H 340.692 6.59246 -1.56209 0
M  V30 3665 H 341.635 6.38019 -3.07144 0
M  V30 3666 H 342.043 5.40497 -1.62858 0
M  V30 3667 N 341.441 0.965919 1.2453 0
M  V30 3668 C 342.852 0.665929 1.7442 0
M  V30 3669 C 343.203 -0.818407 1.78316 0
M  V30 3670 O 342.328 -1.64037 1.41141 0
M  V30 3671 C 342.923 1.20211 3.16757 0
M  V30 3672 C 341.482 0.952059 3.6416 0
M  V30 3673 C 340.629 1.33848 2.42858 0
M  V30 3674 H 343.58 1.14144 1.10258 0
M  V30 3675 H 343.601 0.567544 3.76244 0
M  V30 3676 H 343.113 2.28244 3.13889 0
M  V30 3677 H 341.214 -0.112821 3.72429 0
M  V30 3678 H 341.327 1.59645 4.51719 0
M  V30 3679 H 339.691 0.756864 2.43195 0
M  V30 3680 H 340.474 2.42827 2.42673 0
M  V30 3681 N 342.919 -1.39368 0.735821 0
M  V30 3682 C 344.149 -2.04498 0.293967 0
M  V30 3683 C 344.557 -1.55593 -1.07645 0
M  V30 3684 O 343.9 -0.716324 -1.69158 0
M  V30 3685 C 343.962 -3.58836 0.218342 0
M  V30 3686 C 343.626 -4.30721 1.52736 0
M  V30 3687 C 344.623 -4.57305 2.47322 0
M  V30 3688 C 342.308 -4.69251 1.79189 0
M  V30 3689 C 344.302 -5.21429 3.66593 0
M  V30 3690 C 341.989 -5.33104 2.98737 0
M  V30 3691 C 342.987 -5.59125 3.9226 0
M  V30 3692 O 342.675 -6.21653 5.09708 0
M  V30 3693 H 342.407 -0.664118 0.126189 0
M  V30 3694 H 344.961 -1.79385 1.00051 0
M  V30 3695 H 343.191 -3.8285 -0.544314 0
M  V30 3696 H 344.88 -4.05447 -0.191626 0
M  V30 3697 H 345.646 -4.27983 2.28156 0
M  V30 3698 H 341.525 -4.48354 1.07239 0
M  V30 3699 H 345.069 -5.41656 4.39607 0
M  V30 3700 H 340.966 -5.61846 3.17803 0
M  V30 3701 H 341.734 -6.40146 5.10054 0
M  V30 3702 N 344.397 -0.483516 -1.5 0
M  V30 3703 C 345.643 0.0672592 -2.02688 0
M  V30 3704 C 345.976 1.38247 -1.36387 0
M  V30 3705 O 345.251 1.88131 -0.493675 0
M  V30 3706 C 345.534 0.238109 -3.59312 0
M  V30 3707 C 345.387 -1.099 -4.36168 0
M  V30 3708 C 346.706 0.986916 -4.28892 0
M  V30 3709 H 343.825 0.0229696 -0.736642 0
M  V30 3710 H 346.467 -0.631527 -1.79197 0
M  V30 3711 H 344.617 0.8333 -3.79458 0
M  V30 3712 H 346.289 -1.73172 -4.27562 0
M  V30 3713 H 344.532 -1.69261 -3.99416 0
M  V30 3714 H 345.203 -0.932954 -5.44059 0
M  V30 3715 H 347.679 0.482302 -4.13295 0
M  V30 3716 H 346.555 1.07527 -5.38265 0
M  V30 3717 H 346.816 2.0265 -3.92919 0
M  V30 3718 N 345.875 1.56104 -0.216619 0
M  V30 3719 C 347.152 1.89988 0.465165 0
M  V30 3720 C 347.532 1.13326 1.78102 0
M  V30 3721 O 346.88 0.241033 2.27225 0
M  V30 3722 C 347.09 3.42646 0.662939 0
M  V30 3723 C 348.438 4.13311 0.972602 0
M  V30 3724 O 349.462 3.48217 0.749901 0
M  V30 3725 O 348.321 5.28396 1.39499 0
M  V30 3726 H 345.415 0.78979 0.245276 0
M  V30 3727 H 347.961 1.67721 -0.258436 0
M  V30 3728 H 346.733 3.90399 -0.26543 0
M  V30 3729 H 346.356 3.70677 1.43821 0
M  V30 3730 N 347.353 -0.0568162 1.57498 0
M  V30 3731 C 348.602 -0.752001 1.87157 0
M  V30 3732 C 348.915 -1.77978 0.811375 0
M  V30 3733 O 350.121 -2.52559 0.996293 0
M  V30 3734 C 348.577 -1.38844 3.3204 0
M  V30 3735 C 348.185 -0.398456 4.46225 0
M  V30 3736 C 349.929 -2.06512 3.70882 0
M  V30 3737 C 347.836 -1.04166 5.82154 0
M  V30 3738 H 346.766 -0.28461 0.698222 0
M  V30 3739 H 349.417 -0.00561272 1.83499 0
M  V30 3740 H 347.799 -2.1836 3.30356 0
M  V30 3741 H 348.973 0.367977 4.59328 0
M  V30 3742 H 347.288 0.174592 4.16034 0
M  V30 3743 H 349.885 -2.55437 4.6974 0
M  V30 3744 H 350.228 -2.87117 3.01445 0
M  V30 3745 H 350.761 -1.33808 3.7462 0
M  V30 3746 H 347.5 -0.275614 6.5492 0
M  V30 3747 H 347.02 -1.7786 5.72823 0
M  V30 3748 H 348.699 -1.55715 6.27982 0
M  V30 3749 N 348.832 -1.54138 -0.328536 0
M  V30 3750 C 349.762 -1.86167 -1.40939 0
M  V30 3751 C 350.743 -0.718044 -1.54202 0
M  V30 3752 O 351.928 -0.971328 -1.68163 0
M  V30 3753 C 349.058 -2.08461 -2.77779 0
M  V30 3754 C 348.012 -3.24299 -2.7931 0
M  V30 3755 C 347.338 -3.31955 -4.19178 0
M  V30 3756 C 348.638 -4.62065 -2.43502 0
M  V30 3757 H 350.332 -2.76689 -1.14383 0
M  V30 3758 H 347.878 -1.33132 -0.548806 0
M  V30 3759 H 349.831 -2.29453 -3.53454 0
M  V30 3760 H 348.555 -1.14684 -3.05802 0
M  V30 3761 H 347.214 -3.03187 -2.0609 0
M  V30 3762 H 346.862 -2.35745 -4.44335 0
M  V30 3763 H 346.562 -4.09805 -4.2111 0
M  V30 3764 H 348.086 -3.55175 -4.96672 0
M  V30 3765 H 349.5 -4.8297 -3.08889 0
M  V30 3766 H 347.897 -5.42429 -2.56693 0
M  V30 3767 H 348.967 -4.64652 -1.38659 0
M  V30 3768 N 350.31 0.590341 -1.46126 0
M  V30 3769 C 351.557 1.34882 -1.5104 0
M  V30 3770 C 351.885 1.93849 -0.159021 0
M  V30 3771 O 351.14 1.76544 0.844436 0
M  V30 3772 C 351.439 2.5032 -2.55097 0
M  V30 3773 C 351.105 2.09394 -3.99331 0
M  V30 3774 C 349.767 1.97947 -4.38601 0
M  V30 3775 C 352.119 1.77712 -4.89967 0
M  V30 3776 C 349.447 1.53065 -5.66381 0
M  V30 3777 C 351.799 1.34312 -6.18177 0
M  V30 3778 C 350.463 1.21436 -6.56361 0
M  V30 3779 H 349.733 0.493568 -0.552695 0
M  V30 3780 H 352.38 0.665539 -1.79563 0
M  V30 3781 H 350.685 3.24062 -2.20207 0
M  V30 3782 H 352.382 3.08541 -2.56132 0
M  V30 3783 H 348.972 2.19235 -3.68285 0
M  V30 3784 H 353.156 1.85445 -4.60352 0
M  V30 3785 H 348.412 1.41733 -5.94745 0
M  V30 3786 H 352.586 1.08849 -6.87841 0
M  V30 3787 H 350.213 0.864345 -7.5527 0
M  V30 3788 N 351.788 1.33704 0.83433 0
M  V30 3789 C 353.036 1.25169 1.58673 0
M  V30 3790 C 353.357 -0.18127 1.94156 0
M  V30 3791 O 352.627 -1.11113 1.6134 0
M  V30 3792 H 351.207 0.4603 0.58833 0
M  V30 3793 H 353.869 1.67478 0.996847 0
M  V30 3794 H 352.965 1.84856 2.51465 0
M  V30 3795 N 353.266 -1.05314 1.17247 0
M  V30 3796 C 354.214 -2.15137 0.884238 0
M  V30 3797 C 355.208 -1.68729 -0.15063 0
M  V30 3798 O 356.414 -1.8 -0.00366673 0
M  V30 3799 H 352.789 -0.702471 0.2684 0
M  V30 3800 H 354.76 -2.36652 1.81764 0
M  V30 3801 C 353.509 -3.45243 0.412659 0
M  V30 3802 H 352.832 -3.81352 1.20043 0
M  V30 3803 H 354.272 -4.23263 0.249858 0
M  V30 3804 C 352.731 -3.25487 -0.86948 0
M  V30 3805 O 353.261 -3.51938 -1.93655 0
M  V30 3806 N 351.467 -2.78875 -0.817147 0
M  V30 3807 H 351.014 -2.57549 0.0514211 0
M  V30 3808 H 350.972 -2.66036 -1.67547 0
M  V30 3809 N 354.744 -0.972509 -1.24016 0
M  V30 3810 C 355.654 -0.5143 -2.28893 0
M  V30 3811 C 356.67 0.427078 -1.68677 0
M  V30 3812 O 357.846 0.298939 -1.99169 0
M  V30 3813 C 354.911 0.183598 -3.46214 0
M  V30 3814 C 353.972 -0.798202 -4.21814 0
M  V30 3815 C 353.205 -0.133514 -5.33533 0
M  V30 3816 O 353.428 1.07714 -5.60137 0
M  V30 3817 O 352.362 -0.828103 -5.96176 0
M  V30 3818 H 356.188 -1.38629 -2.70214 0
M  V30 3819 H 353.773 -0.739769 -1.29799 0
M  V30 3820 H 355.655 0.575433 -4.17453 0
M  V30 3821 H 354.33 1.03048 -3.0686 0
M  V30 3822 H 353.237 -1.24059 -3.52931 0
M  V30 3823 H 354.57 -1.61364 -4.64997 0
M  V30 3824 N 356.222 1.38976 -0.743202 0
M  V30 3825 C 357.45 2.04636 -0.30525 0
M  V30 3826 C 357.865 1.56044 1.06281 0
M  V30 3827 O 357.222 0.728921 1.67311 0
M  V30 3828 C 357.273 3.60193 -0.307177 0
M  V30 3829 O 356.994 4.06998 -1.62124 0
M  V30 3830 C 358.495 4.4306 0.145928 0
M  V30 3831 H 355.715 0.65788 -0.132041 0
M  V30 3832 H 358.259 1.77866 -1.00915 0
M  V30 3833 H 356.414 3.85835 0.347898 0
M  V30 3834 H 356.828 5.01371 -1.54036 0
M  V30 3835 H 358.302 5.51921 0.0934183 0
M  V30 3836 H 358.779 4.22706 1.19231 0
M  V30 3837 H 359.385 4.22584 -0.479886 0
M  V30 3838 N 357.7 0.491464 1.49741 0
M  V30 3839 C 358.61 -0.296835 2.32715 0
M  V30 3840 C 359.626 -0.976536 1.44013 0
M  V30 3841 O 360.802 -0.960023 1.77047 0
M  V30 3842 C 357.867 -1.35288 3.19215 0
M  V30 3843 C 356.928 -0.687632 4.23757 0
M  V30 3844 C 356.161 -1.69336 5.06123 0
M  V30 3845 O 356.384 -2.92219 4.89861 0
M  V30 3846 O 355.318 -1.25394 5.88693 0
M  V30 3847 H 359.144 0.382048 3.01287 0
M  V30 3848 H 356.729 0.252953 1.47243 0
M  V30 3849 H 358.611 -1.96411 3.72828 0
M  V30 3850 H 357.286 -2.01487 2.53347 0
M  V30 3851 H 356.193 -0.0369159 3.74082 0
M  V30 3852 H 357.526 -0.0682566 4.92153 0
M  V30 3853 N 359.178 -1.55987 0.224894 0
M  V30 3854 C 360.141 -2.19178 -0.670348 0
M  V30 3855 C 361.141 -1.15461 -1.11917 0
M  V30 3856 O 362.331 -1.40675 -1.02743 0
M  V30 3857 C 359.463 -2.81777 -1.9187 0
M  V30 3858 H 360.656 -2.99662 -0.119364 0
M  V30 3859 H 358.209 -1.5628 -0.0247128 0
M  V30 3860 H 358.944 -2.05172 -2.51147 0
M  V30 3861 H 358.729 -3.57732 -1.60531 0
M  V30 3862 H 360.219 -3.30205 -2.55645 0
M  V30 3863 N 360.656 0.0484629 -1.57525 0
M  V30 3864 C 361.619 1.03956 -2.04269 0
M  V30 3865 C 362.619 1.30211 -0.943496 0
M  V30 3866 O 363.809 1.25539 -1.20771 0
M  V30 3867 C 360.941 2.37742 -2.44319 0
M  V30 3868 H 362.134 0.636182 -2.93075 0
M  V30 3869 H 359.687 0.294811 -1.53494 0
M  V30 3870 H 360.422 2.82866 -1.5861 0
M  V30 3871 H 360.207 2.20021 -3.24551 0
M  V30 3872 H 361.697 3.08936 -2.80978 0
M  V30 3873 N 362.134 1.5431 0.320358 0
M  V30 3874 C 363.362 1.76636 1.07738 0
M  V30 3875 C 363.777 0.51649 1.81598 0
M  V30 3876 O 363.134 -0.512942 1.75143 0
M  V30 3877 C 363.185 2.96158 2.07299 0
M  V30 3878 O 362.906 4.16313 1.36438 0
M  V30 3879 C 364.407 3.3072 2.95193 0
M  V30 3880 H 361.627 0.589597 0.320339 0
M  V30 3881 H 364.171 2.01207 0.36551 0
M  V30 3882 H 362.326 2.73851 2.74016 0
M  V30 3883 H 362.74 4.83565 2.03138 0
M  V30 3884 H 364.214 4.17643 3.60941 0
M  V30 3885 H 364.691 2.48026 3.62463 0
M  V30 3886 H 365.297 3.55117 2.34034 0
M  V30 3887 N 363.613 -0.582584 1.46437 0
M  V30 3888 C 364.86 -1.34079 1.51753 0
M  V30 3889 C 365.188 -1.93762 0.169299 0
M  V30 3890 O 364.443 -1.76989 -0.835062 0
M  V30 3891 C 364.742 -2.48964 2.56421 0
M  V30 3892 C 364.408 -2.07273 4.00436 0
M  V30 3893 C 363.07 -1.95618 4.39644 0
M  V30 3894 C 365.422 -1.75111 4.90903 0
M  V30 3895 C 362.75 -1.5006 5.67185 0
M  V30 3896 C 365.102 -1.31032 6.18881 0
M  V30 3897 C 363.766 -1.17954 6.56996 0
M  V30 3898 H 363.036 -0.49063 0.555304 0
M  V30 3899 H 365.683 -0.656007 1.79913 0
M  V30 3900 H 363.988 -3.22889 2.21923 0
M  V30 3901 H 365.685 -3.07178 2.57765 0
M  V30 3902 H 362.275 -2.17279 3.69443 0
M  V30 3903 H 366.459 -1.83001 4.61329 0
M  V30 3904 H 361.715 -1.38577 5.95488 0
M  V30 3905 H 365.889 -1.052 6.88408 0
M  V30 3906 H 363.516 -0.824279 7.55718 0
M  V30 3907 N 365.091 -1.34144 -0.827227 0
M  V30 3908 C 366.054 -1.25264 -1.91942 0
M  V30 3909 C 367.054 -0.168866 -1.59911 0
M  V30 3910 O 368.244 -0.421198 -1.69031 0
M  V30 3911 C 365.376 -0.932952 -3.27885 0
M  V30 3912 H 366.569 -2.22357 -2.0124 0
M  V30 3913 H 364.122 -1.1837 -1.0207 0
M  V30 3914 H 364.857 0.0349917 -3.24281 0
M  V30 3915 H 364.642 -1.71682 -3.52516 0
M  V30 3916 H 366.132 -0.895874 -4.07877 0
M  V30 3917 N 366.569 1.04691 -1.17803 0
M  V30 3918 C 367.985 1.29963 -0.926379 0
M  V30 3919 C 368.185 1.97251 0.411635 0
M  V30 3920 O 367.241 2.24922 1.14744 0
M  V30 3921 C 368.554 2.16447 -2.08737 0
M  V30 3922 C 370.102 2.29814 -2.12496 0
M  V30 3923 C 370.577 3.19661 -3.27995 0
M  V30 3924 N 372.068 3.27247 -3.27816 0
M  V30 3925 C 372.803 3.96906 -4.13827 0
M  V30 3926 N 372.299 4.6895 -5.09959 0
M  V30 3927 N 374.092 3.93122 -4.01761 0
M  V30 3928 H 366.243 0.594182 -2.0392 0
M  V30 3929 H 368.506 0.324649 -0.890678 0
M  V30 3930 H 368.212 1.74304 -3.05469 0
M  V30 3931 H 368.086 3.17103 -2.04268 0
M  V30 3932 H 370.473 2.71196 -1.16347 0
M  V30 3933 H 370.554 1.2877 -2.21025 0
M  V30 3934 H 370.198 2.78991 -4.24413 0
M  V30 3935 H 370.128 4.20722 -3.16703 0
M  V30 3936 H 372.619 2.75921 -2.58217 0
M  V30 3937 H 372.932 5.19679 -5.71974 0
M  V30 3938 H 371.277 4.67875 -5.13924 0
M  V30 3939 H 374.468 3.35967 -3.2595 0
M  V30 3940 H 374.641 4.47139 -4.6901 0
M  V30 3941 N 368.047 0.979072 1.23499 0
M  V30 3942 C 368.957 0.526431 2.28617 0
M  V30 3943 C 369.973 -0.418126 1.68901 0
M  V30 3944 O 371.149 -0.288372 1.99325 0
M  V30 3945 C 368.214 -0.165235 3.46306 0
M  V30 3946 C 367.275 0.82056 4.21385 0
M  V30 3947 C 366.508 0.161807 5.33455 0
M  V30 3948 O 366.731 -1.04742 5.60701 0
M  V30 3949 O 365.665 0.859708 5.95729 0
M  V30 3950 H 369.491 1.4006 2.69475 0
M  V30 3951 H 367.076 0.746643 1.29405 0
M  V30 3952 H 368.958 -0.553287 4.17752 0
M  V30 3953 H 367.633 -1.01419 3.07402 0
M  V30 3954 H 366.54 1.25929 3.52268 0
M  V30 3955 H 367.873 1.63828 4.64135 0
M  V30 3956 N 369.525 -1.3858 0.750561 0
M  V30 3957 C 370.457 -2.29057 0.0810714 0
M  V30 3958 C 371.47 -1.47596 -0.686973 0
M  V30 3959 O 372.659 -1.70495 -0.528563 0
M  V30 3960 C 369.759 -3.26475 -0.909247 0
M  V30 3961 C 368.932 -4.36945 -0.199478 0
M  V30 3962 C 367.991 -5.14572 -1.10011 0
M  V30 3963 O 367.017 -5.66321 -0.57177 0
M  V30 3964 N 368.219 -5.27262 -2.42849 0
M  V30 3965 H 370.984 -2.87153 0.858087 0
M  V30 3966 H 368.545 -1.50328 0.60109 0
M  V30 3967 H 370.537 -3.75285 -1.51471 0
M  V30 3968 H 369.107 -2.69298 -1.58736 0
M  V30 3969 H 368.327 -3.8981 0.586664 0
M  V30 3970 H 369.615 -5.07963 0.291783 0
M  V30 3971 H 369.013 -4.86763 -2.88233 0
M  V30 3972 H 367.57 -5.79456 -2.98453 0
M  V30 3973 N 371.003 -0.499398 -1.49478 0
M  V30 3974 C 372.251 0.0455996 -2.02049 0
M  V30 3975 C 372.572 1.37633 -1.38138 0
M  V30 3976 O 371.842 1.8842 -0.536166 0
M  V30 3977 H 370.422 0.0198416 -0.746736 0
M  V30 3978 H 373.084 -0.656274 -1.83519 0
M  V30 3979 H 372.18 0.176445 -3.11601 0
M  V30 3980 N 372.481 1.55866 -0.233164 0
M  V30 3981 C 373.728 1.98603 0.395374 0
M  V30 3982 C 374.056 1.12105 1.58942 0
M  V30 3983 O 373.311 0.168656 1.94972 0
M  V30 3984 C 373.61 3.46856 0.861724 0
M  V30 3985 C 373.276 4.50348 -0.223066 0
M  V30 3986 C 371.938 4.78371 -0.521038 0
M  V30 3987 C 374.29 5.12355 -0.956124 0
M  V30 3988 C 371.618 5.6568 -1.55638 0
M  V30 3989 C 373.97 6.00786 -1.98089 0
M  V30 3990 C 372.634 6.27148 -2.28565 0
M  V30 3991 H 371.904 0.726739 0.144677 0
M  V30 3992 H 374.551 1.88491 -0.338114 0
M  V30 3993 H 372.856 3.5423 1.67418 0
M  V30 3994 H 374.553 3.77302 1.35809 0
M  V30 3995 H 371.143 4.28596 0.0193234 0
M  V30 3996 H 375.327 4.90765 -0.739166 0
M  V30 3997 H 370.583 5.84365 -1.798 0
M  V30 3998 H 374.757 6.4788 -2.55391 0
M  V30 3999 H 372.384 6.94597 -3.08932 0
M  V30 4000 N 373.959 -0.0401083 1.57549 0
M  V30 4001 C 374.869 -1.06133 2.0922 0
M  V30 4002 C 375.885 -1.40356 1.0284 0
M  V30 4003 O 377.061 -1.49897 1.34509 0
M  V30 4004 C 374.126 -2.34658 2.55218 0
M  V30 4005 C 373.187 -2.07117 3.76033 0
M  V30 4006 C 372.42 -3.29514 4.19829 0
M  V30 4007 O 372.643 -4.39794 3.63232 0
M  V30 4008 O 371.577 -3.15863 5.12362 0
M  V30 4009 H 375.403 -0.652244 2.96613 0
M  V30 4010 H 372.988 -0.256368 1.47184 0
M  V30 4011 H 374.87 -3.10239 2.85184 0
M  V30 4012 H 373.545 -2.74883 1.70941 0
M  V30 4013 H 372.452 -1.29139 3.51104 0
M  V30 4014 H 373.785 -1.71754 4.61261 0
M  V30 4015 N 375.437 -1.54477 -0.31217 0
M  V30 4016 C 376.665 -1.77205 -1.068 0
M  V30 4017 C 377.08 -0.526114 -1.81321 0
M  V30 4018 O 376.437 0.503647 -1.75413 0
M  V30 4019 C 376.488 -2.97253 -2.05725 0
M  V30 4020 O 376.209 -4.1703 -1.34228 0
M  V30 4021 C 377.71 -3.32281 -2.93435 0
M  V30 4022 H 374.93 -0.591287 -0.317208 0
M  V30 4023 H 377.474 -2.01398 -0.354834 0
M  V30 4024 H 375.629 -2.753 -2.72559 0
M  V30 4025 H 376.043 -4.84636 -2.00571 0
M  V30 4026 H 377.517 -4.19551 -3.58721 0
M  V30 4027 H 377.994 -2.49945 -3.61143 0
M  V30 4028 H 378.6 -3.56353 -2.32147 0
M  V30 4029 N 376.915 0.57481 -1.46744 0
M  V30 4030 C 377.862 1.68329 -1.57905 0
M  V30 4031 C 378.832 1.60625 -0.422927 0
M  V30 4032 O 380.017 1.79721 -0.640711 0
M  V30 4033 C 377.157 3.06665 -1.58274 0
M  V30 4034 C 376.27 3.24935 -2.84678 0
M  V30 4035 C 375.405 4.53566 -2.76499 0
M  V30 4036 C 374.444 4.65207 -3.97806 0
M  V30 4037 N 373.581 5.85172 -3.87967 0
M  V30 4038 H 378.421 1.58127 -2.52587 0
M  V30 4039 H 375.958 0.770552 -1.25303 0
M  V30 4040 H 377.916 3.86745 -1.56473 0
M  V30 4041 H 376.546 3.15745 -0.671194 0
M  V30 4042 H 375.598 2.38405 -2.96424 0
M  V30 4043 H 376.91 3.29403 -3.7456 0
M  V30 4044 H 376.064 5.41885 -2.72848 0
M  V30 4045 H 374.803 4.51548 -1.8427 0
M  V30 4046 H 373.808 3.75304 -4.0178 0
M  V30 4047 H 375.033 4.68997 -4.9114 0
M  V30 4048 H 372.979 5.84137 -2.98529 0
M  V30 4049 H 372.896 5.90943 -4.71511 0
M  V30 4050 H 374.164 6.759 -3.88303 0
M  V30 4051 N 378.394 1.34581 0.820102 0
M  V30 4052 C 379.671 1.17675 1.56244 0
M  V30 4053 C 380.051 -0.249541 2.0962 0
M  V30 4054 O 379.399 -1.25125 1.91196 0
M  V30 4055 C 379.609 2.23364 2.6816 0
M  V30 4056 C 380.957 2.58485 3.36854 0
M  V30 4057 O 381.981 2.22175 2.78418 0
M  V30 4058 O 380.84 3.20868 4.42386 0
M  V30 4059 H 377.934 0.456333 0.689702 0
M  V30 4060 H 380.48 1.46222 0.861231 0
M  V30 4061 H 379.252 3.19087 2.26493 0
M  V30 4062 H 378.875 1.96009 3.45928 0
M  V30 4063 N 379.872 -1.04064 1.18357 0
M  V30 4064 C 381.121 -1.76662 0.973313 0
M  V30 4065 C 381.434 -1.89154 -0.497991 0
M  V30 4066 O 382.64 -2.58606 -0.826762 0
M  V30 4067 C 381.096 -3.17624 1.69242 0
M  V30 4068 C 380.704 -3.13225 3.20303 0
M  V30 4069 C 382.448 -3.946 1.56497 0
M  V30 4070 C 380.355 -4.49046 3.84853 0
M  V30 4071 H 379.285 -0.662214 0.36054 0
M  V30 4072 H 381.936 -1.16553 1.41731 0
M  V30 4073 H 380.318 -3.78129 1.1762 0
M  V30 4074 H 381.492 -2.62172 3.78949 0
M  V30 4075 H 379.807 -2.49749 3.33189 0
M  V30 4076 H 382.404 -4.95042 2.02084 0
M  V30 4077 H 382.747 -4.13074 0.517243 0
M  V30 4078 H 383.28 -3.4067 2.05399 0
M  V30 4079 H 380.019 -4.35777 4.89672 0
M  V30 4080 H 379.539 -5.00203 3.30994 0
M  V30 4081 H 381.218 -5.17961 3.87718 0
M  V30 4082 N 381.35 -0.985608 -1.22978 0
M  V30 4083 C 382.297 -0.529825 -2.24636 0
M  V30 4084 C 383.267 0.434028 -1.60329 0
M  V30 4085 O 384.452 0.340414 -1.87739 0
M  V30 4086 C 381.592 0.156533 -3.44745 0
M  V30 4087 C 380.705 -0.848197 -4.23591 0
M  V30 4088 C 379.84 -0.136109 -5.31026 0
M  V30 4089 C 378.879 -1.1297 -6.01585 0
M  V30 4090 N 378.016 -0.446415 -7.00679 0
M  V30 4091 H 382.856 -1.40148 -2.62988 0
M  V30 4092 H 380.393 -0.702168 -1.29259 0
M  V30 4093 H 382.351 0.571324 -4.1327 0
M  V30 4094 H 380.981 0.992025 -3.07179 0
M  V30 4095 H 380.033 -1.38135 -3.54433 0
M  V30 4096 H 381.345 -1.60512 -4.72268 0
M  V30 4097 H 380.499 0.335784 -6.0577 0
M  V30 4098 H 379.238 0.653373 -4.83304 0
M  V30 4099 H 378.243 -1.6123 -5.25628 0
M  V30 4100 H 379.468 -1.91993 -6.51395 0
M  V30 4101 H 377.414 0.323763 -6.55201 0
M  V30 4102 H 377.331 -1.1419 -7.47326 0
M  V30 4103 H 378.599 0.00291697 -7.795 0
M  V30 4104 N 382.828 1.3818 -0.7579 0
M  V30 4105 C 383.738 2.3421 -0.135247 0
M  V30 4106 C 384.754 1.59487 0.695683 0
M  V30 4107 O 385.93 1.91657 0.618832 0
M  V30 4108 C 382.995 3.3862 0.744139 0
M  V30 4109 C 382.056 4.2918 -0.101658 0
M  V30 4110 C 381.289 5.28603 0.735851 0
M  V30 4111 O 381.512 5.35166 1.97366 0
M  V30 4112 O 380.446 6.01707 0.152372 0
M  V30 4113 H 384.272 2.8916 -0.928436 0
M  V30 4114 H 381.857 1.40101 -0.518855 0
M  V30 4115 H 383.739 4.02539 1.2466 0
M  V30 4116 H 382.414 2.86019 1.51575 0
M  V30 4117 H 381.321 3.68407 -0.650167 0
M  V30 4118 H 382.654 4.85048 -0.836024 0
M  V30 4119 N 384.306 0.507319 1.49211 0
M  V30 4120 C 385.555 -0.0368315 2.01666 0
M  V30 4121 C 385.868 -1.37459 1.39156 0
M  V30 4122 O 387.074 -2.00579 1.82976 0
M  V30 4123 C 385.53 -0.116089 3.59713 0
M  V30 4124 C 385.138 1.2154 4.31198 0
M  V30 4125 C 386.882 -0.610268 4.2009 0
M  V30 4126 C 384.789 1.09796 5.81119 0
M  V30 4127 H 383.719 -0.0175376 0.753796 0
M  V30 4128 H 386.37 0.647691 1.71689 0
M  V30 4129 H 384.752 -0.8652 3.86433 0
M  V30 4130 H 385.926 1.9783 4.16173 0
M  V30 4131 H 384.241 1.64352 3.82593 0
M  V30 4132 H 386.838 -0.715742 5.29888 0
M  V30 4133 H 387.181 -1.61064 3.8388 0
M  V30 4134 H 387.714 0.0824916 3.97714 0
M  V30 4135 H 384.453 2.0728 6.21864 0
M  V30 4136 H 383.973 0.376058 5.9862 0
M  V30 4137 H 385.652 0.779281 6.4229 0
M  V30 4138 N 385.784 -1.5574 0.241426 0
M  V30 4139 C 386.747 -2.19877 -0.647063 0
M  V30 4140 C 387.747 -1.16642 -1.10686 0
M  V30 4141 O 388.937 -1.41757 -1.01245 0
M  V30 4142 C 386.069 -2.83797 -1.88871 0
M  V30 4143 H 387.262 -2.99772 -0.087574 0
M  V30 4144 H 384.815 -1.56298 -0.00813574 0
M  V30 4145 H 385.55 -2.07824 -2.48957 0
M  V30 4146 H 385.335 -3.59414 -1.56728 0
M  V30 4147 H 386.825 -3.32898 -2.52129 0
M  V30 4148 N 387.262 0.0317525 -1.57568 0
M  V30 4149 C 388.209 1.0332 -2.06382 0
M  V30 4150 C 389.179 1.36082 -0.952414 0
M  V30 4151 O 390.364 1.46466 -1.2228 0
M  V30 4152 C 387.504 2.32989 -2.54578 0
M  V30 4153 C 386.617 2.0641 -3.79498 0
M  V30 4154 C 385.752 3.2993 -4.16317 0
M  V30 4155 C 384.791 2.98893 -5.34162 0
M  V30 4156 N 383.928 4.14857 -5.66426 0
M  V30 4157 H 388.768 0.609982 -2.9169 0
M  V30 4158 H 386.305 0.289573 -1.44222 0
M  V30 4159 H 388.263 3.0875 -2.80587 0
M  V30 4160 H 386.893 2.73039 -1.7219 0
M  V30 4161 H 385.945 1.21158 -3.6059 0
M  V30 4162 H 387.257 1.79513 -4.65378 0
M  V30 4163 H 386.411 4.1406 -4.4344 0
M  V30 4164 H 385.15 3.59938 -3.29083 0
M  V30 4165 H 384.155 2.13164 -5.06795 0
M  V30 4166 H 385.38 2.70165 -6.23047 0
M  V30 4167 H 383.326 4.44821 -4.82151 0
M  V30 4168 H 383.243 3.91374 -6.4681 0
M  V30 4169 H 384.511 4.99868 -5.98124 0
M  V30 4170 N 388.74 1.54641 0.303973 0
M  V30 4171 C 389.687 1.85386 1.37479 0
M  V30 4172 C 390.657 0.702528 1.50512 0
M  V30 4173 O 391.842 0.950867 1.65418 0
M  V30 4174 C 388.982 2.10413 2.73533 0
M  V30 4175 C 388.095 3.38049 2.68974 0
M  V30 4176 C 387.23 3.52934 3.97002 0
M  V30 4177 C 386.269 4.74373 3.86829 0
M  V30 4178 N 385.406 4.8608 5.06627 0
M  V30 4179 H 390.246 2.76732 1.1056 0
M  V30 4180 H 387.783 1.37034 0.534805 0
M  V30 4181 H 389.741 2.22919 3.52652 0
M  V30 4182 H 388.371 1.22338 2.98719 0
M  V30 4183 H 387.423 3.3418 1.81736 0
M  V30 4184 H 388.735 4.27288 2.57346 0
M  V30 4185 H 387.889 3.65088 4.84557 0
M  V30 4186 H 386.628 2.61824 4.1146 0
M  V30 4187 H 385.633 4.62255 2.97658 0
M  V30 4188 H 386.858 5.66888 3.73918 0
M  V30 4189 H 384.804 3.97891 5.21554 0
M  V30 4190 H 384.721 5.69315 4.9741 0
M  V30 4191 H 385.989 5.02587 5.95841 0
M  V30 4192 N 390.218 -0.567019 1.47046 0
M  V30 4193 C 391.446 -1.35027 1.56765 0
M  V30 4194 C 391.861 -1.8758 0.214316 0
M  V30 4195 O 391.218 -1.64471 -0.790919 0
M  V30 4196 C 391.269 -2.52698 2.58507 0
M  V30 4197 O 390.99 -2.0232 3.88585 0
M  V30 4198 C 392.491 -3.45043 2.78316 0
M  V30 4199 H 389.711 -0.41195 0.529658 0
M  V30 4200 H 392.255 -0.687832 1.92585 0
M  V30 4201 H 390.41 -3.149 2.25648 0
M  V30 4202 H 390.824 -2.79068 4.44096 0
M  V30 4203 H 392.298 -4.2405 3.53391 0
M  V30 4204 H 392.775 -3.97971 1.85784 0
M  V30 4205 H 393.381 -2.88665 3.12334 0
M  V30 4206 N 391.696 -1.35014 -0.812953 0
M  V30 4207 C 392.628 -1.23262 -1.93233 0
M  V30 4208 C 393.641 -0.157371 -1.62038 0
M  V30 4209 O 394.83 -0.410096 -1.73725 0
M  V30 4210 C 391.93 -0.87392 -3.27438 0
M  V30 4211 C 391.103 -2.04622 -3.86586 0
M  V30 4212 C 390.162 -1.66432 -4.99186 0
M  V30 4213 O 389.188 -2.38222 -5.16951 0
M  V30 4214 N 390.39 -0.584248 -5.77552 0
M  V30 4215 H 393.155 -2.19699 -2.03844 0
M  V30 4216 H 390.716 -1.281 -0.99005 0
M  V30 4217 H 392.708 -0.600039 -4.00227 0
M  V30 4218 H 391.278 0.00057392 -3.126 0
M  V30 4219 H 390.498 -2.48427 -3.06068 0
M  V30 4220 H 391.786 -2.82999 -4.22835 0
M  V30 4221 H 391.184 0.0123526 -5.65699 0
M  V30 4222 H 389.741 -0.37013 -6.50748 0
M  V30 4223 N 393.175 1.03435 -1.18907 0
M  V30 4224 C 394.138 2.09756 -0.923844 0
M  V30 4225 C 395.138 1.60528 0.093416 0
M  V30 4226 O 396.328 1.73631 -0.140727 0
M  V30 4227 C 393.46 3.38692 -0.387354 0
M  V30 4228 H 394.653 2.34719 -1.86674 0
M  V30 4229 H 392.206 1.19959 -1.00197 0
M  V30 4230 H 392.941 3.19396 0.561845 0
M  V30 4231 H 392.726 3.75742 -1.12074 0
M  V30 4232 H 394.216 4.17016 -0.220694 0
M  V30 4233 N 394.653 0.992116 1.22453 0
M  V30 4234 C 395.583 0.561677 2.26644 0
M  V30 4235 C 396.564 -0.411055 1.65059 0
M  V30 4236 O 397.749 -0.301861 1.9184 0
M  V30 4237 C 394.879 -0.125247 3.47074 0
M  V30 4238 C 393.833 0.765948 4.21091 0
M  V30 4239 C 393.159 -0.0538484 5.34673 0
M  V30 4240 C 394.459 2.06242 4.79856 0
M  V30 4241 H 396.153 1.43259 2.62902 0
M  V30 4242 H 393.699 0.690283 1.26377 0
M  V30 4243 H 395.652 -0.437764 4.1912 0
M  V30 4244 H 394.376 -1.03069 3.0991 0
M  V30 4245 H 393.035 1.0621 3.50878 0
M  V30 4246 H 392.683 -0.960188 4.9375 0
M  V30 4247 H 392.383 0.539415 5.85119 0
M  V30 4248 H 393.907 -0.360477 6.09535 0
M  V30 4249 H 395.321 1.8139 5.43848 0
M  V30 4250 H 393.718 2.60444 5.40638 0
M  V30 4251 H 394.788 2.74167 3.99951 0
M  V30 4252 N 396.131 -1.37776 0.765217 0
M  V30 4253 C 397.542 -1.82521 0.392819 0
M  V30 4254 C 397.893 -1.63789 -1.08017 0
M  V30 4255 O 397.018 -1.14542 -1.83601 0
M  V30 4256 C 397.613 -3.31358 0.706214 0
M  V30 4257 C 396.172 -3.74406 0.386952 0
M  V30 4258 C 395.319 -2.60394 0.953422 0
M  V30 4259 H 398.27 -1.2634 0.960412 0
M  V30 4260 H 398.291 -3.80498 -0.0114706 0
M  V30 4261 H 397.803 -3.44959 1.77833 0
M  V30 4262 H 395.904 -3.66377 -0.678112 0
M  V30 4263 H 396.017 -4.70749 0.890636 0
M  V30 4264 H 394.381 -2.51878 0.378064 0
M  V30 4265 H 395.164 -2.76791 2.03081 0
M  V30 4266 N 397.609 -0.515225 -1.4894 0
M  V30 4267 C 398.556 0.255567 -2.29381 0
M  V30 4268 C 399.526 0.947387 -1.36432 0
M  V30 4269 O 400.711 0.951288 -1.65394 0
M  V30 4270 C 397.851 1.30551 -3.19453 0
M  V30 4271 C 396.964 0.624029 -4.27469 0
M  V30 4272 C 396.099 1.65563 -5.0474 0
M  V30 4273 C 395.138 0.956802 -6.04576 0
M  V30 4274 N 394.275 1.93326 -6.74959 0
M  V30 4275 H 399.115 -0.436607 -2.94784 0
M  V30 4276 H 396.652 -0.227154 -1.45336 0
M  V30 4277 H 398.61 1.92639 -3.70062 0
M  V30 4278 H 397.24 1.96626 -2.56004 0
M  V30 4279 H 396.292 -0.110459 -3.8024 0
M  V30 4280 H 397.604 0.0746092 -4.98744 0
M  V30 4281 H 396.758 2.35119 -5.59289 0
M  V30 4282 H 395.497 2.23893 -4.3327 0
M  V30 4283 H 394.502 0.247097 -5.49244 0
M  V30 4284 H 395.727 0.379814 -6.78037 0
M  V30 4285 H 393.673 2.50591 -6.06251 0
M  V30 4286 H 393.59 1.43489 -7.42258 0
M  V30 4287 H 394.858 2.62126 -7.34105 0
M  V30 4288 N 399.087 1.5561 -0.249682 0
M  V30 4289 C 400.02 2.17537 0.689408 0
M  V30 4290 C 400.998 1.12829 1.17083 0
M  V30 4291 O 402.182 1.41229 1.24846 0
M  V30 4292 C 399.309 2.77828 1.93725 0
M  V30 4293 C 398.355 3.95615 1.59346 0
M  V30 4294 S 399.188 5.30988 0.69367 0
M  V30 4295 C 400.344 5.94734 1.95046 0
M  V30 4296 H 400.577 2.96852 0.163142 0
M  V30 4297 H 398.11 1.54362 -0.0341166 0
M  V30 4298 H 400.068 3.13199 2.65361 0
M  V30 4299 H 398.729 1.98454 2.43465 0
M  V30 4300 H 397.922 4.364 2.52132 0
M  V30 4301 H 397.524 3.61535 0.957512 0
M  V30 4302 H 399.816 6.12419 2.89739 0
M  V30 4303 H 400.759 6.90109 1.58604 0
M  V30 4304 H 401.167 5.23832 2.10381 0
M  V30 4305 N 400.565 -0.0233959 1.57583 0
M  V30 4306 C 401.513 -1.04063 2.08023 0
M  V30 4307 C 402.507 -1.37084 0.995204 0
M  V30 4308 O 403.713 -1.35923 1.18004 0
M  V30 4309 H 400.088 -0.353144 0.663922 0
M  V30 4310 H 402.059 -0.589453 2.9252 0
M  V30 4311 C 400.808 -2.33123 2.57971 0
M  V30 4312 H 400.131 -2.08577 3.4108 0
M  V30 4313 H 401.571 -3.02632 2.96967 0
M  V30 4314 C 400.03 -3.02483 1.48342 0
M  V30 4315 O 400.56 -3.92541 0.852898 0
M  V30 4316 N 398.766 -2.63909 1.21658 0
M  V30 4317 H 398.313 -1.90758 1.73116 0
M  V30 4318 H 398.271 -3.10633 0.485218 0
M  V30 4319 N 402.043 -1.548 -0.295768 0
M  V30 4320 C 403.268 -1.78653 -1.05346 0
M  V30 4321 C 403.693 -0.546894 -1.79974 0
M  V30 4322 O 403.051 0.502763 -1.7419 0
M  V30 4323 C 403.099 -2.99679 -2.00561 0
M  V30 4324 O 402.203 -2.7317 -3.08953 0
M  V30 4325 H 401.544 -0.59116 -0.302367 0
M  V30 4326 H 404.074 -2.01895 -0.331598 0
M  V30 4327 H 404.084 -3.27793 -2.42932 0
M  V30 4328 H 402.759 -3.89562 -1.4565 0
M  V30 4329 H 401.336 -2.56089 -2.71059 0
M  V30 4330 N 403.521 0.559213 -1.47345 0
M  V30 4331 C 404.468 1.66645 -1.59682 0
M  V30 4332 C 405.438 1.60168 -0.43994 0
M  V30 4333 O 406.623 1.79031 -0.659736 0
M  V30 4334 C 403.763 3.04969 -1.61518 0
M  V30 4335 C 402.876 3.21897 -2.88108 0
M  V30 4336 C 402.011 4.50608 -2.81294 0
M  V30 4337 C 401.05 4.60961 -4.02717 0
M  V30 4338 N 400.187 5.81024 -3.94151 0
M  V30 4339 H 405.027 1.55439 -2.54249 0
M  V30 4340 H 402.564 0.757219 -1.26113 0
M  V30 4341 H 404.522 3.85064 -1.60566 0
M  V30 4342 H 403.152 3.15015 -0.704645 0
M  V30 4343 H 402.204 2.35248 -2.98936 0
M  V30 4344 H 403.516 3.25412 -3.78032 0
M  V30 4345 H 402.67 5.3896 -2.7858 0
M  V30 4346 H 401.409 4.49568 -1.89049 0
M  V30 4347 H 400.414 3.71021 -4.05738 0
M  V30 4348 H 401.639 4.63761 -4.96087 0
M  V30 4349 H 399.585 5.80938 -3.04708 0
M  V30 4350 H 399.502 5.85909 -4.77752 0
M  V30 4351 H 400.77 6.71744 -3.9545 0
M  V30 4352 N 404.999 1.35443 0.805782 0
M  V30 4353 C 406.415 1.15499 1.10146 0
M  V30 4354 C 406.615 -0.0319975 2.01475 0
M  V30 4355 O 405.671 -0.70236 2.42535 0
M  V30 4356 C 406.984 2.45833 1.73166 0
M  V30 4357 C 408.532 2.52047 1.85583 0
M  V30 4358 C 409.007 3.82427 2.52019 0
M  V30 4359 N 410.498 3.83682 2.59504 0
M  V30 4360 C 411.233 4.81294 3.11679 0
M  V30 4361 N 410.729 5.89294 3.64287 0
M  V30 4362 N 412.522 4.6873 3.1024 0
M  V30 4363 H 404.673 2.11469 0.198678 0
M  V30 4364 H 406.936 0.93594 0.150731 0
M  V30 4365 H 406.642 3.32874 1.13526 0
M  V30 4366 H 406.516 2.6044 2.72857 0
M  V30 4367 H 408.903 1.65435 2.44367 0
M  V30 4368 H 408.984 2.41354 0.847455 0
M  V30 4369 H 408.628 4.69437 1.93885 0
M  V30 4370 H 408.558 3.90409 3.53395 0
M  V30 4371 H 411.049 3.05648 2.22234 0
M  V30 4372 H 411.362 6.59768 4.02401 0
M  V30 4373 H 409.707 5.92985 3.62483 0
M  V30 4374 H 412.898 3.83496 2.68419 0
M  V30 4375 H 413.071 5.44965 3.50596 0
M  V30 4376 N 406.477 -1.02803 1.19454 0
M  V30 4377 C 407.409 -2.11181 0.890807 0
M  V30 4378 C 408.422 -1.6238 -0.116829 0
M  V30 4379 O 409.611 -1.78144 0.112694 0
M  V30 4380 C 406.711 -3.37461 0.311942 0
M  V30 4381 C 405.884 -4.15446 1.36834 0
M  V30 4382 C 404.943 -5.20039 0.802864 0
M  V30 4383 O 403.969 -5.49602 1.48077 0
M  V30 4384 N 405.171 -5.79165 -0.393417 0
M  V30 4385 H 407.936 -2.37827 1.82369 0
M  V30 4386 H 405.497 -1.19101 1.09666 0
M  V30 4387 H 407.489 -4.0462 -0.0802225 0
M  V30 4388 H 406.059 -3.08156 -0.52524 0
M  V30 4389 H 405.279 -3.43423 1.93531 0
M  V30 4390 H 406.567 -4.64335 2.08015 0
M  V30 4391 H 405.965 -5.57466 -0.961658 0
M  V30 4392 H 404.522 -6.47729 -0.727351 0
M  V30 4393 N 407.956 -0.998596 -1.21925 0
M  V30 4394 C 409.372 -0.710303 -1.42923 0
M  V30 4395 C 409.572 0.716933 -1.88314 0
M  V30 4396 O 408.628 1.48712 -2.04062 0
M  V30 4397 C 409.941 -1.72072 -2.466 0
M  V30 4398 C 411.489 -1.73681 -2.60392 0
M  V30 4399 C 411.964 -2.73601 -3.67296 0
M  V30 4400 N 413.455 -2.7223 -3.7476 0
M  V30 4401 C 414.19 -3.46206 -4.57087 0
M  V30 4402 N 413.686 -4.29802 -5.43362 0
M  V30 4403 N 415.479 -3.34886 -4.51451 0
M  V30 4404 H 407.63 -1.92028 -0.9077 0
M  V30 4405 H 409.893 -0.828487 -0.460775 0
M  V30 4406 H 409.599 -2.74231 -2.20206 0
M  V30 4407 H 409.473 -1.51818 -3.45299 0
M  V30 4408 H 411.86 -0.722173 -2.86127 0
M  V30 4409 H 411.941 -1.98005 -1.61949 0
M  V30 4410 H 411.585 -3.75217 -3.42307 0
M  V30 4411 H 411.515 -2.46545 -4.65321 0
M  V30 4412 H 414.006 -2.11576 -3.1312 0
M  V30 4413 H 414.319 -4.83061 -6.03218 0
M  V30 4414 H 412.664 -4.33887 -5.42925 0
M  V30 4415 H 415.855 -2.69015 -3.83078 0
M  V30 4416 H 416.028 -3.92796 -5.15379 0
M  V30 4417 N 409.434 1.37368 -0.772513 0
M  V30 4418 C 410.683 1.98918 -0.333861 0
M  V30 4419 C 410.996 1.62017 1.09589 0
M  V30 4420 O 412.202 2.16676 1.63596 0
M  V30 4421 C 410.658 3.55735 -0.545971 0
M  V30 4422 C 410.266 4.01573 -1.98603 0
M  V30 4423 C 412.01 4.24156 -0.170979 0
M  V30 4424 C 409.917 5.51102 -2.1457 0
M  V30 4425 H 408.847 0.744214 -0.121085 0
M  V30 4426 H 411.498 1.56888 -0.95175 0
M  V30 4427 H 409.88 3.95748 0.141387 0
M  V30 4428 H 411.054 3.72803 -2.7084 0
M  V30 4429 H 409.369 3.45937 -2.31769 0
M  V30 4430 H 411.966 5.34024 -0.26878 0
M  V30 4431 H 412.309 4.06917 0.878855 0
M  V30 4432 H 412.842 3.89447 -0.810914 0
M  V30 4433 H 409.581 5.73268 -3.17875 0
M  V30 4434 H 409.101 5.81554 -1.46817 0
M  V30 4435 H 410.78 6.17083 -1.94468 0
M  V30 4436 N 410.912 0.523116 1.48665 0
M  V30 4437 C 412.158 -0.0134963 2.02796 0
M  V30 4438 C 412.491 -1.34582 1.40004 0
M  V30 4439 O 411.766 -1.86756 0.543381 0
M  V30 4440 C 412.049 -0.14276 3.59817 0
M  V30 4441 C 411.902 1.21425 4.331 0
M  V30 4442 C 413.221 -0.872856 4.31357 0
M  V30 4443 H 410.34 -0.00343074 0.736992 0
M  V30 4444 H 412.982 0.678816 1.7746 0
M  V30 4445 H 411.132 -0.732401 3.81534 0
M  V30 4446 H 412.804 1.84447 4.2282 0
M  V30 4447 H 411.047 1.79791 3.94788 0
M  V30 4448 H 411.718 1.07687 5.41394 0
M  V30 4449 H 414.194 -0.372555 4.14429 0
M  V30 4450 H 413.07 -0.932185 5.40927 0
M  V30 4451 H 413.331 -1.92161 3.98154 0
M  V30 4452 N 412.39 -1.55475 0.257931 0
M  V30 4453 C 413.639 -1.98383 -0.364275 0
M  V30 4454 C 413.952 -1.14952 -1.58258 0
M  V30 4455 O 415.158 -1.47924 -2.27664 0
M  V30 4456 C 413.614 -3.53037 -0.699479 0
M  V30 4457 C 413.222 -4.45223 0.498046 0
M  V30 4458 C 414.966 -4.04575 -1.28526 0
M  V30 4459 C 412.873 -5.91238 0.138383 0
M  V30 4460 H 411.803 -0.740911 -0.13988 0
M  V30 4461 H 414.454 -1.79936 0.359883 0
M  V30 4462 H 412.836 -3.6722 -1.48207 0
M  V30 4463 H 414.01 -4.42803 1.27522 0
M  V30 4464 H 412.325 -4.04226 0.999503 0
M  V30 4465 H 414.922 -5.11196 -1.56788 0
M  V30 4466 H 415.265 -3.5258 -2.21344 0
M  V30 4467 H 415.798 -3.93762 -0.565337 0
M  V30 4468 H 412.537 -6.47294 1.03398 0
M  V30 4469 H 412.057 -5.96768 -0.602374 0
M  V30 4470 H 413.736 -6.46413 -0.27553 0
M  V30 4471 N 413.868 0.0150385 -1.57593 0
M  V30 4472 C 415.115 0.703001 -1.89906 0
M  V30 4473 C 415.443 1.74604 -0.856944 0
M  V30 4474 O 414.698 1.95197 0.140287 0
M  V30 4475 C 414.997 1.39686 -3.28972 0
M  V30 4476 C 414.663 0.488457 -4.48246 0
M  V30 4477 C 413.325 0.2383 -4.8061 0
M  V30 4478 C 415.677 -0.137881 -5.21018 0
M  V30 4479 C 413.005 -0.646738 -5.83125 0
M  V30 4480 C 415.357 -1.0107 -6.24474 0
M  V30 4481 C 414.021 -1.27019 -6.55303 0
M  V30 4482 H 413.291 0.257246 -0.694914 0
M  V30 4483 H 415.938 -0.037259 -1.91464 0
M  V30 4484 H 414.243 2.21079 -3.23468 0
M  V30 4485 H 415.94 1.93495 -3.51227 0
M  V30 4486 H 412.53 0.693593 -4.22951 0
M  V30 4487 H 416.714 0.0423953 -4.96282 0
M  V30 4488 H 411.97 -0.855937 -6.05379 0
M  V30 4489 H 416.144 -1.50247 -6.79999 0
M  V30 4490 H 413.771 -1.95769 -7.3456 0
M  V30 4491 N 415.346 1.54954 0.287554 0
M  V30 4492 C 416.574 1.78881 1.03967 0
M  V30 4493 C 416.989 0.554894 1.80462 0
M  V30 4494 O 416.346 -0.475676 1.76192 0
M  V30 4495 C 416.397 3.00488 2.0097 0
M  V30 4496 O 416.118 4.19113 1.27577 0
M  V30 4497 C 417.619 3.36907 2.88112 0
M  V30 4498 H 414.839 0.596259 0.307761 0
M  V30 4499 H 417.383 2.01937 0.322749 0
M  V30 4500 H 415.538 2.79601 2.68145 0
M  V30 4501 H 415.952 4.87765 1.92835 0
M  V30 4502 H 417.426 4.25205 3.52001 0
M  V30 4503 H 417.903 2.55659 3.57121 0
M  V30 4504 H 418.509 3.60001 2.26449 0
M  V30 4505 N 416.824 -0.551391 1.4764 0
M  V30 4506 C 417.756 -1.67333 1.56628 0
M  V30 4507 C 418.769 -1.56398 0.452045 0
M  V30 4508 O 419.958 -1.6325 0.721926 0
M  V30 4509 C 417.058 -3.05841 1.45994 0
M  V30 4510 C 416.231 -3.42472 2.72088 0
M  V30 4511 C 415.29 -4.60168 2.55209 0
M  V30 4512 O 414.316 -4.64458 3.2904 0
M  V30 4513 N 415.518 -5.57024 1.63416 0
M  V30 4514 H 418.283 -1.60066 2.53375 0
M  V30 4515 H 415.844 -0.738169 1.44093 0
M  V30 4516 H 417.836 -3.8242 1.32428 0
M  V30 4517 H 416.406 -3.07302 0.573071 0
M  V30 4518 H 415.626 -2.55284 3.00373 0
M  V30 4519 H 416.914 -3.63723 3.55785 0
M  V30 4520 H 416.312 -5.56319 1.02594 0
M  V30 4521 H 414.869 -6.32906 1.558 0
M  V30 4522 N 418.302 -1.35869 -0.798587 0
M  V30 4523 C 419.55 -1.29332 -1.55298 0
M  V30 4524 C 419.871 0.129729 -1.94568 0
M  V30 4525 O 419.141 1.06796 -1.6423 0
M  V30 4526 H 417.721 -0.475737 -0.57592 0
M  V30 4527 H 420.383 -1.70062 -0.952093 0
M  V30 4528 H 419.479 -1.91458 -2.46476 0
M  V30 4529 N 419.78 1.02168 -1.19998 0
M  V30 4530 C 421.196 1.27969 -0.953737 0
M  V30 4531 C 421.396 1.98079 0.369703 0
M  V30 4532 O 420.452 2.27306 1.09947 0
M  V30 4533 C 421.765 2.11971 -2.13281 0
M  V30 4534 C 423.313 2.25255 -2.17323 0
M  V30 4535 C 423.788 3.12632 -3.34702 0
M  V30 4536 N 425.279 3.2022 -3.34684 0
M  V30 4537 C 426.014 3.88039 -4.22153 0
M  V30 4538 N 425.51 4.58027 -5.19791 0
M  V30 4539 N 427.303 3.84511 -4.10009 0
M  V30 4540 H 419.454 0.550794 -2.05134 0
M  V30 4541 H 421.717 0.305683 -0.897364 0
M  V30 4542 H 421.423 1.67785 -3.09097 0
M  V30 4543 H 421.297 3.12699 -2.10949 0
M  V30 4544 H 423.684 2.68667 -1.22073 0
M  V30 4545 H 423.765 1.24053 -2.23706 0
M  V30 4546 H 423.409 2.69926 -4.30235 0
M  V30 4547 H 423.339 4.13909 -3.25556 0
M  V30 4548 H 425.83 2.70382 -2.64012 0
M  V30 4549 H 426.143 5.07429 -5.82868 0
M  V30 4550 H 424.488 4.56869 -5.23733 0
M  V30 4551 H 427.679 3.28978 -3.33003 0
M  V30 4552 H 427.852 4.3709 -4.78389 0
M  V30 4553 N 421.258 1.00505 1.21394 0
M  V30 4554 C 422.535 0.603277 1.86064 0
M  V30 4555 C 422.915 -0.919095 1.90042 0
M  V30 4556 O 422.263 -1.80607 1.39977 0
M  V30 4557 C 422.473 1.23772 3.26315 0
M  V30 4558 C 423.821 1.34586 4.02705 0
M  V30 4559 O 424.845 1.19304 3.35626 0
M  V30 4560 O 423.704 1.59169 5.22807 0
M  V30 4561 H 420.798 0.206634 0.800769 0
M  V30 4562 H 423.344 1.1017 1.29076 0
M  V30 4563 H 422.116 2.27848 3.18121 0
M  V30 4564 H 421.739 0.725648 3.90922 0
M  V30 4565 N 422.737 -1.36956 0.779787 0
M  V30 4566 C 424.014 -1.93697 0.272156 0
M  V30 4567 C 424.394 -1.71267 -1.23413 0
M  V30 4568 O 423.742 -1.06607 -2.02107 0
M  V30 4569 C 423.952 -3.42812 0.654291 0
M  V30 4570 C 425.3 -4.19921 0.628602 0
M  V30 4571 O 426.324 -3.51209 0.594172 0
M  V30 4572 O 425.183 -5.42465 0.662864 0
M  V30 4573 H 422.277 -0.824447 0.0649286 0
M  V30 4574 H 424.823 -1.46196 0.861682 0
M  V30 4575 H 423.595 -3.52754 1.69353 0
M  V30 4576 H 423.218 -3.97582 0.0381369 0
M  V30 4577 N 424.215 -0.530993 -1.48385 0
M  V30 4578 C 425.443 -0.00134122 -2.069 0
M  V30 4579 C 425.858 1.2805 -1.3874 0
M  V30 4580 O 425.215 1.76204 -0.475244 0
M  V30 4581 C 425.266 0.225256 -3.60798 0
M  V30 4582 O 424.987 -1.0058 -4.26398 0
M  V30 4583 C 426.488 0.795172 -4.3611 0
M  V30 4584 H 423.708 -0.0339704 -0.67014 0
M  V30 4585 H 426.252 -0.736926 -1.90761 0
M  V30 4586 H 424.407 0.910891 -3.76539 0
M  V30 4587 H 424.821 -0.787165 -5.1856 0
M  V30 4588 H 426.295 0.903143 -5.44562 0
M  V30 4589 H 426.772 1.80031 -4.00606 0
M  V30 4590 H 427.378 0.146069 -4.25049 0
M  V30 4591 N 425.693 1.55336 -0.266172 0
M  V30 4592 C 426.942 1.98574 0.353749 0
M  V30 4593 C 427.255 1.15789 1.57646 0
M  V30 4594 O 428.461 1.49129 2.26876 0
M  V30 4595 C 426.917 3.53403 0.680747 0
M  V30 4596 C 426.525 4.44953 -0.52165 0
M  V30 4597 C 428.269 4.05251 1.26379 0
M  V30 4598 C 426.176 5.91156 -0.169736 0
M  V30 4599 H 425.106 0.741643 0.135949 0
M  V30 4600 H 427.757 1.79743 -0.369421 0
M  V30 4601 H 426.139 3.68001 1.46257 0
M  V30 4602 H 427.313 4.42121 -1.29869 0
M  V30 4603 H 425.628 4.03691 -1.02093 0
M  V30 4604 H 428.225 5.12021 1.54074 0
M  V30 4605 H 428.568 3.53749 2.19471 0
M  V30 4606 H 429.101 3.94057 0.544447 0
M  V30 4607 H 425.84 6.46736 -1.0683 0
M  V30 4608 H 425.36 5.97079 0.570717 0
M  V30 4609 H 427.039 6.4655 0.241245 0
M  V30 4610 N 427.171 -0.0066808 1.57599 0
M  V30 4611 C 428.104 -1.03397 2.03431 0
M  V30 4612 C 429.082 -1.33872 0.922877 0
M  V30 4613 O 430.266 -1.4615 1.19048 0
M  V30 4614 C 427.393 -2.36325 2.42628 0
M  V30 4615 C 426.439 -2.21557 3.64438 0
M  V30 4616 S 427.272 -1.54789 5.12641 0
M  V30 4617 C 428.428 -2.8916 5.55101 0
M  V30 4618 H 428.661 -0.643687 2.90248 0
M  V30 4619 H 426.194 -0.217349 1.52863 0
M  V30 4620 H 428.152 -3.12759 2.65879 0
M  V30 4621 H 426.813 -2.72495 1.56222 0
M  V30 4622 H 426.006 -3.1974 3.89592 0
M  V30 4623 H 425.608 -1.53267 3.41153 0
M  V30 4624 H 427.9 -3.8547 5.57153 0
M  V30 4625 H 428.843 -2.68713 6.55133 0
M  V30 4626 H 429.251 -2.92762 4.82649 0
M  V30 4627 N 428.649 -1.55105 -0.279332 0
M  V30 4628 C 429.612 -1.86783 -1.32834 0
M  V30 4629 C 430.612 -0.74199 -1.42657 0
M  V30 4630 O 431.802 -1.0102 -1.41918 0
M  V30 4631 C 428.934 -2.06746 -2.71052 0
M  V30 4632 H 430.127 -2.8055 -1.05979 0
M  V30 4633 H 427.68 -1.47499 -0.517087 0
M  V30 4634 H 428.415 -1.15339 -3.03097 0
M  V30 4635 H 428.2 -2.88711 -2.65309 0
M  V30 4636 H 429.69 -2.32549 -3.46858 0
M  V30 4637 N 430.127 0.543554 -1.4793 0
M  V30 4638 C 431.355 1.32516 -1.58894 0
M  V30 4639 C 431.77 1.87215 -0.244131 0
M  V30 4640 O 431.127 1.65709 0.764652 0
M  V30 4641 C 431.178 2.48554 -2.62494 0
M  V30 4642 O 430.899 1.96112 -3.91755 0
M  V30 4643 C 432.4 3.40572 -2.8377 0
M  V30 4644 H 429.62 0.403472 -0.536145 0
M  V30 4645 H 432.164 0.657106 -1.93655 0
M  V30 4646 H 430.319 3.1127 -2.30629 0
M  V30 4647 H 430.733 2.71967 -4.4848 0
M  V30 4648 H 432.207 4.18375 -3.60093 0
M  V30 4649 H 432.684 3.94965 -1.92092 0
M  V30 4650 H 433.29 2.8366 -3.16887 0
M  V30 4651 N 431.605 1.3629 0.791371 0
M  V30 4652 C 432.515 1.32606 1.93527 0
M  V30 4653 C 433.531 0.228541 1.72493 0
M  V30 4654 O 434.707 0.460571 1.96063 0
M  V30 4655 C 431.772 1.11271 3.28359 0
M  V30 4656 C 430.833 2.3048 3.62185 0
M  V30 4657 C 430.066 2.10154 4.90583 0
M  V30 4658 O 430.289 1.07572 5.60165 0
M  V30 4659 O 429.223 2.97884 5.23019 0
M  V30 4660 H 433.049 2.28909 1.99585 0
M  V30 4661 H 430.634 1.16818 0.931344 0
M  V30 4662 H 432.516 1.01283 4.09047 0
M  V30 4663 H 431.191 0.180292 3.23198 0
M  V30 4664 H 430.098 2.46036 2.81811 0
M  V30 4665 H 431.431 3.22221 3.72068 0
M  V30 4666 N 433.083 -1.0153 1.20538 0
M  V30 4667 C 434.308 -1.79283 1.04271 0
M  V30 4668 C 434.733 -1.8372 -0.403544 0
M  V30 4669 O 434.091 -1.27321 -1.2907 0
M  V30 4670 C 434.139 -3.21535 1.63241 0
M  V30 4671 O 433.243 -4.03099 0.870908 0
M  V30 4672 H 432.584 -0.55293 0.367647 0
M  V30 4673 H 435.114 -1.27696 1.59859 0
M  V30 4674 H 435.124 -3.72243 1.6703 0
M  V30 4675 H 433.799 -3.1762 2.68497 0
M  V30 4676 H 432.376 -3.61693 0.907323 0
M  V30 4677 N 434.561 -1.01147 -1.20859 0
M  V30 4678 C 435.471 -0.58686 -2.27141 0
M  V30 4679 C 436.487 0.373198 -1.69951 0
M  V30 4680 O 437.663 0.235423 -2.00019 0
M  V30 4681 C 434.728 0.0733602 -3.46622 0
M  V30 4682 C 433.789 -0.931995 -4.19061 0
M  V30 4683 C 433.022 -0.303186 -5.32838 0
M  V30 4684 O 433.245 0.898395 -5.63281 0
M  V30 4685 O 432.179 -1.01735 -5.9324 0
M  V30 4686 H 436.005 -1.47155 -2.65667 0
M  V30 4687 H 433.59 -0.780689 -1.2738 0
M  V30 4688 H 435.472 0.442333 -4.19072 0
M  V30 4689 H 434.147 0.932329 -3.09983 0
M  V30 4690 H 433.054 -1.35224 -3.48805 0
M  V30 4691 H 434.387 -1.76076 -4.59628 0
M  V30 4692 N 436.039 1.36541 -0.78704 0
M  V30 4693 C 437.285 1.99599 -0.358872 0
M  V30 4694 C 437.618 1.62323 1.06606 0
M  V30 4695 O 436.893 0.876858 1.73613 0
M  V30 4696 C 437.176 3.56327 -0.519944 0
M  V30 4697 C 437.029 4.03464 -1.98839 0
M  V30 4698 C 438.348 4.4005 0.0664737 0
M  V30 4699 H 435.467 0.725107 -0.131869 0
M  V30 4700 H 438.109 1.6199 -0.992936 0
M  V30 4701 H 436.259 3.88495 0.0198321 0
M  V30 4702 H 437.931 3.81793 -2.58905 0
M  V30 4703 H 436.174 3.55092 -2.49183 0
M  V30 4704 H 436.845 5.12439 -2.05207 0
M  V30 4705 H 439.321 4.14228 -0.394267 0
M  V30 4706 H 438.197 5.48847 -0.0762682 0
M  V30 4707 H 438.458 4.26655 1.15835 0
M  V30 4708 N 437.518 0.538854 1.48102 0
M  V30 4709 C 438.746 0.0123136 2.06896 0
M  V30 4710 C 439.161 -1.27312 1.39417 0
M  V30 4711 O 438.518 -1.75949 0.484582 0
M  V30 4712 C 438.569 -0.206118 3.60912 0
M  V30 4713 O 438.29 1.0284 4.25859 0
M  V30 4714 C 439.791 -0.772033 4.36526 0
M  V30 4715 H 437.011 0.0375239 0.66995 0
M  V30 4716 H 439.555 0.747032 1.90367 0
M  V30 4717 H 437.71 -0.89091 3.77017 0
M  V30 4718 H 438.124 0.814654 5.18135 0
M  V30 4719 H 439.598 -0.874251 5.45033 0
M  V30 4720 H 440.075 -1.77904 4.01555 0
M  V30 4721 H 440.681 -0.123526 4.25121 0
M  V30 4722 N 438.996 -1.55193 0.274407 0
M  V30 4723 C 439.959 -2.212 -0.600279 0
M  V30 4724 C 440.959 -1.18963 -1.08187 0
M  V30 4725 O 442.149 -1.43873 -0.982158 0
M  V30 4726 C 439.281 -2.87739 -1.82809 0
M  V30 4727 H 440.474 -2.9989 -0.0239682 0
M  V30 4728 H 438.027 -1.5628 0.0250192 0
M  V30 4729 H 438.762 -2.13058 -2.44493 0
M  V30 4730 H 438.547 -3.62658 -1.49069 0
M  V30 4731 H 440.037 -3.38171 -2.45011 0
M  V30 4732 N 440.474 -0.00167713 -1.576 0
M  V30 4733 C 441.721 0.68282 -1.90641 0
M  V30 4734 C 442.049 1.73686 -0.875415 0
M  V30 4735 O 441.304 1.95334 0.119575 0
M  V30 4736 C 441.603 1.36189 -3.30435 0
M  V30 4737 C 441.269 0.440887 -4.48739 0
M  V30 4738 C 439.931 0.187312 -4.80835 0
M  V30 4739 C 442.283 -0.193134 -5.20842 0
M  V30 4740 C 439.611 -0.70855 -5.82406 0
M  V30 4741 C 441.963 -1.07688 -6.23367 0
M  V30 4742 C 440.627 -1.33962 -6.53919 0
M  V30 4743 H 439.897 0.249862 -0.697603 0
M  V30 4744 H 442.544 -0.0575642 -1.91413 0
M  V30 4745 H 440.849 2.17636 -3.25794 0
M  V30 4746 H 442.546 1.89759 -3.5326 0
M  V30 4747 H 439.136 0.648694 -4.23663 0
M  V30 4748 H 443.32 -0.0102445 -4.96299 0
M  V30 4749 H 438.576 -0.920097 -6.04437 0
M  V30 4750 H 442.75 -1.57451 -6.78367 0
M  V30 4751 H 440.377 -2.03549 -7.32442 0
M  V30 4752 N 441.952 1.55251 0.271103 0
M  V30 4753 C 442.915 1.87484 1.31842 0
M  V30 4754 C 443.915 0.749545 1.42262 0
M  V30 4755 O 445.105 1.01771 1.4138 0
M  V30 4756 C 442.237 2.0818 2.69951 0
M  V30 4757 H 443.43 2.81108 1.0449 0
M  V30 4758 H 440.983 1.47771 0.509258 0
M  V30 4759 H 441.718 1.16944 3.02481 0
M  V30 4760 H 441.503 2.90114 2.63774 0
M  V30 4761 H 442.993 2.34385 3.4562 0
M  V30 4762 N 443.43 -0.535701 1.48216 0
M  V30 4763 C 444.676 -1.29375 1.56173 0
M  V30 4764 C 445.009 -1.92804 0.232429 0
M  V30 4765 O 444.284 -1.78992 -0.761048 0
M  V30 4766 C 444.567 -2.38747 2.69577 0
M  V30 4767 C 444.42 -1.80046 4.12193 0
M  V30 4768 C 445.739 -3.40551 2.78771 0
M  V30 4769 H 442.858 -0.469027 0.568491 0
M  V30 4770 H 445.5 -0.597358 1.80365 0
M  V30 4771 H 443.65 -2.98147 2.4908 0
M  V30 4772 H 445.322 -1.24742 4.44114 0
M  V30 4773 H 443.565 -1.10609 4.19462 0
M  V30 4774 H 444.236 -2.59212 4.87353 0
M  V30 4775 H 446.712 -2.91099 2.97322 0
M  V30 4776 H 445.588 -4.1448 3.59857 0
M  V30 4777 H 445.849 -4.00746 1.86696 0
M  V30 4778 N 444.908 -1.36708 -0.784132 0
M  V30 4779 C 445.838 -1.34153 -1.91116 0
M  V30 4780 C 446.819 -0.212121 -1.68772 0
M  V30 4781 O 448.004 -0.410581 -1.8981 0
M  V30 4782 C 445.134 -1.13535 -3.28218 0
M  V30 4783 C 444.088 -2.23356 -3.65097 0
M  V30 4784 C 443.414 -1.87875 -5.00607 0
M  V30 4785 C 444.714 -3.65473 -3.73131 0
M  V30 4786 H 446.408 -2.28459 -1.93512 0
M  V30 4787 H 443.954 -1.09973 -0.929618 0
M  V30 4788 H 445.907 -1.10381 -4.06687 0
M  V30 4789 H 444.631 -0.156804 -3.26223 0
M  V30 4790 H 443.29 -2.25645 -2.88929 0
M  V30 4791 H 442.938 -0.885814 -4.95139 0
M  V30 4792 H 442.638 -2.61406 -5.26252 0
M  V30 4793 H 444.162 -1.86286 -5.81489 0
M  V30 4794 H 445.576 -3.65382 -4.41779 0
M  V30 4795 H 443.973 -4.37953 -4.10265 0
M  V30 4796 H 445.043 -3.99995 -2.74102 0
M  V30 4797 N 446.386 1.0089 -1.21074 0
M  V30 4798 C 447.663 1.71834 -0.934469 0
M  V30 4799 C 448.043 2.0368 0.554753 0
M  V30 4800 O 447.391 1.70742 1.51854 0
M  V30 4801 C 447.601 2.98061 -1.8155 0
M  V30 4802 C 448.949 3.7117 -2.06199 0
M  V30 4803 O 449.973 3.08034 -1.78867 0
M  V30 4804 O 448.832 4.84721 -2.52404 0
M  V30 4805 H 445.926 0.749253 -0.35007 0
M  V30 4806 H 448.472 1.06668 -1.31985 0
M  V30 4807 H 447.244 2.70908 -2.82355 0
M  V30 4808 H 446.867 3.70968 -1.43068 0
M  V30 4809 N 447.864 1.01787 1.20321 0
M  V30 4810 C 448.796 0.547357 2.22568 0
M  V30 4811 C 449.809 -0.370922 1.58518 0
M  V30 4812 O 450.998 -0.169067 1.77698 0
M  V30 4813 C 448.098 -0.223031 3.38165 0
M  V30 4814 C 447.271 0.697472 4.31803 0
M  V30 4815 C 446.33 -0.025562 5.26194 0
M  V30 4816 O 445.356 0.597367 5.66057 0
M  V30 4817 N 446.558 -1.29999 5.65757 0
M  V30 4818 H 449.323 1.42668 2.63564 0
M  V30 4819 H 446.884 0.895552 1.34876 0
M  V30 4820 H 448.876 -0.716002 3.98316 0
M  V30 4821 H 447.446 -1.00366 2.9605 0
M  V30 4822 H 446.666 1.37073 3.69601 0
M  V30 4823 H 447.954 1.32347 4.91286 0
M  V30 4824 H 447.352 -1.827 5.35385 0
M  V30 4825 H 445.909 -1.73766 6.28211 0
M  V30 4826 N 449.342 -1.36122 0.79427 0
M  V30 4827 C 450.619 -1.93398 0.292685 0
M  V30 4828 C 450.999 -1.72567 -1.21589 0
M  V30 4829 O 450.347 -1.08745 -2.00965 0
M  V30 4830 C 450.557 -3.42099 0.690614 0
M  V30 4831 C 451.905 -4.19231 0.673105 0
M  V30 4832 O 452.929 -3.50559 0.631389 0
M  V30 4833 O 451.788 -5.41732 0.720362 0
M  V30 4834 H 448.882 -0.823712 0.0736693 0
M  V30 4835 H 451.428 -1.45273 0.87714 0
M  V30 4836 H 450.2 -3.50938 1.73085 0
M  V30 4837 H 449.823 -3.97519 0.0803036 0
M  V30 4838 N 450.82 -0.546701 -1.47814 0
M  V30 4839 C 451.752 0.244196 -2.27895 0
M  V30 4840 C 452.765 0.88911 -1.36377 0
M  V30 4841 O 453.954 0.764733 -1.61289 0
M  V30 4842 C 451.054 1.36252 -3.10304 0
M  V30 4843 C 450.227 0.816382 -4.29714 0
M  V30 4844 C 449.286 1.81789 -4.93801 0
M  V30 4845 O 448.312 1.36818 -5.52512 0
M  V30 4846 N 449.514 3.15085 -4.87547 0
M  V30 4847 H 452.279 -0.442694 -2.96412 0
M  V30 4848 H 449.84 -0.382095 -1.57327 0
M  V30 4849 H 451.832 2.03102 -3.50045 0
M  V30 4850 H 450.402 1.95281 -2.44099 0
M  V30 4851 H 449.622 -0.0285981 -3.9419 0
M  V30 4852 H 450.91 0.430668 -5.06974 0
M  V30 4853 H 450.308 3.54275 -4.41028 0
M  V30 4854 H 448.865 3.77522 -5.31339 0
M  V30 4855 N 452.299 1.55045 -0.282633 0
M  V30 4856 C 453.246 2.22822 0.601566 0
M  V30 4857 C 454.216 1.20431 1.14392 0
M  V30 4858 O 455.401 1.48996 1.19184 0
M  V30 4859 C 452.541 2.95873 1.77632 0
M  V30 4860 C 451.654 4.12999 1.26711 0
M  V30 4861 C 450.789 4.73676 2.40426 0
M  V30 4862 C 449.828 5.82981 1.86545 0
M  V30 4863 N 448.965 6.3769 2.93762 0
M  V30 4864 H 453.805 2.97995 0.0169528 0
M  V30 4865 H 451.342 1.471 -0.00339964 0
M  V30 4866 H 453.3 3.36447 2.46697 0
M  V30 4867 H 451.93 2.2311 2.33285 0
M  V30 4868 H 450.982 3.77494 0.469314 0
M  V30 4869 H 452.294 4.91803 0.832518 0
M  V30 4870 H 451.448 5.17008 3.17471 0
M  V30 4871 H 450.187 3.94164 2.87203 0
M  V30 4872 H 449.192 5.39092 1.07983 0
M  V30 4873 H 450.417 6.64366 1.40694 0
M  V30 4874 H 448.363 5.61069 3.39908 0
M  V30 4875 H 448.28 7.11788 2.54744 0
M  V30 4876 H 449.548 6.8568 3.7076 0
M  V30 4877 N 453.777 0.010035 1.57597 0
M  V30 4878 C 454.687 -0.994226 2.12491 0
M  V30 4879 C 455.703 -1.37013 1.07254 0
M  V30 4880 O 456.879 -1.45542 1.3921 0
M  V30 4881 C 453.944 -2.2642 2.62555 0
M  V30 4882 C 453.005 -1.95049 3.82432 0
M  V30 4883 C 452.238 -3.15991 4.30099 0
M  V30 4884 O 452.461 -4.28015 3.7704 0
M  V30 4885 O 451.395 -2.99403 5.22151 0
M  V30 4886 H 455.221 -0.557549 2.98538 0
M  V30 4887 H 452.806 -0.209413 1.47925 0
M  V30 4888 H 454.688 -3.01009 2.9491 0
M  V30 4889 H 453.363 -2.69306 1.796 0
M  V30 4890 H 452.27 -1.17904 3.55034 0
M  V30 4891 H 453.603 -1.56992 4.66491 0
M  V30 4892 N 455.255 -1.55392 -0.262866 0
M  V30 4893 C 456.504 -1.75679 -0.990943 0
M  V30 4894 C 456.817 -0.57097 -1.87081 0
M  V30 4895 O 458.023 -0.656486 -2.63444 0
M  V30 4896 C 456.479 -3.10964 -1.81188 0
M  V30 4897 C 456.087 -4.37146 -0.980188 0
M  V30 4898 C 457.831 -3.40597 -2.53365 0
M  V30 4899 C 455.738 -5.63466 -1.7961 0
M  V30 4900 H 454.668 -0.654868 -0.373716 0
M  V30 4901 H 457.319 -1.81841 -0.246203 0
M  V30 4902 H 455.701 -2.98867 -2.59797 0
M  V30 4903 H 456.875 -4.60187 -0.237558 0
M  V30 4904 H 455.19 -4.14731 -0.372497 0
M  V30 4905 H 457.787 -4.32186 -3.14833 0
M  V30 4906 H 458.13 -2.6119 -3.24169 0
M  V30 4907 H 458.663 -3.53838 -1.81779 0
M  V30 4908 H 455.402 -6.4565 -1.13209 0
M  V30 4909 H 454.922 -5.44552 -2.51443 0
M  V30 4910 H 456.601 -6.02139 -2.36723 0
M  V30 4911 N 456.733 0.527833 -1.48498 0
M  V30 4912 C 457.982 1.28003 -1.55878 0
M  V30 4913 C 458.295 1.9414 -0.238577 0
M  V30 4914 O 459.501 2.7083 -0.190643 0
M  V30 4915 C 457.957 2.32272 -2.74914 0
M  V30 4916 C 457.565 1.72196 -4.13585 0
M  V30 4917 C 459.309 3.08488 -2.91608 0
M  V30 4918 C 457.216 2.74417 -5.23879 0
M  V30 4919 H 456.146 0.481413 -0.580308 0
M  V30 4920 H 458.797 0.557195 -1.74836 0
M  V30 4921 H 457.179 3.07601 -2.49395 0
M  V30 4922 H 458.353 1.03041 -4.49132 0
M  V30 4923 H 456.668 1.08464 -4.02025 0
M  V30 4924 H 459.265 3.84879 -3.71177 0
M  V30 4925 H 459.608 3.64481 -2.01145 0
M  V30 4926 H 460.141 2.40274 -3.17038 0
M  V30 4927 H 456.88 2.23242 -6.16314 0
M  V30 4928 H 456.4 3.41893 -4.92818 0
M  V30 4929 H 458.079 3.37362 -5.52083 0
M  V30 4930 N 458.211 1.37122 0.776871 0
M  V30 4931 C 459.488 1.22586 1.52421 0
M  V30 4932 C 459.868 -0.182726 2.10308 0
M  V30 4933 O 459.216 -1.18979 1.9508 0
M  V30 4934 C 459.426 2.31782 2.60918 0
M  V30 4935 C 460.774 2.69071 3.2846 0
M  V30 4936 O 461.798 2.3092 2.71209 0
M  V30 4937 O 460.657 3.3478 4.31954 0
M  V30 4938 H 457.751 0.478045 0.674835 0
M  V30 4939 H 460.297 1.48888 0.814275 0
M  V30 4940 H 459.069 3.26131 2.16227 0
M  V30 4941 H 458.692 2.06916 3.39517 0
M  V30 4942 N 459.689 -1.00246 1.21608 0
M  V30 4943 C 460.917 -1.77631 1.06089 0
M  V30 4944 C 461.332 -1.84746 -0.38916 0
M  V30 4945 O 460.689 -1.31068 -1.26994 0
M  V30 4946 C 460.74 -3.21415 1.65453 0
M  V30 4947 O 460.461 -3.14703 3.04785 0
M  V30 4948 C 461.962 -4.15289 1.55079 0
M  V30 4949 H 459.182 -0.558162 0.37242 0
M  V30 4950 H 461.726 -1.26093 1.60999 0
M  V30 4951 H 459.881 -3.70053 1.14629 0
M  V30 4952 H 460.295 -4.05056 3.33212 0
M  V30 4953 H 461.769 -5.13965 2.01355 0
M  V30 4954 H 462.246 -4.36279 0.505665 0
M  V30 4955 H 462.852 -3.72543 2.05163 0
M  V30 4956 N 461.167 -1.02423 -1.1978 0
M  V30 4957 C 462.115 -0.594474 -2.24875 0
M  V30 4958 C 463.109 0.370598 -1.65296 0
M  V30 4959 O 464.315 0.239684 -1.78397 0
M  V30 4960 H 460.69 -0.173961 -0.731602 0
M  V30 4961 H 462.661 -1.4916 -2.58445 0
M  V30 4962 C 461.41 0.0436512 -3.47673 0
M  V30 4963 H 460.733 -0.689963 -3.93801 0
M  V30 4964 H 462.173 0.307362 -4.22884 0
M  V30 4965 C 460.632 1.28881 -3.11274 0
M  V30 4966 O 461.162 2.38135 -3.23503 0
M  V30 4967 N 459.368 1.1758 -2.6575 0
M  V30 4968 H 458.915 0.286769 -2.55999 0
M  V30 4969 H 458.873 2.00988 -2.41767 0
M  V30 4970 N 462.645 1.35699 -0.801477 0
M  V30 4971 C 463.893 1.9852 -0.37871 0
M  V30 4972 C 464.214 1.63907 1.05638 0
M  V30 4973 O 463.484 0.919013 1.73006 0
M  V30 4974 H 462.064 0.734322 -0.137042 0
M  V30 4975 H 464.726 1.65697 -1.02619 0
M  V30 4976 H 463.822 3.08382 -0.480284 0
M  V30 4977 N 464.123 0.554532 1.47522 0
M  V30 4978 C 465.086 -0.184174 2.28459 0
M  V30 4979 C 466.086 -0.845195 1.36796 0
M  V30 4980 O 467.276 -0.701467 1.59452 0
M  V30 4981 C 464.408 -1.26903 3.16399 0
M  V30 4982 H 465.601 0.526751 2.95238 0
M  V30 4983 H 463.154 0.311375 1.53167 0
M  V30 4984 H 463.889 -2.01244 2.54306 0
M  V30 4985 H 463.674 -0.799883 3.83854 0
M  V30 4986 H 465.164 -1.78794 3.77389 0
M  V30 4987 N 465.601 -1.54893 0.290851 0
M  V30 4988 C 466.849 -1.99538 -0.320756 0
M  V30 4989 C 467.17 -1.18075 -1.55188 0
M  V30 4990 O 466.44 -0.274162 -1.93972 0
M  V30 4991 H 465.02 -0.737052 -0.121507 0
M  V30 4992 H 467.682 -1.90755 0.399832 0
M  V30 4993 H 466.778 -3.06282 -0.599802 0
M  V30 4994 N 467.08 -0.0183926 -1.57589 0
M  V30 4995 C 468.357 0.700621 -1.82622 0
M  V30 4996 C 468.737 1.90951 -0.90005 0
M  V30 4997 O 468.085 2.28452 0.0469145 0
M  V30 4998 C 468.295 1.08899 -3.31575 0
M  V30 4999 C 469.643 1.48514 -3.9778 0
M  V30 5000 O 470.667 1.18227 -3.36007 0
M  V30 5001 O 469.526 2.04903 -5.06633 0
M  V30 5002 H 466.62 0.342743 -0.752633 0
M  V30 5003 H 469.166 -0.0452548 -1.6964 0
M  V30 5004 H 467.938 0.228113 -3.90635 0
M  V30 5005 H 467.561 1.89338 -3.49624 0
M  V30 5006 N 468.558 1.5553 0.254621 0
M  V30 5007 C 469.521 1.88872 1.29846 0
M  V30 5008 C 470.521 0.764591 1.41459 0
M  V30 5009 O 471.711 1.03265 1.40293 0
M  V30 5010 C 468.843 2.11032 2.67728 0
M  V30 5011 H 470.036 2.82201 1.01502 0
M  V30 5012 H 467.589 1.48303 0.493556 0
M  V30 5013 H 468.324 1.20146 3.01223 0
M  V30 5014 H 468.109 2.92895 2.60682 0
M  V30 5015 H 469.599 2.38038 3.43115 0
M  V30 5016 N 470.036 -0.519951 1.48776 0
M  V30 5017 C 471.283 -1.27522 1.57303 0
M  V30 5018 C 471.611 -1.92869 0.251328 0
M  V30 5019 O 470.866 -1.80372 -0.759243 0
M  V30 5020 C 471.165 -2.37864 2.6675 0
M  V30 5021 C 470.831 -1.90103 4.08867 0
M  V30 5022 C 469.493 -1.76795 4.47546 0
M  V30 5023 C 471.845 -1.54133 4.97888 0
M  V30 5024 C 469.173 -1.25868 5.73039 0
M  V30 5025 C 471.525 -1.04665 6.23881 0
M  V30 5026 C 470.189 -0.899823 6.61407 0
M  V30 5027 H 469.459 -0.466636 0.575614 0
M  V30 5028 H 472.106 -0.579109 1.82534 0
M  V30 5029 H 470.411 -3.13186 2.35418 0
M  V30 5030 H 472.108 -2.95969 2.70561 0
M  V30 5031 H 468.698 -2.01414 3.78326 0
M  V30 5032 H 472.882 -1.6327 4.68675 0
M  V30 5033 H 468.138 -1.13196 6.0083 0
M  V30 5034 H 472.312 -0.759074 6.92251 0
M  V30 5035 H 469.939 -0.503011 7.58534 0
M  V30 5036 N 471.514 -1.37532 -0.769588 0
M  V30 5037 C 472.76 -1.33057 -1.53048 0
M  V30 5038 C 473.093 0.0841865 -1.94017 0
M  V30 5039 O 472.368 1.04198 -1.64235 0
M  V30 5040 C 472.651 -2.27166 -2.79406 0
M  V30 5041 C 472.504 -3.77429 -2.44677 0
M  V30 5042 C 473.823 -2.19683 -3.81349 0
M  V30 5043 H 470.942 -0.484655 -0.555228 0
M  V30 5044 H 473.584 -1.68251 -0.882702 0
M  V30 5045 H 471.734 -1.97283 -3.34682 0
M  V30 5046 H 473.406 -4.17918 -1.953 0
M  V30 5047 H 471.649 -3.95892 -1.77346 0
M  V30 5048 H 472.32 -4.38716 -3.35011 0
M  V30 5049 H 474.796 -2.46029 -3.35573 0
M  V30 5050 H 473.672 -2.87668 -4.67481 0
M  V30 5051 H 473.933 -1.19045 -4.25771 0
M  V30 5052 N 472.992 0.995999 -1.22138 0
M  V30 5053 C 474.24 1.73167 -1.042 0
M  V30 5054 C 474.561 1.90329 0.42423 0
M  V30 5055 O 473.831 1.4607 1.30539 0
M  V30 5056 H 472.411 0.641593 -0.38258 0
M  V30 5057 H 475.073 1.19974 -1.53598 0
M  V30 5058 H 474.169 2.72734 -1.51731 0
M  V30 5059 N 474.47 1.03057 1.19235 0
M  V30 5060 C 475.718 0.726581 1.88587 0
M  V30 5061 C 476.039 -0.747227 1.80115 0
M  V30 5062 O 475.309 -1.53849 1.21274 0
M  V30 5063 H 473.889 0.265768 0.698124 0
M  V30 5064 H 476.551 1.30516 1.44746 0
M  V30 5065 H 475.647 1.0224 2.94879 0
M  V30 5066 N 475.948 -1.35272 0.808662 0
M  V30 5067 C 477.195 -1.98709 0.390003 0
M  V30 5068 C 477.523 -1.64148 -1.04335 0
M  V30 5069 O 476.778 -0.897797 -1.73891 0
M  V30 5070 C 477.077 -3.53556 0.522798 0
M  V30 5071 C 476.743 -4.0799 1.91977 0
M  V30 5072 C 475.405 -4.22568 2.30195 0
M  V30 5073 C 477.757 -4.37442 2.83361 0
M  V30 5074 C 475.085 -4.63918 3.59162 0
M  V30 5075 C 477.437 -4.80232 4.11776 0
M  V30 5076 C 476.101 -4.93016 4.49991 0
M  V30 5077 H 475.371 -0.727127 0.142712 0
M  V30 5078 H 478.018 -1.6145 1.02985 0
M  V30 5079 H 476.323 -3.91287 -0.200494 0
M  V30 5080 H 478.02 -4.00598 0.179608 0
M  V30 5081 H 474.61 -3.97096 1.61284 0
M  V30 5082 H 478.794 -4.25731 2.55083 0
M  V30 5083 H 474.05 -4.72005 3.88615 0
M  V30 5084 H 478.224 -5.01982 4.82687 0
M  V30 5085 H 475.851 -5.24814 5.49976 0
M  V30 5086 N 477.426 -0.562348 -1.47226 0
M  V30 5087 C 478.356 0.170627 -2.32876 0
M  V30 5088 C 479.337 0.903748 -1.44106 0
M  V30 5089 O 480.522 0.883206 -1.72954 0
M  V30 5090 C 477.652 1.19786 -3.25989 0
M  V30 5091 C 476.606 0.580875 -4.2404 0
M  V30 5092 C 475.932 1.71311 -5.06514 0
M  V30 5093 C 477.232 -0.468714 -5.20193 0
M  V30 5094 H 478.926 -0.544441 -2.94408 0
M  V30 5095 H 476.472 -0.263271 -1.41573 0
M  V30 5096 H 478.425 1.71884 -3.84752 0
M  V30 5097 H 477.149 1.94294 -2.62521 0
M  V30 5098 H 475.808 0.0811538 -3.6651 0
M  V30 5099 H 475.456 2.44736 -4.39447 0
M  V30 5100 H 475.156 1.30604 -5.72902 0
M  V30 5101 H 476.68 2.23725 -5.68137 0
M  V30 5102 H 478.094 -0.0336028 -5.7329 0
M  V30 5103 H 476.491 -0.794957 -5.94811 0
M  V30 5104 H 477.561 -1.36269 -4.65359 0
M  V30 5105 N 478.904 1.54736 -0.299062 0
M  V30 5106 C 480.129 2.04975 0.316254 0
M  V30 5107 C 480.554 1.17501 1.46885 0
M  V30 5108 O 479.912 0.178678 1.80417 0
M  V30 5109 C 479.96 3.52672 0.751997 0
M  V30 5110 O 479.064 3.68226 1.85697 0
M  V30 5111 H 478.405 0.661126 0.0617175 0
M  V30 5112 H 480.935 1.99805 -0.440341 0
M  V30 5113 H 480.945 3.94488 1.04133 0
M  V30 5114 H 479.62 4.158 -0.0911482 0
M  V30 5115 H 478.197 3.38316 1.56834 0
M  V30 5116 N 480.382 0.0267497 1.57577 0
M  V30 5117 C 481.314 -0.984594 2.06974 0
M  V30 5118 C 482.327 -1.29032 0.992705 0
M  V30 5119 O 483.516 -1.25539 1.26895 0
M  V30 5120 C 480.616 -2.31262 2.47732 0
M  V30 5121 C 479.789 -2.1924 3.78487 0
M  V30 5122 C 478.848 -3.34956 4.05821 0
M  V30 5123 O 477.874 -3.11948 4.76106 0
M  V30 5124 N 479.076 -4.58672 3.55809 0
M  V30 5125 H 481.841 -0.563143 2.94362 0
M  V30 5126 H 479.402 -0.160061 1.61107 0
M  V30 5127 H 481.394 -3.07496 2.63112 0
M  V30 5128 H 479.964 -2.65056 1.65723 0
M  V30 5129 H 479.184 -1.27747 3.72927 0
M  V30 5130 H 480.472 -2.08409 4.64158 0
M  V30 5131 H 479.87 -4.8026 2.98942 0
M  V30 5132 H 478.427 -5.32083 3.76472 0
M  V30 5133 N 481.861 -1.55662 -0.24637 0
M  V30 5134 C 482.791 -1.93377 -1.30873 0
M  V30 5135 C 483.772 -0.798773 -1.50179 0
M  V30 5136 O 484.957 -1.0591 -1.62778 0
M  V30 5137 C 482.087 -2.22893 -2.66338 0
M  V30 5138 C 481.041 -3.38649 -2.61727 0
M  V30 5139 C 480.367 -3.53708 -4.00992 0
M  V30 5140 C 481.667 -4.74323 -2.18666 0
M  V30 5141 H 483.361 -2.82363 -0.995552 0
M  V30 5142 H 480.907 -1.35854 -0.477464 0
M  V30 5143 H 482.86 -2.47866 -3.40794 0
M  V30 5144 H 481.584 -1.30733 -2.99293 0
M  V30 5145 H 480.243 -3.13685 -1.89729 0
M  V30 5146 H 479.891 -2.58967 -4.31214 0
M  V30 5147 H 479.591 -4.31551 -3.98795 0
M  V30 5148 H 481.115 -3.81003 -4.77147 0
M  V30 5149 H 482.529 -4.98665 -2.82854 0
M  V30 5150 H 480.926 -5.55273 -2.27579 0
M  V30 5151 H 481.996 -4.71349 -1.13834 0
M  V30 5152 N 483.339 0.512053 -1.4905 0
M  V30 5153 C 484.585 1.26874 -1.58212 0
M  V30 5154 C 484.918 1.9241 -0.263073 0
M  V30 5155 O 484.193 1.80181 0.732476 0
M  V30 5156 C 484.476 2.34428 -2.73341 0
M  V30 5157 C 484.329 1.73466 -4.15006 0
M  V30 5158 C 485.648 3.36073 -2.84154 0
M  V30 5159 H 482.767 0.459924 -0.575881 0
M  V30 5160 H 485.409 0.568587 -1.81293 0
M  V30 5161 H 483.559 2.94146 -2.53792 0
M  V30 5162 H 485.231 1.17661 -4.46042 0
M  V30 5163 H 483.474 1.03921 -4.21168 0
M  V30 5164 H 484.145 2.51426 -4.91415 0
M  V30 5165 H 486.621 2.86332 -3.01916 0
M  V30 5166 H 485.497 4.08703 -3.66406 0
M  V30 5167 H 485.758 3.97725 -1.93048 0
M  V30 5168 N 484.817 1.37938 0.762283 0
M  V30 5169 C 486.042 1.37059 1.55659 0
M  V30 5170 C 486.467 -0.0396123 1.88058 0
M  V30 5171 O 485.825 -1.01929 1.49934 0
M  V30 5172 C 485.873 2.22494 2.83776 0
M  V30 5173 O 484.977 1.63607 3.78559 0
M  V30 5174 H 484.318 0.467892 0.47114 0
M  V30 5175 H 486.848 1.81587 0.942725 0
M  V30 5176 H 486.858 2.36045 3.32786 0
M  V30 5177 H 485.533 3.24993 2.59524 0
M  V30 5178 H 484.11 1.5915 3.37233 0
M  V30 5179 N 486.295 -0.989507 1.22664 0
M  V30 5180 C 487.572 -1.70326 0.961688 0
M  V30 5181 C 487.952 -2.04537 -0.522279 0
M  V30 5182 O 487.3 -1.73136 -1.49118 0
M  V30 5183 C 487.51 -2.95135 1.86269 0
M  V30 5184 C 488.858 -3.67842 2.12078 0
M  V30 5185 O 489.882 -3.0515 1.83745 0
M  V30 5186 O 488.741 -4.80644 2.60083 0
M  V30 5187 H 485.835 -0.743589 0.361946 0
M  V30 5188 H 488.381 -1.04555 1.33665 0
M  V30 5189 H 487.153 -2.66382 2.8663 0
M  V30 5190 H 486.776 -3.68645 1.48952 0
M  V30 5191 N 487.773 -1.03688 -1.18687 0
M  V30 5192 C 488.72 -0.624624 -2.22187 0
M  V30 5193 C 489.69 0.365636 -1.62026 0
M  V30 5194 O 490.875 0.260481 -1.89014 0
M  V30 5195 C 488.015 0.0101738 -3.45099 0
M  V30 5196 C 487.128 -1.02709 -4.19613 0
M  V30 5197 C 486.263 -0.361213 -5.2997 0
M  V30 5198 C 485.302 -1.38384 -5.96252 0
M  V30 5199 N 484.439 -0.743196 -6.98155 0
M  V30 5200 H 489.279 -1.51176 -2.56807 0
M  V30 5201 H 486.816 -0.75636 -1.26165 0
M  V30 5202 H 488.774 0.395528 -4.15321 0
M  V30 5203 H 487.404 0.860848 -3.1111 0
M  V30 5204 H 486.456 -1.53043 -3.48256 0
M  V30 5205 H 487.768 -1.80398 -4.65036 0
M  V30 5206 H 486.922 0.0785537 -6.06649 0
M  V30 5207 H 485.661 0.447799 -4.8564 0
M  V30 5208 H 484.666 -1.83378 -5.18317 0
M  V30 5209 H 485.891 -2.19448 -6.42666 0
M  V30 5210 H 483.837 0.0455789 -6.55984 0
M  V30 5211 H 483.754 -1.45784 -7.41811 0
M  V30 5212 H 485.022 -0.327698 -7.78811 0
M  V30 5213 N 489.251 1.34841 -0.815825 0
M  V30 5214 C 490.662 1.80937 -0.46029 0
M  V30 5215 C 491.013 1.67685 1.01863 0
M  V30 5216 O 490.138 1.21277 1.79223 0
M  V30 5217 C 490.733 3.28509 -0.828708 0
M  V30 5218 C 489.292 3.72712 -0.525644 0
M  V30 5219 C 488.439 2.56676 -1.04941 0
M  V30 5220 H 491.39 1.22688 -1.00664 0
M  V30 5221 H 491.411 3.80279 -0.129757 0
M  V30 5222 H 490.923 3.38122 -1.90513 0
M  V30 5223 H 489.024 3.68642 0.541666 0
M  V30 5224 H 489.137 4.67119 -1.06474 0
M  V30 5225 H 487.501 2.50302 -0.471286 0
M  V30 5226 H 488.284 2.69063 -2.13214 0
M  V30 5227 N 490.729 0.570148 1.46925 0
M  V30 5228 C 491.659 -0.158274 2.32963 0
M  V30 5229 C 492.64 -0.896093 1.44583 0
M  V30 5230 O 493.825 -0.874022 1.7342 0
M  V30 5231 C 490.955 -1.18055 3.26619 0
M  V30 5232 C 489.909 -0.558379 4.24342 0
M  V30 5233 C 489.235 -1.68623 5.07415 0
M  V30 5234 C 490.535 0.496295 5.19937 0
M  V30 5235 H 492.229 0.560046 2.94115 0
M  V30 5236 H 489.775 0.270775 1.41431 0
M  V30 5237 H 491.728 -1.69841 3.85658 0
M  V30 5238 H 490.452 -1.92899 2.63548 0
M  V30 5239 H 489.111 -0.0617157 3.66548 0
M  V30 5240 H 488.759 -2.42402 4.40738 0
M  V30 5241 H 488.459 -1.27564 5.73586 0
M  V30 5242 H 489.983 -2.20709 5.69315 0
M  V30 5243 H 491.397 0.0640052 5.73264 0
M  V30 5244 H 489.794 0.82649 5.94381 0
M  V30 5245 H 490.864 1.38735 4.6463 0
M  V30 5246 N 492.207 -1.54576 0.307264 0
M  V30 5247 C 493.435 -2.04675 -0.302597 0
M  V30 5248 C 493.85 -1.18425 -1.47041 0
M  V30 5249 O 493.207 -0.211257 -1.81273 0
M  V30 5250 C 493.258 -3.53575 -0.752801 0
M  V30 5251 O 492.979 -4.36547 0.368536 0
M  V30 5252 C 494.48 -4.19699 -1.42717 0
M  V30 5253 H 491.7 -0.66786 -0.0648374 0
M  V30 5254 H 494.244 -1.99516 0.448716 0
M  V30 5255 H 492.399 -3.59074 -1.45412 0
M  V30 5256 H 492.813 -5.24497 0.0168937 0
M  V30 5257 H 494.287 -5.25388 -1.69327 0
M  V30 5258 H 494.764 -3.69815 -2.36925 0
M  V30 5259 H 495.37 -4.18293 -0.768856 0
M  V30 5260 N 493.685 -0.035106 -1.57561 0
M  V30 5261 C 494.595 0.960295 -2.14046 0
M  V30 5262 C 495.611 1.3529 -1.0942 0
M  V30 5263 O 496.787 1.43309 -1.41508 0
M  V30 5264 C 493.852 2.22214 -2.66124 0
M  V30 5265 C 492.913 1.8894 -3.85487 0
M  V30 5266 C 492.146 3.09109 -4.35072 0
M  V30 5267 O 492.369 4.21963 -3.83802 0
M  V30 5268 O 491.303 2.91058 -5.26848 0
M  V30 5269 H 495.129 0.509983 -2.99387 0
M  V30 5270 H 492.714 0.185853 -1.48239 0
M  V30 5271 H 494.596 2.96279 -2.99661 0
M  V30 5272 H 493.271 2.66414 -1.83862 0
M  V30 5273 H 492.178 1.12241 -3.56865 0
M  V30 5274 H 493.511 1.49551 -4.6893 0
M  V30 5275 N 495.163 1.55791 0.238111 0
M  V30 5276 C 496.403 1.79801 0.972163 0
M  V30 5277 C 496.767 0.606027 1.82185 0
M  V30 5278 O 497.968 0.725079 2.58836 0
M  V30 5279 C 496.239 3.08608 1.80266 0
M  V30 5280 S 497.798 3.53872 2.59461 0
M  V30 5281 H 494.616 0.631418 0.326852 0
M  V30 5282 H 497.218 1.94031 0.239212 0
M  V30 5283 H 495.922 3.93419 1.1683 0
M  V30 5284 H 495.453 2.9714 2.57821 0
M  V30 5285 H 497.468 3.15899 3.82651 0
M  V30 5286 N 496.642 -0.504142 1.49319 0
M  V30 5287 C 497.891 -1.25507 1.57895 0
M  V30 5288 C 498.204 -1.93735 0.269433 0
M  V30 5289 O 499.41 -2.70492 0.233706 0
M  V30 5290 C 497.866 -2.27869 2.78574 0
M  V30 5291 C 497.474 -1.65594 4.16272 0
M  V30 5292 C 499.218 -3.0381 2.96479 0
M  V30 5293 C 497.125 -2.66048 5.28178 0
M  V30 5294 H 496.055 -0.47212 0.587894 0
M  V30 5295 H 498.706 -0.52931 1.757 0
M  V30 5296 H 497.088 -3.03594 2.54257 0
M  V30 5297 H 498.262 -0.958826 4.50714 0
M  V30 5298 H 496.577 -1.02055 4.037 0
M  V30 5299 H 499.174 -3.78925 3.77253 0
M  V30 5300 H 499.517 -3.61235 2.06918 0
M  V30 5301 H 500.05 -2.352 3.20821 0
M  V30 5302 H 496.789 -2.13408 6.19788 0
M  V30 5303 H 496.309 -3.34009 4.98195 0
M  V30 5304 H 497.988 -3.28536 5.57381 0
M  V30 5305 N 498.12 -1.38341 -0.754957 0
M  V30 5306 C 499.536 -1.19508 -1.05783 0
M  V30 5307 C 499.736 -0.0428005 -2.01455 0
M  V30 5308 O 498.792 0.611861 -2.44975 0
M  V30 5309 C 500.105 -2.52091 -1.63923 0
M  V30 5310 C 501.653 -2.58762 -1.76101 0
M  V30 5311 C 502.128 -3.91517 -2.37652 0
M  V30 5312 N 503.619 -3.93049 -2.45085 0
M  V30 5313 C 504.354 -4.9253 -2.93602 0
M  V30 5314 N 503.85 -6.02408 -3.42165 0
M  V30 5315 N 505.643 -4.79921 -2.92629 0
M  V30 5316 H 497.794 -2.1206 -0.120056 0
M  V30 5317 H 500.057 -0.94089 -0.11589 0
M  V30 5318 H 499.763 -3.36858 -1.01093 0
M  V30 5319 H 499.637 -2.70388 -2.63003 0
M  V30 5320 H 502.024 -1.74391 -2.38058 0
M  V30 5321 H 502.105 -2.44333 -0.757294 0
M  V30 5322 H 501.749 -4.76309 -1.76329 0
M  V30 5323 H 501.679 -4.03256 -3.38662 0
M  V30 5324 H 504.17 -3.13685 -2.10736 0
M  V30 5325 H 504.483 -6.74248 -3.77637 0
M  V30 5326 H 502.828 -6.0603 -3.40225 0
M  V30 5327 H 506.019 -3.93194 -2.54001 0
M  V30 5328 H 506.192 -5.57601 -3.30128 0
M  V30 5329 N 499.598 0.982988 -1.23187 0
M  V30 5330 C 500.561 2.05649 -1.01198 0
M  V30 5331 C 501.561 1.6078 0.0252464 0
M  V30 5332 O 502.751 1.72878 -0.214243 0
M  V30 5333 C 499.883 3.36744 -0.530656 0
M  V30 5334 H 501.076 2.2659 -1.96461 0
M  V30 5335 H 498.629 1.15602 -1.05195 0
M  V30 5336 H 499.364 3.21492 0.425873 0
M  V30 5337 H 499.149 3.7065 -1.2791 0
M  V30 5338 H 500.639 4.15705 -0.397366 0
M  V30 5339 N 501.076 1.04316 1.18135 0
M  V30 5340 C 502.324 0.746542 1.87806 0
M  V30 5341 C 502.645 -0.728082 1.80898 0
M  V30 5342 O 501.915 -1.52554 1.22899 0
M  V30 5343 H 500.495 0.273157 0.695265 0
M  V30 5344 H 503.157 1.32044 1.43354 0
M  V30 5345 H 502.253 1.05362 2.93778 0
M  V30 5346 N 502.554 -1.34406 0.822964 0
M  V30 5347 C 503.504 -2.26963 0.217208 0
M  V30 5348 C 504.488 -1.48536 -0.618545 0
M  V30 5349 O 505.68 -1.7056 -0.473118 0
M  V30 5350 C 502.809 -3.37655 -0.619973 0
M  V30 5351 C 501.895 -4.23495 0.226411 0
M  V30 5352 N 502.286 -4.88876 1.29744 0
M  V30 5353 C 500.584 -4.45999 0.0107554 0
M  V30 5354 C 501.285 -5.52642 1.81553 0
M  V30 5355 N 500.261 -5.31949 1.11942 0
M  V30 5356 H 504.063 -2.75017 1.03647 0
M  V30 5357 H 501.577 -1.48126 0.665777 0
M  V30 5358 H 503.574 -4.02932 -1.07011 0
M  V30 5359 H 502.234 -2.91151 -1.43739 0
M  V30 5360 H 503.245 -4.89886 1.68024 0
M  V30 5361 H 499.922 -4.10253 -0.774495 0
M  V30 5362 H 501.312 -6.14755 2.71156 0
M  V30 5363 N 504.032 -0.577932 -1.46621 0
M  V30 5364 C 505.262 -0.0670668 -2.06491 0
M  V30 5365 C 505.67 1.24119 -1.42798 0
M  V30 5366 O 505.013 1.76016 -0.525759 0
M  V30 5367 C 505.075 0.177995 -3.59059 0
M  V30 5368 C 504.739 -1.04394 -4.44917 0
M  V30 5369 C 505.736 -1.95479 -4.81751 0
M  V30 5370 C 503.421 -1.26444 -4.86125 0
M  V30 5371 C 505.415 -3.06965 -5.58615 0
M  V30 5372 C 503.102 -2.38237 -5.62749 0
M  V30 5373 C 504.1 -3.28327 -5.98908 0
M  V30 5374 O 503.788 -4.38179 -6.73984 0
M  V30 5375 H 503.52 -0.0523159 -0.673973 0
M  V30 5376 H 506.074 -0.796966 -1.89308 0
M  V30 5377 H 504.304 0.962451 -3.74531 0
M  V30 5378 H 505.993 0.636782 -4.00874 0
M  V30 5379 H 506.759 -1.79657 -4.50498 0
M  V30 5380 H 502.638 -0.572316 -4.57434 0
M  V30 5381 H 506.182 -3.77309 -5.86757 0
M  V30 5382 H 502.079 -2.54023 -5.93416 0
M  V30 5383 H 502.847 -4.36486 -6.92403 0
M  V30 5384 N 505.51 1.54411 -0.315457 0
M  V30 5385 C 506.473 2.22713 0.54142 0
M  V30 5386 C 507.473 1.2179 1.04995 0
M  V30 5387 O 508.663 1.46426 0.943667 0
M  V30 5388 C 505.795 2.92485 1.75116 0
M  V30 5389 H 506.988 2.99849 -0.0555508 0
M  V30 5390 H 504.541 1.56159 -0.0664453 0
M  V30 5391 H 505.276 2.19466 2.38758 0
M  V30 5392 H 505.061 3.66483 1.39401 0
M  V30 5393 H 506.551 3.44548 2.35959 0
M  V30 5394 N 506.988 0.0434614 1.5754 0
M  V30 5395 C 507.951 -0.918696 2.09982 0
M  V30 5396 C 508.951 -1.24488 1.01781 0
M  V30 5397 O 510.141 -1.18284 1.27885 0
M  V30 5398 C 507.273 -2.23093 2.57764 0
M  V30 5399 H 508.466 -0.464229 2.96285 0
M  V30 5400 H 506.019 -0.204818 1.54952 0
M  V30 5401 H 506.754 -2.73137 1.74832 0
M  V30 5402 H 506.539 -2.00724 3.36827 0
M  V30 5403 H 508.029 -2.92028 2.98512 0
M  V30 5404 N 508.466 -1.55915 -0.229846 0
M  V30 5405 C 509.691 -1.8296 -0.976743 0
M  V30 5406 C 510.116 -0.622735 -1.77493 0
M  V30 5407 O 509.474 0.428431 -1.76165 0
M  V30 5408 C 509.522 -3.07916 -1.8767 0
M  V30 5409 O 508.626 -2.86028 -2.97088 0
M  V30 5410 H 507.967 -0.603453 -0.277021 0
M  V30 5411 H 510.497 -2.0312 -0.245669 0
M  V30 5412 H 510.507 -3.37802 -2.2881 0
M  V30 5413 H 509.182 -3.95389 -1.28996 0
M  V30 5414 H 507.759 -2.67355 -2.59954 0
M  V30 5415 N 509.944 0.496216 -1.49584 0
M  V30 5416 C 511.193 1.24668 -1.58558 0
M  V30 5417 C 511.506 1.9359 -0.279703 0
M  V30 5418 O 512.712 2.70365 -0.248048 0
M  V30 5419 C 511.168 2.26388 -2.79779 0
M  V30 5420 C 510.776 1.63384 -4.17145 0
M  V30 5421 C 512.52 3.02233 -2.98086 0
M  V30 5422 C 510.427 2.63243 -5.29582 0
M  V30 5423 H 509.357 0.468995 -0.590389 0
M  V30 5424 H 512.008 0.519985 -1.75978 0
M  V30 5425 H 510.39 3.02241 -2.55863 0
M  V30 5426 H 511.564 0.93491 -4.51216 0
M  V30 5427 H 509.879 0.999121 -4.04236 0
M  V30 5428 H 512.476 3.76919 -3.79257 0
M  V30 5429 H 512.819 3.60132 -2.08831 0
M  V30 5430 H 513.352 2.33495 -3.22063 0
M  V30 5431 H 510.091 2.10119 -6.20911 0
M  V30 5432 H 509.611 3.31363 -4.99959 0
M  V30 5433 H 511.29 3.25575 -5.59115 0
M  V30 5434 N 511.423 1.38739 0.74761 0
M  V30 5435 C 512.672 1.3459 1.50228 0
M  V30 5436 C 512.985 -0.0595592 1.95509 0
M  V30 5437 O 514.191 -0.22361 2.70578 0
M  V30 5438 C 512.647 2.36377 2.71393 0
M  V30 5439 C 512.255 3.82573 2.33113 0
M  V30 5440 C 513.999 2.41281 3.49262 0
M  V30 5441 C 511.906 4.76032 3.50924 0
M  V30 5442 H 510.836 0.500312 0.564096 0
M  V30 5443 H 513.487 1.64324 0.8167 0
M  V30 5444 H 511.869 1.99694 3.41962 0
M  V30 5445 H 513.043 4.28227 1.70171 0
M  V30 5446 H 511.358 3.80844 1.68365 0
M  V30 5447 H 513.955 3.08301 4.36869 0
M  V30 5448 H 514.298 1.43353 3.9084 0
M  V30 5449 H 514.831 2.76793 2.85711 0
M  V30 5450 H 511.57 5.75177 3.14408 0
M  V30 5451 H 511.09 4.35066 4.12889 0
M  V30 5452 H 512.769 4.94331 4.17427 0
M  V30 5453 N 512.901 -0.976442 1.23707 0
M  V30 5454 C 514.15 -1.71254 1.06559 0
M  V30 5455 C 514.463 -1.91528 -0.397024 0
M  V30 5456 O 515.669 -2.62625 -0.688518 0
M  V30 5457 C 514.125 -3.08207 1.8584 0
M  V30 5458 C 513.733 -2.95806 3.36456 0
M  V30 5459 C 515.477 -3.85749 1.77194 0
M  V30 5460 C 513.384 -4.28015 4.08114 0
M  V30 5461 H 512.314 -0.642171 0.395136 0
M  V30 5462 H 514.965 -1.08877 1.4771 0
M  V30 5463 H 513.347 -3.71363 1.37498 0
M  V30 5464 H 514.521 -2.41716 3.92314 0
M  V30 5465 H 512.836 -2.31736 3.45959 0
M  V30 5466 H 515.433 -4.83633 2.28041 0
M  V30 5467 H 515.776 -4.09752 0.735477 0
M  V30 5468 H 516.309 -3.29303 2.23169 0
M  V30 5469 H 513.048 -4.09208 5.12083 0
M  V30 5470 H 512.568 -4.81955 3.57043 0
M  V30 5471 H 514.247 -4.96681 4.14629 0
M  V30 5472 N 514.379 -1.04941 -1.1758 0
M  V30 5473 C 515.795 -0.770282 -1.39781 0
M  V30 5474 C 515.995 0.636417 -1.91186 0
M  V30 5475 O 515.051 1.39923 -2.10185 0
M  V30 5476 C 516.364 -1.82376 -2.3908 0
M  V30 5477 C 517.912 -1.84569 -2.52791 0
M  V30 5478 C 518.387 -2.88933 -3.55361 0
M  V30 5479 N 519.878 -2.8788 -3.62877 0
M  V30 5480 C 520.613 -3.65282 -4.41992 0
M  V30 5481 N 520.109 -4.52461 -5.24643 0
M  V30 5482 N 521.902 -3.53732 -4.36841 0
M  V30 5483 H 514.053 -1.95705 -0.825438 0
M  V30 5484 H 516.316 -0.847284 -0.425222 0
M  V30 5485 H 516.022 -2.83323 -2.08376 0
M  V30 5486 H 515.896 -1.66327 -3.38549 0
M  V30 5487 H 518.283 -0.842879 -2.82807 0
M  V30 5488 H 518.364 -2.04696 -1.53406 0
M  V30 5489 H 518.008 -3.89398 -3.26085 0
M  V30 5490 H 517.938 -2.66059 -4.54445 0
M  V30 5491 H 520.429 -2.24666 -3.03864 0
M  V30 5492 H 520.742 -5.08211 -5.82187 0
M  V30 5493 H 519.087 -4.56524 -5.24033 0
M  V30 5494 H 522.278 -2.85021 -3.71323 0
M  V30 5495 H 522.451 -4.14302 -4.98255 0
M  V30 5496 N 515.857 1.33968 -0.830081 0
M  V30 5497 C 517.273 1.51003 -0.516742 0
M  V30 5498 C 517.473 1.77286 0.957694 0
M  V30 5499 O 516.529 1.82797 1.74188 0
M  V30 5500 C 517.842 2.67036 -1.38247 0
M  V30 5501 C 519.39 2.80919 -1.38034 0
M  V30 5502 C 519.865 4.00004 -2.23071 0
M  V30 5503 N 521.356 4.07224 -2.20733 0
M  V30 5504 C 522.091 4.98541 -2.83275 0
M  V30 5505 N 521.587 5.95033 -3.54835 0
M  V30 5506 N 523.38 4.91469 -2.72791 0
M  V30 5507 H 515.531 1.15168 -1.78466 0
M  V30 5508 H 517.794 0.565443 -0.760906 0
M  V30 5509 H 517.5 2.54266 -2.42985 0
M  V30 5510 H 517.374 3.62226 -1.05225 0
M  V30 5511 H 519.761 2.93127 -0.340713 0
M  V30 5512 H 519.842 1.86517 -1.75057 0
M  V30 5513 H 519.486 3.88557 -3.27087 0
M  V30 5514 H 519.416 4.93634 -1.83394 0
M  V30 5515 H 521.907 3.38162 -1.68687 0
M  V30 5516 H 522.22 6.61357 -3.99784 0
M  V30 5517 H 520.565 5.95135 -3.58942 0
M  V30 5518 H 523.756 4.15048 -2.16456 0
M  V30 5519 H 523.929 5.62439 -3.21818 0
M  V30 5520 N 517.335 0.585699 1.46312 0
M  V30 5521 C 518.563 0.0781299 2.06752 0
M  V30 5522 C 518.978 -1.22812 1.43396 0
M  V30 5523 O 518.335 -1.74318 0.540314 0
M  V30 5524 C 518.386 -0.0911927 3.61385 0
M  V30 5525 O 518.107 1.16336 4.22371 0
M  V30 5526 C 519.608 -0.632765 4.38761 0
M  V30 5527 H 516.828 0.0588188 0.668417 0
M  V30 5528 H 519.372 0.807218 1.87894 0
M  V30 5529 H 517.527 -0.770514 3.7966 0
M  V30 5530 H 517.941 0.979082 5.15281 0
M  V30 5531 H 519.415 -0.70041 5.47538 0
M  V30 5532 H 519.892 -1.65039 4.07012 0
M  V30 5533 H 520.498 0.0117856 4.25298 0
M  V30 5534 N 518.813 -1.54241 0.323641 0
M  V30 5535 C 520.061 -2.00174 -0.278359 0
M  V30 5536 C 520.382 -1.2134 -1.52648 0
M  V30 5537 O 519.652 -0.315244 -1.93347 0
M  V30 5538 H 518.232 -0.739463 -0.105845 0
M  V30 5539 H 520.894 -1.89864 0.440204 0
M  V30 5540 H 519.99 -3.07486 -0.5347 0
M  V30 5541 N 520.291 -0.0518155 -1.57515 0
M  V30 5542 C 521.531 0.625712 -1.94587 0
M  V30 5543 C 521.895 1.6797 -0.930053 0
M  V30 5544 O 523.096 2.41135 -1.18774 0
M  V30 5545 C 521.367 1.20574 -3.36447 0
M  V30 5546 S 522.926 1.90118 -3.95475 0
M  V30 5547 H 519.744 0.205434 -0.680675 0
M  V30 5548 H 522.346 -0.120906 -1.95126 0
M  V30 5549 H 521.05 0.426521 -4.08178 0
M  V30 5550 H 520.581 1.98916 -3.39405 0
M  V30 5551 H 522.596 3.18184 -3.80753 0
M  V30 5552 N 521.769 1.56035 0.221574 0
M  V30 5553 C 522.997 1.8313 0.962864 0
M  V30 5554 C 523.412 0.630934 1.77946 0
M  V30 5555 O 522.769 -0.400519 1.78051 0
M  V30 5556 C 522.82 3.08742 1.88045 0
M  V30 5557 O 522.541 4.24147 1.09686 0
M  V30 5558 C 524.042 3.48824 2.73563 0
M  V30 5559 H 521.262 0.608775 0.282194 0
M  V30 5560 H 523.806 2.03124 0.23681 0
M  V30 5561 H 521.961 2.90723 2.56045 0
M  V30 5562 H 522.375 4.95505 1.71974 0
M  V30 5563 H 523.849 4.39752 3.3365 0
M  V30 5564 H 524.326 2.70575 3.45956 0
M  V30 5565 H 524.932 3.69282 2.10976 0
M  V30 5566 N 523.247 -0.488276 1.49845 0
M  V30 5567 C 524.494 -1.24157 1.59973 0
M  V30 5568 C 524.822 -1.92293 0.292182 0
M  V30 5569 O 524.077 -1.81942 -0.720813 0
M  V30 5570 C 524.376 -2.32152 2.71735 0
M  V30 5571 C 524.042 -1.81387 4.12807 0
M  V30 5572 C 522.704 -1.67262 4.51195 0
M  V30 5573 C 525.056 -1.43537 5.01045 0
M  V30 5574 C 522.384 -1.13685 5.7558 0
M  V30 5575 C 524.736 -0.914081 6.25961 0
M  V30 5576 C 523.4 -0.759327 6.63167 0
M  V30 5577 H 522.67 -0.454322 0.585383 0
M  V30 5578 H 525.317 -0.540261 1.83721 0
M  V30 5579 H 523.622 -3.08122 2.42008 0
M  V30 5580 H 525.319 -2.90164 2.76778 0
M  V30 5581 H 521.909 -1.93344 3.82513 0
M  V30 5582 H 526.093 -1.53292 4.72033 0
M  V30 5583 H 521.349 -1.00426 6.03096 0
M  V30 5584 H 525.523 -0.612066 6.93705 0
M  V30 5585 H 523.15 -0.342002 7.5943 0
M  V30 5586 N 524.725 -1.39134 -0.740242 0
M  V30 5587 C 526.136 -1.32208 -1.31825 0
M  V30 5588 C 526.487 0.0159919 -1.96193 0
M  V30 5589 O 525.612 0.918111 -1.95958 0
M  V30 5590 C 526.207 -2.39436 -2.39699 0
M  V30 5591 C 524.766 -2.36048 -2.93187 0
M  V30 5592 C 523.913 -2.21599 -1.66701 0
M  V30 5593 H 526.864 -1.49298 -0.538133 0
M  V30 5594 H 526.885 -2.05922 -3.19963 0
M  V30 5595 H 526.397 -3.36811 -1.92821 0
M  V30 5596 H 524.498 -1.42295 -3.44359 0
M  V30 5597 H 524.611 -3.30704 -3.46658 0
M  V30 5598 H 522.975 -1.68681 -1.90837 0
M  V30 5599 H 523.758 -3.20936 -1.21882 0
M  V30 5600 N 526.204 0.969867 -1.24223 0
M  V30 5601 C 527.114 2.09806 -1.0497 0
M  V30 5602 C 528.13 1.73998 0.00886455 0
M  V30 5603 O 529.306 2.00513 -0.188848 0
M  V30 5604 C 526.371 3.40467 -0.654452 0
M  V30 5605 C 525.432 3.90236 -1.78926 0
M  V30 5606 C 524.665 5.14662 -1.41277 0
M  V30 5607 O 524.888 5.69602 -0.301632 0
M  V30 5608 O 523.822 5.58761 -2.23763 0
M  V30 5609 H 527.648 2.28942 -1.99548 0
M  V30 5610 H 525.233 1.08197 -1.03023 0
M  V30 5611 H 527.115 4.19039 -0.445452 0
M  V30 5612 H 525.79 3.22636 0.262216 0
M  V30 5613 H 524.697 3.12735 -2.05299 0
M  V30 5614 H 526.03 4.1254 -2.68462 0
M  V30 5615 N 527.682 1.05563 1.17022 0
M  V30 5616 C 528.629 0.659893 2.21165 0
M  V30 5617 C 529.599 -0.339813 1.62587 0
M  V30 5618 O 530.784 -0.230378 1.89404 0
M  V30 5619 C 527.924 0.0447297 3.45071 0
M  V30 5620 C 527.037 1.09372 4.17926 0
M  V30 5621 C 526.172 0.445481 5.29329 0
M  V30 5622 C 525.211 1.47852 5.93975 0
M  V30 5623 N 524.348 0.854172 6.96885 0
M  V30 5624 H 529.188 1.55243 2.54369 0
M  V30 5625 H 526.725 0.776336 1.24946 0
M  V30 5626 H 528.683 -0.329404 4.15898 0
M  V30 5627 H 527.313 -0.811244 3.1244 0
M  V30 5628 H 526.365 1.58564 3.45777 0
M  V30 5629 H 527.677 1.87773 4.62107 0
M  V30 5630 H 526.831 0.0179688 6.06697 0
M  V30 5631 H 525.57 -0.370481 4.86291 0
M  V30 5632 H 524.575 1.91601 5.15334 0
M  V30 5633 H 525.8 2.29645 6.39093 0
M  V30 5634 H 523.746 0.0587882 6.55974 0
M  V30 5635 H 523.663 1.57567 7.39397 0
M  V30 5636 H 524.931 0.451559 7.78191 0
M  V30 5637 N 529.16 -1.33526 0.837174 0
M  V30 5638 C 530.571 -1.80182 0.489017 0
M  V30 5639 C 530.922 -1.69285 -0.991826 0
M  V30 5640 O 530.047 -1.24113 -1.77271 0
M  V30 5641 C 530.642 -3.27149 0.880866 0
M  V30 5642 C 529.201 -3.71828 0.584872 0
M  V30 5643 C 528.348 -2.54974 1.09011 0
M  V30 5644 H 531.299 -1.21071 1.02603 0
M  V30 5645 H 531.32 -3.80024 0.190239 0
M  V30 5646 H 530.832 -3.35048 1.95869 0
M  V30 5647 H 528.933 -3.69457 -0.48295 0
M  V30 5648 H 529.046 -4.65366 1.13892 0
M  V30 5649 H 527.41 -2.4952 0.511047 0
M  V30 5650 H 528.193 -2.65637 2.17467 0
M  V30 5651 N 530.638 -0.59345 -1.46 0
M  V30 5652 C 531.915 -0.0157933 -1.95594 0
M  V30 5653 C 532.295 1.44807 -1.53604 0
M  V30 5654 O 531.643 2.14342 -0.791824 0
M  V30 5655 C 531.853 -0.199081 -3.48432 0
M  V30 5656 C 533.201 -0.0724943 -4.24538 0
M  V30 5657 O 534.225 -0.128469 -3.55968 0
M  V30 5658 O 533.084 0.0542426 -5.46473 0
M  V30 5659 H 530.178 0.043749 -0.825842 0
M  V30 5660 H 532.724 -0.662522 -1.56233 0
M  V30 5661 H 531.496 -1.21631 -3.71916 0
M  V30 5662 H 531.119 0.483576 -3.94648 0
M  V30 5663 N 532.116 1.54067 -0.331816 0
M  V30 5664 C 533.363 2.00715 0.268269 0
M  V30 5665 C 533.691 1.21986 1.51491 0
M  V30 5666 O 532.946 0.292309 1.93505 0
M  V30 5667 C 533.245 3.51634 0.639392 0
M  V30 5668 C 532.911 4.48018 -0.509019 0
M  V30 5669 C 531.573 4.74089 -0.824209 0
M  V30 5670 C 533.925 5.05237 -1.28003 0
M  V30 5671 C 531.253 5.54637 -1.91298 0
M  V30 5672 C 533.605 5.86972 -2.35895 0
M  V30 5673 C 532.269 6.11342 -2.67987 0
M  V30 5674 H 531.539 0.734469 0.0981667 0
M  V30 5675 H 534.186 1.8596 -0.457304 0
M  V30 5676 H 532.491 3.6416 1.44551 0
M  V30 5677 H 534.188 3.85175 1.11539 0
M  V30 5678 H 530.778 4.27851 -0.253287 0
M  V30 5679 H 534.962 4.8507 -1.04978 0
M  V30 5680 H 530.218 5.71747 -2.16599 0
M  V30 5681 H 534.392 6.30327 -2.96076 0
M  V30 5682 H 532.019 6.73544 -3.5248 0
M  V30 5683 N 533.594 0.0601682 1.57485 0
M  V30 5684 C 534.544 -0.920969 2.08572 0
M  V30 5685 C 535.528 -1.26617 0.992827 0
M  V30 5686 O 536.72 -1.24708 1.25606 0
M  V30 5687 C 533.849 -2.19267 2.64153 0
M  V30 5688 C 532.935 -1.87447 3.80427 0
M  V30 5689 N 533.326 -1.26025 4.89848 0
M  V30 5690 C 531.624 -2.17265 3.89502 0
M  V30 5691 C 532.325 -1.12036 5.70809 0
M  V30 5692 N 531.301 -1.62624 5.18705 0
M  V30 5693 H 535.103 -0.441561 2.90564 0
M  V30 5694 H 532.617 -0.144043 1.6176 0
M  V30 5695 H 534.614 -2.90462 2.99061 0
M  V30 5696 H 533.274 -2.67806 1.83603 0
M  V30 5697 H 534.285 -0.931336 5.09457 0
M  V30 5698 H 530.962 -2.68262 3.19909 0
M  V30 5699 H 532.352 -0.642783 6.68818 0
M  V30 5700 O 535.111 -1.61298 -0.0807432 0
M  V30 5701 H 535.802 -1.80309 -0.707697 0
M  V30 END ATOM
M  V30 BEGIN BOND
M  V30 END BOND
M  V30 END CTAB
M  END
$$$$
