drugbank_target|Q9Y5N1 Histamine H3 receptor (DB00768; DB01238; DB05080; DB05381; DB06698; DB11642)
 OpenBabel12092119443D

  0  0  0     0  0            999 V3000
M  V30 BEGIN CTAB
M  V30 COUNTS 6864 6966 0 0 0
M  V30 BEGIN ATOM
M  V30 1 H -0.908 1.98254 -0.117106 0
M  V30 2 N 0 1.576 0 0
M  V30 3 C 0.933 2.03868 1.02534 0
M  V30 4 C 1.911 0.928543 1.3348 0
M  V30 5 O 3.095 1.19667 1.45644 0
M  V30 6 C 0.222 2.43627 2.35294 0
M  V30 7 C -0.732 3.65373 2.2001 0
M  V30 8 S 0.101 5.13292 1.52614 0
M  V30 9 C 1.257 5.56322 2.86805 0
M  V30 10 H 1.49 2.90518 0.631377 0
M  V30 11 H -0.977 1.52953 0.210867 0
M  V30 12 H 0.981 2.67203 3.11629 0
M  V30 13 H -0.358 1.57376 2.7183 0
M  V30 14 H -1.165 3.90944 3.18086 0
M  V30 15 H -1.563 3.418 1.51819 0
M  V30 16 H 0.729 5.58782 3.83104 0
M  V30 17 H 1.672 6.56266 2.65933 0
M  V30 18 H 2.08 4.83886 2.90714 0
M  V30 19 N 1.4781 -0.272755 1.55222 0
M  V30 20 C 2.3881 -1.35918 1.91216 0
M  V30 21 C 3.4041 -1.54026 0.809436 0
M  V30 22 O 4.5801 -1.68148 1.10852 0
M  V30 23 C 1.6451 -2.69834 2.17693 0
M  V30 24 C 0.7061 -2.6047 3.41253 0
M  V30 25 C -0.0609 -3.88 3.66458 0
M  V30 26 O 0.1621 -4.88693 2.94169 0
M  V30 27 O -0.9039 -3.88189 4.59992 0
M  V30 28 H 2.9221 -1.0839 2.83699 0
M  V30 29 H 0.5071 -0.471301 1.41771 0
M  V30 30 H 2.3891 -3.49017 2.36147 0
M  V30 31 H 1.0641 -2.97148 1.28392 0
M  V30 32 H -0.0289 -1.79663 3.28134 0
M  V30 33 H 1.3041 -2.38106 4.30774 0
M  V30 34 N 2.9562 -1.48159 -0.537278 0
M  V30 35 C 4.3722 -1.34118 -0.865129 0
M  V30 36 C 4.5722 -0.346678 -1.98495 0
M  V30 37 O 3.6282 0.234715 -2.51407 0
M  V30 38 C 4.9412 -2.73963 -1.23954 0
M  V30 39 C 6.4892 -2.82397 -1.34984 0
M  V30 40 C 6.9642 -4.22928 -1.75772 0
M  V30 41 N 8.4552 -4.25566 -1.82887 0
M  V30 42 C 9.1902 -5.31235 -2.15817 0
M  V30 43 N 8.6862 -6.47189 -2.47222 0
M  V30 44 N 10.4792 -5.18624 -2.16761 0
M  V30 45 H 2.6302 -2.1144 0.201715 0
M  V30 46 H 4.8932 -0.947598 0.0275949 0
M  V30 47 H 4.5992 -3.48264 -0.490381 0
M  V30 48 H 4.4732 -3.0702 -2.19132 0
M  V30 49 H 6.8602 -2.08356 -2.08978 0
M  V30 50 H 6.9412 -2.5297 -0.379448 0
M  V30 51 H 6.5852 -4.97482 -1.02341 0
M  V30 52 H 6.5152 -4.49794 -2.73848 0
M  V30 53 H 9.0062 -3.41924 -1.60924 0
M  V30 54 H 9.3192 -7.23564 -2.71433 0
M  V30 55 H 7.6642 -6.50476 -2.44757 0
M  V30 56 H 10.8552 -4.27056 -1.91679 0
M  V30 57 H 11.0282 -6.01078 -2.42093 0
M  V30 58 N 4.4343 0.785586 -1.36625 0
M  V30 59 C 5.3973 1.87999 -1.31107 0
M  V30 60 C 6.3973 1.59316 -0.217959 0
M  V30 61 O 7.5873 1.67656 -0.472977 0
M  V30 62 C 4.7193 3.24861 -1.03334 0
M  V30 63 H 5.9123 1.94307 -2.2844 0
M  V30 64 H 3.4653 0.983813 -1.21453 0
M  V30 65 H 4.2003 3.24235 -0.0647432 0
M  V30 66 H 3.9853 3.4707 -1.82441 0
M  V30 67 H 5.4753 4.04929 -1.02088 0
M  V30 68 N 5.9124 1.20967 1.01018 0
M  V30 69 C 7.3234 1.02319 1.56165 0
M  V30 70 C 7.6744 -0.418546 1.91684 0
M  V30 71 O 6.7994 -1.30096 1.72928 0
M  V30 72 C 7.3944 1.85109 2.8376 0
M  V30 73 C 5.9534 1.70809 3.35412 0
M  V30 74 C 5.1004 1.82643 2.08655 0
M  V30 75 H 8.0514 1.35065 0.833255 0
M  V30 76 H 8.0724 1.35827 3.55431 0
M  V30 77 H 7.5844 2.90035 2.57878 0
M  V30 78 H 5.6854 0.685464 3.66241 0
M  V30 79 H 5.7984 2.52467 4.07182 0
M  V30 80 H 4.1624 1.25896 2.21409 0
M  V30 81 H 4.9454 2.89066 1.85191 0
M  V30 82 N 7.3905 -1.2043 1.01659 0
M  V30 83 C 8.8015 -1.71517 0.737482 0
M  V30 84 C 9.1525 -1.81547 -0.743973 0
M  V30 85 O 8.2775 -1.47803 -1.58061 0
M  V30 86 C 8.8725 -3.11515 1.33206 0
M  V30 87 C 7.4315 -3.59912 1.10183 0
M  V30 88 C 6.5785 -2.37116 1.43776 0
M  V30 89 H 9.5295 -1.05444 1.18606 0
M  V30 90 H 9.5505 -3.73575 0.722636 0
M  V30 91 H 9.0625 -3.04182 2.41028 0
M  V30 92 H 7.1635 -3.72577 0.0412756 0
M  V30 93 H 7.2765 -4.44731 1.78188 0
M  V30 94 H 5.6405 -2.39857 0.856778 0
M  V30 95 H 6.4235 -2.32424 2.52654 0
M  V30 96 N 8.8686 -0.792821 -1.36206 0
M  V30 97 C 10.1456 -0.290627 -1.93429 0
M  V30 98 C 10.5256 1.21773 -1.72437 0
M  V30 99 O 9.8736 2.0108 -1.08531 0
M  V30 100 C 10.0836 -0.686973 -3.42172 0
M  V30 101 C 11.4316 -0.668643 -4.19302 0
M  V30 102 O 12.4556 -0.627658 -3.50626 0
M  V30 103 O 11.3146 -0.714597 -5.41808 0
M  V30 104 H 8.4086 -0.0727927 -0.82379 0
M  V30 105 H 10.9546 -0.875593 -1.45367 0
M  V30 106 H 9.7266 -1.72711 -3.51122 0
M  V30 107 H 9.3496 -0.0760733 -3.97527 0
M  V30 108 N 10.3467 1.47872 -0.545128 0
M  V30 109 C 11.5947 2.02093 -0.016553 0
M  V30 110 C 11.9157 1.42305 1.3332 0
M  V30 111 O 11.1857 0.593853 1.86682 0
M  V30 112 H 9.7657 0.746993 -0.00313038 0
M  V30 113 H 12.4277 1.81414 -0.712397 0
M  V30 114 H 11.5237 3.11996 0.0805422 0
M  V30 115 N 11.8248 0.280983 1.55075 0
M  V30 116 C 13.2358 -0.215629 1.85451 0
M  V30 117 C 13.5868 -1.54991 1.203 0
M  V30 118 O 12.7118 -2.10699 0.493435 0
M  V30 119 C 13.3068 -0.398026 3.36454 0
M  V30 120 C 11.8658 -0.838866 3.66933 0
M  V30 121 C 11.0128 0.064458 2.77225 0
M  V30 122 H 13.9638 0.502601 1.50531 0
M  V30 123 H 13.9848 -1.23569 3.59876 0
M  V30 124 H 13.4968 0.573241 3.83843 0
M  V30 125 H 11.5978 -1.8214 3.25048 0
M  V30 126 H 11.7108 -0.672123 4.74362 0
M  V30 127 H 10.0748 -0.452863 2.50642 0
M  V30 128 H 10.8578 1.03172 3.2743 0
M  V30 129 N 13.3029 -1.57598 0.00835791 0
M  V30 130 C 14.2329 -2.1198 -0.979113 0
M  V30 131 C 15.2139 -1.03091 -1.35301 0
M  V30 132 O 16.3989 -1.30818 -1.43528 0
M  V30 133 C 13.5289 -2.62995 -2.26828 0
M  V30 134 C 12.4829 -3.76485 -2.03576 0
M  V30 135 C 11.8089 -4.13846 -3.38579 0
M  V30 136 C 13.1089 -5.0342 -1.39161 0
M  V30 137 H 14.8029 -2.94738 -0.526281 0
M  V30 138 H 12.3489 -1.41783 -0.251704 0
M  V30 139 H 14.3019 -2.99669 -2.96271 0
M  V30 140 H 13.0259 -1.7737 -2.7424 0
M  V30 141 H 11.6849 -3.40217 -1.36557 0
M  V30 142 H 11.3329 -3.25232 -3.83709 0
M  V30 143 H 11.0329 -4.90312 -3.23834 0
M  V30 144 H 12.5569 -4.53086 -4.09323 0
M  V30 145 H 13.9709 -5.37812 -1.98573 0
M  V30 146 H 12.3679 -5.84746 -1.34878 0
M  V30 147 H 13.4379 -4.83548 -0.361868 0
M  V30 148 N 14.781 0.264519 -1.55364 0
M  V30 149 C 15.729 1.34702 -1.89626 0
M  V30 150 C 16.723 1.50712 -0.773459 0
M  V30 151 O 17.929 1.52395 -0.957897 0
M  V30 152 H 14.304 0.450682 -0.601988 0
M  V30 153 H 16.275 1.0306 -2.80038 0
M  V30 154 C 15.024 2.6989 -2.19214 0
M  V30 155 H 14.347 2.58365 -3.05103 0
M  V30 156 H 15.787 3.44553 -2.47102 0
M  V30 157 C 14.246 3.21637 -1.00254 0
M  V30 158 O 14.776 4.00973 -0.241501 0
M  V30 159 N 12.982 2.7943 -0.797938 0
M  V30 160 H 12.529 2.15026 -1.4185 0
M  V30 161 H 12.487 3.144 -0.00363422 0
M  V30 162 N 16.2591 1.48442 0.529413 0
M  V30 163 C 17.2221 1.62524 1.61612 0
M  V30 164 C 18.2221 0.498509 1.52877 0
M  V30 165 O 19.4121 0.76431 1.56537 0
M  V30 166 C 16.5441 1.59597 3.01233 0
M  V30 167 H 17.7371 2.59423 1.50465 0
M  V30 168 H 15.2901 1.37047 0.751514 0
M  V30 169 H 16.0251 0.641781 3.17886 0
M  V30 170 H 15.8101 2.41397 3.08982 0
M  V30 171 H 17.3001 1.72646 3.80241 0
M  V30 172 N 17.7372 -0.778329 1.37039 0
M  V30 173 C 18.9622 -1.57248 1.35233 0
M  V30 174 C 19.3872 -1.87999 -0.0615568 0
M  V30 175 O 18.7452 -1.48734 -1.03672 0
M  V30 176 C 18.7932 -2.86353 2.19167 0
M  V30 177 O 17.8972 -3.80442 1.59178 0
M  V30 178 H 17.2382 -0.476569 0.462362 0
M  V30 179 H 19.7682 -0.963853 1.80474 0
M  V30 180 H 19.7782 -3.35519 2.32145 0
M  V30 181 H 18.4532 -2.63299 3.21942 0
M  V30 182 H 17.0302 -3.39067 1.55203 0
M  V30 183 N 19.2153 -1.21501 -1.00376 0
M  V30 184 C 20.4633 -1.03095 -1.73827 0
M  V30 185 C 20.7843 0.436341 -1.90055 0
M  V30 186 O 20.0543 1.31466 -1.45236 0
M  V30 187 H 18.6343 -0.378487 -0.644016 0
M  V30 188 H 21.2963 -1.52831 -1.20949 0
M  V30 189 H 20.3923 -1.49991 -2.73695 0
M  V30 190 N 20.6934 1.19889 -1.02296 0
M  V30 191 C 21.6564 2.21116 -0.603351 0
M  V30 192 C 22.6564 1.5738 0.329884 0
M  V30 193 O 23.8464 1.73802 0.117702 0
M  V30 194 C 20.9784 3.40696 0.117992 0
M  V30 195 H 22.1714 2.59754 -1.49893 0
M  V30 196 H 19.7244 1.33463 -0.813468 0
M  V30 197 H 20.4594 3.07569 1.0282 0
M  V30 198 H 20.2444 3.88188 -0.552511 0
M  V30 199 H 21.7344 4.15692 0.398696 0
M  V30 200 N 22.1715 0.800033 1.35784 0
M  V30 201 C 23.1015 0.220184 2.3246 0
M  V30 202 C 24.0825 -0.65073 1.57161 0
M  V30 203 O 25.2675 -0.582359 1.85263 0
M  V30 204 C 22.3975 -0.637353 3.41402 0
M  V30 205 C 21.3515 0.134531 4.27789 0
M  V30 206 C 20.6775 -0.844285 5.27992 0
M  V30 207 C 21.9775 1.32979 5.05088 0
M  V30 208 H 23.6715 1.02787 2.81203 0
M  V30 209 H 21.2175 0.495717 1.35199 0
M  V30 210 H 23.1705 -1.05302 4.08031 0
M  V30 211 H 21.8945 -1.47785 2.91251 0
M  V30 212 H 20.5535 0.531296 3.6273 0
M  V30 213 H 20.2015 -1.68011 4.74111 0
M  V30 214 H 19.9015 -0.332184 5.8666 0
M  V30 215 H 21.4255 -1.2583 5.97494 0
M  V30 216 H 22.8395 0.98934 5.64699 0
M  V30 217 H 21.2365 1.77593 5.7322 0
M  V30 218 H 22.3065 2.11978 4.36111 0
M  V30 219 N 23.6496 -1.47581 0.552962 0
M  V30 220 C 24.6126 -2.28439 -0.186605 0
M  V30 221 C 25.6126 -1.36706 -0.84665 0
M  V30 222 O 26.8026 -1.59378 -0.703164 0
M  V30 223 C 23.9346 -3.16264 -1.2724 0
M  V30 224 H 25.1276 -2.95294 0.523609 0
M  V30 225 H 22.6806 -1.532 0.309745 0
M  V30 226 H 23.4156 -2.54091 -2.01514 0
M  V30 227 H 23.2006 -3.83769 -0.803968 0
M  V30 228 H 24.6906 -3.77198 -1.79196 0
M  V30 229 N 25.1277 -0.289203 -1.54924 0
M  V30 230 C 26.3757 0.322879 -1.99504 0
M  V30 231 C 26.6967 1.55313 -1.1791 0
M  V30 232 O 25.9667 1.94001 -0.272097 0
M  V30 233 H 24.5467 0.122291 -0.736922 0
M  V30 234 H 27.2087 -0.397802 -1.90797 0
M  V30 235 H 26.3047 0.603061 -3.06218 0
M  V30 236 N 26.6058 1.57591 -0.0167156 0
M  V30 237 C 27.5158 2.1291 0.98521 0
M  V30 238 C 28.5318 1.07834 1.36557 0
M  V30 239 O 29.7078 1.39826 1.44951 0
M  V30 240 C 26.7728 2.63512 2.25305 0
M  V30 241 C 25.8338 3.83256 1.93426 0
M  V30 242 C 25.0668 4.31435 3.14165 0
M  V30 243 O 25.2898 3.78851 4.26413 0
M  V30 244 O 24.2238 5.23416 2.97186 0
M  V30 245 H 28.0498 2.98772 0.544888 0
M  V30 246 H 25.6348 1.48012 0.203141 0
M  V30 247 H 27.5168 2.96183 2.99756 0
M  V30 248 H 26.1918 1.8074 2.68542 0
M  V30 249 H 25.0988 3.55531 1.16398 0
M  V30 250 H 26.4318 4.67153 1.55013 0
M  V30 251 N 28.0839 -0.256276 1.55502 0
M  V30 252 C 29.0469 -1.30047 1.88734 0
M  V30 253 C 30.0469 -1.4154 0.763086 0
M  V30 254 O 31.2369 -1.40403 1.03115 0
M  V30 255 C 28.3689 -2.67953 2.10747 0
M  V30 256 H 29.5619 -1.01802 2.82093 0
M  V30 257 H 27.1149 -0.495134 1.4825 0
M  V30 258 H 27.8499 -3.01351 1.19825 0
M  V30 259 H 27.6349 -2.60993 2.92617 0
M  V30 260 H 29.1249 -3.43368 2.37673 0
M  V30 261 N 29.562 -1.4872 -0.521534 0
M  V30 262 C 30.525 -1.63379 -1.60748 0
M  V30 263 C 31.525 -0.50661 -1.52611 0
M  V30 264 O 32.715 -0.772601 -1.5613 0
M  V30 265 C 29.847 -1.61192 -3.00383 0
M  V30 266 H 31.04 -2.60217 -1.49087 0
M  V30 267 H 28.593 -1.37444 -0.744235 0
M  V30 268 H 29.328 -0.65863 -3.17541 0
M  V30 269 H 29.113 -2.43032 -3.07698 0
M  V30 270 H 30.603 -1.7466 -3.7932 0
M  V30 271 N 31.0401 0.771051 -1.3745 0
M  V30 272 C 32.0031 1.86598 -1.33093 0
M  V30 273 C 33.0031 1.59076 -0.234845 0
M  V30 274 O 34.1931 1.67145 -0.490732 0
M  V30 275 C 31.3251 3.23747 -1.06773 0
M  V30 276 H 32.5181 1.91873 -2.30488 0
M  V30 277 H 30.0711 0.970876 -1.2249 0
M  V30 278 H 30.8061 3.24148 -0.099129 0
M  V30 279 H 30.5911 3.45115 -1.86112 0
M  V30 280 H 32.0811 4.03824 -1.06377 0
M  V30 281 N 32.5182 1.22032 0.997298 0
M  V30 282 C 33.4812 0.987909 2.06816 0
M  V30 283 C 34.4812 -0.0440084 1.6074 0
M  V30 284 O 35.6712 0.194053 1.73116 0
M  V30 285 C 32.8032 0.49132 3.37341 0
M  V30 286 H 33.9962 1.93803 2.28868 0
M  V30 287 H 31.5492 1.03838 1.16822 0
M  V30 288 H 32.2842 -0.463364 3.20973 0
M  V30 289 H 32.0692 1.23575 3.72118 0
M  V30 290 H 33.5592 0.348824 4.16141 0
M  V30 291 N 33.9963 -1.19345 1.0293 0
M  V30 292 C 35.2443 -1.88665 0.724574 0
M  V30 293 C 35.5653 -1.80036 -0.749144 0
M  V30 294 O 34.8353 -1.2111 -1.53978 0
M  V30 295 H 33.4153 -0.698406 0.265025 0
M  V30 296 H 36.0773 -1.44885 1.30362 0
M  V30 297 H 35.1733 -2.94987 1.01926 0
M  V30 298 N 35.4744 -0.807222 -1.35358 0
M  V30 299 C 36.7224 -0.387122 -1.98358 0
M  V30 300 C 37.0434 1.04942 -1.64354 0
M  V30 301 O 36.3134 1.72615 -0.926339 0
M  V30 302 H 34.8934 -0.140154 -0.733734 0
M  V30 303 H 37.5554 -1.0332 -1.6526 0
M  V30 304 H 36.6514 -0.493352 -3.08176 0
M  V30 305 N 36.9525 1.47285 -0.560781 0
M  V30 306 C 37.9155 2.28535 0.174488 0
M  V30 307 C 38.9155 1.37153 0.839388 0
M  V30 308 O 40.1055 1.59748 0.694702 0
M  V30 309 C 37.2375 3.16934 1.25561 0
M  V30 310 H 38.4305 2.95012 -0.539262 0
M  V30 311 H 35.9835 1.53034 -0.317865 0
M  V30 312 H 36.7185 2.55157 2.00164 0
M  V30 313 H 36.5035 3.8419 0.783604 0
M  V30 314 H 37.9935 3.78143 1.77193 0
M  V30 315 N 38.4306 0.297415 1.54768 0
M  V30 316 C 39.8466 -0.0560823 1.59501 0
M  V30 317 C 40.0466 -1.52725 1.31444 0
M  V30 318 O 39.1026 -2.27947 1.08611 0
M  V30 319 C 40.4156 0.338631 2.98787 0
M  V30 320 C 41.9636 0.287097 3.11681 0
M  V30 321 C 42.4386 0.656579 4.53269 0
M  V30 322 N 43.9296 0.608977 4.59179 0
M  V30 323 C 44.6646 0.867385 5.66802 0
M  V30 324 N 44.1606 1.19157 6.82476 0
M  V30 325 N 45.9536 0.794687 5.56454 0
M  V30 326 H 38.1046 1.25624 1.71267 0
M  V30 327 H 40.3676 0.509057 0.799728 0
M  V30 328 H 40.0736 1.36263 3.2423 0
M  V30 329 H 39.9476 -0.309508 3.75928 0
M  V30 330 H 42.3346 -0.727649 2.85988 0
M  V30 331 H 42.4156 0.969809 2.36703 0
M  V30 332 H 42.0596 1.66912 4.7969 0
M  V30 333 H 41.9896 -0.0481649 5.26578 0
M  V30 334 H 44.4806 0.369198 3.76092 0
M  V30 335 H 44.7936 1.37482 7.60473 0
M  V30 336 H 43.1386 1.22958 6.84037 0
M  V30 337 H 46.3296 0.541098 4.64962 0
M  V30 338 H 46.5026 0.999445 6.40246 0
M  V30 339 N 39.9087 -1.5758 0.0250728 0
M  V30 340 C 41.1567 -1.91255 -0.653151 0
M  V30 341 C 41.4777 -0.901691 -1.729 0
M  V30 342 O 40.7477 0.0573785 -1.95816 0
M  V30 343 H 39.3277 -0.705942 -0.244243 0
M  V30 344 H 41.9897 -1.94767 0.0719209 0
M  V30 345 H 41.0857 -2.91752 -1.10847 0
M  V30 346 N 41.3868 0.248026 -1.55636 0
M  V30 347 C 42.6338 0.976224 -1.77415 0
M  V30 348 C 42.9618 1.85361 -0.589193 0
M  V30 349 O 42.2168 1.90973 0.427529 0
M  V30 350 C 42.5158 1.86819 -3.04686 0
M  V30 351 C 42.1818 1.14625 -4.36087 0
M  V30 352 C 40.8438 0.946723 -4.71795 0
M  V30 353 C 43.1958 0.634463 -5.17324 0
M  V30 354 C 40.5238 0.223091 -5.86276 0
M  V30 355 C 42.8758 -0.0756959 -6.32555 0
M  V30 356 C 41.5398 -0.286711 -6.66884 0
M  V30 357 H 40.8098 0.357226 -0.649208 0
M  V30 358 H 43.4568 0.246415 -1.89908 0
M  V30 359 H 41.7618 2.66502 -2.872 0
M  V30 360 H 43.4588 2.43329 -3.18735 0
M  V30 361 H 40.0488 1.3117 -4.08035 0
M  V30 362 H 44.2328 0.77616 -4.90193 0
M  V30 363 H 39.4888 0.0491185 -6.1138 0
M  V30 364 H 43.6628 -0.479899 -6.94745 0
M  V30 365 H 41.2898 -0.849389 -7.5544 0
M  V30 366 N 42.8649 1.48995 0.513639 0
M  V30 367 C 44.0899 1.61792 1.29762 0
M  V30 368 C 44.5149 0.284475 1.85936 0
M  V30 369 O 43.8729 -0.746185 1.65232 0
M  V30 370 C 43.9209 2.67993 2.41272 0
M  V30 371 O 43.0249 2.26287 3.44772 0
M  V30 372 H 42.3659 0.541963 0.38363 0
M  V30 373 H 44.8959 1.95097 0.616307 0
M  V30 374 H 44.9059 2.89772 2.87221 0
M  V30 375 H 43.5809 3.64791 1.9975 0
M  V30 376 H 42.1579 2.14788 3.04829 0
M  V30 377 N 44.343 -0.763751 1.37857 0
M  V30 378 C 45.306 -1.85889 1.34081 0
M  V30 379 C 46.306 -1.58949 0.243277 0
M  V30 380 O 47.496 -1.66882 0.499589 0
M  V30 381 C 44.628 -3.23176 1.08489 0
M  V30 382 H 45.821 -1.90648 2.31502 0
M  V30 383 H 43.374 -0.964367 1.23003 0
M  V30 384 H 44.109 -3.24091 0.116318 0
M  V30 385 H 43.894 -3.44124 1.8794 0
M  V30 386 H 45.384 -4.03254 1.08517 0
M  V30 387 N 45.8211 -1.22559 -0.990812 0
M  V30 388 C 46.7841 -0.998863 -2.0629 0
M  V30 389 C 47.7841 0.0354834 -1.60761 0
M  V30 390 O 48.9741 -0.203231 -1.7301 0
M  V30 391 C 46.1061 -0.509203 -3.37076 0
M  V30 392 H 47.2991 -1.95014 -2.27837 0
M  V30 393 H 44.8521 -1.04456 -1.16269 0
M  V30 394 H 45.5871 0.446335 -3.21214 0
M  V30 395 H 45.3721 -1.25547 -3.71457 0
M  V30 396 H 46.8621 -0.370888 -4.1595 0
M  V30 397 N 47.2992 1.18797 -1.03562 0
M  V30 398 C 48.5452 1.89192 -0.746867 0
M  V30 399 C 48.9002 1.78531 0.717245 0
M  V30 400 O 48.1932 1.17137 1.51622 0
M  V30 401 C 48.3872 3.38692 -1.14117 0
M  V30 402 C 48.2162 3.63902 -2.64207 0
M  V30 403 C 46.9862 3.81553 -3.31279 0
M  V30 404 C 49.1842 3.64903 -3.62423 0
M  V30 405 N 47.1662 3.94455 -4.70402 0
M  V30 406 C 48.5372 3.83458 -4.87196 0
M  V30 407 C 50.5922 3.47965 -3.56125 0
M  V30 408 C 49.2952 3.86829 -6.06429 0
M  V30 409 C 51.3212 3.52616 -4.7478 0
M  V30 410 C 50.6832 3.71663 -5.9837 0
M  V30 411 H 46.7822 0.711141 -0.325273 0
M  V30 412 H 49.3662 1.42727 -1.32428 0
M  V30 413 H 47.5372 3.83864 -0.591889 0
M  V30 414 H 49.2692 3.96634 -0.803966 0
M  V30 415 H 46.0242 3.80723 -2.81686 0
M  V30 416 H 46.4482 4.0474 -5.42692 0
M  V30 417 H 51.0902 3.32189 -2.61553 0
M  V30 418 H 48.8082 4.01395 -7.01362 0
M  V30 419 H 52.3942 3.40791 -4.71543 0
M  V30 420 H 51.2742 3.75145 -6.88648 0
M  V30 421 N 48.7773 0.814389 1.34928 0
M  V30 422 C 50.0053 0.411136 2.02774 0
M  V30 423 C 50.4203 -0.980316 1.61354 0
M  V30 424 O 49.7773 -1.63299 0.814847 0
M  V30 425 C 49.8283 0.493865 3.58111 0
M  V30 426 O 49.5493 1.83047 3.98027 0
M  V30 427 C 51.0503 0.0844174 4.4322 0
M  V30 428 H 48.2703 0.166037 0.650133 0
M  V30 429 H 50.8143 1.10018 1.72384 0
M  V30 430 H 48.9693 -0.147006 3.87121 0
M  V30 431 H 49.3833 1.79872 4.92693 0
M  V30 432 H 50.8573 0.193404 5.51661 0
M  V30 433 H 51.3343 -0.97113 4.28329 0
M  V30 434 H 51.9403 0.69875 4.19521 0
M  V30 435 N 50.2554 -1.46986 0.568584 0
M  V30 436 C 51.2184 -2.28624 -0.162366 0
M  V30 437 C 52.2184 -1.37596 -0.832103 0
M  V30 438 O 53.4084 -1.60115 -0.68622 0
M  V30 439 C 50.5404 -3.17596 -1.23878 0
M  V30 440 H 51.7334 -2.94722 0.554899 0
M  V30 441 H 49.2864 -1.52863 0.325976 0
M  V30 442 H 50.0214 -2.56214 -1.98808 0
M  V30 443 H 49.8064 -3.846 -0.763219 0
M  V30 444 H 51.2964 -3.79078 -1.75185 0
M  V30 445 N 51.7335 -0.305618 -1.54608 0
M  V30 446 C 52.9795 0.302746 -2.00528 0
M  V30 447 C 53.3125 1.53184 -1.19367 0
M  V30 448 O 52.5875 1.92598 -0.271321 0
M  V30 449 C 52.8705 0.654756 -3.54097 0
M  V30 450 C 52.7235 -0.583793 -4.45995 0
M  V30 451 C 54.0425 1.47947 -4.14487 0
M  V30 452 H 51.1615 0.108564 -0.72896 0
M  V30 453 H 53.8035 -0.418634 -1.85331 0
M  V30 454 H 51.9535 1.26935 -3.67178 0
M  V30 455 H 53.6255 -1.22224 -4.44814 0
M  V30 456 H 51.8685 -1.21615 -4.16404 0
M  V30 457 H 52.5395 -0.293287 -5.5122 0
M  V30 458 H 55.0155 0.96013 -4.04871 0
M  V30 459 H 53.8915 1.69454 -5.22088 0
M  V30 460 H 54.1525 2.47011 -3.66658 0
M  V30 461 N 53.2116 1.57565 -0.0334293 0
M  V30 462 C 54.1416 2.13511 0.945265 0
M  V30 463 C 55.1226 1.05231 1.33643 0
M  V30 464 O 56.3076 1.33084 1.41429 0
M  V30 465 C 53.4376 2.6657 2.22616 0
M  V30 466 C 52.3916 3.79676 1.97561 0
M  V30 467 C 51.7176 4.1918 3.31952 0
M  V30 468 C 53.0176 5.0557 1.31135 0
M  V30 469 H 54.7116 2.95538 0.479325 0
M  V30 470 H 52.2576 1.42166 0.229115 0
M  V30 471 H 54.2106 3.04344 2.91466 0
M  V30 472 H 52.9346 1.8171 2.71384 0
M  V30 473 H 51.5936 3.42347 1.31127 0
M  V30 474 H 51.2416 3.31296 3.78487 0
M  V30 475 H 50.9416 4.95402 3.15992 0
M  V30 476 H 52.4656 4.59541 4.02063 0
M  V30 477 H 53.8796 5.40903 1.89992 0
M  V30 478 H 52.2766 5.86818 1.25559 0
M  V30 479 H 53.3466 4.84062 0.284894 0
M  V30 480 N 54.6897 -0.239769 1.55765 0
M  V30 481 C 55.6527 -1.28038 1.90103 0
M  V30 482 C 56.6527 -1.40723 0.778055 0
M  V30 483 O 57.8427 -1.39301 1.04599 0
M  V30 484 C 54.9747 -2.65702 2.13577 0
M  V30 485 H 56.1677 -0.988048 2.83157 0
M  V30 486 H 53.7207 -0.479382 1.48767 0
M  V30 487 H 54.4557 -3.00063 1.23015 0
M  V30 488 H 54.2407 -2.57875 2.95369 0
M  V30 489 H 55.7307 -3.40828 2.41301 0
M  V30 490 N 56.1678 -1.49265 -0.50573 0
M  V30 491 C 57.1308 -1.65075 -1.59006 0
M  V30 492 C 58.1308 -0.522768 -1.52065 0
M  V30 493 O 59.3208 -0.789117 -1.55302 0
M  V30 494 C 56.4528 -1.64369 -2.98656 0
M  V30 495 H 57.6458 -2.61784 -1.46319 0
M  V30 496 H 55.1988 -1.38226 -0.729616 0
M  V30 497 H 55.9338 -0.692272 -3.16825 0
M  V30 498 H 55.7188 -2.46282 -3.05103 0
M  V30 499 H 57.2088 -1.78674 -3.77446 0
M  V30 500 N 57.6459 0.756429 -1.3826 0
M  V30 501 C 58.5759 1.88374 -1.37976 0
M  V30 502 C 59.5569 1.68311 -0.246082 0
M  V30 503 O 60.7419 1.88944 -0.44874 0
M  V30 504 C 57.8719 3.25864 -1.20125 0
M  V30 505 C 56.8259 3.60523 -2.30666 0
M  V30 506 C 56.1519 4.9672 -1.97923 0
M  V30 507 C 57.4519 3.65692 -3.72916 0
M  V30 508 H 59.1459 1.88869 -2.32312 0
M  V30 509 H 56.6919 0.907272 -1.11824 0
M  V30 510 H 58.6449 4.0438 -1.18552 0
M  V30 511 H 57.3689 3.25841 -0.222498 0
M  V30 512 H 56.0279 2.84324 -2.3142 0
M  V30 513 H 55.6759 4.93253 -0.985393 0
M  V30 514 H 55.3759 5.20878 -2.71955 0
M  V30 515 H 56.8999 5.77618 -1.97964 0
M  V30 516 H 58.3139 4.34328 -3.74208 0
M  V30 517 H 56.7109 4.01358 -4.4613 0
M  V30 518 H 57.7809 2.65987 -4.05436 0
M  V30 519 N 59.124 1.23083 0.984299 0
M  V30 520 C 60.057 0.951786 2.07404 0
M  V30 521 C 61.035 -0.10848 1.62238 0
M  V30 522 O 62.219 0.0249467 1.88483 0
M  V30 523 C 59.346 0.433142 3.35919 0
M  V30 524 C 58.392 1.47941 4.0002 0
M  V30 525 S 59.225 3.05556 4.39768 0
M  V30 526 C 60.381 2.55351 5.71442 0
M  V30 527 H 60.614 1.87456 2.30754 0
M  V30 528 H 58.147 1.06284 1.11996 0
M  V30 529 H 60.105 0.140506 4.10259 0
M  V30 530 H 58.766 -0.468656 3.10584 0
M  V30 531 H 57.959 1.06658 4.92585 0
M  V30 532 H 57.561 1.7212 3.3204 0
M  V30 533 H 59.853 1.97128 6.48187 0
M  V30 534 H 60.796 3.46441 6.17563 0
M  V30 535 H 61.204 1.96339 5.29255 0
M  V30 536 N 60.6021 -1.18246 1.0419 0
M  V30 537 C 61.5651 -2.20128 0.638452 0
M  V30 538 C 62.5651 -1.57885 -0.304805 0
M  V30 539 O 63.7551 -1.73967 -0.0900369 0
M  V30 540 C 60.8871 -3.4084 -0.0637751 0
M  V30 541 H 62.0801 -2.57336 1.54007 0
M  V30 542 H 59.6331 -1.32152 0.834598 0
M  V30 543 H 60.3681 -3.09166 -0.979136 0
M  V30 544 H 60.1531 -3.8726 0.614198 0
M  V30 545 H 61.6431 -4.16274 -0.332512 0
M  V30 546 N 62.0802 -0.821533 -1.34494 0
M  V30 547 C 63.0102 -0.257138 -2.3208 0
M  V30 548 C 63.9912 0.625645 -1.58176 0
M  V30 549 O 65.1762 0.552811 -1.86166 0
M  V30 550 C 62.3062 0.582958 -3.42372 0
M  V30 551 C 61.2602 -0.202571 -4.2752 0
M  V30 552 C 60.5862 0.760179 -5.29269 0
M  V30 553 C 61.8862 -1.40998 -5.02908 0
M  V30 554 H 63.5802 -1.07247 -2.79532 0
M  V30 555 H 61.1262 -0.517163 -1.34393 0
M  V30 556 H 63.0792 0.987972 -4.09655 0
M  V30 557 H 61.8032 1.43133 -2.93565 0
M  V30 558 H 60.4622 -0.588936 -3.61838 0
M  V30 559 H 60.1102 1.60447 -4.76724 0
M  V30 560 H 59.8102 0.238809 -5.87115 0
M  V30 561 H 61.3342 1.16308 -5.9942 0
M  V30 562 H 62.7482 -1.07905 -5.63054 0
M  V30 563 H 61.1452 -1.86689 -5.70322 0
M  V30 564 H 62.2152 -2.1889 -4.32684 0
M  V30 565 N 63.5583 1.46682 -0.576371 0
M  V30 566 C 64.4883 2.33028 0.148397 0
M  V30 567 C 65.4693 1.44961 0.889956 0
M  V30 568 O 66.6543 1.73789 0.866662 0
M  V30 569 C 63.7843 3.27117 1.1667 0
M  V30 570 C 62.7383 4.24575 0.540386 0
M  V30 571 C 62.0643 5.08126 1.6647 0
M  V30 572 C 63.3643 5.19722 -0.518331 0
M  V30 573 H 65.0583 2.93875 -0.572509 0
M  V30 574 H 62.6043 1.41315 -0.276768 0
M  V30 575 H 64.5573 3.86374 1.68204 0
M  V30 576 H 63.2813 2.64364 1.9178 0
M  V30 577 H 61.9403 3.66571 0.0461769 0
M  V30 578 H 61.5883 4.41762 2.40531 0
M  V30 579 H 61.2883 5.74122 1.25131 0
M  V30 580 H 62.8123 5.70246 2.18293 0
M  V30 581 H 64.2263 5.73232 -0.0883058 0
M  V30 582 H 62.6233 5.94026 -0.851679 0
M  V30 583 H 63.6933 4.64037 -1.40703 0
M  V30 584 N 65.0364 0.313813 1.54444 0
M  V30 585 C 66.2854 -0.292519 1.99568 0
M  V30 586 C 66.5984 -1.54011 1.20582 0
M  V30 587 O 67.8044 -2.22183 1.56035 0
M  V30 588 C 66.2604 -0.571752 3.55329 0
M  V30 589 C 65.8684 0.658229 4.43138 0
M  V30 590 C 67.6124 -1.13857 4.08946 0
M  V30 591 C 65.5194 0.351439 5.90355 0
M  V30 592 H 64.4494 -0.113079 0.745472 0
M  V30 593 H 67.1004 0.424518 1.78522 0
M  V30 594 H 65.4824 -1.34872 3.72325 0
M  V30 595 H 66.6564 1.43403 4.37918 0
M  V30 596 H 64.9714 1.14458 4.0036 0
M  V30 597 H 67.5684 -1.38257 5.16516 0
M  V30 598 H 67.9114 -2.08489 3.6033 0
M  V30 599 H 68.4444 -0.423015 3.95544 0
M  V30 600 H 65.1834 1.26667 6.43145 0
M  V30 601 H 64.7034 -0.386842 5.98551 0
M  V30 602 H 66.3824 -0.0423134 6.46986 0
M  V30 603 N 66.5145 -1.57545 0.0417849 0
M  V30 604 C 67.7605 -1.92601 -0.635021 0
M  V30 605 C 68.0935 -0.919627 -1.71045 0
M  V30 606 O 67.3685 0.0557892 -1.9442 0
M  V30 607 C 67.6515 -3.38085 -1.23979 0
M  V30 608 C 67.5045 -4.49467 -0.173057 0
M  V30 609 C 68.8235 -3.83776 -2.15416 0
M  V30 610 H 65.9425 -0.700397 -0.229374 0
M  V30 611 H 68.5845 -1.89728 0.101633 0
M  V30 612 H 66.7345 -3.40664 -1.86762 0
M  V30 613 H 68.4065 -4.59018 0.458312 0
M  V30 614 H 66.6495 -4.30909 0.499996 0
M  V30 615 H 67.3205 -5.48323 -0.636054 0
M  V30 616 H 69.7965 -3.83013 -1.62605 0
M  V30 617 H 68.6725 -4.8624 -2.54679 0
M  V30 618 H 68.9335 -3.19998 -3.05047 0
M  V30 619 N 67.9926 0.231505 -1.5589 0
M  V30 620 C 68.9556 1.27028 -1.90779 0
M  V30 621 C 69.9556 1.40308 -0.785507 0
M  V30 622 O 71.1456 1.38744 -1.05336 0
M  V30 623 C 68.2776 2.64566 -2.14983 0
M  V30 624 H 69.4706 0.973017 -2.83677 0
M  V30 625 H 67.0236 0.471486 -1.49019 0
M  V30 626 H 67.7586 2.99406 -1.24604 0
M  V30 627 H 67.5436 2.56305 -2.96732 0
M  V30 628 H 69.0336 3.39543 -2.43105 0
M  V30 629 N 69.4707 1.49531 0.497807 0
M  V30 630 C 70.6987 1.62893 1.27567 0
M  V30 631 C 71.1137 0.301585 1.86376 0
M  V30 632 O 70.4707 -0.713335 1.67982 0
M  V30 633 C 70.5217 2.70013 2.40364 0
M  V30 634 O 70.2427 3.976 1.83972 0
M  V30 635 C 71.7437 2.94109 3.31685 0
M  V30 636 H 68.9637 0.548298 0.386794 0
M  V30 637 H 71.5077 1.95584 0.597245 0
M  V30 638 H 69.6627 2.40092 3.04031 0
M  V30 639 H 70.0767 4.56631 2.58047 0
M  V30 640 H 71.5507 3.72788 4.07104 0
M  V30 641 H 72.0277 2.04147 3.88871 0
M  V30 642 H 72.6337 3.2546 2.73781 0
M  V30 643 N 70.9488 -0.749086 1.3866 0
M  V30 644 C 72.1948 -1.51056 1.35314 0
M  V30 645 C 72.5278 -1.94121 -0.0553751 0
M  V30 646 O 71.8028 -1.65763 -1.01749 0
M  V30 647 C 72.0858 -2.76003 2.31288 0
M  V30 648 C 71.9388 -2.39047 3.8102 0
M  V30 649 C 73.2578 -3.78046 2.2532 0
M  V30 650 H 70.3768 -0.547972 0.492844 0
M  V30 651 H 73.0188 -0.857628 1.69543 0
M  V30 652 H 71.1688 -3.31716 2.02229 0
M  V30 653 H 72.8408 -1.89074 4.20771 0
M  V30 654 H 71.0838 -1.71449 3.98482 0
M  V30 655 H 71.7548 -3.28462 4.4364 0
M  V30 656 H 74.2308 -3.31884 2.50983 0
M  V30 657 H 73.1068 -4.63159 2.94576 0
M  V30 658 H 73.3678 -4.23957 1.25352 0
M  V30 659 N 72.4269 -1.23603 -0.977757 0
M  V30 660 C 73.3569 -1.04401 -2.0886 0
M  V30 661 C 74.3379 0.0399052 -1.70053 0
M  V30 662 O 75.5229 -0.125246 -1.93796 0
M  V30 663 C 72.6529 -0.637269 -3.41403 0
M  V30 664 C 71.6069 -1.66883 -3.94124 0
M  V30 665 C 70.9329 -1.11745 -5.22893 0
M  V30 666 C 72.2329 -3.06247 -4.23096 0
M  V30 667 H 73.9269 -1.97316 -2.25182 0
M  V30 668 H 71.4729 -0.950096 -1.08209 0
M  V30 669 H 73.4259 -0.48998 -4.18542 0
M  V30 670 H 72.1499 0.327557 -3.24953 0
M  V30 671 H 70.8089 -1.80416 -3.19133 0
M  V30 672 H 70.4569 -0.143527 -5.02795 0
M  V30 673 H 70.1569 -1.80672 -5.59134 0
M  V30 674 H 71.6809 -0.982067 -6.02651 0
M  V30 675 H 73.0949 -2.96001 -4.90975 0
M  V30 676 H 71.4919 -3.72436 -4.70544 0
M  V30 677 H 72.5619 -3.55041 -3.30263 0
M  V30 678 N 73.905 1.17692 -1.04816 0
M  V30 679 C 75.153 1.87488 -0.754497 0
M  V30 680 C 75.474 1.81205 0.720407 0
M  V30 681 O 74.744 1.23544 1.52032 0
M  V30 682 H 73.324 0.694101 -0.276102 0
M  V30 683 H 75.986 1.42793 -1.32651 0
M  V30 684 H 75.082 2.93328 -1.06606 0
M  V30 685 N 75.3831 0.828654 1.34056 0
M  V30 686 C 76.3311 0.242973 2.31327 0
M  V30 687 C 77.3251 -0.61944 1.57668 0
M  V30 688 O 78.5311 -0.51014 1.7262 0
M  V30 689 H 74.9061 0.059834 0.749616 0
M  V30 690 H 76.8771 1.07809 2.78244 0
M  V30 691 C 75.6261 -0.575733 3.429 0
M  V30 692 H 74.9491 0.0785582 3.99723 0
M  V30 693 H 76.3891 -0.951547 4.13185 0
M  V30 694 C 74.8481 -1.75044 2.87856 0
M  V30 695 O 75.3781 -2.84882 2.83205 0
M  V30 696 N 73.5841 -1.56903 2.44602 0
M  V30 697 H 73.1311 -0.675547 2.48584 0
M  V30 698 H 73.0891 -2.35652 2.08124 0
M  V30 699 N 76.8612 -1.46375 0.584142 0
M  V30 700 C 77.8242 -2.28784 -0.138108 0
M  V30 701 C 78.8242 -1.38471 -0.817462 0
M  V30 702 O 80.0142 -1.60833 -0.669199 0
M  V30 703 C 77.1462 -3.18892 -1.20503 0
M  V30 704 H 78.3392 -2.94117 0.586127 0
M  V30 705 H 75.8922 -1.52509 0.342171 0
M  V30 706 H 76.6272 -2.58309 -1.96079 0
M  V30 707 H 76.4122 -3.85388 -0.722384 0
M  V30 708 H 77.9022 -3.80914 -1.71155 0
M  V30 709 N 78.3393 -0.321999 -1.54275 0
M  V30 710 C 79.2693 0.537411 -2.27231 0
M  V30 711 C 80.2503 1.12064 -1.27968 0
M  V30 712 O 81.4353 1.14606 -1.56777 0
M  V30 713 C 78.5653 1.69919 -3.02894 0
M  V30 714 C 77.5193 1.24534 -4.09482 0
M  V30 715 C 76.8453 2.49394 -4.72977 0
M  V30 716 C 78.1453 0.361335 -5.21049 0
M  V30 717 H 79.8393 -0.0711406 -2.99315 0
M  V30 718 H 77.3853 -0.0356555 -1.43956 0
M  V30 719 H 79.3383 2.30668 -3.52662 0
M  V30 720 H 78.0623 2.33431 -2.28424 0
M  V30 721 H 76.7213 0.660782 -3.60596 0
M  V30 722 H 76.3693 3.11265 -3.95124 0
M  V30 723 H 76.0693 2.19718 -5.44975 0
M  V30 724 H 77.5933 3.10908 -5.25517 0
M  V30 725 H 79.0073 0.875072 -5.66582 0
M  V30 726 H 77.4043 0.157428 -5.99893 0
M  V30 727 H 78.4743 -0.60822 -4.8107 0
M  V30 728 N 79.8174 1.5752 -0.0501392 0
M  V30 729 C 81.0634 1.92936 0.624798 0
M  V30 730 C 81.3964 0.928685 1.70555 0
M  V30 731 O 80.6714 -0.0454779 1.94447 0
M  V30 732 C 80.9544 3.38737 1.22185 0
M  V30 733 C 80.8074 4.49552 0.149218 0
M  V30 734 C 82.1264 3.84913 2.13378 0
M  V30 735 H 79.2454 0.701604 0.225657 0
M  V30 736 H 81.8874 1.89671 -0.111693 0
M  V30 737 H 80.0374 3.4165 1.84953 0
M  V30 738 H 81.7094 4.58768 -0.482648 0
M  V30 739 H 79.9524 4.30638 -0.522841 0
M  V30 740 H 80.6234 5.48653 0.606966 0
M  V30 741 H 83.0994 3.8387 1.60572 0
M  V30 742 H 81.9754 4.87584 2.52097 0
M  V30 743 H 82.2364 3.21611 3.03346 0
M  V30 744 N 81.2955 -0.223234 1.56011 0
M  V30 745 C 82.2285 -1.30377 1.87289 0
M  V30 746 C 83.2065 -1.45286 0.730112 0
M  V30 747 O 84.3905 -1.61126 0.978302 0
M  V30 748 C 81.5175 -2.67431 2.07843 0
M  V30 749 C 80.5635 -2.69546 3.30526 0
M  V30 750 S 81.3965 -2.23781 4.865 0
M  V30 751 C 82.5525 -3.62714 5.10088 0
M  V30 752 H 82.7855 -1.03652 2.78646 0
M  V30 753 H 80.3185 -0.425393 1.48424 0
M  V30 754 H 82.2765 -3.46336 2.20368 0
M  V30 755 H 80.9375 -2.91381 1.17285 0
M  V30 756 H 80.1305 -3.70255 3.41947 0
M  V30 757 H 79.7325 -1.98703 3.16849 0
M  V30 758 H 82.0245 -4.58391 4.98883 0
M  V30 759 H 82.9675 -3.5621 6.11981 0
M  V30 760 H 83.3755 -3.56323 4.37829 0
M  V30 761 N 82.7736 -1.49793 -0.48987 0
M  V30 762 C 83.7036 -1.70201 -1.59856 0
M  V30 763 C 84.6846 -0.55076 -1.60937 0
M  V30 764 O 85.8696 -0.787841 -1.77501 0
M  V30 765 C 82.9996 -1.77882 -2.98287 0
M  V30 766 C 81.9536 -2.92907 -3.12073 0
M  V30 767 C 81.2796 -2.85712 -4.51965 0
M  V30 768 C 82.5796 -4.3369 -2.91051 0
M  V30 769 H 84.2736 -2.63025 -1.43032 0
M  V30 770 H 81.8196 -1.26574 -0.686664 0
M  V30 771 H 83.7726 -1.90744 -3.75759 0
M  V30 772 H 82.4966 -0.816653 -3.16225 0
M  V30 773 H 81.1556 -2.79665 -2.37029 0
M  V30 774 H 80.8036 -1.8738 -4.66795 0
M  V30 775 H 80.5036 -3.62921 -4.62128 0
M  V30 776 H 82.0276 -3.00598 -5.31482 0
M  V30 777 H 83.4416 -4.47555 -3.58284 0
M  V30 778 H 81.8386 -5.12205 -3.12675 0
M  V30 779 H 82.9086 -4.47362 -1.87071 0
M  V30 780 N 84.2517 0.741722 -1.39055 0
M  V30 781 C 85.2147 1.83733 -1.37021 0
M  V30 782 C 86.2147 1.58542 -0.268534 0
M  V30 783 O 87.4047 1.66067 -0.526076 0
M  V30 784 C 84.5367 3.2141 -1.13617 0
M  V30 785 H 85.7297 1.86941 -2.34506 0
M  V30 786 H 83.2827 0.944676 -1.24521 0
M  V30 787 H 84.0177 3.23865 -0.167863 0
M  V30 788 H 83.8027 3.4109 -1.93391 0
M  V30 789 H 85.2927 4.01477 -1.14918 0
M  V30 790 N 85.7298 1.2412 0.971189 0
M  V30 791 C 86.9768 1.07881 1.71371 0
M  V30 792 C 87.3048 -0.382901 1.90694 0
M  V30 793 O 86.5598 -1.29945 1.46331 0
M  V30 794 C 86.8588 1.75983 3.11071 0
M  V30 795 C 86.5248 3.25909 3.11599 0
M  V30 796 C 85.1868 3.66813 3.11451 0
M  V30 797 C 87.5388 4.21771 3.062 0
M  V30 798 C 84.8668 5.02021 3.03631 0
M  V30 799 C 87.2188 5.56982 2.99923 0
M  V30 800 C 85.8828 5.97237 2.98102 0
M  V30 801 H 85.1528 0.394764 0.62709 0
M  V30 802 H 87.7998 1.54176 1.13587 0
M  V30 803 H 86.1048 1.22072 3.72298 0
M  V30 804 H 87.8018 1.60887 3.6731 0
M  V30 805 H 84.3918 2.93353 3.12477 0
M  V30 806 H 88.5758 3.91172 3.05447 0
M  V30 807 H 83.8318 5.32411 3.0058 0
M  V30 808 H 88.0058 6.30969 2.94704 0
M  V30 809 H 85.6328 7.01967 2.91798 0
M  V30 810 N 87.2079 -1.17134 1.05439 0
M  V30 811 C 88.4539 -1.87733 0.767077 0
M  V30 812 C 88.7869 -1.8098 -0.704253 0
M  V30 813 O 88.0619 -1.21951 -1.5152 0
M  V30 814 C 88.3449 -3.37659 1.25133 0
M  V30 815 C 88.1979 -3.53149 2.78578 0
M  V30 816 C 89.5169 -4.31768 0.852324 0
M  V30 817 H 86.6359 -0.681687 0.280129 0
M  V30 818 H 89.2779 -1.37732 1.30881 0
M  V30 819 H 87.4279 -3.80373 0.790469 0
M  V30 820 H 89.0999 -3.19434 3.32806 0
M  V30 821 H 87.3429 -2.95345 3.17732 0
M  V30 822 H 88.0139 -4.58403 3.07523 0
M  V30 823 H 90.4899 -3.96909 1.24911 0
M  V30 824 H 89.3659 -5.35199 1.21873 0
M  V30 825 H 89.6269 -4.41429 -0.243485 0
M  V30 826 N 88.686 -0.835752 -1.33615 0
M  V30 827 C 89.649 -0.272 -2.2758 0
M  V30 828 C 90.649 0.557487 -1.50827 0
M  V30 829 O 91.839 0.37173 -1.70188 0
M  V30 830 C 88.971 0.617173 -3.35267 0
M  V30 831 H 90.164 -1.10111 -2.78954 0
M  V30 832 H 87.717 -0.608594 -1.43965 0
M  V30 833 H 88.452 1.46884 -2.89129 0
M  V30 834 H 88.237 0.0237066 -3.92093 0
M  V30 835 H 89.727 1.005 -4.05326 0
M  V30 836 N 90.1641 1.46063 -0.591896 0
M  V30 837 C 91.4411 1.95595 -0.0137119 0
M  V30 838 C 91.8211 1.5345 1.4497 0
M  V30 839 O 91.1691 0.789543 2.14426 0
M  V30 840 C 91.3791 3.48453 -0.195373 0
M  V30 841 C 92.7271 4.24546 -0.0679765 0
M  V30 842 O 93.7511 3.55982 -0.124681 0
M  V30 843 O 92.6101 5.46467 0.0600579 0
M  V30 844 H 89.7041 0.825795 0.0446279 0
M  V30 845 H 92.2501 1.56303 -0.660859 0
M  V30 846 H 91.0221 3.72045 -1.21235 0
M  V30 847 H 90.6451 3.94597 0.487775 0
M  V30 848 N 91.6422 0.330177 1.54103 0
M  V30 849 C 92.8672 -0.274893 2.0557 0
M  V30 850 C 93.2922 -1.44487 1.20437 0
M  V30 851 O 92.6502 -1.80021 0.214991 0
M  V30 852 C 92.6982 -0.68079 3.54115 0
M  V30 853 O 91.8022 -1.7824 3.71893 0
M  V30 854 H 91.1432 -0.0483849 0.662235 0
M  V30 855 H 93.6732 0.480508 1.98878 0
M  V30 856 H 93.6832 -0.961635 3.96505 0
M  V30 857 H 92.3582 0.174903 4.15532 0
M  V30 858 H 90.9352 -1.49985 3.41407 0
M  V30 859 N 93.1203 -1.57491 0.0584922 0
M  V30 860 C 94.3453 -1.97711 -0.62652 0
M  V30 861 C 94.7703 -0.936132 -1.63151 0
M  V30 862 O 94.1283 0.099811 -1.81025 0
M  V30 863 C 94.1763 -3.36989 -1.28338 0
M  V30 864 O 93.2803 -3.35433 -2.39913 0
M  V30 865 H 92.6213 -0.643868 -0.162266 0
M  V30 866 H 95.1513 -2.04193 0.129064 0
M  V30 867 H 95.1613 -3.73879 -1.63335 0
M  V30 868 H 93.8363 -4.12289 -0.546889 0
M  V30 869 H 92.4133 -3.10298 -2.06809 0
M  V30 870 N 94.5984 0.214957 -1.56127 0
M  V30 871 C 95.5284 1.2695 -1.95974 0
M  V30 872 C 96.5094 1.48539 -0.828868 0
M  V30 873 O 97.6944 1.60611 -1.09168 0
M  V30 874 C 94.8244 2.61794 -2.28214 0
M  V30 875 C 93.7784 2.54851 -3.43853 0
M  V30 876 C 93.1044 3.93785 -3.61715 0
M  V30 877 C 94.4044 2.09065 -4.78632 0
M  V30 878 H 96.0984 0.93846 -2.84312 0
M  V30 879 H 93.6444 0.449996 -1.36788 0
M  V30 880 H 95.5974 3.35731 -2.54682 0
M  V30 881 H 94.3214 2.96599 -1.36736 0
M  V30 882 H 92.9804 1.8337 -3.17444 0
M  V30 883 H 92.6284 4.25908 -2.67602 0
M  V30 884 H 92.3284 3.90019 -4.39498 0
M  V30 885 H 93.8524 4.69374 -3.90539 0
M  V30 886 H 95.2664 2.7275 -5.04262 0
M  V30 887 H 93.6634 2.16346 -5.59745 0
M  V30 888 H 94.7334 1.04315 -4.73547 0
M  V30 889 N 96.0765 1.50051 0.48192 0
M  V30 890 C 97.4925 1.37237 0.814756 0
M  V30 891 C 97.6925 0.420109 1.97072 0
M  V30 892 O 96.7485 -0.141246 2.52105 0
M  V30 893 C 98.0615 2.78375 1.13701 0
M  V30 894 C 99.6095 2.87213 1.2441 0
M  V30 895 C 100.084 4.29161 1.59954 0
M  V30 896 N 101.575 4.32061 1.66967 0
M  V30 897 C 102.31 5.38879 1.95952 0
M  V30 898 N 101.806 6.55918 2.23031 0
M  V30 899 N 103.599 5.26312 1.97363 0
M  V30 900 H 95.7505 2.10546 -0.28005 0
M  V30 901 H 98.0135 0.945921 -0.0627454 0
M  V30 902 H 97.7195 3.49845 0.360787 0
M  V30 903 H 97.5935 3.14941 2.07586 0
M  V30 904 H 99.9805 2.15969 2.01101 0
M  V30 905 H 100.061 2.54204 0.285299 0
M  V30 906 H 99.7055 5.00938 0.838067 0
M  V30 907 H 99.6355 4.59648 2.56966 0
M  V30 908 H 102.126 3.47661 1.48123 0
M  V30 909 H 102.439 7.33139 2.44391 0
M  V30 910 H 100.784 6.59112 2.20447 0
M  V30 911 H 103.975 4.33876 1.75697 0
M  V30 912 H 104.148 6.09649 2.19618 0
M  V30 913 N 97.5546 -0.734337 1.39446 0
M  V30 914 C 98.7826 -1.52358 1.39981 0
M  V30 915 C 99.1976 -1.88799 -0.0054975 0
M  V30 916 O 98.5546 -1.54146 -0.976998 0
M  V30 917 C 98.6056 -2.81072 2.27333 0
M  V30 918 O 98.3266 -2.46178 3.62392 0
M  V30 919 C 99.8276 -3.75096 2.36259 0
M  V30 920 H 97.0476 -0.470806 0.478103 0
M  V30 921 H 99.5916 -0.907339 1.83269 0
M  V30 922 H 97.7466 -3.39026 1.87457 0
M  V30 923 H 98.1606 -3.28866 4.08592 0
M  V30 924 H 99.6346 -4.62305 3.01626 0
M  V30 925 H 100.112 -4.16892 1.38194 0
M  V30 926 H 100.718 -3.23061 2.76608 0
M  V30 927 N 99.0327 -1.24633 -0.964593 0
M  V30 928 C 99.9647 -0.999302 -2.06268 0
M  V30 929 C 100.978 0.0323226 -1.62768 0
M  V30 930 O 102.167 -0.205079 -1.77318 0
M  V30 931 C 99.2667 -0.486816 -3.35385 0
M  V30 932 C 98.4397 -1.5823 -4.07777 0
M  V30 933 C 97.4987 -1.07191 -5.15166 0
M  V30 934 O 96.5247 -1.76426 -5.41168 0
M  V30 935 N 97.7267 0.0920373 -5.80427 0
M  V30 936 H 100.492 -1.94477 -2.28033 0
M  V30 937 H 98.0527 -1.15704 -1.13244 0
M  V30 938 H 100.045 -0.130066 -4.04491 0
M  V30 939 H 98.6147 0.364459 -3.10468 0
M  V30 940 H 97.8347 -2.11109 -3.32906 0
M  V30 941 H 99.1227 -2.31854 -4.52903 0
M  V30 942 H 98.5207 0.670784 -5.61709 0
M  V30 943 H 97.0777 0.389905 -6.50633 0
M  V30 944 N 100.511 1.16574 -1.06058 0
M  V30 945 C 101.459 2.22941 -0.663343 0
M  V30 946 C 102.453 1.66358 0.319593 0
M  V30 947 O 103.659 1.7905 0.184713 0
M  V30 948 H 100.034 0.725907 -0.196376 0
M  V30 949 H 102.005 2.53736 -1.57037 0
M  V30 950 C 100.754 3.47642 -0.0632808 0
M  V30 951 H 100.077 3.91493 -0.810733 0
M  V30 952 H 101.517 4.2363 0.177177 0
M  V30 953 C 99.9758 3.1509 1.19248 0
M  V30 954 O 100.506 3.30673 2.28075 0
M  V30 955 N 98.7118 2.6924 1.09353 0
M  V30 956 H 98.2588 2.5676 0.207912 0
M  V30 957 H 98.2168 2.47833 1.93458 0
M  V30 958 N 101.989 0.842826 1.3317 0
M  V30 959 C 102.937 0.267495 2.31057 0
M  V30 960 C 103.931 -0.602682 1.58316 0
M  V30 961 O 105.137 -0.491803 1.73151 0
M  V30 962 H 101.512 0.0677813 0.748939 0
M  V30 963 H 103.483 1.10754 2.77085 0
M  V30 964 C 102.232 -0.539331 3.43492 0
M  V30 965 H 101.555 0.12095 3.99617 0
M  V30 966 H 102.995 -0.90767 4.14171 0
M  V30 967 C 101.454 -1.71981 2.89697 0
M  V30 968 O 101.984 -2.81862 2.86211 0
M  V30 969 N 100.19 -1.54299 2.46252 0
M  V30 970 H 99.7369 -0.649143 2.49287 0
M  V30 971 H 99.6949 -2.33431 2.10612 0
M  V30 972 N 103.467 -1.45747 0.599634 0
M  V30 973 C 104.714 -2.02292 0.0917284 0
M  V30 974 C 105.042 -1.46906 -1.27472 0
M  V30 975 O 104.297 -0.630652 -1.8526 0
M  V30 976 C 104.596 -3.57399 -0.00602758 0
M  V30 977 C 104.262 -4.31902 1.29503 0
M  V30 978 C 102.924 -4.51974 1.65144 0
M  V30 979 C 105.276 -4.74551 2.15525 0
M  V30 980 C 102.604 -5.11949 2.86574 0
M  V30 981 C 104.956 -5.35868 3.36196 0
M  V30 982 C 103.62 -5.54165 3.72099 0
M  V30 983 H 102.89 -0.740239 0.0335658 0
M  V30 984 H 105.537 -1.7491 0.779661 0
M  V30 985 H 103.842 -3.84014 -0.777183 0
M  V30 986 H 105.539 -3.98846 -0.415038 0
M  V30 987 H 102.129 -4.16588 1.00761 0
M  V30 988 H 106.313 -4.58784 1.8929 0
M  V30 989 H 101.569 -5.24305 3.14507 0
M  V30 990 H 105.743 -5.6787 4.03109 0
M  V30 991 H 103.37 -6.00406 4.6628 0
M  V30 992 N 104.945 -0.338344 -1.53925 0
M  V30 993 C 106.192 0.259758 -2.00827 0
M  V30 994 C 106.52 1.50973 -1.22628 0
M  V30 995 O 105.775 1.93379 -0.300509 0
M  V30 996 C 106.074 0.62448 -3.51902 0
M  V30 997 C 105.74 -0.528006 -4.47798 0
M  V30 998 C 104.402 -0.844298 -4.73735 0
M  V30 999 C 106.754 -1.30143 -5.0469 0
M  V30 1000 C 104.082 -1.93648 -5.53821 0
M  V30 1001 C 106.434 -2.38382 -5.85967 0
M  V30 1002 C 105.098 -2.70576 -6.10201 0
M  V30 1003 H 104.368 0.0950523 -0.734878 0
M  V30 1004 H 107.015 -0.465182 -1.85764 0
M  V30 1005 H 105.32 1.43006 -3.64769 0
M  V30 1006 H 107.017 1.09905 -3.85645 0
M  V30 1007 H 103.607 -0.271421 -4.2774 0
M  V30 1008 H 107.791 -1.07033 -4.84621 0
M  V30 1009 H 103.047 -2.19021 -5.70824 0
M  V30 1010 H 107.221 -2.98746 -6.29066 0
M  V30 1011 H 104.848 -3.55333 -6.72044 0
M  V30 1012 N 106.423 1.57458 -0.0668435 0
M  V30 1013 C 107.353 2.15468 0.899764 0
M  V30 1014 C 108.334 1.08042 1.31381 0
M  V30 1015 O 109.519 1.36054 1.38574 0
M  V30 1016 C 106.649 2.71232 2.16911 0
M  V30 1017 C 105.603 3.83781 1.89463 0
M  V30 1018 C 104.929 4.26127 3.22986 0
M  V30 1019 C 106.229 5.08238 1.20381 0
M  V30 1020 H 107.923 2.96488 0.416529 0
M  V30 1021 H 105.469 1.4262 0.198908 0
M  V30 1022 H 107.422 3.10458 2.84945 0
M  V30 1023 H 106.146 1.87426 2.67468 0
M  V30 1024 H 104.805 3.45051 1.23836 0
M  V30 1025 H 104.453 3.39249 3.71374 0
M  V30 1026 H 104.153 5.01993 3.05413 0
M  V30 1027 H 105.677 4.67966 3.92225 0
M  V30 1028 H 107.091 5.44811 1.78475 0
M  V30 1029 H 105.488 5.89349 1.13083 0
M  V30 1030 H 106.558 4.84558 0.182153 0
M  V30 1031 N 107.901 -0.206675 1.56239 0
M  V30 1032 C 108.831 -1.25909 1.96645 0
M  V30 1033 C 109.812 -1.48097 0.836734 0
M  V30 1034 O 110.997 -1.6003 1.10019 0
M  V30 1035 C 108.127 -2.6058 2.29599 0
M  V30 1036 C 107.081 -2.53024 3.452 0
M  V30 1037 C 106.407 -3.91861 3.63798 0
M  V30 1038 C 107.707 -2.06524 4.79734 0
M  V30 1039 H 109.401 -0.923369 2.84806 0
M  V30 1040 H 106.947 -0.442735 1.37025 0
M  V30 1041 H 108.9 -3.34375 2.56459 0
M  V30 1042 H 107.624 -2.95869 1.38307 0
M  V30 1043 H 106.283 -1.81684 3.18412 0
M  V30 1044 H 105.931 -4.24483 2.69857 0
M  V30 1045 H 105.631 -3.87683 4.4156 0
M  V30 1046 H 107.155 -4.67296 3.93022 0
M  V30 1047 H 108.569 -2.70072 5.05702 0
M  V30 1048 H 106.966 -2.13374 5.60885 0
M  V30 1049 H 108.036 -1.01802 4.74093 0
M  V30 1050 N 109.379 -1.50304 -0.473955 0
M  V30 1051 C 110.327 -1.69482 -1.59307 0
M  V30 1052 C 111.321 -0.560669 -1.59853 0
M  V30 1053 O 112.527 -0.741087 -1.64036 0
M  V30 1054 H 108.902 -0.534892 -0.528578 0
M  V30 1055 H 110.873 -2.63364 -1.40293 0
M  V30 1056 C 109.622 -1.80354 -2.97267 0
M  V30 1057 H 108.945 -2.67012 -2.97564 0
M  V30 1058 H 110.385 -1.97798 -3.75036 0
M  V30 1059 C 108.844 -0.55448 -3.32306 0
M  V30 1060 O 109.374 0.307661 -4.0052 0
M  V30 1061 N 107.58 -0.409354 -2.87702 0
M  V30 1062 H 107.127 -1.11196 -2.32364 0
M  V30 1063 H 107.085 0.425223 -3.11511 0
M  V30 1064 N 110.857 0.726932 -1.39834 0
M  V30 1065 C 111.787 1.85405 -1.41941 0
M  V30 1066 C 112.768 1.67751 -0.281728 0
M  V30 1067 O 113.953 1.8795 -0.488717 0
M  V30 1068 C 111.083 3.23243 -1.2701 0
M  V30 1069 C 110.037 3.55549 -2.38262 0
M  V30 1070 C 109.363 4.9241 -2.08415 0
M  V30 1071 C 110.663 3.577 -3.80589 0
M  V30 1072 H 112.357 1.83899 -2.36266 0
M  V30 1073 H 109.903 0.883349 -1.13723 0
M  V30 1074 H 111.856 4.01775 -1.27103 0
M  V30 1075 H 110.58 3.25296 -0.291564 0
M  V30 1076 H 109.239 2.79351 -2.37399 0
M  V30 1077 H 108.887 4.91052 -1.0898 0
M  V30 1078 H 108.587 5.14992 -2.82943 0
M  V30 1079 H 110.111 5.73289 -2.10171 0
M  V30 1080 H 111.525 4.26293 -3.83337 0
M  V30 1081 H 109.922 3.91804 -4.54543 0
M  V30 1082 H 110.992 2.57328 -4.10987 0
M  V30 1083 N 112.336 1.25143 0.95797 0
M  V30 1084 C 113.299 1.05321 2.03569 0
M  V30 1085 C 114.299 0.007152 1.60798 0
M  V30 1086 O 115.489 0.24903 1.72411 0
M  V30 1087 C 112.621 0.598394 3.35607 0
M  V30 1088 H 113.814 2.00986 2.22586 0
M  V30 1089 H 111.367 1.07502 1.13459 0
M  V30 1090 H 112.102 -0.361014 3.22284 0
M  V30 1091 H 111.887 1.35351 3.67998 0
M  V30 1092 H 113.377 0.48104 4.1482 0
M  V30 1093 N 113.814 -1.1601 1.06675 0
M  V30 1094 C 115.063 -1.85973 0.780818 0
M  V30 1095 C 115.376 -1.82819 -0.695444 0
M  V30 1096 O 116.582 -2.484 -1.09589 0
M  V30 1097 C 115.038 -3.33757 1.34665 0
M  V30 1098 C 114.646 -3.45374 2.85343 0
M  V30 1099 C 116.39 -4.0895 1.13843 0
M  V30 1100 C 114.297 -4.87266 3.35151 0
M  V30 1101 H 113.227 -0.696661 0.288407 0
M  V30 1102 H 115.878 -1.30903 1.28595 0
M  V30 1103 H 114.26 -3.88456 0.769274 0
M  V30 1104 H 115.434 -3.00816 3.49065 0
M  V30 1105 H 113.749 -2.83619 3.04876 0
M  V30 1106 H 116.346 -5.13654 1.4854 0
M  V30 1107 H 116.689 -4.16229 0.0770282 0
M  V30 1108 H 117.222 -3.605 1.68179 0
M  V30 1109 H 113.961 -4.85168 4.40786 0
M  V30 1110 H 113.481 -5.32433 2.76179 0
M  V30 1111 H 115.16 -5.56097 3.30704 0
M  V30 1112 N 115.292 -0.849877 -1.32721 0
M  V30 1113 C 116.517 -0.463856 -2.02146 0
M  V30 1114 C 116.942 0.930449 -1.63476 0
M  V30 1115 O 116.3 1.61033 -0.832952 0
M  V30 1116 C 116.348 -0.604955 -3.55489 0
M  V30 1117 O 115.452 0.36425 -4.10788 0
M  V30 1118 H 114.793 -0.187046 -0.637111 0
M  V30 1119 H 117.323 -1.14775 -1.69375 0
M  V30 1120 H 117.333 -0.490696 -4.05038 0
M  V30 1121 H 116.008 -1.62174 -3.82978 0
M  V30 1122 H 114.585 0.206628 -3.72327 0
M  V30 1123 N 116.77 1.45427 -0.607355 0
M  V30 1124 C 118.047 1.9557 -0.0344566 0
M  V30 1125 C 118.427 1.54979 1.43334 0
M  V30 1126 O 117.775 0.812241 2.13576 0
M  V30 1127 C 117.985 3.48226 -0.232321 0
M  V30 1128 C 119.333 4.2445 -0.113001 0
M  V30 1129 O 120.357 3.55829 -0.162431 0
M  V30 1130 O 119.216 5.465 0.00209442 0
M  V30 1131 H 116.31 0.826222 0.0358667 0
M  V30 1132 H 118.856 1.55594 -0.6774 0
M  V30 1133 H 117.628 3.70739 -1.25174 0
M  V30 1134 H 117.251 3.95092 0.445896 0
M  V30 1135 N 118.248 0.346503 1.53744 0
M  V30 1136 C 119.495 -0.249104 2.00962 0
M  V30 1137 C 119.823 -1.5032 1.23426 0
M  V30 1138 O 119.078 -1.93217 0.310761 0
M  V30 1139 C 119.377 -0.605809 3.52228 0
M  V30 1140 C 119.043 0.551747 4.47512 0
M  V30 1141 C 117.705 0.86941 4.73281 0
M  V30 1142 C 120.057 1.32818 5.03993 0
M  V30 1143 C 117.385 1.96582 5.52786 0
M  V30 1144 C 119.737 2.41486 5.84694 0
M  V30 1145 C 118.401 2.73808 6.08757 0
M  V30 1146 H 117.671 -0.0911538 0.735372 0
M  V30 1147 H 120.318 0.475027 1.85515 0
M  V30 1148 H 118.623 -1.4107 3.65522 0
M  V30 1149 H 120.32 -1.07858 3.86222 0
M  V30 1150 H 116.91 0.294102 4.2759 0
M  V30 1151 H 121.094 1.09602 4.84047 0
M  V30 1152 H 116.35 2.22045 5.69654 0
M  V30 1153 H 120.524 3.02078 6.27473 0
M  V30 1154 H 118.151 3.58892 6.7015 0
M  V30 1155 N 119.726 -1.57421 0.075193 0
M  V30 1156 C 120.656 -2.15942 -0.888324 0
M  V30 1157 C 121.637 -1.08737 -1.30806 0
M  V30 1158 O 122.822 -1.36787 -1.37851 0
M  V30 1159 C 119.952 -2.72379 -2.1547 0
M  V30 1160 C 118.906 -3.8478 -1.87425 0
M  V30 1161 C 118.232 -4.27834 -3.20721 0
M  V30 1162 C 119.532 -5.08869 -1.17684 0
M  V30 1163 H 121.226 -2.96705 -0.400799 0
M  V30 1164 H 118.772 -1.42723 -0.191342 0
M  V30 1165 H 120.725 -3.11965 -2.83295 0
M  V30 1166 H 119.449 -1.88841 -2.6647 0
M  V30 1167 H 118.108 -3.45703 -1.22004 0
M  V30 1168 H 117.756 -3.41214 -3.6957 0
M  V30 1169 H 117.456 -5.03605 -3.02746 0
M  V30 1170 H 118.98 -4.70039 -3.89738 0
M  V30 1171 H 120.394 -5.4575 -1.75584 0
M  V30 1172 H 118.791 -5.8994 -1.09956 0
M  V30 1173 H 119.861 -4.84648 -0.156453 0
M  V30 1174 N 121.204 0.198386 -1.56346 0
M  V30 1175 C 122.45 0.920648 -1.80698 0
M  V30 1176 C 122.783 1.83045 -0.648697 0
M  V30 1177 O 122.058 1.91308 0.350925 0
M  V30 1178 C 122.341 1.73971 -3.15287 0
M  V30 1179 C 122.194 0.85485 -4.41602 0
M  V30 1180 C 123.513 2.71296 -3.46535 0
M  V30 1181 H 120.632 0.333261 -0.657348 0
M  V30 1182 H 123.274 0.188198 -1.89066 0
M  V30 1183 H 121.424 2.36416 -3.08285 0
M  V30 1184 H 123.096 0.245362 -4.60647 0
M  V30 1185 H 121.339 0.161398 -4.335 0
M  V30 1186 H 122.01 1.46286 -5.32264 0
M  V30 1187 H 124.486 2.18983 -3.53816 0
M  V30 1188 H 123.362 3.2569 -4.41834 0
M  V30 1189 H 123.623 3.5018 -2.69864 0
M  V30 1190 N 122.682 1.50554 0.465978 0
M  V30 1191 C 123.93 1.61479 1.21528 0
M  V30 1192 C 124.251 0.319596 1.92363 0
M  V30 1193 O 123.521 -0.663194 1.84333 0
M  V30 1194 H 122.101 0.595055 0.451573 0
M  V30 1195 H 124.763 1.87355 0.53704 0
M  V30 1196 H 123.859 2.42846 1.96042 0
M  V30 1197 N 124.16 -0.719506 1.40217 0
M  V30 1198 C 125.123 -1.8153 1.39927 0
M  V30 1199 C 126.123 -1.58095 0.293723 0
M  V30 1200 O 127.313 -1.65209 0.552429 0
M  V30 1201 C 124.445 -3.19561 1.18716 0
M  V30 1202 H 125.638 -1.83186 2.37451 0
M  V30 1203 H 123.191 -0.924746 1.26008 0
M  V30 1204 H 123.926 -3.23557 0.219366 0
M  V30 1205 H 123.711 -3.3797 1.98793 0
M  V30 1206 H 125.201 -3.99598 1.21291 0
M  V30 1207 N 125.638 -1.25649 -0.95132 0
M  V30 1208 C 126.885 -1.10594 -1.69633 0
M  V30 1209 C 127.213 0.352515 -1.91279 0
M  V30 1210 O 126.468 1.27601 -1.4838 0
M  V30 1211 C 126.767 -1.80909 -3.08231 0
M  V30 1212 C 126.433 -3.30825 -3.06375 0
M  V30 1213 C 125.095 -3.71722 -3.05576 0
M  V30 1214 C 127.447 -4.26589 -2.99452 0
M  V30 1215 C 124.775 -5.06788 -2.95606 0
M  V30 1216 C 127.127 -5.61683 -2.91024 0
M  V30 1217 C 125.791 -6.01904 -2.88562 0
M  V30 1218 H 125.061 -0.404691 -0.620731 0
M  V30 1219 H 127.708 -1.55964 -1.11119 0
M  V30 1220 H 126.013 -1.27979 -3.70309 0
M  V30 1221 H 127.71 -1.6671 -3.64704 0
M  V30 1222 H 124.3 -2.98287 -3.07771 0
M  V30 1223 H 128.484 -3.95982 -2.99185 0
M  V30 1224 H 123.74 -5.37126 -2.92071 0
M  V30 1225 H 127.914 -6.35578 -2.84629 0
M  V30 1226 H 125.541 -7.06521 -2.80593 0
M  V30 1227 N 127.117 1.15442 -1.07289 0
M  V30 1228 C 128.357 1.8788 -0.805012 0
M  V30 1229 C 128.721 1.80413 0.656907 0
M  V30 1230 O 129.922 2.47874 1.0398 0
M  V30 1231 C 128.193 3.3298 -1.29843 0
M  V30 1232 S 129.752 4.23158 -1.16114 0
M  V30 1233 H 126.57 0.64839 -0.291739 0
M  V30 1234 H 129.172 1.39285 -1.37186 0
M  V30 1235 H 127.876 3.35958 -2.35712 0
M  V30 1236 H 127.407 3.86629 -0.726767 0
M  V30 1237 H 129.422 4.96103 -0.0982778 0
M  V30 1238 N 128.595 0.856903 1.32268 0
M  V30 1239 C 129.844 0.457599 1.96441 0
M  V30 1240 C 130.157 -0.992426 1.68553 0
M  V30 1241 O 131.363 -1.49727 2.26482 0
M  V30 1242 C 129.819 0.767358 3.51624 0
M  V30 1243 C 129.427 2.23326 3.88367 0
M  V30 1244 C 131.171 0.435887 4.22256 0
M  V30 1245 C 129.078 2.48613 5.36606 0
M  V30 1246 H 128.008 0.167387 0.735185 0
M  V30 1247 H 130.659 1.048 1.5063 0
M  V30 1248 H 129.041 0.106367 3.95857 0
M  V30 1249 H 130.215 2.93623 3.55137 0
M  V30 1250 H 128.53 2.52948 3.30766 0
M  V30 1251 H 131.127 0.602202 5.31298 0
M  V30 1252 H 131.47 -0.622672 4.11617 0
M  V30 1253 H 132.003 1.05286 3.83614 0
M  V30 1254 H 128.742 3.53101 5.52268 0
M  V30 1255 H 128.262 1.82896 5.71235 0
M  V30 1256 H 129.941 2.32676 6.03714 0
M  V30 1257 N 130.073 -1.45103 0.615059 0
M  V30 1258 C 131.484 -1.85654 0.197383 0
M  V30 1259 C 131.835 -1.51433 -1.24749 0
M  V30 1260 O 130.96 -0.944608 -1.94695 0
M  V30 1261 C 131.555 -3.36972 0.351448 0
M  V30 1262 C 130.114 -3.76398 -0.011593 0
M  V30 1263 C 129.261 -2.69024 0.672394 0
M  V30 1264 H 132.212 -1.35797 0.821263 0
M  V30 1265 H 132.233 -3.78239 -0.414227 0
M  V30 1266 H 131.745 -3.61847 1.40314 0
M  V30 1267 H 129.846 -3.5714 -1.06217 0
M  V30 1268 H 129.959 -4.77532 0.387265 0
M  V30 1269 H 128.323 -2.54465 0.109284 0
M  V30 1270 H 129.106 -2.96735 1.72636 0
M  V30 1271 N 131.551 -0.354651 -1.53558 0
M  V30 1272 C 132.481 0.489091 -2.2832 0
M  V30 1273 C 133.462 1.09324 -1.30316 0
M  V30 1274 O 134.647 1.11255 -1.59173 0
M  V30 1275 C 131.777 1.63456 -3.0643 0
M  V30 1276 C 130.731 1.1582 -4.12031 0
M  V30 1277 C 130.057 2.39305 -4.7816 0
M  V30 1278 C 131.357 0.250731 -5.21698 0
M  V30 1279 H 133.051 -0.134614 -2.99097 0
M  V30 1280 H 130.597 -0.0661826 -1.43848 0
M  V30 1281 H 132.55 2.23136 -3.57475 0
M  V30 1282 H 131.274 2.28533 -2.33325 0
M  V30 1283 H 129.933 0.584146 -3.61916 0
M  V30 1284 H 129.581 3.02814 -4.01637 0
M  V30 1285 H 129.281 2.08109 -5.49513 0
M  V30 1286 H 130.805 2.99691 -5.31994 0
M  V30 1287 H 132.219 0.754695 -5.68311 0
M  V30 1288 H 130.616 0.0301468 -6.00092 0
M  V30 1289 H 131.686 -0.710125 -4.79672 0
M  V30 1290 N 133.029 1.57378 -0.0835403 0
M  V30 1291 C 134.259 1.97975 0.590713 0
M  V30 1292 C 134.667 0.961083 1.62972 0
M  V30 1293 O 134.01 -0.0590879 1.83605 0
M  V30 1294 C 134.072 3.34915 1.3066 0
M  V30 1295 C 133.736 4.55069 0.419698 0
M  V30 1296 C 134.733 5.18868 -0.32749 0
M  V30 1297 C 132.418 5.0114 0.341137 0
M  V30 1298 C 134.412 6.27098 -1.14134 0
M  V30 1299 C 132.099 6.0924 -0.476374 0
M  V30 1300 C 133.097 6.72083 -1.21627 0
M  V30 1301 O 132.785 7.781 -2.02028 0
M  V30 1302 H 132.517 0.655818 0.163947 0
M  V30 1303 H 135.071 2.04807 -0.156021 0
M  V30 1304 H 133.301 3.24733 2.09966 0
M  V30 1305 H 134.99 3.60037 1.87424 0
M  V30 1306 H 135.756 4.84211 -0.276459 0
M  V30 1307 H 131.635 4.51996 0.90668 0
M  V30 1308 H 135.179 6.7608 -1.71935 0
M  V30 1309 H 131.076 6.43329 -0.528927 0
M  V30 1310 H 131.844 7.95034 -1.94586 0
M  V30 1311 N 134.507 -0.190092 1.56449 0
M  V30 1312 C 135.753 -0.911052 1.81184 0
M  V30 1313 C 136.086 -1.82699 0.658396 0
M  V30 1314 O 135.361 -1.91491 -0.340775 0
M  V30 1315 C 135.644 -1.72297 3.16205 0
M  V30 1316 C 135.497 -0.831419 4.42049 0
M  V30 1317 C 136.816 -2.69454 3.47969 0
M  V30 1318 H 133.935 -0.32977 0.659106 0
M  V30 1319 H 136.577 -0.178169 1.89163 0
M  V30 1320 H 134.727 -2.34778 3.09534 0
M  V30 1321 H 136.399 -0.220929 4.60771 0
M  V30 1322 H 134.642 -0.138406 4.33579 0
M  V30 1323 H 135.313 -1.43461 5.33032 0
M  V30 1324 H 137.789 -2.17104 3.54972 0
M  V30 1325 H 136.665 -3.23342 4.43555 0
M  V30 1326 H 136.926 -3.48744 2.71717 0
M  V30 1327 N 135.985 -1.50799 -0.457987 0
M  V30 1328 C 137.396 -1.55152 -1.0385 0
M  V30 1329 C 137.747 -0.362719 -1.92818 0
M  V30 1330 O 136.872 0.522915 -2.09987 0
M  V30 1331 C 137.467 -2.81173 -1.89017 0
M  V30 1332 C 136.026 -2.88164 -2.42154 0
M  V30 1333 C 135.173 -2.49591 -1.20829 0
M  V30 1334 H 138.124 -1.56874 -0.240068 0
M  V30 1335 H 138.145 -2.63769 -2.74238 0
M  V30 1336 H 137.657 -3.67677 -1.24238 0
M  V30 1337 H 135.758 -2.06042 -3.10447 0
M  V30 1338 H 135.871 -3.91356 -2.76364 0
M  V30 1339 H 134.235 -2.02322 -1.54719 0
M  V30 1340 H 135.018 -3.38418 -0.576927 0
M  V30 1341 N 137.463 0.71206 -1.40597 0
M  V30 1342 C 138.693 1.49894 -1.42181 0
M  V30 1343 C 139.101 1.89189 -0.0208078 0
M  V30 1344 O 138.444 1.56223 0.966436 0
M  V30 1345 C 138.506 2.80215 -2.25211 0
M  V30 1346 C 138.17 2.63221 -3.73582 0
M  V30 1347 C 139.167 2.30249 -4.66135 0
M  V30 1348 C 136.852 2.79376 -4.17438 0
M  V30 1349 C 138.846 2.13645 -6.00529 0
M  V30 1350 C 136.533 2.6239 -5.51901 0
M  V30 1351 C 137.531 2.29573 -6.43262 0
M  V30 1352 O 137.219 2.12719 -7.75246 0
M  V30 1353 H 136.951 0.469031 -0.486812 0
M  V30 1354 H 139.505 0.88564 -1.85326 0
M  V30 1355 H 137.735 3.4389 -1.76852 0
M  V30 1356 H 139.424 3.41947 -2.18694 0
M  V30 1357 H 140.19 2.17398 -4.33547 0
M  V30 1358 H 136.069 3.03906 -3.46644 0
M  V30 1359 H 139.613 1.87953 -6.71803 0
M  V30 1360 H 135.51 2.74826 -5.84073 0
M  V30 1361 H 136.278 2.27611 -7.86216 0
M  V30 1362 N 138.941 1.26152 0.944643 0
M  V30 1363 C 140.187 1.11657 1.69294 0
M  V30 1364 C 140.52 -0.339926 1.91202 0
M  V30 1365 O 139.795 -1.24994 1.49019 0
M  V30 1366 C 140.078 1.88236 3.06984 0
M  V30 1367 C 139.931 3.41772 2.92424 0
M  V30 1368 C 141.25 1.67343 4.07043 0
M  V30 1369 H 138.369 0.407004 0.614424 0
M  V30 1370 H 141.011 1.55106 1.09737 0
M  V30 1371 H 139.161 1.51308 3.57824 0
M  V30 1372 H 140.833 3.88433 2.48832 0
M  V30 1373 H 139.076 3.68974 2.28124 0
M  V30 1374 H 139.747 3.90579 3.90067 0
M  V30 1375 H 142.223 1.99509 3.65151 0
M  V30 1376 H 141.099 2.23346 5.01406 0
M  V30 1377 H 141.36 0.617158 4.37771 0
M  V30 1378 N 140.419 -1.14872 1.07899 0
M  V30 1379 C 141.349 -2.2193 0.725887 0
M  V30 1380 C 142.33 -1.67622 -0.28927 0
M  V30 1381 O 143.515 -1.93533 -0.160787 0
M  V30 1382 C 140.645 -3.47061 0.128856 0
M  V30 1383 C 139.599 -4.14363 1.07178 0
M  V30 1384 C 138.925 -5.33636 0.337229 0
M  V30 1385 C 140.225 -4.63492 2.40775 0
M  V30 1386 H 141.919 -2.51724 1.62097 0
M  V30 1387 H 139.465 -1.20991 0.780838 0
M  V30 1388 H 141.418 -4.21199 -0.130147 0
M  V30 1389 H 140.142 -3.16617 -0.80134 0
M  V30 1390 H 138.801 -3.42173 1.3158 0
M  V30 1391 H 138.449 -4.99449 -0.596606 0
M  V30 1392 H 138.149 -5.79609 0.965788 0
M  V30 1393 H 139.673 -6.10539 0.0861567 0
M  V30 1394 H 141.087 -5.2913 2.20669 0
M  V30 1395 H 139.484 -5.20148 2.99276 0
M  V30 1396 H 140.554 -3.78834 3.02676 0
M  V30 1397 N 141.898 -0.863906 -1.31812 0
M  V30 1398 C 143.126 -0.486111 -2.01108 0
M  V30 1399 C 143.541 0.919755 -1.64882 0
M  V30 1400 O 142.898 1.60162 -0.874893 0
M  V30 1401 C 142.949 -0.626435 -3.56031 0
M  V30 1402 O 142.67 -1.97693 -3.90959 0
M  V30 1403 C 144.171 -0.248857 -4.42601 0
M  V30 1404 H 141.391 -0.190052 -0.643523 0
M  V30 1405 H 143.935 -1.1634 -1.68182 0
M  V30 1406 H 142.09 0.00322717 -3.874 0
M  V30 1407 H 142.504 -1.98034 -4.85678 0
M  V30 1408 H 143.978 -0.398016 -5.50563 0
M  V30 1409 H 144.455 0.811489 -4.31638 0
M  V30 1410 H 145.061 -0.853971 -4.16638 0
M  V30 1411 N 143.376 1.44774 -0.622745 0
M  V30 1412 C 144.624 2.01721 -0.123655 0
M  V30 1413 C 144.945 1.49172 1.25589 0
M  V30 1414 O 144.215 0.691974 1.83272 0
M  V30 1415 H 142.795 0.745777 -0.0427225 0
M  V30 1416 H 145.457 1.77382 -0.807559 0
M  V30 1417 H 144.553 3.11984 -0.0849534 0
M  V30 1418 N 144.854 0.36279 1.53368 0
M  V30 1419 C 146.27 0.0116182 1.59596 0
M  V30 1420 C 146.47 -1.47012 1.37803 0
M  V30 1421 O 145.526 -2.23136 1.18181 0
M  V30 1422 C 146.839 0.465052 2.97082 0
M  V30 1423 C 148.387 0.419033 3.10182 0
M  V30 1424 C 148.862 0.848235 4.50077 0
M  V30 1425 N 150.353 0.803183 4.56183 0
M  V30 1426 C 151.088 1.107 5.62613 0
M  V30 1427 N 150.584 1.47996 6.76808 0
M  V30 1428 N 152.377 1.02998 5.52583 0
M  V30 1429 H 144.528 1.32775 1.65785 0
M  V30 1430 H 146.791 0.542518 0.777417 0
M  V30 1431 H 146.497 1.49892 3.18159 0
M  V30 1432 H 146.371 -0.149786 3.76902 0
M  V30 1433 H 148.758 -0.605696 2.88817 0
M  V30 1434 H 148.839 1.06933 2.32377 0
M  V30 1435 H 148.483 1.87107 4.7218 0
M  V30 1436 H 148.413 0.175218 5.26308 0
M  V30 1437 H 150.904 0.52838 3.74188 0
M  V30 1438 H 151.217 1.69613 7.53957 0
M  V30 1439 H 149.562 1.51859 6.78206 0
M  V30 1440 H 152.753 0.737817 4.62249 0
M  V30 1441 H 152.926 1.2701 6.35431 0
M  V30 1442 N 146.332 -1.57332 0.0918853 0
M  V30 1443 C 147.578 -1.95328 -0.567313 0
M  V30 1444 C 147.933 -0.972866 -1.65991 0
M  V30 1445 O 147.226 0.00166256 -1.916 0
M  V30 1446 C 147.42 -3.37689 -1.17051 0
M  V30 1447 C 147.249 -4.49489 -0.137875 0
M  V30 1448 C 146.019 -5.04498 0.284515 0
M  V30 1449 C 148.217 -5.10393 0.63271 0
M  V30 1450 N 146.199 -5.99853 1.30576 0
M  V30 1451 C 147.57 -6.01435 1.50587 0
M  V30 1452 C 149.625 -4.93143 0.68658 0
M  V30 1453 C 148.328 -6.77077 2.42815 0
M  V30 1454 C 150.354 -5.69445 1.59645 0
M  V30 1455 C 149.716 -6.60151 2.45725 0
M  V30 1456 H 145.815 -0.761467 -0.178023 0
M  V30 1457 H 148.399 -1.93924 0.173706 0
M  V30 1458 H 146.57 -3.39793 -1.88136 0
M  V30 1459 H 148.302 -3.62872 -1.79181 0
M  V30 1460 H 145.057 -4.73489 -0.102593 0
M  V30 1461 H 145.481 -6.52231 1.81449 0
M  V30 1462 H 150.123 -4.22785 0.035244 0
M  V30 1463 H 147.841 -7.46699 3.08975 0
M  V30 1464 H 151.427 -5.58112 1.64323 0
M  V30 1465 H 150.307 -7.18159 3.14987 0
M  V30 1466 N 147.81 0.181792 -1.56548 0
M  V30 1467 C 149.038 0.915947 -1.85521 0
M  V30 1468 C 149.453 1.76282 -0.676016 0
M  V30 1469 O 148.81 1.79012 0.355077 0
M  V30 1470 C 148.861 1.80126 -3.13427 0
M  V30 1471 O 148.582 0.988562 -4.26801 0
M  V30 1472 C 150.083 2.64597 -3.55673 0
M  V30 1473 H 147.303 0.26661 -0.61576 0
M  V30 1474 H 149.847 0.185039 -2.03661 0
M  V30 1475 H 148.002 2.48563 -2.97145 0
M  V30 1476 H 148.416 1.59308 -4.99721 0
M  V30 1477 H 149.89 3.2235 -4.48101 0
M  V30 1478 H 150.367 3.38958 -2.79292 0
M  V30 1479 H 150.973 2.0151 -3.74532 0
M  V30 1480 N 149.288 1.51039 0.449983 0
M  V30 1481 C 150.535 1.63081 1.20045 0
M  V30 1482 C 150.863 0.341024 1.91487 0
M  V30 1483 O 150.118 -0.674276 1.83717 0
M  V30 1484 C 150.417 2.77556 2.25161 0
M  V30 1485 C 150.083 4.17289 1.70823 0
M  V30 1486 C 148.745 4.55305 1.55725 0
M  V30 1487 C 151.097 5.04536 1.3074 0
M  V30 1488 C 148.425 5.78287 0.989999 0
M  V30 1489 C 150.777 6.28085 0.754482 0
M  V30 1490 C 149.441 6.64885 0.590308 0
M  V30 1491 H 148.711 0.596755 0.439277 0
M  V30 1492 H 151.358 1.85037 0.49333 0
M  V30 1493 H 149.663 2.49771 3.01863 0
M  V30 1494 H 151.36 2.84073 2.83026 0
M  V30 1495 H 147.95 3.8731 1.83546 0
M  V30 1496 H 152.134 4.75782 1.41229 0
M  V30 1497 H 147.39 6.05456 0.850451 0
M  V30 1498 H 151.564 6.95038 0.435324 0
M  V30 1499 H 149.191 7.60055 0.14862 0
M  V30 1500 N 150.766 -0.704594 1.40972 0
M  V30 1501 C 152.014 -1.46169 1.39568 0
M  V30 1502 C 152.335 -1.95 0.00253745 0
M  V30 1503 O 151.605 -1.71095 -0.954114 0
M  V30 1504 H 150.185 -0.542326 0.513704 0
M  V30 1505 H 152.847 -0.834553 1.76128 0
M  V30 1506 H 151.943 -2.32922 2.07735 0
M  V30 1507 N 152.244 -1.26651 -0.937939 0
M  V30 1508 C 153.66 -1.03834 -1.21205 0
M  V30 1509 C 153.86 0.234502 -2.00131 0
M  V30 1510 O 152.916 0.942767 -2.3424 0
M  V30 1511 C 154.229 -2.27167 -1.97017 0
M  V30 1512 C 155.777 -2.32101 -2.09996 0
M  V30 1513 C 156.252 -3.55136 -2.8921 0
M  V30 1514 N 157.743 -3.55632 -2.96783 0
M  V30 1515 C 158.478 -4.475 -3.58512 0
M  V30 1516 N 157.974 -5.4966 -4.21717 0
M  V30 1517 N 159.767 -4.35145 -3.55816 0
M  V30 1518 H 151.918 -2.08398 -0.410391 0
M  V30 1519 H 154.181 -0.916031 -0.244114 0
M  V30 1520 H 153.887 -3.19765 -1.46434 0
M  V30 1521 H 153.761 -2.31672 -2.97671 0
M  V30 1522 H 156.148 -1.40015 -2.59769 0
M  V30 1523 H 156.229 -2.31605 -1.08594 0
M  V30 1524 H 155.873 -4.47553 -2.40123 0
M  V30 1525 H 155.803 -3.5288 -3.90875 0
M  V30 1526 H 158.294 -2.81743 -2.51852 0
M  V30 1527 H 158.607 -6.15943 -4.66727 0
M  V30 1528 H 156.952 -5.53514 -4.20294 0
M  V30 1529 H 160.143 -3.5455 -3.05634 0
M  V30 1530 H 160.316 -5.06934 -4.03636 0
M  V30 1531 N 153.722 1.14298 -1.08507 0
M  V30 1532 C 154.97 1.84993 -0.813763 0
M  V30 1533 C 155.291 1.83405 0.662393 0
M  V30 1534 O 154.561 1.28319 1.48024 0
M  V30 1535 H 153.141 0.684966 -0.298045 0
M  V30 1536 H 155.803 1.385 -1.37126 0
M  V30 1537 H 154.899 2.89788 -1.15884 0
M  V30 1538 N 155.201 0.870884 1.31352 0
M  V30 1539 C 156.131 0.343096 2.30966 0
M  V30 1540 C 157.112 -0.566507 1.60389 0
M  V30 1541 O 158.297 -0.483336 1.88089 0
M  V30 1542 C 155.427 -0.455487 3.443 0
M  V30 1543 C 154.381 0.361103 4.26474 0
M  V30 1544 C 153.707 -0.563221 5.31725 0
M  V30 1545 C 155.007 1.59566 4.97329 0
M  V30 1546 H 156.701 1.17548 2.75359 0
M  V30 1547 H 154.247 0.566686 1.32381 0
M  V30 1548 H 156.2 -0.83525 4.13039 0
M  V30 1549 H 154.924 -1.32139 2.98675 0
M  V30 1550 H 153.583 0.722825 3.59403 0
M  V30 1551 H 153.231 -1.42643 4.82351 0
M  V30 1552 H 152.931 -0.0207409 5.87596 0
M  V30 1553 H 154.455 -0.939808 6.03324 0
M  V30 1554 H 155.869 1.28728 5.58661 0
M  V30 1555 H 154.266 2.07728 5.63 0
M  V30 1556 H 155.336 2.34798 4.24262 0
M  V30 1557 N 156.679 -1.44442 0.630414 0
M  V30 1558 C 157.919 -2.03934 0.137919 0
M  V30 1559 C 158.283 -1.48509 -1.21692 0
M  V30 1560 O 159.484 -1.99499 -1.80149 0
M  V30 1561 C 157.755 -3.57187 0.123373 0
M  V30 1562 S 159.314 -4.37741 -0.304604 0
M  V30 1563 H 156.132 -0.708401 0.0607353 0
M  V30 1564 H 158.734 -1.76835 0.833643 0
M  V30 1565 H 157.438 -3.95032 1.11256 0
M  V30 1566 H 156.969 -3.88895 -0.59362 0
M  V30 1567 H 158.984 -4.71403 -1.54897 0
M  V30 1568 N 158.157 -0.370918 -1.53173 0
M  V30 1569 C 159.104 0.473035 -2.259 0
M  V30 1570 C 160.074 1.07311 -1.26781 0
M  V30 1571 O 161.259 1.1046 -1.55574 0
M  V30 1572 C 158.399 1.60405 -3.05556 0
M  V30 1573 C 157.512 1.02863 -4.19575 0
M  V30 1574 C 156.647 2.12918 -4.86661 0
M  V30 1575 C 155.686 1.52869 -5.92704 0
M  V30 1576 N 154.823 2.56779 -6.53459 0
M  V30 1577 H 159.663 -0.153649 -2.97604 0
M  V30 1578 H 157.2 -0.0875946 -1.46839 0
M  V30 1579 H 159.158 2.27034 -3.50016 0
M  V30 1580 H 157.788 2.20131 -2.36097 0
M  V30 1581 H 156.84 0.252465 -3.79561 0
M  V30 1582 H 158.152 0.549642 -4.95762 0
M  V30 1583 H 157.306 2.87356 -5.34333 0
M  V30 1584 H 156.045 2.6417 -4.09958 0
M  V30 1585 H 155.05 0.769479 -5.44389 0
M  V30 1586 H 156.275 1.02435 -6.7133 0
M  V30 1587 H 154.221 3.07235 -5.79606 0
M  V30 1588 H 154.138 2.13583 -7.25202 0
M  V30 1589 H 155.406 3.30903 -7.05779 0
M  V30 1590 N 159.635 1.57281 -0.100228 0
M  V30 1591 C 160.565 2.17328 0.853857 0
M  V30 1592 C 161.546 1.10804 1.2906 0
M  V30 1593 O 162.731 1.38963 1.35657 0
M  V30 1594 C 159.861 2.75772 2.11109 0
M  V30 1595 C 158.815 3.87713 1.81279 0
M  V30 1596 C 158.141 4.32882 3.13874 0
M  V30 1597 C 159.441 5.10677 1.09574 0
M  V30 1598 H 161.135 2.97305 0.353545 0
M  V30 1599 H 158.681 1.43009 0.168612 0
M  V30 1600 H 160.634 3.16433 2.78296 0
M  V30 1601 H 159.358 1.93057 2.63432 0
M  V30 1602 H 158.017 3.476 1.16489 0
M  V30 1603 H 157.665 3.47051 3.64095 0
M  V30 1604 H 157.365 5.08358 2.94696 0
M  V30 1605 H 158.889 4.7618 3.82211 0
M  V30 1606 H 160.303 5.48474 1.66879 0
M  V30 1607 H 158.7 5.91615 1.00557 0
M  V30 1608 H 159.77 4.84835 0.0793299 0
M  V30 1609 N 161.113 -0.173488 1.56642 0
M  V30 1610 C 162.359 -0.887108 1.83035 0
M  V30 1611 C 162.714 -1.79965 0.680461 0
M  V30 1612 O 162.007 -1.88854 -0.323225 0
M  V30 1613 C 162.201 -1.72069 3.13252 0
M  V30 1614 C 162.03 -0.89035 4.40798 0
M  V30 1615 C 160.8 -0.566282 5.02117 0
M  V30 1616 C 162.998 -0.232921 5.13772 0
M  V30 1617 N 160.98 0.280427 6.13259 0
M  V30 1618 C 162.351 0.475046 6.18177 0
M  V30 1619 C 164.406 -0.150863 4.97671 0
M  V30 1620 C 163.109 1.25729 7.08227 0
M  V30 1621 C 165.135 0.618039 5.88162 0
M  V30 1622 C 164.497 1.31438 6.92029 0
M  V30 1623 H 160.596 -0.303303 0.720785 0
M  V30 1624 H 163.18 -0.154244 1.94088 0
M  V30 1625 H 161.351 -2.42499 3.03395 0
M  V30 1626 H 163.083 -2.37545 3.2765 0
M  V30 1627 H 159.838 -0.895852 4.6505 0
M  V30 1628 H 160.262 0.694027 6.73433 0
M  V30 1629 H 164.904 -0.674868 4.17379 0
M  V30 1630 H 162.622 1.79265 7.87966 0
M  V30 1631 H 166.208 0.683173 5.77775 0
M  V30 1632 H 165.088 1.89981 7.6084 0
M  V30 1633 N 162.591 -1.51276 -0.441967 0
M  V30 1634 C 163.521 -1.752 -1.54361 0
M  V30 1635 C 164.502 -0.601682 -1.59103 0
M  V30 1636 O 165.687 -0.843913 -1.74905 0
M  V30 1637 C 162.817 -1.87282 -2.92477 0
M  V30 1638 C 161.771 -3.02687 -3.02596 0
M  V30 1639 C 161.097 -2.99947 -4.42647 0
M  V30 1640 C 162.397 -4.4273 -2.77106 0
M  V30 1641 H 164.091 -2.67442 -1.34592 0
M  V30 1642 H 161.637 -1.28694 -0.646048 0
M  V30 1643 H 163.59 -2.02602 -3.695 0
M  V30 1644 H 162.314 -0.916844 -3.13467 0
M  V30 1645 H 160.973 -2.87065 -2.28012 0
M  V30 1646 H 160.621 -2.02136 -4.60597 0
M  V30 1647 H 160.321 -3.77439 -4.50348 0
M  V30 1648 H 161.845 -3.17354 -5.2165 0
M  V30 1649 H 163.259 -4.58727 -3.43864 0
M  V30 1650 H 161.656 -5.21893 -2.96222 0
M  V30 1651 H 162.726 -4.53087 -1.72744 0
M  V30 1652 N 164.069 0.697108 -1.41344 0
M  V30 1653 C 165.315 1.4593 -1.40827 0
M  V30 1654 C 165.648 1.94193 -0.0167098 0
M  V30 1655 O 164.923 1.69425 0.955263 0
M  V30 1656 C 165.206 2.67229 -2.41373 0
M  V30 1657 C 165.059 2.24741 -3.8963 0
M  V30 1658 C 166.378 3.69423 -2.39196 0
M  V30 1659 H 163.497 0.529303 -0.512842 0
M  V30 1660 H 166.139 0.794112 -1.72609 0
M  V30 1661 H 164.289 3.23982 -2.14401 0
M  V30 1662 H 165.961 1.73327 -4.27499 0
M  V30 1663 H 164.204 1.56542 -4.0457 0
M  V30 1664 H 164.875 3.1177 -4.55525 0
M  V30 1665 H 167.351 3.2234 -2.63128 0
M  V30 1666 H 166.227 4.51907 -3.11563 0
M  V30 1667 H 166.488 4.19012 -1.41001 0
M  V30 1668 N 165.547 1.27147 0.931209 0
M  V30 1669 C 166.793 1.13446 1.68101 0
M  V30 1670 C 167.126 -0.319628 1.91552 0
M  V30 1671 O 166.401 -1.23407 1.50336 0
M  V30 1672 C 166.684 1.91482 3.0497 0
M  V30 1673 C 166.537 3.44855 2.88782 0
M  V30 1674 C 167.856 1.71651 4.05246 0
M  V30 1675 H 164.975 0.413498 0.610072 0
M  V30 1676 H 167.617 1.56261 1.08086 0
M  V30 1677 H 165.767 1.55095 3.56199 0
M  V30 1678 H 167.439 3.9105 2.44698 0
M  V30 1679 H 165.682 3.71373 2.24198 0
M  V30 1680 H 166.353 3.94694 3.85902 0
M  V30 1681 H 168.829 2.0337 3.63015 0
M  V30 1682 H 167.705 2.28651 4.99009 0
M  V30 1683 H 167.966 0.663555 4.37092 0
M  V30 1684 N 167.025 -1.13721 1.09112 0
M  V30 1685 C 168.302 -1.81155 0.737706 0
M  V30 1686 C 168.682 -1.96253 -0.777683 0
M  V30 1687 O 168.03 -1.52807 -1.69889 0
M  V30 1688 C 168.24 -3.16392 1.47299 0
M  V30 1689 C 169.588 -3.91787 1.63671 0
M  V30 1690 O 170.612 -3.26005 1.43524 0
M  V30 1691 O 169.471 -5.0977 1.96969 0
M  V30 1692 H 166.565 -0.783518 0.26463 0
M  V30 1693 H 169.111 -1.20676 1.19312 0
M  V30 1694 H 167.883 -3.0061 2.50498 0
M  V30 1695 H 167.506 -3.8457 1.00953 0
M  V30 1696 N 168.503 -0.877838 -1.30888 0
M  V30 1697 C 169.733 -0.506678 -2.00291 0
M  V30 1698 C 170.141 0.907449 -1.66018 0
M  V30 1699 O 169.484 1.60719 -0.88967 0
M  V30 1700 C 169.546 -0.59323 -3.54572 0
M  V30 1701 C 169.21 -1.97038 -4.12341 0
M  V30 1702 C 170.207 -2.93889 -4.28865 0
M  V30 1703 C 167.892 -2.27383 -4.47886 0
M  V30 1704 C 169.886 -4.19224 -4.80136 0
M  V30 1705 C 167.573 -3.52965 -4.98857 0
M  V30 1706 C 168.571 -4.48701 -5.14934 0
M  V30 1707 O 168.259 -5.72056 -5.64808 0
M  V30 1708 H 167.991 -0.1951 -0.647234 0
M  V30 1709 H 170.545 -1.18301 -1.6791 0
M  V30 1710 H 168.775 0.140057 -3.86446 0
M  V30 1711 H 170.464 -0.234372 -4.05223 0
M  V30 1712 H 171.23 -2.71756 -4.01714 0
M  V30 1713 H 167.109 -1.53639 -4.34645 0
M  V30 1714 H 170.653 -4.93956 -4.92599 0
M  V30 1715 H 166.55 -3.74939 -5.25443 0
M  V30 1716 H 167.318 -5.74337 -5.83163 0
M  V30 1717 N 169.982 1.44106 -0.638065 0
M  V30 1718 C 170.912 2.33448 0.0494287 0
M  V30 1719 C 171.893 1.48606 0.827672 0
M  V30 1720 O 173.078 1.77308 0.792173 0
M  V30 1721 C 170.208 3.31771 1.02691 0
M  V30 1722 C 169.162 4.26485 0.359823 0
M  V30 1723 C 168.488 5.14729 1.44769 0
M  V30 1724 C 169.788 5.17056 -0.738296 0
M  V30 1725 H 171.482 2.91183 -0.696636 0
M  V30 1726 H 169.028 1.40014 -0.336456 0
M  V30 1727 H 170.981 3.93161 1.51666 0
M  V30 1728 H 169.705 2.7226 1.80395 0
M  V30 1729 H 168.364 3.66437 -0.10934 0
M  V30 1730 H 168.012 4.51566 2.21578 0
M  V30 1731 H 167.712 5.78913 1.00668 0
M  V30 1732 H 169.236 5.78991 1.93911 0
M  V30 1733 H 170.65 5.72342 -0.331354 0
M  V30 1734 H 169.047 5.89879 -1.10286 0
M  V30 1735 H 170.117 4.57652 -1.60258 0
M  V30 1736 N 171.46 0.379036 1.52974 0
M  V30 1737 C 172.39 -0.452706 2.29069 0
M  V30 1738 C 173.371 -1.07237 1.32039 0
M  V30 1739 O 174.556 -1.08708 1.60923 0
M  V30 1740 C 171.686 -1.5856 3.08992 0
M  V30 1741 C 170.64 -1.0925 4.13822 0
M  V30 1742 C 169.966 -2.31668 4.81907 0
M  V30 1743 C 171.266 -0.167702 5.22031 0
M  V30 1744 H 172.96 0.182181 2.98845 0
M  V30 1745 H 170.506 0.0890592 1.43724 0
M  V30 1746 H 172.459 -2.1742 3.6098 0
M  V30 1747 H 171.183 -2.24792 2.36931 0
M  V30 1748 H 169.842 -0.526494 3.628 0
M  V30 1749 H 169.49 -2.96386 4.06404 0
M  V30 1750 H 169.19 -1.9934 5.52754 0
M  V30 1751 H 170.714 -2.91189 5.36695 0
M  V30 1752 H 172.128 -0.664186 5.6944 0
M  V30 1753 H 170.525 0.0653265 6.00064 0
M  V30 1754 H 171.595 0.786347 4.78482 0
M  V30 1755 N 172.938 -1.57226 0.108567 0
M  V30 1756 C 174.178 -1.96717 -0.555155 0
M  V30 1757 C 174.542 -0.990003 -1.64508 0
M  V30 1758 O 175.743 -1.2739 -2.36696 0
M  V30 1759 C 174.014 -3.40575 -1.08367 0
M  V30 1760 S 175.573 -4.02072 -1.75737 0
M  V30 1761 H 172.391 -0.687638 -0.180762 0
M  V30 1762 H 174.993 -1.94563 0.191172 0
M  V30 1763 H 173.697 -4.0945 -0.279092 0
M  V30 1764 H 173.228 -3.46356 -1.86551 0
M  V30 1765 H 175.243 -3.91977 -3.04251 0
M  V30 1766 N 174.416 0.165178 -1.56732 0
M  V30 1767 C 175.644 0.896218 -1.86482 0
M  V30 1768 C 176.059 1.75555 -0.694675 0
M  V30 1769 O 175.416 1.79379 0.33607 0
M  V30 1770 C 175.467 1.76792 -3.1532 0
M  V30 1771 O 175.188 0.943239 -4.27825 0
M  V30 1772 C 176.689 2.6081 -3.58459 0
M  V30 1773 H 173.909 0.260064 -0.618553 0
M  V30 1774 H 176.453 0.163428 -2.03846 0
M  V30 1775 H 174.608 2.45398 -2.99764 0
M  V30 1776 H 175.022 1.53998 -5.01383 0
M  V30 1777 H 176.496 3.17579 -4.51495 0
M  V30 1778 H 176.973 3.35977 -2.82872 0
M  V30 1779 H 177.579 1.97526 -3.76648 0
M  V30 1780 N 175.894 1.51508 0.433938 0
M  V30 1781 C 177.119 1.68443 1.21003 0
M  V30 1782 C 177.544 0.382636 1.84167 0
M  V30 1783 O 176.902 -0.65755 1.68956 0
M  V30 1784 C 176.95 2.80405 2.26727 0
M  V30 1785 O 176.054 2.44245 3.32292 0
M  V30 1786 H 175.395 0.561536 0.354363 0
M  V30 1787 H 177.925 1.9809 0.512024 0
M  V30 1788 H 177.935 3.0459 2.71457 0
M  V30 1789 H 176.61 3.74867 1.80132 0
M  V30 1790 H 175.187 2.30644 2.93015 0
M  V30 1791 N 177.372 -0.689602 1.41712 0
M  V30 1792 C 178.597 -1.48329 1.44959 0
M  V30 1793 C 179.022 -1.8801 0.0581283 0
M  V30 1794 O 178.38 -1.55026 -0.940035 0
M  V30 1795 C 178.428 -2.71835 2.36935 0
M  V30 1796 O 177.532 -3.69549 1.8305 0
M  V30 1797 H 176.873 -0.446199 0.491734 0
M  V30 1798 H 179.403 -0.847127 1.86239 0
M  V30 1799 H 179.413 -3.20076 2.53013 0
M  V30 1800 H 178.088 -2.42291 3.38035 0
M  V30 1801 H 176.665 -3.2851 1.76452 0
M  V30 1802 N 178.85 -1.27639 -0.924453 0
M  V30 1803 C 179.813 -1.10681 -2.00705 0
M  V30 1804 C 180.813 -0.0497823 -1.60723 0
M  V30 1805 O 182.003 -0.294654 -1.7169 0
M  V30 1806 C 179.135 -0.687164 -3.33902 0
M  V30 1807 H 180.328 -2.06817 -2.17179 0
M  V30 1808 H 177.881 -1.10473 -1.10569 0
M  V30 1809 H 178.616 0.275439 -3.23128 0
M  V30 1810 H 178.401 -1.45061 -3.6428 0
M  V30 1811 H 179.891 -0.590853 -4.13399 0
M  V30 1812 N 180.328 1.1314 -1.09713 0
M  V30 1813 C 181.575 1.84484 -0.834987 0
M  V30 1814 C 181.903 1.83689 0.639418 0
M  V30 1815 O 181.158 1.2724 1.4869 0
M  V30 1816 C 181.457 3.32167 -1.3191 0
M  V30 1817 C 181.123 3.53139 -2.80363 0
M  V30 1818 C 179.785 3.58571 -3.20905 0
M  V30 1819 C 182.137 3.60866 -3.76065 0
M  V30 1820 C 179.465 3.69267 -4.55916 0
M  V30 1821 C 181.817 3.73089 -5.10869 0
M  V30 1822 C 180.481 3.76775 -5.50996 0
M  V30 1823 H 179.751 0.675073 -0.305544 0
M  V30 1824 H 182.398 1.33554 -1.37243 0
M  V30 1825 H 180.703 3.85469 -0.701517 0
M  V30 1826 H 182.4 3.85821 -1.09284 0
M  V30 1827 H 178.99 3.49569 -2.47991 0
M  V30 1828 H 183.174 3.55946 -3.45855 0
M  V30 1829 H 178.43 3.70388 -4.86438 0
M  V30 1830 H 182.604 3.78011 -5.84877 0
M  V30 1831 H 180.231 3.84815 -6.55608 0
M  V30 1832 N 181.806 0.884767 1.30421 0
M  V30 1833 C 182.754 0.340869 2.30089 0
M  V30 1834 C 183.748 -0.55201 1.60154 0
M  V30 1835 O 184.954 -0.436467 1.74628 0
M  V30 1836 H 181.329 0.0915739 0.746404 0
M  V30 1837 H 183.3 1.19513 2.73421 0
M  V30 1838 C 182.049 -0.429779 3.45034 0
M  V30 1839 H 181.372 0.248024 3.9903 0
M  V30 1840 H 182.812 -0.775445 4.16849 0
M  V30 1841 C 181.271 -1.62677 2.95022 0
M  V30 1842 O 181.801 -2.72614 2.95033 0
M  V30 1843 N 180.007 -1.46387 2.51036 0
M  V30 1844 H 179.554 -0.569506 2.51226 0
M  V30 1845 H 179.512 -2.26612 2.17932 0
M  V30 1846 N 183.284 -1.43765 0.645699 0
M  V30 1847 C 184.533 -2.01116 0.153412 0
M  V30 1848 C 184.846 -1.51493 -1.23731 0
M  V30 1849 O 186.052 -2.01067 -1.8244 0
M  V30 1850 C 184.508 -3.59206 0.223473 0
M  V30 1851 C 184.116 -4.17823 1.61642 0
M  V30 1852 C 185.86 -4.23972 -0.211597 0
M  V30 1853 C 183.767 -5.68183 1.64081 0
M  V30 1854 H 182.697 -0.752093 0.0535891 0
M  V30 1855 H 185.348 -1.6482 0.806633 0
M  V30 1856 H 183.73 -3.92867 -0.497118 0
M  V30 1857 H 184.904 -3.95674 2.36176 0
M  V30 1858 H 183.219 -3.65399 1.99681 0
M  V30 1859 H 185.816 -5.34275 -0.213112 0
M  V30 1860 H 186.159 -3.97352 -1.24165 0
M  V30 1861 H 186.692 -3.95166 0.456988 0
M  V30 1862 H 183.431 -5.99559 2.64971 0
M  V30 1863 H 182.951 -5.9241 0.938611 0
M  V30 1864 H 184.63 -6.32085 1.3812 0
M  V30 1865 N 184.763 -0.387143 -1.52771 0
M  V30 1866 C 186.009 0.196025 -2.0185 0
M  V30 1867 C 186.342 1.46641 -1.27319 0
M  V30 1868 O 185.617 1.90889 -0.373032 0
M  V30 1869 C 185.9 0.466136 -3.5707 0
M  V30 1870 C 185.753 -0.819385 -4.42274 0
M  V30 1871 C 187.072 1.25768 -4.21747 0
M  V30 1872 H 184.191 0.0697708 -0.73369 0
M  V30 1873 H 186.833 -0.516286 -1.82851 0
M  V30 1874 H 184.983 1.07293 -3.7339 0
M  V30 1875 H 186.655 -1.4563 -4.37709 0
M  V30 1876 H 184.898 -1.43517 -4.09372 0
M  V30 1877 H 185.569 -0.585065 -5.48891 0
M  V30 1878 H 188.045 0.744167 -4.09391 0
M  V30 1879 H 186.921 1.41541 -5.30337 0
M  V30 1880 H 187.182 2.27228 -3.79236 0
M  V30 1881 N 186.241 1.57166 -0.116904 0
M  V30 1882 C 187.171 2.18222 0.830759 0
M  V30 1883 C 188.152 1.12167 1.27877 0
M  V30 1884 O 189.337 1.40394 1.34176 0
M  V30 1885 C 186.467 2.77996 2.08172 0
M  V30 1886 C 185.421 3.89614 1.77157 0
M  V30 1887 C 184.747 4.36187 3.09265 0
M  V30 1888 C 186.047 5.1181 1.04151 0
M  V30 1889 H 187.741 2.97664 0.321992 0
M  V30 1890 H 185.287 1.4318 0.153434 0
M  V30 1891 H 187.24 3.19366 2.74924 0
M  V30 1892 H 185.964 1.9584 2.6137 0
M  V30 1893 H 184.623 3.48816 1.12796 0
M  V30 1894 H 184.271 3.50893 3.60393 0
M  V30 1895 H 183.971 5.11455 2.89288 0
M  V30 1896 H 185.495 4.80207 3.77139 0
M  V30 1897 H 186.909 5.50214 1.61052 0
M  V30 1898 H 185.306 5.92648 0.942762 0
M  V30 1899 H 186.376 4.84892 0.0279022 0
M  V30 1900 N 187.719 -0.156864 1.56817 0
M  V30 1901 C 188.968 -0.869504 1.81996 0
M  V30 1902 C 189.281 -1.82777 0.696545 0
M  V30 1903 O 190.487 -2.58384 0.833658 0
M  V30 1904 C 188.943 -1.59679 3.22538 0
M  V30 1905 C 188.551 -0.681431 4.42787 0
M  V30 1906 C 190.295 -2.2968 3.56997 0
M  V30 1907 C 188.202 -1.40978 5.74351 0
M  V30 1908 H 187.132 -0.328438 0.678708 0
M  V30 1909 H 189.783 -0.1223 1.83092 0
M  V30 1910 H 188.165 -2.38927 3.158 0
M  V30 1911 H 189.339 0.0751166 4.60739 0
M  V30 1912 H 187.654 -0.0903431 4.16302 0
M  V30 1913 H 190.251 -2.84794 4.52544 0
M  V30 1914 H 190.594 -3.05707 2.82576 0
M  V30 1915 H 191.127 -1.57361 3.65352 0
M  V30 1916 H 187.866 -0.691561 6.51842 0
M  V30 1917 H 187.386 -2.13929 5.60352 0
M  V30 1918 H 189.065 -1.95337 6.16808 0
M  V30 1919 N 189.197 -1.51736 -0.425897 0
M  V30 1920 C 190.422 -1.69082 -1.20108 0
M  V30 1921 C 190.847 -0.392398 -1.83962 0
M  V30 1922 O 190.205 0.64858 -1.69302 0
M  V30 1923 C 190.253 -2.81604 -2.25237 0
M  V30 1924 O 189.357 -2.46004 -3.30992 0
M  V30 1925 H 188.698 -0.563408 -0.35138 0
M  V30 1926 H 191.228 -1.98358 -0.501512 0
M  V30 1927 H 191.238 -3.06025 -2.69838 0
M  V30 1928 H 189.913 -3.75817 -1.78142 0
M  V30 1929 H 188.49 -2.32195 -2.91787 0
M  V30 1930 N 190.675 0.682077 -1.42076 0
M  V30 1931 C 191.905 1.46844 -1.45329 0
M  V30 1932 C 192.313 1.89102 -0.0609328 0
M  V30 1933 O 191.656 1.58238 0.933082 0
M  V30 1934 C 191.718 2.75375 -2.31104 0
M  V30 1935 C 191.382 2.55238 -3.79081 0
M  V30 1936 C 192.379 2.20309 -4.70914 0
M  V30 1937 C 190.064 2.70459 -4.2327 0
M  V30 1938 C 192.058 2.00859 -6.04925 0
M  V30 1939 C 189.745 2.50624 -5.57343 0
M  V30 1940 C 190.743 2.15876 -6.47986 0
M  V30 1941 O 190.431 1.96227 -7.79583 0
M  V30 1942 H 190.163 0.4586 -0.496651 0
M  V30 1943 H 192.717 0.846131 -1.87162 0
M  V30 1944 H 190.947 3.40061 -1.84107 0
M  V30 1945 H 192.636 3.37231 -2.25898 0
M  V30 1946 H 193.402 2.08153 -4.38061 0
M  V30 1947 H 189.281 2.96485 -3.53012 0
M  V30 1948 H 192.825 1.7366 -6.75639 0
M  V30 1949 H 188.722 2.62375 -5.89771 0
M  V30 1950 H 189.49 2.10883 -7.90867 0
M  V30 1951 N 192.153 1.28127 0.917671 0
M  V30 1952 C 193.43 1.05761 1.64542 0
M  V30 1953 C 193.81 -0.404344 2.07191 0
M  V30 1954 O 193.158 -1.38963 1.81388 0
M  V30 1955 C 193.368 2.02857 2.83989 0
M  V30 1956 C 194.716 2.32786 3.551 0
M  V30 1957 O 195.74 2.0091 2.94132 0
M  V30 1958 O 194.599 2.87169 4.64969 0
M  V30 1959 H 191.693 0.403916 0.721652 0
M  V30 1960 H 194.239 1.39431 0.967322 0
M  V30 1961 H 193.011 3.01407 2.49538 0
M  V30 1962 H 192.634 1.69809 3.59514 0
M  V30 1963 N 193.631 -1.12557 1.10312 0
M  V30 1964 C 195.047 -1.36036 0.834649 0
M  V30 1965 C 195.247 -1.93946 -0.546539 0
M  V30 1966 O 194.303 -2.16484 -1.29966 0
M  V30 1967 C 195.616 -2.30312 1.9333 0
M  V30 1968 C 197.164 -2.43906 1.9616 0
M  V30 1969 C 197.639 -3.41496 3.05195 0
M  V30 1970 N 199.13 -3.49053 3.04494 0
M  V30 1971 C 199.865 -4.24471 3.85502 0
M  V30 1972 N 199.361 -5.02966 4.76442 0
M  V30 1973 N 201.154 -4.19864 3.73725 0
M  V30 1974 H 193.305 -0.733246 1.99342 0
M  V30 1975 H 195.568 -0.385234 0.866198 0
M  V30 1976 H 195.274 -1.94933 2.92735 0
M  V30 1977 H 195.148 -3.30421 1.81939 0
M  V30 1978 H 197.535 -2.78567 0.973886 0
M  V30 1979 H 197.616 -1.4369 2.11629 0
M  V30 1980 H 197.26 -3.07565 4.04186 0
M  V30 1981 H 197.19 -4.41539 2.86968 0
M  V30 1982 H 199.681 -2.93053 2.38596 0
M  V30 1983 H 199.994 -5.57846 5.34815 0
M  V30 1984 H 198.339 -5.02167 4.80472 0
M  V30 1985 H 201.53 -3.57623 3.02032 0
M  V30 1986 H 201.703 -4.78386 4.37093 0
M  V30 1987 N 195.109 -0.891671 -1.2995 0
M  V30 1988 C 196.356 -0.513501 -1.95881 0
M  V30 1989 C 196.684 0.938655 -1.70351 0
M  V30 1990 O 195.939 1.67936 -1.00478 0
M  V30 1991 C 196.238 -0.742868 -3.49594 0
M  V30 1992 C 195.904 -2.17114 -3.95186 0
M  V30 1993 C 194.566 -2.56169 -4.07346 0
M  V30 1994 C 196.918 -3.10162 -4.18866 0
M  V30 1995 C 194.246 -3.87469 -4.4055 0
M  V30 1996 C 196.598 -4.41001 -4.53542 0
M  V30 1997 C 195.262 -4.79941 -4.63911 0
M  V30 1998 H 194.532 -0.187903 -0.71678 0
M  V30 1999 H 197.179 -1.1288 -1.54694 0
M  V30 2000 H 195.484 -0.044586 -3.91775 0
M  V30 2001 H 197.181 -0.429767 -3.9869 0
M  V30 2002 H 193.771 -1.85801 -3.86233 0
M  V30 2003 H 197.955 -2.81206 -4.08946 0
M  V30 2004 H 193.211 -4.17371 -4.46779 0
M  V30 2005 H 197.385 -5.13133 -4.70815 0
M  V30 2006 H 195.012 -5.81719 -4.89395 0
M  V30 2007 N 196.587 1.43421 -0.653314 0
M  V30 2008 C 197.517 2.33487 0.0246656 0
M  V30 2009 C 198.498 1.49475 0.811863 0
M  V30 2010 O 199.683 1.78139 0.773322 0
M  V30 2011 C 196.813 3.32841 0.99166 0
M  V30 2012 C 195.767 4.26842 0.314568 0
M  V30 2013 C 195.093 5.16236 1.39302 0
M  V30 2014 C 196.393 5.16243 -0.793095 0
M  V30 2015 H 198.087 2.90427 -0.727481 0
M  V30 2016 H 195.633 1.39649 -0.351287 0
M  V30 2017 H 197.586 3.94747 1.47487 0
M  V30 2018 H 196.31 2.74158 1.77497 0
M  V30 2019 H 194.969 3.663 -0.148199 0
M  V30 2020 H 194.617 4.53891 2.16776 0
M  V30 2021 H 194.317 5.79948 0.945223 0
M  V30 2022 H 195.841 5.81015 1.87759 0
M  V30 2023 H 197.255 5.71958 -0.392039 0
M  V30 2024 H 195.652 5.88676 -1.16536 0
M  V30 2025 H 196.722 4.55927 -1.65103 0
M  V30 2026 N 198.065 0.39524 1.52563 0
M  V30 2027 C 199.29 -0.187456 2.06551 0
M  V30 2028 C 199.715 -1.39249 1.26457 0
M  V30 2029 O 199.073 -1.78947 0.291151 0
M  V30 2030 C 199.121 -0.529985 3.56684 0
M  V30 2031 O 198.225 -1.62307 3.79118 0
M  V30 2032 H 197.566 -0.0202537 0.663691 0
M  V30 2033 H 200.096 0.564426 1.96661 0
M  V30 2034 H 200.106 -0.792598 4.00227 0
M  V30 2035 H 198.781 0.350987 4.14416 0
M  V30 2036 H 197.358 -1.3537 3.47461 0
M  V30 2037 N 199.544 -1.57102 0.125237 0
M  V30 2038 C 200.79 -1.95697 -0.532035 0
M  V30 2039 C 201.123 -1.009 -1.6593 0
M  V30 2040 O 200.398 -0.047347 -1.94442 0
M  V30 2041 C 200.681 -3.44181 -1.05884 0
M  V30 2042 C 200.534 -4.49752 0.0654392 0
M  V30 2043 C 201.853 -3.94655 -1.9477 0
M  V30 2044 H 198.972 -0.711571 -0.191925 0
M  V30 2045 H 201.614 -1.88923 0.20206 0
M  V30 2046 H 199.764 -3.50085 -1.68442 0
M  V30 2047 H 201.436 -4.55943 0.700982 0
M  V30 2048 H 199.679 -4.27653 0.727709 0
M  V30 2049 H 200.35 -5.50924 -0.344505 0
M  V30 2050 H 202.826 -3.91094 -1.42074 0
M  V30 2051 H 201.702 -4.99057 -2.28546 0
M  V30 2052 H 201.963 -3.35718 -2.87656 0
M  V30 2053 N 201.022 0.148545 -1.56898 0
M  V30 2054 C 202.25 0.876389 -1.87422 0
M  V30 2055 C 202.665 1.74809 -0.713256 0
M  V30 2056 O 202.022 1.79725 0.317025 0
M  V30 2057 C 202.073 1.73438 -3.17178 0
M  V30 2058 O 201.794 0.897809 -4.28802 0
M  V30 2059 C 203.295 2.56993 -3.61205 0
M  V30 2060 H 200.515 0.253489 -0.621277 0
M  V30 2061 H 203.059 0.141798 -2.04008 0
M  V30 2062 H 201.214 2.42205 -3.0235 0
M  V30 2063 H 201.628 1.48672 -5.02988 0
M  V30 2064 H 203.102 3.12773 -4.54838 0
M  V30 2065 H 203.579 3.32958 -2.86419 0
M  V30 2066 H 204.185 1.9352 -3.78722 0
M  V30 2067 N 202.5 1.5196 0.417844 0
M  V30 2068 C 203.916 1.40569 0.755816 0
M  V30 2069 C 204.116 0.503316 1.95113 0
M  V30 2070 O 203.172 -0.0341925 2.52477 0
M  V30 2071 C 204.485 2.82947 1.01791 0
M  V30 2072 C 206.033 2.92231 1.12116 0
M  V30 2073 C 206.508 4.35559 1.41608 0
M  V30 2074 N 207.999 4.38753 1.48491 0
M  V30 2075 C 208.734 5.46705 1.7292 0
M  V30 2076 N 208.23 6.64788 1.95011 0
M  V30 2077 N 210.023 5.34209 1.74863 0
M  V30 2078 H 202.174 2.09168 -0.369098 0
M  V30 2079 H 204.437 0.942409 -0.102809 0
M  V30 2080 H 204.143 3.5106 0.212081 0
M  V30 2081 H 204.017 3.23462 1.94042 0
M  V30 2082 H 206.404 2.24304 1.9176 0
M  V30 2083 H 206.485 2.55185 0.177225 0
M  V30 2084 H 206.129 5.04042 0.624848 0
M  V30 2085 H 206.059 4.70133 2.37239 0
M  V30 2086 H 208.55 3.5363 1.33244 0
M  V30 2087 H 208.863 7.42845 2.13076 0
M  V30 2088 H 207.208 6.67869 1.92293 0
M  V30 2089 H 210.399 4.40937 1.57137 0
M  V30 2090 H 210.572 6.18415 1.93563 0
M  V30 2091 N 203.978 -0.674533 1.42435 0
M  V30 2092 C 204.941 -1.76986 1.45632 0
M  V30 2093 C 205.941 -1.5708 0.343871 0
M  V30 2094 O 207.131 -1.63367 0.604709 0
M  V30 2095 C 204.263 -3.15623 1.28822 0
M  V30 2096 H 205.456 -1.75539 2.43158 0
M  V30 2097 H 203.009 -0.884189 1.28887 0
M  V30 2098 H 203.744 -3.22696 0.322193 0
M  V30 2099 H 203.529 -3.31475 2.09444 0
M  V30 2100 H 205.019 -3.95537 1.33942 0
M  V30 2101 N 205.456 -1.28612 -0.910864 0
M  V30 2102 C 206.702 -1.16106 -1.66274 0
M  V30 2103 C 207.035 0.289113 -1.92036 0
M  V30 2104 O 206.31 1.21 -1.52281 0
M  V30 2105 C 206.593 -1.96309 -3.01885 0
M  V30 2106 C 206.446 -3.49405 -2.8326 0
M  V30 2107 C 207.765 -1.78076 -4.02463 0
M  V30 2108 H 204.884 -0.423152 -0.603417 0
M  V30 2109 H 207.526 -1.57961 -1.05586 0
M  V30 2110 H 205.676 -1.60742 -3.53687 0
M  V30 2111 H 207.348 -3.94894 -2.38446 0
M  V30 2112 H 205.591 -3.74893 -2.18261 0
M  V30 2113 H 206.262 -4.00784 -3.79574 0
M  V30 2114 H 208.738 -2.0912 -3.59733 0
M  V30 2115 H 207.614 -2.36561 -4.95308 0
M  V30 2116 H 207.875 -0.733008 -4.35981 0
M  V30 2117 N 206.934 1.1197 -1.10907 0
M  V30 2118 C 208.159 1.87942 -0.877064 0
M  V30 2119 C 208.584 1.79341 0.567314 0
M  V30 2120 O 207.942 1.15184 1.40009 0
M  V30 2121 C 207.99 3.34926 -1.33629 0
M  V30 2122 O 207.094 4.09303 -0.504447 0
M  V30 2123 H 206.435 0.583785 -0.316371 0
M  V30 2124 H 208.965 1.4157 -1.47712 0
M  V30 2125 H 208.975 3.8577 -1.32837 0
M  V30 2126 H 207.65 3.40504 -2.3881 0
M  V30 2127 H 206.227 3.68393 -0.577993 0
M  V30 2128 N 208.412 0.89855 1.29475 0
M  V30 2129 C 209.642 0.538479 1.99459 0
M  V30 2130 C 210.05 -0.880922 1.67441 0
M  V30 2131 O 209.393 -1.59283 0.915127 0
M  V30 2132 C 209.455 0.649564 3.53583 0
M  V30 2133 C 209.119 2.03573 4.09154 0
M  V30 2134 C 210.116 3.00675 4.24135 0
M  V30 2135 C 207.801 2.3448 4.44212 0
M  V30 2136 C 209.795 4.26809 4.73405 0
M  V30 2137 C 207.482 3.60857 4.93179 0
M  V30 2138 C 208.48 4.56836 5.0773 0
M  V30 2139 O 208.168 5.80969 5.55635 0
M  V30 2140 H 207.9 0.205372 0.644048 0
M  V30 2141 H 210.454 1.20958 1.66007 0
M  V30 2142 H 208.684 -0.0785592 3.8662 0
M  V30 2143 H 210.373 0.29881 4.04799 0
M  V30 2144 H 211.139 2.78112 3.97339 0
M  V30 2145 H 207.018 1.60534 4.32145 0
M  V30 2146 H 210.562 5.0173 4.84678 0
M  V30 2147 H 206.459 3.83251 5.19412 0
M  V30 2148 H 207.227 5.83542 5.73952 0
M  V30 2149 N 209.89 -1.43072 0.660911 0
M  V30 2150 C 211.306 -1.56169 0.329173 0
M  V30 2151 C 211.506 -1.64317 -1.16629 0
M  V30 2152 O 210.562 -1.60245 -1.95135 0
M  V30 2153 C 211.875 -2.81873 1.04729 0
M  V30 2154 C 213.423 -2.95627 1.02828 0
M  V30 2155 C 213.898 -4.24174 1.72744 0
M  V30 2156 N 215.389 -4.31055 1.69545 0
M  V30 2157 C 216.124 -5.29304 2.20511 0
M  V30 2158 N 215.62 -6.33786 2.79799 0
M  V30 2159 N 217.413 -5.21008 2.10966 0
M  V30 2160 H 209.564 -1.36027 1.63127 0
M  V30 2161 H 211.827 -0.653823 0.686454 0
M  V30 2162 H 211.533 -2.81942 2.10242 0
M  V30 2163 H 211.407 -3.72338 0.603702 0
M  V30 2164 H 213.794 -2.95094 -0.0184742 0
M  V30 2165 H 213.875 -2.06431 1.51063 0
M  V30 2166 H 213.519 -4.25467 2.7738 0
M  V30 2167 H 213.449 -5.1228 1.2197 0
M  V30 2168 H 215.94 -3.56174 1.26288 0
M  V30 2169 H 216.253 -7.05086 3.16344 0
M  V30 2170 H 214.598 -6.34387 2.83863 0
M  V30 2171 H 217.789 -4.38301 1.64347 0
M  V30 2172 H 217.962 -5.97416 2.50993 0
M  V30 2173 N 211.368 -0.403325 -1.52352 0
M  V30 2174 C 212.331 0.413051 -2.25447 0
M  V30 2175 C 213.331 0.978513 -1.276 0
M  V30 2176 O 214.521 0.858305 -1.51587 0
M  V30 2177 C 211.653 1.58087 -3.02029 0
M  V30 2178 H 212.846 -0.227094 -2.99039 0
M  V30 2179 H 210.399 -0.155722 -1.55522 0
M  V30 2180 H 211.134 2.25804 -2.32772 0
M  V30 2181 H 210.919 1.18195 -3.73861 0
M  V30 2182 H 212.409 2.1585 -3.57489 0
M  V30 2183 N 212.846 1.57033 -0.133567 0
M  V30 2184 C 213.778 2.13176 0.841944 0
M  V30 2185 C 214.791 1.07794 1.22001 0
M  V30 2186 O 215.98 1.35117 1.16643 0
M  V30 2187 C 213.08 2.62847 2.13926 0
M  V30 2188 C 212.253 3.92486 1.93064 0
M  V30 2189 C 211.312 4.27605 3.0666 0
M  V30 2190 O 210.338 4.96168 2.78937 0
M  V30 2191 N 211.54 3.861 4.33483 0
M  V30 2192 H 214.305 2.97503 0.362192 0
M  V30 2193 H 211.866 1.61821 0.05042 0
M  V30 2194 H 213.858 2.83363 2.88942 0
M  V30 2195 H 212.428 1.83319 2.53205 0
M  V30 2196 H 211.648 3.80732 1.02159 0
M  V30 2197 H 212.936 4.77225 1.76447 0
M  V30 2198 H 212.334 3.30828 4.58878 0
M  V30 2199 H 210.891 4.11694 5.05323 0
M  V30 2200 N 214.325 -0.140222 1.56975 0
M  V30 2201 C 215.257 -1.19818 1.95388 0
M  V30 2202 C 216.27 -1.38816 0.850525 0
M  V30 2203 O 217.459 -1.38267 1.12891 0
M  V30 2204 C 214.559 -2.56189 2.21857 0
M  V30 2205 C 213.732 -2.58077 3.5315 0
M  V30 2206 C 212.791 -3.76037 3.6808 0
M  V30 2207 O 211.817 -3.60598 4.40406 0
M  V30 2208 N 213.019 -4.93763 3.05251 0
M  V30 2209 H 215.784 -0.871609 2.86746 0
M  V30 2210 H 213.345 -0.32972 1.58507 0
M  V30 2211 H 215.337 -3.33623 2.2908 0
M  V30 2212 H 213.907 -2.81111 1.36731 0
M  V30 2213 H 213.127 -1.6651 3.57307 0
M  V30 2214 H 214.415 -2.56377 4.39486 0
M  V30 2215 H 213.813 -5.09209 2.46419 0
M  V30 2216 H 212.37 -5.68949 3.18026 0
M  V30 2217 N 215.803 -1.52179 -0.40978 0
M  V30 2218 C 217.051 -1.65878 -1.15451 0
M  V30 2219 C 217.372 -0.390771 -1.91044 0
M  V30 2220 O 216.642 0.594323 -1.86667 0
M  V30 2221 H 215.222 -0.611405 -0.429177 0
M  V30 2222 H 217.884 -1.89219 -0.467134 0
M  V30 2223 H 216.98 -2.49954 -1.86894 0
M  V30 2224 N 217.281 0.66697 -1.42791 0
M  V30 2225 C 218.558 1.4234 -1.34159 0
M  V30 2226 C 218.938 2.11093 0.0172729 0
M  V30 2227 O 218.286 2.03808 1.03318 0
M  V30 2228 C 218.496 2.41942 -2.51526 0
M  V30 2229 C 219.844 3.06353 -2.93995 0
M  V30 2230 O 220.868 2.52269 -2.51473 0
M  V30 2231 O 219.727 4.04376 -3.67617 0
M  V30 2232 H 216.821 0.635277 -0.529483 0
M  V30 2233 H 219.367 0.695034 -1.54814 0
M  V30 2234 H 218.139 1.89991 -3.42081 0
M  V30 2235 H 217.762 3.22249 -2.32898 0
M  V30 2236 N 218.759 1.29093 0.90403 0
M  V30 2237 C 219.987 1.19689 1.68766 0
M  V30 2238 C 220.402 -0.243113 1.87228 0
M  V30 2239 O 219.759 -1.16326 1.40621 0
M  V30 2240 C 219.81 1.90144 3.07453 0
M  V30 2241 O 219.531 3.2852 2.89838 0
M  V30 2242 C 221.032 1.87162 4.01852 0
M  V30 2243 H 218.252 0.415035 0.527244 0
M  V30 2244 H 220.796 1.7039 1.13082 0
M  V30 2245 H 218.951 1.43289 3.59926 0
M  V30 2246 H 219.365 3.63944 3.77684 0
M  V30 2247 H 220.839 2.41032 4.96596 0
M  V30 2248 H 221.316 0.84617 4.30972 0
M  V30 2249 H 221.922 2.33741 3.5531 0
M  V30 2250 N 220.237 -1.11381 1.11499 0
M  V30 2251 C 221.653 -1.35143 0.849031 0
M  V30 2252 C 221.853 -1.94515 -0.525938 0
M  V30 2253 O 220.909 -2.1785 -1.27662 0
M  V30 2254 C 222.222 -2.28249 1.95762 0
M  V30 2255 C 223.77 -2.41812 1.98736 0
M  V30 2256 C 224.245 -3.3824 3.088 0
M  V30 2257 N 225.736 -3.45803 3.08179 0
M  V30 2258 C 226.471 -4.20358 3.89982 0
M  V30 2259 N 225.967 -4.97884 4.8175 0
M  V30 2260 N 227.76 -4.15877 3.78157 0
M  V30 2261 H 219.911 -0.712062 2.00109 0
M  V30 2262 H 222.174 -0.376025 0.870235 0
M  V30 2263 H 221.88 -1.91817 2.94787 0
M  V30 2264 H 221.754 -3.28473 1.85433 0
M  V30 2265 H 224.141 -2.77518 1.00338 0
M  V30 2266 H 224.222 -1.41437 2.13141 0
M  V30 2267 H 223.866 -3.03261 4.07425 0
M  V30 2268 H 223.796 -4.38471 2.91635 0
M  V30 2269 H 226.287 -2.90506 2.41691 0
M  V30 2270 H 226.6 -5.52142 5.40702 0
M  V30 2271 H 224.945 -4.97043 4.85771 0
M  V30 2272 H 228.136 -3.544 3.05808 0
M  V30 2273 H 228.309 -4.73723 4.42143 0
M  V30 2274 N 221.715 -0.905404 -1.28997 0
M  V30 2275 C 223.131 -0.60233 -1.47798 0
M  V30 2276 C 223.331 0.854645 -1.82478 0
M  V30 2277 O 222.387 1.63439 -1.92468 0
M  V30 2278 C 223.7 -1.53306 -2.58685 0
M  V30 2279 C 225.248 -1.53887 -2.72558 0
M  V30 2280 C 225.723 -2.45602 -3.86579 0
M  V30 2281 N 227.214 -2.43681 -3.93921 0
M  V30 2282 C 227.949 -3.11347 -4.81509 0
M  V30 2283 N 227.445 -3.88313 -5.73746 0
M  V30 2284 N 229.238 -3.00476 -4.75048 0
M  V30 2285 H 221.389 -1.84765 -1.04764 0
M  V30 2286 H 223.652 -0.792025 -0.520961 0
M  V30 2287 H 223.358 -2.57141 -2.39941 0
M  V30 2288 H 223.232 -1.25787 -3.55609 0
M  V30 2289 H 225.619 -0.507941 -2.90696 0
M  V30 2290 H 225.7 -1.85447 -1.76191 0
M  V30 2291 H 225.344 -3.48792 -3.69197 0
M  V30 2292 H 225.274 -2.11349 -4.82327 0
M  V30 2293 H 227.765 -1.87767 -3.27951 0
M  V30 2294 H 228.078 -4.36985 -6.37389 0
M  V30 2295 H 226.423 -3.92419 -5.73614 0
M  V30 2296 H 229.614 -2.39858 -4.01977 0
M  V30 2297 H 229.787 -3.53485 -5.43095 0
M  V30 2298 N 223.193 1.4272 -0.668489 0
M  V30 2299 C 224.156 2.292 0.00448567 0
M  V30 2300 C 225.156 1.43001 0.735339 0
M  V30 2301 O 226.346 1.64461 0.57429 0
M  V30 2302 C 223.478 3.25375 1.01705 0
M  V30 2303 H 224.671 2.90199 -0.756608 0
M  V30 2304 H 222.224 1.50254 -0.430506 0
M  V30 2305 H 222.959 2.69301 1.80686 0
M  V30 2306 H 222.744 3.88944 0.496463 0
M  V30 2307 H 224.234 3.90245 1.48655 0
M  V30 2308 N 224.671 0.411399 1.52136 0
M  V30 2309 C 225.917 -0.163888 2.02137 0
M  V30 2310 C 226.25 -1.44597 1.29636 0
M  V30 2311 O 225.525 -1.90272 0.403353 0
M  V30 2312 C 225.808 -0.40927 3.57767 0
M  V30 2313 C 225.661 0.889643 4.40914 0
M  V30 2314 C 226.98 -1.19042 4.23694 0
M  V30 2315 H 224.099 -0.0580896 0.734707 0
M  V30 2316 H 226.741 0.54531 1.82007 0
M  V30 2317 H 224.891 -1.0134 3.7505 0
M  V30 2318 H 226.563 1.52575 4.35337 0
M  V30 2319 H 224.806 1.50011 4.07037 0
M  V30 2320 H 225.477 0.672314 5.4789 0
M  V30 2321 H 227.953 -0.678942 4.10524 0
M  V30 2322 H 226.829 -1.33086 5.32522 0
M  V30 2323 H 227.09 -2.21166 3.82803 0
M  V30 2324 N 226.149 -1.5696 0.141893 0
M  V30 2325 C 227.565 -1.58151 -0.21456 0
M  V30 2326 C 227.765 -1.1559 -1.65049 0
M  V30 2327 O 226.821 -0.853832 -2.37626 0
M  V30 2328 C 228.134 -3.00674 0.0395576 0
M  V30 2329 C 229.682 -3.1299 -0.0245529 0
M  V30 2330 C 230.157 -4.57554 0.202167 0
M  V30 2331 N 231.648 -4.62961 0.148919 0
M  V30 2332 C 232.383 -5.7262 0.298924 0
M  V30 2333 N 231.879 -6.90947 0.50637 0
M  V30 2334 N 233.672 -5.61601 0.236886 0
M  V30 2335 H 225.823 -1.8292 1.07953 0
M  V30 2336 H 228.086 -0.846425 0.42693 0
M  V30 2337 H 227.792 -3.36183 1.03315 0
M  V30 2338 H 227.666 -3.70981 -0.682143 0
M  V30 2339 H 230.053 -2.77326 -1.00869 0
M  V30 2340 H 230.134 -2.4518 0.729396 0
M  V30 2341 H 229.778 -4.93922 1.18338 0
M  V30 2342 H 229.708 -5.23484 -0.572044 0
M  V30 2343 H 232.199 -3.77899 -0.00697015 0
M  V30 2344 H 232.512 -7.7038 0.611076 0
M  V30 2345 H 230.857 -6.92878 0.542628 0
M  V30 2346 H 234.048 -4.68039 0.0756209 0
M  V30 2347 H 234.221 -6.47015 0.357227 0
M  V30 2348 N 227.627 0.131896 -1.57047 0
M  V30 2349 C 228.574 1.16236 -1.99393 0
M  V30 2350 C 229.544 1.41863 -0.863943 0
M  V30 2351 O 230.729 1.53946 -1.12718 0
M  V30 2352 C 227.869 2.48708 -2.39245 0
M  V30 2353 C 226.982 2.30127 -3.65603 0
M  V30 2354 C 226.117 3.55738 -3.94492 0
M  V30 2355 C 225.156 3.32259 -5.14073 0
M  V30 2356 N 224.293 4.50039 -5.38896 0
M  V30 2357 H 229.133 0.794251 -2.87221 0
M  V30 2358 H 226.67 0.380707 -1.42088 0
M  V30 2359 H 228.628 3.25969 -2.60384 0
M  V30 2360 H 227.258 2.83437 -1.54478 0
M  V30 2361 H 226.31 1.43845 -3.52154 0
M  V30 2362 H 227.622 2.08746 -4.5302 0
M  V30 2363 H 226.776 4.41423 -4.1621 0
M  V30 2364 H 225.515 3.80138 -3.05526 0
M  V30 2365 H 224.52 2.44963 -4.92212 0
M  V30 2366 H 225.745 3.09242 -6.04604 0
M  V30 2367 H 223.691 4.74584 -4.52886 0
M  V30 2368 H 223.608 4.31716 -6.2061 0
M  V30 2369 H 224.876 5.36895 -5.65123 0
M  V30 2370 N 229.106 1.52395 0.401703 0
M  V30 2371 C 230.039 1.70999 1.51111 0
M  V30 2372 C 231.017 0.55765 1.52738 0
M  V30 2373 O 232.201 0.785912 1.71335 0
M  V30 2374 C 229.328 1.75607 2.8962 0
M  V30 2375 C 228.374 2.97227 3.05873 0
M  V30 2376 S 229.207 4.57439 2.78405 0
M  V30 2377 C 230.363 4.64844 4.19131 0
M  V30 2378 H 230.596 2.6483 1.35102 0
M  V30 2379 H 228.129 1.42527 0.593762 0
M  V30 2380 H 230.087 1.78947 3.69443 0
M  V30 2381 H 228.748 0.828914 3.02965 0
M  V30 2382 H 227.941 2.96955 4.07227 0
M  V30 2383 H 227.543 2.91813 2.33925 0
M  V30 2384 H 229.835 4.42677 5.12877 0
M  V30 2385 H 230.778 5.66807 4.24424 0
M  V30 2386 H 231.186 3.93804 4.04448 0
M  V30 2387 N 230.584 -0.659388 1.43143 0
M  V30 2388 C 231.514 -1.78422 1.50625 0
M  V30 2389 C 232.495 -1.66216 0.361443 0
M  V30 2390 O 233.68 -1.85404 0.577834 0
M  V30 2391 C 230.81 -3.16815 1.42287 0
M  V30 2392 C 229.764 -3.43777 2.54954 0
M  V30 2393 C 229.09 -4.81905 2.31671 0
M  V30 2394 C 230.39 -3.39134 3.97222 0
M  V30 2395 H 232.084 -1.72417 2.44771 0
M  V30 2396 H 229.63 -0.828084 1.17808 0
M  V30 2397 H 231.583 -3.95253 1.46127 0
M  V30 2398 H 230.307 -3.23534 0.446435 0
M  V30 2399 H 228.966 -2.67707 2.50457 0
M  V30 2400 H 228.614 -4.85294 1.32284 0
M  V30 2401 H 228.314 -5.00906 3.07192 0
M  V30 2402 H 229.838 -5.62609 2.37284 0
M  V30 2403 H 231.252 -4.07518 4.03239 0
M  V30 2404 H 229.649 -3.69671 4.72719 0
M  V30 2405 H 230.719 -2.37426 4.22797 0
M  V30 2406 N 232.062 -1.29571 -0.897171 0
M  V30 2407 C 232.992 -1.17473 -2.01798 0
M  V30 2408 C 233.973 -0.068323 -1.69963 0
M  V30 2409 O 235.158 -0.248239 -1.92607 0
M  V30 2410 C 232.288 -0.853099 -3.36659 0
M  V30 2411 C 231.242 -1.9161 -3.82713 0
M  V30 2412 C 230.568 -1.44773 -5.14728 0
M  V30 2413 C 231.868 -3.32535 -4.02763 0
M  V30 2414 H 233.562 -2.11237 -2.12177 0
M  V30 2415 H 231.108 -1.01699 -1.01948 0
M  V30 2416 H 233.061 -0.755165 -4.14578 0
M  V30 2417 H 231.785 0.120236 -3.26379 0
M  V30 2418 H 230.444 -2.00346 -3.07013 0
M  V30 2419 H 230.092 -0.462995 -5.00865 0
M  V30 2420 H 229.792 -2.15865 -5.46513 0
M  V30 2421 H 231.316 -1.36334 -5.95185 0
M  V30 2422 H 232.73 -3.26626 -4.71156 0
M  V30 2423 H 231.127 -4.01607 -4.45905 0
M  V30 2424 H 232.197 -3.75326 -3.07016 0
M  V30 2425 N 233.54 1.10788 -1.12088 0
M  V30 2426 C 234.786 1.82942 -0.875226 0
M  V30 2427 C 235.119 1.84779 0.597538 0
M  V30 2428 O 234.394 1.30578 1.44152 0
M  V30 2429 C 234.677 3.29789 -1.44606 0
M  V30 2430 C 234.53 3.36307 -2.98693 0
M  V30 2431 C 235.849 4.26064 -1.10261 0
M  V30 2432 H 232.968 0.664195 -0.319397 0
M  V30 2433 H 235.61 1.29867 -1.38689 0
M  V30 2434 H 233.76 3.75118 -1.01089 0
M  V30 2435 H 235.432 2.99487 -3.50864 0
M  V30 2436 H 233.675 2.76318 -3.34411 0
M  V30 2437 H 234.346 4.39694 -3.33726 0
M  V30 2438 H 236.822 3.88951 -1.4784 0
M  V30 2439 H 235.698 5.27183 -1.52869 0
M  V30 2440 H 235.959 4.42098 -0.0142953 0
M  V30 2441 N 235.018 0.912232 1.28515 0
M  V30 2442 C 236.264 0.554851 1.95686 0
M  V30 2443 C 236.619 -0.89138 1.70506 0
M  V30 2444 O 235.912 -1.62529 1.01464 0
M  V30 2445 C 236.106 0.798392 3.48368 0
M  V30 2446 C 235.935 2.26674 3.88393 0
M  V30 2447 C 234.705 2.91657 4.12631 0
M  V30 2448 C 236.903 3.24303 3.99164 0
M  V30 2449 N 234.885 4.28805 4.39317 0
M  V30 2450 C 236.256 4.4661 4.30046 0
M  V30 2451 C 238.311 3.19723 3.81683 0
M  V30 2452 C 237.014 5.64915 4.45268 0
M  V30 2453 C 239.04 4.37325 3.98121 0
M  V30 2454 C 238.402 5.58406 4.29375 0
M  V30 2455 H 234.501 0.252876 0.739985 0
M  V30 2456 H 237.085 1.17565 1.55199 0
M  V30 2457 H 235.256 0.20688 3.87849 0
M  V30 2458 H 236.988 0.405193 4.02666 0
M  V30 2459 H 233.743 2.42393 4.06869 0
M  V30 2460 H 234.167 4.99712 4.56746 0
M  V30 2461 H 238.809 2.27191 3.56573 0
M  V30 2462 H 236.527 6.57927 4.6921 0
M  V30 2463 H 240.113 4.35282 3.86033 0
M  V30 2464 H 238.993 6.47889 4.41825 0
M  V30 2465 N 236.496 -1.42363 0.676048 0
M  V30 2466 C 237.742 -2.0182 0.199125 0
M  V30 2467 C 238.075 -1.53339 -1.19168 0
M  V30 2468 O 237.35 -0.736124 -1.80032 0
M  V30 2469 C 237.633 -3.59331 0.235144 0
M  V30 2470 C 237.486 -4.17989 1.66149 0
M  V30 2471 C 238.805 -4.3813 -0.41595 0
M  V30 2472 H 235.924 -0.733293 0.0738311 0
M  V30 2473 H 238.566 -1.69368 0.86107 0
M  V30 2474 H 236.716 -3.87109 -0.328487 0
M  V30 2475 H 238.388 -4.0116 2.27747 0
M  V30 2476 H 236.631 -3.7377 2.20178 0
M  V30 2477 H 237.302 -5.27126 1.63837 0
M  V30 2478 H 239.778 -4.16051 0.0638529 0
M  V30 2479 H 238.654 -5.47717 -0.360115 0
M  V30 2480 H 238.915 -4.16101 -1.49373 0
M  V30 2481 N 237.974 -0.419461 -1.51915 0
M  V30 2482 C 238.904 0.391813 -2.30189 0
M  V30 2483 C 239.885 1.03699 -1.34836 0
M  V30 2484 O 241.07 1.04403 -1.63748 0
M  V30 2485 C 238.2 1.50312 -3.13087 0
M  V30 2486 C 237.154 0.9824 -4.16573 0
M  V30 2487 C 236.48 2.18809 -4.8788 0
M  V30 2488 C 237.78 0.0292356 -5.22292 0
M  V30 2489 H 239.474 -0.26135 -2.98257 0
M  V30 2490 H 237.02 -0.127134 -1.43438 0
M  V30 2491 H 238.973 2.07773 -3.66617 0
M  V30 2492 H 237.697 2.18431 -2.42807 0
M  V30 2493 H 236.356 0.430119 -3.64068 0
M  V30 2494 H 236.004 2.85507 -4.14119 0
M  V30 2495 H 235.704 1.84615 -5.57845 0
M  V30 2496 H 237.228 2.76858 -5.44226 0
M  V30 2497 H 238.642 0.512976 -5.71 0
M  V30 2498 H 237.039 -0.2244 -5.9968 0
M  V30 2499 H 238.109 -0.912931 -4.76228 0
M  V30 2500 N 239.452 1.56882 -0.150215 0
M  V30 2501 C 240.415 2.1573 0.774157 0
M  V30 2502 C 241.415 1.0999 1.17298 0
M  V30 2503 O 242.605 1.35613 1.09338 0
M  V30 2504 C 239.737 2.72302 2.05096 0
M  V30 2505 H 240.93 2.98752 0.262201 0
M  V30 2506 H 238.483 1.55985 0.099248 0
M  V30 2507 H 239.218 1.92956 2.6065 0
M  V30 2508 H 239.003 3.49665 1.77416 0
M  V30 2509 H 240.493 3.17632 2.71109 0
M  V30 2510 N 240.93 -0.123565 1.57115 0
M  V30 2511 C 242.177 -0.832153 1.84612 0
M  V30 2512 C 242.505 -1.80093 0.734627 0
M  V30 2513 O 241.76 -1.93766 -0.27442 0
M  V30 2514 C 242.059 -1.62016 3.18568 0
M  V30 2515 C 241.725 -0.796084 4.43817 0
M  V30 2516 C 240.387 -0.568816 4.77826 0
M  V30 2517 C 242.739 -0.221364 5.2073 0
M  V30 2518 C 240.067 0.243499 5.86194 0
M  V30 2519 C 242.419 0.578117 6.29953 0
M  V30 2520 C 241.083 0.815744 6.62497 0
M  V30 2521 H 240.353 -0.304507 0.675542 0
M  V30 2522 H 243 -0.0947248 1.91266 0
M  V30 2523 H 241.305 -2.42837 3.0747 0
M  V30 2524 H 243.002 -2.17231 3.37064 0
M  V30 2525 H 239.592 -0.983307 4.17168 0
M  V30 2526 H 243.776 -0.384173 4.94811 0
M  V30 2527 H 239.032 0.436871 6.09837 0
M  V30 2528 H 243.206 1.03046 6.88734 0
M  V30 2529 H 240.833 1.44701 7.46301 0
M  V30 2530 N 242.408 -1.52605 -0.393616 0
M  V30 2531 C 243.338 -1.80022 -1.48709 0
M  V30 2532 C 244.319 -0.651995 -1.57108 0
M  V30 2533 O 245.504 -0.89913 -1.72132 0
M  V30 2534 C 242.634 -1.96492 -2.86371 0
M  V30 2535 C 241.588 -3.12161 -2.92813 0
M  V30 2536 C 240.914 -3.13877 -4.3288 0
M  V30 2537 C 242.214 -4.51322 -2.6288 0
M  V30 2538 H 243.908 -2.71589 -1.26015 0
M  V30 2539 H 241.454 -1.30684 -0.604778 0
M  V30 2540 H 243.407 -2.14255 -3.62867 0
M  V30 2541 H 242.131 -1.01611 -3.10391 0
M  V30 2542 H 240.79 -2.94173 -2.18764 0
M  V30 2543 H 240.438 -2.16687 -4.53933 0
M  V30 2544 H 240.138 -3.91576 -4.38112 0
M  V30 2545 H 241.662 -3.33789 -5.1129 0
M  V30 2546 H 243.076 -4.69435 -3.29096 0
M  V30 2547 H 241.473 -5.31053 -2.79468 0
M  V30 2548 H 242.543 -4.58353 -1.58242 0
M  V30 2549 N 243.887 0.651787 -1.4349 0
M  V30 2550 C 244.817 1.77621 -1.51569 0
M  V30 2551 C 245.798 1.66022 -0.370253 0
M  V30 2552 O 246.983 1.85095 -0.587658 0
M  V30 2553 C 244.113 3.16056 -1.43966 0
M  V30 2554 C 243.067 3.4242 -2.56774 0
M  V30 2555 C 242.393 4.8067 -2.34223 0
M  V30 2556 C 243.693 3.37023 -3.99015 0
M  V30 2557 H 245.387 1.71117 -2.45681 0
M  V30 2558 H 242.933 0.821825 -1.18246 0
M  V30 2559 H 244.886 3.94472 -1.48221 0
M  V30 2560 H 243.61 3.23293 -0.463586 0
M  V30 2561 H 242.269 2.66375 -2.51873 0
M  V30 2562 H 241.917 4.84585 -1.34856 0
M  V30 2563 H 241.617 4.9927 -3.09844 0
M  V30 2564 H 243.141 5.61342 -2.40265 0
M  V30 2565 H 244.555 4.05374 -4.05395 0
M  V30 2566 H 242.952 3.67159 -4.74673 0
M  V30 2567 H 244.022 2.3518 -4.2405 0
M  V30 2568 N 245.365 1.30045 0.890287 0
M  V30 2569 C 246.595 1.21296 1.67245 0
M  V30 2570 C 247.003 -0.227471 1.87828 0
M  V30 2571 O 246.346 -1.16296 1.422 0
M  V30 2572 C 246.408 1.86519 3.07329 0
M  V30 2573 C 246.072 3.35837 3.09939 0
M  V30 2574 C 247.069 4.31915 2.89389 0
M  V30 2575 C 244.754 3.77196 3.31706 0
M  V30 2576 C 246.748 5.67325 2.90552 0
M  V30 2577 C 244.435 5.12725 3.32499 0
M  V30 2578 C 245.433 6.076 3.11947 0
M  V30 2579 O 245.121 7.40655 3.12547 0
M  V30 2580 H 244.853 0.4211 0.528821 0
M  V30 2581 H 247.407 1.72111 1.12103 0
M  V30 2582 H 245.637 1.30228 3.64112 0
M  V30 2583 H 247.326 1.71963 3.67673 0
M  V30 2584 H 248.092 4.01294 2.72375 0
M  V30 2585 H 243.971 3.03796 3.4674 0
M  V30 2586 H 247.515 6.41354 2.74429 0
M  V30 2587 H 243.412 5.42988 3.49047 0
M  V30 2588 H 244.18 7.49577 3.28749 0
M  V30 2589 N 246.843 -1.10192 1.12674 0
M  V30 2590 C 248.091 -1.81845 0.881861 0
M  V30 2591 C 248.412 -1.85737 -0.593867 0
M  V30 2592 O 247.682 -1.33724 -1.4316 0
M  V30 2593 H 246.262 -0.673432 0.323261 0
M  V30 2594 H 248.924 -1.33316 1.42172 0
M  V30 2595 H 248.02 -2.85288 1.2656 0
M  V30 2596 N 248.321 -0.919034 -1.28029 0
M  V30 2597 C 249.732 -0.600735 -1.76771 0
M  V30 2598 C 250.083 0.884024 -1.75156 0
M  V30 2599 O 249.208 1.69163 -1.34956 0
M  V30 2600 C 249.803 -1.08372 -3.21 0
M  V30 2601 C 248.362 -0.816248 -3.67443 0
M  V30 2602 C 247.509 -1.24742 -2.47658 0
M  V30 2603 H 250.46 -1.09974 -1.14418 0
M  V30 2604 H 250.481 -0.427512 -3.78091 0
M  V30 2605 H 249.993 -2.16437 -3.22144 0
M  V30 2606 H 248.094 0.250968 -3.71754 0
M  V30 2607 H 248.207 -1.4277 -4.57333 0
M  V30 2608 H 246.571 -0.666083 -2.45836 0
M  V30 2609 H 247.354 -2.33653 -2.51518 0
M  V30 2610 N 249.799 1.42003 -0.683588 0
M  V30 2611 C 250.762 2.29191 -0.0198243 0
M  V30 2612 C 251.762 1.43773 0.72013 0
M  V30 2613 O 252.952 1.65061 0.556815 0
M  V30 2614 C 250.084 3.26435 0.982487 0
M  V30 2615 H 251.277 2.8938 -0.787345 0
M  V30 2616 H 248.83 1.49789 -0.446418 0
M  V30 2617 H 249.565 2.71203 1.77819 0
M  V30 2618 H 249.35 3.89449 0.455182 0
M  V30 2619 H 250.84 3.918 1.44508 0
M  V30 2620 N 251.277 0.427512 1.51691 0
M  V30 2621 C 252.526 -0.143679 2.01188 0
M  V30 2622 C 252.839 -1.44642 1.31674 0
M  V30 2623 O 254.045 -2.09997 1.72086 0
M  V30 2624 C 252.501 -0.306602 3.58592 0
M  V30 2625 C 252.109 0.985125 4.37035 0
M  V30 2626 C 253.853 -0.832091 4.16265 0
M  V30 2627 C 251.76 0.788382 5.86122 0
M  V30 2628 H 250.69 -0.0574701 0.751807 0
M  V30 2629 H 253.341 0.555772 1.74881 0
M  V30 2630 H 251.723 -1.06882 3.81303 0
M  V30 2631 H 252.897 1.75492 4.26074 0
M  V30 2632 H 251.212 1.4384 3.90767 0
M  V30 2633 H 253.809 -0.995617 5.25349 0
M  V30 2634 H 254.152 -1.81186 3.74803 0
M  V30 2635 H 254.685 -0.128444 3.97593 0
M  V30 2636 H 251.424 1.74025 6.31978 0
M  V30 2637 H 250.944 0.0582143 5.99772 0
M  V30 2638 H 252.623 0.437722 6.45518 0
M  V30 2639 N 252.755 -1.56801 0.158532 0
M  V30 2640 C 253.685 -2.20347 -0.772609 0
M  V30 2641 C 254.666 -1.15518 -1.24859 0
M  V30 2642 O 255.851 -1.43902 -1.30406 0
M  V30 2643 C 252.981 -2.83417 -2.00729 0
M  V30 2644 C 251.935 -3.94174 -1.66765 0
M  V30 2645 C 251.261 -4.44233 -2.97592 0
M  V30 2646 C 252.561 -5.14392 -0.905447 0
M  V30 2647 H 254.255 -2.98413 -0.242959 0
M  V30 2648 H 251.801 -1.43537 -0.115419 0
M  V30 2649 H 253.754 -3.26543 -2.6636 0
M  V30 2650 H 252.478 -2.02701 -2.56086 0
M  V30 2651 H 251.137 -3.51684 -1.03508 0
M  V30 2652 H 250.785 -3.60325 -3.50963 0
M  V30 2653 H 250.485 -5.18945 -2.75626 0
M  V30 2654 H 252.009 -4.90037 -3.64274 0
M  V30 2655 H 253.423 -5.5429 -1.46408 0
M  V30 2656 H 251.82 -5.9494 -0.7853 0
M  V30 2657 H 252.89 -4.84795 0.100668 0
M  V30 2658 N 254.233 0.115231 -1.57178 0
M  V30 2659 C 255.458 0.840354 -1.89612 0
M  V30 2660 C 255.883 1.72464 -0.750845 0
M  V30 2661 O 255.241 1.78826 0.298478 0
M  V30 2662 C 255.289 1.64654 -3.20814 0
M  V30 2663 O 254.393 2.7538 -3.06985 0
M  V30 2664 H 253.734 0.232158 -0.622092 0
M  V30 2665 H 256.264 0.0964977 -2.04372 0
M  V30 2666 H 256.274 2.03499 -3.53627 0
M  V30 2667 H 254.949 0.997416 -4.03763 0
M  V30 2668 H 253.526 2.3971 -2.85646 0
M  V30 2669 N 255.711 1.52812 0.385517 0
M  V30 2670 C 256.957 1.69225 1.12847 0
M  V30 2671 C 257.312 0.42864 1.87564 0
M  V30 2672 O 256.605 -0.57779 1.8268 0
M  V30 2673 C 256.799 2.86856 2.13187 0
M  V30 2674 C 256.628 4.24535 1.48325 0
M  V30 2675 C 255.398 4.89701 1.24585 0
M  V30 2676 C 257.596 5.05794 0.931501 0
M  V30 2677 N 255.578 6.11353 0.558644 0
M  V30 2678 C 256.949 6.1888 0.372552 0
M  V30 2679 C 259.004 4.90963 0.828248 0
M  V30 2680 C 257.707 7.18757 -0.279556 0
M  V30 2681 C 259.733 5.91095 0.189956 0
M  V30 2682 C 259.095 7.03489 -0.358207 0
M  V30 2683 H 255.194 0.67268 0.39878 0
M  V30 2684 H 257.778 1.9017 0.417528 0
M  V30 2685 H 255.949 2.67484 2.81614 0
M  V30 2686 H 257.681 2.92188 2.80014 0
M  V30 2687 H 254.436 4.48485 1.52178 0
M  V30 2688 H 254.86 6.76606 0.230983 0
M  V30 2689 H 259.502 4.04274 1.23784 0
M  V30 2690 H 257.22 8.05052 -0.701152 0
M  V30 2691 H 260.806 5.81694 0.111264 0
M  V30 2692 H 259.686 7.79642 -0.844314 0
M  V30 2693 N 257.189 -0.644168 1.43834 0
M  V30 2694 C 258.099 -1.78563 1.52159 0
M  V30 2695 C 259.115 -1.69147 0.408069 0
M  V30 2696 O 260.291 -1.90156 0.663524 0
M  V30 2697 C 257.356 -3.14888 1.45073 0
M  V30 2698 C 256.417 -3.36034 2.6717 0
M  V30 2699 C 255.65 -4.65855 2.60413 0
M  V30 2700 O 255.873 -5.45805 1.65689 0
M  V30 2701 O 254.807 -4.88918 3.5106 0
M  V30 2702 H 258.633 -1.74494 2.48567 0
M  V30 2703 H 256.218 -0.80378 1.25935 0
M  V30 2704 H 258.1 -3.96179 1.43597 0
M  V30 2705 H 256.775 -3.19528 0.518037 0
M  V30 2706 H 255.682 -2.54472 2.74217 0
M  V30 2707 H 257.015 -3.36247 3.59442 0
M  V30 2708 N 258.668 -1.30515 -0.883378 0
M  V30 2709 C 259.898 -1.22182 -1.66599 0
M  V30 2710 C 260.306 0.217507 -1.87946 0
M  V30 2711 O 259.649 1.1554 -1.42815 0
M  V30 2712 C 259.711 -1.88146 -3.06335 0
M  V30 2713 C 259.375 -3.37476 -3.08154 0
M  V30 2714 C 260.372 -4.33443 -2.87094 0
M  V30 2715 C 258.057 -3.7895 -3.29701 0
M  V30 2716 C 260.051 -5.68858 -2.8754 0
M  V30 2717 C 257.738 -5.14482 -3.29776 0
M  V30 2718 C 258.736 -6.09246 -3.0872 0
M  V30 2719 O 258.424 -7.42302 -3.08615 0
M  V30 2720 H 258.156 -0.423898 -0.52658 0
M  V30 2721 H 260.71 -1.72703 -1.11188 0
M  V30 2722 H 258.94 -1.32157 -3.63416 0
M  V30 2723 H 260.629 -1.7391 -3.66756 0
M  V30 2724 H 261.395 -4.02733 -2.70243 0
M  V30 2725 H 257.274 -3.05631 -3.45124 0
M  V30 2726 H 260.818 -6.428 -2.71024 0
M  V30 2727 H 256.715 -5.44832 -3.46163 0
M  V30 2728 H 257.483 -7.5131 -3.24769 0
M  V30 2729 N 260.146 1.09593 -1.13257 0
M  V30 2730 C 261.076 2.18214 -0.830946 0
M  V30 2731 C 262.057 1.68812 0.208966 0
M  V30 2732 O 263.242 1.9408 0.0682666 0
M  V30 2733 C 260.372 3.46051 -0.294296 0
M  V30 2734 C 259.326 4.08778 -1.26826 0
M  V30 2735 C 258.652 5.31419 -0.591449 0
M  V30 2736 C 259.952 4.51476 -2.62615 0
M  V30 2737 H 261.646 2.43703 -1.73923 0
M  V30 2738 H 259.192 1.17128 -0.837675 0
M  V30 2739 H 261.145 4.2134 -0.0709606 0
M  V30 2740 H 259.869 3.20079 0.649366 0
M  V30 2741 H 258.528 3.35505 -1.47756 0
M  V30 2742 H 258.176 5.01727 0.357633 0
M  V30 2743 H 257.876 5.74341 -1.24123 0
M  V30 2744 H 259.4 6.09433 -0.377355 0
M  V30 2745 H 260.814 5.17999 -2.45663 0
M  V30 2746 H 259.211 5.05277 -3.23752 0
M  V30 2747 H 260.281 3.63962 -3.20406 0
M  V30 2748 N 261.624 0.925811 1.2754 0
M  V30 2749 C 262.849 0.580924 1.99098 0
M  V30 2750 C 263.274 -0.833555 1.68622 0
M  V30 2751 O 262.632 -1.55903 0.925422 0
M  V30 2752 C 262.68 0.811186 3.51358 0
M  V30 2753 O 261.784 -0.124129 4.12213 0
M  V30 2754 H 261.125 0.223873 0.625122 0
M  V30 2755 H 263.655 1.24455 1.62395 0
M  V30 2756 H 263.665 0.72601 4.01489 0
M  V30 2757 H 262.34 1.84227 3.72872 0
M  V30 2758 H 260.917 0.0108006 3.72898 0
M  V30 2759 N 263.102 -1.41638 0.69111 0
M  V30 2760 C 264.35 -2.00902 0.219758 0
M  V30 2761 C 264.671 -1.54994 -1.18329 0
M  V30 2762 O 263.941 -0.778628 -1.79762 0
M  V30 2763 H 262.521 -0.74289 0.0782558 0
M  V30 2764 H 265.183 -1.73327 0.891271 0
M  V30 2765 H 264.279 -3.11224 0.233708 0
M  V30 2766 N 264.58 -0.43555 -1.51462 0
M  V30 2767 C 265.828 0.131254 -2.01673 0
M  V30 2768 C 266.149 1.43368 -1.32177 0
M  V30 2769 O 265.419 1.90524 -0.455769 0
M  V30 2770 H 263.999 0.0514954 -0.745223 0
M  V30 2771 H 266.661 -0.577847 -1.86137 0
M  V30 2772 H 265.757 0.308446 -3.10572 0
M  V30 2773 N 266.058 1.56714 -0.166846 0
M  V30 2774 C 267.283 2.01557 0.488833 0
M  V30 2775 C 267.708 1.0463 1.56314 0
M  V30 2776 O 267.066 0.0251304 1.81283 0
M  V30 2777 C 267.114 3.4503 1.04818 0
M  V30 2778 O 266.218 3.51163 2.16236 0
M  V30 2779 H 265.559 0.653516 0.117526 0
M  V30 2780 H 268.089 2.02818 -0.269421 0
M  V30 2781 H 268.099 3.84243 1.37191 0
M  V30 2782 H 266.774 4.15077 0.261572 0
M  V30 2783 H 265.351 3.23807 1.84942 0
M  V30 2784 N 267.536 -0.106894 1.57237 0
M  V30 2785 C 268.761 -0.830287 1.90055 0
M  V30 2786 C 269.186 -1.72064 0.75998 0
M  V30 2787 O 268.544 -1.78982 -0.288991 0
M  V30 2788 C 268.592 -1.6295 3.21683 0
M  V30 2789 O 267.696 -2.73748 3.08441 0
M  V30 2790 H 267.037 -0.228855 0.623315 0
M  V30 2791 H 269.567 -0.085658 2.04421 0
M  V30 2792 H 269.577 -2.01621 3.54701 0
M  V30 2793 H 268.252 -0.975989 4.04286 0
M  V30 2794 H 266.829 -2.38192 2.86913 0
M  V30 2795 N 269.014 -1.53014 -0.377408 0
M  V30 2796 C 270.263 -1.67845 -1.11853 0
M  V30 2797 C 270.576 -0.430625 -1.90801 0
M  V30 2798 O 271.782 -0.459261 -2.67587 0
M  V30 2799 C 270.238 -2.96668 -2.03756 0
M  V30 2800 C 269.846 -4.28671 -1.30175 0
M  V30 2801 C 271.59 -3.20865 -2.77932 0
M  V30 2802 C 269.497 -5.48591 -2.20911 0
M  V30 2803 H 268.427 -0.625343 -0.421263 0
M  V30 2804 H 271.078 -1.79514 -0.380409 0
M  V30 2805 H 269.46 -2.78773 -2.8125 0
M  V30 2806 H 270.634 -4.57157 -0.578259 0
M  V30 2807 H 268.949 -4.10825 -0.679108 0
M  V30 2808 H 271.546 -4.07642 -3.46024 0
M  V30 2809 H 271.889 -2.36424 -3.4265 0
M  V30 2810 H 272.422 -3.39379 -2.07525 0
M  V30 2811 H 269.161 -6.35474 -1.6079 0
M  V30 2812 H 268.681 -5.244 -2.91144 0
M  V30 2813 H 270.36 -5.8292 -2.80736 0
M  V30 2814 N 270.492 0.636531 -1.44174 0
M  V30 2815 C 271.903 1.21806 -1.41493 0
M  V30 2816 C 272.254 1.95785 -0.1275 0
M  V30 2817 O 271.379 2.02147 0.772376 0
M  V30 2818 C 271.974 2.21551 -2.56321 0
M  V30 2819 C 270.533 2.75143 -2.56853 0
M  V30 2820 C 269.68 1.50052 -2.33195 0
M  V30 2821 H 272.631 0.427531 -1.52833 0
M  V30 2822 H 272.652 3.0405 -2.28765 0
M  V30 2823 H 272.164 1.67679 -3.50008 0
M  V30 2824 H 270.265 3.33033 -1.67093 0
M  V30 2825 H 270.378 3.2155 -3.55165 0
M  V30 2826 H 268.742 1.77993 -1.82183 0
M  V30 2827 H 269.525 0.980903 -3.28988 0
M  V30 2828 N 271.97 1.30982 0.876444 0
M  V30 2829 C 272.88 1.2003 2.01569 0
M  V30 2830 C 273.896 0.11838 1.73597 0
M  V30 2831 O 275.072 0.33495 1.98595 0
M  V30 2832 C 272.137 0.901637 3.34771 0
M  V30 2833 C 271.198 2.06979 3.76109 0
M  V30 2834 C 270.431 1.78529 5.02954 0
M  V30 2835 O 270.654 0.717296 5.65872 0
M  V30 2836 O 269.588 2.64019 5.40905 0
M  V30 2837 H 273.414 2.15753 2.13739 0
M  V30 2838 H 270.999 1.10658 1.00375 0
M  V30 2839 H 272.881 0.750645 4.1466 0
M  V30 2840 H 271.556 -0.0256141 3.2369 0
M  V30 2841 H 270.463 2.27616 2.96887 0
M  V30 2842 H 271.796 2.97907 3.91807 0
M  V30 2843 N 273.449 -1.08991 1.13837 0
M  V30 2844 C 274.697 -1.80899 0.901098 0
M  V30 2845 C 275.018 -1.86356 -0.574134 0
M  V30 2846 O 274.288 -1.35235 -1.41733 0
M  V30 2847 H 272.868 -0.669966 0.330386 0
M  V30 2848 H 275.53 -1.318 1.43578 0
M  V30 2849 H 274.626 -2.83929 1.29578 0
M  V30 2850 N 274.927 -0.932562 -1.27047 0
M  V30 2851 C 275.877 -0.406392 -2.24349 0
M  V30 2852 C 276.861 0.492066 -1.53191 0
M  V30 2853 O 278.053 0.328717 -1.73921 0
M  V30 2854 C 275.182 0.335214 -3.41659 0
M  V30 2855 C 274.268 -0.58004 -4.20115 0
M  V30 2856 N 274.659 -1.70203 -4.76303 0
M  V30 2857 C 272.957 -0.383974 -4.44344 0
M  V30 2858 C 273.658 -2.27167 -5.35509 0
M  V30 2859 N 272.634 -1.56068 -5.20715 0
M  V30 2860 H 276.436 -1.26299 -2.65378 0
M  V30 2861 H 273.95 -0.787408 -1.42034 0
M  V30 2862 H 275.947 0.729142 -4.10474 0
M  V30 2863 H 274.607 1.18868 -3.0216 0
M  V30 2864 H 275.618 -2.08433 -4.74106 0
M  V30 2865 H 272.295 0.428436 -4.15296 0
M  V30 2866 H 273.685 -3.21654 -5.89905 0
M  V30 2867 N 276.405 1.4127 -0.698611 0
M  V30 2868 C 277.645 2.03044 -0.235062 0
M  V30 2869 C 278.009 1.54146 1.14468 0
M  V30 2870 O 279.21 2.07867 1.70425 0
M  V30 2871 C 277.481 3.56192 -0.293651 0
M  V30 2872 S 279.04 4.38696 0.0954053 0
M  V30 2873 H 275.858 0.704697 -0.0944648 0
M  V30 2874 H 278.46 1.72656 -0.917064 0
M  V30 2875 H 277.164 3.89274 -1.29977 0
M  V30 2876 H 276.695 3.91285 0.407397 0
M  V30 2877 H 278.71 4.78257 1.3223 0
M  V30 2878 N 277.883 0.443576 1.51229 0
M  V30 2879 C 279.113 -0.119117 2.06256 0
M  V30 2880 C 279.521 -1.36471 1.31043 0
M  V30 2881 O 278.864 -1.80034 0.365151 0
M  V30 2882 C 278.926 -0.500546 3.55998 0
M  V30 2883 C 278.59 0.639125 4.52509 0
M  V30 2884 C 279.587 1.51311 4.97394 0
M  V30 2885 C 277.272 0.821632 4.95535 0
M  V30 2886 C 279.266 2.55425 5.83984 0
M  V30 2887 C 276.953 1.86603 5.81913 0
M  V30 2888 C 277.951 2.73072 6.26036 0
M  V30 2889 O 277.639 3.75718 7.10698 0
M  V30 2890 H 277.371 -0.00857665 0.675946 0
M  V30 2891 H 279.925 0.623288 1.95715 0
M  V30 2892 H 278.155 -1.29575 3.64345 0
M  V30 2893 H 279.844 -0.995116 3.93513 0
M  V30 2894 H 280.61 1.38367 4.64844 0
M  V30 2895 H 276.489 0.158149 4.60729 0
M  V30 2896 H 280.033 3.22949 6.18344 0
M  V30 2897 H 275.93 1.99564 6.13876 0
M  V30 2898 H 276.698 3.72374 7.2889 0
M  V30 2899 N 279.361 -1.56624 0.175154 0
M  V30 2900 C 280.324 -2.16934 -0.739738 0
M  V30 2901 C 281.324 -1.11842 -1.15533 0
M  V30 2902 O 282.514 -1.37335 -1.07167 0
M  V30 2903 C 279.646 -2.75531 -2.00738 0
M  V30 2904 H 280.839 -2.99131 -0.214639 0
M  V30 2905 H 278.392 -1.56123 -0.0744197 0
M  V30 2906 H 279.127 -1.97078 -2.57548 0
M  V30 2907 H 278.912 -3.52444 -1.71831 0
M  V30 2908 H 280.402 -3.21904 -2.66021 0
M  V30 2909 N 280.839 0.0985539 -1.57292 0
M  V30 2910 C 281.749 1.13824 -2.05137 0
M  V30 2911 C 282.765 1.44076 -0.975604 0
M  V30 2912 O 283.941 1.54786 -1.28853 0
M  V30 2913 C 281.006 2.43969 -2.46333 0
M  V30 2914 C 280.067 2.2093 -3.68087 0
M  V30 2915 C 279.3 3.44869 -4.0731 0
M  V30 2916 O 279.523 4.52972 -3.46659 0
M  V30 2917 O 278.457 3.34661 -5.00285 0
M  V30 2918 H 282.283 0.761881 -2.93988 0
M  V30 2919 H 279.868 0.310818 -1.46131 0
M  V30 2920 H 281.75 3.20609 -2.73473 0
M  V30 2921 H 280.425 2.81038 -1.60621 0
M  V30 2922 H 279.332 1.42081 -3.46069 0
M  V30 2923 H 280.665 1.88755 -4.54568 0
M  V30 2924 N 282.317 1.53212 0.369288 0
M  V30 2925 C 283.564 1.69215 1.11232 0
M  V30 2926 C 283.892 0.442048 1.8941 0
M  V30 2927 O 283.147 -0.575944 1.87033 0
M  V30 2928 C 283.446 2.89101 2.10132 0
M  V30 2929 C 283.112 4.25758 1.48463 0
M  V30 2930 C 281.774 4.6292 1.31372 0
M  V30 2931 C 284.126 5.10757 1.03811 0
M  V30 2932 C 281.454 5.82722 0.68207 0
M  V30 2933 C 283.806 6.31201 0.420487 0
M  V30 2934 C 282.47 6.67079 0.237038 0
M  V30 2935 H 281.74 0.619201 0.407027 0
M  V30 2936 H 284.387 1.87391 0.394552 0
M  V30 2937 H 282.692 2.65421 2.88199 0
M  V30 2938 H 284.389 2.98676 2.6757 0
M  V30 2939 H 280.979 3.96494 1.62758 0
M  V30 2940 H 285.163 4.82599 1.1581 0
M  V30 2941 H 280.419 6.09113 0.528316 0
M  V30 2942 H 284.593 6.96368 0.0662874 0
M  V30 2943 H 282.22 7.59774 -0.254477 0
M  V30 2944 N 283.795 -0.628877 1.44509 0
M  V30 2945 C 285.042 -1.38839 1.47411 0
M  V30 2946 C 285.37 -1.94202 0.10757 0
M  V30 2947 O 284.625 -1.74243 -0.890947 0
M  V30 2948 C 284.924 -2.56995 2.48371 0
M  V30 2949 C 284.59 -2.19908 3.93639 0
M  V30 2950 C 283.252 -2.09506 4.33198 0
M  V30 2951 C 285.604 -1.9064 4.85083 0
M  V30 2952 C 282.932 -1.68028 5.62124 0
M  V30 2953 C 285.284 -1.50655 6.14399 0
M  V30 2954 C 283.948 -1.38796 6.5291 0
M  V30 2955 H 283.218 -0.508048 0.539414 0
M  V30 2956 H 285.865 -0.712913 1.77735 0
M  V30 2957 H 284.17 -3.29786 2.11538 0
M  V30 2958 H 285.867 -3.15223 2.47861 0
M  V30 2959 H 282.457 -2.28922 3.62343 0
M  V30 2960 H 286.641 -1.97585 4.55273 0
M  V30 2961 H 281.897 -1.57452 5.90778 0
M  V30 2962 H 286.071 -1.27048 6.84713 0
M  V30 2963 H 283.698 -1.06429 7.52713 0
M  V30 2964 N 285.273 -1.31445 -0.869486 0
M  V30 2965 C 286.503 -1.23942 -1.65294 0
M  V30 2966 C 286.911 0.197561 -1.88166 0
M  V30 2967 O 286.254 1.14019 -1.44033 0
M  V30 2968 C 286.316 -1.91385 -3.04322 0
M  V30 2969 C 285.98 -3.40726 -3.04557 0
M  V30 2970 C 286.977 -4.36464 -2.82481 0
M  V30 2971 C 284.662 -3.82425 -3.25663 0
M  V30 2972 C 286.656 -5.71876 -2.8149 0
M  V30 2973 C 284.343 -5.1795 -3.243 0
M  V30 2974 C 285.341 -6.12486 -3.02241 0
M  V30 2975 O 285.029 -7.45534 -3.00724 0
M  V30 2976 H 284.761 -0.429459 -0.522054 0
M  V30 2977 H 287.315 -1.73873 -1.0935 0
M  V30 2978 H 285.545 -1.36004 -3.61994 0
M  V30 2979 H 287.234 -1.77791 -3.64891 0
M  V30 2980 H 288 -4.05576 -2.65956 0
M  V30 2981 H 283.879 -3.09274 -3.41863 0
M  V30 2982 H 287.423 -6.45638 -2.64191 0
M  V30 2983 H 283.32 -5.48473 -3.40365 0
M  V30 2984 H 284.088 -7.54713 -3.16782 0
M  V30 2985 N 286.751 1.08385 -1.14413 0
M  V30 2986 C 287.699 2.17406 -0.826888 0
M  V30 2987 C 288.693 1.6827 0.195312 0
M  V30 2988 O 289.899 1.79927 0.0513892 0
M  V30 2989 H 286.274 0.70934 -0.249681 0
M  V30 2990 H 288.245 2.41388 -1.75426 0
M  V30 2991 C 286.994 3.46215 -0.320979 0
M  V30 2992 H 286.317 3.84401 -1.0989 0
M  V30 2993 H 287.757 4.23777 -0.137549 0
M  V30 2994 C 286.216 3.23067 0.955472 0
M  V30 2995 O 286.746 3.4668 2.02918 0
M  V30 2996 N 284.952 2.7661 0.890798 0
M  V30 2997 H 284.499 2.57594 0.0168815 0
M  V30 2998 H 284.457 2.61501 1.74542 0
M  V30 2999 N 288.23 0.939286 1.26551 0
M  V30 3000 C 289.476 0.596234 1.94465 0
M  V30 3001 C 289.831 -0.855013 1.72358 0
M  V30 3002 O 289.124 -1.6034 1.04889 0
M  V30 3003 C 289.318 0.872106 3.46596 0
M  V30 3004 C 289.147 2.34862 3.83497 0
M  V30 3005 C 287.917 3.00344 4.06352 0
M  V30 3006 C 290.115 3.32697 3.92195 0
M  V30 3007 N 288.097 4.38027 4.30123 0
M  V30 3008 C 289.468 4.55631 4.20476 0
M  V30 3009 C 291.523 3.27747 3.74815 0
M  V30 3010 C 290.226 5.74233 4.33185 0
M  V30 3011 C 292.252 4.45672 3.88755 0
M  V30 3012 C 291.614 5.67388 4.17433 0
M  V30 3013 H 287.713 0.268515 0.734455 0
M  V30 3014 H 290.297 1.2083 1.5267 0
M  V30 3015 H 288.468 0.289102 3.87323 0
M  V30 3016 H 290.2 0.490513 4.01716 0
M  V30 3017 H 286.955 2.50969 4.01636 0
M  V30 3018 H 287.379 5.09288 4.46044 0
M  V30 3019 H 292.021 2.34703 3.51673 0
M  V30 3020 H 289.739 6.67731 4.55149 0
M  V30 3021 H 293.325 4.43372 3.76713 0
M  V30 3022 H 292.205 6.57115 4.27983 0
M  V30 3023 N 289.708 -1.40897 0.706093 0
M  V30 3024 C 290.938 -2.05075 0.250523 0
M  V30 3025 C 291.346 -1.53275 -1.10921 0
M  V30 3026 O 290.689 -0.680281 -1.7064 0
M  V30 3027 C 290.751 -3.59219 0.142178 0
M  V30 3028 C 290.415 -4.33864 1.43566 0
M  V30 3029 C 291.412 -4.62448 2.37566 0
M  V30 3030 C 289.097 -4.72946 1.69195 0
M  V30 3031 C 291.091 -5.29088 3.5545 0
M  V30 3032 C 288.778 -5.3932 2.87362 0
M  V30 3033 C 289.776 -5.6732 3.80312 0
M  V30 3034 O 289.464 -6.32325 4.96408 0
M  V30 3035 H 289.196 -0.666645 0.112074 0
M  V30 3036 H 291.75 -1.81467 0.962239 0
M  V30 3037 H 289.98 -3.81609 -0.6254 0
M  V30 3038 H 291.669 -4.0495 -0.277584 0
M  V30 3039 H 292.435 -4.32727 2.19027 0
M  V30 3040 H 288.314 -4.50527 0.977042 0
M  V30 3041 H 291.858 -5.50859 4.28018 0
M  V30 3042 H 287.755 -5.68461 3.05814 0
M  V30 3043 H 288.523 -6.50821 4.9636 0
M  V30 3044 N 291.186 -0.45159 -1.50991 0
M  V30 3045 C 292.433 0.110074 -2.02201 0
M  V30 3046 C 292.761 1.4146 -1.33489 0
M  V30 3047 O 292.016 1.90617 -0.443125 0
M  V30 3048 C 292.315 0.361728 -3.55565 0
M  V30 3049 C 291.981 -0.858717 -4.42648 0
M  V30 3050 C 290.643 -1.19338 -4.66167 0
M  V30 3051 C 292.995 -1.67221 -4.93646 0
M  V30 3052 C 290.323 -2.34195 -5.37931 0
M  V30 3053 C 292.675 -2.8119 -5.6667 0
M  V30 3054 C 291.339 -3.15094 -5.88449 0
M  V30 3055 H 290.609 0.040279 -0.739904 0
M  V30 3056 H 293.256 -0.601696 -1.81802 0
M  V30 3057 H 291.561 1.15554 -3.74372 0
M  V30 3058 H 293.258 0.80996 -3.92735 0
M  V30 3059 H 289.848 -0.58796 -4.24548 0
M  V30 3060 H 294.032 -1.42686 -4.75347 0
M  V30 3061 H 289.288 -2.6076 -5.53005 0
M  V30 3062 H 293.462 -3.44585 -6.05173 0
M  V30 3063 H 291.089 -4.04204 -6.43835 0
M  V30 3064 N 292.664 1.56529 -0.183458 0
M  V30 3065 C 293.594 2.21549 0.737456 0
M  V30 3066 C 294.575 1.17489 1.23005 0
M  V30 3067 O 295.76 1.45959 1.281 0
M  V30 3068 C 292.89 2.86575 1.96194 0
M  V30 3069 C 291.844 3.96778 1.60473 0
M  V30 3070 C 291.17 4.48911 2.90487 0
M  V30 3071 C 292.47 5.15767 0.823497 0
M  V30 3072 H 294.164 2.98761 0.195453 0
M  V30 3073 H 291.71 1.43702 0.0925686 0
M  V30 3074 H 293.663 3.30739 2.61131 0
M  V30 3075 H 292.387 2.06749 2.52828 0
M  V30 3076 H 291.046 3.53286 0.978997 0
M  V30 3077 H 290.694 3.65862 3.45186 0
M  V30 3078 H 290.394 5.23265 2.67335 0
M  V30 3079 H 291.918 4.95771 3.56432 0
M  V30 3080 H 293.332 5.56549 1.37571 0
M  V30 3081 H 291.729 5.96114 0.690551 0
M  V30 3082 H 292.799 4.84574 -0.177782 0
M  V30 3083 N 294.142 -0.090211 1.57342 0
M  V30 3084 C 295.391 -0.791531 1.8552 0
M  V30 3085 C 295.704 -1.79659 0.773441 0
M  V30 3086 O 296.91 -2.54616 0.942497 0
M  V30 3087 C 295.366 -1.45856 3.2902 0
M  V30 3088 C 294.974 -0.493017 4.45279 0
M  V30 3089 C 296.718 -2.14332 3.66418 0
M  V30 3090 C 294.625 -1.16491 5.79814 0
M  V30 3091 H 293.555 -0.299356 0.692027 0
M  V30 3092 H 296.206 -0.0445343 1.83446 0
M  V30 3093 H 294.588 -2.25318 3.2565 0
M  V30 3094 H 295.762 0.270464 4.60006 0
M  V30 3095 H 294.077 0.0863061 4.16311 0
M  V30 3096 H 296.674 -2.65344 4.64216 0
M  V30 3097 H 297.017 -2.93447 2.95287 0
M  V30 3098 H 297.55 -1.41724 3.71698 0
M  V30 3099 H 294.289 -0.41447 6.54188 0
M  V30 3100 H 293.809 -1.8997 5.68921 0
M  V30 3101 H 295.488 -1.69001 6.24538 0
M  V30 3102 N 295.62 -1.53406 -0.361157 0
M  V30 3103 C 296.848 -1.73717 -1.12383 0
M  V30 3104 C 297.263 -0.468161 -1.82904 0
M  V30 3105 O 296.62 0.559198 -1.73722 0
M  V30 3106 C 296.671 -2.90558 -2.15078 0
M  V30 3107 O 296.392 -4.12549 -1.47428 0
M  V30 3108 C 297.893 -3.22777 -3.03858 0
M  V30 3109 H 295.113 -0.580896 -0.335858 0
M  V30 3110 H 297.657 -2.00167 -0.418728 0
M  V30 3111 H 295.812 -2.66489 -2.8118 0
M  V30 3112 H 296.226 -4.78009 -2.15887 0
M  V30 3113 H 297.7 -4.07927 -3.71887 0
M  V30 3114 H 298.177 -2.38329 -3.68912 0
M  V30 3115 H 298.783 -3.48787 -2.43367 0
M  V30 3116 N 297.098 0.621204 -1.44841 0
M  V30 3117 C 298.061 1.71459 -1.521 0
M  V30 3118 C 299.061 1.55696 -0.401933 0
M  V30 3119 O 300.251 1.61011 -0.664925 0
M  V30 3120 C 297.383 3.10624 -1.40447 0
M  V30 3121 H 298.576 1.66394 -2.49506 0
M  V30 3122 H 296.129 0.835745 -1.3208 0
M  V30 3123 H 296.864 3.21277 -0.441737 0
M  V30 3124 H 296.649 3.23473 -2.21602 0
M  V30 3125 H 298.139 3.90293 -1.4853 0
M  V30 3126 N 298.576 1.31904 0.862503 0
M  V30 3127 C 299.801 1.25135 1.65397 0
M  V30 3128 C 300.226 -0.179 1.87246 0
M  V30 3129 O 299.584 -1.1277 1.4196 0
M  V30 3130 C 299.632 2.00832 2.99498 0
M  V30 3131 O 298.736 1.35075 3.89652 0
M  V30 3132 H 298.077 0.431655 0.504549 0
M  V30 3133 H 300.607 1.74094 1.07483 0
M  V30 3134 H 300.617 2.10709 3.49379 0
M  V30 3135 H 299.292 3.04847 2.82916 0
M  V30 3136 H 297.869 1.33696 3.48109 0
M  V30 3137 N 300.054 -1.07777 1.14986 0
M  V30 3138 C 301.282 -1.84018 0.945773 0
M  V30 3139 C 301.697 -1.81897 -0.505863 0
M  V30 3140 O 301.054 -1.22726 -1.35072 0
M  V30 3141 C 301.105 -3.31287 1.44677 0
M  V30 3142 O 300.826 -3.33449 2.84154 0
M  V30 3143 C 302.327 -4.24311 1.28355 0
M  V30 3144 H 299.547 -0.580716 0.336169 0
M  V30 3145 H 302.091 -1.36077 1.52654 0
M  V30 3146 H 300.246 -3.76594 0.908625 0
M  V30 3147 H 300.66 -4.25427 3.06777 0
M  V30 3148 H 302.134 -5.2573 1.68261 0
M  V30 3149 H 302.611 -4.38612 0.227184 0
M  V30 3150 H 303.217 -3.84836 1.81056 0
M  V30 3151 N 301.532 -0.945985 -1.26051 0
M  V30 3152 C 302.462 -0.477172 -2.28572 0
M  V30 3153 C 303.443 0.472032 -1.63419 0
M  V30 3154 O 304.628 0.372853 -1.90587 0
M  V30 3155 C 301.758 0.253975 -3.4637 0
M  V30 3156 C 300.712 -0.609135 -4.23643 0
M  V30 3157 C 300.038 0.252252 -5.34105 0
M  V30 3158 C 301.338 -1.8829 -4.8718 0
M  V30 3159 H 303.032 -1.33402 -2.68038 0
M  V30 3160 H 300.578 -0.642904 -1.28852 0
M  V30 3161 H 302.531 0.593016 -4.17207 0
M  V30 3162 H 301.255 1.145 -3.05871 0
M  V30 3163 H 299.914 -0.931138 -3.54578 0
M  V30 3164 H 299.562 1.14278 -4.89846 0
M  V30 3165 H 299.262 -0.32188 -5.86718 0
M  V30 3166 H 300.786 0.586454 -6.07777 0
M  V30 3167 H 302.2 -1.61081 -5.50205 0
M  V30 3168 H 300.597 -2.40199 -5.49931 0
M  V30 3169 H 301.667 -2.59134 -4.09851 0
M  V30 3170 N 303.011 1.40521 -0.713556 0
M  V30 3171 C 303.921 2.34522 -0.0606667 0
M  V30 3172 C 304.937 1.57193 0.74607 0
M  V30 3173 O 306.113 1.89591 0.679493 0
M  V30 3174 C 303.178 3.36081 0.851491 0
M  V30 3175 C 302.239 4.29286 0.0349339 0
M  V30 3176 C 301.472 5.25994 0.903649 0
M  V30 3177 O 301.695 5.28616 2.14292 0
M  V30 3178 O 300.629 6.00918 0.343723 0
M  V30 3179 H 304.455 2.91968 -0.835972 0
M  V30 3180 H 302.04 1.41681 -0.47402 0
M  V30 3181 H 303.922 3.98369 1.37404 0
M  V30 3182 H 302.597 2.81052 1.60598 0
M  V30 3183 H 301.504 3.70289 -0.532633 0
M  V30 3184 H 302.837 4.87462 -0.681287 0
M  V30 3185 N 304.489 0.459591 1.5075 0
M  V30 3186 C 305.736 -0.0993495 2.02256 0
M  V30 3187 C 306.064 -1.40751 1.34237 0
M  V30 3188 O 305.319 -1.90379 0.453228 0
M  V30 3189 C 305.618 -0.342866 3.55752 0
M  V30 3190 C 305.284 0.88218 4.42186 0
M  V30 3191 C 303.946 1.21808 4.65528 0
M  V30 3192 C 306.298 1.69837 4.92752 0
M  V30 3193 C 303.626 2.37045 5.36681 0
M  V30 3194 C 305.978 2.84192 5.65171 0
M  V30 3195 C 304.642 3.1821 5.8677 0
M  V30 3196 H 303.912 -0.0363545 0.740108 0
M  V30 3197 H 306.559 0.611329 1.8148 0
M  V30 3198 H 304.864 -1.13567 3.7498 0
M  V30 3199 H 306.561 -0.789121 3.93159 0
M  V30 3200 H 303.151 0.610467 4.2423 0
M  V30 3201 H 307.335 1.45205 4.74583 0
M  V30 3202 H 302.591 2.63689 5.51614 0
M  V30 3203 H 306.765 3.4779 6.03337 0
M  V30 3204 H 304.392 4.07613 6.41682 0
M  V30 3205 N 305.967 -1.56429 0.191757 0
M  V30 3206 C 307.214 -1.97485 -0.447891 0
M  V30 3207 C 307.542 -1.07852 -1.61859 0
M  V30 3208 O 306.797 -0.116903 -1.95351 0
M  V30 3209 C 307.096 -3.44449 -0.953384 0
M  V30 3210 C 306.762 -4.50781 0.103586 0
M  V30 3211 C 305.424 -4.79584 0.394023 0
M  V30 3212 C 307.776 -5.1471 0.819946 0
M  V30 3213 C 305.104 -5.69607 1.40585 0
M  V30 3214 C 307.456 -6.05827 1.8209 0
M  V30 3215 C 306.12 -6.32987 2.11857 0
M  V30 3216 H 305.39 -0.722648 -0.163895 0
M  V30 3217 H 308.037 -1.89322 0.28802 0
M  V30 3218 H 306.342 -3.49666 -1.76751 0
M  V30 3219 H 308.039 -3.73569 -1.45765 0
M  V30 3220 H 304.629 -4.28394 -0.132951 0
M  V30 3221 H 308.813 -4.92552 0.608789 0
M  V30 3222 H 304.069 -5.88926 1.64243 0
M  V30 3223 H 308.243 -6.54424 2.38123 0
M  V30 3224 H 305.87 -7.02544 2.90407 0
M  V30 3225 N 307.445 0.0818655 -1.57387 0
M  V30 3226 C 308.673 0.796108 -1.9097 0
M  V30 3227 C 309.088 1.71626 -0.786757 0
M  V30 3228 O 308.445 1.80908 0.240513 0
M  V30 3229 C 308.496 1.59829 -3.24248 0
M  V30 3230 O 308.217 0.715131 -4.32224 0
M  V30 3231 C 309.718 2.41442 -3.7178 0
M  V30 3232 H 306.938 0.22691 -0.631469 0
M  V30 3233 H 309.482 0.0551439 -2.04426 0
M  V30 3234 H 307.637 2.29163 -3.12351 0
M  V30 3235 H 308.051 1.27205 -5.08841 0
M  V30 3236 H 309.525 2.932 -4.67694 0
M  V30 3237 H 310.002 3.2051 -3.00283 0
M  V30 3238 H 310.608 1.77283 -3.86589 0
M  V30 3239 N 308.923 1.53595 0.353017 0
M  V30 3240 C 310.334 1.61937 0.929153 0
M  V30 3241 C 310.685 0.494686 1.89861 0
M  V30 3242 O 309.81 -0.377017 2.1309 0
M  V30 3243 C 310.405 2.93526 1.69199 0
M  V30 3244 C 308.964 3.04161 2.21727 0
M  V30 3245 C 308.111 2.57322 1.03348 0
M  V30 3246 H 311.062 1.58155 0.131431 0
M  V30 3247 H 311.083 2.82034 2.55416 0
M  V30 3248 H 310.595 3.75362 0.986144 0
M  V30 3249 H 308.696 2.26938 2.95516 0
M  V30 3250 H 308.809 4.09465 2.48748 0
M  V30 3251 H 307.173 2.12499 1.40414 0
M  V30 3252 H 307.956 3.41588 0.342428 0
M  V30 3253 N 310.401 -0.613514 1.45168 0
M  V30 3254 C 311.648 -1.37268 1.48875 0
M  V30 3255 C 311.976 -1.94077 0.128161 0
M  V30 3256 O 311.231 -1.75178 -0.872416 0
M  V30 3257 C 311.53 -2.54347 2.51083 0
M  V30 3258 C 311.196 -2.1572 3.95949 0
M  V30 3259 C 309.858 -2.04899 4.35396 0
M  V30 3260 C 312.21 -1.85485 4.87078 0
M  V30 3261 C 309.538 -1.62057 5.63875 0
M  V30 3262 C 311.89 -1.4413 6.15962 0
M  V30 3263 C 310.554 -1.31863 6.54346 0
M  V30 3264 H 309.824 -0.502299 0.544773 0
M  V30 3265 H 312.471 -0.694021 1.78481 0
M  V30 3266 H 310.776 -3.27524 2.15024 0
M  V30 3267 H 312.473 -3.12577 2.51191 0
M  V30 3268 H 309.063 -2.25066 3.64751 0
M  V30 3269 H 313.247 -1.92745 4.57343 0
M  V30 3270 H 308.503 -1.51177 5.92415 0
M  V30 3271 H 312.677 -1.19778 6.86022 0
M  V30 3272 H 310.304 -0.984392 7.538 0
M  V30 3273 N 311.879 -1.3236 -0.855495 0
M  V30 3274 C 312.809 -1.23833 -1.97958 0
M  V30 3275 C 313.79 -0.122361 -1.69659 0
M  V30 3276 O 314.975 -0.30939 -1.9172 0
M  V30 3277 C 312.105 -0.959772 -3.33775 0
M  V30 3278 C 311.059 -2.03689 -3.76424 0
M  V30 3279 C 310.385 -1.61075 -5.09862 0
M  V30 3280 C 311.685 -3.4518 -3.9198 0
M  V30 3281 H 313.379 -2.1788 -2.0535 0
M  V30 3282 H 310.925 -1.04891 -0.986605 0
M  V30 3283 H 312.878 -0.886678 -4.11966 0
M  V30 3284 H 311.602 0.0163404 -3.26596 0
M  V30 3285 H 310.261 -2.10012 -3.00484 0
M  V30 3286 H 309.909 -0.622107 -4.99138 0
M  V30 3287 H 309.609 -2.33143 -5.39368 0
M  V30 3288 H 311.133 -1.55201 -5.90546 0
M  V30 3289 H 312.547 -3.4145 -4.60526 0
M  V30 3290 H 310.944 -4.1559 -4.32903 0
M  V30 3291 H 312.014 -3.84903 -2.94919 0
M  V30 3292 N 313.357 1.07166 -1.15556 0
M  V30 3293 C 314.582 1.84053 -0.955988 0
M  V30 3294 C 315.007 1.81586 0.490739 0
M  V30 3295 O 314.365 1.21018 1.34997 0
M  V30 3296 C 314.413 3.28957 -1.47714 0
M  V30 3297 O 313.517 4.06795 -0.677593 0
M  V30 3298 H 312.858 0.569842 -0.340847 0
M  V30 3299 H 315.388 1.35178 -1.53584 0
M  V30 3300 H 315.398 3.79788 -1.4908 0
M  V30 3301 H 314.073 3.30068 -2.53037 0
M  V30 3302 H 312.65 3.6561 -0.733721 0
M  V30 3303 N 314.835 0.952656 1.25548 0
M  V30 3304 C 316.081 0.607272 1.93494 0
M  V30 3305 C 316.414 -0.853245 1.74452 0
M  V30 3306 O 315.689 -1.61194 1.08843 0
M  V30 3307 C 315.972 0.96435 3.46947 0
M  V30 3308 C 315.825 2.48045 3.75225 0
M  V30 3309 C 317.144 0.487987 4.37386 0
M  V30 3310 H 314.263 0.222096 0.702739 0
M  V30 3311 H 316.905 1.18895 1.48203 0
M  V30 3312 H 315.055 0.469361 3.85654 0
M  V30 3313 H 316.727 3.04905 3.46166 0
M  V30 3314 H 314.97 2.919 3.209 0
M  V30 3315 H 315.641 2.6808 4.82532 0
M  V30 3316 H 318.117 0.912558 4.0597 0
M  V30 3317 H 316.993 0.766547 5.43521 0
M  V30 3318 H 317.254 -0.612063 4.37843 0
M  V30 3319 N 316.313 -1.40141 0.720998 0
M  V30 3320 C 317.541 -2.05096 0.272656 0
M  V30 3321 C 317.956 -1.54334 -1.0875 0
M  V30 3322 O 317.313 -0.702211 -1.6845 0
M  V30 3323 C 317.364 -3.60636 0.249835 0
M  V30 3324 O 317.085 -4.09526 1.55629 0
M  V30 3325 C 318.586 -4.42772 -0.216396 0
M  V30 3326 H 315.806 -0.659897 0.121558 0
M  V30 3327 H 318.35 -1.79449 0.980723 0
M  V30 3328 H 316.505 -3.85232 -0.409237 0
M  V30 3329 H 316.919 -5.03758 1.4604 0
M  V30 3330 H 318.393 -5.51702 -0.181212 0
M  V30 3331 H 318.87 -4.20756 -1.25941 0
M  V30 3332 H 319.476 -4.23294 0.412596 0
M  V30 3333 N 317.792 -0.46758 -1.50504 0
M  V30 3334 C 319.039 0.0886219 -2.02306 0
M  V30 3335 C 319.367 1.40037 -1.34981 0
M  V30 3336 O 318.622 1.90136 -0.463318 0
M  V30 3337 C 318.921 0.323995 -3.55928 0
M  V30 3338 C 318.587 -0.905618 -4.41712 0
M  V30 3339 C 317.249 -1.24275 -4.64875 0
M  V30 3340 C 319.601 -1.72448 -4.91845 0
M  V30 3341 C 316.929 -2.39888 -5.35417 0
M  V30 3342 C 319.281 -2.87185 -5.63656 0
M  V30 3343 C 317.945 -3.21317 -5.85074 0
M  V30 3344 H 317.215 0.0324291 -0.74029 0
M  V30 3345 H 319.862 -0.620945 -1.81153 0
M  V30 3346 H 318.167 1.11577 -3.75577 0
M  V30 3347 H 319.864 0.76826 -3.93572 0
M  V30 3348 H 316.454 -0.632956 -4.239 0
M  V30 3349 H 320.638 -1.4772 -4.73806 0
M  V30 3350 H 315.894 -2.66611 -5.50208 0
M  V30 3351 H 320.068 -3.50985 -6.01484 0
M  V30 3352 H 317.695 -4.1101 -6.39511 0
M  V30 3353 N 319.27 1.56325 -0.20005 0
M  V30 3354 C 320.517 1.97719 0.437411 0
M  V30 3355 C 320.845 1.08709 1.61284 0
M  V30 3356 O 320.1 0.127261 1.95286 0
M  V30 3357 C 320.399 3.4495 0.935103 0
M  V30 3358 C 320.065 4.5072 -0.12749 0
M  V30 3359 C 318.727 4.79368 -0.419451 0
M  V30 3360 C 321.079 5.14268 -0.847231 0
M  V30 3361 C 318.407 5.68854 -1.43604 0
M  V30 3362 C 320.759 6.04852 -1.85301 0
M  V30 3363 C 319.423 6.31855 -2.15211 0
M  V30 3364 H 318.693 0.723507 0.16006 0
M  V30 3365 H 321.34 1.89166 -0.298056 0
M  V30 3366 H 319.645 3.50599 1.74894 0
M  V30 3367 H 321.342 3.74337 1.43781 0
M  V30 3368 H 317.932 4.28458 0.11023 0
M  V30 3369 H 322.116 4.92222 -0.634901 0
M  V30 3370 H 317.372 5.88047 -1.67364 0
M  V30 3371 H 321.546 6.53152 -2.41591 0
M  V30 3372 H 319.173 7.00994 -2.94129 0
M  V30 3373 N 320.748 -0.0735177 1.57428 0
M  V30 3374 C 321.696 -1.10628 2.04607 0
M  V30 3375 C 322.69 -1.40181 0.951088 0
M  V30 3376 O 323.896 -1.39608 1.1362 0
M  V30 3377 H 320.271 -0.374088 0.652351 0
M  V30 3378 H 322.242 -0.682218 2.90497 0
M  V30 3379 C 320.991 -2.41212 2.50423 0
M  V30 3380 H 320.314 -2.19322 3.34272 0
M  V30 3381 H 321.754 -3.11927 2.87189 0
M  V30 3382 C 320.213 -3.0705 1.38644 0
M  V30 3383 O 320.743 -3.95056 0.727582 0
M  V30 3384 N 318.949 -2.67645 1.132 0
M  V30 3385 H 318.496 -1.96169 1.66959 0
M  V30 3386 H 318.454 -3.1202 0.386147 0
M  V30 3387 N 322.226 -1.5378 -0.344866 0
M  V30 3388 C 323.156 -1.84662 -1.42906 0
M  V30 3389 C 324.137 -0.701648 -1.54955 0
M  V30 3390 O 325.322 -0.953438 -1.69184 0
M  V30 3391 C 322.452 -2.05503 -2.79974 0
M  V30 3392 C 321.406 -3.21318 -2.82734 0
M  V30 3393 C 320.732 -3.2749 -4.22675 0
M  V30 3394 C 322.032 -4.59456 -2.48389 0
M  V30 3395 H 323.726 -2.75461 -1.17311 0
M  V30 3396 H 321.272 -1.32542 -0.562896 0
M  V30 3397 H 323.225 -2.25691 -3.55867 0
M  V30 3398 H 321.949 -1.11434 -3.07002 0
M  V30 3399 H 320.608 -3.00984 -2.09294 0
M  V30 3400 H 320.256 -2.31019 -4.4681 0
M  V30 3401 H 319.956 -4.05316 -4.25433 0
M  V30 3402 H 321.48 -3.49887 -5.00412 0
M  V30 3403 H 322.894 -4.79667 -3.13995 0
M  V30 3404 H 321.291 -5.39675 -2.62432 0
M  V30 3405 H 322.361 -4.63155 -1.4358 0
M  V30 3406 N 323.704 0.605807 -1.45491 0
M  V30 3407 C 324.929 1.39625 -1.53361 0
M  V30 3408 C 325.354 1.87351 -0.167645 0
M  V30 3409 O 324.712 1.60243 0.848051 0
M  V30 3410 C 324.76 2.57559 -2.5238 0
M  V30 3411 O 323.864 3.58248 -2.04285 0
M  V30 3412 H 323.205 0.416771 -0.516912 0
M  V30 3413 H 325.735 0.737103 -1.90861 0
M  V30 3414 H 325.745 3.0478 -2.71244 0
M  V30 3415 H 324.42 2.22171 -3.51586 0
M  V30 3416 H 322.997 3.17664 -1.95305 0
M  V30 3417 N 325.182 1.32811 0.848464 0
M  V30 3418 C 326.431 1.23075 1.59798 0
M  V30 3419 C 326.744 -0.204419 1.94529 0
M  V30 3420 O 327.95 -0.423701 2.68173 0
M  V30 3421 C 326.406 2.15594 2.88179 0
M  V30 3422 C 326.014 3.64228 2.60849 0
M  V30 3423 C 327.758 2.14709 3.66197 0
M  V30 3424 C 325.665 4.48689 3.85269 0
M  V30 3425 H 324.595 0.457091 0.599653 0
M  V30 3426 H 327.246 1.57813 0.936342 0
M  V30 3427 H 325.628 1.73778 3.55833 0
M  V30 3428 H 326.802 4.14424 2.01467 0
M  V30 3429 H 325.117 3.67306 1.96151 0
M  V30 3430 H 327.714 2.75046 4.58534 0
M  V30 3431 H 328.057 1.13966 4.00397 0
M  V30 3432 H 328.59 2.54837 3.05455 0
M  V30 3433 H 325.329 5.5027 3.56207 0
M  V30 3434 H 324.849 4.03241 4.44024 0
M  V30 3435 H 326.528 4.62006 4.52946 0
M  V30 3436 N 326.66 -1.06551 1.16123 0
M  V30 3437 C 327.89 -1.8274 0.963838 0
M  V30 3438 C 328.298 -1.82712 -0.491228 0
M  V30 3439 O 327.641 -1.24294 -1.35265 0
M  V30 3440 C 327.703 -3.3065 1.41106 0
M  V30 3441 C 327.367 -3.54384 2.88549 0
M  V30 3442 C 328.364 -3.4765 3.86569 0
M  V30 3443 C 326.049 -3.81789 3.26408 0
M  V30 3444 C 328.043 -3.67982 5.2045 0
M  V30 3445 C 325.73 -4.01772 4.60459 0
M  V30 3446 C 326.728 -3.94866 5.57288 0
M  V30 3447 O 326.416 -4.14306 6.88916 0
M  V30 3448 H 326.148 -0.583136 0.341948 0
M  V30 3449 H 328.702 -1.35351 1.54497 0
M  V30 3450 H 326.932 -3.78887 0.773394 0
M  V30 3451 H 328.621 -3.88324 1.1815 0
M  V30 3452 H 329.387 -3.2647 3.58667 0
M  V30 3453 H 325.266 -3.86276 2.51619 0
M  V30 3454 H 328.81 -3.62507 5.96015 0
M  V30 3455 H 324.707 -4.2244 4.88072 0
M  V30 3456 H 325.475 -4.31609 6.95454 0
M  V30 3457 N 328.138 -0.959301 -1.25041 0
M  V30 3458 C 329.068 -0.501388 -2.28053 0
M  V30 3459 C 330.049 0.454673 -1.63911 0
M  V30 3460 O 331.234 0.352618 -1.90972 0
M  V30 3461 C 328.364 0.217224 -3.4662 0
M  V30 3462 C 327.318 -0.654034 -4.22973 0
M  V30 3463 C 326.644 0.195589 -5.34342 0
M  V30 3464 C 327.944 -1.93447 -4.85155 0
M  V30 3465 H 329.638 -1.36238 -2.66608 0
M  V30 3466 H 327.184 -0.656534 -1.28163 0
M  V30 3467 H 329.137 0.548732 -4.17812 0
M  V30 3468 H 327.861 1.1125 -3.07068 0
M  V30 3469 H 326.52 -0.968693 -3.5357 0
M  V30 3470 H 326.168 1.09076 -4.91031 0
M  V30 3471 H 325.868 -0.384091 -5.86343 0
M  V30 3472 H 327.392 0.521958 -6.08365 0
M  V30 3473 H 328.806 -1.66908 -5.48466 0
M  V30 3474 H 327.203 -2.46018 -5.47353 0
M  V30 3475 H 328.273 -2.63466 -4.07079 0
M  V30 3476 N 329.616 1.39756 -0.72842 0
M  V30 3477 C 330.564 2.32485 -0.0731849 0
M  V30 3478 C 331.558 1.52717 0.733063 0
M  V30 3479 O 332.764 1.68428 0.634988 0
M  V30 3480 H 329.139 0.751984 -0.00486469 0
M  V30 3481 H 331.11 2.85382 -0.871761 0
M  V30 3482 C 329.859 3.37773 0.824908 0
M  V30 3483 H 329.182 3.99227 0.213915 0
M  V30 3484 H 330.622 4.05121 1.25111 0
M  V30 3485 C 329.081 2.74287 1.95622 0
M  V30 3486 O 329.611 2.61618 3.04826 0
M  V30 3487 N 327.817 2.32475 1.74367 0
M  V30 3488 H 327.364 2.4298 0.855494 0
M  V30 3489 H 327.322 1.90337 2.50238 0
M  V30 3490 N 331.094 0.475555 1.50254 0
M  V30 3491 C 332.343 -0.0795996 2.01543 0
M  V30 3492 C 332.656 -1.4038 1.36209 0
M  V30 3493 O 333.862 -2.04415 1.7868 0
M  V30 3494 C 332.318 -0.192363 3.59386 0
M  V30 3495 C 331.926 1.12367 4.33679 0
M  V30 3496 C 333.67 -0.699238 4.18701 0
M  V30 3497 C 331.577 0.974453 5.83317 0
M  V30 3498 H 330.507 -0.0335228 0.753254 0
M  V30 3499 H 333.158 0.611128 1.73025 0
M  V30 3500 H 331.54 -0.946974 3.84511 0
M  V30 3501 H 332.714 1.88958 4.20276 0
M  V30 3502 H 331.029 1.562 3.85993 0
M  V30 3503 H 333.626 -0.827978 5.28251 0
M  V30 3504 H 333.969 -1.69171 3.80377 0
M  V30 3505 H 334.502 -0.00188807 3.978 0
M  V30 3506 H 331.241 1.94042 6.26121 0
M  V30 3507 H 330.761 0.248998 5.99283 0
M  V30 3508 H 332.44 0.642867 6.43798 0
M  V30 3509 N 332.573 -1.56217 0.208337 0
M  V30 3510 C 333.505 -2.1695 -0.739276 0
M  V30 3511 C 334.518 -1.13492 -1.1672 0
M  V30 3512 O 335.707 -1.40529 -1.10063 0
M  V30 3513 C 332.807 -2.72755 -2.01142 0
M  V30 3514 C 331.98 -4.0125 -1.74118 0
M  V30 3515 C 331.039 -4.41749 -2.85909 0
M  V30 3516 O 330.065 -5.08912 -2.54946 0
M  V30 3517 N 331.267 -4.06342 -4.14568 0
M  V30 3518 H 334.032 -2.98893 -0.219837 0
M  V30 3519 H 331.593 -1.61878 0.0268445 0
M  V30 3520 H 333.585 -2.96826 -2.75094 0
M  V30 3521 H 332.155 -1.95191 -2.4417 0
M  V30 3522 H 331.375 -3.85173 -0.838775 0
M  V30 3523 H 332.663 -4.851 -1.53477 0
M  V30 3524 H 332.061 -3.52345 -4.42571 0
M  V30 3525 H 330.618 -4.35335 -4.85105 0
M  V30 3526 N 334.051 0.0651679 -1.57465 0
M  V30 3527 C 335.467 0.420105 -1.53972 0
M  V30 3528 C 335.667 1.78782 -0.929474 0
M  V30 3529 O 334.723 2.46771 -0.534839 0
M  V30 3530 C 336.036 0.355084 -2.98596 0
M  V30 3531 C 337.584 0.434792 -3.09965 0
M  V30 3532 C 338.059 0.399609 -4.56253 0
M  V30 3533 N 339.55 0.459488 -4.60915 0
M  V30 3534 C 340.285 0.454584 -5.71595 0
M  V30 3535 N 339.781 0.404102 -6.9162 0
M  V30 3536 N 341.574 0.501635 -5.59857 0
M  V30 3537 H 333.725 -0.830328 -1.95498 0
M  V30 3538 H 335.988 -0.312244 -0.895102 0
M  V30 3539 H 335.694 -0.583357 -3.46828 0
M  V30 3540 H 335.568 1.16275 -3.58831 0
M  V30 3541 H 337.955 1.36366 -2.61703 0
M  V30 3542 H 338.036 -0.40157 -2.52628 0
M  V30 3543 H 337.68 -0.525436 -5.05175 0
M  V30 3544 H 337.61 1.25359 -5.11461 0
M  V30 3545 H 340.101 0.502482 -3.74544 0
M  V30 3546 H 340.414 0.404468 -7.71741 0
M  V30 3547 H 338.759 0.37069 -6.94011 0
M  V30 3548 H 341.95 0.538812 -4.64989 0
M  V30 3549 H 342.123 0.494345 -6.46112 0
M  V30 3550 N 335.529 1.53961 0.336706 0
M  V30 3551 C 336.945 1.44378 0.680241 0
M  V30 3552 C 337.145 0.606034 1.9217 0
M  V30 3553 O 336.201 0.099688 2.52303 0
M  V30 3554 C 337.514 2.87945 0.8665 0
M  V30 3555 C 339.062 2.97763 0.964682 0
M  V30 3556 C 339.537 4.42453 1.18321 0
M  V30 3557 N 341.028 4.46008 1.25025 0
M  V30 3558 C 341.763 5.55102 1.43697 0
M  V30 3559 N 341.259 6.7419 1.59498 0
M  V30 3560 N 343.052 5.42727 1.463 0
M  V30 3561 H 335.203 2.06918 -0.479455 0
M  V30 3562 H 337.466 0.935634 -0.152619 0
M  V30 3563 H 337.172 3.51691 0.0256937 0
M  V30 3564 H 337.046 3.33293 1.76623 0
M  V30 3565 H 339.433 2.34153 1.796 0
M  V30 3566 H 339.514 2.55766 0.041708 0
M  V30 3567 H 339.158 5.06645 0.356788 0
M  V30 3568 H 339.088 4.82048 2.11985 0
M  V30 3569 H 341.579 3.60196 1.14312 0
M  V30 3570 H 341.892 7.53095 1.734 0
M  V30 3571 H 340.237 6.77123 1.56621 0
M  V30 3572 H 343.428 4.48647 1.33543 0
M  V30 3573 H 343.601 6.27806 1.6051 0
M  V30 3574 N 337.007 -0.598083 1.45811 0
M  V30 3575 C 338.235 -1.38322 1.53866 0
M  V30 3576 C 338.65 -1.87992 0.174479 0
M  V30 3577 O 338.007 -1.62756 -0.825627 0
M  V30 3578 C 338.058 -2.58125 2.53089 0
M  V30 3579 O 337.779 -2.10516 3.84206 0
M  V30 3580 C 339.28 -3.50869 2.70935 0
M  V30 3581 H 336.5 -0.423093 0.520801 0
M  V30 3582 H 339.044 -0.728527 1.91083 0
M  V30 3583 H 337.199 -3.19615 2.18917 0
M  V30 3584 H 337.613 -2.88425 4.38077 0
M  V30 3585 H 339.087 -4.31451 3.44317 0
M  V30 3586 H 339.564 -4.01822 1.77301 0
M  V30 3587 H 340.17 -2.95225 3.06141 0
M  V30 3588 N 338.485 -1.33259 -0.841409 0
M  V30 3589 C 339.901 -1.12538 -1.13169 0
M  V30 3590 C 340.101 0.0854037 -2.01319 0
M  V30 3591 O 339.157 0.766417 -2.40587 0
M  V30 3592 C 340.47 -2.41156 -1.79623 0
M  V30 3593 C 342.018 -2.47038 -1.922 0
M  V30 3594 C 342.493 -3.7561 -2.6207 0
M  V30 3595 N 343.984 -3.76667 -2.69585 0
M  V30 3596 C 344.719 -4.72861 -3.2433 0
M  V30 3597 N 344.215 -5.79428 -3.79783 0
M  V30 3598 N 346.008 -4.6034 -3.22558 0
M  V30 3599 H 338.159 -2.10868 -0.254676 0
M  V30 3600 H 340.422 -0.931615 -0.175493 0
M  V30 3601 H 340.128 -3.29747 -1.22311 0
M  V30 3602 H 340.002 -2.53114 -2.79666 0
M  V30 3603 H 342.389 -1.58898 -2.48667 0
M  V30 3604 H 342.47 -2.39022 -0.911148 0
M  V30 3605 H 342.114 -4.64131 -2.06263 0
M  V30 3606 H 342.044 -3.80902 -3.63622 0
M  V30 3607 H 344.535 -2.99648 -2.30259 0
M  V30 3608 H 344.848 -6.48867 -4.19752 0
M  V30 3609 H 343.193 -5.83166 -3.78078 0
M  V30 3610 H 346.384 -3.76244 -2.78492 0
M  V30 3611 H 346.557 -5.35478 -3.64921 0
M  V30 3612 N 339.963 1.05934 -1.16686 0
M  V30 3613 C 340.893 2.1546 -0.899949 0
M  V30 3614 C 341.874 1.69391 0.155154 0
M  V30 3615 O 343.059 1.94199 0.00648693 0
M  V30 3616 C 340.189 3.44939 -0.404241 0
M  V30 3617 C 339.143 4.04536 -1.39767 0
M  V30 3618 C 338.469 5.29268 -0.760216 0
M  V30 3619 C 339.769 4.42893 -2.76845 0
M  V30 3620 H 341.463 2.38046 -1.81588 0
M  V30 3621 H 339.009 1.14404 -0.874514 0
M  V30 3622 H 340.962 4.20901 -0.204971 0
M  V30 3623 H 339.686 3.21983 0.547206 0
M  V30 3624 H 338.345 3.30635 -1.58355 0
M  V30 3625 H 337.993 5.02611 0.197831 0
M  V30 3626 H 337.693 5.70101 -1.42332 0
M  V30 3627 H 339.217 6.07924 -0.57105 0
M  V30 3628 H 340.631 5.09921 -2.62019 0
M  V30 3629 H 339.028 4.94721 -3.39663 0
M  V30 3630 H 340.098 3.53584 -3.31823 0
M  V30 3631 N 341.441 0.965919 1.2453 0
M  V30 3632 C 342.857 0.67216 1.44756 0
M  V30 3633 C 343.057 -0.766609 1.86347 0
M  V30 3634 O 342.113 -1.5407 2.00047 0
M  V30 3635 C 343.426 1.65473 2.51076 0
M  V30 3636 C 344.974 1.66716 2.64905 0
M  V30 3637 C 345.449 2.63766 3.74421 0
M  V30 3638 N 346.94 2.62198 3.81846 0
M  V30 3639 C 347.675 3.33966 4.66106 0
M  V30 3640 N 347.171 4.15245 5.54566 0
M  V30 3641 N 348.964 3.22799 4.60171 0
M  V30 3642 H 341.115 1.89553 0.958293 0
M  V30 3643 H 343.378 0.815979 0.482579 0
M  V30 3644 H 343.084 2.68296 2.27399 0
M  V30 3645 H 342.958 1.4261 3.49202 0
M  V30 3646 H 345.345 0.646057 2.87941 0
M  V30 3647 H 345.426 1.93642 1.67142 0
M  V30 3648 H 345.07 3.6601 3.52135 0
M  V30 3649 H 345 2.34121 4.71694 0
M  V30 3650 H 347.491 2.032 3.18619 0
M  V30 3651 H 347.804 4.66898 6.15814 0
M  V30 3652 H 346.149 4.1934 5.54237 0
M  V30 3653 H 349.34 2.58764 3.90075 0
M  V30 3654 H 349.513 3.78994 5.25612 0
M  V30 3655 N 342.919 -1.39368 0.735821 0
M  V30 3656 C 343.849 -2.33234 0.111506 0
M  V30 3657 C 344.83 -1.53954 -0.723334 0
M  V30 3658 O 346.015 -1.82344 -0.668147 0
M  V30 3659 C 343.145 -3.38057 -0.795917 0
M  V30 3660 C 342.099 -4.2795 -0.065172 0
M  V30 3661 C 341.425 -5.23479 -1.08967 0
M  V30 3662 C 342.725 -5.10741 1.09273 0
M  V30 3663 H 344.419 -2.85692 0.895571 0
M  V30 3664 H 341.965 -1.37364 0.432109 0
M  V30 3665 H 343.918 -4.02675 -1.24221 0
M  V30 3666 H 342.642 -2.8404 -1.61211 0
M  V30 3667 H 341.301 -3.64813 0.361511 0
M  V30 3668 H 340.949 -4.65758 -1.89944 0
M  V30 3669 H 340.649 -5.84472 -0.605489 0
M  V30 3670 H 342.173 -5.90974 -1.53565 0
M  V30 3671 H 343.587 -5.68699 0.724841 0
M  V30 3672 H 341.984 -5.8088 1.50659 0
M  V30 3673 H 343.054 -4.45525 1.91404 0
M  V30 3674 N 344.397 -0.483516 -1.5 0
M  V30 3675 C 345.674 0.129337 -1.95172 0
M  V30 3676 C 346.054 1.55802 -1.4244 0
M  V30 3677 O 345.402 2.19625 -0.630649 0
M  V30 3678 C 345.612 0.0599251 -3.48949 0
M  V30 3679 C 346.96 0.242617 -4.23906 0
M  V30 3680 O 347.984 0.135933 -3.55941 0
M  V30 3681 O 346.843 0.459454 -5.44565 0
M  V30 3682 H 343.937 0.104887 -0.820322 0
M  V30 3683 H 346.483 -0.544807 -1.60717 0
M  V30 3684 H 345.255 -0.937079 -3.79914 0
M  V30 3685 H 344.878 0.774984 -3.89974 0
M  V30 3686 N 345.875 1.56104 -0.216619 0
M  V30 3687 C 347.123 1.97781 0.415593 0
M  V30 3688 C 347.444 1.10536 1.60645 0
M  V30 3689 O 346.714 0.181303 1.95059 0
M  V30 3690 H 345.294 0.730415 0.156534 0
M  V30 3691 H 347.956 1.92445 -0.308366 0
M  V30 3692 H 347.052 3.03072 0.74525 0
M  V30 3693 N 347.353 -0.0568162 1.57498 0
M  V30 3694 C 348.316 -1.05038 2.03715 0
M  V30 3695 C 349.316 -1.30709 0.936577 0
M  V30 3696 O 350.506 -1.26178 1.20103 0
M  V30 3697 C 347.638 -2.39034 2.43055 0
M  V30 3698 H 348.831 -0.651715 2.92733 0
M  V30 3699 H 346.384 -0.302947 1.53336 0
M  V30 3700 H 347.119 -2.83703 1.57108 0
M  V30 3701 H 346.904 -2.21739 3.2338 0
M  V30 3702 H 348.394 -3.10421 2.79336 0
M  V30 3703 N 348.832 -1.54138 -0.328536 0
M  V30 3704 C 350.248 -1.44736 -0.672574 0
M  V30 3705 C 350.448 -0.616217 -1.91846 0
M  V30 3706 O 349.504 -0.113067 -2.52247 0
M  V30 3707 C 350.817 -2.884 -0.851217 0
M  V30 3708 C 352.365 -2.98271 -0.948877 0
M  V30 3709 C 352.84 -4.43074 -1.15973 0
M  V30 3710 N 354.331 -4.46665 -1.22658 0
M  V30 3711 C 355.066 -5.55857 -1.40751 0
M  V30 3712 N 354.562 -6.75026 -1.5592 0
M  V30 3713 N 356.355 -5.43495 -1.4342 0
M  V30 3714 H 348.506 -2.06661 0.490421 0
M  V30 3715 H 350.769 -0.934812 0.157579 0
M  V30 3716 H 350.475 -3.51699 -0.00704236 0
M  V30 3717 H 350.349 -3.34225 -1.74853 0
M  V30 3718 H 352.736 -2.35102 -1.78356 0
M  V30 3719 H 352.817 -2.55785 -0.0281435 0
M  V30 3720 H 352.461 -5.06827 -0.329915 0
M  V30 3721 H 352.391 -4.83165 -2.09426 0
M  V30 3722 H 354.882 -3.60797 -1.124 0
M  V30 3723 H 355.195 -7.54004 -1.69404 0
M  V30 3724 H 353.54 -6.77944 -1.53027 0
M  V30 3725 H 356.731 -4.49349 -1.31162 0
M  V30 3726 H 356.904 -6.28649 -1.57178 0
M  V30 3727 N 350.31 0.590341 -1.46126 0
M  V30 3728 C 351.22 1.72793 -1.58681 0
M  V30 3729 C 352.236 1.67516 -0.470566 0
M  V30 3730 O 353.412 1.87562 -0.733642 0
M  V30 3731 C 350.477 3.09287 -1.5666 0
M  V30 3732 C 349.538 3.25886 -2.79458 0
M  V30 3733 C 348.771 4.55869 -2.77524 0
M  V30 3734 O 348.994 5.3928 -1.85832 0
M  V30 3735 O 347.928 4.75552 -3.68964 0
M  V30 3736 H 351.754 1.65149 -2.54872 0
M  V30 3737 H 349.339 0.756486 -1.28832 0
M  V30 3738 H 351.221 3.90577 -1.58202 0
M  V30 3739 H 349.896 3.17385 -0.636271 0
M  V30 3740 H 348.803 2.44119 -2.83472 0
M  V30 3741 H 350.136 3.22675 -3.71674 0
M  V30 3742 N 351.788 1.33704 0.83433 0
M  V30 3743 C 352.751 1.24244 1.92603 0
M  V30 3744 C 353.751 0.160383 1.59998 0
M  V30 3745 O 354.941 0.412228 1.69252 0
M  V30 3746 C 352.073 0.91555 3.28376 0
M  V30 3747 H 353.266 2.21287 2.02416 0
M  V30 3748 H 350.819 1.17827 1.02696 0
M  V30 3749 H 351.554 -0.0521886 3.24258 0
M  V30 3750 H 351.339 1.69811 3.53422 0
M  V30 3751 H 352.829 0.874231 4.08347 0
M  V30 3752 N 353.266 -1.05314 1.17247 0
M  V30 3753 C 354.229 -2.112 0.890357 0
M  V30 3754 C 355.229 -1.60359 -0.118943 0
M  V30 3755 O 356.419 -1.73833 0.113086 0
M  V30 3756 C 353.551 -3.39266 0.333422 0
M  V30 3757 H 354.744 -2.37659 1.82916 0
M  V30 3758 H 352.297 -1.21538 0.982758 0
M  V30 3759 H 353.032 -3.18462 -0.612587 0
M  V30 3760 H 352.817 -3.77477 1.06082 0
M  V30 3761 H 354.307 -4.17315 0.154322 0
M  V30 3762 N 354.744 -0.972509 -1.24016 0
M  V30 3763 C 355.992 -0.635776 -1.91839 0
M  V30 3764 C 356.313 0.832312 -1.76345 0
M  V30 3765 O 355.583 1.5946 -1.13795 0
M  V30 3766 H 354.163 -0.232157 -0.710009 0
M  V30 3767 H 356.825 -1.23462 -1.50809 0
M  V30 3768 H 355.921 -0.880545 -2.99421 0
M  V30 3769 N 356.222 1.38976 -0.743202 0
M  V30 3770 C 357.633 1.83123 -0.363732 0
M  V30 3771 C 357.984 1.6205 1.10609 0
M  V30 3772 O 357.109 1.11606 1.854 0
M  V30 3773 C 357.704 3.32439 -0.653408 0
M  V30 3774 C 356.263 3.74974 -0.327338 0
M  V30 3775 C 355.41 2.61878 -0.911875 0
M  V30 3776 H 358.361 1.27852 -0.940191 0
M  V30 3777 H 358.382 3.80432 0.0720031 0
M  V30 3778 H 357.894 3.47745 -1.72323 0
M  V30 3779 H 355.995 3.65252 0.736314 0
M  V30 3780 H 356.108 4.72106 -0.815631 0
M  V30 3781 H 354.472 2.52448 -0.337944 0
M  V30 3782 H 355.255 2.79987 -1.98651 0
M  V30 3783 N 357.7 0.491464 1.49741 0
M  V30 3784 C 358.61 -0.296835 2.32715 0
M  V30 3785 C 359.626 -0.976536 1.44013 0
M  V30 3786 O 360.802 -0.960023 1.77047 0
M  V30 3787 C 357.867 -1.35288 3.19215 0
M  V30 3788 C 356.928 -0.687632 4.23757 0
M  V30 3789 C 356.161 -1.69336 5.06123 0
M  V30 3790 O 356.384 -2.92219 4.89861 0
M  V30 3791 O 355.318 -1.25394 5.88693 0
M  V30 3792 H 359.144 0.382048 3.01287 0
M  V30 3793 H 356.729 0.252953 1.47243 0
M  V30 3794 H 358.611 -1.96411 3.72828 0
M  V30 3795 H 357.286 -2.01487 2.53347 0
M  V30 3796 H 356.193 -0.0369159 3.74082 0
M  V30 3797 H 357.526 -0.0682566 4.92153 0
M  V30 3798 N 359.178 -1.55987 0.224894 0
M  V30 3799 C 360.589 -1.84553 -0.282345 0
M  V30 3800 C 360.94 -1.14634 -1.59227 0
M  V30 3801 O 360.065 -0.417155 -2.12341 0
M  V30 3802 C 360.66 -3.348 -0.519062 0
M  V30 3803 C 359.219 -3.63671 -0.970604 0
M  V30 3804 C 358.366 -2.77277 -0.0355261 0
M  V30 3805 H 361.317 -1.52245 0.448006 0
M  V30 3806 H 361.338 -3.55187 -1.36463 0
M  V30 3807 H 360.85 -3.8566 0.43449 0
M  V30 3808 H 358.951 -3.1827 -1.9374 0
M  V30 3809 H 359.064 -4.71631 -0.842698 0
M  V30 3810 H 357.428 -2.48846 -0.542927 0
M  V30 3811 H 358.211 -3.30937 0.913003 0
M  V30 3812 N 360.656 0.0484629 -1.57525 0
M  V30 3813 C 362.067 0.597486 -1.76881 0
M  V30 3814 C 362.418 1.76664 -0.853475 0
M  V30 3815 O 361.543 2.16357 -0.0433656 0
M  V30 3816 C 362.138 1.09066 -3.20765 0
M  V30 3817 C 360.697 1.58535 -3.41385 0
M  V30 3818 C 359.844 0.514868 -2.72478 0
M  V30 3819 H 362.795 -0.177758 -1.57701 0
M  V30 3820 H 362.816 1.95875 -3.2621 0
M  V30 3821 H 362.328 0.239521 -3.8736 0
M  V30 3822 H 360.429 2.45898 -2.79937 0
M  V30 3823 H 360.542 1.64622 -4.49929 0
M  V30 3824 H 358.906 0.965407 -2.35695 0
M  V30 3825 H 359.689 -0.32648 -3.41744 0
M  V30 3826 N 362.134 1.5431 0.320358 0
M  V30 3827 C 363.545 1.63872 0.894594 0
M  V30 3828 C 363.896 0.534847 1.88769 0
M  V30 3829 O 363.021 -0.331732 2.13842 0
M  V30 3830 C 363.616 2.97049 1.62934 0
M  V30 3831 C 362.175 3.08796 2.15226 0
M  V30 3832 C 361.322 2.59456 0.978671 0
M  V30 3833 H 364.273 1.58398 0.0978544 0
M  V30 3834 H 364.294 2.87388 2.49376 0
M  V30 3835 H 363.806 3.7737 0.906302 0
M  V30 3836 H 361.907 2.33156 2.90636 0
M  V30 3837 H 362.02 4.14649 2.40006 0
M  V30 3838 H 360.384 2.1543 1.35875 0
M  V30 3839 H 361.167 3.42237 0.269895 0
M  V30 3840 N 363.613 -0.582584 1.46437 0
M  V30 3841 C 364.523 -1.71949 1.59595 0
M  V30 3842 C 365.539 -1.67264 0.479443 0
M  V30 3843 O 366.715 -1.87171 0.743579 0
M  V30 3844 C 363.78 -3.08452 1.58298 0
M  V30 3845 C 362.841 -3.244 2.81182 0
M  V30 3846 C 362.074 -4.54391 2.79937 0
M  V30 3847 O 362.297 -5.38287 1.8869 0
M  V30 3848 O 361.231 -4.73588 3.71481 0
M  V30 3849 H 365.057 -1.63795 2.55744 0
M  V30 3850 H 362.642 -0.749643 1.29231 0
M  V30 3851 H 364.524 -3.89732 1.60271 0
M  V30 3852 H 363.199 -3.17043 0.653094 0
M  V30 3853 H 362.106 -2.42613 2.84763 0
M  V30 3854 H 363.439 -3.20699 3.7338 0
M  V30 3855 N 365.091 -1.34144 -0.827227 0
M  V30 3856 C 366.054 -1.25264 -1.91942 0
M  V30 3857 C 367.054 -0.168866 -1.59911 0
M  V30 3858 O 368.244 -0.421198 -1.69031 0
M  V30 3859 C 365.376 -0.932952 -3.27885 0
M  V30 3860 H 366.569 -2.22357 -2.0124 0
M  V30 3861 H 364.122 -1.1837 -1.0207 0
M  V30 3862 H 364.857 0.0349917 -3.24281 0
M  V30 3863 H 364.642 -1.71682 -3.52516 0
M  V30 3864 H 366.132 -0.895874 -4.07877 0
M  V30 3865 N 366.569 1.04691 -1.17803 0
M  V30 3866 C 367.501 2.12571 -0.857097 0
M  V30 3867 C 368.514 1.62174 0.142647 0
M  V30 3868 O 369.703 1.78301 -0.0843387 0
M  V30 3869 C 366.803 3.37915 -0.258216 0
M  V30 3870 C 365.976 4.1757 -1.30207 0
M  V30 3871 C 365.035 5.2125 -0.720029 0
M  V30 3872 O 364.061 5.51888 -1.39314 0
M  V30 3873 N 365.263 5.78466 0.485507 0
M  V30 3874 H 368.028 2.40698 -1.78562 0
M  V30 3875 H 365.589 1.20831 -1.07757 0
M  V30 3876 H 367.581 4.04442 0.144584 0
M  V30 3877 H 366.151 3.07281 0.574199 0
M  V30 3878 H 365.371 3.46458 -1.88043 0
M  V30 3879 H 366.659 4.67586 -2.00601 0
M  V30 3880 H 366.057 5.55866 1.05022 0
M  V30 3881 H 364.614 6.4649 0.830307 0
M  V30 3882 N 368.047 0.979072 1.23499 0
M  V30 3883 C 369.458 0.684391 1.73704 0
M  V30 3884 C 369.809 -0.799448 1.79174 0
M  V30 3885 O 368.934 -1.62531 1.42873 0
M  V30 3886 C 369.529 1.23564 3.15464 0
M  V30 3887 C 368.088 0.99063 3.6313 0
M  V30 3888 C 367.235 1.36416 2.41425 0
M  V30 3889 H 370.186 1.15307 1.09041 0
M  V30 3890 H 370.207 0.607417 3.7562 0
M  V30 3891 H 369.719 2.31561 3.1145 0
M  V30 3892 H 367.82 -0.0733136 3.72528 0
M  V30 3893 H 367.933 1.64427 4.5 0
M  V30 3894 H 366.297 0.782616 2.42378 0
M  V30 3895 H 367.08 2.45387 2.40083 0
M  V30 3896 N 369.525 -1.3858 0.750561 0
M  V30 3897 C 370.75 -2.04997 0.314812 0
M  V30 3898 C 371.175 -1.56235 -1.04749 0
M  V30 3899 O 370.533 -0.712981 -1.66692 0
M  V30 3900 C 370.581 -3.58961 0.343415 0
M  V30 3901 O 369.685 -4.07025 -0.663628 0
M  V30 3902 H 369.026 -0.649081 0.139962 0
M  V30 3903 H 371.556 -1.77313 1.02084 0
M  V30 3904 H 371.566 -4.07542 0.193233 0
M  V30 3905 H 370.241 -3.93811 1.33738 0
M  V30 3906 H 368.818 -3.6982 -0.478307 0
M  V30 3907 N 371.003 -0.499398 -1.49478 0
M  V30 3908 C 372.414 -0.051215 -1.8663 0
M  V30 3909 C 372.765 1.36238 -1.41186 0
M  V30 3910 O 371.89 2.01502 -0.789051 0
M  V30 3911 C 372.485 -0.0861651 -3.3869 0
M  V30 3912 C 371.044 0.30667 -3.75149 0
M  V30 3913 C 370.191 -0.459397 -2.73468 0
M  V30 3914 H 373.142 -0.712264 -1.41818 0
M  V30 3915 H 373.163 0.709507 -3.73826 0
M  V30 3916 H 372.675 -1.11512 -3.71735 0
M  V30 3917 H 370.776 1.33892 -3.47712 0
M  V30 3918 H 370.889 -0.0116669 -4.79099 0
M  V30 3919 H 369.253 0.0905645 -2.54539 0
M  V30 3920 H 370.036 -1.4884 -3.09357 0
M  V30 3921 N 372.481 1.55866 -0.233164 0
M  V30 3922 C 373.892 1.847 0.272554 0
M  V30 3923 C 374.243 1.15477 1.58617 0
M  V30 3924 O 373.368 0.42841 2.12117 0
M  V30 3925 C 373.963 3.35071 0.501299 0
M  V30 3926 C 372.522 3.6418 0.951304 0
M  V30 3927 C 371.669 2.77292 0.0208209 0
M  V30 3928 H 374.62 1.52005 -0.456074 0
M  V30 3929 H 374.641 3.55906 1.34577 0
M  V30 3930 H 374.153 3.85424 -0.454936 0
M  V30 3931 H 372.254 3.19293 1.92049 0
M  V30 3932 H 372.367 4.72071 0.817675 0
M  V30 3933 H 370.731 2.49131 0.529723 0
M  V30 3934 H 371.514 3.30448 -0.93054 0
M  V30 3935 N 373.959 -0.0401083 1.57549 0
M  V30 3936 C 375.37 -0.588097 1.77196 0
M  V30 3937 C 375.721 -1.76209 0.862832 0
M  V30 3938 O 374.846 -2.16331 0.0548389 0
M  V30 3939 C 375.441 -1.07363 3.21339 0
M  V30 3940 C 374 -1.56723 3.42221 0
M  V30 3941 C 373.147 -0.50041 2.72747 0
M  V30 3942 H 376.098 0.186119 1.57605 0
M  V30 3943 H 376.119 -1.94143 3.27244 0
M  V30 3944 H 375.631 -0.218975 3.87482 0
M  V30 3945 H 373.732 -2.4441 2.81237 0
M  V30 3946 H 373.845 -1.62234 4.50796 0
M  V30 3947 H 372.209 -0.952894 2.36203 0
M  V30 3948 H 372.992 0.344599 3.41566 0
M  V30 3949 N 375.437 -1.54477 -0.31217 0
M  V30 3950 C 376.848 -1.64344 -0.885891 0
M  V30 3951 C 377.199 -0.54485 -1.88483 0
M  V30 3952 O 376.324 0.320387 -2.14015 0
M  V30 3953 C 376.919 -2.97908 -1.61357 0
M  V30 3954 C 375.478 -3.09933 -2.13585 0
M  V30 3955 C 374.625 -2.59971 -0.964897 0
M  V30 3956 H 377.576 -1.58448 -0.0894528 0
M  V30 3957 H 377.597 -2.88706 -2.47848 0
M  V30 3958 H 377.109 -3.77845 -0.886277 0
M  V30 3959 H 375.21 -2.34694 -2.89395 0
M  V30 3960 H 375.323 -4.15916 -2.37804 0
M  V30 3961 H 373.687 -2.16147 -1.34731 0
M  V30 3962 H 374.47 -3.42376 -0.251742 0
M  V30 3963 N 376.915 0.57481 -1.46744 0
M  V30 3964 C 378.326 1.15695 -1.46532 0
M  V30 3965 C 378.677 1.95068 -0.210425 0
M  V30 3966 O 377.802 2.05241 0.685944 0
M  V30 3967 C 378.397 2.1048 -2.65487 0
M  V30 3968 C 376.956 2.64002 -2.68291 0
M  V30 3969 C 376.103 1.40026 -2.39349 0
M  V30 3970 H 379.054 0.362325 -1.54509 0
M  V30 3971 H 379.075 2.94074 -2.41455 0
M  V30 3972 H 378.587 1.52683 -3.56805 0
M  V30 3973 H 376.688 3.25646 -1.81067 0
M  V30 3974 H 376.801 3.06197 -3.68483 0
M  V30 3975 H 375.165 1.70106 -1.89568 0
M  V30 3976 H 375.948 0.840485 -3.32852 0
M  V30 3977 N 378.394 1.34581 0.820102 0
M  V30 3978 C 379.642 1.26845 1.57336 0
M  V30 3979 C 379.963 -0.160667 1.94337 0
M  V30 3980 O 379.233 -1.09396 1.6251 0
M  V30 3981 H 377.813 0.466514 0.583415 0
M  V30 3982 H 380.475 1.68526 0.979027 0
M  V30 3983 H 379.571 1.87513 2.4949 0
M  V30 3984 N 379.872 -1.04064 1.18357 0
M  V30 3985 C 381.112 -1.78829 0.989921 0
M  V30 3986 C 381.476 -1.86106 -0.472095 0
M  V30 3987 O 382.677 -2.57076 -0.785187 0
M  V30 3988 C 380.948 -3.1823 1.6268 0
M  V30 3989 S 382.507 -4.09332 1.58091 0
M  V30 3990 H 379.325 -0.615754 0.355482 0
M  V30 3991 H 381.927 -1.24778 1.50501 0
M  V30 3992 H 380.631 -3.10543 2.68311 0
M  V30 3993 H 380.162 -3.77357 1.112 0
M  V30 3994 H 382.177 -4.92598 0.596817 0
M  V30 3995 N 381.35 -0.985608 -1.22978 0
M  V30 3996 C 382.596 -0.667998 -1.92118 0
M  V30 3997 C 382.951 0.790454 -1.75413 0
M  V30 3998 O 382.244 1.56336 -1.10768 0
M  V30 3999 C 382.438 -1.00014 -3.43121 0
M  V30 4000 C 382.267 -2.48933 -3.74516 0
M  V30 4001 C 381.037 -3.15218 -3.94925 0
M  V30 4002 C 383.235 -3.47024 -3.79577 0
M  V30 4003 N 381.217 -4.53689 -4.13569 0
M  V30 4004 C 382.588 -4.70923 -4.03276 0
M  V30 4005 C 384.643 -3.41432 -3.62393 0
M  V30 4006 C 383.346 -5.89914 -4.11574 0
M  V30 4007 C 385.372 -4.59793 -3.71947 0
M  V30 4008 C 384.734 -5.82489 -3.96088 0
M  V30 4009 H 380.833 -0.295589 -0.723983 0
M  V30 4010 H 383.417 -1.26413 -1.4808 0
M  V30 4011 H 381.588 -0.432655 -3.85983 0
M  V30 4012 H 383.32 -0.63927 -3.99619 0
M  V30 4013 H 380.075 -2.65702 -3.92045 0
M  V30 4014 H 380.499 -5.25492 -4.26834 0
M  V30 4015 H 385.141 -2.47594 -3.4272 0
M  V30 4016 H 382.859 -6.84164 -4.30053 0
M  V30 4017 H 386.445 -4.57048 -3.59998 0
M  V30 4018 H 385.325 -6.72546 -4.033 0
M  V30 4019 N 382.828 1.3818 -0.7579 0
M  V30 4020 C 384.076 1.99624 -0.315361 0
M  V30 4021 C 384.397 1.60464 1.10799 0
M  V30 4022 O 383.667 0.863507 1.75842 0
M  V30 4023 H 382.247 0.73831 -0.113611 0
M  V30 4024 H 384.909 1.68878 -0.972952 0
M  V30 4025 H 384.005 3.09754 -0.381931 0
M  V30 4026 N 384.306 0.507319 1.49211 0
M  V30 4027 C 385.546 -0.0332372 2.04373 0
M  V30 4028 C 385.91 -1.33694 1.37804 0
M  V30 4029 O 387.111 -1.96213 1.83722 0
M  V30 4030 C 385.382 -0.17599 3.56966 0
M  V30 4031 S 386.941 -0.669882 4.33657 0
M  V30 4032 H 383.759 0.00123603 0.710999 0
M  V30 4033 H 386.361 0.682725 1.83191 0
M  V30 4034 H 385.065 0.778053 4.02957 0
M  V30 4035 H 384.596 -0.917005 3.82563 0
M  V30 4036 H 386.611 -1.93806 4.56786 0
M  V30 4037 N 385.784 -1.5574 0.241426 0
M  V30 4038 C 387.03 -1.99846 -0.378555 0
M  V30 4039 C 387.385 -1.12665 -1.55963 0
M  V30 4040 O 386.678 -0.180966 -1.90743 0
M  V30 4041 C 386.872 -3.47308 -0.843317 0
M  V30 4042 C 386.701 -4.48756 0.291178 0
M  V30 4043 C 385.471 -4.9949 0.764077 0
M  V30 4044 C 387.669 -5.02039 1.11631 0
M  V30 4045 N 385.651 -5.84676 1.87156 0
M  V30 4046 C 387.022 -5.84343 2.07226 0
M  V30 4047 C 389.077 -4.84354 1.15349 0
M  V30 4048 C 387.78 -6.50851 3.06245 0
M  V30 4049 C 389.806 -5.51636 2.13195 0
M  V30 4050 C 389.168 -6.33724 3.07528 0
M  V30 4051 H 385.267 -0.774968 -0.104634 0
M  V30 4052 H 387.851 -1.91385 0.357751 0
M  V30 4053 H 386.022 -3.56178 -1.54893 0
M  V30 4054 H 387.754 -3.78299 -1.43779 0
M  V30 4055 H 384.509 -4.72311 0.349175 0
M  V30 4056 H 384.933 -6.31967 2.42789 0
M  V30 4057 H 389.575 -4.20525 0.438057 0
M  V30 4058 H 387.293 -7.1385 3.78739 0
M  V30 4059 H 390.879 -5.39909 2.16771 0
M  V30 4060 H 389.759 -6.84867 3.82003 0
M  V30 4061 N 387.262 0.0317525 -1.57568 0
M  V30 4062 C 388.194 1.06073 -2.03178 0
M  V30 4063 C 389.207 1.32627 -0.944132 0
M  V30 4064 O 390.396 1.30162 -1.22148 0
M  V30 4065 C 387.496 2.40297 -2.38978 0
M  V30 4066 C 386.669 2.33137 -3.70089 0
M  V30 4067 C 385.728 3.49787 -3.9311 0
M  V30 4068 O 384.754 3.29403 -4.64201 0
M  V30 4069 N 385.956 4.71562 -3.38541 0
M  V30 4070 H 388.721 0.672006 -2.92069 0
M  V30 4071 H 386.282 0.219745 -1.60402 0
M  V30 4072 H 388.274 3.1705 -2.51518 0
M  V30 4073 H 386.844 2.71024 -1.55771 0
M  V30 4074 H 386.064 1.415 -3.67928 0
M  V30 4075 H 387.352 2.25493 -4.56104 0
M  V30 4076 H 386.75 4.91024 -2.80912 0
M  V30 4077 H 385.307 5.45689 -3.56464 0
M  V30 4078 N 388.74 1.54641 0.303973 0
M  V30 4079 C 389.687 1.85386 1.37479 0
M  V30 4080 C 390.657 0.702528 1.50512 0
M  V30 4081 O 391.842 0.950867 1.65418 0
M  V30 4082 C 388.982 2.10413 2.73533 0
M  V30 4083 C 388.095 3.38049 2.68974 0
M  V30 4084 C 387.23 3.52934 3.97002 0
M  V30 4085 C 386.269 4.74373 3.86829 0
M  V30 4086 N 385.406 4.8608 5.06627 0
M  V30 4087 H 390.246 2.76732 1.1056 0
M  V30 4088 H 387.783 1.37034 0.534805 0
M  V30 4089 H 389.741 2.22919 3.52652 0
M  V30 4090 H 388.371 1.22338 2.98719 0
M  V30 4091 H 387.423 3.3418 1.81736 0
M  V30 4092 H 388.735 4.27288 2.57346 0
M  V30 4093 H 387.889 3.65088 4.84557 0
M  V30 4094 H 386.628 2.61824 4.1146 0
M  V30 4095 H 385.633 4.62255 2.97658 0
M  V30 4096 H 386.858 5.66888 3.73918 0
M  V30 4097 H 384.804 3.97891 5.21554 0
M  V30 4098 H 384.721 5.69315 4.9741 0
M  V30 4099 H 385.989 5.02587 5.95841 0
M  V30 4100 N 390.218 -0.567019 1.47046 0
M  V30 4101 C 391.466 -1.322 1.52864 0
M  V30 4102 C 391.787 -1.94088 0.188388 0
M  V30 4103 O 391.057 -1.7941 -0.786693 0
M  V30 4104 H 389.637 -0.490894 0.563056 0
M  V30 4105 H 392.299 -0.662879 1.83281 0
M  V30 4106 H 391.395 -2.12062 2.2899 0
M  V30 4107 N 391.696 -1.35014 -0.812953 0
M  V30 4108 C 392.646 -1.23959 -1.91359 0
M  V30 4109 C 393.63 -0.136306 -1.60322 0
M  V30 4110 O 394.822 -0.366925 -1.73155 0
M  V30 4111 C 391.951 -1.00736 -3.28188 0
M  V30 4112 C 391.037 -2.15426 -3.65311 0
M  V30 4113 N 391.428 -3.40612 -3.73921 0
M  V30 4114 C 389.726 -2.06672 -3.95225 0
M  V30 4115 C 390.427 -4.15994 -4.06601 0
M  V30 4116 N 389.403 -3.44685 -4.20349 0
M  V30 4117 H 393.205 -2.18815 -1.96208 0
M  V30 4118 H 390.719 -1.27395 -1.00718 0
M  V30 4119 H 392.716 -0.909052 -4.06868 0
M  V30 4120 H 391.376 -0.067586 -3.2463 0
M  V30 4121 H 392.387 -3.75043 -3.5716 0
M  V30 4122 H 389.064 -1.20511 -3.99729 0
M  V30 4123 H 390.454 -5.24145 -4.20382 0
M  V30 4124 N 393.175 1.03435 -1.18907 0
M  V30 4125 C 394.423 1.76394 -0.986382 0
M  V30 4126 C 394.744 1.88883 0.484567 0
M  V30 4127 O 394.014 1.41843 1.3512 0
M  V30 4128 H 392.594 0.65344 -0.361975 0
M  V30 4129 H 395.256 1.248 -1.49703 0
M  V30 4130 H 394.352 2.77424 -1.42978 0
M  V30 4131 N 394.653 0.992116 1.22453 0
M  V30 4132 C 395.563 0.55065 2.28046 0
M  V30 4133 C 396.579 -0.400189 1.69335 0
M  V30 4134 O 397.755 -0.267215 1.99619 0
M  V30 4135 C 394.82 -0.128496 3.46462 0
M  V30 4136 C 393.881 0.865208 4.20491 0
M  V30 4137 C 393.114 0.218377 5.33253 0
M  V30 4138 O 393.337 -0.987894 5.6178 0
M  V30 4139 O 392.271 0.922845 5.94783 0
M  V30 4140 H 396.097 1.4291 2.67975 0
M  V30 4141 H 393.682 0.760326 1.28606 0
M  V30 4142 H 395.564 -0.508947 4.18315 0
M  V30 4143 H 394.239 -0.981526 3.0846 0
M  V30 4144 H 393.146 1.29658 3.50913 0
M  V30 4145 H 394.479 1.68741 4.62371 0
M  V30 4146 N 396.131 -1.37776 0.765217 0
M  V30 4147 C 397.094 -2.28686 0.153416 0
M  V30 4148 C 398.094 -1.47727 -0.635081 0
M  V30 4149 O 399.284 -1.68027 -0.459632 0
M  V30 4150 C 396.416 -3.31608 -0.790495 0
M  V30 4151 H 397.609 -2.84297 0.954723 0
M  V30 4152 H 395.162 -1.46932 0.53299 0
M  V30 4153 H 395.897 -2.81109 -1.61705 0
M  V30 4154 H 395.682 -3.9144 -0.227348 0
M  V30 4155 H 397.172 -3.99559 -1.21419 0
M  V30 4156 N 397.609 -0.515225 -1.4894 0
M  V30 4157 C 398.542 0.302518 -2.26186 0
M  V30 4158 C 399.52 0.957895 -1.31389 0
M  V30 4159 O 400.704 0.985198 -1.60705 0
M  V30 4160 C 397.831 1.42719 -3.07163 0
M  V30 4161 C 396.877 0.884736 -4.17223 0
M  V30 4162 S 397.71 -0.235767 -5.34981 0
M  V30 4163 C 398.866 0.891731 -6.19515 0
M  V30 4164 H 399.099 -0.353076 -2.95196 0
M  V30 4165 H 396.632 -0.300753 -1.51443 0
M  V30 4166 H 398.59 2.07152 -3.54398 0
M  V30 4167 H 397.251 2.05445 -2.37595 0
M  V30 4168 H 396.444 1.72801 -4.73451 0
M  V30 4169 H 396.046 0.317362 -3.72651 0
M  V30 4170 H 398.338 1.79377 -6.53322 0
M  V30 4171 H 399.281 0.367751 -7.07144 0
M  V30 4172 H 399.689 1.16548 -5.52338 0
M  V30 4173 N 399.087 1.5561 -0.249682 0
M  V30 4174 C 400.498 1.84979 0.252949 0
M  V30 4175 C 400.849 1.17153 1.57384 0
M  V30 4176 O 399.974 0.450884 2.11651 0
M  V30 4177 C 400.569 3.35584 0.465732 0
M  V30 4178 C 399.128 3.65169 0.912624 0
M  V30 4179 C 398.275 2.77299 -0.00859085 0
M  V30 4180 H 401.226 1.51513 -0.47217 0
M  V30 4181 H 401.247 3.57313 1.30795 0
M  V30 4182 H 400.759 3.8492 -0.49579 0
M  V30 4183 H 398.86 3.21312 1.88652 0
M  V30 4184 H 398.973 4.72912 0.767559 0
M  V30 4185 H 397.337 2.49678 0.50327 0
M  V30 4186 H 398.12 3.29442 -0.965537 0
M  V30 4187 N 400.565 -0.0233959 1.57583 0
M  V30 4188 C 401.495 -1.02162 2.09965 0
M  V30 4189 C 402.476 -1.3735 1.00344 0
M  V30 4190 O 403.661 -1.46135 1.27899 0
M  V30 4191 C 400.791 -2.32081 2.58371 0
M  V30 4192 C 399.745 -2.1112 3.72307 0
M  V30 4193 C 399.071 -3.46848 4.06941 0
M  V30 4194 C 400.371 -1.49276 5.00514 0
M  V30 4195 H 402.065 -0.585557 2.93618 0
M  V30 4196 H 399.611 -0.280218 1.41247 0
M  V30 4197 H 401.564 -3.02249 2.93639 0
M  V30 4198 H 400.288 -2.77758 1.71808 0
M  V30 4199 H 398.947 -1.43384 3.37397 0
M  V30 4200 H 398.595 -3.90184 3.17436 0
M  V30 4201 H 398.295 -3.33646 4.83688 0
M  V30 4202 H 399.819 -4.18369 4.44747 0
M  V30 4203 H 401.233 -2.09368 5.33702 0
M  V30 4204 H 399.63 -1.46632 5.8191 0
M  V30 4205 H 400.7 -0.459217 4.82721 0
M  V30 4206 N 402.043 -1.548 -0.295768 0
M  V30 4207 C 402.993 -1.82497 -1.3667 0
M  V30 4208 C 403.977 -0.682434 -1.45711 0
M  V30 4209 O 405.169 -0.943207 -1.49775 0
M  V30 4210 C 402.298 -2.08036 -2.73086 0
M  V30 4211 C 401.384 -3.28488 -2.68247 0
M  V30 4212 N 401.775 -4.48924 -2.33025 0
M  V30 4213 C 400.073 -3.3062 -2.99343 0
M  V30 4214 C 400.774 -5.30956 -2.37613 0
M  V30 4215 N 399.75 -4.68805 -2.75178 0
M  V30 4216 H 403.552 -2.73175 -1.0841 0
M  V30 4217 H 401.066 -1.5437 -0.504361 0
M  V30 4218 H 403.063 -2.26027 -3.5031 0
M  V30 4219 H 401.723 -1.18629 -3.02254 0
M  V30 4220 H 402.734 -4.75432 -2.05389 0
M  V30 4221 H 399.411 -2.51336 -3.33371 0
M  V30 4222 H 400.801 -6.37199 -2.13135 0
M  V30 4223 N 403.521 0.559213 -1.47345 0
M  V30 4224 C 404.937 0.884943 -1.32819 0
M  V30 4225 C 405.137 1.98988 -0.317173 0
M  V30 4226 O 404.193 2.51031 0.272011 0
M  V30 4227 C 405.506 1.28007 -2.72093 0
M  V30 4228 C 407.054 1.39161 -2.80363 0
M  V30 4229 C 407.529 1.82031 -4.20272 0
M  V30 4230 N 409.02 1.89185 -4.22804 0
M  V30 4231 C 409.755 2.2368 -5.27973 0
M  V30 4232 N 409.251 2.56802 -6.43447 0
M  V30 4233 N 411.044 2.24436 -5.15349 0
M  V30 4234 H 403.195 -0.170304 -2.11716 0
M  V30 4235 H 405.458 -0.0135247 -0.947904 0
M  V30 4236 H 405.164 0.542027 -3.47498 0
M  V30 4237 H 405.038 2.23665 -3.03733 0
M  V30 4238 H 407.425 2.12048 -2.05231 0
M  V30 4239 H 407.506 0.41696 -2.52379 0
M  V30 4240 H 407.15 1.09715 -4.95908 0
M  V30 4241 H 407.08 2.80495 -4.45679 0
M  V30 4242 H 409.571 1.65982 -3.39497 0
M  V30 4243 H 409.884 2.82144 -7.19454 0
M  V30 4244 H 408.229 2.54387 -6.46771 0
M  V30 4245 H 411.42 1.97998 -4.24163 0
M  V30 4246 H 411.593 2.50989 -5.97418 0
M  V30 4247 N 404.999 1.35443 0.805782 0
M  V30 4248 C 406.229 1.31687 1.59192 0
M  V30 4249 C 406.637 -0.10756 1.88894 0
M  V30 4250 O 405.98 -1.07017 1.49309 0
M  V30 4251 C 406.042 2.05686 2.94845 0
M  V30 4252 C 405.706 3.54868 2.87954 0
M  V30 4253 C 406.703 4.49444 2.61335 0
M  V30 4254 C 404.388 3.97528 3.07046 0
M  V30 4255 C 406.382 5.84655 2.53885 0
M  V30 4256 C 404.069 5.32833 2.99219 0
M  V30 4257 C 405.067 6.26209 2.72674 0
M  V30 4258 O 404.755 7.59032 2.64811 0
M  V30 4259 H 404.487 0.453878 0.50097 0
M  V30 4260 H 407.041 1.78892 1.0093 0
M  V30 4261 H 405.271 1.5312 3.55093 0
M  V30 4262 H 406.96 1.94998 3.55993 0
M  V30 4263 H 407.726 4.17804 2.46303 0
M  V30 4264 H 403.605 3.25233 3.26718 0
M  V30 4265 H 407.149 6.57508 2.33086 0
M  V30 4266 H 403.046 5.64087 3.13809 0
M  V30 4267 H 403.814 7.68967 2.80413 0
M  V30 4268 N 406.477 -1.02803 1.19454 0
M  V30 4269 C 407.725 -1.75869 0.995722 0
M  V30 4270 C 408.046 -1.89138 -0.474543 0
M  V30 4271 O 407.316 -1.42558 -1.34366 0
M  V30 4272 H 405.896 -0.651511 0.365435 0
M  V30 4273 H 408.558 -1.24004 1.50363 0
M  V30 4274 H 407.654 -2.76661 1.44447 0
M  V30 4275 N 407.956 -0.998596 -1.21925 0
M  V30 4276 C 409.202 -0.678667 -1.91107 0
M  V30 4277 C 409.535 0.78791 -1.77498 0
M  V30 4278 O 408.81 1.57043 -1.1475 0
M  V30 4279 C 409.093 -1.09245 -3.43129 0
M  V30 4280 C 408.946 -2.61801 -3.6576 0
M  V30 4281 C 410.265 -0.649984 -4.35274 0
M  V30 4282 H 407.384 -0.248025 -0.694012 0
M  V30 4283 H 410.026 -1.24314 -1.43688 0
M  V30 4284 H 408.176 -0.612171 -3.83647 0
M  V30 4285 H 409.848 -3.17543 -3.34611 0
M  V30 4286 H 408.091 -3.03609 -3.09845 0
M  V30 4287 H 408.762 -2.85804 -4.7225 0
M  V30 4288 H 411.238 -1.0626 -4.02303 0
M  V30 4289 H 410.114 -0.967743 -5.40302 0
M  V30 4290 H 410.375 0.449139 -4.39813 0
M  V30 4291 N 409.434 1.37368 -0.772513 0
M  V30 4292 C 410.682 1.99279 -0.336516 0
M  V30 4293 C 411.003 1.6163 1.09091 0
M  V30 4294 O 410.273 0.882109 1.74916 0
M  V30 4295 H 408.853 0.737063 -0.121435 0
M  V30 4296 H 411.515 1.67836 -0.990809 0
M  V30 4297 H 410.611 3.09332 -0.414763 0
M  V30 4298 N 410.912 0.523116 1.48665 0
M  V30 4299 C 411.822 -0.247406 2.33292 0
M  V30 4300 C 412.838 -0.945769 1.46052 0
M  V30 4301 O 414.014 -0.922253 1.79043 0
M  V30 4302 C 411.079 -1.28487 3.22012 0
M  V30 4303 C 410.14 -0.597592 4.2512 0
M  V30 4304 C 409.373 -1.58563 5.09601 0
M  V30 4305 O 409.596 -2.81763 4.95949 0
M  V30 4306 O 408.53 -1.12879 5.91221 0
M  V30 4307 H 412.356 0.445869 3.00409 0
M  V30 4308 H 409.941 0.284128 1.46673 0
M  V30 4309 H 411.823 -1.88459 3.7691 0
M  V30 4310 H 410.498 -1.96068 2.57564 0
M  V30 4311 H 409.405 0.0424407 3.74076 0
M  V30 4312 H 410.738 0.0361517 4.92187 0
M  V30 4313 N 412.39 -1.55475 0.257931 0
M  V30 4314 C 413.353 -2.20551 -0.623706 0
M  V30 4315 C 414.353 -1.17809 -1.09443 0
M  V30 4316 O 415.543 -1.42823 -0.997362 0
M  V30 4317 C 412.675 -2.85784 -1.8585 0
M  V30 4318 H 413.868 -2.99848 -0.0557743 0
M  V30 4319 H 411.421 -1.56298 0.0084422 0
M  V30 4320 H 412.156 -2.10453 -2.46739 0
M  V30 4321 H 411.941 -3.61057 -1.52907 0
M  V30 4322 H 413.431 -3.35553 -2.48584 0
M  V30 4323 N 413.868 0.0150385 -1.57593 0
M  V30 4324 C 414.831 0.995996 -2.06428 0
M  V30 4325 C 415.831 1.2818 -0.970903 0
M  V30 4326 O 417.021 1.22949 -1.23406 0
M  V30 4327 C 414.153 2.32506 -2.49307 0
M  V30 4328 H 415.346 0.573873 -2.94358 0
M  V30 4329 H 412.899 0.262186 -1.54085 0
M  V30 4330 H 413.634 2.79438 -1.64575 0
M  V30 4331 H 413.419 2.13087 -3.29145 0
M  V30 4332 H 414.909 3.02906 -2.87468 0
M  V30 4333 N 415.346 1.54954 0.287554 0
M  V30 4334 C 416.592 1.75132 1.02257 0
M  V30 4335 C 416.925 0.542858 1.86458 0
M  V30 4336 O 416.2 -0.459856 1.88986 0
M  V30 4337 C 416.483 3.04812 1.91733 0
M  V30 4338 C 416.336 4.35985 1.10622 0
M  V30 4339 C 417.655 3.30438 2.90687 0
M  V30 4340 H 414.774 0.637194 0.370341 0
M  V30 4341 H 417.416 1.87678 0.296111 0
M  V30 4342 H 415.566 2.94247 2.53675 0
M  V30 4343 H 417.238 4.58487 0.508636 0
M  V30 4344 H 415.481 4.31865 0.409271 0
M  V30 4345 H 416.152 5.23017 1.76513 0
M  V30 4346 H 418.628 3.40701 2.38877 0
M  V30 4347 H 417.504 4.22467 3.50447 0
M  V30 4348 H 417.765 2.49377 3.65053 0
M  V30 4349 N 416.824 -0.551391 1.4764 0
M  V30 4350 C 418.072 -1.30572 1.54258 0
M  V30 4351 C 418.393 -1.93877 0.208963 0
M  V30 4352 O 417.663 -1.80234 -0.767619 0
M  V30 4353 H 416.243 -0.484894 0.568231 0
M  V30 4354 H 418.905 -0.643402 1.83974 0
M  V30 4355 H 418.001 -2.09621 2.31226 0
M  V30 4356 N 418.302 -1.35869 -0.798587 0
M  V30 4357 C 419.265 -1.29307 -1.89242 0
M  V30 4358 C 420.265 -0.202747 -1.59517 0
M  V30 4359 O 421.455 -0.456957 -1.681 0
M  V30 4360 C 418.587 -1.00229 -3.25833 0
M  V30 4361 H 419.78 -2.26576 -1.96478 0
M  V30 4362 H 417.333 -1.20509 -0.995358 0
M  V30 4363 H 418.068 -0.033801 -3.24282 0
M  V30 4364 H 417.853 -1.79121 -3.48795 0
M  V30 4365 H 419.343 -0.98219 -4.05885 0
M  V30 4366 N 419.78 1.02168 -1.19998 0
M  V30 4367 C 420.69 2.14069 -0.959774 0
M  V30 4368 C 421.706 1.73804 0.082655 0
M  V30 4369 O 422.882 2.01133 -0.103633 0
M  V30 4370 C 419.947 3.42936 -0.509459 0
M  V30 4371 C 419.008 3.97474 -1.62213 0
M  V30 4372 C 418.241 5.2019 -1.19321 0
M  V30 4373 O 418.464 5.70369 -0.0597726 0
M  V30 4374 O 417.398 5.67749 -1.99863 0
M  V30 4375 H 421.224 2.37199 -1.89658 0
M  V30 4376 H 418.809 1.12469 -0.983411 0
M  V30 4377 H 420.691 4.20551 -0.267322 0
M  V30 4378 H 419.366 3.21234 0.398821 0
M  V30 4379 H 418.273 3.21161 -1.9185 0
M  V30 4380 H 419.606 4.23555 -2.50723 0
M  V30 4381 N 421.258 1.00505 1.21394 0
M  V30 4382 C 422.221 0.570459 2.21987 0
M  V30 4383 C 423.221 -0.353211 1.56873 0
M  V30 4384 O 424.411 -0.14349 1.73608 0
M  V30 4385 C 421.543 -0.168555 3.40483 0
M  V30 4386 H 422.736 1.46021 2.6195 0
M  V30 4387 H 420.289 0.793565 1.34656 0
M  V30 4388 H 421.024 -1.07374 3.06009 0
M  V30 4389 H 420.809 0.494823 3.88965 0
M  V30 4390 H 422.299 -0.460362 4.15055 0
M  V30 4391 N 422.737 -1.36956 0.779787 0
M  V30 4392 C 423.985 -1.99097 0.347079 0
M  V30 4393 C 424.306 -1.62206 -1.08232 0
M  V30 4394 O 423.576 -0.891373 -1.74446 0
M  V30 4395 H 422.156 -0.736409 0.125342 0
M  V30 4396 H 424.818 -1.67308 0.999696 0
M  V30 4397 H 423.914 -3.09107 0.431162 0
M  V30 4398 N 424.215 -0.530993 -1.48385 0
M  V30 4399 C 425.125 0.23503 -2.3342 0
M  V30 4400 C 426.141 0.93801 -1.46552 0
M  V30 4401 O 427.317 0.912745 -1.7953 0
M  V30 4402 C 424.382 1.26778 -3.22689 0
M  V30 4403 C 423.443 0.575038 -4.25431 0
M  V30 4404 C 422.676 1.55858 -5.10435 0
M  V30 4405 O 422.899 2.79129 -4.97437 0
M  V30 4406 O 421.833 1.09742 -5.91811 0
M  V30 4407 H 425.659 -0.461794 -3.00169 0
M  V30 4408 H 423.244 -0.291903 -1.46521 0
M  V30 4409 H 425.126 1.86457 -3.77904 0
M  V30 4410 H 423.801 1.94699 -2.586 0
M  V30 4411 H 422.708 -0.0622782 -3.74048 0
M  V30 4412 H 424.041 -0.062253 -4.92161 0
M  V30 4413 N 425.693 1.55336 -0.266172 0
M  V30 4414 C 426.656 2.20878 0.612001 0
M  V30 4415 C 427.656 1.18388 1.08816 0
M  V30 4416 O 428.846 1.4335 0.989774 0
M  V30 4417 C 425.978 2.86765 1.84332 0
M  V30 4418 H 427.171 2.99873 0.0398718 0
M  V30 4419 H 424.724 1.56291 -0.0167309 0
M  V30 4420 H 425.459 2.11759 2.45619 0
M  V30 4421 H 425.244 3.61862 1.5099 0
M  V30 4422 H 426.734 3.36867 2.46801 0
M  V30 4423 N 427.171 -0.0066808 1.57599 0
M  V30 4424 C 428.399 -0.704087 1.94551 0
M  V30 4425 C 428.814 -1.67677 0.867746 0
M  V30 4426 O 428.171 -1.8185 -0.153925 0
M  V30 4427 C 428.222 -1.44177 3.31505 0
M  V30 4428 O 427.943 -0.508097 4.35144 0
M  V30 4429 C 429.444 -2.23429 3.82876 0
M  V30 4430 H 426.664 -0.196523 0.641576 0
M  V30 4431 H 429.208 0.042453 2.04456 0
M  V30 4432 H 427.363 -2.13999 3.22929 0
M  V30 4433 H 427.777 -1.02782 5.14331 0
M  V30 4434 H 429.251 -2.70552 4.8115 0
M  V30 4435 H 429.728 -3.05818 3.15233 0
M  V30 4436 H 430.334 -1.58636 3.94607 0
M  V30 4437 N 428.649 -1.55105 -0.279332 0
M  V30 4438 C 429.579 -1.90557 -1.34945 0
M  V30 4439 C 430.56 -0.766738 -1.51839 0
M  V30 4440 O 431.745 -1.02434 -1.64988 0
M  V30 4441 C 428.875 -2.17193 -2.71006 0
M  V30 4442 C 427.829 -3.33021 -2.68851 0
M  V30 4443 C 427.155 -3.45123 -4.08405 0
M  V30 4444 C 428.455 -4.69578 -2.28678 0
M  V30 4445 H 430.149 -2.80188 -1.05522 0
M  V30 4446 H 427.695 -1.34811 -0.506173 0
M  V30 4447 H 429.648 -2.40581 -3.45975 0
M  V30 4448 H 428.372 -1.24355 -3.01999 0
M  V30 4449 H 427.031 -3.0959 -1.9634 0
M  V30 4450 H 426.679 -2.49762 -4.3661 0
M  V30 4451 H 426.379 -4.22995 -4.07859 0
M  V30 4452 H 427.903 -3.70796 -4.85121 0
M  V30 4453 H 429.317 -4.92553 -2.93368 0
M  V30 4454 H 427.714 -5.5032 -2.39306 0
M  V30 4455 H 428.784 -4.68828 -1.23807 0
M  V30 4456 N 430.127 0.543554 -1.4793 0
M  V30 4457 C 431.375 1.29752 -1.54948 0
M  V30 4458 C 431.696 1.93764 -0.219242 0
M  V30 4459 O 430.966 1.80639 0.75805 0
M  V30 4460 H 429.546 0.481874 -0.570795 0
M  V30 4461 H 432.208 0.633636 -1.84312 0
M  V30 4462 H 431.304 2.08392 -2.32334 0
M  V30 4463 N 431.605 1.3629 0.791371 0
M  V30 4464 C 432.853 1.30154 1.5461 0
M  V30 4465 C 433.174 -0.119409 1.94634 0
M  V30 4466 O 432.444 -1.05924 1.64794 0
M  V30 4467 H 431.024 0.478784 0.573389 0
M  V30 4468 H 433.686 1.70565 0.94306 0
M  V30 4469 H 432.782 1.92762 2.45457 0
M  V30 4470 N 433.083 -1.0153 1.20538 0
M  V30 4471 C 434.331 -1.74803 1.01432 0
M  V30 4472 C 434.652 -1.8963 -0.454456 0
M  V30 4473 O 433.922 -1.43975 -1.32846 0
M  V30 4474 H 432.502 -0.647598 0.372324 0
M  V30 4475 H 435.164 -1.22402 1.5167 0
M  V30 4476 H 434.26 -2.75114 1.47373 0
M  V30 4477 N 434.561 -1.01147 -1.20859 0
M  V30 4478 C 435.809 -0.696486 -1.89719 0
M  V30 4479 C 436.13 0.775788 -1.78904 0
M  V30 4480 O 435.4 1.55759 -1.18811 0
M  V30 4481 H 433.98 -0.254628 -0.702263 0
M  V30 4482 H 436.642 -1.28197 -1.46804 0
M  V30 4483 H 435.738 -0.975357 -2.96468 0
M  V30 4484 N 436.039 1.36541 -0.78704 0
M  V30 4485 C 437.287 1.98911 -0.357633 0
M  V30 4486 C 437.608 1.62778 1.07371 0
M  V30 4487 O 436.878 0.900612 1.73971 0
M  V30 4488 H 435.458 0.735734 -0.129246 0
M  V30 4489 H 438.12 1.66776 -1.00855 0
M  V30 4490 H 437.216 3.08874 -0.447549 0
M  V30 4491 N 437.518 0.538854 1.48102 0
M  V30 4492 C 438.766 0.00798599 2.02098 0
M  V30 4493 C 439.087 -1.33922 1.41739 0
M  V30 4494 O 438.357 -1.86932 0.585934 0
M  V30 4495 H 436.937 -3.62179e-05 0.747 0
M  V30 4496 H 439.599 0.7047 1.81714 0
M  V30 4497 H 438.695 -0.0937672 3.11959 0
M  V30 4498 N 438.996 -1.55193 0.274407 0
M  V30 4499 C 440.244 -1.99187 -0.341902 0
M  V30 4500 C 440.565 -1.16422 -1.56431 0
M  V30 4501 O 439.835 -0.253573 -1.94252 0
M  V30 4502 H 438.415 -0.735721 -0.129317 0
M  V30 4503 H 441.077 -1.91168 0.379578 0
M  V30 4504 H 440.173 -3.05629 -0.632253 0
M  V30 4505 N 440.474 -0.00167713 -1.576 0
M  V30 4506 C 441.699 0.69739 -1.95323 0
M  V30 4507 C 442.124 1.6642 -0.876706 0
M  V30 4508 O 441.482 1.80548 0.165007 0
M  V30 4509 C 441.53 1.40403 -3.32144 0
M  V30 4510 O 440.634 2.5185 -3.26566 0
M  V30 4511 H 439.975 0.185373 -0.637599 0
M  V30 4512 H 442.505 -0.0553665 -2.04525 0
M  V30 4513 H 442.515 1.76707 -3.67748 0
M  V30 4514 H 441.19 0.695167 -4.10049 0
M  V30 4515 H 439.767 2.17861 -3.0264 0
M  V30 4516 N 441.952 1.55251 0.271103 0
M  V30 4517 C 443.198 1.76207 1.00394 0
M  V30 4518 C 443.531 0.562604 1.85872 0
M  V30 4519 O 442.806 -0.439785 1.89463 0
M  V30 4520 C 443.089 3.06828 1.8849 0
M  V30 4521 C 442.942 4.37134 1.05992 0
M  V30 4522 C 444.261 3.33503 2.87165 0
M  V30 4523 H 441.38 0.641086 0.363562 0
M  V30 4524 H 444.022 1.87982 0.276189 0
M  V30 4525 H 442.172 2.96921 2.5054 0
M  V30 4526 H 443.844 4.59001 0.459978 0
M  V30 4527 H 442.087 4.32275 0.363443 0
M  V30 4528 H 442.758 5.2486 1.70955 0
M  V30 4529 H 445.234 3.43215 2.3525 0
M  V30 4530 H 444.11 4.2616 3.45946 0
M  V30 4531 H 444.371 2.53235 3.62387 0
M  V30 4532 N 443.43 -0.535701 1.48216 0
M  V30 4533 C 444.393 -1.623 1.61838 0
M  V30 4534 C 445.393 -1.53087 0.492024 0
M  V30 4535 O 446.583 -1.5686 0.757668 0
M  V30 4536 C 443.715 -3.01907 1.58319 0
M  V30 4537 H 444.908 -1.51564 2.58783 0
M  V30 4538 H 442.461 -0.757317 1.36727 0
M  V30 4539 H 443.196 -3.18155 0.628299 0
M  V30 4540 H 442.981 -3.10003 2.40085 0
M  V30 4541 H 444.471 -3.80969 1.71033 0
M  V30 4542 N 444.908 -1.36708 -0.784132 0
M  V30 4543 C 446.133 -1.34565 -1.5782 0
M  V30 4544 C 446.558 0.0695257 -1.87971 0
M  V30 4545 O 445.916 1.04302 -1.48293 0
M  V30 4546 C 445.964 -2.17952 -2.87279 0
M  V30 4547 O 445.068 -1.57563 -3.81114 0
M  V30 4548 H 444.409 -0.460337 -0.478524 0
M  V30 4549 H 446.939 -1.80064 -0.971495 0
M  V30 4550 H 446.949 -2.30721 -3.365 0
M  V30 4551 H 445.624 -3.20823 -2.64661 0
M  V30 4552 H 444.201 -1.53764 -3.39722 0
M  V30 4553 N 446.386 1.0089 -1.21074 0
M  V30 4554 C 447.797 1.56056 -1.02486 0
M  V30 4555 C 448.148 1.91728 0.416506 0
M  V30 4556 O 447.273 1.73066 1.29912 0
M  V30 4557 C 447.868 2.83563 -1.85411 0
M  V30 4558 C 446.427 3.3523 -1.71166 0
M  V30 4559 C 445.574 2.0846 -1.82865 0
M  V30 4560 H 448.525 0.831818 -1.35154 0
M  V30 4561 H 448.546 3.55286 -1.36205 0
M  V30 4562 H 448.058 2.57569 -2.9031 0
M  V30 4563 H 446.159 3.66167 -0.689361 0
M  V30 4564 H 446.272 4.06913 -2.52901 0
M  V30 4565 H 444.636 2.21275 -1.26132 0
M  V30 4566 H 445.419 1.84883 -2.89263 0
M  V30 4567 N 447.864 1.01787 1.20321 0
M  V30 4568 C 449.092 0.727194 1.937 0
M  V30 4569 C 449.507 -0.712305 1.74848 0
M  V30 4570 O 448.864 -1.48327 1.06327 0
M  V30 4571 C 448.915 1.05497 3.45764 0
M  V30 4572 O 448.636 2.43794 3.64 0
M  V30 4573 C 450.137 0.785534 4.36285 0
M  V30 4574 H 447.357 0.266939 0.615617 0
M  V30 4575 H 449.901 1.35939 1.52777 0
M  V30 4576 H 448.056 0.468158 3.84561 0
M  V30 4577 H 448.47 2.55656 4.57974 0
M  V30 4578 H 449.944 1.06495 5.4163 0
M  V30 4579 H 450.421 -0.280273 4.38305 0
M  V30 4580 H 451.027 1.35456 4.03152 0
M  V30 4581 N 449.342 -1.36122 0.79427 0
M  V30 4582 C 450.567 -2.03891 0.379871 0
M  V30 4583 C 450.992 -1.59488 -0.997251 0
M  V30 4584 O 450.35 -0.765652 -1.64339 0
M  V30 4585 C 450.398 -3.57687 0.457442 0
M  V30 4586 O 449.502 -4.08931 -0.5338 0
M  V30 4587 H 448.843 -0.6443 0.160541 0
M  V30 4588 H 451.373 -1.73976 1.07673 0
M  V30 4589 H 451.383 -4.06721 0.322792 0
M  V30 4590 H 450.058 -3.89357 1.46199 0
M  V30 4591 H 448.635 -3.71154 -0.360409 0
M  V30 4592 N 450.82 -0.546701 -1.47814 0
M  V30 4593 C 452.045 -0.021268 -2.07389 0
M  V30 4594 C 452.47 1.25822 -1.39822 0
M  V30 4595 O 451.828 1.75111 -0.46968 0
M  V30 4596 C 451.876 0.168502 -3.60206 0
M  V30 4597 O 450.98 1.23347 -3.93522 0
M  V30 4598 H 450.321 -0.0466108 -0.662362 0
M  V30 4599 H 452.851 -0.759387 -1.89985 0
M  V30 4600 H 452.861 0.385982 -4.0617 0
M  V30 4601 H 451.536 -0.766075 -4.08784 0
M  V30 4602 H 450.113 0.997319 -3.59316 0
M  V30 4603 N 452.299 1.55045 -0.282633 0
M  V30 4604 C 453.524 2.04628 0.337977 0
M  V30 4605 C 453.949 1.15937 1.48123 0
M  V30 4606 O 453.307 0.159532 1.80597 0
M  V30 4607 C 453.355 3.51854 0.78936 0
M  V30 4608 O 452.459 3.66236 1.89592 0
M  V30 4609 H 451.8 0.660434 0.0687261 0
M  V30 4610 H 454.33 2.00261 -0.419124 0
M  V30 4611 H 454.34 3.93361 1.08311 0
M  V30 4612 H 453.015 4.15873 -0.0470419 0
M  V30 4613 H 451.592 3.36633 1.60413 0
M  V30 4614 N 453.777 0.010035 1.57597 0
M  V30 4615 C 455.025 -0.671371 1.90623 0
M  V30 4616 C 455.346 -1.73753 0.885151 0
M  V30 4617 O 454.616 -1.95752 -0.0760611 0
M  V30 4618 H 453.196 -0.250968 0.703579 0
M  V30 4619 H 455.858 0.0533325 1.94827 0
M  V30 4620 H 454.954 -1.13626 2.90681 0
M  V30 4621 N 455.255 -1.55392 -0.262866 0
M  V30 4622 C 456.48 -1.80847 -1.01533 0
M  V30 4623 C 456.905 -0.584946 -1.78774 0
M  V30 4624 O 456.263 0.465701 -1.75217 0
M  V30 4625 C 456.311 -3.03866 -1.94159 0
M  V30 4626 O 455.415 -2.79662 -3.03089 0
M  V30 4627 H 454.756 -0.597441 -0.289759 0
M  V30 4628 H 457.286 -2.02553 -0.288698 0
M  V30 4629 H 457.296 -3.32872 -2.35924 0
M  V30 4630 H 455.971 -3.92564 -1.37354 0
M  V30 4631 H 454.548 -2.61781 -2.65566 0
M  V30 4632 N 456.733 0.527833 -1.48498 0
M  V30 4633 C 457.958 1.313 -1.60546 0
M  V30 4634 C 458.383 1.86199 -0.26672 0
M  V30 4635 O 457.741 1.64513 0.761918 0
M  V30 4636 C 457.789 2.43818 -2.65678 0
M  V30 4637 O 456.893 3.46916 -2.22987 0
M  V30 4638 H 456.234 0.388784 -0.538277 0
M  V30 4639 H 458.764 0.634896 -1.945 0
M  V30 4640 H 458.774 2.89973 -2.87018 0
M  V30 4641 H 457.449 2.03222 -3.62869 0
M  V30 4642 H 456.026 3.06864 -2.11869 0
M  V30 4643 N 458.211 1.37122 0.776871 0
M  V30 4644 C 459.436 1.354 1.57104 0
M  V30 4645 C 459.861 -0.0595562 1.88006 0
M  V30 4646 O 459.219 -1.03514 1.48844 0
M  V30 4647 C 459.267 2.19472 2.8612 0
M  V30 4648 O 458.371 1.59582 3.80273 0
M  V30 4649 H 457.712 0.462869 0.476076 0
M  V30 4650 H 460.242 1.80577 0.961932 0
M  V30 4651 H 460.252 2.32502 3.35271 0
M  V30 4652 H 458.927 3.22222 2.62956 0
M  V30 4653 H 457.504 1.55564 3.38902 0
M  V30 4654 N 459.689 -1.00246 1.21608 0
M  V30 4655 C 461.105 -1.26435 0.973975 0
M  V30 4656 C 461.305 -1.98642 -0.338143 0
M  V30 4657 O 460.361 -2.29026 -1.06317 0
M  V30 4658 C 461.674 -2.08551 2.16626 0
M  V30 4659 C 463.222 -2.21769 2.20879 0
M  V30 4660 C 463.697 -3.07267 3.39633 0
M  V30 4661 N 465.188 -3.14855 3.39736 0
M  V30 4662 C 465.923 -3.81274 4.28273 0
M  V30 4663 N 465.419 -4.497 5.27012 0
M  V30 4664 N 467.212 -3.7794 4.16074 0
M  V30 4665 H 459.363 -0.518089 2.05984 0
M  V30 4666 H 461.626 -0.291368 0.902113 0
M  V30 4667 H 461.332 -1.62847 3.11727 0
M  V30 4668 H 461.206 -3.09303 2.15897 0
M  V30 4669 H 463.593 -2.66691 1.26332 0
M  V30 4670 H 463.674 -1.20478 2.25652 0
M  V30 4671 H 463.318 -2.63047 4.34475 0
M  V30 4672 H 463.248 -4.08678 3.321 0
M  V30 4673 H 465.739 -2.66147 2.6828 0
M  V30 4674 H 466.052 -4.98092 5.90867 0
M  V30 4675 H 464.397 -4.48479 5.30935 0
M  V30 4676 H 467.588 -3.23638 3.38195 0
M  V30 4677 H 467.761 -4.29424 4.85282 0
M  V30 4678 N 461.167 -1.02423 -1.1978 0
M  V30 4679 C 462.415 -0.716569 -1.8897 0
M  V30 4680 C 462.736 0.756769 -1.79716 0
M  V30 4681 O 462.006 1.5449 -1.20456 0
M  V30 4682 H 460.586 -0.262062 -0.699523 0
M  V30 4683 H 463.248 -1.29747 -1.45436 0
M  V30 4684 H 462.344 -1.00675 -2.95417 0
M  V30 4685 N 462.645 1.35699 -0.801477 0
M  V30 4686 C 463.873 2.03157 -0.391768 0
M  V30 4687 C 464.288 1.60412 0.995668 0
M  V30 4688 O 463.645 0.799228 1.64069 0
M  V30 4689 C 463.696 3.58566 -0.459671 0
M  V30 4690 O 463.417 3.99756 -1.7924 0
M  V30 4691 C 464.918 4.4328 -0.0421205 0
M  V30 4692 H 462.138 0.651688 -0.159825 0
M  V30 4693 H 464.682 1.73426 -1.08368 0
M  V30 4694 H 462.837 3.86963 0.183939 0
M  V30 4695 H 463.251 4.94387 -1.75162 0
M  V30 4696 H 464.725 5.51821 -0.140754 0
M  V30 4697 H 465.202 4.27383 1.01196 0
M  V30 4698 H 465.808 4.20168 -0.658687 0
M  V30 4699 N 464.123 0.554532 1.47522 0
M  V30 4700 C 465.033 -0.197865 2.33764 0
M  V30 4701 C 466.049 -0.914576 1.48025 0
M  V30 4702 O 467.225 -0.884067 1.80959 0
M  V30 4703 C 464.29 -1.21628 3.24665 0
M  V30 4704 C 463.351 -0.507283 4.26292 0
M  V30 4705 C 462.584 -1.47718 5.1285 0
M  V30 4706 O 462.807 -2.7118 5.01814 0
M  V30 4707 O 461.741 -1.00313 5.93482 0
M  V30 4708 H 465.567 0.50949 2.99396 0
M  V30 4709 H 463.152 0.315176 1.46038 0
M  V30 4710 H 465.034 -1.80421 3.80823 0
M  V30 4711 H 463.709 -1.9056 2.61665 0
M  V30 4712 H 462.616 0.121778 3.73902 0
M  V30 4713 H 463.949 0.140544 4.91999 0
M  V30 4714 N 465.601 -1.54893 0.290851 0
M  V30 4715 C 467.017 -1.59476 -0.0628432 0
M  V30 4716 C 467.217 -1.30795 -1.5328 0
M  V30 4717 O 466.273 -1.07644 -2.28406 0
M  V30 4718 C 467.586 -2.98928 0.325962 0
M  V30 4719 C 469.134 -3.11799 0.273882 0
M  V30 4720 C 469.609 -4.53544 0.637359 0
M  V30 4721 N 471.1 -4.59433 0.589507 0
M  V30 4722 C 471.835 -5.67164 0.84335 0
M  V30 4723 N 471.331 -6.82975 1.16263 0
M  V30 4724 N 473.124 -5.56786 0.771091 0
M  V30 4725 H 465.275 -1.71798 1.24896 0
M  V30 4726 H 467.538 -0.801879 0.505663 0
M  V30 4727 H 467.244 -3.24805 1.34887 0
M  V30 4728 H 467.118 -3.75793 -0.325441 0
M  V30 4729 H 469.505 -2.85677 -0.739765 0
M  V30 4730 H 469.586 -2.37112 0.959766 0
M  V30 4731 H 469.23 -4.80394 1.64877 0
M  V30 4732 H 469.16 -5.26553 -0.0704866 0
M  V30 4733 H 471.651 -3.76245 0.353252 0
M  V30 4734 H 471.964 -7.61048 1.34257 0
M  V30 4735 H 470.309 -6.84552 1.20057 0
M  V30 4736 H 473.5 -4.65187 0.521383 0
M  V30 4737 H 473.673 -6.40664 0.972295 0
M  V30 4738 N 467.08 -0.0183926 -1.57589 0
M  V30 4739 C 468.491 0.521927 -1.79256 0
M  V30 4740 C 468.842 1.72885 -0.927636 0
M  V30 4741 O 467.967 2.15978 -0.135091 0
M  V30 4742 C 468.562 0.953632 -3.25102 0
M  V30 4743 C 467.121 1.43913 -3.47801 0
M  V30 4744 C 466.268 0.398837 -2.74417 0
M  V30 4745 H 469.219 -0.244485 -1.56805 0
M  V30 4746 H 469.24 1.81863 -3.34224 0
M  V30 4747 H 468.752 0.0750123 -3.88028 0
M  V30 4748 H 466.853 2.33804 -2.90115 0
M  V30 4749 H 466.966 1.45391 -4.56507 0
M  V30 4750 H 465.33 0.864572 -2.39577 0
M  V30 4751 H 466.113 -0.471132 -3.40052 0
M  V30 4752 N 468.558 1.5553 0.254621 0
M  V30 4753 C 469.974 1.4778 0.602753 0
M  V30 4754 C 470.174 0.707047 1.88688 0
M  V30 4755 O 469.23 0.233288 2.5142 0
M  V30 4756 C 470.543 2.92133 0.712648 0
M  V30 4757 C 472.091 3.02458 0.805488 0
M  V30 4758 C 472.566 4.48102 0.947009 0
M  V30 4759 N 474.057 4.52008 1.01207 0
M  V30 4760 C 474.792 5.61939 1.1407 0
M  V30 4761 N 474.288 6.81697 1.23536 0
M  V30 4762 N 476.081 5.49719 1.17325 0
M  V30 4763 H 468.232 2.04085 -0.588463 0
M  V30 4764 H 470.495 0.926229 -0.202001 0
M  V30 4765 H 470.201 3.51332 -0.160766 0
M  V30 4766 H 470.075 3.42187 1.58707 0
M  V30 4767 H 472.462 2.43344 1.66936 0
M  V30 4768 H 472.543 2.55627 -0.0939266 0
M  V30 4769 H 472.187 5.07824 0.087725 0
M  V30 4770 H 472.117 4.92607 1.86135 0
M  V30 4771 H 474.608 3.65749 0.950577 0
M  V30 4772 H 474.921 7.61228 1.33236 0
M  V30 4773 H 473.266 6.84473 1.20508 0
M  V30 4774 H 476.457 4.55095 1.09573 0
M  V30 4775 H 476.63 6.35432 1.27005 0
M  V30 4776 N 470.036 -0.519951 1.48776 0
M  V30 4777 C 471.261 -1.30447 1.6124 0
M  V30 4778 C 471.686 -1.86055 0.276591 0
M  V30 4779 O 471.044 -1.64915 -0.753183 0
M  V30 4780 C 471.092 -2.42406 2.66967 0
M  V30 4781 O 470.196 -3.45728 2.24824 0
M  V30 4782 H 469.537 -0.385924 0.540332 0
M  V30 4783 H 472.067 -0.624572 1.94834 0
M  V30 4784 H 472.077 -2.88447 2.88552 0
M  V30 4785 H 470.752 -2.01294 3.63941 0
M  V30 4786 H 469.329 -3.05737 2.13494 0
M  V30 4787 N 471.514 -1.37532 -0.769588 0
M  V30 4788 C 472.444 -1.36172 -1.89682 0
M  V30 4789 C 473.425 -0.23001 -1.68538 0
M  V30 4790 O 474.61 -0.43069 -1.89364 0
M  V30 4791 C 471.74 -1.1701 -3.26995 0
M  V30 4792 C 470.694 -2.27216 -3.62708 0
M  V30 4793 C 470.02 -1.93174 -4.98586 0
M  V30 4794 C 471.32 -3.6941 -3.69234 0
M  V30 4795 H 473.014 -2.30499 -1.91078 0
M  V30 4796 H 470.56 -1.10953 -0.917902 0
M  V30 4797 H 472.513 -1.14688 -4.05493 0
M  V30 4798 H 471.237 -0.191395 -3.26039 0
M  V30 4799 H 469.896 -2.28697 -2.86519 0
M  V30 4800 H 469.544 -0.938281 -4.94171 0
M  V30 4801 H 469.244 -2.66973 -5.23449 0
M  V30 4802 H 470.768 -1.92443 -5.79481 0
M  V30 4803 H 472.182 -3.70047 -4.37879 0
M  V30 4804 H 470.579 -4.4228 -4.05597 0
M  V30 4805 H 471.649 -4.0288 -2.69844 0
M  V30 4806 N 472.992 0.995999 -1.22138 0
M  V30 4807 C 473.939 2.08551 -0.988687 0
M  V30 4808 C 474.909 1.65864 0.0885021 0
M  V30 4809 O 476.094 1.90704 -0.0604589 0
M  V30 4810 C 473.234 3.40374 -0.569191 0
M  V30 4811 C 472.347 3.96421 -1.71681 0
M  V30 4812 C 471.482 5.1639 -1.2456 0
M  V30 4813 C 470.521 5.64567 -2.36497 0
M  V30 4814 N 469.658 6.75777 -1.90445 0
M  V30 4815 H 474.498 2.2779 -1.92135 0
M  V30 4816 H 472.035 1.1168 -0.957388 0
M  V30 4817 H 473.993 4.16068 -0.307166 0
M  V30 4818 H 472.623 3.21145 0.326462 0
M  V30 4819 H 471.675 3.17628 -2.09324 0
M  V30 4820 H 472.987 4.2816 -2.55891 0
M  V30 4821 H 472.141 5.99362 -0.940774 0
M  V30 4822 H 470.88 4.86266 -0.373662 0
M  V30 4823 H 469.885 4.80185 -2.67772 0
M  V30 4824 H 471.11 5.96716 -3.24202 0
M  V30 4825 H 469.056 6.47443 -1.05609 0
M  V30 4826 H 468.973 7.06818 -2.68223 0
M  V30 4827 H 470.241 7.62262 -1.63022 0
M  V30 4828 N 474.47 1.03057 1.19235 0
M  V30 4829 C 475.886 0.747947 1.40989 0
M  V30 4830 C 476.086 -0.666752 1.90149 0
M  V30 4831 O 475.142 -1.43249 2.07933 0
M  V30 4832 C 476.455 1.7855 2.41951 0
M  V30 4833 C 478.003 1.80524 2.55695 0
M  V30 4834 C 478.478 2.83243 3.59913 0
M  V30 4835 N 479.969 2.8207 3.67411 0
M  V30 4836 C 480.704 3.58204 4.47747 0
M  V30 4837 N 480.2 4.44057 5.31775 0
M  V30 4838 N 481.993 3.46738 4.42413 0
M  V30 4839 H 474.144 1.94367 0.856468 0
M  V30 4840 H 476.407 0.840412 0.438647 0
M  V30 4841 H 476.113 2.79973 2.12857 0
M  V30 4842 H 475.987 1.6092 3.41152 0
M  V30 4843 H 478.374 0.79778 2.84112 0
M  V30 4844 H 478.455 2.02229 1.56643 0
M  V30 4845 H 478.099 3.84161 3.32239 0
M  V30 4846 H 478.029 2.58795 4.5862 0
M  V30 4847 H 480.52 2.19803 3.074 0
M  V30 4848 H 480.833 4.98884 5.90199 0
M  V30 4849 H 479.178 4.48129 5.3123 0
M  V30 4850 H 482.369 2.79077 3.75811 0
M  V30 4851 H 482.542 4.06322 5.04783 0
M  V30 4852 N 475.948 -1.35272 0.808662 0
M  V30 4853 C 477.196 -1.98316 0.389233 0
M  V30 4854 C 477.517 -1.64465 -1.04767 0
M  V30 4855 O 476.787 -0.928175 -1.72516 0
M  V30 4856 H 475.367 -0.733585 0.140935 0
M  V30 4857 H 478.029 -1.6515 1.03496 0
M  V30 4858 H 477.125 -3.08123 0.496631 0
M  V30 4859 N 477.426 -0.562348 -1.47226 0
M  V30 4860 C 478.651 -0.0432632 -2.07355 0
M  V30 4861 C 479.076 1.24332 -1.41149 0
M  V30 4862 O 478.434 1.74603 -0.488226 0
M  V30 4863 C 478.482 0.130288 -3.60365 0
M  V30 4864 O 477.586 1.19166 -3.94808 0
M  V30 4865 H 476.927 -0.0536334 -0.66183 0
M  V30 4866 H 479.457 -0.779495 -1.89169 0
M  V30 4867 H 479.467 0.342881 -4.06557 0
M  V30 4868 H 478.142 -0.809389 -4.07948 0
M  V30 4869 H 476.719 0.959153 -3.60354 0
M  V30 4870 N 478.904 1.54736 -0.299062 0
M  V30 4871 C 479.851 2.23448 0.577899 0
M  V30 4872 C 480.821 1.21637 1.13109 0
M  V30 4873 O 482.006 1.50252 1.17597 0
M  V30 4874 C 479.146 2.9774 1.74484 0
M  V30 4875 C 478.259 4.1432 1.22323 0
M  V30 4876 C 477.394 4.76199 2.35388 0
M  V30 4877 C 476.433 5.84927 1.80351 0
M  V30 4878 N 475.57 6.4077 2.86982 0
M  V30 4879 H 480.41 2.97996 -0.0146545 0
M  V30 4880 H 477.947 1.47088 -0.0190013 0
M  V30 4881 H 479.905 3.39045 2.43114 0
M  V30 4882 H 478.535 2.25572 2.30905 0
M  V30 4883 H 477.587 3.7797 0.429249 0
M  V30 4884 H 478.899 4.92659 0.780309 0
M  V30 4885 H 478.053 5.20346 3.11969 0
M  V30 4886 H 476.792 3.97188 2.83006 0
M  V30 4887 H 475.797 5.40207 1.02259 0
M  V30 4888 H 477.022 6.65821 1.3364 0
M  V30 4889 H 474.968 5.64643 3.33938 0
M  V30 4890 H 474.885 7.1445 2.4718 0
M  V30 4891 H 476.153 6.89574 3.63466 0
M  V30 4892 N 480.382 0.0267497 1.57577 0
M  V30 4893 C 481.793 -0.512413 1.79531 0
M  V30 4894 C 482.144 -1.72391 0.936791 0
M  V30 4895 O 481.269 -2.15903 0.146543 0
M  V30 4896 C 481.864 -0.936378 3.25603 0
M  V30 4897 C 480.423 -1.42067 3.4856 0
M  V30 4898 C 479.57 -0.384278 2.74624 0
M  V30 4899 H 482.521 0.252797 1.56674 0
M  V30 4900 H 482.542 -1.80088 3.35184 0
M  V30 4901 H 482.054 -0.0544332 3.88062 0
M  V30 4902 H 480.155 -2.32262 2.9135 0
M  V30 4903 H 480.268 -1.42968 4.57271 0
M  V30 4904 H 478.632 -0.851855 2.40032 0
M  V30 4905 H 479.415 0.489159 3.39797 0
M  V30 4906 N 481.861 -1.55662 -0.24637 0
M  V30 4907 C 483.086 -1.81914 -0.996093 0
M  V30 4908 C 483.511 -0.603875 -1.78143 0
M  V30 4909 O 482.869 0.447091 -1.75701 0
M  V30 4910 C 482.917 -3.05908 -1.90925 0
M  V30 4911 O 482.021 -2.82861 -3.00105 0
M  V30 4912 H 481.362 -0.600481 -0.283406 0
M  V30 4913 H 483.892 -2.02848 -0.267199 0
M  V30 4914 H 483.902 -3.35356 -2.3238 0
M  V30 4915 H 482.577 -3.93999 -1.33183 0
M  V30 4916 H 481.154 -2.64583 -2.62775 0
M  V30 4917 N 483.339 0.512053 -1.4905 0
M  V30 4918 C 484.302 1.59704 -1.64399 0
M  V30 4919 C 485.302 1.52285 -0.516317 0
M  V30 4920 O 486.492 1.55635 -0.782527 0
M  V30 4921 C 483.624 2.9935 -1.63102 0
M  V30 4922 H 484.817 1.47428 -2.61161 0
M  V30 4923 H 482.37 0.735469 -1.37915 0
M  V30 4924 H 483.105 3.17116 -0.678836 0
M  V30 4925 H 482.89 3.06144 -2.44986 0
M  V30 4926 H 484.38 3.782 -1.77072 0
M  V30 4927 N 484.817 1.37938 0.762283 0
M  V30 4928 C 486.042 1.37059 1.55659 0
M  V30 4929 C 486.467 -0.0396123 1.88058 0
M  V30 4930 O 485.825 -1.01929 1.49934 0
M  V30 4931 C 485.873 2.22494 2.83776 0
M  V30 4932 O 484.977 1.63607 3.78559 0
M  V30 4933 H 484.318 0.467892 0.47114 0
M  V30 4934 H 486.848 1.81587 0.942725 0
M  V30 4935 H 486.858 2.36045 3.32786 0
M  V30 4936 H 485.533 3.24993 2.59524 0
M  V30 4937 H 484.11 1.5915 3.37233 0
M  V30 4938 N 486.295 -0.989507 1.22664 0
M  V30 4939 C 487.52 -1.77031 1.08051 0
M  V30 4940 C 487.945 -1.84535 -0.364483 0
M  V30 4941 O 487.303 -1.3003 -1.2634 0
M  V30 4942 C 487.351 -3.18 1.70024 0
M  V30 4943 O 486.455 -4.01161 0.956216 0
M  V30 4944 H 485.796 -0.545008 0.379292 0
M  V30 4945 H 488.326 -1.24277 1.62531 0
M  V30 4946 H 488.336 -3.68616 1.74888 0
M  V30 4947 H 487.011 -3.11853 2.75174 0
M  V30 4948 H 485.588 -3.59687 0.98384 0
M  V30 4949 N 487.773 -1.03688 -1.18687 0
M  V30 4950 C 488.736 -0.629115 -2.20397 0
M  V30 4951 C 489.736 0.311495 -1.57754 0
M  V30 4952 O 490.926 0.0974107 -1.73927 0
M  V30 4953 C 488.058 0.0782231 -3.4081 0
M  V30 4954 H 489.251 -1.52915 -2.57987 0
M  V30 4955 H 486.804 -0.828988 -1.32505 0
M  V30 4956 H 487.539 0.992233 -3.08748 0
M  V30 4957 H 487.324 -0.597776 -3.87517 0
M  V30 4958 H 488.814 0.350156 -4.16129 0
M  V30 4959 N 489.251 1.34841 -0.815825 0
M  V30 4960 C 490.476 2.03261 -0.41226 0
M  V30 4961 C 490.901 1.61055 0.971751 0
M  V30 4962 O 490.259 0.7917 1.63101 0
M  V30 4963 C 490.307 3.56914 -0.514289 0
M  V30 4964 O 489.411 4.09728 0.468675 0
M  V30 4965 H 488.752 0.641664 -0.170771 0
M  V30 4966 H 491.282 1.72241 -1.10427 0
M  V30 4967 H 491.292 4.06156 -0.387457 0
M  V30 4968 H 489.967 3.86982 -1.52375 0
M  V30 4969 H 488.544 3.71681 0.301316 0
M  V30 4970 N 490.729 0.570148 1.46925 0
M  V30 4971 C 491.659 -0.158274 2.32963 0
M  V30 4972 C 492.64 -0.896093 1.44583 0
M  V30 4973 O 493.825 -0.874022 1.7342 0
M  V30 4974 C 490.955 -1.18055 3.26619 0
M  V30 4975 C 489.909 -0.558379 4.24342 0
M  V30 4976 C 489.235 -1.68623 5.07415 0
M  V30 4977 C 490.535 0.496295 5.19937 0
M  V30 4978 H 492.229 0.560046 2.94115 0
M  V30 4979 H 489.775 0.270775 1.41431 0
M  V30 4980 H 491.728 -1.69841 3.85658 0
M  V30 4981 H 490.452 -1.92899 2.63548 0
M  V30 4982 H 489.111 -0.0617157 3.66548 0
M  V30 4983 H 488.759 -2.42402 4.40738 0
M  V30 4984 H 488.459 -1.27564 5.73586 0
M  V30 4985 H 489.983 -2.20709 5.69315 0
M  V30 4986 H 491.397 0.0640052 5.73264 0
M  V30 4987 H 489.794 0.82649 5.94381 0
M  V30 4988 H 490.864 1.38735 4.6463 0
M  V30 4989 N 492.207 -1.54576 0.307264 0
M  V30 4990 C 493.117 -2.27435 -0.57536 0
M  V30 4991 C 494.133 -1.31183 -1.14311 0
M  V30 4992 O 495.309 -1.64175 -1.16656 0
M  V30 4993 C 492.374 -3.00566 -1.72803 0
M  V30 4994 C 491.435 -4.12369 -1.19373 0
M  V30 4995 C 490.668 -4.82003 -2.29147 0
M  V30 4996 O 490.891 -4.51038 -3.49171 0
M  V30 4997 O 489.825 -5.69271 -1.95485 0
M  V30 4998 H 493.651 -3.03696 0.0158558 0
M  V30 4999 H 491.236 -1.49219 0.0735064 0
M  V30 5000 H 493.118 -3.46416 -2.39946 0
M  V30 5001 H 491.793 -2.27195 -2.30574 0
M  V30 5002 H 490.7 -3.70905 -0.487851 0
M  V30 5003 H 492.033 -4.87736 -0.661376 0
M  V30 5004 N 493.685 -0.035106 -1.57561 0
M  V30 5005 C 494.632 0.94474 -2.10578 0
M  V30 5006 C 495.602 1.3192 -1.00927 0
M  V30 5007 O 496.787 1.41147 -1.28382 0
M  V30 5008 C 493.927 2.21982 -2.64231 0
M  V30 5009 C 493.04 1.90128 -3.87911 0
M  V30 5010 C 492.175 3.11975 -4.29936 0
M  V30 5011 C 491.214 2.75968 -5.46359 0
M  V30 5012 N 490.351 3.90459 -5.83512 0
M  V30 5013 H 495.191 0.485717 -2.94015 0
M  V30 5014 H 492.728 0.228143 -1.4532 0
M  V30 5015 H 494.686 2.96572 -2.9343 0
M  V30 5016 H 493.316 2.6549 -1.83616 0
M  V30 5017 H 492.368 1.05755 -3.65404 0
M  V30 5018 H 493.68 1.59613 -4.72573 0
M  V30 5019 H 492.834 3.9488 -4.60603 0
M  V30 5020 H 491.573 3.45657 -3.44053 0
M  V30 5021 H 490.578 1.91478 -5.1538 0
M  V30 5022 H 491.803 2.43497 -6.33945 0
M  V30 5023 H 489.749 4.23971 -5.00584 0
M  V30 5024 H 489.666 3.63588 -6.62827 0
M  V30 5025 H 490.934 4.7405 -6.18787 0
M  V30 5026 N 495.163 1.55791 0.238111 0
M  V30 5027 C 496.579 1.48411 0.587045 0
M  V30 5028 C 496.779 0.72702 1.87927 0
M  V30 5029 O 495.835 0.259942 2.51158 0
M  V30 5030 C 497.148 2.92873 0.681623 0
M  V30 5031 C 498.696 3.03295 0.773363 0
M  V30 5032 C 499.171 4.49082 0.899428 0
M  V30 5033 N 500.662 4.53056 0.964075 0
M  V30 5034 C 501.397 5.63117 1.08104 0
M  V30 5035 N 500.893 6.82969 1.16299 0
M  V30 5036 N 502.686 5.50933 1.11488 0
M  V30 5037 H 494.837 2.0345 -0.610076 0
M  V30 5038 H 497.1 0.924034 -0.211813 0
M  V30 5039 H 496.806 3.51142 -0.19802 0
M  V30 5040 H 496.68 3.43851 1.55069 0
M  V30 5041 H 499.067 2.45101 1.64346 0
M  V30 5042 H 499.148 2.55513 -0.121034 0
M  V30 5043 H 498.792 5.07889 0.0338586 0
M  V30 5044 H 498.722 4.94553 1.809 0
M  V30 5045 H 501.213 3.66737 0.91173 0
M  V30 5046 H 501.526 7.62598 1.25155 0
M  V30 5047 H 499.871 6.85712 1.13241 0
M  V30 5048 H 503.062 4.56231 1.0474 0
M  V30 5049 H 503.235 6.36743 1.20259 0
M  V30 5050 N 496.642 -0.504142 1.49319 0
M  V30 5051 C 497.575 -1.62361 1.60356 0
M  V30 5052 C 498.553 -1.56169 0.45277 0
M  V30 5053 O 499.737 -1.76271 0.667892 0
M  V30 5054 C 496.864 -3.00864 1.55559 0
M  V30 5055 C 495.91 -3.25328 2.75797 0
M  V30 5056 S 496.743 -3.08791 4.37503 0
M  V30 5057 C 497.899 -4.49695 4.35345 0
M  V30 5058 H 498.132 -1.52753 2.55056 0
M  V30 5059 H 495.665 -0.689065 1.38171 0
M  V30 5060 H 497.623 -3.8073 1.53477 0
M  V30 5061 H 496.284 -3.0789 0.621515 0
M  V30 5062 H 495.477 -4.2643 2.68651 0
M  V30 5063 H 495.079 -2.53179 2.75275 0
M  V30 5064 H 497.371 -5.41721 4.06871 0
M  V30 5065 H 498.314 -4.61891 5.36714 0
M  V30 5066 H 498.722 -4.30227 3.65465 0
M  V30 5067 N 498.12 -1.38341 -0.754957 0
M  V30 5068 C 499.067 -1.3546 -1.86867 0
M  V30 5069 C 500.037 -0.217369 -1.64672 0
M  V30 5070 O 501.222 -0.409383 -1.86356 0
M  V30 5071 C 498.362 -1.18413 -3.24149 0
M  V30 5072 C 497.475 -2.41511 -3.58185 0
M  V30 5073 C 496.61 -2.17205 -4.84763 0
M  V30 5074 C 495.649 -3.36081 -5.11582 0
M  V30 5075 N 494.786 -3.11219 -6.29354 0
M  V30 5076 H 499.626 -2.30672 -1.88664 0
M  V30 5077 H 497.163 -1.14607 -0.922154 0
M  V30 5078 H 499.121 -1.06545 -4.03366 0
M  V30 5079 H 497.751 -0.268397 -3.21682 0
M  V30 5080 H 496.803 -2.64056 -2.73822 0
M  V30 5081 H 498.115 -3.30115 -3.73932 0
M  V30 5082 H 497.269 -2.02465 -5.7192 0
M  V30 5083 H 496.008 -1.25964 -4.71152 0
M  V30 5084 H 495.013 -3.51341 -4.22894 0
M  V30 5085 H 496.238 -4.28196 -5.27091 0
M  V30 5086 H 494.184 -2.22624 -6.17069 0
M  V30 5087 H 494.101 -3.93373 -6.45596 0
M  V30 5088 H 495.369 -3.00132 -7.19403 0
M  V30 5089 N 499.598 0.982988 -1.23187 0
M  V30 5090 C 500.531 2.07302 -0.953993 0
M  V30 5091 C 501.509 1.62249 0.106753 0
M  V30 5092 O 502.693 1.88481 -0.0269525 0
M  V30 5093 C 499.82 3.35873 -0.436716 0
M  V30 5094 C 498.866 3.99862 -1.48367 0
M  V30 5095 S 499.699 4.39443 -3.06023 0
M  V30 5096 C 500.855 5.7117 -2.55959 0
M  V30 5097 H 501.088 2.30554 -1.87702 0
M  V30 5098 H 498.621 1.11883 -1.06403 0
M  V30 5099 H 500.579 4.10244 -0.144872 0
M  V30 5100 H 499.24 3.10634 0.465351 0
M  V30 5101 H 498.433 4.92471 -1.07182 0
M  V30 5102 H 498.035 3.31857 -1.72473 0
M  V30 5103 H 500.327 6.47977 -1.97818 0
M  V30 5104 H 501.27 6.17194 -3.47098 0
M  V30 5105 H 501.678 5.29046 -1.96902 0
M  V30 5106 N 501.076 1.04316 1.18135 0
M  V30 5107 C 502.322 0.749128 1.88457 0
M  V30 5108 C 502.655 -0.72149 1.803 0
M  V30 5109 O 501.93 -1.52676 1.205 0
M  V30 5110 C 502.213 1.21905 3.38838 0
M  V30 5111 C 502.066 2.75195 3.55792 0
M  V30 5112 C 503.385 0.811085 4.32561 0
M  V30 5113 H 500.504 0.273611 0.684329 0
M  V30 5114 H 503.146 1.29561 1.38975 0
M  V30 5115 H 501.296 0.754137 3.8111 0
M  V30 5116 H 502.968 3.29743 3.22595 0
M  V30 5117 H 501.211 3.14899 2.98364 0
M  V30 5118 H 501.882 3.03135 4.61317 0
M  V30 5119 H 504.358 1.21118 3.98082 0
M  V30 5120 H 503.234 1.16761 5.36338 0
M  V30 5121 H 503.495 -0.285596 4.41177 0
M  V30 5122 N 502.554 -1.34406 0.822964 0
M  V30 5123 C 503.779 -2.0304 0.423034 0
M  V30 5124 C 504.204 -1.61568 -0.963196 0
M  V30 5125 O 503.562 -0.800339 -1.62678 0
M  V30 5126 C 503.61 -3.56636 0.53321 0
M  V30 5127 O 502.714 -4.09971 -0.446939 0
M  V30 5128 H 502.055 -0.64075 0.174171 0
M  V30 5129 H 504.585 -1.71653 1.11339 0
M  V30 5130 H 504.595 -4.05945 0.408991 0
M  V30 5131 H 503.27 -3.86168 1.54425 0
M  V30 5132 H 501.847 -3.71835 -0.281601 0
M  V30 5133 N 504.032 -0.577932 -1.46621 0
M  V30 5134 C 504.964 0.195801 -2.28362 0
M  V30 5135 C 505.977 0.859983 -1.38232 0
M  V30 5136 O 507.166 0.730349 -1.62875 0
M  V30 5137 C 504.266 1.29639 -3.13124 0
M  V30 5138 C 503.439 0.725049 -4.31349 0
M  V30 5139 C 502.498 1.71274 -4.97546 0
M  V30 5140 O 501.524 1.25067 -5.5529 0
M  V30 5141 N 502.726 3.04672 -4.94121 0
M  V30 5142 H 505.491 -0.505468 -2.95407 0
M  V30 5143 H 503.052 -0.415381 -1.56481 0
M  V30 5144 H 505.044 1.95631 -3.54275 0
M  V30 5145 H 503.614 1.90059 -2.48186 0
M  V30 5146 H 502.834 -0.112205 -3.9404 0
M  V30 5147 H 504.122 0.323034 -5.07774 0
M  V30 5148 H 503.52 3.4484 -4.48444 0
M  V30 5149 H 502.077 3.66166 -5.39227 0
M  V30 5150 N 505.51 1.54411 -0.315457 0
M  V30 5151 C 506.735 2.05299 0.294496 0
M  V30 5152 C 507.16 1.19052 1.4563 0
M  V30 5153 O 506.518 0.197804 1.80218 0
M  V30 5154 C 506.566 3.5345 0.714549 0
M  V30 5155 O 505.67 3.70175 1.81781 0
M  V30 5156 H 505.011 0.661743 0.0547019 0
M  V30 5157 H 507.541 1.99327 -0.461508 0
M  V30 5158 H 507.551 3.9557 0.999426 0
M  V30 5159 H 506.226 4.1568 -0.135244 0
M  V30 5160 H 504.803 3.3996 1.53236 0
M  V30 5161 N 506.988 0.0434614 1.5754 0
M  V30 5162 C 508.235 -0.632035 1.92384 0
M  V30 5163 C 508.563 -1.71304 0.921157 0
M  V30 5164 O 507.818 -1.95583 -0.067744 0
M  V30 5165 C 508.117 -1.2738 3.3393 0
M  V30 5166 C 507.783 -0.321757 4.49751 0
M  V30 5167 C 506.445 -0.0597611 4.81163 0
M  V30 5168 C 508.797 0.331158 5.20147 0
M  V30 5169 C 506.125 0.862715 5.80322 0
M  V30 5170 C 508.477 1.24178 6.20292 0
M  V30 5171 C 507.141 1.51252 6.50138 0
M  V30 5172 H 506.411 -0.231278 0.703983 0
M  V30 5173 H 509.058 0.108294 1.91194 0
M  V30 5174 H 507.363 -2.08921 3.3145 0
M  V30 5175 H 509.06 -1.80326 3.58167 0
M  V30 5176 H 505.65 -0.53614 4.25233 0
M  V30 5177 H 509.834 0.141826 4.96097 0
M  V30 5178 H 505.09 1.08003 6.01785 0
M  V30 5179 H 509.264 1.75381 6.73954 0
M  V30 5180 H 506.891 2.22897 7.26788 0
M  V30 5181 N 508.466 -1.55915 -0.229846 0
M  V30 5182 C 509.694 -1.82617 -0.972562 0
M  V30 5183 C 510.109 -0.621488 -1.78278 0
M  V30 5184 O 509.466 0.409956 -1.77836 0
M  V30 5185 C 509.517 -3.0774 -1.89679 0
M  V30 5186 O 509.238 -4.23559 -1.11934 0
M  V30 5187 C 510.739 -3.47368 -2.75409 0
M  V30 5188 H 507.959 -0.60727 -0.285419 0
M  V30 5189 H 510.503 -2.02996 -0.247579 0
M  V30 5190 H 508.658 -2.89361 -2.57583 0
M  V30 5191 H 509.072 -4.94586 -1.74599 0
M  V30 5192 H 510.546 -4.37977 -3.35977 0
M  V30 5193 H 511.023 -2.68737 -3.47386 0
M  V30 5194 H 511.629 -3.68158 -2.12931 0
M  V30 5195 N 509.944 0.496216 -1.49584 0
M  V30 5196 C 510.876 1.61404 -1.62731 0
M  V30 5197 C 511.889 1.54613 -0.50978 0
M  V30 5198 O 513.078 1.60458 -0.782017 0
M  V30 5199 C 510.178 3.00212 -1.57245 0
M  V30 5200 C 509.351 3.32138 -2.84611 0
M  V30 5201 C 508.41 4.5038 -2.72112 0
M  V30 5202 O 507.436 4.51926 -3.46051 0
M  V30 5203 N 508.638 5.50575 -1.83977 0
M  V30 5204 H 511.403 1.50552 -2.59141 0
M  V30 5205 H 508.964 0.684182 -1.46733 0
M  V30 5206 H 510.956 3.77241 -1.4653 0
M  V30 5207 H 509.526 3.04964 -0.686729 0
M  V30 5208 H 508.746 2.4396 -3.09641 0
M  V30 5209 H 510.034 3.50268 -3.69039 0
M  V30 5210 H 509.432 5.52128 -1.23171 0
M  V30 5211 H 507.989 6.26687 -1.79182 0
M  V30 5212 N 511.423 1.38739 0.74761 0
M  V30 5213 C 512.839 1.20067 1.05148 0
M  V30 5214 C 513.039 0.0534835 2.01429 0
M  V30 5215 O 512.095 -0.59886 2.45296 0
M  V30 5216 C 513.408 2.52957 1.62584 0
M  V30 5217 C 514.956 2.59692 1.74726 0
M  V30 5218 C 515.431 3.92772 2.35573 0
M  V30 5219 N 516.922 3.94343 2.42997 0
M  V30 5220 C 517.657 4.9408 2.90985 0
M  V30 5221 N 517.153 6.04214 3.38965 0
M  V30 5222 N 518.946 4.81466 2.9008 0
M  V30 5223 H 511.097 2.12121 0.108808 0
M  V30 5224 H 513.36 0.941491 0.110899 0
M  V30 5225 H 513.066 3.37389 0.993051 0
M  V30 5226 H 512.94 2.71779 2.61565 0
M  V30 5227 H 515.327 1.75651 2.3713 0
M  V30 5228 H 515.408 2.44731 0.744326 0
M  V30 5229 H 515.052 4.77238 1.738 0
M  V30 5230 H 514.982 4.05046 3.36519 0
M  V30 5231 H 517.473 3.14799 2.0907 0
M  V30 5232 H 517.786 6.76241 3.74056 0
M  V30 5233 H 516.131 6.07825 3.37007 0
M  V30 5234 H 519.322 3.94535 2.51912 0
M  V30 5235 H 519.495 5.59344 3.27166 0
M  V30 5236 N 512.901 -0.976442 1.23707 0
M  V30 5237 C 514.148 -1.71827 1.07153 0
M  V30 5238 C 514.476 -1.9053 -0.390982 0
M  V30 5239 O 513.731 -1.45779 -1.30564 0
M  V30 5240 C 514.03 -3.11814 1.74662 0
M  V30 5241 C 513.696 -3.12978 3.24585 0
M  V30 5242 C 512.358 -3.13003 3.6549 0
M  V30 5243 C 514.71 -3.07986 4.20469 0
M  V30 5244 C 512.038 -3.05757 5.00729 0
M  V30 5245 C 514.39 -3.02282 5.55705 0
M  V30 5246 C 513.054 -3.00631 5.95968 0
M  V30 5247 H 512.324 -0.628758 0.392102 0
M  V30 5248 H 514.971 -1.14239 1.53693 0
M  V30 5249 H 513.276 -3.72812 1.20492 0
M  V30 5250 H 514.973 -3.67989 1.59328 0
M  V30 5251 H 511.563 -3.13718 2.92026 0
M  V30 5252 H 515.747 -3.07103 3.89874 0
M  V30 5253 H 511.003 -3.02834 5.31132 0
M  V30 5254 H 515.177 -2.97376 6.29714 0
M  V30 5255 H 512.804 -2.94771 7.00724 0
M  V30 5256 N 514.379 -1.04941 -1.1758 0
M  V30 5257 C 515.795 -0.770282 -1.39781 0
M  V30 5258 C 515.995 0.636417 -1.91186 0
M  V30 5259 O 515.051 1.39923 -2.10185 0
M  V30 5260 C 516.364 -1.82376 -2.3908 0
M  V30 5261 C 517.912 -1.84569 -2.52791 0
M  V30 5262 C 518.387 -2.88933 -3.55361 0
M  V30 5263 N 519.878 -2.8788 -3.62877 0
M  V30 5264 C 520.613 -3.65282 -4.41992 0
M  V30 5265 N 520.109 -4.52461 -5.24643 0
M  V30 5266 N 521.902 -3.53732 -4.36841 0
M  V30 5267 H 514.053 -1.95705 -0.825438 0
M  V30 5268 H 516.316 -0.847284 -0.425222 0
M  V30 5269 H 516.022 -2.83323 -2.08376 0
M  V30 5270 H 515.896 -1.66327 -3.38549 0
M  V30 5271 H 518.283 -0.842879 -2.82807 0
M  V30 5272 H 518.364 -2.04696 -1.53406 0
M  V30 5273 H 518.008 -3.89398 -3.26085 0
M  V30 5274 H 517.938 -2.66059 -4.54445 0
M  V30 5275 H 520.429 -2.24666 -3.03864 0
M  V30 5276 H 520.742 -5.08211 -5.82187 0
M  V30 5277 H 519.087 -4.56524 -5.24033 0
M  V30 5278 H 522.278 -2.85021 -3.71323 0
M  V30 5279 H 522.451 -4.14302 -4.98255 0
M  V30 5280 N 515.857 1.33968 -0.830081 0
M  V30 5281 C 516.787 2.31911 -0.271911 0
M  V30 5282 C 517.768 1.58571 0.61556 0
M  V30 5283 O 518.953 1.86514 0.540946 0
M  V30 5284 C 516.083 3.42737 0.561146 0
M  V30 5285 C 515.037 4.27383 -0.229789 0
M  V30 5286 C 514.363 5.29742 0.726463 0
M  V30 5287 C 515.663 5.02 -1.44197 0
M  V30 5288 H 517.357 2.78844 -1.09025 0
M  V30 5289 H 514.903 1.34061 -0.52571 0
M  V30 5290 H 516.856 4.10276 0.961867 0
M  V30 5291 H 515.58 2.94471 1.41261 0
M  V30 5292 H 514.239 3.61456 -0.611964 0
M  V30 5293 H 513.887 4.77736 1.57408 0
M  V30 5294 H 513.587 5.87255 0.20142 0
M  V30 5295 H 515.111 6.00149 1.12489 0
M  V30 5296 H 516.525 5.62355 -1.11488 0
M  V30 5297 H 514.922 5.69122 -1.90317 0
M  V30 5298 H 515.992 4.31281 -2.2164 0
M  V30 5299 N 517.335 0.585699 1.46312 0
M  V30 5300 C 518.56 0.0762461 2.0726 0
M  V30 5301 C 518.985 -1.22071 1.43109 0
M  V30 5302 O 518.343 -1.73804 0.515942 0
M  V30 5303 C 518.391 -0.0729404 3.60526 0
M  V30 5304 O 517.495 -1.1287 3.96654 0
M  V30 5305 H 516.836 0.0641558 0.660893 0
M  V30 5306 H 519.366 0.809492 1.87905 0
M  V30 5307 H 519.376 -0.278158 4.07051 0
M  V30 5308 H 518.051 0.874188 4.06609 0
M  V30 5309 H 516.628 -0.901703 3.61834 0
M  V30 5310 N 518.813 -1.54241 0.323641 0
M  V30 5311 C 520.229 -1.59574 -0.0290018 0
M  V30 5312 C 520.429 -1.34017 -1.50472 0
M  V30 5313 O 519.485 -1.12464 -2.26071 0
M  V30 5314 C 520.798 -2.98169 0.389295 0
M  V30 5315 C 522.346 -3.11148 0.339958 0
M  V30 5316 C 522.821 -4.5209 0.733418 0
M  V30 5317 N 524.312 -4.5808 0.686827 0
M  V30 5318 C 525.047 -5.65248 0.963464 0
M  V30 5319 N 524.543 -6.80355 1.30724 0
M  V30 5320 N 526.336 -5.55025 0.88902 0
M  V30 5321 H 518.487 -1.6911 1.28512 0
M  V30 5322 H 520.75 -0.790972 0.522558 0
M  V30 5323 H 520.456 -3.21871 1.41746 0
M  V30 5324 H 520.33 -3.76399 -0.245657 0
M  V30 5325 H 522.717 -2.87182 -0.679002 0
M  V30 5326 H 522.798 -2.35023 1.00985 0
M  V30 5327 H 522.442 -4.76788 1.75029 0
M  V30 5328 H 522.372 -5.26584 0.0412189 0
M  V30 5329 H 524.863 -3.75411 0.43298 0
M  V30 5330 H 525.176 -7.58029 1.5037 0
M  V30 5331 H 523.521 -6.81851 1.3455 0
M  V30 5332 H 526.712 -4.63977 0.619939 0
M  V30 5333 H 526.885 -6.38458 1.10797 0
M  V30 5334 N 520.291 -0.0518155 -1.57515 0
M  V30 5335 C 521.568 0.661727 -1.84067 0
M  V30 5336 C 521.948 1.88999 -0.940351 0
M  V30 5337 O 521.296 2.285 -0.00155404 0
M  V30 5338 C 521.506 1.01841 -3.3381 0
M  V30 5339 C 522.854 1.40043 -4.00841 0
M  V30 5340 O 523.878 1.11073 -3.38439 0
M  V30 5341 O 522.737 1.94111 -5.10865 0
M  V30 5342 H 519.831 0.326702 -0.759733 0
M  V30 5343 H 522.377 -0.0812277 -1.69505 0
M  V30 5344 H 521.149 0.145202 -3.91031 0
M  V30 5345 H 520.772 1.81879 -3.53562 0
M  V30 5346 N 521.769 1.56035 0.221574 0
M  V30 5347 C 523.185 1.49026 0.571271 0
M  V30 5348 C 523.385 0.746912 1.87146 0
M  V30 5349 O 522.441 0.286566 2.50869 0
M  V30 5350 C 523.754 2.93579 0.650522 0
M  V30 5351 C 525.302 3.04099 0.741151 0
M  V30 5352 C 525.777 4.5001 0.851747 0
M  V30 5353 N 527.268 4.54053 0.915968 0
M  V30 5354 C 528.003 5.64232 1.02125 0
M  V30 5355 N 527.499 6.84164 1.09049 0
M  V30 5356 N 529.292 5.52084 1.05639 0
M  V30 5357 H 521.443 2.02791 -0.63162 0
M  V30 5358 H 523.706 0.921736 -0.221602 0
M  V30 5359 H 523.412 3.50912 -0.235253 0
M  V30 5360 H 523.286 3.45476 1.51413 0
M  V30 5361 H 525.673 2.4683 1.61737 0
M  V30 5362 H 525.754 2.55371 -0.148128 0
M  V30 5363 H 525.398 5.07896 -0.0200117 0
M  V30 5364 H 525.328 4.96444 1.75644 0
M  V30 5365 H 527.819 3.67683 0.872782 0
M  V30 5366 H 528.132 7.63883 1.1706 0
M  V30 5367 H 526.477 6.86875 1.05962 0
M  V30 5368 H 529.668 4.57317 0.998953 0
M  V30 5369 H 529.841 6.37983 1.13498 0
M  V30 5370 N 523.247 -0.488276 1.49845 0
M  V30 5371 C 524.194 -1.58836 1.67451 0
M  V30 5372 C 525.164 -1.57886 0.515857 0
M  V30 5373 O 526.349 -1.75679 0.744403 0
M  V30 5374 C 523.489 -2.96915 1.75885 0
M  V30 5375 C 522.602 -3.07784 3.03138 0
M  V30 5376 C 521.737 -4.36673 3.02473 0
M  V30 5377 C 520.776 -4.41222 4.24252 0
M  V30 5378 N 519.913 -5.61557 4.21424 0
M  V30 5379 H 524.753 -1.43131 2.61376 0
M  V30 5380 H 522.29 -0.696186 1.29583 0
M  V30 5381 H 524.248 -3.76965 1.78755 0
M  V30 5382 H 522.878 -3.11295 0.85414 0
M  V30 5383 H 521.93 -2.20717 3.09819 0
M  V30 5384 H 523.242 -3.07005 3.93128 0
M  V30 5385 H 522.396 -5.25055 3.03977 0
M  V30 5386 H 521.135 -4.40037 2.10283 0
M  V30 5387 H 520.14 -3.5124 4.22978 0
M  V30 5388 H 521.365 -4.39564 5.17649 0
M  V30 5389 H 519.311 -5.65738 3.32078 0
M  V30 5390 H 519.228 -5.62447 5.05163 0
M  V30 5391 H 520.496 -6.52111 4.2705 0
M  V30 5392 N 524.725 -1.39134 -0.740242 0
M  V30 5393 C 525.971 -1.36273 -1.50192 0
M  V30 5394 C 526.304 0.0430136 -1.94152 0
M  V30 5395 O 525.579 1.00691 -1.66408 0
M  V30 5396 C 525.862 -2.33041 -2.74525 0
M  V30 5397 C 525.715 -3.82535 -2.36617 0
M  V30 5398 C 527.034 -2.27723 -3.76604 0
M  V30 5399 H 524.153 -0.496323 -0.544823 0
M  V30 5400 H 526.795 -1.70085 -0.846815 0
M  V30 5401 H 524.945 -2.04337 -3.30422 0
M  V30 5402 H 526.617 -4.21967 -1.86391 0
M  V30 5403 H 524.86 -3.99565 -1.68909 0
M  V30 5404 H 525.531 -4.45723 -3.2563 0
M  V30 5405 H 528.007 -2.53091 -3.30279 0
M  V30 5406 H 526.883 -2.97519 -4.61274 0
M  V30 5407 H 527.144 -1.28049 -4.2315 0
M  V30 5408 N 526.204 0.969867 -1.24223 0
M  V30 5409 C 527.167 2.04564 -1.03373 0
M  V30 5410 C 528.167 1.60798 0.00819206 0
M  V30 5411 O 529.357 1.72641 -0.232567 0
M  V30 5412 C 526.489 3.36163 -0.566343 0
M  V30 5413 H 527.682 2.24494 -1.98853 0
M  V30 5414 H 525.235 1.1448 -1.06415 0
M  V30 5415 H 525.97 3.21925 0.391751 0
M  V30 5416 H 525.755 3.69273 -1.31834 0
M  V30 5417 H 527.245 4.1526 -0.441435 0
M  V30 5418 N 527.682 1.05563 1.17022 0
M  V30 5419 C 528.629 0.659893 2.21165 0
M  V30 5420 C 529.599 -0.339813 1.62587 0
M  V30 5421 O 530.784 -0.230378 1.89404 0
M  V30 5422 C 527.924 0.0447297 3.45071 0
M  V30 5423 C 527.037 1.09372 4.17926 0
M  V30 5424 C 526.172 0.445481 5.29329 0
M  V30 5425 C 525.211 1.47852 5.93975 0
M  V30 5426 N 524.348 0.854172 6.96885 0
M  V30 5427 H 529.188 1.55243 2.54369 0
M  V30 5428 H 526.725 0.776336 1.24946 0
M  V30 5429 H 528.683 -0.329404 4.15898 0
M  V30 5430 H 527.313 -0.811244 3.1244 0
M  V30 5431 H 526.365 1.58564 3.45777 0
M  V30 5432 H 527.677 1.87773 4.62107 0
M  V30 5433 H 526.831 0.0179688 6.06697 0
M  V30 5434 H 525.57 -0.370481 4.86291 0
M  V30 5435 H 524.575 1.91601 5.15334 0
M  V30 5436 H 525.8 2.29645 6.39093 0
M  V30 5437 H 523.746 0.0587882 6.55974 0
M  V30 5438 H 523.663 1.57567 7.39397 0
M  V30 5439 H 524.931 0.451559 7.78191 0
M  V30 5440 N 529.16 -1.33526 0.837174 0
M  V30 5441 C 530.385 -2.0258 0.444545 0
M  V30 5442 C 530.81 -1.6258 -0.946006 0
M  V30 5443 O 530.168 -0.817548 -1.6182 0
M  V30 5444 C 530.216 -3.5605 0.571006 0
M  V30 5445 O 529.32 -4.10422 -0.403431 0
M  V30 5446 H 528.661 -0.638866 0.180958 0
M  V30 5447 H 531.191 -1.70462 1.13154 0
M  V30 5448 H 531.201 -4.05488 0.452024 0
M  V30 5449 H 529.876 -3.84509 1.58512 0
M  V30 5450 H 528.453 -3.72113 -0.242147 0
M  V30 5451 N 530.638 -0.59345 -1.46 0
M  V30 5452 C 531.568 0.121192 -2.33185 0
M  V30 5453 C 532.549 0.872977 -1.4599 0
M  V30 5454 O 533.734 0.846321 -1.74789 0
M  V30 5455 C 530.864 1.12844 -3.28456 0
M  V30 5456 C 529.818 0.4908 -4.25177 0
M  V30 5457 C 529.144 1.60529 -5.10034 0
M  V30 5458 C 530.444 -0.578949 -5.19081 0
M  V30 5459 H 532.138 -0.606767 -2.93187 0
M  V30 5460 H 529.684 -0.293242 -1.40983 0
M  V30 5461 H 531.637 1.63684 -3.88311 0
M  V30 5462 H 530.361 1.88681 -2.66584 0
M  V30 5463 H 529.02 0.00339328 -3.666 0
M  V30 5464 H 528.668 2.35359 -4.44539 0
M  V30 5465 H 528.368 1.18422 -5.75543 0
M  V30 5466 H 529.892 2.11623 -5.72755 0
M  V30 5467 H 531.306 -0.155199 -5.7309 0
M  V30 5468 H 529.703 -0.920947 -5.92991 0
M  V30 5469 H 530.773 -1.46109 -4.62364 0
M  V30 5470 N 532.116 1.54067 -0.331816 0
M  V30 5471 C 533.079 2.23275 0.517768 0
M  V30 5472 C 534.079 1.22897 1.03697 0
M  V30 5473 O 535.269 1.47419 0.928084 0
M  V30 5474 C 532.401 2.94326 1.72004 0
M  V30 5475 H 533.594 2.99773 -0.0873507 0
M  V30 5476 H 531.147 1.56079 -0.0830042 0
M  V30 5477 H 531.882 2.21986 2.36417 0
M  V30 5478 H 531.667 3.67941 1.35507 0
M  V30 5479 H 533.157 3.47031 2.32291 0
M  V30 5480 N 533.594 0.0601682 1.57485 0
M  V30 5481 C 534.84 -0.612501 1.93329 0
M  V30 5482 C 535.173 -1.6996 0.939526 0
M  V30 5483 O 534.448 -1.94472 -0.0330957 0
M  V30 5484 C 534.731 -1.20025 3.39508 0
M  V30 5485 C 534.584 -0.12059 4.49638 0
M  V30 5486 C 535.903 -2.10923 3.86264 0
M  V30 5487 H 533.022 -0.221185 0.703027 0
M  V30 5488 H 535.664 0.123768 1.89596 0
M  V30 5489 H 533.814 -1.82774 3.42821 0
M  V30 5490 H 535.486 0.51185 4.58452 0
M  V30 5491 H 533.729 0.550251 4.30296 0
M  V30 5492 H 534.4 -0.572019 5.49028 0
M  V30 5493 H 536.876 -1.58124 3.84884 0
M  V30 5494 H 535.752 -2.48987 4.8918 0
M  V30 5495 H 536.013 -3.01292 3.23536 0
M  V30 5496 N 535.072 -1.5615 -0.213296 0
M  V30 5497 C 536.321 -1.78743 -0.93455 0
M  V30 5498 C 536.634 -0.630199 -1.8517 0
M  V30 5499 O 537.84 -0.739966 -2.61222 0
M  V30 5500 C 536.296 -3.16571 -1.71203 0
M  V30 5501 C 535.904 -4.40043 -0.840617 0
M  V30 5502 C 537.648 -3.48485 -2.42401 0
M  V30 5503 C 535.555 -5.68895 -1.61592 0
M  V30 5504 H 534.485 -0.666426 -0.352692 0
M  V30 5505 H 537.136 -1.82532 -0.188227 0
M  V30 5506 H 535.518 -3.06981 -2.50157 0
M  V30 5507 H 536.692 -4.6071 -0.0910326 0
M  V30 5508 H 535.007 -4.15706 -0.240365 0
M  V30 5509 H 537.604 -4.41983 -3.00924 0
M  V30 5510 H 537.947 -2.71371 -3.15695 0
M  V30 5511 H 538.48 -3.59442 -1.7043 0
M  V30 5512 H 535.219 -6.48925 -0.926106 0
M  V30 5513 H 534.739 -5.52275 -2.33991 0
M  V30 5514 H 536.418 -6.09365 -2.17447 0
M  V30 5515 N 536.55 0.480323 -1.50102 0
M  V30 5516 C 537.796 1.23489 -1.60867 0
M  V30 5517 C 538.129 1.91809 -0.303827 0
M  V30 5518 O 537.404 1.81694 0.694092 0
M  V30 5519 C 537.687 2.28578 -2.78252 0
M  V30 5520 C 537.54 1.64624 -4.18592 0
M  V30 5521 C 538.859 3.2997 -2.91218 0
M  V30 5522 H 535.978 0.447605 -0.585507 0
M  V30 5523 H 538.62 0.530005 -1.82458 0
M  V30 5524 H 536.77 2.88697 -2.59974 0
M  V30 5525 H 538.442 1.08173 -4.48438 0
M  V30 5526 H 536.685 0.949645 -4.23278 0
M  V30 5527 H 537.356 2.40946 -4.96638 0
M  V30 5528 H 539.832 2.79864 -3.07921 0
M  V30 5529 H 538.708 4.00839 -3.74993 0
M  V30 5530 H 538.969 3.93541 -2.0144 0
M  V30 5531 N 538.028 1.39524 0.732853 0
M  V30 5532 C 539.253 1.40329 1.52717 0
M  V30 5533 C 539.678 0.000286574 1.881 0
M  V30 5534 O 539.036 -0.987262 1.52062 0
M  V30 5535 C 539.084 2.28464 2.78992 0
M  V30 5536 O 538.188 1.716 3.75003 0
M  V30 5537 H 537.529 0.47778 0.461109 0
M  V30 5538 H 540.059 1.83546 0.903996 0
M  V30 5539 H 540.069 2.43051 3.27705 0
M  V30 5540 H 538.744 3.30425 2.52572 0
M  V30 5541 H 537.321 1.66267 3.33781 0
M  V30 5542 N 539.506 -0.963266 1.24736 0
M  V30 5543 C 540.755 -1.70115 1.08369 0
M  V30 5544 C 541.068 -1.91939 -0.376688 0
M  V30 5545 O 542.274 -2.6334 -0.660624 0
M  V30 5546 C 540.73 -3.06218 1.89099 0
M  V30 5547 C 540.338 -2.92221 3.39574 0
M  V30 5548 C 542.082 -3.83848 1.81275 0
M  V30 5549 C 539.989 -4.23662 4.12631 0
M  V30 5550 H 538.919 -0.637944 0.401924 0
M  V30 5551 H 541.57 -1.07304 1.48856 0
M  V30 5552 H 539.952 -3.69884 1.41429 0
M  V30 5553 H 541.126 -2.37541 3.94856 0
M  V30 5554 H 539.441 -2.28054 3.48397 0
M  V30 5555 H 542.038 -4.81188 2.33158 0
M  V30 5556 H 542.381 -4.08949 0.778895 0
M  V30 5557 H 542.914 -3.26918 2.26649 0
M  V30 5558 H 539.653 -4.03753 5.16395 0
M  V30 5559 H 539.173 -4.78141 3.62135 0
M  V30 5560 H 540.852 -4.92256 4.19873 0
M  V30 5561 N 540.985 -1.06182 -1.16461 0
M  V30 5562 C 542.232 -0.777863 -1.86964 0
M  V30 5563 C 542.56 0.695602 -1.81636 0
M  V30 5564 O 541.815 1.52532 -1.22607 0
M  V30 5565 C 542.114 -1.21633 -3.36066 0
M  V30 5566 C 541.78 -2.69371 -3.61594 0
M  V30 5567 C 540.442 -3.09727 -3.6827 0
M  V30 5568 C 542.794 -3.64791 -3.7226 0
M  V30 5569 C 540.122 -4.44345 -3.83112 0
M  V30 5570 C 542.474 -4.99155 -3.88623 0
M  V30 5571 C 541.138 -5.39149 -3.93541 0
M  V30 5572 H 540.408 -0.28464 -0.68415 0
M  V30 5573 H 543.055 -1.33071 -1.37711 0
M  V30 5574 H 541.36 -0.582651 -3.87443 0
M  V30 5575 H 543.057 -0.973682 -3.88999 0
M  V30 5576 H 539.647 -2.37124 -3.57029 0
M  V30 5577 H 543.831 -3.34746 -3.66413 0
M  V30 5578 H 539.087 -4.74819 -3.85172 0
M  V30 5579 H 543.261 -5.72976 -3.95817 0
M  V30 5580 H 540.888 -6.43464 -4.04794 0
M  V30 5581 N 542.463 1.3308 -0.844243 0
M  V30 5582 C 543.711 1.97215 -0.441676 0
M  V30 5583 C 544.032 1.67185 1.0037 0
M  V30 5584 O 543.302 0.973588 1.69994 0
M  V30 5585 H 541.882 0.72959 -0.160335 0
M  V30 5586 H 544.544 1.62348 -1.07838 0
M  V30 5587 H 543.64 3.06698 -0.57815 0
M  V30 5588 N 543.941 0.601185 1.45683 0
M  V30 5589 C 544.871 -0.108824 2.33246 0
M  V30 5590 C 545.852 -0.865223 1.46451 0
M  V30 5591 O 547.037 -0.83704 1.75235 0
M  V30 5592 C 544.167 -1.11101 3.2905 0
M  V30 5593 C 543.121 -0.468244 4.25431 0
M  V30 5594 C 542.447 -1.57822 5.10878 0
M  V30 5595 C 543.747 0.606469 5.18767 0
M  V30 5596 H 545.441 0.622306 2.92861 0
M  V30 5597 H 542.987 0.300714 1.40825 0
M  V30 5598 H 544.94 -1.61622 3.89174 0
M  V30 5599 H 543.664 -1.87265 2.67581 0
M  V30 5600 H 542.323 0.0160484 3.66596 0
M  V30 5601 H 541.971 -2.32998 4.45781 0
M  V30 5602 H 541.671 -1.15369 5.76163 0
M  V30 5603 H 543.195 -2.08583 5.73869 0
M  V30 5604 H 544.609 0.185589 5.73 0
M  V30 5605 H 543.006 0.952381 5.92494 0
M  V30 5606 H 544.076 1.48559 4.61582 0
M  V30 5607 N 545.419 -1.53889 0.339982 0
M  V30 5608 C 546.659 -2.02765 -0.258011 0
M  V30 5609 C 547.023 -1.22249 -1.48051 0
M  V30 5610 O 548.224 -1.61007 -2.15245 0
M  V30 5611 C 546.495 -3.5286 -0.567872 0
M  V30 5612 S 548.054 -4.23647 -1.14318 0
M  V30 5613 H 544.872 -0.706814 -0.0770389 0
M  V30 5614 H 547.474 -1.89594 0.476917 0
M  V30 5615 H 546.178 -4.09073 0.329745 0
M  V30 5616 H 545.709 -3.70144 -1.33256 0
M  V30 5617 H 547.724 -4.32676 -2.42911 0
M  V30 5618 N 546.897 -0.0685191 -1.57451 0
M  V30 5619 C 548.143 0.596247 -1.94465 0
M  V30 5620 C 548.498 1.67417 -0.948117 0
M  V30 5621 O 547.791 1.91576 0.0301056 0
M  V30 5622 C 547.985 1.22051 -3.35914 0
M  V30 5623 C 547.814 0.204586 -4.49234 0
M  V30 5624 C 546.584 -0.20959 -5.04865 0
M  V30 5625 C 548.782 -0.556872 -5.11276 0
M  V30 5626 N 546.764 -1.21656 -6.01725 0
M  V30 5627 C 548.135 -1.41642 -6.03604 0
M  V30 5628 C 550.19 -0.613297 -4.94108 0
M  V30 5629 C 548.893 -2.32737 -6.80607 0
M  V30 5630 C 550.919 -1.51174 -5.71752 0
M  V30 5631 C 550.281 -2.35898 -6.63726 0
M  V30 5632 H 546.38 0.189307 -0.75874 0
M  V30 5633 H 548.964 -0.144899 -1.9416 0
M  V30 5634 H 547.135 1.9316 -3.36963 0
M  V30 5635 H 548.867 1.84548 -3.60172 0
M  V30 5636 H 545.622 0.172871 -4.73284 0
M  V30 5637 H 546.046 -1.71746 -6.54853 0
M  V30 5638 H 550.688 0.0275228 -4.22791 0
M  V30 5639 H 548.406 -2.97856 -7.51204 0
M  V30 5640 H 551.992 -1.5602 -5.6049 0
M  V30 5641 H 550.872 -3.04291 -7.22756 0
M  V30 5642 N 548.375 1.56261 0.205012 0
M  V30 5643 C 549.338 1.92908 1.23771 0
M  V30 5644 C 550.338 0.809208 1.38955 0
M  V30 5645 O 551.528 1.07676 1.36936 0
M  V30 5646 C 548.66 2.19442 2.60879 0
M  V30 5647 H 549.853 2.85287 0.924728 0
M  V30 5648 H 547.406 1.49798 0.446125 0
M  V30 5649 H 548.141 1.29668 2.97248 0
M  V30 5650 H 547.926 3.0104 2.51232 0
M  V30 5651 H 549.416 2.48833 3.35368 0
M  V30 5652 N 549.853 -0.472356 1.50355 0
M  V30 5653 C 551.264 -1.05326 1.54154 0
M  V30 5654 C 551.615 -1.93155 0.344303 0
M  V30 5655 O 550.74 -2.09479 -0.542928 0
M  V30 5656 C 551.335 -1.91691 2.79356 0
M  V30 5657 C 549.894 -2.44892 2.8584 0
M  V30 5658 C 549.041 -1.23205 2.48426 0
M  V30 5659 H 551.992 -0.255027 1.56637 0
M  V30 5660 H 552.013 -2.76742 2.6114 0
M  V30 5661 H 551.525 -1.27741 3.66475 0
M  V30 5662 H 549.626 -3.12399 2.0307 0
M  V30 5663 H 549.739 -2.80086 3.88701 0
M  V30 5664 H 548.103 -1.56643 2.00836 0
M  V30 5665 H 548.886 -0.609194 3.37852 0
M  V30 5666 N 551.331 -1.39911 -0.725443 0
M  V30 5667 C 552.561 -1.40744 -1.51244 0
M  V30 5668 C 552.969 -0.00275403 -1.892 0
M  V30 5669 O 552.312 0.981299 -1.55294 0
M  V30 5670 C 552.374 -2.22527 -2.82351 0
M  V30 5671 C 552.038 -3.71053 -2.66774 0
M  V30 5672 C 553.035 -4.63916 -2.34686 0
M  V30 5673 C 550.72 -4.14753 -2.83347 0
M  V30 5674 C 552.714 -5.98463 -2.19366 0
M  V30 5675 C 550.401 -5.49372 -2.67644 0
M  V30 5676 C 551.399 -6.41042 -2.357 0
M  V30 5677 O 551.087 -7.73181 -2.20107 0
M  V30 5678 H 550.819 -0.482314 -0.473655 0
M  V30 5679 H 553.373 -1.84472 -0.903284 0
M  V30 5680 H 551.603 -1.73563 -3.45562 0
M  V30 5681 H 553.292 -2.15421 -3.44018 0
M  V30 5682 H 554.058 -4.31453 -2.21525 0
M  V30 5683 H 549.937 -3.43728 -3.072 0
M  V30 5684 H 553.481 -6.69979 -1.94354 0
M  V30 5685 H 549.378 -5.81424 -2.80387 0
M  V30 5686 H 550.146 -7.84008 -2.35103 0
M  V30 5687 N 552.809 0.956637 -1.25245 0
M  V30 5688 C 554.037 1.73571 -1.12608 0
M  V30 5689 C 554.452 1.86063 0.320324 0
M  V30 5690 O 553.809 1.35691 1.22042 0
M  V30 5691 C 553.86 3.15053 -1.77268 0
M  V30 5692 O 553.581 3.03174 -3.16255 0
M  V30 5693 C 555.082 4.09248 -1.70386 0
M  V30 5694 H 552.302 0.543955 -0.392879 0
M  V30 5695 H 554.846 1.20031 -1.65568 0
M  V30 5696 H 553.001 3.65543 -1.28284 0
M  V30 5697 H 553.415 3.9241 -3.48015 0
M  V30 5698 H 554.889 5.06138 -2.20291 0
M  V30 5699 H 555.366 4.34102 -0.667239 0
M  V30 5700 H 555.972 3.64672 -2.18849 0
M  V30 5701 N 554.287 1.06798 1.15896 0
M  V30 5702 C 555.217 0.704677 2.22613 0
M  V30 5703 C 556.198 -0.305252 1.67339 0
M  V30 5704 O 557.383 -0.179247 1.93371 0
M  V30 5705 C 554.513 0.0957325 3.47168 0
M  V30 5706 C 553.467 1.0322 4.15367 0
M  V30 5707 C 552.793 0.286293 5.33933 0
M  V30 5708 C 554.093 2.36341 4.65768 0
M  V30 5709 H 555.787 1.59688 2.53259 0
M  V30 5710 H 553.333 0.769257 1.21731 0
M  V30 5711 H 555.286 -0.170333 4.21056 0
M  V30 5712 H 554.01 -0.831516 3.15838 0
M  V30 5713 H 552.669 1.28309 3.43413 0
M  V30 5714 H 552.317 -0.644237 4.98857 0
M  V30 5715 H 552.017 0.910436 5.80504 0
M  V30 5716 H 553.541 0.0278938 6.10594 0
M  V30 5717 H 554.955 2.1561 5.31211 0
M  V30 5718 H 553.352 2.94299 5.2298 0
M  V30 5719 H 554.422 2.99047 3.81705 0
M  V30 5720 N 555.766 -1.3263 0.851289 0
M  V30 5721 C 556.696 -2.31449 0.308771 0
M  V30 5722 C 557.677 -1.59531 -0.590255 0
M  V30 5723 O 558.862 -1.87351 -0.511205 0
M  V30 5724 C 555.992 -3.43586 -0.506548 0
M  V30 5725 C 554.946 -4.26963 0.297753 0
M  V30 5726 C 554.272 -5.30831 -0.642094 0
M  V30 5727 C 555.572 -4.99643 1.52166 0
M  V30 5728 H 557.266 -2.77074 1.13447 0
M  V30 5729 H 554.812 -1.33207 0.546971 0
M  V30 5730 H 556.765 -4.11754 -0.896474 0
M  V30 5731 H 555.489 -2.96681 -1.36558 0
M  V30 5732 H 554.148 -3.60437 0.669391 0
M  V30 5733 H 553.796 -4.8018 -1.49788 0
M  V30 5734 H 553.496 -5.87501 -0.107968 0
M  V30 5735 H 555.02 -6.01862 -1.02927 0
M  V30 5736 H 556.434 -5.6051 1.20421 0
M  V30 5737 H 554.831 -5.66022 1.99347 0
M  V30 5738 H 555.901 -4.27701 2.28474 0
M  V30 5739 N 557.244 -0.608902 -1.45362 0
M  V30 5740 C 558.177 0.158059 -2.27652 0
M  V30 5741 C 559.155 0.872397 -1.37215 0
M  V30 5742 O 560.339 0.881002 -1.66645 0
M  V30 5743 C 557.466 1.22896 -3.15617 0
M  V30 5744 C 556.512 0.617607 -4.22005 0
M  V30 5745 S 557.345 -0.575518 -5.32398 0
M  V30 5746 C 558.501 0.495938 -6.23932 0
M  V30 5747 H 558.734 -0.540095 -2.92353 0
M  V30 5748 H 556.267 -0.396456 -1.49223 0
M  V30 5749 H 558.225 1.84195 -3.66855 0
M  V30 5750 H 556.886 1.89919 -2.50179 0
M  V30 5751 H 556.079 1.42341 -4.83482 0
M  V30 5752 H 555.681 0.0797273 -3.73915 0
M  V30 5753 H 557.973 1.37465 -6.63408 0
M  V30 5754 H 558.916 -0.0827108 -7.08052 0
M  V30 5755 H 559.324 0.811856 -5.58631 0
M  V30 5756 N 558.722 1.53707 -0.348139 0
M  V30 5757 C 559.971 2.0017 0.247992 0
M  V30 5758 C 560.284 1.23983 1.51286 0
M  V30 5759 O 561.49 1.60946 2.18652 0
M  V30 5760 C 559.946 3.56515 0.492459 0
M  V30 5761 C 559.554 4.41562 -0.756777 0
M  V30 5762 C 561.298 4.11381 1.0472 0
M  V30 5763 C 559.205 5.89426 -0.482856 0
M  V30 5764 H 558.135 0.747806 0.0964452 0
M  V30 5765 H 560.786 1.77532 -0.464179 0
M  V30 5766 H 559.168 3.75236 1.26545 0
M  V30 5767 H 560.342 4.34615 -1.53122 0
M  V30 5768 H 558.657 3.97711 -1.23348 0
M  V30 5769 H 561.254 5.19468 1.26717 0
M  V30 5770 H 561.597 3.64885 2.00411 0
M  V30 5771 H 562.13 3.96389 0.334801 0
M  V30 5772 H 558.869 6.40164 -1.40962 0
M  V30 5773 H 558.389 5.99264 0.253416 0
M  V30 5774 H 560.068 6.4692 -0.101816 0
M  V30 5775 N 560.2 0.0768682 1.57412 0
M  V30 5776 C 561.449 -0.590679 1.92857 0
M  V30 5777 C 561.762 -1.70461 0.959293 0
M  V30 5778 O 562.968 -2.43207 1.20675 0
M  V30 5779 C 561.424 -1.10204 3.42612 0
M  V30 5780 C 561.032 -0.0188447 4.47996 0
M  V30 5781 C 562.776 -1.74336 3.87049 0
M  V30 5782 C 560.683 -0.544536 5.88888 0
M  V30 5783 H 559.613 -0.224411 0.71983 0
M  V30 5784 H 562.264 0.149924 1.82887 0
M  V30 5785 H 560.646 -1.89577 3.47673 0
M  V30 5786 H 561.82 0.755936 4.54557 0
M  V30 5787 H 560.135 0.526555 4.13057 0
M  V30 5788 H 562.732 -2.14708 4.89699 0
M  V30 5789 H 563.075 -2.60537 3.24694 0
M  V30 5790 H 563.608 -1.01577 3.84613 0
M  V30 5791 H 560.347 0.280426 6.549 0
M  V30 5792 H 559.867 -1.28673 5.85836 0
M  V30 5793 H 561.546 -1.01933 6.3892 0
M  V30 5794 N 561.678 -1.56367 -0.196722 0
M  V30 5795 C 563.094 -1.49916 -0.54749 0
M  V30 5796 C 563.294 -0.77659 -1.85934 0
M  V30 5797 O 562.35 -0.32644 -2.50381 0
M  V30 5798 C 563.663 -2.94577 -0.603734 0
M  V30 5799 C 565.211 -3.05239 -0.692677 0
M  V30 5800 C 565.686 -4.51308 -0.780046 0
M  V30 5801 N 567.177 -4.55453 -0.843616 0
M  V30 5802 C 567.912 -5.65786 -0.931358 0
M  V30 5803 N 567.408 -6.85812 -0.981503 0
M  V30 5804 N 569.201 -5.53695 -0.968421 0
M  V30 5805 H 561.352 -2.01761 0.663803 0
M  V30 5806 H 563.615 -0.918094 0.236238 0
M  V30 5807 H 563.321 -3.50494 0.29105 0
M  V30 5808 H 563.195 -3.47841 -1.45898 0
M  V30 5809 H 565.582 -2.49372 -1.57789 0
M  V30 5810 H 565.663 -2.55103 0.188736 0
M  V30 5811 H 565.307 -5.078 0.100811 0
M  V30 5812 H 565.237 -4.99176 -1.67724 0
M  V30 5813 H 567.728 -3.69025 -0.814176 0
M  V30 5814 H 568.041 -7.65648 -1.04892 0
M  V30 5815 H 566.386 -6.88474 -0.950208 0
M  V30 5816 H 569.577 -4.58848 -0.926072 0
M  V30 5817 H 569.75 -6.39708 -1.03334 0
M  V30 5818 N 563.156 0.464375 -1.50603 0
M  V30 5819 C 564.119 1.54393 -1.69397 0
M  V30 5820 C 565.119 1.50566 -0.564504 0
M  V30 5821 O 566.309 1.53066 -0.831645 0
M  V30 5822 C 563.441 2.9401 -1.72543 0
M  V30 5823 H 564.634 1.39044 -2.65719 0
M  V30 5824 H 562.187 0.69122 -1.40185 0
M  V30 5825 H 562.922 3.14795 -0.77938 0
M  V30 5826 H 562.707 2.98195 -2.54602 0
M  V30 5827 H 564.197 3.72375 -1.89015 0
M  V30 5828 N 564.634 1.40294 0.718013 0
M  V30 5829 C 565.597 1.4012 1.81381 0
M  V30 5830 C 566.597 0.295405 1.58063 0
M  V30 5831 O 567.787 0.554187 1.6515 0
M  V30 5832 C 564.919 1.19056 3.19435 0
M  V30 5833 H 566.112 2.37645 1.82933 0
M  V30 5834 H 563.665 1.26107 0.923405 0
M  V30 5835 H 564.4 0.222809 3.23534 0
M  V30 5836 H 564.185 1.99152 3.37758 0
M  V30 5837 H 565.675 1.21716 3.99468 0
M  V30 5838 N 566.112 -0.949982 1.2575 0
M  V30 5839 C 567.352 -1.70994 1.11984 0
M  V30 5840 C 567.716 -1.89095 -0.332746 0
M  V30 5841 O 568.917 -2.62192 -0.592331 0
M  V30 5842 C 567.188 -3.05286 1.85837 0
M  V30 5843 S 568.747 -3.96477 1.88019 0
M  V30 5844 H 565.565 -0.587689 0.400178 0
M  V30 5845 H 568.167 -1.13271 1.59342 0
M  V30 5846 H 566.871 -2.89785 2.90608 0
M  V30 5847 H 566.402 -3.68069 1.38885 0
M  V30 5848 H 568.417 -4.86814 0.96057 0
M  V30 5849 N 567.59 -1.07411 -1.15328 0
M  V30 5850 C 568.54 -0.664788 -2.18093 0
M  V30 5851 C 569.524 0.310395 -1.57878 0
M  V30 5852 O 570.716 0.124026 -1.76565 0
M  V30 5853 C 567.845 -0.0647822 -3.43239 0
M  V30 5854 C 566.931 -1.06514 -4.10506 0
M  V30 5855 N 567.322 -2.24491 -4.53252 0
M  V30 5856 C 565.62 -0.898613 -4.36853 0
M  V30 5857 C 566.321 -2.8796 -5.05424 0
M  V30 5858 N 565.297 -2.15622 -4.99007 0
M  V30 5859 H 569.099 -1.56333 -2.48872 0
M  V30 5860 H 566.613 -0.947393 -1.31902 0
M  V30 5861 H 568.61 0.246363 -4.16171 0
M  V30 5862 H 567.27 0.828866 -3.13943 0
M  V30 5863 H 568.281 -2.62205 -4.46619 0
M  V30 5864 H 564.958 -0.0579118 -4.1746 0
M  V30 5865 H 566.348 -3.88137 -5.48452 0
M  V30 5866 N 569.068 1.32177 -0.85831 0
M  V30 5867 C 570.316 1.96735 -0.462568 0
M  V30 5868 C 570.637 1.6824 0.985911 0
M  V30 5869 O 569.907 0.991564 1.68952 0
M  V30 5870 H 568.487 0.727849 -0.168064 0
M  V30 5871 H 571.149 1.61195 -1.09554 0
M  V30 5872 H 570.245 3.06068 -0.610647 0
M  V30 5873 N 570.547 0.616602 1.45037 0
M  V30 5874 C 571.497 -0.118543 2.27692 0
M  V30 5875 C 572.481 -0.830025 1.37838 0
M  V30 5876 O 573.673 -0.718528 1.6176 0
M  V30 5877 C 570.802 -1.10924 3.24886 0
M  V30 5878 C 569.888 -0.398134 4.22227 0
M  V30 5879 N 570.279 0.565233 5.02632 0
M  V30 5880 C 568.577 -0.644506 4.41319 0
M  V30 5881 C 569.278 0.984043 5.73316 0
M  V30 5882 N 568.254 0.325879 5.42622 0
M  V30 5883 H 572.056 0.621239 2.87259 0
M  V30 5884 H 569.57 0.440968 1.56299 0
M  V30 5885 H 571.567 -1.65038 3.82842 0
M  V30 5886 H 570.227 -1.84948 2.66879 0
M  V30 5887 H 571.238 0.942395 5.09254 0
M  V30 5888 H 567.915 -1.36873 3.94426 0
M  V30 5889 H 569.305 1.77911 6.47918 0
M  V30 5890 N 572.025 -1.5352 0.356285 0
M  V30 5891 C 573.265 -2.03027 -0.23649 0
M  V30 5892 C 573.629 -1.23813 -1.46746 0
M  V30 5893 O 574.83 -1.63281 -2.13525 0
M  V30 5894 C 573.101 -3.53442 -0.530415 0
M  V30 5895 S 574.66 -4.24836 -1.09819 0
M  V30 5896 H 571.478 -0.707591 -0.0695378 0
M  V30 5897 H 574.08 -1.89077 0.496999 0
M  V30 5898 H 572.784 -4.087 0.373114 0
M  V30 5899 H 572.315 -3.71536 -1.29323 0
M  V30 5900 H 574.33 -4.35228 -2.38309 0
M  V30 5901 N 573.503 -0.0852151 -1.57369 0
M  V30 5902 C 574.749 0.581666 -1.94279 0
M  V30 5903 C 575.082 1.68444 -0.966446 0
M  V30 5904 O 574.357 1.945 0.00215277 0
M  V30 5905 C 574.64 1.14609 -3.41375 0
M  V30 5906 C 574.493 0.0490414 -4.49773 0
M  V30 5907 C 575.812 2.04751 -3.8957 0
M  V30 5908 H 572.931 0.209972 -0.706456 0
M  V30 5909 H 575.573 -0.153915 -1.89376 0
M  V30 5910 H 573.723 1.77297 -3.45685 0
M  V30 5911 H 575.395 -0.584721 -4.57579 0
M  V30 5912 H 573.638 -0.618638 -4.29366 0
M  V30 5913 H 574.309 0.484601 -5.49869 0
M  V30 5914 H 576.785 1.51981 -3.87351 0
M  V30 5915 H 575.661 2.41173 -4.93079 0
M  V30 5916 H 575.922 2.96107 -3.28288 0
M  V30 5917 N 574.981 1.5647 0.188427 0
M  V30 5918 C 576.392 1.70864 0.752494 0
M  V30 5919 C 576.743 0.692905 1.83557 0
M  V30 5920 O 575.868 -0.149307 2.15884 0
M  V30 5921 C 576.463 3.09789 1.37173 0
M  V30 5922 C 575.022 3.25925 1.88281 0
M  V30 5923 C 574.169 2.66817 0.755259 0
M  V30 5924 H 577.12 1.58657 -0.0367408 0
M  V30 5925 H 577.141 3.07489 2.24122 0
M  V30 5926 H 576.653 3.83693 0.583219 0
M  V30 5927 H 574.754 2.56948 2.6983 0
M  V30 5928 H 574.867 4.33498 2.04001 0
M  V30 5929 H 573.231 2.2617 1.17128 0
M  V30 5930 H 574.014 3.43294 -0.0211237 0
M  V30 5931 N 576.459 -0.456382 1.50847 0
M  V30 5932 C 577.736 -1.21739 1.53098 0
M  V30 5933 C 578.116 -2.09179 0.284132 0
M  V30 5934 O 577.464 -2.16466 -0.731773 0
M  V30 5935 C 577.674 -2.03573 2.83477 0
M  V30 5936 C 579.022 -2.61264 3.34703 0
M  V30 5937 O 580.046 -2.13802 2.84898 0
M  V30 5938 O 578.905 -3.47779 4.21559 0
M  V30 5939 H 575.999 -0.553219 0.614718 0
M  V30 5940 H 578.545 -0.467003 1.63148 0
M  V30 5941 H 577.317 -1.39232 3.65691 0
M  V30 5942 H 576.94 -2.85716 2.76499 0
M  V30 5943 N 577.937 -1.40673 -0.710563 0
M  V30 5944 C 579.167 -1.4234 -1.49742 0
M  V30 5945 C 579.575 -0.022821 -1.89186 0
M  V30 5946 O 578.918 0.964773 -1.56326 0
M  V30 5947 C 578.98 -2.25509 -2.79975 0
M  V30 5948 C 578.644 -3.73862 -2.62824 0
M  V30 5949 C 579.641 -4.66379 -2.29752 0
M  V30 5950 C 577.326 -4.17735 -2.78932 0
M  V30 5951 C 579.32 -6.00756 -2.13006 0
M  V30 5952 C 577.007 -5.5218 -2.61802 0
M  V30 5953 C 578.005 -6.43505 -2.28888 0
M  V30 5954 O 577.693 -7.75472 -2.11894 0
M  V30 5955 H 577.425 -0.487311 -0.468513 0
M  V30 5956 H 579.979 -1.8542 -0.883668 0
M  V30 5957 H 578.209 -1.77218 -3.43701 0
M  V30 5958 H 579.898 -2.19058 -3.41714 0
M  V30 5959 H 580.664 -4.33778 -2.16936 0
M  V30 5960 H 576.543 -3.46967 -3.03537 0
M  V30 5961 H 580.087 -6.72003 -1.87237 0
M  V30 5962 H 575.984 -5.84365 -2.74204 0
M  V30 5963 H 576.752 -7.86458 -2.26775 0
M  V30 5964 N 579.415 0.9433 -1.26252 0
M  V30 5965 C 580.661 1.69226 -1.12846 0
M  V30 5966 C 581.016 1.8963 0.325282 0
M  V30 5967 O 580.309 1.46435 1.23561 0
M  V30 5968 C 580.503 3.07073 -1.82868 0
M  V30 5969 C 580.332 3.00118 -3.34902 0
M  V30 5970 C 579.102 3.03251 -4.04186 0
M  V30 5971 C 581.3 2.80418 -4.31127 0
M  V30 5972 N 579.282 2.86573 -5.42908 0
M  V30 5973 C 580.653 2.72287 -5.5701 0
M  V30 5974 C 582.708 2.65185 -4.21404 0
M  V30 5975 C 581.411 2.50479 -6.74279 0
M  V30 5976 C 583.437 2.4475 -5.38378 0
M  V30 5977 C 582.799 2.37349 -6.63208 0
M  V30 5978 H 578.898 0.626716 -0.467708 0
M  V30 5979 H 581.482 1.11645 -1.5951 0
M  V30 5980 H 579.653 3.62797 -1.38682 0
M  V30 5981 H 581.385 3.70816 -1.62103 0
M  V30 5982 H 578.14 3.12882 -3.55531 0
M  V30 5983 H 578.564 2.81408 -6.15742 0
M  V30 5984 H 583.206 2.69675 -3.25631 0
M  V30 5985 H 580.924 2.4473 -7.70151 0
M  V30 5986 H 584.51 2.33872 -5.32724 0
M  V30 5987 H 583.39 2.21746 -7.52196 0
M  V30 5988 N 580.893 1.08022 1.14757 0
M  V30 5989 C 582.123 0.827646 1.89298 0
M  V30 5990 C 582.531 -0.623506 1.78631 0
M  V30 5991 O 581.874 -1.43991 1.14071 0
M  V30 5992 C 581.936 1.16553 3.40082 0
M  V30 5993 C 581.6 2.61866 3.74533 0
M  V30 5994 C 582.597 3.60116 3.74984 0
M  V30 5995 C 580.282 2.97619 4.04633 0
M  V30 5996 C 582.276 4.92151 4.05051 0
M  V30 5997 C 579.963 4.2985 4.34364 0
M  V30 5998 C 580.961 5.26926 4.34555 0
M  V30 5999 O 580.649 6.5678 4.63568 0
M  V30 6000 H 580.381 0.298396 0.606577 0
M  V30 6001 H 582.935 1.44187 1.46285 0
M  V30 6002 H 581.165 0.494296 3.83528 0
M  V30 6003 H 582.854 0.894407 3.95923 0
M  V30 6004 H 583.62 3.33837 3.51821 0
M  V30 6005 H 579.499 2.22702 4.03639 0
M  V30 6006 H 583.043 5.67915 4.05115 0
M  V30 6007 H 578.94 4.55879 4.56995 0
M  V30 6008 H 579.708 6.62035 4.81303 0
M  V30 6009 N 582.371 -1.3172 0.865308 0
M  V30 6010 C 583.281 -2.32394 0.320935 0
M  V30 6011 C 584.297 -1.64511 -0.566746 0
M  V30 6012 O 585.473 -1.95969 -0.464575 0
M  V30 6013 C 582.538 -3.43462 -0.472701 0
M  V30 6014 C 581.599 -4.27015 0.442385 0
M  V30 6015 C 580.832 -5.32779 -0.313469 0
M  V30 6016 O 581.055 -5.49158 -1.54214 0
M  V30 6017 O 579.989 -6.01015 0.326257 0
M  V30 6018 H 583.815 -2.80868 1.15528 0
M  V30 6019 H 581.4 -1.35535 0.628545 0
M  V30 6020 H 583.282 -4.11172 -0.922781 0
M  V30 6021 H 581.957 -2.97159 -1.28367 0
M  V30 6022 H 580.864 -3.62075 0.940866 0
M  V30 6023 H 582.197 -4.76871 1.21882 0
M  V30 6024 N 583.85 -0.624285 -1.44708 0
M  V30 6025 C 585.077 -0.132919 -2.06473 0
M  V30 6026 C 585.493 1.18967 -1.46602 0
M  V30 6027 O 584.85 1.72824 -0.586341 0
M  V30 6028 C 584.901 -0.00465418 -3.615 0
M  V30 6029 O 584.622 -1.27494 -4.19138 0
M  V30 6030 C 586.123 0.516213 -4.40284 0
M  V30 6031 H 583.343 -0.0765201 -0.666623 0
M  V30 6032 H 585.887 -0.856751 -1.85688 0
M  V30 6033 H 584.042 0.669583 -3.8157 0
M  V30 6034 H 584.456 -1.11536 -5.12504 0
M  V30 6035 H 585.93 0.554994 -5.49203 0
M  V30 6036 H 586.407 1.5419 -4.11245 0
M  V30 6037 H 587.013 -0.124542 -4.25118 0
M  V30 6038 N 585.328 1.53329 -0.364422 0
M  V30 6039 C 586.553 2.06132 0.229033 0
M  V30 6040 C 586.978 1.23625 1.41769 0
M  V30 6041 O 586.336 0.255038 1.79497 0
M  V30 6042 C 586.384 3.55544 0.60174 0
M  V30 6043 O 585.488 3.75771 1.69912 0
M  V30 6044 H 584.829 0.663148 0.0336213 0
M  V30 6045 H 587.359 1.97758 -0.524689 0
M  V30 6046 H 587.369 3.98549 0.873073 0
M  V30 6047 H 586.044 4.15039 -0.267421 0
M  V30 6048 H 584.621 3.44663 1.42343 0
M  V30 6049 N 586.806 0.0935595 1.57322 0
M  V30 6050 C 588.053 -0.570509 1.94297 0
M  V30 6051 C 588.381 -1.68286 0.97519 0
M  V30 6052 O 587.636 -1.95699 -0.00548655 0
M  V30 6053 C 587.935 -1.16692 3.37813 0
M  V30 6054 C 587.601 -0.178509 4.50547 0
M  V30 6055 C 586.263 0.0933475 4.81109 0
M  V30 6056 C 588.615 0.496472 5.1883 0
M  V30 6057 C 585.943 1.0469 5.77284 0
M  V30 6058 C 588.295 1.43849 6.16028 0
M  V30 6059 C 586.959 1.71859 6.44997 0
M  V30 6060 H 586.229 -0.208764 0.710984 0
M  V30 6061 H 588.876 0.169066 1.90752 0
M  V30 6062 H 587.181 -1.98271 3.37929 0
M  V30 6063 H 588.878 -1.6884 3.63722 0
M  V30 6064 H 585.468 -0.400584 4.26724 0
M  V30 6065 H 589.652 0.299584 4.95395 0
M  V30 6066 H 584.908 1.27094 5.98044 0
M  V30 6067 H 589.082 1.96734 6.68034 0
M  V30 6068 H 586.709 2.45906 7.19329 0
M  V30 6069 N 588.284 -1.56567 -0.180126 0
M  V30 6070 C 589.53 -1.82658 -0.894859 0
M  V30 6071 C 589.885 -0.672826 -1.80252 0
M  V30 6072 O 589.178 0.331227 -1.88715 0
M  V30 6073 C 589.372 -3.1252 -1.73395 0
M  V30 6074 C 589.201 -4.40417 -0.909028 0
M  V30 6075 C 587.971 -5.01872 -0.587562 0
M  V30 6076 C 590.169 -5.13669 -0.254698 0
M  V30 6077 N 588.151 -6.13373 0.254428 0
M  V30 6078 C 589.522 -6.18373 0.448837 0
M  V30 6079 C 591.577 -4.97603 -0.171958 0
M  V30 6080 C 590.28 -7.08753 1.22725 0
M  V30 6081 C 592.306 -5.88418 0.593101 0
M  V30 6082 C 591.668 -6.92579 1.28503 0
M  V30 6083 H 587.767 -0.719493 -0.306356 0
M  V30 6084 H 590.351 -1.94021 -0.16247 0
M  V30 6085 H 588.522 -3.02365 -2.43783 0
M  V30 6086 H 590.254 -3.2664 -2.38931 0
M  V30 6087 H 587.009 -4.64666 -0.915557 0
M  V30 6088 H 587.433 -6.73721 0.665474 0
M  V30 6089 H 592.075 -4.17089 -0.692555 0
M  V30 6090 H 589.793 -7.88718 1.75923 0
M  V30 6091 H 593.379 -5.78059 0.658674 0
M  V30 6092 H 592.259 -7.61638 1.86754 0
M  V30 6093 N 589.762 0.448376 -1.51087 0
M  V30 6094 C 590.692 1.55102 -1.74544 0
M  V30 6095 C 591.673 1.59357 -0.594932 0
M  V30 6096 O 592.858 1.75261 -0.836491 0
M  V30 6097 C 589.988 2.93268 -1.86041 0
M  V30 6098 C 588.942 3.03877 -3.01402 0
M  V30 6099 C 588.268 4.43914 -2.98068 0
M  V30 6100 C 589.568 2.7898 -4.41551 0
M  V30 6101 H 591.262 1.35724 -2.66869 0
M  V30 6102 H 588.808 0.651498 -1.28419 0
M  V30 6103 H 590.761 3.70356 -2.01034 0
M  V30 6104 H 589.485 3.13853 -0.903548 0
M  V30 6105 H 588.144 2.29227 -2.86096 0
M  V30 6106 H 587.792 4.6145 -2.00182 0
M  V30 6107 H 587.492 4.51944 -3.75527 0
M  V30 6108 H 589.016 5.22991 -3.1514 0
M  V30 6109 H 590.43 3.45805 -4.57265 0
M  V30 6110 H 588.827 2.98431 -5.20633 0
M  V30 6111 H 589.897 1.74663 -4.5235 0
M  V30 6112 N 591.24 1.41047 0.703093 0
M  V30 6113 C 592.17 1.45067 1.82969 0
M  V30 6114 C 593.151 0.31016 1.67248 0
M  V30 6115 O 594.336 0.520548 1.87093 0
M  V30 6116 C 591.466 1.32478 3.2104 0
M  V30 6117 C 590.42 2.44262 3.51454 0
M  V30 6118 C 589.746 2.16742 4.88801 0
M  V30 6119 C 591.046 3.86606 3.51189 0
M  V30 6120 H 592.74 2.39353 1.79863 0
M  V30 6121 H 590.286 1.15206 0.863919 0
M  V30 6122 H 592.239 1.33904 3.99559 0
M  V30 6123 H 590.963 0.346735 3.24754 0
M  V30 6124 H 589.622 2.42107 2.75282 0
M  V30 6125 H 589.27 1.17299 4.89132 0
M  V30 6126 H 588.97 2.91643 5.10116 0
M  V30 6127 H 590.494 2.19872 5.69639 0
M  V30 6128 H 591.908 3.90517 4.19725 0
M  V30 6129 H 590.305 4.61128 3.84033 0
M  V30 6130 H 591.375 4.15296 2.50315 0
M  V30 6131 N 592.718 -0.936591 1.26751 0
M  V30 6132 C 593.964 -1.68625 1.13741 0
M  V30 6133 C 594.319 -1.898 -0.315221 0
M  V30 6134 O 593.612 -1.47088 -1.22783 0
M  V30 6135 C 593.806 -3.06099 1.84494 0
M  V30 6136 C 593.635 -2.98338 3.36488 0
M  V30 6137 C 592.405 -3.01104 4.05789 0
M  V30 6138 C 594.603 -2.78128 4.32608 0
M  V30 6139 N 592.585 -2.8369 5.4442 0
M  V30 6140 C 593.956 -2.69329 5.58446 0
M  V30 6141 C 596.011 -2.62946 4.22804 0
M  V30 6142 C 594.714 -2.46899 6.75598 0
M  V30 6143 C 596.74 -2.41892 5.39669 0
M  V30 6144 C 596.102 -2.33829 6.64457 0
M  V30 6145 H 592.201 -0.624227 0.471025 0
M  V30 6146 H 594.785 -1.10798 1.601 0
M  V30 6147 H 592.956 -3.62057 1.40604 0
M  V30 6148 H 594.688 -3.69951 1.64067 0
M  V30 6149 H 591.443 -3.10992 3.57185 0
M  V30 6150 H 591.867 -2.78138 6.17226 0
M  V30 6151 H 596.509 -2.67944 3.27056 0
M  V30 6152 H 594.227 -2.40642 7.71438 0
M  V30 6153 H 597.813 -2.31043 5.33957 0
M  V30 6154 H 596.693 -2.17754 7.53361 0
M  V30 6155 N 594.196 -1.08629 -1.14182 0
M  V30 6156 C 595.159 -0.722027 -2.1753 0
M  V30 6157 C 596.159 0.244305 -1.58933 0
M  V30 6158 O 597.349 0.0235545 -1.74184 0
M  V30 6159 C 594.481 -0.0663966 -3.40835 0
M  V30 6160 H 595.674 -1.63719 -2.51269 0
M  V30 6161 H 593.227 -0.884442 -1.28869 0
M  V30 6162 H 593.962 0.860389 -3.12678 0
M  V30 6163 H 593.747 -0.761598 -3.84632 0
M  V30 6164 H 595.237 0.173346 -4.1724 0
M  V30 6165 N 595.674 1.31259 -0.872281 0
M  V30 6166 C 596.622 2.30404 -0.318897 0
M  V30 6167 C 597.616 1.5962 0.567267 0
M  V30 6168 O 598.822 1.74204 0.453111 0
M  V30 6169 H 595.197 0.747243 -0.0844474 0
M  V30 6170 H 597.168 2.74549 -1.16899 0
M  V30 6171 C 595.917 3.44608 0.462683 0
M  V30 6172 H 595.24 3.99248 -0.209936 0
M  V30 6173 H 596.68 4.1609 0.815187 0
M  V30 6174 C 595.139 2.93456 1.65485 0
M  V30 6175 O 595.669 2.92418 2.75417 0
M  V30 6176 N 593.875 2.49628 1.48776 0
M  V30 6177 H 593.422 2.50671 0.593452 0
M  V30 6178 H 593.38 2.15759 2.28682 0
M  V30 6179 N 597.152 0.631951 1.44375 0
M  V30 6180 C 598.377 0.142146 2.06912 0
M  V30 6181 C 598.802 -1.17456 1.4692 0
M  V30 6182 O 598.16 -1.72074 0.570975 0
M  V30 6183 C 598.208 0.0417952 3.60576 0
M  V30 6184 O 597.312 -1.00194 4.00044 0
M  V30 6185 H 596.653 0.0851491 0.658518 0
M  V30 6186 H 599.183 0.868863 1.85235 0
M  V30 6187 H 599.193 -0.148517 4.0773 0
M  V30 6188 H 597.868 1.0031 4.03622 0
M  V30 6189 H 596.445 -0.786131 3.64519 0
M  V30 6190 N 598.631 -1.53133 0.372548 0
M  V30 6191 C 599.594 -2.24569 -0.458389 0
M  V30 6192 C 600.594 -1.25603 -1.00402 0
M  V30 6193 O 601.784 -1.49827 -0.888672 0
M  V30 6194 C 598.916 -2.98783 -1.6414 0
M  V30 6195 H 600.109 -2.99436 0.166799 0
M  V30 6196 H 597.662 -1.55805 0.124357 0
M  V30 6197 H 598.397 -2.28176 -2.30448 0
M  V30 6198 H 598.182 -3.71404 -1.25704 0
M  V30 6199 H 599.672 -3.53068 -2.23008 0
M  V30 6200 N 600.109 -0.101901 -1.5727 0
M  V30 6201 C 601.355 0.561027 -1.94885 0
M  V30 6202 C 601.688 1.6741 -0.984258 0
M  V30 6203 O 600.963 1.94491 -0.0184767 0
M  V30 6204 C 601.246 1.10982 -3.42571 0
M  V30 6205 C 601.099 0.00133418 -4.498 0
M  V30 6206 C 602.418 2.00608 -3.9172 0
M  V30 6207 H 599.537 0.202467 -0.708644 0
M  V30 6208 H 602.179 -0.173992 -1.89202 0
M  V30 6209 H 600.329 1.73621 -3.47546 0
M  V30 6210 H 602.001 -0.63322 -4.56933 0
M  V30 6211 H 600.244 -0.664143 -4.28686 0
M  V30 6212 H 600.915 0.426253 -5.50352 0
M  V30 6213 H 603.391 1.47864 -3.88941 0
M  V30 6214 H 602.267 2.3593 -4.95609 0
M  V30 6215 H 602.528 2.92608 -3.3141 0
M  V30 6216 N 601.587 1.56661 0.17182 0
M  V30 6217 C 602.535 1.97289 1.23207 0
M  V30 6218 C 603.529 0.861566 1.45854 0
M  V30 6219 O 604.735 1.04668 1.4644 0
M  V30 6220 H 601.11 0.627681 0.41415 0
M  V30 6221 H 603.081 2.85662 0.862542 0
M  V30 6222 C 601.83 2.34849 2.564 0
M  V30 6223 H 601.153 3.19903 2.39797 0
M  V30 6224 H 602.593 2.67121 3.29276 0
M  V30 6225 C 601.052 1.19172 3.15119 0
M  V30 6226 O 601.582 0.479113 3.98833 0
M  V30 6227 N 599.788 0.962415 2.74201 0
M  V30 6228 H 599.335 1.54365 2.06226 0
M  V30 6229 H 599.293 0.190272 3.13824 0
M  V30 6230 N 603.065 -0.440357 1.51323 0
M  V30 6231 C 604.476 -1.02032 1.56353 0
M  V30 6232 C 604.827 -1.92382 0.385197 0
M  V30 6233 O 603.952 -2.10583 -0.498373 0
M  V30 6234 C 604.547 -1.85723 2.83359 0
M  V30 6235 C 603.106 -2.38774 2.90971 0
M  V30 6236 C 602.253 -1.17908 2.50984 0
M  V30 6237 H 605.204 -0.221744 1.57143 0
M  V30 6238 H 605.225 -2.71141 2.66951 0
M  V30 6239 H 604.737 -1.19939 3.69102 0
M  V30 6240 H 602.838 -3.08021 2.09651 0
M  V30 6241 H 602.951 -2.71778 3.94555 0
M  V30 6242 H 601.315 -1.52347 2.04114 0
M  V30 6243 H 602.098 -0.537393 3.39068 0
M  V30 6244 N 604.543 -1.41418 -0.695603 0
M  V30 6245 C 605.789 -1.40982 -1.4578 0
M  V30 6246 C 606.122 -0.0187763 -1.94191 0
M  V30 6247 O 605.397 0.95346 -1.69527 0
M  V30 6248 C 605.68 -2.41657 -2.66972 0
M  V30 6249 C 605.533 -3.89869 -2.24327 0
M  V30 6250 C 606.852 -2.39589 -3.69168 0
M  V30 6251 H 603.971 -0.513405 -0.528757 0
M  V30 6252 H 606.613 -1.72693 -0.792275 0
M  V30 6253 H 604.763 -2.14746 -3.23754 0
M  V30 6254 H 606.435 -4.27683 -1.72872 0
M  V30 6255 H 604.678 -4.04737 -1.56111 0
M  V30 6256 H 605.349 -4.55857 -3.11285 0
M  V30 6257 H 607.825 -2.63471 -3.2206 0
M  V30 6258 H 606.701 -3.12044 -4.51575 0
M  V30 6259 H 606.962 -1.41447 -4.18862 0
M  V30 6260 N 606.021 0.929856 -1.27246 0
M  V30 6261 C 606.951 2.04722 -1.12299 0
M  V30 6262 C 607.932 1.70082 -0.0250464 0
M  V30 6263 O 609.117 1.93176 -0.199141 0
M  V30 6264 C 606.247 3.38721 -0.767145 0
M  V30 6265 C 605.201 3.87466 -1.81808 0
M  V30 6266 C 604.527 5.18246 -1.31626 0
M  V30 6267 C 605.827 4.11095 -3.22177 0
M  V30 6268 H 607.521 2.17485 -2.05769 0
M  V30 6269 H 605.067 1.04503 -0.990715 0
M  V30 6270 H 607.02 4.16366 -0.649413 0
M  V30 6271 H 605.744 3.25967 0.203259 0
M  V30 6272 H 604.403 3.12012 -1.92468 0
M  V30 6273 H 604.051 5.01881 -0.335378 0
M  V30 6274 H 603.751 5.51829 -2.01887 0
M  V30 6275 H 605.275 5.98462 -1.21143 0
M  V30 6276 H 606.689 4.79316 -3.1453 0
M  V30 6277 H 605.086 4.55982 -3.90129 0
M  V30 6278 H 606.156 3.16468 -3.67391 0
M  V30 6279 N 607.499 1.09233 1.13605 0
M  V30 6280 C 608.729 0.847677 1.88409 0
M  V30 6281 C 609.137 -0.604524 1.79282 0
M  V30 6282 O 608.48 -1.42773 1.15592 0
M  V30 6283 C 608.542 1.20153 3.38827 0
M  V30 6284 C 608.206 2.65824 3.71735 0
M  V30 6285 C 609.203 3.64072 3.71143 0
M  V30 6286 C 606.888 3.01894 4.01454 0
M  V30 6287 C 608.882 4.96419 3.99808 0
M  V30 6288 C 606.569 4.34433 4.29781 0
M  V30 6289 C 607.567 5.31505 4.28942 0
M  V30 6290 O 607.255 6.61659 4.56576 0
M  V30 6291 H 606.987 0.304813 0.603378 0
M  V30 6292 H 609.541 1.4573 1.44748 0
M  V30 6293 H 607.771 0.534946 3.82982 0
M  V30 6294 H 609.46 0.936349 3.94952 0
M  V30 6295 H 610.226 3.37549 3.4826 0
M  V30 6296 H 606.105 2.26971 4.01255 0
M  V30 6297 H 609.649 5.7218 3.99069 0
M  V30 6298 H 605.546 4.607 4.52135 0
M  V30 6299 H 606.314 6.67102 4.74254 0
M  V30 6300 N 608.977 -1.30795 0.87923 0
M  V30 6301 C 610.388 -1.78535 0.546093 0
M  V30 6302 C 610.739 -1.72354 -0.937467 0
M  V30 6303 O 609.864 -1.2969 -1.73233 0
M  V30 6304 C 610.459 -3.24181 0.9845 0
M  V30 6305 C 609.018 -3.69779 0.702871 0
M  V30 6306 C 608.165 -2.51377 1.17068 0
M  V30 6307 H 611.116 -1.17746 1.06403 0
M  V30 6308 H 611.137 -3.79227 0.311045 0
M  V30 6309 H 610.649 -3.28647 2.06429 0
M  V30 6310 H 608.75 -3.70806 -0.365166 0
M  V30 6311 H 608.863 -4.61507 1.28639 0
M  V30 6312 H 607.227 -2.47768 0.590172 0
M  V30 6313 H 608.01 -2.58584 2.25808 0
M  V30 6314 N 610.455 -0.639598 -1.44038 0
M  V30 6315 C 611.385 0.0469443 -2.33453 0
M  V30 6316 C 612.366 0.82609 -1.48694 0
M  V30 6317 O 613.551 0.790285 -1.77393 0
M  V30 6318 C 610.681 1.02338 -3.3188 0
M  V30 6319 C 609.635 0.355284 -4.26523 0
M  V30 6320 C 608.961 1.44221 -5.14883 0
M  V30 6321 C 610.261 -0.743798 -5.16977 0
M  V30 6322 H 611.955 -0.699735 -2.91108 0
M  V30 6323 H 609.501 -0.337946 -1.39978 0
M  V30 6324 H 611.454 1.51247 -3.93322 0
M  V30 6325 H 610.178 1.80105 -2.72451 0
M  V30 6326 H 608.837 -0.113239 -3.66425 0
M  V30 6327 H 608.485 2.21097 -4.51802 0
M  V30 6328 H 608.185 1.00052 -5.79019 0
M  V30 6329 H 609.709 1.93295 -5.79197 0
M  V30 6330 H 611.123 -0.337444 -5.72306 0
M  V30 6331 H 609.52 -1.10914 -5.89761 0
M  V30 6332 H 610.59 -1.60745 -4.57481 0
M  V30 6333 N 611.933 1.52934 -0.380664 0
M  V30 6334 C 613.173 2.03378 0.204161 0
M  V30 6335 C 613.537 1.26132 1.44758 0
M  V30 6336 O 614.738 1.66657 2.109 0
M  V30 6337 C 613.009 3.54241 0.474118 0
M  V30 6338 S 614.568 4.26529 1.03046 0
M  V30 6339 H 611.386 0.708608 0.0582719 0
M  V30 6340 H 613.988 1.88263 -0.527017 0
M  V30 6341 H 612.692 4.08055 -0.438088 0
M  V30 6342 H 612.223 3.73547 1.23396 0
M  V30 6343 H 614.238 4.38964 2.31354 0
M  V30 6344 N 613.412 0.11024 1.57214 0
M  V30 6345 C 614.362 -0.854147 2.11396 0
M  V30 6346 C 615.346 -1.23394 1.03261 0
M  V30 6347 O 616.538 -1.20649 1.2951 0
M  V30 6348 C 613.667 -2.10752 2.70995 0
M  V30 6349 C 612.753 -1.75249 3.86198 0
M  V30 6350 N 613.144 -1.10377 4.9361 0
M  V30 6351 C 611.442 -2.04763 3.96217 0
M  V30 6352 C 612.143 -0.938199 5.74084 0
M  V30 6353 N 611.119 -1.46039 5.23616 0
M  V30 6354 H 614.921 -0.348897 2.91822 0
M  V30 6355 H 612.435 -0.0925071 1.62136 0
M  V30 6356 H 614.432 -2.80801 3.0815 0
M  V30 6357 H 613.092 -2.61829 1.9203 0
M  V30 6358 H 614.103 -0.768785 5.12162 0
M  V30 6359 H 610.78 -2.57948 3.28282 0
M  V30 6360 H 612.17 -0.429678 6.70525 0
M  V30 6361 N 614.89 -1.56749 -0.16351 0
M  V30 6362 C 615.84 -1.93424 -1.20712 0
M  V30 6363 C 616.824 -0.803469 -1.39403 0
M  V30 6364 O 618.016 -1.06675 -1.41243 0
M  V30 6365 C 615.145 -2.30431 -2.54473 0
M  V30 6366 C 614.231 -3.5004 -2.39443 0
M  V30 6367 N 614.622 -4.67058 -1.9414 0
M  V30 6368 C 612.92 -3.548 -2.70246 0
M  V30 6369 C 613.621 -5.49184 -1.9176 0
M  V30 6370 N 612.597 -4.9044 -2.34457 0
M  V30 6371 H 616.399 -2.8138 -0.848681 0
M  V30 6372 H 613.913 -1.58089 -0.371717 0
M  V30 6373 H 615.91 -2.54903 -3.29894 0
M  V30 6374 H 614.57 -1.43818 -2.91112 0
M  V30 6375 H 615.581 -4.91128 -1.64357 0
M  V30 6376 H 612.258 -2.78685 -3.10871 0
M  V30 6377 H 613.648 -6.5297 -1.58366 0
M  V30 6378 N 616.368 0.432326 -1.51554 0
M  V30 6379 C 617.593 1.20824 -1.68571 0
M  V30 6380 C 618.018 1.84126 -0.384596 0
M  V30 6381 O 617.376 1.69025 0.655751 0
M  V30 6382 C 617.424 2.26429 -2.80646 0
M  V30 6383 O 616.528 3.32032 -2.44598 0
M  V30 6384 H 615.869 0.353765 -0.561913 0
M  V30 6385 H 618.399 0.509916 -1.98144 0
M  V30 6386 H 618.409 2.71133 -3.04878 0
M  V30 6387 H 617.084 1.79733 -3.75058 0
M  V30 6388 H 615.661 2.92769 -2.30956 0
M  V30 6389 N 617.846 1.41785 0.688094 0
M  V30 6390 C 619.093 1.41544 1.44816 0
M  V30 6391 C 619.421 0.0271746 1.94481 0
M  V30 6392 O 618.676 -0.962235 1.7041 0
M  V30 6393 C 618.975 2.37532 2.67046 0
M  V30 6394 C 618.641 3.84209 2.35996 0
M  V30 6395 C 617.303 4.24165 2.27239 0
M  V30 6396 C 619.655 4.76785 2.10536 0
M  V30 6397 C 616.983 5.54695 1.91128 0
M  V30 6398 C 619.335 6.07644 1.75931 0
M  V30 6399 C 617.999 6.46613 1.65675 0
M  V30 6400 H 617.269 0.517945 0.529919 0
M  V30 6401 H 619.916 1.74635 0.785797 0
M  V30 6402 H 618.221 1.9772 3.38251 0
M  V30 6403 H 619.918 2.34615 3.25203 0
M  V30 6404 H 616.508 3.52567 2.4371 0
M  V30 6405 H 620.692 4.46714 2.16242 0
M  V30 6406 H 615.948 5.83762 1.81746 0
M  V30 6407 H 620.122 6.78874 1.55252 0
M  V30 6408 H 617.749 7.47668 1.37463 0
M  V30 6409 N 619.324 -0.923095 1.27737 0
M  V30 6410 C 620.74 -1.19985 1.05241 0
M  V30 6411 C 620.94 -2.00391 -0.21113 0
M  V30 6412 O 619.996 -2.35324 -0.915366 0
M  V30 6413 C 621.309 -1.94352 2.29451 0
M  V30 6414 C 622.857 -2.07273 2.34536 0
M  V30 6415 C 623.332 -2.85046 3.58487 0
M  V30 6416 N 624.823 -2.92612 3.59072 0
M  V30 6417 C 625.558 -3.53266 4.51654 0
M  V30 6418 N 625.054 -4.15274 5.54545 0
M  V30 6419 N 626.847 -3.50714 4.39268 0
M  V30 6420 H 618.998 -0.386042 2.08862 0
M  V30 6421 H 621.261 -0.233407 0.918817 0
M  V30 6422 H 620.967 -1.42692 3.21453 0
M  V30 6423 H 620.841 -2.94947 2.3513 0
M  V30 6424 H 623.228 -2.58117 1.43037 0
M  V30 6425 H 623.309 -1.05884 2.32857 0
M  V30 6426 H 622.953 -2.34884 4.50324 0
M  V30 6427 H 622.883 -3.8673 3.57418 0
M  V30 6428 H 625.374 -2.48547 2.84663 0
M  V30 6429 H 625.687 -4.59507 6.21348 0
M  V30 6430 H 624.032 -4.13806 5.58382 0
M  V30 6431 H 627.223 -3.01475 3.58093 0
M  V30 6432 H 627.396 -3.97693 5.1161 0
M  V30 6433 N 620.802 -1.09834 -1.13024 0
M  V30 6434 C 622.218 -0.828875 -1.36388 0
M  V30 6435 C 622.418 0.554756 -1.93713 0
M  V30 6436 O 621.474 1.30882 -2.15931 0
M  V30 6437 C 622.787 -1.92352 -2.3113 0
M  V30 6438 C 624.335 -1.95124 -2.44735 0
M  V30 6439 C 624.81 -3.03745 -3.42787 0
M  V30 6440 N 626.301 -3.03012 -3.5034 0
M  V30 6441 C 627.036 -3.83699 -4.26101 0
M  V30 6442 N 626.532 -4.74306 -5.04981 0
M  V30 6443 N 628.325 -3.71942 -4.21445 0
M  V30 6444 H 620.476 -1.99029 -0.74169 0
M  V30 6445 H 622.739 -0.864557 -0.388903 0
M  V30 6446 H 622.445 -2.91906 -1.96172 0
M  V30 6447 H 622.319 -1.80536 -3.3119 0
M  V30 6448 H 624.706 -0.962069 -2.78977 0
M  V30 6449 H 624.787 -2.11018 -1.44586 0
M  V30 6450 H 624.431 -4.02878 -3.09276 0
M  V30 6451 H 624.361 -2.85094 -4.42752 0
M  V30 6452 H 626.852 -2.37352 -2.94062 0
M  V30 6453 H 627.165 -5.32446 -5.60108 0
M  V30 6454 H 625.51 -4.78339 -5.04199 0
M  V30 6455 H 628.701 -3.00513 -3.589 0
M  V30 6456 H 628.874 -4.35062 -4.80235 0
M  V30 6457 N 622.28 1.30327 -0.886154 0
M  V30 6458 C 623.243 2.26376 -0.358687 0
M  V30 6459 C 624.243 1.52845 0.499498 0
M  V30 6460 O 625.433 1.71483 0.306485 0
M  V30 6461 C 622.565 3.37379 0.488726 0
M  V30 6462 H 623.758 2.74547 -1.20681 0
M  V30 6463 H 621.311 1.41536 -0.663113 0
M  V30 6464 H 622.046 2.94526 1.35739 0
M  V30 6465 H 621.831 3.91897 -0.126003 0
M  V30 6466 H 623.321 4.08868 0.84952 0
M  V30 6467 N 623.758 0.647228 1.43697 0
M  V30 6468 C 625.005 0.158188 2.01881 0
M  V30 6469 C 625.333 -1.22573 1.51017 0
M  V30 6470 O 624.588 -1.83086 0.69122 0
M  V30 6471 C 624.887 0.111481 3.57226 0
M  V30 6472 C 624.553 1.43633 4.27411 0
M  V30 6473 C 623.215 1.79915 4.463 0
M  V30 6474 C 625.567 2.31011 4.67208 0
M  V30 6475 C 622.895 3.03251 5.02251 0
M  V30 6476 C 625.247 3.53633 5.24525 0
M  V30 6477 C 623.911 3.90118 5.41631 0
M  V30 6478 H 623.181 0.0578851 0.738736 0
M  V30 6479 H 625.828 0.836746 1.72252 0
M  V30 6480 H 624.133 -0.650507 3.86362 0
M  V30 6481 H 625.83 -0.283682 3.99995 0
M  V30 6482 H 622.42 1.14403 4.1305 0
M  V30 6483 H 626.604 2.04272 4.52313 0
M  V30 6484 H 621.86 3.31575 5.13681 0
M  V30 6485 H 626.034 4.21561 5.5431 0
M  V30 6486 H 623.661 4.85768 5.84751 0
M  V30 6487 N 625.236 -1.5273 0.388769 0
M  V30 6488 C 626.464 -2.05992 -0.193677 0
M  V30 6489 C 626.879 -1.26053 -1.40557 0
M  V30 6490 O 626.236 -0.307049 -1.79898 0
M  V30 6491 C 626.287 -3.57068 -0.564321 0
M  V30 6492 O 626.008 -4.3398 0.599422 0
M  V30 6493 C 627.509 -4.26674 -1.20269 0
M  V30 6494 H 624.729 -0.670358 -0.0293445 0
M  V30 6495 H 627.273 -1.96857 0.553844 0
M  V30 6496 H 625.428 -3.66277 -1.26174 0
M  V30 6497 H 625.842 -5.2367 0.294895 0
M  V30 6498 H 627.316 -5.33625 -1.4124 0
M  V30 6499 H 627.793 -3.81854 -2.16989 0
M  V30 6500 H 628.399 -4.2178 -0.546047 0
M  V30 6501 N 626.714 -0.118576 -1.57153 0
M  V30 6502 C 627.661 0.831789 -2.1529 0
M  V30 6503 C 628.631 1.26385 -1.07778 0
M  V30 6504 O 629.816 1.34144 -1.35684 0
M  V30 6505 C 626.956 2.07664 -2.75626 0
M  V30 6506 C 626.069 1.69298 -3.97444 0
M  V30 6507 C 625.204 2.88747 -4.45868 0
M  V30 6508 C 624.243 2.46619 -5.60219 0
M  V30 6509 N 623.38 3.5898 -6.03389 0
M  V30 6510 H 628.22 0.329183 -2.96176 0
M  V30 6511 H 625.757 0.150792 -1.46325 0
M  V30 6512 H 627.715 2.80601 -3.08738 0
M  V30 6513 H 626.345 2.55384 -1.97431 0
M  V30 6514 H 625.397 0.862374 -3.70496 0
M  V30 6515 H 626.709 1.34338 -4.80369 0
M  V30 6516 H 625.863 3.69909 -4.80887 0
M  V30 6517 H 624.602 3.26933 -3.61892 0
M  V30 6518 H 623.607 1.63889 -5.24805 0
M  V30 6519 H 624.832 2.0955 -6.45961 0
M  V30 6520 H 622.778 3.9684 -5.22354 0
M  V30 6521 H 622.695 3.27942 -6.81168 0
M  V30 6522 H 623.963 4.40583 -6.43045 0
M  V30 6523 N 628.193 1.56834 0.155195 0
M  V30 6524 C 629.123 2.00678 1.19376 0
M  V30 6525 C 630.104 0.884973 1.45266 0
M  V30 6526 O 631.289 1.1522 1.56326 0
M  V30 6527 C 628.419 2.38042 2.5289 0
M  V30 6528 C 627.373 3.53332 2.41538 0
M  V30 6529 C 626.699 3.76485 3.79688 0
M  V30 6530 C 627.999 4.86265 1.9064 0
M  V30 6531 H 629.693 2.87688 0.829232 0
M  V30 6532 H 627.239 1.38407 0.397445 0
M  V30 6533 H 629.192 2.67314 3.25763 0
M  V30 6534 H 627.916 1.4796 2.91162 0
M  V30 6535 H 626.575 3.24213 1.71117 0
M  V30 6536 H 626.223 2.83667 4.15382 0
M  V30 6537 H 625.923 4.54068 3.72956 0
M  V30 6538 H 627.447 4.08174 4.54122 0
M  V30 6539 H 628.861 5.14308 2.53299 0
M  V30 6540 H 627.258 5.67597 1.94818 0
M  V30 6541 H 628.328 4.77184 0.861596 0
M  V30 6542 N 629.671 -0.424282 1.51781 0
M  V30 6543 C 630.601 -1.52305 1.7699 0
M  V30 6544 C 631.582 -1.5839 0.620209 0
M  V30 6545 O 632.767 -1.73908 0.864268 0
M  V30 6546 C 629.897 -2.90271 1.90683 0
M  V30 6547 C 628.851 -2.99043 3.06198 0
M  V30 6548 C 628.177 -4.39116 3.05092 0
M  V30 6549 C 629.477 -2.7192 4.45934 0
M  V30 6550 H 631.171 -1.31461 2.68995 0
M  V30 6551 H 628.717 -0.630985 1.29439 0
M  V30 6552 H 630.67 -3.6711 2.06901 0
M  V30 6553 H 629.394 -3.12376 0.953365 0
M  V30 6554 H 628.053 -2.24646 2.89706 0
M  V30 6555 H 627.701 -4.58207 2.07498 0
M  V30 6556 H 627.401 -4.45912 3.82669 0
M  V30 6557 H 628.925 -5.17911 3.2342 0
M  V30 6558 H 630.339 -3.38487 4.62709 0
M  V30 6559 H 628.736 -2.90111 5.25315 0
M  V30 6560 H 629.806 -1.67445 4.55072 0
M  V30 6561 N 631.149 -1.42148 -0.680565 0
M  V30 6562 C 632.389 -1.4379 -1.45271 0
M  V30 6563 C 632.753 -0.0504426 -1.91934 0
M  V30 6564 O 633.954 0.0583916 -2.68737 0
M  V30 6565 C 632.225 -2.42904 -2.62168 0
M  V30 6566 S 633.784 -2.63201 -3.51099 0
M  V30 6567 H 630.602 -0.509185 -0.496237 0
M  V30 6568 H 633.204 -1.78706 -0.792744 0
M  V30 6569 H 631.908 -3.4249 -2.26116 0
M  V30 6570 H 631.439 -2.09394 -3.33043 0
M  V30 6571 H 633.454 -1.91068 -4.57938 0
M  V30 6572 N 632.627 0.916307 -1.28225 0
M  V30 6573 C 634.038 1.48024 -1.13779 0
M  V30 6574 C 634.389 1.94289 0.273139 0
M  V30 6575 O 633.514 1.82226 1.16716 0
M  V30 6576 C 634.109 2.69029 -2.05935 0
M  V30 6577 C 632.668 3.2161 -1.95561 0
M  V30 6578 C 631.815 1.94321 -1.97825 0
M  V30 6579 H 634.766 0.729272 -1.40951 0
M  V30 6580 H 634.787 3.44204 -1.62184 0
M  V30 6581 H 634.299 2.35325 -3.08616 0
M  V30 6582 H 632.4 3.60045 -0.959076 0
M  V30 6583 H 632.513 3.87032 -2.82388 0
M  V30 6584 H 630.877 2.1131 -1.42198 0
M  V30 6585 H 631.66 1.62917 -3.0218 0
M  V30 6586 N 634.105 1.10431 1.1244 0
M  V30 6587 C 635.037 0.710945 2.17895 0
M  V30 6588 C 636.05 -0.252315 1.60833 0
M  V30 6589 O 637.239 -0.03679 1.78462 0
M  V30 6590 C 634.339 0.0284262 3.38888 0
M  V30 6591 C 633.512 1.01585 4.2544 0
M  V30 6592 C 632.571 0.364826 5.24934 0
M  V30 6593 O 631.597 1.01561 5.60066 0
M  V30 6594 N 632.799 -0.87674 5.73841 0
M  V30 6595 H 635.564 1.61826 2.52255 0
M  V30 6596 H 633.125 0.993132 1.27861 0
M  V30 6597 H 635.117 -0.418568 4.0253 0
M  V30 6598 H 633.687 -0.781294 3.02679 0
M  V30 6599 H 632.907 1.64111 3.58415 0
M  V30 6600 H 634.195 1.68425 4.80115 0
M  V30 6601 H 633.593 -1.42483 5.47462 0
M  V30 6602 H 632.15 -1.26688 6.39369 0
M  V30 6603 N 635.583 -1.29855 0.893053 0
M  V30 6604 C 636.53 -2.27909 0.364161 0
M  V30 6605 C 637.5 -1.56726 -0.550093 0
M  V30 6606 O 638.685 -1.84747 -0.47677 0
M  V30 6607 C 635.825 -3.42678 -0.408178 0
M  V30 6608 C 634.938 -4.28659 0.536212 0
M  V30 6609 C 634.073 -5.30599 -0.252521 0
M  V30 6610 C 633.112 -6.08234 0.686822 0
M  V30 6611 N 632.249 -7.02068 -0.0670902 0
M  V30 6612 H 637.089 -2.72531 1.20544 0
M  V30 6613 H 634.626 -1.34047 0.605779 0
M  V30 6614 H 636.584 -4.07986 -0.871962 0
M  V30 6615 H 635.214 -2.99103 -1.21397 0
M  V30 6616 H 634.266 -3.63584 1.1185 0
M  V30 6617 H 635.578 -4.8274 1.25552 0
M  V30 6618 H 634.732 -6.01694 -0.777801 0
M  V30 6619 H 633.471 -4.77233 -1.005 0
M  V30 6620 H 632.476 -5.3601 1.22366 0
M  V30 6621 H 633.701 -6.63689 1.43852 0
M  V30 6622 H 631.647 -6.5108 -0.801955 0
M  V30 6623 H 631.564 -7.53675 0.59243 0
M  V30 6624 H 632.832 -7.77392 -0.572851 0
M  V30 6625 N 637.061 -0.65484 -1.43351 0
M  V30 6626 C 637.991 0.0221809 -2.33489 0
M  V30 6627 C 638.972 0.810272 -1.49561 0
M  V30 6628 O 640.157 0.771426 -1.78221 0
M  V30 6629 C 637.287 0.988117 -3.32947 0
M  V30 6630 C 636.241 0.310026 -4.26876 0
M  V30 6631 C 635.567 1.38752 -5.16384 0
M  V30 6632 C 636.867 -0.798589 -5.16159 0
M  V30 6633 H 638.561 -0.730571 -2.9035 0
M  V30 6634 H 636.107 -0.352773 -1.39612 0
M  V30 6635 H 638.06 1.47067 -3.94904 0
M  V30 6636 H 636.784 1.77205 -2.74346 0
M  V30 6637 H 635.443 -0.152097 -3.66284 0
M  V30 6638 H 635.091 2.16293 -4.54121 0
M  V30 6639 H 634.791 0.939051 -5.80048 0
M  V30 6640 H 636.315 1.87141 -5.81215 0
M  V30 6641 H 637.729 -0.398126 -5.71916 0
M  V30 6642 H 636.126 -1.17163 -5.88552 0
M  V30 6643 H 637.196 -1.65588 -4.55751 0
M  V30 6644 N 638.539 1.52521 -0.396863 0
M  V30 6645 C 639.486 2.26671 0.434624 0
M  V30 6646 C 640.456 1.28584 1.05144 0
M  V30 6647 O 641.641 1.57426 1.07804 0
M  V30 6648 C 638.781 3.08234 1.55196 0
M  V30 6649 C 637.894 4.21261 0.957262 0
M  V30 6650 C 637.029 4.90205 2.04627 0
M  V30 6651 C 636.068 5.95213 1.42787 0
M  V30 6652 N 635.205 6.57723 2.45651 0
M  V30 6653 H 640.045 2.973 -0.204139 0
M  V30 6654 H 637.582 1.46669 -0.112505 0
M  V30 6655 H 639.54 3.53819 2.2106 0
M  V30 6656 H 638.17 2.398 2.16092 0
M  V30 6657 H 637.222 3.79935 0.188005 0
M  V30 6658 H 638.534 4.96624 0.465416 0
M  V30 6659 H 637.688 5.39133 2.78246 0
M  V30 6660 H 636.427 4.14383 2.57174 0
M  V30 6661 H 635.432 5.45616 0.676968 0
M  V30 6662 H 636.657 6.72972 0.910255 0
M  V30 6663 H 634.603 5.84737 2.97353 0
M  V30 6664 H 634.52 7.28723 2.01243 0
M  V30 6665 H 635.788 7.11293 3.18876 0
M  V30 6666 N 640.017 0.126909 1.57088 0
M  V30 6667 C 641.266 -0.529024 1.94639 0
M  V30 6668 C 641.579 -1.67323 1.01304 0
M  V30 6669 O 642.785 -2.39245 1.28352 0
M  V30 6670 C 641.241 -0.992483 3.45945 0
M  V30 6671 C 640.849 0.123691 4.47829 0
M  V30 6672 C 642.593 -1.61934 3.924 0
M  V30 6673 C 640.5 -0.356911 5.90322 0
M  V30 6674 H 639.43 -0.201397 0.726605 0
M  V30 6675 H 642.081 0.208032 1.82317 0
M  V30 6676 H 640.463 -1.7842 3.53528 0
M  V30 6677 H 641.637 0.900168 4.51922 0
M  V30 6678 H 639.952 0.657699 4.11173 0
M  V30 6679 H 642.549 -1.9902 4.96281 0
M  V30 6680 H 642.892 -2.50075 3.32819 0
M  V30 6681 H 643.425 -0.892894 3.8765 0
M  V30 6682 H 640.164 0.488636 6.53676 0
M  V30 6683 H 639.684 -1.0997 5.89633 0
M  V30 6684 H 641.363 -0.815547 6.41839 0
M  V30 6685 N 641.495 -1.56914 -0.146875 0
M  V30 6686 C 642.427 -1.94878 -1.20645 0
M  V30 6687 C 643.44 -0.844633 -1.39175 0
M  V30 6688 O 644.629 -1.12304 -1.38744 0
M  V30 6689 C 641.729 -2.20769 -2.57127 0
M  V30 6690 C 640.902 -3.52053 -2.59572 0
M  V30 6691 C 639.961 -3.66482 -3.77594 0
M  V30 6692 O 638.987 -4.38873 -3.62462 0
M  V30 6693 N 640.189 -3.03156 -4.95052 0
M  V30 6694 H 642.954 -2.86374 -0.883757 0
M  V30 6695 H 640.515 -1.58366 -0.336436 0
M  V30 6696 H 642.507 -2.27664 -3.34591 0
M  V30 6697 H 641.077 -1.35538 -2.81688 0
M  V30 6698 H 640.297 -3.56598 -1.68023 0
M  V30 6699 H 641.585 -4.38396 -2.58238 0
M  V30 6700 H 640.983 -2.44258 -5.10249 0
M  V30 6701 H 639.54 -3.15611 -5.70292 0
M  V30 6702 N 642.974 0.416227 -1.52004 0
M  V30 6703 C 644.385 0.995319 -1.57957 0
M  V30 6704 C 644.736 1.91744 -0.415754 0
M  V30 6705 O 643.861 2.11349 0.464808 0
M  V30 6706 C 644.456 1.81191 -2.86278 0
M  V30 6707 C 643.015 2.34115 -2.94732 0
M  V30 6708 C 642.162 1.139 -2.52828 0
M  V30 6709 H 645.113 0.196716 -1.57476 0
M  V30 6710 H 645.134 2.66859 -2.71231 0
M  V30 6711 H 644.646 1.14051 -3.70963 0
M  V30 6712 H 642.747 3.04647 -2.14525 0
M  V30 6713 H 642.86 2.65466 -3.98829 0
M  V30 6714 H 641.224 1.49081 -2.06511 0
M  V30 6715 H 642.007 0.483383 -3.3988 0
M  V30 6716 N 644.452 1.42507 0.673017 0
M  V30 6717 C 645.402 1.4258 1.77919 0
M  V30 6718 C 646.386 0.296885 1.58137 0
M  V30 6719 O 647.578 0.539243 1.68586 0
M  V30 6720 C 644.707 1.33238 3.1639 0
M  V30 6721 C 643.793 2.51081 3.41788 0
M  V30 6722 N 644.184 3.76498 3.37761 0
M  V30 6723 C 642.482 2.4538 3.72431 0
M  V30 6724 C 643.183 4.54784 3.62693 0
M  V30 6725 N 642.159 3.8522 3.83544 0
M  V30 6726 H 645.961 2.37442 1.73201 0
M  V30 6727 H 643.475 1.36881 0.873924 0
M  V30 6728 H 645.472 1.31372 3.9566 0
M  V30 6729 H 644.132 0.393794 3.22303 0
M  V30 6730 H 645.143 4.09068 3.17622 0
M  V30 6731 H 641.82 1.60109 3.85579 0
M  V30 6732 H 643.21 5.63774 3.65525 0
M  V30 6733 N 645.93 -0.909495 1.28709 0
M  V30 6734 C 647.155 -1.69801 1.1909 0
M  V30 6735 C 647.58 -1.86479 -0.246388 0
M  V30 6736 O 646.938 -1.37802 -1.17815 0
M  V30 6737 C 646.986 -3.06543 1.89904 0
M  V30 6738 O 646.09 -3.94268 1.2094 0
M  V30 6739 H 645.431 -0.519783 0.413185 0
M  V30 6740 H 647.961 -1.13689 1.70106 0
M  V30 6741 H 647.971 -3.56748 1.97977 0
M  V30 6742 H 646.646 -2.93722 2.94449 0
M  V30 6743 H 645.223 -3.52702 1.2106 0
M  V30 6744 N 647.408 -1.11026 -1.11852 0
M  V30 6745 C 648.633 -0.879064 -1.87849 0
M  V30 6746 C 649.058 0.565406 -1.79401 0
M  V30 6747 O 648.416 1.39886 -1.15333 0
M  V30 6748 C 648.464 -1.33985 -3.34784 0
M  V30 6749 O 647.568 -0.508803 -4.09249 0
M  V30 6750 H 646.909 -0.316992 -0.583448 0
M  V30 6751 H 649.439 -1.47863 -1.41413 0
M  V30 6752 H 649.449 -1.33248 -3.85628 0
M  V30 6753 H 648.124 -2.39172 -3.40249 0
M  V30 6754 H 646.701 -0.581913 -3.68332 0
M  V30 6755 N 648.886 1.2938 -0.899927 0
M  V30 6756 C 649.816 2.30144 -0.39446 0
M  V30 6757 C 650.797 1.61611 0.530639 0
M  V30 6758 O 651.982 1.89119 0.441319 0
M  V30 6759 C 649.112 3.45229 0.37868 0
M  V30 6760 C 648.066 4.25564 -0.456012 0
M  V30 6761 C 647.392 5.32848 0.444637 0
M  V30 6762 C 648.692 4.93651 -1.70605 0
M  V30 6763 H 650.386 2.72673 -1.23653 0
M  V30 6764 H 647.932 1.31086 -0.596034 0
M  V30 6765 H 649.885 4.14797 0.743037 0
M  V30 6766 H 648.609 3.01545 1.25453 0
M  V30 6767 H 647.268 3.57704 -0.802704 0
M  V30 6768 H 646.916 4.85408 1.31863 0
M  V30 6769 H 646.616 5.87497 -0.110154 0
M  V30 6770 H 648.14 6.05268 0.805182 0
M  V30 6771 H 649.554 5.55655 -1.41141 0
M  V30 6772 H 647.951 5.58233 -2.20217 0
M  V30 6773 H 649.021 4.18926 -2.4419 0
M  V30 6774 N 650.364 0.662433 1.43002 0
M  V30 6775 C 651.274 -0.0239199 2.34588 0
M  V30 6776 C 652.29 -0.802255 1.54402 0
M  V30 6777 O 653.466 -0.747401 1.87018 0
M  V30 6778 C 650.531 -0.972098 3.32793 0
M  V30 6779 C 649.592 -0.189673 4.28881 0
M  V30 6780 C 648.825 -1.09269 5.22395 0
M  V30 6781 O 649.048 -2.33209 5.20547 0
M  V30 6782 O 647.982 -0.560136 5.99288 0
M  V30 6783 H 651.808 0.730171 2.94792 0
M  V30 6784 H 649.393 0.422635 1.43297 0
M  V30 6785 H 651.275 -1.51676 3.93157 0
M  V30 6786 H 649.95 -1.70626 2.75079 0
M  V30 6787 H 648.857 0.398794 3.71968 0
M  V30 6788 H 650.19 0.50511 4.89601 0
M  V30 6789 N 651.842 -1.52309 0.404946 0
M  V30 6790 C 652.792 -2.23717 -0.439864 0
M  V30 6791 C 653.776 -1.24692 -1.0169 0
M  V30 6792 O 654.968 -1.49951 -0.940409 0
M  V30 6793 C 652.097 -3.05898 -1.55825 0
M  V30 6794 C 651.183 -4.12331 -0.992188 0
M  V30 6795 N 651.574 -5.0557 -0.152424 0
M  V30 6796 C 649.872 -4.2774 -1.26312 0
M  V30 6797 C 650.573 -5.81474 0.162041 0
M  V30 6798 N 649.549 -5.41767 -0.44601 0
M  V30 6799 H 653.351 -2.93162 0.208084 0
M  V30 6800 H 650.865 -1.60969 0.215131 0
M  V30 6801 H 652.862 -3.55605 -2.17603 0
M  V30 6802 H 651.522 -2.37991 -2.20886 0
M  V30 6803 H 652.533 -5.17468 0.211556 0
M  V30 6804 H 649.21 -3.71062 -1.91362 0
M  V30 6805 H 650.6 -6.66585 0.843423 0
M  V30 6806 N 653.32 -0.135238 -1.57019 0
M  V30 6807 C 654.56 0.521686 -1.9763 0
M  V30 6808 C 654.924 1.62804 -1.01778 0
M  V30 6809 O 656.125 2.345 -1.31389 0
M  V30 6810 C 654.396 1.0257 -3.42365 0
M  V30 6811 S 655.955 1.68888 -4.04997 0
M  V30 6812 H 652.773 0.169064 -0.690607 0
M  V30 6813 H 655.375 -0.224168 -1.94211 0
M  V30 6814 H 654.079 0.209556 -4.09865 0
M  V30 6815 H 653.61 1.80645 -3.49472 0
M  V30 6816 H 655.625 2.97554 -3.97084 0
M  V30 6817 N 654.798 1.5699 0.138552 0
M  V30 6818 C 656.044 1.84966 0.846116 0
M  V30 6819 C 656.399 0.72038 1.78405 0
M  V30 6820 O 655.692 -0.281076 1.89527 0
M  V30 6821 C 655.886 3.17007 1.65049 0
M  V30 6822 C 655.715 4.42672 0.79194 0
M  V30 6823 C 654.485 5.03254 0.454293 0
M  V30 6824 C 656.683 5.14164 0.118419 0
M  V30 6825 N 654.665 6.12482 -0.416964 0
M  V30 6826 C 656.036 6.16966 -0.61263 0
M  V30 6827 C 658.091 4.97884 0.0399671 0
M  V30 6828 C 656.794 7.0525 -1.41473 0
M  V30 6829 C 658.82 5.86639 -0.748901 0
M  V30 6830 C 658.182 6.88929 -1.4682 0
M  V30 6831 H 654.281 0.727362 0.287172 0
M  V30 6832 H 656.865 1.94383 0.110972 0
M  V30 6833 H 655.036 3.08722 2.35681 0
M  V30 6834 H 656.768 3.3286 2.30187 0
M  V30 6835 H 653.523 4.6693 0.792038 0
M  V30 6836 H 653.947 6.7172 -0.843865 0
M  V30 6837 H 658.589 4.18779 0.581728 0
M  V30 6838 H 656.307 7.83777 -1.96772 0
M  V30 6839 H 659.893 5.7611 -0.811705 0
M  V30 6840 H 658.773 7.56419 -2.06882 0
M  V30 6841 N 656.276 -0.40816 1.52223 0
M  V30 6842 C 657.223 -1.49737 1.75635 0
M  V30 6843 C 658.193 -1.5493 0.598824 0
M  V30 6844 O 659.378 -1.71487 0.83648 0
M  V30 6845 C 656.518 -2.87174 1.91376 0
M  V30 6846 C 655.631 -2.91283 3.19027 0
M  V30 6847 C 654.766 -4.20026 3.25195 0
M  V30 6848 C 653.805 -4.18113 4.47044 0
M  V30 6849 N 652.942 -5.38429 4.50598 0
M  V30 6850 H 657.782 -1.29075 2.68596 0
M  V30 6851 H 655.319 -0.626518 1.33091 0
M  V30 6852 H 657.277 -3.66959 1.98486 0
M  V30 6853 H 655.907 -3.06329 1.01795 0
M  V30 6854 H 654.959 -2.03984 3.21084 0
M  V30 6855 H 656.271 -2.85734 4.08849 0
M  V30 6856 H 655.425 -5.08204 3.31382 0
M  V30 6857 H 654.164 -4.28271 2.33313 0
M  V30 6858 H 653.169 -3.28325 4.41002 0
M  V30 6859 H 654.394 -4.11507 5.40221 0
M  V30 6860 H 652.34 -5.4734 3.616 0
M  V30 6861 H 652.257 -5.34879 5.34266 0
M  V30 6862 H 653.525 -6.28557 4.61016 0
M  V30 6863 O 657.793 -1.51699 -0.554045 0
M  V30 6864 H 658.484 -1.51323 -1.20918 0
M  V30 END ATOM
M  V30 BEGIN BOND
M  V30 END BOND
M  V30 END CTAB
M  END
$$$$
