drugbank_target|Q8IKF0 Eukaryotic initiation factor 4A (DB11638)
 OpenBabel12092121103D

  0  0  0     0  0            999 V3000
M  V30 BEGIN CTAB
M  V30 COUNTS 6410 6457 0 0 0
M  V30 BEGIN ATOM
M  V30 1 H -0.908 1.98254 -0.117106 0
M  V30 2 N 0 1.576 0 0
M  V30 3 C 0.933 2.03868 1.02534 0
M  V30 4 C 1.911 0.928543 1.3348 0
M  V30 5 O 3.095 1.19667 1.45644 0
M  V30 6 C 0.222 2.43627 2.35294 0
M  V30 7 C -0.732 3.65373 2.2001 0
M  V30 8 S 0.101 5.13292 1.52614 0
M  V30 9 C 1.257 5.56322 2.86805 0
M  V30 10 H 1.49 2.90518 0.631377 0
M  V30 11 H -0.977 1.52953 0.210867 0
M  V30 12 H 0.981 2.67203 3.11629 0
M  V30 13 H -0.358 1.57376 2.7183 0
M  V30 14 H -1.165 3.90944 3.18086 0
M  V30 15 H -1.563 3.418 1.51819 0
M  V30 16 H 0.729 5.58782 3.83104 0
M  V30 17 H 1.672 6.56266 2.65933 0
M  V30 18 H 2.08 4.83886 2.90714 0
M  V30 19 N 1.4781 -0.272755 1.55222 0
M  V30 20 C 2.7031 -1.02683 1.80197 0
M  V30 21 C 3.1281 -1.79142 0.573551 0
M  V30 22 O 2.4861 -1.74917 -0.476849 0
M  V30 23 C 2.5341 -1.9609 3.02624 0
M  V30 24 O 1.6381 -3.04863 2.77727 0
M  V30 25 H 0.9791 -0.293557 0.595584 0
M  V30 26 H 3.5091 -0.30159 2.02365 0
M  V30 27 H 3.5191 -2.38039 3.31363 0
M  V30 28 H 2.1941 -1.39851 3.91682 0
M  V30 29 H 0.7711 -2.67228 2.60084 0
M  V30 30 N 2.9562 -1.48159 -0.537278 0
M  V30 31 C 4.1842 -1.59454 -1.31841 0
M  V30 32 C 4.5992 -0.252065 -1.8711 0
M  V30 33 O 3.9562 0.757621 -1.66031 0
M  V30 34 C 4.0072 -2.63546 -2.47439 0
M  V30 35 O 3.7282 -3.92583 -1.94449 0
M  V30 36 C 5.2292 -2.85212 -3.39366 0
M  V30 37 H 2.4492 -0.53785 -0.401196 0
M  V30 38 H 4.9932 -1.93932 -0.648891 0
M  V30 39 H 3.1482 -2.31946 -3.1029 0
M  V30 40 H 3.5622 -4.49629 -2.70063 0
M  V30 41 H 5.0362 -3.61863 -4.16844 0
M  V30 42 H 5.5132 -1.93765 -3.94147 0
M  V30 43 H 6.1192 -3.18086 -2.82314 0
M  V30 44 N 4.4343 0.785586 -1.36625 0
M  V30 45 C 5.3813 1.89838 -1.31264 0
M  V30 46 C 6.3513 1.65115 -0.180633 0
M  V30 47 O 7.5363 1.87222 -0.36777 0
M  V30 48 C 4.6763 3.26706 -1.11163 0
M  V30 49 C 3.7893 3.63476 -2.33472 0
M  V30 50 C 2.9243 4.89481 -2.06353 0
M  V30 51 C 1.9633 5.18941 -3.24602 0
M  V30 52 N 1.1003 6.36131 -2.97123 0
M  V30 53 H 5.9403 1.93756 -2.26413 0
M  V30 54 H 3.4773 0.947454 -1.12524 0
M  V30 55 H 5.4353 4.05639 -0.975337 0
M  V30 56 H 4.0653 3.222 -0.196674 0
M  V30 57 H 3.1173 2.79636 -2.57891 0
M  V30 58 H 4.4293 3.81193 -3.21704 0
M  V30 59 H 3.5833 5.76288 -1.89675 0
M  V30 60 H 2.3223 4.73841 -1.15437 0
M  V30 61 H 1.3273 4.30615 -3.41834 0
M  V30 62 H 2.5523 5.36498 -4.16349 0
M  V30 63 H 0.4983 6.21875 -2.08823 0
M  V30 64 H 0.4153 6.54198 -3.78894 0
M  V30 65 H 1.6833 7.2591 -2.84033 0
M  V30 66 N 5.9124 1.20967 1.01018 0
M  V30 67 C 6.8224 0.980157 2.13143 0
M  V30 68 C 7.8384 -0.0660665 1.73875 0
M  V30 69 O 9.0144 0.122821 2.01025 0
M  V30 70 C 6.0794 0.54216 3.42435 0
M  V30 71 C 5.1404 1.65999 3.95908 0
M  V30 72 C 4.3734 1.2428 5.19028 0
M  V30 73 O 4.5964 0.114196 5.70286 0
M  V30 74 O 3.5304 2.05271 5.65816 0
M  V30 75 H 7.3564 1.91913 2.35379 0
M  V30 76 H 4.9414 0.994099 1.11526 0
M  V30 77 H 6.8234 0.30744 4.20277 0
M  V30 78 H 5.4984 -0.36815 3.216 0
M  V30 79 H 4.4054 1.94906 3.19316 0
M  V30 80 H 5.7384 2.54753 4.21143 0
M  V30 81 N 7.3905 -1.2043 1.01659 0
M  V30 82 C 8.3005 -2.2689 0.596484 0
M  V30 83 C 9.3165 -1.70107 -0.36599 0
M  V30 84 O 10.4925 -2.00117 -0.226942 0
M  V30 85 C 7.5575 -3.4665 -0.0586659 0
M  V30 86 C 6.6185 -4.18662 0.949751 0
M  V30 87 C 5.8515 -5.32705 0.32577 0
M  V30 88 O 6.0745 -5.63656 -0.874509 0
M  V30 89 O 5.0085 -5.92803 1.04249 0
M  V30 90 H 8.8345 -2.65041 1.4828 0
M  V30 91 H 6.4195 -1.27048 0.786082 0
M  V30 92 H 8.3015 -4.19256 -0.424564 0
M  V30 93 H 6.9765 -3.10375 -0.91918 0
M  V30 94 H 5.8835 -3.48229 1.36702 0
M  V30 95 H 7.2165 -4.58878 1.78023 0
M  V30 96 N 8.8686 -0.792821 -1.36206 0
M  V30 97 C 10.0966 -0.378825 -2.03402 0
M  V30 98 C 10.5116 1.00586 -1.59774 0
M  V30 99 O 9.8686 1.64574 -0.788764 0
M  V30 100 C 9.9196 -0.43683 -3.58851 0
M  V30 101 O 9.6406 -1.76691 -4.00889 0
M  V30 102 C 11.1416 -0.0138943 -4.43298 0
M  V30 103 H 8.3616 -0.155673 -0.652692 0
M  V30 104 H 10.9056 -1.07261 -1.74113 0
M  V30 105 H 9.0606 0.208575 -3.86838 0
M  V30 106 H 9.4746 -1.72011 -4.95492 0
M  V30 107 H 10.9486 -0.105615 -5.51899 0
M  V30 108 H 11.4256 1.03915 -4.2673 0
M  V30 109 H 12.0316 -0.63192 -4.20579 0
M  V30 110 N 10.3467 1.47872 -0.545128 0
M  V30 111 C 11.5937 2.02493 -0.0165858 0
M  V30 112 C 11.9217 1.42073 1.32836 0
M  V30 113 O 11.1767 0.561459 1.87473 0
M  V30 114 C 11.4757 3.57131 0.13867 0
M  V30 115 C 11.1417 4.36411 -1.13384 0
M  V30 116 C 9.8037 4.57792 -1.48256 0
M  V30 117 C 12.1557 4.82223 -1.97764 0
M  V30 118 C 9.4837 5.22233 -2.67376 0
M  V30 119 C 11.8357 5.47977 -3.16076 0
M  V30 120 C 10.4997 5.67593 -3.51275 0
M  V30 121 H 9.7697 0.740975 -0.00606918 0
M  V30 122 H 12.4167 1.77683 -0.714207 0
M  V30 123 H 10.7217 3.80865 0.919172 0
M  V30 124 H 12.4187 3.97031 0.562782 0
M  V30 125 H 9.0087 4.2004 -0.852297 0
M  V30 126 H 13.1927 4.65493 -1.72132 0
M  V30 127 H 8.4487 5.35616 -2.94831 0
M  V30 128 H 12.6227 5.8244 -3.81755 0
M  V30 129 H 10.2497 6.17298 -4.43675 0
M  V30 130 N 11.8248 0.280983 1.55075 0
M  V30 131 C 12.7728 -0.619864 2.24188 0
M  V30 132 C 13.7668 -1.15315 1.24092 0
M  V30 133 O 14.9728 -1.1061 1.42005 0
M  V30 134 H 11.3478 -0.218459 0.719569 0
M  V30 135 H 13.3188 -0.0141831 2.98397 0
M  V30 136 C 12.0678 -1.7899 2.98091 0
M  V30 137 H 11.3908 -1.38874 3.74905 0
M  V30 138 H 12.8308 -2.39672 3.49762 0
M  V30 139 C 11.2898 -2.68192 2.03899 0
M  V30 140 O 11.8198 -3.6872 1.594 0
M  V30 141 N 10.0258 -2.35488 1.70275 0
M  V30 142 H 9.5728 -1.53787 2.06658 0
M  V30 143 H 9.5308 -2.95442 1.07524 0
M  V30 144 N 13.3029 -1.57598 0.00835791 0
M  V30 145 C 14.2509 -2.10078 -0.998508 0
M  V30 146 C 15.2449 -1.02262 -1.35051 0
M  V30 147 O 16.4509 -1.20719 -1.33518 0
M  V30 148 H 12.8259 -0.670903 -0.339696 0
M  V30 149 H 14.7969 -2.93648 -0.530398 0
M  V30 150 C 13.5459 -2.62615 -2.27879 0
M  V30 151 H 12.8689 -3.45213 -2.01662 0
M  V30 152 H 14.3089 -3.03004 -2.96588 0
M  V30 153 C 12.7679 -1.54407 -2.99433 0
M  V30 154 O 13.2979 -0.931812 -3.90743 0
M  V30 155 N 11.5039 -1.2695 -2.61404 0
M  V30 156 H 11.0509 -1.76924 -1.87232 0
M  V30 157 H 11.0089 -0.547704 -3.09593 0
M  V30 158 N 14.781 0.264519 -1.55364 0
M  V30 159 C 15.691 1.34902 -1.91934 0
M  V30 160 C 16.707 1.53595 -0.817593 0
M  V30 161 O 17.883 1.67558 -1.11742 0
M  V30 162 C 14.948 2.68676 -2.19121 0
M  V30 163 C 14.009 2.58657 -3.4263 0
M  V30 164 C 13.242 3.86051 -3.68511 0
M  V30 165 O 13.465 4.87126 -2.96757 0
M  V30 166 O 12.399 3.85744 -4.62045 0
M  V30 167 H 16.225 1.06883 -2.8427 0
M  V30 168 H 13.81 0.463775 -1.42019 0
M  V30 169 H 15.692 3.47759 -2.37995 0
M  V30 170 H 14.367 2.96463 -1.29966 0
M  V30 171 H 13.274 1.7792 -3.29082 0
M  V30 172 H 14.607 2.35818 -4.32031 0
M  V30 173 N 16.2591 1.48442 0.529413 0
M  V30 174 C 17.2071 1.63452 1.65487 0
M  V30 175 C 18.2011 0.500955 1.61823 0
M  V30 176 O 19.4071 0.679695 1.66674 0
M  V30 177 H 15.7821 0.514905 0.548066 0
M  V30 178 H 17.7531 2.57975 1.49971 0
M  V30 179 C 16.5021 1.69196 3.03756 0
M  V30 180 H 15.8251 2.55784 3.07269 0
M  V30 181 H 17.2651 1.83743 3.82119 0
M  V30 182 C 15.7241 0.430765 3.34135 0
M  V30 183 O 16.2541 -0.4561 3.99102 0
M  V30 184 N 14.4601 0.302293 2.89023 0
M  V30 185 H 14.0071 1.02496 2.36331 0
M  V30 186 H 13.9651 -0.540546 3.09718 0
M  V30 187 N 17.7372 -0.778329 1.37039 0
M  V30 188 C 19.0142 -1.52551 1.22424 0
M  V30 189 C 19.3942 -2.10288 -0.184964 0
M  V30 190 O 18.7422 -1.94953 -1.19187 0
M  V30 191 C 18.9522 -2.61164 2.31504 0
M  V30 192 C 20.3002 -3.28746 2.68721 0
M  V30 193 O 21.3242 -2.71455 2.30631 0
M  V30 194 O 20.1832 -4.3231 3.3432 0
M  V30 195 H 17.2772 -0.675343 0.477326 0
M  V30 196 H 19.8232 -0.815859 1.48801 0
M  V30 197 H 18.5952 -2.16574 3.25901 0
M  V30 198 H 18.2182 -3.39737 2.06554 0
M  V30 199 N 19.2153 -1.21501 -1.00376 0
M  V30 200 C 20.4643 -1.02718 -1.73586 0
M  V30 201 C 20.7773 0.439589 -1.90596 0
M  V30 202 O 21.9833 0.746848 -2.61026 0
M  V30 203 C 20.4393 -1.78929 -3.1227 0
M  V30 204 C 20.0473 -3.29783 -3.03228 0
M  V30 205 C 21.7913 -1.68557 -3.89601 0
M  V30 206 C 19.6983 -3.98479 -4.36999 0
M  V30 207 H 18.6283 -0.380733 -0.650814 0
M  V30 208 H 21.2793 -1.45248 -1.1214 0
M  V30 209 H 19.6613 -1.29192 -3.74333 0
M  V30 210 H 20.8353 -3.86832 -2.50395 0
M  V30 211 H 19.1503 -3.40711 -2.39385 0
M  V30 212 H 21.7473 -2.17211 -4.88593 0
M  V30 213 H 22.0903 -0.644021 -4.11288 0
M  V30 214 H 22.6233 -2.15778 -3.34193 0
M  V30 215 H 19.3623 -5.02841 -4.20513 0
M  V30 216 H 18.8823 -3.46219 -4.89788 0
M  V30 217 H 20.5613 -4.03462 -5.05794 0
M  V30 218 N 20.6934 1.19889 -1.02296 0
M  V30 219 C 21.6034 2.26571 -0.608508 0
M  V30 220 C 22.6194 1.70299 0.356964 0
M  V30 221 O 23.7954 2.00235 0.216326 0
M  V30 222 C 20.8604 3.46677 0.0402814 0
M  V30 223 C 19.9214 4.18153 -0.97194 0
M  V30 224 C 19.1544 5.32525 -0.354016 0
M  V30 225 O 19.3774 5.64112 0.844604 0
M  V30 226 O 18.3114 5.92242 -1.07391 0
M  V30 227 H 22.1374 2.64251 -1.49684 0
M  V30 228 H 19.7224 1.26629 -0.792809 0
M  V30 229 H 21.6044 4.19475 0.402324 0
M  V30 230 H 20.2794 3.10858 0.902707 0
M  V30 231 H 19.1864 3.47499 -1.38546 0
M  V30 232 H 20.5194 4.57927 -1.80454 0
M  V30 233 N 22.1715 0.800033 1.35784 0
M  V30 234 C 23.4195 0.376597 1.9856 0
M  V30 235 C 23.7405 -1.05812 1.63795 0
M  V30 236 O 23.0105 -1.73103 0.917171 0
M  V30 237 H 21.5905 0.136261 0.734467 0
M  V30 238 H 24.2525 1.02442 1.65806 0
M  V30 239 H 23.3485 0.477002 3.08433 0
M  V30 240 N 23.6496 -1.47581 0.552962 0
M  V30 241 C 24.5976 -2.31648 -0.21023 0
M  V30 242 C 25.5916 -1.42663 -0.913432 0
M  V30 243 O 26.7976 -1.5945 -0.835201 0
M  V30 244 H 23.1726 -0.746989 -0.0866676 0
M  V30 245 H 25.1436 -2.93869 0.518051 0
M  V30 246 C 23.8926 -3.25226 -1.22976 0
M  V30 247 H 23.2156 -3.93658 -0.698077 0
M  V30 248 H 24.6556 -3.86889 -1.73473 0
M  V30 249 C 23.1146 -2.48448 -2.27542 0
M  V30 250 O 23.6446 -2.22585 -3.34393 0
M  V30 251 N 21.8506 -2.09532 -2.01357 0
M  V30 252 H 21.3976 -2.30765 -1.14478 0
M  V30 253 H 21.3556 -1.58476 -2.71538 0
M  V30 254 N 25.1277 -0.289203 -1.54924 0
M  V30 255 C 26.3557 0.326463 -2.04308 0
M  V30 256 C 26.7707 1.48413 -1.16701 0
M  V30 257 O 26.1277 1.81507 -0.190087 0
M  V30 258 C 26.1787 0.794014 -3.52672 0
M  V30 259 O 25.8997 -0.317564 -4.36948 0
M  V30 260 C 27.4007 1.47605 -4.18004 0
M  V30 261 H 24.6207 0.0726272 -0.667058 0
M  V30 262 H 27.1647 -0.425401 -2.00026 0
M  V30 263 H 25.3197 1.49593 -3.57352 0
M  V30 264 H 25.7337 0.0443186 -5.24481 0
M  V30 265 H 27.2077 1.75447 -5.23376 0
M  V30 266 H 27.6847 2.41224 -3.67025 0
M  V30 267 H 28.2907 0.81762 -4.17367 0
M  V30 268 N 26.6058 1.57591 -0.0167156 0
M  V30 269 C 27.5158 2.1291 0.98521 0
M  V30 270 C 28.5318 1.07834 1.36557 0
M  V30 271 O 29.7078 1.39826 1.44951 0
M  V30 272 C 26.7728 2.63512 2.25305 0
M  V30 273 C 25.8338 3.83256 1.93426 0
M  V30 274 C 25.0668 4.31435 3.14165 0
M  V30 275 O 25.2898 3.78851 4.26413 0
M  V30 276 O 24.2238 5.23416 2.97186 0
M  V30 277 H 28.0498 2.98772 0.544888 0
M  V30 278 H 25.6348 1.48012 0.203141 0
M  V30 279 H 27.5168 2.96183 2.99756 0
M  V30 280 H 26.1918 1.8074 2.68542 0
M  V30 281 H 25.0988 3.55531 1.16398 0
M  V30 282 H 26.4318 4.67153 1.55013 0
M  V30 283 N 28.0839 -0.256276 1.55502 0
M  V30 284 C 28.9939 -1.33882 1.92647 0
M  V30 285 C 30.0099 -1.53159 0.825727 0
M  V30 286 O 31.1859 -1.66963 1.12629 0
M  V30 287 C 28.2509 -2.6751 2.20543 0
M  V30 288 C 27.3119 -2.56836 3.43997 0
M  V30 289 C 26.5449 -3.84092 3.70553 0
M  V30 290 O 26.7679 -4.85545 2.99336 0
M  V30 291 O 25.7019 -3.83288 4.64084 0
M  V30 292 H 29.5279 -1.05374 2.84833 0
M  V30 293 H 27.1129 -0.456237 1.42263 0
M  V30 294 H 28.9949 -3.46492 2.39835 0
M  V30 295 H 27.6699 -2.9577 1.31536 0
M  V30 296 H 26.5769 -1.76172 3.30021 0
M  V30 297 H 27.9099 -2.33523 4.33275 0
M  V30 298 N 29.562 -1.4872 -0.521534 0
M  V30 299 C 30.811 -1.56419 -1.27341 0
M  V30 300 C 31.124 -0.246805 -1.94037 0
M  V30 301 O 32.33 -0.202122 -2.70747 0
M  V30 302 C 30.786 -2.75896 -2.31105 0
M  V30 303 C 30.394 -4.14311 -1.70441 0
M  V30 304 C 32.138 -2.92913 -3.07249 0
M  V30 305 C 30.045 -5.25038 -2.72194 0
M  V30 306 H 28.975 -0.582344 -0.478949 0
M  V30 307 H 31.626 -1.75071 -0.549779 0
M  V30 308 H 30.008 -2.50697 -3.06541 0
M  V30 309 H 31.182 -4.49564 -1.01136 0
M  V30 310 H 29.497 -4.02482 -1.06759 0
M  V30 311 H 32.094 -3.72805 -3.83302 0
M  V30 312 H 32.437 -2.02689 -3.63625 0
M  V30 313 H 32.97 -3.18054 -2.38928 0
M  V30 314 H 29.709 -6.17255 -2.20627 0
M  V30 315 H 29.229 -4.94263 -3.39801 0
M  V30 316 H 30.908 -5.53508 -3.35019 0
M  V30 317 N 31.0401 0.771051 -1.3745 0
M  V30 318 C 32.2861 1.5319 -1.32894 0
M  V30 319 C 32.6191 1.94008 0.0862511 0
M  V30 320 O 31.8941 1.64124 1.04373 0
M  V30 321 C 32.1771 2.79648 -2.26868 0
M  V30 322 C 32.0301 2.45079 -3.77169 0
M  V30 323 C 33.3491 3.81583 -2.19277 0
M  V30 324 H 30.4681 0.555744 -0.484064 0
M  V30 325 H 33.1101 0.884492 -1.68157 0
M  V30 326 H 31.2601 3.34891 -1.96926 0
M  V30 327 H 32.9321 1.95745 -4.1771 0
M  V30 328 H 31.1751 1.77767 -3.95704 0
M  V30 329 H 31.8461 3.35478 -4.38359 0
M  V30 330 H 34.3221 3.35835 -2.45671 0
M  V30 331 H 33.1981 4.67787 -2.87171 0
M  V30 332 H 33.4591 4.25897 -1.18592 0
M  V30 333 N 32.5182 1.22032 0.997298 0
M  V30 334 C 33.7952 0.950823 1.70935 0
M  V30 335 C 34.1752 -0.535292 2.042 0
M  V30 336 O 33.5232 -1.50217 1.72183 0
M  V30 337 C 33.7332 1.84386 2.96315 0
M  V30 338 C 35.0812 2.09732 3.69185 0
M  V30 339 O 36.1052 1.81798 3.06314 0
M  V30 340 O 34.9642 2.57018 4.82291 0
M  V30 341 H 32.0582 0.357204 0.745878 0
M  V30 342 H 34.6042 1.32997 1.05404 0
M  V30 343 H 33.3762 2.84928 2.68201 0
M  V30 344 H 32.9992 1.46602 3.69586 0
M  V30 345 N 33.9963 -1.19345 1.0293 0
M  V30 346 C 35.2243 -1.92997 0.745644 0
M  V30 347 C 35.6393 -1.75519 -0.695589 0
M  V30 348 O 34.9963 -1.07737 -1.47306 0
M  V30 349 C 35.0473 -3.44741 1.08792 0
M  V30 350 O 34.7683 -3.61658 2.47256 0
M  V30 351 C 36.2693 -4.35515 0.827129 0
M  V30 352 H 33.4893 -0.613042 0.272801 0
M  V30 353 H 36.0333 -1.51473 1.3739 0
M  V30 354 H 34.1883 -3.84097 0.504832 0
M  V30 355 H 34.6023 -4.55514 2.60015 0
M  V30 356 H 36.0763 -5.40589 1.11658 0
M  V30 357 H 36.5533 -4.38552 -0.238436 0
M  V30 358 H 37.1593 -4.01841 1.39297 0
M  V30 359 N 35.4744 -0.807222 -1.35358 0
M  V30 360 C 36.7214 -0.387888 -1.9875 0
M  V30 361 C 37.0494 1.04509 -1.64037 0
M  V30 362 O 36.3044 1.73986 -0.895946 0
M  V30 363 C 36.6034 -0.519036 -3.53611 0
M  V30 364 C 36.2694 -1.91542 -4.08194 0
M  V30 365 C 34.9314 -2.29745 -4.22813 0
M  V30 366 C 37.2834 -2.82896 -4.37744 0
M  V30 367 C 34.6114 -3.58668 -4.643 0
M  V30 368 C 36.9634 -4.11265 -4.8067 0
M  V30 369 C 35.6274 -4.49466 -4.93494 0
M  V30 370 H 34.8974 -0.141938 -0.727279 0
M  V30 371 H 37.5444 -1.02814 -1.6156 0
M  V30 372 H 35.8494 0.204658 -3.91265 0
M  V30 373 H 37.5464 -0.175345 -4.00616 0
M  V30 374 H 34.1364 -1.60862 -3.97268 0
M  V30 375 H 38.3204 -2.54629 -4.26002 0
M  V30 376 H 33.5764 -3.88113 -4.72418 0
M  V30 377 H 37.7504 -4.82153 -5.02496 0
M  V30 378 H 35.3774 -5.49418 -5.25399 0
M  V30 379 N 36.9525 1.47285 -0.560781 0
M  V30 380 C 38.2295 1.9558 0.0277798 0
M  V30 381 C 38.6095 1.5034 1.48192 0
M  V30 382 O 37.9575 0.743882 2.16052 0
M  V30 383 C 38.1675 3.48789 -0.121418 0
M  V30 384 C 39.5155 4.24594 0.0220912 0
M  V30 385 O 40.5395 3.56166 -0.0491439 0
M  V30 386 O 39.3985 5.46217 0.175958 0
M  V30 387 H 36.4925 0.824663 0.0621342 0
M  V30 388 H 39.0385 1.5767 -0.627556 0
M  V30 389 H 37.8105 3.74533 -1.13316 0
M  V30 390 H 37.4335 3.93473 0.571366 0
M  V30 391 N 38.4306 0.297415 1.54768 0
M  V30 392 C 39.3936 -0.567375 2.22066 0
M  V30 393 C 40.3936 -1.06409 1.20556 0
M  V30 394 O 41.5836 -0.960691 1.45315 0
M  V30 395 C 38.7156 -1.78517 2.90421 0
M  V30 396 H 39.9086 0.0205534 2.99893 0
M  V30 397 H 37.4616 0.0482163 1.56226 0
M  V30 398 H 38.1966 -2.41303 2.16664 0
M  V30 399 H 37.9816 -1.43669 3.64831 0
M  V30 400 H 39.4716 -2.39964 3.41771 0
M  V30 401 N 39.9087 -1.5758 0.0250728 0
M  V30 402 C 40.8387 -2.13007 -0.956575 0
M  V30 403 C 41.8197 -1.0452 -1.342 0
M  V30 404 O 43.0047 -1.32332 -1.42133 0
M  V30 405 C 40.1347 -2.65386 -2.24026 0
M  V30 406 C 39.0887 -3.78623 -1.99571 0
M  V30 407 C 38.4147 -4.17414 -3.3417 0
M  V30 408 C 39.7147 -5.04867 -1.33814 0
M  V30 409 H 41.4087 -2.9528 -0.494991 0
M  V30 410 H 38.9547 -1.42042 -0.236651 0
M  V30 411 H 40.9077 -3.02794 -2.93076 0
M  V30 412 H 39.6317 -1.80268 -2.72343 0
M  V30 413 H 38.2907 -3.41646 -1.32941 0
M  V30 414 H 37.9387 -3.29284 -3.80238 0
M  V30 415 H 37.6387 -4.93719 -3.18615 0
M  V30 416 H 39.1627 -4.57402 -4.04495 0
M  V30 417 H 40.5767 -5.39888 -1.92857 0
M  V30 418 H 38.9737 -5.86144 -1.28669 0
M  V30 419 H 40.0437 -4.83904 -0.310561 0
M  V30 420 N 41.3868 0.248026 -1.55636 0
M  V30 421 C 42.6348 0.974295 -1.77065 0
M  V30 422 C 42.9558 1.85897 -0.588849 0
M  V30 423 O 42.2258 1.91868 0.395407 0
M  V30 424 H 40.8058 0.362733 -0.653019 0
M  V30 425 H 43.4678 0.266244 -1.93073 0
M  V30 426 H 42.5638 1.59667 -2.68166 0
M  V30 427 N 42.8649 1.48995 0.513639 0
M  V30 428 C 43.7949 1.67636 1.62544 0
M  V30 429 C 44.7759 0.525087 1.61793 0
M  V30 430 O 45.9609 0.759502 1.78732 0
M  V30 431 C 43.0909 1.73114 3.01079 0
M  V30 432 C 42.0449 2.87905 3.16693 0
M  V30 433 C 41.3709 2.78486 4.56453 0
M  V30 434 C 42.6709 4.29005 2.97913 0
M  V30 435 H 44.3649 2.60716 1.47198 0
M  V30 436 H 41.9109 1.25465 0.706714 0
M  V30 437 H 43.8639 1.84742 3.78746 0
M  V30 438 H 42.5879 0.766241 3.17484 0
M  V30 439 H 41.2469 2.75859 2.41448 0
M  V30 440 H 40.8949 1.7993 4.69717 0
M  V30 441 H 40.5949 3.55523 4.67843 0
M  V30 442 H 42.1189 2.92104 5.36197 0
M  V30 443 H 43.5329 4.41798 3.65359 0
M  V30 444 H 41.9299 5.07166 3.20785 0
M  V30 445 H 42.9999 4.44329 1.94165 0
M  V30 446 N 44.343 -0.763751 1.37857 0
M  V30 447 C 45.291 -1.89864 1.34367 0
M  V30 448 C 46.285 -1.67816 0.231143 0
M  V30 449 O 47.491 -1.75508 0.399617 0
M  V30 450 H 43.866 -0.624501 0.41893 0
M  V30 451 H 45.837 -1.89925 2.30155 0
M  V30 452 C 44.586 -3.27227 1.1755 0
M  V30 453 H 43.909 -3.44773 2.02414 0
M  V30 454 H 45.349 -4.06911 1.1916 0
M  V30 455 C 43.808 -3.36692 -0.118311 0
M  V30 456 O 44.338 -3.86374 -1.09902 0
M  V30 457 N 42.544 -2.90092 -0.171717 0
M  V30 458 H 42.091 -2.49853 0.627012 0
M  V30 459 H 42.049 -2.96806 -1.03699 0
M  V30 460 N 45.8211 -1.22559 -0.990812 0
M  V30 461 C 46.7311 -1.01394 -2.11557 0
M  V30 462 C 47.7471 0.0383962 -1.73958 0
M  V30 463 O 48.9231 -0.154787 -2.00804 0
M  V30 464 C 45.9881 -0.596569 -3.41529 0
M  V30 465 C 45.0491 -1.72276 -3.93217 0
M  V30 466 C 44.2821 -1.32521 -5.16985 0
M  V30 467 O 44.5051 -0.204909 -5.70032 0
M  V30 468 O 43.4391 -2.14247 -5.62478 0
M  V30 469 H 47.2651 -1.95633 -2.32296 0
M  V30 470 H 44.8501 -1.01172 -1.0993 0
M  V30 471 H 46.7321 -0.374263 -4.19735 0
M  V30 472 H 45.4071 0.316939 -3.22145 0
M  V30 473 H 44.3141 -1.99961 -3.16174 0
M  V30 474 H 45.6471 -2.61421 -4.17037 0
M  V30 475 N 47.2992 1.18797 -1.03562 0
M  V30 476 C 48.2462 2.22253 -0.622259 0
M  V30 477 C 49.2162 1.61987 0.36736 0
M  V30 478 O 50.4012 1.88986 0.262492 0
M  V30 479 C 47.5412 3.45097 0.0138462 0
M  V30 480 C 46.6542 4.19722 -1.02263 0
M  V30 481 C 45.7892 5.30009 -0.355573 0
M  V30 482 C 44.8282 5.96399 -1.37749 0
M  V30 483 N 43.9652 6.98234 -0.735766 0
M  V30 484 H 48.8052 2.56968 -1.50903 0
M  V30 485 H 46.3422 1.26245 -0.755017 0
M  V30 486 H 48.3002 4.15279 0.399948 0
M  V30 487 H 46.9302 3.11018 0.864158 0
M  V30 488 H 45.9822 3.48418 -1.52673 0
M  V30 489 H 47.2942 4.65227 -1.79903 0
M  V30 490 H 46.4482 6.0664 0.0850095 0
M  V30 491 H 45.1872 4.85592 0.452967 0
M  V30 492 H 44.1922 5.18512 -1.82826 0
M  V30 493 H 45.4172 6.42899 -2.18764 0
M  V30 494 H 43.3632 6.55979 0.0525597 0
M  V30 495 H 43.2802 7.41965 -1.44995 0
M  V30 496 H 44.5482 7.78845 -0.31941 0
M  V30 497 N 48.7773 0.814389 1.34928 0
M  V30 498 C 49.7073 0.244827 2.32213 0
M  V30 499 C 50.6883 -0.634024 1.57842 0
M  V30 500 O 51.8733 -0.562676 1.8587 0
M  V30 501 C 49.0033 -0.601106 3.42058 0
M  V30 502 C 47.9573 0.179896 4.27622 0
M  V30 503 C 47.2833 -0.788237 5.28858 0
M  V30 504 C 48.5833 1.38329 5.03649 0
M  V30 505 H 50.2773 1.05763 2.80097 0
M  V30 506 H 47.8233 0.510029 1.34665 0
M  V30 507 H 49.7763 -1.00968 4.09125 0
M  V30 508 H 48.5003 -1.44688 2.92802 0
M  V30 509 H 47.1593 0.569739 3.62146 0
M  V30 510 H 46.8073 -1.62973 4.75866 0
M  V30 511 H 46.5073 -0.269942 5.8698 0
M  V30 512 H 48.0313 -1.19485 5.98795 0
M  V30 513 H 49.4453 1.04918 5.63618 0
M  V30 514 H 47.8423 1.83662 5.71304 0
M  V30 515 H 48.9123 2.16592 4.33839 0
M  V30 516 N 50.2554 -1.46986 0.568584 0
M  V30 517 C 51.1854 -2.32946 -0.160753 0
M  V30 518 C 52.1664 -1.44487 -0.897631 0
M  V30 519 O 53.3514 -1.73327 -0.875867 0
M  V30 520 C 50.4814 -3.26494 -1.18403 0
M  V30 521 C 49.4354 -4.24282 -0.562895 0
M  V30 522 C 48.7614 -5.07236 -1.69163 0
M  V30 523 C 50.0614 -5.19989 0.490761 0
M  V30 524 H 51.7554 -2.94175 0.556916 0
M  V30 525 H 49.3014 -1.4146 0.26927 0
M  V30 526 H 51.2544 -3.85477 -1.70251 0
M  V30 527 H 49.9784 -2.63343 -1.93179 0
M  V30 528 H 48.6374 -3.66541 -0.0656164 0
M  V30 529 H 48.2854 -4.4048 -2.42871 0
M  V30 530 H 47.9854 -5.7345 -1.28174 0
M  V30 531 H 49.5094 -5.6908 -2.21314 0
M  V30 532 H 50.9234 -5.73271 0.0579047 0
M  V30 533 H 49.3204 -5.94469 0.820165 0
M  V30 534 H 50.3904 -4.64777 1.3824 0
M  V30 535 N 51.7335 -0.305618 -1.54608 0
M  V30 536 C 53.1495 0.0476228 -1.59529 0
M  V30 537 C 53.3495 1.52025 -1.32252 0
M  V30 538 O 52.4055 2.27368 -1.09818 0
M  V30 539 C 53.7185 -0.354471 -2.98603 0
M  V30 540 C 55.2665 -0.303622 -3.11524 0
M  V30 541 C 55.7415 -0.680608 -4.52915 0
M  V30 542 N 57.2325 -0.63332 -4.5885 0
M  V30 543 C 57.9675 -0.897432 -5.66334 0
M  V30 544 N 57.4635 -1.22775 -6.81834 0
M  V30 545 N 59.2565 -0.824186 -5.56025 0
M  V30 546 H 51.4075 -1.2653 -1.70599 0
M  V30 547 H 53.6705 -0.513291 -0.797017 0
M  V30 548 H 53.3765 -1.3798 -3.23503 0
M  V30 549 H 53.2505 0.289568 -3.76087 0
M  V30 550 H 55.6375 0.712472 -2.8637 0
M  V30 551 H 55.7185 -0.982348 -2.36185 0
M  V30 552 H 55.3625 -1.69453 -4.78799 0
M  V30 553 H 55.2925 0.0202385 -5.26596 0
M  V30 554 H 57.7835 -0.389138 -3.75891 0
M  V30 555 H 58.0965 -1.41513 -7.59733 0
M  V30 556 H 56.4415 -1.26583 -6.83375 0
M  V30 557 H 59.6325 -0.565748 -4.64669 0
M  V30 558 H 59.8055 -1.03338 -6.39707 0
M  V30 559 N 53.2116 1.57565 -0.0334293 0
M  V30 560 C 54.4596 1.91598 0.642999 0
M  V30 561 C 54.7806 0.910847 1.7242 0
M  V30 562 O 54.0506 -0.0469931 1.95844 0
M  V30 563 H 52.6306 0.707228 0.240496 0
M  V30 564 H 55.2926 1.94726 -0.0822488 0
M  V30 565 H 54.3886 2.92336 1.09298 0
M  V30 566 N 54.6897 -0.239769 1.55765 0
M  V30 567 C 55.9387 -0.964754 1.77131 0
M  V30 568 C 56.2517 -1.86213 0.59868 0
M  V30 569 O 57.4577 -2.6244 0.695522 0
M  V30 570 C 55.9137 -1.76552 3.1362 0
M  V30 571 C 55.5217 -0.915185 4.38553 0
M  V30 572 C 57.2657 -2.48281 3.44321 0
M  V30 573 C 55.1727 -1.71225 5.66071 0
M  V30 574 H 54.1027 -0.363953 0.660344 0
M  V30 575 H 56.7537 -0.219181 1.82186 0
M  V30 576 H 55.1357 -2.55331 3.02691 0
M  V30 577 H 56.3097 -0.169217 4.60489 0
M  V30 578 H 54.6247 -0.310889 4.15238 0
M  V30 579 H 57.2217 -3.08382 4.36812 0
M  V30 580 H 57.5647 -3.20256 2.65973 0
M  V30 581 H 58.0977 -1.76507 3.56497 0
M  V30 582 H 54.8367 -1.03612 6.4726 0
M  V30 583 H 54.3567 -2.43331 5.48224 0
M  V30 584 H 56.0357 -2.27758 6.05587 0
M  V30 585 N 56.1678 -1.49265 -0.50573 0
M  V30 586 C 57.3978 -1.61979 -1.28243 0
M  V30 587 C 57.8058 -0.288576 -1.86986 0
M  V30 588 O 57.1488 0.735408 -1.68337 0
M  V30 589 C 57.2108 -2.62632 -2.45489 0
M  V30 590 C 56.8748 -4.071 -2.07651 0
M  V30 591 C 57.8718 -4.94049 -1.61901 0
M  V30 592 C 55.5568 -4.52801 -2.17431 0
M  V30 593 C 57.5508 -6.24736 -1.26428 0
M  V30 594 C 55.2378 -5.83503 -1.8157 0
M  V30 595 C 56.2358 -6.69294 -1.36142 0
M  V30 596 O 55.9238 -7.9756 -1.00764 0
M  V30 597 H 55.6558 -0.54834 -0.395347 0
M  V30 598 H 58.2098 -1.96002 -0.614204 0
M  V30 599 H 56.4398 -2.2378 -3.15372 0
M  V30 600 H 58.1288 -2.64925 -3.07522 0
M  V30 601 H 58.8948 -4.5997 -1.53795 0
M  V30 602 H 54.7738 -3.86196 -2.51742 0
M  V30 603 H 58.3178 -6.91652 -0.908992 0
M  V30 604 H 54.2148 -6.17112 -1.89324 0
M  V30 605 H 54.9828 -8.10529 -1.13952 0
M  V30 606 N 57.6459 0.756429 -1.3826 0
M  V30 607 C 58.8709 1.55077 -1.37717 0
M  V30 608 C 59.2959 1.88073 0.03164 0
M  V30 609 O 58.6539 1.50364 1.01293 0
M  V30 610 C 58.7019 2.8283 -2.23695 0
M  V30 611 O 57.8059 3.77862 -1.6521 0
M  V30 612 H 57.1469 0.469152 -0.469885 0
M  V30 613 H 59.6769 0.935019 -1.81985 0
M  V30 614 H 59.6869 3.31783 -2.37453 0
M  V30 615 H 58.3619 2.58144 -3.2609 0
M  V30 616 H 56.9389 3.36555 -1.60578 0
M  V30 617 N 59.124 1.23083 0.984299 0
M  V30 618 C 60.354 1.08556 1.75781 0
M  V30 619 C 60.762 -0.366171 1.85623 0
M  V30 620 O 60.105 -1.26524 1.33182 0
M  V30 621 C 60.167 1.63208 3.20318 0
M  V30 622 C 59.831 3.11922 3.33997 0
M  V30 623 C 60.828 4.09259 3.2063 0
M  V30 624 C 58.513 3.51552 3.58771 0
M  V30 625 C 60.507 5.4421 3.31835 0
M  V30 626 C 58.194 4.86649 3.69616 0
M  V30 627 C 59.192 5.82787 3.56157 0
M  V30 628 O 58.88 7.15431 3.66626 0
M  V30 629 H 58.612 0.380713 0.5586 0
M  V30 630 H 61.166 1.63321 1.2456 0
M  V30 631 H 59.396 1.0286 3.72769 0
M  V30 632 H 61.085 1.44216 3.79416 0
M  V30 633 H 61.851 3.79984 3.01392 0
M  V30 634 H 57.73 2.77239 3.6832 0
M  V30 635 H 61.274 6.1923 3.21247 0
M  V30 636 H 57.171 5.15601 3.88363 0
M  V30 637 H 57.939 7.23127 3.83445 0
M  V30 638 N 60.6021 -1.18246 1.0419 0
M  V30 639 C 61.8501 -1.87886 0.744543 0
M  V30 640 C 62.1711 -1.8082 -0.730006 0
M  V30 641 O 61.4411 -1.22736 -1.52685 0
M  V30 642 H 60.0211 -0.695556 0.272417 0
M  V30 643 H 62.6831 -1.43494 1.31892 0
M  V30 644 H 61.7791 -2.9389 1.05049 0
M  V30 645 N 62.0802 -0.821533 -1.34494 0
M  V30 646 C 63.3272 -0.408946 -1.98328 0
M  V30 647 C 63.6552 1.02764 -1.65136 0
M  V30 648 O 62.9102 1.73026 -0.914349 0
M  V30 649 C 63.2092 -0.556512 -3.53041 0
M  V30 650 C 62.8752 -1.95861 -4.0614 0
M  V30 651 C 61.5372 -2.34217 -4.20352 0
M  V30 652 C 63.8892 -2.87523 -4.34718 0
M  V30 653 C 61.2172 -3.63572 -4.6047 0
M  V30 654 C 63.5692 -4.1634 -4.76281 0
M  V30 655 C 62.2332 -4.54675 -4.88699 0
M  V30 656 H 61.5032 -0.149644 -0.725732 0
M  V30 657 H 64.1502 -1.04521 -1.6046 0
M  V30 658 H 62.4552 0.163148 -3.9146 0
M  V30 659 H 64.1522 -0.217826 -4.00408 0
M  V30 660 H 60.7422 -1.65066 -3.95539 0
M  V30 661 H 64.9262 -2.59133 -4.23277 0
M  V30 662 H 60.1822 -3.93101 -4.68275 0
M  V30 663 H 64.3562 -4.87455 -4.97354 0
M  V30 664 H 61.9832 -5.54959 -5.19542 0
M  V30 665 N 63.5583 1.46682 -0.576371 0
M  V30 666 C 64.4683 2.34032 0.163141 0
M  V30 667 C 65.4843 1.49367 0.892501 0
M  V30 668 O 66.6603 1.82252 0.857106 0
M  V30 669 C 63.7253 3.26435 1.16795 0
M  V30 670 C 62.7863 4.26998 0.443944 0
M  V30 671 C 62.0193 5.14986 1.40088 0
M  V30 672 O 62.2423 5.05785 2.637 0
M  V30 673 O 61.1763 5.94906 0.914917 0
M  V30 674 H 65.0023 2.98607 -0.55388 0
M  V30 675 H 62.5873 1.45554 -0.336821 0
M  V30 676 H 64.4693 3.83459 1.74748 0
M  V30 677 H 63.1443 2.64465 1.86655 0
M  V30 678 H 62.0513 3.7368 -0.177271 0
M  V30 679 H 63.3843 4.91736 -0.213566 0
M  V30 680 N 65.0364 0.313813 1.54444 0
M  V30 681 C 65.9834 -0.55655 2.23989 0
M  V30 682 C 66.9534 -1.11943 1.22711 0
M  V30 683 O 68.1384 -1.16158 1.51367 0
M  V30 684 C 65.2784 -1.71635 2.99392 0
M  V30 685 C 64.3914 -1.18364 4.15468 0
M  V30 686 C 63.5264 -2.30834 4.78424 0
M  V30 687 C 62.5654 -1.74762 5.86622 0
M  V30 688 N 61.7024 -2.80855 6.43479 0
M  V30 689 H 66.5424 0.0430893 2.97969 0
M  V30 690 H 64.0794 0.0330359 1.47063 0
M  V30 691 H 66.0374 -2.39868 3.41349 0
M  V30 692 H 64.6674 -2.28742 2.27765 0
M  V30 693 H 63.7194 -0.393163 3.78363 0
M  V30 694 H 65.0314 -0.733262 4.93381 0
M  V30 695 H 64.1854 -3.0699 5.23299 0
M  V30 696 H 62.9244 -2.79204 3.99871 0
M  V30 697 H 61.9294 -0.970995 5.41158 0
M  V30 698 H 63.1544 -1.2728 6.67066 0
M  V30 699 H 61.1004 -3.28535 5.67804 0
M  V30 700 H 61.0174 -2.40351 7.16776 0
M  V30 701 H 62.2854 -3.5687 6.93011 0
M  V30 702 N 66.5145 -1.57545 0.0417849 0
M  V30 703 C 67.9255 -1.80011 -0.495259 0
M  V30 704 C 68.2765 -0.953199 -1.71489 0
M  V30 705 O 67.4015 -0.167138 -2.15754 0
M  V30 706 C 67.9965 -3.26482 -0.905265 0
M  V30 707 C 66.5555 -3.499 -1.38734 0
M  V30 708 C 65.7025 -2.74979 -0.358056 0
M  V30 709 H 68.6535 -1.56425 0.267736 0
M  V30 710 H 68.6745 -3.36887 -1.76882 0
M  V30 711 H 68.1865 -3.88096 -0.017401 0
M  V30 712 H 66.2875 -2.93553 -2.29471 0
M  V30 713 H 66.4005 -4.58615 -1.38598 0
M  V30 714 H 64.7645 -2.40834 -0.828912 0
M  V30 715 H 65.5475 -3.39315 0.521561 0
M  V30 716 N 67.9926 0.231505 -1.5589 0
M  V30 717 C 69.2176 0.978689 -1.82856 0
M  V30 718 C 69.6426 1.77559 -0.620846 0
M  V30 719 O 69.0006 1.76119 0.430305 0
M  V30 720 C 69.0486 1.87997 -3.07716 0
M  V30 721 O 68.1526 2.97393 -2.85712 0
M  V30 722 H 67.4936 0.277663 -0.603158 0
M  V30 723 H 70.0236 0.24783 -2.03093 0
M  V30 724 H 70.0336 2.2917 -3.37558 0
M  V30 725 H 68.7086 1.29417 -3.95252 0
M  V30 726 H 67.2856 2.60238 -2.67078 0
M  V30 727 N 69.4707 1.49531 0.497807 0
M  V30 728 C 70.4337 1.65916 1.58128 0
M  V30 729 C 71.4337 0.530825 1.51786 0
M  V30 730 O 72.6237 0.797342 1.54881 0
M  V30 731 C 69.7557 1.65951 2.9778 0
M  V30 732 H 70.9487 2.62556 1.44929 0
M  V30 733 H 68.5017 1.38611 0.722275 0
M  V30 734 H 69.2367 0.709065 3.16453 0
M  V30 735 H 69.0217 2.47897 3.03792 0
M  V30 736 H 70.5117 1.80673 3.76493 0
M  V30 737 N 70.9488 -0.749086 1.3866 0
M  V30 738 C 72.1978 -1.50371 1.3443 0
M  V30 739 C 72.5108 -1.95503 -0.0616397 0
M  V30 740 O 73.7168 -2.70554 -0.226489 0
M  V30 741 C 72.1728 -2.71644 2.36088 0
M  V30 742 C 71.7808 -2.3352 3.82325 0
M  V30 743 C 73.5248 -3.49518 2.40909 0
M  V30 744 C 71.4318 -3.51431 4.75658 0
M  V30 745 H 70.3618 -0.564628 0.499712 0
M  V30 746 H 73.0128 -0.818449 1.64237 0
M  V30 747 H 71.3948 -3.42175 1.9933 0
M  V30 748 H 72.5688 -1.70627 4.28046 0
M  V30 749 H 70.8838 -1.6877 3.80665 0
M  V30 750 H 73.4808 -4.37197 3.07836 0
M  V30 751 H 73.8238 -3.90992 1.42937 0
M  V30 752 H 74.3568 -2.86005 2.76489 0
M  V30 753 H 71.0958 -3.15019 5.74842 0
M  V30 754 H 70.6158 -4.13352 4.34627 0
M  V30 755 H 72.2948 -4.17953 4.93887 0
M  V30 756 N 72.4269 -1.23603 -0.977757 0
M  V30 757 C 73.3589 -0.977369 -2.07317 0
M  V30 758 C 74.3719 0.0495845 -1.62724 0
M  V30 759 O 75.5609 -0.186261 -1.77526 0
M  V30 760 C 72.6609 -0.451216 -3.35883 0
M  V30 761 C 71.8339 -1.53896 -4.09432 0
M  V30 762 C 70.8929 -1.01721 -5.16274 0
M  V30 763 O 69.9189 -1.70676 -5.43009 0
M  V30 764 N 71.1209 0.153594 -5.80297 0
M  V30 765 H 73.8859 -1.92047 -2.30082 0
M  V30 766 H 71.4469 -1.14497 -1.14465 0
M  V30 767 H 73.4389 -0.0871574 -4.04606 0
M  V30 768 H 72.0089 0.397368 -3.10064 0
M  V30 769 H 71.2289 -2.07566 -3.35127 0
M  V30 770 H 72.5169 -2.27037 -4.55337 0
M  V30 771 H 71.9149 0.730323 -5.60966 0
M  V30 772 H 70.4719 0.458892 -6.50183 0
M  V30 773 N 73.905 1.17692 -1.04816 0
M  V30 774 C 74.837 2.21103 -0.603822 0
M  V30 775 C 75.85 1.59411 0.33046 0
M  V30 776 O 77.039 1.7807 0.12379 0
M  V30 777 C 74.139 3.38623 0.136898 0
M  V30 778 C 73.312 4.29888 -0.807137 0
M  V30 779 C 72.371 5.26088 -0.10836 0
M  V30 780 O 71.397 5.64353 -0.741232 0
M  V30 781 N 72.599 5.68882 1.15558 0
M  V30 782 H 75.364 2.59848 -1.49329 0
M  V30 783 H 72.925 1.32553 -0.929587 0
M  V30 784 H 74.917 4.00009 0.614401 0
M  V30 785 H 73.487 2.98508 0.927993 0
M  V30 786 H 72.707 3.65993 -1.46434 0
M  V30 787 H 73.995 4.87759 -1.44807 0
M  V30 788 H 73.393 5.39861 1.69015 0
M  V30 789 H 71.95 6.32429 1.57722 0
M  V30 790 N 75.3831 0.828654 1.34056 0
M  V30 791 C 76.7991 0.515135 1.51058 0
M  V30 792 C 76.9991 -0.959581 1.77184 0
M  V30 793 O 76.0551 -1.74382 1.82612 0
M  V30 794 C 77.3681 1.37963 2.67183 0
M  V30 795 C 78.9161 1.37735 2.81066 0
M  V30 796 C 79.3911 2.22645 4.00241 0
M  V30 797 N 80.8821 2.203 4.07458 0
M  V30 798 C 81.6171 2.82744 4.98842 0
M  V30 799 N 81.1131 3.54201 5.9541 0
M  V30 800 N 82.9061 2.72268 4.91759 0
M  V30 801 H 75.0571 1.78343 1.15358 0
M  V30 802 H 77.3201 0.760304 0.566252 0
M  V30 803 H 77.0261 2.42714 2.54525 0
M  V30 804 H 76.9001 1.0484 3.62338 0
M  V30 805 H 79.2871 0.337593 2.93163 0
M  V30 806 H 79.3681 1.74859 1.86703 0
M  V30 807 H 79.0121 3.26674 3.88905 0
M  V30 808 H 78.9421 1.82869 4.93829 0
M  V30 809 H 81.4331 1.68327 3.38341 0
M  V30 810 H 81.7461 3.9908 6.61782 0
M  V30 811 H 80.0911 3.58308 5.95517 0
M  V30 812 H 83.2821 2.16014 4.15278 0
M  V30 813 H 83.4551 3.21219 5.62781 0
M  V30 814 N 76.8612 -1.46375 0.584142 0
M  V30 815 C 78.1092 -2.01978 0.0701287 0
M  V30 816 C 78.4302 -1.4579 -1.295 0
M  V30 817 O 77.7002 -0.64314 -1.85042 0
M  V30 818 H 76.2802 -0.746648 0.0229345 0
M  V30 819 H 78.9422 -1.79461 0.760245 0
M  V30 820 H 78.0382 -3.121 0.0022064 0
M  V30 821 N 78.3393 -0.321999 -1.54275 0
M  V30 822 C 79.5883 0.281931 -1.9972 0
M  V30 823 C 79.9013 1.53369 -1.21397 0
M  V30 824 O 81.1073 2.21352 -1.57211 0
M  V30 825 C 79.5633 0.5529 -3.55628 0
M  V30 826 C 79.1713 -0.681721 -4.42783 0
M  V30 827 C 80.9153 1.11687 -4.09544 0
M  V30 828 C 78.8223 -0.382742 -5.9016 0
M  V30 829 H 77.7523 0.109124 -0.746062 0
M  V30 830 H 80.4033 -0.43398 -1.78294 0
M  V30 831 H 78.7853 1.32896 -3.73035 0
M  V30 832 H 79.9593 -1.45723 -4.37151 0
M  V30 833 H 78.2743 -1.1658 -3.99748 0
M  V30 834 H 80.8713 1.35515 -5.17242 0
M  V30 835 H 81.2143 2.06575 -3.61431 0
M  V30 836 H 81.7473 0.402032 -3.95763 0
M  V30 837 H 78.4863 -1.30076 -6.42464 0
M  V30 838 H 78.0063 0.355094 -5.98748 0
M  V30 839 H 79.6853 0.00800157 -6.47 0
M  V30 840 N 79.8174 1.5752 -0.0501392 0
M  V30 841 C 80.7644 2.1147 0.924603 0
M  V30 842 C 81.7344 1.02182 1.30951 0
M  V30 843 O 82.9194 1.29723 1.39916 0
M  V30 844 C 80.0594 2.66337 2.19451 0
M  V30 845 C 79.1724 3.89708 1.86418 0
M  V30 846 C 78.3074 4.32893 3.07859 0
M  V30 847 C 77.3464 5.48967 2.70742 0
M  V30 848 N 76.4834 5.87211 3.84874 0
M  V30 849 H 81.3234 2.94465 0.457639 0
M  V30 850 H 78.8604 1.45531 0.214266 0
M  V30 851 H 80.8184 2.96247 2.93758 0
M  V30 852 H 79.4484 1.86141 2.63726 0
M  V30 853 H 78.5004 3.66396 1.02264 0
M  V30 854 H 79.8124 4.74074 1.55096 0
M  V30 855 H 78.9664 4.6435 3.90466 0
M  V30 856 H 77.7054 3.47336 3.42358 0
M  V30 857 H 76.7104 5.17183 1.86551 0
M  V30 858 H 77.9354 6.3624 2.37436 0
M  V30 859 H 75.8814 5.04607 4.19175 0
M  V30 860 H 75.7984 6.66266 3.57247 0
M  V30 861 H 77.0664 6.23282 4.68123 0
M  V30 862 N 81.2955 -0.223234 1.56011 0
M  V30 863 C 82.7065 -0.790368 1.69145 0
M  V30 864 C 83.0575 -1.85055 0.651845 0
M  V30 865 O 82.1825 -2.15498 -0.197359 0
M  V30 866 C 82.7775 -1.4404 3.06656 0
M  V30 867 C 81.3365 -1.95494 3.2165 0
M  V30 868 C 80.4835 -0.814506 2.65068 0
M  V30 869 H 83.4345 0.00139011 1.587 0
M  V30 870 H 83.4555 -2.30916 3.0242 0
M  V30 871 H 82.9675 -0.668543 3.82298 0
M  V30 872 H 81.0685 -2.75487 2.50874 0
M  V30 873 H 81.1815 -2.13607 4.28846 0
M  V30 874 H 79.5455 -1.22137 2.23505 0
M  V30 875 H 80.3285 -0.0553515 3.43255 0
M  V30 876 N 82.7736 -1.49793 -0.48987 0
M  V30 877 C 84.0226 -1.59085 -1.23995 0
M  V30 878 C 84.3356 -0.287907 -1.9347 0
M  V30 879 O 85.5416 -0.259506 -2.70257 0
M  V30 880 C 83.9976 -2.80736 -2.252 0
M  V30 881 C 83.6056 -4.17833 -1.61614 0
M  V30 882 C 85.3496 -2.99364 -3.00967 0
M  V30 883 C 83.2566 -5.30693 -2.60996 0
M  V30 884 H 82.1866 -0.592372 -0.466488 0
M  V30 885 H 84.8376 -1.76197 -0.51252 0
M  V30 886 H 83.2196 -2.57142 -3.01154 0
M  V30 887 H 84.3936 -4.51608 -0.915774 0
M  V30 888 H 82.7086 -4.04656 -0.981977 0
M  V30 889 H 85.3056 -3.80851 -3.75308 0
M  V30 890 H 85.6486 -2.10356 -3.59244 0
M  V30 891 H 86.1816 -3.2305 -2.32128 0
M  V30 892 H 82.9206 -6.21796 -2.07485 0
M  V30 893 H 82.4406 -5.01359 -3.2924 0
M  V30 894 H 84.1196 -5.6049 -3.23202 0
M  V30 895 N 84.2517 0.741722 -1.39055 0
M  V30 896 C 85.1817 1.869 -1.39966 0
M  V30 897 C 86.1627 1.6804 -0.26392 0
M  V30 898 O 87.3477 1.88458 -0.468755 0
M  V30 899 C 84.4777 3.24572 -1.23574 0
M  V30 900 C 83.4317 3.58056 -2.34477 0
M  V30 901 C 82.7577 4.94593 -2.0318 0
M  V30 902 C 84.0577 3.61716 -3.76774 0
M  V30 903 H 85.7517 1.86395 -2.34302 0
M  V30 904 H 83.2977 0.895361 -1.1278 0
M  V30 905 H 85.2507 4.031 -1.22834 0
M  V30 906 H 83.9747 3.25587 -0.257045 0
M  V30 907 H 82.6337 2.81854 -2.34423 0
M  V30 908 H 82.2817 4.92181 -1.03765 0
M  V30 909 H 81.9817 5.17964 -2.77465 0
M  V30 910 H 83.5057 5.75486 -2.04079 0
M  V30 911 H 84.9197 4.30335 -3.78794 0
M  V30 912 H 83.3167 3.96603 -4.50362 0
M  V30 913 H 84.3867 2.61672 -4.08235 0
M  V30 914 N 85.7298 1.2412 0.971189 0
M  V30 915 C 86.6778 1.02812 2.08644 0
M  V30 916 C 87.6718 -0.0358403 1.69362 0
M  V30 917 O 88.8778 0.118429 1.7961 0
M  V30 918 H 85.2528 0.315428 0.682649 0
M  V30 919 H 87.2238 1.97397 2.23779 0
M  V30 920 C 85.9728 0.645874 3.41649 0
M  V30 921 H 85.2958 1.45632 3.72332 0
M  V30 922 H 86.7358 0.536366 4.20594 0
M  V30 923 C 85.1948 -0.646713 3.30635 0
M  V30 924 O 85.7248 -1.69338 3.64263 0
M  V30 925 N 83.9308 -0.626115 2.83775 0
M  V30 926 H 83.4778 0.225988 2.56607 0
M  V30 927 H 83.4358 -1.49117 2.76788 0
M  V30 928 N 87.2079 -1.17134 1.05439 0
M  V30 929 C 88.4559 -1.87085 0.764429 0
M  V30 930 C 88.7769 -1.81584 -0.710787 0
M  V30 931 O 88.0469 -1.24349 -1.51374 0
M  V30 932 H 86.6269 -0.692627 0.279779 0
M  V30 933 H 89.2889 -1.42087 1.33406 0
M  V30 934 H 88.3849 -2.92759 1.0816 0
M  V30 935 N 88.686 -0.835752 -1.33615 0
M  V30 936 C 89.916 -0.442701 -2.01801 0
M  V30 937 C 90.324 0.959807 -1.63047 0
M  V30 938 O 89.667 1.63468 -0.838088 0
M  V30 939 C 89.729 -0.480125 -3.56279 0
M  V30 940 C 89.393 -1.8382 -4.18401 0
M  V30 941 C 90.39 -2.80097 -4.37998 0
M  V30 942 C 88.075 -2.13019 -4.54894 0
M  V30 943 C 90.069 -4.03736 -4.9323 0
M  V30 944 C 87.756 -3.36916 -5.09834 0
M  V30 945 C 88.754 -4.32091 -5.28948 0
M  V30 946 O 88.442 -5.53797 -5.82721 0
M  V30 947 H 88.174 -0.17441 -0.653114 0
M  V30 948 H 90.728 -1.129 -1.71589 0
M  V30 949 H 88.958 0.262931 -3.85805 0
M  V30 950 H 90.647 -0.105335 -4.05763 0
M  V30 951 H 91.413 -2.58838 -4.10156 0
M  V30 952 H 87.292 -1.39733 -4.39313 0
M  V30 953 H 90.836 -4.78034 -5.08064 0
M  V30 954 H 86.733 -3.58033 -5.37106 0
M  V30 955 H 87.501 -5.55494 -6.0114 0
M  V30 956 N 90.1641 1.46063 -0.591896 0
M  V30 957 C 91.4411 1.95595 -0.0137119 0
M  V30 958 C 91.8211 1.5345 1.4497 0
M  V30 959 O 91.1691 0.789543 2.14426 0
M  V30 960 C 91.3791 3.48453 -0.195373 0
M  V30 961 C 92.7271 4.24546 -0.0679765 0
M  V30 962 O 93.7511 3.55982 -0.124681 0
M  V30 963 O 92.6101 5.46467 0.0600579 0
M  V30 964 H 89.7041 0.825795 0.0446279 0
M  V30 965 H 92.2501 1.56303 -0.660859 0
M  V30 966 H 91.0221 3.72045 -1.21235 0
M  V30 967 H 90.6451 3.94597 0.487775 0
M  V30 968 N 91.6422 0.330177 1.54103 0
M  V30 969 C 92.8702 -0.272179 2.05102 0
M  V30 970 C 93.2852 -1.45267 1.20595 0
M  V30 971 O 92.6422 -1.8094 0.238144 0
M  V30 972 C 92.6932 -0.70023 3.54653 0
M  V30 973 O 92.4142 0.433301 4.35952 0
M  V30 974 C 93.9152 -1.3647 4.21771 0
M  V30 975 H 91.1352 -0.0549159 0.668749 0
M  V30 976 H 93.6792 0.478285 1.98828 0
M  V30 977 H 91.8342 -1.40066 3.61193 0
M  V30 978 H 92.2482 0.0947539 5.24414 0
M  V30 979 H 93.7222 -1.61509 5.27843 0
M  V30 980 H 94.1992 -2.31409 3.73292 0
M  V30 981 H 94.8052 -0.706675 4.19388 0
M  V30 982 N 93.1203 -1.57491 0.0584922 0
M  V30 983 C 94.3693 -1.92155 -0.613146 0
M  V30 984 C 94.6823 -0.939334 -1.71569 0
M  V30 985 O 95.8883 -1.17829 -2.44599 0
M  V30 986 C 94.3443 -3.41303 -1.14195 0
M  V30 987 C 93.9523 -4.47944 -0.0711265 0
M  V30 988 C 95.6963 -3.84988 -1.78841 0
M  V30 989 C 93.6033 -5.88212 -0.613225 0
M  V30 990 H 92.5333 -0.717162 -0.232796 0
M  V30 991 H 95.1843 -1.83049 0.12857 0
M  V30 992 H 93.5663 -3.45437 -1.93621 0
M  V30 993 H 94.7403 -4.55408 0.702836 0
M  V30 994 H 93.0553 -4.13644 0.478313 0
M  V30 995 H 95.6523 -4.87159 -2.20408 0
M  V30 996 H 95.9953 -3.21632 -2.64308 0
M  V30 997 H 96.5283 -3.83401 -1.06059 0
M  V30 998 H 93.2673 -6.55183 0.203978 0
M  V30 999 H 92.7873 -5.84294 -1.35501 0
M  V30 1000 H 94.4663 -6.37687 -1.09383 0
M  V30 1001 N 94.5984 0.214957 -1.56127 0
M  V30 1002 C 95.8464 0.936518 -1.79091 0
M  V30 1003 C 96.1674 1.84606 -0.628148 0
M  V30 1004 O 95.4374 1.92664 0.35462 0
M  V30 1005 H 94.0174 0.3488 -0.660566 0
M  V30 1006 H 96.6794 0.22523 -1.93594 0
M  V30 1007 H 95.7754 1.53943 -2.71492 0
M  V30 1008 N 96.0765 1.50051 0.48192 0
M  V30 1009 C 97.0085 1.64263 1.59844 0
M  V30 1010 C 98.0215 0.52451 1.54119 0
M  V30 1011 O 99.2105 0.797293 1.59704 0
M  V30 1012 C 96.3105 1.60102 2.98698 0
M  V30 1013 C 95.4835 2.87767 3.29407 0
M  V30 1014 C 94.5425 2.76397 4.47762 0
M  V30 1015 O 93.5685 3.50348 4.48603 0
M  V30 1016 N 94.7705 1.89222 5.48794 0
M  V30 1017 H 97.5355 2.60566 1.48073 0
M  V30 1018 H 95.0965 1.47379 0.670149 0
M  V30 1019 H 97.0885 1.50123 3.75826 0
M  V30 1020 H 95.6585 0.715798 3.04294 0
M  V30 1021 H 94.8785 3.11954 2.40994 0
M  V30 1022 H 96.1665 3.72365 3.4673 0
M  V30 1023 H 95.5645 1.28434 5.50928 0
M  V30 1024 H 94.1215 1.85154 6.24949 0
M  V30 1025 N 97.5546 -0.734337 1.39446 0
M  V30 1026 C 98.5176 -1.83004 1.37994 0
M  V30 1027 C 99.5176 -1.58397 0.276938 0
M  V30 1028 O 100.708 -1.65785 0.534875 0
M  V30 1029 C 97.8396 -3.20802 1.1532 0
M  V30 1030 H 99.0326 -1.85694 2.35494 0
M  V30 1031 H 96.5856 -0.938059 1.25021 0
M  V30 1032 H 97.3206 -3.23772 0.185036 0
M  V30 1033 H 97.1056 -3.4006 1.95197 0
M  V30 1034 H 98.5956 -4.00862 1.17046 0
M  V30 1035 N 99.0327 -1.24633 -0.964593 0
M  V30 1036 C 99.9647 -0.999302 -2.06268 0
M  V30 1037 C 100.978 0.0323226 -1.62768 0
M  V30 1038 O 102.167 -0.205079 -1.77318 0
M  V30 1039 C 99.2667 -0.486816 -3.35385 0
M  V30 1040 C 98.4397 -1.5823 -4.07777 0
M  V30 1041 C 97.4987 -1.07191 -5.15166 0
M  V30 1042 O 96.5247 -1.76426 -5.41168 0
M  V30 1043 N 97.7267 0.0920373 -5.80427 0
M  V30 1044 H 100.492 -1.94477 -2.28033 0
M  V30 1045 H 98.0527 -1.15704 -1.13244 0
M  V30 1046 H 100.045 -0.130066 -4.04491 0
M  V30 1047 H 98.6147 0.364459 -3.10468 0
M  V30 1048 H 97.8347 -2.11109 -3.32906 0
M  V30 1049 H 99.1227 -2.31854 -4.52903 0
M  V30 1050 H 98.5207 0.670784 -5.61709 0
M  V30 1051 H 97.0777 0.389905 -6.50633 0
M  V30 1052 N 100.511 1.16574 -1.06058 0
M  V30 1053 C 101.736 1.91493 -0.796562 0
M  V30 1054 C 102.161 1.76773 0.642868 0
M  V30 1055 O 101.519 1.09142 1.44768 0
M  V30 1056 C 101.567 3.40293 -1.19303 0
M  V30 1057 O 100.671 4.11074 -0.330394 0
M  V30 1058 H 100.012 0.596678 -0.291326 0
M  V30 1059 H 102.542 1.47708 -1.41575 0
M  V30 1060 H 102.552 3.91057 -1.16356 0
M  V30 1061 H 101.227 3.50326 -2.24153 0
M  V30 1062 H 99.8038 3.70513 -0.421225 0
M  V30 1063 N 101.989 0.842826 1.3317 0
M  V30 1064 C 103.237 0.439577 1.97262 0
M  V30 1065 C 103.558 -1.00548 1.67078 0
M  V30 1066 O 102.828 -1.70098 0.971779 0
M  V30 1067 H 101.408 0.159558 0.72976 0
M  V30 1068 H 104.07 1.07665 1.62463 0
M  V30 1069 H 103.166 0.574886 3.0676 0
M  V30 1070 N 103.467 -1.45747 0.599634 0
M  V30 1071 C 104.695 -2.06668 0.0978551 0
M  V30 1072 C 105.11 -1.44562 -1.21439 0
M  V30 1073 O 104.467 -0.556923 -1.73795 0
M  V30 1074 C 104.518 -3.61456 -0.0567044 0
M  V30 1075 O 104.239 -4.21242 1.20361 0
M  V30 1076 C 105.74 -4.39345 -0.590869 0
M  V30 1077 H 102.96 -0.667825 0.0651943 0
M  V30 1078 H 105.504 -1.87115 0.82511 0
M  V30 1079 H 103.659 -3.80378 -0.734251 0
M  V30 1080 H 104.073 -5.14323 1.02821 0
M  V30 1081 H 105.547 -5.48182 -0.648131 0
M  V30 1082 H 106.024 -4.08568 -1.61147 0
M  V30 1083 H 106.63 -4.25268 0.0523679 0
M  V30 1084 N 104.945 -0.338344 -1.53925 0
M  V30 1085 C 106.193 0.259245 -2.0043 0
M  V30 1086 C 106.514 1.51484 -1.22791 0
M  V30 1087 O 105.784 1.93037 -0.33368 0
M  V30 1088 H 104.364 0.0987845 -0.740439 0
M  V30 1089 H 107.026 -0.458302 -1.89435 0
M  V30 1090 H 106.122 0.505334 -3.07982 0
M  V30 1091 N 106.423 1.57458 -0.0668435 0
M  V30 1092 C 107.37 2.12439 0.902122 0
M  V30 1093 C 108.34 1.03565 1.2986 0
M  V30 1094 O 109.525 1.312 1.38532 0
M  V30 1095 C 106.665 2.6865 2.16614 0
M  V30 1096 C 105.778 3.91663 1.82274 0
M  V30 1097 C 104.913 4.36134 3.0325 0
M  V30 1098 C 103.952 5.51808 2.64904 0
M  V30 1099 N 103.089 5.9126 3.78624 0
M  V30 1100 H 107.929 2.94934 0.426382 0
M  V30 1101 H 105.466 1.4575 0.198819 0
M  V30 1102 H 107.424 2.99346 2.90599 0
M  V30 1103 H 106.054 1.88928 2.61737 0
M  V30 1104 H 105.106 3.6746 0.983719 0
M  V30 1105 H 106.418 4.75693 1.50059 0
M  V30 1106 H 105.572 4.68465 3.85519 0
M  V30 1107 H 104.311 3.50948 3.38655 0
M  V30 1108 H 103.316 5.19133 1.81055 0
M  V30 1109 H 104.541 6.38722 2.30675 0
M  V30 1110 H 102.487 5.09024 4.138 0
M  V30 1111 H 102.404 6.70018 3.5016 0
M  V30 1112 H 103.672 6.28212 4.61486 0
M  V30 1113 N 107.901 -0.206675 1.56239 0
M  V30 1114 C 109.129 -0.945345 1.8404 0
M  V30 1115 C 109.544 -1.77336 0.647885 0
M  V30 1116 O 108.901 -1.78425 -0.383511 0
M  V30 1117 C 108.952 -1.8509 3.10522 0
M  V30 1118 O 108.673 -1.05634 4.25174 0
M  V30 1119 C 110.174 -2.70222 3.51418 0
M  V30 1120 H 107.394 -0.276372 0.61144 0
M  V30 1121 H 109.938 -0.217417 2.03341 0
M  V30 1122 H 108.093 -2.53259 2.93153 0
M  V30 1123 H 108.507 -1.67238 4.97124 0
M  V30 1124 H 109.981 -3.29438 4.42916 0
M  V30 1125 H 110.458 -3.43358 2.73864 0
M  V30 1126 H 111.064 -2.07443 3.71278 0
M  V30 1127 N 109.379 -1.50304 -0.473955 0
M  V30 1128 C 110.342 -1.6841 -1.55469 0
M  V30 1129 C 111.342 -0.554905 -1.50922 0
M  V30 1130 O 112.532 -0.821882 -1.53593 0
M  V30 1131 C 109.664 -1.70667 -2.95102 0
M  V30 1132 H 110.857 -2.64828 -1.40733 0
M  V30 1133 H 108.41 -1.39742 -0.700132 0
M  V30 1134 H 109.145 -0.75932 -3.15285 0
M  V30 1135 H 108.93 -2.52698 -2.9981 0
M  V30 1136 H 110.42 -1.8664 -3.73571 0
M  V30 1137 N 110.857 0.726932 -1.39834 0
M  V30 1138 C 112.085 1.51613 -1.40787 0
M  V30 1139 C 112.5 1.88799 -0.00451505 0
M  V30 1140 O 111.857 1.54662 0.968809 0
M  V30 1141 C 111.908 2.79863 -2.28821 0
M  V30 1142 O 111.629 2.44253 -3.63692 0
M  V30 1143 C 113.13 3.73837 -2.38245 0
M  V30 1144 H 110.35 0.468264 -0.480593 0
M  V30 1145 H 112.894 0.897607 -1.83748 0
M  V30 1146 H 111.049 3.38027 -1.89252 0
M  V30 1147 H 111.463 3.26695 -4.1033 0
M  V30 1148 H 112.937 4.60699 -3.04073 0
M  V30 1149 H 113.414 4.16153 -1.40403 0
M  V30 1150 H 114.02 3.21589 -2.78317 0
M  V30 1151 N 112.336 1.25143 0.95797 0
M  V30 1152 C 113.583 1.09692 1.70217 0
M  V30 1153 C 113.911 -0.362654 1.91089 0
M  V30 1154 O 113.166 -1.28386 1.47701 0
M  V30 1155 C 113.465 1.79272 3.09187 0
M  V30 1156 C 113.131 3.29196 3.08125 0
M  V30 1157 C 111.793 3.70096 3.07543 0
M  V30 1158 C 114.145 4.24995 3.0171 0
M  V30 1159 C 111.473 5.05213 2.9829 0
M  V30 1160 C 113.825 5.60132 2.93999 0
M  V30 1161 C 112.489 6.00365 2.9175 0
M  V30 1162 H 111.759 0.401393 0.622868 0
M  V30 1163 H 114.406 1.55372 1.11945 0
M  V30 1164 H 112.711 1.26014 3.70982 0
M  V30 1165 H 114.408 1.64773 3.65583 0
M  V30 1166 H 110.998 2.96651 3.09348 0
M  V30 1167 H 115.182 3.9439 3.01281 0
M  V30 1168 H 110.438 5.35569 2.94916 0
M  V30 1169 H 114.612 6.3406 2.87996 0
M  V30 1170 H 112.239 7.05023 2.84336 0
M  V30 1171 N 113.814 -1.1601 1.06675 0
M  V30 1172 C 115.06 -1.86909 0.786945 0
M  V30 1173 C 115.393 -1.81717 -0.685018 0
M  V30 1174 O 114.668 -1.23551 -1.50218 0
M  V30 1175 C 114.951 -3.36313 1.28707 0
M  V30 1176 C 114.804 -3.50175 2.82308 0
M  V30 1177 C 116.123 -4.3084 0.898071 0
M  V30 1178 H 113.242 -0.678677 0.287343 0
M  V30 1179 H 115.884 -1.36336 1.32334 0
M  V30 1180 H 114.034 -3.79513 0.830768 0
M  V30 1181 H 115.706 -3.15886 3.36175 0
M  V30 1182 H 113.949 -2.91959 3.20847 0
M  V30 1183 H 114.62 -4.55116 3.12368 0
M  V30 1184 H 117.096 -3.95561 1.29114 0
M  V30 1185 H 115.972 -5.33876 1.27543 0
M  V30 1186 H 116.233 -4.41662 -0.196651 0
M  V30 1187 N 115.292 -0.849877 -1.32721 0
M  V30 1188 C 116.541 -0.447175 -1.96681 0
M  V30 1189 C 116.854 1.00135 -1.68025 0
M  V30 1190 O 118.06 1.50926 -2.25685 0
M  V30 1191 C 116.516 -0.7487 -3.52026 0
M  V30 1192 C 116.124 -2.21264 -3.89546 0
M  V30 1193 C 117.868 -0.413487 -4.22481 0
M  V30 1194 C 115.775 -2.45763 -5.37917 0
M  V30 1195 H 114.705 -0.163486 -0.736063 0
M  V30 1196 H 117.356 -1.03999 -1.51183 0
M  V30 1197 H 115.738 -0.0853727 -3.95908 0
M  V30 1198 H 116.912 -2.91736 -3.56689 0
M  V30 1199 H 115.227 -2.5119 -3.32103 0
M  V30 1200 H 117.824 -0.574017 -5.3161 0
M  V30 1201 H 118.167 0.644492 -4.11281 0
M  V30 1202 H 118.7 -1.03251 -3.84167 0
M  V30 1203 H 115.439 -3.50168 -5.54132 0
M  V30 1204 H 114.959 -1.79864 -5.72197 0
M  V30 1205 H 116.638 -2.29471 -6.0494 0
M  V30 1206 N 116.77 1.45427 -0.607355 0
M  V30 1207 C 117.995 2.07124 -0.107006 0
M  V30 1208 C 118.42 1.44906 1.19933 0
M  V30 1209 O 117.778 0.541687 1.73019 0
M  V30 1210 C 117.826 3.60595 0.0194119 0
M  V30 1211 O 116.93 3.98285 1.0697 0
M  V30 1212 H 116.271 0.659868 -0.0739597 0
M  V30 1213 H 118.801 1.86683 -0.837297 0
M  V30 1214 H 118.811 4.07419 0.2177 0
M  V30 1215 H 117.486 4.05266 -0.934453 0
M  V30 1216 H 116.063 3.63133 0.847889 0
M  V30 1217 N 118.248 0.346503 1.53744 0
M  V30 1218 C 119.473 -0.253074 2.0585 0
M  V30 1219 C 119.898 -1.43202 1.21962 0
M  V30 1220 O 119.256 -1.79783 0.234073 0
M  V30 1221 C 119.304 -0.643193 3.54817 0
M  V30 1222 O 118.408 -1.74286 3.73762 0
M  V30 1223 H 117.749 -0.0413583 0.662711 0
M  V30 1224 H 120.279 0.501574 1.98357 0
M  V30 1225 H 120.289 -0.919526 3.97503 0
M  V30 1226 H 118.964 0.218966 4.15323 0
M  V30 1227 H 117.541 -1.46356 3.42979 0
M  V30 1228 N 119.726 -1.57421 0.075193 0
M  V30 1229 C 120.656 -2.15942 -0.888324 0
M  V30 1230 C 121.637 -1.08737 -1.30806 0
M  V30 1231 O 122.822 -1.36787 -1.37851 0
M  V30 1232 C 119.952 -2.72379 -2.1547 0
M  V30 1233 C 118.906 -3.8478 -1.87425 0
M  V30 1234 C 118.232 -4.27834 -3.20721 0
M  V30 1235 C 119.532 -5.08869 -1.17684 0
M  V30 1236 H 121.226 -2.96705 -0.400799 0
M  V30 1237 H 118.772 -1.42723 -0.191342 0
M  V30 1238 H 120.725 -3.11965 -2.83295 0
M  V30 1239 H 119.449 -1.88841 -2.6647 0
M  V30 1240 H 118.108 -3.45703 -1.22004 0
M  V30 1241 H 117.756 -3.41214 -3.6957 0
M  V30 1242 H 117.456 -5.03605 -3.02746 0
M  V30 1243 H 118.98 -4.70039 -3.89738 0
M  V30 1244 H 120.394 -5.4575 -1.75584 0
M  V30 1245 H 118.791 -5.8994 -1.09956 0
M  V30 1246 H 119.861 -4.84648 -0.156453 0
M  V30 1247 N 121.204 0.198386 -1.56346 0
M  V30 1248 C 122.136 1.26987 -1.90806 0
M  V30 1249 C 123.149 1.41877 -0.798419 0
M  V30 1250 O 124.338 1.42362 -1.07682 0
M  V30 1251 C 121.438 2.64246 -2.12196 0
M  V30 1252 C 120.611 2.71007 -3.43328 0
M  V30 1253 C 119.67 3.89439 -3.5387 0
M  V30 1254 O 118.696 3.76695 -4.26719 0
M  V30 1255 N 119.898 5.04752 -2.86715 0
M  V30 1256 H 122.663 0.977433 -2.83313 0
M  V30 1257 H 120.224 0.388322 -1.57174 0
M  V30 1258 H 122.216 3.41896 -2.1654 0
M  V30 1259 H 120.786 2.85992 -1.26204 0
M  V30 1260 H 120.006 1.79657 -3.50881 0
M  V30 1261 H 121.294 2.72512 -4.29668 0
M  V30 1262 H 120.692 5.18004 -2.2735 0
M  V30 1263 H 119.249 5.8036 -2.96691 0
M  V30 1264 N 122.682 1.50554 0.465978 0
M  V30 1265 C 123.612 1.72722 1.57128 0
M  V30 1266 C 124.593 0.576294 1.6004 0
M  V30 1267 O 125.778 0.81598 1.76225 0
M  V30 1268 C 122.908 1.82605 2.95419 0
M  V30 1269 C 121.862 2.97835 3.07373 0
M  V30 1270 C 121.188 2.92867 4.47363 0
M  V30 1271 C 122.488 4.38265 2.84114 0
M  V30 1272 H 124.182 2.65267 1.38829 0
M  V30 1273 H 121.728 1.2765 0.666441 0
M  V30 1274 H 123.681 1.96698 3.72677 0
M  V30 1275 H 122.405 0.866858 3.14886 0
M  V30 1276 H 121.064 2.83401 2.3255 0
M  V30 1277 H 120.712 1.94783 4.63755 0
M  V30 1278 H 120.412 3.70227 4.56296 0
M  V30 1279 H 121.936 3.09015 5.26633 0
M  V30 1280 H 123.35 4.53198 3.51118 0
M  V30 1281 H 121.747 5.17115 3.04487 0
M  V30 1282 H 122.817 4.50281 1.7993 0
M  V30 1283 N 124.16 -0.719506 1.40217 0
M  V30 1284 C 125.409 -1.47486 1.37589 0
M  V30 1285 C 125.722 -1.9559 -0.0201568 0
M  V30 1286 O 126.928 -2.70973 -0.169049 0
M  V30 1287 C 125.384 -2.66575 2.41796 0
M  V30 1288 C 124.992 -2.25358 3.87192 0
M  V30 1289 C 126.736 -3.4433 2.48269 0
M  V30 1290 C 124.643 -3.41262 4.83005 0
M  V30 1291 H 123.573 -0.553901 0.511576 0
M  V30 1292 H 126.224 -0.783427 1.65936 0
M  V30 1293 H 124.606 -3.3787 2.06543 0
M  V30 1294 H 125.78 -1.61509 4.31569 0
M  V30 1295 H 124.095 -1.60657 3.84159 0
M  V30 1296 H 126.692 -4.30569 3.17041 0
M  V30 1297 H 127.035 -3.87872 1.51198 0
M  V30 1298 H 127.568 -2.80076 2.82493 0
M  V30 1299 H 124.307 -3.02755 5.81394 0
M  V30 1300 H 123.827 -4.0404 4.43297 0
M  V30 1301 H 125.506 -4.07383 5.02641 0
M  V30 1302 N 125.638 -1.25649 -0.95132 0
M  V30 1303 C 126.586 -1.06118 -2.06982 0
M  V30 1304 C 127.58 0.00889169 -1.69398 0
M  V30 1305 O 128.786 -0.146988 -1.79399 0
M  V30 1306 H 125.161 -0.326248 -0.677544 0
M  V30 1307 H 127.132 -2.00932 -2.2061 0
M  V30 1308 C 125.881 -0.700145 -3.40578 0
M  V30 1309 H 125.204 -1.51537 -3.69968 0
M  V30 1310 H 126.644 -0.603211 -4.19687 0
M  V30 1311 C 125.103 0.59403 -3.31622 0
M  V30 1312 O 125.633 1.63522 -3.66911 0
M  V30 1313 N 123.839 0.58089 -2.84735 0
M  V30 1314 H 123.386 -0.266783 -2.56215 0
M  V30 1315 H 123.344 1.44695 -2.79125 0
M  V30 1316 N 127.117 1.15442 -1.07289 0
M  V30 1317 C 128.347 1.89821 -0.815576 0
M  V30 1318 C 128.755 1.7823 0.634867 0
M  V30 1319 O 128.098 1.13152 1.44715 0
M  V30 1320 C 128.16 3.40817 -1.14385 0
M  V30 1321 C 127.824 3.76193 -2.59476 0
M  V30 1322 C 128.821 3.77269 -3.57721 0
M  V30 1323 C 126.506 4.0652 -2.95037 0
M  V30 1324 C 128.5 4.08176 -4.89562 0
M  V30 1325 C 126.187 4.37092 -4.27076 0
M  V30 1326 C 127.185 4.37902 -5.24148 0
M  V30 1327 O 126.873 4.67741 -6.53815 0
M  V30 1328 H 126.605 0.608465 -0.294528 0
M  V30 1329 H 129.159 1.472 -1.43252 0
M  V30 1330 H 127.389 3.83835 -0.469865 0
M  V30 1331 H 129.078 3.96485 -0.869179 0
M  V30 1332 H 129.844 3.5394 -3.3159 0
M  V30 1333 H 125.723 4.05049 -2.20128 0
M  V30 1334 H 129.267 4.08723 -5.65324 0
M  V30 1335 H 125.164 4.59889 -4.5296 0
M  V30 1336 H 125.932 4.85509 -6.58957 0
M  V30 1337 N 128.595 0.856903 1.32268 0
M  V30 1338 C 129.872 0.382583 1.91822 0
M  V30 1339 C 130.252 -1.13407 1.78051 0
M  V30 1340 O 129.6 -1.95673 1.18001 0
M  V30 1341 C 129.81 0.849446 3.38505 0
M  V30 1342 C 131.158 0.867936 4.15634 0
M  V30 1343 O 132.182 0.794232 3.47232 0
M  V30 1344 O 131.041 0.972286 5.37781 0
M  V30 1345 H 128.135 0.112014 0.819379 0
M  V30 1346 H 130.681 0.943952 1.41024 0
M  V30 1347 H 129.453 1.89267 3.42482 0
M  V30 1348 H 129.076 0.265652 3.96712 0
M  V30 1349 N 130.073 -1.45103 0.615059 0
M  V30 1350 C 131.303 -2.06254 0.119596 0
M  V30 1351 C 131.711 -1.4591 -1.20445 0
M  V30 1352 O 131.054 -0.570384 -1.7462 0
M  V30 1353 C 131.116 -3.59396 -0.0865591 0
M  V30 1354 C 130.78 -4.42116 1.15683 0
M  V30 1355 C 131.777 -4.7662 2.07676 0
M  V30 1356 C 129.462 -4.82749 1.38775 0
M  V30 1357 C 131.456 -5.50622 3.21082 0
M  V30 1358 C 129.143 -5.56504 2.52481 0
M  V30 1359 C 130.141 -5.90358 3.43463 0
M  V30 1360 O 129.829 -6.62615 4.55189 0
M  V30 1361 H 129.561 -0.672423 0.0694512 0
M  V30 1362 H 132.115 -1.87219 0.844885 0
M  V30 1363 H 130.345 -3.76859 -0.866823 0
M  V30 1364 H 132.034 -4.02365 -0.534555 0
M  V30 1365 H 132.8 -4.4578 1.91063 0
M  V30 1366 H 128.679 -4.55829 0.688545 0
M  V30 1367 H 132.223 -5.76965 3.92119 0
M  V30 1368 H 128.12 -5.86759 2.69043 0
M  V30 1369 H 128.888 -6.81071 4.53966 0
M  V30 1370 N 131.551 -0.354651 -1.53558 0
M  V30 1371 C 132.797 0.238797 -2.01389 0
M  V30 1372 C 133.13 1.49309 -1.2418 0
M  V30 1373 O 132.405 1.91638 -0.332457 0
M  V30 1374 C 132.688 0.541771 -3.56001 0
M  V30 1375 C 132.541 -0.725388 -4.43912 0
M  V30 1376 C 133.86 1.34685 -4.18984 0
M  V30 1377 H 130.979 0.0853177 -0.732045 0
M  V30 1378 H 133.621 -0.477384 -1.83905 0
M  V30 1379 H 131.771 1.15189 -3.71031 0
M  V30 1380 H 133.443 -1.36313 -4.407 0
M  V30 1381 H 131.686 -1.34801 -4.12324 0
M  V30 1382 H 132.357 -0.468505 -5.50008 0
M  V30 1383 H 134.833 0.830837 -4.07721 0
M  V30 1384 H 133.709 1.52759 -5.27215 0
M  V30 1385 H 133.97 2.35221 -3.74331 0
M  V30 1386 N 133.029 1.57378 -0.0835403 0
M  V30 1387 C 133.992 2.12252 0.864959 0
M  V30 1388 C 134.992 1.04916 1.21858 0
M  V30 1389 O 136.182 1.30853 1.14991 0
M  V30 1390 C 133.314 2.63358 2.16461 0
M  V30 1391 H 134.507 2.97371 0.388676 0
M  V30 1392 H 132.06 1.55423 0.165317 0
M  V30 1393 H 132.795 1.81727 2.686 0
M  V30 1394 H 132.58 3.41826 1.92087 0
M  V30 1395 H 134.07 3.05847 2.84337 0
M  V30 1396 N 134.507 -0.190092 1.56449 0
M  V30 1397 C 135.747 -0.916414 1.82705 0
M  V30 1398 C 136.111 -1.80235 0.661763 0
M  V30 1399 O 137.312 -2.56484 0.80433 0
M  V30 1400 C 135.583 -1.70691 3.14005 0
M  V30 1401 S 137.142 -2.48457 3.61683 0
M  V30 1402 H 133.96 -0.307281 0.64117 0
M  V30 1403 H 136.562 -0.179433 1.94675 0
M  V30 1404 H 135.266 -1.04677 3.96826 0
M  V30 1405 H 134.797 -2.48562 3.04927 0
M  V30 1406 H 136.812 -3.72756 3.27517 0
M  V30 1407 N 135.985 -1.50799 -0.457987 0
M  V30 1408 C 136.917 -1.66786 -1.57211 0
M  V30 1409 C 137.93 -0.548962 -1.53265 0
M  V30 1410 O 139.119 -0.8226 -1.58416 0
M  V30 1411 C 136.219 -1.64834 -2.96113 0
M  V30 1412 C 135.392 -2.92971 -3.24787 0
M  V30 1413 C 134.451 -2.83485 -4.43309 0
M  V30 1414 O 133.477 -3.5744 -4.42973 0
M  V30 1415 N 134.679 -1.97929 -5.45714 0
M  V30 1416 H 137.444 -2.62889 -1.43909 0
M  V30 1417 H 135.005 -1.48427 -0.646617 0
M  V30 1418 H 136.997 -1.56084 -3.7339 0
M  V30 1419 H 135.567 -0.764118 -3.03117 0
M  V30 1420 H 134.787 -3.15749 -2.36 0
M  V30 1421 H 136.075 -3.77834 -3.40762 0
M  V30 1422 H 135.473 -1.37182 -5.48815 0
M  V30 1423 H 134.03 -1.95073 -6.21924 0
M  V30 1424 N 137.463 0.71206 -1.40597 0
M  V30 1425 C 138.426 1.80785 -1.40888 0
M  V30 1426 C 139.426 1.57937 -0.302103 0
M  V30 1427 O 140.616 1.64913 -0.561182 0
M  V30 1428 C 137.748 3.18927 -1.20409 0
M  V30 1429 H 138.941 1.81924 -2.38419 0
M  V30 1430 H 136.494 0.91805 -1.26497 0
M  V30 1431 H 137.229 3.23436 -0.236522 0
M  V30 1432 H 137.014 3.36911 -2.00582 0
M  V30 1433 H 138.504 3.98949 -1.23408 0
M  V30 1434 N 138.941 1.26152 0.944643 0
M  V30 1435 C 139.871 1.09902 2.06019 0
M  V30 1436 C 140.852 0.00519538 1.70099 0
M  V30 1437 O 142.037 0.176583 1.93396 0
M  V30 1438 C 139.167 0.727562 3.39594 0
M  V30 1439 C 138.121 1.77274 3.89561 0
M  V30 1440 C 137.447 1.25569 5.19747 0
M  V30 1441 C 138.747 3.17357 4.14827 0
M  V30 1442 H 140.441 2.03217 2.19871 0
M  V30 1443 H 137.987 0.978452 1.05652 0
M  V30 1444 H 139.94 0.600777 4.17095 0
M  V30 1445 H 138.664 -0.241287 3.25707 0
M  V30 1446 H 137.323 1.88814 3.14237 0
M  V30 1447 H 136.971 0.276783 5.02238 0
M  V30 1448 H 136.671 1.95433 5.54148 0
M  V30 1449 H 138.195 1.1415 5.99835 0
M  V30 1450 H 139.609 3.08914 4.82954 0
M  V30 1451 H 138.006 3.84781 4.60504 0
M  V30 1452 H 139.076 3.63673 3.20734 0
M  V30 1453 N 140.419 -1.14872 1.07899 0
M  V30 1454 C 141.668 -1.85135 0.800499 0
M  V30 1455 C 141.981 -1.83547 -0.676014 0
M  V30 1456 O 143.187 -2.49548 -1.06948 0
M  V30 1457 C 141.643 -3.3231 1.38197 0
M  V30 1458 C 141.251 -3.42329 2.8899 0
M  V30 1459 C 142.995 -4.0772 1.18174 0
M  V30 1460 C 140.902 -4.83684 3.403 0
M  V30 1461 H 139.832 -0.693563 0.29578 0
M  V30 1462 H 142.483 -1.29532 1.29976 0
M  V30 1463 H 140.865 -3.87618 0.810431 0
M  V30 1464 H 142.039 -2.97097 3.52236 0
M  V30 1465 H 140.354 -2.80369 3.07867 0
M  V30 1466 H 142.951 -5.12049 1.5398 0
M  V30 1467 H 143.294 -4.16124 0.12117 0
M  V30 1468 H 143.827 -3.58696 1.71994 0
M  V30 1469 H 140.566 -4.80465 4.45907 0
M  V30 1470 H 140.086 -5.29474 2.81811 0
M  V30 1471 H 141.765 -5.52558 3.36584 0
M  V30 1472 N 141.898 -0.863906 -1.31812 0
M  V30 1473 C 142.828 -0.330843 -2.31144 0
M  V30 1474 C 143.809 0.575005 -1.60087 0
M  V30 1475 O 144.994 0.493304 -1.8783 0
M  V30 1476 C 142.124 0.47374 -3.44054 0
M  V30 1477 C 141.078 -0.338481 -4.26659 0
M  V30 1478 C 140.404 0.591412 -5.31419 0
M  V30 1479 C 141.704 -1.56926 -4.98168 0
M  V30 1480 H 143.398 -1.16086 -2.75979 0
M  V30 1481 H 140.944 -0.559657 -1.32679 0
M  V30 1482 H 142.897 0.857143 -4.12591 0
M  V30 1483 H 141.621 1.33721 -2.9797 0
M  V30 1484 H 140.28 -0.703754 -3.59782 0
M  V30 1485 H 139.928 1.45199 -4.81587 0
M  V30 1486 H 139.628 0.0519022 -5.87577 0
M  V30 1487 H 141.152 0.97179 -6.02817 0
M  V30 1488 H 142.566 -1.25764 -5.59336 0
M  V30 1489 H 140.963 -2.04739 -5.64094 0
M  V30 1490 H 142.033 -2.32544 -4.25501 0
M  V30 1491 N 143.376 1.44774 -0.622745 0
M  V30 1492 C 144.339 2.29069 0.0774015 0
M  V30 1493 C 145.339 1.4059 0.780461 0
M  V30 1494 O 146.529 1.62551 0.626322 0
M  V30 1495 C 143.661 3.21974 1.12006 0
M  V30 1496 H 144.854 2.92459 -0.663901 0
M  V30 1497 H 142.407 1.51548 -0.382486 0
M  V30 1498 H 143.142 2.63417 1.89162 0
M  V30 1499 H 142.927 3.87168 0.619951 0
M  V30 1500 H 144.417 3.85318 1.60995 0
M  V30 1501 N 144.854 0.36279 1.53368 0
M  V30 1502 C 146.265 -0.117022 1.86333 0
M  V30 1503 C 146.616 -1.48397 1.28347 0
M  V30 1504 O 145.741 -2.07787 0.604428 0
M  V30 1505 C 146.336 -0.21912 3.38091 0
M  V30 1506 C 144.895 -0.643184 3.70864 0
M  V30 1507 C 144.042 0.211318 2.76494 0
M  V30 1508 H 146.993 0.581687 1.47655 0
M  V30 1509 H 147.014 -1.04319 3.6592 0
M  V30 1510 H 146.526 0.775902 3.80265 0
M  V30 1511 H 144.627 -1.64654 3.34245 0
M  V30 1512 H 144.74 -0.41973 4.77258 0
M  V30 1513 H 143.104 -0.319367 2.5269 0
M  V30 1514 H 143.887 1.20383 3.21501 0
M  V30 1515 N 146.332 -1.57332 0.0918853 0
M  V30 1516 C 147.56 -1.98574 -0.581048 0
M  V30 1517 C 147.975 -0.970903 -1.61923 0
M  V30 1518 O 147.332 0.0399054 -1.82456 0
M  V30 1519 C 147.383 -3.39872 -1.23164 0
M  V30 1520 O 147.104 -4.37469 -0.234989 0
M  V30 1521 C 148.605 -3.96099 -1.99049 0
M  V30 1522 H 145.825 -0.65261 -0.156018 0
M  V30 1523 H 148.369 -2.0379 0.170225 0
M  V30 1524 H 146.524 -3.35679 -1.93386 0
M  V30 1525 H 146.938 -5.19751 -0.70418 0
M  V30 1526 H 148.412 -4.97127 -2.39934 0
M  V30 1527 H 148.889 -3.3374 -2.85507 0
M  V30 1528 H 149.495 -4.03755 -1.3365 0
M  V30 1529 N 147.81 0.181792 -1.56548 0
M  V30 1530 C 149.226 0.53316 -1.50431 0
M  V30 1531 C 149.426 1.85184 -0.794297 0
M  V30 1532 O 148.482 2.50058 -0.350318 0
M  V30 1533 C 149.795 0.575597 -2.9514 0
M  V30 1534 C 151.343 0.663519 -3.05886 0
M  V30 1535 C 151.818 0.736946 -4.52032 0
M  V30 1536 N 153.309 0.800118 -4.56237 0
M  V30 1537 C 154.044 0.877327 -5.66649 0
M  V30 1538 N 153.54 0.916016 -6.86718 0
M  V30 1539 N 155.333 0.915542 -5.54594 0
M  V30 1540 H 147.484 -0.683025 -2.01118 0
M  V30 1541 H 149.747 -0.244988 -0.915797 0
M  V30 1542 H 149.453 -0.324482 -3.502 0
M  V30 1543 H 149.327 1.42572 -3.49218 0
M  V30 1544 H 151.714 1.55403 -2.50867 0
M  V30 1545 H 151.795 -0.21307 -2.54911 0
M  V30 1546 H 151.439 -0.149262 -5.07681 0
M  V30 1547 H 151.369 1.62953 -5.00753 0
M  V30 1548 H 153.86 0.778926 -3.69785 0
M  V30 1549 H 154.173 0.975813 -7.66614 0
M  V30 1550 H 152.518 0.884469 -6.89349 0
M  V30 1551 H 155.709 0.882245 -4.59711 0
M  V30 1552 H 155.882 0.972253 -6.40665 0
M  V30 1553 N 149.288 1.51039 0.449983 0
M  V30 1554 C 150.198 1.74261 1.57067 0
M  V30 1555 C 151.214 0.626363 1.62335 0
M  V30 1556 O 152.39 0.907162 1.79812 0
M  V30 1557 C 149.455 1.85114 2.93144 0
M  V30 1558 C 148.516 3.0893 2.98095 0
M  V30 1559 C 147.749 3.19256 4.27681 0
M  V30 1560 O 147.972 2.35835 5.19363 0
M  V30 1561 O 146.906 4.12144 4.38658 0
M  V30 1562 H 150.732 2.69303 1.40391 0
M  V30 1563 H 148.317 1.35389 0.631688 0
M  V30 1564 H 150.199 1.94311 3.73926 0
M  V30 1565 H 148.874 0.932588 3.09975 0
M  V30 1566 H 147.781 3.0522 2.16314 0
M  V30 1567 H 149.114 4.00433 2.86206 0
M  V30 1568 N 150.766 -0.704594 1.40972 0
M  V30 1569 C 151.696 -1.83124 1.44872 0
M  V30 1570 C 152.677 -1.67281 0.30838 0
M  V30 1571 O 153.862 -1.87149 0.518556 0
M  V30 1572 C 150.992 -3.21181 1.32136 0
M  V30 1573 C 149.946 -3.51714 2.43888 0
M  V30 1574 C 149.272 -4.89032 2.16222 0
M  V30 1575 C 150.572 -3.516 3.86232 0
M  V30 1576 H 152.266 -1.80117 2.39161 0
M  V30 1577 H 149.812 -0.865145 1.15114 0
M  V30 1578 H 151.765 -3.99702 1.33479 0
M  V30 1579 H 150.489 -3.24791 0.343279 0
M  V30 1580 H 149.148 -2.75539 2.41813 0
M  V30 1581 H 148.796 -4.89256 1.16778 0
M  V30 1582 H 148.496 -5.10426 2.911 0
M  V30 1583 H 150.02 -5.69873 2.19265 0
M  V30 1584 H 151.434 -4.2014 3.9007 0
M  V30 1585 H 149.831 -3.84523 4.60719 0
M  V30 1586 H 150.901 -2.50757 4.15029 0
M  V30 1587 N 152.244 -1.26651 -0.937939 0
M  V30 1588 C 153.207 -1.08546 -2.01867 0
M  V30 1589 C 154.207 -0.0327327 -1.60767 0
M  V30 1590 O 155.397 -0.276427 -1.71993 0
M  V30 1591 C 152.529 -0.651711 -3.34613 0
M  V30 1592 H 153.722 -2.04502 -2.1936 0
M  V30 1593 H 151.275 -1.09294 -1.11734 0
M  V30 1594 H 152.01 0.309696 -3.22818 0
M  V30 1595 H 151.795 -1.41189 -3.65798 0
M  V30 1596 H 153.285 -0.546973 -4.14002 0
M  V30 1597 N 153.722 1.14298 -1.08507 0
M  V30 1598 C 154.654 2.1907 -0.673859 0
M  V30 1599 C 155.667 1.60381 0.279577 0
M  V30 1600 O 156.856 1.78374 0.0670754 0
M  V30 1601 C 153.956 3.38888 0.0290979 0
M  V30 1602 C 153.129 4.27103 -0.943494 0
M  V30 1603 C 152.188 5.25477 -0.275676 0
M  V30 1604 O 151.214 5.61709 -0.920401 0
M  V30 1605 N 152.416 5.7227 0.974013 0
M  V30 1606 H 155.181 2.54965 -1.57521 0
M  V30 1607 H 152.742 1.29528 -0.971287 0
M  V30 1608 H 154.734 4.01761 0.48683 0
M  V30 1609 H 153.304 3.01309 0.832555 0
M  V30 1610 H 152.524 3.61149 -1.58004 0
M  V30 1611 H 153.812 4.82905 -1.60251 0
M  V30 1612 H 153.21 5.44965 1.51755 0
M  V30 1613 H 151.767 6.37127 1.37522 0
M  V30 1614 N 155.201 0.870884 1.31352 0
M  V30 1615 C 156.133 0.28455 2.27427 0
M  V30 1616 C 157.146 -0.552927 1.53123 0
M  V30 1617 O 158.335 -0.374771 1.74521 0
M  V30 1618 C 155.435 -0.615164 3.3327 0
M  V30 1619 C 154.608 0.190079 4.36987 0
M  V30 1620 C 153.667 -0.637917 5.22319 0
M  V30 1621 O 152.693 -0.065626 5.69162 0
M  V30 1622 N 153.895 -1.94973 5.46778 0
M  V30 1623 H 156.66 1.11017 2.7838 0
M  V30 1624 H 154.221 0.732458 1.44384 0
M  V30 1625 H 156.213 -1.1748 3.87273 0
M  V30 1626 H 154.783 -1.34146 2.82354 0
M  V30 1627 H 154.003 0.931165 3.83044 0
M  V30 1628 H 155.291 0.742579 5.03352 0
M  V30 1629 H 154.689 -2.4378 5.10478 0
M  V30 1630 H 153.246 -2.45713 6.03712 0
M  V30 1631 N 156.679 -1.44442 0.630414 0
M  V30 1632 C 157.928 -2.01267 0.132073 0
M  V30 1633 C 158.241 -1.50172 -1.25331 0
M  V30 1634 O 159.447 -1.9912 -1.84562 0
M  V30 1635 C 157.903 -3.59422 0.185362 0
M  V30 1636 C 157.511 -4.19514 1.57201 0
M  V30 1637 C 159.255 -4.23724 -0.256553 0
M  V30 1638 C 157.162 -5.69891 1.58045 0
M  V30 1639 H 156.092 -0.752619 0.0456092 0
M  V30 1640 H 158.743 -1.65666 0.789106 0
M  V30 1641 H 157.125 -3.92318 -0.538759 0
M  V30 1642 H 158.299 -3.98156 2.31966 0
M  V30 1643 H 156.614 -3.67496 1.95795 0
M  V30 1644 H 159.211 -5.34019 -0.269767 0
M  V30 1645 H 159.554 -3.96013 -1.28372 0
M  V30 1646 H 160.087 -3.95629 0.41505 0
M  V30 1647 H 156.826 -6.02336 2.58597 0
M  V30 1648 H 156.346 -5.93373 0.875725 0
M  V30 1649 H 158.025 -6.33515 1.31408 0
M  V30 1650 N 158.157 -0.370918 -1.53173 0
M  V30 1651 C 159.089 0.507823 -2.23503 0
M  V30 1652 C 160.102 1.04182 -1.251 0
M  V30 1653 O 161.291 0.947286 -1.5129 0
M  V30 1654 C 158.391 1.71447 -2.92334 0
M  V30 1655 C 157.564 1.31105 -4.17289 0
M  V30 1656 C 156.623 2.38035 -4.69282 0
M  V30 1657 O 155.649 2.00204 -5.32829 0
M  V30 1658 N 156.851 3.69697 -4.47554 0
M  V30 1659 H 159.616 -0.0946382 -2.99551 0
M  V30 1660 H 157.177 -0.196358 -1.60705 0
M  V30 1661 H 159.169 2.42469 -3.24023 0
M  V30 1662 H 157.739 2.22368 -2.19707 0
M  V30 1663 H 156.959 0.430462 -3.91843 0
M  V30 1664 H 158.247 1.0179 -4.98514 0
M  V30 1665 H 157.645 4.03205 -3.9679 0
M  V30 1666 H 156.202 4.36807 -4.8378 0
M  V30 1667 N 159.635 1.57281 -0.100228 0
M  V30 1668 C 160.582 2.14305 0.856858 0
M  V30 1669 C 161.552 1.06296 1.27634 0
M  V30 1670 O 162.737 1.34109 1.35718 0
M  V30 1671 C 159.877 2.73184 2.10866 0
M  V30 1672 C 158.99 3.95442 1.73925 0
M  V30 1673 C 158.125 4.42468 2.93931 0
M  V30 1674 C 157.164 5.57303 2.5314 0
M  V30 1675 N 156.301 5.99158 3.65997 0
M  V30 1676 H 161.141 2.95772 0.363726 0
M  V30 1677 H 158.678 1.46139 0.167858 0
M  V30 1678 H 160.636 3.05442 2.84185 0
M  V30 1679 H 159.266 1.94437 2.57671 0
M  V30 1680 H 158.318 3.69464 0.905554 0
M  V30 1681 H 159.63 4.78769 1.39935 0
M  V30 1682 H 158.784 4.76537 3.75496 0
M  V30 1683 H 157.523 3.58052 3.31134 0
M  V30 1684 H 156.528 5.22857 1.70003 0
M  V30 1685 H 157.753 6.43471 2.17075 0
M  V30 1686 H 155.699 5.17687 4.02909 0
M  V30 1687 H 155.616 6.77295 3.35869 0
M  V30 1688 H 156.884 6.3786 4.48057 0
M  V30 1689 N 161.113 -0.173488 1.56642 0
M  V30 1690 C 162.359 -0.891784 1.8214 0
M  V30 1691 C 162.692 -1.8199 0.677736 0
M  V30 1692 O 161.967 -1.91842 -0.320446 0
M  V30 1693 C 162.25 -1.68933 3.18015 0
M  V30 1694 C 162.103 -0.784487 4.42906 0
M  V30 1695 C 163.422 -2.65748 3.50808 0
M  V30 1696 H 160.541 -0.322761 0.662567 0
M  V30 1697 H 163.183 -0.158095 1.89341 0
M  V30 1698 H 161.333 -2.31482 3.12007 0
M  V30 1699 H 163.005 -0.172046 4.60979 0
M  V30 1700 H 161.248 -0.0924117 4.33702 0
M  V30 1701 H 161.919 -1.37799 5.34524 0
M  V30 1702 H 164.395 -2.13327 3.57255 0
M  V30 1703 H 163.271 -3.18619 4.4696 0
M  V30 1704 H 163.532 -3.45842 2.75401 0
M  V30 1705 N 162.591 -1.51276 -0.441967 0
M  V30 1706 C 163.837 -1.63958 -1.19355 0
M  V30 1707 C 164.17 -0.352543 -1.90973 0
M  V30 1708 O 163.445 0.647627 -1.83401 0
M  V30 1709 C 163.728 -2.83979 -2.21422 0
M  V30 1710 C 163.581 -4.22646 -1.53918 0
M  V30 1711 C 164.9 -2.99521 -3.22451 0
M  V30 1712 H 162.019 -0.596709 -0.432559 0
M  V30 1713 H 164.661 -1.83748 -0.483398 0
M  V30 1714 H 162.811 -2.67237 -2.81987 0
M  V30 1715 H 164.483 -4.51045 -0.967256 0
M  V30 1716 H 162.726 -4.25558 -0.841615 0
M  V30 1717 H 163.397 -5.02609 -2.28229 0
M  V30 1718 H 165.873 -3.14944 -2.71937 0
M  V30 1719 H 164.749 -3.85072 -3.91166 0
M  V30 1720 H 165.01 -2.11391 -3.88287 0
M  V30 1721 N 164.069 0.697108 -1.41344 0
M  V30 1722 C 164.999 1.82353 -1.45841 0
M  V30 1723 C 165.98 1.67115 -0.317247 0
M  V30 1724 O 167.165 1.86871 -0.528474 0
M  V30 1725 C 164.295 3.20476 -1.33838 0
M  V30 1726 C 163.249 3.50415 -2.4575 0
M  V30 1727 C 162.575 4.87878 -2.18813 0
M  V30 1728 C 163.875 3.49546 -3.88091 0
M  V30 1729 H 165.569 1.78846 -2.40113 0
M  V30 1730 H 163.115 0.859028 -1.15571 0
M  V30 1731 H 165.068 3.98988 -1.35596 0
M  V30 1732 H 163.792 3.24604 -0.360498 0
M  V30 1733 H 162.451 2.74253 -2.43271 0
M  V30 1734 H 162.099 4.8863 -1.19371 0
M  V30 1735 H 161.799 5.08875 -2.93803 0
M  V30 1736 H 163.323 5.68702 -2.22284 0
M  V30 1737 H 164.737 4.18066 -3.92293 0
M  V30 1738 H 163.134 3.82075 -4.62751 0
M  V30 1739 H 164.204 2.48552 -4.16353 0
M  V30 1740 N 165.547 1.27147 0.931209 0
M  V30 1741 C 166.51 1.09615 2.01289 0
M  V30 1742 C 167.51 0.0412581 1.60747 0
M  V30 1743 O 168.7 0.285545 1.71844 0
M  V30 1744 C 165.832 0.669447 3.34262 0
M  V30 1745 H 167.025 2.05662 2.18273 0
M  V30 1746 H 164.578 1.09885 1.11153 0
M  V30 1747 H 165.313 -0.292572 3.22978 0
M  V30 1748 H 165.098 1.43127 3.65044 0
M  V30 1749 H 166.588 0.568921 4.13706 0
M  V30 1750 N 167.025 -1.13721 1.09112 0
M  V30 1751 C 167.955 -2.21148 0.749385 0
M  V30 1752 C 168.936 -1.6792 -0.271475 0
M  V30 1753 O 170.121 -1.93693 -0.140251 0
M  V30 1754 C 167.251 -3.46905 0.165659 0
M  V30 1755 C 166.205 -4.13203 1.11567 0
M  V30 1756 C 165.531 -5.33248 0.393809 0
M  V30 1757 C 166.831 -4.60912 2.45678 0
M  V30 1758 H 168.525 -2.4999 1.64758 0
M  V30 1759 H 166.071 -1.20156 0.793626 0
M  V30 1760 H 168.024 -4.21313 -0.085466 0
M  V30 1761 H 166.748 -3.17449 -0.767714 0
M  V30 1762 H 165.407 -3.40758 1.35202 0
M  V30 1763 H 165.055 -5.00054 -0.543599 0
M  V30 1764 H 164.755 -5.78552 1.02721 0
M  V30 1765 H 166.279 -6.10413 0.150908 0
M  V30 1766 H 167.693 -5.26759 2.26269 0
M  V30 1767 H 166.09 -5.16944 3.04776 0
M  V30 1768 H 167.16 -3.75603 3.06677 0
M  V30 1769 N 168.503 -0.877838 -1.30888 0
M  V30 1770 C 169.751 -0.491723 -1.96027 0
M  V30 1771 C 170.072 0.960827 -1.69685 0
M  V30 1772 O 169.342 1.67462 -1.01654 0
M  V30 1773 H 167.922 -0.17885 -0.725273 0
M  V30 1774 H 170.584 -1.11935 -1.59551 0
M  V30 1775 H 169.68 -0.656016 -3.05128 0
M  V30 1776 N 169.982 1.44106 -0.638065 0
M  V30 1777 C 171.259 1.95453 -0.0759321 0
M  V30 1778 C 171.639 1.57984 1.40015 0
M  V30 1779 O 170.987 0.857361 2.11806 0
M  V30 1780 C 171.197 3.47655 -0.306132 0
M  V30 1781 C 172.545 4.24114 -0.203008 0
M  V30 1782 O 173.569 3.55405 -0.237871 0
M  V30 1783 O 172.428 5.46381 -0.113827 0
M  V30 1784 H 169.522 0.826797 0.0183332 0
M  V30 1785 H 172.068 1.54122 -0.710251 0
M  V30 1786 H 170.84 3.68 -1.3301 0
M  V30 1787 H 170.463 3.95949 0.361991 0
M  V30 1788 N 171.46 0.379036 1.52974 0
M  V30 1789 C 172.69 -0.20649 2.05566 0
M  V30 1790 C 173.098 -1.41906 1.25137 0
M  V30 1791 O 172.441 -1.81421 0.288464 0
M  V30 1792 C 172.503 -0.651086 3.53555 0
M  V30 1793 C 172.167 0.446626 4.54812 0
M  V30 1794 C 173.164 1.30079 5.03364 0
M  V30 1795 C 170.849 0.610719 4.98573 0
M  V30 1796 C 172.843 2.30426 5.94292 0
M  V30 1797 C 170.53 1.61754 5.89304 0
M  V30 1798 C 171.528 2.46274 6.37054 0
M  V30 1799 O 171.216 3.45237 7.25994 0
M  V30 1800 H 170.948 -0.0372381 0.674974 0
M  V30 1801 H 173.502 0.539718 1.98182 0
M  V30 1802 H 171.732 -1.44911 3.58522 0
M  V30 1803 H 173.421 -1.16112 3.88938 0
M  V30 1804 H 174.187 1.18527 4.70294 0
M  V30 1805 H 170.066 -0.0374044 4.60985 0
M  V30 1806 H 173.61 2.96432 6.31485 0
M  V30 1807 H 169.507 1.73348 6.21788 0
M  V30 1808 H 170.275 3.41124 7.44027 0
M  V30 1809 N 172.938 -1.57226 0.108567 0
M  V30 1810 C 173.868 -2.17778 -0.84232 0
M  V30 1811 C 174.849 -1.11487 -1.2847 0
M  V30 1812 O 176.034 -1.39681 -1.34918 0
M  V30 1813 C 173.164 -2.76888 -2.09644 0
M  V30 1814 C 172.118 -3.88669 -1.79221 0
M  V30 1815 C 171.444 -4.34541 -3.11574 0
M  V30 1816 C 172.744 -5.11251 -1.06864 0
M  V30 1817 H 174.438 -2.97489 -0.337774 0
M  V30 1818 H 171.984 -1.43097 -0.161025 0
M  V30 1819 H 173.937 -3.17904 -2.76614 0
M  V30 1820 H 172.661 -1.94451 -2.62405 0
M  V30 1821 H 171.32 -3.48213 -1.14644 0
M  V30 1822 H 170.968 -3.48977 -3.62249 0
M  V30 1823 H 170.668 -5.09914 -2.91996 0
M  V30 1824 H 172.192 -4.782 -3.7968 0
M  V30 1825 H 173.606 -5.49352 -1.63968 0
M  V30 1826 H 172.003 -5.9214 -0.974178 0
M  V30 1827 H 173.073 -4.8487 -0.0536168 0
M  V30 1828 N 174.416 0.165178 -1.56732 0
M  V30 1829 C 175.363 1.2044 -1.96883 0
M  V30 1830 C 176.333 1.43664 -0.833657 0
M  V30 1831 O 177.518 1.56302 -1.09427 0
M  V30 1832 C 174.658 2.53727 -2.33916 0
M  V30 1833 C 173.771 2.3783 -3.6064 0
M  V30 1834 C 172.906 3.64026 -3.86857 0
M  V30 1835 C 171.945 3.43088 -5.06909 0
M  V30 1836 N 171.082 4.61369 -5.29229 0
M  V30 1837 H 175.922 0.854996 -2.85471 0
M  V30 1838 H 173.459 0.41076 -1.41249 0
M  V30 1839 H 175.417 3.31419 -2.53411 0
M  V30 1840 H 174.047 2.8665 -1.48431 0
M  V30 1841 H 173.099 1.51282 -3.49024 0
M  V30 1842 H 174.411 2.18308 -4.4849 0
M  V30 1843 H 173.565 4.50152 -4.06753 0
M  V30 1844 H 172.304 3.86533 -2.97394 0
M  V30 1845 H 171.309 2.55349 -4.86906 0
M  V30 1846 H 172.534 3.21997 -5.97909 0
M  V30 1847 H 170.48 4.84084 -4.42718 0
M  V30 1848 H 170.397 4.44783 -6.11313 0
M  V30 1849 H 171.665 5.48761 -5.53608 0
M  V30 1850 N 175.894 1.51508 0.433938 0
M  V30 1851 C 177.14 1.64588 1.18484 0
M  V30 1852 C 177.473 0.362666 1.90784 0
M  V30 1853 O 176.748 -0.637892 1.83742 0
M  V30 1854 C 177.031 2.85149 2.19913 0
M  V30 1855 C 176.884 4.23456 1.51674 0
M  V30 1856 C 178.203 3.01227 3.20858 0
M  V30 1857 H 175.322 0.598994 0.429389 0
M  V30 1858 H 177.964 1.84002 0.473647 0
M  V30 1859 H 176.114 2.68729 2.80566 0
M  V30 1860 H 177.786 4.51552 0.943322 0
M  V30 1861 H 176.029 4.25998 0.819035 0
M  V30 1862 H 176.7 5.03812 2.2556 0
M  V30 1863 H 179.176 3.16382 2.70263 0
M  V30 1864 H 178.052 3.87141 3.89118 0
M  V30 1865 H 178.313 2.13447 3.8716 0
M  V30 1866 N 177.372 -0.689602 1.41712 0
M  V30 1867 C 178.319 -1.80345 1.44029 0
M  V30 1868 C 179.289 -1.63478 0.293948 0
M  V30 1869 O 180.474 -1.84244 0.495869 0
M  V30 1870 C 177.614 -3.18272 1.33405 0
M  V30 1871 C 176.727 -3.46529 2.57956 0
M  V30 1872 C 175.862 -4.74103 2.39582 0
M  V30 1873 C 174.901 -4.95347 3.5958 0
M  V30 1874 N 174.038 -6.14151 3.40239 0
M  V30 1875 H 178.878 -1.77698 2.39222 0
M  V30 1876 H 176.415 -0.867688 1.18784 0
M  V30 1877 H 178.373 -3.97956 1.25246 0
M  V30 1878 H 177.003 -3.2008 0.418164 0
M  V30 1879 H 176.055 -2.61207 2.76542 0
M  V30 1880 H 177.367 -3.58126 3.47199 0
M  V30 1881 H 176.521 -5.61853 2.28924 0
M  V30 1882 H 175.26 -4.64763 1.47805 0
M  V30 1883 H 174.265 -4.06044 3.70686 0
M  V30 1884 H 175.49 -5.06542 4.52318 0
M  V30 1885 H 173.436 -6.06013 2.51167 0
M  V30 1886 H 173.353 -6.26543 4.23061 0
M  V30 1887 H 174.621 -7.04619 3.33365 0
M  V30 1888 N 178.85 -1.27639 -0.924453 0
M  V30 1889 C 180.09 -1.15407 -1.68703 0
M  V30 1890 C 180.454 0.294581 -1.89727 0
M  V30 1891 O 181.655 0.539385 -2.63333 0
M  V30 1892 C 179.926 -1.9195 -3.0148 0
M  V30 1893 S 181.485 -1.95969 -3.92609 0
M  V30 1894 H 178.303 -0.411937 -0.579507 0
M  V30 1895 H 180.905 -1.61592 -1.10038 0
M  V30 1896 H 179.609 -2.96387 -2.83871 0
M  V30 1897 H 179.14 -1.46272 -3.65196 0
M  V30 1898 H 181.155 -1.05846 -4.84779 0
M  V30 1899 N 180.328 1.1314 -1.09713 0
M  V30 1900 C 181.278 2.16709 -0.708593 0
M  V30 1901 C 182.262 1.58471 0.278523 0
M  V30 1902 O 183.454 1.76779 0.088427 0
M  V30 1903 C 180.583 3.43039 -0.133923 0
M  V30 1904 C 179.669 4.08277 -1.14763 0
M  V30 1905 N 180.06 4.48637 -2.33577 0
M  V30 1906 C 178.358 4.34954 -0.986446 0
M  V30 1907 C 179.059 4.9952 -2.98085 0
M  V30 1908 N 178.035 4.94561 -2.25632 0
M  V30 1909 H 181.837 2.45672 -1.61315 0
M  V30 1910 H 179.351 1.29967 -0.973775 0
M  V30 1911 H 181.348 4.16583 0.162465 0
M  V30 1912 H 180.008 3.15549 0.765447 0
M  V30 1913 H 181.019 4.41246 -2.7115 0
M  V30 1914 H 177.696 4.17258 -0.142008 0
M  V30 1915 H 179.086 5.40521 -3.99108 0
M  V30 1916 N 181.806 0.884767 1.30421 0
M  V30 1917 C 182.769 0.356277 2.26414 0
M  V30 1918 C 183.769 -0.501124 1.52792 0
M  V30 1919 O 184.959 -0.30831 1.7145 0
M  V30 1920 C 182.091 -0.492316 3.37326 0
M  V30 1921 H 183.284 1.20389 2.74675 0
M  V30 1922 H 180.837 0.661607 1.41607 0
M  V30 1923 H 181.572 -1.36052 2.94381 0
M  V30 1924 H 181.357 0.121832 3.91911 0
M  V30 1925 H 182.847 -0.853871 4.08777 0
M  V30 1926 N 183.284 -1.43765 0.645699 0
M  V30 1927 C 184.524 -2.03776 0.159542 0
M  V30 1928 C 184.888 -1.49792 -1.2011 0
M  V30 1929 O 186.089 -2.01398 -1.78023 0
M  V30 1930 C 184.36 -3.57036 0.161251 0
M  V30 1931 S 185.919 -4.3804 -0.258159 0
M  V30 1932 H 182.737 -0.707717 0.0682454 0
M  V30 1933 H 185.339 -1.75941 0.852352 0
M  V30 1934 H 184.043 -3.9383 1.15439 0
M  V30 1935 H 183.574 -3.89503 -0.552339 0
M  V30 1936 H 185.589 -4.7302 -1.49889 0
M  V30 1937 N 184.763 -0.387143 -1.52771 0
M  V30 1938 C 186.009 0.196025 -2.0185 0
M  V30 1939 C 186.342 1.46641 -1.27319 0
M  V30 1940 O 185.617 1.90889 -0.373032 0
M  V30 1941 C 185.9 0.466136 -3.5707 0
M  V30 1942 C 185.753 -0.819385 -4.42274 0
M  V30 1943 C 187.072 1.25768 -4.21747 0
M  V30 1944 H 184.191 0.0697708 -0.73369 0
M  V30 1945 H 186.833 -0.516286 -1.82851 0
M  V30 1946 H 184.983 1.07293 -3.7339 0
M  V30 1947 H 186.655 -1.4563 -4.37709 0
M  V30 1948 H 184.898 -1.43517 -4.09372 0
M  V30 1949 H 185.569 -0.585065 -5.48891 0
M  V30 1950 H 188.045 0.744167 -4.09391 0
M  V30 1951 H 186.921 1.41541 -5.30337 0
M  V30 1952 H 187.182 2.27228 -3.79236 0
M  V30 1953 N 186.241 1.57166 -0.116904 0
M  V30 1954 C 187.489 1.94737 0.540533 0
M  V30 1955 C 187.81 1.00096 1.67349 0
M  V30 1956 O 187.08 0.0568854 1.95817 0
M  V30 1957 H 185.66 0.718981 0.202669 0
M  V30 1958 H 188.322 1.94017 -0.185353 0
M  V30 1959 H 187.418 2.97719 0.936483 0
M  V30 1960 N 187.719 -0.156864 1.56817 0
M  V30 1961 C 188.967 -0.869404 1.82444 0
M  V30 1962 C 189.288 -1.82147 0.69623 0
M  V30 1963 O 188.558 -1.93847 -0.28287 0
M  V30 1964 H 187.138 -0.324043 0.673056 0
M  V30 1965 H 189.8 -0.153224 1.94297 0
M  V30 1966 H 188.896 -1.43761 2.77019 0
M  V30 1967 N 189.197 -1.51736 -0.425897 0
M  V30 1968 C 190.425 -1.68794 -1.1965 0
M  V30 1969 C 190.84 -0.390164 -1.84725 0
M  V30 1970 O 190.197 0.632376 -1.71194 0
M  V30 1971 C 190.248 -2.81174 -2.27208 0
M  V30 1972 O 189.969 -4.05925 -1.64793 0
M  V30 1973 C 191.47 -3.09599 -3.17275 0
M  V30 1974 H 188.69 -0.566128 -0.360194 0
M  V30 1975 H 191.234 -1.98211 -0.503249 0
M  V30 1976 H 189.389 -2.54324 -2.9223 0
M  V30 1977 H 189.803 -4.68423 -2.35967 0
M  V30 1978 H 191.277 -3.91786 -3.88854 0
M  V30 1979 H 191.754 -2.22468 -3.78688 0
M  V30 1980 H 192.36 -3.38151 -2.57941 0
M  V30 1981 N 190.675 0.682077 -1.42076 0
M  V30 1982 C 191.921 1.44428 -1.42367 0
M  V30 1983 C 192.254 1.94164 -0.0373056 0
M  V30 1984 O 191.529 1.70429 0.937239 0
M  V30 1985 C 191.812 2.64654 -2.44194 0
M  V30 1986 C 191.665 2.20596 -3.91991 0
M  V30 1987 C 192.984 3.66865 -2.431 0
M  V30 1988 H 190.103 0.523834 -0.518428 0
M  V30 1989 H 192.745 0.77576 -1.73442 0
M  V30 1990 H 190.895 3.2169 -2.17826 0
M  V30 1991 H 192.567 1.68783 -4.29313 0
M  V30 1992 H 190.81 1.52242 -4.06208 0
M  V30 1993 H 191.481 3.06921 -4.58807 0
M  V30 1994 H 193.957 3.19531 -2.66532 0
M  V30 1995 H 192.833 4.48577 -3.16339 0
M  V30 1996 H 193.094 4.17493 -1.45437 0
M  V30 1997 N 192.153 1.28127 0.917671 0
M  V30 1998 C 193.399 1.15223 1.66888 0
M  V30 1999 C 193.732 -0.299293 1.9188 0
M  V30 2000 O 193.007 -1.21805 1.51637 0
M  V30 2001 C 193.29 1.94706 3.02922 0
M  V30 2002 C 193.143 3.47898 2.85109 0
M  V30 2003 C 194.462 1.75939 4.03402 0
M  V30 2004 H 191.581 0.419946 0.605652 0
M  V30 2005 H 194.223 1.57398 1.06423 0
M  V30 2006 H 192.373 1.58864 3.54534 0
M  V30 2007 H 194.045 3.93624 2.40537 0
M  V30 2008 H 192.288 3.7373 2.20246 0
M  V30 2009 H 192.959 3.98765 3.81694 0
M  V30 2010 H 195.435 2.07209 3.60837 0
M  V30 2011 H 194.311 2.33931 4.96556 0
M  V30 2012 H 194.572 0.709877 4.36364 0
M  V30 2013 N 193.631 -1.12557 1.10312 0
M  V30 2014 C 195.047 -1.36036 0.834649 0
M  V30 2015 C 195.247 -1.93946 -0.546539 0
M  V30 2016 O 194.303 -2.16484 -1.29966 0
M  V30 2017 C 195.616 -2.30312 1.9333 0
M  V30 2018 C 197.164 -2.43906 1.9616 0
M  V30 2019 C 197.639 -3.41496 3.05195 0
M  V30 2020 N 199.13 -3.49053 3.04494 0
M  V30 2021 C 199.865 -4.24471 3.85502 0
M  V30 2022 N 199.361 -5.02966 4.76442 0
M  V30 2023 N 201.154 -4.19864 3.73725 0
M  V30 2024 H 193.305 -0.733246 1.99342 0
M  V30 2025 H 195.568 -0.385234 0.866198 0
M  V30 2026 H 195.274 -1.94933 2.92735 0
M  V30 2027 H 195.148 -3.30421 1.81939 0
M  V30 2028 H 197.535 -2.78567 0.973886 0
M  V30 2029 H 197.616 -1.4369 2.11629 0
M  V30 2030 H 197.26 -3.07565 4.04186 0
M  V30 2031 H 197.19 -4.41539 2.86968 0
M  V30 2032 H 199.681 -2.93053 2.38596 0
M  V30 2033 H 199.994 -5.57846 5.34815 0
M  V30 2034 H 198.339 -5.02167 4.80472 0
M  V30 2035 H 201.53 -3.57623 3.02032 0
M  V30 2036 H 201.703 -4.78386 4.37093 0
M  V30 2037 N 195.109 -0.891671 -1.2995 0
M  V30 2038 C 196.019 -0.367691 -2.31701 0
M  V30 2039 C 197.035 0.533486 -1.6562 0
M  V30 2040 O 198.211 0.424997 -1.96865 0
M  V30 2041 C 195.276 0.403406 -3.44345 0
M  V30 2042 C 194.337 -0.528328 -4.26037 0
M  V30 2043 C 193.57 0.206063 -5.33302 0
M  V30 2044 O 193.793 1.43119 -5.52153 0
M  V30 2045 O 192.727 -0.447281 -6.00236 0
M  V30 2046 H 196.553 -1.21163 -2.78484 0
M  V30 2047 H 194.138 -0.655725 -1.34241 0
M  V30 2048 H 196.02 0.839753 -4.12948 0
M  V30 2049 H 194.695 1.22354 -2.99685 0
M  V30 2050 H 193.602 -1.01362 -3.60106 0
M  V30 2051 H 194.935 -1.31465 -4.74318 0
M  V30 2052 N 196.587 1.43421 -0.653314 0
M  V30 2053 C 197.864 1.95361 -0.0966581 0
M  V30 2054 C 198.244 1.59461 1.38331 0
M  V30 2055 O 197.592 0.879777 2.10884 0
M  V30 2056 C 197.802 3.47311 -0.342988 0
M  V30 2057 C 199.15 4.23875 -0.24798 0
M  V30 2058 O 200.174 3.55133 -0.275553 0
M  V30 2059 O 199.033 5.4623 -0.171771 0
M  V30 2060 H 196.127 0.826945 0.00956291 0
M  V30 2061 H 198.673 1.5336 -0.726558 0
M  V30 2062 H 197.445 3.66569 -1.36906 0
M  V30 2063 H 197.068 3.9631 0.319975 0
M  V30 2064 N 198.065 0.39524 1.52563 0
M  V30 2065 C 199.314 -0.186321 2.00838 0
M  V30 2066 C 199.627 -1.47402 1.28577 0
M  V30 2067 O 200.833 -2.13599 1.67593 0
M  V30 2068 C 199.289 -0.382595 3.57861 0
M  V30 2069 C 198.897 0.892202 4.39026 0
M  V30 2070 C 200.641 -0.9202 4.14406 0
M  V30 2071 C 198.548 0.66388 5.87662 0
M  V30 2072 H 197.478 -0.0734041 0.750418 0
M  V30 2073 H 200.129 0.518552 1.76021 0
M  V30 2074 H 198.511 -1.14946 3.7895 0
M  V30 2075 H 199.685 1.66414 4.29701 0
M  V30 2076 H 198 1.35519 3.9373 0
M  V30 2077 H 200.597 -1.10683 5.23119 0
M  V30 2078 H 200.94 -1.89096 3.70875 0
M  V30 2079 H 201.473 -0.212751 3.97231 0
M  V30 2080 H 198.212 1.6058 6.35527 0
M  V30 2081 H 197.732 -0.0690193 5.9976 0
M  V30 2082 H 199.411 0.300699 6.46301 0
M  V30 2083 N 199.544 -1.57102 0.125237 0
M  V30 2084 C 200.821 -1.86953 -0.575142 0
M  V30 2085 C 201.201 -1.02749 -1.84407 0
M  V30 2086 O 200.549 -0.108144 -2.28244 0
M  V30 2087 C 200.759 -3.38198 -0.861583 0
M  V30 2088 C 202.107 -4.06937 -1.21192 0
M  V30 2089 O 203.131 -3.43252 -0.951645 0
M  V30 2090 O 201.99 -5.19364 -1.70068 0
M  V30 2091 H 199.084 -0.774147 -0.290906 0
M  V30 2092 H 201.63 -1.68942 0.160211 0
M  V30 2093 H 200.402 -3.91282 0.0373647 0
M  V30 2094 H 200.025 -3.61661 -1.65188 0
M  V30 2095 N 201.022 0.148545 -1.56898 0
M  V30 2096 C 201.969 1.18345 -1.98149 0
M  V30 2097 C 202.939 1.42772 -0.848848 0
M  V30 2098 O 204.124 1.55132 -1.11079 0
M  V30 2099 C 201.264 2.51231 -2.36594 0
M  V30 2100 C 200.377 2.33991 -3.63142 0
M  V30 2101 C 199.512 3.59902 -3.90697 0
M  V30 2102 C 198.551 3.37692 -5.1052 0
M  V30 2103 N 197.688 4.5573 -5.34092 0
M  V30 2104 H 202.528 0.82467 -2.86362 0
M  V30 2105 H 200.065 0.395756 -1.41676 0
M  V30 2106 H 202.023 3.28713 -2.56912 0
M  V30 2107 H 200.653 2.85059 -1.51463 0
M  V30 2108 H 199.705 1.47572 -3.50609 0
M  V30 2109 H 201.017 2.13539 -4.5078 0
M  V30 2110 H 200.171 4.45813 -4.11505 0
M  V30 2111 H 198.91 3.83357 -3.01477 0
M  V30 2112 H 197.915 2.5017 -4.89587 0
M  V30 2113 H 199.14 3.15637 -6.0129 0
M  V30 2114 H 197.086 4.79361 -4.47827 0
M  V30 2115 H 197.003 4.38274 -6.15996 0
M  V30 2116 H 198.271 5.42858 -5.59397 0
M  V30 2117 N 202.5 1.5196 0.417844 0
M  V30 2118 C 203.43 1.77634 1.51554 0
M  V30 2119 C 204.411 0.626918 1.58126 0
M  V30 2120 O 205.596 0.871632 1.7354 0
M  V30 2121 C 202.726 1.91911 2.8946 0
M  V30 2122 C 201.68 3.07463 2.97743 0
M  V30 2123 C 201.006 3.06951 4.37819 0
M  V30 2124 C 202.306 4.47082 2.70027 0
M  V30 2125 H 204 2.6955 1.3032 0
M  V30 2126 H 201.546 1.29706 0.625492 0
M  V30 2127 H 203.499 2.08455 3.6623 0
M  V30 2128 H 202.223 0.966598 3.11969 0
M  V30 2129 H 200.882 2.90656 2.23416 0
M  V30 2130 H 200.53 2.09438 4.57323 0
M  V30 2131 H 200.23 3.84556 4.44286 0
M  V30 2132 H 201.754 3.25613 5.16535 0
M  V30 2133 H 203.168 4.6414 3.36522 0
M  V30 2134 H 201.565 5.2654 2.87881 0
M  V30 2135 H 202.635 4.55777 1.65514 0
M  V30 2136 N 203.978 -0.674533 1.42435 0
M  V30 2137 C 204.925 -1.78807 1.45934 0
M  V30 2138 C 205.895 -1.63157 0.311271 0
M  V30 2139 O 207.08 -1.83707 0.515383 0
M  V30 2140 C 204.22 -3.16839 1.36773 0
M  V30 2141 C 203.333 -3.43774 2.61617 0
M  V30 2142 C 202.468 -4.71536 2.44597 0
M  V30 2143 C 201.507 -4.91505 3.64814 0
M  V30 2144 N 200.644 -6.10508 3.46734 0
M  V30 2145 H 205.484 -1.75151 2.41093 0
M  V30 2146 H 203.021 -0.85504 1.19697 0
M  V30 2147 H 204.979 -3.96606 1.29459 0
M  V30 2148 H 203.609 -3.19619 0.452089 0
M  V30 2149 H 202.661 -2.58259 2.79297 0
M  V30 2150 H 203.973 -3.54423 3.50978 0
M  V30 2151 H 203.127 -5.59393 2.3487 0
M  V30 2152 H 201.866 -4.6317 1.52726 0
M  V30 2153 H 200.871 -4.0209 3.74972 0
M  V30 2154 H 202.096 -5.01716 4.57665 0
M  V30 2155 H 200.042 -6.03315 2.5758 0
M  V30 2156 H 199.959 -6.2202 4.29682 0
M  V30 2157 H 201.227 -7.01044 3.40819 0
M  V30 2158 N 205.456 -1.28612 -0.910864 0
M  V30 2159 C 206.388 -1.08589 -2.01844 0
M  V30 2160 C 207.401 -0.0367419 -1.62759 0
M  V30 2161 O 208.59 -0.280101 -1.76289 0
M  V30 2162 C 205.69 -0.628626 -3.33019 0
M  V30 2163 C 204.863 -1.75382 -4.00699 0
M  V30 2164 C 203.922 -1.28945 -5.10156 0
M  V30 2165 O 202.948 -1.9922 -5.33198 0
M  V30 2166 N 204.15 -0.154224 -5.80295 0
M  V30 2167 H 206.915 -2.03973 -2.19579 0
M  V30 2168 H 204.476 -1.20403 -1.08234 0
M  V30 2169 H 206.468 -0.301508 -4.03575 0
M  V30 2170 H 205.038 0.232451 -3.11735 0
M  V30 2171 H 204.258 -2.25039 -3.23653 0
M  V30 2172 H 205.546 -2.50854 -4.42662 0
M  V30 2173 H 204.944 0.43194 -5.64049 0
M  V30 2174 H 203.501 0.113599 -6.51701 0
M  V30 2175 N 206.934 1.1197 -1.10907 0
M  V30 2176 C 208.182 1.83225 -0.852819 0
M  V30 2177 C 208.503 1.84769 0.623341 0
M  V30 2178 O 207.773 1.3143 1.45269 0
M  V30 2179 H 206.353 0.67849 -0.312507 0
M  V30 2180 H 209.015 1.3556 -1.40033 0
M  V30 2181 H 208.111 2.87265 -1.22005 0
M  V30 2182 N 208.412 0.89855 1.29475 0
M  V30 2183 C 209.658 0.524658 1.95896 0
M  V30 2184 C 209.991 -0.926468 1.70676 0
M  V30 2185 O 209.266 -1.65665 1.01908 0
M  V30 2186 C 209.549 0.81633 3.50725 0
M  V30 2187 C 209.402 2.31907 3.85408 0
M  V30 2188 C 210.721 0.302038 4.39062 0
M  V30 2189 H 207.84 0.19209 0.711527 0
M  V30 2190 H 210.482 1.12502 1.53112 0
M  V30 2191 H 208.632 0.305369 3.87298 0
M  V30 2192 H 210.304 2.89949 3.58786 0
M  V30 2193 H 208.547 2.78027 3.32992 0
M  V30 2194 H 209.218 2.47373 4.93468 0
M  V30 2195 H 211.694 0.739551 4.09475 0
M  V30 2196 H 210.57 0.535331 5.46283 0
M  V30 2197 H 210.831 -0.797216 4.34853 0
M  V30 2198 N 209.89 -1.43072 0.660911 0
M  V30 2199 C 210.84 -2.27948 -0.04847 0
M  V30 2200 C 211.824 -1.40325 -0.787246 0
M  V30 2201 O 213.016 -1.63893 -0.668446 0
M  V30 2202 C 210.145 -3.28143 -1.00881 0
M  V30 2203 C 209.231 -4.23252 -0.268108 0
M  V30 2204 N 209.622 -5.00656 0.719528 0
M  V30 2205 C 207.92 -4.43092 -0.508493 0
M  V30 2206 C 208.621 -5.70019 1.15988 0
M  V30 2207 N 207.597 -5.41364 0.492584 0
M  V30 2208 H 211.399 -2.85213 0.709279 0
M  V30 2209 H 208.913 -1.54869 0.488822 0
M  V30 2210 H 210.91 -3.87736 -1.53188 0
M  V30 2211 H 209.57 -2.7244 -1.76654 0
M  V30 2212 H 210.581 -5.06115 1.09855 0
M  V30 2213 H 207.258 -3.98449 -1.24679 0
M  V30 2214 H 208.648 -6.4214 1.97751 0
M  V30 2215 N 211.368 -0.403325 -1.52352 0
M  V30 2216 C 212.301 0.469463 -2.23319 0
M  V30 2217 C 213.279 1.05272 -1.23922 0
M  V30 2218 O 214.463 1.10169 -1.52954 0
M  V30 2219 C 211.59 1.6511 -2.9573 0
M  V30 2220 C 210.636 1.19178 -4.0951 0
M  V30 2221 S 211.469 0.161718 -5.35256 0
M  V30 2222 C 212.625 1.34882 -6.11194 0
M  V30 2223 H 212.858 -0.133134 -2.97002 0
M  V30 2224 H 210.391 -0.187588 -1.53256 0
M  V30 2225 H 212.349 2.3287 -3.38056 0
M  V30 2226 H 211.01 2.22503 -2.21701 0
M  V30 2227 H 210.203 2.07444 -4.59329 0
M  V30 2228 H 209.805 0.592911 -3.6927 0
M  V30 2229 H 212.097 2.27345 -6.38217 0
M  V30 2230 H 213.04 0.89128 -7.02468 0
M  V30 2231 H 213.448 1.57198 -5.42171 0
M  V30 2232 N 212.846 1.57033 -0.133567 0
M  V30 2233 C 214.092 1.95976 0.521649 0
M  V30 2234 C 214.425 1.01779 1.65393 0
M  V30 2235 O 213.7 0.0576581 1.94415 0
M  V30 2236 C 213.983 3.44738 1.04057 0
M  V30 2237 C 213.836 4.49711 -0.0892897 0
M  V30 2238 C 215.155 3.95682 1.92675 0
M  V30 2239 H 212.274 0.712579 0.188149 0
M  V30 2240 H 214.916 1.88813 -0.212076 0
M  V30 2241 H 213.066 3.50973 1.66583 0
M  V30 2242 H 214.738 4.55565 -0.725152 0
M  V30 2243 H 212.981 4.27261 -0.750378 0
M  V30 2244 H 213.652 5.51099 0.315284 0
M  V30 2245 H 216.128 3.91841 1.39998 0
M  V30 2246 H 215.004 5.00262 2.25897 0
M  V30 2247 H 215.265 3.37239 2.85872 0
M  V30 2248 N 214.325 -0.140222 1.56975 0
M  V30 2249 C 215.571 -0.852949 1.83991 0
M  V30 2250 C 215.904 -1.80512 0.716187 0
M  V30 2251 O 215.179 -1.92479 -0.279681 0
M  V30 2252 C 215.462 -1.6215 3.21527 0
M  V30 2253 C 215.315 -0.690363 4.4447 0
M  V30 2254 C 216.634 -2.58247 3.56366 0
M  V30 2255 H 213.753 -0.308634 0.669264 0
M  V30 2256 H 216.395 -0.117898 1.89634 0
M  V30 2257 H 214.545 -2.24812 3.16847 0
M  V30 2258 H 216.217 -0.0742264 4.6124 0
M  V30 2259 H 214.46 -0.000396433 4.338 0
M  V30 2260 H 215.131 -1.2643 5.37326 0
M  V30 2261 H 217.607 -2.05701 3.61699 0
M  V30 2262 H 216.483 -3.09067 4.53617 0
M  V30 2263 H 216.744 -3.39923 2.82674 0
M  V30 2264 N 215.803 -1.52179 -0.40978 0
M  V30 2265 C 217.051 -1.65878 -1.15451 0
M  V30 2266 C 217.372 -0.390771 -1.91044 0
M  V30 2267 O 216.642 0.594323 -1.86667 0
M  V30 2268 H 215.222 -0.611405 -0.429177 0
M  V30 2269 H 217.884 -1.89219 -0.467134 0
M  V30 2270 H 216.98 -2.49954 -1.86894 0
M  V30 2271 N 217.281 0.66697 -1.42791 0
M  V30 2272 C 218.509 1.45505 -1.47091 0
M  V30 2273 C 218.924 1.8861 -0.0845873 0
M  V30 2274 O 218.281 1.58632 0.90234 0
M  V30 2275 C 218.332 2.69906 -2.40485 0
M  V30 2276 O 218.053 2.28608 -3.73725 0
M  V30 2277 C 219.554 3.63396 -2.53886 0
M  V30 2278 H 216.774 0.447459 -0.500022 0
M  V30 2279 H 219.318 0.818866 -1.8739 0
M  V30 2280 H 217.473 3.29696 -2.03419 0
M  V30 2281 H 217.887 3.08997 -4.23817 0
M  V30 2282 H 219.361 4.47387 -3.2334 0
M  V30 2283 H 219.838 4.09824 -1.57927 0
M  V30 2284 H 220.444 3.09495 -2.91706 0
M  V30 2285 N 218.759 1.29093 0.90403 0
M  V30 2286 C 220.17 1.15186 1.46932 0
M  V30 2287 C 220.521 -0.254587 1.94541 0
M  V30 2288 O 219.646 -1.14972 1.83332 0
M  V30 2289 C 220.241 2.08492 2.67051 0
M  V30 2290 C 218.8 1.98621 3.19729 0
M  V30 2291 C 217.947 1.9967 1.92425 0
M  V30 2292 H 220.898 1.41641 0.715789 0
M  V30 2293 H 220.919 1.65461 3.42641 0
M  V30 2294 H 220.431 3.10847 2.3237 0
M  V30 2295 H 218.532 0.993389 3.59114 0
M  V30 2296 H 218.645 2.86068 3.8432 0
M  V30 2297 H 217.009 1.44208 2.09943 0
M  V30 2298 H 217.792 3.03721 1.60026 0
M  V30 2299 N 220.237 -1.11381 1.11499 0
M  V30 2300 C 221.485 -1.8277 0.862524 0
M  V30 2301 C 221.806 -1.85097 -0.613534 0
M  V30 2302 O 221.076 -1.32198 -1.4457 0
M  V30 2303 H 219.656 -0.676823 0.316101 0
M  V30 2304 H 222.318 -1.34816 1.4075 0
M  V30 2305 H 221.414 -2.86614 1.23527 0
M  V30 2306 N 221.715 -0.905404 -1.28997 0
M  V30 2307 C 223.131 -0.60233 -1.47798 0
M  V30 2308 C 223.331 0.854645 -1.82478 0
M  V30 2309 O 222.387 1.63439 -1.92468 0
M  V30 2310 C 223.7 -1.53306 -2.58685 0
M  V30 2311 C 225.248 -1.53887 -2.72558 0
M  V30 2312 C 225.723 -2.45602 -3.86579 0
M  V30 2313 N 227.214 -2.43681 -3.93921 0
M  V30 2314 C 227.949 -3.11347 -4.81509 0
M  V30 2315 N 227.445 -3.88313 -5.73746 0
M  V30 2316 N 229.238 -3.00476 -4.75048 0
M  V30 2317 H 221.389 -1.84765 -1.04764 0
M  V30 2318 H 223.652 -0.792025 -0.520961 0
M  V30 2319 H 223.358 -2.57141 -2.39941 0
M  V30 2320 H 223.232 -1.25787 -3.55609 0
M  V30 2321 H 225.619 -0.507941 -2.90696 0
M  V30 2322 H 225.7 -1.85447 -1.76191 0
M  V30 2323 H 225.344 -3.48792 -3.69197 0
M  V30 2324 H 225.274 -2.11349 -4.82327 0
M  V30 2325 H 227.765 -1.87767 -3.27951 0
M  V30 2326 H 228.078 -4.36985 -6.37389 0
M  V30 2327 H 226.423 -3.92419 -5.73614 0
M  V30 2328 H 229.614 -2.39858 -4.01977 0
M  V30 2329 H 229.787 -3.53485 -5.43095 0
M  V30 2330 N 223.193 1.4272 -0.668489 0
M  V30 2331 C 224.439 2.01923 -0.188419 0
M  V30 2332 C 224.772 1.52704 1.19979 0
M  V30 2333 O 224.047 0.726566 1.8042 0
M  V30 2334 C 224.33 3.59451 -0.216085 0
M  V30 2335 C 224.183 4.18864 -1.6393 0
M  V30 2336 C 225.502 4.37903 0.439179 0
M  V30 2337 H 222.621 0.733674 -0.0699412 0
M  V30 2338 H 225.263 1.69822 -0.852076 0
M  V30 2339 H 223.413 3.86929 0.349012 0
M  V30 2340 H 225.085 4.02362 -2.25616 0
M  V30 2341 H 223.328 3.74933 -2.18193 0
M  V30 2342 H 223.999 5.27987 -1.61039 0
M  V30 2343 H 226.475 4.16079 -0.0417878 0
M  V30 2344 H 225.351 5.47519 0.389157 0
M  V30 2345 H 225.612 4.15303 1.51577 0
M  V30 2346 N 224.671 0.411399 1.52136 0
M  V30 2347 C 225.901 -0.16284 2.05957 0
M  V30 2348 C 226.309 -1.3922 1.28119 0
M  V30 2349 O 225.652 -1.80768 0.326881 0
M  V30 2350 C 225.714 -0.575946 3.54856 0
M  V30 2351 C 225.378 0.542998 4.53763 0
M  V30 2352 C 226.375 1.40726 5.00492 0
M  V30 2353 C 224.06 0.716337 4.97166 0
M  V30 2354 C 226.054 2.4298 5.8927 0
M  V30 2355 C 223.741 1.74218 5.8574 0
M  V30 2356 C 224.739 2.59731 6.31687 0
M  V30 2357 O 224.427 3.60558 7.18507 0
M  V30 2358 H 224.159 -0.0229125 0.675612 0
M  V30 2359 H 226.713 0.581634 1.96993 0
M  V30 2360 H 224.943 -1.37274 3.61515 0
M  V30 2361 H 226.632 -1.07836 3.91313 0
M  V30 2362 H 227.398 1.28476 4.67674 0
M  V30 2363 H 223.277 0.0603857 4.6096 0
M  V30 2364 H 226.821 3.0976 6.25055 0
M  V30 2365 H 222.718 1.86498 6.17971 0
M  V30 2366 H 223.486 3.56829 7.36624 0
M  V30 2367 N 226.149 -1.5696 0.141893 0
M  V30 2368 C 227.426 -1.87553 -0.555281 0
M  V30 2369 C 227.806 -1.04699 -1.83306 0
M  V30 2370 O 227.154 -0.132346 -2.28116 0
M  V30 2371 C 227.364 -3.39093 -0.825664 0
M  V30 2372 C 228.712 -4.08199 -1.16869 0
M  V30 2373 O 229.736 -3.44242 -0.915185 0
M  V30 2374 O 228.595 -5.21139 -1.6455 0
M  V30 2375 H 225.689 -0.777188 -0.282679 0
M  V30 2376 H 228.235 -1.68763 0.17812 0
M  V30 2377 H 227.007 -3.91221 0.0788633 0
M  V30 2378 H 226.63 -3.63393 -1.61343 0
M  V30 2379 N 227.627 0.131896 -1.57047 0
M  V30 2380 C 228.56 1.19236 -1.94571 0
M  V30 2381 C 229.538 1.40782 -0.813576 0
M  V30 2382 O 230.722 1.55148 -1.07058 0
M  V30 2383 C 227.849 2.54858 -2.23081 0
M  V30 2384 C 226.895 2.49817 -3.45679 0
M  V30 2385 S 227.728 1.95036 -4.98719 0
M  V30 2386 C 228.884 3.32357 -5.30367 0
M  V30 2387 H 229.117 0.872297 -2.84215 0
M  V30 2388 H 226.65 0.338134 -1.50652 0
M  V30 2389 H 228.608 3.32898 -2.40185 0
M  V30 2390 H 227.269 2.84047 -1.34074 0
M  V30 2391 H 226.462 3.49688 -3.62952 0
M  V30 2392 H 226.064 1.79892 -3.27895 0
M  V30 2393 H 228.356 4.28525 -5.2476 0
M  V30 2394 H 229.299 3.19923 -6.31708 0
M  V30 2395 H 229.707 3.3019 -4.57859 0
M  V30 2396 N 229.106 1.52395 0.401703 0
M  V30 2397 C 230.355 1.66044 1.14509 0
M  V30 2398 C 230.668 0.400216 1.91462 0
M  V30 2399 O 231.874 0.416632 2.68284 0
M  V30 2400 C 230.33 2.93388 2.0845 0
M  V30 2401 C 229.938 4.26545 1.36978 0
M  V30 2402 C 231.682 3.16402 2.83001 0
M  V30 2403 C 229.589 5.45007 2.29611 0
M  V30 2404 H 228.519 0.618562 0.431158 0
M  V30 2405 H 231.17 1.78886 0.40892 0
M  V30 2406 H 229.552 2.74263 2.8565 0
M  V30 2407 H 230.726 4.56179 0.650916 0
M  V30 2408 H 229.041 4.09692 0.74438 0
M  V30 2409 H 231.638 4.02085 3.52465 0
M  V30 2410 H 231.981 2.30943 3.46368 0
M  V30 2411 H 232.514 3.36034 2.12898 0
M  V30 2412 H 229.253 6.32835 1.70879 0
M  V30 2413 H 228.773 5.19702 2.9945 0
M  V30 2414 H 230.452 5.7838 2.89974 0
M  V30 2415 N 230.584 -0.659388 1.43143 0
M  V30 2416 C 231.861 -1.41627 1.34912 0
M  V30 2417 C 232.241 -2.11099 -0.00607785 0
M  V30 2418 O 231.589 -2.04353 -1.02236 0
M  V30 2419 C 231.799 -2.40604 2.52805 0
M  V30 2420 C 233.147 -3.04789 2.95616 0
M  V30 2421 O 234.171 -2.50932 2.52807 0
M  V30 2422 O 233.03 -4.02421 3.69756 0
M  V30 2423 H 230.124 -0.63246 0.532844 0
M  V30 2424 H 232.67 -0.686814 1.5518 0
M  V30 2425 H 231.442 -1.88174 3.43083 0
M  V30 2426 H 231.065 -3.21009 2.34604 0
M  V30 2427 N 232.062 -1.29571 -0.897171 0
M  V30 2428 C 233.009 -1.14916 -2.00158 0
M  V30 2429 C 233.979 -0.0418149 -1.66047 0
M  V30 2430 O 235.164 -0.209793 -1.89643 0
M  V30 2431 C 232.304 -0.834307 -3.34863 0
M  V30 2432 C 231.417 -2.02234 -3.8174 0
M  V30 2433 C 230.552 -1.64664 -5.05034 0
M  V30 2434 C 229.591 -2.80033 -5.44286 0
M  V30 2435 N 228.728 -2.42843 -6.58765 0
M  V30 2436 H 233.568 -2.09403 -2.12025 0
M  V30 2437 H 231.105 -1.042 -1.0383 0
M  V30 2438 H 233.063 -0.632436 -4.12379 0
M  V30 2439 H 231.693 0.0736656 -3.22716 0
M  V30 2440 H 230.745 -2.33583 -3.00238 0
M  V30 2441 H 232.057 -2.88673 -4.06779 0
M  V30 2442 H 231.211 -1.4078 -5.9014 0
M  V30 2443 H 229.95 -0.753766 -4.8184 0
M  V30 2444 H 228.955 -3.04596 -4.57713 0
M  V30 2445 H 230.18 -3.69989 -5.6946 0
M  V30 2446 H 228.126 -1.56046 -6.3717 0
M  V30 2447 H 228.043 -3.22815 -6.83613 0
M  V30 2448 H 229.311 -2.22285 -7.47134 0
M  V30 2449 N 233.54 1.10788 -1.12088 0
M  V30 2450 C 234.956 1.34691 -0.856186 0
M  V30 2451 C 235.156 1.94791 0.515615 0
M  V30 2452 O 234.212 2.18524 1.26505 0
M  V30 2453 C 235.525 2.27208 -1.9697 0
M  V30 2454 C 237.073 2.40755 -2.00016 0
M  V30 2455 C 237.548 3.36598 -3.1059 0
M  V30 2456 N 239.039 3.44164 -3.10008 0
M  V30 2457 C 239.774 4.18284 -3.92206 0
M  V30 2458 N 239.27 4.95322 -4.84384 0
M  V30 2459 N 241.063 4.13865 -3.80357 0
M  V30 2460 H 233.214 0.70144 -2.00483 0
M  V30 2461 H 235.477 0.371405 -0.872217 0
M  V30 2462 H 235.183 1.90251 -2.958 0
M  V30 2463 H 235.057 3.27485 -1.87172 0
M  V30 2464 H 237.444 2.76982 -1.01808 0
M  V30 2465 H 237.525 1.40305 -2.13888 0
M  V30 2466 H 237.169 3.01096 -4.09028 0
M  V30 2467 H 237.099 4.36918 -2.93956 0
M  V30 2468 H 239.59 2.8922 -2.43228 0
M  V30 2469 H 239.903 5.49267 -5.43623 0
M  V30 2470 H 238.248 4.94459 -4.884 0
M  V30 2471 H 241.439 3.52773 -3.07683 0
M  V30 2472 H 241.612 4.71372 -4.44649 0
M  V30 2473 N 235.018 0.912232 1.28515 0
M  V30 2474 C 235.968 0.370649 2.24967 0
M  V30 2475 C 236.952 -0.516375 1.52389 0
M  V30 2476 O 238.144 -0.356345 1.73376 0
M  V30 2477 C 235.273 -0.389526 3.41083 0
M  V30 2478 C 234.359 0.51313 4.20984 0
M  V30 2479 N 234.75 1.62604 4.78951 0
M  V30 2480 C 233.048 0.313235 4.44899 0
M  V30 2481 C 233.749 2.18619 5.39055 0
M  V30 2482 N 232.725 1.47765 5.23132 0
M  V30 2483 H 236.527 1.22061 2.67354 0
M  V30 2484 H 234.041 0.764712 1.43269 0
M  V30 2485 H 236.038 -0.794353 4.09262 0
M  V30 2486 H 234.698 -1.2366 3.0023 0
M  V30 2487 H 235.709 2.00864 4.77362 0
M  V30 2488 H 232.386 -0.494452 4.14562 0
M  V30 2489 H 233.776 3.12228 5.94948 0
M  V30 2490 N 236.496 -1.42363 0.676048 0
M  V30 2491 C 237.426 -2.33497 0.0124832 0
M  V30 2492 C 238.407 -1.50748 -0.787981 0
M  V30 2493 O 239.592 -1.79346 -0.744884 0
M  V30 2494 C 236.722 -3.34377 -0.938582 0
M  V30 2495 C 235.676 -4.27289 -0.246622 0
M  V30 2496 C 235.002 -5.18386 -1.31071 0
M  V30 2497 C 236.302 -5.14916 0.875125 0
M  V30 2498 H 237.996 -2.89233 0.773593 0
M  V30 2499 H 235.542 -1.39073 0.37346 0
M  V30 2500 H 237.495 -3.97044 -1.41188 0
M  V30 2501 H 236.219 -2.76947 -1.73113 0
M  V30 2502 H 234.878 -3.66018 0.206456 0
M  V30 2503 H 234.526 -4.57282 -2.09528 0
M  V30 2504 H 234.226 -5.81378 -0.852839 0
M  V30 2505 H 235.75 -5.83929 -1.78492 0
M  V30 2506 H 237.164 -5.71262 0.482983 0
M  V30 2507 H 235.561 -5.86747 1.25887 0
M  V30 2508 H 236.631 -4.53242 1.72335 0
M  V30 2509 N 237.974 -0.419461 -1.51915 0
M  V30 2510 C 239.222 0.152637 -2.01523 0
M  V30 2511 C 239.543 1.44762 -1.30649 0
M  V30 2512 O 238.813 1.90997 -0.435535 0
M  V30 2513 H 237.393 0.0593966 -0.744635 0
M  V30 2514 H 240.055 -0.558073 -1.86739 0
M  V30 2515 H 239.151 0.341369 -3.10227 0
M  V30 2516 N 239.452 1.56882 -0.150215 0
M  V30 2517 C 240.698 1.96518 0.500834 0
M  V30 2518 C 241.031 1.03527 1.64304 0
M  V30 2519 O 240.306 0.0782751 1.94342 0
M  V30 2520 C 240.589 3.45822 1.00395 0
M  V30 2521 C 240.442 4.49591 -0.136983 0
M  V30 2522 C 241.761 3.97704 1.88467 0
M  V30 2523 H 238.88 0.714535 0.18058 0
M  V30 2524 H 241.522 1.88577 -0.232091 0
M  V30 2525 H 239.672 3.5272 1.62851 0
M  V30 2526 H 241.344 4.5477 -0.77343 0
M  V30 2527 H 239.587 4.26441 -0.795652 0
M  V30 2528 H 240.258 5.51402 0.256815 0
M  V30 2529 H 242.734 3.93304 1.35834 0
M  V30 2530 H 241.61 5.0263 2.20578 0
M  V30 2531 H 241.871 3.40252 2.82279 0
M  V30 2532 N 240.93 -0.123565 1.57115 0
M  V30 2533 C 242.207 -0.862196 1.75572 0
M  V30 2534 C 242.587 -1.98279 0.724475 0
M  V30 2535 O 241.935 -2.27102 -0.252407 0
M  V30 2536 C 242.145 -1.38309 3.20424 0
M  V30 2537 C 243.493 -1.83724 3.82793 0
M  V30 2538 O 244.517 -1.47999 3.23998 0
M  V30 2539 O 243.376 -2.49685 4.86127 0
M  V30 2540 H 240.47 -0.409113 0.718718 0
M  V30 2541 H 243.016 -0.107661 1.69358 0
M  V30 2542 H 241.788 -0.578889 3.86994 0
M  V30 2543 H 241.411 -2.20046 3.31158 0
M  V30 2544 N 242.408 -1.52605 -0.393616 0
M  V30 2545 C 243.824 -1.41753 -0.733357 0
M  V30 2546 C 244.024 -0.534293 -1.94287 0
M  V30 2547 O 243.08 -0.0059787 -2.52499 0
M  V30 2548 C 244.393 -2.84531 -0.972772 0
M  V30 2549 C 245.941 -2.93978 -1.07453 0
M  V30 2550 C 246.416 -4.37756 -1.3466 0
M  V30 2551 N 247.907 -4.4106 -1.41492 0
M  V30 2552 C 248.642 -5.49387 -1.642 0
M  V30 2553 N 248.138 -6.67806 -1.8441 0
M  V30 2554 N 249.931 -5.36923 -1.66342 0
M  V30 2555 H 242.082 -2.08555 0.402328 0
M  V30 2556 H 244.345 -0.940654 0.117789 0
M  V30 2557 H 244.051 -3.51353 -0.156204 0
M  V30 2558 H 243.925 -3.26508 -1.88871 0
M  V30 2559 H 246.312 -2.27326 -1.88167 0
M  V30 2560 H 246.393 -2.55435 -0.136605 0
M  V30 2561 H 246.037 -5.04972 -0.544581 0
M  V30 2562 H 245.967 -4.73848 -2.2973 0
M  V30 2563 H 248.458 -3.55705 -1.27601 0
M  V30 2564 H 248.771 -7.46141 -2.01231 0
M  V30 2565 H 247.116 -6.70843 -1.81644 0
M  V30 2566 H 250.307 -4.43381 -1.50102 0
M  V30 2567 H 250.48 -6.21416 -1.837 0
M  V30 2568 N 243.887 0.651787 -1.4349 0
M  V30 2569 C 244.817 1.77621 -1.51569 0
M  V30 2570 C 245.798 1.66022 -0.370253 0
M  V30 2571 O 246.983 1.85095 -0.587658 0
M  V30 2572 C 244.113 3.16056 -1.43966 0
M  V30 2573 C 243.067 3.4242 -2.56774 0
M  V30 2574 C 242.393 4.8067 -2.34223 0
M  V30 2575 C 243.693 3.37023 -3.99015 0
M  V30 2576 H 245.387 1.71117 -2.45681 0
M  V30 2577 H 242.933 0.821825 -1.18246 0
M  V30 2578 H 244.886 3.94472 -1.48221 0
M  V30 2579 H 243.61 3.23293 -0.463586 0
M  V30 2580 H 242.269 2.66375 -2.51873 0
M  V30 2581 H 241.917 4.84585 -1.34856 0
M  V30 2582 H 241.617 4.9927 -3.09844 0
M  V30 2583 H 243.141 5.61342 -2.40265 0
M  V30 2584 H 244.555 4.05374 -4.05395 0
M  V30 2585 H 242.952 3.67159 -4.74673 0
M  V30 2586 H 244.022 2.3518 -4.2405 0
M  V30 2587 N 245.365 1.30045 0.890287 0
M  V30 2588 C 246.312 1.15976 1.99545 0
M  V30 2589 C 247.282 0.0506202 1.66023 0
M  V30 2590 O 248.467 0.219847 1.89529 0
M  V30 2591 C 245.607 0.852054 3.34416 0
M  V30 2592 C 244.72 2.04255 3.80662 0
M  V30 2593 C 243.855 1.6734 5.04154 0
M  V30 2594 C 242.894 2.82916 5.42794 0
M  V30 2595 N 242.031 2.46333 6.57468 0
M  V30 2596 H 246.871 2.10524 2.10911 0
M  V30 2597 H 244.408 1.04749 1.03276 0
M  V30 2598 H 246.366 0.654296 4.12037 0
M  V30 2599 H 244.996 -0.0565502 3.2275 0
M  V30 2600 H 244.048 2.35172 2.98995 0
M  V30 2601 H 245.36 2.90826 4.05242 0
M  V30 2602 H 244.514 1.43908 5.89386 0
M  V30 2603 H 243.253 0.779308 4.81433 0
M  V30 2604 H 242.258 3.0702 4.56091 0
M  V30 2605 H 243.483 3.73004 5.6749 0
M  V30 2606 H 241.429 1.59423 6.36334 0
M  V30 2607 H 241.346 3.26436 6.81891 0
M  V30 2608 H 242.614 2.26244 7.45945 0
M  V30 2609 N 246.843 -1.10192 1.12674 0
M  V30 2610 C 247.773 -2.18652 0.819362 0
M  V30 2611 C 248.754 -1.68698 -0.217915 0
M  V30 2612 O 249.939 -1.94041 -0.0785581 0
M  V30 2613 C 247.069 -3.46202 0.27594 0
M  V30 2614 C 246.023 -4.09444 1.24656 0
M  V30 2615 C 245.349 -5.31725 0.563258 0
M  V30 2616 C 246.649 -4.52863 2.60217 0
M  V30 2617 H 248.343 -2.44622 1.72628 0
M  V30 2618 H 245.889 -1.17571 0.831451 0
M  V30 2619 H 247.842 -4.21372 0.0486149 0
M  V30 2620 H 246.566 -3.1973 -0.666331 0
M  V30 2621 H 245.225 -3.36284 1.45974 0
M  V30 2622 H 244.873 -5.0153 -0.384235 0
M  V30 2623 H 244.573 -5.74991 1.21075 0
M  V30 2624 H 246.097 -6.09624 0.34503 0
M  V30 2625 H 247.511 -5.19294 2.42913 0
M  V30 2626 H 245.908 -5.06986 3.21068 0
M  V30 2627 H 246.978 -3.65656 3.18471 0
M  V30 2628 N 248.321 -0.919034 -1.28029 0
M  V30 2629 C 249.568 -0.554934 -1.94748 0
M  V30 2630 C 249.896 0.90231 -1.72304 0
M  V30 2631 O 249.151 1.65767 -1.04018 0
M  V30 2632 C 249.45 -0.816855 -3.4794 0
M  V30 2633 C 249.116 -2.25448 -3.90492 0
M  V30 2634 C 247.778 -2.64752 -4.01821 0
M  V30 2635 C 250.13 -3.18977 -4.12193 0
M  V30 2636 C 247.458 -3.96727 -4.32232 0
M  V30 2637 C 249.81 -4.50523 -4.44086 0
M  V30 2638 C 248.474 -4.89673 -4.53626 0
M  V30 2639 H 247.744 -0.203065 -0.712633 0
M  V30 2640 H 250.391 -1.16136 -1.52265 0
M  V30 2641 H 248.696 -0.127677 -3.91592 0
M  V30 2642 H 250.393 -0.514238 -3.97689 0
M  V30 2643 H 246.983 -1.93952 -3.82205 0
M  V30 2644 H 251.167 -2.89817 -4.02889 0
M  V30 2645 H 246.423 -4.26754 -4.37825 0
M  V30 2646 H 250.597 -5.23005 -4.59825 0
M  V30 2647 H 248.224 -5.91969 -4.76946 0
M  V30 2648 N 249.799 1.42003 -0.683588 0
M  V30 2649 C 251.048 2.00638 -0.206681 0
M  V30 2650 C 251.361 1.5472 1.19671 0
M  V30 2651 O 252.567 2.05833 1.77045 0
M  V30 2652 C 251.023 3.58487 -0.318632 0
M  V30 2653 C 250.631 4.1339 -1.72663 0
M  V30 2654 C 252.375 4.24384 0.0991141 0
M  V30 2655 C 250.282 5.63633 -1.79087 0
M  V30 2656 H 249.212 0.750408 -0.0735107 0
M  V30 2657 H 251.863 1.62624 -0.850048 0
M  V30 2658 H 250.245 3.94047 0.392781 0
M  V30 2659 H 251.419 3.89273 -2.46583 0
M  V30 2660 H 249.734 3.59976 -2.09299 0
M  V30 2661 H 252.331 5.34652 0.0713833 0
M  V30 2662 H 252.674 4.00505 1.13586 0
M  V30 2663 H 253.207 3.93816 -0.561599 0
M  V30 2664 H 249.946 5.92323 -2.80774 0
M  V30 2665 H 249.466 5.89714 -1.09535 0
M  V30 2666 H 251.145 6.28201 -1.5483 0
M  V30 2667 N 251.277 0.427512 1.51691 0
M  V30 2668 C 252.207 -0.3796 2.30394 0
M  V30 2669 C 253.188 -1.02982 1.35384 0
M  V30 2670 O 254.373 -1.03534 1.643 0
M  V30 2671 C 251.503 -1.48649 3.1388 0
M  V30 2672 C 250.457 -0.960294 4.17088 0
M  V30 2673 C 249.783 -2.16219 4.89033 0
M  V30 2674 C 251.083 -0.00153679 5.223 0
M  V30 2675 H 252.777 0.277164 2.98114 0
M  V30 2676 H 250.323 0.134739 1.43368 0
M  V30 2677 H 252.276 -2.05826 3.67714 0
M  V30 2678 H 251 -2.1714 2.43962 0
M  V30 2679 H 249.659 -0.410806 3.64291 0
M  V30 2680 H 249.307 -2.83307 4.15628 0
M  V30 2681 H 249.007 -1.81654 5.58816 0
M  V30 2682 H 250.531 -2.73968 5.45687 0
M  V30 2683 H 251.945 -0.482687 5.71264 0
M  V30 2684 H 250.342 0.256199 5.99553 0
M  V30 2685 H 251.412 0.938174 4.75738 0
M  V30 2686 N 252.755 -1.56801 0.158532 0
M  V30 2687 C 254.032 -1.88131 -0.535357 0
M  V30 2688 C 254.412 -1.06638 -1.82186 0
M  V30 2689 O 253.76 -0.156533 -2.27963 0
M  V30 2690 C 253.97 -3.39949 -0.789653 0
M  V30 2691 C 255.318 -4.09416 -1.12533 0
M  V30 2692 O 256.342 -3.45194 -0.878622 0
M  V30 2693 O 255.201 -5.22855 -1.59014 0
M  V30 2694 H 252.295 -0.780143 -0.27442 0
M  V30 2695 H 254.841 -1.68564 0.19601 0
M  V30 2696 H 253.613 -3.91115 0.120353 0
M  V30 2697 H 253.236 -3.65084 -1.57479 0
M  V30 2698 N 254.233 0.115231 -1.57178 0
M  V30 2699 C 255.143 1.15994 -2.03918 0
M  V30 2700 C 256.159 1.45103 -0.960268 0
M  V30 2701 O 257.335 1.56144 -1.27204 0
M  V30 2702 C 254.4 2.46568 -2.43732 0
M  V30 2703 C 253.461 2.24822 -3.65723 0
M  V30 2704 C 252.694 3.4917 -4.03629 0
M  V30 2705 O 252.917 4.56623 -3.41835 0
M  V30 2706 O 251.851 3.39949 -4.96708 0
M  V30 2707 H 255.677 0.793019 -2.93164 0
M  V30 2708 H 253.262 0.3263 -1.45793 0
M  V30 2709 H 255.144 3.23492 -2.70057 0
M  V30 2710 H 253.819 2.82726 -1.57631 0
M  V30 2711 H 252.726 1.45744 -3.44542 0
M  V30 2712 H 254.059 1.93566 -4.52541 0
M  V30 2713 N 255.711 1.52812 0.385517 0
M  V30 2714 C 256.674 1.77188 1.45386 0
M  V30 2715 C 257.674 0.641953 1.4743 0
M  V30 2716 O 258.864 0.910033 1.4854 0
M  V30 2717 C 255.996 1.87582 2.8465 0
M  V30 2718 H 257.189 2.72583 1.25054 0
M  V30 2719 H 254.742 1.43586 0.617467 0
M  V30 2720 H 255.477 0.941849 3.10322 0
M  V30 2721 H 255.262 2.69748 2.84567 0
M  V30 2722 H 256.752 2.08102 3.62054 0
M  V30 2723 N 257.189 -0.644168 1.43834 0
M  V30 2724 C 258.466 -1.40188 1.36406 0
M  V30 2725 C 258.846 -2.11094 0.0163124 0
M  V30 2726 O 258.194 -2.05426 -1.00062 0
M  V30 2727 C 258.404 -2.3791 2.55343 0
M  V30 2728 C 259.752 -3.01637 2.98832 0
M  V30 2729 O 260.776 -2.48237 2.55455 0
M  V30 2730 O 259.635 -3.98477 3.74003 0
M  V30 2731 H 256.729 -0.626773 0.539523 0
M  V30 2732 H 259.275 -0.670317 1.559 0
M  V30 2733 H 258.047 -1.84525 3.4506 0
M  V30 2734 H 257.67 -3.18503 2.37995 0
M  V30 2735 N 258.668 -1.30515 -0.883378 0
M  V30 2736 C 259.578 -1.18959 -2.02203 0
M  V30 2737 C 260.594 -0.109172 -1.73657 0
M  V30 2738 O 261.77 -0.324413 -1.9877 0
M  V30 2739 C 258.835 -0.883871 -3.35244 0
M  V30 2740 C 257.896 -2.04982 -3.77201 0
M  V30 2741 C 257.129 -1.75859 -5.03894 0
M  V30 2742 O 257.352 -0.687276 -5.66244 0
M  V30 2743 O 256.286 -2.61146 -5.42297 0
M  V30 2744 H 260.112 -2.14616 -2.1488 0
M  V30 2745 H 257.697 -1.10124 -1.0096 0
M  V30 2746 H 259.579 -0.728644 -4.15053 0
M  V30 2747 H 258.254 0.0427798 -3.23672 0
M  V30 2748 H 257.161 -2.26038 -2.9809 0
M  V30 2749 H 258.494 -2.95825 -3.93381 0
M  V30 2750 N 260.146 1.09593 -1.13257 0
M  V30 2751 C 261.079 2.15451 -0.752061 0
M  V30 2752 C 262.057 1.60493 0.260913 0
M  V30 2753 O 263.241 1.8788 0.152819 0
M  V30 2754 C 260.368 3.38506 -0.114594 0
M  V30 2755 C 259.414 4.12183 -1.09579 0
M  V30 2756 S 260.247 4.6661 -2.62745 0
M  V30 2757 C 261.403 5.92966 -2.00354 0
M  V30 2758 H 261.636 2.47395 -1.64872 0
M  V30 2759 H 259.169 1.21515 -0.952545 0
M  V30 2760 H 261.127 4.09757 0.246808 0
M  V30 2761 H 259.788 3.04784 0.759309 0
M  V30 2762 H 258.981 5.00445 -0.597545 0
M  V30 2763 H 258.583 3.46785 -1.40057 0
M  V30 2764 H 260.875 6.63882 -1.35156 0
M  V30 2765 H 261.818 6.47467 -2.86691 0
M  V30 2766 H 262.226 5.45405 -1.4558 0
M  V30 2767 N 261.624 0.925811 1.2754 0
M  V30 2768 C 262.554 0.440748 2.29303 0
M  V30 2769 C 263.535 -0.497971 1.62648 0
M  V30 2770 O 264.72 -0.403126 1.8997 0
M  V30 2771 C 261.85 -0.309048 3.45922 0
M  V30 2772 C 260.804 0.54166 4.24559 0
M  V30 2773 C 260.13 -0.337191 5.33636 0
M  V30 2774 C 261.43 1.80516 4.90114 0
M  V30 2775 H 263.124 1.29121 2.70126 0
M  V30 2776 H 260.67 0.622323 1.29858 0
M  V30 2777 H 262.623 -0.659315 4.1621 0
M  V30 2778 H 261.347 -1.19352 3.04011 0
M  V30 2779 H 260.006 0.874609 3.56014 0
M  V30 2780 H 259.654 -1.22056 4.87966 0
M  V30 2781 H 259.354 0.228497 5.87156 0
M  V30 2782 H 260.878 -0.683072 6.06767 0
M  V30 2783 H 262.292 1.52307 5.52698 0
M  V30 2784 H 260.689 2.3142 5.53683 0
M  V30 2785 H 261.759 2.52581 4.13921 0
M  V30 2786 N 263.102 -1.41638 0.69111 0
M  V30 2787 C 264.327 -2.06148 0.227583 0
M  V30 2788 C 264.752 -1.51652 -1.11281 0
M  V30 2789 O 264.11 -0.64164 -1.69566 0
M  V30 2790 C 264.158 -3.60095 0.190858 0
M  V30 2791 O 263.262 -4.03845 -0.835664 0
M  V30 2792 H 262.603 -0.654434 0.112306 0
M  V30 2793 H 265.133 -1.81484 0.944714 0
M  V30 2794 H 265.143 -4.07995 0.020207 0
M  V30 2795 H 263.818 -3.99129 1.16915 0
M  V30 2796 H 262.395 -3.67458 -0.63473 0
M  V30 2797 N 264.58 -0.43555 -1.51462 0
M  V30 2798 C 265.996 -0.0877501 -1.59359 0
M  V30 2799 C 266.196 1.4027 -1.4466 0
M  V30 2800 O 265.252 2.17243 -1.28693 0
M  V30 2801 C 266.565 -0.606264 -2.94525 0
M  V30 2802 C 268.113 -0.566548 -3.0783 0
M  V30 2803 C 268.588 -1.06201 -4.45517 0
M  V30 2804 N 270.079 -1.01992 -4.51832 0
M  V30 2805 C 270.814 -1.37417 -5.5669 0
M  V30 2806 N 270.31 -1.80119 -6.68976 0
M  V30 2807 N 272.103 -1.29245 -5.47039 0
M  V30 2808 H 264.254 -1.40533 -1.59261 0
M  V30 2809 H 266.517 -0.578992 -0.750648 0
M  V30 2810 H 266.223 -1.64901 -3.10645 0
M  V30 2811 H 266.097 -0.0302097 -3.77188 0
M  V30 2812 H 268.484 0.467208 -2.91378 0
M  V30 2813 H 268.565 -1.17898 -2.2701 0
M  V30 2814 H 268.209 -2.09422 -4.62715 0
M  V30 2815 H 268.139 -0.426127 -5.24873 0
M  V30 2816 H 270.63 -0.706308 -3.71241 0
M  V30 2817 H 270.943 -2.05392 -7.45006 0
M  V30 2818 H 269.288 -1.84044 -6.70189 0
M  V30 2819 H 272.479 -0.957522 -4.58202 0
M  V30 2820 H 272.652 -1.57182 -6.28648 0
M  V30 2821 N 266.058 1.56714 -0.166846 0
M  V30 2822 C 267.306 1.96358 0.478305 0
M  V30 2823 C 267.627 1.0537 1.6408 0
M  V30 2824 O 266.897 0.119154 1.95537 0
M  V30 2825 H 265.477 0.725065 0.179692 0
M  V30 2826 H 268.139 1.93329 -0.246985 0
M  V30 2827 H 267.235 3.00547 0.841292 0
M  V30 2828 N 267.536 -0.106894 1.57237 0
M  V30 2829 C 268.783 -0.812526 1.85484 0
M  V30 2830 C 269.111 -1.79304 0.753687 0
M  V30 2831 O 268.366 -1.94047 -0.253853 0
M  V30 2832 C 268.665 -1.58628 3.20268 0
M  V30 2833 C 268.331 -0.748967 4.44636 0
M  V30 2834 C 266.993 -0.518104 4.78403 0
M  V30 2835 C 269.345 -0.166122 5.20935 0
M  V30 2836 C 266.673 0.305659 5.85903 0
M  V30 2837 C 269.025 0.644899 6.29304 0
M  V30 2838 C 267.689 0.885965 6.61594 0
M  V30 2839 H 266.959 -0.297324 0.678734 0
M  V30 2840 H 269.606 -0.0744332 1.91355 0
M  V30 2841 H 267.911 -2.39562 3.10028 0
M  V30 2842 H 269.608 -2.13643 3.39349 0
M  V30 2843 H 266.198 -0.939006 4.18187 0
M  V30 2844 H 270.382 -0.33167 4.95191 0
M  V30 2845 H 265.638 0.501528 6.0934 0
M  V30 2846 H 269.812 1.10345 6.87602 0
M  V30 2847 H 267.439 1.52609 7.44725 0
M  V30 2848 N 269.014 -1.53014 -0.377408 0
M  V30 2849 C 269.961 -1.78616 -1.46168 0
M  V30 2850 C 270.931 -0.629917 -1.53692 0
M  V30 2851 O 272.116 -0.870861 -1.69766 0
M  V30 2852 C 269.256 -1.97123 -2.8326 0
M  V30 2853 C 268.369 -3.24831 -2.84796 0
M  V30 2854 C 267.504 -3.33591 -4.13389 0
M  V30 2855 C 266.543 -4.55377 -4.09021 0
M  V30 2856 N 265.68 -4.61355 -5.29241 0
M  V30 2857 H 270.52 -2.71142 -1.23637 0
M  V30 2858 H 268.057 -1.34326 -0.599577 0
M  V30 2859 H 270.015 -2.05839 -3.62886 0
M  V30 2860 H 268.645 -1.07946 -3.04216 0
M  V30 2861 H 267.697 -3.25128 -1.97474 0
M  V30 2862 H 269.009 -4.14523 -2.77439 0
M  V30 2863 H 268.163 -3.41554 -5.01424 0
M  V30 2864 H 266.902 -2.41894 -4.23484 0
M  V30 2865 H 265.907 -4.47527 -3.19373 0
M  V30 2866 H 267.132 -5.48402 -4.00539 0
M  V30 2867 H 265.078 -3.72554 -5.39944 0
M  V30 2868 H 264.995 -5.44935 -5.24006 0
M  V30 2869 H 266.263 -4.73586 -6.19141 0
M  V30 2870 N 270.492 0.636531 -1.44174 0
M  V30 2871 C 271.455 1.73063 -1.50273 0
M  V30 2872 C 272.455 1.56113 -0.385397 0
M  V30 2873 O 273.645 1.61707 -0.64781 0
M  V30 2874 C 270.777 3.12096 -1.37145 0
M  V30 2875 H 271.97 1.69031 -2.47727 0
M  V30 2876 H 269.523 0.849706 -1.31186 0
M  V30 2877 H 270.258 3.21728 -0.407636 0
M  V30 2878 H 270.043 3.25805 -2.18159 0
M  V30 2879 H 271.533 3.91846 -1.44382 0
M  V30 2880 N 271.97 1.30982 0.876444 0
M  V30 2881 C 272.902 1.13902 1.98894 0
M  V30 2882 C 273.915 0.0798815 1.62604 0
M  V30 2883 O 275.104 0.326743 1.75484 0
M  V30 2884 C 272.204 0.716699 3.31235 0
M  V30 2885 C 271.377 1.85945 3.95908 0
M  V30 2886 C 270.436 1.42426 5.06558 0
M  V30 2887 O 269.462 2.13287 5.27729 0
M  V30 2888 N 270.664 0.308025 5.79682 0
M  V30 2889 H 273.429 2.09724 2.14094 0
M  V30 2890 H 270.99 1.2323 1.05004 0
M  V30 2891 H 272.982 0.408403 4.02634 0
M  V30 2892 H 271.552 -0.149719 3.12241 0
M  V30 2893 H 270.772 2.33541 3.17573 0
M  V30 2894 H 272.06 2.62503 4.35855 0
M  V30 2895 H 271.458 -0.282241 5.64995 0
M  V30 2896 H 270.015 0.0592282 6.51773 0
M  V30 2897 N 273.449 -1.08991 1.13837 0
M  V30 2898 C 274.698 -1.80631 0.897509 0
M  V30 2899 C 275.011 -1.86872 -0.57777 0
M  V30 2900 O 276.217 -2.54866 -0.935701 0
M  V30 2901 C 274.673 -3.24517 1.55618 0
M  V30 2902 C 274.281 -3.26529 3.0673 0
M  V30 2903 C 276.025 -4.00882 1.3962 0
M  V30 2904 C 273.932 -4.64965 3.65461 0
M  V30 2905 H 272.862 -0.67691 0.332129 0
M  V30 2906 H 275.513 -1.2246 1.3666 0
M  V30 2907 H 273.895 -3.82778 1.01476 0
M  V30 2908 H 275.069 -2.78008 3.67489 0
M  V30 2909 H 273.384 -2.63656 3.22296 0
M  V30 2910 H 275.981 -5.03167 1.80906 0
M  V30 2911 H 276.324 -4.14896 0.341578 0
M  V30 2912 H 276.857 -3.49075 1.90766 0
M  V30 2913 H 273.596 -4.56153 4.70749 0
M  V30 2914 H 273.116 -5.13792 3.09481 0
M  V30 2915 H 274.795 -5.3394 3.654 0
M  V30 2916 N 274.927 -0.932562 -1.27047 0
M  V30 2917 C 276.157 -0.591173 -1.97961 0
M  V30 2918 C 276.565 0.836219 -1.69717 0
M  V30 2919 O 275.908 1.56801 -0.957036 0
M  V30 2920 C 275.97 -0.743082 -3.51736 0
M  V30 2921 C 275.634 -2.1435 -4.03613 0
M  V30 2922 C 276.631 -3.11815 -4.16014 0
M  V30 2923 C 274.316 -2.46175 -4.37839 0
M  V30 2924 C 276.31 -4.39211 -4.61923 0
M  V30 2925 C 273.997 -3.73806 -4.83438 0
M  V30 2926 C 274.995 -4.70137 -4.95439 0
M  V30 2927 O 274.683 -5.95496 -5.40037 0
M  V30 2928 H 274.415 -0.222375 -0.638377 0
M  V30 2929 H 276.969 -1.25317 -1.62742 0
M  V30 2930 H 275.199 -0.0239739 -3.86693 0
M  V30 2931 H 276.888 -0.40603 -4.03864 0
M  V30 2932 H 277.654 -2.88549 -3.89826 0
M  V30 2933 H 273.533 -1.71936 -4.27737 0
M  V30 2934 H 277.077 -5.14404 -4.71205 0
M  V30 2935 H 272.974 -3.96888 -5.09068 0
M  V30 2936 H 273.742 -5.98554 -5.58279 0
M  V30 2937 N 276.405 1.4127 -0.698611 0
M  V30 2938 C 277.315 2.34573 -0.0357891 0
M  V30 2939 C 278.331 1.56393 0.762701 0
M  V30 2940 O 279.507 1.8886 0.699564 0
M  V30 2941 C 276.572 3.35159 0.887089 0
M  V30 2942 C 275.633 4.29225 0.0804634 0
M  V30 2943 C 274.866 5.25006 0.959387 0
M  V30 2944 O 275.089 5.26314 2.19886 0
M  V30 2945 O 274.023 6.00519 0.407439 0
M  V30 2946 H 277.849 2.92838 -0.804957 0
M  V30 2947 H 275.434 1.42175 -0.458966 0
M  V30 2948 H 277.316 3.9689 1.41621 0
M  V30 2949 H 275.991 2.79333 1.6357 0
M  V30 2950 H 274.898 3.70833 -0.493328 0
M  V30 2951 H 276.231 4.88157 -0.629547 0
M  V30 2952 N 277.883 0.443576 1.51229 0
M  V30 2953 C 279.129 -0.120975 2.02439 0
M  V30 2954 C 279.462 -1.41815 1.32674 0
M  V30 2955 O 278.737 -1.89373 0.443622 0
M  V30 2956 C 279.02 -0.333291 3.58554 0
M  V30 2957 C 278.873 0.982968 4.38928 0
M  V30 2958 C 280.192 -1.10028 4.26124 0
M  V30 2959 H 277.311 -0.0424923 0.735774 0
M  V30 2960 H 279.953 0.583794 1.80809 0
M  V30 2961 H 278.103 -0.933614 3.77115 0
M  V30 2962 H 279.775 1.61775 4.32003 0
M  V30 2963 H 278.018 1.58611 4.03763 0
M  V30 2964 H 278.689 0.788379 5.46341 0
M  V30 2965 H 281.165 -0.591711 4.11871 0
M  V30 2966 H 280.041 -1.21761 5.35225 0
M  V30 2967 H 280.302 -2.12996 3.87408 0
M  V30 2968 N 279.361 -1.56624 0.175154 0
M  V30 2969 C 280.608 -1.96999 -0.468811 0
M  V30 2970 C 280.936 -1.06129 -1.62994 0
M  V30 2971 O 280.191 -0.0961771 -1.95464 0
M  V30 2972 C 280.49 -3.43419 -0.989864 0
M  V30 2973 C 280.156 -4.50866 0.0557687 0
M  V30 2974 C 278.818 -4.79975 0.343134 0
M  V30 2975 C 281.17 -5.15551 0.765308 0
M  V30 2976 C 278.498 -5.71066 1.34536 0
M  V30 2977 C 280.85 -6.07724 1.75654 0
M  V30 2978 C 279.514 -6.35199 2.05132 0
M  V30 2979 H 278.784 -0.720869 -0.17155 0
M  V30 2980 H 281.431 -1.89616 0.267924 0
M  V30 2981 H 279.736 -3.47772 -1.80449 0
M  V30 2982 H 281.433 -3.72002 -1.49719 0
M  V30 2983 H 278.023 -4.28229 -0.178381 0
M  V30 2984 H 282.207 -4.9317 0.556513 0
M  V30 2985 H 277.463 -5.90635 1.57988 0
M  V30 2986 H 281.637 -6.56912 2.31169 0
M  V30 2987 H 279.264 -7.05584 2.8294 0
M  V30 2988 N 280.839 0.0985539 -1.57292 0
M  V30 2989 C 281.786 1.11981 -2.01814 0
M  V30 2990 C 282.756 1.39999 -0.89384 0
M  V30 2991 O 283.941 1.5152 -1.15958 0
M  V30 2992 C 281.081 2.43577 -2.44467 0
M  V30 2993 C 280.194 2.2232 -3.70402 0
M  V30 2994 C 279.329 3.4729 -4.01949 0
M  V30 2995 C 278.368 3.2128 -5.21005 0
M  V30 2996 N 277.505 4.38507 -5.48321 0
M  V30 2997 H 282.345 0.733149 -2.88841 0
M  V30 2998 H 279.882 0.350482 -1.42864 0
M  V30 2999 H 281.84 3.20373 -2.6724 0
M  V30 3000 H 280.47 2.80097 -1.60455 0
M  V30 3001 H 279.522 1.36343 -3.55126 0
M  V30 3002 H 280.834 1.99089 -4.57345 0
M  V30 3003 H 279.988 4.32495 -4.25479 0
M  V30 3004 H 278.727 3.73572 -3.13521 0
M  V30 3005 H 277.732 2.34468 -4.97298 0
M  V30 3006 H 278.957 2.96348 -6.11028 0
M  V30 3007 H 276.903 4.64871 -4.62851 0
M  V30 3008 H 276.82 4.18455 -6.29628 0
M  V30 3009 H 278.088 5.24787 -5.76385 0
M  V30 3010 N 282.317 1.53212 0.369288 0
M  V30 3011 C 283.264 1.79388 1.45219 0
M  V30 3012 C 284.234 0.638059 1.53356 0
M  V30 3013 O 285.419 0.879852 1.69302 0
M  V30 3014 C 282.559 1.98623 2.82211 0
M  V30 3015 C 281.672 3.26337 2.8307 0
M  V30 3016 C 280.807 3.35779 4.11614 0
M  V30 3017 C 279.846 4.5754 4.06601 0
M  V30 3018 N 278.983 4.64155 5.26787 0
M  V30 3019 H 283.823 2.71794 1.22198 0
M  V30 3020 H 281.36 1.34642 0.592444 0
M  V30 3021 H 283.318 2.07761 3.61789 0
M  V30 3022 H 281.948 1.09558 3.03639 0
M  V30 3023 H 281 3.26171 1.95747 0
M  V30 3024 H 282.312 4.15988 2.75237 0
M  V30 3025 H 281.466 3.44208 4.99606 0
M  V30 3026 H 280.205 2.44137 4.22195 0
M  V30 3027 H 279.21 4.49215 3.16996 0
M  V30 3028 H 280.435 5.50519 3.97625 0
M  V30 3029 H 278.381 3.75413 5.3796 0
M  V30 3030 H 278.298 5.47706 5.21109 0
M  V30 3031 H 279.566 4.76863 6.16621 0
M  V30 3032 N 283.795 -0.628877 1.44509 0
M  V30 3033 C 284.725 -1.75187 1.54376 0
M  V30 3034 C 285.706 -1.65411 0.396618 0
M  V30 3035 O 286.891 -1.84137 0.617031 0
M  V30 3036 C 284.021 -3.13725 1.48976 0
M  V30 3037 C 282.975 -3.38291 2.62189 0
M  V30 3038 C 282.301 -4.76883 2.41841 0
M  V30 3039 C 283.601 -3.30632 4.04326 0
M  V30 3040 H 285.295 -1.67187 2.48373 0
M  V30 3041 H 282.841 -0.802909 1.19538 0
M  V30 3042 H 284.794 -3.92064 1.54478 0
M  V30 3043 H 283.518 -3.22515 0.514961 0
M  V30 3044 H 282.177 -2.62334 2.56079 0
M  V30 3045 H 281.825 -4.82378 1.42548 0
M  V30 3046 H 281.525 -4.94278 3.17747 0
M  V30 3047 H 283.049 -5.57449 2.49165 0
M  V30 3048 H 284.463 -3.98873 4.11793 0
M  V30 3049 H 282.86 -3.59561 4.80454 0
M  V30 3050 H 283.93 -2.28404 4.27738 0
M  V30 3051 N 285.273 -1.31445 -0.869486 0
M  V30 3052 C 286.519 -1.21337 -1.62496 0
M  V30 3053 C 286.852 0.227872 -1.92858 0
M  V30 3054 O 286.127 1.16094 -1.56053 0
M  V30 3055 C 286.41 -2.05814 -2.95487 0
M  V30 3056 C 286.263 -3.5824 -2.72 0
M  V30 3057 C 287.582 -1.9079 -3.96594 0
M  V30 3058 H 284.701 -0.442135 -0.589649 0
M  V30 3059 H 287.343 -1.6124 -1.00507 0
M  V30 3060 H 285.493 -1.71913 -3.48394 0
M  V30 3061 H 287.165 -4.0228 -2.25762 0
M  V30 3062 H 285.408 -3.81647 -2.06224 0
M  V30 3063 H 286.079 -4.12657 -3.66631 0
M  V30 3064 H 288.555 -2.20459 -3.52898 0
M  V30 3065 H 287.431 -2.52199 -4.87531 0
M  V30 3066 H 287.692 -0.871341 -4.33428 0
M  V30 3067 N 286.751 1.08385 -1.14413 0
M  V30 3068 C 288.162 1.62258 -0.923535 0
M  V30 3069 C 288.513 1.88691 0.537595 0
M  V30 3070 O 287.638 1.64454 1.40655 0
M  V30 3071 C 288.233 2.94781 -1.67002 0
M  V30 3072 C 286.792 3.45437 -1.495 0
M  V30 3073 C 285.939 2.19668 -1.69238 0
M  V30 3074 H 288.89 0.916086 -1.2959 0
M  V30 3075 H 288.911 3.63229 -1.13334 0
M  V30 3076 H 288.423 2.7551 -2.73342 0
M  V30 3077 H 286.524 3.6981 -0.455097 0
M  V30 3078 H 286.637 4.22173 -2.2651 0
M  V30 3079 H 285.001 2.28849 -1.11804 0
M  V30 3080 H 285.784 2.02905 -2.7692 0
M  V30 3081 N 288.23 0.939286 1.26551 0
M  V30 3082 C 289.507 0.5038 1.89001 0
M  V30 3083 C 289.887 -1.01854 1.84903 0
M  V30 3084 O 289.235 -1.87773 1.30206 0
M  V30 3085 C 289.445 1.063 3.32417 0
M  V30 3086 C 290.793 1.13051 4.09273 0
M  V30 3087 O 291.817 1.01345 3.41479 0
M  V30 3088 O 290.676 1.31233 5.30509 0
M  V30 3089 H 287.77 0.163897 0.810597 0
M  V30 3090 H 290.316 1.03173 1.34735 0
M  V30 3091 H 289.088 2.10665 3.29752 0
M  V30 3092 H 288.711 0.517408 3.94219 0
M  V30 3093 N 289.708 -1.40897 0.706093 0
M  V30 3094 C 290.957 -2.00284 0.238574 0
M  V30 3095 C 291.27 -1.56604 -1.17194 0
M  V30 3096 O 292.476 -2.08624 -1.73748 0
M  V30 3097 C 290.932 -3.57934 0.375623 0
M  V30 3098 C 290.54 -4.10591 1.79217 0
M  V30 3099 C 292.284 -4.24488 -0.0315857 0
M  V30 3100 C 290.191 -5.60712 1.88032 0
M  V30 3101 H 289.121 -0.749144 0.0854398 0
M  V30 3102 H 291.772 -1.61251 0.875813 0
M  V30 3103 H 290.154 -3.94622 -0.330042 0
M  V30 3104 H 291.328 -3.85301 2.52745 0
M  V30 3105 H 289.643 -3.56601 2.15 0
M  V30 3106 H 292.24 -5.34698 0.0136842 0
M  V30 3107 H 292.583 -4.02261 -1.072 0
M  V30 3108 H 293.116 -3.92873 0.624181 0
M  V30 3109 H 289.855 -5.87781 2.90161 0
M  V30 3110 H 289.375 -5.87896 1.18903 0
M  V30 3111 H 291.054 -6.25658 1.64805 0
M  V30 3112 N 291.186 -0.45159 -1.50991 0
M  V30 3113 C 292.118 0.388634 -2.25881 0
M  V30 3114 C 293.131 0.974041 -1.30446 0
M  V30 3115 O 294.32 0.865758 -1.56099 0
M  V30 3116 C 291.42 1.5571 -3.01011 0
M  V30 3117 C 290.593 1.08801 -4.23652 0
M  V30 3118 C 289.652 2.12825 -4.8124 0
M  V30 3119 O 288.678 1.71678 -5.42693 0
M  V30 3120 N 289.88 3.45453 -4.66522 0
M  V30 3121 H 292.645 -0.25329 -2.98628 0
M  V30 3122 H 290.206 -0.281268 -1.59438 0
M  V30 3123 H 292.198 2.24952 -3.3642 0
M  V30 3124 H 290.768 2.10409 -2.31186 0
M  V30 3125 H 289.988 0.22215 -3.93574 0
M  V30 3126 H 291.276 0.752213 -5.03209 0
M  V30 3127 H 290.674 3.81605 -4.17605 0
M  V30 3128 H 289.231 4.10549 -5.06254 0
M  V30 3129 N 292.664 1.56529 -0.183458 0
M  V30 3130 C 293.91 1.97537 0.459036 0
M  V30 3131 C 294.243 1.06989 1.62071 0
M  V30 3132 O 293.518 0.11948 1.94133 0
M  V30 3133 C 293.801 3.47874 0.930368 0
M  V30 3134 C 293.654 4.492 -0.232317 0
M  V30 3135 C 294.973 4.01612 1.79989 0
M  V30 3136 H 292.092 0.718204 0.165383 0
M  V30 3137 H 294.734 1.88042 -0.272038 0
M  V30 3138 H 292.884 3.56095 1.55333 0
M  V30 3139 H 294.556 4.53027 -0.86972 0
M  V30 3140 H 292.799 4.24657 -0.885928 0
M  V30 3141 H 293.47 5.51823 0.139796 0
M  V30 3142 H 295.946 3.96097 1.27461 0
M  V30 3143 H 294.822 5.07195 2.09867 0
M  V30 3144 H 295.083 3.46163 2.74998 0
M  V30 3145 N 294.142 -0.090211 1.57342 0
M  V30 3146 C 295.105 -1.09335 2.01441 0
M  V30 3147 C 296.105 -1.32666 0.908641 0
M  V30 3148 O 297.295 -1.28697 1.174 0
M  V30 3149 C 294.427 -2.44136 2.3793 0
M  V30 3150 H 295.62 -0.713662 2.91285 0
M  V30 3151 H 293.173 -0.335404 1.52659 0
M  V30 3152 H 293.908 -2.86972 1.51055 0
M  V30 3153 H 293.693 -2.28548 3.18603 0
M  V30 3154 H 295.183 -3.16277 2.72688 0
M  V30 3155 N 295.62 -1.53406 -0.361157 0
M  V30 3156 C 296.55 -1.83136 -1.44857 0
M  V30 3157 C 297.531 -0.685174 -1.5569 0
M  V30 3158 O 298.716 -0.93544 -1.70186 0
M  V30 3159 C 295.846 -2.02522 -2.82138 0
M  V30 3160 C 294.8 -3.18302 -2.86126 0
M  V30 3161 C 294.126 -3.22989 -4.26125 0
M  V30 3162 C 295.426 -4.56796 -2.53248 0
M  V30 3163 H 297.12 -2.74201 -1.20226 0
M  V30 3164 H 294.666 -1.31938 -0.576922 0
M  V30 3165 H 296.619 -2.21904 -3.58241 0
M  V30 3166 H 295.343 -1.08172 -3.08166 0
M  V30 3167 H 294.002 -2.98747 -2.12475 0
M  V30 3168 H 293.65 -2.26267 -4.49235 0
M  V30 3169 H 293.35 -4.00781 -4.29708 0
M  V30 3170 H 294.874 -3.44559 -5.04094 0
M  V30 3171 H 296.288 -4.7631 -3.19064 0
M  V30 3172 H 294.685 -5.36862 -2.68141 0
M  V30 3173 H 295.755 -4.61606 -1.48484 0
M  V30 3174 N 297.098 0.621204 -1.44841 0
M  V30 3175 C 298.345 1.38055 -1.48145 0
M  V30 3176 C 298.673 1.94143 -0.117867 0
M  V30 3177 O 297.928 1.74713 0.881694 0
M  V30 3178 C 298.227 2.55675 -2.4973 0
M  V30 3179 C 297.893 2.17817 -3.94799 0
M  V30 3180 C 296.555 2.07205 -4.34303 0
M  V30 3181 C 298.907 1.88065 -4.86087 0
M  V30 3182 C 296.235 1.65045 -5.63007 0
M  V30 3183 C 298.587 1.47394 -6.15189 0
M  V30 3184 C 297.251 1.35331 -6.53637 0
M  V30 3185 H 296.521 0.505181 -0.542101 0
M  V30 3186 H 299.168 0.703477 -1.78111 0
M  V30 3187 H 297.473 3.2866 -2.13284 0
M  V30 3188 H 299.17 3.13904 -2.4953 0
M  V30 3189 H 295.76 2.26998 -3.63552 0
M  V30 3190 H 299.944 1.95168 -4.56315 0
M  V30 3191 H 295.2 1.54317 -5.91605 0
M  V30 3192 H 299.374 1.23415 -6.85377 0
M  V30 3193 H 297.001 1.02435 -7.53267 0
M  V30 3194 N 298.576 1.31904 0.862503 0
M  V30 3195 C 299.801 1.25135 1.65397 0
M  V30 3196 C 300.226 -0.179 1.87246 0
M  V30 3197 O 299.584 -1.1277 1.4196 0
M  V30 3198 C 299.632 2.00832 2.99498 0
M  V30 3199 O 298.736 1.35075 3.89652 0
M  V30 3200 H 298.077 0.431655 0.504549 0
M  V30 3201 H 300.607 1.74094 1.07483 0
M  V30 3202 H 300.617 2.10709 3.49379 0
M  V30 3203 H 299.292 3.04847 2.82916 0
M  V30 3204 H 297.869 1.33696 3.48109 0
M  V30 3205 N 300.054 -1.07777 1.14986 0
M  V30 3206 C 301.017 -2.13041 0.845358 0
M  V30 3207 C 302.017 -1.60071 -0.152931 0
M  V30 3208 O 303.207 -1.74033 0.0761879 0
M  V30 3209 C 300.339 -3.39896 0.261383 0
M  V30 3210 H 301.532 -2.41485 1.77834 0
M  V30 3211 H 299.085 -1.23595 0.956757 0
M  V30 3212 H 299.82 -3.17091 -0.68 0
M  V30 3213 H 299.605 -3.79642 0.980514 0
M  V30 3214 H 301.095 -4.17548 0.0657687 0
M  V30 3215 N 301.532 -0.945985 -1.26051 0
M  V30 3216 C 302.76 -0.613025 -1.9761 0
M  V30 3217 C 303.175 0.813035 -1.70397 0
M  V30 3218 O 302.532 1.54274 -0.974979 0
M  V30 3219 C 302.583 -0.85159 -3.51326 0
M  V30 3220 O 302.304 -2.22157 -3.77595 0
M  V30 3221 C 303.805 -0.529831 -4.40122 0
M  V30 3222 H 301.025 -0.230593 -0.630133 0
M  V30 3223 H 303.569 -1.268 -1.60443 0
M  V30 3224 H 301.724 -0.243151 -3.86636 0
M  V30 3225 H 302.138 -2.2852 -4.721 0
M  V30 3226 H 303.612 -0.747348 -5.46917 0
M  V30 3227 H 304.089 0.535341 -4.35925 0
M  V30 3228 H 304.695 -1.11721 -4.10364 0
M  V30 3229 N 303.011 1.40521 -0.713556 0
M  V30 3230 C 303.944 2.28198 -0.00881422 0
M  V30 3231 C 304.922 1.43227 0.769735 0
M  V30 3232 O 306.106 1.72641 0.756799 0
M  V30 3233 C 303.233 3.23758 0.994899 0
M  V30 3234 C 302.279 4.25391 0.3074 0
M  V30 3235 S 303.112 5.26765 -0.963247 0
M  V30 3236 C 304.268 6.25888 0.0384143 0
M  V30 3237 H 304.501 2.87622 -0.752407 0
M  V30 3238 H 302.034 1.45925 -0.504502 0
M  V30 3239 H 303.992 3.79341 1.56879 0
M  V30 3240 H 302.653 2.63396 1.71118 0
M  V30 3241 H 301.846 4.92596 1.0661 0
M  V30 3242 H 301.448 3.73497 -0.193879 0
M  V30 3243 H 303.74 6.71683 0.885912 0
M  V30 3244 H 304.683 7.05552 -0.60019 0
M  V30 3245 H 305.091 5.63072 0.401233 0
M  V30 3246 N 304.489 0.459591 1.5075 0
M  V30 3247 C 305.9 0.00171547 1.867 0
M  V30 3248 C 306.251 -1.39934 1.37525 0
M  V30 3249 O 305.376 -2.03523 0.735349 0
M  V30 3250 C 305.971 -0.00366298 3.388 0
M  V30 3251 C 304.53 -0.406026 3.74204 0
M  V30 3252 C 303.677 0.38673 2.7459 0
M  V30 3253 H 306.628 0.674413 1.43657 0
M  V30 3254 H 306.649 -0.808371 3.71814 0
M  V30 3255 H 306.161 1.01617 3.74561 0
M  V30 3256 H 304.262 -1.43063 3.4404 0
M  V30 3257 H 304.375 -0.115362 4.78961 0
M  V30 3258 H 302.739 -0.158019 2.54209 0
M  V30 3259 H 303.522 1.40585 3.13194 0
M  V30 3260 N 305.967 -1.56429 0.191757 0
M  V30 3261 C 306.899 -2.16154 -0.762245 0
M  V30 3262 C 307.912 -1.12247 -1.17917 0
M  V30 3263 O 309.101 -1.39353 -1.11548 0
M  V30 3264 C 306.201 -2.70606 -2.04024 0
M  V30 3265 C 305.374 -3.99381 -1.78364 0
M  V30 3266 C 304.433 -4.38692 -2.90578 0
M  V30 3267 O 303.459 -5.06179 -2.6033 0
M  V30 3268 N 304.661 -4.01922 -4.18854 0
M  V30 3269 H 307.426 -2.98643 -0.251526 0
M  V30 3270 H 304.987 -1.61897 0.00967373 0
M  V30 3271 H 306.979 -2.93891 -2.78227 0
M  V30 3272 H 305.549 -1.9259 -2.46227 0
M  V30 3273 H 304.769 -3.84262 -0.879581 0
M  V30 3274 H 306.057 -4.83445 -1.58614 0
M  V30 3275 H 305.455 -3.47631 -4.46283 0
M  V30 3276 H 304.012 -4.30165 -4.89695 0
M  V30 3277 N 307.445 0.0818655 -1.57387 0
M  V30 3278 C 308.355 1.11642 -2.06333 0
M  V30 3279 C 309.371 1.43033 -0.99083 0
M  V30 3280 O 310.547 1.53411 -1.30488 0
M  V30 3281 C 307.612 2.41342 -2.48907 0
M  V30 3282 C 306.673 2.17014 -3.7041 0
M  V30 3283 C 305.906 3.4053 -4.10944 0
M  V30 3284 O 306.129 4.4927 -3.51444 0
M  V30 3285 O 305.063 3.29336 -5.03807 0
M  V30 3286 H 308.889 0.730657 -2.9478 0
M  V30 3287 H 306.474 0.295301 -1.46452 0
M  V30 3288 H 308.356 3.17691 -2.76858 0
M  V30 3289 H 307.031 2.79319 -1.63593 0
M  V30 3290 H 305.938 1.38403 -3.47556 0
M  V30 3291 H 307.271 1.83923 -4.56545 0
M  V30 3292 N 308.923 1.53595 0.353017 0
M  V30 3293 C 310.172 1.69603 1.09168 0
M  V30 3294 C 310.485 0.460925 1.90092 0
M  V30 3295 O 311.691 0.501774 2.66823 0
M  V30 3296 C 310.147 2.99872 1.9901 0
M  V30 3297 C 309.755 4.30687 1.23339 0
M  V30 3298 C 311.499 3.25246 2.72792 0
M  V30 3299 C 309.406 5.52036 2.12156 0
M  V30 3300 H 308.336 0.631966 0.411261 0
M  V30 3301 H 310.987 1.80096 0.351802 0
M  V30 3302 H 309.369 2.83212 2.7678 0
M  V30 3303 H 310.543 4.58019 0.505456 0
M  V30 3304 H 308.858 4.11853 0.613663 0
M  V30 3305 H 311.455 4.13095 3.39495 0
M  V30 3306 H 311.798 2.41846 3.38846 0
M  V30 3307 H 312.331 3.42638 2.021 0
M  V30 3308 H 309.07 6.37951 1.50659 0
M  V30 3309 H 308.59 5.28966 2.82764 0
M  V30 3310 H 310.269 5.87313 2.71427 0
M  V30 3311 N 310.401 -0.613514 1.45168 0
M  V30 3312 C 311.331 -1.7354 1.56225 0
M  V30 3313 C 312.312 -1.64981 0.41414 0
M  V30 3314 O 313.497 -1.83472 0.636526 0
M  V30 3315 C 310.627 -3.12128 1.52295 0
M  V30 3316 C 309.581 -3.35491 2.65762 0
M  V30 3317 C 308.907 -4.74291 2.46885 0
M  V30 3318 C 310.207 -3.26325 4.0781 0
M  V30 3319 H 311.901 -1.64543 2.50132 0
M  V30 3320 H 309.447 -0.790185 1.20383 0
M  V30 3321 H 311.4 -3.90404 1.58628 0
M  V30 3322 H 310.124 -3.2195 0.549139 0
M  V30 3323 H 308.783 -2.59603 2.58847 0
M  V30 3324 H 308.431 -4.80839 1.47657 0
M  V30 3325 H 308.131 -4.9088 3.22972 0
M  V30 3326 H 309.655 -5.54775 2.55063 0
M  V30 3327 H 311.069 -3.94483 4.16 0
M  V30 3328 H 309.466 -3.54445 4.8424 0
M  V30 3329 H 310.536 -2.23855 4.30136 0
M  V30 3330 N 311.879 -1.3236 -0.855495 0
M  V30 3331 C 312.789 -1.23221 -1.99634 0
M  V30 3332 C 313.805 -0.145983 -1.73387 0
M  V30 3333 O 314.981 -0.366502 -1.98037 0
M  V30 3334 C 312.046 -0.954782 -3.33294 0
M  V30 3335 C 311.107 -2.12937 -3.72769 0
M  V30 3336 C 310.34 -1.86508 -5.00051 0
M  V30 3337 O 310.563 -0.807231 -5.64659 0
M  V30 3338 O 309.497 -2.72591 -5.36636 0
M  V30 3339 H 313.323 -2.19126 -2.1028 0
M  V30 3340 H 310.908 -1.12241 -0.986018 0
M  V30 3341 H 312.79 -0.816519 -4.13414 0
M  V30 3342 H 311.465 -0.0258854 -3.2369 0
M  V30 3343 H 310.372 -2.3231 -2.93228 0
M  V30 3344 H 311.705 -3.04102 -3.87018 0
M  V30 3345 N 313.357 1.07166 -1.15556 0
M  V30 3346 C 314.287 2.16403 -0.877046 0
M  V30 3347 C 315.268 1.69217 0.173111 0
M  V30 3348 O 316.453 1.94181 0.027084 0
M  V30 3349 C 313.583 3.45349 -0.367632 0
M  V30 3350 C 312.537 4.05995 -1.35468 0
M  V30 3351 C 311.863 5.30045 -0.704038 0
M  V30 3352 C 313.163 4.45804 -2.72132 0
M  V30 3353 H 314.857 2.39959 -1.79053 0
M  V30 3354 H 312.403 1.15325 -0.862331 0
M  V30 3355 H 314.356 4.21095 -0.160317 0
M  V30 3356 H 313.08 3.21385 0.581326 0
M  V30 3357 H 311.739 3.32296 -1.54839 0
M  V30 3358 H 311.387 5.02373 0.251128 0
M  V30 3359 H 311.087 5.71579 -1.36277 0
M  V30 3360 H 312.611 6.08495 -0.50654 0
M  V30 3361 H 314.025 5.12671 -2.56595 0
M  V30 3362 H 312.422 4.98296 -3.34397 0
M  V30 3363 H 313.492 3.57083 -3.28054 0
M  V30 3364 N 314.835 0.952656 1.25548 0
M  V30 3365 C 316.063 0.623496 1.97282 0
M  V30 3366 C 316.478 -0.803987 1.70826 0
M  V30 3367 O 315.835 -1.53755 0.983147 0
M  V30 3368 C 315.886 0.870209 3.5087 0
M  V30 3369 O 315.607 2.24156 3.76412 0
M  V30 3370 C 317.108 0.553164 4.39835 0
M  V30 3371 H 314.328 0.233931 0.628902 0
M  V30 3372 H 316.872 1.27649 1.59768 0
M  V30 3373 H 315.027 0.263652 3.86502 0
M  V30 3374 H 315.441 2.31021 4.70882 0
M  V30 3375 H 316.915 0.776342 5.46513 0
M  V30 3376 H 317.392 -0.512215 4.36203 0
M  V30 3377 H 317.998 1.13896 4.09766 0
M  V30 3378 N 316.313 -1.40141 0.720998 0
M  V30 3379 C 317.541 -2.05096 0.272656 0
M  V30 3380 C 317.956 -1.54334 -1.0875 0
M  V30 3381 O 317.313 -0.702211 -1.6845 0
M  V30 3382 C 317.364 -3.60636 0.249835 0
M  V30 3383 O 317.085 -4.09526 1.55629 0
M  V30 3384 C 318.586 -4.42772 -0.216396 0
M  V30 3385 H 315.806 -0.659897 0.121558 0
M  V30 3386 H 318.35 -1.79449 0.980723 0
M  V30 3387 H 316.505 -3.85232 -0.409237 0
M  V30 3388 H 316.919 -5.03758 1.4604 0
M  V30 3389 H 318.393 -5.51702 -0.181212 0
M  V30 3390 H 318.87 -4.20756 -1.25941 0
M  V30 3391 H 319.476 -4.23294 0.412596 0
M  V30 3392 N 317.792 -0.46758 -1.50504 0
M  V30 3393 C 319.208 -0.121533 -1.59137 0
M  V30 3394 C 319.408 1.3717 -1.47603 0
M  V30 3395 O 318.464 2.14464 -1.33272 0
M  V30 3396 C 319.777 -0.6686 -2.93173 0
M  V30 3397 C 321.325 -0.631716 -3.06559 0
M  V30 3398 C 321.8 -1.15627 -4.43164 0
M  V30 3399 N 323.291 -1.11553 -4.49567 0
M  V30 3400 C 324.026 -1.49195 -5.5365 0
M  V30 3401 N 323.522 -1.94269 -6.65005 0
M  V30 3402 N 325.315 -1.4082 -5.44175 0
M  V30 3403 H 317.466 -1.4388 -1.56245 0
M  V30 3404 H 319.729 -0.594784 -0.738198 0
M  V30 3405 H 319.435 -1.71453 -3.07078 0
M  V30 3406 H 319.309 -0.11021 -3.77039 0
M  V30 3407 H 321.696 0.405297 -2.92304 0
M  V30 3408 H 321.777 -1.22687 -2.24458 0
M  V30 3409 H 321.421 -2.1919 -4.58168 0
M  V30 3410 H 321.351 -0.537365 -5.23851 0
M  V30 3411 H 323.842 -0.784895 -3.69659 0
M  V30 3412 H 324.155 -2.21148 -7.40482 0
M  V30 3413 H 322.5 -1.98219 -6.66134 0
M  V30 3414 H 325.691 -1.0545 -4.56068 0
M  V30 3415 H 325.864 -1.70481 -6.25172 0
M  V30 3416 N 319.27 1.56325 -0.20005 0
M  V30 3417 C 320.517 1.97719 0.437411 0
M  V30 3418 C 320.845 1.08709 1.61284 0
M  V30 3419 O 320.1 0.127261 1.95286 0
M  V30 3420 C 320.399 3.4495 0.935103 0
M  V30 3421 C 320.065 4.5072 -0.12749 0
M  V30 3422 C 318.727 4.79368 -0.419451 0
M  V30 3423 C 321.079 5.14268 -0.847231 0
M  V30 3424 C 318.407 5.68854 -1.43604 0
M  V30 3425 C 320.759 6.04852 -1.85301 0
M  V30 3426 C 319.423 6.31855 -2.15211 0
M  V30 3427 H 318.693 0.723507 0.16006 0
M  V30 3428 H 321.34 1.89166 -0.298056 0
M  V30 3429 H 319.645 3.50599 1.74894 0
M  V30 3430 H 321.342 3.74337 1.43781 0
M  V30 3431 H 317.932 4.28458 0.11023 0
M  V30 3432 H 322.116 4.92222 -0.634901 0
M  V30 3433 H 317.372 5.88047 -1.67364 0
M  V30 3434 H 321.546 6.53152 -2.41591 0
M  V30 3435 H 319.173 7.00994 -2.94129 0
M  V30 3436 N 320.748 -0.0735177 1.57428 0
M  V30 3437 C 321.681 -1.11932 1.98863 0
M  V30 3438 C 322.659 -1.37666 0.865266 0
M  V30 3439 O 323.843 -1.51068 1.12742 0
M  V30 3440 C 320.97 -2.46403 2.32386 0
M  V30 3441 C 320.016 -2.36815 3.54713 0
M  V30 3442 S 320.849 -1.76392 5.05614 0
M  V30 3443 C 322.005 -3.12444 5.42337 0
M  V30 3444 H 322.238 -0.766212 2.87257 0
M  V30 3445 H 319.771 -0.281987 1.51803 0
M  V30 3446 H 321.729 -3.23755 2.52375 0
M  V30 3447 H 320.39 -2.78876 1.44524 0
M  V30 3448 H 319.583 -3.35977 3.7568 0
M  V30 3449 H 319.185 -1.67598 3.34345 0
M  V30 3450 H 321.477 -4.08753 5.40303 0
M  V30 3451 H 322.42 -2.96258 6.43146 0
M  V30 3452 H 322.828 -3.1297 4.69798 0
M  V30 3453 N 322.226 -1.5378 -0.344866 0
M  V30 3454 C 323.642 -1.44015 -0.687888 0
M  V30 3455 C 323.842 -0.595834 -1.92489 0
M  V30 3456 O 322.898 -0.0863064 -2.52352 0
M  V30 3457 C 324.211 -2.87481 -0.881758 0
M  V30 3458 C 325.759 -2.97247 -0.980459 0
M  V30 3459 C 326.234 -4.41819 -1.20665 0
M  V30 3460 N 327.725 -4.45339 -1.27389 0
M  V30 3461 C 328.46 -5.54333 -1.46639 0
M  V30 3462 N 327.956 -6.73335 -1.63071 0
M  V30 3463 N 329.749 -5.41944 -1.49176 0
M  V30 3464 H 321.9 -2.07169 0.468475 0
M  V30 3465 H 324.163 -0.93643 0.147655 0
M  V30 3466 H 323.869 -3.51672 -0.0443444 0
M  V30 3467 H 323.743 -3.32352 -1.78388 0
M  V30 3468 H 326.13 -2.33197 -1.8084 0
M  V30 3469 H 326.211 -2.5574 -0.0552713 0
M  V30 3470 H 325.855 -5.06449 -0.383652 0
M  V30 3471 H 325.785 -4.80917 -2.14539 0
M  V30 3472 H 328.276 -3.59585 -1.1622 0
M  V30 3473 H 328.589 -7.52165 -1.77391 0
M  V30 3474 H 326.934 -6.76282 -1.60209 0
M  V30 3475 H 330.125 -4.47932 -1.3592 0
M  V30 3476 H 330.298 -6.26946 -1.63837 0
M  V30 3477 N 323.704 0.605807 -1.45491 0
M  V30 3478 C 324.981 1.36522 -1.40075 0
M  V30 3479 C 325.361 2.10976 -0.0722744 0
M  V30 3480 O 324.709 2.08007 0.945808 0
M  V30 3481 C 324.919 2.31056 -2.61561 0
M  V30 3482 C 326.267 2.93608 -3.06724 0
M  V30 3483 O 327.291 2.41376 -2.61946 0
M  V30 3484 O 326.15 3.88421 -3.84437 0
M  V30 3485 H 323.244 0.612248 -0.555951 0
M  V30 3486 H 325.79 0.628747 -1.57623 0
M  V30 3487 H 324.562 1.75311 -3.49831 0
M  V30 3488 H 324.185 3.12081 -2.46356 0
M  V30 3489 N 325.182 1.32811 0.848464 0
M  V30 3490 C 326.593 1.21315 1.41914 0
M  V30 3491 C 326.944 -0.171847 1.95446 0
M  V30 3492 O 326.069 -1.07093 1.88043 0
M  V30 3493 C 326.664 2.19631 2.57968 0
M  V30 3494 C 325.223 2.12003 3.11017 0
M  V30 3495 C 324.37 2.07651 1.83783 0
M  V30 3496 H 327.321 1.44549 0.655071 0
M  V30 3497 H 327.342 1.79845 3.35315 0
M  V30 3498 H 326.854 3.20423 2.18976 0
M  V30 3499 H 324.955 1.14481 3.54577 0
M  V30 3500 H 325.068 3.02111 3.71841 0
M  V30 3501 H 323.432 1.52983 2.03638 0
M  V30 3502 H 324.215 3.10235 1.47 0
M  V30 3503 N 326.66 -1.06551 1.16123 0
M  V30 3504 C 327.607 -2.13961 0.865414 0
M  V30 3505 C 328.577 -1.65066 -0.185055 0
M  V30 3506 O 329.762 -1.90732 -0.05083 0
M  V30 3507 C 326.902 -3.43113 0.369776 0
M  V30 3508 C 326.015 -4.05756 1.48276 0
M  V30 3509 C 325.15 -5.22773 0.942414 0
M  V30 3510 C 324.189 -5.77395 2.03179 0
M  V30 3511 N 323.326 -6.85731 1.50721 0
M  V30 3512 H 328.166 -2.38605 1.78527 0
M  V30 3513 H 325.703 -1.17072 0.890646 0
M  V30 3514 H 327.661 -4.17151 0.0640643 0
M  V30 3515 H 326.291 -3.18695 -0.513143 0
M  V30 3516 H 325.343 -3.29292 1.9045 0
M  V30 3517 H 326.655 -4.42351 2.30493 0
M  V30 3518 H 325.809 -6.03827 0.589729 0
M  V30 3519 H 324.548 -4.87618 0.0895191 0
M  V30 3520 H 323.553 -4.94981 2.3932 0
M  V30 3521 H 324.778 -6.14603 2.8886 0
M  V30 3522 H 322.724 -6.52499 0.676811 0
M  V30 3523 H 322.641 -7.21254 2.26557 0
M  V30 3524 H 323.909 -7.7047 1.18303 0
M  V30 3525 N 328.138 -0.959301 -1.25041 0
M  V30 3526 C 329.366 -0.633949 -1.96948 0
M  V30 3527 C 329.781 0.794916 -1.7125 0
M  V30 3528 O 329.138 1.53231 -0.991287 0
M  V30 3529 C 329.189 -0.888805 -3.50403 0
M  V30 3530 O 328.91 -2.26149 -3.75218 0
M  V30 3531 C 330.411 -0.576482 -4.39536 0
M  V30 3532 H 327.631 -0.237263 -0.627652 0
M  V30 3533 H 330.175 -1.28495 -1.59089 0
M  V30 3534 H 328.33 -0.284145 -3.86357 0
M  V30 3535 H 328.744 -2.33514 -4.6965 0
M  V30 3536 H 330.218 -0.805314 -5.46094 0
M  V30 3537 H 330.695 0.489075 -4.36468 0
M  V30 3538 H 331.301 -1.16067 -4.09156 0
M  V30 3539 N 329.616 1.39756 -0.72842 0
M  V30 3540 C 330.865 1.99879 -0.270407 0
M  V30 3541 C 331.178 1.58449 1.14688 0
M  V30 3542 O 332.384 2.11362 1.70407 0
M  V30 3543 C 330.84 3.57292 -0.43252 0
M  V30 3544 C 330.448 4.07688 -1.85727 0
M  V30 3545 C 332.192 4.24485 -0.0359507 0
M  V30 3546 C 330.099 5.5765 -1.96928 0
M  V30 3547 H 329.029 0.747689 -0.0973472 0
M  V30 3548 H 331.68 1.59837 -0.901355 0
M  V30 3549 H 330.062 3.95097 0.267219 0
M  V30 3550 H 331.236 3.81231 -2.58843 0
M  V30 3551 H 329.551 3.53135 -2.20646 0
M  V30 3552 H 332.148 5.34609 -0.0987484 0
M  V30 3553 H 332.491 4.03915 1.00787 0
M  V30 3554 H 333.024 3.9183 -0.686604 0
M  V30 3555 H 329.763 5.8309 -2.99476 0
M  V30 3556 H 329.283 5.8593 -1.28241 0
M  V30 3557 H 330.962 6.22957 -1.74737 0
M  V30 3558 N 331.094 0.475555 1.50254 0
M  V30 3559 C 332.024 -0.30611 2.31485 0
M  V30 3560 C 333.005 -0.986228 1.38591 0
M  V30 3561 O 334.19 -0.982541 1.67511 0
M  V30 3562 C 331.32 -1.38588 3.1845 0
M  V30 3563 C 330.274 -0.827115 4.19932 0
M  V30 3564 C 329.6 -2.00551 4.95665 0
M  V30 3565 C 330.9 0.16463 5.2204 0
M  V30 3566 H 332.594 0.371866 2.97082 0
M  V30 3567 H 330.14 0.180282 1.42867 0
M  V30 3568 H 332.093 -1.94023 3.74076 0
M  V30 3569 H 330.817 -2.09269 2.50747 0
M  V30 3570 H 329.476 -0.294702 3.65414 0
M  V30 3571 H 329.124 -2.6994 4.2443 0
M  V30 3572 H 328.824 -1.63784 5.64313 0
M  V30 3573 H 330.348 -2.56468 5.54127 0
M  V30 3574 H 331.762 -0.300699 5.72511 0
M  V30 3575 H 330.159 0.446813 5.98434 0
M  V30 3576 H 331.229 1.08905 4.72512 0
M  V30 3577 N 332.573 -1.56217 0.208337 0
M  V30 3578 C 333.819 -1.98242 -0.427552 0
M  V30 3579 C 334.152 -1.09554 -1.60348 0
M  V30 3580 O 333.427 -0.15035 -1.93918 0
M  V30 3581 C 333.71 -3.4931 -0.874907 0
M  V30 3582 C 333.563 -4.48773 0.303751 0
M  V30 3583 C 334.882 -4.04424 -1.73577 0
M  V30 3584 H 332.001 -0.720744 -0.153936 0
M  V30 3585 H 334.643 -1.87586 0.30192 0
M  V30 3586 H 332.793 -3.58522 -1.49648 0
M  V30 3587 H 334.465 -4.51586 0.941682 0
M  V30 3588 H 332.708 -4.23194 0.953375 0
M  V30 3589 H 333.379 -5.51976 -0.0519883 0
M  V30 3590 H 335.855 -3.98075 -1.21143 0
M  V30 3591 H 334.731 -5.1047 -2.01771 0
M  V30 3592 H 334.992 -3.50494 -2.69456 0
M  V30 3593 N 334.051 0.0651679 -1.57465 0
M  V30 3594 C 334.998 1.07675 -2.04144 0
M  V30 3595 C 335.968 1.38071 -0.923335 0
M  V30 3596 O 337.153 1.49026 -1.19146 0
M  V30 3597 C 334.293 2.38337 -2.49579 0
M  V30 3598 C 333.406 2.14413 -3.75035 0
M  V30 3599 C 332.541 3.38686 -4.09225 0
M  V30 3600 C 331.58 3.10156 -5.27702 0
M  V30 3601 N 330.717 4.26778 -5.57499 0
M  V30 3602 H 335.557 0.671716 -2.90331 0
M  V30 3603 H 333.094 0.3201 -1.43575 0
M  V30 3604 H 335.052 3.14632 -2.73975 0
M  V30 3605 H 333.682 2.7663 -1.6636 0
M  V30 3606 H 332.734 1.2878 -3.57939 0
M  V30 3607 H 334.046 1.89344 -4.61466 0
M  V30 3608 H 333.2 4.23373 -4.34558 0
M  V30 3609 H 331.939 3.66837 -3.21374 0
M  V30 3610 H 330.944 2.23866 -5.02159 0
M  V30 3611 H 332.169 2.8332 -6.17176 0
M  V30 3612 H 330.115 4.54948 -4.72608 0
M  V30 3613 H 330.032 4.05005 -6.38362 0
M  V30 3614 H 331.3 5.12443 -5.87386 0
M  V30 3615 N 335.529 1.53961 0.336706 0
M  V30 3616 C 336.476 1.82428 1.41381 0
M  V30 3617 C 337.446 0.670444 1.51968 0
M  V30 3618 O 338.631 0.915565 1.67398 0
M  V30 3619 C 335.771 2.04564 2.77934 0
M  V30 3620 C 334.884 3.32267 2.76084 0
M  V30 3621 C 334.019 3.44434 4.04399 0
M  V30 3622 C 333.058 4.66061 3.96804 0
M  V30 3623 N 332.195 4.75224 5.16823 0
M  V30 3624 H 337.035 2.74324 1.16405 0
M  V30 3625 H 334.572 1.35869 0.563752 0
M  V30 3626 H 336.53 2.15388 3.57301 0
M  V30 3627 H 335.16 1.15974 3.01247 0
M  V30 3628 H 334.212 3.3025 1.88784 0
M  V30 3629 H 335.524 4.21733 2.66351 0
M  V30 3630 H 334.678 3.54728 4.92192 0
M  V30 3631 H 333.417 2.53037 4.16921 0
M  V30 3632 H 332.422 4.55838 3.07396 0
M  V30 3633 H 333.647 5.58829 3.85858 0
M  V30 3634 H 331.593 3.86739 5.29876 0
M  V30 3635 H 331.51 5.58636 5.09374 0
M  V30 3636 H 332.778 4.89835 6.06367 0
M  V30 3637 N 337.007 -0.598083 1.45811 0
M  V30 3638 C 338.284 -1.35777 1.40797 0
M  V30 3639 C 338.664 -2.10935 0.083462 0
M  V30 3640 O 338.012 -2.08505 -0.934763 0
M  V30 3641 C 338.222 -2.29666 2.62783 0
M  V30 3642 C 339.57 -2.91977 3.08277 0
M  V30 3643 O 340.594 -2.39984 2.63223 0
M  V30 3644 O 339.453 -3.86376 3.86491 0
M  V30 3645 H 336.547 -0.609291 0.55919 0
M  V30 3646 H 339.093 -0.620379 1.57954 0
M  V30 3647 H 337.865 -1.73454 3.50756 0
M  V30 3648 H 337.488 -3.1077 2.48008 0
M  V30 3649 N 338.485 -1.33259 -0.841409 0
M  V30 3650 C 339.395 -1.25332 -1.98316 0
M  V30 3651 C 340.411 -0.164364 -1.73222 0
M  V30 3652 O 341.587 -0.387486 -1.97637 0
M  V30 3653 C 338.652 -0.990078 -3.32262 0
M  V30 3654 C 337.713 -2.16879 -3.70489 0
M  V30 3655 C 336.946 -1.91801 -4.98044 0
M  V30 3656 O 337.169 -0.867075 -5.63771 0
M  V30 3657 O 336.103 -2.78267 -5.33714 0
M  V30 3658 H 339.929 -2.21344 -2.07944 0
M  V30 3659 H 337.514 -1.1328 -0.974058 0
M  V30 3660 H 339.396 -0.860321 -4.12524 0
M  V30 3661 H 338.071 -0.0602155 -3.23644 0
M  V30 3662 H 336.978 -2.35407 -2.90748 0
M  V30 3663 H 338.311 -3.0819 -3.8377 0
M  V30 3664 N 339.963 1.05934 -1.16686 0
M  V30 3665 C 340.893 2.1546 -0.899949 0
M  V30 3666 C 341.874 1.69391 0.155154 0
M  V30 3667 O 343.059 1.94199 0.00648693 0
M  V30 3668 C 340.189 3.44939 -0.404241 0
M  V30 3669 C 339.143 4.04536 -1.39767 0
M  V30 3670 C 338.469 5.29268 -0.760216 0
M  V30 3671 C 339.769 4.42893 -2.76845 0
M  V30 3672 H 341.463 2.38046 -1.81588 0
M  V30 3673 H 339.009 1.14404 -0.874514 0
M  V30 3674 H 340.962 4.20901 -0.204971 0
M  V30 3675 H 339.686 3.21983 0.547206 0
M  V30 3676 H 338.345 3.30635 -1.58355 0
M  V30 3677 H 337.993 5.02611 0.197831 0
M  V30 3678 H 337.693 5.70101 -1.42332 0
M  V30 3679 H 339.217 6.07924 -0.57105 0
M  V30 3680 H 340.631 5.09921 -2.62019 0
M  V30 3681 H 339.028 4.94721 -3.39663 0
M  V30 3682 H 340.098 3.53584 -3.31823 0
M  V30 3683 N 341.441 0.965919 1.2453 0
M  V30 3684 C 342.669 0.644385 1.96609 0
M  V30 3685 C 343.084 -0.785823 1.71669 0
M  V30 3686 O 342.441 -1.52703 0.999399 0
M  V30 3687 C 342.492 0.907375 3.49927 0
M  V30 3688 O 342.213 2.28136 3.74013 0
M  V30 3689 C 343.714 0.599784 4.39224 0
M  V30 3690 H 340.934 0.240588 0.626385 0
M  V30 3691 H 343.478 1.29337 1.58405 0
M  V30 3692 H 341.633 0.304631 3.862 0
M  V30 3693 H 342.047 2.36002 4.68405 0
M  V30 3694 H 343.521 0.834263 5.45659 0
M  V30 3695 H 343.998 -0.465921 4.36722 0
M  V30 3696 H 344.604 1.18235 4.08535 0
M  V30 3697 N 342.919 -1.39368 0.735821 0
M  V30 3698 C 343.849 -2.33234 0.111506 0
M  V30 3699 C 344.83 -1.53954 -0.723334 0
M  V30 3700 O 346.015 -1.82344 -0.668147 0
M  V30 3701 C 343.145 -3.38057 -0.795917 0
M  V30 3702 C 342.099 -4.2795 -0.065172 0
M  V30 3703 C 341.425 -5.23479 -1.08967 0
M  V30 3704 C 342.725 -5.10741 1.09273 0
M  V30 3705 H 344.419 -2.85692 0.895571 0
M  V30 3706 H 341.965 -1.37364 0.432109 0
M  V30 3707 H 343.918 -4.02675 -1.24221 0
M  V30 3708 H 342.642 -2.8404 -1.61211 0
M  V30 3709 H 341.301 -3.64813 0.361511 0
M  V30 3710 H 340.949 -4.65758 -1.89944 0
M  V30 3711 H 340.649 -5.84472 -0.605489 0
M  V30 3712 H 342.173 -5.90974 -1.53565 0
M  V30 3713 H 343.587 -5.68699 0.724841 0
M  V30 3714 H 341.984 -5.8088 1.50659 0
M  V30 3715 H 343.054 -4.45525 1.91404 0
M  V30 3716 N 344.397 -0.483516 -1.5 0
M  V30 3717 C 345.307 0.309172 -2.32554 0
M  V30 3718 C 346.323 0.984159 -1.43493 0
M  V30 3719 O 347.499 0.969399 -1.76535 0
M  V30 3720 C 344.564 1.36979 -3.18493 0
M  V30 3721 C 343.625 0.710095 -4.23387 0
M  V30 3722 C 342.858 1.72018 -5.05218 0
M  V30 3723 O 343.081 2.94813 -4.88305 0
M  V30 3724 O 342.015 1.28515 -5.8802 0
M  V30 3725 H 345.841 -0.366064 -3.01486 0
M  V30 3726 H 343.426 -0.24514 -1.47375 0
M  V30 3727 H 345.308 1.98385 -3.71781 0
M  V30 3728 H 343.983 2.02828 -2.52275 0
M  V30 3729 H 342.89 0.0567539 -3.74057 0
M  V30 3730 H 344.223 0.0943557 -4.9211 0
M  V30 3731 N 345.875 1.56104 -0.216619 0
M  V30 3732 C 347.123 1.97781 0.415593 0
M  V30 3733 C 347.444 1.10536 1.60645 0
M  V30 3734 O 346.714 0.181303 1.95059 0
M  V30 3735 H 345.294 0.730415 0.156534 0
M  V30 3736 H 347.956 1.92445 -0.308366 0
M  V30 3737 H 347.052 3.03072 0.74525 0
M  V30 3738 N 347.353 -0.0568162 1.57498 0
M  V30 3739 C 348.602 -0.752001 1.87157 0
M  V30 3740 C 348.915 -1.77978 0.811375 0
M  V30 3741 O 350.121 -2.52559 0.996293 0
M  V30 3742 C 348.577 -1.38844 3.3204 0
M  V30 3743 C 348.185 -0.398456 4.46225 0
M  V30 3744 C 349.929 -2.06512 3.70882 0
M  V30 3745 C 347.836 -1.04166 5.82154 0
M  V30 3746 H 346.766 -0.28461 0.698222 0
M  V30 3747 H 349.417 -0.00561272 1.83499 0
M  V30 3748 H 347.799 -2.1836 3.30356 0
M  V30 3749 H 348.973 0.367977 4.59328 0
M  V30 3750 H 347.288 0.174592 4.16034 0
M  V30 3751 H 349.885 -2.55437 4.6974 0
M  V30 3752 H 350.228 -2.87117 3.01445 0
M  V30 3753 H 350.761 -1.33808 3.7462 0
M  V30 3754 H 347.5 -0.275614 6.5492 0
M  V30 3755 H 347.02 -1.7786 5.72823 0
M  V30 3756 H 348.699 -1.55715 6.27982 0
M  V30 3757 N 348.832 -1.54138 -0.328536 0
M  V30 3758 C 350.248 -1.44736 -0.672574 0
M  V30 3759 C 350.448 -0.616217 -1.91846 0
M  V30 3760 O 349.504 -0.113067 -2.52247 0
M  V30 3761 C 350.817 -2.884 -0.851217 0
M  V30 3762 C 352.365 -2.98271 -0.948877 0
M  V30 3763 C 352.84 -4.43074 -1.15973 0
M  V30 3764 N 354.331 -4.46665 -1.22658 0
M  V30 3765 C 355.066 -5.55857 -1.40751 0
M  V30 3766 N 354.562 -6.75026 -1.5592 0
M  V30 3767 N 356.355 -5.43495 -1.4342 0
M  V30 3768 H 348.506 -2.06661 0.490421 0
M  V30 3769 H 350.769 -0.934812 0.157579 0
M  V30 3770 H 350.475 -3.51699 -0.00704236 0
M  V30 3771 H 350.349 -3.34225 -1.74853 0
M  V30 3772 H 352.736 -2.35102 -1.78356 0
M  V30 3773 H 352.817 -2.55785 -0.0281435 0
M  V30 3774 H 352.461 -5.06827 -0.329915 0
M  V30 3775 H 352.391 -4.83165 -2.09426 0
M  V30 3776 H 354.882 -3.60797 -1.124 0
M  V30 3777 H 355.195 -7.54004 -1.69404 0
M  V30 3778 H 353.54 -6.77944 -1.53027 0
M  V30 3779 H 356.731 -4.49349 -1.31162 0
M  V30 3780 H 356.904 -6.28649 -1.57178 0
M  V30 3781 N 350.31 0.590341 -1.46126 0
M  V30 3782 C 351.242 1.71427 -1.52136 0
M  V30 3783 C 352.255 1.57542 -0.41042 0
M  V30 3784 O 353.444 1.65106 -0.678389 0
M  V30 3785 C 350.544 3.09605 -1.37834 0
M  V30 3786 C 349.717 3.49566 -2.62912 0
M  V30 3787 C 348.776 4.66773 -2.42918 0
M  V30 3788 O 347.802 4.73019 -3.1661 0
M  V30 3789 N 349.004 5.61161 -1.4859 0
M  V30 3790 H 351.769 1.66728 -2.49042 0
M  V30 3791 H 349.33 0.776113 -1.42085 0
M  V30 3792 H 351.322 3.85796 -1.22243 0
M  V30 3793 H 349.892 3.08714 -0.491393 0
M  V30 3794 H 349.112 2.63158 -2.93499 0
M  V30 3795 H 350.4 3.73028 -3.46017 0
M  V30 3796 H 349.798 5.58844 -0.87808 0
M  V30 3797 H 348.355 6.36814 -1.38965 0
M  V30 3798 N 351.788 1.33704 0.83433 0
M  V30 3799 C 353.035 1.25417 1.58987 0
M  V30 3800 C 353.363 -0.178869 1.93676 0
M  V30 3801 O 352.618 -1.13723 1.59265 0
M  V30 3802 C 352.917 2.07926 2.90692 0
M  V30 3803 C 352.583 3.57066 2.75345 0
M  V30 3804 C 351.245 3.97724 2.70867 0
M  V30 3805 C 353.597 4.51817 2.59828 0
M  V30 3806 C 350.925 5.31344 2.48778 0
M  V30 3807 C 353.277 5.85604 2.39272 0
M  V30 3808 C 351.941 6.25439 2.33199 0
M  V30 3809 H 351.211 0.458934 0.581774 0
M  V30 3810 H 353.858 1.65335 0.966261 0
M  V30 3811 H 352.163 1.608 3.57282 0
M  V30 3812 H 353.86 1.98868 3.48213 0
M  V30 3813 H 350.45 3.24785 2.79665 0
M  V30 3814 H 354.634 4.21311 2.62319 0
M  V30 3815 H 349.89 5.61241 2.42526 0
M  V30 3816 H 354.064 6.58623 2.2625 0
M  V30 3817 H 351.691 7.28914 2.15843 0
M  V30 3818 N 353.266 -1.05314 1.17247 0
M  V30 3819 C 354.496 -1.81707 0.983166 0
M  V30 3820 C 354.904 -1.83222 -0.471822 0
M  V30 3821 O 354.247 -1.25721 -1.3394 0
M  V30 3822 C 354.309 -3.29134 1.44606 0
M  V30 3823 C 353.973 -3.51304 2.92292 0
M  V30 3824 C 354.97 -3.4353 3.90235 0
M  V30 3825 C 352.655 -3.78306 3.30439 0
M  V30 3826 C 354.649 -3.62442 5.24323 0
M  V30 3827 C 352.336 -3.96866 4.64694 0
M  V30 3828 C 353.334 -3.88933 5.61445 0
M  V30 3829 O 353.022 -4.06976 6.93272 0
M  V30 3830 H 352.754 -0.579476 0.348114 0
M  V30 3831 H 355.308 -1.33705 1.55924 0
M  V30 3832 H 353.538 -3.78046 0.813537 0
M  V30 3833 H 355.227 -3.87049 1.22262 0
M  V30 3834 H 355.993 -3.22648 3.62109 0
M  V30 3835 H 351.872 -3.83585 2.55702 0
M  V30 3836 H 355.416 -3.56165 5.99827 0
M  V30 3837 H 351.313 -4.1724 4.92525 0
M  V30 3838 H 352.081 -4.24209 6.99992 0
M  V30 3839 N 354.744 -0.972509 -1.24016 0
M  V30 3840 C 355.99 -0.637978 -1.92504 0
M  V30 3841 C 356.323 0.825383 -1.75787 0
M  V30 3842 O 355.598 1.59442 -1.11393 0
M  V30 3843 C 355.881 -1.01942 -3.45369 0
M  V30 3844 C 355.734 -2.53983 -3.71231 0
M  V30 3845 C 357.053 -0.55751 -4.36555 0
M  V30 3846 H 354.172 -0.233248 -0.699117 0
M  V30 3847 H 356.814 -1.21238 -1.46292 0
M  V30 3848 H 354.964 -0.530656 -3.84859 0
M  V30 3849 H 356.636 -3.10374 -3.41271 0
M  V30 3850 H 354.879 -2.96968 -3.16216 0
M  V30 3851 H 355.55 -2.75723 -4.78206 0
M  V30 3852 H 358.026 -0.977029 -4.04467 0
M  V30 3853 H 356.902 -0.85292 -5.42233 0
M  V30 3854 H 357.163 0.542328 -4.38761 0
M  V30 3855 N 356.222 1.38976 -0.743202 0
M  V30 3856 C 357.185 2.28901 -0.117014 0
M  V30 3857 C 358.185 1.46698 0.658503 0
M  V30 3858 O 359.375 1.67274 0.486305 0
M  V30 3859 C 356.507 3.30309 0.84315 0
M  V30 3860 H 357.7 2.8578 -0.909373 0
M  V30 3861 H 355.253 1.47761 -0.509547 0
M  V30 3862 H 355.988 2.785 1.66157 0
M  V30 3863 H 355.773 3.91029 0.289594 0
M  V30 3864 H 357.263 3.97577 1.2776 0
M  V30 3865 N 357.7 0.491464 1.49741 0
M  V30 3866 C 358.946 -0.0565092 2.02721 0
M  V30 3867 C 359.279 -1.37522 1.37118 0
M  V30 3868 O 358.554 -1.87866 0.503645 0
M  V30 3869 C 358.837 -0.219051 3.59433 0
M  V30 3870 C 358.69 1.12211 4.35579 0
M  V30 3871 C 360.009 -0.964157 4.29409 0
M  V30 3872 H 357.128 -0.0190627 0.736753 0
M  V30 3873 H 359.77 0.641021 1.7886 0
M  V30 3874 H 357.92 -0.813165 3.79895 0
M  V30 3875 H 359.592 1.75437 4.26637 0
M  V30 3876 H 357.835 1.71377 3.98513 0
M  V30 3877 H 358.506 0.961794 5.43556 0
M  V30 3878 H 360.982 -0.460378 4.13545 0
M  V30 3879 H 359.858 -1.04671 5.38828 0
M  V30 3880 H 360.119 -2.00563 3.93988 0
M  V30 3881 N 359.178 -1.55987 0.224894 0
M  V30 3882 C 360.088 -2.24066 -0.69511 0
M  V30 3883 C 361.104 -1.24939 -1.21104 0
M  V30 3884 O 362.28 -1.5776 -1.25195 0
M  V30 3885 C 359.345 -2.90983 -1.88493 0
M  V30 3886 C 358.406 -4.05462 -1.41064 0
M  V30 3887 C 357.639 -4.69179 -2.54375 0
M  V30 3888 O 357.862 -4.31895 -3.72589 0
M  V30 3889 O 356.796 -5.58108 -2.25386 0
M  V30 3890 H 360.622 -3.03353 -0.145149 0
M  V30 3891 H 358.207 -1.49399 -0.00569476 0
M  V30 3892 H 360.089 -3.33209 -2.57972 0
M  V30 3893 H 358.764 -2.14653 -2.42293 0
M  V30 3894 H 357.671 -3.67798 -0.683774 0
M  V30 3895 H 359.004 -4.83545 -0.918985 0
M  V30 3896 N 360.656 0.0484629 -1.57525 0
M  V30 3897 C 361.603 1.05504 -2.05275 0
M  V30 3898 C 362.573 1.37084 -0.937927 0
M  V30 3899 O 363.758 1.47754 -1.2072 0
M  V30 3900 C 360.898 2.35676 -2.52093 0
M  V30 3901 C 360.011 2.10423 -3.77288 0
M  V30 3902 C 359.146 3.34327 -4.12794 0
M  V30 3903 C 358.185 3.04542 -5.30962 0
M  V30 3904 N 357.322 4.20841 -5.61994 0
M  V30 3905 H 362.162 0.640885 -2.91027 0
M  V30 3906 H 359.699 0.304854 -1.43906 0
M  V30 3907 H 361.657 3.11709 -2.77297 0
M  V30 3908 H 360.287 2.7485 -1.69285 0
M  V30 3909 H 359.339 1.24976 -3.59284 0
M  V30 3910 H 360.651 1.84438 -4.63448 0
M  V30 3911 H 359.805 4.1874 -4.39024 0
M  V30 3912 H 358.544 3.63408 -3.25247 0
M  V30 3913 H 357.549 2.18528 -5.04505 0
M  V30 3914 H 358.774 2.76758 -6.20146 0
M  V30 3915 H 356.72 4.4991 -4.77406 0
M  V30 3916 H 356.637 3.98212 -6.42622 0
M  V30 3917 H 357.905 5.06184 -5.92789 0
M  V30 3918 N 362.134 1.5431 0.320358 0
M  V30 3919 C 363.044 1.86946 1.41734 0
M  V30 3920 C 364.06 0.761689 1.56443 0
M  V30 3921 O 365.236 1.05629 1.71477 0
M  V30 3922 C 362.301 2.09293 2.76401 0
M  V30 3923 C 361.362 3.33082 2.70841 0
M  V30 3924 C 360.595 3.54353 3.99086 0
M  V30 3925 O 360.818 2.79002 4.97508 0
M  V30 3926 O 359.752 4.47838 4.0215 0
M  V30 3927 H 363.578 2.80232 1.17062 0
M  V30 3928 H 361.163 1.40255 0.514673 0
M  V30 3929 H 363.045 2.25303 3.56113 0
M  V30 3930 H 361.72 1.19194 3.00956 0
M  V30 3931 H 360.627 3.22454 1.89668 0
M  V30 3932 H 361.96 4.23249 2.5124 0
M  V30 3933 N 363.613 -0.582584 1.46437 0
M  V30 3934 C 364.523 -1.71949 1.59595 0
M  V30 3935 C 365.539 -1.67264 0.479443 0
M  V30 3936 O 366.715 -1.87171 0.743579 0
M  V30 3937 C 363.78 -3.08452 1.58298 0
M  V30 3938 C 362.841 -3.244 2.81182 0
M  V30 3939 C 362.074 -4.54391 2.79937 0
M  V30 3940 O 362.297 -5.38287 1.8869 0
M  V30 3941 O 361.231 -4.73588 3.71481 0
M  V30 3942 H 365.057 -1.63795 2.55744 0
M  V30 3943 H 362.642 -0.749643 1.29231 0
M  V30 3944 H 364.524 -3.89732 1.60271 0
M  V30 3945 H 363.199 -3.17043 0.653094 0
M  V30 3946 H 362.106 -2.42613 2.84763 0
M  V30 3947 H 363.439 -3.20699 3.7338 0
M  V30 3948 N 365.091 -1.34144 -0.827227 0
M  V30 3949 C 366.337 -1.27455 -1.58515 0
M  V30 3950 C 366.692 0.155271 -1.91772 0
M  V30 3951 O 365.985 1.10042 -1.56848 0
M  V30 3952 C 366.179 -2.09464 -2.89585 0
M  V30 3953 C 366.008 -3.60276 -2.69131 0
M  V30 3954 C 364.778 -4.29565 -2.66087 0
M  V30 3955 C 366.976 -4.54367 -2.40947 0
M  V30 3956 N 364.958 -5.66252 -2.37132 0
M  V30 3957 C 366.329 -5.79027 -2.21648 0
M  V30 3958 C 368.384 -4.43327 -2.26639 0
M  V30 3959 C 367.087 -6.93891 -1.89492 0
M  V30 3960 C 369.113 -5.58019 -1.95878 0
M  V30 3961 C 368.475 -6.81695 -1.774 0
M  V30 3962 H 364.574 -0.521614 -0.582617 0
M  V30 3963 H 367.158 -1.68811 -0.970105 0
M  V30 3964 H 365.329 -1.70411 -3.49019 0
M  V30 3965 H 367.061 -1.94453 -3.54923 0
M  V30 3966 H 363.816 -3.81959 -2.80008 0
M  V30 3967 H 364.24 -6.38338 -2.25507 0
M  V30 3968 H 368.882 -3.48333 -2.39633 0
M  V30 3969 H 366.6 -7.88871 -1.75236 0
M  V30 3970 H 370.186 -5.5142 -1.85546 0
M  V30 3971 H 369.066 -7.68942 -1.53941 0
M  V30 3972 N 366.569 1.04691 -1.17803 0
M  V30 3973 C 367.516 2.12557 -0.899343 0
M  V30 3974 C 368.486 1.65339 0.158771 0
M  V30 3975 O 369.671 1.90789 0.0204797 0
M  V30 3976 C 366.811 3.42481 -0.424315 0
M  V30 3977 C 365.924 4.03346 -1.54713 0
M  V30 3978 C 365.059 5.21208 -1.02546 0
M  V30 3979 C 364.098 5.74089 -2.12339 0
M  V30 3980 N 363.235 6.83247 -1.61612 0
M  V30 3981 H 368.075 2.35734 -1.823 0
M  V30 3982 H 365.612 1.1564 -0.909159 0
M  V30 3983 H 367.57 4.16996 -0.130421 0
M  V30 3984 H 366.2 3.19471 0.462377 0
M  V30 3985 H 365.252 3.2622 -1.95664 0
M  V30 3986 H 366.564 4.38628 -2.37501 0
M  V30 3987 H 365.718 6.02812 -0.685718 0
M  V30 3988 H 364.457 4.87414 -0.167084 0
M  V30 3989 H 363.462 4.91111 -2.47165 0
M  V30 3990 H 364.687 6.0993 -2.98601 0
M  V30 3991 H 362.633 6.5134 -0.780533 0
M  V30 3992 H 362.55 7.17559 -2.38003 0
M  V30 3993 H 363.818 7.68491 -1.30545 0
M  V30 3994 N 368.047 0.979072 1.23499 0
M  V30 3995 C 368.977 0.537606 2.27227 0
M  V30 3996 C 369.958 -0.428539 1.64613 0
M  V30 3997 O 371.143 -0.322191 1.91509 0
M  V30 3998 C 368.273 -0.162052 3.46922 0
M  V30 3999 C 367.227 0.721242 4.21879 0
M  V30 4000 C 366.553 -0.110555 5.34586 0
M  V30 4001 C 367.853 2.01141 4.82016 0
M  V30 4002 H 369.547 1.40462 2.64406 0
M  V30 4003 H 367.093 0.67684 1.27102 0
M  V30 4004 H 369.046 -0.482192 4.18632 0
M  V30 4005 H 367.77 -1.06351 3.08799 0
M  V30 4006 H 366.429 1.02482 3.51984 0
M  V30 4007 H 366.077 -1.0125 4.92704 0
M  V30 4008 H 365.777 0.477325 5.85658 0
M  V30 4009 H 367.301 -0.425107 6.09118 0
M  V30 4010 H 368.715 1.75612 5.45741 0
M  V30 4011 H 367.112 2.54695 5.43369 0
M  V30 4012 H 368.182 2.69909 4.02836 0
M  V30 4013 N 369.525 -1.3858 0.750561 0
M  V30 4014 C 370.802 -1.94231 0.231009 0
M  V30 4015 C 371.182 -1.68611 -1.27018 0
M  V30 4016 O 370.53 -1.02296 -2.04323 0
M  V30 4017 C 370.74 -3.44123 0.581428 0
M  V30 4018 C 372.088 -4.2116 0.539389 0
M  V30 4019 O 373.112 -3.52391 0.519541 0
M  V30 4020 O 371.971 -5.43749 0.54765 0
M  V30 4021 H 369.065 -0.825639 0.0474263 0
M  V30 4022 H 371.611 -1.4799 0.830478 0
M  V30 4023 H 370.383 -3.56267 1.61833 0
M  V30 4024 H 370.006 -3.97573 -0.0462047 0
M  V30 4025 N 371.003 -0.499398 -1.49478 0
M  V30 4026 C 372.231 0.0425456 -2.06856 0
M  V30 4027 C 372.646 1.30964 -1.35992 0
M  V30 4028 O 372.003 1.77172 -0.437762 0
M  V30 4029 C 372.054 0.301735 -3.60239 0
M  V30 4030 O 371.775 -0.915127 -4.28436 0
M  V30 4031 C 373.276 0.887499 -4.34325 0
M  V30 4032 H 370.496 -0.0197482 -0.670709 0
M  V30 4033 H 373.04 -0.696297 -1.92281 0
M  V30 4034 H 371.195 0.990556 -3.74522 0
M  V30 4035 H 371.609 -0.676993 -5.20113 0
M  V30 4036 H 373.083 1.01845 -5.42523 0
M  V30 4037 H 373.56 1.88488 -3.96698 0
M  V30 4038 H 374.166 0.236196 -4.24644 0
M  V30 4039 N 372.481 1.55866 -0.233164 0
M  V30 4040 C 373.411 2.23783 0.666599 0
M  V30 4041 C 374.392 1.21343 1.19205 0
M  V30 4042 O 375.577 1.4996 1.23392 0
M  V30 4043 C 372.707 2.92671 1.86978 0
M  V30 4044 C 371.661 4.01682 1.47768 0
M  V30 4045 C 370.987 4.57926 2.76058 0
M  V30 4046 C 372.287 5.18126 0.658993 0
M  V30 4047 H 373.981 2.99232 0.100306 0
M  V30 4048 H 371.527 1.43924 0.046804 0
M  V30 4049 H 373.48 3.3888 2.50476 0
M  V30 4050 H 372.204 2.14688 2.46123 0
M  V30 4051 H 370.863 3.56222 0.866106 0
M  V30 4052 H 370.511 3.76659 3.33372 0
M  V30 4053 H 370.211 5.31505 2.50552 0
M  V30 4054 H 371.735 5.06859 3.40479 0
M  V30 4055 H 373.149 5.60644 1.19795 0
M  V30 4056 H 371.546 5.98009 0.500552 0
M  V30 4057 H 372.616 4.83763 -0.331856 0
M  V30 4058 N 373.959 -0.0401083 1.57549 0
M  V30 4059 C 375.199 -0.738098 1.90608 0
M  V30 4060 C 375.563 -1.73107 0.830539 0
M  V30 4061 O 376.764 -2.4765 1.04513 0
M  V30 4062 C 375.035 -1.39985 3.28845 0
M  V30 4063 S 376.594 -2.12852 3.83718 0
M  V30 4064 H 373.412 -0.24477 0.667539 0
M  V30 4065 H 376.014 0.00693599 1.95499 0
M  V30 4066 H 374.718 -0.663775 4.04997 0
M  V30 4067 H 374.249 -2.18366 3.2723 0
M  V30 4068 H 376.264 -3.39842 3.61555 0
M  V30 4069 N 375.437 -1.54477 -0.31217 0
M  V30 4070 C 376.714 -1.63891 -1.06767 0
M  V30 4071 C 377.094 -0.480028 -2.0557 0
M  V30 4072 O 376.442 0.524487 -2.22399 0
M  V30 4073 C 376.652 -3.01402 -1.75948 0
M  V30 4074 C 378 -3.57838 -2.28554 0
M  V30 4075 O 379.024 -3.03782 -1.85998 0
M  V30 4076 O 377.883 -4.52462 -3.06497 0
M  V30 4077 H 374.977 -0.664125 -0.492816 0
M  V30 4078 H 377.523 -1.66823 -0.311149 0
M  V30 4079 H 376.295 -3.77187 -1.04144 0
M  V30 4080 H 375.918 -3.02199 -2.58383 0
M  V30 4081 N 376.915 0.57481 -1.46744 0
M  V30 4082 C 377.845 1.69337 -1.60771 0
M  V30 4083 C 378.826 1.63825 -0.457736 0
M  V30 4084 O 380.011 1.8172 -0.684947 0
M  V30 4085 C 377.141 3.0798 -1.60517 0
M  V30 4086 C 376.095 3.28327 -2.74564 0
M  V30 4087 C 375.421 4.67578 -2.59373 0
M  V30 4088 C 376.721 3.15398 -4.16319 0
M  V30 4089 H 378.415 1.57853 -2.54407 0
M  V30 4090 H 375.961 0.75799 -1.22436 0
M  V30 4091 H 377.914 3.86061 -1.68923 0
M  V30 4092 H 376.638 3.20381 -0.634305 0
M  V30 4093 H 375.297 2.52649 -2.65639 0
M  V30 4094 H 374.945 4.76755 -1.60353 0
M  V30 4095 H 374.645 4.82144 -3.35873 0
M  V30 4096 H 376.169 5.47817 -2.69682 0
M  V30 4097 H 377.583 3.83315 -4.26313 0
M  V30 4098 H 375.98 3.41482 -4.93468 0
M  V30 4099 H 377.05 2.12372 -4.3592 0
M  V30 4100 N 378.394 1.34581 0.820102 0
M  V30 4101 C 379.624 1.29991 1.6058 0
M  V30 4102 C 380.032 -0.127588 1.88769 0
M  V30 4103 O 379.375 -1.08595 1.48165 0
M  V30 4104 C 379.437 2.02548 2.9701 0
M  V30 4105 C 379.101 3.51794 2.91701 0
M  V30 4106 C 380.098 4.46647 2.66087 0
M  V30 4107 C 377.783 3.94249 3.11245 0
M  V30 4108 C 379.777 5.81929 2.60071 0
M  V30 4109 C 377.464 5.2963 3.04853 0
M  V30 4110 C 378.462 6.23282 2.793 0
M  V30 4111 O 378.15 7.56181 2.72847 0
M  V30 4112 H 377.882 0.448539 0.505756 0
M  V30 4113 H 380.436 1.77811 1.02822 0
M  V30 4114 H 378.666 1.49345 3.56697 0
M  V30 4115 H 380.355 1.91211 3.58041 0
M  V30 4116 H 381.121 4.15168 2.5072 0
M  V30 4117 H 377 3.21749 3.30149 0
M  V30 4118 H 380.544 6.54999 2.40046 0
M  V30 4119 H 376.441 5.60727 3.19774 0
M  V30 4120 H 377.209 7.6595 2.88553 0
M  V30 4121 N 379.872 -1.04064 1.18357 0
M  V30 4122 C 380.782 -2.15569 0.925596 0
M  V30 4123 C 381.798 -1.7365 -0.110295 0
M  V30 4124 O 382.974 -2.01273 0.0716218 0
M  V30 4125 C 380.039 -3.43704 0.454836 0
M  V30 4126 C 379.1 -4.00004 1.55869 0
M  V30 4127 C 378.333 -5.22023 1.1103 0
M  V30 4128 O 378.556 -5.70392 -0.0309756 0
M  V30 4129 O 377.49 -5.70856 1.90805 0
M  V30 4130 H 381.316 -2.40187 1.8586 0
M  V30 4131 H 378.901 -1.1402 0.965394 0
M  V30 4132 H 380.783 -4.20923 0.200382 0
M  V30 4133 H 379.458 -3.20559 -0.449876 0
M  V30 4134 H 378.365 -3.24172 1.86716 0
M  V30 4135 H 379.698 -4.2749 2.43953 0
M  V30 4136 N 381.35 -0.985608 -1.22978 0
M  V30 4137 C 382.578 -0.675582 -1.95559 0
M  V30 4138 C 382.993 0.758413 -1.72897 0
M  V30 4139 O 382.35 1.51094 -1.02357 0
M  V30 4140 C 382.401 -0.96293 -3.48439 0
M  V30 4141 O 382.122 -2.34057 -3.70336 0
M  V30 4142 C 383.623 -0.669585 -4.38214 0
M  V30 4143 H 380.843 -0.250523 -0.622478 0
M  V30 4144 H 383.387 -1.3184 -1.56328 0
M  V30 4145 H 381.542 -0.366033 -3.85667 0
M  V30 4146 H 381.956 -2.43424 -4.64591 0
M  V30 4147 H 383.43 -0.920967 -5.44263 0
M  V30 4148 H 383.907 0.396383 -4.37408 0
M  V30 4149 H 384.513 -1.2472 -4.06602 0
M  V30 4150 N 382.828 1.3818 -0.7579 0
M  V30 4151 C 383.758 2.33027 -0.148597 0
M  V30 4152 C 384.739 1.55085 0.69875 0
M  V30 4153 O 385.924 1.83384 0.639053 0
M  V30 4154 C 383.054 3.3928 0.742034 0
M  V30 4155 C 382.008 4.28 -0.00291946 0
M  V30 4156 C 381.334 5.25146 1.00625 0
M  V30 4157 C 382.634 5.08938 -1.17385 0
M  V30 4158 H 384.328 2.84231 -0.940909 0
M  V30 4159 H 381.874 1.36659 -0.453908 0
M  V30 4160 H 383.827 4.046 1.17799 0
M  V30 4161 H 382.551 2.86569 1.56671 0
M  V30 4162 H 381.21 3.64192 -0.419504 0
M  V30 4163 H 380.858 4.68721 1.8251 0
M  V30 4164 H 380.558 5.85361 0.512428 0
M  V30 4165 H 382.082 5.93342 1.44143 0
M  V30 4166 H 383.496 5.67474 -0.815224 0
M  V30 4167 H 381.893 5.7841 -1.59882 0
M  V30 4168 H 382.963 4.42424 -1.98468 0
M  V30 4169 N 384.306 0.507319 1.49211 0
M  V30 4170 C 385.534 -0.0315749 2.06876 0
M  V30 4171 C 385.949 -1.30241 1.36685 0
M  V30 4172 O 385.306 -1.76937 0.447152 0
M  V30 4173 C 385.357 -0.282627 3.60393 0
M  V30 4174 O 385.078 0.937835 4.27944 0
M  V30 4175 C 386.579 -0.864453 4.3479 0
M  V30 4176 H 383.799 0.0233048 0.670595 0
M  V30 4177 H 386.343 0.706484 1.91909 0
M  V30 4178 H 384.498 -0.97068 3.75042 0
M  V30 4179 H 384.912 0.704567 5.19746 0
M  V30 4180 H 386.386 -0.989664 5.43056 0
M  V30 4181 H 386.863 -1.86382 3.97692 0
M  V30 4182 H 387.469 -0.213672 4.24763 0
M  V30 4183 N 385.784 -1.5574 0.241426 0
M  V30 4184 C 387.033 -1.97986 -0.385295 0
M  V30 4185 C 387.346 -1.13267 -1.59468 0
M  V30 4186 O 388.552 -1.45501 -2.2922 0
M  V30 4187 C 387.008 -3.52275 -0.736884 0
M  V30 4188 C 386.616 -4.45726 0.450796 0
M  V30 4189 C 388.36 -4.03189 -1.3281 0
M  V30 4190 C 386.267 -5.91352 0.0756662 0
M  V30 4191 H 385.197 -0.739386 -0.147731 0
M  V30 4192 H 387.848 -1.80308 0.340779 0
M  V30 4193 H 386.23 -3.65628 -1.52094 0
M  V30 4194 H 387.404 -4.44131 1.22819 0
M  V30 4195 H 385.719 -4.05264 0.956573 0
M  V30 4196 H 388.316 -5.09505 -1.62201 0
M  V30 4197 H 388.659 -3.50212 -2.25071 0
M  V30 4198 H 389.192 -3.93141 -0.607069 0
M  V30 4199 H 385.931 -6.48354 0.965272 0
M  V30 4200 H 385.451 -5.96095 -0.665635 0
M  V30 4201 H 387.13 -6.46084 -0.344075 0
M  V30 4202 N 387.262 0.0317525 -1.57568 0
M  V30 4203 C 388.49 0.734949 -1.93407 0
M  V30 4204 C 388.905 1.69036 -0.84096 0
M  V30 4205 O 388.262 1.81582 0.182836 0
M  V30 4206 C 388.313 1.49432 -3.29169 0
M  V30 4207 O 388.034 0.577261 -4.3428 0
M  V30 4208 C 389.535 2.29492 -3.79273 0
M  V30 4209 H 386.755 0.206706 -0.638368 0
M  V30 4210 H 389.299 -0.00992046 -2.04498 0
M  V30 4211 H 387.454 2.1911 -3.19483 0
M  V30 4212 H 387.868 1.10952 -5.1263 0
M  V30 4213 H 389.342 2.78172 -4.76785 0
M  V30 4214 H 389.819 3.10794 -3.10328 0
M  V30 4215 H 390.425 1.64894 -3.92033 0
M  V30 4216 N 388.74 1.54641 0.303973 0
M  V30 4217 C 389.672 1.81754 1.39636 0
M  V30 4218 C 390.685 0.70035 1.46966 0
M  V30 4219 O 391.874 0.97778 1.49338 0
M  V30 4220 C 388.974 1.93785 2.7803 0
M  V30 4221 C 388.147 3.24156 2.93669 0
M  V30 4222 C 387.206 3.26641 4.12544 0
M  V30 4223 O 386.232 4.00187 4.04771 0
M  V30 4224 N 387.434 2.5182 5.23036 0
M  V30 4225 H 390.199 2.76031 1.16734 0
M  V30 4226 H 387.76 1.54178 0.494033 0
M  V30 4227 H 389.752 1.92852 3.55795 0
M  V30 4228 H 388.322 1.06515 2.93893 0
M  V30 4229 H 387.542 3.37887 2.03042 0
M  V30 4230 H 388.83 4.10195 3.01027 0
M  V30 4231 H 388.228 1.91692 5.32232 0
M  V30 4232 H 386.785 2.56644 5.99147 0
M  V30 4233 N 390.218 -0.567019 1.47046 0
M  V30 4234 C 391.443 -1.3551 1.57009 0
M  V30 4235 C 391.868 -1.86841 0.217259 0
M  V30 4236 O 391.226 -1.62435 -0.805268 0
M  V30 4237 C 391.274 -2.50777 2.5912 0
M  V30 4238 O 390.378 -3.52706 2.13711 0
M  V30 4239 H 389.719 -0.402919 0.52778 0
M  V30 4240 H 392.249 -0.686241 1.92748 0
M  V30 4241 H 392.259 -2.97481 2.79229 0
M  V30 4242 H 390.934 -2.12771 3.57353 0
M  V30 4243 H 389.511 -3.12374 2.03659 0
M  V30 4244 N 391.696 -1.35014 -0.812953 0
M  V30 4245 C 392.945 -1.27269 -1.56479 0
M  V30 4246 C 393.258 0.152771 -1.95002 0
M  V30 4247 O 394.464 0.352451 -2.69203 0
M  V30 4248 C 392.92 -2.23159 -2.82362 0
M  V30 4249 C 392.528 -3.71016 -2.511 0
M  V30 4250 C 394.272 -2.24342 -3.60376 0
M  V30 4251 C 392.179 -4.58746 -3.73237 0
M  V30 4252 H 391.109 -0.472829 -0.587324 0
M  V30 4253 H 393.76 -1.6024 -0.894171 0
M  V30 4254 H 392.142 -1.83151 -3.51101 0
M  V30 4255 H 393.316 -4.1962 -1.90409 0
M  V30 4256 H 391.631 -3.72378 -1.86343 0
M  V30 4257 H 394.228 -2.87107 -4.51081 0
M  V30 4258 H 394.571 -1.24542 -3.97234 0
M  V30 4259 H 395.104 -2.62846 -2.98591 0
M  V30 4260 H 391.843 -5.59521 -3.41492 0
M  V30 4261 H 391.363 -4.14871 -4.33176 0
M  V30 4262 H 393.042 -4.73852 -4.40537 0
M  V30 4263 N 393.175 1.03435 -1.18907 0
M  V30 4264 C 394.424 1.76143 -0.982669 0
M  V30 4265 C 394.737 1.89416 0.487953 0
M  V30 4266 O 395.943 2.59041 0.813036 0
M  V30 4267 C 394.399 3.16722 -1.70924 0
M  V30 4268 C 394.007 3.11522 -3.21959 0
M  V30 4269 C 395.751 3.93764 -1.58588 0
M  V30 4270 C 393.658 4.46999 -3.87228 0
M  V30 4271 H 392.588 0.660292 -0.364047 0
M  V30 4272 H 395.239 1.158 -1.42347 0
M  V30 4273 H 393.621 3.775 -1.19623 0
M  V30 4274 H 394.795 2.60158 -3.80335 0
M  V30 4275 H 393.11 2.47978 -3.34508 0
M  V30 4276 H 395.707 4.93963 -2.04707 0
M  V30 4277 H 396.05 4.12794 -0.539142 0
M  V30 4278 H 396.583 3.39576 -2.07203 0
M  V30 4279 H 393.322 4.33174 -4.91976 0
M  V30 4280 H 392.842 4.98441 -3.33642 0
M  V30 4281 H 394.521 5.15898 -3.90459 0
M  V30 4282 N 394.653 0.992116 1.22453 0
M  V30 4283 C 395.883 0.684949 1.94915 0
M  V30 4284 C 396.291 -0.754292 1.73514 0
M  V30 4285 O 395.634 -1.52056 1.03076 0
M  V30 4286 C 395.696 0.910054 3.47791 0
M  V30 4287 C 395.36 2.33363 3.92926 0
M  V30 4288 C 396.357 3.31308 4.00663 0
M  V30 4289 C 394.042 2.66785 4.25595 0
M  V30 4290 C 396.036 4.6075 4.40441 0
M  V30 4291 C 393.723 3.96446 4.65053 0
M  V30 4292 C 394.721 4.9324 4.72444 0
M  V30 4293 O 394.409 6.20584 5.1101 0
M  V30 4294 H 394.141 0.25258 0.62704 0
M  V30 4295 H 396.695 1.32939 1.56577 0
M  V30 4296 H 394.925 0.208443 3.86138 0
M  V30 4297 H 396.614 0.598257 4.01467 0
M  V30 4298 H 397.38 3.0682 3.75615 0
M  V30 4299 H 393.259 1.92148 4.19047 0
M  V30 4300 H 396.803 5.363 4.46126 0
M  V30 4301 H 392.7 4.20724 4.89552 0
M  V30 4302 H 393.468 6.24509 5.29085 0
M  V30 4303 N 396.131 -1.37776 0.765217 0
M  V30 4304 C 397.371 -2.01691 0.331669 0
M  V30 4305 C 397.735 -1.59432 -1.06983 0
M  V30 4306 O 398.936 -2.15761 -1.60314 0
M  V30 4307 C 397.207 -3.54385 0.463261 0
M  V30 4308 S 398.766 -4.38652 0.114011 0
M  V30 4309 H 395.584 -0.699387 0.127979 0
M  V30 4310 H 398.186 -1.68084 0.998396 0
M  V30 4311 H 396.89 -3.82629 1.48401 0
M  V30 4312 H 396.421 -3.92783 -0.220246 0
M  V30 4313 H 398.436 -4.84021 -1.09261 0
M  V30 4314 N 397.609 -0.515225 -1.4894 0
M  V30 4315 C 398.557 0.269115 -2.31038 0
M  V30 4316 C 399.551 0.949443 -1.40292 0
M  V30 4317 O 400.757 0.87551 -1.57273 0
M  V30 4318 H 397.132 0.10565 -0.744542 0
M  V30 4319 H 399.103 -0.443096 -2.95092 0
M  V30 4320 C 397.852 1.31213 -3.21991 0
M  V30 4321 H 397.175 0.798034 -3.91754 0
M  V30 4322 H 398.615 1.83263 -3.82349 0
M  V30 4323 C 397.074 2.33791 -2.42576 0
M  V30 4324 O 397.604 3.3995 -2.14003 0
M  V30 4325 N 395.81 2.06625 -2.0434 0
M  V30 4326 H 395.357 1.20314 -2.27777 0
M  V30 4327 H 395.315 2.75483 -1.51514 0
M  V30 4328 N 399.087 1.5561 -0.249682 0
M  V30 4329 C 400.315 2.03411 0.378352 0
M  V30 4330 C 400.73 1.12886 1.51335 0
M  V30 4331 O 400.087 0.143833 1.81932 0
M  V30 4332 C 400.138 3.50537 0.88351 0
M  V30 4333 O 399.859 4.37614 -0.20626 0
M  V30 4334 C 401.36 4.14113 1.58195 0
M  V30 4335 H 398.58 0.664994 0.08958 0
M  V30 4336 H 401.124 2.01044 -0.374357 0
M  V30 4337 H 399.279 3.5343 1.58639 0
M  V30 4338 H 399.693 5.24199 0.177782 0
M  V30 4339 H 401.167 5.18741 1.8871 0
M  V30 4340 H 401.644 3.60767 2.50487 0
M  V30 4341 H 402.25 4.15151 0.923573 0
M  V30 4342 N 400.565 -0.0233959 1.57583 0
M  V30 4343 C 401.981 -0.379134 1.55031 0
M  V30 4344 C 402.181 -1.76255 0.976548 0
M  V30 4345 O 401.237 -2.45266 0.600078 0
M  V30 4346 C 402.55 -0.275792 2.99433 0
M  V30 4347 C 404.098 -0.352458 3.11009 0
M  V30 4348 C 404.573 -0.278501 4.57152 0
M  V30 4349 N 406.064 -0.337123 4.61972 0
M  V30 4350 C 406.799 -0.302876 5.726 0
M  V30 4351 N 406.295 -0.220589 6.92449 0
M  V30 4352 N 408.088 -0.353023 5.6099 0
M  V30 4353 H 400.239 0.881869 1.93227 0
M  V30 4354 H 402.502 0.335867 0.886509 0
M  V30 4355 H 402.208 0.675108 3.4516 0
M  V30 4356 H 402.082 -1.06721 3.61788 0
M  V30 4357 H 404.469 -1.29379 2.65226 0
M  V30 4358 H 404.55 0.468409 2.51475 0
M  V30 4359 H 404.194 0.659189 5.03604 0
M  V30 4360 H 404.124 -1.11755 5.14605 0
M  V30 4361 H 406.615 -0.403002 3.75745 0
M  V30 4362 H 406.928 -0.199713 7.72542 0
M  V30 4363 H 405.273 -0.186555 6.9475 0
M  V30 4364 H 408.464 -0.415339 4.66254 0
M  V30 4365 H 408.637 -0.322866 6.47195 0
M  V30 4366 N 402.043 -1.548 -0.295768 0
M  V30 4367 C 402.99 -1.86113 -1.36494 0
M  V30 4368 C 403.96 -0.7105 -1.50137 0
M  V30 4369 O 405.145 -0.959626 -1.64912 0
M  V30 4370 C 402.285 -2.11861 -2.72413 0
M  V30 4371 C 401.398 -3.39471 -2.67177 0
M  V30 4372 C 400.533 -3.55035 -3.95125 0
M  V30 4373 C 399.572 -4.76418 -3.84308 0
M  V30 4374 N 398.709 -4.8876 -5.04042 0
M  V30 4375 H 403.549 -2.77314 -1.09091 0
M  V30 4376 H 401.086 -1.37315 -0.52753 0
M  V30 4377 H 403.044 -2.24786 -3.51464 0
M  V30 4378 H 401.674 -1.2392 -2.98066 0
M  V30 4379 H 400.726 -3.35139 -1.79962 0
M  V30 4380 H 402.038 -4.28646 -2.55076 0
M  V30 4381 H 401.192 -3.67653 -4.82614 0
M  V30 4382 H 399.931 -2.64002 -4.10066 0
M  V30 4383 H 398.936 -4.63827 -2.95202 0
M  V30 4384 H 400.161 -5.68863 -3.70906 0
M  V30 4385 H 398.107 -4.00652 -5.19436 0
M  V30 4386 H 398.024 -5.71945 -4.94384 0
M  V30 4387 H 399.292 -5.0574 -5.93167 0
M  V30 4388 N 403.521 0.559213 -1.47345 0
M  V30 4389 C 404.468 1.66645 -1.59682 0
M  V30 4390 C 405.438 1.60168 -0.43994 0
M  V30 4391 O 406.623 1.79031 -0.659736 0
M  V30 4392 C 403.763 3.04969 -1.61518 0
M  V30 4393 C 402.876 3.21897 -2.88108 0
M  V30 4394 C 402.011 4.50608 -2.81294 0
M  V30 4395 C 401.05 4.60961 -4.02717 0
M  V30 4396 N 400.187 5.81024 -3.94151 0
M  V30 4397 H 405.027 1.55439 -2.54249 0
M  V30 4398 H 402.564 0.757219 -1.26113 0
M  V30 4399 H 404.522 3.85064 -1.60566 0
M  V30 4400 H 403.152 3.15015 -0.704645 0
M  V30 4401 H 402.204 2.35248 -2.98936 0
M  V30 4402 H 403.516 3.25412 -3.78032 0
M  V30 4403 H 402.67 5.3896 -2.7858 0
M  V30 4404 H 401.409 4.49568 -1.89049 0
M  V30 4405 H 400.414 3.71021 -4.05738 0
M  V30 4406 H 401.639 4.63761 -4.96087 0
M  V30 4407 H 399.585 5.80938 -3.04708 0
M  V30 4408 H 399.502 5.85909 -4.77752 0
M  V30 4409 H 400.77 6.71744 -3.9545 0
M  V30 4410 N 404.999 1.35443 0.805782 0
M  V30 4411 C 406.245 1.28952 1.56522 0
M  V30 4412 C 406.578 -0.135597 1.93726 0
M  V30 4413 O 405.853 -1.08516 1.61414 0
M  V30 4414 C 406.136 2.19678 2.85331 0
M  V30 4415 C 405.989 3.7081 2.54598 0
M  V30 4416 C 407.308 2.09495 3.8704 0
M  V30 4417 H 404.427 0.469764 0.567883 0
M  V30 4418 H 407.069 1.65851 0.927001 0
M  V30 4419 H 405.219 1.8834 3.39795 0
M  V30 4420 H 406.891 4.12593 2.06312 0
M  V30 4421 H 405.134 3.91051 1.8778 0
M  V30 4422 H 405.805 4.29679 3.46525 0
M  V30 4423 H 408.281 2.37045 3.41978 0
M  V30 4424 H 407.157 2.75173 4.74943 0
M  V30 4425 H 407.418 1.07714 4.28777 0
M  V30 4426 N 406.477 -1.02803 1.19454 0
M  V30 4427 C 407.754 -1.73299 0.907013 0
M  V30 4428 C 408.134 -2.02772 -0.587086 0
M  V30 4429 O 407.482 -1.68304 -1.54551 0
M  V30 4430 C 407.692 -3.00912 1.76785 0
M  V30 4431 C 409.04 -3.74403 2.00268 0
M  V30 4432 O 410.064 -3.10841 1.73943 0
M  V30 4433 O 408.923 -4.88675 2.4466 0
M  V30 4434 H 406.017 -0.754727 0.338106 0
M  V30 4435 H 408.563 -1.08754 1.30271 0
M  V30 4436 H 407.335 -2.75366 2.7801 0
M  V30 4437 H 406.958 -3.73197 1.37149 0
M  V30 4438 N 407.956 -0.998596 -1.21925 0
M  V30 4439 C 409.205 -0.673085 -1.90138 0
M  V30 4440 C 409.518 0.79895 -1.78539 0
M  V30 4441 O 410.724 1.23628 -2.4172 0
M  V30 4442 C 409.18 -1.15339 -3.40918 0
M  V30 4443 C 408.788 -2.65106 -3.61141 0
M  V30 4444 C 410.532 -0.902476 -4.14796 0
M  V30 4445 C 408.439 -3.0671 -5.05651 0
M  V30 4446 H 407.369 -0.248057 -0.712028 0
M  V30 4447 H 410.02 -1.20891 -1.38049 0
M  V30 4448 H 408.402 -0.545658 -3.92223 0
M  V30 4449 H 409.576 -3.31274 -3.20304 0
M  V30 4450 H 407.891 -2.88142 -3.00605 0
M  V30 4451 H 410.488 -1.18895 -5.21314 0
M  V30 4452 H 410.831 0.161349 -4.15987 0
M  V30 4453 H 411.364 -1.47269 -3.69536 0
M  V30 4454 H 408.103 -4.12292 -5.09603 0
M  V30 4455 H 407.623 -2.45249 -5.47369 0
M  V30 4456 H 409.302 -2.9833 -5.74115 0
M  V30 4457 N 409.434 1.37368 -0.772513 0
M  V30 4458 C 410.364 2.32856 -0.173304 0
M  V30 4459 C 411.345 1.55818 0.682262 0
M  V30 4460 O 412.53 1.84052 0.619566 0
M  V30 4461 C 409.66 3.40048 0.706007 0
M  V30 4462 C 408.614 4.27973 -0.0483144 0
M  V30 4463 C 407.94 5.26184 0.950491 0
M  V30 4464 C 409.24 5.07665 -1.22776 0
M  V30 4465 H 410.934 2.83217 -0.971002 0
M  V30 4466 H 408.48 1.3617 -0.468377 0
M  V30 4467 H 410.433 4.05827 1.13501 0
M  V30 4468 H 409.157 2.88214 1.53623 0
M  V30 4469 H 407.816 3.63726 -0.458107 0
M  V30 4470 H 407.464 4.7063 1.77529 0
M  V30 4471 H 407.164 5.85872 0.450314 0
M  V30 4472 H 408.688 5.94838 1.37842 0
M  V30 4473 H 410.102 5.66578 -0.875366 0
M  V30 4474 H 408.499 5.76681 -1.66007 0
M  V30 4475 H 409.569 4.40294 -2.03149 0
M  V30 4476 N 410.912 0.523116 1.48665 0
M  V30 4477 C 412.14 -0.0096312 2.06898 0
M  V30 4478 C 412.555 -1.28784 1.38059 0
M  V30 4479 O 411.912 -1.76453 0.465893 0
M  V30 4480 C 411.963 -0.244386 3.60673 0
M  V30 4481 O 411.684 0.983172 4.26925 0
M  V30 4482 C 413.185 -0.818289 4.35682 0
M  V30 4483 H 410.405 0.0304161 0.67031 0
M  V30 4484 H 412.949 0.726799 1.91149 0
M  V30 4485 H 411.104 -0.930847 3.76051 0
M  V30 4486 H 411.518 0.759653 5.1897 0
M  V30 4487 H 412.992 -0.93201 5.44075 0
M  V30 4488 H 413.469 -1.82153 3.99646 0
M  V30 4489 H 414.075 -0.168609 4.24966 0
M  V30 4490 N 412.39 -1.55475 0.257931 0
M  V30 4491 C 413.322 -2.19192 -0.669881 0
M  V30 4492 C 414.335 -1.17148 -1.1305 0
M  V30 4493 O 415.524 -1.43959 -1.05537 0
M  V30 4494 C 412.624 -2.79016 -1.92363 0
M  V30 4495 C 411.797 -4.06586 -1.61265 0
M  V30 4496 C 410.856 -4.50622 -2.7171 0
M  V30 4497 O 409.882 -5.16765 -2.38627 0
M  V30 4498 N 411.084 -4.19325 -4.01431 0
M  V30 4499 H 413.849 -2.99441 -0.124635 0
M  V30 4500 H 411.41 -1.6171 0.0783311 0
M  V30 4501 H 413.402 -3.05427 -2.65511 0
M  V30 4502 H 411.972 -2.0286 -2.37837 0
M  V30 4503 H 411.192 -3.87646 -0.715811 0
M  V30 4504 H 412.48 -4.89737 -1.37967 0
M  V30 4505 H 411.878 -3.66247 -4.31138 0
M  V30 4506 H 410.435 -4.50547 -4.7101 0
M  V30 4507 N 413.868 0.0150385 -1.57593 0
M  V30 4508 C 414.778 1.02791 -2.10882 0
M  V30 4509 C 415.794 1.38702 -1.0506 0
M  V30 4510 O 416.97 1.47739 -1.36877 0
M  V30 4511 C 414.035 2.30568 -2.58919 0
M  V30 4512 C 413.096 2.01108 -3.79281 0
M  V30 4513 C 412.329 3.22794 -4.25018 0
M  V30 4514 O 412.552 4.33959 -3.70183 0
M  V30 4515 O 411.486 3.07672 -5.17322 0
M  V30 4516 H 415.312 0.604973 -2.97613 0
M  V30 4517 H 412.897 0.23292 -1.47573 0
M  V30 4518 H 414.779 3.05662 -2.90084 0
M  V30 4519 H 413.454 2.72129 -1.75293 0
M  V30 4520 H 412.361 1.23537 -3.53114 0
M  V30 4521 H 413.694 1.64394 -4.63935 0
M  V30 4522 N 415.346 1.54954 0.287554 0
M  V30 4523 C 416.279 1.81737 1.3801 0
M  V30 4524 C 417.257 0.669412 1.48181 0
M  V30 4525 O 418.441 0.910839 1.65033 0
M  V30 4526 C 415.568 1.96606 2.75796 0
M  V30 4527 C 414.614 3.19098 2.82982 0
M  V30 4528 S 415.447 4.7683 2.43707 0
M  V30 4529 C 416.603 4.94653 3.83496 0
M  V30 4530 H 416.836 2.74122 1.15085 0
M  V30 4531 H 414.369 1.46538 0.486403 0
M  V30 4532 H 416.327 2.05858 3.55152 0
M  V30 4533 H 414.988 1.05136 2.95982 0
M  V30 4534 H 414.181 3.26344 3.84077 0
M  V30 4535 H 413.783 3.08361 2.11635 0
M  V30 4536 H 416.075 4.79502 4.78628 0
M  V30 4537 H 417.018 5.96728 3.8121 0
M  V30 4538 H 417.426 4.2272 3.74123 0
M  V30 4539 N 416.824 -0.551391 1.4764 0
M  V30 4540 C 417.774 -1.65362 1.56969 0
M  V30 4541 C 418.758 -1.55098 0.428189 0
M  V30 4542 O 419.95 -1.63481 0.678441 0
M  V30 4543 C 417.079 -3.04129 1.59249 0
M  V30 4544 C 416.165 -3.19576 2.78804 0
M  V30 4545 N 416.556 -3.05067 4.03445 0
M  V30 4546 C 414.854 -3.50588 2.75688 0
M  V30 4547 C 415.555 -3.2336 4.83543 0
M  V30 4548 N 414.531 -3.4996 4.15968 0
M  V30 4549 H 418.333 -1.52722 2.51104 0
M  V30 4550 H 415.847 -0.756303 1.43714 0
M  V30 4551 H 417.844 -3.83278 1.64024 0
M  V30 4552 H 416.504 -3.17877 0.662148 0
M  V30 4553 H 417.515 -2.82273 4.34215 0
M  V30 4554 H 414.192 -3.70827 1.91817 0
M  V30 4555 H 415.582 -3.17061 5.92387 0
M  V30 4556 N 418.302 -1.35869 -0.798587 0
M  V30 4557 C 419.25 -1.29491 -1.93222 0
M  V30 4558 C 420.244 -0.18836 -1.6835 0
M  V30 4559 O 421.45 -0.354822 -1.76468 0
M  V30 4560 H 417.825 -0.402901 -0.63496 0
M  V30 4561 H 419.796 -2.25247 -1.9572 0
M  V30 4562 C 418.545 -1.09184 -3.30112 0
M  V30 4563 H 417.868 -1.93574 -3.49813 0
M  V30 4564 H 419.308 -1.08766 -4.09812 0
M  V30 4565 C 417.767 0.203959 -3.36282 0
M  V30 4566 O 418.297 1.19699 -3.83451 0
M  V30 4567 N 416.503 0.245488 -2.89561 0
M  V30 4568 H 416.05 -0.563223 -2.51367 0
M  V30 4569 H 416.008 1.11219 -2.94071 0
M  V30 4570 N 419.78 1.02168 -1.19998 0
M  V30 4571 C 421.196 1.27969 -0.953737 0
M  V30 4572 C 421.396 1.98079 0.369703 0
M  V30 4573 O 420.452 2.27306 1.09947 0
M  V30 4574 C 421.765 2.11971 -2.13281 0
M  V30 4575 C 423.313 2.25255 -2.17323 0
M  V30 4576 C 423.788 3.12632 -3.34702 0
M  V30 4577 N 425.279 3.2022 -3.34684 0
M  V30 4578 C 426.014 3.88039 -4.22153 0
M  V30 4579 N 425.51 4.58027 -5.19791 0
M  V30 4580 N 427.303 3.84511 -4.10009 0
M  V30 4581 H 419.454 0.550794 -2.05134 0
M  V30 4582 H 421.717 0.305683 -0.897364 0
M  V30 4583 H 421.423 1.67785 -3.09097 0
M  V30 4584 H 421.297 3.12699 -2.10949 0
M  V30 4585 H 423.684 2.68667 -1.22073 0
M  V30 4586 H 423.765 1.24053 -2.23706 0
M  V30 4587 H 423.409 2.69926 -4.30235 0
M  V30 4588 H 423.339 4.13909 -3.25556 0
M  V30 4589 H 425.83 2.70382 -2.64012 0
M  V30 4590 H 426.143 5.07429 -5.82868 0
M  V30 4591 H 424.488 4.56869 -5.23733 0
M  V30 4592 H 427.679 3.28978 -3.33003 0
M  V30 4593 H 427.852 4.3709 -4.78389 0
M  V30 4594 N 421.258 1.00505 1.21394 0
M  V30 4595 C 422.188 0.585684 2.26035 0
M  V30 4596 C 423.169 -0.393525 1.65485 0
M  V30 4597 O 424.354 -0.281497 1.92149 0
M  V30 4598 C 421.484 -0.0884283 3.47187 0
M  V30 4599 C 420.438 0.810567 4.20254 0
M  V30 4600 C 419.764 0.00286382 5.347 0
M  V30 4601 C 421.064 2.1132 4.77641 0
M  V30 4602 H 422.758 1.46039 2.61368 0
M  V30 4603 H 420.304 0.703648 1.25638 0
M  V30 4604 H 422.257 -0.393286 4.19561 0
M  V30 4605 H 420.981 -0.997766 3.10986 0
M  V30 4606 H 419.64 1.09925 3.49731 0
M  V30 4607 H 419.288 -0.907765 4.94741 0
M  V30 4608 H 418.988 0.601444 5.84514 0
M  V30 4609 H 420.512 -0.295808 6.09883 0
M  V30 4610 H 421.926 1.87148 5.41893 0
M  V30 4611 H 420.323 2.66164 5.37845 0
M  V30 4612 H 421.393 2.78393 3.9702 0
M  V30 4613 N 422.737 -1.36956 0.779787 0
M  V30 4614 C 423.984 -1.99491 0.347766 0
M  V30 4615 C 424.312 -1.61898 -1.07793 0
M  V30 4616 O 423.567 -0.86071 -1.75756 0
M  V30 4617 C 423.866 -3.54585 0.447686 0
M  V30 4618 C 423.532 -4.1197 1.83279 0
M  V30 4619 C 422.194 -4.27356 2.2118 0
M  V30 4620 C 424.546 -4.43354 2.74019 0
M  V30 4621 C 421.874 -4.71432 3.4924 0
M  V30 4622 C 424.226 -4.88858 4.01497 0
M  V30 4623 C 422.89 -5.0245 4.39432 0
M  V30 4624 H 422.16 -0.729991 0.127257 0
M  V30 4625 H 424.807 -1.63599 0.995376 0
M  V30 4626 H 423.112 -3.90773 -0.283447 0
M  V30 4627 H 424.809 -4.00888 0.0945948 0
M  V30 4628 H 421.399 -4.00428 1.52825 0
M  V30 4629 H 425.583 -4.31045 2.45995 0
M  V30 4630 H 420.839 -4.80141 3.78516 0
M  V30 4631 H 425.013 -5.12108 4.71931 0
M  V30 4632 H 422.64 -5.36362 5.38721 0
M  V30 4633 N 424.215 -0.530993 -1.48385 0
M  V30 4634 C 425.443 -0.00134122 -2.069 0
M  V30 4635 C 425.858 1.2805 -1.3874 0
M  V30 4636 O 425.215 1.76204 -0.475244 0
M  V30 4637 C 425.266 0.225256 -3.60798 0
M  V30 4638 O 424.987 -1.0058 -4.26398 0
M  V30 4639 C 426.488 0.795172 -4.3611 0
M  V30 4640 H 423.708 -0.0339704 -0.67014 0
M  V30 4641 H 426.252 -0.736926 -1.90761 0
M  V30 4642 H 424.407 0.910891 -3.76539 0
M  V30 4643 H 424.821 -0.787165 -5.1856 0
M  V30 4644 H 426.295 0.903143 -5.44562 0
M  V30 4645 H 426.772 1.80031 -4.00606 0
M  V30 4646 H 427.378 0.146069 -4.25049 0
M  V30 4647 N 425.693 1.55336 -0.266172 0
M  V30 4648 C 426.939 1.99692 0.353681 0
M  V30 4649 C 427.272 1.1543 1.56172 0
M  V30 4650 O 426.547 0.222218 1.93226 0
M  V30 4651 C 426.83 3.52316 0.74466 0
M  V30 4652 C 426.683 4.47337 -0.470101 0
M  V30 4653 C 428.002 4.10588 1.58447 0
M  V30 4654 H 425.121 0.725961 0.12708 0
M  V30 4655 H 427.763 1.86336 -0.371333 0
M  V30 4656 H 425.913 3.63829 1.36239 0
M  V30 4657 H 427.585 4.4778 -1.10864 0
M  V30 4658 H 425.828 4.19364 -1.10978 0
M  V30 4659 H 426.499 5.51788 -0.15291 0
M  V30 4660 H 428.975 4.02297 1.06286 0
M  V30 4661 H 427.851 5.17607 1.82686 0
M  V30 4662 H 428.112 3.60253 2.56262 0
M  V30 4663 N 427.171 -0.0066808 1.57599 0
M  V30 4664 C 428.396 -0.707738 1.94951 0
M  V30 4665 C 428.821 -1.66882 0.867868 0
M  V30 4666 O 428.179 -1.80457 -0.17458 0
M  V30 4667 C 428.227 -1.42162 3.31394 0
M  V30 4668 O 427.331 -2.53578 3.25226 0
M  V30 4669 H 426.672 -0.188752 0.636607 0
M  V30 4670 H 429.202 0.0445193 2.04552 0
M  V30 4671 H 429.212 -1.78655 3.66806 0
M  V30 4672 H 427.887 -0.716903 4.09675 0
M  V30 4673 H 426.464 -2.19463 3.01481 0
M  V30 4674 N 428.649 -1.55105 -0.279332 0
M  V30 4675 C 429.889 -1.7716 -1.01949 0
M  V30 4676 C 430.253 -0.557511 -1.83728 0
M  V30 4677 O 431.454 -0.656198 -2.60667 0
M  V30 4678 C 429.725 -3.0372 -1.88385 0
M  V30 4679 S 431.284 -3.46868 -2.68752 0
M  V30 4680 H 428.102 -0.62253 -0.343478 0
M  V30 4681 H 430.704 -1.93329 -0.290572 0
M  V30 4682 H 429.408 -3.90184 -1.2722 0
M  V30 4683 H 428.939 -2.902 -2.65608 0
M  V30 4684 H 430.954 -3.05643 -3.90892 0
M  V30 4685 N 430.127 0.543554 -1.4793 0
M  V30 4686 C 431.06 1.66556 -1.55995 0
M  V30 4687 C 432.038 1.57315 -0.411205 0
M  V30 4688 O 433.222 1.7798 -0.620922 0
M  V30 4689 C 430.349 3.04883 -1.47527 0
M  V30 4690 C 429.395 3.32526 -2.67074 0
M  V30 4691 S 430.228 3.20282 -4.29162 0
M  V30 4692 C 431.384 4.61079 -4.23269 0
M  V30 4693 H 431.617 1.59462 -2.50917 0
M  V30 4694 H 429.15 0.725456 -1.36296 0
M  V30 4695 H 431.108 3.84665 -1.43328 0
M  V30 4696 H 429.769 3.09429 -0.539665 0
M  V30 4697 H 428.962 4.33403 -2.5725 0
M  V30 4698 H 428.564 2.60389 -2.68466 0
M  V30 4699 H 430.856 5.52318 -3.92365 0
M  V30 4700 H 431.799 4.75959 -5.24279 0
M  V30 4701 H 432.207 4.39766 -3.5393 0
M  V30 4702 N 431.605 1.3629 0.791371 0
M  V30 4703 C 432.555 1.26988 1.89362 0
M  V30 4704 C 433.539 0.161795 1.60084 0
M  V30 4705 O 434.731 0.394426 1.72549 0
M  V30 4706 C 431.86 1.05944 3.26544 0
M  V30 4707 C 430.946 2.21211 3.61838 0
M  V30 4708 N 431.337 3.46518 3.68455 0
M  V30 4709 C 429.635 2.12933 3.91887 0
M  V30 4710 C 430.336 4.2241 3.99931 0
M  V30 4711 N 429.312 3.51329 4.14812 0
M  V30 4712 H 433.114 2.21908 1.92702 0
M  V30 4713 H 430.628 1.28982 0.986787 0
M  V30 4714 H 432.625 0.973666 4.05371 0
M  V30 4715 H 431.285 0.119223 3.24481 0
M  V30 4716 H 432.296 3.80677 3.51148 0
M  V30 4717 H 428.973 1.26855 3.97761 0
M  V30 4718 H 430.363 5.30767 4.1199 0
M  V30 4719 N 433.083 -1.0153 1.20538 0
M  V30 4720 C 434.331 -1.74803 1.01432 0
M  V30 4721 C 434.652 -1.8963 -0.454456 0
M  V30 4722 O 433.922 -1.43975 -1.32846 0
M  V30 4723 H 432.502 -0.647598 0.372324 0
M  V30 4724 H 435.164 -1.22402 1.5167 0
M  V30 4725 H 434.26 -2.75114 1.47373 0
M  V30 4726 N 434.561 -1.01147 -1.20859 0
M  V30 4727 C 435.838 -0.613136 -1.85742 0
M  V30 4728 C 436.218 0.909004 -1.90526 0
M  V30 4729 O 435.566 1.79862 -1.40932 0
M  V30 4730 C 435.776 -1.255 -3.25654 0
M  V30 4731 C 437.124 -1.3672 -4.01986 0
M  V30 4732 O 438.148 -1.21082 -3.34989 0
M  V30 4733 O 437.007 -1.6194 -5.21956 0
M  V30 4734 H 434.101 -0.210878 -0.799662 0
M  V30 4735 H 436.647 -1.10853 -1.2849 0
M  V30 4736 H 435.419 -2.29532 -3.16908 0
M  V30 4737 H 435.042 -0.746369 -3.90532 0
M  V30 4738 N 436.039 1.36541 -0.78704 0
M  V30 4739 C 436.972 2.27831 -0.129765 0
M  V30 4740 C 437.95 1.47105 0.692732 0
M  V30 4741 O 439.134 1.7641 0.664222 0
M  V30 4742 C 436.261 3.28577 0.821883 0
M  V30 4743 C 435.307 4.26422 0.0814771 0
M  V30 4744 S 436.14 5.20919 -1.24112 0
M  V30 4745 C 437.296 6.25212 -0.293409 0
M  V30 4746 H 437.529 2.83229 -0.903811 0
M  V30 4747 H 435.062 1.43046 -0.581144 0
M  V30 4748 H 437.02 3.87123 1.3655 0
M  V30 4749 H 435.681 2.72096 1.56916 0
M  V30 4750 H 434.874 4.97554 0.803485 0
M  V30 4751 H 434.476 3.71944 -0.391589 0
M  V30 4752 H 436.768 6.75435 0.528622 0
M  V30 4753 H 437.711 7.01378 -0.973344 0
M  V30 4754 H 438.119 5.64407 0.102196 0
M  V30 4755 N 437.518 0.538854 1.48102 0
M  V30 4756 C 438.795 -0.0568108 1.95517 0
M  V30 4757 C 439.175 -1.50408 1.48124 0
M  V30 4758 O 438.523 -2.17133 0.711727 0
M  V30 4759 C 438.733 0.0696262 3.48931 0
M  V30 4760 C 440.081 -0.0851202 4.24515 0
M  V30 4761 O 441.105 -0.0037347 3.562 0
M  V30 4762 O 439.964 -0.257025 5.45895 0
M  V30 4763 H 437.058 -0.0743695 0.823649 0
M  V30 4764 H 439.604 0.604081 1.58584 0
M  V30 4765 H 438.376 1.07744 3.76174 0
M  V30 4766 H 437.999 -0.629714 3.92582 0
M  V30 4767 N 438.996 -1.55193 0.274407 0
M  V30 4768 C 439.928 -2.1989 -0.646595 0
M  V30 4769 C 440.941 -1.1834 -1.11801 0
M  V30 4770 O 442.13 -1.4507 -1.04004 0
M  V30 4771 C 439.23 -2.8104 -1.89393 0
M  V30 4772 C 438.403 -4.08274 -1.56943 0
M  V30 4773 C 437.462 -4.53478 -2.66916 0
M  V30 4774 O 436.488 -5.19267 -2.33132 0
M  V30 4775 N 437.69 -4.2356 -3.9696 0
M  V30 4776 H 440.455 -2.99556 -0.0928686 0
M  V30 4777 H 438.016 -1.61618 0.0954783 0
M  V30 4778 H 440.008 -3.08226 -2.62257 0
M  V30 4779 H 438.578 -2.05372 -2.35672 0
M  V30 4780 H 437.798 -3.88384 -0.674655 0
M  V30 4781 H 439.086 -4.91173 -1.32764 0
M  V30 4782 H 438.484 -3.70799 -4.27229 0
M  V30 4783 H 437.041 -4.55518 -4.66205 0
M  V30 4784 N 440.474 -0.00167713 -1.576 0
M  V30 4785 C 441.421 0.989195 -2.08527 0
M  V30 4786 C 442.391 1.34031 -0.981065 0
M  V30 4787 O 443.576 1.43839 -1.2536 0
M  V30 4788 C 440.716 2.27537 -2.59463 0
M  V30 4789 C 439.829 1.98314 -3.83791 0
M  V30 4790 C 438.964 3.21025 -4.23222 0
M  V30 4791 C 438.003 2.87495 -5.40382 0
M  V30 4792 N 437.14 4.02749 -5.75098 0
M  V30 4793 H 441.98 0.547973 -2.92919 0
M  V30 4794 H 439.517 0.258917 -1.44803 0
M  V30 4795 H 441.475 3.02729 -2.87073 0
M  V30 4796 H 440.105 2.69325 -1.77943 0
M  V30 4797 H 439.157 1.13482 -3.63078 0
M  V30 4798 H 440.469 1.69601 -4.69081 0
M  V30 4799 H 439.623 4.04561 -4.52123 0
M  V30 4800 H 438.362 3.52877 -3.36644 0
M  V30 4801 H 437.367 2.02367 -5.11202 0
M  V30 4802 H 438.592 2.56889 -6.28637 0
M  V30 4803 H 436.538 4.34494 -4.91478 0
M  V30 4804 H 436.455 3.77566 -6.54966 0
M  V30 4805 H 437.723 4.87068 -6.08592 0
M  V30 4806 N 441.952 1.55251 0.271103 0
M  V30 4807 C 443.229 1.66664 1.02384 0
M  V30 4808 C 443.609 0.534363 2.04225 0
M  V30 4809 O 442.957 -0.465337 2.23712 0
M  V30 4810 C 443.167 3.05961 1.67895 0
M  V30 4811 C 444.515 3.63772 2.18986 0
M  V30 4812 O 445.539 3.08606 1.77878 0
M  V30 4813 O 444.398 4.60429 2.94393 0
M  V30 4814 H 441.492 0.676957 0.475035 0
M  V30 4815 H 444.038 1.67589 0.26681 0
M  V30 4816 H 442.81 3.79815 0.941071 0
M  V30 4817 H 442.433 3.08943 2.5028 0
M  V30 4818 N 443.43 -0.535701 1.48216 0
M  V30 4819 C 444.846 -0.863701 1.3421 0
M  V30 4820 C 445.046 -1.98458 0.34879 0
M  V30 4821 O 444.102 -2.51432 -0.23204 0
M  V30 4822 C 445.415 -1.23662 2.74095 0
M  V30 4823 C 446.963 -1.34683 2.82541 0
M  V30 4824 C 447.438 -1.75322 4.23115 0
M  V30 4825 N 448.929 -1.82434 4.2576 0
M  V30 4826 C 449.664 -2.15252 5.31464 0
M  V30 4827 N 449.16 -2.46533 6.47452 0
M  V30 4828 N 450.953 -2.16209 5.18855 0
M  V30 4829 H 443.104 0.203965 2.11418 0
M  V30 4830 H 445.367 0.0286033 0.947568 0
M  V30 4831 H 445.073 -0.486674 3.48316 0
M  V30 4832 H 444.947 -2.18805 3.07253 0
M  V30 4833 H 447.334 -2.08756 2.08579 0
M  V30 4834 H 447.415 -0.376756 2.5301 0
M  V30 4835 H 447.059 -1.01812 4.97591 0
M  V30 4836 H 446.989 -2.7337 4.50085 0
M  V30 4837 H 449.48 -1.6056 3.42095 0
M  V30 4838 H 449.793 -2.70662 7.23852 0
M  V30 4839 H 448.138 -2.44065 6.50736 0
M  V30 4840 H 451.329 -1.91224 4.2726 0
M  V30 4841 H 451.502 -2.41453 6.01335 0
M  V30 4842 N 444.908 -1.36708 -0.784132 0
M  V30 4843 C 446.185 -1.21776 -1.53069 0
M  V30 4844 C 446.565 0.193876 -2.10208 0
M  V30 4845 O 445.913 1.20012 -1.94446 0
M  V30 4846 C 446.123 -2.30395 -2.62143 0
M  V30 4847 C 447.471 -2.67325 -3.29882 0
M  V30 4848 O 448.495 -2.29478 -2.7243 0
M  V30 4849 O 447.354 -3.32485 -4.33724 0
M  V30 4850 H 444.448 -0.474459 -0.677361 0
M  V30 4851 H 446.994 -1.48454 -0.82216 0
M  V30 4852 H 445.766 -3.2498 -2.17953 0
M  V30 4853 H 445.389 -2.05112 -3.40609 0
M  V30 4854 N 446.386 1.0089 -1.21074 0
M  V30 4855 C 447.316 2.1145 -0.990523 0
M  V30 4856 C 448.297 1.69897 0.0831699 0
M  V30 4857 O 449.482 1.94052 -0.0758853 0
M  V30 4858 C 446.612 3.42914 -0.550177 0
M  V30 4859 C 445.566 3.98244 -1.56799 0
M  V30 4860 C 444.892 5.25568 -0.984013 0
M  V30 4861 C 446.192 4.30752 -2.95381 0
M  V30 4862 H 447.886 2.3013 -1.91521 0
M  V30 4863 H 445.432 1.10592 -0.92225 0
M  V30 4864 H 447.385 4.19653 -0.383305 0
M  V30 4865 H 446.109 3.24014 0.41015 0
M  V30 4866 H 444.768 3.23621 -1.72236 0
M  V30 4867 H 444.416 5.02998 -0.0155216 0
M  V30 4868 H 444.116 5.63551 -1.66384 0
M  V30 4869 H 445.64 6.04955 -0.828378 0
M  V30 4870 H 447.054 4.98349 -2.8341 0
M  V30 4871 H 445.451 4.79869 -3.60341 0
M  V30 4872 H 446.521 3.39192 -3.46521 0
M  V30 4873 N 447.864 1.01787 1.20321 0
M  V30 4874 C 449.113 0.703249 1.89043 0
M  V30 4875 C 449.426 -0.770445 1.79787 0
M  V30 4876 O 450.632 -1.19767 2.43656 0
M  V30 4877 C 449.088 1.20749 3.3904 0
M  V30 4878 C 448.696 2.70817 3.56878 0
M  V30 4879 C 450.44 0.968352 4.13308 0
M  V30 4880 C 448.347 3.14716 5.00708 0
M  V30 4881 H 447.277 0.259354 0.707991 0
M  V30 4882 H 449.928 1.23072 1.36108 0
M  V30 4883 H 448.31 0.607989 3.91305 0
M  V30 4884 H 449.484 3.36327 3.14993 0
M  V30 4885 H 447.799 2.92888 2.95983 0
M  V30 4886 H 450.396 1.27173 5.19356 0
M  V30 4887 H 450.739 -0.095149 4.16191 0
M  V30 4888 H 451.272 1.53129 3.67146 0
M  V30 4889 H 448.011 4.20347 5.02979 0
M  V30 4890 H 447.531 2.53927 5.43398 0
M  V30 4891 H 449.21 3.07426 5.69296 0
M  V30 4892 N 449.342 -1.36122 0.79427 0
M  V30 4893 C 450.275 -2.27759 0.141845 0
M  V30 4894 C 451.253 -1.47471 -0.684921 0
M  V30 4895 O 452.437 -1.76759 -0.654857 0
M  V30 4896 C 449.564 -3.29008 -0.804446 0
M  V30 4897 C 448.61 -4.26459 -0.0588617 0
M  V30 4898 S 449.443 -5.20253 1.26873 0
M  V30 4899 C 450.599 -6.25048 0.326562 0
M  V30 4900 H 450.832 -2.82746 0.918818 0
M  V30 4901 H 448.365 -1.42736 0.588722 0
M  V30 4902 H 450.323 -3.87842 -1.34495 0
M  V30 4903 H 448.984 -2.72924 -1.5547 0
M  V30 4904 H 448.177 -4.97973 -0.777087 0
M  V30 4905 H 447.779 -3.71731 0.411309 0
M  V30 4906 H 450.071 -6.75705 -0.492795 0
M  V30 4907 H 451.014 -7.00852 1.01053 0
M  V30 4908 H 451.422 -5.64454 -0.0722627 0
M  V30 4909 N 450.82 -0.546701 -1.47814 0
M  V30 4910 C 452.236 -0.205717 -1.58269 0
M  V30 4911 C 452.436 1.29153 -1.54667 0
M  V30 4912 O 451.492 2.07098 -1.44453 0
M  V30 4913 C 452.805 -0.823065 -2.89216 0
M  V30 4914 C 454.353 -0.793328 -3.02779 0
M  V30 4915 C 454.828 -1.38955 -4.36412 0
M  V30 4916 N 456.319 -1.35227 -4.43021 0
M  V30 4917 C 457.054 -1.78333 -5.44963 0
M  V30 4918 N 456.55 -2.29246 -6.53772 0
M  V30 4919 N 458.343 -1.69467 -5.35945 0
M  V30 4920 H 450.494 -1.5196 -1.48398 0
M  V30 4921 H 452.757 -0.633078 -0.705632 0
M  V30 4922 H 452.463 -1.8749 -2.97558 0
M  V30 4923 H 452.337 -0.309915 -3.75925 0
M  V30 4924 H 454.724 0.249784 -2.94041 0
M  V30 4925 H 454.805 -1.34412 -2.17639 0
M  V30 4926 H 454.449 -2.43168 -4.45906 0
M  V30 4927 H 454.379 -0.814291 -5.20266 0
M  V30 4928 H 456.87 -0.979739 -3.64979 0
M  V30 4929 H 457.183 -2.60089 -7.27718 0
M  V30 4930 H 455.528 -2.3325 -6.5469 0
M  V30 4931 H 458.719 -1.29477 -4.49837 0
M  V30 4932 H 458.892 -2.03381 -6.15256 0
M  V30 4933 N 452.299 1.55045 -0.282633 0
M  V30 4934 C 453.209 2.26491 0.61147 0
M  V30 4935 C 454.225 1.29348 1.16384 0
M  V30 4936 O 455.401 1.62298 1.19253 0
M  V30 4937 C 452.466 2.97779 1.77563 0
M  V30 4938 C 451.527 4.10418 1.25919 0
M  V30 4939 C 450.76 4.78297 2.36786 0
M  V30 4940 O 450.983 4.45426 3.56303 0
M  V30 4941 O 449.917 5.66089 2.04517 0
M  V30 4942 H 453.743 3.03683 0.0324615 0
M  V30 4943 H 451.328 1.49317 -0.0497576 0
M  V30 4944 H 453.21 3.42554 2.45427 0
M  V30 4945 H 451.885 2.23498 2.34159 0
M  V30 4946 H 450.792 3.70082 0.546797 0
M  V30 4947 H 452.125 4.86622 0.738887 0
M  V30 4948 N 453.777 0.010035 1.57597 0
M  V30 4949 C 455.024 -0.6727 1.91 0
M  V30 4950 C 455.352 -1.73219 0.884614 0
M  V30 4951 O 454.607 -1.95395 -0.109215 0
M  V30 4952 C 454.906 -1.34434 3.31153 0
M  V30 4953 C 454.572 -0.417083 4.48967 0
M  V30 4954 C 453.234 -0.161809 4.80928 0
M  V30 4955 C 455.586 0.220753 5.20732 0
M  V30 4956 C 452.914 0.739426 5.82022 0
M  V30 4957 C 455.266 1.10993 6.22787 0
M  V30 4958 C 453.93 1.37428 6.532 0
M  V30 4959 H 453.2 -0.246158 0.698918 0
M  V30 4960 H 455.847 0.0677145 1.9138 0
M  V30 4961 H 454.152 -2.15905 3.26944 0
M  V30 4962 H 455.849 -1.87883 3.54261 0
M  V30 4963 H 452.439 -0.626217 4.24001 0
M  V30 4964 H 456.623 0.0365643 4.96287 0
M  V30 4965 H 451.879 0.952139 6.03941 0
M  V30 4966 H 456.053 1.61046 6.77523 0
M  V30 4967 H 453.68 2.0743 7.31353 0
M  V30 4968 N 455.255 -1.55392 -0.262866 0
M  V30 4969 C 456.671 -1.47459 -0.610582 0
M  V30 4970 C 456.871 -0.697031 -1.8906 0
M  V30 4971 O 455.927 -0.219952 -2.5154 0
M  V30 4972 C 457.24 -2.91751 -0.728131 0
M  V30 4973 C 458.788 -3.02027 -0.821517 0
M  V30 4974 C 459.263 -4.47594 -0.97076 0
M  V30 4975 N 460.754 -4.51465 -1.03603 0
M  V30 4976 C 461.489 -5.61326 -1.17049 0
M  V30 4977 N 460.985 -6.81032 -1.2715 0
M  V30 4978 N 462.778 -5.49089 -1.20239 0
M  V30 4979 H 454.929 -2.04395 0.577632 0
M  V30 4980 H 457.192 -0.927287 0.197086 0
M  V30 4981 H 456.898 -3.51413 0.142132 0
M  V30 4982 H 456.772 -3.4134 -1.6052 0
M  V30 4983 H 459.159 -2.42456 -1.68224 0
M  V30 4984 H 459.24 -2.55674 0.0803688 0
M  V30 4985 H 458.884 -5.07771 -0.114655 0
M  V30 4986 H 458.814 -4.91613 -1.88745 0
M  V30 4987 H 461.305 -3.6524 -0.96996 0
M  V30 4988 H 461.618 -7.60511 -1.37271 0
M  V30 4989 H 459.963 -6.83824 -1.24136 0
M  V30 4990 H 463.154 -4.54507 -1.11985 0
M  V30 4991 H 463.327 -6.34749 -1.30373 0
M  V30 4992 N 456.733 0.527833 -1.48498 0
M  V30 4993 C 457.958 1.313 -1.60546 0
M  V30 4994 C 458.383 1.86199 -0.26672 0
M  V30 4995 O 457.741 1.64513 0.761918 0
M  V30 4996 C 457.789 2.43818 -2.65678 0
M  V30 4997 O 456.893 3.46916 -2.22987 0
M  V30 4998 H 456.234 0.388784 -0.538277 0
M  V30 4999 H 458.764 0.634896 -1.945 0
M  V30 5000 H 458.774 2.89973 -2.87018 0
M  V30 5001 H 457.449 2.03222 -3.62869 0
M  V30 5002 H 456.026 3.06864 -2.11869 0
M  V30 5003 N 458.211 1.37122 0.776871 0
M  V30 5004 C 459.459 1.31787 1.53221 0
M  V30 5005 C 459.78 -0.0987589 1.9475 0
M  V30 5006 O 459.05 -1.0417 1.65908 0
M  V30 5007 H 457.63 0.484839 0.568278 0
M  V30 5008 H 460.292 1.71556 0.924917 0
M  V30 5009 H 459.388 1.95355 2.43398 0
M  V30 5010 N 459.689 -1.00246 1.21608 0
M  V30 5011 C 460.914 -1.78167 1.06167 0
M  V30 5012 C 461.339 -1.84138 -0.384035 0
M  V30 5013 O 460.697 -1.28683 -1.27712 0
M  V30 5014 C 460.745 -3.19786 1.66642 0
M  V30 5015 O 459.849 -4.02153 0.913613 0
M  V30 5016 H 459.19 -0.549 0.37349 0
M  V30 5017 H 461.72 -1.25994 1.61204 0
M  V30 5018 H 461.73 -3.70451 1.70969 0
M  V30 5019 H 460.405 -3.14754 2.7185 0
M  V30 5020 H 458.982 -3.60711 0.945635 0
M  V30 5021 N 461.167 -1.02423 -1.1978 0
M  V30 5022 C 462.395 -0.737456 -1.93311 0
M  V30 5023 C 462.81 0.703023 -1.75223 0
M  V30 5024 O 462.167 1.47761 -1.07112 0
M  V30 5025 C 462.218 -1.0733 -3.45199 0
M  V30 5026 O 461.939 -2.4572 -3.62702 0
M  V30 5027 C 463.44 -0.80866 -4.35862 0
M  V30 5028 H 460.66 -0.2702 -0.614193 0
M  V30 5029 H 463.204 -1.36747 -1.52054 0
M  V30 5030 H 461.359 -0.488545 -3.84307 0
M  V30 5031 H 461.773 -2.58081 -4.56612 0
M  V30 5032 H 463.247 -1.09365 -5.41057 0
M  V30 5033 H 463.724 0.257025 -4.38447 0
M  V30 5034 H 464.33 -1.37592 -4.02428 0
M  V30 5035 N 462.645 1.35699 -0.801477 0
M  V30 5036 C 464.061 1.52065 -0.484596 0
M  V30 5037 C 464.261 1.75215 0.995084 0
M  V30 5038 O 463.317 1.79061 1.78026 0
M  V30 5039 C 464.63 2.69908 -1.32552 0
M  V30 5040 C 466.178 2.83784 -1.32044 0
M  V30 5041 C 466.653 4.04646 -2.14536 0
M  V30 5042 N 468.144 4.11814 -2.12046 0
M  V30 5043 C 468.879 5.04437 -2.72636 0
M  V30 5044 N 468.375 6.02426 -3.42133 0
M  V30 5045 N 470.168 4.97144 -2.62305 0
M  V30 5046 H 462.319 1.18928 -1.75983 0
M  V30 5047 H 464.582 0.581455 -0.748741 0
M  V30 5048 H 464.288 2.59363 -2.37537 0
M  V30 5049 H 464.162 3.64376 -0.975181 0
M  V30 5050 H 466.549 2.93783 -0.27846 0
M  V30 5051 H 466.63 1.90188 -1.71062 0
M  V30 5052 H 466.274 3.95407 -3.18772 0
M  V30 5053 H 466.204 4.97413 -1.72882 0
M  V30 5054 H 468.695 3.41664 -1.61476 0
M  V30 5055 H 469.008 6.69688 -3.85666 0
M  V30 5056 H 467.353 6.02615 -3.46237 0
M  V30 5057 H 470.544 4.19546 -2.07603 0
M  V30 5058 H 470.717 5.69138 -3.09815 0
M  V30 5059 N 464.123 0.554532 1.47522 0
M  V30 5060 C 465.369 0.0295227 2.02779 0
M  V30 5061 C 465.702 -1.31582 1.42828 0
M  V30 5062 O 464.977 -1.85561 0.582872 0
M  V30 5063 C 465.26 -0.0664057 3.60039 0
M  V30 5064 C 465.113 1.30585 4.30427 0
M  V30 5065 C 466.432 -0.781162 4.33112 0
M  V30 5066 H 463.551 0.0122027 0.736899 0
M  V30 5067 H 466.193 0.716305 1.7598 0
M  V30 5068 H 464.343 -0.651307 3.83002 0
M  V30 5069 H 466.015 1.93374 4.18813 0
M  V30 5070 H 464.258 1.88125 3.90886 0
M  V30 5071 H 464.929 1.19147 5.38988 0
M  V30 5072 H 467.405 -0.284565 4.15126 0
M  V30 5073 H 466.281 -0.817237 5.42782 0
M  V30 5074 H 466.542 -1.83672 4.0214 0
M  V30 5075 N 465.601 -1.54893 0.290851 0
M  V30 5076 C 466.531 -2.26103 -0.583084 0
M  V30 5077 C 467.512 -1.25684 -1.14619 0
M  V30 5078 O 468.697 -1.54436 -1.17741 0
M  V30 5079 C 465.827 -2.99409 -1.75987 0
M  V30 5080 C 464.781 -4.0689 -1.32758 0
M  V30 5081 C 464.107 -4.67856 -2.58872 0
M  V30 5082 C 465.407 -5.20215 -0.46624 0
M  V30 5083 H 467.101 -2.99398 0.0108214 0
M  V30 5084 H 464.647 -1.43998 0.00664468 0
M  V30 5085 H 466.6 -3.47943 -2.37727 0
M  V30 5086 H 465.324 -2.23675 -2.37985 0
M  V30 5087 H 463.983 -3.59191 -0.733299 0
M  V30 5088 H 463.631 -3.88772 -3.19163 0
M  V30 5089 H 463.331 -5.40438 -2.30653 0
M  V30 5090 H 464.855 -5.19147 -3.21433 0
M  V30 5091 H 466.269 -5.64704 -0.989047 0
M  V30 5092 H 464.666 -5.99455 -0.27826 0
M  V30 5093 H 465.736 -4.82198 0.511173 0
M  V30 5094 N 467.08 -0.0183926 -1.57589 0
M  V30 5095 C 468.326 0.663543 -1.91638 0
M  V30 5096 C 468.659 1.72392 -0.894134 0
M  V30 5097 O 467.934 1.94316 0.0846449 0
M  V30 5098 C 468.217 1.28984 -3.36207 0
M  V30 5099 C 468.07 0.239761 -4.49161 0
M  V30 5100 C 469.389 2.2109 -3.80536 0
M  V30 5101 H 466.508 0.239746 -0.696915 0
M  V30 5102 H 469.15 -0.073456 -1.89858 0
M  V30 5103 H 467.3 1.91799 -3.37854 0
M  V30 5104 H 468.972 -0.390119 -4.59647 0
M  V30 5105 H 467.215 -0.435972 -4.31604 0
M  V30 5106 H 467.886 0.717383 -5.47319 0
M  V30 5107 H 470.362 1.68273 -3.80557 0
M  V30 5108 H 469.238 2.61869 -4.82406 0
M  V30 5109 H 469.499 3.09764 -3.15434 0
M  V30 5110 N 468.558 1.5553 0.254621 0
M  V30 5111 C 469.786 1.81046 1.00149 0
M  V30 5112 C 470.201 0.593047 1.79244 0
M  V30 5113 O 469.558 -0.438196 1.77161 0
M  V30 5114 C 469.609 3.04684 1.94551 0
M  V30 5115 O 469.33 4.21725 1.18658 0
M  V30 5116 C 470.831 3.42943 2.80901 0
M  V30 5117 H 468.051 0.602653 0.295044 0
M  V30 5118 H 470.595 2.02576 0.279842 0
M  V30 5119 H 468.75 2.85226 2.62154 0
M  V30 5120 H 469.164 4.91746 1.82445 0
M  V30 5121 H 470.638 4.32576 3.42902 0
M  V30 5122 H 471.115 2.63176 3.51617 0
M  V30 5123 H 471.721 3.64724 2.18762 0
M  V30 5124 N 470.036 -0.519951 1.48776 0
M  V30 5125 C 471.264 -1.29971 1.60982 0
M  V30 5126 C 471.679 -1.86803 0.273885 0
M  V30 5127 O 471.036 -1.66904 -0.738193 0
M  V30 5128 C 471.087 -2.44346 2.66415 0
M  V30 5129 O 470.808 -1.89855 3.94825 0
M  V30 5130 C 472.309 -3.36014 2.89153 0
M  V30 5131 H 469.529 -0.394891 0.542496 0
M  V30 5132 H 472.073 -0.626214 1.94676 0
M  V30 5133 H 470.228 -3.07562 2.35552 0
M  V30 5134 H 470.642 -2.64798 4.5275 0
M  V30 5135 H 472.116 -4.12593 3.66703 0
M  V30 5136 H 472.593 -3.91859 1.98351 0
M  V30 5137 H 473.199 -2.78582 3.21359 0
M  V30 5138 N 471.514 -1.37532 -0.769588 0
M  V30 5139 C 472.791 -1.23392 -1.51768 0
M  V30 5140 C 473.171 0.17157 -2.10402 0
M  V30 5141 O 472.519 1.17943 -1.95708 0
M  V30 5142 C 472.729 -2.33163 -2.59685 0
M  V30 5143 C 474.077 -2.70809 -3.27028 0
M  V30 5144 O 475.101 -2.32355 -2.69981 0
M  V30 5145 O 473.96 -3.37066 -4.30173 0
M  V30 5146 H 471.054 -0.481617 -0.67229 0
M  V30 5147 H 473.6 -1.49318 -0.806368 0
M  V30 5148 H 472.372 -3.27273 -2.14494 0
M  V30 5149 H 471.995 -2.08713 -3.38415 0
M  V30 5150 N 472.992 0.995999 -1.22138 0
M  V30 5151 C 473.922 2.10387 -1.01289 0
M  V30 5152 C 474.903 1.69975 0.0651454 0
M  V30 5153 O 476.088 1.9396 -0.0964628 0
M  V30 5154 C 473.218 3.42312 -0.586517 0
M  V30 5155 C 472.172 3.96558 -1.61014 0
M  V30 5156 C 471.498 5.24494 -1.0397 0
M  V30 5157 C 472.798 4.27595 -2.99933 0
M  V30 5158 H 474.492 2.28086 -1.93951 0
M  V30 5159 H 472.038 1.09607 -0.933928 0
M  V30 5160 H 473.991 4.19223 -0.427793 0
M  V30 5161 H 472.715 3.24431 0.375761 0
M  V30 5162 H 471.374 3.21776 -1.75658 0
M  V30 5163 H 471.022 5.02953 -0.0688703 0
M  V30 5164 H 470.722 5.61755 -1.72352 0
M  V30 5165 H 472.246 6.04042 -0.892494 0
M  V30 5166 H 473.66 4.95315 -2.8868 0
M  V30 5167 H 472.057 4.76021 -3.6541 0
M  V30 5168 H 473.127 3.35498 -3.50099 0
M  V30 5169 N 474.47 1.03057 1.19235 0
M  V30 5170 C 475.4 0.633497 2.24742 0
M  V30 5171 C 476.381 -0.358335 1.66283 0
M  V30 5172 O 477.566 -0.240676 1.92703 0
M  V30 5173 C 474.696 -0.0147648 3.47297 0
M  V30 5174 C 473.65 0.899527 4.18441 0
M  V30 5175 C 472.976 0.116281 5.34574 0
M  V30 5176 C 474.276 2.21404 4.73051 0
M  V30 5177 H 475.97 1.5155 2.58211 0
M  V30 5178 H 473.516 0.73014 1.24117 0
M  V30 5179 H 475.469 -0.304202 4.20301 0
M  V30 5180 H 474.193 -0.931577 3.13032 0
M  V30 5181 H 472.852 1.17319 3.47321 0
M  V30 5182 H 472.5 -0.802619 4.96555 0
M  V30 5183 H 472.2 0.725293 5.83107 0
M  V30 5184 H 473.724 -0.166376 6.10373 0
M  V30 5185 H 475.138 1.98601 5.37802 0
M  V30 5186 H 473.535 2.77512 5.32078 0
M  V30 5187 H 474.605 2.86752 3.91026 0
M  V30 5188 N 475.948 -1.35272 0.808662 0
M  V30 5189 C 476.911 -2.28082 0.226093 0
M  V30 5190 C 477.911 -1.49673 -0.587762 0
M  V30 5191 O 479.101 -1.69404 -0.405943 0
M  V30 5192 C 476.233 -3.33955 -0.684596 0
M  V30 5193 H 477.426 -2.81116 1.04469 0
M  V30 5194 H 474.979 -1.45162 0.579466 0
M  V30 5195 H 475.714 -2.86111 -1.5268 0
M  V30 5196 H 475.499 -3.91965 -0.102699 0
M  V30 5197 H 476.989 -4.03219 -1.08646 0
M  V30 5198 N 477.426 -0.562348 -1.47226 0
M  V30 5199 C 478.842 -0.222492 -1.58042 0
M  V30 5200 C 479.042 1.27505 -1.56028 0
M  V30 5201 O 478.098 2.05555 -1.46641 0
M  V30 5202 C 479.411 -0.853694 -2.88327 0
M  V30 5203 C 480.959 -0.825397 -3.01921 0
M  V30 5204 C 481.434 -1.43576 -4.34914 0
M  V30 5205 N 482.925 -1.39918 -4.41562 0
M  V30 5206 C 483.66 -1.84103 -5.43041 0
M  V30 5207 N 483.156 -2.36167 -6.51304 0
M  V30 5208 N 484.949 -1.75142 -5.34118 0
M  V30 5209 H 477.1 -1.53525 -1.46778 0
M  V30 5210 H 479.363 -0.640527 -0.698877 0
M  V30 5211 H 479.069 -1.90635 -2.95552 0
M  V30 5212 H 478.943 -0.34977 -3.75575 0
M  V30 5213 H 481.33 0.218583 -2.94289 0
M  V30 5214 H 481.411 -1.36713 -2.16202 0
M  V30 5215 H 481.055 -2.47884 -4.43301 0
M  V30 5216 H 480.985 -0.869427 -5.19373 0
M  V30 5217 H 483.476 -1.0184 -3.63919 0
M  V30 5218 H 483.789 -2.67793 -7.24919 0
M  V30 5219 H 482.134 -2.40181 -6.52179 0
M  V30 5220 H 485.325 -1.34241 -4.48439 0
M  V30 5221 H 485.498 -2.09895 -6.13065 0
M  V30 5222 N 478.904 1.54736 -0.299062 0
M  V30 5223 C 480.152 1.99706 0.31017 0
M  V30 5224 C 480.473 1.18896 1.54559 0
M  V30 5225 O 479.743 0.284445 1.93824 0
M  V30 5226 H 478.323 0.737686 0.117596 0
M  V30 5227 H 480.985 1.9054 -0.409943 0
M  V30 5228 H 480.081 3.06596 0.58355 0
M  V30 5229 N 480.382 0.0267497 1.57577 0
M  V30 5230 C 481.631 -0.651736 1.9088 0
M  V30 5231 C 481.944 -1.73427 0.904576 0
M  V30 5232 O 483.15 -2.46923 1.12877 0
M  V30 5233 C 481.606 -1.21048 3.38933 0
M  V30 5234 C 481.214 -0.161362 4.47709 0
M  V30 5235 C 482.958 -1.86562 3.81307 0
M  V30 5236 C 480.865 -0.731611 5.86857 0
M  V30 5237 H 479.795 -0.247198 0.712326 0
M  V30 5238 H 482.446 0.0916641 1.83271 0
M  V30 5239 H 480.828 -2.00542 3.41466 0
M  V30 5240 H 482.002 0.61094 4.56732 0
M  V30 5241 H 480.317 0.394877 4.14523 0
M  V30 5242 H 482.914 -2.30178 4.8262 0
M  V30 5243 H 483.257 -2.70735 3.16241 0
M  V30 5244 H 483.79 -1.13762 3.81186 0
M  V30 5245 H 480.529 0.0719329 6.55461 0
M  V30 5246 H 480.049 -1.47245 5.81445 0
M  V30 5247 H 481.728 -1.22208 6.35354 0
M  V30 5248 N 481.861 -1.55662 -0.24637 0
M  V30 5249 C 483.138 -1.68272 -0.997198 0
M  V30 5250 C 483.518 -0.566785 -2.03349 0
M  V30 5251 O 482.866 0.429688 -2.24424 0
M  V30 5252 C 483.076 -3.08594 -1.63006 0
M  V30 5253 C 484.424 -3.6721 -2.13171 0
M  V30 5254 O 485.448 -3.11397 -1.72946 0
M  V30 5255 O 484.307 -4.65054 -2.87031 0
M  V30 5256 H 481.401 -0.684429 -0.464205 0
M  V30 5257 H 483.947 -1.67993 -0.240114 0
M  V30 5258 H 482.719 -3.81264 -0.880527 0
M  V30 5259 H 482.342 -3.12886 -2.45333 0
M  V30 5260 N 483.339 0.512053 -1.4905 0
M  V30 5261 C 484.585 1.26874 -1.58212 0
M  V30 5262 C 484.918 1.9241 -0.263073 0
M  V30 5263 O 484.193 1.80181 0.732476 0
M  V30 5264 C 484.476 2.34428 -2.73341 0
M  V30 5265 C 484.329 1.73466 -4.15006 0
M  V30 5266 C 485.648 3.36073 -2.84154 0
M  V30 5267 H 482.767 0.459924 -0.575881 0
M  V30 5268 H 485.409 0.568587 -1.81293 0
M  V30 5269 H 483.559 2.94146 -2.53792 0
M  V30 5270 H 485.231 1.17661 -4.46042 0
M  V30 5271 H 483.474 1.03921 -4.21168 0
M  V30 5272 H 484.145 2.51426 -4.91415 0
M  V30 5273 H 486.621 2.86332 -3.01916 0
M  V30 5274 H 485.497 4.08703 -3.66406 0
M  V30 5275 H 485.758 3.97725 -1.93048 0
M  V30 5276 N 484.817 1.37938 0.762283 0
M  V30 5277 C 485.749 1.30349 1.88525 0
M  V30 5278 C 486.762 0.217402 1.61342 0
M  V30 5279 O 487.951 0.474291 1.72084 0
M  V30 5280 C 485.051 0.994844 3.23969 0
M  V30 5281 C 484.224 2.18829 3.78725 0
M  V30 5282 C 483.283 1.84844 4.92665 0
M  V30 5283 O 482.309 2.57244 5.07754 0
M  V30 5284 N 483.511 0.798201 5.74986 0
M  V30 5285 H 486.276 2.27114 1.95549 0
M  V30 5286 H 483.837 1.31686 0.941825 0
M  V30 5287 H 485.829 0.748168 3.97724 0
M  V30 5288 H 484.399 0.115446 3.12387 0
M  V30 5289 H 483.619 2.59615 2.96637 0
M  V30 5290 H 484.907 2.98497 4.1204 0
M  V30 5291 H 484.305 0.197611 5.65355 0
M  V30 5292 H 482.862 0.611396 6.48926 0
M  V30 5293 N 486.295 -0.989507 1.22664 0
M  V30 5294 C 487.227 -2.0824 0.957542 0
M  V30 5295 C 488.24 -1.6267 -0.0651098 0
M  V30 5296 O 489.429 -1.77695 0.169312 0
M  V30 5297 C 486.529 -3.36298 0.419145 0
M  V30 5298 C 485.702 -4.10882 1.49982 0
M  V30 5299 C 484.761 -5.17221 0.967904 0
M  V30 5300 O 483.787 -5.44613 1.65487 0
M  V30 5301 N 484.989 -5.80124 -0.20896 0
M  V30 5302 H 487.754 -2.31904 1.89843 0
M  V30 5303 H 485.315 -1.15552 1.13399 0
M  V30 5304 H 487.307 -4.04671 0.0485451 0
M  V30 5305 H 485.877 -3.09671 -0.426937 0
M  V30 5306 H 485.097 -3.37092 2.04359 0
M  V30 5307 H 486.385 -4.57482 2.22682 0
M  V30 5308 H 485.783 -5.60244 -0.783818 0
M  V30 5309 H 484.34 -6.49715 -0.520913 0
M  V30 5310 N 487.773 -1.03688 -1.18687 0
M  V30 5311 C 489.019 -0.739123 -1.88851 0
M  V30 5312 C 489.352 0.731042 -1.79915 0
M  V30 5313 O 488.627 1.53313 -1.19688 0
M  V30 5314 C 488.91 -1.20106 -3.3948 0
M  V30 5315 C 488.763 -2.73304 -3.57246 0
M  V30 5316 C 490.082 -0.788134 -4.32986 0
M  V30 5317 H 487.201 -0.269978 -0.68577 0
M  V30 5318 H 489.843 -1.28822 -1.3966 0
M  V30 5319 H 487.993 -0.733915 -3.81505 0
M  V30 5320 H 489.665 -3.28027 -3.24339 0
M  V30 5321 H 487.908 -3.13313 -3.00029 0
M  V30 5322 H 488.579 -3.00684 -4.62918 0
M  V30 5323 H 491.055 -1.19005 -3.98719 0
M  V30 5324 H 489.931 -1.13915 -5.36949 0
M  V30 5325 H 490.192 0.308988 -4.41019 0
M  V30 5326 N 489.251 1.34841 -0.815825 0
M  V30 5327 C 490.476 2.03261 -0.41226 0
M  V30 5328 C 490.901 1.61055 0.971751 0
M  V30 5329 O 490.259 0.7917 1.63101 0
M  V30 5330 C 490.307 3.56914 -0.514289 0
M  V30 5331 O 489.411 4.09728 0.468675 0
M  V30 5332 H 488.752 0.641664 -0.170771 0
M  V30 5333 H 491.282 1.72241 -1.10427 0
M  V30 5334 H 491.292 4.06156 -0.387457 0
M  V30 5335 H 489.967 3.86982 -1.52375 0
M  V30 5336 H 488.544 3.71681 0.301316 0
M  V30 5337 N 490.729 0.570148 1.46925 0
M  V30 5338 C 491.659 -0.158274 2.32963 0
M  V30 5339 C 492.64 -0.896093 1.44583 0
M  V30 5340 O 493.825 -0.874022 1.7342 0
M  V30 5341 C 490.955 -1.18055 3.26619 0
M  V30 5342 C 489.909 -0.558379 4.24342 0
M  V30 5343 C 489.235 -1.68623 5.07415 0
M  V30 5344 C 490.535 0.496295 5.19937 0
M  V30 5345 H 492.229 0.560046 2.94115 0
M  V30 5346 H 489.775 0.270775 1.41431 0
M  V30 5347 H 491.728 -1.69841 3.85658 0
M  V30 5348 H 490.452 -1.92899 2.63548 0
M  V30 5349 H 489.111 -0.0617157 3.66548 0
M  V30 5350 H 488.759 -2.42402 4.40738 0
M  V30 5351 H 488.459 -1.27564 5.73586 0
M  V30 5352 H 489.983 -2.20709 5.69315 0
M  V30 5353 H 491.397 0.0640052 5.73264 0
M  V30 5354 H 489.794 0.82649 5.94381 0
M  V30 5355 H 490.864 1.38735 4.6463 0
M  V30 5356 N 492.207 -1.54576 0.307264 0
M  V30 5357 C 493.453 -2.0056 -0.300612 0
M  V30 5358 C 493.786 -1.1953 -1.53057 0
M  V30 5359 O 493.061 -0.27337 -1.92569 0
M  V30 5360 C 493.344 -3.54167 -0.650987 0
M  V30 5361 C 493.197 -4.45933 0.588539 0
M  V30 5362 C 494.516 -4.14645 -1.47506 0
M  V30 5363 H 491.635 -0.729075 -0.107788 0
M  V30 5364 H 494.277 -1.85286 0.420606 0
M  V30 5365 H 492.427 -3.67313 -1.26544 0
M  V30 5366 H 494.099 -4.44683 1.22697 0
M  V30 5367 H 492.342 -4.16274 1.22058 0
M  V30 5368 H 493.013 -5.51189 0.299153 0
M  V30 5369 H 495.489 -4.04973 -0.955821 0
M  V30 5370 H 494.365 -5.22269 -1.68899 0
M  V30 5371 H 494.626 -3.66921 -2.4662 0
M  V30 5372 N 493.685 -0.035106 -1.57561 0
M  V30 5373 C 494.934 0.641604 -1.91223 0
M  V30 5374 C 495.247 1.72944 -0.913761 0
M  V30 5375 O 496.453 2.46321 -1.14185 0
M  V30 5376 C 494.909 1.19249 -3.3957 0
M  V30 5377 C 494.517 0.137616 -4.47789 0
M  V30 5378 C 496.261 1.84537 -3.82291 0
M  V30 5379 C 494.168 0.700478 -5.87237 0
M  V30 5380 H 493.098 0.243417 -0.713627 0
M  V30 5381 H 495.749 -0.101382 -1.8322 0
M  V30 5382 H 494.131 1.98728 -3.42525 0
M  V30 5383 H 495.305 -0.635153 -4.56402 0
M  V30 5384 H 493.62 -0.416855 -4.14308 0
M  V30 5385 H 496.217 2.27616 -4.83834 0
M  V30 5386 H 496.56 2.69054 -3.17672 0
M  V30 5387 H 497.093 1.11739 -3.81784 0
M  V30 5388 H 493.832 -0.106693 -6.55413 0
M  V30 5389 H 493.352 1.4416 -5.82218 0
M  V30 5390 H 495.031 1.18837 -6.35993 0
M  V30 5391 N 495.163 1.55791 0.238111 0
M  V30 5392 C 496.111 1.91885 1.31464 0
M  V30 5393 C 497.105 0.798929 1.49377 0
M  V30 5394 O 498.311 0.983626 1.50747 0
M  V30 5395 H 494.686 0.609551 0.440399 0
M  V30 5396 H 496.657 2.81747 0.982925 0
M  V30 5397 C 495.406 2.23763 2.6613 0
M  V30 5398 H 494.729 3.09444 2.53149 0
M  V30 5399 H 496.169 2.52915 3.40309 0
M  V30 5400 C 494.628 1.05699 3.1989 0
M  V30 5401 O 495.158 0.309524 4.00506 0
M  V30 5402 N 493.364 0.845251 2.78036 0
M  V30 5403 H 492.911 1.4548 2.12588 0
M  V30 5404 H 492.869 0.0569973 3.14348 0
M  V30 5405 N 496.642 -0.504142 1.49319 0
M  V30 5406 C 497.872 -1.28071 1.62116 0
M  V30 5407 C 498.28 -1.86955 0.290566 0
M  V30 5408 O 497.623 -1.68415 -0.733616 0
M  V30 5409 C 497.685 -2.4521 2.62893 0
M  V30 5410 C 497.349 -2.07218 4.0732 0
M  V30 5411 C 498.346 -1.61375 4.94221 0
M  V30 5412 C 496.031 -2.16949 4.53033 0
M  V30 5413 C 498.025 -1.25763 6.2487 0
M  V30 5414 C 495.712 -1.80949 5.83696 0
M  V30 5415 C 496.71 -1.3543 6.69438 0
M  V30 5416 O 496.398 -0.99915 7.97667 0
M  V30 5417 H 496.13 -0.394763 0.54876 0
M  V30 5418 H 498.684 -0.612118 1.96067 0
M  V30 5419 H 496.914 -3.15134 2.24115 0
M  V30 5420 H 498.603 -3.0724 2.65252 0
M  V30 5421 H 499.369 -1.53306 4.60133 0
M  V30 5422 H 495.248 -2.5133 3.86463 0
M  V30 5423 H 498.792 -0.901631 6.91749 0
M  V30 5424 H 494.689 -1.88667 6.17313 0
M  V30 5425 H 495.457 -1.13089 8.1065 0
M  V30 5426 N 498.12 -1.38341 -0.754957 0
M  V30 5427 C 499.397 -1.24995 -1.50451 0
M  V30 5428 C 499.777 0.149244 -2.10572 0
M  V30 5429 O 499.125 1.15861 -1.96948 0
M  V30 5430 C 499.335 -2.35904 -2.57197 0
M  V30 5431 C 500.683 -2.74262 -3.24138 0
M  V30 5432 O 501.707 -2.35205 -2.67501 0
M  V30 5433 O 500.566 -3.4161 -4.26574 0
M  V30 5434 H 497.66 -0.48872 -0.667144 0
M  V30 5435 H 500.206 -1.50165 -0.790486 0
M  V30 5436 H 498.978 -3.2953 -2.11011 0
M  V30 5437 H 498.601 -2.12291 -3.36182 0
M  V30 5438 N 499.598 0.982988 -1.23187 0
M  V30 5439 C 500.528 2.09301 -1.03515 0
M  V30 5440 C 501.509 1.70035 0.0471136 0
M  V30 5441 O 502.694 1.93847 -0.117029 0
M  V30 5442 C 499.824 3.4167 -0.622791 0
M  V30 5443 C 498.778 3.94828 -1.65211 0
M  V30 5444 C 498.104 5.23362 -1.09527 0
M  V30 5445 C 499.404 4.2439 -3.04451 0
M  V30 5446 H 501.098 2.26016 -1.96359 0
M  V30 5447 H 498.644 1.08611 -0.945501 0
M  V30 5448 H 500.597 4.18746 -0.472233 0
M  V30 5449 H 499.321 3.24811 0.341329 0
M  V30 5450 H 497.98 3.19895 -1.79061 0
M  V30 5451 H 497.628 5.02852 -0.122211 0
M  V30 5452 H 497.328 5.59895 -1.783 0
M  V30 5453 H 498.852 6.03062 -0.956511 0
M  V30 5454 H 500.266 4.92225 -2.93917 0
M  V30 5455 H 498.663 4.72118 -3.70438 0
M  V30 5456 H 499.733 3.31765 -3.53638 0
M  V30 5457 N 501.076 1.04316 1.18135 0
M  V30 5458 C 502.487 0.775505 1.69832 0
M  V30 5459 C 502.838 -0.703348 1.8316 0
M  V30 5460 O 501.963 -1.54729 1.51287 0
M  V30 5461 C 502.558 1.40112 3.0847 0
M  V30 5462 C 501.117 1.18172 3.57368 0
M  V30 5463 C 500.264 1.49022 2.33854 0
M  V30 5464 H 503.215 1.20925 1.02775 0
M  V30 5465 H 503.236 0.805672 3.71873 0
M  V30 5466 H 502.748 2.47744 2.98738 0
M  V30 5467 H 500.849 0.124258 3.72393 0
M  V30 5468 H 500.962 1.8805 4.40652 0
M  V30 5469 H 499.326 0.909995 2.37889 0
M  V30 5470 H 500.109 2.57768 2.26738 0
M  V30 5471 N 502.554 -1.34406 0.822964 0
M  V30 5472 C 503.517 -2.2783 0.250271 0
M  V30 5473 C 504.517 -1.50288 -0.571854 0
M  V30 5474 O 505.707 -1.69825 -0.387952 0
M  V30 5475 C 502.839 -3.34663 -0.649137 0
M  V30 5476 H 504.032 -2.79992 1.07444 0
M  V30 5477 H 501.585 -1.44539 0.594829 0
M  V30 5478 H 502.32 -2.87714 -1.49637 0
M  V30 5479 H 502.105 -3.92052 -0.0611199 0
M  V30 5480 H 503.595 -4.04349 -1.04363 0
M  V30 5481 N 504.032 -0.577932 -1.46621 0
M  V30 5482 C 505.257 -0.0652536 -2.07297 0
M  V30 5483 C 505.682 1.22828 -1.4246 0
M  V30 5484 O 505.04 1.74075 -0.506718 0
M  V30 5485 C 505.088 0.0920589 -3.60482 0
M  V30 5486 O 504.192 1.14972 -3.96049 0
M  V30 5487 H 503.533 -0.06065 -0.661224 0
M  V30 5488 H 506.063 -0.799515 -1.88332 0
M  V30 5489 H 506.073 0.299741 -4.06897 0
M  V30 5490 H 504.748 -0.852612 -4.07067 0
M  V30 5491 H 503.325 0.920879 -3.61351 0
M  V30 5492 N 505.51 1.54411 -0.315457 0
M  V30 5493 C 506.921 1.85885 0.174265 0
M  V30 5494 C 507.272 1.23723 1.52273 0
M  V30 5495 O 506.397 0.540246 2.09548 0
M  V30 5496 C 506.992 3.37257 0.322981 0
M  V30 5497 C 505.551 3.68711 0.756922 0
M  V30 5498 C 504.698 2.77013 -0.126195 0
M  V30 5499 H 507.649 1.49374 -0.536007 0
M  V30 5500 H 507.67 3.62539 1.15522 0
M  V30 5501 H 507.182 3.82471 -0.658602 0
M  V30 5502 H 505.283 3.29024 1.74854 0
M  V30 5503 H 505.396 4.75741 0.566291 0
M  V30 5504 H 503.76 2.51588 0.39692 0
M  V30 5505 H 504.543 3.25051 -1.1044 0
M  V30 5506 N 506.988 0.0434614 1.5754 0
M  V30 5507 C 508.265 -0.671479 1.83713 0
M  V30 5508 C 508.645 -1.89495 0.930315 0
M  V30 5509 O 507.993 -2.28498 -0.0105639 0
M  V30 5510 C 508.203 -1.0361 3.33266 0
M  V30 5511 C 509.551 -1.42167 4.00092 0
M  V30 5512 O 510.575 -1.12866 3.37846 0
M  V30 5513 O 509.434 -1.96817 5.09829 0
M  V30 5514 H 506.528 -0.330726 0.75799 0
M  V30 5515 H 509.074 0.0722373 1.69546 0
M  V30 5516 H 507.846 -0.165938 3.90948 0
M  V30 5517 H 507.469 -1.83751 3.52592 0
M  V30 5518 N 508.466 -1.55915 -0.229846 0
M  V30 5519 C 509.694 -1.82617 -0.972562 0
M  V30 5520 C 510.109 -0.621488 -1.78278 0
M  V30 5521 O 509.466 0.409956 -1.77836 0
M  V30 5522 C 509.517 -3.0774 -1.89679 0
M  V30 5523 O 509.238 -4.23559 -1.11934 0
M  V30 5524 C 510.739 -3.47368 -2.75409 0
M  V30 5525 H 507.959 -0.60727 -0.285419 0
M  V30 5526 H 510.503 -2.02996 -0.247579 0
M  V30 5527 H 508.658 -2.89361 -2.57583 0
M  V30 5528 H 509.072 -4.94586 -1.74599 0
M  V30 5529 H 510.546 -4.37977 -3.35977 0
M  V30 5530 H 511.023 -2.68737 -3.47386 0
M  V30 5531 H 511.629 -3.68158 -2.12931 0
M  V30 5532 N 509.944 0.496216 -1.49584 0
M  V30 5533 C 511.174 1.27209 -1.62793 0
M  V30 5534 C 511.582 1.86799 -0.300476 0
M  V30 5535 O 510.925 1.68802 0.724674 0
M  V30 5536 C 510.987 2.43812 -2.64189 0
M  V30 5537 C 510.651 2.05055 -4.08414 0
M  V30 5538 C 511.648 1.58752 -4.9507 0
M  V30 5539 C 509.333 2.14543 -4.54177 0
M  V30 5540 C 511.327 1.22448 -6.25528 0
M  V30 5541 C 509.014 1.77851 -5.84647 0
M  V30 5542 C 510.012 1.31878 -6.70147 0
M  V30 5543 O 509.7 0.956834 -7.98185 0
M  V30 5544 H 509.432 0.391848 -0.550846 0
M  V30 5545 H 511.986 0.601712 -1.96389 0
M  V30 5546 H 510.216 3.13941 -2.25783 0
M  V30 5547 H 511.905 3.05829 -2.66877 0
M  V30 5548 H 512.671 1.50863 -4.60939 0
M  V30 5549 H 508.55 2.49277 -3.87791 0
M  V30 5550 H 512.094 0.864933 -6.92217 0
M  V30 5551 H 507.991 1.8539 -6.18305 0
M  V30 5552 H 508.759 1.08789 -8.11238 0
M  V30 5553 N 511.423 1.38739 0.74761 0
M  V30 5554 C 512.672 1.3459 1.50228 0
M  V30 5555 C 512.985 -0.0595592 1.95509 0
M  V30 5556 O 514.191 -0.22361 2.70578 0
M  V30 5557 C 512.647 2.36377 2.71393 0
M  V30 5558 C 512.255 3.82573 2.33113 0
M  V30 5559 C 513.999 2.41281 3.49262 0
M  V30 5560 C 511.906 4.76032 3.50924 0
M  V30 5561 H 510.836 0.500312 0.564096 0
M  V30 5562 H 513.487 1.64324 0.8167 0
M  V30 5563 H 511.869 1.99694 3.41962 0
M  V30 5564 H 513.043 4.28227 1.70171 0
M  V30 5565 H 511.358 3.80844 1.68365 0
M  V30 5566 H 513.955 3.08301 4.36869 0
M  V30 5567 H 514.298 1.43353 3.9084 0
M  V30 5568 H 514.831 2.76793 2.85711 0
M  V30 5569 H 511.57 5.75177 3.14408 0
M  V30 5570 H 511.09 4.35066 4.12889 0
M  V30 5571 H 512.769 4.94331 4.17427 0
M  V30 5572 N 512.901 -0.976442 1.23707 0
M  V30 5573 C 513.851 -2.0544 0.988851 0
M  V30 5574 C 514.835 -1.60762 -0.0665901 0
M  V30 5575 O 516.027 -1.76396 0.14604 0
M  V30 5576 C 513.156 -3.38258 0.586223 0
M  V30 5577 C 512.242 -3.89523 1.67728 0
M  V30 5578 N 512.633 -4.13823 2.90834 0
M  V30 5579 C 510.931 -4.18097 1.55277 0
M  V30 5580 C 511.632 -4.55731 3.61502 0
M  V30 5581 N 510.608 -4.60394 2.8903 0
M  V30 5582 H 514.41 -2.22191 1.92376 0
M  V30 5583 H 511.924 -1.15954 1.13704 0
M  V30 5584 H 513.921 -4.15075 0.389658 0
M  V30 5585 H 512.581 -3.22898 -0.341594 0
M  V30 5586 H 513.592 -4.01529 3.271 0
M  V30 5587 H 510.269 -4.11719 0.692351 0
M  V30 5588 H 511.659 -4.83018 4.67059 0
M  V30 5589 N 514.379 -1.04941 -1.1758 0
M  V30 5590 C 515.795 -0.770282 -1.39781 0
M  V30 5591 C 515.995 0.636417 -1.91186 0
M  V30 5592 O 515.051 1.39923 -2.10185 0
M  V30 5593 C 516.364 -1.82376 -2.3908 0
M  V30 5594 C 517.912 -1.84569 -2.52791 0
M  V30 5595 C 518.387 -2.88933 -3.55361 0
M  V30 5596 N 519.878 -2.8788 -3.62877 0
M  V30 5597 C 520.613 -3.65282 -4.41992 0
M  V30 5598 N 520.109 -4.52461 -5.24643 0
M  V30 5599 N 521.902 -3.53732 -4.36841 0
M  V30 5600 H 514.053 -1.95705 -0.825438 0
M  V30 5601 H 516.316 -0.847284 -0.425222 0
M  V30 5602 H 516.022 -2.83323 -2.08376 0
M  V30 5603 H 515.896 -1.66327 -3.38549 0
M  V30 5604 H 518.283 -0.842879 -2.82807 0
M  V30 5605 H 518.364 -2.04696 -1.53406 0
M  V30 5606 H 518.008 -3.89398 -3.26085 0
M  V30 5607 H 517.938 -2.66059 -4.54445 0
M  V30 5608 H 520.429 -2.24666 -3.03864 0
M  V30 5609 H 520.742 -5.08211 -5.82187 0
M  V30 5610 H 519.087 -4.56524 -5.24033 0
M  V30 5611 H 522.278 -2.85021 -3.71323 0
M  V30 5612 H 522.451 -4.14302 -4.98255 0
M  V30 5613 N 515.857 1.33968 -0.830081 0
M  V30 5614 C 517.106 1.97323 -0.417928 0
M  V30 5615 C 517.419 1.6652 1.02618 0
M  V30 5616 O 518.625 2.2342 1.54259 0
M  V30 5617 C 517.081 3.53099 -0.696359 0
M  V30 5618 C 516.689 3.92788 -2.15457 0
M  V30 5619 C 518.433 4.23049 -0.350724 0
M  V30 5620 C 516.34 5.41506 -2.37751 0
M  V30 5621 H 515.27 0.738409 -0.152541 0
M  V30 5622 H 517.921 1.52711 -1.01744 0
M  V30 5623 H 516.303 3.95991 -0.0265904 0
M  V30 5624 H 517.477 3.6098 -2.86408 0
M  V30 5625 H 515.792 3.35795 -2.46232 0
M  V30 5626 H 518.389 5.32403 -0.495036 0
M  V30 5627 H 518.732 4.10279 0.705476 0
M  V30 5628 H 519.265 3.85657 -0.975362 0
M  V30 5629 H 516.004 5.5927 -3.41903 0
M  V30 5630 H 515.524 5.74804 -1.7135 0
M  V30 5631 H 517.203 6.0828 -2.20465 0
M  V30 5632 N 517.335 0.585699 1.46312 0
M  V30 5633 C 518.583 0.072278 2.01971 0
M  V30 5634 C 518.904 -1.29345 1.45928 0
M  V30 5635 O 518.174 -1.84973 0.645109 0
M  V30 5636 H 516.754 0.023729 0.746623 0
M  V30 5637 H 519.416 0.762155 1.7938 0
M  V30 5638 H 518.512 0.00552767 3.121 0
M  V30 5639 N 518.813 -1.54241 0.323641 0
M  V30 5640 C 520.229 -1.59574 -0.0290018 0
M  V30 5641 C 520.429 -1.34017 -1.50472 0
M  V30 5642 O 519.485 -1.12464 -2.26071 0
M  V30 5643 C 520.798 -2.98169 0.389295 0
M  V30 5644 C 522.346 -3.11148 0.339958 0
M  V30 5645 C 522.821 -4.5209 0.733418 0
M  V30 5646 N 524.312 -4.5808 0.686827 0
M  V30 5647 C 525.047 -5.65248 0.963464 0
M  V30 5648 N 524.543 -6.80355 1.30724 0
M  V30 5649 N 526.336 -5.55025 0.88902 0
M  V30 5650 H 518.487 -1.6911 1.28512 0
M  V30 5651 H 520.75 -0.790972 0.522558 0
M  V30 5652 H 520.456 -3.21871 1.41746 0
M  V30 5653 H 520.33 -3.76399 -0.245657 0
M  V30 5654 H 522.717 -2.87182 -0.679002 0
M  V30 5655 H 522.798 -2.35023 1.00985 0
M  V30 5656 H 522.442 -4.76788 1.75029 0
M  V30 5657 H 522.372 -5.26584 0.0412189 0
M  V30 5658 H 524.863 -3.75411 0.43298 0
M  V30 5659 H 525.176 -7.58029 1.5037 0
M  V30 5660 H 523.521 -6.81851 1.3455 0
M  V30 5661 H 526.712 -4.63977 0.619939 0
M  V30 5662 H 526.885 -6.38458 1.10797 0
M  V30 5663 N 520.291 -0.0518155 -1.57515 0
M  V30 5664 C 521.516 0.634896 -1.97443 0
M  V30 5665 C 521.941 1.63546 -0.929207 0
M  V30 5666 O 521.299 1.80981 0.107484 0
M  V30 5667 C 521.347 1.29765 -3.36442 0
M  V30 5668 O 520.451 2.41333 -3.34413 0
M  V30 5669 H 519.792 0.164994 -0.643174 0
M  V30 5670 H 522.322 -0.120407 -2.04245 0
M  V30 5671 H 522.332 1.64918 -3.73184 0
M  V30 5672 H 521.007 0.564361 -4.12053 0
M  V30 5673 H 519.584 2.08122 -3.09418 0
M  V30 5674 N 521.769 1.56035 0.221574 0
M  V30 5675 C 523.017 1.78693 0.944102 0
M  V30 5676 C 523.338 0.620317 1.8487 0
M  V30 5677 O 522.608 -0.362784 1.92512 0
M  V30 5678 H 521.188 0.659082 0.351597 0
M  V30 5679 H 523.85 1.93497 0.233435 0
M  V30 5680 H 522.946 2.70837 1.55093 0
M  V30 5681 N 523.247 -0.488276 1.49845 0
M  V30 5682 C 524.663 -0.820566 1.3689 0
M  V30 5683 C 524.863 -1.97248 0.411752 0
M  V30 5684 O 523.919 -2.52042 -0.151931 0
M  V30 5685 C 525.232 -1.1488 2.77891 0
M  V30 5686 C 526.78 -1.25626 2.86683 0
M  V30 5687 C 527.255 -1.61772 4.28479 0
M  V30 5688 N 528.746 -1.68797 4.31349 0
M  V30 5689 C 529.481 -1.98235 5.38043 0
M  V30 5690 N 528.977 -2.2581 6.54967 0
M  V30 5691 N 530.77 -1.99593 5.2547 0
M  V30 5692 H 522.921 0.271123 2.10662 0
M  V30 5693 H 525.184 0.058735 0.946179 0
M  V30 5694 H 524.89 -0.375614 3.49688 0
M  V30 5695 H 524.764 -2.08919 3.14058 0
M  V30 5696 H 527.151 -2.02014 2.15114 0
M  V30 5697 H 527.232 -0.296072 2.54081 0
M  V30 5698 H 526.876 -0.859295 5.00578 0
M  V30 5699 H 526.806 -2.58912 4.58554 0
M  V30 5700 H 529.297 -1.49595 3.4703 0
M  V30 5701 H 529.61 -2.47497 7.32096 0
M  V30 5702 H 527.955 -2.23239 6.58171 0
M  V30 5703 H 531.146 -1.77535 4.33127 0
M  V30 5704 H 531.319 -2.222 6.08713 0
M  V30 5705 N 524.725 -1.39134 -0.740242 0
M  V30 5706 C 525.972 -1.36071 -1.49969 0
M  V30 5707 C 526.3 0.0450245 -1.94448 0
M  V30 5708 O 525.555 1.02482 -1.66721 0
M  V30 5709 C 525.854 -2.27457 -2.75678 0
M  V30 5710 C 525.52 -3.75185 -2.50094 0
M  V30 5711 C 524.182 -4.15439 -2.42825 0
M  V30 5712 C 526.534 -4.68643 -2.28086 0
M  V30 5713 C 523.862 -5.4722 -2.11584 0
M  V30 5714 C 526.214 -6.00695 -1.98363 0
M  V30 5715 C 524.878 -6.40018 -1.8956 0
M  V30 5716 H 524.148 -0.497921 -0.548777 0
M  V30 5717 H 526.795 -1.71599 -0.85007 0
M  V30 5718 H 525.1 -1.8503 -3.45356 0
M  V30 5719 H 526.797 -2.22384 -3.33686 0
M  V30 5720 H 523.387 -3.43279 -2.56627 0
M  V30 5721 H 527.571 -4.3838 -2.32672 0
M  V30 5722 H 522.827 -5.76615 -2.03287 0
M  V30 5723 H 527.001 -6.72644 -1.80341 0
M  V30 5724 H 524.628 -7.42051 -1.65117 0
M  V30 5725 N 526.204 0.969867 -1.24223 0
M  V30 5726 C 527.452 1.70918 -1.0785 0
M  V30 5727 C 527.773 1.91186 0.383763 0
M  V30 5728 O 527.043 1.48806 1.27411 0
M  V30 5729 H 525.623 0.633334 -0.396103 0
M  V30 5730 H 528.285 1.16689 -1.56108 0
M  V30 5731 H 527.381 2.69455 -1.57482 0
M  V30 5732 N 527.682 1.05563 1.17022 0
M  V30 5733 C 529.098 0.777684 1.39371 0
M  V30 5734 C 529.298 -0.626269 1.91521 0
M  V30 5735 O 528.354 -1.38806 2.10924 0
M  V30 5736 C 529.667 1.83642 2.3811 0
M  V30 5737 C 531.215 1.85907 2.51809 0
M  V30 5738 C 531.69 2.90813 3.53824 0
M  V30 5739 N 533.181 2.898 3.61345 0
M  V30 5740 C 533.916 3.6762 4.40049 0
M  V30 5741 N 533.412 4.55237 5.22237 0
M  V30 5742 N 535.205 3.56044 4.34959 0
M  V30 5743 H 527.356 1.9614 0.815047 0
M  V30 5744 H 529.619 0.849527 0.420722 0
M  V30 5745 H 529.325 2.84425 2.06871 0
M  V30 5746 H 529.199 1.6812 3.37662 0
M  V30 5747 H 531.586 0.857865 2.82356 0
M  V30 5748 H 531.667 2.05506 1.52318 0
M  V30 5749 H 531.311 3.91122 3.24015 0
M  V30 5750 H 531.241 2.68465 4.53028 0
M  V30 5751 H 533.732 2.26274 3.02669 0
M  V30 5752 H 534.045 5.11291 5.79484 0
M  V30 5753 H 532.39 4.59296 5.21605 0
M  V30 5754 H 535.581 2.86986 3.69806 0
M  V30 5755 H 535.754 4.16938 4.96051 0
M  V30 5756 N 529.16 -1.33526 0.837174 0
M  V30 5757 C 530.107 -2.29248 0.267169 0
M  V30 5758 C 531.077 -1.54252 -0.616071 0
M  V30 5759 O 532.262 -1.82559 -0.554699 0
M  V30 5760 C 529.402 -3.40638 -0.553152 0
M  V30 5761 C 528.515 -4.30548 0.353921 0
M  V30 5762 C 527.65 -5.29051 -0.477339 0
M  V30 5763 C 526.689 -6.106 0.42823 0
M  V30 5764 N 525.826 -7.01152 -0.364801 0
M  V30 5765 H 530.666 -2.77398 1.08877 0
M  V30 5766 H 528.203 -1.36496 0.54838 0
M  V30 5767 H 530.161 -4.03921 -1.04422 0
M  V30 5768 H 528.791 -2.93685 -1.33973 0
M  V30 5769 H 527.843 -3.68001 0.963289 0
M  V30 5770 H 529.155 -4.87631 1.04964 0
M  V30 5771 H 528.309 -5.97853 -1.0323 0
M  V30 5772 H 527.048 -4.72541 -1.2065 0
M  V30 5773 H 526.053 -5.40718 0.995219 0
M  V30 5774 H 527.278 -6.69193 1.15573 0
M  V30 5775 H 525.224 -6.47092 -1.07738 0
M  V30 5776 H 525.141 -7.5551 0.272238 0
M  V30 5777 H 526.409 -7.74263 -0.902054 0
M  V30 5778 N 530.638 -0.59345 -1.46 0
M  V30 5779 C 531.886 -0.082988 -2.0193 0
M  V30 5780 C 532.207 1.28569 -1.46612 0
M  V30 5781 O 531.477 1.84629 -0.654909 0
M  V30 5782 H 530.057 -0.0276882 -0.746487 0
M  V30 5783 H 532.719 -0.771657 -1.78973 0
M  V30 5784 H 531.815 -0.022079 -3.12092 0
M  V30 5785 N 532.116 1.54067 -0.331816 0
M  V30 5786 C 533.362 2.01012 0.268667 0
M  V30 5787 C 533.695 1.2195 1.51136 0
M  V30 5788 O 532.97 0.303972 1.9211 0
M  V30 5789 C 533.253 3.55158 0.59456 0
M  V30 5790 C 533.106 4.4494 -0.659409 0
M  V30 5791 C 534.425 4.16939 1.4089 0
M  V30 5792 H 531.544 0.730698 0.0961756 0
M  V30 5793 H 534.186 1.84593 -0.450031 0
M  V30 5794 H 532.336 3.6928 1.20685 0
M  V30 5795 H 534.008 4.42675 -1.29756 0
M  V30 5796 H 532.251 4.1428 -1.28665 0
M  V30 5797 H 532.922 5.50643 -0.386804 0
M  V30 5798 H 535.398 4.06443 0.891272 0
M  V30 5799 H 534.274 5.24889 1.60569 0
M  V30 5800 H 534.535 3.70798 2.40752 0
M  V30 5801 N 533.594 0.0601682 1.57485 0
M  V30 5802 C 534.557 -0.896373 2.10945 0
M  V30 5803 C 535.557 -1.23402 1.03095 0
M  V30 5804 O 536.747 -1.16921 1.29132 0
M  V30 5805 C 533.879 -2.20346 2.60116 0
M  V30 5806 H 535.072 -0.432778 2.96761 0
M  V30 5807 H 532.625 -0.188372 1.55161 0
M  V30 5808 H 533.36 -2.71268 1.7772 0
M  V30 5809 H 533.145 -1.9714 3.38937 0
M  V30 5810 H 534.635 -2.88846 3.01592 0
M  V30 5811 N 535.072 -1.5615 -0.213296 0
M  V30 5812 C 536.321 -1.78743 -0.93455 0
M  V30 5813 C 536.634 -0.630199 -1.8517 0
M  V30 5814 O 537.84 -0.739966 -2.61222 0
M  V30 5815 C 536.296 -3.16571 -1.71203 0
M  V30 5816 C 535.904 -4.40043 -0.840617 0
M  V30 5817 C 537.648 -3.48485 -2.42401 0
M  V30 5818 C 535.555 -5.68895 -1.61592 0
M  V30 5819 H 534.485 -0.666426 -0.352692 0
M  V30 5820 H 537.136 -1.82532 -0.188227 0
M  V30 5821 H 535.518 -3.06981 -2.50157 0
M  V30 5822 H 536.692 -4.6071 -0.0910326 0
M  V30 5823 H 535.007 -4.15706 -0.240365 0
M  V30 5824 H 537.604 -4.41983 -3.00924 0
M  V30 5825 H 537.947 -2.71371 -3.15695 0
M  V30 5826 H 538.48 -3.59442 -1.7043 0
M  V30 5827 H 535.219 -6.48925 -0.926106 0
M  V30 5828 H 534.739 -5.52275 -2.33991 0
M  V30 5829 H 536.418 -6.09365 -2.17447 0
M  V30 5830 N 536.55 0.480323 -1.50102 0
M  V30 5831 C 537.498 1.60024 -1.68805 0
M  V30 5832 C 538.492 1.60089 -0.553888 0
M  V30 5833 O 539.698 1.64349 -0.734127 0
M  V30 5834 H 536.073 0.530841 -0.532646 0
M  V30 5835 H 538.044 1.41408 -2.62767 0
M  V30 5836 C 536.793 2.98029 -1.79092 0
M  V30 5837 H 536.116 2.98694 -2.65748 0
M  V30 5838 H 537.556 3.75871 -1.96206 0
M  V30 5839 C 536.015 3.32538 -0.540388 0
M  V30 5840 O 536.545 4.00386 0.324637 0
M  V30 5841 N 534.751 2.87873 -0.397154 0
M  V30 5842 H 534.298 2.32834 -1.1021 0
M  V30 5843 H 534.256 3.11328 0.438425 0
M  V30 5844 N 538.028 1.39524 0.732853 0
M  V30 5845 C 539.275 1.36865 1.49246 0
M  V30 5846 C 539.603 -0.0347118 1.94469 0
M  V30 5847 O 538.858 -1.01596 1.67262 0
M  V30 5848 C 539.157 2.28916 2.74468 0
M  V30 5849 C 538.823 3.76506 2.481 0
M  V30 5850 C 537.485 4.16721 2.40619 0
M  V30 5851 C 539.837 4.69846 2.25598 0
M  V30 5852 C 537.165 5.48334 2.08679 0
M  V30 5853 C 539.517 6.01739 1.95174 0
M  V30 5854 C 538.181 6.41015 1.86163 0
M  V30 5855 H 537.451 0.500824 0.546129 0
M  V30 5856 H 540.098 1.72047 0.840958 0
M  V30 5857 H 538.403 1.86859 3.4437 0
M  V30 5858 H 540.1 2.2415 3.32502 0
M  V30 5859 H 536.69 3.44635 2.54803 0
M  V30 5860 H 540.874 4.39608 2.30344 0
M  V30 5861 H 536.13 5.77685 2.00226 0
M  V30 5862 H 540.304 6.73591 1.76771 0
M  V30 5863 H 537.931 7.42917 1.61179 0
M  V30 5864 N 539.506 -0.963266 1.24736 0
M  V30 5865 C 540.752 -1.70933 1.09131 0
M  V30 5866 C 541.085 -1.90676 -0.368273 0
M  V30 5867 O 540.36 -1.47147 -1.27193 0
M  V30 5868 C 540.643 -3.09744 1.83658 0
M  V30 5869 C 540.496 -2.97465 3.37394 0
M  V30 5870 C 541.815 -4.09483 1.61282 0
M  V30 5871 H 538.934 -0.620398 0.397838 0
M  V30 5872 H 541.576 -1.12028 1.53459 0
M  V30 5873 H 539.726 -3.60031 1.4598 0
M  V30 5874 H 541.398 -2.54571 3.84696 0
M  V30 5875 H 539.641 -2.33576 3.65547 0
M  V30 5876 H 540.312 -3.95822 3.84745 0
M  V30 5877 H 542.788 -3.68073 1.94066 0
M  V30 5878 H 541.664 -5.04666 2.15878 0
M  V30 5879 H 541.925 -4.38639 0.552102 0
M  V30 5880 N 540.985 -1.06182 -1.16461 0
M  V30 5881 C 542.213 -0.798583 -1.90867 0
M  V30 5882 C 542.628 0.646921 -1.77371 0
M  V30 5883 O 541.985 1.44279 -1.11758 0
M  V30 5884 C 542.036 -1.18258 -3.4161 0
M  V30 5885 O 541.757 -2.57135 -3.54701 0
M  V30 5886 C 543.258 -0.946917 -4.33069 0
M  V30 5887 H 540.478 -0.289603 -0.605286 0
M  V30 5888 H 543.022 -1.41515 -1.47627 0
M  V30 5889 H 541.177 -0.610562 -3.82558 0
M  V30 5890 H 541.591 -2.72477 -4.4817 0
M  V30 5891 H 543.065 -1.26523 -5.37304 0
M  V30 5892 H 543.542 0.117406 -4.39043 0
M  V30 5893 H 544.148 -1.50326 -3.97847 0
M  V30 5894 N 542.463 1.3308 -0.844243 0
M  V30 5895 C 543.411 2.31028 -0.269954 0
M  V30 5896 C 544.405 1.58381 0.600997 0
M  V30 5897 O 545.611 1.73203 0.48996 0
M  V30 5898 H 541.986 0.748866 -0.0685782 0
M  V30 5899 H 543.957 2.76967 -1.11049 0
M  V30 5900 C 542.706 3.43549 0.535676 0
M  V30 5901 H 542.029 3.99604 -0.125202 0
M  V30 5902 H 543.469 4.14267 0.903262 0
M  V30 5903 C 541.928 2.8988 1.71672 0
M  V30 5904 O 542.458 2.86511 2.81557 0
M  V30 5905 N 540.664 2.46416 1.54037 0
M  V30 5906 H 540.211 2.49356 0.64649 0
M  V30 5907 H 540.169 2.1086 2.33207 0
M  V30 5908 N 543.941 0.601185 1.45683 0
M  V30 5909 C 545.218 0.0261659 1.95582 0
M  V30 5910 C 545.598 -1.4399 1.5437 0
M  V30 5911 O 544.946 -2.13919 0.80318 0
M  V30 5912 C 545.156 0.217557 3.48321 0
M  V30 5913 C 546.504 0.0950076 4.24494 0
M  V30 5914 O 547.528 0.147345 3.55895 0
M  V30 5915 O 546.387 -0.025261 5.46494 0
M  V30 5916 H 543.481 -0.0393688 0.826062 0
M  V30 5917 H 546.027 0.670798 1.55879 0
M  V30 5918 H 544.799 1.23601 3.71266 0
M  V30 5919 H 544.422 -0.46264 3.94899 0
M  V30 5920 N 545.419 -1.53889 0.339982 0
M  V30 5921 C 546.696 -1.93084 -0.312719 0
M  V30 5922 C 547.076 -1.2712 -1.68534 0
M  V30 5923 O 546.424 -0.420835 -2.24591 0
M  V30 5924 C 546.634 -3.4683 -0.388558 0
M  V30 5925 C 547.982 -4.19732 -0.641088 0
M  V30 5926 O 549.006 -3.53075 -0.470818 0
M  V30 5927 O 547.865 -5.3781 -0.970685 0
M  V30 5928 H 544.959 -0.806784 -0.18174 0
M  V30 5929 H 547.505 -1.65137 0.390898 0
M  V30 5930 H 546.277 -3.87055 0.574821 0
M  V30 5931 H 545.9 -3.80933 -1.1391 0
M  V30 5932 N 546.897 -0.0685191 -1.57451 0
M  V30 5933 C 547.844 0.899861 -2.12535 0
M  V30 5934 C 548.814 1.29749 -1.03703 0
M  V30 5935 O 549.999 1.38392 -1.31348 0
M  V30 5936 C 547.139 2.16328 -2.6888 0
M  V30 5937 C 546.252 1.81857 -3.91857 0
M  V30 5938 C 545.387 3.02786 -4.36457 0
M  V30 5939 C 544.426 2.64317 -5.5209 0
M  V30 5940 N 543.563 3.77994 -5.91663 0
M  V30 5941 H 548.403 0.423243 -2.94979 0
M  V30 5942 H 545.94 0.197268 -1.45771 0
M  V30 5943 H 547.898 2.90281 -2.99655 0
M  V30 5944 H 546.528 2.61536 -1.89206 0
M  V30 5945 H 545.58 0.979808 -3.67565 0
M  V30 5946 H 546.892 1.49553 -4.75852 0
M  V30 5947 H 546.046 3.85021 -4.68875 0
M  V30 5948 H 544.785 3.38281 -3.51308 0
M  V30 5949 H 543.79 1.80503 -5.19325 0
M  V30 5950 H 545.015 2.29995 -6.38967 0
M  V30 5951 H 542.961 4.13258 -5.09464 0
M  V30 5952 H 542.878 3.49447 -6.7039 0
M  V30 5953 H 544.146 4.60818 -6.28703 0
M  V30 5954 N 548.375 1.56261 0.205012 0
M  V30 5955 C 549.285 1.96944 1.27476 0
M  V30 5956 C 550.301 0.875636 1.50362 0
M  V30 5957 O 551.477 1.18058 1.6317 0
M  V30 5958 C 548.542 2.29219 2.60115 0
M  V30 5959 C 547.603 3.52255 2.45387 0
M  V30 5960 C 546.836 3.8298 3.71701 0
M  V30 5961 O 547.059 3.15138 4.75441 0
M  V30 5962 O 545.993 4.76435 3.67823 0
M  V30 5963 H 549.819 2.88144 0.959527 0
M  V30 5964 H 547.404 1.43686 0.409217 0
M  V30 5965 H 549.286 2.51098 3.3842 0
M  V30 5966 H 547.961 1.4119 2.91285 0
M  V30 5967 H 546.868 3.35635 1.65227 0
M  V30 5968 H 548.201 4.40719 2.19152 0
M  V30 5969 N 549.853 -0.472356 1.50355 0
M  V30 5970 C 550.8 -1.57051 1.69126 0
M  V30 5971 C 551.77 -1.5733 0.532574 0
M  V30 5972 O 552.955 -1.7488 0.762994 0
M  V30 5973 C 550.095 -2.95033 1.79024 0
M  V30 5974 C 549.208 -3.04552 3.06386 0
M  V30 5975 C 548.343 -4.33441 3.07087 0
M  V30 5976 C 547.382 -4.36697 4.28908 0
M  V30 5977 N 546.519 -5.57056 4.27356 0
M  V30 5978 H 551.359 -1.40351 2.62879 0
M  V30 5979 H 548.896 -0.682403 1.30314 0
M  V30 5980 H 550.854 -3.75048 1.82744 0
M  V30 5981 H 549.484 -3.10371 0.887109 0
M  V30 5982 H 548.536 -2.17419 3.12143 0
M  V30 5983 H 549.848 -3.02818 3.96362 0
M  V30 5984 H 549.002 -5.21801 3.09529 0
M  V30 5985 H 547.741 -4.37782 2.14939 0
M  V30 5986 H 546.746 -3.46734 4.2668 0
M  V30 5987 H 547.971 -4.34049 5.22282 0
M  V30 5988 H 545.917 -5.62184 3.3806 0
M  V30 5989 H 545.834 -5.57058 5.111 0
M  V30 5990 H 547.102 -6.47545 4.33942 0
M  V30 5991 N 551.331 -1.39911 -0.725443 0
M  V30 5992 C 552.608 -1.28158 -1.47766 0
M  V30 5993 C 552.988 0.104545 -2.10841 0
M  V30 5994 O 552.336 1.11657 -1.99361 0
M  V30 5995 C 552.546 -2.41306 -2.52135 0
M  V30 5996 C 553.894 -2.81076 -3.18247 0
M  V30 5997 O 554.918 -2.40827 -2.62452 0
M  V30 5998 O 553.777 -3.50581 -4.19231 0
M  V30 5999 H 550.871 -0.502761 -0.656628 0
M  V30 6000 H 553.417 -1.51808 -0.758456 0
M  V30 6001 H 552.189 -3.33932 -2.03974 0
M  V30 6002 H 551.812 -2.19374 -3.31603 0
M  V30 6003 N 552.809 0.956637 -1.25245 0
M  V30 6004 C 553.756 2.053 -1.05454 0
M  V30 6005 C 554.726 1.66062 0.0356889 0
M  V30 6006 O 555.911 1.90415 -0.121099 0
M  V30 6007 C 553.051 3.38391 -0.677191 0
M  V30 6008 C 552.164 3.90758 -1.84206 0
M  V30 6009 C 551.299 5.12165 -1.40926 0
M  V30 6010 C 550.338 5.56757 -2.54338 0
M  V30 6011 N 549.475 6.69376 -2.11848 0
M  V30 6012 H 554.315 2.21562 -1.99284 0
M  V30 6013 H 551.852 1.08578 -0.992434 0
M  V30 6014 H 553.81 4.1488 -0.43938 0
M  V30 6015 H 552.44 3.22021 0.224127 0
M  V30 6016 H 551.492 3.10808 -2.19323 0
M  V30 6017 H 552.804 4.19802 -2.69383 0
M  V30 6018 H 551.958 5.96065 -1.13098 0
M  V30 6019 H 550.697 4.84832 -0.528175 0
M  V30 6020 H 549.702 4.71423 -2.82913 0
M  V30 6021 H 550.927 5.861 -3.43022 0
M  V30 6022 H 548.873 6.43756 -1.26153 0
M  V30 6023 H 548.79 6.97927 -2.90574 0
M  V30 6024 H 550.058 7.5669 -1.87191 0
M  V30 6025 N 554.287 1.06798 1.15896 0
M  V30 6026 C 555.217 0.704677 2.22613 0
M  V30 6027 C 556.198 -0.305252 1.67339 0
M  V30 6028 O 557.383 -0.179247 1.93371 0
M  V30 6029 C 554.513 0.0957325 3.47168 0
M  V30 6030 C 553.467 1.0322 4.15367 0
M  V30 6031 C 552.793 0.286293 5.33933 0
M  V30 6032 C 554.093 2.36341 4.65768 0
M  V30 6033 H 555.787 1.59688 2.53259 0
M  V30 6034 H 553.333 0.769257 1.21731 0
M  V30 6035 H 555.286 -0.170333 4.21056 0
M  V30 6036 H 554.01 -0.831516 3.15838 0
M  V30 6037 H 552.669 1.28309 3.43413 0
M  V30 6038 H 552.317 -0.644237 4.98857 0
M  V30 6039 H 552.017 0.910436 5.80504 0
M  V30 6040 H 553.541 0.0278938 6.10594 0
M  V30 6041 H 554.955 2.1561 5.31211 0
M  V30 6042 H 553.352 2.94299 5.2298 0
M  V30 6043 H 554.422 2.99047 3.81705 0
M  V30 6044 N 555.766 -1.3263 0.851289 0
M  V30 6045 C 556.713 -2.28952 0.291469 0
M  V30 6046 C 557.683 -1.54897 -0.599676 0
M  V30 6047 O 558.868 -1.83137 -0.535305 0
M  V30 6048 C 556.008 -3.41206 -0.516992 0
M  V30 6049 C 555.121 -4.30148 0.399566 0
M  V30 6050 C 554.256 -5.29527 -0.4212 0
M  V30 6051 C 553.295 -6.10112 0.492969 0
M  V30 6052 N 552.432 -7.01499 -0.290414 0
M  V30 6053 H 557.272 -2.76228 1.11813 0
M  V30 6054 H 554.809 -1.35907 0.562826 0
M  V30 6055 H 556.767 -4.05005 -1.00132 0
M  V30 6056 H 555.397 -2.9509 -1.30851 0
M  V30 6057 H 554.449 -3.66959 1.00227 0
M  V30 6058 H 555.761 -4.8649 1.1013 0
M  V30 6059 H 554.915 -5.98914 -0.968832 0
M  V30 6060 H 553.654 -4.73794 -1.15632 0
M  V30 6061 H 552.659 -5.39632 1.05251 0
M  V30 6062 H 553.884 -6.6793 1.22664 0
M  V30 6063 H 551.83 -6.48199 -1.00868 0
M  V30 6064 H 551.747 -7.55178 0.352354 0
M  V30 6065 H 553.015 -7.75176 -0.819882 0
M  V30 6066 N 557.244 -0.608902 -1.45362 0
M  V30 6067 C 558.191 0.109172 -2.30542 0
M  V30 6068 C 559.161 0.858704 -1.42181 0
M  V30 6069 O 560.346 0.844178 -1.71109 0
M  V30 6070 C 557.486 1.09971 -3.27109 0
M  V30 6071 C 556.599 0.350911 -4.30572 0
M  V30 6072 C 555.734 1.33129 -5.14247 0
M  V30 6073 C 554.773 0.570377 -6.09437 0
M  V30 6074 N 553.91 1.5001 -6.85887 0
M  V30 6075 H 558.75 -0.623195 -2.91411 0
M  V30 6076 H 556.287 -0.319122 -1.43597 0
M  V30 6077 H 558.245 1.68714 -3.81564 0
M  V30 6078 H 556.875 1.79947 -2.67991 0
M  V30 6079 H 555.927 -0.352054 -3.78767 0
M  V30 6080 H 557.239 -0.242725 -4.98209 0
M  V30 6081 H 556.393 1.99074 -5.73109 0
M  V30 6082 H 555.132 1.95885 -4.46632 0
M  V30 6083 H 554.137 -0.102702 -5.49704 0
M  V30 6084 H 555.362 -0.0521607 -6.7908 0
M  V30 6085 H 553.308 2.11529 -6.2096 0
M  V30 6086 H 553.225 0.959934 -7.49881 0
M  V30 6087 H 554.493 2.14909 -7.49289 0
M  V30 6088 N 558.722 1.53707 -0.348139 0
M  V30 6089 C 559.971 2.0017 0.247992 0
M  V30 6090 C 560.284 1.23983 1.51286 0
M  V30 6091 O 561.49 1.60946 2.18652 0
M  V30 6092 C 559.946 3.56515 0.492459 0
M  V30 6093 C 559.554 4.41562 -0.756777 0
M  V30 6094 C 561.298 4.11381 1.0472 0
M  V30 6095 C 559.205 5.89426 -0.482856 0
M  V30 6096 H 558.135 0.747806 0.0964452 0
M  V30 6097 H 560.786 1.77532 -0.464179 0
M  V30 6098 H 559.168 3.75236 1.26545 0
M  V30 6099 H 560.342 4.34615 -1.53122 0
M  V30 6100 H 558.657 3.97711 -1.23348 0
M  V30 6101 H 561.254 5.19468 1.26717 0
M  V30 6102 H 561.597 3.64885 2.00411 0
M  V30 6103 H 562.13 3.96389 0.334801 0
M  V30 6104 H 558.869 6.40164 -1.40962 0
M  V30 6105 H 558.389 5.99264 0.253416 0
M  V30 6106 H 560.068 6.4692 -0.101816 0
M  V30 6107 N 560.2 0.0768682 1.57412 0
M  V30 6108 C 561.11 -0.903207 2.16516 0
M  V30 6109 C 562.126 -1.32341 1.12968 0
M  V30 6110 O 563.302 -1.39507 1.45258 0
M  V30 6111 C 560.367 -2.1508 2.71922 0
M  V30 6112 C 559.428 -1.78653 3.90361 0
M  V30 6113 C 558.661 -2.97465 4.43114 0
M  V30 6114 O 558.884 -4.11638 3.94854 0
M  V30 6115 O 557.818 -2.76987 5.3438 0
M  V30 6116 H 561.644 -0.430427 3.00634 0
M  V30 6117 H 559.229 -0.146485 1.4868 0
M  V30 6118 H 561.111 -2.8823 3.07411 0
M  V30 6119 H 559.786 -2.61446 1.9086 0
M  V30 6120 H 558.693 -1.0274 3.59716 0
M  V30 6121 H 560.026 -1.37066 4.7273 0
M  V30 6122 N 561.678 -1.56367 -0.196722 0
M  V30 6123 C 562.903 -1.84991 -0.937714 0
M  V30 6124 C 563.328 -0.660244 -1.76132 0
M  V30 6125 O 562.686 0.390967 -1.77034 0
M  V30 6126 C 562.734 -3.11828 -1.81096 0
M  V30 6127 O 561.838 -2.92266 -2.90955 0
M  V30 6128 H 561.179 -0.609193 -0.264159 0
M  V30 6129 H 563.709 -2.03595 -0.202529 0
M  V30 6130 H 563.719 -3.42579 -2.21594 0
M  V30 6131 H 562.394 -3.98037 -1.2058 0
M  V30 6132 H 560.971 -2.72809 -2.54224 0
M  V30 6133 N 563.156 0.464375 -1.50603 0
M  V30 6134 C 564.386 1.23727 -1.65454 0
M  V30 6135 C 564.794 1.86119 -0.340032 0
M  V30 6136 O 564.137 1.70301 0.688706 0
M  V30 6137 C 564.199 2.38153 -2.69301 0
M  V30 6138 C 563.863 1.96345 -4.12671 0
M  V30 6139 C 564.86 1.48215 -4.98326 0
M  V30 6140 C 562.545 2.04861 -4.58625 0
M  V30 6141 C 564.539 1.09152 -6.27985 0
M  V30 6142 C 562.226 1.65409 -5.88288 0
M  V30 6143 C 563.224 1.17634 -6.72794 0
M  V30 6144 O 562.912 0.787312 -8.00035 0
M  V30 6145 H 562.644 0.380075 -0.559034 0
M  V30 6146 H 565.198 0.559919 -1.97621 0
M  V30 6147 H 563.428 3.09081 -2.32392 0
M  V30 6148 H 565.117 3.00099 -2.73304 0
M  V30 6149 H 565.883 1.41052 -4.64036 0
M  V30 6150 H 561.762 2.40996 -3.92991 0
M  V30 6151 H 565.306 0.717909 -6.93896 0
M  V30 6152 H 561.203 1.72233 -6.22098 0
M  V30 6153 H 561.971 0.915567 -8.13363 0
M  V30 6154 N 564.634 1.40294 0.718013 0
M  V30 6155 C 565.864 1.41544 1.50495 0
M  V30 6156 C 566.272 0.0127877 1.89196 0
M  V30 6157 O 565.615 -0.97305 1.55812 0
M  V30 6158 C 565.677 2.24021 2.81167 0
M  V30 6159 C 565.341 3.72463 2.64803 0
M  V30 6160 C 566.338 4.65154 2.32223 0
M  V30 6161 C 564.023 4.1625 2.81143 0
M  V30 6162 C 566.017 5.99618 2.16189 0
M  V30 6163 C 563.704 5.50784 2.64727 0
M  V30 6164 C 564.702 6.42283 2.32297 0
M  V30 6165 O 564.39 7.74337 2.16004 0
M  V30 6166 H 564.122 0.484819 0.471091 0
M  V30 6167 H 566.676 1.84948 0.893488 0
M  V30 6168 H 564.906 1.75393 3.44636 0
M  V30 6169 H 566.595 2.17243 3.42871 0
M  V30 6170 H 567.361 4.32622 2.19234 0
M  V30 6171 H 563.24 3.45352 3.05373 0
M  V30 6172 H 566.784 6.71 1.90799 0
M  V30 6173 H 562.681 5.82902 2.773 0
M  V30 6174 H 563.449 7.85244 2.30942 0
M  V30 6175 N 566.112 -0.949982 1.2575 0
M  V30 6176 C 567.337 -1.73503 1.13628 0
M  V30 6177 C 567.762 -1.85601 -0.30559 0
M  V30 6178 O 567.12 -1.33984 -1.22139 0
M  V30 6179 C 567.168 -3.1243 1.80055 0
M  V30 6180 O 566.272 -3.97916 1.08336 0
M  V30 6181 H 565.613 -0.532665 0.396439 0
M  V30 6182 H 568.143 -1.19043 1.66403 0
M  V30 6183 H 568.153 -3.62866 1.86527 0
M  V30 6184 H 566.828 -3.02941 2.84956 0
M  V30 6185 H 565.405 -3.56375 1.09777 0
M  V30 6186 N 567.59 -1.07411 -1.15328 0
M  V30 6187 C 568.818 -0.818782 -1.90009 0
M  V30 6188 C 569.233 0.628072 -1.78047 0
M  V30 6189 O 568.59 1.43085 -1.13282 0
M  V30 6190 C 568.641 -1.21874 -3.40337 0
M  V30 6191 O 568.362 -2.60883 -3.51954 0
M  V30 6192 C 569.863 -0.992796 -4.3204 0
M  V30 6193 H 567.083 -0.296007 -0.60218 0
M  V30 6194 H 569.627 -1.43073 -1.46117 0
M  V30 6195 H 567.782 -0.651103 -3.81889 0
M  V30 6196 H 568.196 -2.77216 -4.45255 0
M  V30 6197 H 569.67 -1.32215 -5.35932 0
M  V30 6198 H 570.147 0.0708331 -4.39143 0
M  V30 6199 H 570.753 -1.54537 -3.9623 0
M  V30 6200 N 569.068 1.32177 -0.85831 0
M  V30 6201 C 570 2.27688 -0.262835 0
M  V30 6202 C 571.013 1.52588 0.567513 0
M  V30 6203 O 572.202 1.74156 0.391407 0
M  V30 6204 C 569.302 3.32668 0.646937 0
M  V30 6205 C 568.475 4.37148 -0.148372 0
M  V30 6206 C 567.534 5.21686 0.687728 0
M  V30 6207 O 566.56 5.69074 0.119934 0
M  V30 6208 N 567.762 5.44892 2.00182 0
M  V30 6209 H 570.527 2.79426 -1.08356 0
M  V30 6210 H 568.088 1.45076 -0.718647 0
M  V30 6211 H 570.08 3.86134 1.2117 0
M  V30 6212 H 568.65 2.81061 1.36834 0
M  V30 6213 H 567.87 3.83915 -0.894572 0
M  V30 6214 H 569.158 5.04038 -0.694514 0
M  V30 6215 H 568.556 5.08128 2.4864 0
M  V30 6216 H 567.113 6.0134 2.51463 0
M  V30 6217 N 570.547 0.616602 1.45037 0
M  V30 6218 C 571.796 0.112861 2.01384 0
M  V30 6219 C 572.109 -1.26758 1.48969 0
M  V30 6220 O 573.315 -1.86454 1.9735 0
M  V30 6221 C 571.771 0.151057 3.59583 0
M  V30 6222 C 571.379 1.53191 4.20995 0
M  V30 6223 C 573.123 -0.296974 4.2346 0
M  V30 6224 C 571.03 1.526 5.71373 0
M  V30 6225 H 569.96 0.0384254 0.75302 0
M  V30 6226 H 572.611 0.773262 1.66412 0
M  V30 6227 H 570.993 -0.57617 3.91786 0
M  V30 6228 H 572.167 2.28156 4.00352 0
M  V30 6229 H 570.482 1.92279 3.69348 0
M  V30 6230 H 573.079 -0.320712 5.33737 0
M  V30 6231 H 573.422 -1.32145 3.9477 0
M  V30 6232 H 573.955 0.377279 3.96007 0
M  V30 6233 H 570.694 2.52837 6.04776 0
M  V30 6234 H 570.214 0.819064 5.94181 0
M  V30 6235 H 571.893 1.25357 6.3474 0
M  V30 6236 N 572.025 -1.5352 0.356285 0
M  V30 6237 C 572.935 -2.29151 -0.502712 0
M  V30 6238 C 573.951 -1.34753 -1.1008 0
M  V30 6239 O 575.127 -1.67803 -1.11374 0
M  V30 6240 C 572.192 -3.05911 -1.63154 0
M  V30 6241 C 571.253 -4.15958 -1.06194 0
M  V30 6242 C 570.486 -4.8905 -2.13696 0
M  V30 6243 O 570.709 -4.61919 -3.34645 0
M  V30 6244 O 569.643 -5.75202 -1.77275 0
M  V30 6245 H 573.469 -3.03492 0.112466 0
M  V30 6246 H 571.054 -1.4891 0.120942 0
M  V30 6247 H 572.936 -3.53874 -2.28804 0
M  V30 6248 H 571.611 -2.34415 -2.23229 0
M  V30 6249 H 570.518 -3.7227 -0.369603 0
M  V30 6250 H 571.851 -4.89593 -0.505872 0
M  V30 6251 N 573.503 -0.0852151 -1.57369 0
M  V30 6252 C 574.413 0.891712 -2.16992 0
M  V30 6253 C 575.429 1.3174 -1.13669 0
M  V30 6254 O 576.605 1.38735 -1.45995 0
M  V30 6255 C 573.67 2.13635 -2.73059 0
M  V30 6256 C 572.731 1.7658 -3.91303 0
M  V30 6257 C 571.964 2.95111 -4.44686 0
M  V30 6258 O 572.187 4.09539 -3.97032 0
M  V30 6259 O 571.121 2.74149 -5.35841 0
M  V30 6260 H 574.947 0.414477 -3.00858 0
M  V30 6261 H 572.532 0.138598 -1.48756 0
M  V30 6262 H 574.414 2.86595 -3.08935 0
M  V30 6263 H 573.089 2.6043 -1.92244 0
M  V30 6264 H 571.996 1.00831 -3.60255 0
M  V30 6265 H 573.329 1.34557 -4.7345 0
M  V30 6266 N 574.981 1.5647 0.188427 0
M  V30 6267 C 575.914 1.90146 1.26173 0
M  V30 6268 C 576.892 0.762294 1.43624 0
M  V30 6269 O 578.076 1.01395 1.58907 0
M  V30 6270 C 575.203 2.13748 2.62735 0
M  V30 6271 C 574.249 3.36448 2.62116 0
M  V30 6272 S 575.082 4.91364 2.12889 0
M  V30 6273 C 576.238 5.18041 3.51261 0
M  V30 6274 H 576.471 2.80886 0.974192 0
M  V30 6275 H 574.004 1.49335 0.392226 0
M  V30 6276 H 575.962 2.28028 3.41341 0
M  V30 6277 H 574.623 1.23747 2.88696 0
M  V30 6278 H 573.816 3.50109 3.62546 0
M  V30 6279 H 573.418 3.21196 1.91596 0
M  V30 6280 H 575.71 5.0897 4.47164 0
M  V30 6281 H 576.653 6.19764 3.42489 0
M  V30 6282 H 577.061 4.45657 3.46482 0
M  V30 6283 N 576.459 -0.456382 1.50847 0
M  V30 6284 C 577.87 -1.03685 1.55262 0
M  V30 6285 C 578.221 -1.92779 0.364771 0
M  V30 6286 O 577.346 -2.10043 -0.52068 0
M  V30 6287 C 577.941 -1.88718 2.81374 0
M  V30 6288 C 576.5 -2.41847 2.88422 0
M  V30 6289 C 575.647 -1.20564 2.49719 0
M  V30 6290 H 578.598 -0.238399 1.56899 0
M  V30 6291 H 578.619 -2.73957 2.6406 0
M  V30 6292 H 578.131 -1.23847 3.67809 0
M  V30 6293 H 576.232 -3.10228 2.06372 0
M  V30 6294 H 576.345 -2.75947 3.9165 0
M  V30 6295 H 574.709 -1.54504 2.02486 0
M  V30 6296 H 575.492 -0.573326 3.38479 0
M  V30 6297 N 577.937 -1.40673 -0.710563 0
M  V30 6298 C 578.867 -1.44095 -1.83736 0
M  V30 6299 C 579.848 -0.301286 -1.67411 0
M  V30 6300 O 581.033 -0.510618 -1.87367 0
M  V30 6301 C 578.163 -1.30773 -3.21738 0
M  V30 6302 C 577.117 -2.42395 -3.52745 0
M  V30 6303 C 576.443 -2.14147 -4.89944 0
M  V30 6304 C 577.743 -3.84738 -3.53234 0
M  V30 6305 H 579.437 -2.38396 -1.81129 0
M  V30 6306 H 576.983 -1.14746 -0.870017 0
M  V30 6307 H 578.936 -1.31783 -4.00264 0
M  V30 6308 H 577.66 -0.329507 -3.24934 0
M  V30 6309 H 576.319 -2.40643 -2.76562 0
M  V30 6310 H 575.967 -1.14703 -4.89747 0
M  V30 6311 H 575.667 -2.88934 -5.11655 0
M  V30 6312 H 577.191 -2.16848 -5.70797 0
M  V30 6313 H 578.605 -3.88286 -4.2179 0
M  V30 6314 H 577.002 -4.59085 -3.86473 0
M  V30 6315 H 578.072 -4.13962 -2.52514 0
M  V30 6316 N 579.415 0.9433 -1.26252 0
M  V30 6317 C 580.325 2.07532 -1.09397 0
M  V30 6318 C 581.341 1.73977 -0.0280449 0
M  V30 6319 O 582.517 2.00067 -0.231337 0
M  V30 6320 C 579.582 3.39002 -0.726523 0
M  V30 6321 C 578.643 3.86353 -1.87163 0
M  V30 6322 C 577.876 5.11549 -1.52162 0
M  V30 6323 O 578.099 5.68834 -0.422385 0
M  V30 6324 O 577.033 5.53889 -2.35565 0
M  V30 6325 H 580.859 2.24658 -2.04359 0
M  V30 6326 H 578.444 1.05988 -1.05295 0
M  V30 6327 H 580.326 4.18 -0.534236 0
M  V30 6328 H 579.001 3.2312 0.193721 0
M  V30 6329 H 577.908 3.0831 -2.11886 0
M  V30 6330 H 579.241 4.06752 -2.77152 0
M  V30 6331 N 580.893 1.08022 1.14757 0
M  V30 6332 C 582.139 0.808705 1.85978 0
M  V30 6333 C 582.472 -0.663764 1.82504 0
M  V30 6334 O 581.747 -1.48765 1.25296 0
M  V30 6335 C 582.03 1.32623 3.34788 0
M  V30 6336 C 581.883 2.86375 3.46856 0
M  V30 6337 C 583.202 0.948291 4.29762 0
M  V30 6338 H 580.321 0.295244 0.675278 0
M  V30 6339 H 582.963 1.33917 1.34783 0
M  V30 6340 H 581.113 0.875002 3.78518 0
M  V30 6341 H 582.785 3.39839 3.11941 0
M  V30 6342 H 581.028 3.24232 2.88194 0
M  V30 6343 H 581.699 3.17658 4.51439 0
M  V30 6344 H 584.175 1.33722 3.94028 0
M  V30 6345 H 583.051 1.33765 5.32352 0
M  V30 6346 H 583.312 -0.145094 4.41862 0
M  V30 6347 N 582.371 -1.3172 0.865308 0
M  V30 6348 C 583.334 -2.26918 0.322627 0
M  V30 6349 C 584.334 -1.52031 -0.523751 0
M  V30 6350 O 585.524 -1.70973 -0.333727 0
M  V30 6351 C 582.656 -3.36558 -0.542338 0
M  V30 6352 H 583.849 -2.76432 1.16298 0
M  V30 6353 H 581.402 -1.42573 0.640512 0
M  V30 6354 H 582.137 -2.92329 -1.40407 0
M  V30 6355 H 581.922 -3.92048 0.0636395 0
M  V30 6356 H 583.412 -4.07465 -0.91446 0
M  V30 6357 N 583.85 -0.624285 -1.44708 0
M  V30 6358 C 585.127 -0.0572781 -1.95516 0
M  V30 6359 C 585.507 1.41516 -1.56641 0
M  V30 6360 O 584.855 2.12614 -0.837111 0
M  V30 6361 C 585.065 -0.272944 -3.47931 0
M  V30 6362 C 586.413 -0.162529 -4.24289 0
M  V30 6363 O 587.437 -0.203946 -3.55616 0
M  V30 6364 O 586.296 -0.0616847 -5.46465 0
M  V30 6365 H 583.389 0.0262219 -0.826584 0
M  V30 6366 H 585.936 -0.695512 -1.54793 0
M  V30 6367 H 584.707 -1.29492 -3.69253 0
M  V30 6368 H 584.331 0.399756 -3.95585 0
M  V30 6369 N 585.328 1.53329 -0.364422 0
M  V30 6370 C 586.558 2.05359 0.226096 0
M  V30 6371 C 586.966 1.23777 1.43094 0
M  V30 6372 O 586.309 0.271139 1.81688 0
M  V30 6373 C 586.371 3.52918 0.684794 0
M  V30 6374 C 586.035 4.55218 -0.403206 0
M  V30 6375 C 587.032 5.04583 -1.2527 0
M  V30 6376 C 584.717 4.99134 -0.563117 0
M  V30 6377 C 586.711 5.96463 -2.24745 0
M  V30 6378 C 584.398 5.9082 -1.56124 0
M  V30 6379 C 585.396 6.39375 -2.40184 0
M  V30 6380 O 585.084 7.29255 -3.38293 0
M  V30 6381 H 584.816 0.674588 0.0436772 0
M  V30 6382 H 587.37 1.98688 -0.520782 0
M  V30 6383 H 585.6 3.57122 1.48326 0
M  V30 6384 H 587.289 3.87812 1.19818 0
M  V30 6385 H 588.055 4.71403 -1.14034 0
M  V30 6386 H 583.934 4.60928 0.0813909 0
M  V30 6387 H 587.478 6.34285 -2.90393 0
M  V30 6388 H 583.375 6.23414 -1.67407 0
M  V30 6389 H 584.143 7.47249 -3.34009 0
M  V30 6390 N 586.806 0.0935595 1.57322 0
M  V30 6391 C 587.736 -0.863062 2.16964 0
M  V30 6392 C 588.717 -1.29528 1.10256 0
M  V30 6393 O 589.902 -1.36245 1.38387 0
M  V30 6394 C 587.032 -2.12276 2.74875 0
M  V30 6395 C 585.986 -1.82921 3.86942 0
M  V30 6396 C 585.312 -3.15707 4.31548 0
M  V30 6397 C 586.612 -1.11737 5.10208 0
M  V30 6398 H 588.306 -0.366145 2.97153 0
M  V30 6399 H 585.852 -0.174673 1.42937 0
M  V30 6400 H 587.805 -2.79634 3.1525 0
M  V30 6401 H 586.529 -2.64248 1.91938 0
M  V30 6402 H 585.188 -1.17961 3.47103 0
M  V30 6403 H 584.836 -3.65563 3.45504 0
M  V30 6404 H 584.536 -2.96849 5.07104 0
M  V30 6405 H 586.06 -3.84226 4.74555 0
M  V30 6406 H 587.474 -1.69203 5.47762 0
M  V30 6407 H 585.871 -1.03064 5.91183 0
M  V30 6408 H 586.941 -0.0998818 4.84797 0
M  V30 6409 O 588.323 -1.61433 -0.0465113 0
M  V30 6410 H 589.014 -1.8177 -0.669292 0
M  V30 END ATOM
M  V30 BEGIN BOND
M  V30 END BOND
M  V30 END CTAB
M  END
$$$$
